drugbank_target|Q13546 Receptor-interacting serine/threonine-protein kinase 1 (DB12010)
 OpenBabel12092121183D

  0  0  0     0  0            999 V3000
M  V30 BEGIN CTAB
M  V30 COUNTS 10543 10662 0 0 0
M  V30 BEGIN ATOM
M  V30 1 H -0.908 1.98254 -0.117106 0
M  V30 2 N 0 1.576 0 0
M  V30 3 C 0.933 2.03868 1.02534 0
M  V30 4 C 1.911 0.928543 1.3348 0
M  V30 5 O 3.095 1.19667 1.45644 0
M  V30 6 C 0.222 2.43627 2.35294 0
M  V30 7 C -0.732 3.65373 2.2001 0
M  V30 8 S 0.101 5.13292 1.52614 0
M  V30 9 C 1.257 5.56322 2.86805 0
M  V30 10 H 1.49 2.90518 0.631377 0
M  V30 11 H -0.977 1.52953 0.210867 0
M  V30 12 H 0.981 2.67203 3.11629 0
M  V30 13 H -0.358 1.57376 2.7183 0
M  V30 14 H -1.165 3.90944 3.18086 0
M  V30 15 H -1.563 3.418 1.51819 0
M  V30 16 H 0.729 5.58782 3.83104 0
M  V30 17 H 1.672 6.56266 2.65933 0
M  V30 18 H 2.08 4.83886 2.90714 0
M  V30 19 N 1.4781 -0.272755 1.55222 0
M  V30 20 C 2.4101 -1.35946 1.8453 0
M  V30 21 C 3.4231 -1.45525 0.729818 0
M  V30 22 O 4.6121 -1.47337 1.00767 0
M  V30 23 C 1.7121 -2.74069 1.99347 0
M  V30 24 C 0.8851 -2.87079 3.30007 0
M  V30 25 C -0.0559 -4.05879 3.34886 0
M  V30 26 O -1.0299 -3.96626 4.08261 0
M  V30 27 N 0.1721 -5.17857 2.62307 0
M  V30 28 H 2.9371 -1.11149 2.78327 0
M  V30 29 H 0.4981 -0.462869 1.55142 0
M  V30 30 H 2.4901 -3.51838 1.99981 0
M  V30 31 H 1.0601 -2.91688 1.12415 0
M  V30 32 H 0.2801 -1.96193 3.41909 0
M  V30 33 H 1.5681 -2.92701 4.16177 0
M  V30 34 H 0.9661 -5.28261 2.02377 0
M  V30 35 H -0.4769 -5.93855 2.68663 0
M  V30 36 N 2.9562 -1.48159 -0.537278 0
M  V30 37 C 4.3672 -1.49429 -1.11928 0
M  V30 38 C 4.7182 -0.26 -1.9447 0
M  V30 39 O 3.8432 0.633489 -2.0692 0
M  V30 40 C 4.4382 -2.70758 -2.03656 0
M  V30 41 C 2.9972 -2.74923 -2.57088 0
M  V30 42 C 2.1442 -2.42835 -1.3389 0
M  V30 43 H 5.0952 -1.55381 -0.322886 0
M  V30 44 H 5.1162 -2.48861 -2.87834 0
M  V30 45 H 4.6282 -3.60575 -1.43553 0
M  V30 46 H 2.7292 -1.89296 -3.20933 0
M  V30 47 H 2.8422 -3.76157 -2.9672 0
M  V30 48 H 1.2062 -1.93836 -1.65226 0
M  V30 49 H 1.9892 -3.34884 -0.755504 0
M  V30 50 N 4.4343 0.785586 -1.36625 0
M  V30 51 C 5.7113 1.53198 -1.21613 0
M  V30 52 C 6.0913 2.10187 0.196113 0
M  V30 53 O 5.4393 1.94318 1.20219 0
M  V30 54 C 5.6493 2.62388 -2.30116 0
M  V30 55 C 6.9973 3.30167 -2.66974 0
M  V30 56 O 8.0213 2.72674 -2.29188 0
M  V30 57 O 6.8803 4.34077 -3.32023 0
M  V30 58 H 3.9743 0.677865 -0.473738 0
M  V30 59 H 6.5203 0.823739 -1.48367 0
M  V30 60 H 5.2923 2.18299 -3.24748 0
M  V30 61 H 4.9153 3.40827 -2.0475 0
M  V30 62 N 5.9124 1.20967 1.01018 0
M  V30 63 C 6.8454 0.907578 2.09376 0
M  V30 64 C 7.8234 -0.142868 1.61971 0
M  V30 65 O 9.0074 -0.0150391 1.88494 0
M  V30 66 C 6.1344 0.361791 3.36762 0
M  V30 67 C 5.1804 1.39423 4.03068 0
M  V30 68 S 6.0134 2.96159 4.4615 0
M  V30 69 C 7.1694 2.43173 5.7673 0
M  V30 70 H 7.4024 1.82519 2.34678 0
M  V30 71 H 4.9354 1.03884 1.14225 0
M  V30 72 H 6.8934 0.0534523 4.10465 0
M  V30 73 H 5.5544 -0.53443 3.0952 0
M  V30 74 H 4.7474 0.961853 4.94737 0
M  V30 75 H 4.3494 1.65038 3.35617 0
M  V30 76 H 6.6414 1.83335 6.52223 0
M  V30 77 H 7.5844 3.33264 6.24773 0
M  V30 78 H 7.9924 1.85069 5.33301 0
M  V30 79 N 7.3905 -1.2043 1.01659 0
M  V30 80 C 8.6155 -1.94318 0.724942 0
M  V30 81 C 9.0405 -1.74266 -0.708034 0
M  V30 82 O 8.3985 -1.03694 -1.48719 0
M  V30 83 C 8.4465 -3.44486 1.06591 0
M  V30 84 O 7.5505 -4.12017 0.177599 0
M  V30 85 H 6.8915 -0.60708 0.26898 0
M  V30 86 H 9.4215 -1.52861 1.35995 0
M  V30 87 H 9.4315 -3.95106 1.01762 0
M  V30 88 H 8.1065 -3.58404 2.10997 0
M  V30 89 H 6.6835 -3.71821 0.283421 0
M  V30 90 N 8.8686 -0.792821 -1.36206 0
M  V30 91 C 9.7986 -0.207853 -2.32573 0
M  V30 92 C 10.7796 0.659055 -1.56813 0
M  V30 93 O 11.9646 0.592176 -1.84951 0
M  V30 94 C 9.0946 0.655449 -3.41059 0
M  V30 95 C 8.0486 -0.111842 -4.27854 0
M  V30 96 C 7.3746 0.872274 -5.27537 0
M  V30 97 C 8.6746 -1.30299 -5.05786 0
M  V30 98 H 10.3686 -1.01294 -2.81744 0
M  V30 99 H 7.9146 -0.48854 -1.3546 0
M  V30 100 H 9.8676 1.07464 -4.07467 0
M  V30 101 H 8.5916 1.49328 -2.90463 0
M  V30 102 H 7.2506 -0.512053 -3.63006 0
M  V30 103 H 6.8986 1.70523 -4.73214 0
M  V30 104 H 6.5986 0.363291 -5.86476 0
M  V30 105 H 8.1226 1.28996 -5.96818 0
M  V30 106 H 9.5366 -0.959379 -5.65216 0
M  V30 107 H 7.9336 -1.7455 -5.74154 0
M  V30 108 H 9.0036 -2.09663 -4.37229 0
M  V30 109 N 10.3467 1.47872 -0.545128 0
M  V30 110 C 11.2947 2.31533 0.222512 0
M  V30 111 C 12.2887 1.42177 0.920985 0
M  V30 112 O 13.4947 1.59005 0.843645 0
M  V30 113 H 9.8697 0.746519 0.0906278 0
M  V30 114 H 11.8407 2.94139 -0.50246 0
M  V30 115 C 10.5897 3.2457 1.24699 0
M  V30 116 H 9.9127 3.93283 0.718944 0
M  V30 117 H 11.3527 3.85963 1.75523 0
M  V30 118 C 9.8117 2.47237 2.28856 0
M  V30 119 O 10.3417 2.20808 3.35569 0
M  V30 120 N 8.5477 2.08461 2.02466 0
M  V30 121 H 8.0947 2.30155 1.157 0
M  V30 122 H 8.0527 1.57033 2.72375 0
M  V30 123 N 11.8248 0.280983 1.55075 0
M  V30 124 C 13.0708 -0.33461 2.00021 0
M  V30 125 C 13.4038 -1.55063 1.16915 0
M  V30 126 O 12.6788 -1.93006 0.240646 0
M  V30 127 C 12.9618 -0.711007 3.53011 0
M  V30 128 C 12.8148 0.512766 4.46868 0
M  V30 129 C 14.1338 -1.54522 4.12081 0
M  V30 130 H 11.2528 -0.120147 0.727141 0
M  V30 131 H 13.8948 0.389097 1.85973 0
M  V30 132 H 12.0448 -1.32761 3.65112 0
M  V30 133 H 13.7168 1.15131 4.46702 0
M  V30 134 H 11.9598 1.14975 4.18286 0
M  V30 135 H 12.6308 0.205556 5.51617 0
M  V30 136 H 15.1068 -1.02442 4.03293 0
M  V30 137 H 13.9828 -1.77739 5.19327 0
M  V30 138 H 14.2438 -2.52813 3.62682 0
M  V30 139 N 13.3029 -1.57598 0.00835791 0
M  V30 140 C 14.5519 -1.90107 -0.673968 0
M  V30 141 C 14.8649 -0.884275 -1.7447 0
M  V30 142 O 16.0709 -1.09987 -2.48224 0
M  V30 143 C 14.5269 -3.37497 -1.24995 0
M  V30 144 C 14.1349 -4.47491 -0.2136 0
M  V30 145 C 15.8789 -3.79104 -1.90999 0
M  V30 146 C 13.7859 -5.85963 -0.80005 0
M  V30 147 H 12.7159 -0.709393 -0.255495 0
M  V30 148 H 15.3669 -1.83365 0.0702693 0
M  V30 149 H 13.7489 -3.39102 -2.04513 0
M  V30 150 H 14.9229 -4.57414 0.557596 0
M  V30 151 H 13.2379 -4.14956 0.346474 0
M  V30 152 H 15.8349 -4.79901 -2.35795 0
M  V30 153 H 16.1779 -3.1306 -2.74407 0
M  V30 154 H 16.7109 -3.79833 -1.18203 0
M  V30 155 H 13.4499 -6.555 -0.00456708 0
M  V30 156 H 12.9699 -5.79687 -1.54021 0
M  V30 157 H 14.6489 -6.33884 -1.29615 0
M  V30 158 N 14.781 0.264519 -1.55364 0
M  V30 159 C 15.728 1.32717 -1.88825 0
M  V30 160 C 16.698 1.48675 -0.740605 0
M  V30 161 O 17.883 1.62945 -0.992657 0
M  V30 162 C 15.023 2.68089 -2.17307 0
M  V30 163 C 14.136 2.60284 -3.44785 0
M  V30 164 C 13.271 3.87892 -3.62924 0
M  V30 165 C 12.31 3.74631 -4.84064 0
M  V30 166 N 11.447 4.94092 -4.98816 0
M  V30 167 H 16.287 1.03481 -2.79456 0
M  V30 168 H 13.824 0.499757 -1.3835 0
M  V30 169 H 15.782 3.46864 -2.31821 0
M  V30 170 H 14.412 2.95509 -1.299 0
M  V30 171 H 13.464 1.73173 -3.38697 0
M  V30 172 H 14.776 2.46388 -4.33698 0
M  V30 173 H 13.93 4.75109 -3.77302 0
M  V30 174 H 12.669 4.04664 -2.7221 0
M  V30 175 H 11.674 2.85797 -4.69681 0
M  V30 176 H 12.899 3.5937 -5.76221 0
M  V30 177 H 10.845 5.11259 -4.11036 0
M  V30 178 H 10.762 4.8276 -5.81789 0
M  V30 179 H 12.03 5.82857 -5.17588 0
M  V30 180 N 16.2591 1.48442 0.529413 0
M  V30 181 C 17.1921 1.57577 1.65059 0
M  V30 182 C 18.1701 0.426198 1.56915 0
M  V30 183 O 19.3541 0.637877 1.77379 0
M  V30 184 C 16.4811 1.5043 3.03461 0
M  V30 185 C 15.5271 2.70235 3.29962 0
M  V30 186 S 16.3601 4.32198 3.16172 0
M  V30 187 C 17.5161 4.2765 4.57019 0
M  V30 188 H 17.7491 2.52427 1.5706 0
M  V30 189 H 15.2821 1.36982 0.712417 0
M  V30 190 H 17.2401 1.46992 3.8328 0
M  V30 191 H 15.9011 0.569167 3.089 0
M  V30 192 H 15.0941 2.61374 4.30929 0
M  V30 193 H 14.6961 2.70938 2.57815 0
M  V30 194 H 16.9881 3.97618 5.48549 0
M  V30 195 H 17.9311 5.28797 4.70934 0
M  V30 196 H 18.3391 3.5811 4.36368 0
M  V30 197 N 17.7372 -0.778329 1.37039 0
M  V30 198 C 18.6842 -1.89139 1.32269 0
M  V30 199 C 19.6542 -1.65017 0.189387 0
M  V30 200 O 20.8392 -1.87024 0.377693 0
M  V30 201 C 17.9792 -3.26112 1.12894 0
M  V30 202 C 17.0922 -3.62233 2.35396 0
M  V30 203 C 16.2272 -4.8838 2.08946 0
M  V30 204 C 15.2662 -5.17212 3.2735 0
M  V30 205 N 14.4032 -6.34546 3.00492 0
M  V30 206 H 19.2432 -1.92552 2.27437 0
M  V30 207 H 16.7802 -0.941473 1.13025 0
M  V30 208 H 18.7382 -4.05116 0.996835 0
M  V30 209 H 17.3682 -3.22091 0.213758 0
M  V30 210 H 16.4202 -2.78265 2.5937 0
M  V30 211 H 17.7322 -3.79481 3.23721 0
M  V30 212 H 16.8862 -5.75274 1.92729 0
M  V30 213 H 15.6252 -4.73222 1.17949 0
M  V30 214 H 14.6302 -4.28796 3.44113 0
M  V30 215 H 15.8552 -5.34283 4.19188 0
M  V30 216 H 13.8012 -6.20759 2.12118 0
M  V30 217 H 13.7182 -6.52179 3.82358 0
M  V30 218 H 14.9862 -7.24394 2.87879 0
M  V30 219 N 19.2153 -1.21501 -1.00376 0
M  V30 220 C 20.4403 -1.05977 -1.78279 0
M  V30 221 C 20.8653 0.385994 -1.84097 0
M  V30 222 O 20.2233 1.27849 -1.28547 0
M  V30 223 C 20.2713 -1.66302 -3.19963 0
M  V30 224 O 19.3753 -0.909333 -4.0225 0
M  V30 225 H 18.7163 -0.372906 -0.549397 0
M  V30 226 H 21.2463 -1.6107 -1.26165 0
M  V30 227 H 21.2563 -1.70574 -3.70632 0
M  V30 228 H 19.9313 -2.71515 -3.15043 0
M  V30 229 H 18.5083 -0.941795 -3.60811 0
M  V30 230 N 20.6934 1.19889 -1.02296 0
M  V30 231 C 21.9184 1.9393 -0.735237 0
M  V30 232 C 22.3434 1.74639 0.698782 0
M  V30 233 O 21.7014 1.04481 1.48167 0
M  V30 234 C 21.7494 3.43916 -1.08417 0
M  V30 235 O 20.8534 4.11917 -0.199446 0
M  V30 236 H 20.1944 0.605645 -0.272196 0
M  V30 237 H 22.7244 1.52137 -1.36804 0
M  V30 238 H 22.7344 3.9456 -1.03856 0
M  V30 239 H 21.4094 3.5728 -2.12894 0
M  V30 240 H 19.9864 3.71666 -0.303136 0
M  V30 241 N 22.1715 0.800033 1.35784 0
M  V30 242 C 23.4485 0.30088 1.93272 0
M  V30 243 C 23.8285 -1.20857 1.73081 0
M  V30 244 O 23.1765 -2.00502 1.09596 0
M  V30 245 C 23.3865 0.70511 3.41803 0
M  V30 246 C 24.7345 0.690871 4.18942 0
M  V30 247 O 25.7585 0.646244 3.50289 0
M  V30 248 O 24.6175 0.74332 5.41421 0
M  V30 249 H 21.7115 0.0771605 0.823393 0
M  V30 250 H 24.2575 0.88329 1.449 0
M  V30 251 H 23.0295 1.74571 3.50201 0
M  V30 252 H 22.6525 0.0971541 3.97481 0
M  V30 253 N 23.6496 -1.47581 0.552962 0
M  V30 254 C 24.8966 -2.02482 0.0273243 0
M  V30 255 C 25.2246 -1.42776 -1.32081 0
M  V30 256 O 24.4796 -0.571393 -1.87173 0
M  V30 257 C 24.7786 -3.57199 -0.119728 0
M  V30 258 C 24.4446 -4.35804 1.15697 0
M  V30 259 C 23.1066 -4.57 1.50681 0
M  V30 260 C 25.4586 -4.81167 2.00319 0
M  V30 261 C 22.7866 -5.20807 2.70142 0
M  V30 262 C 25.1386 -5.46293 3.18978 0
M  V30 263 C 23.8026 -5.65722 3.54281 0
M  V30 264 H 23.0726 -0.740933 0.00999866 0
M  V30 265 H 25.7196 -1.77302 0.72362 0
M  V30 266 H 24.0246 -3.81348 -0.89896 0
M  V30 267 H 25.7216 -3.97324 -0.541718 0
M  V30 268 H 22.3116 -4.19582 0.874561 0
M  V30 269 H 26.4956 -4.64574 1.74599 0
M  V30 270 H 21.7516 -5.34045 2.97668 0
M  V30 271 H 25.9256 -5.80407 3.84838 0
M  V30 272 H 23.5526 -6.14936 4.46942 0
M  V30 273 N 25.1277 -0.289203 -1.54924 0
M  V30 274 C 26.0577 0.58549 -2.2604 0
M  V30 275 C 27.0387 1.14753 -1.25562 0
M  V30 276 O 28.2237 1.17906 -1.54311 0
M  V30 277 C 25.3537 1.76305 -2.99222 0
M  V30 278 C 24.3077 1.33191 -4.06748 0
M  V30 279 C 23.6337 2.5937 -4.6758 0
M  V30 280 C 24.9337 0.471775 -5.20165 0
M  V30 281 H 26.6277 -0.00763532 -2.99399 0
M  V30 282 H 24.1737 -0.00511229 -1.43999 0
M  V30 283 H 26.1267 2.38097 -3.47689 0
M  V30 284 H 24.8507 2.38223 -2.23422 0
M  V30 285 H 23.5097 0.737121 -3.59113 0
M  V30 286 H 23.1577 3.19576 -3.88433 0
M  V30 287 H 22.8577 2.31228 -5.40192 0
M  V30 288 H 24.3817 3.21985 -5.18804 0
M  V30 289 H 25.7957 0.995056 -5.64599 0
M  V30 290 H 24.1927 0.284639 -5.99425 0
M  V30 291 H 25.2627 -0.506041 -4.82252 0
M  V30 292 N 26.6058 1.57591 -0.0167156 0
M  V30 293 C 27.5158 2.1291 0.98521 0
M  V30 294 C 28.5318 1.07834 1.36557 0
M  V30 295 O 29.7078 1.39826 1.44951 0
M  V30 296 C 26.7728 2.63512 2.25305 0
M  V30 297 C 25.8338 3.83256 1.93426 0
M  V30 298 C 25.0668 4.31435 3.14165 0
M  V30 299 O 25.2898 3.78851 4.26413 0
M  V30 300 O 24.2238 5.23416 2.97186 0
M  V30 301 H 28.0498 2.98772 0.544888 0
M  V30 302 H 25.6348 1.48012 0.203141 0
M  V30 303 H 27.5168 2.96183 2.99756 0
M  V30 304 H 26.1918 1.8074 2.68542 0
M  V30 305 H 25.0988 3.55531 1.16398 0
M  V30 306 H 26.4318 4.67153 1.55013 0
M  V30 307 N 28.0839 -0.256276 1.55502 0
M  V30 308 C 29.3089 -1.00766 1.81276 0
M  V30 309 C 29.7339 -1.78524 0.59252 0
M  V30 310 O 29.0919 -1.75413 -0.45827 0
M  V30 311 C 29.1399 -1.92869 3.04687 0
M  V30 312 O 28.2439 -3.019 2.80945 0
M  V30 313 H 27.5849 -0.287224 0.598664 0
M  V30 314 H 30.1149 -0.280109 2.02674 0
M  V30 315 H 30.1249 -2.34511 3.33869 0
M  V30 316 H 28.7999 -1.35689 3.93143 0
M  V30 317 H 27.3769 -2.64454 2.62904 0
M  V30 318 N 29.562 -1.4872 -0.521534 0
M  V30 319 C 30.525 -1.63379 -1.60748 0
M  V30 320 C 31.525 -0.50661 -1.52611 0
M  V30 321 O 32.715 -0.772601 -1.5613 0
M  V30 322 C 29.847 -1.61192 -3.00383 0
M  V30 323 H 31.04 -2.60217 -1.49087 0
M  V30 324 H 28.593 -1.37444 -0.744235 0
M  V30 325 H 29.328 -0.65863 -3.17541 0
M  V30 326 H 29.113 -2.43032 -3.07698 0
M  V30 327 H 30.603 -1.7466 -3.7932 0
M  V30 328 N 31.0401 0.771051 -1.3745 0
M  V30 329 C 31.9501 1.91538 -1.35464 0
M  V30 330 C 32.9661 1.72134 -0.254123 0
M  V30 331 O 34.1421 1.95358 -0.489626 0
M  V30 332 C 31.2071 3.26671 -1.16134 0
M  V30 333 C 30.2681 3.58723 -2.35831 0
M  V30 334 C 29.5011 4.87409 -2.17413 0
M  V30 335 O 29.7241 5.58506 -1.15876 0
M  V30 336 O 28.6581 5.18539 -3.05615 0
M  V30 337 H 32.4841 1.96165 -2.31847 0
M  V30 338 H 30.0691 0.9139 -1.18187 0
M  V30 339 H 31.9511 4.07499 -1.07345 0
M  V30 340 H 30.6261 3.22894 -0.228251 0
M  V30 341 H 29.5331 2.78127 -2.50192 0
M  V30 342 H 30.8661 3.67243 -3.27709 0
M  V30 343 N 32.5182 1.22032 0.997298 0
M  V30 344 C 33.4482 1.01065 2.10495 0
M  V30 345 C 34.4292 -0.0669542 1.69968 0
M  V30 346 O 35.6142 0.0943987 1.9397 0
M  V30 347 C 32.7442 0.582874 3.42374 0
M  V30 348 C 31.6982 1.60592 3.96729 0
M  V30 349 C 31.0242 1.03412 5.24605 0
M  V30 350 C 32.3242 2.99478 4.27914 0
M  V30 351 H 34.0182 1.93708 2.28292 0
M  V30 352 H 31.5642 0.932761 1.09707 0
M  V30 353 H 33.5172 0.423332 4.19268 0
M  V30 354 H 32.2412 -0.379213 3.24391 0
M  V30 355 H 30.9002 1.75316 3.21963 0
M  V30 356 H 30.5482 0.063518 5.0296 0
M  V30 357 H 30.2482 1.71754 5.61938 0
M  V30 358 H 31.7722 0.886066 6.04137 0
M  V30 359 H 33.1862 2.88153 4.95622 0
M  V30 360 H 31.5832 3.64903 4.76409 0
M  V30 361 H 32.6532 3.49742 3.3587 0
M  V30 362 N 33.9963 -1.19345 1.0293 0
M  V30 363 C 35.2733 -1.84811 0.640642 0
M  V30 364 C 35.6533 -1.91855 -0.88062 0
M  V30 365 O 35.0013 -1.43587 -1.7775 0
M  V30 366 C 35.2113 -3.23755 1.30321 0
M  V30 367 C 36.5593 -3.99912 1.42673 0
M  V30 368 O 37.5833 -3.33155 1.26041 0
M  V30 369 O 36.4423 -5.19494 1.6967 0
M  V30 370 H 33.5363 -0.796443 0.222726 0
M  V30 371 H 36.0823 -1.26831 1.12748 0
M  V30 372 H 34.8543 -3.13466 2.34211 0
M  V30 373 H 34.4773 -3.89381 0.804261 0
M  V30 374 N 35.4744 -0.807222 -1.35358 0
M  V30 375 C 36.6994 -0.399309 -2.0352 0
M  V30 376 C 37.1244 0.981986 -1.60433 0
M  V30 377 O 36.4824 1.63601 -0.781299 0
M  V30 378 C 36.5304 -0.491552 -3.57234 0
M  V30 379 O 35.6344 0.494754 -4.09421 0
M  V30 380 H 34.9754 -0.166682 -0.642739 0
M  V30 381 H 37.5054 -1.09328 -1.72941 0
M  V30 382 H 37.5154 -0.361588 -4.06395 0
M  V30 383 H 36.1904 -1.49907 -3.87944 0
M  V30 384 H 34.7674 0.324977 -3.71481 0
M  V30 385 N 36.9525 1.47285 -0.560781 0
M  V30 386 C 38.2005 2.02064 -0.0379868 0
M  V30 387 C 38.5215 1.43711 1.31803 0
M  V30 388 O 37.7915 0.61362 1.86042 0
M  V30 389 H 36.3715 0.746918 -0.0110531 0
M  V30 390 H 39.0335 1.80648 -0.731598 0
M  V30 391 H 38.1295 3.12064 0.0474463 0
M  V30 392 N 38.4306 0.297415 1.54768 0
M  V30 393 C 39.6786 -0.312295 1.99673 0
M  V30 394 C 39.9996 -1.54686 1.18732 0
M  V30 395 O 39.2696 -1.93854 0.282382 0
M  V30 396 H 37.8496 -0.118381 0.73756 0
M  V30 397 H 40.5116 0.407915 1.90583 0
M  V30 398 H 39.6076 -0.586813 3.06534 0
M  V30 399 N 39.9087 -1.5758 0.0250728 0
M  V30 400 C 41.1557 -1.91633 -0.654444 0
M  V30 401 C 41.4837 -0.901103 -1.72367 0
M  V30 402 O 40.7387 0.0905647 -1.9549 0
M  V30 403 C 41.0377 -3.32421 -1.31268 0
M  V30 404 C 40.7037 -4.49344 -0.374223 0
M  V30 405 C 39.3657 -4.8106 -0.115911 0
M  V30 406 C 41.7177 -5.20498 0.270432 0
M  V30 407 C 39.0457 -5.8129 0.79493 0
M  V30 408 C 41.3977 -6.21699 1.1693 0
M  V30 409 C 40.0617 -6.51859 1.43655 0
M  V30 410 H 39.3317 -0.701236 -0.239478 0
M  V30 411 H 41.9787 -1.91307 0.0859734 0
M  V30 412 H 40.2837 -3.28989 -2.12775 0
M  V30 413 H 41.9807 -3.56038 -1.84494 0
M  V30 414 H 38.5707 -4.24579 -0.58573 0
M  V30 415 H 42.7547 -4.96229 0.0839194 0
M  V30 416 H 38.0107 -6.03005 1.00973 0
M  V30 417 H 42.1847 -6.75955 1.67504 0
M  V30 418 H 39.8117 -7.2934 2.144 0
M  V30 419 N 41.3868 0.248026 -1.55636 0
M  V30 420 C 42.6348 0.974295 -1.77065 0
M  V30 421 C 42.9558 1.85897 -0.588849 0
M  V30 422 O 42.2258 1.91868 0.395407 0
M  V30 423 H 40.8058 0.362733 -0.653019 0
M  V30 424 H 43.4678 0.266244 -1.93073 0
M  V30 425 H 42.5638 1.59667 -2.68166 0
M  V30 426 N 42.8649 1.48995 0.513639 0
M  V30 427 C 43.8119 1.6473 1.61656 0
M  V30 428 C 44.7819 0.488984 1.58739 0
M  V30 429 O 45.9669 0.714478 1.76918 0
M  V30 430 C 43.1069 1.7082 2.99858 0
M  V30 431 C 42.2199 2.9787 3.12885 0
M  V30 432 C 41.3549 2.95017 4.41744 0
M  V30 433 C 40.3939 4.16702 4.48359 0
M  V30 434 N 39.5309 4.11832 5.68629 0
M  V30 435 H 44.3709 2.58909 1.47547 0
M  V30 436 H 41.9079 1.28382 0.71808 0
M  V30 437 H 43.8659 1.72331 3.79944 0
M  V30 438 H 42.4959 0.801181 3.12699 0
M  V30 439 H 41.5479 3.06029 2.25944 0
M  V30 440 H 42.8599 3.8786 3.13633 0
M  V30 441 H 42.0139 2.95021 5.30139 0
M  V30 442 H 40.7529 2.02784 4.43542 0
M  V30 443 H 39.7579 4.16955 3.58369 0
M  V30 444 H 40.9829 5.10113 4.48287 0
M  V30 445 H 38.9289 3.22428 5.71293 0
M  V30 446 H 38.8459 4.95543 5.7094 0
M  V30 447 H 40.1139 4.1592 6.59266 0
M  V30 448 N 44.343 -0.763751 1.37857 0
M  V30 449 C 45.589 -1.52483 1.33704 0
M  V30 450 C 45.922 -1.94051 -0.0759612 0
M  V30 451 O 45.197 -1.64675 -1.03501 0
M  V30 452 C 45.48 -2.78441 2.28348 0
M  V30 453 C 45.333 -2.43075 3.78463 0
M  V30 454 C 46.652 -3.80415 2.21298 0
M  V30 455 H 43.771 -0.553169 0.487005 0
M  V30 456 H 46.413 -0.875562 1.68624 0
M  V30 457 H 44.563 -3.33842 1.987 0
M  V30 458 H 46.235 -1.93527 4.18742 0
M  V30 459 H 44.478 -1.75666 3.96641 0
M  V30 460 H 45.149 -3.33149 4.40132 0
M  V30 461 H 47.625 -3.34527 2.47449 0
M  V30 462 H 46.501 -4.66257 2.89647 0
M  V30 463 H 46.762 -4.25262 1.20849 0
M  V30 464 N 45.8211 -1.22559 -0.990812 0
M  V30 465 C 47.0461 -1.07862 -1.77145 0
M  V30 466 C 47.4711 0.366447 -1.84496 0
M  V30 467 O 46.8291 1.26478 -1.29896 0
M  V30 468 C 46.8771 -1.69686 -3.18181 0
M  V30 469 O 45.9811 -0.951946 -4.01263 0
M  V30 470 H 45.3221 -0.378712 -0.545411 0
M  V30 471 H 47.8521 -1.62399 -1.2445 0
M  V30 472 H 47.8621 -1.74496 -3.68802 0
M  V30 473 H 46.5371 -2.74841 -3.12146 0
M  V30 474 H 45.1141 -0.980011 -3.59792 0
M  V30 475 N 47.2992 1.18797 -1.03562 0
M  V30 476 C 48.2292 2.24472 -0.643019 0
M  V30 477 C 49.2102 1.66433 0.351283 0
M  V30 478 O 50.3952 1.92803 0.232505 0
M  V30 479 C 47.5252 3.473 4.24935e-05 0
M  V30 480 C 46.4792 4.18055 -0.917257 0
M  V30 481 C 45.8052 5.34519 -0.138941 0
M  V30 482 C 47.1052 4.72109 -2.23407 0
M  V30 483 H 48.7992 2.57566 -1.52643 0
M  V30 484 H 46.3452 1.23806 -0.735394 0
M  V30 485 H 48.2982 4.20426 0.286383 0
M  V30 486 H 47.0222 3.13424 0.918299 0
M  V30 487 H 45.6812 3.46821 -1.1879 0
M  V30 488 H 45.3292 4.96891 0.781562 0
M  V30 489 H 45.0292 5.82794 -0.750005 0
M  V30 490 H 46.5532 6.10438 0.1405 0
M  V30 491 H 47.9672 5.36955 -2.00879 0
M  V30 492 H 46.3642 5.30897 -2.79765 0
M  V30 493 H 47.4342 3.89807 -2.88407 0
M  V30 494 N 48.7773 0.814389 1.34928 0
M  V30 495 C 50.0173 0.404165 2.00364 0
M  V30 496 C 50.3813 -1.01166 1.63185 0
M  V30 497 O 51.5823 -1.52431 2.21401 0
M  V30 498 C 49.8533 0.590718 3.52484 0
M  V30 499 S 51.4123 0.272075 4.37956 0
M  V30 500 H 48.2303 0.15311 0.694319 0
M  V30 501 H 50.8323 1.05834 1.64376 0
M  V30 502 H 49.5363 1.62099 3.77031 0
M  V30 503 H 49.0673 -0.0785013 3.93322 0
M  V30 504 H 51.0823 -0.917405 4.87645 0
M  V30 505 N 50.2554 -1.46986 0.568584 0
M  V30 506 C 51.5024 -2.02441 0.0487986 0
M  V30 507 C 51.8304 -1.44169 -1.30559 0
M  V30 508 O 51.0854 -0.591213 -1.86556 0
M  V30 509 C 51.3844 -3.57306 -0.081836 0
M  V30 510 C 51.0504 -4.34552 1.20313 0
M  V30 511 C 49.7124 -4.55376 1.5552 0
M  V30 512 C 52.0644 -4.79016 2.05411 0
M  V30 513 C 49.3924 -5.17913 2.7565 0
M  V30 514 C 51.7444 -5.42879 3.24754 0
M  V30 515 C 50.4084 -5.61933 3.60261 0
M  V30 516 H 49.6784 -0.740785 0.0178567 0
M  V30 517 H 52.3254 -1.76525 0.742384 0
M  V30 518 H 50.6304 -3.8228 -0.858463 0
M  V30 519 H 52.3274 -3.97876 -0.499546 0
M  V30 520 H 48.9174 -4.18631 0.919014 0
M  V30 521 H 53.1014 -4.62696 1.79516 0
M  V30 522 H 48.3574 -5.30858 3.03315 0
M  V30 523 H 52.5314 -5.76293 3.90973 0
M  V30 524 H 50.1584 -6.10161 4.53439 0
M  V30 525 N 51.7335 -0.305618 -1.54608 0
M  V30 526 C 52.6835 0.583595 -2.20405 0
M  V30 527 C 53.6675 1.09539 -1.17856 0
M  V30 528 O 54.8595 1.0354 -1.43557 0
M  V30 529 C 51.9885 1.75277 -2.95183 0
M  V30 530 C 51.0745 1.25672 -4.05052 0
M  V30 531 N 51.4655 0.478998 -5.03527 0
M  V30 532 C 49.7635 1.53704 -4.18678 0
M  V30 533 C 50.4645 0.214269 -5.81305 0
M  V30 534 N 49.4405 0.795374 -5.3775 0
M  V30 535 H 53.2425 -0.0180946 -2.93894 0
M  V30 536 H 50.7565 -0.110601 -1.62023 0
M  V30 537 H 52.7535 2.4014 -3.40791 0
M  V30 538 H 51.4135 2.35812 -2.23211 0
M  V30 539 H 52.4245 0.123473 -5.17753 0
M  V30 540 H 49.1015 2.14954 -3.57912 0
M  V30 541 H 50.4915 -0.410656 -6.70644 0
M  V30 542 N 53.2116 1.57565 -0.0334293 0
M  V30 543 C 54.6276 1.56297 0.322997 0
M  V30 544 C 54.8276 1.03945 1.7262 0
M  V30 545 O 53.8836 0.688109 2.42943 0
M  V30 546 C 55.1966 3.00232 0.167664 0
M  V30 547 C 56.7446 3.12078 0.240107 0
M  V30 548 C 57.2196 4.57859 0.113513 0
M  V30 549 N 58.7106 4.62887 0.170359 0
M  V30 550 C 59.4456 5.73319 0.0962517 0
M  V30 551 N 58.9416 6.92794 -0.0291881 0
M  V30 552 N 60.7346 5.61898 0.150551 0
M  V30 553 H 52.8856 1.89923 -0.950956 0
M  V30 554 H 55.1486 0.873824 -0.367608 0
M  V30 555 H 54.8546 3.42501 -0.799102 0
M  V30 556 H 54.7286 3.654 0.936083 0
M  V30 557 H 57.1156 2.69718 1.19733 0
M  V30 558 H 57.1966 2.49623 -0.558763 0
M  V30 559 H 56.8406 5.009 -0.840314 0
M  V30 560 H 56.7706 5.18299 0.931302 0
M  V30 561 H 59.2616 3.76954 0.26728 0
M  V30 562 H 59.5746 7.7276 -0.0789252 0
M  V30 563 H 57.9196 6.94971 -0.0640299 0
M  V30 564 H 61.1106 4.67448 0.246981 0
M  V30 565 H 61.2836 6.47938 0.0893365 0
M  V30 566 N 54.6897 -0.239769 1.55765 0
M  V30 567 C 55.9177 -0.98417 1.81994 0
M  V30 568 C 56.3327 -1.7867 0.610124 0
M  V30 569 O 55.6897 -1.77571 -0.421271 0
M  V30 570 C 55.7407 -1.91635 3.06526 0
M  V30 571 O 55.4617 -1.14629 4.22838 0
M  V30 572 C 56.9627 -2.77616 3.45607 0
M  V30 573 H 54.1827 -0.28928 0.605441 0
M  V30 574 H 56.7267 -0.260499 2.02834 0
M  V30 575 H 54.8817 -2.5942 2.87715 0
M  V30 576 H 55.2957 -1.77745 4.93464 0
M  V30 577 H 56.7697 -3.38759 4.35828 0
M  V30 578 H 57.2467 -3.4909 2.6652 0
M  V30 579 H 57.8527 -2.15271 3.66795 0
M  V30 580 N 56.1678 -1.49265 -0.50573 0
M  V30 581 C 57.0998 -1.617 -1.62437 0
M  V30 582 C 58.1128 -0.499924 -1.54934 0
M  V30 583 O 59.3018 -0.771785 -1.60953 0
M  V30 584 C 56.4018 -1.5533 -3.01207 0
M  V30 585 C 55.5748 -2.8249 -3.33943 0
M  V30 586 C 54.6338 -2.69238 -4.52103 0
M  V30 587 O 53.6598 -3.43167 -4.5412 0
M  V30 588 N 54.8618 -1.80468 -5.51735 0
M  V30 589 H 57.6268 -2.58177 -1.52199 0
M  V30 590 H 55.1878 -1.46294 -0.693511 0
M  V30 591 H 57.1798 -1.44125 -3.78167 0
M  V30 592 H 55.7498 -0.667297 -3.05395 0
M  V30 593 H 54.9698 -3.08081 -2.45926 0
M  V30 594 H 56.2578 -3.66802 -3.5261 0
M  V30 595 H 55.6558 -1.19653 -5.52901 0
M  V30 596 H 54.2128 -1.75188 -6.27816 0
M  V30 597 N 57.6459 0.756429 -1.3826 0
M  V30 598 C 58.8939 1.51248 -1.34047 0
M  V30 599 C 59.2149 1.94875 0.0698372 0
M  V30 600 O 58.4849 1.67436 1.01696 0
M  V30 601 H 57.0649 0.561018 -0.493222 0
M  V30 602 H 59.7269 0.899347 -1.7291 0
M  V30 603 H 58.8229 2.40472 -1.98947 0
M  V30 604 N 59.124 1.23083 0.984299 0
M  V30 605 C 60.054 1.03292 2.09411 0
M  V30 606 C 61.035 -0.048923 1.7003 0
M  V30 607 O 62.22 0.114967 1.93859 0
M  V30 608 C 59.35 0.619155 3.41736 0
M  V30 609 C 58.304 1.64791 3.95004 0
M  V30 610 C 57.63 1.0897 5.23478 0
M  V30 611 C 58.93 3.03999 4.24714 0
M  V30 612 H 60.624 1.96119 2.26225 0
M  V30 613 H 58.17 0.944344 1.08711 0
M  V30 614 H 60.123 0.467777 4.18796 0
M  V30 615 H 58.847 -0.344786 3.24775 0
M  V30 616 H 57.506 1.78721 3.20085 0
M  V30 617 H 57.154 0.11686 5.02864 0
M  V30 618 H 56.854 1.77704 5.60085 0
M  V30 619 H 58.378 0.950093 6.03163 0
M  V30 620 H 59.792 2.93393 4.92538 0
M  V30 621 H 58.189 3.69936 4.72512 0
M  V30 622 H 59.259 3.53285 3.32142 0
M  V30 623 N 60.6021 -1.18246 1.0419 0
M  V30 624 C 61.5351 -2.20746 0.578474 0
M  V30 625 C 62.5131 -1.57912 -0.387624 0
M  V30 626 O 63.6971 -1.86071 -0.301634 0
M  V30 627 C 60.8241 -3.38346 -0.154762 0
M  V30 628 C 59.8701 -4.19587 0.764782 0
M  V30 629 S 60.7031 -4.86014 2.24835 0
M  V30 630 C 61.8591 -6.07012 1.526 0
M  V30 631 H 62.0921 -2.59715 1.44691 0
M  V30 632 H 59.6251 -1.287 0.85297 0
M  V30 633 H 61.5831 -4.065 -0.571641 0
M  V30 634 H 60.2441 -2.97786 -0.999105 0
M  V30 635 H 59.4371 -5.03611 0.197976 0
M  V30 636 H 59.0391 -3.56818 1.12057 0
M  V30 637 H 61.3311 -6.72523 0.819733 0
M  V30 638 H 62.2741 -6.68202 2.34333 0
M  V30 639 H 62.6821 -5.55249 1.01779 0
M  V30 640 N 62.0802 -0.821533 -1.34494 0
M  V30 641 C 63.3292 -0.405355 -1.97585 0
M  V30 642 C 63.6422 1.03677 -1.65863 0
M  V30 643 O 64.8482 1.55679 -2.22433 0
M  V30 644 C 63.3042 -0.673861 -3.53535 0
M  V30 645 C 62.9122 -2.12951 -3.94152 0
M  V30 646 C 64.6562 -0.32378 -4.23263 0
M  V30 647 C 62.5632 -2.34298 -5.43009 0
M  V30 648 H 61.4932 -0.147836 -0.739365 0
M  V30 649 H 64.1442 -1.00769 -1.53355 0
M  V30 650 H 62.5262 -0.00137554 -3.96 0
M  V30 651 H 63.7002 -2.84104 -3.62797 0
M  V30 652 H 62.0152 -2.44089 -3.37356 0
M  V30 653 H 64.6122 -0.461126 -5.32708 0
M  V30 654 H 64.9552 0.731586 -4.09821 0
M  V30 655 H 65.4882 -0.950786 -3.8627 0
M  V30 656 H 62.2272 -3.38335 -5.61435 0
M  V30 657 H 61.7472 -1.67687 -5.75883 0
M  V30 658 H 63.4262 -2.16588 -6.09671 0
M  V30 659 N 63.5583 1.46682 -0.576371 0
M  V30 660 C 64.4913 2.27243 0.208731 0
M  V30 661 C 65.4693 1.35238 0.902746 0
M  V30 662 O 66.6533 1.64641 0.917904 0
M  V30 663 C 63.7803 3.12802 1.29896 0
M  V30 664 C 62.8263 4.20524 0.711457 0
M  V30 665 S 63.6593 5.33548 -0.456781 0
M  V30 666 C 64.8153 6.22673 0.634798 0
M  V30 667 H 65.0483 2.93484 -0.474838 0
M  V30 668 H 62.5813 1.50069 -0.363118 0
M  V30 669 H 64.5393 3.62661 1.92321 0
M  V30 670 H 63.2003 2.45887 1.95444 0
M  V30 671 H 62.3933 4.80191 1.53076 0
M  V30 672 H 61.9953 3.73645 0.162999 0
M  V30 673 H 64.2873 6.60181 1.52209 0
M  V30 674 H 65.2303 7.0806 0.0750311 0
M  V30 675 H 65.6383 5.56684 0.936092 0
M  V30 676 N 65.0364 0.313813 1.54444 0
M  V30 677 C 65.9834 -0.55655 2.23989 0
M  V30 678 C 66.9534 -1.11943 1.22711 0
M  V30 679 O 68.1384 -1.16158 1.51367 0
M  V30 680 C 65.2784 -1.71635 2.99392 0
M  V30 681 C 64.3914 -1.18364 4.15468 0
M  V30 682 C 63.5264 -2.30834 4.78424 0
M  V30 683 C 62.5654 -1.74762 5.86622 0
M  V30 684 N 61.7024 -2.80855 6.43479 0
M  V30 685 H 66.5424 0.0430893 2.97969 0
M  V30 686 H 64.0794 0.0330359 1.47063 0
M  V30 687 H 66.0374 -2.39868 3.41349 0
M  V30 688 H 64.6674 -2.28742 2.27765 0
M  V30 689 H 63.7194 -0.393163 3.78363 0
M  V30 690 H 65.0314 -0.733262 4.93381 0
M  V30 691 H 64.1854 -3.0699 5.23299 0
M  V30 692 H 62.9244 -2.79204 3.99871 0
M  V30 693 H 61.9294 -0.970995 5.41158 0
M  V30 694 H 63.1544 -1.2728 6.67066 0
M  V30 695 H 61.1004 -3.28535 5.67804 0
M  V30 696 H 61.0174 -2.40351 7.16776 0
M  V30 697 H 62.2854 -3.5687 6.93011 0
M  V30 698 N 66.5145 -1.57545 0.0417849 0
M  V30 699 C 67.7425 -1.96624 -0.643928 0
M  V30 700 C 68.1575 -0.918897 -1.64929 0
M  V30 701 O 67.5145 0.0979323 -1.82237 0
M  V30 702 C 67.5655 -3.35781 -1.33914 0
M  V30 703 O 67.2865 -4.365 -0.374048 0
M  V30 704 C 68.7875 -3.89566 -2.1155 0
M  V30 705 H 66.0075 -0.647316 -0.176702 0
M  V30 706 H 68.5515 -2.04229 0.105304 0
M  V30 707 H 66.7065 -3.29357 -2.03968 0
M  V30 708 H 67.1205 -5.17248 -0.869179 0
M  V30 709 H 68.5945 -4.89242 -2.55628 0
M  V30 710 H 69.0715 -3.24488 -2.9598 0
M  V30 711 H 69.6775 -3.99298 -1.46427 0
M  V30 712 N 67.9926 0.231505 -1.5589 0
M  V30 713 C 69.2386 0.95877 -1.78705 0
M  V30 714 C 69.5716 1.8438 -0.609725 0
M  V30 715 O 68.8466 1.90521 0.391426 0
M  V30 716 C 69.1296 1.8062 -3.11526 0
M  V30 717 C 68.9826 0.948328 -4.39689 0
M  V30 718 C 70.3016 2.78585 -3.40703 0
M  V30 719 H 67.4206 0.347129 -0.650131 0
M  V30 720 H 70.0626 0.228259 -1.88624 0
M  V30 721 H 68.2126 2.42902 -3.03201 0
M  V30 722 H 69.8846 0.343016 -4.60023 0
M  V30 723 H 68.1276 0.253314 -4.3306 0
M  V30 724 H 68.7986 1.57543 -5.29041 0
M  V30 725 H 71.2746 2.26439 -3.49091 0
M  V30 726 H 70.1506 3.34988 -4.34826 0
M  V30 727 H 70.4116 3.55825 -2.62375 0
M  V30 728 N 69.4707 1.49531 0.497807 0
M  V30 729 C 70.7007 1.62657 1.27382 0
M  V30 730 C 71.1087 0.298488 1.86831 0
M  V30 731 O 70.4517 -0.72647 1.68725 0
M  V30 732 C 70.5137 2.6393 2.44093 0
M  V30 733 C 70.1777 4.08195 2.05489 0
M  V30 734 C 71.1747 4.949 1.59279 0
M  V30 735 C 68.8597 4.53948 2.15026 0
M  V30 736 C 70.8537 6.25397 1.23113 0
M  V30 737 C 68.5407 5.84458 1.78473 0
M  V30 738 C 69.5387 6.70006 1.32591 0
M  V30 739 O 69.2267 7.98083 0.965327 0
M  V30 740 H 68.9587 0.550429 0.392434 0
M  V30 741 H 71.5127 1.96325 0.603801 0
M  V30 742 H 69.7427 2.25449 3.14181 0
M  V30 743 H 71.4317 2.66552 3.06113 0
M  V30 744 H 72.1977 4.60779 1.51354 0
M  V30 745 H 68.0767 3.87525 2.4969 0
M  V30 746 H 71.6207 6.92125 0.872299 0
M  V30 747 H 67.5177 6.18107 1.86048 0
M  V30 748 H 68.2857 8.11122 1.09652 0
M  V30 749 N 70.9488 -0.749086 1.3866 0
M  V30 750 C 71.8958 -1.86291 1.36251 0
M  V30 751 C 72.8658 -1.64578 0.224347 0
M  V30 752 O 74.0508 -1.86181 0.417279 0
M  V30 753 C 71.1908 -3.23644 1.19786 0
M  V30 754 C 70.3038 -3.57158 2.43027 0
M  V30 755 C 69.4388 -4.83838 2.19258 0
M  V30 756 C 68.4778 -5.10152 3.38247 0
M  V30 757 N 67.6148 -6.28029 3.13884 0
M  V30 758 H 72.4548 -1.87685 2.3147 0
M  V30 759 H 69.9918 -0.917287 1.14997 0
M  V30 760 H 71.9498 -4.0291 1.08254 0
M  V30 761 H 70.5798 -3.21566 0.282031 0
M  V30 762 H 69.6318 -2.72701 2.65214 0
M  V30 763 H 70.9438 -3.7253 3.31697 0
M  V30 764 H 70.0978 -5.71057 2.04888 0
M  V30 765 H 68.8368 -4.70614 1.2796 0
M  V30 766 H 67.8418 -4.21401 3.53131 0
M  V30 767 H 69.0668 -5.25271 4.30427 0
M  V30 768 H 67.0128 -6.1612 2.25238 0
M  V30 769 H 66.9298 -6.43922 3.96106 0
M  V30 770 H 68.1978 -7.18124 3.03179 0
M  V30 771 N 72.4269 -1.23603 -0.977757 0
M  V30 772 C 73.6749 -1.06759 -1.71601 0
M  V30 773 C 73.9959 0.395929 -1.90938 0
M  V30 774 O 73.2659 1.28356 -1.47992 0
M  V30 775 H 71.8459 -0.392062 -0.635843 0
M  V30 776 H 74.5079 -1.55362 -1.1768 0
M  V30 777 H 73.6039 -1.55763 -2.70452 0
M  V30 778 N 73.905 1.17692 -1.04816 0
M  V30 779 C 75.316 1.69501 -0.782698 0
M  V30 780 C 75.667 1.83456 0.695577 0
M  V30 781 O 74.792 1.51942 1.54086 0
M  V30 782 C 75.387 3.07874 -1.41419 0
M  V30 783 C 73.946 3.56864 -1.19686 0
M  V30 784 C 73.093 2.3322 -1.50012 0
M  V30 785 H 76.044 1.02262 -1.2136 0
M  V30 786 H 76.065 3.71528 -0.821428 0
M  V30 787 H 75.577 2.97685 -2.49009 0
M  V30 788 H 73.678 3.72337 -0.140043 0
M  V30 789 H 73.791 4.39851 -1.89916 0
M  V30 790 H 72.155 2.37501 -0.920071 0
M  V30 791 H 72.938 2.25644 -2.58727 0
M  V30 792 N 75.3831 0.828654 1.34056 0
M  V30 793 C 76.3311 0.242973 2.31327 0
M  V30 794 C 77.3251 -0.61944 1.57668 0
M  V30 795 O 78.5311 -0.51014 1.7262 0
M  V30 796 H 74.9061 0.059834 0.749616 0
M  V30 797 H 76.8771 1.07809 2.78244 0
M  V30 798 C 75.6261 -0.575733 3.429 0
M  V30 799 H 74.9491 0.0785582 3.99723 0
M  V30 800 H 76.3891 -0.951547 4.13185 0
M  V30 801 C 74.8481 -1.75044 2.87856 0
M  V30 802 O 75.3781 -2.84882 2.83205 0
M  V30 803 N 73.5841 -1.56903 2.44602 0
M  V30 804 H 73.1311 -0.675547 2.48584 0
M  V30 805 H 73.0891 -2.35652 2.08124 0
M  V30 806 N 76.8612 -1.46375 0.584142 0
M  V30 807 C 78.1012 -2.0427 0.0729695 0
M  V30 808 C 78.4652 -1.44563 -1.26355 0
M  V30 809 O 79.6662 -1.93667 -1.86405 0
M  V30 810 C 77.9372 -3.57399 0.00967464 0
M  V30 811 S 79.4962 -4.36551 -0.443714 0
M  V30 812 H 76.3142 -0.709975 0.0381673 0
M  V30 813 H 78.9162 -1.79398 0.776962 0
M  V30 814 H 77.6202 -3.98372 0.986319 0
M  V30 815 H 77.1512 -3.8681 -0.717044 0
M  V30 816 H 79.1662 -4.66237 -1.69816 0
M  V30 817 N 78.3393 -0.321999 -1.54275 0
M  V30 818 C 79.5883 0.281931 -1.9972 0
M  V30 819 C 79.9013 1.53369 -1.21397 0
M  V30 820 O 81.1073 2.21352 -1.57211 0
M  V30 821 C 79.5633 0.5529 -3.55628 0
M  V30 822 C 79.1713 -0.681721 -4.42783 0
M  V30 823 C 80.9153 1.11687 -4.09544 0
M  V30 824 C 78.8223 -0.382742 -5.9016 0
M  V30 825 H 77.7523 0.109124 -0.746062 0
M  V30 826 H 80.4033 -0.43398 -1.78294 0
M  V30 827 H 78.7853 1.32896 -3.73035 0
M  V30 828 H 79.9593 -1.45723 -4.37151 0
M  V30 829 H 78.2743 -1.1658 -3.99748 0
M  V30 830 H 80.8713 1.35515 -5.17242 0
M  V30 831 H 81.2143 2.06575 -3.61431 0
M  V30 832 H 81.7473 0.402032 -3.95763 0
M  V30 833 H 78.4863 -1.30076 -6.42464 0
M  V30 834 H 78.0063 0.355094 -5.98748 0
M  V30 835 H 79.6853 0.00800157 -6.47 0
M  V30 836 N 79.8174 1.5752 -0.0501392 0
M  V30 837 C 80.7274 2.14952 0.939827 0
M  V30 838 C 81.7434 1.10706 1.34239 0
M  V30 839 O 82.9194 1.42869 1.41952 0
M  V30 840 C 79.9844 2.68232 2.19665 0
M  V30 841 C 79.0454 3.87272 1.85253 0
M  V30 842 C 78.2784 4.38002 3.04943 0
M  V30 843 O 78.5014 3.87811 4.18281 0
M  V30 844 O 77.4354 5.29602 2.86017 0
M  V30 845 H 81.2614 2.9986 0.481392 0
M  V30 846 H 78.8464 1.4841 0.171699 0
M  V30 847 H 80.7284 3.02475 2.93406 0
M  V30 848 H 79.4034 1.86395 2.64648 0
M  V30 849 H 78.3104 3.5792 1.0883 0
M  V30 850 H 79.6434 4.70336 1.4507 0
M  V30 851 N 81.2955 -0.223234 1.56011 0
M  V30 852 C 82.2455 -1.28008 1.88674 0
M  V30 853 C 83.2295 -1.42369 0.749663 0
M  V30 854 O 84.4215 -1.45212 1.01205 0
M  V30 855 C 81.5505 -2.63084 2.20548 0
M  V30 856 C 80.6365 -2.52632 3.40643 0
M  V30 857 N 81.0275 -2.11829 4.59306 0
M  V30 858 C 79.3255 -2.83594 3.44224 0
M  V30 859 C 80.0265 -2.12587 5.41463 0
M  V30 860 N 79.0025 -2.5301 4.81131 0
M  V30 861 H 82.8045 -0.955487 2.77935 0
M  V30 862 H 80.3185 -0.431801 1.56554 0
M  V30 863 H 82.3155 -3.39385 2.42122 0
M  V30 864 H 80.9755 -2.96391 1.32599 0
M  V30 865 H 81.9865 -1.82988 4.84496 0
M  V30 866 H 78.6635 -3.21284 2.66614 0
M  V30 867 H 80.0535 -1.83179 6.46448 0
M  V30 868 N 82.7736 -1.49793 -0.48987 0
M  V30 869 C 83.7216 -1.67783 -1.61095 0
M  V30 870 C 84.7156 -0.543683 -1.60438 0
M  V30 871 O 85.9216 -0.723647 -1.64813 0
M  V30 872 H 82.2966 -0.529255 -0.534222 0
M  V30 873 H 84.2676 -2.61861 -1.43078 0
M  V30 874 C 83.0166 -1.77191 -2.99164 0
M  V30 875 H 82.3396 -2.63841 -3.0038 0
M  V30 876 H 83.7796 -1.93809 -3.77113 0
M  V30 877 C 82.2386 -0.519203 -3.32875 0
M  V30 878 O 82.7686 0.350124 -4.00171 0
M  V30 879 N 80.9746 -0.378816 -2.8812 0
M  V30 880 H 80.5216 -1.08725 -2.33531 0
M  V30 881 H 80.4796 0.458239 -3.11043 0
M  V30 882 N 84.2517 0.741722 -1.39055 0
M  V30 883 C 85.1617 1.88621 -1.39496 0
M  V30 884 C 86.1777 1.71557 -0.290578 0
M  V30 885 O 87.3537 1.94275 -0.530954 0
M  V30 886 C 84.4187 3.24134 -1.23037 0
M  V30 887 C 83.4797 3.5364 -2.43387 0
M  V30 888 C 82.7127 4.82687 -2.27703 0
M  V30 889 O 82.9357 5.55922 -1.27696 0
M  V30 890 O 81.8697 5.1194 -3.16545 0
M  V30 891 H 85.6957 1.91203 -2.35956 0
M  V30 892 H 83.2807 0.888625 -1.20099 0
M  V30 893 H 85.1627 4.0513 -1.15964 0
M  V30 894 H 83.8377 3.22337 -0.296691 0
M  V30 895 H 82.7447 2.72758 -2.56035 0
M  V30 896 H 84.0777 3.60209 -3.35425 0
M  V30 897 N 85.7298 1.2412 0.971189 0
M  V30 898 C 86.6928 1.03156 2.04674 0
M  V30 899 C 87.6928 -0.00990322 1.60797 0
M  V30 900 O 88.8828 0.230729 1.72665 0
M  V30 901 C 86.0148 0.562765 3.36223 0
M  V30 902 H 87.2078 1.98614 2.24705 0
M  V30 903 H 84.7608 1.06293 1.14593 0
M  V30 904 H 85.4958 -0.395176 3.21883 0
M  V30 905 H 85.2808 1.31441 3.69413 0
M  V30 906 H 86.7708 0.437015 4.15307 0
M  V30 907 N 87.2079 -1.17134 1.05439 0
M  V30 908 C 88.1379 -2.2342 0.678649 0
M  V30 909 C 89.1189 -1.66971 -0.32476 0
M  V30 910 O 90.3039 -1.93149 -0.201802 0
M  V30 911 C 87.4339 -3.47256 0.0552099 0
M  V30 912 C 86.3879 -4.16543 0.98365 0
M  V30 913 C 85.7139 -5.34231 0.223961 0
M  V30 914 C 87.0139 -4.68495 2.3089 0
M  V30 915 H 88.7079 -2.55105 1.56722 0
M  V30 916 H 86.2539 -1.2262 0.754998 0
M  V30 917 H 88.2069 -4.20828 -0.21946 0
M  V30 918 H 86.9309 -3.14846 -0.868319 0
M  V30 919 H 85.5899 -3.44887 1.24293 0
M  V30 920 H 85.2379 -4.98071 -0.702412 0
M  V30 921 H 84.9379 -5.81527 0.842627 0
M  V30 922 H 86.4619 -6.10585 -0.0433671 0
M  V30 923 H 87.8759 -5.33691 2.09396 0
M  V30 924 H 86.2729 -5.26379 2.88176 0
M  V30 925 H 87.3429 -3.85169 2.94572 0
M  V30 926 N 88.686 -0.835752 -1.33615 0
M  V30 927 C 89.616 -0.281739 -2.31794 0
M  V30 928 C 90.597 0.608833 -1.58831 0
M  V30 929 O 91.782 0.533035 -1.86741 0
M  V30 930 C 88.912 0.546612 -3.42971 0
M  V30 931 C 87.866 -0.247904 -4.27281 0
M  V30 932 C 87.192 0.704001 -5.30045 0
M  V30 933 C 88.492 -1.46324 -5.01385 0
M  V30 934 H 90.186 -1.10206 -2.78379 0
M  V30 935 H 87.732 -0.531388 -1.33837 0
M  V30 936 H 89.685 0.944467 -4.1068 0
M  V30 937 H 88.409 1.40011 -2.95067 0
M  V30 938 H 87.068 -0.627281 -3.61194 0
M  V30 939 H 86.716 1.55381 -4.78399 0
M  V30 940 H 86.416 0.176524 -5.87335 0
M  V30 941 H 87.94 1.09944 -6.0062 0
M  V30 942 H 89.354 -1.13871 -5.61877 0
M  V30 943 H 87.751 -1.92728 -5.6831 0
M  V30 944 H 88.821 -2.23467 -4.30338 0
M  V30 945 N 90.1641 1.46063 -0.591896 0
M  V30 946 C 91.0741 2.34192 0.13831 0
M  V30 947 C 92.0901 1.50305 0.876608 0
M  V30 948 O 93.2661 1.8315 0.837728 0
M  V30 949 C 90.3311 3.27656 1.13326 0
M  V30 950 C 89.3921 4.27445 0.39863 0
M  V30 951 C 88.6251 5.16443 1.34618 0
M  V30 952 O 88.8481 5.08553 2.58321 0
M  V30 953 O 87.7821 5.95843 0.851768 0
M  V30 954 H 91.6081 2.98002 -0.58552 0
M  V30 955 H 89.1931 1.45188 -0.352239 0
M  V30 956 H 91.0751 3.85291 1.70671 0
M  V30 957 H 89.7501 2.6643 1.83839 0
M  V30 958 H 88.6571 3.73471 -0.216895 0
M  V30 959 H 89.9901 4.91482 -0.265709 0
M  V30 960 N 91.6422 0.330177 1.54103 0
M  V30 961 C 92.5522 -0.541534 2.28264 0
M  V30 962 C 93.5682 -1.12351 1.32866 0
M  V30 963 O 94.7442 -1.14206 1.65888 0
M  V30 964 C 91.8092 -1.68322 3.03098 0
M  V30 965 C 90.8702 -1.13238 4.14096 0
M  V30 966 C 90.1032 -2.21966 4.85352 0
M  V30 967 O 90.3262 -3.42437 4.56172 0
M  V30 968 O 89.2602 -1.87013 5.7211 0
M  V30 969 H 93.0862 0.060938 3.03639 0
M  V30 970 H 90.6712 0.09565 1.49093 0
M  V30 971 H 92.5532 -2.34777 3.49939 0
M  V30 972 H 91.2282 -2.27176 2.30593 0
M  V30 973 H 90.1352 -0.432736 3.71589 0
M  V30 974 H 91.4682 -0.588898 4.88664 0
M  V30 975 N 93.1203 -1.57491 0.0584922 0
M  V30 976 C 94.0833 -2.1085 -0.898617 0
M  V30 977 C 95.0833 -1.02964 -1.23511 0
M  V30 978 O 96.2733 -1.29007 -1.17059 0
M  V30 979 C 93.4053 -2.59881 -2.20623 0
M  V30 980 H 94.5983 -2.96715 -0.435936 0
M  V30 981 H 92.1513 -1.55141 -0.190023 0
M  V30 982 H 92.8863 -1.77431 -2.71457 0
M  V30 983 H 92.6713 -3.38727 -1.97501 0
M  V30 984 H 94.1613 -3.01285 -2.89166 0
M  V30 985 N 94.5984 0.214957 -1.56127 0
M  V30 986 C 95.5454 1.26642 -1.92952 0
M  V30 987 C 96.5154 1.46244 -0.78753 0
M  V30 988 O 97.7004 1.59704 -1.04399 0
M  V30 989 C 94.8404 2.6104 -2.25726 0
M  V30 990 C 93.9534 2.49183 -3.52891 0
M  V30 991 C 93.0884 3.76149 -3.7508 0
M  V30 992 C 92.1274 3.59041 -4.95738 0
M  V30 993 N 91.2644 4.77972 -5.14283 0
M  V30 994 H 96.1044 0.945384 -2.82607 0
M  V30 995 H 93.6414 0.455489 -1.3987 0
M  V30 996 H 95.5994 3.39313 -2.42739 0
M  V30 997 H 94.2294 2.91227 -1.39236 0
M  V30 998 H 93.2814 1.6231 -3.44034 0
M  V30 999 H 94.5934 2.32466 -4.41318 0
M  V30 1000 H 93.7474 4.62865 -3.92226 0
M  V30 1001 H 92.4864 3.95799 -2.84947 0
M  V30 1002 H 91.4914 2.7071 -4.78535 0
M  V30 1003 H 92.7164 3.40856 -5.87362 0
M  V30 1004 H 90.6624 4.97923 -4.27093 0
M  V30 1005 H 90.5794 4.64006 -5.96853 0
M  V30 1006 H 91.8474 5.66096 -5.35869 0
M  V30 1007 N 96.0765 1.50051 0.48192 0
M  V30 1008 C 97.0095 1.62749 1.59963 0
M  V30 1009 C 97.9875 0.475903 1.5548 0
M  V30 1010 O 99.1715 0.693986 1.7526 0
M  V30 1011 C 96.2985 1.60008 2.98522 0
M  V30 1012 C 95.3445 2.80596 3.21198 0
M  V30 1013 S 96.1775 4.42038 3.02262 0
M  V30 1014 C 97.3335 4.41973 4.43182 0
M  V30 1015 H 97.5665 2.57296 1.4895 0
M  V30 1016 H 95.0995 1.39179 0.668477 0
M  V30 1017 H 97.0575 1.59112 3.78409 0
M  V30 1018 H 95.7185 0.667153 3.06933 0
M  V30 1019 H 94.9115 2.74952 4.22395 0
M  V30 1020 H 94.5135 2.79003 2.49065 0
M  V30 1021 H 96.8055 4.14868 5.35622 0
M  V30 1022 H 97.7485 5.43512 4.53873 0
M  V30 1023 H 98.1565 3.71812 4.24755 0
M  V30 1024 N 97.5546 -0.734337 1.39446 0
M  V30 1025 C 98.4876 -1.85715 1.32609 0
M  V30 1026 C 99.4656 -1.6137 0.199636 0
M  V30 1027 O 100.65 -1.84626 0.380195 0
M  V30 1028 C 97.7766 -3.21709 1.05929 0
M  V30 1029 C 96.8226 -3.64913 2.20773 0
M  V30 1030 S 97.6556 -3.74203 3.83056 0
M  V30 1031 C 98.8116 -5.12986 3.58603 0
M  V30 1032 H 99.0446 -1.91232 2.27635 0
M  V30 1033 H 96.5776 -0.899263 1.25509 0
M  V30 1034 H 98.5356 -4.00236 0.912203 0
M  V30 1035 H 97.1966 -3.13848 0.125883 0
M  V30 1036 H 96.3896 -4.63606 1.97699 0
M  V30 1037 H 95.9916 -2.93593 2.31688 0
M  V30 1038 H 98.2836 -5.99339 3.15909 0
M  V30 1039 H 99.2266 -5.41088 4.5676 0
M  V30 1040 H 99.6346 -4.82694 2.9269 0
M  V30 1041 N 99.0327 -1.24633 -0.964593 0
M  V30 1042 C 99.9807 -1.03917 -2.08096 0
M  V30 1043 C 100.975 0.0268581 -1.69379 0
M  V30 1044 O 102.181 -0.127952 -1.79545 0
M  V30 1045 H 98.5557 -0.319044 -0.680966 0
M  V30 1046 H 100.527 -1.98581 -2.22729 0
M  V30 1047 C 99.2757 -0.663983 -3.41301 0
M  V30 1048 H 98.5987 -1.47605 -3.71555 0
M  V30 1049 H 100.039 -0.558663 -4.20303 0
M  V30 1050 C 98.4977 0.629169 -3.30973 0
M  V30 1051 O 99.0277 1.67404 -3.65156 0
M  V30 1052 N 97.2337 0.611057 -2.84103 0
M  V30 1053 H 96.7807 -0.239593 -2.56483 0
M  V30 1054 H 96.7387 1.47647 -2.77575 0
M  V30 1055 N 100.511 1.16574 -1.06058 0
M  V30 1056 C 101.927 1.3904 -0.783585 0
M  V30 1057 C 102.127 1.91784 0.618145 0
M  V30 1058 O 101.183 2.11511 1.37911 0
M  V30 1059 C 102.496 2.37329 -1.84649 0
M  V30 1060 C 104.044 2.51018 -1.86973 0
M  V30 1061 C 104.519 3.52588 -2.92311 0
M  V30 1062 N 106.01 3.60113 -2.91329 0
M  V30 1063 C 106.745 4.38486 -3.69482 0
M  V30 1064 N 106.241 5.20302 -4.57447 0
M  V30 1065 N 108.034 4.33446 -3.57885 0
M  V30 1066 H 100.185 0.806725 -1.96483 0
M  V30 1067 H 102.448 0.417117 -0.851303 0
M  V30 1068 H 102.154 2.05663 -2.85299 0
M  V30 1069 H 102.028 3.36946 -1.6955 0
M  V30 1070 H 104.415 2.81989 -0.869827 0
M  V30 1071 H 104.496 1.51445 -2.0615 0
M  V30 1072 H 104.14 3.22354 -3.92492 0
M  V30 1073 H 104.07 4.51886 -2.70383 0
M  V30 1074 H 106.561 3.01707 -2.27555 0
M  V30 1075 H 106.874 5.77311 -5.13743 0
M  V30 1076 H 105.219 5.19653 -4.61503 0
M  V30 1077 H 108.41 3.68586 -2.88551 0
M  V30 1078 H 108.583 4.94279 -4.19037 0
M  V30 1079 N 101.989 0.842826 1.3317 0
M  V30 1080 C 102.919 0.294028 2.31641 0
M  V30 1081 C 103.9 -0.600401 1.59151 0
M  V30 1082 O 105.085 -0.523124 1.87022 0
M  V30 1083 C 102.215 -0.528416 3.43257 0
M  V30 1084 C 101.169 0.27056 4.27144 0
M  V30 1085 C 100.495 -0.675881 5.30411 0
M  V30 1086 C 101.795 1.48981 5.00602 0
M  V30 1087 H 103.489 1.11681 2.77791 0
M  V30 1088 H 101.035 0.538478 1.33553 0
M  V30 1089 H 102.988 -0.922674 4.11175 0
M  V30 1090 H 101.712 -1.38445 2.95805 0
M  V30 1091 H 100.371 0.646427 3.60856 0
M  V30 1092 H 100.019 -1.52842 4.79216 0
M  V30 1093 H 99.7189 -0.145374 5.8742 0
M  V30 1094 H 101.243 -1.06757 6.01195 0
M  V30 1095 H 102.657 1.16849 5.61266 0
M  V30 1096 H 101.054 1.95739 5.6728 0
M  V30 1097 H 102.124 2.25746 4.29147 0
M  V30 1098 N 103.467 -1.45747 0.599634 0
M  V30 1099 C 104.883 -1.57424 0.26264 0
M  V30 1100 C 105.083 -1.59222 -1.23493 0
M  V30 1101 O 104.139 -1.51825 -2.01756 0
M  V30 1102 C 105.452 -2.86061 0.926795 0
M  V30 1103 C 107 -2.99722 0.901967 0
M  V30 1104 C 107.475 -4.31119 1.54598 0
M  V30 1105 N 108.966 -4.37858 1.5111 0
M  V30 1106 C 109.701 -5.3818 1.97863 0
M  V30 1107 N 109.197 -6.45083 2.52666 0
M  V30 1108 N 110.99 -5.29487 1.88679 0
M  V30 1109 H 103.141 -1.42823 1.57211 0
M  V30 1110 H 105.404 -0.68235 0.658105 0
M  V30 1111 H 105.11 -2.90605 1.98095 0
M  V30 1112 H 104.984 -3.74563 0.445238 0
M  V30 1113 H 107.371 -2.9475 -0.143617 0
M  V30 1114 H 107.452 -2.12652 1.42171 0
M  V30 1115 H 107.096 -4.36849 2.59085 0
M  V30 1116 H 107.026 -5.16992 1.00132 0
M  V30 1117 H 109.517 -3.61209 1.11068 0
M  V30 1118 H 109.83 -7.17869 2.86155 0
M  V30 1119 H 108.175 -6.45856 2.56701 0
M  V30 1120 H 111.366 -4.44877 1.4561 0
M  V30 1121 H 111.539 -6.07524 2.25429 0
M  V30 1122 N 104.945 -0.338344 -1.53925 0
M  V30 1123 C 105.895 0.536712 -2.21593 0
M  V30 1124 C 106.879 1.07015 -1.20153 0
M  V30 1125 O 108.071 1.00471 -1.45721 0
M  V30 1126 C 105.2 1.68977 -2.98834 0
M  V30 1127 C 104.286 1.17052 -4.07627 0
M  V30 1128 N 104.677 0.372085 -5.0443 0
M  V30 1129 C 102.975 1.44789 -4.21844 0
M  V30 1130 C 103.676 0.0909171 -5.81629 0
M  V30 1131 N 102.652 0.681131 -5.39316 0
M  V30 1132 H 106.454 -0.0804298 -2.9379 0
M  V30 1133 H 103.968 -0.144943 -1.61752 0
M  V30 1134 H 105.965 2.32857 -3.45808 0
M  V30 1135 H 104.625 2.31024 -2.28162 0
M  V30 1136 H 105.636 0.0136217 -5.17898 0
M  V30 1137 H 102.313 2.07313 -3.62391 0
M  V30 1138 H 103.703 -0.552817 -6.69622 0
M  V30 1139 N 106.423 1.57458 -0.0668435 0
M  V30 1140 C 107.648 1.9804 0.616027 0
M  V30 1141 C 108.073 0.944771 1.62652 0
M  V30 1142 O 107.431 -0.0902094 1.81075 0
M  V30 1143 C 107.479 3.37665 1.26549 0
M  V30 1144 O 106.583 3.36701 2.38131 0
M  V30 1145 H 105.924 0.644719 0.158849 0
M  V30 1146 H 108.454 2.04121 -0.139891 0
M  V30 1147 H 108.464 3.7474 1.6135 0
M  V30 1148 H 107.139 4.12573 0.525016 0
M  V30 1149 H 105.716 3.1139 2.0516 0
M  V30 1150 N 107.901 -0.206675 1.56239 0
M  V30 1151 C 109.317 -0.557025 1.49564 0
M  V30 1152 C 109.517 -1.86424 0.764735 0
M  V30 1153 O 108.573 -2.50584 0.310491 0
M  V30 1154 C 109.886 -0.622478 2.94186 0
M  V30 1155 C 111.434 -0.712099 3.04792 0
M  V30 1156 C 111.909 -0.808767 4.50803 0
M  V30 1157 N 113.4 -0.8726 4.54907 0
M  V30 1158 C 114.135 -0.967365 5.65181 0
M  V30 1159 N 113.631 -1.02515 6.85173 0
M  V30 1160 N 115.424 -1.00366 5.53067 0
M  V30 1161 H 107.575 0.650943 2.02179 0
M  V30 1162 H 109.838 0.230387 0.919579 0
M  V30 1163 H 109.544 0.268727 3.50672 0
M  V30 1164 H 109.418 -1.4811 3.46905 0
M  V30 1165 H 111.805 -1.59374 2.48363 0
M  V30 1166 H 111.886 0.172489 2.55218 0
M  V30 1167 H 111.53 0.0684754 5.07854 0
M  V30 1168 H 111.46 -1.70899 4.98098 0
M  V30 1169 H 113.951 -0.837657 3.68499 0
M  V30 1170 H 114.264 -1.09765 7.64965 0
M  V30 1171 H 112.609 -0.994026 6.87855 0
M  V30 1172 H 115.8 -0.95527 4.58249 0
M  V30 1173 H 115.973 -1.07405 6.39037 0
M  V30 1174 N 109.379 -1.50304 -0.473955 0
M  V30 1175 C 110.625 -1.61389 -1.22806 0
M  V30 1176 C 110.958 -0.311955 -1.91678 0
M  V30 1177 O 110.233 0.686384 -1.81986 0
M  V30 1178 C 110.516 -2.79219 -2.27396 0
M  V30 1179 C 110.369 -4.19286 -1.62848 0
M  V30 1180 C 111.688 -2.92614 -3.28732 0
M  V30 1181 H 108.807 -0.587399 -0.445119 0
M  V30 1182 H 111.449 -1.82681 -0.522265 0
M  V30 1183 H 109.599 -2.61195 -2.87592 0
M  V30 1184 H 111.271 -4.48892 -1.06271 0
M  V30 1185 H 109.514 -4.23677 -0.931693 0
M  V30 1186 H 110.185 -4.97655 -2.38838 0
M  V30 1187 H 112.661 -3.09105 -2.78556 0
M  V30 1188 H 111.537 -3.76688 -3.99246 0
M  V30 1189 H 111.798 -2.03107 -3.92683 0
M  V30 1190 N 110.857 0.726932 -1.39834 0
M  V30 1191 C 112.103 1.48884 -1.377 0
M  V30 1192 C 112.436 1.94185 0.0244852 0
M  V30 1193 O 111.711 1.67361 0.990986 0
M  V30 1194 C 111.994 2.72288 -2.3565 0
M  V30 1195 C 111.847 2.32956 -3.84775 0
M  V30 1196 C 113.166 3.74414 -2.31306 0
M  V30 1197 H 110.285 0.540062 -0.5015 0
M  V30 1198 H 112.927 0.830547 -1.70886 0
M  V30 1199 H 111.077 3.28457 -2.07481 0
M  V30 1200 H 112.749 1.82356 -4.23726 0
M  V30 1201 H 110.992 1.65088 -4.01159 0
M  V30 1202 H 111.663 3.21362 -4.4881 0
M  V30 1203 H 114.139 3.27849 -2.56231 0
M  V30 1204 H 113.015 4.58414 -3.01907 0
M  V30 1205 H 113.276 4.21909 -1.32081 0
M  V30 1206 N 112.336 1.25143 0.95797 0
M  V30 1207 C 113.283 1.05235 2.05412 0
M  V30 1208 C 114.253 -0.0374561 1.66058 0
M  V30 1209 O 115.438 0.119073 1.90428 0
M  V30 1210 C 112.578 0.673589 3.38462 0
M  V30 1211 C 111.691 1.8379 3.90954 0
M  V30 1212 C 110.826 1.40381 5.12315 0
M  V30 1213 C 109.865 2.53746 5.57027 0
M  V30 1214 N 109.002 2.11136 6.69601 0
M  V30 1215 H 113.842 1.99048 2.21774 0
M  V30 1216 H 111.379 0.991277 1.08683 0
M  V30 1217 H 113.337 0.434964 4.14926 0
M  V30 1218 H 111.967 -0.227554 3.21997 0
M  V30 1219 H 111.019 2.18992 3.11041 0
M  V30 1220 H 112.331 2.68937 4.20089 0
M  V30 1221 H 111.485 1.12464 5.96185 0
M  V30 1222 H 110.224 0.523015 4.84887 0
M  V30 1223 H 109.229 2.82412 4.71724 0
M  V30 1224 H 110.454 3.42398 5.86464 0
M  V30 1225 H 108.4 1.25468 6.4389 0
M  V30 1226 H 108.317 2.89832 6.98236 0
M  V30 1227 H 109.585 1.86385 7.56889 0
M  V30 1228 N 113.814 -1.1601 1.06675 0
M  V30 1229 C 114.744 -2.22688 0.702307 0
M  V30 1230 C 115.725 -1.67306 -0.307032 0
M  V30 1231 O 116.91 -1.93352 -0.181305 0
M  V30 1232 C 114.04 -3.47178 0.092038 0
M  V30 1233 C 112.994 -4.15477 1.02777 0
M  V30 1234 C 112.32 -5.33963 0.28061 0
M  V30 1235 C 113.62 -4.66019 2.35846 0
M  V30 1236 H 115.314 -2.53429 1.59419 0
M  V30 1237 H 112.86 -1.21813 0.767961 0
M  V30 1238 H 114.813 -4.21037 -0.174814 0
M  V30 1239 H 113.537 -3.15749 -0.834877 0
M  V30 1240 H 112.196 -3.43549 1.27944 0
M  V30 1241 H 111.844 -4.98788 -0.649545 0
M  V30 1242 H 111.544 -5.806 0.904258 0
M  V30 1243 H 113.068 -6.10596 0.021396 0
M  V30 1244 H 114.482 -5.3144 2.15045 0
M  V30 1245 H 112.879 -5.23293 2.93743 0
M  V30 1246 H 113.949 -3.82023 2.98641 0
M  V30 1247 N 115.292 -0.849877 -1.32721 0
M  V30 1248 C 116.222 -0.306308 -2.31482 0
M  V30 1249 C 117.203 0.591952 -1.59468 0
M  V30 1250 O 118.388 0.513199 -1.87296 0
M  V30 1251 C 115.518 0.510204 -3.43532 0
M  V30 1252 C 114.472 -0.293209 -4.26994 0
M  V30 1253 C 113.798 0.647743 -5.30762 0
M  V30 1254 C 115.098 -1.51634 -4.99804 0
M  V30 1255 H 116.792 -1.13153 -2.77195 0
M  V30 1256 H 114.338 -0.545553 -1.33266 0
M  V30 1257 H 116.291 0.900856 -4.11658 0
M  V30 1258 H 115.015 1.36874 -2.96535 0
M  V30 1259 H 113.674 -0.665555 -3.60508 0
M  V30 1260 H 113.322 1.50299 -4.8002 0
M  V30 1261 H 113.022 0.11422 -5.87489 0
M  V30 1262 H 114.546 1.03567 -6.01753 0
M  V30 1263 H 115.96 -1.19824 -5.60638 0
M  V30 1264 H 114.357 -1.98745 -5.66234 0
M  V30 1265 H 115.427 -2.28018 -4.27943 0
M  V30 1266 N 116.77 1.45427 -0.607355 0
M  V30 1267 C 118.018 2.01841 -0.102253 0
M  V30 1268 C 118.339 1.47832 1.27164 0
M  V30 1269 O 117.609 0.672497 1.83995 0
M  V30 1270 H 116.189 0.746188 -0.0348101 0
M  V30 1271 H 118.851 1.78229 -0.7887 0
M  V30 1272 H 117.947 3.12057 -0.0518585 0
M  V30 1273 N 118.248 0.346503 1.53744 0
M  V30 1274 C 119.494 -0.249473 2.0126 0
M  V30 1275 C 119.827 -1.49965 1.23386 0
M  V30 1276 O 119.102 -1.91811 0.32229 0
M  V30 1277 C 119.385 -0.560643 3.55709 0
M  V30 1278 C 119.238 0.701836 4.44291 0
M  V30 1279 C 120.557 -1.36905 4.18264 0
M  V30 1280 H 117.676 -0.0891987 0.731582 0
M  V30 1281 H 120.318 0.467624 1.84156 0
M  V30 1282 H 118.468 -1.17156 3.70414 0
M  V30 1283 H 120.14 1.33974 4.41417 0
M  V30 1284 H 118.383 1.32612 4.13033 0
M  V30 1285 H 119.054 0.43933 5.50249 0
M  V30 1286 H 121.53 -0.852448 4.07275 0
M  V30 1287 H 120.406 -1.55553 5.26398 0
M  V30 1288 H 120.667 -2.37203 3.73078 0
M  V30 1289 N 119.726 -1.57421 0.075193 0
M  V30 1290 C 120.975 -1.92794 -0.592731 0
M  V30 1291 C 121.288 -0.957478 -1.70563 0
M  V30 1292 O 122.494 -1.20417 -2.43335 0
M  V30 1293 C 120.95 -3.42495 -1.10569 0
M  V30 1294 C 120.558 -4.47994 -0.0236121 0
M  V30 1295 C 122.302 -3.86864 -1.74748 0
M  V30 1296 C 120.209 -5.88829 -0.550803 0
M  V30 1297 H 119.139 -0.719591 -0.225177 0
M  V30 1298 H 121.79 -1.82902 0.147978 0
M  V30 1299 H 120.172 -3.47471 -1.89947 0
M  V30 1300 H 121.346 -4.54637 0.751099 0
M  V30 1301 H 119.661 -4.13113 0.522159 0
M  V30 1302 H 122.258 -4.8947 -2.15229 0
M  V30 1303 H 122.601 -3.24417 -2.60882 0
M  V30 1304 H 123.134 -3.84504 -1.01986 0
M  V30 1305 H 119.873 -6.54929 0.273457 0
M  V30 1306 H 119.393 -5.85698 -1.29296 0
M  V30 1307 H 121.072 -6.38811 -1.02613 0
M  V30 1308 N 121.204 0.198386 -1.56346 0
M  V30 1309 C 122.453 0.917451 -1.79627 0
M  V30 1310 C 122.766 1.8456 -0.64784 0
M  V30 1311 O 123.972 2.60504 -0.764859 0
M  V30 1312 C 122.428 1.68175 -3.18191 0
M  V30 1313 C 122.036 0.798589 -4.40825 0
M  V30 1314 C 123.78 2.39065 -3.50782 0
M  V30 1315 C 121.687 1.56157 -5.70411 0
M  V30 1316 H 120.617 0.346317 -0.669762 0
M  V30 1317 H 123.268 0.170801 -1.82703 0
M  V30 1318 H 121.65 2.47216 -3.09354 0
M  V30 1319 H 122.824 0.0470665 -4.60776 0
M  V30 1320 H 121.139 0.200686 -4.15916 0
M  V30 1321 H 123.736 2.96692 -4.44835 0
M  V30 1322 H 124.079 3.13091 -2.74371 0
M  V30 1323 H 124.612 1.66993 -3.61052 0
M  V30 1324 H 121.351 0.864142 -6.49779 0
M  V30 1325 H 120.871 2.2871 -5.54483 0
M  V30 1326 H 122.55 2.11622 -6.11412 0
M  V30 1327 N 122.682 1.50554 0.465978 0
M  V30 1328 C 123.592 1.72585 1.58907 0
M  V30 1329 C 124.608 0.60911 1.6299 0
M  V30 1330 O 125.784 0.88804 1.80765 0
M  V30 1331 C 122.849 1.81995 2.95091 0
M  V30 1332 C 121.91 3.05751 3.01355 0
M  V30 1333 C 121.143 3.14702 4.31043 0
M  V30 1334 O 121.366 2.30313 5.21835 0
M  V30 1335 O 120.3 4.07468 4.43005 0
M  V30 1336 H 124.126 2.67799 1.43239 0
M  V30 1337 H 121.711 1.34711 0.646013 0
M  V30 1338 H 123.593 1.90335 3.75966 0
M  V30 1339 H 122.268 0.899659 3.10947 0
M  V30 1340 H 121.175 3.02908 2.19539 0
M  V30 1341 H 122.508 3.97375 2.90437 0
M  V30 1342 N 124.16 -0.719506 1.40217 0
M  V30 1343 C 125.07 -1.86378 1.42479 0
M  V30 1344 C 126.086 -1.71073 0.317834 0
M  V30 1345 O 127.262 -1.93406 0.561794 0
M  V30 1346 C 124.327 -3.22136 1.28178 0
M  V30 1347 C 123.388 -3.49723 2.48982 0
M  V30 1348 C 122.621 -4.79004 2.35353 0
M  V30 1349 O 122.844 -5.53821 1.36524 0
M  V30 1350 O 121.778 -5.06839 3.2465 0
M  V30 1351 H 125.604 -1.87425 2.38968 0
M  V30 1352 H 123.189 -0.869405 1.21498 0
M  V30 1353 H 125.071 -4.03234 1.22395 0
M  V30 1354 H 123.746 -3.21825 0.347934 0
M  V30 1355 H 122.653 -2.6865 2.60342 0
M  V30 1356 H 123.986 -3.54828 3.41113 0
M  V30 1357 N 125.638 -1.25649 -0.95132 0
M  V30 1358 C 126.886 -1.10375 -1.69298 0
M  V30 1359 C 127.207 0.355339 -1.91735 0
M  V30 1360 O 126.477 1.25188 -1.50681 0
M  V30 1361 H 125.057 -0.405461 -0.627384 0
M  V30 1362 H 127.719 -1.57823 -1.14358 0
M  V30 1363 H 126.815 -1.61465 -2.67087 0
M  V30 1364 N 127.117 1.15442 -1.07289 0
M  V30 1365 C 128.064 2.20161 -0.692653 0
M  V30 1366 C 129.034 1.63073 0.31564 0
M  V30 1367 O 130.219 1.89725 0.202235 0
M  V30 1368 C 127.359 3.44967 -0.0959509 0
M  V30 1369 C 126.472 4.16256 -1.15564 0
M  V30 1370 C 125.607 5.28609 -0.524011 0
M  V30 1371 C 124.646 5.91715 -1.56653 0
M  V30 1372 N 123.783 6.9554 -0.957531 0
M  V30 1373 H 128.623 2.52037 -1.59002 0
M  V30 1374 H 126.16 1.2378 -0.794798 0
M  V30 1375 H 128.118 4.16341 0.267628 0
M  V30 1376 H 126.748 3.1361 0.764772 0
M  V30 1377 H 125.8 3.43385 -1.6368 0
M  V30 1378 H 127.112 4.59268 -1.94613 0
M  V30 1379 H 126.266 6.06604 -0.108032 0
M  V30 1380 H 125.005 4.86787 0.29825 0
M  V30 1381 H 124.01 5.12433 -1.9923 0
M  V30 1382 H 125.235 6.35614 -2.39107 0
M  V30 1383 H 123.181 6.55814 -0.156162 0
M  V30 1384 H 123.098 7.36977 -1.68526 0
M  V30 1385 H 124.366 7.77435 -0.567032 0
M  V30 1386 N 128.595 0.856903 1.32268 0
M  V30 1387 C 129.825 0.47475 2.01071 0
M  V30 1388 C 130.233 -0.933746 1.64553 0
M  V30 1389 O 129.576 -1.62114 0.863989 0
M  V30 1390 C 129.638 0.536746 3.55471 0
M  V30 1391 C 129.302 1.90453 4.15423 0
M  V30 1392 C 130.299 2.87029 4.33486 0
M  V30 1393 C 127.984 2.20229 4.51447 0
M  V30 1394 C 129.978 4.11532 4.86744 0
M  V30 1395 C 127.665 3.44984 5.0441 0
M  V30 1396 C 128.663 4.40452 5.22007 0
M  V30 1397 O 128.351 5.62998 5.73837 0
M  V30 1398 H 128.083 0.184778 0.650256 0
M  V30 1399 H 130.637 1.15615 1.69771 0
M  V30 1400 H 128.867 -0.20152 3.86175 0
M  V30 1401 H 130.556 0.169875 4.05544 0
M  V30 1402 H 131.322 2.6533 4.05986 0
M  V30 1403 H 127.201 1.46705 4.37034 0
M  V30 1404 H 130.745 4.86056 5.00395 0
M  V30 1405 H 126.642 3.66532 5.31342 0
M  V30 1406 H 127.41 5.64987 5.92226 0
M  V30 1407 N 130.073 -1.45103 0.615059 0
M  V30 1408 C 131.298 -2.07064 0.117988 0
M  V30 1409 C 131.723 -1.4554 -1.19163 0
M  V30 1410 O 131.081 -0.550855 -1.72729 0
M  V30 1411 C 131.129 -3.606 -0.000288387 0
M  V30 1412 O 130.233 -3.98847 -1.04856 0
M  V30 1413 H 129.574 -0.659467 0.0774581 0
M  V30 1414 H 132.104 -1.86236 0.847186 0
M  V30 1415 H 132.114 -4.07529 -0.196091 0
M  V30 1416 H 130.789 -4.04765 0.955932 0
M  V30 1417 H 129.366 -3.63577 -0.828619 0
M  V30 1418 N 131.551 -0.354651 -1.53558 0
M  V30 1419 C 132.481 0.489091 -2.2832 0
M  V30 1420 C 133.462 1.09324 -1.30316 0
M  V30 1421 O 134.647 1.11255 -1.59173 0
M  V30 1422 C 131.777 1.63456 -3.0643 0
M  V30 1423 C 130.731 1.1582 -4.12031 0
M  V30 1424 C 130.057 2.39305 -4.7816 0
M  V30 1425 C 131.357 0.250731 -5.21698 0
M  V30 1426 H 133.051 -0.134614 -2.99097 0
M  V30 1427 H 130.597 -0.0661826 -1.43848 0
M  V30 1428 H 132.55 2.23136 -3.57475 0
M  V30 1429 H 131.274 2.28533 -2.33325 0
M  V30 1430 H 129.933 0.584146 -3.61916 0
M  V30 1431 H 129.581 3.02814 -4.01637 0
M  V30 1432 H 129.281 2.08109 -5.49513 0
M  V30 1433 H 130.805 2.99691 -5.31994 0
M  V30 1434 H 132.219 0.754695 -5.68311 0
M  V30 1435 H 130.616 0.0301468 -6.00092 0
M  V30 1436 H 131.686 -0.710125 -4.79672 0
M  V30 1437 N 133.029 1.57378 -0.0835403 0
M  V30 1438 C 134.275 1.94217 0.583733 0
M  V30 1439 C 134.608 0.964653 1.68547 0
M  V30 1440 O 133.883 -0.00422258 1.945 0
M  V30 1441 C 134.166 3.41253 1.14972 0
M  V30 1442 C 134.019 4.49768 0.0538277 0
M  V30 1443 C 135.338 3.89352 2.05166 0
M  V30 1444 H 132.457 0.706233 0.210724 0
M  V30 1445 H 135.099 1.89392 -0.1519 0
M  V30 1446 H 133.249 3.45496 1.77665 0
M  V30 1447 H 134.921 4.57641 -0.579851 0
M  V30 1448 H 133.164 4.29432 -0.614068 0
M  V30 1449 H 133.835 5.49817 0.490452 0
M  V30 1450 H 136.311 3.87189 1.52393 0
M  V30 1451 H 135.187 4.92822 2.41698 0
M  V30 1452 H 135.448 3.27973 2.96456 0
M  V30 1453 N 134.507 -0.190092 1.56449 0
M  V30 1454 C 135.44 -1.26375 1.90012 0
M  V30 1455 C 136.418 -1.43705 0.760765 0
M  V30 1456 O 137.602 -1.59014 1.01226 0
M  V30 1457 C 134.729 -2.62962 2.13468 0
M  V30 1458 C 133.775 -2.62474 3.36169 0
M  V30 1459 S 134.608 -2.13412 4.91137 0
M  V30 1460 C 135.764 -3.51812 5.17667 0
M  V30 1461 H 135.997 -0.977181 2.80782 0
M  V30 1462 H 133.53 -0.393814 1.49293 0
M  V30 1463 H 135.488 -3.41583 2.27664 0
M  V30 1464 H 134.149 -2.88828 1.23439 0
M  V30 1465 H 133.342 -3.62918 3.49723 0
M  V30 1466 H 132.944 -1.91937 3.20992 0
M  V30 1467 H 135.236 -4.47706 5.08494 0
M  V30 1468 H 136.179 -3.43148 6.19399 0
M  V30 1469 H 136.587 -3.46956 4.45288 0
M  V30 1470 N 135.985 -1.50799 -0.457987 0
M  V30 1471 C 136.895 -1.73426 -1.57989 0
M  V30 1472 C 137.911 -0.617745 -1.62665 0
M  V30 1473 O 139.087 -0.897614 -1.80291 0
M  V30 1474 C 136.152 -1.83557 -2.94122 0
M  V30 1475 C 135.213 -3.07345 -2.99729 0
M  V30 1476 C 134.446 -3.16983 -4.29368 0
M  V30 1477 O 134.669 -2.33077 -5.20607 0
M  V30 1478 O 133.603 -4.09812 -4.40837 0
M  V30 1479 H 137.429 -2.68555 -1.41817 0
M  V30 1480 H 135.014 -1.35052 -0.638859 0
M  V30 1481 H 136.896 -1.92326 -3.74952 0
M  V30 1482 H 135.571 -0.916137 -3.10465 0
M  V30 1483 H 134.478 -3.04068 -2.1793 0
M  V30 1484 H 135.811 -3.9891 -2.88326 0
M  V30 1485 N 137.463 0.71206 -1.40597 0
M  V30 1486 C 138.693 1.49894 -1.42181 0
M  V30 1487 C 139.101 1.89189 -0.0208078 0
M  V30 1488 O 138.444 1.56223 0.966436 0
M  V30 1489 C 138.506 2.80215 -2.25211 0
M  V30 1490 C 138.17 2.63221 -3.73582 0
M  V30 1491 C 139.167 2.30249 -4.66135 0
M  V30 1492 C 136.852 2.79376 -4.17438 0
M  V30 1493 C 138.846 2.13645 -6.00529 0
M  V30 1494 C 136.533 2.6239 -5.51901 0
M  V30 1495 C 137.531 2.29573 -6.43262 0
M  V30 1496 O 137.219 2.12719 -7.75246 0
M  V30 1497 H 136.951 0.469031 -0.486812 0
M  V30 1498 H 139.505 0.88564 -1.85326 0
M  V30 1499 H 137.735 3.4389 -1.76852 0
M  V30 1500 H 139.424 3.41947 -2.18694 0
M  V30 1501 H 140.19 2.17398 -4.33547 0
M  V30 1502 H 136.069 3.03906 -3.46644 0
M  V30 1503 H 139.613 1.87953 -6.71803 0
M  V30 1504 H 135.51 2.74826 -5.84073 0
M  V30 1505 H 136.278 2.27611 -7.86216 0
M  V30 1506 N 138.941 1.26152 0.944643 0
M  V30 1507 C 139.874 1.01729 2.04271 0
M  V30 1508 C 140.852 -0.0568101 1.62501 0
M  V30 1509 O 142.036 0.0848987 1.88309 0
M  V30 1510 C 139.163 0.539792 3.34371 0
M  V30 1511 C 138.209 1.60593 3.9511 0
M  V30 1512 S 139.042 3.19392 4.29825 0
M  V30 1513 C 140.198 2.73402 5.63029 0
M  V30 1514 H 140.431 1.94703 2.24673 0
M  V30 1515 H 137.964 1.09793 1.08558 0
M  V30 1516 H 139.922 0.270956 4.09605 0
M  V30 1517 H 138.583 -0.369609 3.11918 0
M  V30 1518 H 137.776 1.22275 4.88943 0
M  V30 1519 H 137.378 1.82596 3.26397 0
M  V30 1520 H 139.67 2.1765 6.41588 0
M  V30 1521 H 140.613 3.65913 6.06229 0
M  V30 1522 H 141.021 2.13077 5.22741 0
M  V30 1523 N 140.419 -1.14872 1.07899 0
M  V30 1524 C 141.329 -2.2341 0.715915 0
M  V30 1525 C 142.345 -1.71808 -0.275306 0
M  V30 1526 O 143.521 -2.01039 -0.120545 0
M  V30 1527 C 140.586 -3.46474 0.125168 0
M  V30 1528 C 139.647 -4.13039 1.17034 0
M  V30 1529 C 138.88 -5.30229 0.607688 0
M  V30 1530 O 139.103 -5.675 -0.574497 0
M  V30 1531 O 138.037 -5.86444 1.35526 0
M  V30 1532 H 141.863 -2.56808 1.62121 0
M  V30 1533 H 139.448 -1.22702 0.852322 0
M  V30 1534 H 141.33 -4.20917 -0.201729 0
M  V30 1535 H 140.005 -3.14811 -0.753364 0
M  V30 1536 H 138.912 -3.40493 1.54968 0
M  V30 1537 H 140.245 -4.48796 2.02097 0
M  V30 1538 N 141.898 -0.863906 -1.31812 0
M  V30 1539 C 142.845 -0.313303 -2.28664 0
M  V30 1540 C 143.815 0.584868 -1.55462 0
M  V30 1541 O 145 0.517805 -1.83639 0
M  V30 1542 C 142.14 0.48441 -3.41683 0
M  V30 1543 C 141.253 -0.440594 -4.29747 0
M  V30 1544 C 140.388 0.370652 -5.29905 0
M  V30 1545 C 139.427 -0.551164 -6.09613 0
M  V30 1546 N 138.564 0.223462 -7.01744 0
M  V30 1547 H 143.404 -1.14444 -2.75148 0
M  V30 1548 H 140.941 -0.575769 -1.35364 0
M  V30 1549 H 142.899 0.962627 -4.05943 0
M  V30 1550 H 141.529 1.28029 -2.96325 0
M  V30 1551 H 140.581 -1.03724 -3.65986 0
M  V30 1552 H 141.893 -1.14767 -4.85417 0
M  V30 1553 H 141.047 0.911638 -5.99812 0
M  V30 1554 H 139.786 1.11105 -4.74876 0
M  V30 1555 H 138.791 -1.10396 -5.38603 0
M  V30 1556 H 140.016 -1.29032 -6.66729 0
M  V30 1557 H 137.962 0.946787 -6.49132 0
M  V30 1558 H 137.879 -0.424399 -7.54808 0
M  V30 1559 H 139.147 0.745876 -7.75923 0
M  V30 1560 N 143.376 1.44774 -0.622745 0
M  V30 1561 C 144.624 2.01721 -0.123655 0
M  V30 1562 C 144.945 1.49172 1.25589 0
M  V30 1563 O 144.215 0.691974 1.83272 0
M  V30 1564 H 142.795 0.745777 -0.0427225 0
M  V30 1565 H 145.457 1.77382 -0.807559 0
M  V30 1566 H 144.553 3.11984 -0.0849534 0
M  V30 1567 N 144.854 0.36279 1.53368 0
M  V30 1568 C 145.802 -0.500155 2.27159 0
M  V30 1569 C 146.796 -1.08575 1.3003 0
M  V30 1570 O 148.002 -1.02927 1.47668 0
M  V30 1571 H 144.377 -0.180009 0.730138 0
M  V30 1572 H 146.348 0.14401 2.98052 0
M  V30 1573 C 145.097 -1.62937 3.07159 0
M  V30 1574 H 144.42 -1.18806 3.8174 0
M  V30 1575 H 145.86 -2.20795 3.61975 0
M  V30 1576 C 144.319 -2.57007 2.17829 0
M  V30 1577 O 144.849 -3.59752 1.78721 0
M  V30 1578 N 143.055 -2.26131 1.82518 0
M  V30 1579 H 142.602 -1.42616 2.14519 0
M  V30 1580 H 142.56 -2.89327 1.23034 0
M  V30 1581 N 146.332 -1.57332 0.0918853 0
M  V30 1582 C 147.262 -2.16872 -0.865371 0
M  V30 1583 C 148.243 -1.10118 -1.29646 0
M  V30 1584 O 149.428 -1.38242 -1.36392 0
M  V30 1585 C 146.558 -2.74649 -2.12569 0
M  V30 1586 C 145.512 -3.86747 -1.83333 0
M  V30 1587 C 144.838 -4.31212 -3.16166 0
M  V30 1588 C 146.138 -5.10089 -1.1228 0
M  V30 1589 H 147.832 -2.97114 -0.369307 0
M  V30 1590 H 145.378 -1.42918 -0.176194 0
M  V30 1591 H 147.331 -3.14952 -2.7997 0
M  V30 1592 H 146.055 -1.91657 -2.64452 0
M  V30 1593 H 144.714 -3.46978 -1.18331 0
M  V30 1594 H 144.362 -3.45115 -3.6593 0
M  V30 1595 H 144.062 -5.06788 -2.97388 0
M  V30 1596 H 145.586 -4.74146 -3.84731 0
M  V30 1597 H 147 -5.47582 -1.69785 0
M  V30 1598 H 145.397 -5.91073 -1.03693 0
M  V30 1599 H 146.467 -4.84786 -0.105041 0
M  V30 1600 N 147.81 0.181792 -1.56548 0
M  V30 1601 C 148.743 1.25366 -1.90679 0
M  V30 1602 C 149.721 1.43299 -0.768376 0
M  V30 1603 O 150.905 1.58475 -1.02068 0
M  V30 1604 C 148.032 2.61826 -2.1486 0
M  V30 1605 C 147.078 2.60688 -3.37556 0
M  V30 1606 S 147.911 2.10804 -4.92262 0
M  V30 1607 C 149.067 3.49062 -5.19525 0
M  V30 1608 H 149.3 0.962277 -2.81296 0
M  V30 1609 H 146.833 0.385892 -1.495 0
M  V30 1610 H 148.791 3.40371 -2.29473 0
M  V30 1611 H 147.452 2.88169 -1.24969 0
M  V30 1612 H 146.645 3.61058 -3.51643 0
M  V30 1613 H 146.247 1.90232 -3.22006 0
M  V30 1614 H 148.539 4.45003 -5.10861 0
M  V30 1615 H 149.482 3.39859 -6.2121 0
M  V30 1616 H 149.89 3.4459 -4.47122 0
M  V30 1617 N 149.288 1.51039 0.449983 0
M  V30 1618 C 150.238 1.67824 1.54335 0
M  V30 1619 C 151.222 0.5324 1.51836 0
M  V30 1620 O 152.414 0.787762 1.58503 0
M  V30 1621 C 149.543 1.7951 2.92628 0
M  V30 1622 C 148.629 2.99838 2.9993 0
M  V30 1623 N 149.02 4.23207 2.77001 0
M  V30 1624 C 147.318 2.98832 3.31082 0
M  V30 1625 C 148.019 5.04361 2.89818 0
M  V30 1626 N 146.995 4.38746 3.2094 0
M  V30 1627 H 150.797 2.60884 1.35339 0
M  V30 1628 H 148.311 1.48513 0.657085 0
M  V30 1629 H 150.308 1.89642 3.7127 0
M  V30 1630 H 148.968 0.876227 3.12654 0
M  V30 1631 H 149.979 4.5236 2.52172 0
M  V30 1632 H 146.656 2.16527 3.56963 0
M  V30 1633 H 148.046 6.12528 2.76151 0
M  V30 1634 N 150.766 -0.704594 1.40972 0
M  V30 1635 C 152.012 -1.46675 1.40051 0
M  V30 1636 C 152.345 -1.94199 0.00641102 0
M  V30 1637 O 151.62 -1.68916 -0.964235 0
M  V30 1638 C 151.903 -2.68505 2.39952 0
M  V30 1639 C 151.756 -2.26805 3.88432 0
M  V30 1640 C 153.075 -3.70686 2.37233 0
M  V30 1641 H 150.194 -0.532015 0.510028 0
M  V30 1642 H 152.836 -0.803255 1.72185 0
M  V30 1643 H 150.986 -3.25114 2.1268 0
M  V30 1644 H 152.658 -1.75592 4.26574 0
M  V30 1645 H 150.901 -1.58685 4.03734 0
M  V30 1646 H 151.572 -3.14181 4.53866 0
M  V30 1647 H 154.048 -3.23731 2.61415 0
M  V30 1648 H 152.924 -4.53553 3.09162 0
M  V30 1649 H 153.185 -4.19754 1.38777 0
M  V30 1650 N 152.244 -1.26651 -0.937939 0
M  V30 1651 C 153.174 -1.10993 -2.05433 0
M  V30 1652 C 154.155 -0.0142161 -1.70094 0
M  V30 1653 O 155.34 -0.186837 -1.93299 0
M  V30 1654 C 152.47 -0.745561 -3.39203 0
M  V30 1655 C 151.424 -1.79337 -3.88616 0
M  V30 1656 C 150.75 -1.28324 -5.19073 0
M  V30 1657 C 152.05 -3.19553 -4.13138 0
M  V30 1658 H 153.744 -2.0438 -2.1879 0
M  V30 1659 H 151.29 -0.984041 -1.05131 0
M  V30 1660 H 153.243 -0.622888 -4.16771 0
M  V30 1661 H 151.967 0.22401 -3.25831 0
M  V30 1662 H 150.626 -1.90477 -3.13231 0
M  V30 1663 H 150.274 -0.303414 -5.02084 0
M  V30 1664 H 149.974 -1.98369 -5.53103 0
M  V30 1665 H 151.498 -1.1733 -5.99221 0
M  V30 1666 H 152.912 -3.11471 -4.81309 0
M  V30 1667 H 151.309 -3.87218 -4.58457 0
M  V30 1668 H 152.379 -3.65368 -3.18801 0
M  V30 1669 N 153.722 1.14298 -1.08507 0
M  V30 1670 C 154.669 2.19414 -0.715965 0
M  V30 1671 C 155.639 1.63399 0.298326 0
M  V30 1672 O 156.824 1.89929 0.182101 0
M  V30 1673 C 153.964 3.44845 -0.132534 0
M  V30 1674 C 153.077 4.15007 -1.19973 0
M  V30 1675 C 152.212 5.28024 -0.580048 0
M  V30 1676 C 151.251 5.9002 -1.62921 0
M  V30 1677 N 150.388 6.94485 -1.03125 0
M  V30 1678 H 155.228 2.50336 -1.61666 0
M  V30 1679 H 152.765 1.2293 -0.807882 0
M  V30 1680 H 154.723 4.16601 0.223454 0
M  V30 1681 H 153.353 3.14403 0.731467 0
M  V30 1682 H 152.405 3.41629 -1.67313 0
M  V30 1683 H 153.717 4.57178 -1.99473 0
M  V30 1684 H 152.871 6.06455 -0.172364 0
M  V30 1685 H 151.61 4.87076 0.246603 0
M  V30 1686 H 150.615 5.10291 -2.04654 0
M  V30 1687 H 151.84 6.33042 -2.45835 0
M  V30 1688 H 149.786 6.55612 -0.225711 0
M  V30 1689 H 149.703 7.35148 -1.76334 0
M  V30 1690 H 150.971 7.7679 -0.649458 0
M  V30 1691 N 155.201 0.870884 1.31352 0
M  V30 1692 C 156.164 0.332243 2.26779 0
M  V30 1693 C 157.164 -0.517302 1.52252 0
M  V30 1694 O 158.354 -0.326477 1.71113 0
M  V30 1695 C 155.486 -0.528066 3.36785 0
M  V30 1696 H 156.679 1.17469 2.75937 0
M  V30 1697 H 154.232 0.64655 1.423 0
M  V30 1698 H 154.967 -1.39167 2.92922 0
M  V30 1699 H 154.752 0.0802582 3.92018 0
M  V30 1700 H 156.242 -0.897179 4.07849 0
M  V30 1701 N 156.679 -1.44442 0.630414 0
M  V30 1702 C 157.589 -2.34476 -0.0761693 0
M  V30 1703 C 158.605 -1.52576 -0.836449 0
M  V30 1704 O 159.781 -1.85307 -0.788874 0
M  V30 1705 C 156.846 -3.30545 -1.04599 0
M  V30 1706 C 155.907 -4.28352 -0.28516 0
M  V30 1707 C 155.14 -5.19831 -1.20878 0
M  V30 1708 O 155.363 -5.15223 -2.44747 0
M  V30 1709 O 154.297 -5.97892 -0.693491 0
M  V30 1710 H 158.123 -2.96345 0.664324 0
M  V30 1711 H 155.708 -1.44203 0.39061 0
M  V30 1712 H 157.59 -3.89681 -1.60396 0
M  V30 1713 H 156.265 -2.7121 -1.76711 0
M  V30 1714 H 155.172 -3.72764 0.315837 0
M  V30 1715 H 156.505 -4.90605 0.395924 0
M  V30 1716 N 158.157 -0.370918 -1.53173 0
M  V30 1717 C 159.09 0.516727 -2.22273 0
M  V30 1718 C 160.068 1.07877 -1.21661 0
M  V30 1719 O 161.252 1.13389 -1.50583 0
M  V30 1720 C 158.379 1.71346 -2.92161 0
M  V30 1721 C 157.425 1.27838 -4.0689 0
M  V30 1722 S 158.258 0.275217 -5.34792 0
M  V30 1723 C 159.414 1.47816 -6.08195 0
M  V30 1724 H 159.647 -0.0701054 -2.97217 0
M  V30 1725 H 157.18 -0.155038 -1.5362 0
M  V30 1726 H 159.138 2.39988 -3.3304 0
M  V30 1727 H 157.799 2.27156 -2.16931 0
M  V30 1728 H 156.992 2.17141 -4.54825 0
M  V30 1729 H 156.594 0.671105 -3.6793 0
M  V30 1730 H 158.886 2.40831 -6.33251 0
M  V30 1731 H 159.829 1.04008 -7.0042 0
M  V30 1732 H 160.237 1.68663 -5.38714 0
M  V30 1733 N 159.635 1.57281 -0.100228 0
M  V30 1734 C 160.86 1.99302 0.573881 0
M  V30 1735 C 161.285 0.979059 1.60611 0
M  V30 1736 O 160.643 -0.0517803 1.81226 0
M  V30 1737 C 160.691 3.40274 1.19358 0
M  V30 1738 O 159.795 3.41676 2.30935 0
M  V30 1739 H 159.136 0.647944 0.145138 0
M  V30 1740 H 161.666 2.03779 -0.183156 0
M  V30 1741 H 161.676 3.78078 1.53365 0
M  V30 1742 H 160.351 4.13594 0.437385 0
M  V30 1743 H 158.928 3.15672 1.98509 0
M  V30 1744 N 161.113 -0.173488 1.56642 0
M  V30 1745 C 162.341 -0.906095 1.86004 0
M  V30 1746 C 162.756 -1.75921 0.685355 0
M  V30 1747 O 162.113 -1.79198 -0.345578 0
M  V30 1748 C 162.164 -1.78462 3.14378 0
M  V30 1749 O 161.885 -0.965914 4.27319 0
M  V30 1750 C 163.386 -2.62707 3.57071 0
M  V30 1751 H 160.606 -0.263341 0.617165 0
M  V30 1752 H 163.15 -0.174236 2.03756 0
M  V30 1753 H 161.305 -2.46984 2.98459 0
M  V30 1754 H 161.719 -1.56655 5.00559 0
M  V30 1755 H 163.193 -3.19969 4.49804 0
M  V30 1756 H 163.67 -3.37472 2.81086 0
M  V30 1757 H 164.276 -1.99521 3.75595 0
M  V30 1758 N 162.591 -1.51276 -0.441967 0
M  V30 1759 C 164.002 -1.56244 -1.02199 0
M  V30 1760 C 164.353 -0.383149 -1.92422 0
M  V30 1761 O 163.478 0.500613 -2.1053 0
M  V30 1762 C 164.073 -2.83162 -1.86024 0
M  V30 1763 C 162.632 -2.90716 -2.39084 0
M  V30 1764 C 161.779 -2.50858 -1.18175 0
M  V30 1765 H 164.73 -1.5712 -0.223416 0
M  V30 1766 H 164.751 -2.66663 -2.71425 0
M  V30 1767 H 164.263 -3.68974 -1.20331 0
M  V30 1768 H 162.364 -2.09323 -3.08244 0
M  V30 1769 H 162.477 -3.94266 -2.72198 0
M  V30 1770 H 160.841 -2.03951 -1.52565 0
M  V30 1771 H 161.624 -3.3901 -0.541001 0
M  V30 1772 N 164.069 0.697108 -1.41344 0
M  V30 1773 C 164.999 1.82353 -1.45841 0
M  V30 1774 C 165.98 1.67115 -0.317247 0
M  V30 1775 O 167.165 1.86871 -0.528474 0
M  V30 1776 C 164.295 3.20476 -1.33838 0
M  V30 1777 C 163.249 3.50415 -2.4575 0
M  V30 1778 C 162.575 4.87878 -2.18813 0
M  V30 1779 C 163.875 3.49546 -3.88091 0
M  V30 1780 H 165.569 1.78846 -2.40113 0
M  V30 1781 H 163.115 0.859028 -1.15571 0
M  V30 1782 H 165.068 3.98988 -1.35596 0
M  V30 1783 H 163.792 3.24604 -0.360498 0
M  V30 1784 H 162.451 2.74253 -2.43271 0
M  V30 1785 H 162.099 4.8863 -1.19371 0
M  V30 1786 H 161.799 5.08875 -2.93803 0
M  V30 1787 H 163.323 5.68702 -2.22284 0
M  V30 1788 H 164.737 4.18066 -3.92293 0
M  V30 1789 H 163.134 3.82075 -4.62751 0
M  V30 1790 H 164.204 2.48552 -4.16353 0
M  V30 1791 N 165.547 1.27147 0.931209 0
M  V30 1792 C 166.772 1.16191 1.71797 0
M  V30 1793 C 167.197 -0.278004 1.86034 0
M  V30 1794 O 166.555 -1.20137 1.35782 0
M  V30 1795 C 166.603 1.84673 3.09723 0
M  V30 1796 O 165.707 1.14231 3.96264 0
M  V30 1797 H 165.048 0.404303 0.526721 0
M  V30 1798 H 167.578 1.68152 1.1656 0
M  V30 1799 H 167.588 1.91893 3.60057 0
M  V30 1800 H 166.263 2.89421 2.98677 0
M  V30 1801 H 164.84 1.15056 3.54706 0
M  V30 1802 N 167.025 -1.13721 1.09112 0
M  V30 1803 C 168.271 -1.85198 0.826414 0
M  V30 1804 C 168.604 -1.83129 -0.646319 0
M  V30 1805 O 167.879 -1.2671 -1.47563 0
M  V30 1806 C 168.162 -3.33507 1.35812 0
M  V30 1807 C 168.015 -3.44108 2.89672 0
M  V30 1808 C 169.334 -4.28838 0.989256 0
M  V30 1809 H 166.453 -0.67243 0.301675 0
M  V30 1810 H 169.095 -1.33499 1.35197 0
M  V30 1811 H 167.245 -3.77666 0.911082 0
M  V30 1812 H 168.917 -3.08684 3.428 0
M  V30 1813 H 167.16 -2.85087 3.26967 0
M  V30 1814 H 167.831 -4.48388 3.21951 0
M  V30 1815 H 170.307 -3.92734 1.37475 0
M  V30 1816 H 169.183 -5.31051 1.38838 0
M  V30 1817 H 169.444 -4.4198 -0.102924 0
M  V30 1818 N 168.503 -0.877838 -1.30888 0
M  V30 1819 C 169.45 -0.337538 -2.28318 0
M  V30 1820 C 170.42 0.568346 -1.56074 0
M  V30 1821 O 171.605 0.498298 -1.84178 0
M  V30 1822 C 168.745 0.448142 -3.42178 0
M  V30 1823 C 167.858 -0.48615 -4.29256 0
M  V30 1824 C 166.993 0.314427 -5.30269 0
M  V30 1825 C 166.032 -0.615791 -6.08995 0
M  V30 1826 N 165.169 0.14902 -7.01942 0
M  V30 1827 H 170.009 -1.17356 -2.73919 0
M  V30 1828 H 167.546 -0.590094 -1.34745 0
M  V30 1829 H 169.504 0.919517 -4.06941 0
M  V30 1830 H 168.134 1.24879 -2.97666 0
M  V30 1831 H 167.186 -1.076 -3.64865 0
M  V30 1832 H 168.498 -1.19909 -4.84173 0
M  V30 1833 H 167.652 0.847969 -6.00745 0
M  V30 1834 H 166.391 1.06062 -4.76027 0
M  V30 1835 H 165.396 -1.16102 -5.37401 0
M  V30 1836 H 166.621 -1.36097 -6.65323 0
M  V30 1837 H 164.567 0.877884 -6.50099 0
M  V30 1838 H 164.484 -0.504433 -7.54315 0
M  V30 1839 H 165.752 0.663537 -7.76671 0
M  V30 1840 N 169.982 1.44106 -0.638065 0
M  V30 1841 C 171.23 2.01579 -0.145043 0
M  V30 1842 C 171.551 1.50496 1.24 0
M  V30 1843 O 170.821 0.711374 1.82527 0
M  V30 1844 H 169.401 0.745282 -0.05063 0
M  V30 1845 H 172.063 1.76516 -0.826327 0
M  V30 1846 H 171.159 3.11877 -0.118039 0
M  V30 1847 N 171.46 0.379036 1.52974 0
M  V30 1848 C 172.876 0.0285448 1.59574 0
M  V30 1849 C 173.076 -1.45542 1.39355 0
M  V30 1850 O 172.132 -2.2187 1.20541 0
M  V30 1851 C 173.445 0.496535 2.96572 0
M  V30 1852 C 174.993 0.451909 3.0972 0
M  V30 1853 C 175.468 0.895924 4.49152 0
M  V30 1854 N 176.959 0.851522 4.55306 0
M  V30 1855 C 177.694 1.16661 5.61407 0
M  V30 1856 N 177.19 1.55166 6.752 0
M  V30 1857 N 178.983 1.08853 5.51459 0
M  V30 1858 H 171.134 1.34525 1.64367 0
M  V30 1859 H 173.397 0.550733 0.771619 0
M  V30 1860 H 173.103 1.53258 3.16552 0
M  V30 1861 H 172.977 -0.109802 3.7704 0
M  V30 1862 H 175.364 -0.575029 2.89443 0
M  V30 1863 H 175.445 1.09392 2.3123 0
M  V30 1864 H 175.089 1.92104 4.70168 0
M  V30 1865 H 175.019 0.23103 5.26093 0
M  V30 1866 H 177.51 0.568038 3.73606 0
M  V30 1867 H 177.823 1.776 7.52116 0
M  V30 1868 H 176.168 1.59044 6.76557 0
M  V30 1869 H 179.359 0.786803 4.6144 0
M  V30 1870 H 179.532 1.33742 6.34048 0
M  V30 1871 N 172.938 -1.57226 0.108567 0
M  V30 1872 C 174.187 -1.94008 -0.551703 0
M  V30 1873 C 174.5 -0.993442 -1.68494 0
M  V30 1874 O 175.706 -1.25551 -2.40726 0
M  V30 1875 C 174.162 -3.44763 -1.03279 0
M  V30 1876 C 173.77 -4.47943 0.0714193 0
M  V30 1877 C 175.514 -3.90483 -1.66503 0
M  V30 1878 C 173.421 -5.89865 -0.425779 0
M  V30 1879 H 172.351 -0.724206 -0.209863 0
M  V30 1880 H 175.002 -1.82547 0.186741 0
M  V30 1881 H 173.384 -3.51422 -1.82533 0
M  V30 1882 H 174.558 -4.52942 0.847365 0
M  V30 1883 H 172.873 -4.11913 0.609669 0
M  V30 1884 H 175.47 -4.93925 -2.04798 0
M  V30 1885 H 175.813 -3.29877 -2.53942 0
M  V30 1886 H 176.346 -3.86581 -0.938074 0
M  V30 1887 H 173.085 -6.54202 0.412316 0
M  V30 1888 H 172.605 -5.88309 -1.16843 0
M  V30 1889 H 174.284 -6.40844 -0.890397 0
M  V30 1890 N 174.416 0.165178 -1.56732 0
M  V30 1891 C 175.665 0.879143 -1.81532 0
M  V30 1892 C 175.978 1.83144 -0.686842 0
M  V30 1893 O 177.184 2.58823 -0.819944 0
M  V30 1894 C 175.64 1.61388 -3.21686 0
M  V30 1895 C 175.248 0.704904 -4.4242 0
M  V30 1896 C 176.992 2.3157 -3.55774 0
M  V30 1897 C 174.899 1.44022 -5.73595 0
M  V30 1898 H 173.829 0.332033 -0.676957 0
M  V30 1899 H 176.48 0.132008 -1.83025 0
M  V30 1900 H 174.862 2.40599 -3.14529 0
M  V30 1901 H 176.036 -0.0506815 -4.60772 0
M  V30 1902 H 174.351 0.112419 -4.16248 0
M  V30 1903 H 176.948 2.8719 -4.51028 0
M  V30 1904 H 177.291 3.07201 -2.8095 0
M  V30 1905 H 177.824 1.59297 -3.64513 0
M  V30 1906 H 174.563 0.72612 -6.51466 0
M  V30 1907 H 174.083 2.16898 -5.5921 0
M  V30 1908 H 175.762 1.98606 -6.15764 0
M  V30 1909 N 175.894 1.51508 0.433938 0
M  V30 1910 C 176.824 1.76016 1.53429 0
M  V30 1911 C 177.805 0.610112 1.58782 0
M  V30 1912 O 178.99 0.853177 1.74455 0
M  V30 1913 C 176.12 1.88831 2.9148 0
M  V30 1914 C 175.074 3.04288 3.00987 0
M  V30 1915 C 174.4 3.0229 4.4105 0
M  V30 1916 C 175.7 4.44193 2.74754 0
M  V30 1917 H 177.394 2.68152 1.33171 0
M  V30 1918 H 174.94 1.29035 0.639214 0
M  V30 1919 H 176.893 2.04559 3.6842 0
M  V30 1920 H 175.617 0.933455 3.12976 0
M  V30 1921 H 174.276 2.8827 2.26486 0
M  V30 1922 H 173.924 2.04576 4.59519 0
M  V30 1923 H 173.624 3.79822 4.4834 0
M  V30 1924 H 175.148 3.20116 5.1996 0
M  V30 1925 H 176.562 4.60544 3.41426 0
M  V30 1926 H 174.959 5.23457 2.9345 0
M  V30 1927 H 176.029 4.53996 1.70339 0
M  V30 1928 N 177.372 -0.689602 1.41712 0
M  V30 1929 C 178.282 -1.83314 1.46401 0
M  V30 1930 C 179.298 -1.7036 0.35405 0
M  V30 1931 O 180.474 -1.92171 0.602692 0
M  V30 1932 C 177.539 -3.19344 1.34982 0
M  V30 1933 C 176.6 -3.44363 2.56344 0
M  V30 1934 C 175.833 -4.73904 2.45461 0
M  V30 1935 O 176.056 -5.508 1.48241 0
M  V30 1936 O 174.99 -4.99839 3.35328 0
M  V30 1937 H 178.816 -1.82314 2.42889 0
M  V30 1938 H 176.401 -0.843438 1.23315 0
M  V30 1939 H 178.283 -4.00547 1.3092 0
M  V30 1940 H 176.958 -3.21014 0.41612 0
M  V30 1941 H 175.865 -2.63067 2.65982 0
M  V30 1942 H 177.198 -3.47512 3.48563 0
M  V30 1943 N 178.85 -1.27639 -0.924453 0
M  V30 1944 C 180.099 -1.13549 -1.66702 0
M  V30 1945 C 180.412 0.317487 -1.93006 0
M  V30 1946 O 181.618 0.579333 -2.65247 0
M  V30 1947 C 180.074 -1.98426 -3.00259 0
M  V30 1948 C 179.682 -3.484 -2.81641 0
M  V30 1949 C 181.426 -1.92993 -3.78092 0
M  V30 1950 C 179.333 -4.25464 -4.10773 0
M  V30 1951 H 178.263 -0.421351 -0.625283 0
M  V30 1952 H 180.914 -1.52085 -1.02676 0
M  V30 1953 H 179.296 -1.52736 -3.6536 0
M  V30 1954 H 180.47 -4.01973 -2.25287 0
M  V30 1955 H 178.785 -3.55245 -2.17232 0
M  V30 1956 H 181.382 -2.47844 -4.7379 0
M  V30 1957 H 181.725 -0.904281 -4.0636 0
M  V30 1958 H 182.258 -2.36595 -3.19793 0
M  V30 1959 H 178.997 -5.28566 -3.87683 0
M  V30 1960 H 178.517 -3.76667 -4.66779 0
M  V30 1961 H 180.196 -4.34812 -4.79111 0
M  V30 1962 N 180.328 1.1314 -1.09713 0
M  V30 1963 C 181.577 1.83838 -0.829851 0
M  V30 1964 C 181.89 1.84599 0.646728 0
M  V30 1965 O 183.096 2.51218 1.02965 0
M  V30 1966 C 181.552 3.30069 -1.43466 0
M  V30 1967 C 181.16 3.37688 -2.94399 0
M  V30 1968 C 182.904 4.05788 -1.24645 0
M  V30 1969 C 180.811 4.78209 -3.47952 0
M  V30 1970 H 179.741 0.68877 -0.306777 0
M  V30 1971 H 182.392 1.27448 -1.3202 0
M  V30 1972 H 180.774 3.8628 -0.871996 0
M  V30 1973 H 181.948 2.91456 -3.56918 0
M  V30 1974 H 180.263 2.75436 -3.12289 0
M  V30 1975 H 182.86 5.09535 -1.62107 0
M  V30 1976 H 183.203 4.15878 -0.187357 0
M  V30 1977 H 183.736 3.55915 -1.77678 0
M  V30 1978 H 180.475 4.73311 -4.53495 0
M  V30 1979 H 179.995 5.24924 -2.90198 0
M  V30 1980 H 181.674 5.47133 -3.45332 0
M  V30 1981 N 181.806 0.884767 1.30421 0
M  V30 1982 C 182.716 0.355398 2.31892 0
M  V30 1983 C 183.732 -0.542261 1.65335 0
M  V30 1984 O 184.908 -0.435432 1.96637 0
M  V30 1985 C 181.973 -0.421661 3.44126 0
M  V30 1986 C 181.034 0.505727 4.26311 0
M  V30 1987 C 180.267 -0.234343 5.33185 0
M  V30 1988 O 180.49 -1.46045 5.51386 0
M  V30 1989 O 179.424 0.415443 6.00465 0
M  V30 1990 H 183.25 1.19685 2.79122 0
M  V30 1991 H 180.835 0.648596 1.34587 0
M  V30 1992 H 182.717 -0.861641 4.12497 0
M  V30 1993 H 181.392 -1.23942 2.99032 0
M  V30 1994 H 180.299 0.994513 3.60639 0
M  V30 1995 H 181.632 1.28948 4.75009 0
M  V30 1996 N 183.284 -1.43765 0.645699 0
M  V30 1997 C 184.532 -2.01499 0.155731 0
M  V30 1998 C 184.853 -1.51151 -1.232 0
M  V30 1999 O 184.123 -0.721044 -1.82148 0
M  V30 2000 H 182.703 -0.745003 0.0545817 0
M  V30 2001 H 185.365 -1.76075 0.835677 0
M  V30 2002 H 184.461 -3.1181 0.134577 0
M  V30 2003 N 184.763 -0.387143 -1.52771 0
M  V30 2004 C 185.696 0.493123 -2.22808 0
M  V30 2005 C 186.674 1.0658 -1.22798 0
M  V30 2006 O 187.858 1.11785 -1.51777 0
M  V30 2007 C 184.985 1.68238 -2.93962 0
M  V30 2008 C 184.031 1.23515 -4.08223 0
M  V30 2009 S 184.864 0.21848 -5.35054 0
M  V30 2010 C 186.02 1.41357 -6.09729 0
M  V30 2011 H 186.253 -0.101625 -2.97126 0
M  V30 2012 H 183.786 -0.171323 -1.53447 0
M  V30 2013 H 185.744 2.36443 -3.35567 0
M  V30 2014 H 184.405 2.24842 -2.19328 0
M  V30 2015 H 183.598 2.12304 -4.57103 0
M  V30 2016 H 183.2 0.632044 -3.68621 0
M  V30 2017 H 185.492 2.34101 -6.3577 0
M  V30 2018 H 186.435 0.965736 -7.01484 0
M  V30 2019 H 186.843 1.6294 -5.40473 0
M  V30 2020 N 186.241 1.57166 -0.116904 0
M  V30 2021 C 187.481 1.97008 0.544715 0
M  V30 2022 C 187.845 0.998713 1.63981 0
M  V30 2023 O 189.046 1.28644 2.36018 0
M  V30 2024 C 187.317 3.41145 1.06559 0
M  V30 2025 S 188.876 4.02998 1.73603 0
M  V30 2026 H 185.694 0.688587 0.177112 0
M  V30 2027 H 188.296 1.94459 -0.201487 0
M  V30 2028 H 187 4.09592 0.257374 0
M  V30 2029 H 186.531 3.4734 1.84712 0
M  V30 2030 H 188.546 3.93585 3.02168 0
M  V30 2031 N 187.719 -0.156864 1.56817 0
M  V30 2032 C 188.949 -0.885031 1.86684 0
M  V30 2033 C 189.357 -1.75696 0.701954 0
M  V30 2034 O 188.7 -1.80569 -0.337732 0
M  V30 2035 C 188.762 -1.80092 3.11138 0
M  V30 2036 C 188.426 -1.10714 4.43386 0
M  V30 2037 C 189.423 -0.465714 5.1781 0
M  V30 2038 C 187.108 -1.09959 4.90117 0
M  V30 2039 C 189.102 0.174002 6.37162 0
M  V30 2040 C 186.789 -0.456055 6.09396 0
M  V30 2041 C 187.787 0.179622 6.82764 0
M  V30 2042 O 187.475 0.812975 7.99779 0
M  V30 2043 H 187.207 -0.261813 0.623242 0
M  V30 2044 H 189.761 -0.157383 2.04796 0
M  V30 2045 H 187.991 -2.56926 2.89009 0
M  V30 2046 H 189.68 -2.40018 3.27332 0
M  V30 2047 H 190.446 -0.463427 4.82781 0
M  V30 2048 H 186.325 -1.58378 4.3294 0
M  V30 2049 H 189.869 0.670765 6.94368 0
M  V30 2050 H 185.766 -0.455975 6.43888 0
M  V30 2051 H 186.534 0.71366 8.15383 0
M  V30 2052 N 189.197 -1.51736 -0.425897 0
M  V30 2053 C 190.127 -1.76827 -1.52494 0
M  V30 2054 C 191.108 -0.618524 -1.58456 0
M  V30 2055 O 192.293 -0.862416 -1.74 0
M  V30 2056 C 189.423 -1.90374 -2.90474 0
M  V30 2057 C 188.377 -3.0588 -2.99369 0
M  V30 2058 C 187.703 -3.04625 -4.3944 0
M  V30 2059 C 189.003 -4.45644 -2.72394 0
M  V30 2060 H 190.697 -2.68855 -1.31748 0
M  V30 2061 H 188.243 -1.29372 -0.632362 0
M  V30 2062 H 190.196 -2.0651 -3.6733 0
M  V30 2063 H 188.92 -0.95004 -3.12477 0
M  V30 2064 H 187.579 -2.89467 -2.24954 0
M  V30 2065 H 187.227 -2.0701 -4.58428 0
M  V30 2066 H 186.927 -3.82195 -4.46319 0
M  V30 2067 H 188.451 -3.22869 -5.18255 0
M  V30 2068 H 189.865 -4.62348 -3.38979 0
M  V30 2069 H 188.262 -5.25006 -2.9067 0
M  V30 2070 H 189.332 -4.54893 -1.67929 0
M  V30 2071 N 190.675 0.682077 -1.42076 0
M  V30 2072 C 191.625 1.78823 -1.41444 0
M  V30 2073 C 192.609 1.58323 -0.28681 0
M  V30 2074 O 193.801 1.68926 -0.528498 0
M  V30 2075 C 190.93 3.17232 -1.3122 0
M  V30 2076 C 190.016 3.4338 -2.489 0
M  V30 2077 N 190.407 3.40152 -3.7434 0
M  V30 2078 C 188.705 3.73986 -2.43003 0
M  V30 2079 C 189.406 3.65581 -4.52466 0
M  V30 2080 N 188.382 3.85989 -3.8277 0
M  V30 2081 H 192.184 1.7471 -2.36334 0
M  V30 2082 H 189.698 0.882622 -1.36321 0
M  V30 2083 H 191.695 3.96489 -1.2885 0
M  V30 2084 H 190.355 3.22547 -0.373263 0
M  V30 2085 H 191.366 3.20221 -4.07037 0
M  V30 2086 H 188.043 3.86591 -1.57651 0
M  V30 2087 H 189.433 3.69108 -5.61435 0
M  V30 2088 N 192.153 1.28127 0.917671 0
M  V30 2089 C 193.401 1.14825 1.66312 0
M  V30 2090 C 193.722 -0.304379 1.9261 0
M  V30 2091 O 192.992 -1.21149 1.53947 0
M  V30 2092 H 191.572 0.421953 0.616413 0
M  V30 2093 H 194.234 1.608 1.10134 0
M  V30 2094 H 193.33 1.68489 2.62712 0
M  V30 2095 N 193.631 -1.12557 1.10312 0
M  V30 2096 C 194.578 -2.18247 0.750781 0
M  V30 2097 C 195.548 -1.63853 -0.272293 0
M  V30 2098 O 196.733 -1.90195 -0.151862 0
M  V30 2099 C 193.873 -3.44591 0.187379 0
M  V30 2100 C 192.986 -4.13046 1.2656 0
M  V30 2101 C 192.121 -5.27034 0.663978 0
M  V30 2102 C 191.16 -5.87353 1.72287 0
M  V30 2103 N 190.297 -6.92757 1.1416 0
M  V30 2104 H 195.137 -2.47732 1.65628 0
M  V30 2105 H 192.674 -1.21629 0.827337 0
M  V30 2106 H 194.632 -4.16904 -0.157148 0
M  V30 2107 H 193.262 -3.15527 -0.681355 0
M  V30 2108 H 192.314 -3.38924 1.72727 0
M  V30 2109 H 193.626 -4.53947 2.06721 0
M  V30 2110 H 192.78 -6.06104 0.268824 0
M  V30 2111 H 191.519 -4.87407 -0.169082 0
M  V30 2112 H 190.524 -5.06971 2.12746 0
M  V30 2113 H 191.749 -6.29051 2.55875 0
M  V30 2114 H 189.695 -6.5517 0.329984 0
M  V30 2115 H 189.612 -7.3225 1.88007 0
M  V30 2116 H 190.88 -7.75658 0.772956 0
M  V30 2117 N 195.109 -0.891671 -1.2995 0
M  V30 2118 C 196.357 -0.512486 -1.95494 0
M  V30 2119 C 196.678 0.942776 -1.70695 0
M  V30 2120 O 195.948 1.66374 -1.03424 0
M  V30 2121 H 194.528 -0.186533 -0.723336 0
M  V30 2122 H 197.19 -1.13621 -1.58355 0
M  V30 2123 H 196.286 -0.688342 -3.04415 0
M  V30 2124 N 196.587 1.43421 -0.653314 0
M  V30 2125 C 197.833 2.02111 -0.166992 0
M  V30 2126 C 198.166 1.51423 1.21592 0
M  V30 2127 O 197.441 0.707389 1.8118 0
M  V30 2128 C 197.724 3.5966 -0.177948 0
M  V30 2129 C 197.577 4.20579 -1.59478 0
M  V30 2130 C 198.896 4.37413 0.4856 0
M  V30 2131 H 196.015 0.734374 -0.0621557 0
M  V30 2132 H 198.657 1.70717 -0.834016 0
M  V30 2133 H 196.807 3.86537 0.390032 0
M  V30 2134 H 198.479 4.04732 -2.21336 0
M  V30 2135 H 196.722 3.77226 -2.14204 0
M  V30 2136 H 197.393 5.29665 -1.5543 0
M  V30 2137 H 199.869 4.161 0.00234528 0
M  V30 2138 H 198.745 5.47075 0.447207 0
M  V30 2139 H 199.006 4.13672 1.55974 0
M  V30 2140 N 198.065 0.39524 1.52563 0
M  V30 2141 C 199.314 -0.186321 2.00838 0
M  V30 2142 C 199.627 -1.47402 1.28577 0
M  V30 2143 O 200.833 -2.13599 1.67593 0
M  V30 2144 C 199.289 -0.382595 3.57861 0
M  V30 2145 C 198.897 0.892202 4.39026 0
M  V30 2146 C 200.641 -0.9202 4.14406 0
M  V30 2147 C 198.548 0.66388 5.87662 0
M  V30 2148 H 197.478 -0.0734041 0.750418 0
M  V30 2149 H 200.129 0.518552 1.76021 0
M  V30 2150 H 198.511 -1.14946 3.7895 0
M  V30 2151 H 199.685 1.66414 4.29701 0
M  V30 2152 H 198 1.35519 3.9373 0
M  V30 2153 H 200.597 -1.10683 5.23119 0
M  V30 2154 H 200.94 -1.89096 3.70875 0
M  V30 2155 H 201.473 -0.212751 3.97231 0
M  V30 2156 H 198.212 1.6058 6.35527 0
M  V30 2157 H 197.732 -0.0690193 5.9976 0
M  V30 2158 H 199.411 0.300699 6.46301 0
M  V30 2159 N 199.544 -1.57102 0.125237 0
M  V30 2160 C 200.494 -2.12202 -0.833936 0
M  V30 2161 C 201.478 -1.04433 -1.22403 0
M  V30 2162 O 202.67 -1.30655 -1.19408 0
M  V30 2163 C 199.799 -2.72994 -2.08157 0
M  V30 2164 C 198.885 -3.87852 -1.71556 0
M  V30 2165 N 199.276 -4.9464 -1.05662 0
M  V30 2166 C 197.574 -3.98153 -2.00973 0
M  V30 2167 C 198.275 -5.74953 -0.883376 0
M  V30 2168 N 197.251 -5.24985 -1.41036 0
M  V30 2169 H 201.053 -2.92141 -0.321035 0
M  V30 2170 H 198.567 -1.62217 -0.0770315 0
M  V30 2171 H 200.564 -3.10816 -2.77847 0
M  V30 2172 H 199.224 -1.9452 -2.59985 0
M  V30 2173 H 200.235 -5.12872 -0.719878 0
M  V30 2174 H 196.912 -3.30728 -2.54804 0
M  V30 2175 H 198.302 -6.70904 -0.365675 0
M  V30 2176 N 201.022 0.148545 -1.56898 0
M  V30 2177 C 201.969 1.18345 -1.98149 0
M  V30 2178 C 202.939 1.42772 -0.848848 0
M  V30 2179 O 204.124 1.55132 -1.11079 0
M  V30 2180 C 201.264 2.51231 -2.36594 0
M  V30 2181 C 200.377 2.33991 -3.63142 0
M  V30 2182 C 199.512 3.59902 -3.90697 0
M  V30 2183 C 198.551 3.37692 -5.1052 0
M  V30 2184 N 197.688 4.5573 -5.34092 0
M  V30 2185 H 202.528 0.82467 -2.86362 0
M  V30 2186 H 200.065 0.395756 -1.41676 0
M  V30 2187 H 202.023 3.28713 -2.56912 0
M  V30 2188 H 200.653 2.85059 -1.51463 0
M  V30 2189 H 199.705 1.47572 -3.50609 0
M  V30 2190 H 201.017 2.13539 -4.5078 0
M  V30 2191 H 200.171 4.45813 -4.11505 0
M  V30 2192 H 198.91 3.83357 -3.01477 0
M  V30 2193 H 197.915 2.5017 -4.89587 0
M  V30 2194 H 199.14 3.15637 -6.0129 0
M  V30 2195 H 197.086 4.79361 -4.47827 0
M  V30 2196 H 197.003 4.38274 -6.15996 0
M  V30 2197 H 198.271 5.42858 -5.59397 0
M  V30 2198 N 202.5 1.5196 0.417844 0
M  V30 2199 C 203.777 1.56146 1.17803 0
M  V30 2200 C 204.157 0.337275 2.08388 0
M  V30 2201 O 203.505 -0.676447 2.18258 0
M  V30 2202 C 203.715 2.88566 1.96293 0
M  V30 2203 C 205.063 3.41244 2.52662 0
M  V30 2204 O 206.087 2.90247 2.06483 0
M  V30 2205 O 204.946 4.30273 3.36938 0
M  V30 2206 H 202.04 0.628598 0.537395 0
M  V30 2207 H 204.586 1.64283 0.425331 0
M  V30 2208 H 203.358 3.69116 1.2988 0
M  V30 2209 H 202.981 2.83681 2.78587 0
M  V30 2210 N 203.978 -0.674533 1.42435 0
M  V30 2211 C 204.908 -1.80009 1.48724 0
M  V30 2212 C 205.889 -1.6659 0.343793 0
M  V30 2213 O 207.074 -1.86007 0.558137 0
M  V30 2214 C 204.204 -3.18306 1.38919 0
M  V30 2215 C 203.158 -3.46461 2.51294 0
M  V30 2216 C 202.484 -4.84335 2.26547 0
M  V30 2217 C 203.784 -3.43328 3.93603 0
M  V30 2218 H 205.478 -1.75004 2.42928 0
M  V30 2219 H 203.024 -0.840533 1.16923 0
M  V30 2220 H 204.977 -3.9678 1.41927 0
M  V30 2221 H 203.701 -3.2399 0.412094 0
M  V30 2222 H 202.36 -2.70348 2.47604 0
M  V30 2223 H 202.008 -4.86669 1.2713 0
M  V30 2224 H 201.708 -5.04136 3.01861 0
M  V30 2225 H 203.232 -5.65094 2.31304 0
M  V30 2226 H 204.646 -4.11772 3.98894 0
M  V30 2227 H 203.043 -3.74664 4.68771 0
M  V30 2228 H 204.113 -2.41897 4.20255 0
M  V30 2229 N 205.456 -1.28612 -0.910864 0
M  V30 2230 C 206.403 -1.12786 -2.01365 0
M  V30 2231 C 207.373 -0.024201 -1.66082 0
M  V30 2232 O 208.558 -0.189667 -1.89855 0
M  V30 2233 C 205.698 -0.798743 -3.35729 0
M  V30 2234 C 204.811 -1.98173 -3.83864 0
M  V30 2235 C 203.946 -1.59298 -5.06752 0
M  V30 2236 C 202.985 -2.74245 -5.47226 0
M  V30 2237 N 202.122 -2.35842 -6.61304 0
M  V30 2238 H 206.962 -2.07142 -2.14234 0
M  V30 2239 H 204.499 -1.03093 -1.0493 0
M  V30 2240 H 206.457 -0.588662 -4.13026 0
M  V30 2241 H 205.087 0.10789 -3.2262 0
M  V30 2242 H 204.139 -2.30386 -3.02699 0
M  V30 2243 H 205.451 -2.84343 -4.09818 0
M  V30 2244 H 204.605 -1.34513 -5.916 0
M  V30 2245 H 203.344 -0.702618 -4.82612 0
M  V30 2246 H 202.349 -2.99725 -4.60918 0
M  V30 2247 H 203.574 -3.63928 -5.73353 0
M  V30 2248 H 201.52 -1.49279 -6.38789 0
M  V30 2249 H 201.437 -3.15546 -6.86998 0
M  V30 2250 H 202.705 -2.14348 -7.4945 0
M  V30 2251 N 206.934 1.1197 -1.10907 0
M  V30 2252 C 208.345 1.65114 -0.871446 0
M  V30 2253 C 208.696 1.86885 0.597353 0
M  V30 2254 O 207.821 1.59896 1.45816 0
M  V30 2255 C 208.416 2.99944 -1.5754 0
M  V30 2256 C 206.975 3.50018 -1.38435 0
M  V30 2257 C 206.122 2.24941 -1.62164 0
M  V30 2258 H 209.073 0.956851 -1.2661 0
M  V30 2259 H 209.094 3.66651 -1.01721 0
M  V30 2260 H 208.606 2.84067 -2.64438 0
M  V30 2261 H 206.707 3.71071 -0.337214 0
M  V30 2262 H 206.82 4.29165 -2.12965 0
M  V30 2263 H 205.184 2.3229 -1.04467 0
M  V30 2264 H 205.967 2.11612 -2.70324 0
M  V30 2265 N 208.412 0.89855 1.29475 0
M  V30 2266 C 209.322 0.379974 2.31502 0
M  V30 2267 C 210.338 -0.524695 1.659 0
M  V30 2268 O 211.514 -0.414551 1.97087 0
M  V30 2269 C 208.579 -0.385138 3.44554 0
M  V30 2270 C 207.64 0.550914 4.2575 0
M  V30 2271 C 206.873 -0.177778 5.33404 0
M  V30 2272 O 207.096 -1.40189 5.52904 0
M  V30 2273 O 206.03 0.479106 5.9999 0
M  V30 2274 H 209.856 1.22639 2.77837 0
M  V30 2275 H 207.441 0.662834 1.33891 0
M  V30 2276 H 209.323 -0.817841 4.13388 0
M  V30 2277 H 207.998 -1.20763 3.0033 0
M  V30 2278 H 206.905 1.03271 3.59564 0
M  V30 2279 H 208.238 1.33979 4.73614 0
M  V30 2280 N 209.89 -1.43072 0.660911 0
M  V30 2281 C 210.838 -2.32569 -0.0378199 0
M  V30 2282 C 211.832 -1.49046 -0.805092 0
M  V30 2283 O 213.038 -1.65206 -0.714624 0
M  V30 2284 H 209.413 -0.75136 -0.031019 0
M  V30 2285 H 211.384 -2.89216 0.734609 0
M  V30 2286 C 210.133 -3.33453 -0.985124 0
M  V30 2287 H 209.456 -3.97752 -0.404147 0
M  V30 2288 H 210.896 -3.98691 -1.44297 0
M  V30 2289 C 209.355 -2.64642 -2.08486 0
M  V30 2290 O 209.885 -2.46776 -3.16961 0
M  V30 2291 N 208.091 -2.23891 -1.8526 0
M  V30 2292 H 207.638 -2.38621 -0.970449 0
M  V30 2293 H 207.596 -1.78181 -2.59034 0
M  V30 2294 N 211.368 -0.403325 -1.52352 0
M  V30 2295 C 212.617 0.175668 -2.00934 0
M  V30 2296 C 212.93 1.46718 -1.29356 0
M  V30 2297 O 214.136 2.12708 -1.68724 0
M  V30 2298 C 212.592 0.363612 -3.58058 0
M  V30 2299 C 212.2 -0.915472 -4.38547 0
M  V30 2300 C 213.944 0.89821 -4.14888 0
M  V30 2301 C 211.851 -0.695035 -5.87302 0
M  V30 2302 H 210.781 0.0694234 -0.750797 0
M  V30 2303 H 213.432 -0.527879 -1.75743 0
M  V30 2304 H 211.814 1.12935 -3.79555 0
M  V30 2305 H 212.988 -1.68691 -4.28812 0
M  V30 2306 H 211.303 -1.37606 -3.93006 0
M  V30 2307 H 213.9 1.07907 -5.23699 0
M  V30 2308 H 214.243 1.87126 -3.71873 0
M  V30 2309 H 214.776 0.191681 -3.97338 0
M  V30 2310 H 211.515 -1.63948 -6.34666 0
M  V30 2311 H 211.035 0.0372116 -5.99788 0
M  V30 2312 H 212.714 -0.33497 -6.46132 0
M  V30 2313 N 212.846 1.57033 -0.133567 0
M  V30 2314 C 213.776 2.1909 0.807567 0
M  V30 2315 C 214.757 1.13517 1.26681 0
M  V30 2316 O 215.942 1.41809 1.32679 0
M  V30 2317 C 213.072 2.80188 2.05212 0
M  V30 2318 C 212.026 3.91471 1.73015 0
M  V30 2319 C 211.352 4.39443 3.04622 0
M  V30 2320 C 212.652 5.12886 0.987168 0
M  V30 2321 H 214.346 2.97988 0.290403 0
M  V30 2322 H 211.892 1.43335 0.138239 0
M  V30 2323 H 213.845 3.22264 2.71521 0
M  V30 2324 H 212.569 1.98601 2.59278 0
M  V30 2325 H 211.228 3.49993 1.0909 0
M  V30 2326 H 210.876 3.54695 3.56651 0
M  V30 2327 H 210.576 5.14495 2.83847 0
M  V30 2328 H 212.1 4.8418 3.72024 0
M  V30 2329 H 213.514 5.51891 1.55208 0
M  V30 2330 H 211.911 5.93615 0.87985 0
M  V30 2331 H 212.981 4.84894 -0.0235286 0
M  V30 2332 N 214.325 -0.140222 1.56975 0
M  V30 2333 C 215.571 -0.852949 1.83991 0
M  V30 2334 C 215.904 -1.80512 0.716187 0
M  V30 2335 O 215.179 -1.92479 -0.279681 0
M  V30 2336 C 215.462 -1.6215 3.21527 0
M  V30 2337 C 215.315 -0.690363 4.4447 0
M  V30 2338 C 216.634 -2.58247 3.56366 0
M  V30 2339 H 213.753 -0.308634 0.669264 0
M  V30 2340 H 216.395 -0.117898 1.89634 0
M  V30 2341 H 214.545 -2.24812 3.16847 0
M  V30 2342 H 216.217 -0.0742264 4.6124 0
M  V30 2343 H 214.46 -0.000396433 4.338 0
M  V30 2344 H 215.131 -1.2643 5.37326 0
M  V30 2345 H 217.607 -2.05701 3.61699 0
M  V30 2346 H 216.483 -3.09067 4.53617 0
M  V30 2347 H 216.744 -3.39923 2.82674 0
M  V30 2348 N 215.803 -1.52179 -0.40978 0
M  V30 2349 C 217.08 -1.56769 -1.16974 0
M  V30 2350 C 217.46 -0.348322 -2.08206 0
M  V30 2351 O 216.808 0.664862 -2.18613 0
M  V30 2352 C 217.018 -2.89603 -1.9476 0
M  V30 2353 C 218.366 -3.42579 -2.50849 0
M  V30 2354 O 219.39 -2.91338 -2.04941 0
M  V30 2355 O 218.249 -4.32054 -3.34652 0
M  V30 2356 H 215.343 -0.631439 -0.534054 0
M  V30 2357 H 217.889 -1.64507 -0.416613 0
M  V30 2358 H 216.661 -3.698 -1.27921 0
M  V30 2359 H 216.284 -2.85155 -2.77079 0
M  V30 2360 N 217.281 0.66697 -1.42791 0
M  V30 2361 C 218.229 1.80157 -1.47127 0
M  V30 2362 C 219.223 1.65825 -0.346199 0
M  V30 2363 O 220.429 1.72338 -0.519572 0
M  V30 2364 H 216.804 0.594158 -0.460956 0
M  V30 2365 H 218.775 1.73619 -2.42692 0
M  V30 2366 C 217.524 3.18351 -1.39813 0
M  V30 2367 H 216.847 3.3001 -2.25684 0
M  V30 2368 H 218.287 3.97736 -1.46908 0
M  V30 2369 C 216.746 3.36707 -0.11391 0
M  V30 2370 O 217.276 3.93027 0.830241 0
M  V30 2371 N 215.482 2.90586 -0.0285295 0
M  V30 2372 H 215.029 2.4494 -0.79764 0
M  V30 2373 H 214.987 3.03245 0.830063 0
M  V30 2374 N 218.759 1.29093 0.90403 0
M  V30 2375 C 220.036 1.075 1.63411 0
M  V30 2376 C 220.416 -0.382346 2.07609 0
M  V30 2377 O 219.764 -1.37031 1.82851 0
M  V30 2378 C 219.974 2.05858 2.81822 0
M  V30 2379 C 221.322 2.36539 3.52611 0
M  V30 2380 O 222.346 2.04019 2.91984 0
M  V30 2381 O 221.205 2.92085 4.61897 0
M  V30 2382 H 218.299 0.411547 0.717327 0
M  V30 2383 H 220.845 1.40449 0.952479 0
M  V30 2384 H 219.617 3.04037 2.46327 0
M  V30 2385 H 219.24 1.73613 3.57693 0
M  V30 2386 N 220.237 -1.11381 1.11499 0
M  V30 2387 C 221.484 -1.83132 0.864231 0
M  V30 2388 C 221.812 -1.84683 -0.610114 0
M  V30 2389 O 221.067 -1.29589 -1.46646 0
M  V30 2390 C 221.366 -3.30026 1.37177 0
M  V30 2391 C 221.032 -3.48634 2.85946 0
M  V30 2392 C 219.694 -3.53421 3.26569 0
M  V30 2393 C 222.046 -3.54837 3.81759 0
M  V30 2394 C 219.374 -3.61967 4.61733 0
M  V30 2395 C 221.726 -3.64915 5.1674 0
M  V30 2396 C 220.39 -3.67962 5.5692 0
M  V30 2397 H 219.66 -0.670127 0.316245 0
M  V30 2398 H 222.307 -1.31354 1.3935 0
M  V30 2399 H 220.612 -3.84304 0.762753 0
M  V30 2400 H 222.309 -3.84034 1.15408 0
M  V30 2401 H 218.899 -3.45579 2.53521 0
M  V30 2402 H 223.083 -3.50399 3.51474 0
M  V30 2403 H 218.339 -3.62603 4.92269 0
M  V30 2404 H 222.513 -3.68658 5.90816 0
M  V30 2405 H 220.14 -3.74336 6.61647 0
M  V30 2406 N 221.715 -0.905404 -1.28997 0
M  V30 2407 C 222.665 -0.358713 -2.25161 0
M  V30 2408 C 223.649 0.524449 -1.52113 0
M  V30 2409 O 224.841 0.365534 -1.73184 0
M  V30 2410 C 221.97 0.407609 -3.40872 0
M  V30 2411 C 221.056 -0.490797 -4.21251 0
M  V30 2412 N 221.447 -1.60061 -4.79806 0
M  V30 2413 C 219.745 -0.289636 -4.45059 0
M  V30 2414 C 220.446 -2.15757 -5.40207 0
M  V30 2415 N 219.422 -1.44988 -5.23908 0
M  V30 2416 H 223.224 -1.20642 -2.67998 0
M  V30 2417 H 220.738 -0.757103 -1.43672 0
M  V30 2418 H 222.735 0.816046 -4.08835 0
M  V30 2419 H 221.395 1.25251 -2.9957 0
M  V30 2420 H 222.406 -1.98329 -4.7842 0
M  V30 2421 H 219.083 0.51643 -4.14294 0
M  V30 2422 H 220.473 -3.09069 -5.96595 0
M  V30 2423 N 223.193 1.4272 -0.668489 0
M  V30 2424 C 224.442 2.00846 -0.185389 0
M  V30 2425 C 224.755 1.53442 1.21305 0
M  V30 2426 O 225.961 2.03944 1.79218 0
M  V30 2427 C 224.417 3.58805 -0.280591 0
M  V30 2428 C 224.025 4.15198 -1.68268 0
M  V30 2429 C 225.769 4.24255 0.14412 0
M  V30 2430 C 223.676 5.655 -1.73099 0
M  V30 2431 H 222.606 0.751145 -0.0655475 0
M  V30 2432 H 225.257 1.63516 -0.832752 0
M  V30 2433 H 223.639 3.93608 0.434553 0
M  V30 2434 H 224.813 3.91866 -2.42441 0
M  V30 2435 H 223.128 3.62176 -2.05469 0
M  V30 2436 H 225.725 5.34547 0.128086 0
M  V30 2437 H 226.068 3.99277 1.17827 0
M  V30 2438 H 226.601 3.94389 -0.519798 0
M  V30 2439 H 223.34 5.95268 -2.74475 0
M  V30 2440 H 222.86 5.90842 -1.03274 0
M  V30 2441 H 224.539 6.29808 -1.48158 0
M  V30 2442 N 224.671 0.411399 1.52136 0
M  V30 2443 C 225.618 -0.412975 2.27075 0
M  V30 2444 C 226.588 -1.03912 1.29582 0
M  V30 2445 O 227.773 -1.06296 1.58448 0
M  V30 2446 C 224.913 -1.52247 3.09701 0
M  V30 2447 C 224.026 -0.917021 4.22155 0
M  V30 2448 C 223.161 -1.9994 4.92135 0
M  V30 2449 C 222.2 -1.37101 5.96548 0
M  V30 2450 N 221.337 -2.39364 6.60038 0
M  V30 2451 H 226.177 0.232499 2.97092 0
M  V30 2452 H 223.714 0.126496 1.46555 0
M  V30 2453 H 225.672 -2.17674 3.55913 0
M  V30 2454 H 224.302 -2.13794 2.41851 0
M  V30 2455 H 223.354 -0.151742 3.80097 0
M  V30 2456 H 224.666 -0.418006 4.97045 0
M  V30 2457 H 223.82 -2.73088 5.41763 0
M  V30 2458 H 222.559 -2.53208 4.16818 0
M  V30 2459 H 221.564 -0.624873 5.46237 0
M  V30 2460 H 222.789 -0.845998 6.7381 0
M  V30 2461 H 220.735 -2.91759 5.87548 0
M  V30 2462 H 220.652 -1.9428 7.3061 0
M  V30 2463 H 221.92 -3.12074 7.14304 0
M  V30 2464 N 226.149 -1.5696 0.141893 0
M  V30 2465 C 227.398 -1.95135 -0.510427 0
M  V30 2466 C 227.711 -1.02896 -1.66348 0
M  V30 2467 O 228.917 -1.30629 -2.38009 0
M  V30 2468 C 227.373 -3.46876 -0.959427 0
M  V30 2469 C 226.981 -4.47691 0.166419 0
M  V30 2470 C 228.725 -3.93927 -1.58183 0
M  V30 2471 C 226.632 -5.90636 -0.300565 0
M  V30 2472 H 225.562 -0.728494 -0.194454 0
M  V30 2473 H 228.213 -1.8211 0.22542 0
M  V30 2474 H 226.595 -3.55215 -1.75038 0
M  V30 2475 H 227.769 -4.51043 0.94325 0
M  V30 2476 H 226.084 -4.10527 0.696905 0
M  V30 2477 H 228.681 -4.98158 -1.94275 0
M  V30 2478 H 229.024 -3.3519 -2.46888 0
M  V30 2479 H 229.557 -3.88484 -0.855863 0
M  V30 2480 H 226.296 -6.5318 0.550989 0
M  V30 2481 H 225.816 -5.90655 -1.04338 0
M  V30 2482 H 227.495 -6.42588 -0.754265 0
M  V30 2483 N 227.627 0.131896 -1.57047 0
M  V30 2484 C 228.59 1.14638 -1.98471 0
M  V30 2485 C 229.59 1.35029 -0.873148 0
M  V30 2486 O 230.78 1.31764 -1.13946 0
M  V30 2487 C 227.912 2.50358 -2.31373 0
M  V30 2488 H 229.105 0.79064 -2.8929 0
M  V30 2489 H 226.658 0.375761 -1.51716 0
M  V30 2490 H 227.393 2.90876 -1.43393 0
M  V30 2491 H 227.178 2.36915 -3.12432 0
M  V30 2492 H 228.668 3.23395 -2.64207 0
M  V30 2493 N 229.106 1.52395 0.401703 0
M  V30 2494 C 230.383 1.57387 1.16141 0
M  V30 2495 C 230.763 0.359359 2.08019 0
M  V30 2496 O 230.111 -0.65326 2.18963 0
M  V30 2497 C 230.321 2.90631 1.93221 0
M  V30 2498 C 231.669 3.43904 2.49028 0
M  V30 2499 O 232.693 2.92421 2.03393 0
M  V30 2500 O 231.552 4.33823 3.32356 0
M  V30 2501 H 228.646 0.634262 0.530698 0
M  V30 2502 H 231.192 1.64725 0.407883 0
M  V30 2503 H 229.964 3.70473 1.25958 0
M  V30 2504 H 229.587 2.8662 2.75563 0
M  V30 2505 N 230.584 -0.659388 1.43143 0
M  V30 2506 C 231.514 -1.78422 1.50625 0
M  V30 2507 C 232.495 -1.66216 0.361443 0
M  V30 2508 O 233.68 -1.85404 0.577834 0
M  V30 2509 C 230.81 -3.16815 1.42287 0
M  V30 2510 C 229.764 -3.43777 2.54954 0
M  V30 2511 C 229.09 -4.81905 2.31671 0
M  V30 2512 C 230.39 -3.39134 3.97222 0
M  V30 2513 H 232.084 -1.72417 2.44771 0
M  V30 2514 H 229.63 -0.828084 1.17808 0
M  V30 2515 H 231.583 -3.95253 1.46127 0
M  V30 2516 H 230.307 -3.23534 0.446435 0
M  V30 2517 H 228.966 -2.67707 2.50457 0
M  V30 2518 H 228.614 -4.85294 1.32284 0
M  V30 2519 H 228.314 -5.00906 3.07192 0
M  V30 2520 H 229.838 -5.62609 2.37284 0
M  V30 2521 H 231.252 -4.07518 4.03239 0
M  V30 2522 H 229.649 -3.69671 4.72719 0
M  V30 2523 H 230.719 -2.37426 4.22797 0
M  V30 2524 N 232.062 -1.29571 -0.897171 0
M  V30 2525 C 233.31 -1.17456 -1.64464 0
M  V30 2526 C 233.631 0.273698 -1.9307 0
M  V30 2527 O 232.901 1.18684 -1.55855 0
M  V30 2528 H 231.481 -0.431706 -0.609622 0
M  V30 2529 H 234.143 -1.62531 -1.07562 0
M  V30 2530 H 233.239 -1.72648 -2.59998 0
M  V30 2531 N 233.54 1.10788 -1.12088 0
M  V30 2532 C 234.47 2.19083 -0.807755 0
M  V30 2533 C 235.451 1.6858 0.226859 0
M  V30 2534 O 236.636 1.93997 0.0888475 0
M  V30 2535 C 233.766 3.46344 -0.257576 0
M  V30 2536 C 232.72 4.101 -1.22483 0
M  V30 2537 C 232.046 5.32016 -0.535052 0
M  V30 2538 C 233.346 4.54236 -2.57811 0
M  V30 2539 H 235.04 2.45534 -1.71328 0
M  V30 2540 H 232.586 1.1801 -0.825205 0
M  V30 2541 H 234.539 4.21392 -0.0262679 0
M  V30 2542 H 233.263 3.19373 0.683278 0
M  V30 2543 H 231.922 3.37054 -1.44189 0
M  V30 2544 H 231.57 5.01319 0.410827 0
M  V30 2545 H 231.27 5.75625 -1.18024 0
M  V30 2546 H 232.794 6.09799 -0.312695 0
M  V30 2547 H 234.208 5.20575 -2.40155 0
M  V30 2548 H 232.605 5.08682 -3.18375 0
M  V30 2549 H 233.675 3.6734 -3.16528 0
M  V30 2550 N 235.018 0.912232 1.28515 0
M  V30 2551 C 235.981 0.404223 2.25607 0
M  V30 2552 C 236.981 -0.468602 1.53821 0
M  V30 2553 O 238.171 -0.271873 1.72065 0
M  V30 2554 C 235.303 -0.420653 3.38295 0
M  V30 2555 H 236.496 1.26188 2.7206 0
M  V30 2556 H 234.049 0.691495 1.40171 0
M  V30 2557 H 234.784 -1.29777 2.97201 0
M  V30 2558 H 234.569 0.204935 3.91564 0
M  V30 2559 H 236.059 -0.766971 4.10496 0
M  V30 2560 N 236.496 -1.42363 0.676048 0
M  V30 2561 C 237.721 -2.06377 0.205705 0
M  V30 2562 C 238.146 -1.50463 -1.12883 0
M  V30 2563 O 237.504 -0.623619 -1.70237 0
M  V30 2564 C 237.552 -3.60277 0.152655 0
M  V30 2565 O 236.656 -4.02935 -0.87845 0
M  V30 2566 H 235.997 -0.655588 0.105359 0
M  V30 2567 H 238.527 -1.82475 0.925412 0
M  V30 2568 H 238.537 -4.07993 -0.0230675 0
M  V30 2569 H 237.212 -4.00346 1.12675 0
M  V30 2570 H 235.789 -3.66764 -0.673668 0
M  V30 2571 N 237.974 -0.419461 -1.51915 0
M  V30 2572 C 239.221 0.152939 -2.01922 0
M  V30 2573 C 239.549 1.4426 -1.30458 0
M  V30 2574 O 238.804 1.91514 -0.402593 0
M  V30 2575 C 239.103 0.437067 -3.54717 0
M  V30 2576 C 238.769 -0.764632 -4.44369 0
M  V30 2577 C 237.431 -1.09423 -4.68594 0
M  V30 2578 C 239.783 -1.56713 -4.97082 0
M  V30 2579 C 237.111 -2.22732 -5.42777 0
M  V30 2580 C 239.463 -2.69107 -5.72507 0
M  V30 2581 C 238.127 -3.02541 -5.95 0
M  V30 2582 H 237.397 0.0559644 -0.738884 0
M  V30 2583 H 240.044 -0.562998 -1.83037 0
M  V30 2584 H 238.349 1.23469 -3.71837 0
M  V30 2585 H 240.046 0.893083 -3.90928 0
M  V30 2586 H 236.636 -0.497775 -4.257 0
M  V30 2587 H 240.82 -1.32571 -4.78266 0
M  V30 2588 H 236.076 -2.48971 -5.58411 0
M  V30 2589 H 240.25 -3.31671 -6.12346 0
M  V30 2590 H 237.877 -3.90457 -6.52264 0
M  V30 2591 N 239.452 1.56882 -0.150215 0
M  V30 2592 C 240.399 2.16922 0.788244 0
M  V30 2593 C 241.369 1.10303 1.24187 0
M  V30 2594 O 242.554 1.38359 1.31383 0
M  V30 2595 C 239.694 2.79754 2.02068 0
M  V30 2596 C 238.807 4.00775 1.61257 0
M  V30 2597 C 237.942 4.51595 2.79705 0
M  V30 2598 C 236.981 5.65074 2.35282 0
M  V30 2599 N 236.118 6.10499 3.4675 0
M  V30 2600 H 240.958 2.96779 0.269444 0
M  V30 2601 H 238.495 1.46599 0.12128 0
M  V30 2602 H 240.453 3.14329 2.74323 0
M  V30 2603 H 239.083 2.02536 2.51354 0
M  V30 2604 H 238.135 3.72158 0.787553 0
M  V30 2605 H 239.447 4.82978 1.24633 0
M  V30 2606 H 238.601 4.88242 3.60145 0
M  V30 2607 H 237.34 3.68406 3.19576 0
M  V30 2608 H 236.345 5.28 1.53283 0
M  V30 2609 H 237.57 6.50052 1.96493 0
M  V30 2610 H 235.516 5.30243 3.86236 0
M  V30 2611 H 235.433 6.87637 3.14152 0
M  V30 2612 H 236.701 6.51791 4.27537 0
M  V30 2613 N 240.93 -0.123565 1.57115 0
M  V30 2614 C 241.863 -1.18202 1.95201 0
M  V30 2615 C 242.841 -1.40349 0.821031 0
M  V30 2616 O 244.025 -1.54578 1.07879 0
M  V30 2617 C 241.152 -2.53671 2.24429 0
M  V30 2618 C 240.198 -2.4798 3.46999 0
M  V30 2619 S 241.031 -1.92389 4.99747 0
M  V30 2620 C 242.187 -3.2954 5.32123 0
M  V30 2621 H 242.42 -0.857212 2.84674 0
M  V30 2622 H 239.953 -0.33014 1.50829 0
M  V30 2623 H 241.911 -3.3162 2.41947 0
M  V30 2624 H 240.572 -2.83332 1.35579 0
M  V30 2625 H 239.765 -3.47758 3.64801 0
M  V30 2626 H 239.367 -1.7815 3.28844 0
M  V30 2627 H 241.659 -4.25736 5.27025 0
M  V30 2628 H 242.602 -3.16569 6.33395 0
M  V30 2629 H 243.01 -3.27758 4.59603 0
M  V30 2630 N 242.408 -1.52605 -0.393616 0
M  V30 2631 C 243.654 -1.68624 -1.13743 0
M  V30 2632 C 244.009 -0.418687 -1.87789 0
M  V30 2633 O 243.302 0.58747 -1.82371 0
M  V30 2634 C 243.496 -2.85721 -2.14705 0
M  V30 2635 C 243.325 -4.23742 -1.50575 0
M  V30 2636 C 242.095 -4.89033 -1.2718 0
M  V30 2637 C 244.293 -5.05293 -0.958311 0
M  V30 2638 N 242.275 -6.11048 -0.591058 0
M  V30 2639 C 243.646 -6.18673 -0.405367 0
M  V30 2640 C 245.701 -4.90517 -0.854274 0
M  V30 2641 C 244.404 -7.18895 0.241434 0
M  V30 2642 C 246.43 -5.90986 -0.221301 0
M  V30 2643 C 245.792 -7.03669 0.320894 0
M  V30 2644 H 241.891 -0.670556 -0.402342 0
M  V30 2645 H 244.475 -1.89946 -0.427607 0
M  V30 2646 H 242.646 -2.65987 -2.83029 0
M  V30 2647 H 244.378 -2.90699 -2.8156 0
M  V30 2648 H 241.133 -4.47672 -1.54554 0
M  V30 2649 H 241.557 -6.76474 -0.266862 0
M  V30 2650 H 246.199 -4.03612 -1.25926 0
M  V30 2651 H 243.917 -8.05413 0.658448 0
M  V30 2652 H 247.503 -5.81626 -0.142111 0
M  V30 2653 H 246.383 -7.80078 0.802956 0
M  V30 2654 N 243.887 0.651787 -1.4349 0
M  V30 2655 C 245.112 1.44434 -1.48841 0
M  V30 2656 C 245.537 1.8779 -0.107955 0
M  V30 2657 O 244.895 1.57464 0.898602 0
M  V30 2658 C 244.943 2.65458 -2.44059 0
M  V30 2659 O 244.047 3.64566 -1.92784 0
M  V30 2660 H 243.388 0.433005 -0.503391 0
M  V30 2661 H 245.918 0.797451 -1.88419 0
M  V30 2662 H 245.928 3.13255 -2.6141 0
M  V30 2663 H 244.603 2.33244 -3.4434 0
M  V30 2664 H 243.18 3.23716 -1.851 0
M  V30 2665 N 245.365 1.30045 0.890287 0
M  V30 2666 C 246.312 1.15976 1.99545 0
M  V30 2667 C 247.282 0.0506202 1.66023 0
M  V30 2668 O 248.467 0.219847 1.89529 0
M  V30 2669 C 245.607 0.852054 3.34416 0
M  V30 2670 C 244.72 2.04255 3.80662 0
M  V30 2671 C 243.855 1.6734 5.04154 0
M  V30 2672 C 242.894 2.82916 5.42794 0
M  V30 2673 N 242.031 2.46333 6.57468 0
M  V30 2674 H 246.871 2.10524 2.10911 0
M  V30 2675 H 244.408 1.04749 1.03276 0
M  V30 2676 H 246.366 0.654296 4.12037 0
M  V30 2677 H 244.996 -0.0565502 3.2275 0
M  V30 2678 H 244.048 2.35172 2.98995 0
M  V30 2679 H 245.36 2.90826 4.05242 0
M  V30 2680 H 244.514 1.43908 5.89386 0
M  V30 2681 H 243.253 0.779308 4.81433 0
M  V30 2682 H 242.258 3.0702 4.56091 0
M  V30 2683 H 243.483 3.73004 5.6749 0
M  V30 2684 H 241.429 1.59423 6.36334 0
M  V30 2685 H 241.346 3.26436 6.81891 0
M  V30 2686 H 242.614 2.26244 7.45945 0
M  V30 2687 N 246.843 -1.10192 1.12674 0
M  V30 2688 C 247.773 -2.18652 0.819362 0
M  V30 2689 C 248.754 -1.68698 -0.217915 0
M  V30 2690 O 249.939 -1.94041 -0.0785581 0
M  V30 2691 C 247.069 -3.46202 0.27594 0
M  V30 2692 C 246.023 -4.09444 1.24656 0
M  V30 2693 C 245.349 -5.31725 0.563258 0
M  V30 2694 C 246.649 -4.52863 2.60217 0
M  V30 2695 H 248.343 -2.44622 1.72628 0
M  V30 2696 H 245.889 -1.17571 0.831451 0
M  V30 2697 H 247.842 -4.21372 0.0486149 0
M  V30 2698 H 246.566 -3.1973 -0.666331 0
M  V30 2699 H 245.225 -3.36284 1.45974 0
M  V30 2700 H 244.873 -5.0153 -0.384235 0
M  V30 2701 H 244.573 -5.74991 1.21075 0
M  V30 2702 H 246.097 -6.09624 0.34503 0
M  V30 2703 H 247.511 -5.19294 2.42913 0
M  V30 2704 H 245.908 -5.06986 3.21068 0
M  V30 2705 H 246.978 -3.65656 3.18471 0
M  V30 2706 N 248.321 -0.919034 -1.28029 0
M  V30 2707 C 249.269 -0.401753 -2.29104 0
M  V30 2708 C 250.263 0.509354 -1.61561 0
M  V30 2709 O 251.469 0.390014 -1.75724 0
M  V30 2710 H 247.844 -0.111331 -0.743713 0
M  V30 2711 H 249.815 -1.2672 -2.70156 0
M  V30 2712 C 248.564 0.338148 -3.46052 0
M  V30 2713 H 247.887 -0.353732 -3.98232 0
M  V30 2714 H 249.327 0.664653 -4.18758 0
M  V30 2715 C 247.786 1.54798 -2.99231 0
M  V30 2716 O 248.316 2.64696 -3.02157 0
M  V30 2717 N 246.522 1.3968 -2.54829 0
M  V30 2718 H 246.069 0.502698 -2.52647 0
M  V30 2719 H 246.027 2.20755 -2.23863 0
M  V30 2720 N 249.799 1.42003 -0.683588 0
M  V30 2721 C 250.747 2.326 0.000815408 0
M  V30 2722 C 251.741 1.50308 0.781278 0
M  V30 2723 O 252.947 1.66322 0.688251 0
M  V30 2724 H 249.322 0.751758 0.0190616 0
M  V30 2725 H 251.293 2.88011 -0.780528 0
M  V30 2726 C 250.042 3.34978 0.93195 0
M  V30 2727 H 249.365 3.98345 0.340817 0
M  V30 2728 H 250.805 4.00936 1.37936 0
M  V30 2729 C 249.264 2.67925 2.04249 0
M  V30 2730 O 249.794 2.51788 3.12995 0
M  V30 2731 N 248 2.2681 1.81675 0
M  V30 2732 H 247.547 2.40135 0.932363 0
M  V30 2733 H 247.505 1.8228 2.56167 0
M  V30 2734 N 251.277 0.427512 1.51691 0
M  V30 2735 C 252.187 -0.39527 2.31246 0
M  V30 2736 C 253.203 -1.03674 1.39742 0
M  V30 2737 O 254.379 -1.03425 1.72816 0
M  V30 2738 C 251.444 -1.48706 3.13189 0
M  V30 2739 C 250.505 -0.866743 4.20459 0
M  V30 2740 C 249.738 -1.90651 4.98486 0
M  V30 2741 O 249.961 -3.12733 4.77026 0
M  V30 2742 O 248.895 -1.5025 5.82845 0
M  V30 2743 H 252.721 0.253918 3.02637 0
M  V30 2744 H 250.306 0.190274 1.48183 0
M  V30 2745 H 252.188 -2.12047 3.64162 0
M  V30 2746 H 250.863 -2.12051 2.44573 0
M  V30 2747 H 249.77 -0.195544 3.73589 0
M  V30 2748 H 251.103 -0.276934 4.9142 0
M  V30 2749 N 252.755 -1.56801 0.158532 0
M  V30 2750 C 253.665 -2.20916 -0.789518 0
M  V30 2751 C 254.681 -1.1969 -1.26294 0
M  V30 2752 O 255.857 -1.52308 -1.31773 0
M  V30 2753 C 252.922 -2.82727 -2.00665 0
M  V30 2754 C 251.983 -3.99114 -1.58134 0
M  V30 2755 C 251.216 -4.57968 -2.74045 0
M  V30 2756 O 251.439 -4.15704 -3.90572 0
M  V30 2757 O 250.373 -5.48047 -2.48855 0
M  V30 2758 H 254.199 -3.02464 -0.273681 0
M  V30 2759 H 251.784 -1.4924 -0.0690548 0
M  V30 2760 H 253.666 -3.21968 -2.71872 0
M  V30 2761 H 252.341 -2.04184 -2.51179 0
M  V30 2762 H 251.248 -3.64567 -0.839155 0
M  V30 2763 H 252.581 -4.79212 -1.12325 0
M  V30 2764 N 254.233 0.115231 -1.57178 0
M  V30 2765 C 255.183 1.14707 -1.97044 0
M  V30 2766 C 256.167 1.36866 -0.845957 0
M  V30 2767 O 257.359 1.37895 -1.10968 0
M  V30 2768 C 254.488 2.47266 -2.38148 0
M  V30 2769 C 253.574 2.28566 -3.57237 0
M  V30 2770 N 253.965 1.79685 -4.72807 0
M  V30 2771 C 252.263 2.59208 -3.62943 0
M  V30 2772 C 252.964 1.74781 -5.54821 0
M  V30 2773 N 251.94 2.19264 -4.97417 0
M  V30 2774 H 255.742 0.761754 -2.83857 0
M  V30 2775 H 253.256 0.322928 -1.59157 0
M  V30 2776 H 255.253 3.219 -2.64927 0
M  V30 2777 H 253.913 2.86552 -1.52702 0
M  V30 2778 H 254.924 1.49177 -4.9595 0
M  V30 2779 H 251.601 3.02154 -2.88113 0
M  V30 2780 H 252.991 1.38212 -6.57531 0
M  V30 2781 N 255.711 1.52812 0.385517 0
M  V30 2782 C 256.659 1.78482 1.49155 0
M  V30 2783 C 257.653 0.652914 1.56312 0
M  V30 2784 O 258.859 0.835464 1.59436 0
M  V30 2785 H 255.234 0.5648 0.496493 0
M  V30 2786 H 257.205 2.71095 1.24699 0
M  V30 2787 C 255.954 1.97378 2.86247 0
M  V30 2788 H 255.277 2.83907 2.81491 0
M  V30 2789 H 256.717 2.19327 3.62866 0
M  V30 2790 C 255.176 0.74728 3.28508 0
M  V30 2791 O 255.706 -0.0736232 4.01633 0
M  V30 2792 N 253.912 0.576396 2.84826 0
M  V30 2793 H 253.459 1.24555 2.25486 0
M  V30 2794 H 253.417 -0.24288 3.1346 0
M  V30 2795 N 257.189 -0.644168 1.43834 0
M  V30 2796 C 258.099 -1.78563 1.52159 0
M  V30 2797 C 259.115 -1.69147 0.408069 0
M  V30 2798 O 260.291 -1.90156 0.663524 0
M  V30 2799 C 257.356 -3.14888 1.45073 0
M  V30 2800 C 256.417 -3.36034 2.6717 0
M  V30 2801 C 255.65 -4.65855 2.60413 0
M  V30 2802 O 255.873 -5.45805 1.65689 0
M  V30 2803 O 254.807 -4.88918 3.5106 0
M  V30 2804 H 258.633 -1.74494 2.48567 0
M  V30 2805 H 256.218 -0.80378 1.25935 0
M  V30 2806 H 258.1 -3.96179 1.43597 0
M  V30 2807 H 256.775 -3.19528 0.518037 0
M  V30 2808 H 255.682 -2.54472 2.74217 0
M  V30 2809 H 257.015 -3.36247 3.59442 0
M  V30 2810 N 258.668 -1.30515 -0.883378 0
M  V30 2811 C 259.598 -1.19607 -2.00541 0
M  V30 2812 C 260.579 -0.086346 -1.69881 0
M  V30 2813 O 261.764 -0.268654 -1.92333 0
M  V30 2814 C 258.894 -0.888758 -3.35736 0
M  V30 2815 C 257.848 -1.95659 -3.8066 0
M  V30 2816 C 257.174 -1.50224 -5.13164 0
M  V30 2817 C 258.474 -3.36788 -3.99213 0
M  V30 2818 H 260.168 -2.13476 -2.09925 0
M  V30 2819 H 257.714 -1.02775 -1.00863 0
M  V30 2820 H 259.667 -0.799094 -4.13754 0
M  V30 2821 H 258.391 0.0856125 -3.26488 0
M  V30 2822 H 257.05 -2.03591 -3.04871 0
M  V30 2823 H 256.698 -0.516092 -5.00345 0
M  V30 2824 H 256.398 -2.2165 -5.44192 0
M  V30 2825 H 257.922 -1.42639 -5.93706 0
M  V30 2826 H 259.336 -3.31605 -4.67665 0
M  V30 2827 H 257.733 -4.06314 -4.41621 0
M  V30 2828 H 258.803 -3.78561 -3.03017 0
M  V30 2829 N 260.146 1.09593 -1.13257 0
M  V30 2830 C 261.562 1.33775 -0.870423 0
M  V30 2831 C 261.762 1.95327 0.494926 0
M  V30 2832 O 260.818 2.19853 1.2418 0
M  V30 2833 C 262.131 2.25106 -1.99369 0
M  V30 2834 C 263.679 2.3862 -2.02558 0
M  V30 2835 C 264.154 3.33285 -3.14142 0
M  V30 2836 N 265.645 3.40857 -3.13641 0
M  V30 2837 C 266.38 4.14101 -3.96621 0
M  V30 2838 N 265.876 4.90157 -4.8961 0
M  V30 2839 N 267.669 4.09808 -3.84726 0
M  V30 2840 H 259.82 0.680136 -2.01216 0
M  V30 2841 H 262.083 0.362133 -0.876107 0
M  V30 2842 H 261.789 1.87103 -2.97801 0
M  V30 2843 H 261.663 3.25481 -1.90635 0
M  V30 2844 H 264.05 2.75887 -1.0474 0
M  V30 2845 H 264.131 1.38028 -2.15364 0
M  V30 2846 H 263.775 2.96741 -4.12198 0
M  V30 2847 H 263.705 4.33776 -2.98574 0
M  V30 2848 H 266.196 2.86624 -2.46282 0
M  V30 2849 H 266.509 5.4347 -5.49418 0
M  V30 2850 H 264.854 4.89251 -4.93617 0
M  V30 2851 H 268.045 3.4949 -3.11408 0
M  V30 2852 H 268.218 4.66629 -4.49623 0
M  V30 2853 N 261.624 0.925811 1.2754 0
M  V30 2854 C 262.534 0.428993 2.30644 0
M  V30 2855 C 263.55 -0.489387 1.66976 0
M  V30 2856 O 264.726 -0.372653 1.97922 0
M  V30 2857 C 261.791 -0.311967 3.45294 0
M  V30 2858 C 260.852 0.641098 4.24486 0
M  V30 2859 C 260.085 -0.0645955 5.33661 0
M  V30 2860 O 260.308 -1.28429 5.55754 0
M  V30 2861 O 259.242 0.606265 5.98839 0
M  V30 2862 H 263.068 1.28504 2.75173 0
M  V30 2863 H 260.653 0.691086 1.32455 0
M  V30 2864 H 262.535 -0.729972 4.15029 0
M  V30 2865 H 261.21 -1.14365 3.02824 0
M  V30 2866 H 260.117 1.10874 3.57292 0
M  V30 2867 H 261.45 1.43995 4.70666 0
M  V30 2868 N 263.102 -1.41638 0.69111 0
M  V30 2869 C 264.348 -2.01598 0.220519 0
M  V30 2870 C 264.681 -1.54594 -1.17535 0
M  V30 2871 O 263.956 -0.755177 -1.79241 0
M  V30 2872 C 264.239 -3.59062 0.273243 0
M  V30 2873 C 264.092 -4.16203 1.70573 0
M  V30 2874 C 265.411 -4.38546 -0.369457 0
M  V30 2875 H 262.53 -0.732468 0.0816045 0
M  V30 2876 H 265.172 -1.68445 0.878986 0
M  V30 2877 H 263.322 -3.87435 -0.287411 0
M  V30 2878 H 264.994 -3.98722 2.31989 0
M  V30 2879 H 263.237 -3.71414 2.2413 0
M  V30 2880 H 263.908 -5.25358 1.69419 0
M  V30 2881 H 266.384 -4.1596 0.107977 0
M  V30 2882 H 265.26 -5.48069 -0.302002 0
M  V30 2883 H 265.521 -4.17662 -1.44951 0
M  V30 2884 N 264.58 -0.43555 -1.51462 0
M  V30 2885 C 265.857 0.191364 -1.94662 0
M  V30 2886 C 266.237 1.60254 -1.37411 0
M  V30 2887 O 265.585 2.2152 -0.560458 0
M  V30 2888 C 265.795 0.17091 -3.48581 0
M  V30 2889 C 267.143 0.377357 -4.2292 0
M  V30 2890 O 268.167 0.249104 -3.55328 0
M  V30 2891 O 267.026 0.63247 -5.42828 0
M  V30 2892 H 264.12 0.130932 -0.816569 0
M  V30 2893 H 266.666 -0.4934 -1.62369 0
M  V30 2894 H 265.438 -0.815738 -3.82703 0
M  V30 2895 H 265.061 0.898659 -3.87311 0
M  V30 2896 N 266.058 1.56714 -0.166846 0
M  V30 2897 C 267.306 1.96358 0.478305 0
M  V30 2898 C 267.627 1.0537 1.6408 0
M  V30 2899 O 266.897 0.119154 1.95537 0
M  V30 2900 H 265.477 0.725065 0.179692 0
M  V30 2901 H 268.139 1.93329 -0.246985 0
M  V30 2902 H 267.235 3.00547 0.841292 0
M  V30 2903 N 267.536 -0.106894 1.57237 0
M  V30 2904 C 268.764 -0.826389 1.8968 0
M  V30 2905 C 269.179 -1.72856 0.759353 0
M  V30 2906 O 268.536 -1.80503 -0.269263 0
M  V30 2907 C 268.587 -1.64967 3.21665 0
M  V30 2908 O 268.308 -0.783804 4.31031 0
M  V30 2909 C 269.809 -2.47326 3.67892 0
M  V30 2910 H 267.029 -0.236927 0.627779 0
M  V30 2911 H 269.573 -0.0876593 2.04312 0
M  V30 2912 H 267.728 -2.34103 3.08666 0
M  V30 2913 H 268.142 -1.35284 5.06753 0
M  V30 2914 H 269.616 -3.00604 4.6297 0
M  V30 2915 H 270.093 -3.25247 2.95146 0
M  V30 2916 H 270.699 -1.83411 3.83719 0
M  V30 2917 N 269.014 -1.53014 -0.377408 0
M  V30 2918 C 269.977 -1.77957 -1.44444 0
M  V30 2919 C 270.977 -0.649763 -1.47087 0
M  V30 2920 O 272.167 -0.917897 -1.48055 0
M  V30 2921 C 269.299 -1.89089 -2.83651 0
M  V30 2922 H 270.492 -2.73243 -1.23606 0
M  V30 2923 H 268.045 -1.43912 -0.609844 0
M  V30 2924 H 268.78 -0.958293 -3.09818 0
M  V30 2925 H 268.565 -2.71254 -2.83132 0
M  V30 2926 H 270.055 -2.1002 -3.60945 0
M  V30 2927 N 270.492 0.636531 -1.44174 0
M  V30 2928 C 271.439 1.74875 -1.50624 0
M  V30 2929 C 272.409 1.62275 -0.35442 0
M  V30 2930 O 273.594 1.82276 -0.563908 0
M  V30 2931 C 270.734 3.13102 -1.45125 0
M  V30 2932 C 269.847 3.36717 -2.7064 0
M  V30 2933 C 268.982 4.64885 -2.57013 0
M  V30 2934 C 268.021 4.8166 -3.77717 0
M  V30 2935 N 267.158 6.01101 -3.62798 0
M  V30 2936 H 271.998 1.68697 -2.45653 0
M  V30 2937 H 269.535 0.823004 -1.21922 0
M  V30 2938 H 271.493 3.93034 -1.39929 0
M  V30 2939 H 270.123 3.18308 -0.536671 0
M  V30 2940 H 269.175 2.50763 -2.86046 0
M  V30 2941 H 270.487 3.44993 -3.60252 0
M  V30 2942 H 269.641 5.52969 -2.49619 0
M  V30 2943 H 268.38 4.58957 -1.64953 0
M  V30 2944 H 267.385 3.92007 -3.85501 0
M  V30 2945 H 268.61 4.89406 -4.70807 0
M  V30 2946 H 266.556 5.96273 -2.73486 0
M  V30 2947 H 266.473 6.10409 -4.46023 0
M  V30 2948 H 267.741 6.91761 -3.59286 0
M  V30 2949 N 271.97 1.30982 0.876444 0
M  V30 2950 C 272.917 1.18085 1.98304 0
M  V30 2951 C 273.887 0.0682263 1.6596 0
M  V30 2952 O 275.072 0.239937 1.89285 0
M  V30 2953 C 272.212 0.887475 3.33493 0
M  V30 2954 C 271.325 2.08281 3.78475 0
M  V30 2955 C 270.46 1.72678 5.0235 0
M  V30 2956 C 269.499 2.88657 5.39762 0
M  V30 2957 N 268.636 2.53292 6.54819 0
M  V30 2958 H 273.476 2.1275 2.08666 0
M  V30 2959 H 271.013 1.05839 1.02159 0
M  V30 2960 H 272.971 0.697961 4.1132 0
M  V30 2961 H 271.601 -0.022315 3.22792 0
M  V30 2962 H 270.653 2.3833 2.96484 0
M  V30 2963 H 271.965 2.95108 4.02135 0
M  V30 2964 H 271.119 1.50151 5.87826 0
M  V30 2965 H 269.858 0.830327 4.8058 0
M  V30 2966 H 268.863 3.1184 4.52809 0
M  V30 2967 H 270.088 3.79002 5.63502 0
M  V30 2968 H 268.034 1.66163 6.34607 0
M  V30 2969 H 267.951 3.3365 6.7839 0
M  V30 2970 H 269.219 2.34143 7.43503 0
M  V30 2971 N 273.449 -1.08991 1.13837 0
M  V30 2972 C 274.397 -2.17841 0.815347 0
M  V30 2973 C 275.391 -1.68164 -0.204233 0
M  V30 2974 O 276.597 -1.79897 -0.0609304 0
M  V30 2975 H 272.972 -0.710654 0.245915 0
M  V30 2976 H 274.943 -2.42315 1.74143 0
M  V30 2977 C 273.692 -3.46381 0.302614 0
M  V30 2978 H 273.015 -3.84979 1.0785 0
M  V30 2979 H 274.455 -4.23844 0.115074 0
M  V30 2980 C 272.914 -3.22556 -0.972591 0
M  V30 2981 O 273.444 -3.45599 -2.04754 0
M  V30 2982 N 271.65 -2.76134 -0.905455 0
M  V30 2983 H 271.197 -2.57582 -0.0305421 0
M  V30 2984 H 271.155 -2.60571 -1.75926 0
M  V30 2985 N 274.927 -0.932562 -1.27047 0
M  V30 2986 C 276.175 -0.574422 -1.93765 0
M  V30 2987 C 276.496 0.887993 -1.73608 0
M  V30 2988 O 275.766 1.62999 -1.08665 0
M  V30 2989 H 274.346 -0.209451 -0.717035 0
M  V30 2990 H 277.008 -1.18601 -1.5466 0
M  V30 2991 H 276.104 -0.784841 -3.02071 0
M  V30 2992 N 276.405 1.4127 -0.698611 0
M  V30 2993 C 277.653 2.00782 -0.230409 0
M  V30 2994 C 277.974 1.5562 1.17505 0
M  V30 2995 O 277.244 0.78815 1.79346 0
M  V30 2996 H 275.824 0.742464 -0.0821944 0
M  V30 2997 H 278.486 1.72852 -0.90045 0
M  V30 2998 H 277.582 3.11095 -0.25021 0
M  V30 2999 N 277.883 0.443576 1.51229 0
M  V30 3000 C 279.111 -0.11929 2.06556 0
M  V30 3001 C 279.526 -1.35921 1.31038 0
M  V30 3002 O 278.883 -1.78675 0.371704 0
M  V30 3003 C 278.934 -0.435228 3.5887 0
M  V30 3004 O 278.655 0.755486 4.31537 0
M  V30 3005 C 280.156 -1.04808 4.30732 0
M  V30 3006 H 277.376 -0.0051584 0.67098 0
M  V30 3007 H 279.92 0.624453 1.94733 0
M  V30 3008 H 278.075 -1.12887 3.70588 0
M  V30 3009 H 278.489 0.483491 5.22267 0
M  V30 3010 H 279.963 -1.2191 5.3837 0
M  V30 3011 H 280.44 -2.03081 3.89429 0
M  V30 3012 H 281.046 -0.393637 4.23474 0
M  V30 3013 N 279.361 -1.56624 0.175154 0
M  V30 3014 C 280.291 -2.21155 -0.749195 0
M  V30 3015 C 281.272 -1.16836 -1.23626 0
M  V30 3016 O 282.457 -1.45277 -1.28873 0
M  V30 3017 C 279.587 -2.8553 -1.97711 0
M  V30 3018 C 278.541 -3.95921 -1.62575 0
M  V30 3019 C 277.867 -4.47365 -2.92864 0
M  V30 3020 C 279.167 -5.15323 -0.850838 0
M  V30 3021 H 280.861 -2.98653 -0.211295 0
M  V30 3022 H 278.407 -1.43651 -0.100188 0
M  V30 3023 H 280.36 -3.2935 -2.62881 0
M  V30 3024 H 279.084 -2.05406 -2.53921 0
M  V30 3025 H 277.743 -3.52762 -0.997719 0
M  V30 3026 H 277.391 -3.64027 -3.47122 0
M  V30 3027 H 277.091 -5.21839 -2.70106 0
M  V30 3028 H 278.615 -4.93873 -3.59056 0
M  V30 3029 H 280.029 -5.55812 -1.40521 0
M  V30 3030 H 278.426 -5.95739 -0.722154 0
M  V30 3031 H 279.496 -4.84661 0.152082 0
M  V30 3032 N 280.839 0.0985539 -1.57292 0
M  V30 3033 C 282.069 0.815135 -1.8984 0
M  V30 3034 C 282.477 1.7297 -0.766679 0
M  V30 3035 O 281.82 1.81698 0.270483 0
M  V30 3036 C 281.882 1.6842 -3.17608 0
M  V30 3037 C 281.546 0.94182 -4.4719 0
M  V30 3038 C 282.543 0.273212 -5.19182 0
M  V30 3039 C 280.228 0.916927 -4.9386 0
M  V30 3040 C 282.222 -0.410361 -6.36078 0
M  V30 3041 C 279.909 0.229567 -6.10669 0
M  V30 3042 C 280.907 -0.432902 -6.81627 0
M  V30 3043 O 280.595 -1.10925 -7.9621 0
M  V30 3044 H 280.327 0.238501 -0.632529 0
M  V30 3045 H 282.881 0.0812659 -2.05239 0
M  V30 3046 H 281.111 2.46022 -2.98345 0
M  V30 3047 H 282.8 2.27704 -3.36015 0
M  V30 3048 H 283.566 0.283927 -4.84168 0
M  V30 3049 H 279.445 1.42201 -4.3852 0
M  V30 3050 H 282.989 -0.928013 -6.914 0
M  V30 3051 H 278.886 0.216686 -6.45136 0
M  V30 3052 H 279.654 -1.01579 -8.12172 0
M  V30 3053 N 282.317 1.53212 0.369288 0
M  V30 3054 C 283.547 1.72868 1.13139 0
M  V30 3055 C 283.955 0.455754 1.83629 0
M  V30 3056 O 283.298 -0.580861 1.74275 0
M  V30 3057 C 283.36 2.83667 2.20847 0
M  V30 3058 C 283.024 4.24142 1.70155 0
M  V30 3059 C 284.021 5.06619 1.16763 0
M  V30 3060 C 281.706 4.70539 1.7578 0
M  V30 3061 C 283.7 6.33581 0.696678 0
M  V30 3062 C 281.387 5.97481 1.28297 0
M  V30 3063 C 282.385 6.78833 0.753307 0
M  V30 3064 O 282.073 8.03393 0.285475 0
M  V30 3065 H 281.805 0.581707 0.344373 0
M  V30 3066 H 284.359 2.00736 0.435243 0
M  V30 3067 H 282.589 2.51265 2.93944 0
M  V30 3068 H 284.278 2.91536 2.82421 0
M  V30 3069 H 285.044 4.71948 1.11758 0
M  V30 3070 H 280.923 4.07293 2.15949 0
M  V30 3071 H 284.467 6.97027 0.282581 0
M  V30 3072 H 280.364 6.31651 1.32994 0
M  V30 3073 H 281.132 8.17497 0.405145 0
M  V30 3074 N 283.795 -0.628877 1.44509 0
M  V30 3075 C 284.728 -1.75367 1.46019 0
M  V30 3076 C 285.706 -1.59444 0.318787 0
M  V30 3077 O 286.89 -1.81297 0.516099 0
M  V30 3078 C 284.017 -3.12965 1.29501 0
M  V30 3079 C 283.063 -3.47532 2.47233 0
M  V30 3080 S 283.896 -3.44758 4.09758 0
M  V30 3081 C 285.052 -4.84973 3.95667 0
M  V30 3082 H 285.285 -1.7382 2.41193 0
M  V30 3083 H 282.818 -0.803686 1.31834 0
M  V30 3084 H 284.776 -3.92367 1.20658 0
M  V30 3085 H 283.437 -3.12049 0.358341 0
M  V30 3086 H 282.63 -4.47664 2.31544 0
M  V30 3087 H 282.232 -2.75598 2.52828 0
M  V30 3088 H 284.524 -5.74255 3.59496 0
M  V30 3089 H 285.467 -5.05716 4.95638 0
M  V30 3090 H 285.875 -4.59653 3.27688 0
M  V30 3091 N 285.273 -1.31445 -0.869486 0
M  V30 3092 C 286.236 -1.19094 -1.9583 0
M  V30 3093 C 287.236 -0.117906 -1.60367 0
M  V30 3094 O 288.426 -0.367208 -1.70286 0
M  V30 3095 C 285.558 -0.828165 -3.30688 0
M  V30 3096 H 286.751 -2.15842 -2.08212 0
M  V30 3097 H 284.304 -1.15063 -1.05784 0
M  V30 3098 H 285.039 0.138142 -3.24006 0
M  V30 3099 H 284.824 -1.6038 -3.578 0
M  V30 3100 H 286.314 -0.765658 -4.10521 0
M  V30 3101 N 286.751 1.08385 -1.14413 0
M  V30 3102 C 288.162 1.62258 -0.923535 0
M  V30 3103 C 288.513 1.88691 0.537595 0
M  V30 3104 O 287.638 1.64454 1.40655 0
M  V30 3105 C 288.233 2.94781 -1.67002 0
M  V30 3106 C 286.792 3.45437 -1.495 0
M  V30 3107 C 285.939 2.19668 -1.69238 0
M  V30 3108 H 288.89 0.916086 -1.2959 0
M  V30 3109 H 288.911 3.63229 -1.13334 0
M  V30 3110 H 288.423 2.7551 -2.73342 0
M  V30 3111 H 286.524 3.6981 -0.455097 0
M  V30 3112 H 286.637 4.22173 -2.2651 0
M  V30 3113 H 285.001 2.28849 -1.11804 0
M  V30 3114 H 285.784 2.02905 -2.7692 0
M  V30 3115 N 288.23 0.939286 1.26551 0
M  V30 3116 C 289.14 0.453432 2.30176 0
M  V30 3117 C 290.156 -0.471649 1.67486 0
M  V30 3118 O 291.332 -0.35164 1.98306 0
M  V30 3119 C 288.397 -0.275326 3.45605 0
M  V30 3120 C 287.458 0.686084 4.23782 0
M  V30 3121 C 286.691 -0.00798994 5.33699 0
M  V30 3122 O 286.914 -1.22528 5.57085 0
M  V30 3123 O 285.848 0.669746 5.98162 0
M  V30 3124 H 289.674 1.31416 2.73795 0
M  V30 3125 H 287.259 0.705095 1.31715 0
M  V30 3126 H 289.141 -0.685911 4.1578 0
M  V30 3127 H 287.816 -1.11147 3.0402 0
M  V30 3128 H 286.723 1.14658 3.56096 0
M  V30 3129 H 288.056 1.48979 4.69112 0
M  V30 3130 N 289.708 -1.40897 0.706093 0
M  V30 3131 C 290.658 -2.27987 0.0240746 0
M  V30 3132 C 291.642 -1.42759 -0.742204 0
M  V30 3133 O 292.834 -1.65936 -0.615966 0
M  V30 3134 C 289.963 -3.31186 -0.903907 0
M  V30 3135 C 289.049 -4.2389 -0.133318 0
M  V30 3136 N 289.44 -4.98113 0.878444 0
M  V30 3137 C 287.738 -4.44485 -0.367269 0
M  V30 3138 C 288.439 -5.6604 1.34064 0
M  V30 3139 N 287.415 -5.39522 0.664565 0
M  V30 3140 H 291.217 -2.82812 0.799658 0
M  V30 3141 H 288.731 -1.53235 0.537845 0
M  V30 3142 H 290.728 -3.92413 -1.40775 0
M  V30 3143 H 289.388 -2.77922 -1.67897 0
M  V30 3144 H 290.399 -5.02364 1.25901 0
M  V30 3145 H 287.076 -4.02213 -1.1194 0
M  V30 3146 H 288.466 -6.35524 2.1808 0
M  V30 3147 N 291.186 -0.45159 -1.50991 0
M  V30 3148 C 292.116 0.342898 -2.30969 0
M  V30 3149 C 293.097 1.00815 -1.37005 0
M  V30 3150 O 294.282 1.00907 -1.65926 0
M  V30 3151 C 291.412 1.43637 -3.16205 0
M  V30 3152 C 290.366 0.893818 -4.18563 0
M  V30 3153 C 289.692 2.08411 -4.92411 0
M  V30 3154 C 290.992 -0.0815568 -5.22236 0
M  V30 3155 H 292.686 -0.324556 -2.97636 0
M  V30 3156 H 290.232 -0.157531 -1.43136 0
M  V30 3157 H 292.185 1.9995 -3.70942 0
M  V30 3158 H 290.909 2.13232 -2.47386 0
M  V30 3159 H 289.568 0.352798 -3.64898 0
M  V30 3160 H 289.216 2.76658 -4.20082 0
M  V30 3161 H 288.916 1.72741 -5.61636 0
M  V30 3162 H 290.44 2.65251 -5.49976 0
M  V30 3163 H 291.854 0.391742 -5.7196 0
M  V30 3164 H 290.251 -0.351551 -5.99069 0
M  V30 3165 H 291.321 -1.01374 -4.74185 0
M  V30 3166 N 292.664 1.56529 -0.183458 0
M  V30 3167 C 293.612 2.19873 0.758845 0
M  V30 3168 C 294.606 1.16638 1.22849 0
M  V30 3169 O 295.812 1.3481 1.19274 0
M  V30 3170 H 292.187 0.7045 0.263029 0
M  V30 3171 H 294.158 2.97724 0.200755 0
M  V30 3172 C 292.907 2.86314 1.9728 0
M  V30 3173 H 292.23 3.65487 1.62047 0
M  V30 3174 H 293.67 3.3409 2.61075 0
M  V30 3175 C 292.129 1.86729 2.80418 0
M  V30 3176 O 292.659 1.36031 3.77966 0
M  V30 3177 N 290.865 1.55216 2.45675 0
M  V30 3178 H 290.412 1.96636 1.66409 0
M  V30 3179 H 290.37 0.888388 3.01588 0
M  V30 3180 N 294.142 -0.090211 1.57342 0
M  V30 3181 C 295.419 -0.824761 1.77361 0
M  V30 3182 C 295.799 -1.96698 0.76637 0
M  V30 3183 O 295.147 -2.27586 -0.204179 0
M  V30 3184 C 295.357 -1.31481 3.23286 0
M  V30 3185 C 296.705 -1.75563 3.86604 0
M  V30 3186 O 297.729 -1.41093 3.27065 0
M  V30 3187 O 296.588 -2.39317 4.91314 0
M  V30 3188 H 293.682 -0.393776 0.727234 0
M  V30 3189 H 296.228 -0.0717138 1.69548 0
M  V30 3190 H 295 -0.496671 3.88135 0
M  V30 3191 H 294.623 -2.12973 3.35751 0
M  V30 3192 N 295.62 -1.53406 -0.361157 0
M  V30 3193 C 296.866 -1.70054 -1.10496 0
M  V30 3194 C 297.199 -0.453278 -1.88836 0
M  V30 3195 O 296.474 0.5495 -1.86576 0
M  V30 3196 C 296.757 -2.95317 -2.06058 0
M  V30 3197 C 296.61 -4.3021 -1.31298 0
M  V30 3198 C 297.929 -3.16193 -3.06121 0
M  V30 3199 H 295.048 -0.618799 -0.400321 0
M  V30 3200 H 297.69 -1.86052 -0.385318 0
M  V30 3201 H 295.84 -2.81809 -2.67425 0
M  V30 3202 H 297.512 -4.55538 -0.726807 0
M  V30 3203 H 295.755 -4.29421 -0.614853 0
M  V30 3204 H 296.426 -5.14 -2.01265 0
M  V30 3205 H 298.902 -3.28916 -2.5486 0
M  V30 3206 H 297.778 -4.05266 -3.70204 0
M  V30 3207 H 298.039 -2.31676 -3.76535 0
M  V30 3208 N 297.098 0.621204 -1.44841 0
M  V30 3209 C 298.046 1.75385 -1.52784 0
M  V30 3210 C 299.04 1.64639 -0.398779 0
M  V30 3211 O 300.246 1.70598 -0.574137 0
M  V30 3212 H 296.621 0.579193 -0.479625 0
M  V30 3213 H 298.592 1.6581 -2.48092 0
M  V30 3214 C 297.341 3.13742 -1.4987 0
M  V30 3215 H 296.664 3.22663 -2.36069 0
M  V30 3216 H 298.104 3.92861 -1.59487 0
M  V30 3217 C 296.563 3.36175 -0.220973 0
M  V30 3218 O 297.093 3.95469 0.704782 0
M  V30 3219 N 295.299 2.90348 -0.120963 0
M  V30 3220 H 294.846 2.42278 -0.875162 0
M  V30 3221 H 294.804 3.05732 0.733168 0
M  V30 3222 N 298.576 1.31904 0.862503 0
M  V30 3223 C 299.539 1.20131 1.95195 0
M  V30 3224 C 300.539 0.126409 1.60302 0
M  V30 3225 O 301.729 0.376234 1.70089 0
M  V30 3226 C 298.861 0.845691 3.30244 0
M  V30 3227 H 300.054 2.16943 2.07064 0
M  V30 3228 H 297.607 1.15622 1.05172 0
M  V30 3229 H 298.342 -0.120957 3.24074 0
M  V30 3230 H 298.127 1.62276 3.56944 0
M  V30 3231 H 299.617 0.787418 4.10109 0
M  V30 3232 N 300.054 -1.07777 1.14986 0
M  V30 3233 C 301.001 -2.14867 0.842672 0
M  V30 3234 C 301.971 -1.6486 -0.202552 0
M  V30 3235 O 303.156 -1.90668 -0.0710568 0
M  V30 3236 C 300.296 -3.43486 0.333363 0
M  V30 3237 C 299.409 -4.07306 1.43965 0
M  V30 3238 C 298.544 -5.23744 0.886914 0
M  V30 3239 C 297.583 -5.79517 1.97043 0
M  V30 3240 N 296.72 -6.87291 1.4344 0
M  V30 3241 H 301.56 -2.40485 1.75986 0
M  V30 3242 H 299.097 -1.1801 0.878179 0
M  V30 3243 H 301.055 -4.17195 0.0198163 0
M  V30 3244 H 299.685 -3.18133 -0.546916 0
M  V30 3245 H 298.737 -3.31293 1.86946 0
M  V30 3246 H 300.049 -4.44771 2.25788 0
M  V30 3247 H 299.203 -6.04419 0.525651 0
M  V30 3248 H 297.942 -4.87685 0.0377957 0
M  V30 3249 H 296.947 -4.97491 2.34057 0
M  V30 3250 H 298.172 -6.17632 2.82325 0
M  V30 3251 H 296.118 -6.5318 0.607567 0
M  V30 3252 H 296.035 -7.23617 2.18895 0
M  V30 3253 H 297.303 -7.71682 1.10124 0
M  V30 3254 N 301.532 -0.945985 -1.26051 0
M  V30 3255 C 302.943 -0.638096 -1.75457 0
M  V30 3256 C 303.294 0.846672 -1.76991 0
M  V30 3257 O 302.419 1.66262 -1.38513 0
M  V30 3258 C 303.014 -1.15157 -3.18629 0
M  V30 3259 C 301.573 -0.894004 -3.65629 0
M  V30 3260 C 300.72 -1.29967 -2.44957 0
M  V30 3261 H 303.671 -1.12376 -1.1206 0
M  V30 3262 H 303.692 -0.507615 -3.77099 0
M  V30 3263 H 303.204 -2.23222 -3.1748 0
M  V30 3264 H 301.305 0.172057 -3.72203 0
M  V30 3265 H 301.418 -1.52439 -4.54202 0
M  V30 3266 H 299.782 -0.718078 -2.44368 0
M  V30 3267 H 300.565 -2.38935 -2.46505 0
M  V30 3268 N 303.011 1.40521 -0.713556 0
M  V30 3269 C 304.239 2.05237 -0.261775 0
M  V30 3270 C 304.654 1.53755 1.09567 0
M  V30 3271 O 304.011 0.693268 1.6882 0
M  V30 3272 C 304.062 3.60763 -0.230706 0
M  V30 3273 O 303.783 4.10345 -1.53455 0
M  V30 3274 C 305.284 4.42651 0.239874 0
M  V30 3275 H 302.504 0.660533 -0.118057 0
M  V30 3276 H 305.048 1.79967 -0.971192 0
M  V30 3277 H 303.203 3.8501 0.429661 0
M  V30 3278 H 303.617 5.04526 -1.43366 0
M  V30 3279 H 305.091 5.51599 0.210468 0
M  V30 3280 H 305.568 4.20082 1.28171 0
M  V30 3281 H 306.174 4.23507 -0.390142 0
M  V30 3282 N 304.489 0.459591 1.5075 0
M  V30 3283 C 305.399 -0.34613 2.32033 0
M  V30 3284 C 306.415 -1.00686 1.41909 0
M  V30 3285 O 307.591 -0.997361 1.7497 0
M  V30 3286 C 304.656 -1.42029 3.16273 0
M  V30 3287 C 303.717 -0.777362 4.22203 0
M  V30 3288 C 302.95 -1.80034 5.02418 0
M  V30 3289 O 303.173 -3.02544 4.83553 0
M  V30 3290 O 302.107 -1.37853 5.85901 0
M  V30 3291 H 305.933 0.318054 3.0203 0
M  V30 3292 H 303.518 0.221663 1.47746 0
M  V30 3293 H 305.4 -2.04275 3.68578 0
M  V30 3294 H 304.075 -2.06815 2.49016 0
M  V30 3295 H 302.982 -0.116256 3.73919 0
M  V30 3296 H 304.315 -0.172634 4.91897 0
M  V30 3297 N 305.967 -1.56429 0.191757 0
M  V30 3298 C 306.914 -2.18936 -0.730454 0
M  V30 3299 C 307.884 -1.13557 -1.21219 0
M  V30 3300 O 309.069 -1.41794 -1.27668 0
M  V30 3301 C 306.209 -2.85013 -1.9458 0
M  V30 3302 C 305.322 -4.04909 -1.50574 0
M  V30 3303 C 304.457 -4.58853 -2.67634 0
M  V30 3304 C 303.496 -5.71114 -2.20217 0
M  V30 3305 N 302.633 -6.19478 -3.30442 0
M  V30 3306 H 307.473 -2.97389 -0.190664 0
M  V30 3307 H 305.01 -1.46869 -0.0823694 0
M  V30 3308 H 306.968 -3.21492 -2.65893 0
M  V30 3309 H 305.598 -2.09129 -2.45896 0
M  V30 3310 H 304.65 -3.74115 -0.688605 0
M  V30 3311 H 305.962 -4.86113 -1.11784 0
M  V30 3312 H 305.116 -4.97619 -3.47074 0
M  V30 3313 H 303.855 -3.76749 -3.09696 0
M  V30 3314 H 302.86 -5.31879 -1.3923 0
M  V30 3315 H 304.085 -6.55033 -1.79189 0
M  V30 3316 H 302.031 -5.40297 -3.72041 0
M  V30 3317 H 301.948 -6.95725 -2.9581 0
M  V30 3318 H 303.216 -6.62898 -4.10106 0
M  V30 3319 N 307.445 0.0818655 -1.57387 0
M  V30 3320 C 308.67 0.799946 -1.91352 0
M  V30 3321 C 309.095 1.70833 -0.787258 0
M  V30 3322 O 308.453 1.79419 0.26048 0
M  V30 3323 C 308.501 1.57812 -3.24234 0
M  V30 3324 O 307.605 2.68806 -3.12757 0
M  V30 3325 H 306.946 0.21891 -0.626877 0
M  V30 3326 H 309.476 0.0531256 -2.04531 0
M  V30 3327 H 309.486 1.95952 -3.57864 0
M  V30 3328 H 308.161 0.911548 -4.05788 0
M  V30 3329 H 306.738 2.33597 -2.90666 0
M  V30 3330 N 308.923 1.53595 0.353017 0
M  V30 3331 C 310.2 1.61002 1.11075 0
M  V30 3332 C 310.58 0.425356 2.0677 0
M  V30 3333 O 309.928 -0.583267 2.2093 0
M  V30 3334 C 310.138 2.96631 1.83877 0
M  V30 3335 C 311.486 3.51653 2.37961 0
M  V30 3336 O 312.51 2.98743 1.93987 0
M  V30 3337 O 311.369 4.44177 3.18386 0
M  V30 3338 H 308.463 0.650825 0.510251 0
M  V30 3339 H 311.009 1.6594 0.35527 0
M  V30 3340 H 309.781 3.74293 1.14108 0
M  V30 3341 H 309.404 2.95242 2.66304 0
M  V30 3342 N 310.401 -0.613514 1.45168 0
M  V30 3343 C 311.647 -1.37471 1.49096 0
M  V30 3344 C 311.98 -1.93765 0.129901 0
M  V30 3345 O 311.255 -1.74707 -0.854858 0
M  V30 3346 C 311.538 -2.52701 2.56542 0
M  V30 3347 C 311.391 -2.01643 4.0207 0
M  V30 3348 C 312.71 -3.54849 2.60327 0
M  V30 3349 H 309.829 -0.498502 0.54283 0
M  V30 3350 H 312.471 -0.692125 1.76945 0
M  V30 3351 H 310.621 -3.10931 2.32926 0
M  V30 3352 H 312.293 -1.48108 4.36877 0
M  V30 3353 H 310.536 -1.32688 4.13009 0
M  V30 3354 H 311.207 -2.84681 4.72928 0
M  V30 3355 H 313.683 -3.0645 2.81474 0
M  V30 3356 H 312.559 -4.32973 3.37381 0
M  V30 3357 H 312.82 -4.10079 1.6519 0
M  V30 3358 N 311.879 -1.3236 -0.855495 0
M  V30 3359 C 313.109 -1.25688 -1.6397 0
M  V30 3360 C 313.517 0.177592 -1.88365 0
M  V30 3361 O 312.86 1.12485 -1.45234 0
M  V30 3362 C 312.922 -1.94602 -3.02275 0
M  V30 3363 C 312.586 -3.43937 -3.00926 0
M  V30 3364 C 313.583 -4.39435 -2.77835 0
M  V30 3365 C 311.268 -3.85858 -3.21588 0
M  V30 3366 C 313.262 -5.74829 -2.75409 0
M  V30 3367 C 310.949 -5.21361 -3.18789 0
M  V30 3368 C 311.947 -6.15658 -2.95727 0
M  V30 3369 O 311.635 -7.48681 -2.928 0
M  V30 3370 H 311.367 -0.434972 -0.51747 0
M  V30 3371 H 313.921 -1.75023 -1.075 0
M  V30 3372 H 312.151 -1.39836 -3.60531 0
M  V30 3373 H 313.84 -1.81651 -3.62985 0
M  V30 3374 H 314.606 -4.08374 -2.6164 0
M  V30 3375 H 310.485 -3.12883 -3.38564 0
M  V30 3376 H 314.029 -6.48404 -2.57328 0
M  V30 3377 H 309.926 -5.52052 -3.34528 0
M  V30 3378 H 310.694 -7.5803 -3.0876 0
M  V30 3379 N 313.357 1.07166 -1.15556 0
M  V30 3380 C 314.582 1.84053 -0.955988 0
M  V30 3381 C 315.007 1.81586 0.490739 0
M  V30 3382 O 314.365 1.21018 1.34997 0
M  V30 3383 C 314.413 3.28957 -1.47714 0
M  V30 3384 O 313.517 4.06795 -0.677593 0
M  V30 3385 H 312.858 0.569842 -0.340847 0
M  V30 3386 H 315.388 1.35178 -1.53584 0
M  V30 3387 H 315.398 3.79788 -1.4908 0
M  V30 3388 H 314.073 3.30068 -2.53037 0
M  V30 3389 H 312.65 3.6561 -0.733721 0
M  V30 3390 N 314.835 0.952656 1.25548 0
M  V30 3391 C 316.082 0.606373 1.93208 0
M  V30 3392 C 316.41 -0.85631 1.74636 0
M  V30 3393 O 315.665 -1.62951 1.08376 0
M  V30 3394 C 315.964 0.908818 3.45652 0
M  V30 3395 C 315.63 2.35722 3.84378 0
M  V30 3396 C 314.292 2.75312 3.9466 0
M  V30 3397 C 316.644 3.29793 4.03591 0
M  V30 3398 C 313.972 4.08047 4.21562 0
M  V30 3399 C 316.324 4.62138 4.31985 0
M  V30 3400 C 314.988 5.01528 4.40484 0
M  V30 3401 H 314.258 0.221888 0.706998 0
M  V30 3402 H 316.905 1.20132 1.49133 0
M  V30 3403 H 315.21 0.231456 3.91116 0
M  V30 3404 H 316.907 0.619498 3.96186 0
M  V30 3405 H 313.497 2.04017 3.76928 0
M  V30 3406 H 317.681 3.00397 3.95064 0
M  V30 3407 H 312.937 4.38212 4.26357 0
M  V30 3408 H 317.111 5.35012 4.45797 0
M  V30 3409 H 314.738 6.04406 4.61083 0
M  V30 3410 N 316.313 -1.40141 0.720998 0
M  V30 3411 C 317.276 -2.29058 0.0805834 0
M  V30 3412 C 318.276 -1.45632 -0.681758 0
M  V30 3413 O 319.466 -1.6648 -0.512856 0
M  V30 3414 C 316.598 -3.28925 -0.895593 0
M  V30 3415 H 317.791 -2.87191 0.863793 0
M  V30 3416 H 315.344 -1.48553 0.485975 0
M  V30 3417 H 316.079 -2.75822 -1.70566 0
M  V30 3418 H 315.864 -3.90519 -0.351766 0
M  V30 3419 H 317.354 -3.95494 -1.34069 0
M  V30 3420 N 317.792 -0.46758 -1.50504 0
M  V30 3421 C 319.038 0.0887532 -2.02606 0
M  V30 3422 C 319.371 1.39686 -1.34913 0
M  V30 3423 O 318.646 1.88644 -0.473694 0
M  V30 3424 C 318.929 0.276206 -3.59039 0
M  V30 3425 C 318.782 -1.05267 -4.37309 0
M  V30 3426 C 320.101 1.03235 -4.27821 0
M  V30 3427 H 317.22 0.0307814 -0.736357 0
M  V30 3428 H 319.862 -0.612485 -1.79857 0
M  V30 3429 H 318.012 0.8735 -3.78553 0
M  V30 3430 H 319.684 -1.68628 -4.29374 0
M  V30 3431 H 317.927 -1.65015 -4.01189 0
M  V30 3432 H 318.598 -0.875197 -5.45018 0
M  V30 3433 H 321.074 0.526111 -4.12761 0
M  V30 3434 H 319.95 1.1323 -5.37094 0
M  V30 3435 H 320.211 2.06806 -3.90748 0
M  V30 3436 N 319.27 1.56325 -0.20005 0
M  V30 3437 C 320.516 1.98012 0.438059 0
M  V30 3438 C 320.849 1.08702 1.60927 0
M  V30 3439 O 320.124 0.140064 1.93995 0
M  V30 3440 C 320.407 3.48841 0.893419 0
M  V30 3441 C 320.26 4.48928 -0.279947 0
M  V30 3442 C 321.579 4.03498 1.75719 0
M  V30 3443 H 318.698 0.719918 0.157757 0
M  V30 3444 H 321.34 1.87743 -0.291968 0
M  V30 3445 H 319.49 3.57723 1.51547 0
M  V30 3446 H 321.162 4.52079 -0.91772 0
M  V30 3447 H 319.405 4.23694 -0.930919 0
M  V30 3448 H 320.076 5.5194 0.0812601 0
M  V30 3449 H 322.552 3.97427 1.23253 0
M  V30 3450 H 321.428 5.09393 2.04476 0
M  V30 3451 H 321.689 3.4906 2.71311 0
M  V30 3452 N 320.748 -0.0735177 1.57428 0
M  V30 3453 C 321.678 -1.0879 2.06608 0
M  V30 3454 C 322.659 -1.40473 0.959237 0
M  V30 3455 O 323.844 -1.5013 1.23185 0
M  V30 3456 C 320.974 -2.40183 2.50857 0
M  V30 3457 C 319.928 -2.22858 3.65402 0
M  V30 3458 C 319.254 -3.59619 3.957 0
M  V30 3459 C 320.554 -1.65123 4.95511 0
M  V30 3460 H 322.248 -0.678673 2.91607 0
M  V30 3461 H 319.794 -0.325013 1.40284 0
M  V30 3462 H 321.747 -3.11437 2.83874 0
M  V30 3463 H 320.471 -2.83083 1.62885 0
M  V30 3464 H 319.13 -1.54045 3.32664 0
M  V30 3465 H 318.778 -4.00086 3.04861 0
M  V30 3466 H 318.478 -3.48866 4.72828 0
M  V30 3467 H 320.002 -4.32306 4.31212 0
M  V30 3468 H 321.416 -2.26241 5.26771 0
M  V30 3469 H 319.813 -1.65071 5.7695 0
M  V30 3470 H 320.883 -0.612559 4.81015 0
M  V30 3471 N 322.226 -1.5378 -0.344866 0
M  V30 3472 C 323.472 -1.72158 -1.0832 0
M  V30 3473 C 323.827 -0.478218 -1.86362 0
M  V30 3474 O 323.12 0.529152 -1.84148 0
M  V30 3475 C 323.314 -2.92407 -2.05506 0
M  V30 3476 C 323.143 -4.28318 -1.37017 0
M  V30 3477 C 321.913 -4.92832 -1.11558 0
M  V30 3478 C 324.111 -5.08086 -0.797071 0
M  V30 3479 N 322.093 -6.12619 -0.396358 0
M  V30 3480 C 323.464 -6.1965 -0.208336 0
M  V30 3481 C 325.519 -4.92986 -0.697787 0
M  V30 3482 C 324.222 -7.17763 0.470023 0
M  V30 3483 C 326.248 -5.91391 -0.033171 0
M  V30 3484 C 325.61 -7.02292 0.544599 0
M  V30 3485 H 321.709 -0.683017 -0.380805 0
M  V30 3486 H 324.293 -1.91211 -0.366961 0
M  V30 3487 H 322.464 -2.74857 -2.74423 0
M  V30 3488 H 324.196 -2.9951 -2.72169 0
M  V30 3489 H 320.951 -4.52362 -1.40234 0
M  V30 3490 H 321.375 -6.7698 -0.0515119 0
M  V30 3491 H 326.017 -4.07414 -1.13022 0
M  V30 3492 H 323.735 -8.0291 0.914351 0
M  V30 3493 H 327.321 -5.81784 0.0430009 0
M  V30 3494 H 326.201 -7.77129 1.05073 0
M  V30 3495 N 323.704 0.605807 -1.45491 0
M  V30 3496 C 324.667 1.69836 -1.5391 0
M  V30 3497 C 325.667 1.55261 -0.418424 0
M  V30 3498 O 326.857 1.60296 -0.681965 0
M  V30 3499 C 323.989 3.09117 -1.43734 0
M  V30 3500 H 325.182 1.63738 -2.51257 0
M  V30 3501 H 322.735 0.821689 -1.32959 0
M  V30 3502 H 323.47 3.20791 -0.475788 0
M  V30 3503 H 323.255 3.21104 -2.25021 0
M  V30 3504 H 324.745 3.88696 -1.52661 0
M  V30 3505 N 325.182 1.32811 0.848464 0
M  V30 3506 C 326.431 1.23075 1.59798 0
M  V30 3507 C 326.744 -0.204419 1.94529 0
M  V30 3508 O 327.95 -0.423701 2.68173 0
M  V30 3509 C 326.406 2.15594 2.88179 0
M  V30 3510 C 326.014 3.64228 2.60849 0
M  V30 3511 C 327.758 2.14709 3.66197 0
M  V30 3512 C 325.665 4.48689 3.85269 0
M  V30 3513 H 324.595 0.457091 0.599653 0
M  V30 3514 H 327.246 1.57813 0.936342 0
M  V30 3515 H 325.628 1.73778 3.55833 0
M  V30 3516 H 326.802 4.14424 2.01467 0
M  V30 3517 H 325.117 3.67306 1.96151 0
M  V30 3518 H 327.714 2.75046 4.58534 0
M  V30 3519 H 328.057 1.13966 4.00397 0
M  V30 3520 H 328.59 2.54837 3.05455 0
M  V30 3521 H 325.329 5.5027 3.56207 0
M  V30 3522 H 324.849 4.03241 4.44024 0
M  V30 3523 H 326.528 4.62006 4.52946 0
M  V30 3524 N 326.66 -1.06551 1.16123 0
M  V30 3525 C 327.907 -1.79302 0.941126 0
M  V30 3526 C 328.235 -1.87105 -0.531235 0
M  V30 3527 O 327.49 -1.35692 -1.41018 0
M  V30 3528 C 327.789 -3.23911 1.51052 0
M  V30 3529 C 327.455 -3.36193 3.00475 0
M  V30 3530 C 326.117 -3.39252 3.41265 0
M  V30 3531 C 328.469 -3.38326 3.96465 0
M  V30 3532 C 325.797 -3.42057 4.76669 0
M  V30 3533 C 328.149 -3.4267 5.31752 0
M  V30 3534 C 326.813 -3.4401 5.72026 0
M  V30 3535 H 326.083 -0.656111 0.344382 0
M  V30 3536 H 328.73 -1.25325 1.44796 0
M  V30 3537 H 327.035 -3.80723 0.925063 0
M  V30 3538 H 328.732 -3.78793 1.31593 0
M  V30 3539 H 325.322 -3.34516 2.6795 0
M  V30 3540 H 329.506 -3.35176 3.6602 0
M  V30 3541 H 324.762 -3.41398 5.07206 0
M  V30 3542 H 328.936 -3.43268 6.05921 0
M  V30 3543 H 326.563 -3.45937 6.76928 0
M  V30 3544 N 328.138 -0.959301 -1.25041 0
M  V30 3545 C 329.101 -0.487677 -2.23952 0
M  V30 3546 C 330.101 0.41119 -1.55454 0
M  V30 3547 O 331.291 0.207825 -1.72956 0
M  V30 3548 C 328.423 0.294807 -3.39623 0
M  V30 3549 H 329.616 -1.36198 -2.67189 0
M  V30 3550 H 327.169 -0.743042 -1.37508 0
M  V30 3551 H 327.904 1.18658 -3.01813 0
M  V30 3552 H 327.689 -0.35012 -3.90534 0
M  V30 3553 H 329.179 0.614089 -4.1306 0
M  V30 3554 N 329.616 1.39756 -0.72842 0
M  V30 3555 C 330.564 2.32485 -0.0731849 0
M  V30 3556 C 331.558 1.52717 0.733063 0
M  V30 3557 O 332.764 1.68428 0.634988 0
M  V30 3558 H 329.139 0.751984 -0.00486469 0
M  V30 3559 H 331.11 2.85382 -0.871761 0
M  V30 3560 C 329.859 3.37773 0.824908 0
M  V30 3561 H 329.182 3.99227 0.213915 0
M  V30 3562 H 330.622 4.05121 1.25111 0
M  V30 3563 C 329.081 2.74287 1.95622 0
M  V30 3564 O 329.611 2.61618 3.04826 0
M  V30 3565 N 327.817 2.32475 1.74367 0
M  V30 3566 H 327.364 2.4298 0.855494 0
M  V30 3567 H 327.322 1.90337 2.50238 0
M  V30 3568 N 331.094 0.475555 1.50254 0
M  V30 3569 C 332.041 -0.316293 2.28622 0
M  V30 3570 C 333.011 -0.983227 1.33873 0
M  V30 3571 O 334.196 -0.994805 1.62814 0
M  V30 3572 C 331.336 -1.38975 3.1588 0
M  V30 3573 C 330.449 -0.737146 4.25664 0
M  V30 3574 C 329.584 -1.78887 5.00173 0
M  V30 3575 C 328.623 -1.11676 6.01826 0
M  V30 3576 N 327.76 -2.11154 6.69596 0
M  V30 3577 H 332.6 0.358297 2.95838 0
M  V30 3578 H 330.137 0.188541 1.45887 0
M  V30 3579 H 332.095 -2.02383 3.64825 0
M  V30 3580 H 330.725 -2.03344 2.50701 0
M  V30 3581 H 329.777 0.0096065 3.80399 0
M  V30 3582 H 331.089 -0.206816 4.98371 0
M  V30 3583 H 330.243 -2.49865 5.52859 0
M  V30 3584 H 328.982 -2.35302 4.27182 0
M  V30 3585 H 327.987 -0.392633 5.48396 0
M  V30 3586 H 329.212 -0.55945 6.76792 0
M  V30 3587 H 327.158 -2.66577 5.99394 0
M  V30 3588 H 327.075 -1.63118 7.38193 0
M  V30 3589 H 328.343 -2.81497 7.26897 0
M  V30 3590 N 332.573 -1.56217 0.208337 0
M  V30 3591 C 333.483 -2.23316 -0.718836 0
M  V30 3592 C 334.499 -1.23648 -1.22422 0
M  V30 3593 O 335.675 -1.56423 -1.26861 0
M  V30 3594 C 332.74 -2.88968 -1.91568 0
M  V30 3595 C 331.801 -4.03943 -1.45357 0
M  V30 3596 C 331.034 -4.66455 -2.59337 0
M  V30 3597 O 331.257 -4.27919 -3.77149 0
M  V30 3598 O 330.191 -5.55686 -2.31293 0
M  V30 3599 H 334.017 -3.03182 -0.177315 0
M  V30 3600 H 331.602 -1.49384 -0.0215402 0
M  V30 3601 H 333.484 -3.30455 -2.61491 0
M  V30 3602 H 332.159 -2.12071 -2.44556 0
M  V30 3603 H 331.066 -3.67052 -0.722746 0
M  V30 3604 H 332.399 -4.82543 -0.970219 0
M  V30 3605 N 334.051 0.0651679 -1.57465 0
M  V30 3606 C 335.462 0.616213 -1.76238 0
M  V30 3607 C 335.813 1.7756 -0.834689 0
M  V30 3608 O 334.938 2.1639 -0.0204156 0
M  V30 3609 C 335.533 1.12462 -3.1959 0
M  V30 3610 C 334.092 1.62147 -3.39684 0
M  V30 3611 C 333.239 0.543739 -2.71917 0
M  V30 3612 H 336.19 -0.161022 -1.57881 0
M  V30 3613 H 336.211 1.99324 -3.24114 0
M  V30 3614 H 335.723 0.280592 -3.87084 0
M  V30 3615 H 333.824 2.48854 -2.77313 0
M  V30 3616 H 333.937 1.69385 -4.48158 0
M  V30 3617 H 332.301 0.990352 -2.34657 0
M  V30 3618 H 333.084 -0.290216 -3.42071 0
M  V30 3619 N 335.529 1.53961 0.336706 0
M  V30 3620 C 336.759 1.75229 1.09446 0
M  V30 3621 C 337.167 0.494602 1.82621 0
M  V30 3622 O 336.51 -0.543764 1.75468 0
M  V30 3623 C 336.572 2.88288 2.1478 0
M  V30 3624 C 336.236 4.27656 1.6112 0
M  V30 3625 C 337.233 5.08981 1.0599 0
M  V30 3626 C 334.918 4.74161 1.6576 0
M  V30 3627 C 336.912 6.34916 0.562129 0
M  V30 3628 C 334.599 6.00067 1.15595 0
M  V30 3629 C 335.597 6.80278 0.609147 0
M  V30 3630 O 335.285 8.03818 0.114999 0
M  V30 3631 H 335.017 0.588881 0.331956 0
M  V30 3632 H 337.571 2.01614 0.392566 0
M  V30 3633 H 335.801 2.57443 2.88548 0
M  V30 3634 H 337.49 2.97461 2.76174 0
M  V30 3635 H 338.256 4.74213 1.01722 0
M  V30 3636 H 334.135 4.11781 2.07261 0
M  V30 3637 H 337.679 6.9747 0.134668 0
M  V30 3638 H 333.576 6.3433 1.19566 0
M  V30 3639 H 334.344 8.18172 0.231651 0
M  V30 3640 N 337.007 -0.598083 1.45811 0
M  V30 3641 C 337.917 -1.73632 1.57763 0
M  V30 3642 C 338.933 -1.67763 0.461676 0
M  V30 3643 O 340.109 -1.87949 0.723685 0
M  V30 3644 C 337.174 -3.10114 1.55018 0
M  V30 3645 C 336.235 -3.27364 2.77726 0
M  V30 3646 C 335.468 -4.57334 2.75102 0
M  V30 3647 O 335.691 -5.40258 1.8297 0
M  V30 3648 O 334.625 -4.77502 3.66437 0
M  V30 3649 H 338.451 -1.66498 2.53992 0
M  V30 3650 H 336.036 -0.763308 1.28429 0
M  V30 3651 H 337.918 -3.9141 1.56129 0
M  V30 3652 H 336.593 -3.17718 0.619431 0
M  V30 3653 H 335.5 -2.45619 2.82174 0
M  V30 3654 H 336.833 -3.24641 3.69958 0
M  V30 3655 N 338.485 -1.33259 -0.841409 0
M  V30 3656 C 339.433 -1.23279 -1.97244 0
M  V30 3657 C 340.427 -0.134706 -1.68864 0
M  V30 3658 O 341.633 -0.298501 -1.77508 0
M  V30 3659 H 338.008 -0.382497 -0.647457 0
M  V30 3660 H 339.979 -2.18906 -2.02787 0
M  V30 3661 C 338.728 -0.986268 -3.33419 0
M  V30 3662 H 338.051 -1.82347 -3.55794 0
M  V30 3663 H 339.491 -0.956728 -4.13065 0
M  V30 3664 C 337.95 0.310842 -3.35463 0
M  V30 3665 O 338.48 1.31838 -3.79449 0
M  V30 3666 N 336.686 0.337485 -2.88634 0
M  V30 3667 H 336.233 -0.482967 -2.53032 0
M  V30 3668 H 336.191 1.20518 -2.90384 0
M  V30 3669 N 339.963 1.05934 -1.16686 0
M  V30 3670 C 340.926 2.11669 -0.879144 0
M  V30 3671 C 341.926 1.60294 0.127445 0
M  V30 3672 O 343.116 1.7389 -0.103865 0
M  V30 3673 C 340.248 3.39438 -0.315425 0
M  V30 3674 H 341.441 2.38626 -1.81653 0
M  V30 3675 H 338.994 1.22058 -0.976299 0
M  V30 3676 H 339.729 3.18132 0.629468 0
M  V30 3677 H 339.514 3.78034 -1.04079 0
M  V30 3678 H 341.004 4.17391 -0.132189 0
M  V30 3679 N 341.441 0.965919 1.2453 0
M  V30 3680 C 342.69 0.622437 1.91856 0
M  V30 3681 C 343.003 -0.846006 1.76358 0
M  V30 3682 O 344.209 -1.29993 2.38357 0
M  V30 3683 C 342.665 1.0626 3.43856 0
M  V30 3684 C 342.273 2.55437 3.68043 0
M  V30 3685 C 344.017 0.792183 4.17043 0
M  V30 3686 C 341.924 2.93196 5.13605 0
M  V30 3687 H 340.854 0.229092 0.718354 0
M  V30 3688 H 343.505 1.17189 1.41206 0
M  V30 3689 H 341.887 0.441476 3.93531 0
M  V30 3690 H 343.061 3.22665 3.28974 0
M  V30 3691 H 341.376 2.8007 3.08139 0
M  V30 3692 H 343.973 1.05031 5.24283 0
M  V30 3693 H 344.316 -0.271584 4.15413 0
M  V30 3694 H 344.849 1.37419 3.73311 0
M  V30 3695 H 341.588 3.98636 5.20355 0
M  V30 3696 H 341.108 2.30651 5.53679 0
M  V30 3697 H 342.787 2.83004 5.81823 0
M  V30 3698 N 342.919 -1.39368 0.735821 0
M  V30 3699 C 344.159 -2.02349 0.288813 0
M  V30 3700 C 344.523 -1.57127 -1.10341 0
M  V30 3701 O 345.724 -2.12312 -1.64854 0
M  V30 3702 C 343.995 -3.55288 0.387986 0
M  V30 3703 S 345.554 -4.38795 0.0209408 0
M  V30 3704 H 342.372 -0.701944 0.113115 0
M  V30 3705 H 344.974 -1.70164 0.962518 0
M  V30 3706 H 343.678 -3.85691 1.40252 0
M  V30 3707 H 343.209 -3.92227 -0.303512 0
M  V30 3708 H 345.224 -4.81595 -1.19503 0
M  V30 3709 N 344.397 -0.483516 -1.5 0
M  V30 3710 C 345.307 0.309172 -2.32554 0
M  V30 3711 C 346.323 0.984159 -1.43493 0
M  V30 3712 O 347.499 0.969399 -1.76535 0
M  V30 3713 C 344.564 1.36979 -3.18493 0
M  V30 3714 C 343.625 0.710095 -4.23387 0
M  V30 3715 C 342.858 1.72018 -5.05218 0
M  V30 3716 O 343.081 2.94813 -4.88305 0
M  V30 3717 O 342.015 1.28515 -5.8802 0
M  V30 3718 H 345.841 -0.366064 -3.01486 0
M  V30 3719 H 343.426 -0.24514 -1.47375 0
M  V30 3720 H 345.308 1.98385 -3.71781 0
M  V30 3721 H 343.983 2.02828 -2.52275 0
M  V30 3722 H 342.89 0.0567539 -3.74057 0
M  V30 3723 H 344.223 0.0943557 -4.9211 0
M  V30 3724 N 345.875 1.56104 -0.216619 0
M  V30 3725 C 346.807 2.17339 0.72776 0
M  V30 3726 C 347.82 1.14109 1.16116 0
M  V30 3727 O 349.009 1.4111 1.09317 0
M  V30 3728 C 346.109 2.73818 1.99693 0
M  V30 3729 C 345.282 4.02168 1.71988 0
M  V30 3730 C 344.341 4.43259 2.83562 0
M  V30 3731 O 343.367 5.10257 2.52244 0
M  V30 3732 N 344.569 4.08535 4.12407 0
M  V30 3733 H 347.334 2.99005 0.203983 0
M  V30 3734 H 344.895 1.61861 -0.0354289 0
M  V30 3735 H 346.887 2.9828 2.73516 0
M  V30 3736 H 345.457 1.96483 2.43132 0
M  V30 3737 H 344.677 3.85612 0.818337 0
M  V30 3738 H 345.965 4.85907 1.50903 0
M  V30 3739 H 345.363 3.54687 4.40696 0
M  V30 3740 H 343.92 4.37901 4.8279 0
M  V30 3741 N 347.353 -0.0568162 1.57498 0
M  V30 3742 C 348.285 -1.09292 2.01464 0
M  V30 3743 C 349.298 -1.34112 0.922913 0
M  V30 3744 O 350.487 -1.32089 1.20062 0
M  V30 3745 C 347.587 -2.44068 2.35125 0
M  V30 3746 C 346.76 -2.38995 3.66333 0
M  V30 3747 C 345.819 -3.55997 3.87495 0
M  V30 3748 O 344.845 -3.36746 4.58901 0
M  V30 3749 N 346.047 -4.76888 3.30996 0
M  V30 3750 H 348.812 -0.718386 2.90963 0
M  V30 3751 H 346.373 -0.245235 1.60032 0
M  V30 3752 H 348.365 -3.21011 2.46443 0
M  V30 3753 H 346.935 -2.73468 1.5144 0
M  V30 3754 H 346.155 -1.47336 3.65631 0
M  V30 3755 H 347.443 -2.3272 4.52458 0
M  V30 3756 H 346.841 -4.95431 2.73065 0
M  V30 3757 H 345.398 -5.51291 3.47738 0
M  V30 3758 N 348.832 -1.54138 -0.328536 0
M  V30 3759 C 349.762 -1.86167 -1.40939 0
M  V30 3760 C 350.743 -0.718044 -1.54202 0
M  V30 3761 O 351.928 -0.971328 -1.68163 0
M  V30 3762 C 349.058 -2.08461 -2.77779 0
M  V30 3763 C 348.012 -3.24299 -2.7931 0
M  V30 3764 C 347.338 -3.31955 -4.19178 0
M  V30 3765 C 348.638 -4.62065 -2.43502 0
M  V30 3766 H 350.332 -2.76689 -1.14383 0
M  V30 3767 H 347.878 -1.33132 -0.548806 0
M  V30 3768 H 349.831 -2.29453 -3.53454 0
M  V30 3769 H 348.555 -1.14684 -3.05802 0
M  V30 3770 H 347.214 -3.03187 -2.0609 0
M  V30 3771 H 346.862 -2.35745 -4.44335 0
M  V30 3772 H 346.562 -4.09805 -4.2111 0
M  V30 3773 H 348.086 -3.55175 -4.96672 0
M  V30 3774 H 349.5 -4.8297 -3.08889 0
M  V30 3775 H 347.897 -5.42429 -2.56693 0
M  V30 3776 H 348.967 -4.64652 -1.38659 0
M  V30 3777 N 350.31 0.590341 -1.46126 0
M  V30 3778 C 351.559 1.34499 -1.50309 0
M  V30 3779 C 351.872 1.94977 -0.156021 0
M  V30 3780 O 353.078 2.71395 -0.0756037 0
M  V30 3781 C 351.534 2.43723 -2.64815 0
M  V30 3782 C 351.142 1.89582 -4.0591 0
M  V30 3783 C 352.886 3.20579 -2.78262 0
M  V30 3784 C 350.793 2.9639 -5.11769 0
M  V30 3785 H 349.723 0.505593 -0.559368 0
M  V30 3786 H 352.374 0.630848 -1.72315 0
M  V30 3787 H 350.756 3.17902 -2.36124 0
M  V30 3788 H 351.93 1.21997 -4.44357 0
M  V30 3789 H 350.245 1.25418 -3.97063 0
M  V30 3790 H 352.842 4.00276 -3.54519 0
M  V30 3791 H 353.185 3.72684 -1.85505 0
M  V30 3792 H 353.718 2.53505 -3.06562 0
M  V30 3793 H 350.457 2.49181 -6.06291 0
M  V30 3794 H 349.977 3.62487 -4.77873 0
M  V30 3795 H 351.656 3.60474 -5.37278 0
M  V30 3796 N 351.788 1.33704 0.83433 0
M  V30 3797 C 352.721 1.18675 1.94914 0
M  V30 3798 C 353.699 0.0811145 1.62398 0
M  V30 3799 O 354.883 0.244186 1.86912 0
M  V30 3800 C 352.01 0.821231 3.28593 0
M  V30 3801 C 351.056 1.93501 3.80079 0
M  V30 3802 S 351.889 3.54671 4.01209 0
M  V30 3803 C 353.045 3.20136 5.37833 0
M  V30 3804 H 353.278 2.13043 2.07364 0
M  V30 3805 H 350.811 1.18598 0.988624 0
M  V30 3806 H 352.769 0.617123 4.05835 0
M  V30 3807 H 351.43 -0.103927 3.13928 0
M  V30 3808 H 350.623 1.63273 4.76821 0
M  V30 3809 H 350.225 2.09601 3.09747 0
M  V30 3810 H 352.517 2.71242 6.20833 0
M  V30 3811 H 353.46 4.15975 5.73036 0
M  V30 3812 H 353.868 2.56613 5.02802 0
M  V30 3813 N 353.266 -1.05314 1.17247 0
M  V30 3814 C 354.506 -1.79869 0.970898 0
M  V30 3815 C 354.87 -1.85594 -0.491808 0
M  V30 3816 O 356.071 -2.56229 -0.812409 0
M  V30 3817 C 354.342 -3.19937 1.59295 0
M  V30 3818 S 355.901 -4.10986 1.53741 0
M  V30 3819 H 352.719 -0.61949 0.348931 0
M  V30 3820 H 355.321 -1.26368 1.49169 0
M  V30 3821 H 354.025 -3.13372 2.65003 0
M  V30 3822 H 353.556 -3.78515 1.07191 0
M  V30 3823 H 355.571 -4.93203 0.544537 0
M  V30 3824 N 354.744 -0.972509 -1.24016 0
M  V30 3825 C 355.993 -0.632603 -1.91523 0
M  V30 3826 C 356.306 0.836641 -1.76804 0
M  V30 3827 O 357.512 1.28728 -2.39043 0
M  V30 3828 C 355.968 -1.08082 -3.43287 0
M  V30 3829 C 355.576 -2.57386 -3.66683 0
M  V30 3830 C 357.32 -0.814288 -4.16617 0
M  V30 3831 C 355.227 -2.95915 -5.12043 0
M  V30 3832 H 354.157 -0.232898 -0.717129 0
M  V30 3833 H 356.808 -1.17936 -1.40582 0
M  V30 3834 H 355.19 -0.462339 -3.93292 0
M  V30 3835 H 356.364 -3.24405 -3.27258 0
M  V30 3836 H 354.679 -2.81701 -3.06649 0
M  V30 3837 H 357.276 -1.0781 -5.23718 0
M  V30 3838 H 357.619 0.24955 -4.15551 0
M  V30 3839 H 358.152 -1.39397 -3.72577 0
M  V30 3840 H 354.891 -4.0139 -5.18234 0
M  V30 3841 H 354.411 -2.33584 -5.52448 0
M  V30 3842 H 356.09 -2.86086 -5.80314 0
M  V30 3843 N 356.222 1.38976 -0.743202 0
M  V30 3844 C 357.169 2.30544 -0.10861 0
M  V30 3845 C 358.139 1.49642 0.720869 0
M  V30 3846 O 359.324 1.78304 0.679142 0
M  V30 3847 C 356.464 3.36018 0.786496 0
M  V30 3848 C 355.577 4.31963 -0.0564849 0
M  V30 3849 C 354.712 5.24506 0.840657 0
M  V30 3850 C 353.751 6.121 -0.00658363 0
M  V30 3851 N 352.888 6.96973 0.846943 0
M  V30 3852 H 357.728 2.8424 -0.895088 0
M  V30 3853 H 355.265 1.3995 -0.453048 0
M  V30 3854 H 357.223 3.95768 1.31999 0
M  V30 3855 H 355.853 2.83758 1.53887 0
M  V30 3856 H 354.905 3.73763 -0.707492 0
M  V30 3857 H 356.217 4.93703 -0.711229 0
M  V30 3858 H 355.371 5.89322 1.4417 0
M  V30 3859 H 354.11 4.63107 1.52916 0
M  V30 3860 H 353.115 5.46289 -0.620366 0
M  V30 3861 H 354.34 6.75565 -0.691992 0
M  V30 3862 H 352.286 6.38133 1.52059 0
M  V30 3863 H 352.203 7.5559 0.248864 0
M  V30 3864 H 353.471 7.6621 1.43328 0
M  V30 3865 N 357.7 0.491464 1.49741 0
M  V30 3866 C 358.925 -0.0557177 2.07325 0
M  V30 3867 C 359.35 -1.30925 1.35056 0
M  V30 3868 O 358.708 -1.76733 0.404365 0
M  V30 3869 C 358.756 -0.302074 3.59333 0
M  V30 3870 O 357.86 -1.37868 3.88672 0
M  V30 3871 H 357.201 0.0219956 0.663636 0
M  V30 3872 H 359.731 0.688352 1.92673 0
M  V30 3873 H 359.741 -0.536464 4.04458 0
M  V30 3874 H 358.416 0.61383 4.11345 0
M  V30 3875 H 356.993 -1.12999 3.55367 0
M  V30 3876 N 359.178 -1.55987 0.224894 0
M  V30 3877 C 360.426 -1.97998 -0.405099 0
M  V30 3878 C 360.747 -1.11387 -1.60056 0
M  V30 3879 O 360.017 -0.191645 -1.9496 0
M  V30 3880 H 358.597 -0.731235 -0.152658 0
M  V30 3881 H 361.259 -1.92279 0.318567 0
M  V30 3882 H 360.355 -3.03463 -0.729167 0
M  V30 3883 N 360.656 0.0484629 -1.57525 0
M  V30 3884 C 361.604 1.07359 -2.06341 0
M  V30 3885 C 362.598 1.3865 -0.973269 0
M  V30 3886 O 363.804 1.37783 -1.15827 0
M  V30 3887 H 360.179 0.363662 -0.65822 0
M  V30 3888 H 362.15 0.635916 -2.91545 0
M  V30 3889 C 360.899 2.37198 -2.54229 0
M  V30 3890 H 360.222 2.13977 -3.37719 0
M  V30 3891 H 361.662 3.07319 -2.92115 0
M  V30 3892 C 360.121 3.04805 -1.43511 0
M  V30 3893 O 360.651 3.93848 -0.79034 0
M  V30 3894 N 358.857 2.65811 -1.17444 0
M  V30 3895 H 358.404 1.93488 -1.70059 0
M  V30 3896 H 358.362 3.11366 -0.435737 0
M  V30 3897 N 362.134 1.5431 0.320358 0
M  V30 3898 C 363.55 1.45091 0.664889 0
M  V30 3899 C 363.75 0.626382 1.91517 0
M  V30 3900 O 362.806 0.126443 2.52183 0
M  V30 3901 C 364.119 2.88848 0.83591 0
M  V30 3902 C 365.667 2.9877 0.933046 0
M  V30 3903 C 366.142 4.43683 1.13621 0
M  V30 3904 N 367.633 4.47309 1.20287 0
M  V30 3905 C 368.368 5.56595 1.37801 0
M  V30 3906 N 367.864 6.75844 1.52338 0
M  V30 3907 N 369.657 5.44248 1.40535 0
M  V30 3908 H 361.808 2.06398 -0.501374 0
M  V30 3909 H 364.071 0.933963 -0.162534 0
M  V30 3910 H 363.777 3.51698 -0.0116092 0
M  V30 3911 H 363.651 3.35148 1.73078 0
M  V30 3912 H 366.038 2.36045 1.77107 0
M  V30 3913 H 366.119 2.55796 0.0145782 0
M  V30 3914 H 365.763 5.06995 0.303032 0
M  V30 3915 H 365.693 4.84269 2.0686 0
M  V30 3916 H 368.184 3.61388 1.10485 0
M  V30 3917 H 368.497 7.54892 1.65403 0
M  V30 3918 H 366.842 6.78746 1.4943 0
M  V30 3919 H 370.033 4.50038 1.28777 0
M  V30 3920 H 370.206 6.29473 1.53842 0
M  V30 3921 N 363.613 -0.582584 1.46437 0
M  V30 3922 C 365.024 -1.1647 1.45916 0
M  V30 3923 C 365.375 -1.95177 0.200077 0
M  V30 3924 O 364.5 -2.04874 -0.696819 0
M  V30 3925 C 365.095 -2.11885 2.64367 0
M  V30 3926 C 363.654 -2.65421 2.66887 0
M  V30 3927 C 362.801 -1.41294 2.38603 0
M  V30 3928 H 365.752 -0.370514 1.54314 0
M  V30 3929 H 365.773 -2.9535 2.39892 0
M  V30 3930 H 365.285 -1.54573 3.5599 0
M  V30 3931 H 363.386 -3.26602 1.79338 0
M  V30 3932 H 363.499 -3.08147 3.66854 0
M  V30 3933 H 361.863 -1.71109 1.88663 0
M  V30 3934 H 362.646 -0.858125 3.32402 0
M  V30 3935 N 365.091 -1.34144 -0.827227 0
M  V30 3936 C 366.368 -1.16844 -1.56865 0
M  V30 3937 C 366.748 0.260654 -2.09485 0
M  V30 3938 O 366.096 1.26138 -1.9053 0
M  V30 3939 C 366.306 -2.21939 -2.6934 0
M  V30 3940 C 367.654 -2.56695 -3.3822 0
M  V30 3941 O 368.678 -2.20695 -2.79593 0
M  V30 3942 O 367.537 -3.18518 -4.44082 0
M  V30 3943 H 364.631 -0.452669 -0.692112 0
M  V30 3944 H 367.177 -1.45763 -0.868973 0
M  V30 3945 H 365.949 -3.17882 -2.28182 0
M  V30 3946 H 365.572 -1.94172 -3.46962 0
M  V30 3947 N 366.569 1.04691 -1.17803 0
M  V30 3948 C 367.815 1.78045 -0.970969 0
M  V30 3949 C 368.148 1.87686 0.498751 0
M  V30 3950 O 367.423 1.38035 1.37027 0
M  V30 3951 C 367.706 3.2166 -1.61884 0
M  V30 3952 C 367.559 3.20001 -3.161 0
M  V30 3953 C 368.878 4.1962 -1.3269 0
M  V30 3954 H 365.997 0.64633 -0.354155 0
M  V30 3955 H 368.639 1.22333 -1.45378 0
M  V30 3956 H 366.789 3.69232 -1.20831 0
M  V30 3957 H 368.461 2.80467 -3.66246 0
M  V30 3958 H 366.704 2.58203 -3.48588 0
M  V30 3959 H 367.375 4.21386 -3.56564 0
M  V30 3960 H 369.851 3.80567 -1.68249 0
M  V30 3961 H 368.727 5.18339 -1.80599 0
M  V30 3962 H 368.988 4.414 -0.248622 0
M  V30 3963 N 368.047 0.979072 1.23499 0
M  V30 3964 C 369.324 0.563674 1.87302 0
M  V30 3965 C 369.704 -0.959199 1.88049 0
M  V30 3966 O 369.052 -1.83535 1.36114 0
M  V30 3967 C 369.262 1.16822 3.28867 0
M  V30 3968 C 370.61 1.26014 4.0547 0
M  V30 3969 O 371.634 1.12158 3.38082 0
M  V30 3970 O 370.493 1.48044 5.26066 0
M  V30 3971 H 367.587 0.189602 0.804972 0
M  V30 3972 H 370.133 1.07407 1.31384 0
M  V30 3973 H 368.905 2.21049 3.22883 0
M  V30 3974 H 368.528 0.642564 3.92373 0
M  V30 3975 N 369.525 -1.3858 0.750561 0
M  V30 3976 C 370.802 -1.94231 0.231009 0
M  V30 3977 C 371.182 -1.68611 -1.27018 0
M  V30 3978 O 370.53 -1.02296 -2.04323 0
M  V30 3979 C 370.74 -3.44123 0.581428 0
M  V30 3980 C 372.088 -4.2116 0.539389 0
M  V30 3981 O 373.112 -3.52391 0.519541 0
M  V30 3982 O 371.971 -5.43749 0.54765 0
M  V30 3983 H 369.065 -0.825639 0.0474263 0
M  V30 3984 H 371.611 -1.4799 0.830478 0
M  V30 3985 H 370.383 -3.56267 1.61833 0
M  V30 3986 H 370.006 -3.97573 -0.0462047 0
M  V30 3987 N 371.003 -0.499398 -1.49478 0
M  V30 3988 C 372.252 0.0475259 -2.01644 0
M  V30 3989 C 372.565 1.38195 -1.38425 0
M  V30 3990 O 373.771 2.01547 -1.8191 0
M  V30 3991 C 372.227 0.135164 -3.59646 0
M  V30 3992 C 371.835 -1.19252 -4.31837 0
M  V30 3993 C 373.579 0.632538 -4.19761 0
M  V30 3994 C 371.486 -1.06713 -5.81693 0
M  V30 3995 H 370.416 0.0215349 -0.753692 0
M  V30 3996 H 373.067 -0.638577 -1.7203 0
M  V30 3997 H 371.449 0.885681 -3.85969 0
M  V30 3998 H 372.623 -1.9562 -4.17216 0
M  V30 3999 H 370.938 -1.62321 -3.83459 0
M  V30 4000 H 373.535 0.743833 -5.29501 0
M  V30 4001 H 373.878 1.63098 -3.83021 0
M  V30 4002 H 374.411 -0.0613987 -3.97753 0
M  V30 4003 H 371.15 -2.03979 -6.22955 0
M  V30 4004 H 370.67 -0.344307 -5.98811 0
M  V30 4005 H 372.349 -0.745208 -6.42694 0
M  V30 4006 N 372.481 1.55866 -0.233164 0
M  V30 4007 C 373.709 2.02998 0.399905 0
M  V30 4008 C 374.124 1.11274 1.52524 0
M  V30 4009 O 373.481 0.124528 1.82075 0
M  V30 4010 C 373.532 3.4958 0.920639 0
M  V30 4011 O 373.253 4.37808 -0.159834 0
M  V30 4012 C 374.754 4.12411 1.62578 0
M  V30 4013 H 371.974 0.664006 0.0966281 0
M  V30 4014 H 374.518 2.0143 -0.353013 0
M  V30 4015 H 372.673 3.51727 1.62379 0
M  V30 4016 H 373.087 5.23981 0.23337 0
M  V30 4017 H 374.561 5.16711 1.94201 0
M  V30 4018 H 375.038 3.5809 2.54299 0
M  V30 4019 H 375.644 4.14148 0.967553 0
M  V30 4020 N 373.959 -0.0401083 1.57549 0
M  V30 4021 C 374.869 -1.06133 2.0922 0
M  V30 4022 C 375.885 -1.40356 1.0284 0
M  V30 4023 O 377.061 -1.49897 1.34509 0
M  V30 4024 C 374.126 -2.34658 2.55218 0
M  V30 4025 C 373.187 -2.07117 3.76033 0
M  V30 4026 C 372.42 -3.29514 4.19829 0
M  V30 4027 O 372.643 -4.39794 3.63232 0
M  V30 4028 O 371.577 -3.15863 5.12362 0
M  V30 4029 H 375.403 -0.652244 2.96613 0
M  V30 4030 H 372.988 -0.256368 1.47184 0
M  V30 4031 H 374.87 -3.10239 2.85184 0
M  V30 4032 H 373.545 -2.74883 1.70941 0
M  V30 4033 H 372.452 -1.29139 3.51104 0
M  V30 4034 H 373.785 -1.71754 4.61261 0
M  V30 4035 N 375.437 -1.54477 -0.31217 0
M  V30 4036 C 376.667 -1.76948 -1.06645 0
M  V30 4037 C 377.075 -0.523593 -1.81811 0
M  V30 4038 O 376.418 0.51578 -1.76311 0
M  V30 4039 C 376.48 -2.91668 -2.10166 0
M  V30 4040 C 376.144 -4.30165 -1.54296 0
M  V30 4041 C 377.141 -5.10603 -0.978793 0
M  V30 4042 C 374.826 -4.76738 -1.58196 0
M  V30 4043 C 376.82 -6.3573 -0.461048 0
M  V30 4044 C 374.507 -6.01831 -1.06034 0
M  V30 4045 C 375.505 -6.81161 -0.500844 0
M  V30 4046 O 375.193 -8.03899 0.0128958 0
M  V30 4047 H 374.925 -0.594088 -0.322546 0
M  V30 4048 H 377.479 -2.02213 -0.360441 0
M  V30 4049 H 375.709 -2.62001 -2.84416 0
M  V30 4050 H 377.398 -3.01817 -2.71406 0
M  V30 4051 H 378.164 -4.75771 -0.941651 0
M  V30 4052 H 374.043 -4.15027 -2.00683 0
M  V30 4053 H 377.587 -6.97596 -0.0236894 0
M  V30 4054 H 373.484 -6.36152 -1.09459 0
M  V30 4055 H 374.252 -8.18437 -0.101457 0
M  V30 4056 N 376.915 0.57481 -1.46744 0
M  V30 4057 C 378.155 1.34369 -1.54027 0
M  V30 4058 C 378.519 1.91051 -0.190642 0
M  V30 4059 O 379.72 2.68444 -0.138255 0
M  V30 4060 C 377.991 2.43706 -2.61423 0
M  V30 4061 S 379.55 3.30915 -2.88167 0
M  V30 4062 H 376.368 0.45768 -0.544105 0
M  V30 4063 H 378.97 0.659959 -1.84024 0
M  V30 4064 H 377.674 2.0047 -3.58106 0
M  V30 4065 H 377.205 3.16842 -2.33184 0
M  V30 4066 H 379.22 4.42742 -2.24039 0
M  V30 4067 N 378.394 1.34581 0.820102 0
M  V30 4068 C 379.805 1.24298 1.39309 0
M  V30 4069 C 380.156 -0.130351 1.95767 0
M  V30 4070 O 379.281 -1.0308 1.90272 0
M  V30 4071 C 379.876 2.25054 2.53251 0
M  V30 4072 C 378.435 2.18552 3.0645 0
M  V30 4073 C 377.582 2.11503 1.79337 0
M  V30 4074 H 380.533 1.45906 0.624262 0
M  V30 4075 H 380.554 1.86917 3.31425 0
M  V30 4076 H 380.066 3.24996 2.1213 0
M  V30 4077 H 378.167 1.21976 3.52069 0
M  V30 4078 H 378.28 3.0993 3.65349 0
M  V30 4079 H 376.644 1.57268 2.00347 0
M  V30 4080 H 377.427 3.13284 1.40386 0
M  V30 4081 N 379.872 -1.04064 1.18357 0
M  V30 4082 C 381.288 -1.2947 0.933258 0
M  V30 4083 C 381.488 -1.97466 -0.401169 0
M  V30 4084 O 380.544 -2.25528 -1.13549 0
M  V30 4085 C 381.857 -2.15337 2.09882 0
M  V30 4086 C 383.405 -2.28683 2.13712 0
M  V30 4087 C 383.88 -3.17917 3.29686 0
M  V30 4088 N 385.371 -3.25504 3.29547 0
M  V30 4089 C 386.106 -3.94706 4.15926 0
M  V30 4090 N 385.602 -4.66239 5.12439 0
M  V30 4091 N 387.395 -3.90986 4.0384 0
M  V30 4092 H 379.546 -0.583359 2.04232 0
M  V30 4093 H 381.809 -0.319921 0.892387 0
M  V30 4094 H 381.515 -1.72682 3.06389 0
M  V30 4095 H 381.389 -3.16015 2.05947 0
M  V30 4096 H 383.776 -2.70575 1.17784 0
M  V30 4097 H 383.857 -1.27596 2.21705 0
M  V30 4098 H 383.501 -2.76736 4.25887 0
M  V30 4099 H 383.431 -4.19036 3.1893 0
M  V30 4100 H 385.922 -2.74547 2.59677 0
M  V30 4101 H 386.235 -5.16638 5.74722 0
M  V30 4102 H 384.58 -4.65143 5.16398 0
M  V30 4103 H 387.771 -3.34234 3.27727 0
M  V30 4104 H 387.944 -4.44646 4.71375 0
M  V30 4105 N 381.35 -0.985608 -1.22978 0
M  V30 4106 C 382.26 -0.538548 -2.28335 0
M  V30 4107 C 383.276 0.409163 -1.69121 0
M  V30 4108 O 384.452 0.277797 -1.99475 0
M  V30 4109 C 381.517 0.146867 -3.46389 0
M  V30 4110 C 380.578 -0.842896 -4.20944 0
M  V30 4111 C 379.811 -0.190095 -5.33361 0
M  V30 4112 O 380.034 1.01767 -5.61248 0
M  V30 4113 O 378.968 -0.891289 -5.95264 0
M  V30 4114 H 382.794 -1.41487 -2.68729 0
M  V30 4115 H 380.379 -0.753495 -1.29007 0
M  V30 4116 H 382.261 0.531125 -4.1804 0
M  V30 4117 H 380.936 0.997871 -3.07935 0
M  V30 4118 H 379.843 -1.27795 -3.51595 0
M  V30 4119 H 381.176 -1.66287 -4.6326 0
M  V30 4120 N 382.828 1.3818 -0.7579 0
M  V30 4121 C 384.077 1.99261 -0.312744 0
M  V30 4122 C 384.39 1.60846 1.11301 0
M  V30 4123 O 385.596 2.14929 1.65885 0
M  V30 4124 C 384.052 3.56294 -0.50821 0
M  V30 4125 C 383.66 4.03657 -1.94333 0
M  V30 4126 C 385.404 4.24313 -0.125982 0
M  V30 4127 C 383.311 5.53347 -2.08712 0
M  V30 4128 H 382.241 0.745456 -0.113185 0
M  V30 4129 H 384.892 1.57889 -0.935056 0
M  V30 4130 H 383.274 3.95575 0.183353 0
M  V30 4131 H 384.448 3.75655 -2.66871 0
M  V30 4132 H 382.763 3.48376 -2.28086 0
M  V30 4133 H 385.36 5.34279 -0.212125 0
M  V30 4134 H 385.703 4.05962 0.921964 0
M  V30 4135 H 386.236 3.90285 -0.769563 0
M  V30 4136 H 382.975 5.76607 -3.11777 0
M  V30 4137 H 382.495 5.83078 -1.4064 0
M  V30 4138 H 384.174 6.19111 -1.87912 0
M  V30 4139 N 384.306 0.507319 1.49211 0
M  V30 4140 C 385.555 -0.0368315 2.01666 0
M  V30 4141 C 385.868 -1.37459 1.39156 0
M  V30 4142 O 387.074 -2.00579 1.82976 0
M  V30 4143 C 385.53 -0.116089 3.59713 0
M  V30 4144 C 385.138 1.2154 4.31198 0
M  V30 4145 C 386.882 -0.610268 4.2009 0
M  V30 4146 C 384.789 1.09796 5.81119 0
M  V30 4147 H 383.719 -0.0175376 0.753796 0
M  V30 4148 H 386.37 0.647691 1.71689 0
M  V30 4149 H 384.752 -0.8652 3.86433 0
M  V30 4150 H 385.926 1.9783 4.16173 0
M  V30 4151 H 384.241 1.64352 3.82593 0
M  V30 4152 H 386.838 -0.715742 5.29888 0
M  V30 4153 H 387.181 -1.61064 3.8388 0
M  V30 4154 H 387.714 0.0824916 3.97714 0
M  V30 4155 H 384.453 2.0728 6.21864 0
M  V30 4156 H 383.973 0.376058 5.9862 0
M  V30 4157 H 385.652 0.779281 6.4229 0
M  V30 4158 N 385.784 -1.5574 0.241426 0
M  V30 4159 C 387.009 -2.0366 -0.392111 0
M  V30 4160 C 387.434 -1.11969 -1.51144 0
M  V30 4161 O 386.792 -0.111594 -1.80956 0
M  V30 4162 C 386.84 -3.49638 -0.882371 0
M  V30 4163 O 385.944 -3.6108 -1.99235 0
M  V30 4164 H 385.285 -0.658379 -0.0862122 0
M  V30 4165 H 387.815 -2.01302 0.365881 0
M  V30 4166 H 387.825 -3.90351 -1.18702 0
M  V30 4167 H 386.5 -4.15852 -0.0632361 0
M  V30 4168 H 385.077 -3.32262 -1.69282 0
M  V30 4169 N 387.262 0.0317525 -1.57568 0
M  V30 4170 C 388.192 1.03274 -2.0942 0
M  V30 4171 C 389.173 1.3788 -0.996143 0
M  V30 4172 O 390.358 1.46811 -1.27122 0
M  V30 4173 C 387.488 2.33448 -2.57137 0
M  V30 4174 C 386.442 2.13091 -3.71182 0
M  V30 4175 C 385.768 3.49001 -4.05095 0
M  V30 4176 C 387.068 1.51928 -4.99715 0
M  V30 4177 H 388.762 0.60112 -2.93303 0
M  V30 4178 H 386.308 0.287705 -1.41097 0
M  V30 4179 H 388.261 3.03802 -2.92032 0
M  V30 4180 H 386.985 2.78665 -1.70333 0
M  V30 4181 H 385.644 1.45171 -3.36632 0
M  V30 4182 H 385.292 3.91862 -3.15362 0
M  V30 4183 H 384.992 3.36207 -4.81911 0
M  V30 4184 H 386.516 4.20721 -4.42522 0
M  V30 4185 H 387.93 2.12196 -5.32584 0
M  V30 4186 H 386.327 1.49716 -5.81124 0
M  V30 4187 H 387.397 0.484811 -4.8247 0
M  V30 4188 N 388.74 1.54641 0.303973 0
M  V30 4189 C 389.673 1.80263 1.3993 0
M  V30 4190 C 390.651 0.653657 1.48883 0
M  V30 4191 O 391.835 0.893284 1.6599 0
M  V30 4192 C 388.962 1.9367 2.77866 0
M  V30 4193 C 388.008 3.16078 2.86351 0
M  V30 4194 S 388.841 4.74219 2.4875 0
M  V30 4195 C 389.997 4.90558 3.88721 0
M  V30 4196 H 390.23 2.72886 1.17986 0
M  V30 4197 H 387.763 1.46014 0.501918 0
M  V30 4198 H 389.721 2.0208 3.57315 0
M  V30 4199 H 388.382 1.01991 2.9708 0
M  V30 4200 H 387.575 3.22252 3.87517 0
M  V30 4201 H 387.177 3.06099 2.14893 0
M  V30 4202 H 389.469 4.74398 4.83687 0
M  V30 4203 H 390.412 5.92651 3.87518 0
M  V30 4204 H 390.82 4.18728 3.78585 0
M  V30 4205 N 390.218 -0.567019 1.47046 0
M  V30 4206 C 391.165 -1.67489 1.58796 0
M  V30 4207 C 392.135 -1.60399 0.43144 0
M  V30 4208 O 393.32 -1.79378 0.650233 0
M  V30 4209 C 390.46 -3.05821 1.59899 0
M  V30 4210 C 389.573 -3.2342 2.86397 0
M  V30 4211 C 388.708 -4.52093 2.789 0
M  V30 4212 C 387.747 -4.6309 4.00267 0
M  V30 4213 N 386.884 -5.83106 3.91064 0
M  V30 4214 H 391.724 -1.56785 2.53422 0
M  V30 4215 H 389.261 -0.763896 1.2571 0
M  V30 4216 H 391.219 -3.8591 1.58522 0
M  V30 4217 H 389.849 -3.15384 0.687929 0
M  V30 4218 H 388.901 -2.3683 2.97684 0
M  V30 4219 H 390.213 -3.27412 3.76301 0
M  V30 4220 H 389.367 -5.4043 2.75718 0
M  V30 4221 H 388.106 -4.50565 1.86662 0
M  V30 4222 H 387.111 -3.73168 4.03765 0
M  V30 4223 H 388.336 -4.66386 4.93621 0
M  V30 4224 H 386.282 -5.82546 3.01623 0
M  V30 4225 H 386.199 -5.88434 4.74638 0
M  V30 4226 H 387.467 -6.73831 3.91882 0
M  V30 4227 N 391.696 -1.35014 -0.812953 0
M  V30 4228 C 392.626 -1.30069 -1.93919 0
M  V30 4229 C 393.607 -0.176275 -1.69184 0
M  V30 4230 O 394.792 -0.370227 -1.90638 0
M  V30 4231 C 391.922 -1.06547 -3.30552 0
M  V30 4232 C 390.876 -2.15561 -3.69753 0
M  V30 4233 C 390.202 -1.77214 -5.04479 0
M  V30 4234 C 391.502 -3.57476 -3.808 0
M  V30 4235 H 393.196 -2.24303 -1.98314 0
M  V30 4236 H 390.742 -1.07977 -0.952736 0
M  V30 4237 H 392.695 -1.01729 -4.08937 0
M  V30 4238 H 391.419 -0.0875719 -3.26483 0
M  V30 4239 H 390.078 -2.19466 -2.9365 0
M  V30 4240 H 389.726 -0.780589 -4.96906 0
M  V30 4241 H 389.426 -2.50184 -5.31678 0
M  V30 4242 H 390.95 -1.7391 -5.8531 0
M  V30 4243 H 392.364 -3.55929 -4.4943 0
M  V30 4244 H 390.761 -4.29152 -4.19462 0
M  V30 4245 H 391.831 -3.94091 -2.82525 0
M  V30 4246 N 393.175 1.03435 -1.18907 0
M  V30 4247 C 394.415 1.78302 -0.999391 0
M  V30 4248 C 394.779 1.86353 0.462219 0
M  V30 4249 O 395.98 2.57489 0.771543 0
M  V30 4250 C 394.251 3.17362 -1.64365 0
M  V30 4251 S 395.81 4.08488 -1.6026 0
M  V30 4252 H 392.628 0.613861 -0.358742 0
M  V30 4253 H 395.23 1.23979 -1.51161 0
M  V30 4254 H 393.934 3.09116 -2.69955 0
M  V30 4255 H 393.465 3.76762 -1.13199 0
M  V30 4256 H 395.48 4.92274 -0.622932 0
M  V30 4257 N 394.653 0.992116 1.22453 0
M  V30 4258 C 395.899 0.678177 1.91761 0
M  V30 4259 C 396.254 -0.781141 1.75829 0
M  V30 4260 O 395.547 -1.55747 1.11595 0
M  V30 4261 C 395.741 1.01832 3.42586 0
M  V30 4262 C 395.57 2.50916 3.73191 0
M  V30 4263 C 394.34 3.17308 3.93248 0
M  V30 4264 C 396.538 3.49032 3.77732 0
M  V30 4265 N 394.52 4.55876 4.11157 0
M  V30 4266 C 395.891 4.73055 4.00773 0
M  V30 4267 C 397.946 3.43349 3.60577 0
M  V30 4268 C 396.649 5.92089 4.0844 0
M  V30 4269 C 398.675 4.61759 3.69503 0
M  V30 4270 C 398.037 5.84582 3.92993 0
M  V30 4271 H 394.136 0.299425 0.722405 0
M  V30 4272 H 396.72 1.27197 1.47408 0
M  V30 4273 H 394.891 0.453118 3.85748 0
M  V30 4274 H 396.623 0.660454 3.99274 0
M  V30 4275 H 393.378 2.67778 3.9063 0
M  V30 4276 H 393.802 5.27748 4.24042 0
M  V30 4277 H 398.444 2.49408 3.41402 0
M  V30 4278 H 396.162 6.86435 4.26418 0
M  V30 4279 H 399.748 4.58951 3.57569 0
M  V30 4280 H 398.628 6.74676 3.99728 0
M  V30 4281 N 396.131 -1.37776 0.765217 0
M  V30 4282 C 397.041 -2.34135 0.147666 0
M  V30 4283 C 398.057 -1.59854 -0.687215 0
M  V30 4284 O 399.233 -1.91983 -0.608659 0
M  V30 4285 C 396.298 -3.3901 -0.72617 0
M  V30 4286 C 395.359 -4.2912 0.124417 0
M  V30 4287 C 394.592 -5.28986 -0.707807 0
M  V30 4288 O 394.815 -5.36205 -1.94525 0
M  V30 4289 O 393.749 -6.01779 -0.12046 0
M  V30 4290 H 397.575 -2.88664 0.943758 0
M  V30 4291 H 395.16 -1.39824 0.526277 0
M  V30 4292 H 397.042 -4.03195 -1.22524 0
M  V30 4293 H 395.717 -2.86819 -1.50056 0
M  V30 4294 H 394.624 -3.68057 0.669696 0
M  V30 4295 H 395.957 -4.84598 0.861736 0
M  V30 4296 N 397.609 -0.515225 -1.4894 0
M  V30 4297 C 398.572 0.244681 -2.2789 0
M  V30 4298 C 399.572 0.881166 -1.34507 0
M  V30 4299 O 400.762 0.743497 -1.57537 0
M  V30 4300 C 397.894 1.35247 -3.12923 0
M  V30 4301 H 399.087 -0.448289 -2.96531 0
M  V30 4302 H 396.64 -0.270656 -1.53939 0
M  V30 4303 H 397.375 2.07916 -2.48881 0
M  V30 4304 H 397.16 0.901374 -3.81599 0
M  V30 4305 H 398.65 1.88737 -3.72516 0
M  V30 4306 N 399.087 1.5561 -0.249682 0
M  V30 4307 C 400.035 2.22894 0.664906 0
M  V30 4308 C 401.029 1.21743 1.17792 0
M  V30 4309 O 402.235 1.39748 1.13449 0
M  V30 4310 H 398.61 0.715022 0.232912 0
M  V30 4311 H 400.581 2.98307 0.0742998 0
M  V30 4312 C 399.33 2.94424 1.84959 0
M  V30 4313 H 398.653 3.72031 1.46399 0
M  V30 4314 H 400.093 3.44862 2.4667 0
M  V30 4315 C 398.552 1.98454 2.72245 0
M  V30 4316 O 399.082 1.51939 3.71857 0
M  V30 4317 N 397.288 1.65496 2.38871 0
M  V30 4318 H 396.835 2.03517 1.57919 0
M  V30 4319 H 396.793 1.0155 2.97548 0
M  V30 4320 N 400.565 -0.0233959 1.57583 0
M  V30 4321 C 401.976 -0.56927 1.77809 0
M  V30 4322 C 402.327 -1.75284 0.881472 0
M  V30 4323 O 401.452 -2.1626 0.0777805 0
M  V30 4324 C 402.047 -1.03949 3.22459 0
M  V30 4325 C 400.606 -1.53084 3.43864 0
M  V30 4326 C 399.753 -0.471454 2.73263 0
M  V30 4327 H 402.704 0.202825 1.57399 0
M  V30 4328 H 402.725 -1.90661 3.29285 0
M  V30 4329 H 402.237 -0.177865 3.87692 0
M  V30 4330 H 400.338 -2.41414 2.83814 0
M  V30 4331 H 400.451 -1.57443 4.52491 0
M  V30 4332 H 398.815 -0.927788 2.37201 0
M  V30 4333 H 399.598 0.380808 3.41181 0
M  V30 4334 N 402.043 -1.548 -0.295768 0
M  V30 4335 C 402.953 -1.89177 -1.38742 0
M  V30 4336 C 403.969 -0.786481 -1.55211 0
M  V30 4337 O 405.145 -1.08344 -1.69775 0
M  V30 4338 C 402.21 -2.13663 -2.73036 0
M  V30 4339 C 401.271 -3.37349 -2.65508 0
M  V30 4340 C 400.504 -3.60658 -3.93398 0
M  V30 4341 O 400.727 -2.86882 -4.93006 0
M  V30 4342 O 399.661 -4.54179 -3.94975 0
M  V30 4343 H 403.487 -2.82059 -1.12589 0
M  V30 4344 H 401.072 -1.41056 -0.492295 0
M  V30 4345 H 402.954 -2.3094 -3.52484 0
M  V30 4346 H 401.629 -1.23967 -2.99022 0
M  V30 4347 H 400.536 -3.25431 -1.84514 0
M  V30 4348 H 401.869 -4.27192 -2.44474 0
M  V30 4349 N 403.521 0.559213 -1.47345 0
M  V30 4350 C 404.484 1.64854 -1.59235 0
M  V30 4351 C 405.484 1.53851 -0.467607 0
M  V30 4352 O 406.674 1.58045 -0.732617 0
M  V30 4353 C 403.806 3.04388 -1.53496 0
M  V30 4354 H 404.999 1.55662 -2.56339 0
M  V30 4355 H 402.552 0.778973 -1.35505 0
M  V30 4356 H 403.287 3.19115 -0.577604 0
M  V30 4357 H 403.072 3.13783 -2.35123 0
M  V30 4358 H 404.562 3.83642 -1.6495 0
M  V30 4359 N 404.999 1.35443 0.805782 0
M  V30 4360 C 406.415 1.15499 1.10146 0
M  V30 4361 C 406.615 -0.0319975 2.01475 0
M  V30 4362 O 405.671 -0.70236 2.42535 0
M  V30 4363 C 406.984 2.45833 1.73166 0
M  V30 4364 C 408.532 2.52047 1.85583 0
M  V30 4365 C 409.007 3.82427 2.52019 0
M  V30 4366 N 410.498 3.83682 2.59504 0
M  V30 4367 C 411.233 4.81294 3.11679 0
M  V30 4368 N 410.729 5.89294 3.64287 0
M  V30 4369 N 412.522 4.6873 3.1024 0
M  V30 4370 H 404.673 2.11469 0.198678 0
M  V30 4371 H 406.936 0.93594 0.150731 0
M  V30 4372 H 406.642 3.32874 1.13526 0
M  V30 4373 H 406.516 2.6044 2.72857 0
M  V30 4374 H 408.903 1.65435 2.44367 0
M  V30 4375 H 408.984 2.41354 0.847455 0
M  V30 4376 H 408.628 4.69437 1.93885 0
M  V30 4377 H 408.558 3.90409 3.53395 0
M  V30 4378 H 411.049 3.05648 2.22234 0
M  V30 4379 H 411.362 6.59768 4.02401 0
M  V30 4380 H 409.707 5.92985 3.62483 0
M  V30 4381 H 412.898 3.83496 2.68419 0
M  V30 4382 H 413.071 5.44965 3.50596 0
M  V30 4383 N 406.477 -1.02803 1.19454 0
M  V30 4384 C 407.888 -1.57667 0.999899 0
M  V30 4385 C 408.239 -1.91041 -0.446956 0
M  V30 4386 O 407.364 -1.70978 -1.32648 0
M  V30 4387 C 407.959 -2.86477 1.80877 0
M  V30 4388 C 406.518 -3.37911 1.65811 0
M  V30 4389 C 405.665 -2.11343 1.79526 0
M  V30 4390 H 408.616 -0.853214 1.33813 0
M  V30 4391 H 408.637 -3.57408 1.30536 0
M  V30 4392 H 408.149 -2.62155 2.86175 0
M  V30 4393 H 406.25 -3.67218 0.63102 0
M  V30 4394 H 406.363 -4.10885 2.46395 0
M  V30 4395 H 404.727 -2.23254 1.22596 0
M  V30 4396 H 405.51 -1.89461 2.86285 0
M  V30 4397 N 407.956 -0.998596 -1.21925 0
M  V30 4398 C 409.184 -0.696286 -1.94832 0
M  V30 4399 C 409.599 0.740032 -1.73692 0
M  V30 4400 O 408.956 1.5 -1.03953 0
M  V30 4401 C 409.007 -0.999833 -3.47398 0
M  V30 4402 O 408.728 -2.37972 -3.67833 0
M  V30 4403 C 410.229 -0.716025 -4.37479 0
M  V30 4404 H 407.449 -0.257111 -0.619786 0
M  V30 4405 H 409.993 -1.33491 -1.54921 0
M  V30 4406 H 408.148 -0.406918 -3.85257 0
M  V30 4407 H 408.562 -2.48338 -4.61983 0
M  V30 4408 H 410.036 -0.978642 -5.43256 0
M  V30 4409 H 410.513 0.349968 -4.37803 0
M  V30 4410 H 411.119 -1.29025 -4.05256 0
M  V30 4411 N 409.434 1.37368 -0.772513 0
M  V30 4412 C 410.681 1.99673 -0.337182 0
M  V30 4413 C 411.009 1.61324 1.0865 0
M  V30 4414 O 410.264 0.851377 1.7621 0
M  V30 4415 C 410.563 3.54817 -0.428876 0
M  V30 4416 C 410.229 4.12936 -1.81092 0
M  V30 4417 C 408.891 4.28523 -2.1891 0
M  V30 4418 C 411.243 4.44801 -2.71664 0
M  V30 4419 C 408.571 4.73277 -3.46735 0
M  V30 4420 C 410.923 4.90981 -3.98899 0
M  V30 4421 C 409.587 5.04773 -4.36761 0
M  V30 4422 H 408.857 0.730656 -0.123384 0
M  V30 4423 H 411.504 1.64124 -0.986686 0
M  V30 4424 H 409.809 3.90618 0.304167 0
M  V30 4425 H 411.506 4.00933 -0.0733334 0
M  V30 4426 H 408.096 4.01233 -1.50699 0
M  V30 4427 H 412.28 4.32344 -2.43706 0
M  V30 4428 H 407.536 4.82142 -3.75964 0
M  V30 4429 H 411.71 5.14603 -4.69208 0
M  V30 4430 H 409.337 5.39211 -5.35868 0
M  V30 4431 N 410.912 0.523116 1.48665 0
M  V30 4432 C 412.323 0.0808997 1.86525 0
M  V30 4433 C 412.674 -1.33975 1.43336 0
M  V30 4434 O 411.799 -2.00221 0.821009 0
M  V30 4435 C 412.394 0.140037 3.3851 0
M  V30 4436 C 410.953 -0.246948 3.75589 0
M  V30 4437 C 410.1 0.502845 2.72703 0
M  V30 4438 H 413.051 0.734736 1.40667 0
M  V30 4439 H 413.072 -0.649945 3.74908 0
M  V30 4440 H 412.584 1.17412 3.69914 0
M  V30 4441 H 410.685 -1.28343 3.49798 0
M  V30 4442 H 410.798 0.0878859 4.79019 0
M  V30 4443 H 409.162 -0.0500581 2.54651 0
M  V30 4444 H 409.945 1.53743 3.0695 0
M  V30 4445 N 412.39 -1.55475 0.257931 0
M  V30 4446 C 413.638 -1.98813 -0.363009 0
M  V30 4447 C 413.959 -1.14757 -1.57657 0
M  V30 4448 O 413.229 -0.232956 -1.9451 0
M  V30 4449 H 411.809 -0.734308 -0.137113 0
M  V30 4450 H 414.471 -1.9156 0.359281 0
M  V30 4451 H 413.567 -3.04941 -0.664634 0
M  V30 4452 N 413.868 0.0150385 -1.57593 0
M  V30 4453 C 415.117 0.702115 -1.89085 0
M  V30 4454 C 415.43 1.75764 -0.858277 0
M  V30 4455 O 416.636 2.49829 -1.0629 0
M  V30 4456 C 415.092 1.29992 -3.35604 0
M  V30 4457 C 414.7 0.280007 -4.47124 0
M  V30 4458 C 416.444 1.96606 -3.76227 0
M  V30 4459 C 414.351 0.886949 -5.84711 0
M  V30 4460 H 413.281 0.265997 -0.705522 0
M  V30 4461 H 415.932 -0.0430408 -1.8345 0
M  V30 4462 H 414.314 2.09525 -3.36029 0
M  V30 4463 H 415.488 -0.489631 -4.58191 0
M  V30 4464 H 413.803 -0.284835 -4.15425 0
M  V30 4465 H 416.4 2.42893 -4.76347 0
M  V30 4466 H 416.743 2.79024 -3.08952 0
M  V30 4467 H 417.276 1.23828 -3.78036 0
M  V30 4468 H 414.015 0.101876 -6.55421 0
M  V30 4469 H 413.535 1.6261 -5.77337 0
M  V30 4470 H 415.214 1.39011 -6.3189 0
M  V30 4471 N 415.346 1.54954 0.287554 0
M  V30 4472 C 416.256 1.8991 1.37736 0
M  V30 4473 C 417.272 0.794701 1.54792 0
M  V30 4474 O 418.448 1.09243 1.69198 0
M  V30 4475 C 415.513 2.15108 2.71899 0
M  V30 4476 C 414.574 3.38752 2.63715 0
M  V30 4477 C 413.807 3.62739 3.91479 0
M  V30 4478 O 414.03 2.89492 4.91478 0
M  V30 4479 O 412.964 4.56267 3.92561 0
M  V30 4480 H 416.79 2.82652 1.11092 0
M  V30 4481 H 414.375 1.41315 0.484807 0
M  V30 4482 H 416.257 2.32806 3.51254 0
M  V30 4483 H 414.932 1.25551 2.9836 0
M  V30 4484 H 413.839 3.26405 1.82786 0
M  V30 4485 H 415.172 4.28483 2.42205 0
M  V30 4486 N 416.824 -0.551391 1.4764 0
M  V30 4487 C 417.734 -1.68525 1.63207 0
M  V30 4488 C 418.75 -1.6621 0.514815 0
M  V30 4489 O 419.926 -1.85551 0.783113 0
M  V30 4490 C 416.991 -3.05025 1.64805 0
M  V30 4491 C 416.052 -3.18362 2.88 0
M  V30 4492 C 415.285 -4.4835 2.89513 0
M  V30 4493 O 415.508 -5.34163 2.00065 0
M  V30 4494 O 414.442 -4.65602 3.81443 0
M  V30 4495 H 418.268 -1.58333 2.59161 0
M  V30 4496 H 415.853 -0.722063 1.30792 0
M  V30 4497 H 417.735 -3.86245 1.68502 0
M  V30 4498 H 416.41 -3.15587 0.720197 0
M  V30 4499 H 415.317 -2.36518 2.89845 0
M  V30 4500 H 416.65 -3.12707 3.80099 0
M  V30 4501 N 418.302 -1.35869 -0.798587 0
M  V30 4502 C 419.249 -1.29446 -1.91082 0
M  V30 4503 C 420.219 -0.16487 -1.6528 0
M  V30 4504 O 421.404 -0.349888 -1.87564 0
M  V30 4505 C 418.544 -1.0804 -3.27752 0
M  V30 4506 C 417.657 -2.29993 -3.65687 0
M  V30 4507 C 416.792 -2.01673 -4.91428 0
M  V30 4508 C 415.831 -3.19636 -5.22015 0
M  V30 4509 N 414.968 -2.91039 -6.38937 0
M  V30 4510 H 419.808 -2.24553 -1.95907 0
M  V30 4511 H 417.345 -1.11615 -0.958148 0
M  V30 4512 H 419.303 -0.936586 -4.06551 0
M  V30 4513 H 417.933 -0.16592 -3.22373 0
M  V30 4514 H 416.985 -2.55211 -2.82085 0
M  V30 4515 H 418.297 -3.18052 -3.84245 0
M  V30 4516 H 417.451 -1.84168 -5.78072 0
M  V30 4517 H 416.19 -1.10911 -4.74921 0
M  V30 4518 H 415.195 -3.37709 -4.33858 0
M  V30 4519 H 416.42 -4.11211 -5.40447 0
M  V30 4520 H 414.366 -2.0288 -6.2384 0
M  V30 4521 H 414.283 -3.72635 -6.57784 0
M  V30 4522 H 415.551 -2.77093 -7.28587 0
M  V30 4523 N 419.78 1.02168 -1.19998 0
M  V30 4524 C 421.027 1.75685 -1.00702 0
M  V30 4525 C 421.355 1.88947 0.461426 0
M  V30 4526 O 420.61 1.40832 1.35885 0
M  V30 4527 C 420.909 3.18081 -1.62969 0
M  V30 4528 C 420.575 3.24809 -3.12746 0
M  V30 4529 C 419.237 3.26352 -3.53621 0
M  V30 4530 C 421.589 3.23379 -4.08749 0
M  V30 4531 C 418.917 3.2413 -4.89036 0
M  V30 4532 C 421.269 3.22698 -5.44104 0
M  V30 4533 C 419.933 3.22542 -5.84399 0
M  V30 4534 H 419.203 0.642877 -0.368496 0
M  V30 4535 H 421.85 1.19865 -1.49348 0
M  V30 4536 H 420.155 3.77027 -1.06573 0
M  V30 4537 H 421.852 3.73648 -1.45561 0
M  V30 4538 H 418.442 3.2434 -2.80181 0
M  V30 4539 H 422.626 3.21361 -3.78207 0
M  V30 4540 H 417.882 3.22338 -5.19527 0
M  V30 4541 H 422.056 3.20543 -6.18244 0
M  V30 4542 H 419.683 3.20575 -6.89301 0
M  V30 4543 N 421.258 1.00505 1.21394 0
M  V30 4544 C 422.674 0.717873 1.42544 0
M  V30 4545 C 422.874 -0.706936 1.88692 0
M  V30 4546 O 421.93 -1.47627 2.04847 0
M  V30 4547 C 423.243 1.73377 2.45684 0
M  V30 4548 C 424.791 1.75059 2.59467 0
M  V30 4549 C 425.266 2.75545 3.6584 0
M  V30 4550 N 426.757 2.74213 3.73311 0
M  V30 4551 C 427.492 3.48626 4.55245 0
M  V30 4552 N 426.988 4.32678 5.41075 0
M  V30 4553 N 428.781 3.37276 4.49668 0
M  V30 4554 H 420.932 1.92506 0.897503 0
M  V30 4555 H 423.195 0.830919 0.456375 0
M  V30 4556 H 422.901 2.75395 2.18748 0
M  V30 4557 H 422.775 1.53647 3.44489 0
M  V30 4558 H 425.162 0.737337 2.8574 0
M  V30 4559 H 425.243 1.98861 1.60897 0
M  V30 4560 H 424.887 3.77028 3.40313 0
M  V30 4561 H 424.817 2.49009 4.64007 0
M  V30 4562 H 427.308 2.13234 3.11993 0
M  V30 4563 H 427.621 4.86253 6.00648 0
M  V30 4564 H 425.966 4.3676 5.40616 0
M  V30 4565 H 429.157 2.71043 3.81646 0
M  V30 4566 H 429.33 3.95524 5.13288 0
M  V30 4567 N 422.737 -1.36956 0.779787 0
M  V30 4568 C 424.148 -1.82094 0.412156 0
M  V30 4569 C 424.499 -1.64926 -1.06273 0
M  V30 4570 O 423.624 -1.16483 -1.82375 0
M  V30 4571 C 424.219 -3.3059 0.741319 0
M  V30 4572 C 422.778 -3.73974 0.426641 0
M  V30 4573 C 421.925 -2.59368 0.980987 0
M  V30 4574 H 424.876 -1.25314 0.973758 0
M  V30 4575 H 424.897 -3.80489 0.028887 0
M  V30 4576 H 424.409 -3.43054 1.81482 0
M  V30 4577 H 422.51 -3.67076 -0.639215 0
M  V30 4578 H 422.623 -4.69778 0.940515 0
M  V30 4579 H 420.987 -2.51463 0.404757 0
M  V30 4580 H 421.77 -2.74621 2.06005 0
M  V30 4581 N 424.215 -0.530993 -1.48385 0
M  V30 4582 C 425.462 0.0027373 -2.025 0
M  V30 4583 C 425.79 1.34186 -1.40799 0
M  V30 4584 O 425.045 1.88 -0.543544 0
M  V30 4585 C 425.344 0.172742 -3.56982 0
M  V30 4586 C 425.01 -1.09215 -4.37473 0
M  V30 4587 C 423.672 -1.43881 -4.59186 0
M  V30 4588 C 426.024 -1.93153 -4.84088 0
M  V30 4589 C 423.352 -2.62381 -5.2476 0
M  V30 4590 C 425.704 -3.10833 -5.50968 0
M  V30 4591 C 424.368 -3.45843 -5.70919 0
M  V30 4592 H 423.638 0.00100165 -0.740999 0
M  V30 4593 H 426.285 -0.697219 -1.78357 0
M  V30 4594 H 424.59 0.955473 -3.79971 0
M  V30 4595 H 426.287 0.600642 -3.96476 0
M  V30 4596 H 422.877 -0.812177 -4.20834 0
M  V30 4597 H 427.061 -1.67683 -4.67115 0
M  V30 4598 H 422.317 -2.89707 -5.38405 0
M  V30 4599 H 426.491 -3.7618 -5.86056 0
M  V30 4600 H 424.118 -4.37764 -6.21503 0
M  V30 4601 N 425.693 1.55336 -0.266172 0
M  V30 4602 C 426.923 2.03506 0.356239 0
M  V30 4603 C 427.331 1.14426 1.50676 0
M  V30 4604 O 426.674 0.155043 1.83045 0
M  V30 4605 C 426.736 3.47848 0.90785 0
M  V30 4606 C 426.4 4.56861 -0.112888 0
M  V30 4607 C 427.397 5.11528 -0.929264 0
M  V30 4608 C 425.082 5.01704 -0.244546 0
M  V30 4609 C 427.076 6.09549 -1.86357 0
M  V30 4610 C 424.763 5.99553 -1.18234 0
M  V30 4611 C 425.761 6.53356 -1.99036 0
M  V30 4612 O 425.449 7.49293 -2.91231 0
M  V30 4613 H 425.181 0.670444 0.08649 0
M  V30 4614 H 427.735 2.01598 -0.39337 0
M  V30 4615 H 425.965 3.46967 1.70737 0
M  V30 4616 H 427.654 3.79407 1.44239 0
M  V30 4617 H 428.42 4.77701 -0.838237 0
M  V30 4618 H 424.299 4.59477 0.374359 0
M  V30 4619 H 427.843 6.51469 -2.49467 0
M  V30 4620 H 423.74 6.32799 -1.27421 0
M  V30 4621 H 424.508 7.66978 -2.8581 0
M  V30 4622 N 427.171 -0.0066808 1.57599 0
M  V30 4623 C 428.101 -0.999296 2.11036 0
M  V30 4624 C 429.082 -1.36278 1.01795 0
M  V30 4625 O 430.267 -1.4477 1.29442 0
M  V30 4626 C 427.397 -2.29328 2.60818 0
M  V30 4627 C 426.351 -2.07159 3.74525 0
M  V30 4628 C 425.677 -3.42512 4.10596 0
M  V30 4629 C 426.977 -1.43959 5.02069 0
M  V30 4630 H 428.671 -0.554382 2.94223 0
M  V30 4631 H 426.217 -0.265221 1.41536 0
M  V30 4632 H 428.17 -2.99117 2.96828 0
M  V30 4633 H 426.894 -2.7592 1.74745 0
M  V30 4634 H 425.553 -1.39797 3.38899 0
M  V30 4635 H 425.201 -3.86795 3.21556 0
M  V30 4636 H 424.901 -3.28498 4.87199 0
M  V30 4637 H 426.425 -4.13628 4.4916 0
M  V30 4638 H 427.839 -2.03696 5.35893 0
M  V30 4639 H 426.236 -1.40452 5.83432 0
M  V30 4640 H 427.306 -0.407992 4.83181 0
M  V30 4641 N 428.649 -1.55105 -0.279332 0
M  V30 4642 C 429.874 -1.7976 -1.03446 0
M  V30 4643 C 430.299 -0.565952 -1.79384 0
M  V30 4644 O 429.657 0.484259 -1.74713 0
M  V30 4645 C 429.705 -3.0179 -1.97371 0
M  V30 4646 O 428.809 -2.76432 -3.06038 0
M  V30 4647 H 428.15 -0.594334 -0.29608 0
M  V30 4648 H 430.68 -2.02235 -0.310165 0
M  V30 4649 H 430.69 -3.30351 -2.39441 0
M  V30 4650 H 429.365 -3.91085 -1.4151 0
M  V30 4651 H 427.942 -2.58949 -2.68328 0
M  V30 4652 N 430.127 0.543554 -1.4793 0
M  V30 4653 C 431.059 1.665 -1.57513 0
M  V30 4654 C 432.072 1.56156 -0.460333 0
M  V30 4655 O 433.261 1.62865 -0.730573 0
M  V30 4656 C 430.361 3.05063 -1.47614 0
M  V30 4657 C 429.534 3.41024 -2.739 0
M  V30 4658 C 428.593 4.58809 -2.57645 0
M  V30 4659 O 427.619 4.62707 -3.31498 0
M  V30 4660 N 428.821 5.56149 -1.66368 0
M  V30 4661 H 431.586 1.5872 -2.5422 0
M  V30 4662 H 429.147 0.730517 -1.44482 0
M  V30 4663 H 431.139 3.81712 -1.34455 0
M  V30 4664 H 429.709 3.06994 -0.589359 0
M  V30 4665 H 428.929 2.53687 -3.01723 0
M  V30 4666 H 430.217 3.61831 -3.57709 0
M  V30 4667 H 429.615 5.55767 -1.05543 0
M  V30 4668 H 428.172 6.32071 -1.59154 0
M  V30 4669 N 431.605 1.3629 0.791371 0
M  V30 4670 C 432.535 1.33137 1.91825 0
M  V30 4671 C 433.516 0.203168 1.68882 0
M  V30 4672 O 434.701 0.400509 1.90025 0
M  V30 4673 C 431.831 1.11793 3.28816 0
M  V30 4674 C 430.785 2.21417 3.66277 0
M  V30 4675 C 430.111 1.85218 5.01596 0
M  V30 4676 C 431.411 3.63489 3.75064 0
M  V30 4677 H 433.105 2.2743 1.9472 0
M  V30 4678 H 430.651 1.09479 0.935437 0
M  V30 4679 H 432.604 1.08222 4.07266 0
M  V30 4680 H 431.328 0.139501 3.26302 0
M  V30 4681 H 429.987 2.2411 2.90121 0
M  V30 4682 H 429.635 0.859544 4.95602 0
M  V30 4683 H 429.335 2.58611 5.27631 0
M  V30 4684 H 430.859 1.832 5.82469 0
M  V30 4685 H 432.273 3.63034 4.43711 0
M  V30 4686 H 430.67 4.35771 4.12582 0
M  V30 4687 H 431.74 3.98536 2.76219 0
M  V30 4688 N 433.083 -1.0153 1.20538 0
M  V30 4689 C 433.993 -2.13557 0.971113 0
M  V30 4690 C 435.009 -1.73845 -0.0734366 0
M  V30 4691 O 436.185 -2.01075 0.114299 0
M  V30 4692 C 433.25 -3.42661 0.527639 0
M  V30 4693 C 432.311 -3.96608 1.64319 0
M  V30 4694 C 431.544 -5.1955 1.22078 0
M  V30 4695 O 431.767 -5.70329 0.0900198 0
M  V30 4696 O 430.701 -5.66681 2.02871 0
M  V30 4697 H 434.527 -2.3619 1.90913 0
M  V30 4698 H 432.112 -1.11946 0.989362 0
M  V30 4699 H 433.994 -4.20404 0.289621 0
M  V30 4700 H 432.669 -3.21441 -0.381779 0
M  V30 4701 H 431.576 -3.20139 1.93551 0
M  V30 4702 H 432.909 -4.22219 2.52966 0
M  V30 4703 N 434.561 -1.01147 -1.20859 0
M  V30 4704 C 435.471 -0.58686 -2.27141 0
M  V30 4705 C 436.487 0.373198 -1.69951 0
M  V30 4706 O 437.663 0.235423 -2.00019 0
M  V30 4707 C 434.728 0.0733602 -3.46622 0
M  V30 4708 C 433.789 -0.931995 -4.19061 0
M  V30 4709 C 433.022 -0.303186 -5.32838 0
M  V30 4710 O 433.245 0.898395 -5.63281 0
M  V30 4711 O 432.179 -1.01735 -5.9324 0
M  V30 4712 H 436.005 -1.47155 -2.65667 0
M  V30 4713 H 433.59 -0.780689 -1.2738 0
M  V30 4714 H 435.472 0.442333 -4.19072 0
M  V30 4715 H 434.147 0.932329 -3.09983 0
M  V30 4716 H 433.054 -1.35224 -3.48805 0
M  V30 4717 H 434.387 -1.76076 -4.59628 0
M  V30 4718 N 436.039 1.36541 -0.78704 0
M  V30 4719 C 437.264 2.0409 -0.369053 0
M  V30 4720 C 437.689 1.58957 1.00569 0
M  V30 4721 O 437.047 0.756926 1.64743 0
M  V30 4722 C 437.095 3.57924 -0.438466 0
M  V30 4723 O 436.199 4.08642 0.555479 0
M  V30 4724 H 435.54 0.645142 -0.157122 0
M  V30 4725 H 438.07 1.74545 -1.06749 0
M  V30 4726 H 438.08 4.06887 -0.301218 0
M  V30 4727 H 436.755 3.90127 -1.44132 0
M  V30 4728 H 435.332 3.70958 0.380088 0
M  V30 4729 N 437.518 0.538854 1.48102 0
M  V30 4730 C 438.764 0.00801365 2.02798 0
M  V30 4731 C 439.097 -1.3309 1.41424 0
M  V30 4732 O 438.372 -1.86169 0.563158 0
M  V30 4733 C 438.655 -0.104589 3.59948 0
M  V30 4734 C 438.508 1.26012 4.31788 0
M  V30 4735 C 439.827 -0.827055 4.32259 0
M  V30 4736 H 436.946 0.00438624 0.736987 0
M  V30 4737 H 439.588 0.6976 1.7673 0
M  V30 4738 H 437.738 -0.691893 3.82289 0
M  V30 4739 H 439.41 1.88922 4.2084 0
M  V30 4740 H 437.653 1.83968 3.92859 0
M  V30 4741 H 438.324 1.13424 5.40221 0
M  V30 4742 H 440.8 -0.328578 4.14801 0
M  V30 4743 H 439.676 -0.87476 5.41885 0
M  V30 4744 H 439.937 -1.87927 4.0017 0
M  V30 4745 N 438.996 -1.55193 0.274407 0
M  V30 4746 C 439.906 -2.26164 -0.623473 0
M  V30 4747 C 440.922 -1.28729 -1.17068 0
M  V30 4748 O 442.098 -1.61663 -1.20112 0
M  V30 4749 C 439.163 -2.96833 -1.7914 0
M  V30 4750 C 438.224 -4.09745 -1.28093 0
M  V30 4751 C 437.457 -4.77034 -2.3932 0
M  V30 4752 O 437.68 -4.4353 -3.5866 0
M  V30 4753 O 436.614 -5.64996 -2.07516 0
M  V30 4754 H 440.44 -3.03661 -0.0485661 0
M  V30 4755 H 438.025 -1.49341 0.0418382 0
M  V30 4756 H 439.907 -3.41248 -2.4724 0
M  V30 4757 H 438.582 -2.22253 -2.35341 0
M  V30 4758 H 437.489 -3.69787 -0.566416 0
M  V30 4759 H 438.822 -4.86224 -0.764683 0
M  V30 4760 N 440.474 -0.00167713 -1.576 0
M  V30 4761 C 441.384 1.00548 -2.1196 0
M  V30 4762 C 442.4 1.3758 -1.06526 0
M  V30 4763 O 443.576 1.46278 -1.38436 0
M  V30 4764 C 440.641 2.27809 -2.6135 0
M  V30 4765 C 439.702 1.97074 -3.81393 0
M  V30 4766 C 438.935 3.18267 -4.28417 0
M  V30 4767 O 439.158 4.30009 -3.74765 0
M  V30 4768 O 438.092 3.02167 -5.20556 0
M  V30 4769 H 441.918 0.573373 -2.98238 0
M  V30 4770 H 439.503 0.217255 -1.47812 0
M  V30 4771 H 441.385 3.02568 -2.93309 0
M  V30 4772 H 440.06 2.70254 -1.78169 0
M  V30 4773 H 438.967 1.19785 -3.54404 0
M  V30 4774 H 440.3 1.59464 -4.65652 0
M  V30 4775 N 441.952 1.55251 0.271103 0
M  V30 4776 C 443.229 1.66664 1.02384 0
M  V30 4777 C 443.609 0.534363 2.04225 0
M  V30 4778 O 442.957 -0.465337 2.23712 0
M  V30 4779 C 443.167 3.05961 1.67895 0
M  V30 4780 C 444.515 3.63772 2.18986 0
M  V30 4781 O 445.539 3.08606 1.77878 0
M  V30 4782 O 444.398 4.60429 2.94393 0
M  V30 4783 H 441.492 0.676957 0.475035 0
M  V30 4784 H 444.038 1.67589 0.26681 0
M  V30 4785 H 442.81 3.79815 0.941071 0
M  V30 4786 H 442.433 3.08943 2.5028 0
M  V30 4787 N 443.43 -0.535701 1.48216 0
M  V30 4788 C 444.676 -1.29375 1.56173 0
M  V30 4789 C 445.009 -1.92804 0.232429 0
M  V30 4790 O 444.284 -1.78992 -0.761048 0
M  V30 4791 C 444.567 -2.38747 2.69577 0
M  V30 4792 C 444.42 -1.80046 4.12193 0
M  V30 4793 C 445.739 -3.40551 2.78771 0
M  V30 4794 H 442.858 -0.469027 0.568491 0
M  V30 4795 H 445.5 -0.597358 1.80365 0
M  V30 4796 H 443.65 -2.98147 2.4908 0
M  V30 4797 H 445.322 -1.24742 4.44114 0
M  V30 4798 H 443.565 -1.10609 4.19462 0
M  V30 4799 H 444.236 -2.59212 4.87353 0
M  V30 4800 H 446.712 -2.91099 2.97322 0
M  V30 4801 H 445.588 -4.1448 3.59857 0
M  V30 4802 H 445.849 -4.00746 1.86696 0
M  V30 4803 N 444.908 -1.36708 -0.784132 0
M  V30 4804 C 445.855 -1.31466 -1.89698 0
M  V30 4805 C 446.825 -0.18239 -1.65096 0
M  V30 4806 O 448.01 -0.369762 -1.87183 0
M  V30 4807 C 445.15 -1.1151 -3.26588 0
M  V30 4808 C 444.263 -2.33859 -3.63227 0
M  V30 4809 C 443.398 -2.06873 -4.89262 0
M  V30 4810 C 442.437 -3.25154 -5.18595 0
M  V30 4811 N 441.574 -2.978 -6.35814 0
M  V30 4812 H 446.414 -2.26619 -1.93515 0
M  V30 4813 H 443.951 -1.12625 -0.946256 0
M  V30 4814 H 445.909 -0.979653 -4.05535 0
M  V30 4815 H 444.539 -0.200103 -3.22179 0
M  V30 4816 H 443.591 -2.58188 -2.79362 0
M  V30 4817 H 444.903 -3.22109 -3.8085 0
M  V30 4818 H 444.057 -1.90289 -5.76086 0
M  V30 4819 H 442.796 -1.15942 -4.73718 0
M  V30 4820 H 441.801 -3.42292 -4.30251 0
M  V30 4821 H 443.026 -4.1692 -5.36055 0
M  V30 4822 H 440.972 -2.09485 -6.21653 0
M  V30 4823 H 440.889 -3.7959 -6.53794 0
M  V30 4824 H 442.157 -2.84805 -7.25607 0
M  V30 4825 N 446.386 1.0089 -1.21074 0
M  V30 4826 C 447.611 1.78727 -1.05221 0
M  V30 4827 C 448.036 1.83932 0.393795 0
M  V30 4828 O 447.394 1.28004 1.28393 0
M  V30 4829 C 447.442 3.20665 -1.64944 0
M  V30 4830 O 446.546 4.02632 -0.892273 0
M  V30 4831 H 445.887 0.550973 -0.370574 0
M  V30 4832 H 448.417 1.26847 -1.60534 0
M  V30 4833 H 448.427 3.71352 -1.69002 0
M  V30 4834 H 447.102 3.16191 -2.70177 0
M  V30 4835 H 445.679 3.61207 -0.926492 0
M  V30 4836 N 447.864 1.01787 1.20321 0
M  V30 4837 C 448.794 0.609625 2.25401 0
M  V30 4838 C 449.775 -0.375951 1.65893 0
M  V30 4839 O 450.96 -0.261101 1.92437 0
M  V30 4840 C 448.09 -0.0515995 3.47262 0
M  V30 4841 C 447.044 0.855095 4.19371 0
M  V30 4842 C 446.37 0.0595757 5.34667 0
M  V30 4843 C 447.67 2.16374 4.75373 0
M  V30 4844 H 449.364 1.48803 2.59804 0
M  V30 4845 H 446.91 0.716934 1.24884 0
M  V30 4846 H 448.863 -0.348764 4.19954 0
M  V30 4847 H 447.587 -0.964726 3.12027 0
M  V30 4848 H 446.246 1.13628 3.48546 0
M  V30 4849 H 445.894 -0.85524 4.95676 0
M  V30 4850 H 445.594 0.663406 5.83843 0
M  V30 4851 H 447.118 -0.231105 6.10162 0
M  V30 4852 H 448.532 1.92885 5.39878 0
M  V30 4853 H 446.929 2.71853 5.34991 0
M  V30 4854 H 447.999 2.82589 3.94045 0
M  V30 4855 N 449.342 -1.36122 0.79427 0
M  V30 4856 C 450.289 -2.29982 0.194101 0
M  V30 4857 C 451.259 -1.52214 -0.664833 0
M  V30 4858 O 452.444 -1.80702 -0.612498 0
M  V30 4859 C 449.584 -3.38706 -0.661244 0
M  V30 4860 C 448.697 -4.31456 0.216766 0
M  V30 4861 C 447.832 -5.27265 -0.645411 0
M  V30 4862 C 446.871 -6.11653 0.233756 0
M  V30 4863 N 446.008 -6.99636 -0.587682 0
M  V30 4864 H 450.848 -2.80722 0.999965 0
M  V30 4865 H 448.385 -1.38172 0.504677 0
M  V30 4866 H 450.343 -4.00394 -1.17219 0
M  V30 4867 H 448.973 -2.89274 -1.43249 0
M  V30 4868 H 448.025 -3.7088 0.845724 0
M  V30 4869 H 449.337 -4.90724 0.893973 0
M  V30 4870 H 448.491 -5.94266 -1.22198 0
M  V30 4871 H 447.23 -4.68463 -1.35623 0
M  V30 4872 H 446.235 -5.4361 0.82269 0
M  V30 4873 H 447.46 -6.72531 0.942247 0
M  V30 4874 H 445.406 -6.43337 -1.2827 0
M  V30 4875 H 445.323 -7.55993 0.0317402 0
M  V30 4876 H 446.591 -7.71001 -1.14792 0
M  V30 4877 N 450.82 -0.546701 -1.47814 0
M  V30 4878 C 451.767 0.206854 -2.29871 0
M  V30 4879 C 452.737 0.918235 -1.38411 0
M  V30 4880 O 453.922 0.915991 -1.67375 0
M  V30 4881 C 451.062 1.23746 -3.22151 0
M  V30 4882 C 450.175 0.533216 -4.28697 0
M  V30 4883 C 449.31 1.5482 -5.08138 0
M  V30 4884 C 448.349 0.828347 -6.06469 0
M  V30 4885 N 447.486 1.78966 -6.78908 0
M  V30 4886 H 452.326 -0.499037 -2.93792 0
M  V30 4887 H 449.863 -0.25793 -1.44821 0
M  V30 4888 H 451.821 1.84746 -3.74065 0
M  V30 4889 H 450.451 1.91151 -2.60117 0
M  V30 4890 H 449.503 -0.191089 -3.7992 0
M  V30 4891 H 450.815 -0.0311987 -4.9879 0
M  V30 4892 H 449.969 2.23202 -5.6415 0
M  V30 4893 H 448.708 2.14652 -4.37922 0
M  V30 4894 H 447.713 0.130539 -5.49645 0
M  V30 4895 H 448.938 0.235907 -6.7869 0
M  V30 4896 H 446.884 2.37675 -6.1143 0
M  V30 4897 H 446.801 1.27712 -7.45135 0
M  V30 4898 H 448.069 2.46496 -7.395 0
M  V30 4899 N 452.299 1.55045 -0.282633 0
M  V30 4900 C 453.209 2.26491 0.61147 0
M  V30 4901 C 454.225 1.29348 1.16384 0
M  V30 4902 O 455.401 1.62298 1.19253 0
M  V30 4903 C 452.466 2.97779 1.77563 0
M  V30 4904 C 451.527 4.10418 1.25919 0
M  V30 4905 C 450.76 4.78297 2.36786 0
M  V30 4906 O 450.983 4.45426 3.56303 0
M  V30 4907 O 449.917 5.66089 2.04517 0
M  V30 4908 H 453.743 3.03683 0.0324615 0
M  V30 4909 H 451.328 1.49317 -0.0497576 0
M  V30 4910 H 453.21 3.42554 2.45427 0
M  V30 4911 H 451.885 2.23498 2.34159 0
M  V30 4912 H 450.792 3.70082 0.546797 0
M  V30 4913 H 452.125 4.86622 0.738887 0
M  V30 4914 N 453.777 0.010035 1.57597 0
M  V30 4915 C 455.007 -0.682422 1.95004 0
M  V30 4916 C 455.415 -1.67278 0.884014 0
M  V30 4917 O 454.758 -1.83129 -0.144672 0
M  V30 4918 C 454.82 -1.46141 3.28456 0
M  V30 4919 C 454.484 -0.631523 4.52615 0
M  V30 4920 C 455.481 0.0850905 5.1983 0
M  V30 4921 C 453.166 -0.574539 4.99003 0
M  V30 4922 C 455.16 0.847566 6.3174 0
M  V30 4923 C 452.847 0.191655 6.10799 0
M  V30 4924 C 453.845 0.901432 6.77025 0
M  V30 4925 O 453.533 1.65511 7.86677 0
M  V30 4926 H 453.265 -0.194361 0.647456 0
M  V30 4927 H 455.819 0.060312 2.05311 0
M  V30 4928 H 454.049 -2.24885 3.14585 0
M  V30 4929 H 455.738 -2.04016 3.50902 0
M  V30 4930 H 456.504 0.0502812 4.84974 0
M  V30 4931 H 452.383 -1.11654 4.47274 0
M  V30 4932 H 455.927 1.4021 6.83364 0
M  V30 4933 H 451.824 0.228249 6.45096 0
M  V30 4934 H 452.592 1.57287 8.03245 0
M  V30 4935 N 455.255 -1.55392 -0.262866 0
M  V30 4936 C 456.48 -1.80847 -1.01533 0
M  V30 4937 C 456.905 -0.584946 -1.78774 0
M  V30 4938 O 456.263 0.465701 -1.75217 0
M  V30 4939 C 456.311 -3.03866 -1.94159 0
M  V30 4940 O 455.415 -2.79662 -3.03089 0
M  V30 4941 H 454.756 -0.597441 -0.289759 0
M  V30 4942 H 457.286 -2.02553 -0.288698 0
M  V30 4943 H 457.296 -3.32872 -2.35924 0
M  V30 4944 H 455.971 -3.92564 -1.37354 0
M  V30 4945 H 454.548 -2.61781 -2.65566 0
M  V30 4946 N 456.733 0.527833 -1.48498 0
M  V30 4947 C 457.681 1.65313 -1.63628 0
M  V30 4948 C 458.675 1.6177 -0.502676 0
M  V30 4949 O 459.881 1.66601 -0.681469 0
M  V30 4950 H 456.256 0.547518 -0.515488 0
M  V30 4951 H 458.227 1.49696 -2.58135 0
M  V30 4952 C 456.976 3.03576 -1.6952 0
M  V30 4953 H 456.299 3.06997 -2.56111 0
M  V30 4954 H 457.739 3.81923 -1.84149 0
M  V30 4955 C 456.198 3.34089 -0.43432 0
M  V30 4956 O 456.728 3.99151 0.451852 0
M  V30 4957 N 454.934 2.88991 -0.305368 0
M  V30 4958 H 454.481 2.36222 -1.02747 0
M  V30 4959 H 454.439 3.09776 0.537249 0
M  V30 4960 N 458.211 1.37122 0.776871 0
M  V30 4961 C 459.121 1.34651 1.9211 0
M  V30 4962 C 460.137 0.246824 1.7224 0
M  V30 4963 O 461.313 0.48134 1.95563 0
M  V30 4964 C 458.378 1.14748 3.2716 0
M  V30 4965 C 457.439 2.34308 3.5972 0
M  V30 4966 C 456.672 2.15345 4.88326 0
M  V30 4967 O 456.895 1.13507 5.58992 0
M  V30 4968 O 455.829 3.03414 5.1983 0
M  V30 4969 H 459.655 2.31013 1.97146 0
M  V30 4970 H 457.24 1.17799 0.918901 0
M  V30 4971 H 459.122 1.05616 4.0795 0
M  V30 4972 H 457.797 0.214562 3.22988 0
M  V30 4973 H 456.704 2.49011 2.79185 0
M  V30 4974 H 458.037 3.26149 3.68629 0
M  V30 4975 N 459.689 -1.00246 1.21608 0
M  V30 4976 C 460.637 -2.11193 0.97469 0
M  V30 4977 C 461.631 -1.69216 -0.0789303 0
M  V30 4978 O 462.837 -1.79853 0.0726806 0
M  V30 4979 H 459.212 -0.690455 0.297953 0
M  V30 4980 H 461.183 -2.2873 1.91638 0
M  V30 4981 C 459.932 -3.43182 0.558717 0
M  V30 4982 H 459.255 -3.75918 1.3611 0
M  V30 4983 H 460.695 -4.21823 0.429154 0
M  V30 4984 C 459.154 -3.28882 -0.730648 0
M  V30 4985 O 459.684 -3.59835 -1.78554 0
M  V30 4986 N 457.89 -2.8209 -0.698131 0
M  V30 4987 H 457.437 -2.57099 0.16061 0
M  V30 4988 H 457.395 -2.72903 -1.56113 0
M  V30 4989 N 461.167 -1.02423 -1.1978 0
M  V30 4990 C 462.13 -0.605703 -2.21052 0
M  V30 4991 C 463.13 0.328209 -1.57415 0
M  V30 4992 O 464.32 0.115853 -1.73814 0
M  V30 4993 C 461.452 0.114366 -3.40708 0
M  V30 4994 H 462.645 -1.5017 -2.59594 0
M  V30 4995 H 460.198 -0.814888 -1.33376 0
M  V30 4996 H 460.933 1.02492 -3.07678 0
M  V30 4997 H 460.718 -0.556641 -3.88129 0
M  V30 4998 H 462.208 0.394272 -4.15735 0
M  V30 4999 N 462.645 1.35699 -0.801477 0
M  V30 5000 C 463.891 1.99208 -0.380022 0
M  V30 5001 C 464.224 1.63445 1.04878 0
M  V30 5002 O 463.499 0.895223 1.72673 0
M  V30 5003 C 463.782 3.55755 -0.557708 0
M  V30 5004 C 463.635 4.01332 -2.03107 0
M  V30 5005 C 464.954 4.40096 0.0197968 0
M  V30 5006 H 462.073 0.723667 -0.139552 0
M  V30 5007 H 464.715 1.60928 -1.01006 0
M  V30 5008 H 462.865 3.88494 -0.0213741 0
M  V30 5009 H 464.537 3.79026 -2.62939 0
M  V30 5010 H 462.78 3.52429 -2.52936 0
M  V30 5011 H 463.451 5.10234 -2.1063 0
M  V30 5012 H 465.927 4.13786 -0.438179 0
M  V30 5013 H 464.803 5.48735 -0.134477 0
M  V30 5014 H 465.064 4.2786 1.11303 0
M  V30 5015 N 464.123 0.554532 1.47522 0
M  V30 5016 C 465.369 0.0295227 2.02779 0
M  V30 5017 C 465.702 -1.31582 1.42828 0
M  V30 5018 O 464.977 -1.85561 0.582872 0
M  V30 5019 C 465.26 -0.0664057 3.60039 0
M  V30 5020 C 465.113 1.30585 4.30427 0
M  V30 5021 C 466.432 -0.781162 4.33112 0
M  V30 5022 H 463.551 0.0122027 0.736899 0
M  V30 5023 H 466.193 0.716305 1.7598 0
M  V30 5024 H 464.343 -0.651307 3.83002 0
M  V30 5025 H 466.015 1.93374 4.18813 0
M  V30 5026 H 464.258 1.88125 3.90886 0
M  V30 5027 H 464.929 1.19147 5.38988 0
M  V30 5028 H 467.405 -0.284565 4.15126 0
M  V30 5029 H 466.281 -0.817237 5.42782 0
M  V30 5030 H 466.542 -1.83672 4.0214 0
M  V30 5031 N 465.601 -1.54893 0.290851 0
M  V30 5032 C 466.548 -2.23138 -0.58974 0
M  V30 5033 C 467.518 -1.21036 -1.13752 0
M  V30 5034 O 468.703 -1.49626 -1.18392 0
M  V30 5035 C 465.843 -2.96811 -1.76061 0
M  V30 5036 C 464.956 -4.13665 -1.24519 0
M  V30 5037 C 464.091 -4.74944 -2.3791 0
M  V30 5038 C 463.13 -5.83963 -1.83451 0
M  V30 5039 N 462.267 -6.39239 -2.90376 0
M  V30 5040 H 467.107 -2.98 -0.00114915 0
M  V30 5041 H 464.644 -1.47096 0.0112006 0
M  V30 5042 H 466.602 -3.37751 -2.44909 0
M  V30 5043 H 465.232 -2.24344 -2.32098 0
M  V30 5044 H 464.284 -3.77737 -0.449288 0
M  V30 5045 H 465.596 -4.92238 -0.806424 0
M  V30 5046 H 464.75 -5.18684 -3.14724 0
M  V30 5047 H 463.489 -3.95682 -2.85109 0
M  V30 5048 H 462.494 -5.39657 -1.05122 0
M  V30 5049 H 463.719 -6.65103 -1.37169 0
M  V30 5050 H 461.665 -5.62864 -3.36927 0
M  V30 5051 H 461.582 -7.13129 -2.50965 0
M  V30 5052 H 462.85 -6.87637 -3.67118 0
M  V30 5053 N 467.08 -0.0183926 -1.57589 0
M  V30 5054 C 468.496 0.337897 -1.55982 0
M  V30 5055 C 468.696 1.73604 -1.02294 0
M  V30 5056 O 467.752 2.43589 -0.664895 0
M  V30 5057 C 469.065 0.196305 -3.00059 0
M  V30 5058 C 470.613 0.269875 -3.11834 0
M  V30 5059 C 471.088 0.157197 -4.5773 0
M  V30 5060 N 472.579 0.214521 -4.62703 0
M  V30 5061 C 473.314 0.150955 -5.73201 0
M  V30 5062 N 472.81 0.0369212 -6.9279 0
M  V30 5063 N 474.603 0.204162 -5.61729 0
M  V30 5064 H 466.754 -0.93279 -1.90821 0
M  V30 5065 H 469.017 -0.359253 -0.877292 0
M  V30 5066 H 468.723 -0.766383 -3.43248 0
M  V30 5067 H 468.597 0.970908 -3.6449 0
M  V30 5068 H 470.984 1.22302 -2.68563 0
M  V30 5069 H 471.065 -0.534918 -2.50144 0
M  V30 5070 H 470.709 -0.792479 -5.01679 0
M  V30 5071 H 470.639 0.980717 -5.17387 0
M  V30 5072 H 473.13 0.303238 -3.76681 0
M  V30 5073 H 473.443 -0.00518321 -7.728 0
M  V30 5074 H 471.788 0.0022886 -6.95 0
M  V30 5075 H 474.979 0.291575 -4.67191 0
M  V30 5076 H 475.152 0.15116 -6.47824 0
M  V30 5077 N 468.558 1.5553 0.254621 0
M  V30 5078 C 469.491 1.84624 1.34124 0
M  V30 5079 C 470.469 0.700693 1.46728 0
M  V30 5080 O 471.653 0.94564 1.63064 0
M  V30 5081 C 468.78 2.02412 2.71564 0
M  V30 5082 C 467.826 3.25028 2.7615 0
M  V30 5083 S 468.659 4.81893 2.33538 0
M  V30 5084 C 469.815 5.02677 3.72917 0
M  V30 5085 H 470.048 2.76501 1.09245 0
M  V30 5086 H 467.581 1.47537 0.455211 0
M  V30 5087 H 469.539 2.13345 3.50705 0
M  V30 5088 H 468.2 1.11391 2.93685 0
M  V30 5089 H 467.393 3.34418 3.77069 0
M  V30 5090 H 466.995 3.12781 2.05046 0
M  V30 5091 H 469.287 4.89546 4.68349 0
M  V30 5092 H 470.23 6.0468 3.68467 0
M  V30 5093 H 470.638 4.30561 3.65072 0
M  V30 5094 N 470.036 -0.519951 1.48776 0
M  V30 5095 C 470.968 -1.63973 1.60142 0
M  V30 5096 C 471.981 -1.55404 0.485117 0
M  V30 5097 O 473.17 -1.61682 0.756391 0
M  V30 5098 C 470.27 -3.02676 1.52449 0
M  V30 5099 C 469.443 -3.36624 2.79291 0
M  V30 5100 C 468.502 -4.54652 2.64912 0
M  V30 5101 O 467.528 -4.57374 3.38818 0
M  V30 5102 N 468.73 -5.53432 1.75195 0
M  V30 5103 H 471.495 -1.54656 2.56713 0
M  V30 5104 H 469.056 -0.707439 1.45626 0
M  V30 5105 H 471.048 -3.79525 1.4051 0
M  V30 5106 H 469.618 -3.06018 0.638125 0
M  V30 5107 H 468.838 -2.48855 3.0572 0
M  V30 5108 H 470.126 -3.56094 3.6342 0
M  V30 5109 H 469.524 -5.54018 1.14371 0
M  V30 5110 H 468.081 -6.29459 1.69189 0
M  V30 5111 N 471.514 -1.37532 -0.769588 0
M  V30 5112 C 472.739 -1.36231 -1.56384 0
M  V30 5113 C 473.164 0.0495849 -1.88035 0
M  V30 5114 O 472.522 1.02723 -1.49391 0
M  V30 5115 C 472.57 -2.20986 -2.84952 0
M  V30 5116 O 471.674 -1.61597 -3.79421 0
M  V30 5117 H 471.015 -0.465387 -0.473615 0
M  V30 5118 H 473.545 -1.81085 -0.952342 0
M  V30 5119 H 473.555 -2.34277 -3.34034 0
M  V30 5120 H 472.23 -3.23612 -2.61243 0
M  V30 5121 H 470.807 -1.57359 -3.38072 0
M  V30 5122 N 472.992 0.995999 -1.22138 0
M  V30 5123 C 473.922 2.10387 -1.01289 0
M  V30 5124 C 474.903 1.69975 0.0651454 0
M  V30 5125 O 476.088 1.9396 -0.0964628 0
M  V30 5126 C 473.218 3.42312 -0.586517 0
M  V30 5127 C 472.172 3.96558 -1.61014 0
M  V30 5128 C 471.498 5.24494 -1.0397 0
M  V30 5129 C 472.798 4.27595 -2.99933 0
M  V30 5130 H 474.492 2.28086 -1.93951 0
M  V30 5131 H 472.038 1.09607 -0.933928 0
M  V30 5132 H 473.991 4.19223 -0.427793 0
M  V30 5133 H 472.715 3.24431 0.375761 0
M  V30 5134 H 471.374 3.21776 -1.75658 0
M  V30 5135 H 471.022 5.02953 -0.0688703 0
M  V30 5136 H 470.722 5.61755 -1.72352 0
M  V30 5137 H 472.246 6.04042 -0.892494 0
M  V30 5138 H 473.66 4.95315 -2.8868 0
M  V30 5139 H 472.057 4.76021 -3.6541 0
M  V30 5140 H 473.127 3.35498 -3.50099 0
M  V30 5141 N 474.47 1.03057 1.19235 0
M  V30 5142 C 475.402 0.570932 2.21975 0
M  V30 5143 C 476.415 -0.354088 1.58903 0
M  V30 5144 O 477.604 -0.150211 1.77867 0
M  V30 5145 C 474.704 -0.187152 3.38383 0
M  V30 5146 C 473.877 0.743231 4.31039 0
M  V30 5147 C 472.936 0.0302493 5.26191 0
M  V30 5148 O 471.962 0.657371 5.65391 0
M  V30 5149 N 473.164 -1.23991 5.67104 0
M  V30 5150 H 475.929 1.45456 2.62036 0
M  V30 5151 H 473.49 0.909807 1.33918 0
M  V30 5152 H 475.482 -0.673715 3.99053 0
M  V30 5153 H 474.052 -0.972205 2.97098 0
M  V30 5154 H 473.272 1.40985 3.68126 0
M  V30 5155 H 474.56 1.3755 4.89854 0
M  V30 5156 H 473.958 -1.77011 5.37293 0
M  V30 5157 H 472.515 -1.67093 6.30018 0
M  V30 5158 N 475.948 -1.35272 0.808662 0
M  V30 5159 C 476.878 -2.32315 0.234981 0
M  V30 5160 C 477.859 -1.57572 -0.64071 0
M  V30 5161 O 479.044 -1.8563 -0.570551 0
M  V30 5162 C 476.174 -3.41801 -0.615601 0
M  V30 5163 C 475.128 -4.27694 0.161767 0
M  V30 5164 C 474.454 -5.28519 -0.810649 0
M  V30 5165 C 475.754 -5.04231 1.36193 0
M  V30 5166 H 477.448 -2.80543 1.04575 0
M  V30 5167 H 474.994 -1.3488 0.504315 0
M  V30 5168 H 476.947 -4.08693 -1.02702 0
M  V30 5169 H 475.671 -2.92186 -1.45928 0
M  V30 5170 H 474.33 -3.62384 0.554382 0
M  V30 5171 H 473.978 -4.75171 -1.64988 0
M  V30 5172 H 473.678 -5.8686 -0.294822 0
M  V30 5173 H 475.202 -5.98283 -1.22023 0
M  V30 5174 H 476.616 -5.64058 1.02528 0
M  V30 5175 H 475.013 -5.72077 1.81239 0
M  V30 5176 H 476.083 -4.34753 2.14751 0
M  V30 5177 N 477.426 -0.562348 -1.47226 0
M  V30 5178 C 478.703 0.0256985 -1.95583 0
M  V30 5179 C 479.083 1.48032 -1.50498 0
M  V30 5180 O 478.431 2.15973 -0.746181 0
M  V30 5181 C 478.641 -0.125129 -3.48776 0
M  V30 5182 C 479.989 0.0175728 -4.24596 0
M  V30 5183 O 481.013 -0.0529341 -3.56161 0
M  V30 5184 O 479.872 0.170145 -5.46235 0
M  V30 5185 H 476.966 0.0612565 -0.824728 0
M  V30 5186 H 479.512 -0.629233 -1.57603 0
M  V30 5187 H 478.284 -1.13715 -3.74412 0
M  V30 5188 H 477.907 0.567178 -3.93534 0
M  V30 5189 N 478.904 1.54736 -0.299062 0
M  V30 5190 C 480.144 2.0201 0.31168 0
M  V30 5191 C 480.508 1.18281 1.5124 0
M  V30 5192 O 481.709 1.55243 2.19438 0
M  V30 5193 C 479.98 3.5123 0.661227 0
M  V30 5194 S 481.539 4.20467 1.2551 0
M  V30 5195 H 478.357 0.704523 0.0957517 0
M  V30 5196 H 480.959 1.90791 -0.426482 0
M  V30 5197 H 479.663 4.09804 -0.221171 0
M  V30 5198 H 479.194 3.66481 1.43023 0
M  V30 5199 H 481.209 4.26083 2.54298 0
M  V30 5200 N 480.382 0.0267497 1.57577 0
M  V30 5201 C 481.628 -0.653371 1.91987 0
M  V30 5202 C 481.961 -1.71915 0.903263 0
M  V30 5203 O 481.236 -1.94358 -0.0743387 0
M  V30 5204 C 481.519 -1.272 3.36886 0
M  V30 5205 C 481.372 -0.215938 4.49281 0
M  V30 5206 C 482.691 -2.19069 3.81703 0
M  V30 5207 H 479.81 -0.236047 0.698177 0
M  V30 5208 H 482.452 0.0835236 1.89816 0
M  V30 5209 H 480.602 -1.90005 3.38866 0
M  V30 5210 H 482.274 0.41449 4.59434 0
M  V30 5211 H 480.517 0.458855 4.31366 0
M  V30 5212 H 481.188 -0.688347 5.47691 0
M  V30 5213 H 483.664 -1.66253 3.81444 0
M  V30 5214 H 482.54 -2.59307 4.83788 0
M  V30 5215 H 482.801 -3.08087 3.17072 0
M  V30 5216 N 481.861 -1.55662 -0.24637 0
M  V30 5217 C 482.824 -1.89558 -1.28842 0
M  V30 5218 C 483.824 -0.772082 -1.41052 0
M  V30 5219 O 485.014 -1.04007 -1.39743 0
M  V30 5220 C 482.146 -2.12449 -2.66605 0
M  V30 5221 H 483.339 -2.82735 -1.00004 0
M  V30 5222 H 480.892 -1.48562 -0.485684 0
M  V30 5223 H 481.627 -1.21742 -3.00582 0
M  V30 5224 H 481.412 -2.94273 -2.59125 0
M  V30 5225 H 482.902 -2.39854 -3.41847 0
M  V30 5226 N 483.339 0.512053 -1.4905 0
M  V30 5227 C 484.585 1.26874 -1.58212 0
M  V30 5228 C 484.918 1.9241 -0.263073 0
M  V30 5229 O 484.193 1.80181 0.732476 0
M  V30 5230 C 484.476 2.34428 -2.73341 0
M  V30 5231 C 484.329 1.73466 -4.15006 0
M  V30 5232 C 485.648 3.36073 -2.84154 0
M  V30 5233 H 482.767 0.459924 -0.575881 0
M  V30 5234 H 485.409 0.568587 -1.81293 0
M  V30 5235 H 483.559 2.94146 -2.53792 0
M  V30 5236 H 485.231 1.17661 -4.46042 0
M  V30 5237 H 483.474 1.03921 -4.21168 0
M  V30 5238 H 484.145 2.51426 -4.91415 0
M  V30 5239 H 486.621 2.86332 -3.01916 0
M  V30 5240 H 485.497 4.08703 -3.66406 0
M  V30 5241 H 485.758 3.97725 -1.93048 0
M  V30 5242 N 484.817 1.37938 0.762283 0
M  V30 5243 C 486.228 1.30094 1.33912 0
M  V30 5244 C 486.579 -0.0472026 1.96143 0
M  V30 5245 O 485.704 -0.94917 1.94473 0
M  V30 5246 C 486.299 2.35592 2.43478 0
M  V30 5247 C 484.858 2.31353 2.96905 0
M  V30 5248 C 484.005 2.18919 1.70205 0
M  V30 5249 H 486.956 1.48423 0.561816 0
M  V30 5250 H 486.977 2.00806 3.23199 0
M  V30 5251 H 486.489 3.33701 1.98155 0
M  V30 5252 H 484.59 1.36799 3.46579 0
M  V30 5253 H 484.703 3.25147 3.51875 0
M  V30 5254 H 483.067 1.65624 1.93496 0
M  V30 5255 H 483.85 3.18956 1.26973 0
M  V30 5256 N 486.295 -0.989507 1.22664 0
M  V30 5257 C 487.52 -1.77031 1.08051 0
M  V30 5258 C 487.945 -1.84535 -0.364483 0
M  V30 5259 O 487.303 -1.3003 -1.2634 0
M  V30 5260 C 487.351 -3.18 1.70024 0
M  V30 5261 O 486.455 -4.01161 0.956216 0
M  V30 5262 H 485.796 -0.545008 0.379292 0
M  V30 5263 H 488.326 -1.24277 1.62531 0
M  V30 5264 H 488.336 -3.68616 1.74888 0
M  V30 5265 H 487.011 -3.11853 2.75174 0
M  V30 5266 H 485.588 -3.59687 0.98384 0
M  V30 5267 N 487.773 -1.03688 -1.18687 0
M  V30 5268 C 488.998 -0.757819 -1.93059 0
M  V30 5269 C 489.423 0.678353 -1.75442 0
M  V30 5270 O 488.781 1.46938 -1.06203 0
M  V30 5271 C 488.829 -1.12423 -3.42627 0
M  V30 5272 O 487.933 -0.247505 -4.11657 0
M  V30 5273 H 487.274 -0.279245 -0.602427 0
M  V30 5274 H 489.804 -1.3857 -1.5053 0
M  V30 5275 H 489.814 -1.08454 -3.93322 0
M  V30 5276 H 488.489 -2.17049 -3.54771 0
M  V30 5277 H 487.066 -0.34649 -3.71287 0
M  V30 5278 N 489.251 1.34841 -0.815825 0
M  V30 5279 C 490.667 1.51543 -0.500697 0
M  V30 5280 C 490.867 1.76261 0.976444 0
M  V30 5281 O 489.923 1.8094 1.76117 0
M  V30 5282 C 491.236 2.68487 -1.35407 0
M  V30 5283 C 492.784 2.82368 -1.35046 0
M  V30 5284 C 493.259 4.02347 -2.18816 0
M  V30 5285 N 494.75 4.09542 -2.16402 0
M  V30 5286 C 495.485 5.01517 -2.77971 0
M  V30 5287 N 494.981 5.98763 -3.48503 0
M  V30 5288 N 496.774 4.94334 -2.67563 0
M  V30 5289 H 488.925 1.17055 -1.77234 0
M  V30 5290 H 491.188 0.573481 -0.754866 0
M  V30 5291 H 490.894 2.56829 -2.40274 0
M  V30 5292 H 490.768 3.63321 -1.01377 0
M  V30 5293 H 493.155 2.93471 -0.309604 0
M  V30 5294 H 493.236 1.88363 -1.73069 0
M  V30 5295 H 492.88 3.92004 -3.22948 0
M  V30 5296 H 492.81 4.95551 -1.78148 0
M  V30 5297 H 495.301 3.39932 -1.65091 0
M  V30 5298 H 495.614 6.6556 -3.92747 0
M  V30 5299 H 493.959 5.98909 -3.52609 0
M  V30 5300 H 497.15 4.1732 -2.12041 0
M  V30 5301 H 497.323 5.6582 -3.15834 0
M  V30 5302 N 490.729 0.570148 1.46925 0
M  V30 5303 C 491.954 0.0542592 2.07329 0
M  V30 5304 C 492.379 -1.23582 1.41806 0
M  V30 5305 O 491.737 -1.74341 0.497479 0
M  V30 5306 C 491.785 -0.111175 3.60429 0
M  V30 5307 O 490.889 -1.17071 3.95434 0
M  V30 5308 H 490.23 0.0571425 0.661537 0
M  V30 5309 H 492.76 0.789516 1.88753 0
M  V30 5310 H 492.77 -0.321315 4.06733 0
M  V30 5311 H 491.445 0.831012 4.07513 0
M  V30 5312 H 490.022 -0.940029 3.60857 0
M  V30 5313 N 492.207 -1.54576 0.307264 0
M  V30 5314 C 493.155 -2.25208 -0.581723 0
M  V30 5315 C 494.149 -1.26031 -1.13192 0
M  V30 5316 O 495.355 -1.43862 -1.08184 0
M  V30 5317 H 491.73 -0.723173 -0.206214 0
M  V30 5318 H 493.701 -2.98378 0.0364663 0
M  V30 5319 C 492.45 -3.01086 -1.73904 0
M  V30 5320 H 491.773 -3.77208 -1.32491 0
M  V30 5321 H 493.213 -3.5378 -2.33701 0
M  V30 5322 C 491.672 -2.08422 -2.64692 0
M  V30 5323 O 492.202 -1.65636 -3.65961 0
M  V30 5324 N 490.408 -1.74247 -2.32564 0
M  V30 5325 H 489.955 -2.09238 -1.50257 0
M  V30 5326 H 489.913 -1.12524 -2.93574 0
M  V30 5327 N 493.685 -0.035106 -1.57561 0
M  V30 5328 C 494.91 0.655802 -1.96759 0
M  V30 5329 C 495.335 1.64523 -0.911809 0
M  V30 5330 O 494.693 1.80857 0.126673 0
M  V30 5331 C 494.741 1.33326 -3.35047 0
M  V30 5332 O 493.845 2.44866 -3.31835 0
M  V30 5333 H 493.186 0.171807 -0.641388 0
M  V30 5334 H 495.716 -0.0987369 -2.04362 0
M  V30 5335 H 495.726 1.68867 -3.71413 0
M  V30 5336 H 494.401 0.608033 -4.11431 0
M  V30 5337 H 492.978 2.11392 -3.07193 0
M  V30 5338 N 495.163 1.55791 0.238111 0
M  V30 5339 C 496.126 1.90239 1.27835 0
M  V30 5340 C 497.126 0.779552 1.4064 0
M  V30 5341 O 498.316 1.04747 1.3919 0
M  V30 5342 C 495.448 2.13859 2.65475 0
M  V30 5343 H 496.641 2.83262 0.985034 0
M  V30 5344 H 494.194 1.48818 0.477799 0
M  V30 5345 H 494.929 1.23334 2.99932 0
M  V30 5346 H 494.714 2.95643 2.57561 0
M  V30 5347 H 496.204 2.41664 3.40571 0
M  V30 5348 N 496.642 -0.504142 1.49319 0
M  V30 5349 C 497.87 -1.28256 1.62351 0
M  V30 5350 C 498.285 -1.86502 0.293682 0
M  V30 5351 O 497.642 -1.67678 -0.720449 0
M  V30 5352 C 497.693 -2.41507 2.68992 0
M  V30 5353 O 497.414 -1.85656 3.96817 0
M  V30 5354 C 498.915 -3.32929 2.927 0
M  V30 5355 H 496.135 -0.389115 0.546654 0
M  V30 5356 H 498.679 -0.605531 1.95329 0
M  V30 5357 H 496.834 -3.05046 2.38801 0
M  V30 5358 H 497.248 -2.59981 4.55533 0
M  V30 5359 H 498.722 -4.0868 3.71058 0
M  V30 5360 H 499.199 -3.89733 2.02496 0
M  V30 5361 H 499.805 -2.75158 3.24296 0
M  V30 5362 N 498.12 -1.38341 -0.754957 0
M  V30 5363 C 499.03 -1.3769 -1.89944 0
M  V30 5364 C 500.046 -0.274194 -1.71826 0
M  V30 5365 O 501.222 -0.512391 -1.94773 0
M  V30 5366 C 498.287 -1.19938 -3.25293 0
M  V30 5367 C 497.348 -2.40001 -3.55946 0
M  V30 5368 C 496.581 -2.23087 -4.84838 0
M  V30 5369 O 496.804 -1.22386 -5.57116 0
M  V30 5370 O 495.738 -3.11646 -5.14937 0
M  V30 5371 H 499.564 -2.3412 -1.93446 0
M  V30 5372 H 497.149 -1.19246 -0.900044 0
M  V30 5373 H 499.031 -1.12093 -4.06218 0
M  V30 5374 H 497.706 -0.265919 -3.22606 0
M  V30 5375 H 496.613 -2.53421 -2.75188 0
M  V30 5376 H 497.946 -3.31973 -3.63394 0
M  V30 5377 N 499.598 0.982988 -1.23187 0
M  V30 5378 C 500.53 2.07729 -0.968572 0
M  V30 5379 C 501.543 1.62702 0.0564821 0
M  V30 5380 O 502.732 1.77603 -0.178733 0
M  V30 5381 C 499.832 3.36071 -0.436974 0
M  V30 5382 C 499.005 4.10081 -1.52159 0
M  V30 5383 C 498.064 5.16701 -0.99532 0
M  V30 5384 O 497.09 5.43727 -1.68373 0
M  V30 5385 N 498.292 5.80226 0.178192 0
M  V30 5386 H 501.057 2.30894 -1.9107 0
M  V30 5387 H 498.618 1.14949 -1.1401 0
M  V30 5388 H 500.61 4.04639 -0.0700051 0
M  V30 5389 H 499.18 3.09893 0.410509 0
M  V30 5390 H 498.4 3.36004 -2.06144 0
M  V30 5391 H 499.688 4.56295 -2.25105 0
M  V30 5392 H 499.086 5.60651 0.754096 0
M  V30 5393 H 497.643 6.49982 0.486449 0
M  V30 5394 N 501.076 1.04316 1.18135 0
M  V30 5395 C 502.487 0.775505 1.69832 0
M  V30 5396 C 502.838 -0.703348 1.8316 0
M  V30 5397 O 501.963 -1.54729 1.51287 0
M  V30 5398 C 502.558 1.40112 3.0847 0
M  V30 5399 C 501.117 1.18172 3.57368 0
M  V30 5400 C 500.264 1.49022 2.33854 0
M  V30 5401 H 503.215 1.20925 1.02775 0
M  V30 5402 H 503.236 0.805672 3.71873 0
M  V30 5403 H 502.748 2.47744 2.98738 0
M  V30 5404 H 500.849 0.124258 3.72393 0
M  V30 5405 H 500.962 1.8805 4.40652 0
M  V30 5406 H 499.326 0.909995 2.37889 0
M  V30 5407 H 500.109 2.57768 2.26738 0
M  V30 5408 N 502.554 -1.34406 0.822964 0
M  V30 5409 C 503.802 -1.97892 0.410245 0
M  V30 5410 C 504.123 -1.65567 -1.03017 0
M  V30 5411 O 503.393 -0.94642 -1.71522 0
M  V30 5412 H 501.973 -0.732049 0.148707 0
M  V30 5413 H 504.635 -1.64043 1.05242 0
M  V30 5414 H 503.731 -3.07579 0.529284 0
M  V30 5415 N 504.032 -0.577932 -1.46621 0
M  V30 5416 C 505.257 -0.0652536 -2.07297 0
M  V30 5417 C 505.682 1.22828 -1.4246 0
M  V30 5418 O 505.04 1.74075 -0.506718 0
M  V30 5419 C 505.088 0.0920589 -3.60482 0
M  V30 5420 O 504.192 1.14972 -3.96049 0
M  V30 5421 H 503.533 -0.06065 -0.661224 0
M  V30 5422 H 506.063 -0.799515 -1.88332 0
M  V30 5423 H 506.073 0.299741 -4.06897 0
M  V30 5424 H 504.748 -0.852612 -4.07067 0
M  V30 5425 H 503.325 0.920879 -3.61351 0
M  V30 5426 N 505.51 1.54411 -0.315457 0
M  V30 5427 C 506.44 2.27002 0.547039 0
M  V30 5428 C 507.421 1.27492 1.12605 0
M  V30 5429 O 508.606 1.5629 1.15269 0
M  V30 5430 C 505.736 3.02171 1.71201 0
M  V30 5431 C 504.69 4.0895 1.26268 0
M  V30 5432 C 504.016 4.71915 2.51396 0
M  V30 5433 C 505.316 5.20891 0.383419 0
M  V30 5434 H 507.01 2.99343 -0.0584517 0
M  V30 5435 H 504.556 1.4397 -0.0295527 0
M  V30 5436 H 506.509 3.51681 2.32161 0
M  V30 5437 H 505.233 2.27433 2.34397 0
M  V30 5438 H 503.892 3.60312 0.676062 0
M  V30 5439 H 503.54 3.93801 3.12937 0
M  V30 5440 H 503.24 5.44039 2.22026 0
M  V30 5441 H 504.764 5.24195 3.13133 0
M  V30 5442 H 506.178 5.66206 0.899082 0
M  V30 5443 H 504.575 5.99821 0.182857 0
M  V30 5444 H 505.645 4.81324 -0.587821 0
M  V30 5445 N 506.988 0.0434614 1.5754 0
M  V30 5446 C 507.938 -0.943039 2.07583 0
M  V30 5447 C 508.922 -1.27662 0.979342 0
M  V30 5448 O 510.114 -1.26034 1.24276 0
M  V30 5449 C 507.243 -2.22056 2.61813 0
M  V30 5450 C 506.329 -1.91471 3.78417 0
M  V30 5451 N 506.72 -1.31214 4.88484 0
M  V30 5452 C 505.018 -2.21384 3.87176 0
M  V30 5453 C 505.719 -1.18084 5.69588 0
M  V30 5454 N 504.695 -1.68116 5.16951 0
M  V30 5455 H 508.497 -0.472354 2.90079 0
M  V30 5456 H 506.011 -0.161191 1.61598 0
M  V30 5457 H 508.008 -2.93618 2.95963 0
M  V30 5458 H 506.668 -2.69738 1.80752 0
M  V30 5459 H 507.679 -0.985318 5.08441 0
M  V30 5460 H 504.356 -2.7164 3.17046 0
M  V30 5461 H 505.746 -0.713684 6.68099 0
M  V30 5462 N 508.466 -1.55915 -0.229846 0
M  V30 5463 C 509.691 -1.8296 -0.976743 0
M  V30 5464 C 510.116 -0.622735 -1.77493 0
M  V30 5465 O 509.474 0.428431 -1.76165 0
M  V30 5466 C 509.522 -3.07916 -1.8767 0
M  V30 5467 O 508.626 -2.86028 -2.97088 0
M  V30 5468 H 507.967 -0.603453 -0.277021 0
M  V30 5469 H 510.497 -2.0312 -0.245669 0
M  V30 5470 H 510.507 -3.37802 -2.2881 0
M  V30 5471 H 509.182 -3.95389 -1.28996 0
M  V30 5472 H 507.759 -2.67355 -2.59954 0
M  V30 5473 N 509.944 0.496216 -1.49584 0
M  V30 5474 C 511.169 1.27865 -1.63295 0
M  V30 5475 C 511.594 1.85592 -0.306156 0
M  V30 5476 O 510.952 1.66092 0.726851 0
M  V30 5477 C 511 2.38128 -2.7079 0
M  V30 5478 O 510.104 3.42108 -2.30296 0
M  V30 5479 H 509.445 0.377279 -0.546403 0
M  V30 5480 H 511.975 0.593497 -1.95803 0
M  V30 5481 H 511.985 2.8382 -2.93104 0
M  V30 5482 H 510.66 1.95479 -3.67098 0
M  V30 5483 H 509.237 3.02301 -2.18331 0
M  V30 5484 N 511.423 1.38739 0.74761 0
M  V30 5485 C 512.355 1.32341 1.87132 0
M  V30 5486 C 513.368 0.234502 1.61102 0
M  V30 5487 O 514.557 0.492516 1.71571 0
M  V30 5488 C 511.657 1.02915 3.22896 0
M  V30 5489 C 510.83 2.22834 3.76383 0
M  V30 5490 C 509.889 1.90059 4.90677 0
M  V30 5491 O 508.915 2.62615 5.04997 0
M  V30 5492 N 510.117 0.859141 5.74107 0
M  V30 5493 H 512.882 2.29175 1.93129 0
M  V30 5494 H 510.443 1.32678 0.927805 0
M  V30 5495 H 512.435 0.79031 3.96908 0
M  V30 5496 H 511.005 0.148572 3.12247 0
M  V30 5497 H 510.225 2.62747 2.93867 0
M  V30 5498 H 511.513 3.02851 4.08851 0
M  V30 5499 H 510.911 0.257564 5.65113 0
M  V30 5500 H 509.468 0.680189 6.48241 0
M  V30 5501 N 512.901 -0.976442 1.23707 0
M  V30 5502 C 514.149 -1.71487 1.06942 0
M  V30 5503 C 514.47 -1.9098 -0.393897 0
M  V30 5504 O 513.74 -1.48128 -1.28198 0
M  V30 5505 H 512.32 -0.635425 0.392739 0
M  V30 5506 H 514.982 -1.17515 1.55487 0
M  V30 5507 H 514.078 -2.70286 1.56051 0
M  V30 5508 N 514.379 -1.04941 -1.1758 0
M  V30 5509 C 515.309 -0.669172 -2.23706 0
M  V30 5510 C 516.29 0.331835 -1.66832 0
M  V30 5511 O 517.475 0.209988 -1.93061 0
M  V30 5512 C 514.605 -0.0404889 -3.47276 0
M  V30 5513 C 513.559 -0.965983 -4.16957 0
M  V30 5514 C 512.885 -0.201312 -5.34321 0
M  V30 5515 C 514.185 -2.28902 -4.69469 0
M  V30 5516 H 515.879 -1.55639 -2.55767 0
M  V30 5517 H 513.425 -0.749793 -1.22939 0
M  V30 5518 H 515.378 0.237298 -4.20731 0
M  V30 5519 H 514.102 0.881658 -3.14475 0
M  V30 5520 H 512.761 -1.22829 -3.45411 0
M  V30 5521 H 512.409 0.723519 -4.97769 0
M  V30 5522 H 512.109 -0.817968 -5.81879 0
M  V30 5523 H 513.633 0.0692499 -6.10561 0
M  V30 5524 H 515.047 -2.07132 -5.34574 0
M  V30 5525 H 513.444 -2.85942 -5.27596 0
M  V30 5526 H 514.514 -2.92937 -3.86414 0
M  V30 5527 N 515.857 1.33968 -0.830081 0
M  V30 5528 C 517.105 1.97672 -0.420734 0
M  V30 5529 C 517.426 1.66111 1.02138 0
M  V30 5530 O 516.696 0.955503 1.71017 0
M  V30 5531 H 515.276 0.73125 -0.152587 0
M  V30 5532 H 517.938 1.63483 -1.0611 0
M  V30 5533 H 517.034 3.07294 -0.545588 0
M  V30 5534 N 517.335 0.585699 1.46312 0
M  V30 5535 C 518.268 -0.194257 2.27372 0
M  V30 5536 C 519.246 -0.894116 1.3581 0
M  V30 5537 O 520.43 -0.907402 1.65222 0
M  V30 5538 C 517.557 -1.27901 3.13622 0
M  V30 5539 C 516.603 -0.684666 4.20969 0
M  V30 5540 S 517.436 0.490745 5.33247 0
M  V30 5541 C 518.592 -0.595137 6.23064 0
M  V30 5542 H 518.825 0.493515 2.93175 0
M  V30 5543 H 516.358 0.372666 1.49835 0
M  V30 5544 H 518.316 -1.90008 3.63878 0
M  V30 5545 H 516.977 -1.93875 2.47126 0
M  V30 5546 H 516.17 -1.50015 4.81156 0
M  V30 5547 H 515.772 -0.139204 3.73741 0
M  V30 5548 H 518.064 -1.48002 6.61137 0
M  V30 5549 H 519.007 -0.0299446 7.08094 0
M  V30 5550 H 519.415 -0.900627 5.57269 0
M  V30 5551 N 518.813 -1.54241 0.323641 0
M  V30 5552 C 520.061 -2.00174 -0.278359 0
M  V30 5553 C 520.382 -1.2134 -1.52648 0
M  V30 5554 O 519.652 -0.315244 -1.93347 0
M  V30 5555 H 518.232 -0.739463 -0.105845 0
M  V30 5556 H 520.894 -1.89864 0.440204 0
M  V30 5557 H 519.99 -3.07486 -0.5347 0
M  V30 5558 N 520.291 -0.0518155 -1.57515 0
M  V30 5559 C 521.702 0.483787 -1.80323 0
M  V30 5560 C 522.053 1.70879 -0.964099 0
M  V30 5561 O 521.178 2.15643 -0.180872 0
M  V30 5562 C 521.773 0.884459 -3.27052 0
M  V30 5563 C 520.332 1.36504 -3.50776 0
M  V30 5564 C 519.479 0.340539 -2.75201 0
M  V30 5565 H 522.43 -0.277691 -1.56252 0
M  V30 5566 H 522.451 1.74733 -3.38007 0
M  V30 5567 H 521.963 -0.00731093 -3.88099 0
M  V30 5568 H 520.064 2.27598 -2.95009 0
M  V30 5569 H 520.177 1.35675 -4.59488 0
M  V30 5570 H 518.541 0.81356 -2.41357 0
M  V30 5571 H 519.324 -0.543156 -3.38976 0
M  V30 5572 N 521.769 1.56035 0.221574 0
M  V30 5573 C 523.015 1.79312 0.947372 0
M  V30 5574 C 523.348 0.621453 1.83988 0
M  V30 5575 O 522.623 -0.379287 1.90766 0
M  V30 5576 C 522.906 3.1267 1.78633 0
M  V30 5577 C 522.759 4.40284 0.920312 0
M  V30 5578 C 524.078 3.4247 2.7641 0
M  V30 5579 H 521.197 0.652328 0.342982 0
M  V30 5580 H 523.839 1.88765 0.216244 0
M  V30 5581 H 521.989 3.04741 2.40967 0
M  V30 5582 H 523.661 4.60232 0.313718 0
M  V30 5583 H 521.904 4.33212 0.225734 0
M  V30 5584 H 522.575 5.30033 1.54171 0
M  V30 5585 H 525.051 3.50526 2.24211 0
M  V30 5586 H 523.927 4.3695 3.32213 0
M  V30 5587 H 524.188 2.64635 3.54148 0
M  V30 5588 N 523.247 -0.488276 1.49845 0
M  V30 5589 C 524.157 -1.61451 1.70207 0
M  V30 5590 C 525.173 -1.63877 0.584846 0
M  V30 5591 O 526.349 -1.82063 0.861107 0
M  V30 5592 C 523.414 -2.9776 1.77594 0
M  V30 5593 C 522.475 -3.05861 3.01243 0
M  V30 5594 C 521.708 -4.35668 3.08268 0
M  V30 5595 O 521.931 -5.25197 2.22541 0
M  V30 5596 O 520.865 -4.49005 4.00847 0
M  V30 5597 H 524.691 -1.47199 2.65643 0
M  V30 5598 H 522.276 -0.665939 1.33737 0
M  V30 5599 H 524.158 -3.7875 1.84732 0
M  V30 5600 H 522.833 -3.12248 0.8534 0
M  V30 5601 H 521.74 -2.24012 2.99616 0
M  V30 5602 H 523.073 -2.96304 3.9302 0
M  V30 5603 N 524.725 -1.39134 -0.740242 0
M  V30 5604 C 525.635 -1.39697 -1.88473 0
M  V30 5605 C 526.651 -0.292403 -1.71526 0
M  V30 5606 O 527.827 -0.533021 -1.94219 0
M  V30 5607 C 524.892 -1.23382 -3.24003 0
M  V30 5608 C 523.953 -2.43763 -3.53381 0
M  V30 5609 C 523.186 -2.28216 -4.82445 0
M  V30 5610 O 523.409 -1.28288 -5.55786 0
M  V30 5611 O 522.343 -3.1709 -5.11603 0
M  V30 5612 H 526.169 -2.36159 -1.90952 0
M  V30 5613 H 523.754 -1.20194 -0.887346 0
M  V30 5614 H 525.636 -1.16395 -4.05006 0
M  V30 5615 H 524.311 -0.300121 -3.22306 0
M  V30 5616 H 523.218 -2.56325 -2.72485 0
M  V30 5617 H 524.551 -3.35808 -3.59852 0
M  V30 5618 N 526.204 0.969867 -1.24223 0
M  V30 5619 C 527.429 1.75289 -1.10853 0
M  V30 5620 C 527.854 1.85091 0.335079 0
M  V30 5621 O 527.212 1.32024 1.24255 0
M  V30 5622 C 527.26 3.15255 -1.75062 0
M  V30 5623 O 526.364 3.99589 -1.01992 0
M  V30 5624 H 525.705 0.538904 -0.387915 0
M  V30 5625 H 528.235 1.21675 -1.64488 0
M  V30 5626 H 528.245 3.65787 -1.80731 0
M  V30 5627 H 526.92 3.07436 -2.801 0
M  V30 5628 H 525.497 3.58077 -1.04094 0
M  V30 5629 N 527.682 1.05563 1.17022 0
M  V30 5630 C 528.928 0.778872 1.87897 0
M  V30 5631 C 529.283 -0.686839 1.79723 0
M  V30 5632 O 528.576 -1.49612 1.19694 0
M  V30 5633 C 528.77 1.19849 3.36706 0
M  V30 5634 C 528.599 2.70345 3.59366 0
M  V30 5635 C 527.369 3.37707 3.75875 0
M  V30 5636 C 529.567 3.68564 3.58699 0
M  V30 5637 N 527.549 4.7703 3.86414 0
M  V30 5638 C 528.92 4.93634 3.75134 0
M  V30 5639 C 530.975 3.6198 3.4187 0
M  V30 5640 C 529.678 6.12907 3.76481 0
M  V30 5641 C 531.704 4.80697 3.44507 0
M  V30 5642 C 531.066 6.04592 3.61453 0
M  V30 5643 H 527.165 0.337297 0.705517 0
M  V30 5644 H 529.749 1.34832 1.40458 0
M  V30 5645 H 527.92 0.656958 3.82804 0
M  V30 5646 H 529.652 0.871172 3.95212 0
M  V30 5647 H 526.407 2.88108 3.75887 0
M  V30 5648 H 526.831 5.49483 3.95471 0
M  V30 5649 H 531.473 2.67154 3.27702 0
M  V30 5650 H 529.191 7.08073 3.89432 0
M  V30 5651 H 532.777 4.77259 3.32738 0
M  V30 5652 H 531.657 6.94916 3.63403 0
M  V30 5653 N 529.16 -1.33526 0.837174 0
M  V30 5654 C 530.407 -1.97837 0.432064 0
M  V30 5655 C 530.735 -1.66324 -1.00829 0
M  V30 5656 O 529.99 -0.93448 -1.71948 0
M  V30 5657 C 530.289 -3.52367 0.597675 0
M  V30 5658 C 529.955 -4.03826 2.00587 0
M  V30 5659 C 528.617 -4.1759 2.39106 0
M  V30 5660 C 530.969 -4.31333 2.92576 0
M  V30 5661 C 528.297 -4.56195 3.68921 0
M  V30 5662 C 530.649 -4.7139 4.2187 0
M  V30 5663 C 529.313 -4.8336 4.60347 0
M  V30 5664 H 528.583 -0.723937 0.158104 0
M  V30 5665 H 531.23 -1.5923 1.06387 0
M  V30 5666 H 529.535 -3.91624 -0.117452 0
M  V30 5667 H 531.232 -4.00126 0.26454 0
M  V30 5668 H 527.822 -3.93586 1.69671 0
M  V30 5669 H 532.006 -4.20224 2.64056 0
M  V30 5670 H 527.262 -4.63655 3.9854 0
M  V30 5671 H 531.436 -4.91631 4.93226 0
M  V30 5672 H 529.063 -5.1303 5.60985 0
M  V30 5673 N 530.638 -0.59345 -1.46 0
M  V30 5674 C 531.601 0.123538 -2.28867 0
M  V30 5675 C 532.601 0.808628 -1.38989 0
M  V30 5676 O 533.791 0.658945 -1.61256 0
M  V30 5677 C 530.923 1.1847 -3.19653 0
M  V30 5678 H 532.116 -0.604843 -2.93737 0
M  V30 5679 H 529.669 -0.351875 -1.52288 0
M  V30 5680 H 530.404 1.94431 -2.59552 0
M  V30 5681 H 530.189 0.69783 -3.8584 0
M  V30 5682 H 531.679 1.68726 -3.81997 0
M  V30 5683 N 532.116 1.54067 -0.331816 0
M  V30 5684 C 533.527 1.86059 0.15454 0
M  V30 5685 C 533.878 1.25331 1.50952 0
M  V30 5686 O 533.003 0.562441 2.08963 0
M  V30 5687 C 533.598 3.37581 0.287192 0
M  V30 5688 C 532.157 3.69493 0.717773 0
M  V30 5689 C 531.304 2.76863 -0.155569 0
M  V30 5690 H 534.255 1.48797 -0.55182 0
M  V30 5691 H 534.276 3.63744 1.11671 0
M  V30 5692 H 533.788 3.81751 -0.699131 0
M  V30 5693 H 531.889 3.3086 1.71354 0
M  V30 5694 H 532.002 4.76315 0.5158 0
M  V30 5695 H 530.366 2.51995 0.370213 0
M  V30 5696 H 531.149 3.23861 -1.13881 0
M  V30 5697 N 533.594 0.0601682 1.57485 0
M  V30 5698 C 534.819 -0.624416 1.97777 0
M  V30 5699 C 535.244 -1.63051 0.937867 0
M  V30 5700 O 534.602 -1.81036 -0.0978845 0
M  V30 5701 C 534.65 -1.27979 3.37126 0
M  V30 5702 O 533.754 -2.39556 3.35688 0
M  V30 5703 H 533.095 -0.161581 0.64404 0
M  V30 5704 H 535.625 0.131237 2.04179 0
M  V30 5705 H 535.635 -1.62937 3.74053 0
M  V30 5706 H 534.31 -0.542501 4.12347 0
M  V30 5707 H 532.887 -2.06478 3.10517 0
M  V30 5708 N 535.072 -1.5615 -0.213296 0
M  V30 5709 C 536.002 -1.96109 -1.26742 0
M  V30 5710 C 536.983 -0.830448 -1.48451 0
M  V30 5711 O 538.168 -1.09339 -1.60495 0
M  V30 5712 C 535.298 -2.28492 -2.61551 0
M  V30 5713 C 534.252 -3.44124 -2.54485 0
M  V30 5714 C 533.578 -3.62134 -3.93399 0
M  V30 5715 C 534.878 -4.78855 -2.08556 0
M  V30 5716 H 536.572 -2.84412 -0.935434 0
M  V30 5717 H 534.118 -1.36836 -0.44854 0
M  V30 5718 H 536.071 -2.55039 -3.3546 0
M  V30 5719 H 534.795 -1.37052 -2.96453 0
M  V30 5720 H 533.454 -3.17639 -1.83033 0
M  V30 5721 H 533.102 -2.68055 -4.25623 0
M  V30 5722 H 532.802 -4.39913 -3.89551 0
M  V30 5723 H 534.326 -3.91038 -4.68958 0
M  V30 5724 H 535.74 -5.04552 -2.72213 0
M  V30 5725 H 534.137 -5.59975 -2.1575 0
M  V30 5726 H 535.207 -4.73657 -1.03811 0
M  V30 5727 N 536.55 0.480323 -1.50102 0
M  V30 5728 C 537.46 1.60547 -1.71061 0
M  V30 5729 C 538.476 1.63564 -0.593529 0
M  V30 5730 O 539.652 1.81604 -0.870751 0
M  V30 5731 C 536.717 2.96814 -1.79171 0
M  V30 5732 C 535.778 3.04259 -3.02861 0
M  V30 5733 C 535.011 4.34027 -3.10574 0
M  V30 5734 O 535.234 5.24009 -2.25323 0
M  V30 5735 O 534.168 4.46873 -4.03223 0
M  V30 5736 H 537.994 1.45788 -2.6642 0
M  V30 5737 H 535.579 0.658838 -1.34088 0
M  V30 5738 H 537.461 3.77765 -1.86738 0
M  V30 5739 H 536.136 3.11791 -0.869947 0
M  V30 5740 H 535.043 2.22419 -3.008 0
M  V30 5741 H 536.376 2.94216 -3.94586 0
M  V30 5742 N 538.028 1.39524 0.732853 0
M  V30 5743 C 538.978 1.34905 1.83806 0
M  V30 5744 C 539.962 0.229546 1.59254 0
M  V30 5745 O 541.154 0.467255 1.70721 0
M  V30 5746 C 538.283 1.19699 3.21756 0
M  V30 5747 C 537.369 2.36359 3.5213 0
M  V30 5748 N 537.76 3.61834 3.53426 0
M  V30 5749 C 536.058 2.29363 3.82503 0
M  V30 5750 C 536.759 4.38992 3.81655 0
M  V30 5751 N 535.735 3.68606 3.99538 0
M  V30 5752 H 539.537 2.29882 1.83116 0
M  V30 5753 H 537.051 1.33051 0.931194 0
M  V30 5754 H 539.048 1.14472 4.00876 0
M  V30 5755 H 537.708 0.256739 3.23683 0
M  V30 5756 H 538.719 3.95228 3.34686 0
M  V30 5757 H 535.396 1.43612 3.92023 0
M  V30 5758 H 536.786 5.47763 3.89108 0
M  V30 5759 N 539.506 -0.963266 1.24736 0
M  V30 5760 C 540.917 -1.52145 1.08207 0
M  V30 5761 C 541.268 -1.93142 -0.345061 0
M  V30 5762 O 540.393 -1.77769 -1.23399 0
M  V30 5763 C 540.988 -2.76486 1.95808 0
M  V30 5764 C 539.547 -3.28646 1.8349 0
M  V30 5765 C 538.694 -2.01529 1.90476 0
M  V30 5766 H 541.645 -0.781083 1.38148 0
M  V30 5767 H 541.666 -3.49986 1.49297 0
M  V30 5768 H 541.178 -2.46617 2.99669 0
M  V30 5769 H 539.279 -3.63357 0.824787 0
M  V30 5770 H 539.392 -3.97246 2.67829 0
M  V30 5771 H 537.756 -2.16442 1.34258 0
M  V30 5772 H 538.539 -1.7402 2.95926 0
M  V30 5773 N 540.985 -1.06182 -1.16461 0
M  V30 5774 C 541.917 -0.629584 -2.20383 0
M  V30 5775 C 542.93 0.311834 -1.59786 0
M  V30 5776 O 544.119 0.103 -1.78203 0
M  V30 5777 C 541.219 0.0973695 -3.3876 0
M  V30 5778 C 540.392 -0.857252 -4.28917 0
M  V30 5779 C 539.451 -0.169749 -5.25926 0
M  V30 5780 O 538.477 -0.807044 -5.6345 0
M  V30 5781 N 539.679 1.08911 -5.70192 0
M  V30 5782 H 542.444 -1.52352 -2.58087 0
M  V30 5783 H 540.005 -0.944993 -1.31459 0
M  V30 5784 H 541.997 0.567676 -4.00699 0
M  V30 5785 H 540.567 0.893093 -2.99571 0
M  V30 5786 H 539.787 -1.50696 -3.64259 0
M  V30 5787 H 541.075 -1.50489 -4.86035 0
M  V30 5788 H 540.473 1.62703 -5.41797 0
M  V30 5789 H 539.03 1.50331 -6.34227 0
M  V30 5790 N 542.463 1.3308 -0.844243 0
M  V30 5791 C 543.373 2.32876 -0.283922 0
M  V30 5792 C 544.389 1.63589 0.592846 0
M  V30 5793 O 545.565 1.95205 0.495693 0
M  V30 5794 C 542.63 3.42667 0.527283 0
M  V30 5795 C 541.691 4.27664 -0.374394 0
M  V30 5796 C 540.924 5.32212 0.39819 0
M  V30 5797 O 541.147 5.46635 1.62932 0
M  V30 5798 O 540.081 6.01458 -0.2306 0
M  V30 5799 H 543.907 2.82671 -1.11045 0
M  V30 5800 H 541.492 1.36518 -0.606903 0
M  V30 5801 H 543.374 4.09652 0.988078 0
M  V30 5802 H 542.049 2.95079 1.33078 0
M  V30 5803 H 540.956 3.63526 -0.883144 0
M  V30 5804 H 542.289 4.78749 -1.1428 0
M  V30 5805 N 543.941 0.601185 1.45683 0
M  V30 5806 C 544.851 -0.123395 2.34275 0
M  V30 5807 C 545.867 -0.86702 1.5086 0
M  V30 5808 O 547.043 -0.826049 1.8368 0
M  V30 5809 C 544.108 -1.11237 3.2837 0
M  V30 5810 C 543.169 -0.371405 4.2769 0
M  V30 5811 C 542.402 -1.31327 5.1729 0
M  V30 5812 O 542.625 -2.55078 5.10188 0
M  V30 5813 O 541.559 -0.813811 5.96373 0
M  V30 5814 H 545.385 0.604483 2.97623 0
M  V30 5815 H 542.97 0.361477 1.44961 0
M  V30 5816 H 544.852 -1.68214 3.8637 0
M  V30 5817 H 543.527 -1.82139 2.67595 0
M  V30 5818 H 542.434 0.24067 3.73325 0
M  V30 5819 H 543.767 0.296998 4.91303 0
M  V30 5820 N 545.419 -1.53889 0.339982 0
M  V30 5821 C 546.367 -2.26391 -0.533822 0
M  V30 5822 C 547.361 -1.28404 -1.10493 0
M  V30 5823 O 548.567 -1.46124 -1.05108 0
M  V30 5824 H 544.942 -0.727385 -0.190828 0
M  V30 5825 H 546.913 -2.98233 0.0997484 0
M  V30 5826 C 545.662 -3.04707 -1.67479 0
M  V30 5827 H 544.985 -3.79934 -1.2446 0
M  V30 5828 H 546.425 -3.58657 -2.26144 0
M  V30 5829 C 544.884 -2.13989 -2.60212 0
M  V30 5830 O 545.414 -1.73361 -3.62366 0
M  V30 5831 N 543.62 -1.79141 -2.28816 0
M  V30 5832 H 543.167 -2.12378 -1.45785 0
M  V30 5833 H 543.125 -1.18725 -2.91121 0
M  V30 5834 N 546.897 -0.0685191 -1.57451 0
M  V30 5835 C 547.807 0.914677 -2.16034 0
M  V30 5836 C 548.823 1.32938 -1.12265 0
M  V30 5837 O 549.999 1.40275 -1.44516 0
M  V30 5838 C 547.064 2.16519 -2.70777 0
M  V30 5839 C 546.125 1.80721 -3.89408 0
M  V30 5840 C 545.358 2.9981 -4.41531 0
M  V30 5841 O 545.581 4.13727 -3.92666 0
M  V30 5842 O 544.515 2.79817 -5.32903 0
M  V30 5843 H 548.341 0.446364 -3.00402 0
M  V30 5844 H 545.926 0.154367 -1.486 0
M  V30 5845 H 547.808 2.89856 -3.05878 0
M  V30 5846 H 546.483 2.62454 -1.89471 0
M  V30 5847 H 545.39 1.04646 -3.59166 0
M  V30 5848 H 546.723 1.39571 -4.71997 0
M  V30 5849 N 548.375 1.56261 0.205012 0
M  V30 5850 C 549.786 1.70056 0.770574 0
M  V30 5851 C 550.137 0.673398 1.84282 0
M  V30 5852 O 549.262 -0.172196 2.15714 0
M  V30 5853 C 549.857 3.08316 1.40451 0
M  V30 5854 C 548.416 3.2391 1.91727 0
M  V30 5855 C 547.563 2.66001 0.783516 0
M  V30 5856 H 550.514 1.58688 -0.019911 0
M  V30 5857 H 550.535 3.05094 2.27371 0
M  V30 5858 H 550.047 3.83053 0.623882 0
M  V30 5859 H 548.148 2.54072 2.7254 0
M  V30 5860 H 548.261 4.3131 2.08588 0
M  V30 5861 H 546.625 2.24915 1.19521 0
M  V30 5862 H 547.408 3.43297 0.0152883 0
M  V30 5863 N 549.853 -0.472356 1.50355 0
M  V30 5864 C 551.078 -1.25251 1.65309 0
M  V30 5865 C 551.503 -1.85081 0.335643 0
M  V30 5866 O 550.861 -1.67227 -0.700335 0
M  V30 5867 C 550.909 -2.3379 2.74544 0
M  V30 5868 O 550.013 -3.38401 2.35709 0
M  V30 5869 H 549.354 -0.368539 0.552336 0
M  V30 5870 H 551.884 -0.562271 1.96722 0
M  V30 5871 H 551.894 -2.79121 2.97583 0
M  V30 5872 H 550.569 -1.89614 3.70161 0
M  V30 5873 H 549.146 -2.9879 2.23112 0
M  V30 5874 N 551.331 -1.39911 -0.725443 0
M  V30 5875 C 552.261 -1.42138 -1.85254 0
M  V30 5876 C 553.242 -0.283513 -1.67721 0
M  V30 5877 O 554.427 -0.490717 -1.87898 0
M  V30 5878 C 551.557 -1.27354 -3.23107 0
M  V30 5879 C 550.511 -2.3864 -3.55296 0
M  V30 5880 C 549.837 -2.08939 -4.92188 0
M  V30 5881 C 551.137 -3.8097 -3.57295 0
M  V30 5882 H 552.831 -2.36461 -1.83648 0
M  V30 5883 H 550.377 -1.13817 -0.882138 0
M  V30 5884 H 552.33 -1.2753 -4.01639 0
M  V30 5885 H 551.054 -0.295025 -3.25265 0
M  V30 5886 H 549.713 -2.37696 -2.79099 0
M  V30 5887 H 549.361 -1.09502 -4.90936 0
M  V30 5888 H 549.061 -2.83491 -5.14691 0
M  V30 5889 H 550.585 -2.10781 -5.73065 0
M  V30 5890 H 551.999 -3.8379 -4.25885 0
M  V30 5891 H 550.396 -4.5496 -3.9132 0
M  V30 5892 H 551.466 -4.11261 -2.5689 0
M  V30 5893 N 552.809 0.956637 -1.25245 0
M  V30 5894 C 553.741 2.05628 -1.01242 0
M  V30 5895 C 554.754 1.62785 0.0219579 0
M  V30 5896 O 555.943 1.77184 -0.216365 0
M  V30 5897 C 553.043 3.35069 -0.508161 0
M  V30 5898 C 552.216 4.06761 -1.60823 0
M  V30 5899 C 551.275 5.14473 -1.1047 0
M  V30 5900 O 550.301 5.40033 -1.79868 0
M  V30 5901 N 551.503 5.80474 0.0550773 0
M  V30 5902 H 554.268 2.2679 -1.95925 0
M  V30 5903 H 551.829 1.12505 -1.16423 0
M  V30 5904 H 553.821 4.044 -0.155819 0
M  V30 5905 H 552.391 3.10694 0.344683 0
M  V30 5906 H 551.611 3.31555 -2.13224 0
M  V30 5907 H 552.899 4.51418 -2.34733 0
M  V30 5908 H 552.297 5.62125 0.635004 0
M  V30 5909 H 550.854 6.50868 0.348469 0
M  V30 5910 N 554.287 1.06798 1.15896 0
M  V30 5911 C 555.512 0.808739 1.90982 0
M  V30 5912 C 555.937 -0.6316 1.77179 0
M  V30 5913 O 555.295 -1.4407 1.10061 0
M  V30 5914 C 555.343 1.21468 3.39526 0
M  V30 5915 O 554.447 0.356562 4.10856 0
M  V30 5916 H 553.788 0.29512 0.594811 0
M  V30 5917 H 556.318 1.42513 1.46804 0
M  V30 5918 H 556.328 1.18844 3.90308 0
M  V30 5919 H 555.003 2.26379 3.48891 0
M  V30 5920 H 553.58 0.444808 3.70238 0
M  V30 5921 N 555.766 -1.3263 0.851289 0
M  V30 5922 C 556.713 -2.28952 0.291469 0
M  V30 5923 C 557.683 -1.54897 -0.599676 0
M  V30 5924 O 558.868 -1.83137 -0.535305 0
M  V30 5925 C 556.008 -3.41206 -0.516992 0
M  V30 5926 C 555.121 -4.30148 0.399566 0
M  V30 5927 C 554.256 -5.29527 -0.4212 0
M  V30 5928 C 553.295 -6.10112 0.492969 0
M  V30 5929 N 552.432 -7.01499 -0.290414 0
M  V30 5930 H 557.272 -2.76228 1.11813 0
M  V30 5931 H 554.809 -1.35907 0.562826 0
M  V30 5932 H 556.767 -4.05005 -1.00132 0
M  V30 5933 H 555.397 -2.9509 -1.30851 0
M  V30 5934 H 554.449 -3.66959 1.00227 0
M  V30 5935 H 555.761 -4.8649 1.1013 0
M  V30 5936 H 554.915 -5.98914 -0.968832 0
M  V30 5937 H 553.654 -4.73794 -1.15632 0
M  V30 5938 H 552.659 -5.39632 1.05251 0
M  V30 5939 H 553.884 -6.6793 1.22664 0
M  V30 5940 H 551.83 -6.48199 -1.00868 0
M  V30 5941 H 551.747 -7.55178 0.352354 0
M  V30 5942 H 553.015 -7.75176 -0.819882 0
M  V30 5943 N 557.244 -0.608902 -1.45362 0
M  V30 5944 C 558.174 0.0964526 -2.33301 0
M  V30 5945 C 559.155 0.857444 -1.46908 0
M  V30 5946 O 560.34 0.827735 -1.75676 0
M  V30 5947 C 557.47 1.09354 -3.29635 0
M  V30 5948 C 556.424 0.445676 -4.25673 0
M  V30 5949 C 555.75 1.5511 -5.11708 0
M  V30 5950 C 557.05 -0.633972 -5.18438 0
M  V30 5951 H 558.744 -0.637829 -2.92527 0
M  V30 5952 H 556.29 -0.308178 -1.40664 0
M  V30 5953 H 558.243 1.59556 -3.90025 0
M  V30 5954 H 556.967 1.85843 -2.6857 0
M  V30 5955 H 555.626 -0.0354897 -3.66583 0
M  V30 5956 H 555.274 2.30631 -4.4701 0
M  V30 5957 H 554.974 1.12311 -5.76767 0
M  V30 5958 H 556.498 2.05537 -5.74967 0
M  V30 5959 H 557.912 -0.215974 -5.72893 0
M  V30 5960 H 556.309 -0.983789 -5.91981 0
M  V30 5961 H 557.379 -1.51005 -4.60788 0
M  V30 5962 N 558.722 1.53707 -0.348139 0
M  V30 5963 C 559.654 2.22725 0.540946 0
M  V30 5964 C 560.667 1.2354 1.06027 0
M  V30 5965 O 561.856 1.49867 0.96964 0
M  V30 5966 C 558.956 2.89756 1.75768 0
M  V30 5967 C 558.129 4.15297 1.37285 0
M  V30 5968 C 557.188 4.65697 2.44976 0
M  V30 5969 O 556.214 5.29798 2.08092 0
M  V30 5970 N 557.416 4.42017 3.763 0
M  V30 5971 H 560.181 2.99658 -0.0501592 0
M  V30 5972 H 557.742 1.60979 -0.17248 0
M  V30 5973 H 559.734 3.20388 2.47252 0
M  V30 5974 H 558.304 2.16382 2.25605 0
M  V30 5975 H 557.524 3.9116 0.488584 0
M  V30 5976 H 558.812 4.96948 1.09179 0
M  V30 5977 H 558.21 3.9076 4.09051 0
M  V30 5978 H 556.767 4.77242 4.4394 0
M  V30 5979 N 560.2 0.0768682 1.57412 0
M  V30 5980 C 561.477 -0.632359 1.85096 0
M  V30 5981 C 561.857 -1.87479 0.9703 0
M  V30 5982 O 561.205 -2.28469 0.0379062 0
M  V30 5983 C 561.415 -0.965174 3.35388 0
M  V30 5984 C 562.763 -1.33648 4.03018 0
M  V30 5985 O 563.787 -1.05675 3.40164 0
M  V30 5986 O 562.646 -1.85959 5.13889 0
M  V30 5987 H 559.74 -0.314574 0.764835 0
M  V30 5988 H 562.286 0.108184 1.69355 0
M  V30 5989 H 561.058 -0.0829745 3.91212 0
M  V30 5990 H 560.681 -1.76231 3.5641 0
M  V30 5991 N 561.678 -1.56367 -0.196722 0
M  V30 5992 C 562.588 -1.97617 -1.2643 0
M  V30 5993 C 563.604 -0.883598 -1.49895 0
M  V30 5994 O 564.78 -1.18921 -1.62541 0
M  V30 5995 C 561.845 -2.30595 -2.58895 0
M  V30 5996 C 560.906 -3.53551 -2.43516 0
M  V30 5997 C 560.139 -3.84946 -3.69665 0
M  V30 5998 O 560.362 -3.17655 -4.73763 0
M  V30 5999 O 559.296 -4.78379 -3.65291 0
M  V30 6000 H 563.122 -2.88648 -0.944233 0
M  V30 6001 H 560.707 -1.43901 -0.401592 0
M  V30 6002 H 562.589 -2.52889 -3.37083 0
M  V30 6003 H 561.264 -1.42732 -2.90533 0
M  V30 6004 H 560.171 -3.36507 -1.63445 0
M  V30 6005 H 561.504 -4.41875 -2.16812 0
M  V30 6006 N 563.156 0.464375 -1.50603 0
M  V30 6007 C 564.119 1.54393 -1.69397 0
M  V30 6008 C 565.119 1.50566 -0.564504 0
M  V30 6009 O 566.309 1.53066 -0.831645 0
M  V30 6010 C 563.441 2.9401 -1.72543 0
M  V30 6011 H 564.634 1.39044 -2.65719 0
M  V30 6012 H 562.187 0.69122 -1.40185 0
M  V30 6013 H 562.922 3.14795 -0.77938 0
M  V30 6014 H 562.707 2.98195 -2.54602 0
M  V30 6015 H 564.197 3.72375 -1.89015 0
M  V30 6016 N 564.634 1.40294 0.718013 0
M  V30 6017 C 565.582 1.40536 1.85344 0
M  V30 6018 C 566.576 0.286192 1.66965 0
M  V30 6019 O 567.782 0.457105 1.74099 0
M  V30 6020 H 564.157 0.439236 0.61039 0
M  V30 6021 H 566.128 2.36275 1.82255 0
M  V30 6022 C 564.877 1.28245 3.23185 0
M  V30 6023 H 564.2 2.1364 3.37932 0
M  V30 6024 H 565.64 1.32474 4.02774 0
M  V30 6025 C 564.099 -0.0075503 3.36899 0
M  V30 6026 O 564.629 -0.971391 3.89778 0
M  V30 6027 N 562.835 -0.0762479 2.905 0
M  V30 6028 H 562.382 0.708819 2.47656 0
M  V30 6029 H 562.34 -0.938846 3.00055 0
M  V30 6030 N 566.112 -0.949982 1.2575 0
M  V30 6031 C 567.342 -1.72721 1.13363 0
M  V30 6032 C 567.75 -1.86562 -0.314842 0
M  V30 6033 O 567.093 -1.36621 -1.22803 0
M  V30 6034 C 567.155 -3.15695 1.7198 0
M  V30 6035 C 566.819 -3.25268 3.21014 0
M  V30 6036 C 567.816 -3.09222 4.17945 0
M  V30 6037 C 565.501 -3.4894 3.61312 0
M  V30 6038 C 567.495 -3.16701 5.53154 0
M  V30 6039 C 565.182 -3.56055 4.96657 0
M  V30 6040 C 566.18 -3.3995 5.92387 0
M  V30 6041 O 565.868 -3.46757 7.25269 0
M  V30 6042 H 565.6 -0.547888 0.395973 0
M  V30 6043 H 568.154 -1.20009 1.66694 0
M  V30 6044 H 566.384 -3.69791 1.13101 0
M  V30 6045 H 568.073 -3.75295 1.54624 0
M  V30 6046 H 568.839 -2.90798 3.88151 0
M  V30 6047 H 564.718 -3.60534 2.87291 0
M  V30 6048 H 568.262 -3.04048 6.27854 0
M  V30 6049 H 564.159 -3.73997 5.26115 0
M  V30 6050 H 564.927 -3.63358 7.33426 0
M  V30 6051 N 567.59 -1.07411 -1.15328 0
M  V30 6052 C 568.54 -0.664788 -2.18093 0
M  V30 6053 C 569.524 0.310395 -1.57878 0
M  V30 6054 O 570.716 0.124026 -1.76565 0
M  V30 6055 C 567.845 -0.0647822 -3.43239 0
M  V30 6056 C 566.931 -1.06514 -4.10506 0
M  V30 6057 N 567.322 -2.24491 -4.53252 0
M  V30 6058 C 565.62 -0.898613 -4.36853 0
M  V30 6059 C 566.321 -2.8796 -5.05424 0
M  V30 6060 N 565.297 -2.15622 -4.99007 0
M  V30 6061 H 569.099 -1.56333 -2.48872 0
M  V30 6062 H 566.613 -0.947393 -1.31902 0
M  V30 6063 H 568.61 0.246363 -4.16171 0
M  V30 6064 H 567.27 0.828866 -3.13943 0
M  V30 6065 H 568.281 -2.62205 -4.46619 0
M  V30 6066 H 564.958 -0.0579118 -4.1746 0
M  V30 6067 H 566.348 -3.88137 -5.48452 0
M  V30 6068 N 569.068 1.32177 -0.85831 0
M  V30 6069 C 569.998 2.31282 -0.321041 0
M  V30 6070 C 570.979 1.59841 0.581786 0
M  V30 6071 O 572.164 1.87619 0.501262 0
M  V30 6072 C 569.294 3.4385 0.48832 0
M  V30 6073 C 568.248 4.26799 -0.320391 0
M  V30 6074 C 567.574 5.31164 0.613934 0
M  V30 6075 C 568.874 4.98829 -1.54813 0
M  V30 6076 H 570.568 2.76469 -1.14915 0
M  V30 6077 H 568.114 1.32916 -0.554028 0
M  V30 6078 H 570.067 4.12224 0.874626 0
M  V30 6079 H 568.791 2.97401 1.34983 0
M  V30 6080 H 567.45 3.60077 -0.688497 0
M  V30 6081 H 567.098 4.80967 1.47239 0
M  V30 6082 H 566.798 5.8755 0.0768097 0
M  V30 6083 H 568.322 6.024 0.997336 0
M  V30 6084 H 569.736 5.59864 -1.23392 0
M  V30 6085 H 568.133 5.64957 -2.02346 0
M  V30 6086 H 569.203 4.26483 -2.30739 0
M  V30 6087 N 570.547 0.616602 1.45037 0
M  V30 6088 C 571.777 0.121791 2.06241 0
M  V30 6089 C 572.185 -1.20289 1.46038 0
M  V30 6090 O 571.528 -1.7456 0.572242 0
M  V30 6091 C 571.59 -0.0827345 3.59405 0
M  V30 6092 C 571.254 1.16153 4.41993 0
M  V30 6093 C 572.251 2.08183 4.76399 0
M  V30 6094 C 569.936 1.39288 4.82601 0
M  V30 6095 C 571.93 3.21668 5.5028 0
M  V30 6096 C 569.617 2.53073 5.56235 0
M  V30 6097 C 570.615 3.44091 5.89992 0
M  V30 6098 O 570.303 4.55894 6.6213 0
M  V30 6099 H 570.035 0.0701667 0.672349 0
M  V30 6100 H 572.589 0.846877 1.87129 0
M  V30 6101 H 570.819 -0.862812 3.76952 0
M  V30 6102 H 572.508 -0.530273 4.02421 0
M  V30 6103 H 573.274 1.91538 4.45576 0
M  V30 6104 H 569.153 0.693396 4.55755 0
M  V30 6105 H 572.697 3.92733 5.76547 0
M  V30 6106 H 568.594 2.69667 5.86472 0
M  V30 6107 H 569.362 4.5469 6.80587 0
M  V30 6108 N 572.025 -1.5352 0.356285 0
M  V30 6109 C 573.273 -2.00719 -0.235837 0
M  V30 6110 C 573.594 -1.24551 -1.5004 0
M  V30 6111 O 572.864 -0.356185 -1.92635 0
M  V30 6112 H 571.444 -0.741542 -0.0901366 0
M  V30 6113 H 574.106 -1.88887 0.480378 0
M  V30 6114 H 573.202 -3.08551 -0.469357 0
M  V30 6115 N 573.503 -0.0852151 -1.57369 0
M  V30 6116 C 574.728 0.592872 -1.98746 0
M  V30 6117 C 575.153 1.61538 -0.963689 0
M  V30 6118 O 574.511 1.81168 0.069071 0
M  V30 6119 C 574.559 1.22599 -3.39119 0
M  V30 6120 O 573.663 2.34185 -3.39457 0
M  V30 6121 H 573.004 0.151314 -0.646529 0
M  V30 6122 H 575.534 -0.163703 -2.03944 0
M  V30 6123 H 575.544 1.56965 -3.76598 0
M  V30 6124 H 574.219 0.476831 -4.13158 0
M  V30 6125 H 572.796 2.01512 -3.13763 0
M  V30 6126 N 574.981 1.5647 0.188427 0
M  V30 6127 C 576.397 1.50204 0.539532 0
M  V30 6128 C 576.597 0.78644 1.85519 0
M  V30 6129 O 575.653 0.339714 2.50204 0
M  V30 6130 C 576.966 2.94893 0.588103 0
M  V30 6131 C 578.514 3.05602 0.67648 0
M  V30 6132 C 578.989 4.51716 0.756101 0
M  V30 6133 N 580.48 4.55894 0.819451 0
M  V30 6134 C 581.215 5.66272 0.90134 0
M  V30 6135 N 580.711 6.86323 0.945118 0
M  V30 6136 N 582.504 5.54201 0.939043 0
M  V30 6137 H 574.655 2.01406 -0.674493 0
M  V30 6138 H 576.918 0.916828 -0.241103 0
M  V30 6139 H 576.624 3.50334 -0.309633 0
M  V30 6140 H 576.498 3.4861 1.44051 0
M  V30 6141 H 578.885 2.50206 1.56465 0
M  V30 6142 H 578.966 2.54999 -0.202262 0
M  V30 6143 H 578.61 5.07739 -0.12774 0
M  V30 6144 H 578.54 5.00058 1.65074 0
M  V30 6145 H 581.031 3.69452 0.794594 0
M  V30 6146 H 581.344 7.66194 1.0083 0
M  V30 6147 H 579.689 6.88968 0.913683 0
M  V30 6148 H 582.88 4.59333 0.901725 0
M  V30 6149 H 583.053 6.40247 0.999402 0
M  V30 6150 N 576.459 -0.456382 1.50847 0
M  V30 6151 C 577.392 -1.57177 1.65441 0
M  V30 6152 C 578.37 -1.54649 0.502224 0
M  V30 6153 O 579.554 -1.74057 0.723633 0
M  V30 6154 C 576.681 -2.95763 1.65052 0
M  V30 6155 C 575.727 -3.16389 2.86007 0
M  V30 6156 S 576.56 -2.94716 4.47105 0
M  V30 6157 C 577.716 -4.35617 4.49432 0
M  V30 6158 H 577.949 -1.44561 2.59787 0
M  V30 6159 H 575.482 -0.644758 1.40293 0
M  V30 6160 H 577.44 -3.75654 1.65512 0
M  V30 6161 H 576.101 -3.05756 0.719153 0
M  V30 6162 H 575.294 -4.17667 2.82081 0
M  V30 6163 H 574.896 -2.44293 2.8319 0
M  V30 6164 H 577.188 -5.28503 4.239 0
M  V30 6165 H 578.131 -4.44582 5.51137 0
M  V30 6166 H 578.539 -4.18382 3.78967 0
M  V30 6167 N 577.937 -1.40673 -0.710563 0
M  V30 6168 C 579.214 -1.29718 -1.46398 0
M  V30 6169 C 579.594 0.082177 -2.1094 0
M  V30 6170 O 578.942 1.09536 -2.00534 0
M  V30 6171 C 579.152 -2.43967 -2.49562 0
M  V30 6172 C 580.5 -2.84436 -3.15248 0
M  V30 6173 O 581.524 -2.43597 -2.59883 0
M  V30 6174 O 580.383 -3.55008 -4.1549 0
M  V30 6175 H 577.477 -0.509697 -0.651258 0
M  V30 6176 H 580.023 -1.52603 -0.742312 0
M  V30 6177 H 578.795 -3.36076 -2.0042 0
M  V30 6178 H 578.418 -2.22879 -3.29258 0
M  V30 6179 N 579.415 0.9433 -1.26252 0
M  V30 6180 C 580.831 1.21644 -1.03319 0
M  V30 6181 C 581.031 2.0003 0.242983 0
M  V30 6182 O 580.087 2.33838 0.952688 0
M  V30 6183 C 581.4 1.97978 -2.2633 0
M  V30 6184 C 582.948 2.10978 -2.31209 0
M  V30 6185 C 583.423 2.90713 -3.53907 0
M  V30 6186 N 584.914 2.98287 -3.54371 0
M  V30 6187 C 585.649 3.60406 -4.45976 0
M  V30 6188 N 585.145 4.24043 -5.47868 0
M  V30 6189 N 586.938 3.57658 -4.33633 0
M  V30 6190 H 579.089 0.419221 -2.08222 0
M  V30 6191 H 581.352 0.247995 -0.914988 0
M  V30 6192 H 581.058 1.47788 -3.19142 0
M  V30 6193 H 580.932 2.9865 -2.30408 0
M  V30 6194 H 583.319 2.6036 -1.38913 0
M  V30 6195 H 583.4 1.09575 -2.31143 0
M  V30 6196 H 583.044 2.42018 -4.46531 0
M  V30 6197 H 582.974 3.92367 -3.5122 0
M  V30 6198 H 585.465 2.53044 -2.80673 0
M  V30 6199 H 585.778 4.69334 -6.13959 0
M  V30 6200 H 584.123 4.22637 -5.51728 0
M  V30 6201 H 587.314 3.07134 -3.53251 0
M  V30 6202 H 587.487 4.05782 -5.05218 0
M  V30 6203 N 580.893 1.08022 1.14757 0
M  V30 6204 C 581.825 0.664566 2.19354 0
M  V30 6205 C 582.838 -0.286374 1.60261 0
M  V30 6206 O 584.027 -0.0746362 1.78344 0
M  V30 6207 C 581.127 -0.0434634 3.38872 0
M  V30 6208 C 580.3 0.925381 4.27499 0
M  V30 6209 C 579.359 0.253398 5.2559 0
M  V30 6210 O 578.385 0.896581 5.62094 0
M  V30 6211 N 579.587 -0.998263 5.71852 0
M  V30 6212 H 582.352 1.56438 2.55631 0
M  V30 6213 H 579.913 0.965788 1.29939 0
M  V30 6214 H 581.905 -0.503857 4.01551 0
M  V30 6215 H 580.475 -0.845321 3.00954 0
M  V30 6216 H 579.695 1.56472 3.61815 0
M  V30 6217 H 580.983 1.58203 4.8358 0
M  V30 6218 H 580.381 -1.54063 5.44317 0
M  V30 6219 H 578.938 -1.40222 6.36538 0
M  V30 6220 N 582.371 -1.3172 0.865308 0
M  V30 6221 C 583.599 -2.01057 0.488251 0
M  V30 6222 C 584.014 -1.64979 -0.918 0
M  V30 6223 O 583.371 -0.876597 -1.60069 0
M  V30 6224 C 583.422 -3.55964 0.630224 0
M  V30 6225 O 583.143 -3.90749 1.98109 0
M  V30 6226 C 584.644 -4.42574 0.253567 0
M  V30 6227 H 581.864 -0.64332 0.190736 0
M  V30 6228 H 584.408 -1.68058 1.16519 0
M  V30 6229 H 582.563 -3.874 0.000895422 0
M  V30 6230 H 582.977 -4.85467 1.9855 0
M  V30 6231 H 584.451 -5.50521 0.403875 0
M  V30 6232 H 584.928 -4.31724 -0.806895 0
M  V30 6233 H 585.534 -4.16547 0.858404 0
M  V30 6234 N 583.85 -0.624285 -1.44708 0
M  V30 6235 C 584.797 0.0847135 -2.30644 0
M  V30 6236 C 585.767 0.843575 -1.43084 0
M  V30 6237 O 586.952 0.825982 -1.71995 0
M  V30 6238 C 584.091 1.06495 -3.28257 0
M  V30 6239 C 583.205 0.305224 -4.3092 0
M  V30 6240 C 582.34 1.27667 -5.1563 0
M  V30 6241 C 581.379 0.505706 -6.10007 0
M  V30 6242 N 580.516 1.42727 -6.8744 0
M  V30 6243 H 585.356 -0.654068 -2.90733 0
M  V30 6244 H 582.893 -0.334334 -1.4325 0
M  V30 6245 H 584.851 1.64658 -3.83332 0
M  V30 6246 H 583.481 1.77094 -2.69884 0
M  V30 6247 H 582.533 -0.392207 -3.78373 0
M  V30 6248 H 583.845 -0.295553 -4.97924 0
M  V30 6249 H 582.999 1.92984 -5.75189 0
M  V30 6250 H 581.738 1.91137 -4.48685 0
M  V30 6251 H 580.743 -0.160999 -5.49564 0
M  V30 6252 H 581.968 -0.124183 -6.78986 0
M  V30 6253 H 579.913 2.04931 -6.23169 0
M  V30 6254 H 579.831 0.880345 -7.50857 0
M  V30 6255 H 581.099 2.0695 -7.51526 0
M  V30 6256 N 585.328 1.53329 -0.364422 0
M  V30 6257 C 586.26 2.23286 0.517293 0
M  V30 6258 C 587.273 1.24657 1.04711 0
M  V30 6259 O 588.462 1.50887 0.95369 0
M  V30 6260 C 585.562 2.91604 1.72685 0
M  V30 6261 C 584.735 4.1673 1.32873 0
M  V30 6262 C 583.794 4.68269 2.40022 0
M  V30 6263 O 582.82 5.31976 2.02461 0
M  V30 6264 N 584.022 4.45983 3.7159 0
M  V30 6265 H 586.787 2.99588 -0.0819391 0
M  V30 6266 H 584.348 1.60787 -0.189544 0
M  V30 6267 H 586.34 3.22992 2.4384 0
M  V30 6268 H 584.91 2.18763 2.23297 0
M  V30 6269 H 584.13 3.91657 0.447069 0
M  V30 6270 H 585.418 4.98078 1.03902 0
M  V30 6271 H 584.816 3.95077 4.04883 0
M  V30 6272 H 583.373 4.81924 4.38854 0
M  V30 6273 N 586.806 0.0935595 1.57322 0
M  V30 6274 C 587.738 -0.895923 2.10964 0
M  V30 6275 C 588.751 -1.24705 1.04654 0
M  V30 6276 O 589.94 -1.20044 1.32105 0
M  V30 6277 C 587.04 -2.20546 2.57318 0
M  V30 6278 C 586.213 -2.0299 3.87445 0
M  V30 6279 C 585.272 -3.17443 4.19662 0
M  V30 6280 O 584.298 -2.91474 4.88909 0
M  V30 6281 N 585.5 -4.43168 3.74943 0
M  V30 6282 H 588.265 -0.437788 2.96485 0
M  V30 6283 H 585.826 -0.0915863 1.61641 0
M  V30 6284 H 587.818 -2.9606 2.75917 0
M  V30 6285 H 586.388 -2.57789 1.76816 0
M  V30 6286 H 585.608 -1.11815 3.78009 0
M  V30 6287 H 586.896 -1.88535 4.7258 0
M  V30 6288 H 586.294 -4.67149 3.19043 0
M  V30 6289 H 584.851 -5.15637 3.987 0
M  V30 6290 N 588.284 -1.56567 -0.180126 0
M  V30 6291 C 589.695 -1.7126 -0.743422 0
M  V30 6292 C 590.046 -0.70263 -1.83187 0
M  V30 6293 O 589.171 0.137856 -2.1596 0
M  V30 6294 C 589.766 -3.10512 -1.35528 0
M  V30 6295 C 588.325 -3.26919 -1.8655 0
M  V30 6296 C 587.472 -2.67213 -0.741099 0
M  V30 6297 H 590.423 -1.58636 0.0451543 0
M  V30 6298 H 590.444 -3.08673 -2.22489 0
M  V30 6299 H 589.956 -3.83997 -0.562862 0
M  V30 6300 H 588.057 -2.58376 -2.68464 0
M  V30 6301 H 588.17 -4.34574 -2.01699 0
M  V30 6302 H 586.534 -2.26788 -1.15927 0
M  V30 6303 H 587.317 -3.43277 0.0393291 0
M  V30 6304 N 589.762 0.448376 -1.51087 0
M  V30 6305 C 591.178 0.783984 -1.39017 0
M  V30 6306 C 591.378 1.96087 -0.463904 0
M  V30 6307 O 590.434 2.52357 0.0850534 0
M  V30 6308 C 591.747 1.07471 -2.80839 0
M  V30 6309 C 593.295 1.17981 -2.89913 0
M  V30 6310 C 593.77 1.50354 -4.32617 0
M  V30 6311 N 595.261 1.57301 -4.35673 0
M  V30 6312 C 595.996 1.839 -5.4311 0
M  V30 6313 N 595.492 2.08365 -6.60724 0
M  V30 6314 N 597.285 1.8559 -5.30578 0
M  V30 6315 H 589.436 -0.326881 -2.0987 0
M  V30 6316 H 591.699 -0.0838006 -0.944289 0
M  V30 6317 H 591.405 0.282768 -3.50561 0
M  V30 6318 H 591.279 2.00519 -3.19487 0
M  V30 6319 H 593.666 1.9624 -2.20395 0
M  V30 6320 H 593.747 0.228603 -2.54776 0
M  V30 6321 H 593.391 0.726273 -5.0268 0
M  V30 6322 H 593.321 2.46663 -4.65258 0
M  V30 6323 H 595.812 1.40342 -3.50874 0
M  V30 6324 H 596.125 2.27999 -7.38401 0
M  V30 6325 H 594.47 2.0571 -6.63859 0
M  V30 6326 H 597.661 1.65989 -4.37682 0
M  V30 6327 H 597.834 2.05983 -6.1439 0
M  V30 6328 N 591.24 1.41047 0.703093 0
M  V30 6329 C 592.172 1.38228 1.82827 0
M  V30 6330 C 593.185 0.285637 1.60275 0
M  V30 6331 O 594.374 0.54685 1.69917 0
M  V30 6332 C 591.474 1.13136 3.19458 0
M  V30 6333 C 590.647 2.34695 3.69103 0
M  V30 6334 C 589.706 2.05574 4.84382 0
M  V30 6335 O 588.732 2.78549 4.96386 0
M  V30 6336 N 589.934 1.04135 5.71083 0
M  V30 6337 H 592.699 2.35203 1.85741 0
M  V30 6338 H 590.26 1.35562 0.885125 0
M  V30 6339 H 592.252 0.916183 3.94193 0
M  V30 6340 H 590.822 0.247836 3.11616 0
M  V30 6341 H 590.042 2.71963 2.85359 0
M  V30 6342 H 591.33 3.15705 3.99009 0
M  V30 6343 H 590.728 0.43722 5.64008 0
M  V30 6344 H 589.285 0.886078 6.45749 0
M  V30 6345 N 592.718 -0.936591 1.26751 0
M  V30 6346 C 593.666 -2.0573 1.08527 0
M  V30 6347 C 594.66 -1.69397 0.0108784 0
M  V30 6348 O 595.866 -1.79215 0.167915 0
M  V30 6349 H 592.241 -0.673691 0.334133 0
M  V30 6350 H 594.212 -2.1825 2.03493 0
M  V30 6351 C 592.961 -3.39738 0.739845 0
M  V30 6352 H 592.284 -3.68174 1.55845 0
M  V30 6353 H 593.724 -4.18955 0.652149 0
M  V30 6354 C 592.183 -3.32292 -0.555288 0
M  V30 6355 O 592.713 -3.68794 -1.59229 0
M  V30 6356 N 590.919 -2.85394 -0.54762 0
M  V30 6357 H 590.466 -2.55886 0.296667 0
M  V30 6358 H 590.424 -2.80795 -1.41427 0
M  V30 6359 N 594.196 -1.08629 -1.14182 0
M  V30 6360 C 595.442 -0.818556 -1.85546 0
M  V30 6361 C 595.775 0.654076 -1.82854 0
M  V30 6362 O 595.05 1.48099 -1.26083 0
M  V30 6363 C 595.333 -1.34397 -3.3408 0
M  V30 6364 C 595.186 -2.8821 -3.45333 0
M  V30 6365 C 596.505 -0.971069 -4.29253 0
M  V30 6366 H 593.624 -0.298821 -0.673702 0
M  V30 6367 H 596.266 -1.34629 -1.34071 0
M  V30 6368 H 594.416 -0.895064 -3.78049 0
M  V30 6369 H 596.088 -3.41488 -3.10134 0
M  V30 6370 H 594.331 -3.25756 -2.86471 0
M  V30 6371 H 595.002 -3.20047 -4.49749 0
M  V30 6372 H 597.478 -1.35809 -3.93313 0
M  V30 6373 H 596.354 -1.36586 -5.31635 0
M  V30 6374 H 596.615 0.121659 -4.41933 0
M  V30 6375 N 595.674 1.31259 -0.872281 0
M  V30 6376 C 596.637 2.26744 -0.334656 0
M  V30 6377 C 597.637 1.52307 0.515681 0
M  V30 6378 O 598.827 1.71148 0.324656 0
M  V30 6379 C 595.959 3.36841 0.524482 0
M  V30 6380 H 597.152 2.75812 -1.17762 0
M  V30 6381 H 594.705 1.42232 -0.648064 0
M  V30 6382 H 595.44 2.93069 1.38855 0
M  V30 6383 H 595.225 3.92009 -0.0844299 0
M  V30 6384 H 596.715 4.07944 0.892838 0
M  V30 6385 N 597.152 0.631951 1.44375 0
M  V30 6386 C 598.382 0.143658 2.061 0
M  V30 6387 C 598.79 -1.18733 1.47306 0
M  V30 6388 O 598.133 -1.73943 0.590724 0
M  V30 6389 C 598.195 -0.0446102 3.59472 0
M  V30 6390 C 597.859 1.20835 4.40736 0
M  V30 6391 C 598.856 2.13224 4.74164 0
M  V30 6392 C 596.541 1.44399 4.81097 0
M  V30 6393 C 598.535 3.27487 5.46838 0
M  V30 6394 C 596.222 2.58959 5.53519 0
M  V30 6395 C 597.22 3.50329 5.86309 0
M  V30 6396 O 596.908 4.62891 6.57257 0
M  V30 6397 H 596.64 0.0772939 0.671567 0
M  V30 6398 H 599.194 0.866677 1.8622 0
M  V30 6399 H 597.424 -0.822783 3.77845 0
M  V30 6400 H 599.113 -0.487561 4.02961 0
M  V30 6401 H 599.879 1.96253 4.4352 0
M  V30 6402 H 595.758 0.741696 4.54994 0
M  V30 6403 H 599.302 3.98826 5.72349 0
M  V30 6404 H 595.199 2.75873 5.83579 0
M  V30 6405 H 595.967 4.61883 6.75726 0
M  V30 6406 N 598.631 -1.53133 0.372548 0
M  V30 6407 C 599.579 -2.27473 -0.485681 0
M  V30 6408 C 600.573 -1.30719 -1.07745 0
M  V30 6409 O 601.779 -1.48321 -1.01985 0
M  V30 6410 H 598.154 -0.731269 -0.175356 0
M  V30 6411 H 600.125 -2.97955 0.162986 0
M  V30 6412 C 598.874 -3.08191 -1.60978 0
M  V30 6413 H 598.197 -3.82488 -1.16373 0
M  V30 6414 H 599.637 -3.63373 -2.18485 0
M  V30 6415 C 598.096 -2.19461 -2.55614 0
M  V30 6416 O 598.626 -1.81008 -3.58607 0
M  V30 6417 N 596.832 -1.83955 -2.24965 0
M  V30 6418 H 596.379 -2.15423 -1.41247 0
M  V30 6419 H 596.337 -1.24874 -2.88538 0
M  V30 6420 N 600.109 -0.101901 -1.5727 0
M  V30 6421 C 601.525 0.254739 -1.57554 0
M  V30 6422 C 601.725 1.67937 -1.11352 0
M  V30 6423 O 600.781 2.39722 -0.793081 0
M  V30 6424 C 602.094 0.036975 -3.00677 0
M  V30 6425 C 603.642 0.104199 -3.12827 0
M  V30 6426 C 604.117 -0.0856565 -4.5792 0
M  V30 6427 N 605.608 -0.0310498 -4.6319 0
M  V30 6428 C 606.343 -0.153099 -5.73196 0
M  V30 6429 N 605.839 -0.330364 -6.92012 0
M  V30 6430 N 607.632 -0.0938854 -5.62022 0
M  V30 6431 H 599.783 -1.03263 -1.85609 0
M  V30 6432 H 602.046 -0.405251 -0.857016 0
M  V30 6433 H 601.752 -0.947254 -3.38703 0
M  V30 6434 H 601.626 0.776335 -3.69124 0
M  V30 6435 H 604.013 1.07894 -2.74669 0
M  V30 6436 H 604.094 -0.666762 -2.46957 0
M  V30 6437 H 603.738 -1.05729 -4.96773 0
M  V30 6438 H 603.668 0.705082 -5.21858 0
M  V30 6439 H 606.159 0.103141 -3.77759 0
M  V30 6440 H 606.472 -0.41482 -7.71686 0
M  V30 6441 H 604.817 -0.366119 -6.94035 0
M  V30 6442 H 608.008 0.0435168 -4.6808 0
M  V30 6443 H 608.181 -0.19245 -6.47714 0
M  V30 6444 N 601.587 1.56661 0.17182 0
M  V30 6445 C 602.497 1.99604 1.2327 0
M  V30 6446 C 603.513 0.907333 1.4847 0
M  V30 6447 O 604.689 1.21492 1.60629 0
M  V30 6448 C 601.754 2.34685 2.55194 0
M  V30 6449 C 600.815 3.57381 2.3786 0
M  V30 6450 C 600.048 3.90779 3.63494 0
M  V30 6451 O 600.271 3.25152 4.6865 0
M  V30 6452 O 599.205 4.84129 3.57634 0
M  V30 6453 H 603.031 2.90114 0.898192 0
M  V30 6454 H 600.616 1.44522 0.378647 0
M  V30 6455 H 602.498 2.5822 3.33017 0
M  V30 6456 H 601.173 1.47336 2.88225 0
M  V30 6457 H 600.08 3.39064 1.5807 0
M  V30 6458 H 601.413 4.45268 2.09754 0
M  V30 6459 N 603.065 -0.440357 1.51323 0
M  V30 6460 C 603.975 -1.55955 1.75258 0
M  V30 6461 C 604.991 -1.61933 0.636687 0
M  V30 6462 O 606.167 -1.79231 0.918593 0
M  V30 6463 C 603.232 -2.9196 1.86977 0
M  V30 6464 C 602.293 -2.96122 3.10822 0
M  V30 6465 C 601.526 -4.2564 3.21973 0
M  V30 6466 O 601.749 -5.17851 2.39137 0
M  V30 6467 O 600.683 -4.36025 4.14929 0
M  V30 6468 H 604.509 -1.38673 2.70191 0
M  V30 6469 H 602.094 -0.623055 1.35788 0
M  V30 6470 H 603.976 -3.72682 1.96688 0
M  V30 6471 H 602.651 -3.09375 0.952307 0
M  V30 6472 H 601.558 -2.14366 3.06591 0
M  V30 6473 H 602.891 -2.83651 4.02247 0
M  V30 6474 N 604.543 -1.41418 -0.695603 0
M  V30 6475 C 605.453 -1.45622 -1.83933 0
M  V30 6476 C 606.469 -0.346825 -1.70508 0
M  V30 6477 O 607.645 -0.59454 -1.92424 0
M  V30 6478 C 604.71 -1.33627 -3.19914 0
M  V30 6479 C 603.771 -2.54882 -3.45447 0
M  V30 6480 C 603.004 -2.43449 -4.7494 0
M  V30 6481 O 603.227 -1.45905 -5.51424 0
M  V30 6482 O 602.161 -3.33206 -5.01256 0
M  V30 6483 H 605.987 -2.42114 -1.83342 0
M  V30 6484 H 603.572 -1.22956 -0.848658 0
M  V30 6485 H 605.454 -1.29221 -4.01098 0
M  V30 6486 H 604.129 -0.402508 -3.21188 0
M  V30 6487 H 603.036 -2.64865 -2.64192 0
M  V30 6488 H 604.369 -3.47087 -3.48987 0
M  V30 6489 N 606.021 0.929856 -1.27246 0
M  V30 6490 C 607.437 1.20542 -1.04603 0
M  V30 6491 C 607.637 2.00276 0.221754 0
M  V30 6492 O 606.693 2.34835 0.927833 0
M  V30 6493 C 608.006 1.95566 -2.28417 0
M  V30 6494 C 609.554 2.08513 -2.33433 0
M  V30 6495 C 610.029 2.86943 -3.5697 0
M  V30 6496 N 611.52 2.94512 -3.57515 0
M  V30 6497 C 612.255 3.55656 -4.49774 0
M  V30 6498 N 611.751 4.18209 -5.52334 0
M  V30 6499 N 613.544 3.53038 -4.37402 0
M  V30 6500 H 605.695 0.397113 -2.08655 0
M  V30 6501 H 607.958 0.238277 -0.917566 0
M  V30 6502 H 607.664 1.44395 -3.20691 0
M  V30 6503 H 607.538 2.9619 -2.33563 0
M  V30 6504 H 609.925 2.58872 -1.41666 0
M  V30 6505 H 610.006 1.07117 -2.32292 0
M  V30 6506 H 609.65 2.37268 -4.49072 0
M  V30 6507 H 609.58 3.8862 -3.55362 0
M  V30 6508 H 612.071 2.50053 -2.83341 0
M  V30 6509 H 612.384 4.62796 -6.18902 0
M  V30 6510 H 610.729 4.16761 -5.56179 0
M  V30 6511 H 613.92 3.0337 -3.56489 0
M  V30 6512 H 614.093 4.004 -5.09493 0
M  V30 6513 N 607.499 1.09233 1.13605 0
M  V30 6514 C 608.915 0.82163 1.36826 0
M  V30 6515 C 609.115 -0.565021 1.93416 0
M  V30 6516 O 608.171 -1.32026 2.15234 0
M  V30 6517 C 609.484 1.91124 2.32147 0
M  V30 6518 C 611.032 1.93824 2.45767 0
M  V30 6519 C 611.507 3.01923 3.44393 0
M  V30 6520 N 612.998 3.01149 3.51942 0
M  V30 6521 C 613.733 3.81434 4.2813 0
M  V30 6522 N 613.229 4.71621 5.07489 0
M  V30 6523 N 615.022 3.69702 4.23411 0
M  V30 6524 H 607.173 1.98633 0.752234 0
M  V30 6525 H 609.436 0.862482 0.393482 0
M  V30 6526 H 609.142 2.90862 1.97717 0
M  V30 6527 H 609.016 1.78777 3.32142 0
M  V30 6528 H 611.403 0.94726 2.79483 0
M  V30 6529 H 611.484 2.10248 1.45703 0
M  V30 6530 H 611.128 4.01232 3.11408 0
M  V30 6531 H 611.058 2.82742 4.44257 0
M  V30 6532 H 613.549 2.35789 2.95317 0
M  V30 6533 H 613.862 5.29468 5.62924 0
M  V30 6534 H 612.207 4.75658 5.06729 0
M  V30 6535 H 615.398 2.98606 3.60489 0
M  V30 6536 H 615.571 4.32509 4.82535 0
M  V30 6537 N 608.977 -1.30795 0.87923 0
M  V30 6538 C 610.393 -1.48981 0.57243 0
M  V30 6539 C 610.593 -1.80719 -0.891236 0
M  V30 6540 O 609.649 -1.89136 -1.67283 0
M  V30 6541 C 610.962 -2.61721 1.48063 0
M  V30 6542 C 612.51 -2.75603 1.48365 0
M  V30 6543 C 612.985 -3.91449 2.37763 0
M  V30 6544 N 614.476 -3.98751 2.35695 0
M  V30 6545 C 615.211 -4.87684 3.01583 0
M  V30 6546 N 614.707 -5.81454 3.76674 0
M  V30 6547 N 616.5 -4.81005 2.90844 0
M  V30 6548 H 608.651 -1.08465 1.82617 0
M  V30 6549 H 610.914 -0.536813 0.781368 0
M  V30 6550 H 610.62 -2.45073 2.52254 0
M  V30 6551 H 610.494 -3.58071 1.18596 0
M  V30 6552 H 612.881 -2.9166 0.44927 0
M  V30 6553 H 612.962 -1.79891 1.81859 0
M  V30 6554 H 612.606 -3.76149 3.41283 0
M  V30 6555 H 612.536 -4.86487 2.01589 0
M  V30 6556 H 615.027 -3.31668 1.81121 0
M  V30 6557 H 615.34 -6.46063 4.24054 0
M  V30 6558 H 613.685 -5.81403 3.80782 0
M  V30 6559 H 616.876 -4.06728 2.31711 0
M  V30 6560 H 617.049 -5.50107 3.42471 0
M  V30 6561 N 610.455 -0.639598 -1.44038 0
M  V30 6562 C 611.871 -0.305953 -1.5664 0
M  V30 6563 C 612.071 1.19055 -1.62567 0
M  V30 6564 O 611.127 1.97492 -1.57331 0
M  V30 6565 C 612.44 -1.00533 -2.83397 0
M  V30 6566 C 613.988 -0.984278 -2.97121 0
M  V30 6567 C 614.463 -1.66428 -4.26691 0
M  V30 6568 N 615.954 -1.63127 -4.33525 0
M  V30 6569 C 616.689 -2.12629 -5.32519 0
M  V30 6570 N 616.185 -2.70359 -6.3787 0
M  V30 6571 N 617.978 -2.03208 -5.24083 0
M  V30 6572 H 610.129 -1.6109 -1.38434 0
M  V30 6573 H 612.392 -0.676672 -0.663942 0
M  V30 6574 H 612.098 -2.06034 -2.85032 0
M  V30 6575 H 611.972 -0.548362 -3.73193 0
M  V30 6576 H 614.359 0.0622792 -2.95034 0
M  V30 6577 H 614.44 -1.47981 -2.08651 0
M  V30 6578 H 614.084 -2.71034 -4.29538 0
M  V30 6579 H 614.014 -1.14351 -5.14034 0
M  V30 6580 H 616.505 -1.20987 -3.58009 0
M  V30 6581 H 616.818 -3.05842 -7.09704 0
M  V30 6582 H 615.163 -2.74414 -6.38531 0
M  V30 6583 H 618.354 -1.57823 -4.40692 0
M  V30 6584 H 618.527 -2.42097 -6.01077 0
M  V30 6585 N 611.933 1.52934 -0.380664 0
M  V30 6586 C 613.179 2.01765 0.20458 0
M  V30 6587 C 613.512 1.26696 1.47179 0
M  V30 6588 O 612.787 0.364936 1.91046 0
M  V30 6589 C 613.07 3.56869 0.481269 0
M  V30 6590 C 612.923 4.42617 -0.800629 0
M  V30 6591 C 614.242 4.2121 1.27554 0
M  V30 6592 H 611.361 0.733388 0.0728803 0
M  V30 6593 H 614.003 1.83068 -0.50853 0
M  V30 6594 H 612.153 3.72932 1.08875 0
M  V30 6595 H 613.825 4.38323 -1.43773 0
M  V30 6596 H 612.068 4.09977 -1.4178 0
M  V30 6597 H 612.739 5.49134 -0.561791 0
M  V30 6598 H 615.215 4.09072 0.761514 0
M  V30 6599 H 614.091 5.29732 1.43788 0
M  V30 6600 H 614.352 3.78269 2.28833 0
M  V30 6601 N 613.412 0.11024 1.57214 0
M  V30 6602 C 614.637 -0.561179 1.99664 0
M  V30 6603 C 615.062 -1.59985 0.989266 0
M  V30 6604 O 614.42 -1.81255 -0.0402399 0
M  V30 6605 C 614.468 -1.17189 3.41027 0
M  V30 6606 O 613.572 -2.28755 3.4314 0
M  V30 6607 H 612.913 -0.14101 0.648855 0
M  V30 6608 H 615.443 0.196128 2.03658 0
M  V30 6609 H 615.453 -1.50954 3.79047 0
M  V30 6610 H 614.128 -0.411041 4.13864 0
M  V30 6611 H 612.705 -1.96495 3.16929 0
M  V30 6612 N 614.89 -1.56749 -0.16351 0
M  V30 6613 C 615.84 -1.93424 -1.20712 0
M  V30 6614 C 616.824 -0.803469 -1.39403 0
M  V30 6615 O 618.016 -1.06675 -1.41243 0
M  V30 6616 C 615.145 -2.30431 -2.54473 0
M  V30 6617 C 614.231 -3.5004 -2.39443 0
M  V30 6618 N 614.622 -4.67058 -1.9414 0
M  V30 6619 C 612.92 -3.548 -2.70246 0
M  V30 6620 C 613.621 -5.49184 -1.9176 0
M  V30 6621 N 612.597 -4.9044 -2.34457 0
M  V30 6622 H 616.399 -2.8138 -0.848681 0
M  V30 6623 H 613.913 -1.58089 -0.371717 0
M  V30 6624 H 615.91 -2.54903 -3.29894 0
M  V30 6625 H 614.57 -1.43818 -2.91112 0
M  V30 6626 H 615.581 -4.91128 -1.64357 0
M  V30 6627 H 612.258 -2.78685 -3.10871 0
M  V30 6628 H 613.648 -6.5297 -1.58366 0
M  V30 6629 N 616.368 0.432326 -1.51554 0
M  V30 6630 C 617.645 1.19288 -1.55015 0
M  V30 6631 C 618.025 2.08701 -0.317375 0
M  V30 6632 O 617.373 2.17602 0.697243 0
M  V30 6633 C 617.583 1.99037 -2.86679 0
M  V30 6634 C 618.931 2.55907 -3.38817 0
M  V30 6635 O 619.955 2.09243 -2.88263 0
M  V30 6636 O 618.814 3.41029 -4.27038 0
M  V30 6637 H 615.908 0.543369 -0.623441 0
M  V30 6638 H 618.454 0.440988 -1.6387 0
M  V30 6639 H 617.226 1.33397 -3.6786 0
M  V30 6640 H 616.849 2.81281 -2.8101 0
M  V30 6641 N 617.846 1.41785 0.688094 0
M  V30 6642 C 619.257 1.3701 1.26828 0
M  V30 6643 C 619.608 0.056835 1.96118 0
M  V30 6644 O 618.733 -0.84475 1.99231 0
M  V30 6645 C 619.328 2.48168 2.30648 0
M  V30 6646 C 617.887 2.46766 2.84224 0
M  V30 6647 C 617.034 2.27633 1.58361 0
M  V30 6648 H 619.985 1.51192 0.482351 0
M  V30 6649 H 620.006 2.17655 3.121 0
M  V30 6650 H 619.518 3.43735 1.80188 0
M  V30 6651 H 617.619 1.54978 3.3884 0
M  V30 6652 H 617.732 3.43342 3.34145 0
M  V30 6653 H 616.096 1.75648 1.84445 0
M  V30 6654 H 616.879 3.25238 1.09887 0
M  V30 6655 N 619.324 -0.923095 1.27737 0
M  V30 6656 C 620.571 -1.67127 1.14345 0
M  V30 6657 C 620.899 -1.92017 -0.30982 0
M  V30 6658 O 620.154 -1.51185 -1.24264 0
M  V30 6659 C 620.453 -3.04125 1.8773 0
M  V30 6660 C 620.119 -2.98929 3.37568 0
M  V30 6661 C 618.781 -2.9722 3.78436 0
M  V30 6662 C 621.133 -2.89875 4.33154 0
M  V30 6663 C 618.461 -2.84244 5.13247 0
M  V30 6664 C 620.813 -2.7844 5.68026 0
M  V30 6665 C 619.477 -2.75083 6.08182 0
M  V30 6666 H 618.747 -0.611562 0.418417 0
M  V30 6667 H 621.394 -1.07618 1.584 0
M  V30 6668 H 619.699 -3.67366 1.36196 0
M  V30 6669 H 621.396 -3.609 1.74792 0
M  V30 6670 H 617.986 -3.0105 3.05069 0
M  V30 6671 H 622.17 -2.9029 4.02548 0
M  V30 6672 H 617.426 -2.80034 5.43499 0
M  V30 6673 H 621.6 -2.70401 6.4176 0
M  V30 6674 H 619.227 -2.64786 7.12596 0
M  V30 6675 N 620.802 -1.09834 -1.13024 0
M  V30 6676 C 621.765 -0.745058 -2.16752 0
M  V30 6677 C 622.765 0.227435 -1.59183 0
M  V30 6678 O 623.955 0.0050786 -1.74199 0
M  V30 6679 C 621.087 -0.102543 -3.40746 0
M  V30 6680 H 622.28 -1.66375 -2.49518 0
M  V30 6681 H 619.833 -0.898061 -1.27924 0
M  V30 6682 H 620.568 0.827177 -3.13573 0
M  V30 6683 H 620.353 -0.80235 -3.83803 0
M  V30 6684 H 621.843 0.129082 -4.174 0
M  V30 6685 N 622.28 1.30327 -0.886154 0
M  V30 6686 C 623.212 2.27079 -0.311072 0
M  V30 6687 C 624.225 1.53758 0.53502 0
M  V30 6688 O 625.414 1.74947 0.354378 0
M  V30 6689 C 622.514 3.33965 0.576228 0
M  V30 6690 C 621.687 4.36735 -0.241064 0
M  V30 6691 C 620.746 5.23028 0.576916 0
M  V30 6692 O 619.772 5.692 -0.000802231 0
M  V30 6693 N 620.974 5.49016 1.88579 0
M  V30 6694 H 623.739 2.77065 -1.14259 0
M  V30 6695 H 621.3 1.43519 -0.749258 0
M  V30 6696 H 623.292 3.88618 1.12953 0
M  V30 6697 H 621.862 2.839 1.30842 0
M  V30 6698 H 621.082 3.81932 -0.975805 0
M  V30 6699 H 622.37 5.02451 -0.801272 0
M  V30 6700 H 621.768 5.13288 2.37806 0
M  V30 6701 H 620.325 6.06539 2.38651 0
M  V30 6702 N 623.758 0.647228 1.43697 0
M  V30 6703 C 624.69 -0.0866232 2.29036 0
M  V30 6704 C 625.703 -0.793051 1.42178 0
M  V30 6705 O 626.892 -0.651807 1.66174 0
M  V30 6706 C 623.992 -1.14552 3.18953 0
M  V30 6707 C 623.165 -0.518422 4.34317 0
M  V30 6708 C 622.224 -1.4734 5.05151 0
M  V30 6709 O 621.25 -0.984312 5.60625 0
M  V30 6710 N 622.452 -2.8075 5.08094 0
M  V30 6711 H 625.217 0.645834 2.92659 0
M  V30 6712 H 622.778 0.489567 1.54321 0
M  V30 6713 H 624.77 -1.78505 3.63205 0
M  V30 6714 H 623.34 -1.78001 2.56971 0
M  V30 6715 H 622.56 0.300079 3.93056 0
M  V30 6716 H 623.848 -0.080401 5.08736 0
M  V30 6717 H 623.246 -3.23052 4.64386 0
M  V30 6718 H 621.803 -3.40022 5.56083 0
M  V30 6719 N 625.236 -1.5273 0.388769 0
M  V30 6720 C 626.652 -1.59553 0.0387049 0
M  V30 6721 C 626.852 -1.40278 -1.44652 0
M  V30 6722 O 625.908 -1.21951 -2.21098 0
M  V30 6723 C 627.221 -2.9625 0.515409 0
M  V30 6724 C 628.769 -3.09426 0.471621 0
M  V30 6725 C 629.244 -4.48572 0.924505 0
M  V30 6726 N 630.735 -4.54754 0.880496 0
M  V30 6727 C 631.47 -5.60653 1.20234 0
M  V30 6728 N 630.966 -6.74198 1.59463 0
M  V30 6729 N 632.759 -5.50755 1.12363 0
M  V30 6730 H 624.91 -1.63508 1.35569 0
M  V30 6731 H 627.173 -0.768097 0.555636 0
M  V30 6732 H 626.879 -3.15569 1.5527 0
M  V30 6733 H 626.753 -3.77102 -0.085792 0
M  V30 6734 H 629.14 -2.89804 -0.556588 0
M  V30 6735 H 629.221 -2.30528 1.10862 0
M  V30 6736 H 628.865 -4.68936 1.95094 0
M  V30 6737 H 628.795 -5.25935 0.264524 0
M  V30 6738 H 631.286 -3.73237 0.591815 0
M  V30 6739 H 631.599 -7.5097 1.82385 0
M  V30 6740 H 629.944 -6.75531 1.63349 0
M  V30 6741 H 633.135 -4.6093 0.816169 0
M  V30 6742 H 633.308 -6.33184 1.37777 0
M  V30 6743 N 626.714 -0.118576 -1.57153 0
M  V30 6744 C 628.125 0.40687 -1.82213 0
M  V30 6745 C 628.476 1.66636 -1.03571 0
M  V30 6746 O 627.601 2.14682 -0.272171 0
M  V30 6747 C 628.196 0.744949 -3.30509 0
M  V30 6748 C 626.755 1.21503 -3.5625 0
M  V30 6749 C 625.902 0.223511 -2.76398 0
M  V30 6750 H 628.853 -0.343712 -1.54933 0
M  V30 6751 H 628.874 1.6024 -3.45114 0
M  V30 6752 H 628.386 -0.171911 -3.87719 0
M  V30 6753 H 626.487 2.1488 -3.04396 0
M  V30 6754 H 626.6 1.16065 -4.64829 0
M  V30 6755 H 624.964 0.71046 -2.44591 0
M  V30 6756 H 625.747 -0.686439 -3.36367 0
M  V30 6757 N 628.193 1.56834 0.155195 0
M  V30 6758 C 629.423 1.86778 0.883044 0
M  V30 6759 C 629.831 0.703824 1.75622 0
M  V30 6760 O 629.174 -0.33581 1.80605 0
M  V30 6761 C 629.236 3.1133 1.79761 0
M  V30 6762 C 628.9 4.43504 1.10242 0
M  V30 6763 C 629.897 5.17859 0.460204 0
M  V30 6764 C 627.582 4.90233 1.09437 0
M  V30 6765 C 629.576 6.37144 -0.180782 0
M  V30 6766 C 627.263 6.09444 0.449569 0
M  V30 6767 C 628.261 6.82744 -0.186888 0
M  V30 6768 O 627.949 7.99692 -0.821486 0
M  V30 6769 H 627.681 0.62352 0.261149 0
M  V30 6770 H 630.235 2.04813 0.155204 0
M  V30 6771 H 628.465 2.89282 2.56618 0
M  V30 6772 H 630.154 3.27587 2.39669 0
M  V30 6773 H 630.92 4.8283 0.458289 0
M  V30 6774 H 626.799 4.33109 1.57917 0
M  V30 6775 H 630.343 6.94296 -0.678154 0
M  V30 6776 H 626.24 6.43936 0.449123 0
M  V30 6777 H 627.008 8.15306 -0.722337 0
M  V30 6778 N 629.671 -0.424282 1.51781 0
M  V30 6779 C 630.581 -1.54087 1.76902 0
M  V30 6780 C 631.597 -1.61249 0.653826 0
M  V30 6781 O 632.773 -1.78247 0.937552 0
M  V30 6782 C 629.838 -2.8996 1.90063 0
M  V30 6783 C 628.899 -2.92809 3.13945 0
M  V30 6784 C 628.132 -4.22201 3.26469 0
M  V30 6785 O 628.355 -5.15286 2.44616 0
M  V30 6786 O 627.289 -4.31599 4.1953 0
M  V30 6787 H 631.115 -1.358 2.71647 0
M  V30 6788 H 628.7 -0.608618 1.36441 0
M  V30 6789 H 630.582 -3.70575 2.0063 0
M  V30 6790 H 629.257 -3.08347 0.985067 0
M  V30 6791 H 628.164 -2.11102 3.08847 0
M  V30 6792 H 629.497 -2.79369 4.05233 0
M  V30 6793 N 631.149 -1.42148 -0.680565 0
M  V30 6794 C 632.097 -1.45401 -1.81552 0
M  V30 6795 C 633.091 -0.33036 -1.66147 0
M  V30 6796 O 634.297 -0.503103 -1.72826 0
M  V30 6797 H 630.672 -0.455265 -0.59853 0
M  V30 6798 H 632.643 -2.41024 -1.75926 0
M  V30 6799 C 631.392 -1.36769 -3.19671 0
M  V30 6800 H 630.715 -2.22525 -3.32149 0
M  V30 6801 H 632.155 -1.43106 -3.9912 0
M  V30 6802 C 630.614 -0.0817752 -3.36801 0
M  V30 6803 O 631.144 0.867707 -3.92216 0
M  V30 6804 N 629.35 -0.000799811 -2.906 0
M  V30 6805 H 628.897 -0.774231 -2.4569 0
M  V30 6806 H 628.855 0.858961 -3.02439 0
M  V30 6807 N 632.627 0.916307 -1.28225 0
M  V30 6808 C 633.874 1.66518 -1.1523 0
M  V30 6809 C 634.202 1.92178 0.299632 0
M  V30 6810 O 633.457 1.51842 1.2346 0
M  V30 6811 C 633.756 3.03125 -1.8934 0
M  V30 6812 C 633.422 2.97135 -3.39148 0
M  V30 6813 C 632.084 2.95208 -3.80007 0
M  V30 6814 C 634.436 2.87574 -4.34685 0
M  V30 6815 C 631.764 2.81518 -5.14747 0
M  V30 6816 C 634.116 2.75424 -5.69495 0
M  V30 6817 C 632.78 2.71854 -6.09632 0
M  V30 6818 H 632.05 0.609334 -0.421655 0
M  V30 6819 H 634.697 1.06776 -1.58969 0
M  V30 6820 H 633.002 3.66639 -1.38143 0
M  V30 6821 H 634.699 3.59968 -1.76704 0
M  V30 6822 H 631.289 2.99428 -3.06661 0
M  V30 6823 H 635.473 2.88152 -4.04082 0
M  V30 6824 H 630.729 2.77148 -5.44976 0
M  V30 6825 H 634.903 2.66993 -6.43185 0
M  V30 6826 H 632.53 2.61003 -7.1399 0
M  V30 6827 N 634.105 1.10431 1.1244 0
M  V30 6828 C 635.037 0.710945 2.17895 0
M  V30 6829 C 636.05 -0.252315 1.60833 0
M  V30 6830 O 637.239 -0.03679 1.78462 0
M  V30 6831 C 634.339 0.0284262 3.38888 0
M  V30 6832 C 633.512 1.01585 4.2544 0
M  V30 6833 C 632.571 0.364826 5.24934 0
M  V30 6834 O 631.597 1.01561 5.60066 0
M  V30 6835 N 632.799 -0.87674 5.73841 0
M  V30 6836 H 635.564 1.61826 2.52255 0
M  V30 6837 H 633.125 0.993132 1.27861 0
M  V30 6838 H 635.117 -0.418568 4.0253 0
M  V30 6839 H 633.687 -0.781294 3.02679 0
M  V30 6840 H 632.907 1.64111 3.58415 0
M  V30 6841 H 634.195 1.68425 4.80115 0
M  V30 6842 H 633.593 -1.42483 5.47462 0
M  V30 6843 H 632.15 -1.26688 6.39369 0
M  V30 6844 N 635.583 -1.29855 0.893053 0
M  V30 6845 C 636.531 -2.29867 0.355512 0
M  V30 6846 C 637.525 -1.60502 -0.541801 0
M  V30 6847 O 638.731 -1.74902 -0.425339 0
M  V30 6848 H 635.106 -0.745805 0.0963247 0
M  V30 6849 H 637.077 -2.72655 1.21252 0
M  V30 6850 C 635.826 -3.453 -0.407801 0
M  V30 6851 H 635.149 -3.98864 0.273426 0
M  V30 6852 H 636.589 -4.17334 -0.748887 0
M  V30 6853 C 635.048 -2.96051 -1.60795 0
M  V30 6854 O 635.578 -2.96763 -2.7073 0
M  V30 6855 N 633.784 -2.51963 -1.44786 0
M  V30 6856 H 633.331 -2.51583 -0.553498 0
M  V30 6857 H 633.289 -2.1937 -2.2522 0
M  V30 6858 N 637.061 -0.65484 -1.43351 0
M  V30 6859 C 638.289 -0.176685 -2.06144 0
M  V30 6860 C 638.704 1.15831 -1.49093 0
M  V30 6861 O 638.061 1.71542 -0.622868 0
M  V30 6862 C 638.112 -0.0813326 -3.61408 0
M  V30 6863 O 637.833 -1.36355 -4.1634 0
M  V30 6864 C 639.334 0.422706 -4.4128 0
M  V30 6865 H 636.554 -0.0906429 -0.66485 0
M  V30 6866 H 639.098 -0.895945 -1.83829 0
M  V30 6867 H 637.253 0.588496 -3.82904 0
M  V30 6868 H 637.667 -1.22381 -5.10023 0
M  V30 6869 H 639.141 0.438375 -5.50257 0
M  V30 6870 H 639.618 1.45432 -4.14423 0
M  V30 6871 H 640.224 -0.214687 -4.24758 0
M  V30 6872 N 638.539 1.52521 -0.396863 0
M  V30 6873 C 639.449 2.30403 0.44178 0
M  V30 6874 C 640.465 1.37625 1.06468 0
M  V30 6875 O 641.641 1.70697 1.06886 0
M  V30 6876 C 638.706 3.1013 1.54986 0
M  V30 6877 C 637.767 4.18628 0.951279 0
M  V30 6878 C 637 4.94543 2.00655 0
M  V30 6879 O 637.223 4.70629 3.22281 0
M  V30 6880 O 636.157 5.797 1.61962 0
M  V30 6881 H 639.983 3.03087 -0.192892 0
M  V30 6882 H 637.568 1.48537 -0.16038 0
M  V30 6883 H 639.45 3.59816 2.19341 0
M  V30 6884 H 638.125 2.40251 2.16935 0
M  V30 6885 H 637.032 3.73119 0.270773 0
M  V30 6886 H 638.365 4.90763 0.375887 0
M  V30 6887 N 640.017 0.126909 1.57088 0
M  V30 6888 C 641.265 -0.528123 1.95078 0
M  V30 6889 C 641.586 -1.66708 1.0116 0
M  V30 6890 O 640.856 -1.95777 0.0693527 0
M  V30 6891 H 639.436 -0.198087 0.720257 0
M  V30 6892 H 642.098 0.197703 1.93895 0
M  V30 6893 H 641.194 -0.917507 2.98309 0
M  V30 6894 N 641.495 -1.56914 -0.146875 0
M  V30 6895 C 642.442 -1.98275 -1.18134 0
M  V30 6896 C 643.412 -0.850367 -1.42681 0
M  V30 6897 O 644.597 -1.11244 -1.55014 0
M  V30 6898 C 641.737 -2.36861 -2.5098 0
M  V30 6899 C 640.85 -3.63391 -2.33605 0
M  V30 6900 C 639.985 -3.91079 -3.59486 0
M  V30 6901 C 639.024 -5.10879 -3.37149 0
M  V30 6902 N 638.161 -5.34577 -4.55161 0
M  V30 6903 H 643.001 -2.8645 -0.821622 0
M  V30 6904 H 640.538 -1.41718 -0.394248 0
M  V30 6905 H 642.496 -2.57262 -3.28439 0
M  V30 6906 H 641.126 -1.51766 -2.84898 0
M  V30 6907 H 640.178 -3.50766 -1.47199 0
M  V30 6908 H 641.49 -4.51007 -2.13059 0
M  V30 6909 H 640.644 -4.11979 -4.45374 0
M  V30 6910 H 639.383 -3.01885 -3.83036 0
M  V30 6911 H 638.388 -4.89853 -2.49649 0
M  V30 6912 H 639.613 -6.01626 -3.14997 0
M  V30 6913 H 637.559 -4.48337 -4.78884 0
M  V30 6914 H 637.476 -6.16463 -4.37618 0
M  V30 6915 H 638.744 -5.59975 -5.42263 0
M  V30 6916 N 642.974 0.416227 -1.52004 0
M  V30 6917 C 644.222 1.16153 -1.65387 0
M  V30 6918 C 644.543 1.91208 -0.382669 0
M  V30 6919 O 643.813 1.86413 0.602231 0
M  V30 6920 H 642.393 0.431765 -0.60958 0
M  V30 6921 H 645.055 0.475151 -1.89019 0
M  V30 6922 H 644.151 1.87952 -2.4916 0
M  V30 6923 N 644.452 1.42507 0.673017 0
M  V30 6924 C 645.68 1.46473 1.46128 0
M  V30 6925 C 646.095 0.0765912 1.88645 0
M  V30 6926 O 645.452 -0.909057 1.58248 0
M  V30 6927 C 645.503 2.39339 2.70923 0
M  V30 6928 O 645.224 3.72752 2.3019 0
M  V30 6929 C 646.725 2.52343 3.64469 0
M  V30 6930 H 643.945 0.49812 0.449575 0
M  V30 6931 H 646.489 1.87041 0.826802 0
M  V30 6932 H 644.644 2.02019 3.30556 0
M  V30 6933 H 645.058 4.22503 3.10791 0
M  V30 6934 H 646.532 3.2144 4.48754 0
M  V30 6935 H 647.009 1.56189 4.1049 0
M  V30 6936 H 647.615 2.90392 3.10729 0
M  V30 6937 N 645.93 -0.909495 1.28709 0
M  V30 6938 C 646.893 -1.99399 1.13016 0
M  V30 6939 C 647.893 -1.60654 0.068536 0
M  V30 6940 O 649.083 -1.71334 0.314671 0
M  V30 6941 C 646.215 -3.33078 0.726085 0
M  V30 6942 H 647.408 -2.14751 2.09338 0
M  V30 6943 H 644.961 -1.09272 1.11756 0
M  V30 6944 H 645.696 -3.23428 -0.23771 0
M  V30 6945 H 645.481 -3.62562 1.49302 0
M  V30 6946 H 646.971 -4.12681 0.639058 0
M  V30 6947 N 647.408 -1.11026 -1.11852 0
M  V30 6948 C 648.638 -0.877544 -1.87037 0
M  V30 6949 C 649.046 0.575925 -1.80221 0
M  V30 6950 O 648.389 1.40916 -1.17849 0
M  V30 6951 C 648.451 -1.25529 -3.36872 0
M  V30 6952 C 648.115 -2.71704 -3.67459 0
M  V30 6953 C 649.112 -3.69931 -3.65304 0
M  V30 6954 C 646.797 -3.08243 -3.966 0
M  V30 6955 C 648.791 -5.02717 -3.9186 0
M  V30 6956 C 646.478 -4.41215 -4.22815 0
M  V30 6957 C 647.476 -5.38262 -4.20432 0
M  V30 6958 O 647.164 -6.68839 -4.45992 0
M  V30 6959 H 646.896 -0.314374 -0.598452 0
M  V30 6960 H 649.45 -1.48015 -1.42411 0
M  V30 6961 H 647.68 -0.595808 -3.82082 0
M  V30 6962 H 649.369 -0.999064 -3.93413 0
M  V30 6963 H 650.135 -3.43047 -3.42846 0
M  V30 6964 H 646.014 -2.33326 -3.97593 0
M  V30 6965 H 649.558 -5.78456 -3.89916 0
M  V30 6966 H 645.455 -4.67835 -4.44748 0
M  V30 6967 H 646.223 -6.74563 -4.63581 0
M  V30 6968 N 648.886 1.2938 -0.899927 0
M  V30 6969 C 650.111 2.00228 -0.540692 0
M  V30 6970 C 650.536 1.66909 0.867359 0
M  V30 6971 O 649.894 0.893824 1.57735 0
M  V30 6972 C 649.942 3.52921 -0.740232 0
M  V30 6973 O 649.046 4.11879 0.207154 0
M  V30 6974 H 648.387 0.629505 -0.211233 0
M  V30 6975 H 650.917 1.6487 -1.21158 0
M  V30 6976 H 650.927 4.0287 -0.644973 0
M  V30 6977 H 649.602 3.76508 -1.76677 0
M  V30 6978 H 648.179 3.72845 0.0643315 0
M  V30 6979 N 650.364 0.662433 1.43002 0
M  V30 6980 C 651.589 0.186003 2.06564 0
M  V30 6981 C 652.014 -1.14314 1.49379 0
M  V30 6982 O 651.372 -1.70824 0.607346 0
M  V30 6983 C 651.42 0.118269 3.60406 0
M  V30 6984 O 650.524 -0.916859 4.02079 0
M  V30 6985 H 649.865 0.0990981 0.656563 0
M  V30 6986 H 652.395 0.907958 1.8335 0
M  V30 6987 H 652.405 -0.0619981 4.07953 0
M  V30 6988 H 651.08 1.08849 4.01403 0
M  V30 6989 H 649.657 -0.708635 3.66105 0
M  V30 6990 N 651.842 -1.52309 0.404946 0
M  V30 6991 C 652.805 -2.25491 -0.410651 0
M  V30 6992 C 653.805 -1.27704 -0.977154 0
M  V30 6993 O 654.995 -1.51679 -0.856691 0
M  V30 6994 C 652.127 -3.02197 -1.57765 0
M  V30 6995 H 653.32 -2.99015 0.230277 0
M  V30 6996 H 650.873 -1.55506 0.157377 0
M  V30 6997 H 651.608 -2.33013 -2.25556 0
M  V30 6998 H 651.393 -3.73987 -1.17797 0
M  V30 6999 H 652.883 -3.57719 -2.15469 0
M  V30 7000 N 653.32 -0.135238 -1.57019 0
M  V30 7001 C 654.283 0.794707 -2.14981 0
M  V30 7002 C 655.283 1.18342 -1.08866 0
M  V30 7003 O 656.473 1.10627 -1.34563 0
M  V30 7004 C 653.605 2.07685 -2.70333 0
M  V30 7005 H 654.798 0.290696 -2.98488 0
M  V30 7006 H 652.351 0.114128 -1.55883 0
M  V30 7007 H 653.086 2.6248 -1.9046 0
M  V30 7008 H 652.871 1.80745 -3.47957 0
M  V30 7009 H 654.361 2.74127 -3.1503 0
M  V30 7010 N 654.798 1.5699 0.138552 0
M  V30 7011 C 656.023 1.88344 0.86841 0
M  V30 7012 C 656.448 0.725159 1.7356 0
M  V30 7013 O 655.806 -0.324992 1.78363 0
M  V30 7014 C 655.854 3.18334 1.69398 0
M  V30 7015 O 654.958 3.02863 2.79907 0
M  V30 7016 H 654.299 0.618577 0.241367 0
M  V30 7017 H 656.829 2.04207 0.126826 0
M  V30 7018 H 656.839 3.50567 2.08726 0
M  V30 7019 H 655.514 4.02238 1.05725 0
M  V30 7020 H 654.091 2.82056 2.43924 0
M  V30 7021 N 656.276 -0.40816 1.52223 0
M  V30 7022 C 657.226 -1.49648 1.72016 0
M  V30 7023 C 658.21 -1.50311 0.574069 0
M  V30 7024 O 659.402 -1.56271 0.831173 0
M  V30 7025 C 656.531 -2.87566 1.87512 0
M  V30 7026 C 655.617 -2.91547 3.07995 0
M  V30 7027 N 656.008 -2.65225 4.30685 0
M  V30 7028 C 654.306 -3.22715 3.07849 0
M  V30 7029 C 655.007 -2.75799 5.12162 0
M  V30 7030 N 653.983 -3.08719 4.4743 0
M  V30 7031 H 657.785 -1.28093 2.64517 0
M  V30 7032 H 655.299 -0.61588 1.50269 0
M  V30 7033 H 657.296 -3.65899 1.99809 0
M  V30 7034 H 655.956 -3.10118 0.962114 0
M  V30 7035 H 656.967 -2.39601 4.59142 0
M  V30 7036 H 653.644 -3.50856 2.26289 0
M  V30 7037 H 655.034 -2.59155 6.1991 0
M  V30 7038 N 657.755 -1.42862 -0.66545 0
M  V30 7039 C 659.003 -1.43546 -1.42264 0
M  V30 7040 C 659.324 -0.0563116 -1.94919 0
M  V30 7041 O 658.594 0.906568 -1.73661 0
M  V30 7042 H 657.174 -0.528464 -0.527953 0
M  V30 7043 H 659.836 -1.78363 -0.785665 0
M  V30 7044 H 658.932 -2.14079 -2.27105 0
M  V30 7045 N 659.233 0.902656 -1.29189 0
M  V30 7046 C 660.181 2.0278 -1.13943 0
M  V30 7047 C 661.175 1.69308 -0.055787 0
M  V30 7048 O 662.381 1.78707 -0.215371 0
M  V30 7049 H 658.756 0.664595 -0.351877 0
M  V30 7050 H 660.727 2.12778 -2.09208 0
M  V30 7051 C 659.476 3.37657 -0.82966 0
M  V30 7052 H 658.799 3.63913 -1.65551 0
M  V30 7053 H 660.239 4.17078 -0.762998 0
M  V30 7054 C 658.698 3.33648 0.466991 0
M  V30 7055 O 659.228 3.72886 1.49395 0
M  V30 7056 N 657.434 2.86745 0.471761 0
M  V30 7057 H 656.981 2.55009 -0.364406 0
M  V30 7058 H 656.939 2.84446 1.33933 0
M  V30 7059 N 660.711 1.11618 1.11262 0
M  V30 7060 C 661.674 0.779447 2.15539 0
M  V30 7061 C 662.674 -0.202081 1.59525 0
M  V30 7062 O 663.864 0.0226356 1.74185 0
M  V30 7063 C 660.996 0.15674 3.40539 0
M  V30 7064 H 662.189 1.70324 2.4684 0
M  V30 7065 H 659.742 0.918298 1.26479 0
M  V30 7066 H 660.477 -0.777186 3.1485 0
M  V30 7067 H 660.262 0.863308 3.82478 0
M  V30 7068 H 661.752 -0.062661 4.17553 0
M  V30 7069 N 662.189 -1.289 0.906776 0
M  V30 7070 C 663.435 -1.95558 0.53712 0
M  V30 7071 C 663.768 -1.71262 -0.915582 0
M  V30 7072 O 663.043 -1.02961 -1.65013 0
M  V30 7073 C 663.326 -3.50198 0.838645 0
M  V30 7074 C 663.179 -3.83923 2.34357 0
M  V30 7075 C 664.498 -4.38861 0.329988 0
M  V30 7076 H 661.617 -0.710289 0.196617 0
M  V30 7077 H 664.259 -1.52392 1.13475 0
M  V30 7078 H 662.409 -3.87096 0.330024 0
M  V30 7079 H 664.081 -3.56933 2.92227 0
M  V30 7080 H 662.324 -3.31215 2.80141 0
M  V30 7081 H 662.995 -4.91883 2.5051 0
M  V30 7082 H 665.471 -4.08996 0.765609 0
M  V30 7083 H 664.347 -5.45931 0.570105 0
M  V30 7084 H 664.608 -4.35352 -0.769511 0
M  V30 7085 N 663.667 -0.670007 -1.42649 0
M  V30 7086 C 664.617 0.0339546 -2.27975 0
M  V30 7087 C 665.601 0.778295 -1.40824 0
M  V30 7088 O 666.793 0.657997 -1.64315 0
M  V30 7089 C 663.922 0.987899 -3.28779 0
M  V30 7090 C 663.008 0.241153 -4.23414 0
M  V30 7091 N 663.399 -0.751392 -5.00188 0
M  V30 7092 C 661.697 0.480269 -4.43407 0
M  V30 7093 C 662.398 -1.19615 -5.69269 0
M  V30 7094 N 661.374 -0.527045 -5.41039 0
M  V30 7095 H 665.176 -0.727425 -2.84756 0
M  V30 7096 H 662.69 -0.498673 -1.54554 0
M  V30 7097 H 664.687 1.50716 -3.88703 0
M  V30 7098 H 663.347 1.74916 -2.73559 0
M  V30 7099 H 664.358 -1.13075 -5.05405 0
M  V30 7100 H 661.035 1.2214 -3.99234 0
M  V30 7101 H 662.425 -2.01836 -6.40868 0
M  V30 7102 N 665.145 1.52092 -0.413018 0
M  V30 7103 C 666.077 2.24819 0.445994 0
M  V30 7104 C 667.09 1.27925 1.00692 0
M  V30 7105 O 668.279 1.53845 0.905204 0
M  V30 7106 C 665.379 2.96951 1.6332 0
M  V30 7107 C 664.552 4.20746 1.19548 0
M  V30 7108 C 663.611 4.75668 2.25003 0
M  V30 7109 O 662.637 5.38148 1.85434 0
M  V30 7110 N 663.839 4.57579 3.57214 0
M  V30 7111 H 666.604 2.99176 -0.177209 0
M  V30 7112 H 664.165 1.60102 -0.240601 0
M  V30 7113 H 666.157 3.30586 2.33441 0
M  V30 7114 H 664.727 2.25756 2.16225 0
M  V30 7115 H 663.947 3.92881 0.32224 0
M  V30 7116 H 665.235 5.01132 0.880033 0
M  V30 7117 H 664.633 4.07758 3.92109 0
M  V30 7118 H 663.19 4.95642 4.23299 0
M  V30 7119 N 666.623 0.143563 1.56945 0
M  V30 7120 C 668.034 -0.37783 1.82837 0
M  V30 7121 C 668.385 -1.64967 1.06209 0
M  V30 7122 O 667.51 -2.14221 0.306291 0
M  V30 7123 C 668.105 -0.692274 3.31652 0
M  V30 7124 C 666.664 -1.1582 3.58138 0
M  V30 7125 C 665.811 -0.17951 2.76718 0
M  V30 7126 H 668.762 0.368317 1.54367 0
M  V30 7127 H 668.783 -1.54729 3.47619 0
M  V30 7128 H 668.295 0.233572 3.87397 0
M  V30 7129 H 666.396 -2.10011 3.07776 0
M  V30 7130 H 666.509 -1.08655 4.66616 0
M  V30 7131 H 664.873 -0.671458 2.4569 0
M  V30 7132 H 665.656 0.739865 3.35233 0
M  V30 7133 N 668.101 -1.57061 -0.130224 0
M  V30 7134 C 669.326 -1.88802 -0.858409 0
M  V30 7135 C 669.751 -0.734353 -1.73173 0
M  V30 7136 O 669.109 0.315529 -1.78533 0
M  V30 7137 C 669.157 -3.19228 -1.67708 0
M  V30 7138 O 668.261 -3.04343 -2.78297 0
M  V30 7139 H 667.602 -0.619849 -0.238083 0
M  V30 7140 H 670.132 -2.04271 -0.115995 0
M  V30 7141 H 670.142 -3.51669 -2.06864 0
M  V30 7142 H 668.817 -4.02793 -1.0359 0
M  V30 7143 H 667.394 -2.83346 -2.42425 0
M  V30 7144 N 669.579 0.400081 -1.52437 0
M  V30 7145 C 670.827 1.14392 -1.6661 0
M  V30 7146 C 671.148 1.90792 -0.402927 0
M  V30 7147 O 670.418 1.87042 0.582425 0
M  V30 7148 H 668.998 0.425275 -0.614125 0
M  V30 7149 H 671.66 0.455076 -1.89513 0
M  V30 7150 H 670.756 1.85298 -2.51139 0
M  V30 7151 N 671.057 1.43213 0.657864 0
M  V30 7152 C 671.987 1.50815 1.78262 0
M  V30 7153 C 672.968 0.363211 1.66177 0
M  V30 7154 O 674.153 0.579806 1.85343 0
M  V30 7155 C 671.283 1.42625 3.16663 0
M  V30 7156 C 670.237 2.5532 3.43505 0
M  V30 7157 C 669.563 2.32184 4.81658 0
M  V30 7158 C 670.863 3.97583 3.38711 0
M  V30 7159 H 672.557 2.44954 1.72157 0
M  V30 7160 H 670.103 1.17896 0.82683 0
M  V30 7161 H 672.056 1.46548 3.95097 0
M  V30 7162 H 670.78 0.449877 3.23487 0
M  V30 7163 H 669.439 2.50742 2.6744 0
M  V30 7164 H 669.087 1.32801 4.85153 0
M  V30 7165 H 668.787 3.07724 5.00579 0
M  V30 7166 H 670.311 2.37883 5.62356 0
M  V30 7167 H 671.725 4.03673 4.07089 0
M  V30 7168 H 670.122 4.73112 3.69168 0
M  V30 7169 H 671.192 4.23049 2.36976 0
M  V30 7170 N 672.536 -0.895792 1.29666 0
M  V30 7171 C 673.764 -1.68001 1.20761 0
M  V30 7172 C 674.179 -1.87379 -0.231187 0
M  V30 7173 O 673.536 -1.41359 -1.15429 0
M  V30 7174 C 673.587 -3.06236 1.92098 0
M  V30 7175 O 673.308 -2.8774 3.30359 0
M  V30 7176 C 674.809 -4.00652 1.89717 0
M  V30 7177 H 672.029 -0.524591 0.418384 0
M  V30 7178 H 674.573 -1.11995 1.71106 0
M  V30 7179 H 672.728 -3.59007 1.45578 0
M  V30 7180 H 673.142 -3.75359 3.66342 0
M  V30 7181 H 674.616 -4.95051 2.44189 0
M  V30 7182 H 675.093 -4.30424 0.873595 0
M  V30 7183 H 675.699 -3.53815 2.35998 0
M  V30 7184 N 674.014 -1.12206 -1.10668 0
M  V30 7185 C 675.239 -0.898938 -1.86906 0
M  V30 7186 C 675.664 0.546346 -1.79991 0
M  V30 7187 O 675.022 1.38655 -1.1681 0
M  V30 7188 C 675.07 -1.37529 -3.33344 0
M  V30 7189 O 674.174 -0.55218 -4.08687 0
M  V30 7190 H 673.515 -0.323163 -0.580053 0
M  V30 7191 H 676.045 -1.49355 -1.39837 0
M  V30 7192 H 676.055 -1.3733 -3.84193 0
M  V30 7193 H 674.73 -2.42767 -3.37693 0
M  V30 7194 H 673.307 -0.620947 -3.67694 0
M  V30 7195 N 675.492 1.28418 -0.913599 0
M  V30 7196 C 676.424 2.26368 -0.359169 0
M  V30 7197 C 677.437 1.54858 0.502285 0
M  V30 7198 O 678.626 1.75659 0.31719 0
M  V30 7199 C 675.726 3.35112 0.50526 0
M  V30 7200 C 674.899 4.36126 -0.333648 0
M  V30 7201 C 673.958 5.24134 0.465845 0
M  V30 7202 O 672.984 5.6907 -0.121538 0
M  V30 7203 N 674.186 5.52892 1.76891 0
M  V30 7204 H 676.951 2.74579 -1.2011 0
M  V30 7205 H 674.512 1.41898 -0.779532 0
M  V30 7206 H 676.504 3.90926 1.04684 0
M  V30 7207 H 675.074 2.86611 1.2479 0
M  V30 7208 H 674.294 3.79776 -1.0566 0
M  V30 7209 H 675.582 5.00638 -0.907669 0
M  V30 7210 H 674.98 5.18217 2.26865 0
M  V30 7211 H 673.537 6.11464 2.25732 0
M  V30 7212 N 676.97 0.677563 1.42291 0
M  V30 7213 C 678.381 0.277912 1.8462 0
M  V30 7214 C 678.732 -1.18048 1.56714 0
M  V30 7215 O 677.857 -1.90404 1.02836 0
M  V30 7216 C 678.452 0.497619 3.35126 0
M  V30 7217 C 677.011 0.152063 3.76093 0
M  V30 7218 C 676.158 0.78872 2.65847 0
M  V30 7219 H 679.109 0.879527 1.32098 0
M  V30 7220 H 679.13 -0.24939 3.79682 0
M  V30 7221 H 678.642 1.55913 3.55405 0
M  V30 7222 H 676.743 -0.905896 3.6142 0
M  V30 7223 H 676.856 0.594514 4.75397 0
M  V30 7224 H 675.22 0.219813 2.5375 0
M  V30 7225 H 676.003 1.85374 2.88949 0
M  V30 7226 N 678.448 -1.51871 0.421078 0
M  V30 7227 C 679.38 -2.25052 -0.434065 0
M  V30 7228 C 680.393 -1.28458 -1.00013 0
M  V30 7229 O 681.582 -1.54323 -0.897033 0
M  V30 7230 C 678.682 -2.97813 -1.61743 0
M  V30 7231 C 677.855 -4.21374 -1.17315 0
M  V30 7232 C 676.914 -4.76854 -2.22478 0
M  V30 7233 O 675.94 -5.39123 -1.82577 0
M  V30 7234 N 677.142 -4.59467 -3.54782 0
M  V30 7235 H 679.907 -2.99077 0.193073 0
M  V30 7236 H 677.468 -1.59972 0.249088 0
M  V30 7237 H 679.46 -3.3182 -2.31685 0
M  V30 7238 H 678.03 -2.26899 -2.15024 0
M  V30 7239 H 677.25 -3.93046 -0.3014 0
M  V30 7240 H 678.538 -5.01591 -0.853444 0
M  V30 7241 H 677.936 -4.09832 -3.89941 0
M  V30 7242 H 676.493 -4.9788 -4.20665 0
M  V30 7243 N 679.926 -0.151884 -1.56866 0
M  V30 7244 C 681.172 0.498742 -1.96572 0
M  V30 7245 C 681.505 1.64194 -1.03702 0
M  V30 7246 O 680.78 1.94334 -0.0803432 0
M  V30 7247 C 681.063 1.00027 -3.45929 0
M  V30 7248 C 680.916 -0.141767 -4.49577 0
M  V30 7249 C 682.235 1.88044 -3.97904 0
M  V30 7250 H 679.354 0.17982 -0.714726 0
M  V30 7251 H 681.996 -0.234097 -1.88552 0
M  V30 7252 H 680.146 1.62476 -3.52894 0
M  V30 7253 H 681.818 -0.778269 -4.54687 0
M  V30 7254 H 680.061 -0.80019 -4.26356 0
M  V30 7255 H 680.732 0.250947 -5.51429 0
M  V30 7256 H 683.208 1.35416 -3.93449 0
M  V30 7257 H 682.084 2.20043 -5.02864 0
M  V30 7258 H 682.345 2.81916 -3.40552 0
M  V30 7259 N 681.404 1.57128 0.121893 0
M  V30 7260 C 682.334 2.03165 1.15092 0
M  V30 7261 C 683.315 0.915587 1.43356 0
M  V30 7262 O 684.5 1.1851 1.53847 0
M  V30 7263 C 681.63 2.43352 2.47784 0
M  V30 7264 C 680.584 3.58376 2.33989 0
M  V30 7265 C 679.91 3.84454 3.71617 0
M  V30 7266 C 681.21 4.90199 1.80283 0
M  V30 7267 H 682.904 2.89382 0.768023 0
M  V30 7268 H 680.45 1.39218 0.367998 0
M  V30 7269 H 682.403 2.74163 3.20019 0
M  V30 7270 H 681.127 1.54103 2.87958 0
M  V30 7271 H 679.786 3.2777 1.64202 0
M  V30 7272 H 679.434 2.92414 4.09271 0
M  V30 7273 H 679.134 4.61877 3.6324 0
M  V30 7274 H 680.658 4.17714 4.45362 0
M  V30 7275 H 682.072 5.19565 2.42333 0
M  V30 7276 H 680.469 5.71601 1.82735 0
M  V30 7277 H 681.539 4.78904 0.760184 0
M  V30 7278 N 682.882 -0.391992 1.52647 0
M  V30 7279 C 684.112 -1.15692 1.71169 0
M  V30 7280 C 684.52 -1.84285 0.428444 0
M  V30 7281 O 683.863 -1.73393 -0.606669 0
M  V30 7282 C 683.925 -2.25033 2.80357 0
M  V30 7283 C 683.589 -1.76433 4.21569 0
M  V30 7284 C 684.586 -1.2427 5.0483 0
M  V30 7285 C 682.271 -1.82746 4.67877 0
M  V30 7286 C 684.265 -0.790657 6.32477 0
M  V30 7287 C 681.952 -1.37153 5.9551 0
M  V30 7288 C 682.95 -0.853997 6.7764 0
M  V30 7289 O 682.638 -0.404708 8.02881 0
M  V30 7290 H 682.37 -0.35297 0.576531 0
M  V30 7291 H 684.924 -0.464994 2.00067 0
M  V30 7292 H 683.154 -2.97641 2.46874 0
M  V30 7293 H 684.843 -2.86718 2.87311 0
M  V30 7294 H 685.609 -1.18752 4.70237 0
M  V30 7295 H 681.488 -2.21971 4.04042 0
M  V30 7296 H 685.032 -0.386024 6.96531 0
M  V30 7297 H 680.929 -1.42356 6.29607 0
M  V30 7298 H 681.697 -0.526459 8.16805 0
M  V30 7299 N 684.36 -1.4356 -0.65026 0
M  V30 7300 C 685.292 -1.44918 -1.77571 0
M  V30 7301 C 686.305 -0.344925 -1.59104 0
M  V30 7302 O 687.494 -0.609537 -1.6777 0
M  V30 7303 C 684.594 -1.24914 -3.15039 0
M  V30 7304 C 683.767 -2.48232 -3.60138 0
M  V30 7305 C 682.826 -2.23409 -4.76419 0
M  V30 7306 O 681.852 -2.9678 -4.85706 0
M  V30 7307 N 683.054 -1.25259 -5.66825 0
M  V30 7308 H 685.819 -2.41935 -1.76883 0
M  V30 7309 H 683.38 -1.38754 -0.834202 0
M  V30 7310 H 685.372 -1.06185 -3.90521 0
M  V30 7311 H 683.942 -0.363319 -3.10481 0
M  V30 7312 H 683.162 -2.82366 -2.75069 0
M  V30 7313 H 684.45 -3.30296 -3.87017 0
M  V30 7314 H 683.848 -0.646246 -5.61997 0
M  V30 7315 H 682.405 -1.12513 -6.42016 0
M  V30 7316 N 685.838 0.888903 -1.30139 0
M  V30 7317 C 686.786 2.0156 -1.16088 0
M  V30 7318 C 687.78 1.69239 -0.0737413 0
M  V30 7319 O 688.986 1.78468 -0.234313 0
M  V30 7320 H 685.361 0.660825 -0.358907 0
M  V30 7321 H 687.332 2.10547 -2.11453 0
M  V30 7322 C 686.081 3.36758 -0.865426 0
M  V30 7323 H 685.404 3.62137 -1.69402 0
M  V30 7324 H 686.844 4.16246 -0.807192 0
M  V30 7325 C 685.303 3.34124 0.431577 0
M  V30 7326 O 685.833 3.7445 1.45431 0
M  V30 7327 N 684.039 2.87229 0.441321 0
M  V30 7328 H 683.586 2.54609 -0.391433 0
M  V30 7329 H 683.544 2.8585 1.30909 0
M  V30 7330 N 687.317 1.12792 1.10072 0
M  V30 7331 C 688.265 0.794523 2.18609 0
M  V30 7332 C 689.259 -0.220271 1.67962 0
M  V30 7333 O 690.465 -0.0780938 1.79831 0
M  V30 7334 H 686.84 0.239123 0.712969 0
M  V30 7335 H 688.811 1.71823 2.43966 0
M  V30 7336 C 687.56 0.269548 3.46654 0
M  V30 7337 H 686.883 1.04171 3.8599 0
M  V30 7338 H 688.323 0.0746242 4.23934 0
M  V30 7339 C 686.782 -1.00333 3.21613 0
M  V30 7340 O 687.312 -2.08042 3.4363 0
M  V30 7341 N 685.518 -0.931763 2.75257 0
M  V30 7342 H 685.065 -0.0551197 2.57541 0
M  V30 7343 H 685.023 -1.78405 2.58881 0
M  V30 7344 N 688.795 -1.27931 0.920396 0
M  V30 7345 C 690.043 -1.94304 0.555906 0
M  V30 7346 C 690.364 -1.72753 -0.904519 0
M  V30 7347 O 689.634 -1.07104 -1.64029 0
M  V30 7348 H 688.214 -0.719001 0.202599 0
M  V30 7349 H 690.876 -1.55785 1.1712 0
M  V30 7350 H 689.972 -3.02806 0.755981 0
M  V30 7351 N 690.273 -0.685099 -1.4193 0
M  V30 7352 C 691.203 -0.0273506 -2.33484 0
M  V30 7353 C 692.184 0.778366 -1.51246 0
M  V30 7354 O 693.369 0.733449 -1.79817 0
M  V30 7355 C 690.499 0.917272 -3.34968 0
M  V30 7356 C 689.453 0.21941 -4.27437 0
M  V30 7357 C 688.779 1.27768 -5.1921 0
M  V30 7358 C 690.079 -0.907894 -5.14349 0
M  V30 7359 H 691.773 -0.791994 -2.88735 0
M  V30 7360 H 689.319 -0.382308 -1.38832 0
M  V30 7361 H 691.272 1.38657 -3.97935 0
M  V30 7362 H 689.996 1.71346 -2.78043 0
M  V30 7363 H 688.655 -0.229757 -3.65879 0
M  V30 7364 H 688.303 2.06612 -4.58607 0
M  V30 7365 H 688.003 0.815803 -5.81909 0
M  V30 7366 H 689.527 1.7477 -5.85054 0
M  V30 7367 H 690.941 -0.519348 -5.70943 0
M  V30 7368 H 689.338 -1.2962 -5.85934 0
M  V30 7369 H 690.408 -1.75218 -4.52136 0
M  V30 7370 N 691.751 1.51645 -0.429126 0
M  V30 7371 C 692.981 2.06133 0.138793 0
M  V30 7372 C 693.389 1.29735 1.37716 0
M  V30 7373 O 692.732 0.347955 1.80375 0
M  V30 7374 C 692.794 3.55504 0.534493 0
M  V30 7375 C 692.458 4.53098 -0.595917 0
M  V30 7376 C 693.455 4.98815 -1.46558 0
M  V30 7377 C 691.14 4.96296 -0.774309 0
M  V30 7378 C 693.134 5.86394 -2.4984 0
M  V30 7379 C 690.821 5.83667 -1.81042 0
M  V30 7380 C 691.819 6.28613 -2.67086 0
M  V30 7381 O 691.507 7.14251 -3.68919 0
M  V30 7382 H 691.239 0.675833 0.0150263 0
M  V30 7383 H 693.793 1.96301 -0.604584 0
M  V30 7384 H 692.023 3.63092 1.33045 0
M  V30 7385 H 693.712 3.92545 1.03262 0
M  V30 7386 H 694.478 4.66143 -1.33925 0
M  V30 7387 H 690.357 4.60859 -0.114178 0
M  V30 7388 H 693.901 6.21398 -3.17034 0
M  V30 7389 H 689.798 6.15753 -1.93698 0
M  V30 7390 H 690.566 7.3241 -3.65402 0
M  V30 7391 N 693.229 0.160201 1.56784 0
M  V30 7392 C 694.454 -0.497373 2.01348 0
M  V30 7393 C 694.879 -1.56757 1.03966 0
M  V30 7394 O 694.237 -1.81292 0.0174455 0
M  V30 7395 C 694.285 -1.0628 3.44582 0
M  V30 7396 O 693.389 -2.17723 3.50244 0
M  V30 7397 H 692.73 -0.120295 0.653012 0
M  V30 7398 H 695.26 0.260821 2.02931 0
M  V30 7399 H 695.27 -1.38819 3.83658 0
M  V30 7400 H 693.945 -0.279166 4.14962 0
M  V30 7401 H 692.522 -1.86313 3.2302 0
M  V30 7402 N 694.707 -1.5719 -0.113559 0
M  V30 7403 C 695.932 -1.89702 -0.838336 0
M  V30 7404 C 696.357 -0.752679 -1.72384 0
M  V30 7405 O 695.715 0.296575 -1.78858 0
M  V30 7406 C 695.763 -3.20989 -1.64312 0
M  V30 7407 O 694.867 -3.07278 -2.75053 0
M  V30 7408 H 694.208 -0.622339 -0.231496 0
M  V30 7409 H 696.738 -2.04382 -0.0943228 0
M  V30 7410 H 696.748 -3.53843 -2.03123 0
M  V30 7411 H 695.423 -4.03869 -0.993119 0
M  V30 7412 H 694 -2.85901 -2.39406 0
M  V30 7413 N 696.185 0.383891 -1.52853 0
M  V30 7414 C 697.135 1.46892 -1.74375 0
M  V30 7415 C 698.119 1.49378 -0.597909 0
M  V30 7416 O 699.311 1.54929 -0.855929 0
M  V30 7417 C 696.44 2.84547 -1.92063 0
M  V30 7418 C 695.526 2.8661 -3.12594 0
M  V30 7419 N 695.917 2.58339 -4.3485 0
M  V30 7420 C 694.215 3.17777 -3.12944 0
M  V30 7421 C 694.916 2.67616 -5.16485 0
M  V30 7422 N 693.892 3.01561 -4.52285 0
M  V30 7423 H 697.694 1.23869 -2.66522 0
M  V30 7424 H 695.208 0.591895 -1.51229 0
M  V30 7425 H 697.205 3.62674 -2.05604 0
M  V30 7426 H 695.865 3.08549 -1.01133 0
M  V30 7427 H 696.876 2.32266 -4.62896 0
M  V30 7428 H 693.553 3.47211 -2.31842 0
M  V30 7429 H 694.943 2.4926 -6.23955 0
M  V30 7430 N 697.663 1.43903 0.642637 0
M  V30 7431 C 698.911 1.45791 1.39962 0
M  V30 7432 C 699.232 0.0873144 1.94804 0
M  V30 7433 O 698.502 -0.878825 1.75081 0
M  V30 7434 H 697.082 0.536797 0.519479 0
M  V30 7435 H 699.744 1.7959 0.757189 0
M  V30 7436 H 698.84 2.17665 2.2367 0
M  V30 7437 N 699.141 -0.881989 1.30609 0
M  V30 7438 C 700.388 -1.63405 1.19604 0
M  V30 7439 C 700.716 -1.92905 -0.248574 0
M  V30 7440 O 699.971 -1.55062 -1.19391 0
M  V30 7441 C 700.27 -2.97999 1.97311 0
M  V30 7442 C 699.936 -2.88039 3.46907 0
M  V30 7443 C 698.598 -2.85029 3.877 0
M  V30 7444 C 700.95 -2.75948 4.42156 0
M  V30 7445 C 698.278 -2.67772 5.2203 0
M  V30 7446 C 700.63 -2.60228 5.76597 0
M  V30 7447 C 699.294 -2.55595 6.16626 0
M  V30 7448 H 698.564 -0.597941 0.437662 0
M  V30 7449 H 701.211 -1.02524 1.61744 0
M  V30 7450 H 699.516 -3.62847 1.47815 0
M  V30 7451 H 701.213 -3.55156 1.86186 0
M  V30 7452 H 697.803 -2.91192 3.14492 0
M  V30 7453 H 701.987 -2.77337 4.1158 0
M  V30 7454 H 697.243 -2.62601 5.52133 0
M  V30 7455 H 701.417 -2.49847 6.50038 0
M  V30 7456 H 699.044 -2.41981 7.20659 0
M  V30 7457 N 700.619 -1.13374 -1.09472 0
M  V30 7458 C 701.867 -0.893422 -1.8128 0
M  V30 7459 C 702.188 0.582029 -1.86111 0
M  V30 7460 O 701.458 1.42305 -1.34633 0
M  V30 7461 H 700.038 -0.327543 -0.67136 0
M  V30 7462 H 702.7 -1.43018 -1.32408 0
M  V30 7463 H 701.796 -1.28374 -2.84476 0
M  V30 7464 N 702.098 1.27442 -0.927168 0
M  V30 7465 C 703.326 1.98498 -0.583622 0
M  V30 7466 C 703.741 1.69171 0.838241 0
M  V30 7467 O 703.098 0.951969 1.55704 0
M  V30 7468 C 703.149 3.52552 -0.799341 0
M  V30 7469 O 702.87 3.80851 -2.16527 0
M  V30 7470 C 704.371 4.4086 -0.464436 0
M  V30 7471 H 701.591 0.633487 -0.221213 0
M  V30 7472 H 704.135 1.62308 -1.24404 0
M  V30 7473 H 702.29 3.86955 -0.185728 0
M  V30 7474 H 702.704 4.75441 -2.21487 0
M  V30 7475 H 704.178 5.47967 -0.666075 0
M  V30 7476 H 704.655 4.35082 0.599995 0
M  V30 7477 H 705.261 4.11977 -1.05617 0
M  V30 7478 N 703.576 0.692616 1.41565 0
M  V30 7479 C 704.992 0.363878 1.55397 0
M  V30 7480 C 705.192 -1.1294 1.66874 0
M  V30 7481 O 704.248 -1.91517 1.64552 0
M  V30 7482 C 705.561 1.10982 2.7947 0
M  V30 7483 C 707.109 1.09387 2.93263 0
M  V30 7484 C 707.584 1.8215 4.20221 0
M  V30 7485 N 709.075 1.79105 4.27172 0
M  V30 7486 C 709.81 2.32247 5.2426 0
M  V30 7487 N 709.306 2.93847 6.27396 0
M  V30 7488 N 711.099 2.22519 5.1618 0
M  V30 7489 H 703.25 1.66116 1.3236 0
M  V30 7490 H 705.513 0.700848 0.63837 0
M  V30 7491 H 705.219 2.1647 2.77188 0
M  V30 7492 H 705.093 0.686492 3.709 0
M  V30 7493 H 707.48 0.0472638 2.95062 0
M  V30 7494 H 707.561 1.55623 2.03015 0
M  V30 7495 H 707.205 2.86789 4.19183 0
M  V30 7496 H 707.135 1.33351 5.09436 0
M  V30 7497 H 709.626 1.34191 3.53272 0
M  V30 7498 H 709.939 3.31972 6.97864 0
M  V30 7499 H 708.284 2.97924 6.27906 0
M  V30 7500 H 711.475 1.7407 4.34531 0
M  V30 7501 H 711.648 2.64239 5.91677 0
M  V30 7502 N 705.054 -1.51416 0.437162 0
M  V30 7503 C 706.465 -1.86682 -0.0260005 0
M  V30 7504 C 706.816 -1.35432 -1.4196 0
M  V30 7505 O 705.941 -0.705055 -2.04592 0
M  V30 7506 C 706.536 -3.38757 -0.0539577 0
M  V30 7507 C 705.095 -3.7356 -0.461532 0
M  V30 7508 C 704.242 -2.75134 0.345924 0
M  V30 7509 H 707.193 -1.44642 0.653013 0
M  V30 7510 H 707.214 -3.70573 -0.863478 0
M  V30 7511 H 706.726 -3.76028 0.96045 0
M  V30 7512 H 704.827 -3.41878 -1.48155 0
M  V30 7513 H 704.94 -4.78737 -0.186451 0
M  V30 7514 H 703.304 -2.53947 -0.195739 0
M  V30 7515 H 704.087 -3.15247 1.35921 0
M  V30 7516 N 706.532 -0.168513 -1.56696 0
M  V30 7517 C 707.462 0.758563 -2.20835 0
M  V30 7518 C 708.443 1.24121 -1.1631 0
M  V30 7519 O 709.628 1.29487 -1.4473 0
M  V30 7520 C 706.758 1.9892 -2.8469 0
M  V30 7521 C 705.712 1.64252 -3.95228 0
M  V30 7522 C 705.038 2.94757 -4.46119 0
M  V30 7523 C 706.338 0.872675 -5.14958 0
M  V30 7524 H 708.032 0.223953 -2.98561 0
M  V30 7525 H 705.578 0.106277 -1.43607 0
M  V30 7526 H 707.531 2.64275 -3.28233 0
M  V30 7527 H 706.255 2.5479 -2.04327 0
M  V30 7528 H 704.914 1.01266 -3.52336 0
M  V30 7529 H 704.562 3.48662 -3.62552 0
M  V30 7530 H 704.262 2.72316 -5.2069 0
M  V30 7531 H 705.786 3.61147 -4.92347 0
M  V30 7532 H 707.2 1.42875 -5.55211 0
M  V30 7533 H 705.597 0.747402 -5.95428 0
M  V30 7534 H 706.667 -0.131535 -4.84722 0
M  V30 7535 N 708.01 1.57248 0.105221 0
M  V30 7536 C 709.287 1.76566 0.841647 0
M  V30 7537 C 709.667 0.747566 1.9742 0
M  V30 7538 O 709.015 -0.225886 2.27381 0
M  V30 7539 C 709.225 3.22016 1.3456 0
M  V30 7540 C 710.573 3.84911 1.79244 0
M  V30 7541 O 711.597 3.25703 1.44207 0
M  V30 7542 O 710.456 4.89008 2.43995 0
M  V30 7543 H 707.55 0.723443 0.400698 0
M  V30 7544 H 710.096 1.69472 0.0878893 0
M  V30 7545 H 708.868 3.87644 0.533685 0
M  V30 7546 H 708.491 3.33703 2.16167 0
M  V30 7547 N 709.488 -0.375779 1.53054 0
M  V30 7548 C 710.899 -0.95309 1.6054 0
M  V30 7549 C 711.25 -1.90575 0.466446 0
M  V30 7550 O 710.375 -2.12507 -0.408609 0
M  V30 7551 C 710.97 -1.73537 2.90982 0
M  V30 7552 C 709.529 -2.26218 3.00836 0
M  V30 7553 C 708.676 -1.07157 2.55759 0
M  V30 7554 H 711.627 -0.154895 1.57942 0
M  V30 7555 H 711.648 -2.59574 2.78211 0
M  V30 7556 H 711.16 -1.04176 3.73857 0
M  V30 7557 H 709.261 -2.98852 2.22527 0
M  V30 7558 H 709.374 -2.54799 4.05727 0
M  V30 7559 H 707.738 -1.43553 2.10391 0
M  V30 7560 H 708.521 -0.393099 3.41042 0
M  V30 7561 N 710.966 -1.44241 -0.634997 0
M  V30 7562 C 712.214 -1.46531 -1.39187 0
M  V30 7563 C 712.535 -0.0976441 -1.94755 0
M  V30 7564 O 711.805 0.869528 -1.75545 0
M  V30 7565 H 710.385 -0.539544 -0.516625 0
M  V30 7566 H 713.047 -1.79989 -0.747655 0
M  V30 7567 H 712.143 -2.18848 -2.22513 0
M  V30 7568 N 712.444 0.87505 -1.31075 0
M  V30 7569 C 713.672 1.66058 -1.23419 0
M  V30 7570 C 714.087 1.87723 0.201347 0
M  V30 7571 O 713.444 1.43178 1.13165 0
M  V30 7572 C 713.495 3.03142 -1.96945 0
M  V30 7573 O 713.216 2.82448 -3.34895 0
M  V30 7574 C 714.717 3.97583 -1.96067 0
M  V30 7575 H 711.937 0.517868 -0.426677 0
M  V30 7576 H 714.481 1.09258 -1.72867 0
M  V30 7577 H 712.636 3.56645 -1.51271 0
M  V30 7578 H 713.05 3.69483 -3.72267 0
M  V30 7579 H 714.524 4.91104 -2.52034 0
M  V30 7580 H 715.001 4.2898 -0.941961 0
M  V30 7581 H 715.607 3.50015 -2.41597 0
M  V30 7582 N 713.922 1.13953 1.08869 0
M  V30 7583 C 714.885 0.824991 2.13838 0
M  V30 7584 C 715.885 -0.168198 1.59918 0
M  V30 7585 O 717.075 0.0595778 1.74098 0
M  V30 7586 C 714.207 0.228938 3.4013 0
M  V30 7587 H 715.4 1.75521 2.43171 0
M  V30 7588 H 712.953 0.94492 1.24503 0
M  V30 7589 H 713.688 -0.710227 3.16427 0
M  V30 7590 H 713.473 0.944243 3.80561 0
M  V30 7591 H 714.963 0.0259223 4.17592 0
M  V30 7592 N 715.4 -1.26948 0.933913 0
M  V30 7593 C 716.648 -1.93704 0.576484 0
M  V30 7594 C 716.969 -1.73702 -0.886145 0
M  V30 7595 O 716.239 -1.08838 -1.62884 0
M  V30 7596 H 714.819 -0.716812 0.210214 0
M  V30 7597 H 717.481 -1.54534 1.18766 0
M  V30 7598 H 716.577 -3.01987 0.788055 0
M  V30 7599 N 716.879 -0.700114 -1.41195 0
M  V30 7600 C 718.29 -0.307249 -1.84154 0
M  V30 7601 C 718.641 1.15539 -1.58572 0
M  V30 7602 O 717.766 1.88744 -1.05852 0
M  V30 7603 C 718.361 -0.550872 -3.34292 0
M  V30 7604 C 716.92 -0.211877 -3.75803 0
M  V30 7605 C 716.067 -0.830915 -2.64558 0
M  V30 7606 H 719.018 -0.900431 -1.30683 0
M  V30 7607 H 719.039 0.188954 -3.80031 0
M  V30 7608 H 718.551 -1.61548 -3.5288 0
M  V30 7609 H 716.652 0.848283 -3.62815 0
M  V30 7610 H 716.765 -0.67007 -4.74391 0
M  V30 7611 H 715.129 -0.260155 -2.53368 0
M  V30 7612 H 715.912 -1.89948 -2.85963 0
M  V30 7613 N 718.357 1.51182 -0.445186 0
M  V30 7614 C 719.773 1.59299 -0.0978954 0
M  V30 7615 C 719.973 1.4555 1.39346 0
M  V30 7616 O 719.029 1.30073 2.16419 0
M  V30 7617 C 720.342 2.94133 -0.625005 0
M  V30 7618 C 721.89 3.07463 -0.586137 0
M  V30 7619 C 722.365 4.44832 -1.09035 0
M  V30 7620 N 723.856 4.51173 -1.04867 0
M  V30 7621 C 724.591 5.55804 -1.40959 0
M  V30 7622 N 724.087 6.67816 -1.84375 0
M  V30 7623 N 725.88 5.46205 -1.32726 0
M  V30 7624 H 718.031 1.58363 -1.41544 0
M  V30 7625 H 720.294 0.746946 -0.58376 0
M  V30 7626 H 720 3.09589 -1.66876 0
M  V30 7627 H 719.874 3.77161 -0.0542262 0
M  V30 7628 H 722.261 2.9167 0.448646 0
M  V30 7629 H 722.342 2.26255 -1.19341 0
M  V30 7630 H 721.986 4.61372 -2.12364 0
M  V30 7631 H 721.916 5.24591 -0.459539 0
M  V30 7632 H 724.407 3.70783 -0.729932 0
M  V30 7633 H 724.72 7.43683 -2.10131 0
M  V30 7634 H 723.065 6.69003 -1.88308 0
M  V30 7635 H 726.256 4.57583 -0.986678 0
M  V30 7636 H 726.429 6.27634 -1.61182 0
M  V30 7637 N 719.835 0.176821 1.56605 0
M  V30 7638 C 721.081 -0.467406 1.9734 0
M  V30 7639 C 721.414 -1.62523 1.06301 0
M  V30 7640 O 720.689 -1.94182 0.11125 0
M  V30 7641 C 720.972 -0.945106 3.47476 0
M  V30 7642 C 720.825 0.213273 4.49294 0
M  V30 7643 C 722.144 -1.8169 4.00845 0
M  V30 7644 H 719.263 -0.168426 0.717497 0
M  V30 7645 H 721.905 0.264065 1.88156 0
M  V30 7646 H 720.055 -1.56841 3.55434 0
M  V30 7647 H 721.727 0.850508 4.53392 0
M  V30 7648 H 719.97 0.867918 4.25029 0
M  V30 7649 H 720.641 -0.163187 5.51759 0
M  V30 7650 H 723.117 -1.29139 3.95553 0
M  V30 7651 H 721.993 -2.12015 5.06301 0
M  V30 7652 H 722.254 -2.76463 3.44994 0
M  V30 7653 N 721.313 -1.57302 -0.09688 0
M  V30 7654 C 722.559 -1.87144 -0.796778 0
M  V30 7655 C 722.914 -0.767428 -1.76432 0
M  V30 7656 O 722.207 0.230728 -1.90206 0
M  V30 7657 C 722.401 -3.21272 -1.56586 0
M  V30 7658 C 722.23 -4.44616 -0.674295 0
M  V30 7659 C 721 -5.04281 -0.320705 0
M  V30 7660 C 723.198 -5.14297 0.0179445 0
M  V30 7661 N 721.18 -6.11162 0.579206 0
M  V30 7662 C 722.551 -6.15125 0.775992 0
M  V30 7663 C 724.606 -4.97815 0.0920521 0
M  V30 7664 C 723.309 -7.01251 1.60122 0
M  V30 7665 C 725.335 -5.84447 0.904175 0
M  V30 7666 C 724.697 -6.84794 1.65035 0
M  V30 7667 H 720.796 -0.734721 -0.267787 0
M  V30 7668 H 723.38 -1.94609 -0.0593955 0
M  V30 7669 H 721.551 -3.14862 -2.27413 0
M  V30 7670 H 723.283 -3.38846 -2.21281 0
M  V30 7671 H 720.038 -4.68866 -0.667961 0
M  V30 7672 H 720.462 -6.69247 1.02166 0
M  V30 7673 H 725.104 -4.20174 -0.470492 0
M  V30 7674 H 722.822 -7.78284 2.17484 0
M  V30 7675 H 726.408 -5.73755 0.964165 0
M  V30 7676 H 725.288 -7.50668 2.26864 0
M  V30 7677 N 722.791 0.367657 -1.53252 0
M  V30 7678 C 724.021 1.12955 -1.72988 0
M  V30 7679 C 724.429 1.8358 -0.457708 0
M  V30 7680 O 723.772 1.74336 0.579006 0
M  V30 7681 C 723.834 2.20545 -2.83902 0
M  V30 7682 C 723.498 1.69704 -4.24323 0
M  V30 7683 C 724.495 1.16223 -5.06743 0
M  V30 7684 C 722.18 1.7528 -4.70725 0
M  V30 7685 C 724.174 0.689935 -6.33655 0
M  V30 7686 C 721.861 1.27662 -5.97617 0
M  V30 7687 C 722.859 0.746083 -6.78913 0
M  V30 7688 O 722.547 0.276925 -8.03423 0
M  V30 7689 H 722.279 0.343753 -0.582074 0
M  V30 7690 H 724.833 0.433106 -2.00782 0
M  V30 7691 H 723.063 2.93676 -2.51577 0
M  V30 7692 H 724.752 2.82111 -2.91836 0
M  V30 7693 H 725.518 1.11256 -4.72067 0
M  V30 7694 H 721.397 2.15515 -4.07522 0
M  V30 7695 H 724.941 0.275164 -6.97057 0
M  V30 7696 H 720.838 1.32322 -6.31792 0
M  V30 7697 H 721.606 0.396445 -8.17539 0
M  V30 7698 N 724.269 1.44576 0.627338 0
M  V30 7699 C 725.685 1.28546 0.945938 0
M  V30 7700 C 725.885 0.224003 2.00251 0
M  V30 7701 O 724.941 -0.388817 2.49488 0
M  V30 7702 C 726.254 2.65825 1.40561 0
M  V30 7703 C 727.802 2.73566 1.52088 0
M  V30 7704 C 728.277 4.11323 2.01438 0
M  V30 7705 N 729.768 4.13519 2.08702 0
M  V30 7706 C 730.503 5.16964 2.48065 0
M  V30 7707 N 729.999 6.30768 2.86538 0
M  V30 7708 N 731.792 5.04319 2.48232 0
M  V30 7709 H 723.943 2.1228 -0.0713567 0
M  V30 7710 H 726.206 0.947503 0.0307081 0
M  V30 7711 H 725.912 3.44591 0.703539 0
M  V30 7712 H 725.786 2.92969 2.37591 0
M  V30 7713 H 728.173 1.95116 2.21391 0
M  V30 7714 H 728.254 2.50159 0.534237 0
M  V30 7715 H 727.898 4.9025 1.32729 0
M  V30 7716 H 727.828 4.32109 3.0098 0
M  V30 7717 H 730.319 3.31385 1.81638 0
M  V30 7718 H 730.632 7.0551 3.15398 0
M  V30 7719 H 728.977 6.342 2.84281 0
M  V30 7720 H 732.168 4.14465 2.17569 0
M  V30 7721 H 732.341 5.85059 2.78585 0
M  V30 7722 N 725.747 -0.868086 1.31537 0
M  V30 7723 C 727.158 -1.437 1.19195 0
M  V30 7724 C 727.509 -1.95169 -0.200842 0
M  V30 7725 O 726.634 -1.86432 -1.09872 0
M  V30 7726 C 727.229 -2.612 2.15778 0
M  V30 7727 C 725.788 -3.1413 2.07363 0
M  V30 7728 C 724.935 -1.86845 2.049 0
M  V30 7729 H 727.886 -0.676457 1.43561 0
M  V30 7730 H 727.907 -3.37948 1.74847 0
M  V30 7731 H 727.419 -2.23709 3.17137 0
M  V30 7732 H 725.52 -3.56238 1.09204 0
M  V30 7733 H 725.633 -3.76285 2.96557 0
M  V30 7734 H 723.997 -2.05886 1.49943 0
M  V30 7735 H 724.78 -1.51589 3.08019 0
M  V30 7736 N 727.225 -1.14528 -1.08264 0
M  V30 7737 C 728.474 -0.908992 -1.80056 0
M  V30 7738 C 728.787 0.565859 -1.87236 0
M  V30 7739 O 729.993 0.919454 -2.55457 0
M  V30 7740 C 728.449 -1.57681 -3.23519 0
M  V30 7741 C 728.057 -3.08803 -3.24569 0
M  V30 7742 C 729.801 -1.4217 -3.99985 0
M  V30 7743 C 727.708 -3.68414 -4.62629 0
M  V30 7744 H 726.638 -0.336432 -0.674781 0
M  V30 7745 H 729.289 -1.37437 -1.21587 0
M  V30 7746 H 727.671 -1.03911 -3.82124 0
M  V30 7747 H 728.845 -3.69252 -2.75663 0
M  V30 7748 H 727.16 -3.23968 -2.61598 0
M  V30 7749 H 729.757 -1.84106 -5.02005 0
M  V30 7750 H 730.1 -0.367989 -4.1467 0
M  V30 7751 H 730.633 -1.92984 -3.47853 0
M  V30 7752 H 727.372 -4.73644 -4.53147 0
M  V30 7753 H 726.892 -3.12746 -5.11811 0
M  V30 7754 H 728.571 -3.68793 -5.31602 0
M  V30 7755 N 728.703 1.26451 -0.940633 0
M  V30 7756 C 730.114 1.75726 -0.630653 0
M  V30 7757 C 730.465 1.76631 0.854167 0
M  V30 7758 O 729.59 1.37807 1.66848 0
M  V30 7759 C 730.185 3.19114 -1.13805 0
M  V30 7760 C 728.744 3.66005 -0.878497 0
M  V30 7761 C 727.891 2.45505 -1.28928 0
M  V30 7762 H 730.842 1.12535 -1.119 0
M  V30 7763 H 730.863 3.77311 -0.491625 0
M  V30 7764 H 730.375 3.18424 -2.21874 0
M  V30 7765 H 728.476 3.72126 0.187833 0
M  V30 7766 H 728.589 4.54844 -1.50512 0
M  V30 7767 H 726.953 2.4467 -0.707713 0
M  V30 7768 H 727.736 2.47516 -2.37888 0
M  V30 7769 N 730.181 0.707592 1.40822 0
M  V30 7770 C 731.406 0.251626 2.05868 0
M  V30 7771 C 731.831 -1.09503 1.5294 0
M  V30 7772 O 731.189 -1.68806 0.661385 0
M  V30 7773 C 731.237 0.23287 3.59847 0
M  V30 7774 O 730.341 -0.788477 4.04792 0
M  V30 7775 H 729.682 0.119936 0.653078 0
M  V30 7776 H 732.212 0.96583 1.80369 0
M  V30 7777 H 732.222 0.0678204 4.07944 0
M  V30 7778 H 730.897 1.21565 3.97737 0
M  V30 7779 H 729.474 -0.591802 3.68174 0
M  V30 7780 N 731.66 -1.50943 0.453197 0
M  V30 7781 C 732.61 -2.25003 -0.368467 0
M  V30 7782 C 733.594 -1.27864 -0.976714 0
M  V30 7783 O 734.786 -1.52867 -0.892228 0
M  V30 7784 C 731.915 -3.10701 -1.46014 0
M  V30 7785 C 731.001 -4.15278 -0.860506 0
M  V30 7786 N 731.392 -5.05799 0.00849611 0
M  V30 7787 C 729.69 -4.31542 -1.1264 0
M  V30 7788 C 730.391 -5.80664 0.346951 0
M  V30 7789 N 729.367 -5.42912 -0.273426 0
M  V30 7790 H 733.169 -2.92352 0.301246 0
M  V30 7791 H 730.683 -1.60203 0.266233 0
M  V30 7792 H 732.68 -3.62348 -2.06179 0
M  V30 7793 H 731.34 -2.44898 -2.13202 0
M  V30 7794 H 732.351 -5.16533 0.376077 0
M  V30 7795 H 729.028 -3.76962 -1.7946 0
M  V30 7796 H 730.418 -6.63565 1.05507 0
M  V30 7797 N 733.138 -0.185124 -1.56509 0
M  V30 7798 C 734.071 0.77877 -2.145 0
M  V30 7799 C 735.049 1.21649 -1.07891 0
M  V30 7800 O 736.233 1.30579 -1.35946 0
M  V30 7801 C 733.36 2.05048 -2.69579 0
M  V30 7802 C 732.406 1.75569 -3.88687 0
M  V30 7803 S 733.239 0.912642 -5.27666 0
M  V30 7804 C 734.395 2.19471 -5.8616 0
M  V30 7805 H 734.628 0.285751 -2.95924 0
M  V30 7806 H 732.161 0.0297417 -1.54371 0
M  V30 7807 H 734.119 2.78085 -3.01958 0
M  V30 7808 H 732.78 2.51462 -1.88216 0
M  V30 7809 H 731.973 2.69962 -4.25601 0
M  V30 7810 H 731.575 1.10619 -3.57267 0
M  V30 7811 H 733.867 3.14815 -5.99915 0
M  V30 7812 H 734.81 1.87005 -6.8296 0
M  V30 7813 H 735.218 2.31862 -5.14685 0
M  V30 7814 N 734.616 1.57351 0.0885366 0
M  V30 7815 C 736.027 1.75303 0.642308 0
M  V30 7816 C 736.378 0.808238 1.78779 0
M  V30 7817 O 735.503 -0.01171 2.16397 0
M  V30 7818 C 736.098 3.17885 1.17194 0
M  V30 7819 C 734.657 3.37239 1.67172 0
M  V30 7820 C 733.804 2.7108 0.584045 0
M  V30 7821 H 736.755 1.58103 -0.137567 0
M  V30 7822 H 736.776 3.2112 2.04114 0
M  V30 7823 H 736.288 3.86625 0.338024 0
M  V30 7824 H 734.389 2.73588 2.52943 0
M  V30 7825 H 734.502 4.45594 1.76019 0
M  V30 7826 H 732.866 2.33161 1.02508 0
M  V30 7827 H 733.649 3.42464 -0.239403 0
M  V30 7828 N 736.094 -0.359525 1.53444 0
M  V30 7829 C 737.319 -1.12644 1.74144 0
M  V30 7830 C 737.744 -1.82082 0.472007 0
M  V30 7831 O 737.102 -1.71962 -0.57436 0
M  V30 7832 C 737.15 -2.12781 2.9113 0
M  V30 7833 O 736.254 -3.19984 2.60162 0
M  V30 7834 H 735.595 -0.326553 0.578152 0
M  V30 7835 H 738.125 -0.414798 2.00351 0
M  V30 7836 H 738.135 -2.56278 3.17467 0
M  V30 7837 H 736.81 -1.61634 3.83207 0
M  V30 7838 H 735.387 -2.81417 2.44661 0
M  V30 7839 N 737.572 -1.44907 -0.619662 0
M  V30 7840 C 738.502 -1.55488 -1.742 0
M  V30 7841 C 739.483 -0.407143 -1.65156 0
M  V30 7842 O 740.668 -0.628743 -1.8374 0
M  V30 7843 C 737.798 -1.5097 -3.1277 0
M  V30 7844 C 736.752 -2.64337 -3.36615 0
M  V30 7845 C 736.078 -2.44872 -4.75333 0
M  V30 7846 C 737.378 -4.06423 -3.28051 0
M  V30 7847 H 739.072 -2.49432 -1.65602 0
M  V30 7848 H 736.618 -1.20047 -0.795281 0
M  V30 7849 H 738.571 -1.56971 -3.91073 0
M  V30 7850 H 737.295 -0.535486 -3.2218 0
M  V30 7851 H 735.954 -2.57744 -2.60698 0
M  V30 7852 H 735.602 -1.45617 -4.81461 0
M  V30 7853 H 735.302 -3.20888 -4.92244 0
M  V30 7854 H 736.826 -2.52709 -5.55851 0
M  V30 7855 H 738.24 -4.14324 -3.96243 0
M  V30 7856 H 736.637 -4.82733 -3.56495 0
M  V30 7857 H 737.707 -4.29183 -2.25676 0
M  V30 7858 N 739.05 0.861098 -1.31996 0
M  V30 7859 C 740 1.95703 -1.1698 0
M  V30 7860 C 740.984 1.60709 -0.0784201 0
M  V30 7861 O 742.176 1.74365 -0.304262 0
M  V30 7862 C 739.305 3.31606 -0.888388 0
M  V30 7863 C 738.391 3.7284 -2.02117 0
M  V30 7864 N 738.782 3.85957 -3.26911 0
M  V30 7865 C 737.08 4.02419 -1.92289 0
M  V30 7866 C 737.781 4.21333 -4.01065 0
M  V30 7867 N 736.757 4.32502 -3.29307 0
M  V30 7868 H 740.559 2.03968 -2.11599 0
M  V30 7869 H 738.073 1.05245 -1.23682 0
M  V30 7870 H 740.07 4.09881 -0.761782 0
M  V30 7871 H 738.73 3.24662 0.0494898 0
M  V30 7872 H 739.741 3.70449 -3.61923 0
M  V30 7873 H 736.418 4.03814 -1.06022 0
M  V30 7874 H 737.808 4.39005 -5.08649 0
M  V30 7875 N 740.528 1.15101 1.07655 0
M  V30 7876 C 741.476 0.840714 2.16875 0
M  V30 7877 C 742.47 -0.184594 1.68391 0
M  V30 7878 O 743.676 -0.0399315 1.79956 0
M  V30 7879 H 740.051 0.254192 0.707736 0
M  V30 7880 H 742.022 1.76959 2.40266 0
M  V30 7881 C 740.771 0.343018 3.46004 0
M  V30 7882 H 740.094 1.12335 3.83694 0
M  V30 7883 H 741.534 0.16453 4.23681 0
M  V30 7884 C 739.993 -0.934881 3.23669 0
M  V30 7885 O 740.523 -2.00706 3.47965 0
M  V30 7886 N 738.729 -0.873167 2.77172 0
M  V30 7887 H 738.276 -0.000479072 2.576 0
M  V30 7888 H 738.234 -1.72873 2.62607 0
M  V30 7889 N 742.006 -1.2595 0.947325 0
M  V30 7890 C 743.255 -1.92759 0.593887 0
M  V30 7891 C 743.568 -1.75083 -0.872093 0
M  V30 7892 O 744.774 -2.36401 -1.33518 0
M  V30 7893 C 743.23 -3.45395 1.01144 0
M  V30 7894 C 742.838 -3.71795 2.49946 0
M  V30 7895 C 744.582 -4.18173 0.730185 0
M  V30 7896 C 742.489 -5.17901 2.85539 0
M  V30 7897 H 741.419 -0.721676 0.218403 0
M  V30 7898 H 744.07 -1.4293 1.15079 0
M  V30 7899 H 742.452 -3.94143 0.383007 0
M  V30 7900 H 743.626 -3.33728 3.17746 0
M  V30 7901 H 741.941 -3.12263 2.75465 0
M  V30 7902 H 744.538 -5.25784 0.972367 0
M  V30 7903 H 744.881 -4.14964 -0.333223 0
M  V30 7904 H 745.414 -3.75309 1.31862 0
M  V30 7905 H 742.153 -5.26216 3.90867 0
M  V30 7906 H 741.673 -5.57042 2.22406 0
M  V30 7907 H 743.352 -5.8596 2.74336 0
M  V30 7908 N 743.484 -0.715051 -1.40445 0
M  V30 7909 C 744.895 -0.326763 -1.83818 0
M  V30 7910 C 745.246 1.13851 -1.59789 0
M  V30 7911 O 744.371 1.87611 -1.07848 0
M  V30 7912 C 744.966 -0.586297 -3.33688 0
M  V30 7913 C 743.525 -0.251724 -3.75557 0
M  V30 7914 C 742.672 -0.858928 -2.63662 0
M  V30 7915 H 745.623 -0.914241 -1.2972 0
M  V30 7916 H 745.644 0.148636 -3.8021 0
M  V30 7917 H 745.156 -1.65281 -3.51146 0
M  V30 7918 H 743.257 0.809754 -3.63695 0
M  V30 7919 H 743.37 -0.720348 -4.73654 0
M  V30 7920 H 741.734 -0.287013 -2.53078 0
M  V30 7921 H 742.517 -1.9297 -2.83932 0
M  V30 7922 N 744.962 1.50701 -0.461195 0
M  V30 7923 C 746.208 2.02566 0.0973411 0
M  V30 7924 C 746.541 1.3432 1.40257 0
M  V30 7925 O 745.816 0.465692 1.88843 0
M  V30 7926 C 746.099 3.58919 0.291423 0
M  V30 7927 C 745.952 4.37751 -1.03413 0
M  V30 7928 C 747.271 4.27379 1.05048 0
M  V30 7929 H 744.39 0.73622 0.0339026 0
M  V30 7930 H 747.032 1.80115 -0.604855 0
M  V30 7931 H 745.182 3.78179 0.889539 0
M  V30 7932 H 746.854 4.30085 -1.66806 0
M  V30 7933 H 745.097 4.01885 -1.63313 0
M  V30 7934 H 745.768 5.45384 -0.852085 0
M  V30 7935 H 748.244 4.12534 0.543603 0
M  V30 7936 H 747.12 5.36609 1.15506 0
M  V30 7937 H 747.381 3.89868 2.0846 0
M  V30 7938 N 746.441 0.193421 1.56409 0
M  V30 7939 C 747.852 -0.319471 1.83946 0
M  V30 7940 C 748.203 -1.61505 1.11403 0
M  V30 7941 O 747.328 -2.13139 0.374289 0
M  V30 7942 C 747.923 -0.586411 3.33686 0
M  V30 7943 C 746.482 -1.04368 3.61641 0
M  V30 7944 C 745.629 -0.0913834 2.77149 0
M  V30 7945 H 748.58 0.417242 1.53117 0
M  V30 7946 H 748.601 -1.43591 3.52366 0
M  V30 7947 H 748.113 0.356701 3.86457 0
M  V30 7948 H 746.214 -2.00113 3.14302 0
M  V30 7949 H 746.327 -0.937549 4.69837 0
M  V30 7950 H 744.691 -0.592954 2.47702 0
M  V30 7951 H 745.474 0.846142 3.32709 0
M  V30 7952 N 747.919 -1.57396 -0.0801906 0
M  V30 7953 C 748.829 -2.06451 -1.11423 0
M  V30 7954 C 749.845 -0.992352 -1.42928 0
M  V30 7955 O 751.021 -1.30651 -1.53272 0
M  V30 7956 C 748.086 -2.49164 -2.41077 0
M  V30 7957 C 747.147 -3.70641 -2.16619 0
M  V30 7958 C 746.38 -4.11307 -3.40092 0
M  V30 7959 O 746.603 -3.51922 -4.48895 0
M  V30 7960 O 745.537 -5.04157 -3.288 0
M  V30 7961 H 749.363 -2.94857 -0.727519 0
M  V30 7962 H 746.948 -1.46484 -0.293743 0
M  V30 7963 H 748.83 -2.77196 -3.17396 0
M  V30 7964 H 747.505 -1.6389 -2.79145 0
M  V30 7965 H 746.412 -3.47703 -1.38033 0
M  V30 7966 H 747.745 -4.5674 -1.83437 0
M  V30 7967 N 749.397 0.351382 -1.53633 0
M  V30 7968 C 750.625 1.11275 -1.74429 0
M  V30 7969 C 751.04 1.82602 -0.479798 0
M  V30 7970 O 750.397 1.74074 0.548125 0
M  V30 7971 C 750.448 2.13223 -2.91921 0
M  V30 7972 O 750.169 1.44798 -4.13479 0
M  V30 7973 C 751.67 3.01797 -3.24706 0
M  V30 7974 H 748.89 0.332153 -0.583023 0
M  V30 7975 H 751.434 0.405974 -2.0043 0
M  V30 7976 H 749.589 2.79477 -2.68274 0
M  V30 7977 H 750.003 2.12839 -4.79374 0
M  V30 7978 H 751.477 3.69282 -4.10286 0
M  V30 7979 H 751.954 3.67387 -2.40673 0
M  V30 7980 H 752.56 2.41141 -3.5033 0
M  V30 7981 N 750.875 1.45233 0.611969 0
M  V30 7982 C 751.823 1.53898 1.74408 0
M  V30 7983 C 752.817 0.409254 1.64382 0
M  V30 7984 O 754.023 0.584988 1.70229 0
M  V30 7985 H 750.398 0.483303 0.576127 0
M  V30 7986 H 752.369 2.49143 1.64227 0
M  V30 7987 C 751.118 1.51865 3.12782 0
M  V30 7988 H 750.441 2.38118 3.21154 0
M  V30 7989 H 751.881 1.61986 3.91838 0
M  V30 7990 C 750.34 0.242374 3.36027 0
M  V30 7991 O 750.87 -0.679587 3.9591 0
M  V30 7992 N 749.076 0.139448 2.90265 0
M  V30 7993 H 748.623 0.890571 2.41716 0
M  V30 7994 H 748.581 -0.713686 3.06193 0
M  V30 7995 N 752.353 -0.854086 1.3245 0
M  V30 7996 C 753.583 -1.63836 1.25862 0
M  V30 7997 C 753.991 -1.88383 -0.175588 0
M  V30 7998 O 753.334 -1.45353 -1.1233 0
M  V30 7999 C 753.396 -3.02068 1.94923 0
M  V30 8000 C 753.06 -3.0056 3.44257 0
M  V30 8001 C 754.057 -2.77368 4.39731 0
M  V30 8002 C 751.742 -3.21177 3.862 0
M  V30 8003 C 753.736 -2.74797 5.75122 0
M  V30 8004 C 751.423 -3.18234 5.217 0
M  V30 8005 C 752.421 -2.95072 6.15972 0
M  V30 8006 O 752.109 -2.92003 7.48992 0
M  V30 8007 H 751.841 -0.517007 0.435523 0
M  V30 8008 H 754.395 -1.07314 1.75137 0
M  V30 8009 H 752.625 -3.60382 1.40219 0
M  V30 8010 H 754.314 -3.62791 1.82037 0
M  V30 8011 H 755.08 -2.61205 4.08653 0
M  V30 8012 H 750.959 -3.38231 3.13243 0
M  V30 8013 H 754.503 -2.56638 6.48678 0
M  V30 8014 H 750.4 -3.33941 5.52407 0
M  V30 8015 H 751.168 -3.07953 7.58358 0
M  V30 8016 N 753.831 -1.1567 -1.07043 0
M  V30 8017 C 754.761 -0.879348 -2.16309 0
M  V30 8018 C 755.742 0.171311 -1.69235 0
M  V30 8019 O 756.927 0.0250175 -1.94184 0
M  V30 8020 C 754.057 -0.371307 -3.45309 0
M  V30 8021 C 753.011 -1.359 -4.05851 0
M  V30 8022 C 752.337 -0.709678 -5.29969 0
M  V30 8023 C 753.637 -2.72606 -4.45514 0
M  V30 8024 H 755.331 -1.79308 -2.39768 0
M  V30 8025 H 752.877 -0.863558 -1.15233 0
M  V30 8026 H 754.83 -0.164798 -4.21078 0
M  V30 8027 H 753.554 0.577906 -3.21446 0
M  V30 8028 H 752.213 -1.55193 -3.32131 0
M  V30 8029 H 751.861 0.245782 -5.02399 0
M  V30 8030 H 751.561 -1.36886 -5.71433 0
M  V30 8031 H 753.085 -0.513015 -6.08441 0
M  V30 8032 H 754.499 -2.57141 -5.12398 0
M  V30 8033 H 752.896 -3.34927 -4.97939 0
M  V30 8034 H 753.966 -3.28434 -3.56734 0
M  V30 8035 N 755.309 1.25446 -0.953992 0
M  V30 8036 C 756.557 1.92762 -0.607227 0
M  V30 8037 C 756.878 1.7509 0.858399 0
M  V30 8038 O 756.148 1.11416 1.61132 0
M  V30 8039 H 754.728 0.713377 -0.221591 0
M  V30 8040 H 757.39 1.52625 -1.21209 0
M  V30 8041 H 756.486 3.00695 -0.835998 0
M  V30 8042 N 756.787 0.722489 1.40064 0
M  V30 8043 C 757.735 0.063329 2.32514 0
M  V30 8044 C 758.729 -0.73953 1.52405 0
M  V30 8045 O 759.935 -0.642122 1.68157 0
M  V30 8046 H 756.31 0.00167692 0.751998 0
M  V30 8047 H 758.281 0.859656 2.85749 0
M  V30 8048 C 757.03 -0.839219 3.3742 0
M  V30 8049 H 756.353 -0.230836 3.99133 0
M  V30 8050 H 757.793 -1.26827 4.04587 0
M  V30 8051 C 756.252 -1.96783 2.73456 0
M  V30 8052 O 756.782 -3.05933 2.60323 0
M  V30 8053 N 754.988 -1.75351 2.31734 0
M  V30 8054 H 754.535 -0.865787 2.42615 0
M  V30 8055 H 754.493 -2.51043 1.89275 0
M  V30 8056 N 758.265 -1.50454 0.469181 0
M  V30 8057 C 759.493 -2.06729 -0.0842134 0
M  V30 8058 C 759.908 -1.33326 -1.33677 0
M  V30 8059 O 759.265 -0.401977 -1.78018 0
M  V30 8060 C 759.316 -3.59557 -0.374253 0
M  V30 8061 O 759.037 -4.30192 0.828622 0
M  V30 8062 C 760.538 -4.32449 -0.974824 0
M  V30 8063 H 757.758 -0.670971 0.006231 0
M  V30 8064 H 760.302 -1.93645 0.657415 0
M  V30 8065 H 758.457 -3.7245 -1.06581 0
M  V30 8066 H 758.871 -5.21371 0.572066 0
M  V30 8067 H 760.345 -5.40361 -1.12755 0
M  V30 8068 H 760.822 -3.92819 -1.96442 0
M  V30 8069 H 761.428 -4.24082 -0.321703 0
M  V30 8070 N 759.743 -0.201713 -1.56304 0
M  V30 8071 C 761.154 0.309711 -1.84113 0
M  V30 8072 C 761.505 1.60912 -1.12258 0
M  V30 8073 O 760.63 2.12937 -0.385587 0
M  V30 8074 C 761.225 0.568706 -3.33993 0
M  V30 8075 C 759.784 1.02448 -3.6219 0
M  V30 8076 C 758.931 0.0766842 -2.77194 0
M  V30 8077 H 761.882 -0.425356 -1.52893 0
M  V30 8078 H 761.903 1.41721 -3.53122 0
M  V30 8079 H 761.415 -0.37719 -3.86263 0
M  V30 8080 H 759.516 1.98443 -3.15359 0
M  V30 8081 H 759.629 0.912619 -4.70328 0
M  V30 8082 H 757.993 0.579809 -2.48013 0
M  V30 8083 H 758.776 -0.863774 -3.32256 0
M  V30 8084 N 761.222 1.57436 0.0718424 0
M  V30 8085 C 762.45 1.91474 0.783932 0
M  V30 8086 C 762.865 0.797669 1.71122 0
M  V30 8087 O 762.222 -0.228989 1.81058 0
M  V30 8088 C 762.273 3.25259 1.57761 0
M  V30 8089 O 761.994 4.3267 0.687596 0
M  V30 8090 C 763.495 3.7331 2.3907 0
M  V30 8091 H 760.715 0.632901 0.222885 0
M  V30 8092 H 763.259 2.04457 0.0421262 0
M  V30 8093 H 761.414 3.13804 2.27169 0
M  V30 8094 H 761.828 5.09641 1.23962 0
M  V30 8095 H 763.302 4.69551 2.90216 0
M  V30 8096 H 763.779 3.02318 3.18591 0
M  V30 8097 H 764.385 3.8771 1.74818 0
M  V30 8098 N 762.7 -0.34323 1.53817 0
M  V30 8099 C 763.633 -1.44472 1.76644 0
M  V30 8100 C 764.611 -1.50498 0.615556 0
M  V30 8101 O 765.795 -1.6821 0.850751 0
M  V30 8102 C 762.922 -2.82705 1.86536 0
M  V30 8103 C 761.968 -2.94302 3.08688 0
M  V30 8104 S 762.801 -2.60739 4.67735 0
M  V30 8105 C 763.957 -4.01079 4.80506 0
M  V30 8106 H 764.19 -1.24893 2.69794 0
M  V30 8107 H 761.723 -0.538915 1.4469 0
M  V30 8108 H 763.681 -3.62342 1.92921 0
M  V30 8109 H 762.342 -2.9958 0.943975 0
M  V30 8110 H 761.535 -3.95593 3.12286 0
M  V30 8111 H 761.137 -2.22614 3.00531 0
M  V30 8112 H 763.429 -4.95603 4.61935 0
M  V30 8113 H 764.372 -4.02475 5.82597 0
M  V30 8114 H 764.78 -3.89119 4.08958 0
M  V30 8115 N 764.178 -1.45556 -0.604258 0
M  V30 8116 C 765.589 -1.44171 -1.18624 0
M  V30 8117 C 765.94 -0.171081 -1.95453 0
M  V30 8118 O 765.065 0.727156 -2.03817 0
M  V30 8119 C 765.66 -2.61193 -2.15786 0
M  V30 8120 C 764.219 -2.62918 -2.69353 0
M  V30 8121 C 763.366 -2.36479 -1.4482 0
M  V30 8122 H 766.317 -1.53747 -0.393381 0
M  V30 8123 H 766.338 -2.35481 -2.98879 0
M  V30 8124 H 765.85 -3.53656 -1.59841 0
M  V30 8125 H 763.951 -1.7447 -3.29228 0
M  V30 8126 H 764.064 -3.6224 -3.13559 0
M  V30 8127 H 762.428 -1.86103 -1.73891 0
M  V30 8128 H 763.211 -3.31091 -0.907376 0
M  V30 8129 N 765.656 0.84705 -1.32902 0
M  V30 8130 C 766.903 1.60176 -1.23894 0
M  V30 8131 C 767.231 1.93496 0.197341 0
M  V30 8132 O 766.486 1.58173 1.15238 0
M  V30 8133 C 766.785 2.92663 -2.05142 0
M  V30 8134 C 766.451 2.7874 -3.54422 0
M  V30 8135 C 765.113 2.7465 -3.95121 0
M  V30 8136 C 767.465 2.64128 -4.49317 0
M  V30 8137 C 764.793 2.53837 -5.28946 0
M  V30 8138 C 767.145 2.44849 -5.83294 0
M  V30 8139 C 765.809 2.39156 -6.23186 0
M  V30 8140 H 765.079 0.586127 -0.453361 0
M  V30 8141 H 767.726 0.981994 -1.64405 0
M  V30 8142 H 766.031 3.588 -1.57383 0
M  V30 8143 H 767.728 3.50095 -1.95537 0
M  V30 8144 H 764.318 2.82751 -3.22102 0
M  V30 8145 H 768.502 2.66327 -4.18788 0
M  V30 8146 H 763.758 2.4787 -5.58901 0
M  V30 8147 H 767.932 2.32524 -6.56434 0
M  V30 8148 H 765.559 2.22789 -7.26821 0
M  V30 8149 N 767.134 1.16236 1.06428 0
M  V30 8150 C 768.359 0.967688 1.83441 0
M  V30 8151 C 768.784 -0.479167 1.81894 0
M  V30 8152 O 768.142 -1.34224 1.21875 0
M  V30 8153 C 768.19 1.49806 3.2801 0
M  V30 8154 O 767.294 0.703481 4.06356 0
M  V30 8155 H 766.635 0.344468 0.56766 0
M  V30 8156 H 769.165 1.54442 1.34197 0
M  V30 8157 H 769.175 1.51495 3.78831 0
M  V30 8158 H 767.85 2.55133 3.2845 0
M  V30 8159 H 766.427 0.756986 3.65136 0
M  V30 8160 N 768.612 -1.24939 0.960631 0
M  V30 8161 C 769.837 -1.9742 0.635608 0
M  V30 8162 C 770.262 -1.70857 -0.786737 0
M  V30 8163 O 769.62 -0.968063 -1.53291 0
M  V30 8164 C 769.668 -3.48987 0.907771 0
M  V30 8165 O 768.772 -4.12399 -0.0104053 0
M  V30 8166 H 768.113 -0.61871 0.241027 0
M  V30 8167 H 770.643 -1.58901 1.28886 0
M  V30 8168 H 770.653 -3.99334 0.836453 0
M  V30 8169 H 769.328 -3.6765 1.94439 0
M  V30 8170 H 767.905 -3.72727 0.113631 0
M  V30 8171 N 770.09 -0.729906 -1.39679 0
M  V30 8172 C 771.02 -0.101618 -2.33279 0
M  V30 8173 C 772.001 0.729854 -1.53646 0
M  V30 8174 O 773.186 0.67587 -1.82059 0
M  V30 8175 C 770.316 0.81024 -3.37716 0
M  V30 8176 C 769.27 0.0833126 -4.27919 0
M  V30 8177 C 768.596 1.11185 -5.23012 0
M  V30 8178 C 769.896 -1.07107 -5.112 0
M  V30 8179 H 771.59 -0.883452 -2.86069 0
M  V30 8180 H 769.136 -0.426283 -1.37546 0
M  V30 8181 H 771.089 1.25927 -4.02145 0
M  V30 8182 H 769.813 1.62413 -2.83354 0
M  V30 8183 H 768.472 -0.346043 -3.64963 0
M  V30 8184 H 768.12 1.91917 -4.64948 0
M  V30 8185 H 767.82 0.63026 -5.8421 0
M  V30 8186 H 769.344 1.56068 -5.90318 0
M  V30 8187 H 770.758 -0.700726 -5.69002 0
M  V30 8188 H 769.155 -1.48196 -5.81514 0
M  V30 8189 H 770.225 -1.89513 -4.46332 0
M  V30 8190 N 771.568 1.50203 -0.477153 0
M  V30 8191 C 772.979 1.86685 -0.0235041 0
M  V30 8192 C 773.33 1.39148 1.38319 0
M  V30 8193 O 772.455 0.759051 2.02651 0
M  V30 8194 C 773.05 3.38781 -0.0358767 0
M  V30 8195 C 771.609 3.74652 0.362327 0
M  V30 8196 C 770.756 2.7412 -0.41875 0
M  V30 8197 H 773.707 1.4286 -0.691133 0
M  V30 8198 H 773.728 3.72732 0.764924 0
M  V30 8199 H 773.24 3.73349 -1.05981 0
M  V30 8200 H 771.341 3.45686 1.39039 0
M  V30 8201 H 771.454 4.79063 0.059457 0
M  V30 8202 H 769.818 2.54376 0.128341 0
M  V30 8203 H 770.601 3.11532 -1.44231 0
M  V30 8204 N 773.046 0.209999 1.56195 0
M  V30 8205 C 774.457 -0.299943 1.84275 0
M  V30 8206 C 774.808 -1.60314 1.1311 0
M  V30 8207 O 773.933 -2.1273 0.396874 0
M  V30 8208 C 774.528 -0.550986 3.3429 0
M  V30 8209 C 773.087 -1.00526 3.62728 0
M  V30 8210 C 772.234 -0.0619828 2.77231 0
M  V30 8211 H 775.185 0.433458 1.52666 0
M  V30 8212 H 775.206 -1.39846 3.53869 0
M  V30 8213 H 774.718 0.397669 3.86057 0
M  V30 8214 H 772.819 -1.96768 3.16407 0
M  V30 8215 H 772.932 -0.887664 4.70805 0
M  V30 8216 H 771.296 -0.566648 2.48317 0
M  V30 8217 H 772.079 0.881383 3.31793 0
M  V30 8218 N 774.524 -1.57472 -0.0634922 0
M  V30 8219 C 775.752 -1.91887 -0.773767 0
M  V30 8220 C 776.167 -0.806733 -1.70696 0
M  V30 8221 O 775.524 0.219383 -1.81177 0
M  V30 8222 C 775.575 -3.26092 -1.56034 0
M  V30 8223 O 775.296 -4.33029 -0.66464 0
M  V30 8224 C 776.797 -3.74573 -2.37087 0
M  V30 8225 H 774.017 -0.634074 -0.219525 0
M  V30 8226 H 776.561 -2.04476 -0.0312828 0
M  V30 8227 H 774.716 -3.15004 -2.25502 0
M  V30 8228 H 775.13 -5.10291 -1.21258 0
M  V30 8229 H 776.604 -4.71084 -2.87722 0
M  V30 8230 H 777.081 -3.04003 -3.16984 0
M  V30 8231 H 777.687 -3.88631 -1.72759 0
M  V30 8232 N 776.003 0.335068 -1.53997 0
M  V30 8233 C 777.28 1.09188 -1.62288 0
M  V30 8234 C 777.66 2.0626 -0.449458 0
M  V30 8235 O 777.008 2.21596 0.557444 0
M  V30 8236 C 777.218 1.80403 -2.98757 0
M  V30 8237 C 778.566 2.33841 -3.54406 0
M  V30 8238 O 779.59 1.90487 -3.00987 0
M  V30 8239 O 778.449 3.1318 -4.47862 0
M  V30 8240 H 775.543 0.502621 -0.656736 0
M  V30 8241 H 778.089 0.33588 -1.66343 0
M  V30 8242 H 776.861 1.09732 -3.75599 0
M  V30 8243 H 776.484 2.62841 -2.9833 0
M  V30 8244 N 777.481 1.45874 0.596531 0
M  V30 8245 C 778.391 1.57947 1.73464 0
M  V30 8246 C 779.407 0.463461 1.67714 0
M  V30 8247 O 780.583 0.725685 1.87872 0
M  V30 8248 C 777.648 1.55348 3.09948 0
M  V30 8249 C 776.709 2.78074 3.27068 0
M  V30 8250 C 775.942 2.75589 4.57041 0
M  V30 8251 O 776.165 1.83545 5.40063 0
M  V30 8252 O 775.099 3.66945 4.77111 0
M  V30 8253 H 778.925 2.54169 1.66228 0
M  V30 8254 H 776.51 1.2851 0.76194 0
M  V30 8255 H 778.392 1.56545 3.91244 0
M  V30 8256 H 777.067 0.622811 3.17652 0
M  V30 8257 H 775.974 2.82435 2.45319 0
M  V30 8258 H 777.307 3.70303 3.24248 0
M  V30 8259 N 778.959 -0.83999 1.33349 0
M  V30 8260 C 780.184 -1.63249 1.27924 0
M  V30 8261 C 780.609 -1.87523 -0.147193 0
M  V30 8262 O 779.967 -1.43853 -1.10345 0
M  V30 8263 C 780.015 -2.96046 2.05886 0
M  V30 8264 O 779.119 -3.87303 1.4167 0
M  V30 8265 H 778.46 -0.49715 0.440157 0
M  V30 8266 H 780.99 -1.04512 1.75893 0
M  V30 8267 H 781 -3.45752 2.16609 0
M  V30 8268 H 779.675 -2.77701 3.09605 0
M  V30 8269 H 778.252 -3.45789 1.39585 0
M  V30 8270 N 780.437 -1.16799 -1.0581 0
M  V30 8271 C 781.686 -0.94698 -1.78088 0
M  V30 8272 C 781.999 0.526016 -1.88394 0
M  V30 8273 O 783.205 0.865061 -2.5735 0
M  V30 8274 C 781.661 -1.64508 -3.20102 0
M  V30 8275 C 781.269 -3.15618 -3.17946 0
M  V30 8276 C 783.013 -1.50622 -3.96879 0
M  V30 8277 C 780.92 -3.78144 -4.5471 0
M  V30 8278 H 779.85 -0.35067 -0.667493 0
M  V30 8279 H 782.501 -1.39985 -1.18645 0
M  V30 8280 H 780.883 -1.11993 -3.79834 0
M  V30 8281 H 782.057 -3.75016 -2.67768 0
M  V30 8282 H 780.372 -3.29444 -2.54667 0
M  V30 8283 H 782.969 -1.94713 -4.97987 0
M  V30 8284 H 783.312 -0.455864 -4.13797 0
M  V30 8285 H 783.845 -2.00319 -3.43682 0
M  V30 8286 H 780.584 -4.83149 -4.42998 0
M  V30 8287 H 780.104 -3.23532 -5.05062 0
M  V30 8288 H 781.783 -3.79986 -5.2366 0
M  V30 8289 N 781.915 1.24427 -0.967243 0
M  V30 8290 C 782.862 2.25398 -0.496419 0
M  V30 8291 C 783.832 1.59667 0.457781 0
M  V30 8292 O 785.017 1.87213 0.368246 0
M  V30 8293 C 782.157 3.44474 0.207693 0
M  V30 8294 C 781.27 4.24804 -0.785221 0
M  V30 8295 C 780.405 5.31169 -0.0572631 0
M  V30 8296 C 779.444 6.03195 -1.04027 0
M  V30 8297 N 778.581 7.01265 -0.34235 0
M  V30 8298 H 783.421 2.65039 -1.36229 0
M  V30 8299 H 780.958 1.30288 -0.682902 0
M  V30 8300 H 782.916 4.12376 0.632612 0
M  V30 8301 H 781.546 3.05672 1.03752 0
M  V30 8302 H 780.598 3.56445 -1.32858 0
M  V30 8303 H 781.91 4.74599 -1.53483 0
M  V30 8304 H 781.064 6.05205 0.425674 0
M  V30 8305 H 779.803 4.8228 0.725047 0
M  V30 8306 H 778.808 5.27964 -1.53409 0
M  V30 8307 H 780.033 6.54173 -1.82302 0
M  V30 8308 H 777.979 6.54648 0.420993 0
M  V30 8309 H 777.896 7.48939 -1.03084 0
M  V30 8310 H 779.164 7.7941 0.118634 0
M  V30 8311 N 783.393 0.737304 1.3929 0
M  V30 8312 C 784.623 0.296143 2.04467 0
M  V30 8313 C 785.031 -1.0748 1.55707 0
M  V30 8314 O 784.374 -1.69082 0.718123 0
M  V30 8315 C 784.436 0.222161 3.58813 0
M  V30 8316 C 784.1 1.53195 4.30558 0
M  V30 8317 C 785.097 2.47809 4.57041 0
M  V30 8318 C 782.782 1.79688 4.6906 0
M  V30 8319 C 784.776 3.67147 5.21039 0
M  V30 8320 C 782.463 2.99304 5.32785 0
M  V30 8321 C 783.461 3.92855 5.58708 0
M  V30 8322 O 783.149 5.1037 6.2111 0
M  V30 8323 H 782.881 0.126896 0.663983 0
M  V30 8324 H 785.435 1.00242 1.79278 0
M  V30 8325 H 783.665 -0.540239 3.82908 0
M  V30 8326 H 785.354 -0.187311 4.05468 0
M  V30 8327 H 786.12 2.28611 4.2774 0
M  V30 8328 H 781.999 1.07716 4.48239 0
M  V30 8329 H 785.543 4.40183 5.41188 0
M  V30 8330 H 781.44 3.18401 5.61508 0
M  V30 8331 H 782.208 5.10735 6.39603 0
M  V30 8332 N 784.871 -1.49948 0.485112 0
M  V30 8333 C 786.099 -2.06806 -0.0622824 0
M  V30 8334 C 786.514 -1.34736 -1.32256 0
M  V30 8335 O 785.871 -0.420836 -1.77582 0
M  V30 8336 C 785.922 -3.59934 -0.336096 0
M  V30 8337 O 785.643 -4.29289 0.874203 0
M  V30 8338 C 787.144 -4.33459 -0.928903 0
M  V30 8339 H 784.364 -0.670867 0.0133472 0
M  V30 8340 H 786.908 -1.92937 0.677917 0
M  V30 8341 H 785.063 -3.7356 -1.02625 0
M  V30 8342 H 785.477 -5.20735 0.627332 0
M  V30 8343 H 786.951 -5.41527 -1.07017 0
M  V30 8344 H 787.428 -3.94881 -1.92265 0
M  V30 8345 H 788.034 -4.24399 -0.276705 0
M  V30 8346 N 786.349 -0.21828 -1.56081 0
M  V30 8347 C 787.598 0.414644 -1.97392 0
M  V30 8348 C 787.911 1.61132 -1.10887 0
M  V30 8349 O 789.117 2.31355 -1.42082 0
M  V30 8350 C 787.573 0.789099 -3.51143 0
M  V30 8351 C 787.181 -0.384578 -4.46346 0
M  V30 8352 C 788.925 1.38781 -4.01173 0
M  V30 8353 C 786.832 0.0121288 -5.91399 0
M  V30 8354 H 785.762 0.158691 -0.737111 0
M  V30 8355 H 788.413 -0.313974 -1.80794 0
M  V30 8356 H 786.795 1.57505 -3.6333 0
M  V30 8357 H 787.969 -1.16212 -4.45905 0
M  V30 8358 H 786.284 -0.896306 -4.06639 0
M  V30 8359 H 788.881 1.69746 -5.07041 0
M  V30 8360 H 789.224 2.30245 -3.46833 0
M  V30 8361 H 789.757 0.665364 -3.92196 0
M  V30 8362 H 786.496 -0.868917 -6.49715 0
M  V30 8363 H 786.016 0.754053 -5.95041 0
M  V30 8364 H 787.695 0.439949 -6.45502 0
M  V30 8365 N 787.827 1.57504 0.0551401 0
M  V30 8366 C 789.057 1.92015 0.762472 0
M  V30 8367 C 789.465 0.814088 1.7079 0
M  V30 8368 O 788.808 -0.220273 1.82375 0
M  V30 8369 C 788.87 3.22132 1.59598 0
M  V30 8370 C 788.534 4.49617 0.818141 0
M  V30 8371 C 789.531 5.19738 0.129933 0
M  V30 8372 C 787.216 4.96201 0.780387 0
M  V30 8373 C 789.21 6.34704 -0.585616 0
M  V30 8374 C 786.897 6.11069 0.0610756 0
M  V30 8375 C 787.895 6.80174 -0.62071 0
M  V30 8376 O 787.583 7.92849 -1.3284 0
M  V30 8377 H 787.315 0.638866 0.220967 0
M  V30 8378 H 789.869 2.05385 0.0246362 0
M  V30 8379 H 788.099 3.05016 2.37701 0
M  V30 8380 H 789.788 3.42166 2.18351 0
M  V30 8381 H 790.554 4.84767 0.150299 0
M  V30 8382 H 786.433 4.42275 1.30054 0
M  V30 8383 H 789.977 6.88578 -1.11833 0
M  V30 8384 H 785.874 6.45488 0.0386945 0
M  V30 8385 H 786.642 8.09062 -1.23938 0
M  V30 8386 N 789.305 -0.326896 1.54172 0
M  V30 8387 C 790.253 -1.42232 1.84046 0
M  V30 8388 C 791.247 -1.53705 0.712115 0
M  V30 8389 O 792.453 -1.56131 0.895724 0
M  V30 8390 H 788.828 -0.474568 0.583343 0
M  V30 8391 H 790.799 -1.14259 2.75658 0
M  V30 8392 C 789.548 -2.78502 2.08163 0
M  V30 8393 H 788.871 -2.70447 2.94446 0
M  V30 8394 H 790.311 -3.54228 2.33021 0
M  V30 8395 C 788.77 -3.25415 0.872152 0
M  V30 8396 O 789.3 -4.01621 0.0797648 0
M  V30 8397 N 787.506 -2.82418 0.684716 0
M  V30 8398 H 787.053 -2.20566 1.33072 0
M  V30 8399 H 787.011 -3.14159 -0.123031 0
M  V30 8400 N 790.784 -1.46188 -0.588786 0
M  V30 8401 C 792.009 -1.5498 -1.37826 0
M  V30 8402 C 792.434 -0.189498 -1.87143 0
M  V30 8403 O 791.792 0.829293 -1.61222 0
M  V30 8404 C 791.84 -2.55369 -2.54596 0
M  V30 8405 O 790.944 -2.08452 -3.55839 0
M  V30 8406 H 790.285 -0.521741 -0.41071 0
M  V30 8407 H 792.815 -1.91708 -0.714779 0
M  V30 8408 H 792.825 -2.74782 -3.01594 0
M  V30 8409 H 791.5 -3.54155 -2.18052 0
M  V30 8410 H 790.077 -1.98999 -3.15363 0
M  V30 8411 N 792.262 0.832906 -1.33792 0
M  V30 8412 C 793.49 1.62048 -1.28639 0
M  V30 8413 C 793.905 1.88269 0.141522 0
M  V30 8414 O 793.262 1.46706 1.08553 0
M  V30 8415 C 793.313 2.96722 -2.0649 0
M  V30 8416 O 793.034 2.7165 -3.43712 0
M  V30 8417 C 794.535 3.91144 -2.08617 0
M  V30 8418 H 791.755 0.504032 -0.442937 0
M  V30 8419 H 794.299 1.03704 -1.76255 0
M  V30 8420 H 792.454 3.51652 -1.62541 0
M  V30 8421 H 792.868 3.57453 -3.83833 0
M  V30 8422 H 794.342 4.82837 -2.67531 0
M  V30 8423 H 794.819 4.25766 -1.07796 0
M  V30 8424 H 795.425 3.42152 -2.52611 0
M  V30 8425 N 793.74 1.17359 1.05189 0
M  V30 8426 C 794.988 0.960087 1.77839 0
M  V30 8427 C 795.309 -0.512554 1.88143 0
M  V30 8428 O 794.579 -1.3721 1.39822 0
M  V30 8429 H 793.159 0.352234 0.658741 0
M  V30 8430 H 795.821 1.47834 1.27008 0
M  V30 8431 H 794.917 1.38843 2.79516 0
M  V30 8432 N 795.218 -1.23913 0.973828 0
M  V30 8433 C 796.467 -1.91455 0.63464 0
M  V30 8434 C 796.78 -1.76893 -0.834759 0
M  V30 8435 O 797.986 -2.3918 -1.28473 0
M  V30 8436 C 796.442 -3.43172 1.08447 0
M  V30 8437 C 796.05 -3.66409 2.57776 0
M  V30 8438 C 797.794 -4.1653 0.818721 0
M  V30 8439 C 795.701 -5.11728 2.9646 0
M  V30 8440 H 794.631 -0.716881 0.233661 0
M  V30 8441 H 797.282 -1.40457 1.18085 0
M  V30 8442 H 795.664 -3.93242 0.466524 0
M  V30 8443 H 796.838 -3.26913 3.24753 0
M  V30 8444 H 795.153 -3.06349 2.82027 0
M  V30 8445 H 797.75 -5.23603 1.08367 0
M  V30 8446 H 798.093 -4.15578 -0.245128 0
M  V30 8447 H 798.626 -3.72428 1.39793 0
M  V30 8448 H 795.365 -5.17806 4.01941 0
M  V30 8449 H 794.885 -5.52199 2.34172 0
M  V30 8450 H 796.564 -5.80009 2.86703 0
M  V30 8451 N 796.696 -0.74468 -1.38897 0
M  V30 8452 C 797.628 -0.0713608 -2.29089 0
M  V30 8453 C 798.641 0.693224 -1.47303 0
M  V30 8454 O 799.83 0.535785 -1.70269 0
M  V30 8455 C 796.93 0.923078 -3.26087 0
M  V30 8456 C 796.103 0.217998 -4.36856 0
M  V30 8457 C 795.162 1.12192 -5.14101 0
M  V30 8458 O 794.188 0.595771 -5.66073 0
M  V30 8459 N 795.39 2.45082 -5.26227 0
M  V30 8460 H 798.155 -0.845906 -2.87514 0
M  V30 8461 H 795.716 -0.594712 -1.50581 0
M  V30 8462 H 797.708 1.53061 -3.74639 0
M  V30 8463 H 796.278 1.59876 -2.68623 0
M  V30 8464 H 795.498 -0.570134 -3.90055 0
M  V30 8465 H 796.786 -0.270248 -5.08082 0
M  V30 8466 H 796.184 2.90294 -4.85537 0
M  V30 8467 H 794.741 3.00907 -5.78185 0
M  V30 8468 N 798.174 1.49689 -0.493057 0
M  V30 8469 C 799.423 2.01622 0.0560733 0
M  V30 8470 C 799.736 1.37838 1.3878 0
M  V30 8471 O 800.942 1.81054 2.02316 0
M  V30 8472 C 799.398 3.59586 0.150409 0
M  V30 8473 C 799.006 4.32338 -1.1742 0
M  V30 8474 C 800.75 4.19489 0.650327 0
M  V30 8475 C 798.657 5.8214 -1.04246 0
M  V30 8476 H 797.587 0.753594 0.0247297 0
M  V30 8477 H 800.238 1.723 -0.631279 0
M  V30 8478 H 798.62 3.8559 0.902035 0
M  V30 8479 H 799.794 4.18042 -1.9385 0
M  V30 8480 H 798.109 3.84144 -1.60694 0
M  V30 8481 H 800.706 5.29181 0.766272 0
M  V30 8482 H 801.049 3.82326 1.6472 0
M  V30 8483 H 801.582 3.97775 -0.0445371 0
M  V30 8484 H 798.321 6.23814 -2.01336 0
M  V30 8485 H 797.841 5.98952 -0.31892 0
M  V30 8486 H 799.52 6.43004 -0.717957 0
M  V30 8487 N 799.652 0.226554 1.55963 0
M  V30 8488 C 800.9 -0.402991 1.98041 0
M  V30 8489 C 801.221 -1.59938 1.11557 0
M  V30 8490 O 800.491 -1.9494 0.193719 0
M  V30 8491 H 799.071 -0.15188 0.731397 0
M  V30 8492 H 801.733 0.320613 1.92245 0
M  V30 8493 H 800.829 -0.725937 3.0354 0
M  V30 8494 N 801.13 -1.57531 -0.0467866 0
M  V30 8495 C 802.093 -2.04379 -1.03738 0
M  V30 8496 C 803.093 -0.944881 -1.3011 0
M  V30 8497 O 804.283 -1.20904 -1.25411 0
M  V30 8498 C 801.415 -2.44572 -2.37482 0
M  V30 8499 H 802.608 -2.93142 -0.633063 0
M  V30 8500 H 800.161 -1.53526 -0.293177 0
M  V30 8501 H 800.896 -1.58911 -2.82697 0
M  V30 8502 H 800.681 -3.24785 -2.19675 0
M  V30 8503 H 802.171 -2.81307 -3.08636 0
M  V30 8504 N 802.608 0.318715 -1.54344 0
M  V30 8505 C 803.838 1.07394 -1.76494 0
M  V30 8506 C 804.246 1.82031 -0.515881 0
M  V30 8507 O 803.589 1.7609 0.52325 0
M  V30 8508 C 803.651 2.11401 -2.90775 0
M  V30 8509 C 803.315 1.56118 -4.29507 0
M  V30 8510 C 804.312 1.00043 -5.10184 0
M  V30 8511 C 801.997 1.60215 -4.76063 0
M  V30 8512 C 803.991 0.487993 -6.35529 0
M  V30 8513 C 801.678 1.08584 -6.01376 0
M  V30 8514 C 802.676 0.529714 -6.80943 0
M  V30 8515 O 802.364 0.0211823 -8.03897 0
M  V30 8516 H 802.096 0.325061 -0.592715 0
M  V30 8517 H 804.65 0.36901 -2.02058 0
M  V30 8518 H 802.88 2.85524 -2.60793 0
M  V30 8519 H 804.569 2.72683 -3.00664 0
M  V30 8520 H 805.335 0.961811 -4.75367 0
M  V30 8521 H 801.214 2.02441 -4.14172 0
M  V30 8522 H 804.758 0.0532608 -6.9758 0
M  V30 8523 H 800.655 1.12155 -6.35682 0
M  V30 8524 H 801.423 0.136151 -8.18387 0
M  V30 8525 N 804.086 1.46499 0.581025 0
M  V30 8526 C 805.034 1.57562 1.71105 0
M  V30 8527 C 806.028 0.44403 1.63477 0
M  V30 8528 O 807.234 0.620964 1.6895 0
M  V30 8529 H 803.609 0.495415 0.565746 0
M  V30 8530 H 805.58 2.5257 1.58905 0
M  V30 8531 C 804.329 1.58465 3.0949 0
M  V30 8532 H 803.652 2.44877 3.16031 0
M  V30 8533 H 805.092 1.70261 3.88313 0
M  V30 8534 C 803.551 0.313596 3.35437 0
M  V30 8535 O 804.081 -0.595456 3.97262 0
M  V30 8536 N 802.287 0.200986 2.89904 0
M  V30 8537 H 801.834 0.941643 2.39773 0
M  V30 8538 H 801.792 -0.648577 3.07638 0
M  V30 8539 N 805.565 -0.825799 1.34232 0
M  V30 8540 C 806.795 -1.61129 1.29309 0
M  V30 8541 C 807.203 -1.88714 -0.135589 0
M  V30 8542 O 806.546 -1.47703 -1.09222 0
M  V30 8543 C 806.608 -2.97866 2.01287 0
M  V30 8544 C 806.272 -2.9319 3.50555 0
M  V30 8545 C 807.269 -2.67978 4.45515 0
M  V30 8546 C 804.954 -3.12913 3.92926 0
M  V30 8547 C 806.948 -2.62536 5.80822 0
M  V30 8548 C 804.635 -3.07096 5.28333 0
M  V30 8549 C 805.633 -2.8194 6.22092 0
M  V30 8550 O 805.321 -2.7605 7.55018 0
M  V30 8551 H 805.053 -0.507652 0.446391 0
M  V30 8552 H 807.607 -1.03575 1.77374 0
M  V30 8553 H 805.837 -3.57327 1.47832 0
M  V30 8554 H 807.526 -3.58848 1.89691 0
M  V30 8555 H 808.292 -2.52478 4.14101 0
M  V30 8556 H 804.171 -3.3151 3.20347 0
M  V30 8557 H 807.715 -2.42821 6.53975 0
M  V30 8558 H 803.612 -3.22148 5.59367 0
M  V30 8559 H 804.38 -2.91798 7.6472 0
M  V30 8560 N 807.043 -1.17915 -1.04565 0
M  V30 8561 C 807.976 -0.845021 -2.11978 0
M  V30 8562 C 808.954 0.19089 -1.61476 0
M  V30 8563 O 810.138 0.0709905 -1.88366 0
M  V30 8564 C 807.265 -0.261657 -3.37688 0
M  V30 8565 C 806.311 -1.27396 -4.07029 0
M  V30 8566 S 807.144 -2.82783 -4.54746 0
M  V30 8567 C 808.3 -2.25944 -5.83695 0
M  V30 8568 H 808.533 -1.75472 -2.39993 0
M  V30 8569 H 806.066 -1.00447 -1.17259 0
M  V30 8570 H 808.024 0.0684257 -4.10443 0
M  V30 8571 H 806.685 0.626082 -3.07797 0
M  V30 8572 H 805.878 -0.814557 -4.97374 0
M  V30 8573 H 805.48 -1.55002 -3.40368 0
M  V30 8574 H 807.772 -1.63892 -6.57378 0
M  V30 8575 H 808.715 -3.14569 -6.34391 0
M  V30 8576 H 809.123 -1.69155 -5.3856 0
M  V30 8577 N 808.521 1.23394 -0.980386 0
M  V30 8578 C 809.431 2.28561 -0.528864 0
M  V30 8579 C 810.447 1.68946 0.416329 0
M  V30 8580 O 811.623 1.99355 0.286251 0
M  V30 8581 C 808.688 3.46323 0.16155 0
M  V30 8582 C 807.749 4.21297 -0.825044 0
M  V30 8583 C 806.982 5.33437 -0.167483 0
M  V30 8584 O 807.205 5.60812 1.04146 0
M  V30 8585 O 806.139 5.95637 -0.866047 0
M  V30 8586 H 809.965 2.69326 -1.40346 0
M  V30 8587 H 807.55 1.29325 -0.748019 0
M  V30 8588 H 809.432 4.17811 0.548841 0
M  V30 8589 H 808.107 3.0751 1.01092 0
M  V30 8590 H 807.014 3.52134 -1.26303 0
M  V30 8591 H 808.347 4.6396 -1.64322 0
M  V30 8592 N 809.999 0.752036 1.385 0
M  V30 8593 C 811.248 0.304294 1.99391 0
M  V30 8594 C 811.561 -1.11982 1.60373 0
M  V30 8595 O 812.767 -1.66795 2.14223 0
M  V30 8596 C 811.223 0.493101 3.56506 0
M  V30 8597 C 810.831 1.9262 4.04477 0
M  V30 8598 C 812.575 0.107994 4.24363 0
M  V30 8599 C 810.482 2.06365 5.54227 0
M  V30 8600 H 809.412 0.110024 0.745929 0
M  V30 8601 H 812.063 0.928355 1.58284 0
M  V30 8602 H 810.445 -0.20012 3.95494 0
M  V30 8603 H 811.619 2.65276 3.76783 0
M  V30 8604 H 809.934 2.26608 3.49339 0
M  V30 8605 H 812.531 0.189474 5.34364 0
M  V30 8606 H 812.874 -0.939165 4.05568 0
M  V30 8607 H 813.407 0.753011 3.90608 0
M  V30 8608 H 810.146 3.0933 5.77923 0
M  V30 8609 H 809.666 1.38167 5.83669 0
M  V30 8610 H 811.345 1.85286 6.19902 0
M  V30 8611 N 811.477 -1.49425 0.500989 0
M  V30 8612 C 812.725 -2.02053 -0.0434495 0
M  V30 8613 C 813.046 -1.38285 -1.37486 0
M  V30 8614 O 812.316 -0.538171 -1.88363 0
M  V30 8615 H 810.896 -0.746757 -0.0190469 0
M  V30 8616 H 813.558 -1.83449 0.658227 0
M  V30 8617 H 812.654 -3.11619 -0.173129 0
M  V30 8618 N 812.955 -0.234822 -1.55841 0
M  V30 8619 C 814.203 0.392483 -1.98252 0
M  V30 8620 C 814.524 1.59344 -1.12404 0
M  V30 8621 O 813.794 1.94834 -0.204055 0
M  V30 8622 H 812.374 0.147999 -0.732192 0
M  V30 8623 H 815.036 -0.330804 -1.92072 0
M  V30 8624 H 814.132 0.709829 -3.03921 0
M  V30 8625 N 814.433 1.57553 0.0384317 0
M  V30 8626 C 815.661 1.93093 0.743141 0
M  V30 8627 C 816.076 0.833787 1.69391 0
M  V30 8628 O 815.433 -0.190532 1.81503 0
M  V30 8629 C 815.484 3.28533 1.50826 0
M  V30 8630 O 815.205 4.34032 0.595665 0
M  V30 8631 C 816.706 3.78297 2.31098 0
M  V30 8632 H 813.926 0.637486 0.20941 0
M  V30 8633 H 816.47 2.045 -0.00125154 0
M  V30 8634 H 814.625 3.18552 2.20462 0
M  V30 8635 H 815.039 5.12155 1.13124 0
M  V30 8636 H 816.513 4.75602 2.80191 0
M  V30 8637 H 816.99 3.09008 3.12107 0
M  V30 8638 H 817.596 3.91331 1.66555 0
M  V30 8639 N 815.911 -0.310526 1.54511 0
M  V30 8640 C 817.136 -1.07046 1.7764 0
M  V30 8641 C 817.561 -1.80488 0.529696 0
M  V30 8642 O 816.919 -1.73702 -0.519361 0
M  V30 8643 C 816.967 -2.03411 2.97752 0
M  V30 8644 O 816.071 -3.11545 2.7021 0
M  V30 8645 H 815.412 -0.307994 0.588248 0
M  V30 8646 H 817.942 -0.350848 2.01569 0
M  V30 8647 H 817.952 -2.46048 3.2546 0
M  V30 8648 H 816.627 -1.49361 3.88155 0
M  V30 8649 H 815.204 -2.7349 2.53491 0
M  V30 8650 N 817.389 -1.46805 -0.573248 0
M  V30 8651 C 818.614 -1.56433 -1.36175 0
M  V30 8652 C 819.039 -0.209336 -1.86932 0
M  V30 8653 O 818.397 0.812146 -1.62092 0
M  V30 8654 C 818.445 -2.58055 -2.51873 0
M  V30 8655 O 817.549 -2.12214 -3.53609 0
M  V30 8656 H 816.89 -0.526068 -0.405153 0
M  V30 8657 H 819.42 -1.92456 -0.694405 0
M  V30 8658 H 819.43 -2.77966 -2.98662 0
M  V30 8659 H 818.105 -3.56448 -2.14284 0
M  V30 8660 H 816.682 -2.02333 -3.13234 0
M  V30 8661 N 818.867 0.818669 -1.34668 0
M  V30 8662 C 820.092 1.61193 -1.30505 0
M  V30 8663 C 820.517 1.87734 0.117341 0
M  V30 8664 O 819.875 1.45591 1.08042 0
M  V30 8665 C 819.923 2.92733 -2.1057 0
M  V30 8666 O 819.027 3.85 -1.47813 0
M  V30 8667 H 818.368 0.490085 -0.44801 0
M  V30 8668 H 820.898 1.01701 -1.77534 0
M  V30 8669 H 820.908 3.42262 -2.22082 0
M  V30 8670 H 819.583 2.7274 -3.13984 0
M  V30 8671 H 818.16 3.43525 -1.45069 0
M  V30 8672 N 820.346 1.18468 1.03938 0
M  V30 8673 C 821.276 0.936389 2.13902 0
M  V30 8674 C 822.257 -0.126381 1.6963 0
M  V30 8675 O 823.442 0.0264757 1.94182 0
M  V30 8676 C 820.572 0.462729 3.44204 0
M  V30 8677 C 819.526 1.46613 4.02105 0
M  V30 8678 C 818.852 0.84994 5.27902 0
M  V30 8679 C 820.152 2.84323 4.3813 0
M  V30 8680 H 821.846 1.85602 2.3493 0
M  V30 8681 H 819.392 0.893806 1.12903 0
M  V30 8682 H 821.345 0.276382 4.20493 0
M  V30 8683 H 820.069 -0.492477 3.22866 0
M  V30 8684 H 818.728 1.63944 3.27899 0
M  V30 8685 H 818.376 -0.112493 5.02874 0
M  V30 8686 H 818.076 1.51988 5.67603 0
M  V30 8687 H 819.6 0.674152 6.06867 0
M  V30 8688 H 821.014 2.70636 5.054 0
M  V30 8689 H 819.411 3.48012 4.88884 0
M  V30 8690 H 820.481 3.37776 3.47901 0
M  V30 8691 N 821.824 -1.22873 0.986916 0
M  V30 8692 C 822.754 -2.2688 0.552064 0
M  V30 8693 C 823.735 -1.64883 -0.418048 0
M  V30 8694 O 824.92 -1.9171 -0.30999 0
M  V30 8695 C 822.05 -3.47018 -0.139959 0
M  V30 8696 C 821.004 -4.21411 0.748091 0
M  V30 8697 C 820.33 -5.34645 -0.0765132 0
M  V30 8698 C 821.63 -4.80726 2.04206 0
M  V30 8699 H 823.324 -2.63507 1.42143 0
M  V30 8700 H 820.87 -1.26668 0.68492 0
M  V30 8701 H 822.823 -4.18931 -0.455527 0
M  V30 8702 H 821.547 -3.0947 -1.04382 0
M  V30 8703 H 820.206 -3.51325 1.04721 0
M  V30 8704 H 819.854 -4.93339 -0.981109 0
M  V30 8705 H 819.554 -5.85342 0.514606 0
M  V30 8706 H 821.078 -6.09377 -0.386313 0
M  V30 8707 H 822.492 -5.44612 1.79083 0
M  V30 8708 H 820.889 -5.41737 2.5815 0
M  V30 8709 H 821.959 -4.01109 2.72469 0
M  V30 8710 N 823.302 -0.75937 -1.38099 0
M  V30 8711 C 824.579 -0.243371 -1.9408 0
M  V30 8712 C 824.959 1.25942 -1.69416 0
M  V30 8713 O 824.307 2.03667 -1.03595 0
M  V30 8714 C 824.517 -0.603328 -3.43745 0
M  V30 8715 C 825.865 -0.566195 -4.20808 0
M  V30 8716 O 826.889 -0.541969 -3.52053 0
M  V30 8717 O 825.748 -0.582261 -5.43389 0
M  V30 8718 H 822.842 -0.0526825 -0.82532 0
M  V30 8719 H 825.388 -0.839884 -1.47459 0
M  V30 8720 H 824.16 -1.64098 -3.55229 0
M  V30 8721 H 823.783 0.0208887 -3.97595 0
M  V30 8722 N 824.78 1.49157 -0.508906 0
M  V30 8723 C 826.005 2.07376 0.0315182 0
M  V30 8724 C 826.43 1.36575 1.2934 0
M  V30 8725 O 825.788 0.424963 1.76249 0
M  V30 8726 C 825.836 3.59661 0.260118 0
M  V30 8727 O 824.94 3.90255 1.33322 0
M  V30 8728 H 824.281 0.663334 -0.029739 0
M  V30 8729 H 826.811 1.91857 -0.710791 0
M  V30 8730 H 826.821 4.05056 0.489225 0
M  V30 8731 H 825.496 4.10601 -0.661794 0
M  V30 8732 H 824.073 3.56661 1.08844 0
M  V30 8733 N 826.258 0.243083 1.55714 0
M  V30 8734 C 827.486 -0.386971 2.03249 0
M  V30 8735 C 827.901 -1.51812 1.12243 0
M  V30 8736 O 827.258 -1.81992 0.136119 0
M  V30 8737 C 827.309 -0.898361 3.5016 0
M  V30 8738 O 827.03 0.187708 4.37698 0
M  V30 8739 C 828.531 -1.59949 4.13438 0
M  V30 8740 H 825.751 -0.0923981 0.664608 0
M  V30 8741 H 828.295 0.365832 2.01201 0
M  V30 8742 H 826.45 -1.60136 3.52754 0
M  V30 8743 H 826.864 -0.200001 5.24119 0
M  V30 8744 H 828.338 -1.90907 5.17937 0
M  V30 8745 H 828.815 -2.52014 3.59702 0
M  V30 8746 H 829.421 -0.941163 4.14756 0
M  V30 8747 N 827.736 -1.57571 -0.0300757 0
M  V30 8748 C 828.684 -2.0758 -1.04944 0
M  V30 8749 C 829.678 -0.989384 -1.37505 0
M  V30 8750 O 830.884 -1.17427 -1.36422 0
M  V30 8751 H 827.259 -0.662419 -0.355956 0
M  V30 8752 H 829.23 -2.92268 -0.601848 0
M  V30 8753 C 827.979 -2.5698 -2.34215 0
M  V30 8754 H 827.302 -3.40193 -2.10021 0
M  V30 8755 H 828.742 -2.95682 -3.03888 0
M  V30 8756 C 827.201 -1.47059 -3.03109 0
M  V30 8757 O 827.731 -0.83625 -3.92899 0
M  V30 8758 N 825.937 -1.20538 -2.64422 0
M  V30 8759 H 825.484 -1.72305 -1.9149 0
M  V30 8760 H 825.442 -0.472045 -3.10836 0
M  V30 8761 N 829.214 0.302327 -1.54673 0
M  V30 8762 C 830.442 1.05669 -1.77881 0
M  V30 8763 C 830.857 1.80983 -0.537648 0
M  V30 8764 O 830.214 1.7573 0.492467 0
M  V30 8765 C 830.265 2.03828 -2.98557 0
M  V30 8766 O 829.986 1.3157 -4.17877 0
M  V30 8767 C 831.487 2.91314 -3.34143 0
M  V30 8768 H 828.707 0.313436 -0.593295 0
M  V30 8769 H 831.251 0.342003 -2.0162 0
M  V30 8770 H 829.406 2.70801 -2.7703 0
M  V30 8771 H 829.82 1.97481 -4.85903 0
M  V30 8772 H 831.294 3.56042 -4.21827 0
M  V30 8773 H 831.771 3.59544 -2.52239 0
M  V30 8774 H 832.377 2.29874 -3.57824 0
M  V30 8775 N 830.692 1.47107 0.565454 0
M  V30 8776 C 831.64 1.59368 1.69424 0
M  V30 8777 C 832.634 0.461344 1.62997 0
M  V30 8778 O 833.84 0.638849 1.68282 0
M  V30 8779 H 830.215 0.501387 0.560459 0
M  V30 8780 H 832.186 2.54242 1.56217 0
M  V30 8781 C 830.935 1.61739 3.07792 0
M  V30 8782 H 830.258 2.48215 3.13416 0
M  V30 8783 H 831.698 1.7437 3.86486 0
M  V30 8784 C 830.157 0.349156 3.35086 0
M  V30 8785 O 830.687 -0.553287 3.97871 0
M  V30 8786 N 828.893 0.231723 2.89675 0
M  V30 8787 H 828.44 0.967021 2.3876 0
M  V30 8788 H 828.398 -0.615911 3.08308 0
M  V30 8789 N 832.17 -0.811516 1.35101 0
M  V30 8790 C 833.417 -1.56835 1.28098 0
M  V30 8791 C 833.745 -1.93951 -0.14597 0
M  V30 8792 O 833 -1.61173 -1.11004 0
M  V30 8793 C 833.299 -2.87121 2.1283 0
M  V30 8794 C 832.965 -2.69245 3.61688 0
M  V30 8795 C 831.627 -2.64078 4.02264 0
M  V30 8796 C 833.979 -2.52122 4.56162 0
M  V30 8797 C 831.307 -2.39724 5.3549 0
M  V30 8798 C 833.659 -2.29298 5.89581 0
M  V30 8799 C 832.323 -2.2255 6.29307 0
M  V30 8800 H 831.593 -0.5739 0.468742 0
M  V30 8801 H 834.24 -0.93806 1.66951 0
M  V30 8802 H 832.545 -3.54502 1.66841 0
M  V30 8803 H 834.242 -3.44788 2.0475 0
M  V30 8804 H 830.832 -2.74112 3.29485 0
M  V30 8805 H 835.016 -2.5513 4.25702 0
M  V30 8806 H 830.272 -2.32965 5.65276 0
M  V30 8807 H 834.446 -2.15038 6.62368 0
M  V30 8808 H 832.073 -2.0344 7.32473 0
M  V30 8809 N 833.648 -1.19017 -1.03309 0
M  V30 8810 C 834.595 -0.924088 -2.11493 0
M  V30 8811 C 835.565 0.139464 -1.65513 0
M  V30 8812 O 836.75 -0.00178761 -1.908 0
M  V30 8813 C 833.89 -0.464255 -3.41963 0
M  V30 8814 C 833.003 -1.5941 -4.01513 0
M  V30 8815 C 832.138 -1.08622 -5.19976 0
M  V30 8816 C 831.177 -2.19024 -5.71572 0
M  V30 8817 N 830.314 -1.69575 -6.81314 0
M  V30 8818 H 835.154 -1.85039 -2.33591 0
M  V30 8819 H 832.691 -0.922593 -1.14572 0
M  V30 8820 H 834.649 -0.179078 -4.16815 0
M  V30 8821 H 833.279 0.425062 -3.19989 0
M  V30 8822 H 832.331 -1.99458 -3.23915 0
M  V30 8823 H 833.643 -2.42604 -4.35826 0
M  V30 8824 H 832.797 -0.756022 -6.01971 0
M  V30 8825 H 831.536 -0.223955 -4.87186 0
M  V30 8826 H 830.541 -2.5288 -4.88193 0
M  V30 8827 H 831.766 -3.05699 -6.06403 0
M  V30 8828 H 829.712 -0.856494 -6.50385 0
M  V30 8829 H 829.629 -2.46361 -7.14732 0
M  V30 8830 H 830.897 -1.39505 -7.66915 0
M  V30 8831 N 835.127 1.22348 -0.993418 0
M  V30 8832 C 836.037 2.27987 -0.553076 0
M  V30 8833 C 837.053 1.69378 0.398386 0
M  V30 8834 O 838.229 1.99648 0.26509 0
M  V30 8835 C 835.294 3.46475 0.124809 0
M  V30 8836 C 834.355 4.20399 -0.869682 0
M  V30 8837 C 833.588 5.33229 -0.224052 0
M  V30 8838 O 833.811 5.61885 0.981915 0
M  V30 8839 O 832.745 5.94685 -0.929174 0
M  V30 8840 H 836.571 2.67822 -1.43195 0
M  V30 8841 H 834.156 1.28525 -0.761694 0
M  V30 8842 H 836.038 4.18369 0.504496 0
M  V30 8843 H 834.713 3.08565 0.978243 0
M  V30 8844 H 833.62 3.50774 -1.30031 0
M  V30 8845 H 834.953 4.62191 -1.69233 0
M  V30 8846 N 836.605 0.766683 1.37694 0
M  V30 8847 C 837.515 0.150158 2.34119 0
M  V30 8848 C 838.531 -0.685513 1.59927 0
M  V30 8849 O 839.707 -0.606616 1.92047 0
M  V30 8850 C 836.772 -0.722562 3.39087 0
M  V30 8851 C 835.833 0.128983 4.29106 0
M  V30 8852 C 835.066 -0.702178 5.29061 0
M  V30 8853 O 835.289 -1.93954 5.36412 0
M  V30 8854 O 834.223 -0.114056 6.01792 0
M  V30 8855 H 838.049 0.946829 2.88563 0
M  V30 8856 H 835.634 0.527765 1.39768 0
M  V30 8857 H 837.516 -1.22095 4.03325 0
M  V30 8858 H 836.191 -1.49751 2.86978 0
M  V30 8859 H 835.098 0.673612 3.67985 0
M  V30 8860 H 836.431 0.866892 4.84506 0
M  V30 8861 N 838.083 -1.48885 0.516809 0
M  V30 8862 C 839.494 -1.86557 0.0729921 0
M  V30 8863 C 839.845 -1.42767 -1.34581 0
M  V30 8864 O 838.97 -0.812514 -2.00567 0
M  V30 8865 C 839.565 -3.38567 0.125686 0
M  V30 8866 C 838.124 -3.75481 -0.262867 0
M  V30 8867 C 837.271 -2.72913 0.491281 0
M  V30 8868 H 840.222 -1.40978 0.728767 0
M  V30 8869 H 840.243 -3.74629 -0.665831 0
M  V30 8870 H 839.755 -3.70408 1.15842 0
M  V30 8871 H 837.856 -3.49251 -1.29824 0
M  V30 8872 H 837.969 -4.79052 0.067579 0
M  V30 8873 H 836.333 -2.54627 -0.0608525 0
M  V30 8874 H 837.116 -3.07599 1.5244 0
M  V30 8875 N 839.561 -0.251338 -1.55583 0
M  V30 8876 C 840.524 0.63305 -2.20284 0
M  V30 8877 C 841.524 1.09941 -1.17344 0
M  V30 8878 O 842.714 1.00341 -1.42399 0
M  V30 8879 C 839.846 1.8706 -2.84993 0
M  V30 8880 H 841.039 0.0684846 -2.99822 0
M  V30 8881 H 838.592 -0.00181653 -1.563 0
M  V30 8882 H 839.327 2.47629 -2.09405 0
M  V30 8883 H 839.112 1.54436 -3.60405 0
M  V30 8884 H 840.602 2.50004 -3.34496 0
M  V30 8885 N 841.039 1.57585 0.0217189 0
M  V30 8886 C 842.002 2.06004 1.00474 0
M  V30 8887 C 843.002 0.965461 1.2859 0
M  V30 8888 O 844.192 1.22884 1.23471 0
M  V30 8889 C 841.324 2.48319 2.33561 0
M  V30 8890 H 842.517 2.94112 0.586346 0
M  V30 8891 H 840.07 1.53973 0.268716 0
M  V30 8892 H 840.805 1.63389 2.80133 0
M  V30 8893 H 840.59 3.28239 2.1448 0
M  V30 8894 H 842.08 2.86181 3.04122 0
M  V30 8895 N 842.517 -0.29412 1.54831 0
M  V30 8896 C 843.464 -1.36296 1.86258 0
M  V30 8897 C 844.434 -1.50061 0.712097 0
M  V30 8898 O 845.619 -1.64809 0.961381 0
M  V30 8899 C 842.759 -2.72187 2.12151 0
M  V30 8900 C 841.872 -2.66816 3.39755 0
M  V30 8901 C 841.007 -3.94747 3.55455 0
M  V30 8902 C 840.046 -3.838 4.76827 0
M  V30 8903 N 839.183 -5.03521 4.89296 0
M  V30 8904 H 844.023 -1.08796 2.7743 0
M  V30 8905 H 841.56 -0.526069 1.37371 0
M  V30 8906 H 843.518 -3.51225 2.25159 0
M  V30 8907 H 842.148 -2.97934 1.24237 0
M  V30 8908 H 841.2 -1.79605 3.3533 0
M  V30 8909 H 842.512 -2.5462 4.28917 0
M  V30 8910 H 841.666 -4.82223 3.68166 0
M  V30 8911 H 840.405 -4.09785 2.64438 0
M  V30 8912 H 839.41 -2.94708 4.64141 0
M  V30 8913 H 840.635 -3.70301 5.69258 0
M  V30 8914 H 838.581 -5.1901 4.01204 0
M  V30 8915 H 838.498 -4.93775 5.72471 0
M  V30 8916 H 839.766 -5.92629 5.06371 0
M  V30 8917 N 843.995 -1.47404 -0.557645 0
M  V30 8918 C 845.225 -1.57393 -1.33832 0
M  V30 8919 C 845.633 -0.222978 -1.87881 0
M  V30 8920 O 844.976 0.793854 -1.65661 0
M  V30 8921 C 845.038 -2.53882 -2.54528 0
M  V30 8922 C 844.702 -3.99585 -2.21767 0
M  V30 8923 C 845.699 -4.88082 -1.79087 0
M  V30 8924 C 843.384 -4.44917 -2.3314 0
M  V30 8925 C 845.378 -6.1993 -1.48209 0
M  V30 8926 C 843.065 -5.76793 -2.01874 0
M  V30 8927 C 844.063 -6.64121 -1.59476 0
M  V30 8928 O 843.751 -7.93546 -1.28607 0
M  V30 8929 H 843.483 -0.534172 -0.41429 0
M  V30 8930 H 846.037 -1.93733 -0.682404 0
M  V30 8931 H 844.267 -2.12609 -3.23009 0
M  V30 8932 H 845.956 -2.54003 -3.16603 0
M  V30 8933 H 846.722 -4.54307 -1.69794 0
M  V30 8934 H 842.601 -3.77152 -2.65099 0
M  V30 8935 H 846.145 -6.88049 -1.15043 0
M  V30 8936 H 842.042 -6.1011 -2.10799 0
M  V30 8937 H 842.81 -8.06046 -1.42241 0
M  V30 8938 N 845.473 0.80434 -1.35529 0
M  V30 8939 C 846.405 1.92445 -1.2449 0
M  V30 8940 C 847.418 1.61934 -0.167685 0
M  V30 8941 O 848.607 1.73461 -0.42115 0
M  V30 8942 C 845.707 3.26875 -0.894751 0
M  V30 8943 C 844.88 3.85275 -2.07079 0
M  V30 8944 C 843.939 4.98116 -1.69607 0
M  V30 8945 O 842.965 5.15424 -2.41509 0
M  V30 8946 N 844.167 5.77169 -0.621012 0
M  V30 8947 H 846.932 2.02441 -2.20993 0
M  V30 8948 H 844.493 0.981874 -1.28728 0
M  V30 8949 H 846.485 3.99837 -0.625511 0
M  V30 8950 H 845.055 3.12594 -0.0193306 0
M  V30 8951 H 844.275 3.0448 -2.5037 0
M  V30 8952 H 845.563 4.21024 -2.85685 0
M  V30 8953 H 844.961 5.65695 -0.0236679 0
M  V30 8954 H 843.518 6.50499 -0.411558 0
M  V30 8955 N 846.951 1.19563 1.02676 0
M  V30 8956 C 847.914 0.937182 2.09164 0
M  V30 8957 C 848.914 -0.0831927 1.60585 0
M  V30 8958 O 850.104 0.15178 1.73538 0
M  V30 8959 C 847.236 0.408912 3.38439 0
M  V30 8960 H 848.429 1.88164 2.33526 0
M  V30 8961 H 845.982 1.00959 1.19319 0
M  V30 8962 H 846.717 -0.541497 3.19747 0
M  V30 8963 H 846.502 1.14464 3.7502 0
M  V30 8964 H 847.992 0.247242 4.16867 0
M  V30 8965 N 848.429 -1.21819 0.999893 0
M  V30 8966 C 849.678 -1.90066 0.675108 0
M  V30 8967 C 849.991 -1.78624 -0.79705 0
M  V30 8968 O 851.197 -2.41851 -1.23371 0
M  V30 8969 C 849.653 -3.40795 1.15702 0
M  V30 8970 C 849.261 -3.60859 2.6549 0
M  V30 8971 C 851.005 -4.147 0.906889 0
M  V30 8972 C 848.912 -5.05324 3.07248 0
M  V30 8973 H 847.842 -0.711763 0.248815 0
M  V30 8974 H 850.493 -1.3792 1.21038 0
M  V30 8975 H 848.875 -3.92164 0.549832 0
M  V30 8976 H 850.049 -3.19951 3.31614 0
M  V30 8977 H 848.364 -3.00298 2.88461 0
M  V30 8978 H 850.961 -5.21187 1.1945 0
M  V30 8979 H 851.304 -4.16004 -0.156923 0
M  V30 8980 H 851.837 -3.69379 1.47662 0
M  V30 8981 H 848.576 -5.09164 4.12834 0
M  V30 8982 H 848.096 -5.47108 2.45832 0
M  V30 8983 H 849.775 -5.73797 2.98941 0
M  V30 8984 N 849.908 -0.773975 -1.37286 0
M  V30 8985 C 851.155 -0.339306 -1.99637 0
M  V30 8986 C 851.483 1.08478 -1.61439 0
M  V30 8987 O 850.738 1.7612 -0.853252 0
M  V30 8988 C 851.037 -0.432651 -3.54772 0
M  V30 8989 C 850.703 -1.81531 -4.12744 0
M  V30 8990 C 849.365 -2.19366 -4.2829 0
M  V30 8991 C 851.717 -2.72137 -4.44512 0
M  V30 8992 C 849.045 -3.47239 -4.72908 0
M  V30 8993 C 851.397 -3.99421 -4.90556 0
M  V30 8994 C 850.061 -4.37298 -5.04308 0
M  V30 8995 H 849.331 -0.124161 -0.730524 0
M  V30 8996 H 851.978 -0.988432 -1.64019 0
M  V30 8997 H 850.283 0.30001 -3.9065 0
M  V30 8998 H 851.98 -0.0776 -4.00925 0
M  V30 8999 H 848.57 -1.51126 -4.01072 0
M  V30 9000 H 852.754 -2.44165 -4.32084 0
M  V30 9001 H 848.01 -3.76477 -4.81742 0
M  V30 9002 H 852.184 -4.69756 -5.14104 0
M  V30 9003 H 849.811 -5.36442 -5.38641 0
M  V30 9004 N 851.386 1.48609 -0.524698 0
M  V30 9005 C 852.663 1.95454 0.075465 0
M  V30 9006 C 853.043 1.46682 1.51814 0
M  V30 9007 O 852.391 0.690975 2.17802 0
M  V30 9008 C 852.601 3.48981 -0.0363273 0
M  V30 9009 C 853.949 4.24414 0.125624 0
M  V30 9010 O 854.973 3.5618 0.0377239 0
M  V30 9011 O 853.832 5.45625 0.309104 0
M  V30 9012 H 850.926 0.822902 0.0822256 0
M  V30 9013 H 853.472 1.59153 -0.588921 0
M  V30 9014 H 852.244 3.77185 -1.04149 0
M  V30 9015 H 851.867 3.91963 0.667146 0
M  V30 9016 N 852.864 0.259585 1.55447 0
M  V30 9017 C 853.812 -0.6507 2.23313 0
M  V30 9018 C 854.806 -1.17014 1.22491 0
M  V30 9019 O 856.012 -1.12557 1.40467 0
M  V30 9020 H 852.387 -0.228354 0.71649 0
M  V30 9021 H 854.358 -0.0553039 2.98349 0
M  V30 9022 C 853.107 -1.83081 2.95596 0
M  V30 9023 H 852.43 -1.44027 3.72956 0
M  V30 9024 H 853.87 -2.44469 3.46426 0
M  V30 9025 C 852.329 -2.70976 2.00184 0
M  V30 9026 O 852.859 -3.70882 1.54304 0
M  V30 9027 N 851.065 -2.37813 1.67014 0
M  V30 9028 H 850.612 -1.5662 2.04519 0
M  V30 9029 H 850.57 -2.96896 1.03443 0
M  V30 9030 N 854.342 -1.57594 -0.0133615 0
M  V30 9031 C 855.57 -1.94251 -0.712328 0
M  V30 9032 C 855.985 -0.86063 -1.68043 0
M  V30 9033 O 855.342 0.161632 -1.81783 0
M  V30 9034 C 855.393 -3.30891 -1.45581 0
M  V30 9035 O 855.114 -4.34924 -0.526539 0
M  V30 9036 C 856.615 -3.81926 -2.2505 0
M  V30 9037 H 853.835 -0.640737 -0.199241 0
M  V30 9038 H 856.379 -2.04472 0.0337855 0
M  V30 9039 H 854.534 -3.22019 -2.15366 0
M  V30 9040 H 854.948 -5.1389 -1.04962 0
M  V30 9041 H 856.422 -4.79999 -2.72589 0
M  V30 9042 H 856.899 -3.13934 -3.07152 0
M  V30 9043 H 857.505 -3.93931 -1.60308 0
M  V30 9044 N 855.82 0.285905 -1.54985 0
M  V30 9045 C 857.048 1.03776 -1.78992 0
M  V30 9046 C 857.463 1.80402 -0.556814 0
M  V30 9047 O 856.82 1.76242 0.473801 0
M  V30 9048 C 856.871 2.0065 -3.00702 0
M  V30 9049 O 856.592 1.27131 -4.19249 0
M  V30 9050 C 858.093 2.87753 -3.37214 0
M  V30 9051 H 855.313 0.307126 -0.596586 0
M  V30 9052 H 857.857 0.3206 -2.01971 0
M  V30 9053 H 856.012 2.67847 -2.79887 0
M  V30 9054 H 856.426 1.92316 -4.8797 0
M  V30 9055 H 857.9 3.51548 -4.2558 0
M  V30 9056 H 858.377 3.56848 -2.56039 0
M  V30 9057 H 858.983 2.26065 -3.60242 0
M  V30 9058 N 857.298 1.47698 0.54982 0
M  V30 9059 C 858.523 1.58579 1.33669 0
M  V30 9060 C 858.948 0.239049 1.86575 0
M  V30 9061 O 858.306 -0.786256 1.63364 0
M  V30 9062 C 858.354 2.62029 2.47736 0
M  V30 9063 O 857.458 2.17813 3.50188 0
M  V30 9064 H 856.799 0.532447 0.396732 0
M  V30 9065 H 859.329 1.93536 0.6637 0
M  V30 9066 H 859.339 2.82682 2.94202 0
M  V30 9067 H 858.014 3.59812 2.08586 0
M  V30 9068 H 856.591 2.07291 3.09976 0
M  V30 9069 N 858.776 -0.797141 1.35954 0
M  V30 9070 C 859.706 -1.92387 1.32323 0
M  V30 9071 C 860.687 -1.68967 0.196007 0
M  V30 9072 O 861.872 -1.90193 0.39245 0
M  V30 9073 C 859.002 -3.29286 1.10398 0
M  V30 9074 C 857.956 -3.67212 2.19862 0
M  V30 9075 C 857.282 -5.02377 1.8309 0
M  V30 9076 C 858.582 -3.76602 3.61896 0
M  V30 9077 H 860.276 -1.95683 2.26602 0
M  V30 9078 H 857.822 -0.94007 1.09081 0
M  V30 9079 H 859.775 -4.07721 1.06495 0
M  V30 9080 H 858.499 -3.26358 0.125668 0
M  V30 9081 H 857.158 -2.91069 2.22878 0
M  V30 9082 H 856.806 -4.95961 0.838527 0
M  V30 9083 H 856.506 -5.28722 2.56372 0
M  V30 9084 H 858.03 -5.8324 1.80729 0
M  V30 9085 H 859.444 -4.45246 3.6115 0
M  V30 9086 H 857.841 -4.14425 4.34018 0
M  V30 9087 H 858.911 -2.77906 3.97361 0
M  V30 9088 N 860.254 -1.20106 -1.0204 0
M  V30 9089 C 861.482 -1.0344 -1.79186 0
M  V30 9090 C 861.897 0.416542 -1.84148 0
M  V30 9091 O 861.254 1.28925 -1.29168 0
M  V30 9092 C 861.305 -1.60663 -3.23836 0
M  V30 9093 O 861.026 -3.00079 -3.19193 0
M  V30 9094 C 862.527 -1.48897 -4.17546 0
M  V30 9095 H 859.747 -0.364093 -0.563629 0
M  V30 9096 H 862.291 -1.5911 -1.28469 0
M  V30 9097 H 860.446 -1.09122 -3.71714 0
M  V30 9098 H 860.86 -3.27162 -4.09958 0
M  V30 9099 H 862.334 -1.93703 -5.16898 0
M  V30 9100 H 862.811 -0.440843 -4.36982 0
M  V30 9101 H 863.417 -1.9961 -3.75547 0
M  V30 9102 N 861.732 1.21287 -1.00634 0
M  V30 9103 C 863.009 1.86 -0.605257 0
M  V30 9104 C 863.389 1.90139 0.917072 0
M  V30 9105 O 862.737 1.40169 1.80458 0
M  V30 9106 C 862.947 3.26183 -1.24119 0
M  V30 9107 C 864.295 4.02562 -1.35015 0
M  V30 9108 O 865.319 3.35499 -1.19661 0
M  V30 9109 O 864.178 5.22638 -1.59726 0
M  V30 9110 H 861.272 0.800549 -0.207486 0
M  V30 9111 H 863.818 1.28959 -1.10307 0
M  V30 9112 H 862.59 3.17878 -2.28186 0
M  V30 9113 H 862.213 3.90845 -0.729807 0
M  V30 9114 N 863.21 0.781244 1.36873 0
M  V30 9115 C 864.157 0.172146 2.30157 0
M  V30 9116 C 865.127 -0.679328 1.51573 0
M  V30 9117 O 866.312 -0.629713 1.80109 0
M  V30 9118 C 863.452 -0.693534 3.38059 0
M  V30 9119 C 862.565 0.175586 4.31643 0
M  V30 9120 C 861.7 -0.695695 5.26625 0
M  V30 9121 C 860.739 0.17538 6.11849 0
M  V30 9122 N 859.876 -0.654416 6.99043 0
M  V30 9123 H 864.716 0.973133 2.81663 0
M  V30 9124 H 862.253 0.491469 1.38647 0
M  V30 9125 H 864.211 -1.21035 3.99257 0
M  V30 9126 H 862.841 -1.46003 2.87894 0
M  V30 9127 H 861.893 0.810295 3.7167 0
M  V30 9128 H 863.205 0.847107 4.91554 0
M  V30 9129 H 862.359 -1.27863 5.93073 0
M  V30 9130 H 861.098 -1.40087 4.67148 0
M  V30 9131 H 860.103 0.77078 5.4437 0
M  V30 9132 H 861.328 0.87803 6.734 0
M  V30 9133 H 859.274 -1.34403 6.42084 0
M  V30 9134 H 859.191 -0.0403998 7.55989 0
M  V30 9135 H 860.459 -1.22144 7.69871 0
M  V30 9136 N 864.689 -1.48329 0.532571 0
M  V30 9137 C 865.639 -2.2664 -0.24868 0
M  V30 9138 C 866.623 -1.32861 -0.907563 0
M  V30 9139 O 867.815 -1.57382 -0.809942 0
M  V30 9140 C 864.944 -3.18004 -1.29339 0
M  V30 9141 C 864.03 -4.19256 -0.639166 0
M  V30 9142 N 864.421 -5.05043 0.276597 0
M  V30 9143 C 862.719 -4.36906 -0.896062 0
M  V30 9144 C 863.42 -5.78009 0.654261 0
M  V30 9145 N 862.396 -5.43598 0.0147447 0
M  V30 9146 H 866.198 -2.90344 0.455792 0
M  V30 9147 H 863.712 -1.58566 0.350778 0
M  V30 9148 H 865.709 -3.72767 -1.86682 0
M  V30 9149 H 864.369 -2.55855 -1.99921 0
M  V30 9150 H 865.38 -5.13813 0.649351 0
M  V30 9151 H 862.057 -3.85945 -1.59226 0
M  V30 9152 H 863.447 -6.57039 1.40532 0
M  V30 9153 N 866.167 -0.267825 -1.55308 0
M  V30 9154 C 867.097 0.616585 -2.25212 0
M  V30 9155 C 868.078 1.16472 -1.23969 0
M  V30 9156 O 869.263 1.20021 -1.52672 0
M  V30 9157 C 866.393 1.80412 -2.96764 0
M  V30 9158 C 865.347 1.38784 -4.04874 0
M  V30 9159 C 864.673 2.65789 -4.63961 0
M  V30 9160 C 865.973 0.543415 -5.19465 0
M  V30 9161 H 867.667 0.0336257 -2.99381 0
M  V30 9162 H 865.213 0.0147328 -1.43992 0
M  V30 9163 H 867.166 2.42866 -3.44375 0
M  V30 9164 H 865.89 2.4128 -2.20118 0
M  V30 9165 H 864.549 0.786541 -3.58063 0
M  V30 9166 H 864.197 3.24899 -3.83992 0
M  V30 9167 H 863.897 2.38651 -5.36954 0
M  V30 9168 H 865.421 3.29104 -5.14318 0
M  V30 9169 H 866.835 1.07277 -5.63174 0
M  V30 9170 H 865.232 0.367219 -5.98975 0
M  V30 9171 H 866.302 -0.439534 -4.82904 0
M  V30 9172 N 867.645 1.57599 0.00500368 0
M  V30 9173 C 868.922 1.81561 0.727654 0
M  V30 9174 C 869.302 0.871604 1.92266 0
M  V30 9175 O 868.65 -0.0808232 2.28357 0
M  V30 9176 C 868.86 3.29922 1.13809 0
M  V30 9177 C 870.208 3.95531 1.54403 0
M  V30 9178 O 871.232 3.34215 1.23202 0
M  V30 9179 O 870.091 5.03535 2.12402 0
M  V30 9180 H 867.185 0.747462 0.353878 0
M  V30 9181 H 869.731 1.69688 -0.0200667 0
M  V30 9182 H 868.503 3.90253 0.286078 0
M  V30 9183 H 868.126 3.46775 1.94507 0
M  V30 9184 N 869.123 -0.277682 1.55134 0
M  V30 9185 C 870.534 -0.849063 1.66276 0
M  V30 9186 C 870.885 -1.87223 0.5867 0
M  V30 9187 O 870.01 -2.14676 -0.272635 0
M  V30 9188 C 870.605 -1.54681 3.01429 0
M  V30 9189 C 869.164 -2.06628 3.14614 0
M  V30 9190 C 868.311 -0.906748 2.62056 0
M  V30 9191 H 871.262 -0.0541357 1.58608 0
M  V30 9192 H 871.283 -2.41356 2.94156 0
M  V30 9193 H 870.795 -0.80189 3.79725 0
M  V30 9194 H 868.896 -2.84095 2.41082 0
M  V30 9195 H 869.009 -2.2848 4.2111 0
M  V30 9196 H 867.373 -1.29882 2.19095 0
M  V30 9197 H 868.156 -0.175414 3.42852 0
M  V30 9198 N 870.601 -1.47988 -0.541979 0
M  V30 9199 C 871.85 -1.5465 -1.29485 0
M  V30 9200 C 872.163 -0.220041 -1.94358 0
M  V30 9201 O 873.369 -0.164792 -2.70999 0
M  V30 9202 C 871.825 -2.72685 -2.34885 0
M  V30 9203 C 871.433 -4.11923 -1.76134 0
M  V30 9204 C 873.177 -2.88651 -3.11257 0
M  V30 9205 C 871.084 -5.21237 -2.79404 0
M  V30 9206 H 870.014 -0.575688 -0.486928 0
M  V30 9207 H 872.665 -1.74296 -0.573853 0
M  V30 9208 H 871.047 -2.46448 -3.09966 0
M  V30 9209 H 872.221 -4.48128 -1.07322 0
M  V30 9210 H 870.536 -4.00972 -1.12295 0
M  V30 9211 H 873.133 -3.67487 -3.88404 0
M  V30 9212 H 873.476 -1.97658 -3.66384 0
M  V30 9213 H 874.009 -3.14731 -2.43288 0
M  V30 9214 H 870.748 -6.14156 -2.29113 0
M  V30 9215 H 870.268 -4.89533 -3.4658 0
M  V30 9216 H 871.947 -5.48839 -3.42615 0
M  V30 9217 N 872.079 0.78992 -1.36375 0
M  V30 9218 C 873.495 1.0879 -1.16777 0
M  V30 9219 C 873.695 2.01498 0.00848236 0
M  V30 9220 O 872.751 2.43338 0.674007 0
M  V30 9221 C 874.064 1.70285 -2.47837 0
M  V30 9222 C 875.612 1.82629 -2.54196 0
M  V30 9223 C 876.087 2.47539 -3.85342 0
M  V30 9224 N 877.578 2.55008 -3.86685 0
M  V30 9225 C 878.313 3.06041 -4.84898 0
M  V30 9226 N 877.809 3.57385 -5.93505 0
M  V30 9227 N 879.602 3.04748 -4.72319 0
M  V30 9228 H 871.753 0.173985 -2.11686 0
M  V30 9229 H 874.016 0.139798 -0.937636 0
M  V30 9230 H 873.722 1.09633 -3.34176 0
M  V30 9231 H 873.596 2.69799 -2.63607 0
M  V30 9232 H 875.983 2.42419 -1.68276 0
M  V30 9233 H 876.064 0.81923 -2.42327 0
M  V30 9234 H 875.708 1.88393 -4.71668 0
M  V30 9235 H 875.638 3.48815 -3.94507 0
M  V30 9236 H 878.129 2.18651 -3.08221 0
M  V30 9237 H 878.442 3.94674 -6.64419 0
M  V30 9238 H 876.787 3.55538 -5.97175 0
M  V30 9239 H 879.978 2.63925 -3.86602 0
M  V30 9240 H 880.151 3.44212 -5.49019 0
M  V30 9241 N 873.557 1.20646 1.01402 0
M  V30 9242 C 874.467 0.973385 2.13453 0
M  V30 9243 C 875.483 -0.0715865 1.73853 0
M  V30 9244 O 876.659 0.116438 2.01063 0
M  V30 9245 C 873.724 0.531285 3.42605 0
M  V30 9246 C 872.785 1.64741 3.96433 0
M  V30 9247 C 872.018 1.22631 5.1942 0
M  V30 9248 O 872.241 0.0960891 5.70319 0
M  V30 9249 O 871.175 2.03474 5.66465 0
M  V30 9250 H 875.001 1.91164 2.35987 0
M  V30 9251 H 872.586 0.990553 1.11841 0
M  V30 9252 H 874.468 0.294095 4.20373 0
M  V30 9253 H 873.143 -0.378358 3.21481 0
M  V30 9254 H 872.05 1.93891 3.19933 0
M  V30 9255 H 873.383 2.53415 4.2195 0
M  V30 9256 N 875.035 -1.20752 1.01276 0
M  V30 9257 C 875.983 -2.25432 0.572989 0
M  V30 9258 C 876.977 -1.64935 -0.386354 0
M  V30 9259 O 878.183 -1.7816 -0.256696 0
M  V30 9260 H 874.558 -0.733229 0.166972 0
M  V30 9261 H 876.529 -2.59856 1.46687 0
M  V30 9262 C 875.278 -3.47615 -0.0768249 0
M  V30 9263 H 874.601 -3.94442 0.652354 0
M  V30 9264 H 876.041 -4.22572 -0.3477 0
M  V30 9265 C 874.5 -3.1003 -1.31845 0
M  V30 9266 O 875.03 -3.21216 -2.41211 0
M  V30 9267 N 873.236 -2.64616 -1.20111 0
M  V30 9268 H 872.783 -2.55714 -0.311184 0
M  V30 9269 H 872.741 -2.39838 -2.03286 0
M  V30 9270 N 876.513 -0.788492 -1.36457 0
M  V30 9271 C 877.443 -0.200468 -2.32638 0
M  V30 9272 C 878.424 0.664031 -1.56603 0
M  V30 9273 O 879.609 0.598045 -1.84762 0
M  V30 9274 C 876.739 0.666274 -3.40849 0
M  V30 9275 C 875.693 -0.0982574 -4.27887 0
M  V30 9276 C 875.019 0.889018 -5.27258 0
M  V30 9277 C 876.319 -1.28692 -5.06197 0
M  V30 9278 H 878.013 -1.00399 -2.82065 0
M  V30 9279 H 875.559 -0.484237 -1.35614 0
M  V30 9280 H 877.512 1.08757 -4.07124 0
M  V30 9281 H 876.236 1.50249 -2.89987 0
M  V30 9282 H 874.895 -0.500525 -3.63167 0
M  V30 9283 H 874.543 1.72024 -4.7267 0
M  V30 9284 H 874.243 0.381909 -5.86358 0
M  V30 9285 H 875.767 1.30891 -5.96406 0
M  V30 9286 H 877.181 -0.941429 -5.65517 0
M  V30 9287 H 875.578 -1.72726 -5.74705 0
M  V30 9288 H 876.648 -2.08273 -4.37893 0
M  V30 9289 N 877.991 1.48044 -0.54043 0
M  V30 9290 C 879.239 2.02097 -0.0101367 0
M  V30 9291 C 879.56 1.41881 1.33771 0
M  V30 9292 O 878.83 0.587923 1.8687 0
M  V30 9293 H 877.41 0.747 -0.000758716 0
M  V30 9294 H 880.072 1.81639 -0.706634 0
M  V30 9295 H 879.168 3.11969 0.0904474 0
M  V30 9296 N 879.47 0.276058 1.55163 0
M  V30 9297 C 880.417 -0.611006 2.22565 0
M  V30 9298 C 881.387 -1.14902 1.19945 0
M  V30 9299 O 882.572 -1.19815 1.48489 0
M  V30 9300 C 879.712 -1.78885 2.95117 0
M  V30 9301 C 878.825 -1.2846 4.12458 0
M  V30 9302 C 877.96 -2.42432 4.72652 0
M  V30 9303 C 876.999 -1.89015 5.82185 0
M  V30 9304 N 876.136 -2.96463 6.36439 0
M  V30 9305 H 880.976 -0.0295849 2.97985 0
M  V30 9306 H 878.513 -0.00283607 1.471 0
M  V30 9307 H 880.471 -2.48121 3.35398 0
M  V30 9308 H 879.101 -2.34229 2.22119 0
M  V30 9309 H 878.153 -0.485312 3.77292 0
M  V30 9310 H 879.465 -0.853358 4.91446 0
M  V30 9311 H 878.619 -3.19659 5.15658 0
M  V30 9312 H 877.358 -2.88872 3.92943 0
M  V30 9313 H 876.363 -1.10267 5.38629 0
M  V30 9314 H 877.588 -1.43509 6.63763 0
M  V30 9315 H 875.534 -3.42283 5.59623 0
M  V30 9316 H 875.451 -2.57759 7.10701 0
M  V30 9317 H 876.719 -3.73663 6.84103 0
M  V30 9318 N 880.948 -1.576 0.00335426 0
M  V30 9319 C 881.898 -2.05116 -0.995562 0
M  V30 9320 C 882.882 -0.946535 -1.30113 0
M  V30 9321 O 884.074 -1.21028 -1.29156 0
M  V30 9322 C 881.203 -2.56077 -2.28648 0
M  V30 9323 C 880.289 -3.73422 -2.0104 0
M  V30 9324 N 880.68 -4.84986 -1.43603 0
M  V30 9325 C 878.978 -3.81416 -2.31166 0
M  V30 9326 C 879.679 -5.66399 -1.32542 0
M  V30 9327 N 878.655 -5.12505 -1.81218 0
M  V30 9328 H 882.457 -2.88783 -0.546025 0
M  V30 9329 H 879.971 -1.61135 -0.202265 0
M  V30 9330 H 881.968 -2.88395 -3.01055 0
M  V30 9331 H 880.628 -1.73829 -2.74251 0
M  V30 9332 H 881.639 -5.05768 -1.11439 0
M  V30 9333 H 878.316 -3.1003 -2.7962 0
M  V30 9334 H 879.706 -6.66066 -0.88348 0
M  V30 9335 N 882.426 0.269451 -1.5528 0
M  V30 9336 C 883.672 0.997946 -1.77236 0
M  V30 9337 C 884.027 1.83808 -0.568546 0
M  V30 9338 O 883.32 1.8651 0.438706 0
M  V30 9339 C 883.514 1.91 -3.02082 0
M  V30 9340 C 883.343 1.15963 -4.34491 0
M  V30 9341 C 882.113 0.873873 -4.97686 0
M  V30 9342 C 884.311 0.548307 -5.11369 0
M  V30 9343 N 882.293 0.0970863 -6.13823 0
M  V30 9344 C 883.664 -0.0941413 -6.19929 0
M  V30 9345 C 885.719 0.456507 -4.95803 0
M  V30 9346 C 884.422 -0.819547 -7.14616 0
M  V30 9347 C 886.448 -0.255315 -5.90849 0
M  V30 9348 C 885.81 -0.886488 -6.988 0
M  V30 9349 H 881.909 0.347038 -0.700777 0
M  V30 9350 H 884.493 0.273262 -1.92773 0
M  V30 9351 H 882.664 2.60691 -2.87915 0
M  V30 9352 H 884.396 2.57237 -3.12428 0
M  V30 9353 H 881.151 1.18003 -4.58663 0
M  V30 9354 H 881.575 -0.278741 -6.76426 0
M  V30 9355 H 886.217 0.930164 -4.12441 0
M  V30 9356 H 883.935 -1.30488 -7.97495 0
M  V30 9357 H 887.521 -0.32671 -5.80882 0
M  V30 9358 H 886.401 -1.42851 -7.71079 0
M  V30 9359 N 883.904 1.48273 0.534124 0
M  V30 9360 C 884.851 1.62487 1.6391 0
M  V30 9361 C 885.821 0.467062 1.59398 0
M  V30 9362 O 887.006 0.690029 1.77885 0
M  V30 9363 C 884.146 1.66671 3.02183 0
M  V30 9364 C 883.259 2.9353 3.16961 0
M  V30 9365 C 882.394 2.88902 4.45768 0
M  V30 9366 C 881.433 4.10483 4.54059 0
M  V30 9367 N 880.57 4.03956 5.74251 0
M  V30 9368 H 885.41 2.56851 1.51101 0
M  V30 9369 H 882.947 1.27381 0.735704 0
M  V30 9370 H 884.905 1.67079 3.82283 0
M  V30 9371 H 883.535 0.758011 3.13774 0
M  V30 9372 H 882.587 3.02886 2.3014 0
M  V30 9373 H 883.899 3.83501 3.18949 0
M  V30 9374 H 883.053 2.87688 5.34154 0
M  V30 9375 H 881.792 1.96652 4.46295 0
M  V30 9376 H 880.797 4.11977 3.64081 0
M  V30 9377 H 882.022 5.03887 4.55274 0
M  V30 9378 H 879.968 3.14525 5.75682 0
M  V30 9379 H 879.885 4.87628 5.77715 0
M  V30 9380 H 881.153 4.06795 6.64935 0
M  V30 9381 N 885.382 -0.782676 1.36792 0
M  V30 9382 C 886.33 -1.91698 1.31737 0
M  V30 9383 C 887.324 -1.68118 0.207994 0
M  V30 9384 O 888.53 -1.76042 0.375393 0
M  V30 9385 H 884.905 -0.630215 0.410284 0
M  V30 9386 H 886.876 -1.93078 2.27516 0
M  V30 9387 C 885.625 -3.28816 1.13029 0
M  V30 9388 H 884.948 -3.4753 1.97643 0
M  V30 9389 H 886.388 -4.08515 1.13541 0
M  V30 9390 C 884.847 -3.36497 -0.1647 0
M  V30 9391 O 885.377 -3.84822 -1.15216 0
M  V30 9392 N 883.583 -2.89828 -0.211678 0
M  V30 9393 H 883.13 -2.50693 0.59252 0
M  V30 9394 H 883.088 -2.95349 -1.07779 0
M  V30 9395 N 886.86 -1.21182 -1.00761 0
M  V30 9396 C 888.1 -1.03886 -1.76031 0
M  V30 9397 C 888.464 0.420593 -1.87337 0
M  V30 9398 O 889.665 0.713994 -2.59144 0
M  V30 9399 C 887.936 -1.71394 -3.13622 0
M  V30 9400 S 889.495 -1.69319 -4.04816 0
M  V30 9401 H 886.313 -0.372327 -0.605717 0
M  V30 9402 H 888.915 -1.53885 -1.20581 0
M  V30 9403 H 887.619 -2.76773 -3.03026 0
M  V30 9404 H 887.15 -1.21564 -3.74147 0
M  V30 9405 H 889.165 -0.732434 -4.90765 0
M  V30 9406 N 888.338 1.20213 -1.01915 0
M  V30 9407 C 889.301 2.21307 -0.596327 0
M  V30 9408 C 890.301 1.57274 0.334879 0
M  V30 9409 O 891.491 1.73764 0.12322 0
M  V30 9410 C 888.623 3.40657 0.128808 0
M  V30 9411 H 889.816 2.60228 -1.49068 0
M  V30 9412 H 887.369 1.33721 -0.809226 0
M  V30 9413 H 888.104 3.07241 1.03796 0
M  V30 9414 H 887.889 3.88361 -0.540183 0
M  V30 9415 H 889.379 4.15564 0.411892 0
M  V30 9416 N 889.816 0.795718 1.36037 0
M  V30 9417 C 891.232 0.478145 1.52269 0
M  V30 9418 C 891.432 -1.0025 1.74792 0
M  V30 9419 O 890.488 -1.78783 1.78305 0
M  V30 9420 C 891.801 1.31406 2.70468 0
M  V30 9421 C 893.349 1.3084 2.84341 0
M  V30 9422 C 893.824 2.12819 4.05551 0
M  V30 9423 N 895.315 2.10298 4.12709 0
M  V30 9424 C 896.05 2.70495 5.05589 0
M  V30 9425 N 895.546 3.39576 6.03871 0
M  V30 9426 N 897.339 2.60195 4.98252 0
M  V30 9427 H 889.49 1.75477 1.19673 0
M  V30 9428 H 891.753 0.74627 0.584624 0
M  V30 9429 H 891.459 2.36435 2.60368 0
M  V30 9430 H 891.333 0.959726 3.64786 0
M  V30 9431 H 893.72 0.266003 2.93899 0
M  V30 9432 H 893.801 1.70254 1.90912 0
M  V30 9433 H 893.445 3.17093 3.96755 0
M  V30 9434 H 893.375 1.70772 4.98141 0
M  V30 9435 H 895.866 1.60026 3.42345 0
M  V30 9436 H 896.179 3.82823 6.71317 0
M  V30 9437 H 894.524 3.43679 6.04077 0
M  V30 9438 H 897.715 2.05823 4.20422 0
M  V30 9439 H 897.888 3.074 5.70447 0
M  V30 9440 N 891.294 -1.47756 0.548274 0
M  V30 9441 C 892.241 -2.29893 -0.204408 0
M  V30 9442 C 893.211 -1.38509 -0.916761 0
M  V30 9443 O 894.396 -1.67472 -0.91421 0
M  V30 9444 C 891.536 -3.22282 -1.23403 0
M  V30 9445 C 890.649 -4.28753 -0.528654 0
M  V30 9446 C 889.784 -5.08303 -1.54279 0
M  V30 9447 C 888.823 -6.06557 -0.821893 0
M  V30 9448 N 887.96 -6.79098 -1.78243 0
M  V30 9449 H 892.8 -2.93739 0.502163 0
M  V30 9450 H 890.337 -1.44793 0.259471 0
M  V30 9451 H 892.295 -3.74262 -1.84348 0
M  V30 9452 H 890.925 -2.6032 -1.90875 0
M  V30 9453 H 889.977 -3.79899 0.195132 0
M  V30 9454 H 891.289 -4.98787 0.0365066 0
M  V30 9455 H 890.443 -5.64388 -2.22602 0
M  V30 9456 H 889.182 -4.3815 -2.14186 0
M  V30 9457 H 888.187 -5.49659 -0.12469 0
M  V30 9458 H 889.412 -6.78715 -0.228685 0
M  V30 9459 H 887.358 -6.11682 -2.37025 0
M  V30 9460 H 887.275 -7.4527 -1.26919 0
M  V30 9461 H 888.543 -7.39762 -2.45709 0
M  V30 9462 N 892.772 -0.284283 -1.55015 0
M  V30 9463 C 893.702 0.592663 -2.25853 0
M  V30 9464 C 894.683 1.15151 -1.25197 0
M  V30 9465 O 895.868 1.18395 -1.53936 0
M  V30 9466 C 892.998 1.77254 -2.98661 0
M  V30 9467 C 891.952 1.34482 -4.06323 0
M  V30 9468 C 891.278 2.60853 -4.66754 0
M  V30 9469 C 892.578 0.488288 -5.20013 0
M  V30 9470 H 894.272 0.00187041 -2.994 0
M  V30 9471 H 891.818 -0.000540402 -1.44 0
M  V30 9472 H 893.771 2.39199 -3.46932 0
M  V30 9473 H 892.495 2.38931 -2.22664 0
M  V30 9474 H 891.154 0.748519 -3.58877 0
M  V30 9475 H 890.802 3.20808 -3.87416 0
M  V30 9476 H 890.502 2.32942 -5.39455 0
M  V30 9477 H 892.026 3.23631 -5.1778 0
M  V30 9478 H 893.44 1.01298 -5.6428 0
M  V30 9479 H 891.837 0.303669 -5.99331 0
M  V30 9480 H 892.907 -0.490727 -4.8241 0
M  V30 9481 N 894.251 1.57596 -0.0117121 0
M  V30 9482 C 895.499 1.90694 0.669342 0
M  V30 9483 C 895.82 0.886999 1.73659 0
M  V30 9484 O 895.09 -0.0739779 1.9576 0
M  V30 9485 H 893.67 0.703846 0.250219 0
M  V30 9486 H 896.332 1.94821 -0.0554057 0
M  V30 9487 H 895.428 2.90802 1.13316 0
M  V30 9488 N 895.729 -0.261212 1.5542 0
M  V30 9489 C 896.976 -0.99123 1.76581 0
M  V30 9490 C 897.304 -1.85854 0.573457 0
M  V30 9491 O 896.559 -1.90604 -0.443705 0
M  V30 9492 C 896.858 -1.89395 3.03091 0
M  V30 9493 C 896.524 -1.18318 4.351 0
M  V30 9494 C 895.186 -0.986688 4.70975 0
M  V30 9495 C 897.538 -0.678299 5.16767 0
M  V30 9496 C 894.866 -0.272788 5.86065 0
M  V30 9497 C 897.218 0.0220646 6.32596 0
M  V30 9498 C 895.882 0.230161 6.67103 0
M  V30 9499 H 895.152 -0.362717 0.646156 0
M  V30 9500 H 897.799 -0.262506 1.89692 0
M  V30 9501 H 896.104 -2.68927 2.8493 0
M  V30 9502 H 897.801 -2.46022 3.16661 0
M  V30 9503 H 894.391 -1.34625 4.06908 0
M  V30 9504 H 898.575 -0.817691 4.89518 0
M  V30 9505 H 893.831 -0.10095 6.11317 0
M  V30 9506 H 898.005 0.420981 6.95126 0
M  V30 9507 H 895.632 0.785312 7.56133 0
M  V30 9508 N 897.207 -1.48554 -0.526253 0
M  V30 9509 C 898.435 -1.60429 -1.30652 0
M  V30 9510 C 898.85 -0.265963 -1.86917 0
M  V30 9511 O 898.207 0.745262 -1.6659 0
M  V30 9512 C 898.258 -2.65377 -2.45473 0
M  V30 9513 O 897.979 -3.94017 -1.91527 0
M  V30 9514 C 899.48 -2.87726 -3.37237 0
M  V30 9515 H 896.7 -0.540817 -0.397187 0
M  V30 9516 H 899.244 -1.94409 -0.634461 0
M  V30 9517 H 897.399 -2.34246 -3.08557 0
M  V30 9518 H 897.813 -4.51623 -2.66715 0
M  V30 9519 H 899.287 -3.64951 -4.14144 0
M  V30 9520 H 899.764 -1.96688 -3.92696 0
M  V30 9521 H 900.37 -3.20176 -2.79942 0
M  V30 9522 N 898.685 0.775411 -1.37205 0
M  V30 9523 C 899.617 1.89761 -1.28544 0
M  V30 9524 C 900.63 1.61542 -0.201996 0
M  V30 9525 O 901.819 1.72528 -0.457848 0
M  V30 9526 C 898.919 3.24904 -0.963885 0
M  V30 9527 C 898.092 3.80796 -2.15205 0
M  V30 9528 C 897.151 4.94407 -1.80135 0
M  V30 9529 O 896.177 5.10185 -2.52388 0
M  V30 9530 N 897.379 5.75722 -0.743298 0
M  V30 9531 H 900.144 1.97708 -2.25237 0
M  V30 9532 H 897.705 0.954348 -1.30782 0
M  V30 9533 H 899.697 3.9842 -0.710182 0
M  V30 9534 H 898.267 3.12483 -0.085632 0
M  V30 9535 H 897.487 2.99101 -2.56773 0
M  V30 9536 H 898.775 4.1487 -2.94552 0
M  V30 9537 H 898.173 5.65518 -0.143655 0
M  V30 9538 H 896.73 6.4948 -0.549446 0
M  V30 9539 N 900.163 1.21714 1.00117 0
M  V30 9540 C 901.388 1.06357 1.78054 0
M  V30 9541 C 901.813 -0.382075 1.84179 0
M  V30 9542 O 901.171 -1.27575 1.28819 0
M  V30 9543 C 901.219 1.66982 3.19608 0
M  V30 9544 O 900.323 0.917892 4.02055 0
M  V30 9545 H 899.664 0.374074 0.548602 0
M  V30 9546 H 902.194 1.61338 1.25822 0
M  V30 9547 H 902.204 1.71363 3.70268 0
M  V30 9548 H 900.879 2.72185 3.14465 0
M  V30 9549 H 899.456 0.949473 3.6061 0
M  V30 9550 N 901.641 -1.19671 1.02551 0
M  V30 9551 C 902.573 -2.22215 0.561517 0
M  V30 9552 C 903.586 -1.58751 -0.360821 0
M  V30 9553 O 904.775 -1.77802 -0.157749 0
M  V30 9554 C 901.875 -3.383 -0.201494 0
M  V30 9555 C 901.048 -4.3135 0.724952 0
M  V30 9556 C 900.107 -5.26199 0.00794334 0
M  V30 9557 O 899.133 -5.65665 0.633398 0
M  V30 9558 N 900.335 -5.66573 -1.26394 0
M  V30 9559 H 903.1 -2.6265 1.44343 0
M  V30 9560 H 900.661 -1.34303 0.904122 0
M  V30 9561 H 902.653 -3.98764 -0.690625 0
M  V30 9562 H 901.223 -2.96683 -0.98479 0
M  V30 9563 H 900.443 -3.6872 1.39423 0
M  V30 9564 H 901.731 -4.90433 1.35472 0
M  V30 9565 H 901.129 -5.36538 -1.79287 0
M  V30 9566 H 899.686 -6.29304 -1.69763 0
M  V30 9567 N 903.119 -0.802921 -1.35613 0
M  V30 9568 C 904.368 -0.378087 -1.98125 0
M  V30 9569 C 904.681 1.05953 -1.64418 0
M  V30 9570 O 905.887 1.58729 -2.20266 0
M  V30 9571 C 904.343 -0.625077 -3.5443 0
M  V30 9572 C 903.951 -2.07499 -3.97049 0
M  V30 9573 C 905.695 -0.265419 -4.23669 0
M  V30 9574 C 903.602 -2.26793 -5.46186 0
M  V30 9575 H 902.532 -0.137633 -0.741332 0
M  V30 9576 H 905.183 -0.986461 -1.54729 0
M  V30 9577 H 903.565 0.0531975 -3.95964 0
M  V30 9578 H 904.739 -2.79077 -3.66678 0
M  V30 9579 H 903.054 -2.39417 -3.40688 0
M  V30 9580 H 905.651 -0.387669 -5.33293 0
M  V30 9581 H 905.994 0.787994 -4.08774 0
M  V30 9582 H 906.527 -0.897464 -3.87544 0
M  V30 9583 H 903.266 -3.30566 -5.66045 0
M  V30 9584 H 902.786 -1.59735 -5.78139 0
M  V30 9585 H 904.465 -2.08165 -6.12598 0
M  V30 9586 N 904.597 1.47463 -0.556102 0
M  V30 9587 C 905.874 1.9557 0.0339892 0
M  V30 9588 C 906.254 1.49869 1.48669 0
M  V30 9589 O 905.602 0.737019 2.16288 0
M  V30 9590 C 905.812 3.48826 -0.110343 0
M  V30 9591 C 907.16 4.24585 0.0355716 0
M  V30 9592 O 908.184 3.5618 -0.0378356 0
M  V30 9593 O 907.043 5.46158 0.193299 0
M  V30 9594 H 904.137 0.824461 0.0647521 0
M  V30 9595 H 906.683 1.57868 -0.622547 0
M  V30 9596 H 905.455 3.74891 -1.12126 0
M  V30 9597 H 905.078 3.9329 0.583855 0
M  V30 9598 N 906.075 0.2925 1.54862 0
M  V30 9599 C 906.985 -0.597036 2.26876 0
M  V30 9600 C 908.001 -1.15558 1.30086 0
M  V30 9601 O 909.177 -1.18217 1.63054 0
M  V30 9602 C 906.242 -1.75664 2.98903 0
M  V30 9603 C 905.303 -1.23303 4.11212 0
M  V30 9604 C 904.536 -2.33736 4.79795 0
M  V30 9605 O 904.759 -3.53459 4.47686 0
M  V30 9606 O 903.693 -2.00908 5.67379 0
M  V30 9607 H 907.519 -0.0131242 3.03697 0
M  V30 9608 H 905.104 0.0592642 1.49282 0
M  V30 9609 H 906.986 -2.43241 3.4411 0
M  V30 9610 H 905.661 -2.32731 2.24984 0
M  V30 9611 H 904.568 -0.523222 3.70423 0
M  V30 9612 H 905.901 -0.707887 4.87083 0
M  V30 9613 N 907.553 -1.57587 0.0200696 0
M  V30 9614 C 908.802 -1.90602 -0.659822 0
M  V30 9615 C 909.115 -0.897216 -1.73808 0
M  V30 9616 O 910.321 -1.11829 -2.47399 0
M  V30 9617 C 908.777 -3.38416 -1.22484 0
M  V30 9618 C 908.385 -4.47637 -0.180339 0
M  V30 9619 C 910.129 -3.80513 -1.88176 0
M  V30 9620 C 908.036 -5.86542 -0.756482 0
M  V30 9621 H 906.966 -0.711272 -0.250216 0
M  V30 9622 H 909.617 -1.83308 0.0838942 0
M  V30 9623 H 907.999 -3.40613 -2.01987 0
M  V30 9624 H 909.173 -4.56987 0.591573 0
M  V30 9625 H 907.488 -4.14687 0.377302 0
M  V30 9626 H 910.085 -4.8164 -2.32222 0
M  V30 9627 H 910.428 -3.15091 -2.72073 0
M  V30 9628 H 910.961 -3.80701 -1.15377 0
M  V30 9629 H 907.7 -6.55485 0.0441468 0
M  V30 9630 H 907.22 -5.80816 -1.49709 0
M  V30 9631 H 908.899 -6.3483 -1.249 0
M  V30 9632 N 909.032 0.252966 -1.55557 0
M  V30 9633 C 910.309 1.00432 -1.67847 0
M  V30 9634 C 910.689 2.03587 -0.55816 0
M  V30 9635 O 910.037 2.24239 0.439197 0
M  V30 9636 C 910.247 1.64313 -3.079 0
M  V30 9637 C 911.595 2.14726 -3.66303 0
M  V30 9638 O 912.619 1.74264 -3.10661 0
M  V30 9639 O 911.478 2.89 -4.63833 0
M  V30 9640 H 908.572 0.467102 -0.682455 0
M  V30 9641 H 911.118 0.247233 -1.67889 0
M  V30 9642 H 909.89 0.896681 -3.80888 0
M  V30 9643 H 909.513 2.46657 -3.11843 0
M  V30 9644 N 910.51 1.48831 0.518367 0
M  V30 9645 C 911.46 1.60614 1.61824 0
M  V30 9646 C 912.444 0.462631 1.54106 0
M  V30 9647 O 913.636 0.714689 1.6193 0
M  V30 9648 C 910.765 1.65984 3.00507 0
M  V30 9649 C 909.851 2.85854 3.13286 0
M  V30 9650 N 910.242 4.1014 2.96005 0
M  V30 9651 C 908.54 2.83429 3.4436 0
M  V30 9652 C 909.241 4.90626 3.12508 0
M  V30 9653 N 908.217 4.2366 3.40607 0
M  V30 9654 H 912.019 2.54443 1.47091 0
M  V30 9655 H 909.533 1.45363 0.724102 0
M  V30 9656 H 911.53 1.72521 3.79529 0
M  V30 9657 H 910.19 0.732792 3.16323 0
M  V30 9658 H 911.201 4.40395 2.72531 0
M  V30 9659 H 907.878 2.0003 3.66462 0
M  V30 9660 H 909.268 5.99302 3.03786 0
M  V30 9661 N 911.988 -0.768124 1.37614 0
M  V30 9662 C 913.265 -1.51637 1.23554 0
M  V30 9663 C 913.645 -2.1042 -0.169331 0
M  V30 9664 O 912.993 -1.95834 -1.17735 0
M  V30 9665 C 913.203 -2.59436 2.33439 0
M  V30 9666 C 914.551 -3.2674 2.71157 0
M  V30 9667 O 915.575 -2.69733 2.32642 0
M  V30 9668 O 914.434 -4.29814 3.37524 0
M  V30 9669 H 911.528 -0.671778 0.482332 0
M  V30 9670 H 914.074 -0.804779 1.49403 0
M  V30 9671 H 912.846 -2.14146 3.27502 0
M  V30 9672 H 912.469 -3.38192 2.09073 0
M  V30 9673 N 913.466 -1.22244 -0.994698 0
M  V30 9674 C 914.696 -1.07062 -1.76695 0
M  V30 9675 C 915.104 0.381895 -1.85306 0
M  V30 9676 O 914.447 1.27648 -1.32105 0
M  V30 9677 C 914.509 -1.60487 -3.2169 0
M  V30 9678 C 914.173 -3.09079 -3.36629 0
M  V30 9679 C 915.17 -4.06526 -3.24088 0
M  V30 9680 C 912.855 -3.48497 -3.61739 0
M  V30 9681 C 914.849 -5.41377 -3.36437 0
M  V30 9682 C 912.536 -4.83498 -3.73729 0
M  V30 9683 C 913.534 -5.79747 -3.61086 0
M  V30 9684 O 913.222 -7.12297 -3.72678 0
M  V30 9685 H 912.954 -0.375963 -0.561807 0
M  V30 9686 H 915.508 -1.62259 -1.25941 0
M  V30 9687 H 913.738 -0.996957 -3.73628 0
M  V30 9688 H 915.427 -1.40994 -3.80625 0
M  V30 9689 H 916.193 -3.77415 -3.04602 0
M  V30 9690 H 912.072 -2.74106 -3.70657 0
M  V30 9691 H 915.616 -6.16485 -3.26485 0
M  V30 9692 H 911.513 -5.1229 -3.92721 0
M  V30 9693 H 912.281 -7.1985 -3.89562 0
M  V30 9694 N 914.944 1.19125 -1.03184 0
M  V30 9695 C 915.854 2.26112 -0.625329 0
M  V30 9696 C 916.87 1.7056 0.344298 0
M  V30 9697 O 918.046 2.0039 0.20144 0
M  V30 9698 C 915.111 3.46697 0.0145169 0
M  V30 9699 C 914.172 4.17419 -1.00299 0
M  V30 9700 C 913.405 5.32247 -0.393581 0
M  V30 9701 O 913.628 5.64724 0.802659 0
M  V30 9702 O 912.562 5.91428 -1.1179 0
M  V30 9703 H 916.388 2.63131 -1.51643 0
M  V30 9704 H 913.973 1.26036 -0.802197 0
M  V30 9705 H 915.855 4.19762 0.371139 0
M  V30 9706 H 914.53 3.11521 0.879581 0
M  V30 9707 H 913.437 3.4646 -1.41125 0
M  V30 9708 H 914.77 4.56573 -1.83852 0
M  V30 9709 N 916.422 0.810101 1.35185 0
M  V30 9710 C 917.838 0.494269 1.51754 0
M  V30 9711 C 918.038 -0.983907 1.75845 0
M  V30 9712 O 917.094 -1.76882 1.80191 0
M  V30 9713 C 918.407 1.34268 2.69059 0
M  V30 9714 C 919.955 1.33848 2.82938 0
M  V30 9715 C 920.43 2.17109 4.03271 0
M  V30 9716 N 921.921 2.14664 4.10456 0
M  V30 9717 C 922.656 2.75843 5.02691 0
M  V30 9718 N 922.152 3.45962 6.00235 0
M  V30 9719 N 923.945 2.65465 4.95464 0
M  V30 9720 H 916.096 1.76736 1.17805 0
M  V30 9721 H 918.359 0.752429 0.576676 0
M  V30 9722 H 918.065 2.39183 2.57845 0
M  V30 9723 H 917.939 0.998362 3.63748 0
M  V30 9724 H 920.326 0.29716 2.936 0
M  V30 9725 H 920.407 1.72269 1.89095 0
M  V30 9726 H 920.051 3.21283 3.93369 0
M  V30 9727 H 919.981 1.76046 4.96302 0
M  V30 9728 H 922.472 1.63648 3.40628 0
M  V30 9729 H 922.785 3.89922 6.67219 0
M  V30 9730 H 921.13 3.50067 6.00398 0
M  V30 9731 H 924.321 2.1027 4.18215 0
M  V30 9732 H 924.494 3.13433 5.67154 0
M  V30 9733 N 917.9 -1.47166 0.563914 0
M  V30 9734 C 919.177 -1.95586 -0.0236172 0
M  V30 9735 C 919.557 -1.50655 -1.47872 0
M  V30 9736 O 918.905 -0.748479 -2.15894 0
M  V30 9737 C 919.115 -3.48762 0.128841 0
M  V30 9738 C 920.463 -4.24598 -0.0130544 0
M  V30 9739 O 921.487 -3.56155 0.0567242 0
M  V30 9740 O 920.346 -5.46253 -0.164332 0
M  V30 9741 H 917.44 -0.824793 -0.0603789 0
M  V30 9742 H 919.986 -1.57536 0.63091 0
M  V30 9743 H 918.758 -3.74291 1.14113 0
M  V30 9744 H 918.381 -3.93594 -0.56299 0
M  V30 9745 N 919.378 -0.300708 -1.54705 0
M  V30 9746 C 920.626 0.308044 -1.99739 0
M  V30 9747 C 920.947 1.54433 -1.19061 0
M  V30 9748 O 920.217 1.93794 -0.286507 0
M  V30 9749 H 918.797 0.116811 -0.73781 0
M  V30 9750 H 921.459 -0.41197 -1.90496 0
M  V30 9751 H 920.555 0.580287 -3.06658 0
M  V30 9752 N 920.856 1.57574 -0.0284266 0
M  V30 9753 C 921.786 2.1321 0.952039 0
M  V30 9754 C 922.767 1.04806 1.33977 0
M  V30 9755 O 923.952 1.32635 1.41851 0
M  V30 9756 C 921.082 2.65862 2.23461 0
M  V30 9757 C 920.036 3.79047 1.98765 0
M  V30 9758 C 919.362 4.18124 3.33281 0
M  V30 9759 C 920.662 5.05151 1.32739 0
M  V30 9760 H 922.356 2.95385 0.488705 0
M  V30 9761 H 919.902 1.42092 0.233628 0
M  V30 9762 H 921.855 3.03417 2.92431 0
M  V30 9763 H 920.579 1.80848 2.71959 0
M  V30 9764 H 919.238 3.41929 1.32213 0
M  V30 9765 H 918.886 3.30092 3.79537 0
M  V30 9766 H 918.586 4.94396 3.17563 0
M  V30 9767 H 920.11 4.58262 4.0352 0
M  V30 9768 H 921.524 5.40297 1.91708 0
M  V30 9769 H 919.921 5.86416 1.27421 0
M  V30 9770 H 920.991 4.83969 0.300261 0
M  V30 9771 N 922.334 -0.244713 1.55689 0
M  V30 9772 C 923.281 -1.30301 1.905 0
M  V30 9773 C 924.251 -1.4772 0.759478 0
M  V30 9774 O 925.436 -1.61667 1.01333 0
M  V30 9775 C 922.576 -2.653 2.20703 0
M  V30 9776 C 921.689 -2.55872 3.48071 0
M  V30 9777 C 920.824 -3.83238 3.67834 0
M  V30 9778 C 919.863 -3.68436 4.88796 0
M  V30 9779 N 919 -4.877 5.05068 0
M  V30 9780 H 923.84 -0.999143 2.80751 0
M  V30 9781 H 921.377 -0.482099 1.38976 0
M  V30 9782 H 923.335 -3.43884 2.36219 0
M  V30 9783 H 921.965 -2.93831 1.33653 0
M  V30 9784 H 921.017 -1.68846 3.40874 0
M  V30 9785 H 922.329 -2.40845 4.36801 0
M  V30 9786 H 921.483 -4.70266 3.83321 0
M  V30 9787 H 920.222 -4.01165 2.77341 0
M  V30 9788 H 919.227 -2.79793 4.73282 0
M  V30 9789 H 920.452 -3.52003 5.8075 0
M  V30 9790 H 918.398 -5.05983 4.17513 0
M  V30 9791 H 918.315 -4.75312 5.8789 0
M  V30 9792 H 919.583 -5.76219 5.24969 0
M  V30 9793 N 923.813 -1.49104 -0.510467 0
M  V30 9794 C 924.723 -1.67792 -1.6396 0
M  V30 9795 C 925.739 -0.560454 -1.64727 0
M  V30 9796 O 926.915 -0.833985 -1.83321 0
M  V30 9797 C 923.98 -1.73154 -3.00364 0
M  V30 9798 C 923.041 -2.9667 -3.10299 0
M  V30 9799 C 922.274 -3.01767 -4.40196 0
M  V30 9800 O 922.497 -2.1472 -5.28443 0
M  V30 9801 O 921.431 -3.94137 -4.54906 0
M  V30 9802 H 925.257 -2.63428 -1.51126 0
M  V30 9803 H 922.842 -1.32734 -0.685719 0
M  V30 9804 H 924.724 -1.79089 -3.81451 0
M  V30 9805 H 923.399 -0.806952 -3.1348 0
M  V30 9806 H 922.306 -2.96257 -2.28435 0
M  V30 9807 H 923.639 -3.88578 -3.02106 0
M  V30 9808 N 925.291 0.760815 -1.38019 0
M  V30 9809 C 926.238 1.8744 -1.34666 0
M  V30 9810 C 927.208 1.64762 -0.210386 0
M  V30 9811 O 928.393 1.86528 -0.401479 0
M  V30 9812 C 925.533 3.24648 -1.17037 0
M  V30 9813 C 924.646 3.59206 -2.3999 0
M  V30 9814 C 923.781 4.8568 -2.15148 0
M  V30 9815 C 922.82 5.13002 -3.3391 0
M  V30 9816 N 921.957 6.30668 -3.08549 0
M  V30 9817 H 926.797 1.8964 -2.29871 0
M  V30 9818 H 924.334 0.927004 -1.14215 0
M  V30 9819 H 926.292 4.03814 -1.04834 0
M  V30 9820 H 924.922 3.21793 -0.254758 0
M  V30 9821 H 923.974 2.74939 -2.62893 0
M  V30 9822 H 925.286 3.75328 -3.28527 0
M  V30 9823 H 924.44 5.72773 -2.00039 0
M  V30 9824 H 923.179 4.71682 -1.23965 0
M  V30 9825 H 922.184 4.2438 -3.49545 0
M  V30 9826 H 923.409 5.28901 -4.25958 0
M  V30 9827 H 921.355 6.18008 -2.20006 0
M  V30 9828 H 921.272 6.47257 -3.90633 0
M  V30 9829 H 922.54 7.20669 -2.9708 0
M  V30 9830 N 926.769 1.22769 0.988202 0
M  V30 9831 C 928.015 1.05665 1.73097 0
M  V30 9832 C 928.348 -0.406615 1.89895 0
M  V30 9833 O 927.623 -1.30132 1.44554 0
M  V30 9834 C 927.906 1.77381 3.13382 0
M  V30 9835 C 927.759 3.31332 3.04203 0
M  V30 9836 C 929.078 1.52999 4.12649 0
M  V30 9837 H 926.197 0.385258 0.628288 0
M  V30 9838 H 928.839 1.51171 1.15097 0
M  V30 9839 H 926.989 1.38696 3.62899 0
M  V30 9840 H 928.661 3.79489 2.6227 0
M  V30 9841 H 926.904 3.60767 2.40894 0
M  V30 9842 H 927.575 3.76692 4.03493 0
M  V30 9843 H 930.051 1.86611 3.71908 0
M  V30 9844 H 928.927 2.05666 5.08913 0
M  V30 9845 H 929.188 0.463615 4.39662 0
M  V30 9846 N 928.247 -1.18576 1.03814 0
M  V30 9847 C 929.477 -1.92158 0.758864 0
M  V30 9848 C 929.885 -1.76267 -0.687498 0
M  V30 9849 O 929.228 -1.08806 -1.4801 0
M  V30 9850 C 929.29 -3.44063 1.04217 0
M  V30 9851 C 928.954 -3.8373 2.48193 0
M  V30 9852 C 929.951 -3.87722 3.46363 0
M  V30 9853 C 927.636 -4.151 2.82838 0
M  V30 9854 C 929.63 -4.2253 4.77229 0
M  V30 9855 C 927.317 -4.49578 4.13911 0
M  V30 9856 C 928.315 -4.53269 5.10917 0
M  V30 9857 O 928.003 -4.86945 6.39641 0
M  V30 9858 H 927.735 -0.61694 0.276335 0
M  V30 9859 H 930.289 -1.51388 1.38819 0
M  V30 9860 H 928.519 -3.85061 0.355709 0
M  V30 9861 H 930.208 -3.9889 0.751091 0
M  V30 9862 H 930.974 -3.63627 3.20936 0
M  V30 9863 H 926.853 -4.11406 2.08006 0
M  V30 9864 H 930.397 -4.25326 5.52941 0
M  V30 9865 H 926.294 -4.73133 4.39107 0
M  V30 9866 H 927.062 -5.04857 6.44253 0
M  V30 9867 N 929.725 -0.817259 -1.34754 0
M  V30 9868 C 930.657 -0.192695 -2.28389 0
M  V30 9869 C 931.67 0.614167 -1.50771 0
M  V30 9870 O 932.859 0.444776 -1.7287 0
M  V30 9871 C 929.959 0.748929 -3.30521 0
M  V30 9872 C 929.132 -0.0138762 -4.37398 0
M  V30 9873 C 928.191 0.847825 -5.19325 0
M  V30 9874 O 927.217 0.29487 -5.68436 0
M  V30 9875 N 928.419 2.16843 -5.38479 0
M  V30 9876 H 931.184 -0.997122 -2.82626 0
M  V30 9877 H 928.745 -0.673696 -1.47217 0
M  V30 9878 H 930.737 1.32987 -3.82226 0
M  V30 9879 H 929.307 1.45412 -2.7672 0
M  V30 9880 H 928.527 -0.776093 -3.86485 0
M  V30 9881 H 929.815 -0.539191 -5.05935 0
M  V30 9882 H 929.213 2.64148 -5.00242 0
M  V30 9883 H 927.77 2.69835 -5.93323 0
M  V30 9884 N 931.203 1.46865 -0.571711 0
M  V30 9885 C 932.136 2.27176 0.215944 0
M  V30 9886 C 933.114 1.34951 0.907035 0
M  V30 9887 O 934.298 1.64349 0.923127 0
M  V30 9888 C 931.425 3.12388 1.30888 0
M  V30 9889 C 930.471 4.20296 0.724804 0
M  V30 9890 S 931.304 5.33691 -0.439839 0
M  V30 9891 C 932.46 6.22468 0.654564 0
M  V30 9892 H 932.693 2.93633 -0.465518 0
M  V30 9893 H 930.226 1.50184 -0.358351 0
M  V30 9894 H 932.184 3.62049 1.93471 0
M  V30 9895 H 930.845 2.45265 1.96224 0
M  V30 9896 H 930.038 4.79703 1.54599 0
M  V30 9897 H 929.64 3.73591 0.174861 0
M  V30 9898 H 931.932 6.59694 1.54304 0
M  V30 9899 H 932.875 7.08033 0.0975111 0
M  V30 9900 H 933.283 5.56384 0.953762 0
M  V30 9901 N 932.681 0.308908 1.54543 0
M  V30 9902 C 933.611 -0.556657 2.26768 0
M  V30 9903 C 934.592 -1.13145 1.27013 0
M  V30 9904 O 935.777 -1.15931 1.558 0
M  V30 9905 C 932.907 -1.72481 3.01443 0
M  V30 9906 C 931.861 -1.28001 4.08411 0
M  V30 9907 C 931.187 -2.53395 4.70845 0
M  V30 9908 C 932.487 -0.405497 5.20724 0
M  V30 9909 H 934.181 0.0457618 2.99365 0
M  V30 9910 H 931.727 0.0234495 1.43981 0
M  V30 9911 H 933.68 -2.3365 3.50693 0
M  V30 9912 H 932.404 -2.35359 2.26437 0
M  V30 9913 H 931.063 -0.69133 3.60022 0
M  V30 9914 H 930.711 -3.14604 3.92471 0
M  V30 9915 H 930.411 -2.2433 5.43093 0
M  V30 9916 H 931.935 -3.15352 5.22863 0
M  V30 9917 H 933.349 -0.923076 5.6582 0
M  V30 9918 H 931.746 -0.208282 5.99738 0
M  V30 9919 H 932.816 0.567412 4.81569 0
M  V30 9920 N 934.159 -1.57557 0.0367827 0
M  V30 9921 C 935.091 -2.07597 -0.971395 0
M  V30 9922 C 936.104 -1.0009 -1.28397 0
M  V30 9923 O 937.293 -1.27692 -1.24728 0
M  V30 9924 C 934.393 -2.492 -2.2968 0
M  V30 9925 C 933.566 -3.79875 -2.16826 0
M  V30 9926 C 932.625 -4.07946 -3.32366 0
M  V30 9927 O 931.651 -4.78083 -3.0891 0
M  V30 9928 N 932.853 -3.58722 -4.56397 0
M  V30 9929 H 935.618 -2.94714 -0.544389 0
M  V30 9930 H 933.179 -1.61205 -0.1498 0
M  V30 9931 H 935.171 -2.65065 -3.05815 0
M  V30 9932 H 933.741 -1.67407 -2.63995 0
M  V30 9933 H 932.961 -3.73732 -1.2537 0
M  V30 9934 H 934.249 -4.65476 -2.0545 0
M  V30 9935 H 933.647 -3.01994 -4.78347 0
M  V30 9936 H 932.204 -3.79852 -5.29675 0
M  V30 9937 N 935.637 0.236453 -1.55816 0
M  V30 9938 C 936.584 1.29289 -1.91188 0
M  V30 9939 C 937.554 1.47315 -0.767301 0
M  V30 9940 O 938.739 1.61128 -1.02189 0
M  V30 9941 C 935.879 2.64126 -2.22107 0
M  V30 9942 C 934.992 2.54022 -3.49423 0
M  V30 9943 C 934.127 3.81282 -3.69861 0
M  V30 9944 C 933.166 3.65839 -4.90743 0
M  V30 9945 N 932.303 4.85014 -5.07647 0
M  V30 9946 H 937.143 0.98424 -2.81277 0
M  V30 9947 H 934.68 0.474722 -1.39229 0
M  V30 9948 H 936.638 3.42626 -2.3804 0
M  V30 9949 H 935.268 2.93118 -1.35209 0
M  V30 9950 H 934.32 1.67036 -3.41765 0
M  V30 9951 H 935.632 2.38525 -4.38072 0
M  V30 9952 H 934.786 4.68226 -3.8581 0
M  V30 9953 H 933.525 3.99688 -2.79465 0
M  V30 9954 H 932.53 2.77279 -4.74759 0
M  V30 9955 H 933.755 3.48918 -5.82609 0
M  V30 9956 H 931.701 5.03762 -4.20191 0
M  V30 9957 H 931.618 4.72188 -5.90402 0
M  V30 9958 H 932.886 5.73427 -5.28017 0
M  V30 9959 N 937.115 1.49373 0.502552 0
M  V30 9960 C 938.361 1.5999 1.25597 0
M  V30 9961 C 938.716 0.282287 1.90318 0
M  V30 9962 O 938.009 -0.71735 1.77664 0
M  V30 9963 C 938.203 2.69508 2.34735 0
M  V30 9964 C 938.032 4.11791 1.80716 0
M  V30 9965 C 936.802 4.78598 1.62087 0
M  V30 9966 C 939 4.97074 1.31991 0
M  V30 9967 N 936.982 6.05201 1.02981 0
M  V30 9968 C 938.353 6.14144 0.850098 0
M  V30 9969 C 940.408 4.83086 1.20549 0
M  V30 9970 C 939.111 7.18766 0.277192 0
M  V30 9971 C 941.137 5.87855 0.64656 0
M  V30 9972 C 940.499 7.04152 0.186968 0
M  V30 9973 H 936.598 0.639822 0.449613 0
M  V30 9974 H 939.182 1.86371 0.563361 0
M  V30 9975 H 937.353 2.44902 3.01459 0
M  V30 9976 H 939.085 2.69656 3.01774 0
M  V30 9977 H 935.84 4.35372 1.8641 0
M  V30 9978 H 936.264 6.72793 0.753601 0
M  V30 9979 H 940.906 3.93489 1.54681 0
M  V30 9980 H 938.624 8.08064 -0.0763971 0
M  V30 9981 H 942.21 5.79091 0.560832 0
M  V30 9982 H 941.09 7.83836 -0.238784 0
M  V30 9983 N 938.594 -0.753485 1.38421 0
M  V30 9984 C 939.84 -1.51485 1.34834 0
M  V30 9985 C 940.173 -1.94102 -0.0615381 0
M  V30 9986 O 939.448 -1.65439 -1.02274 0
M  V30 9987 C 939.731 -2.76736 2.30411 0
M  V30 9988 C 939.584 -2.40256 3.80259 0
M  V30 9989 C 940.903 -3.7876 2.24119 0
M  V30 9990 H 938.022 -0.549534 0.491102 0
M  V30 9991 H 940.664 -0.863006 1.6927 0
M  V30 9992 H 938.814 -3.32357 2.01175 0
M  V30 9993 H 940.486 -1.90409 4.20169 0
M  V30 9994 H 938.729 -1.72714 3.97935 0
M  V30 9995 H 939.4 -3.29869 4.42595 0
M  V30 9996 H 941.876 -3.32679 2.49928 0
M  V30 9997 H 940.752 -4.64092 2.93104 0
M  V30 9998 H 941.013 -4.24352 1.24006 0
M  V30 9999 N 940.072 -1.23292 -0.981677 0
M  V30 10000 C 941.005 -0.956198 -2.07201 0
M  V30 10001 C 941.983 0.105027 -1.6226 0
M  V30 10002 O 943.167 -0.0289582 -1.88478 0
M  V30 10003 C 940.294 -0.44029 -3.35826 0
M  V30 10004 C 939.34 -1.48792 -3.99704 0
M  V30 10005 S 940.173 -3.06491 -4.39117 0
M  V30 10006 C 941.329 -2.56567 -5.70898 0
M  V30 10007 H 941.562 -1.87947 -2.30355 0
M  V30 10008 H 939.095 -1.06522 -1.1177 0
M  V30 10009 H 941.053 -0.149237 -4.10229 0
M  V30 10010 H 939.714 0.462045 -3.10683 0
M  V30 10011 H 938.907 -1.07706 -4.92357 0
M  V30 10012 H 938.509 -1.72826 -3.31673 0
M  V30 10013 H 940.801 -1.98508 -6.47766 0
M  V30 10014 H 941.744 -3.47755 -6.16824 0
M  V30 10015 H 942.152 -1.97465 -5.28836 0
M  V30 10016 N 941.55 1.18024 -1.04442 0
M  V30 10017 C 942.966 1.40107 -0.76435 0
M  V30 10018 C 943.166 1.90914 0.644516 0
M  V30 10019 O 942.222 2.0959 1.40813 0
M  V30 10020 C 943.535 2.39851 -1.81361 0
M  V30 10021 C 945.083 2.53571 -1.83496 0
M  V30 10022 C 945.558 3.56583 -2.87424 0
M  V30 10023 N 947.049 3.64094 -2.86339 0
M  V30 10024 C 947.784 4.43537 -3.63405 0
M  V30 10025 N 947.28 5.26557 -4.50233 0
M  V30 10026 N 949.073 4.38336 -3.51877 0
M  V30 10027 H 941.224 0.833726 -1.95353 0
M  V30 10028 H 943.487 0.42881 -0.845474 0
M  V30 10029 H 943.193 2.09576 -2.82438 0
M  V30 10030 H 943.067 3.39251 -1.6489 0
M  V30 10031 H 945.454 2.83161 -0.830883 0
M  V30 10032 H 945.535 1.54272 -2.04044 0
M  V30 10033 H 945.179 3.27733 -3.88012 0
M  V30 10034 H 945.109 4.55569 -2.6413 0
M  V30 10035 H 947.6 3.04814 -2.23376 0
M  V30 10036 H 947.913 5.84336 -5.05738 0
M  V30 10037 H 946.258 5.25964 -4.54298 0
M  V30 10038 H 949.449 3.72528 -2.83444 0
M  V30 10039 H 949.622 5.00007 -4.12186 0
M  V30 10040 N 943.028 0.824394 1.34319 0
M  V30 10041 C 943.938 0.24932 2.33271 0
M  V30 10042 C 944.954 -0.617066 1.62691 0
M  V30 10043 O 946.13 -0.524616 1.94447 0
M  V30 10044 C 943.195 -0.578094 3.41846 0
M  V30 10045 C 942.256 0.310866 4.28173 0
M  V30 10046 C 941.489 -0.477153 5.31563 0
M  V30 10047 O 941.712 -1.71028 5.44156 0
M  V30 10048 O 940.646 0.141287 6.01734 0
M  V30 10049 H 944.472 1.06837 2.84288 0
M  V30 10050 H 942.057 0.58657 1.37403 0
M  V30 10051 H 943.939 -1.04878 4.0814 0
M  V30 10052 H 942.614 -1.37444 2.93071 0
M  V30 10053 H 941.521 0.829081 3.64797 0
M  V30 10054 H 942.854 1.07161 4.80393 0
M  V30 10055 N 944.506 -1.46559 0.579492 0
M  V30 10056 C 945.754 -2.02 0.0637157 0
M  V30 10057 C 946.075 -1.45378 -1.29962 0
M  V30 10058 O 945.345 -0.637262 -1.85245 0
M  V30 10059 H 943.925 -0.746717 0.0205638 0
M  V30 10060 H 946.587 -1.79702 0.754544 0
M  V30 10061 H 945.683 -3.12099 -0.00770254 0
M  V30 10062 N 945.984 -0.3171 -1.54377 0
M  V30 10063 C 947.233 0.288271 -1.99629 0
M  V30 10064 C 947.546 1.53754 -1.2091 0
M  V30 10065 O 948.752 2.2185 -1.56508 0
M  V30 10066 C 947.208 0.564188 -3.5545 0
M  V30 10067 C 946.816 -0.667659 -4.42997 0
M  V30 10068 C 948.56 1.12987 -4.09187 0
M  V30 10069 C 946.467 -0.364003 -5.90279 0
M  V30 10070 H 945.397 0.111492 -0.745711 0
M  V30 10071 H 948.048 -0.428317 -1.78431 0
M  V30 10072 H 946.43 1.34079 -3.72611 0
M  V30 10073 H 947.604 -1.44335 -4.37612 0
M  V30 10074 H 945.919 -1.1531 -4.00116 0
M  V30 10075 H 948.516 1.37157 -5.1681 0
M  V30 10076 H 948.859 2.07722 -3.60773 0
M  V30 10077 H 949.392 0.414595 -3.95634 0
M  V30 10078 H 946.131 -1.28035 -6.42874 0
M  V30 10079 H 945.651 0.374102 -5.98632 0
M  V30 10080 H 947.33 0.0285433 -6.46994 0
M  V30 10081 N 947.462 1.57535 -0.0451378 0
M  V30 10082 C 948.409 2.11176 0.931313 0
M  V30 10083 C 949.379 1.01765 1.31275 0
M  V30 10084 O 950.564 1.29279 1.40327 0
M  V30 10085 C 947.704 2.65639 2.20295 0
M  V30 10086 C 946.817 3.89114 1.87654 0
M  V30 10087 C 945.952 4.31914 3.09232 0
M  V30 10088 C 944.991 5.48105 2.72484 0
M  V30 10089 N 944.128 5.85986 3.86736 0
M  V30 10090 H 948.968 2.94318 0.466986 0
M  V30 10091 H 946.505 1.45462 0.218886 0
M  V30 10092 H 948.463 2.95312 2.94697 0
M  V30 10093 H 947.093 1.85303 2.64316 0
M  V30 10094 H 946.145 3.6607 1.03427 0
M  V30 10095 H 947.457 4.7358 1.56601 0
M  V30 10096 H 946.611 4.63108 3.91939 0
M  V30 10097 H 945.35 3.46247 3.43459 0
M  V30 10098 H 944.355 5.16589 1.88192 0
M  V30 10099 H 945.58 6.35482 2.39455 0
M  V30 10100 H 943.526 5.03273 4.20775 0
M  V30 10101 H 943.443 6.65129 3.5936 0
M  V30 10102 H 944.711 6.21793 4.701 0
M  V30 10103 N 948.94 -0.228186 1.55939 0
M  V30 10104 C 950.188 -0.951668 1.78291 0
M  V30 10105 C 950.509 -1.85132 0.612474 0
M  V30 10106 O 949.779 -1.92356 -0.370942 0
M  V30 10107 H 948.359 -0.354388 0.657585 0
M  V30 10108 H 951.021 -0.241635 1.93396 0
M  V30 10109 H 950.117 -1.56239 2.70177 0
M  V30 10110 N 950.418 -1.49637 -0.494624 0
M  V30 10111 C 951.381 -1.66252 -1.57775 0
M  V30 10112 C 952.381 -0.534054 -1.51672 0
M  V30 10113 O 953.571 -0.800637 -1.54711 0
M  V30 10114 C 950.703 -1.66584 -2.97426 0
M  V30 10115 H 951.896 -2.62864 -1.4437 0
M  V30 10116 H 949.449 -1.38764 -0.719323 0
M  V30 10117 H 950.184 -0.715798 -3.16302 0
M  V30 10118 H 949.969 -2.48543 -3.03264 0
M  V30 10119 H 951.459 -1.81474 -3.76108 0
M  V30 10120 N 951.896 0.746133 -1.38819 0
M  V30 10121 C 953.124 1.53539 -1.38685 0
M  V30 10122 C 953.539 1.88788 0.0215039 0
M  V30 10123 O 952.896 1.53312 0.990031 0
M  V30 10124 C 952.947 2.8299 -2.24942 0
M  V30 10125 O 952.668 2.49242 -3.60292 0
M  V30 10126 C 954.169 3.77085 -2.3307 0
M  V30 10127 H 951.389 0.474842 -0.474095 0
M  V30 10128 H 953.933 0.922844 -1.82493 0
M  V30 10129 H 952.088 3.40603 -1.84576 0
M  V30 10130 H 952.502 3.32319 -4.05789 0
M  V30 10131 H 953.976 4.64845 -2.97696 0
M  V30 10132 H 954.453 4.18049 -1.34655 0
M  V30 10133 H 955.059 3.25394 -2.73859 0
M  V30 10134 N 953.375 1.23811 0.975125 0
M  V30 10135 C 954.621 1.07495 1.71967 0
M  V30 10136 C 954.954 -0.386451 1.90316 0
M  V30 10137 O 954.229 -1.28591 1.45927 0
M  V30 10138 C 954.512 1.80694 3.11483 0
M  V30 10139 C 954.365 3.3454 3.00671 0
M  V30 10140 C 955.684 1.57367 4.11003 0
M  V30 10141 H 952.803 0.3919 0.624166 0
M  V30 10142 H 955.445 1.52383 1.13487 0
M  V30 10143 H 953.595 1.42538 3.61407 0
M  V30 10144 H 955.267 3.8225 2.5823 0
M  V30 10145 H 953.51 3.63301 2.37054 0
M  V30 10146 H 954.181 3.80951 3.99475 0
M  V30 10147 H 956.657 1.90545 3.69908 0
M  V30 10148 H 955.533 2.11052 5.06703 0
M  V30 10149 H 955.794 0.510221 4.39146 0
M  V30 10150 N 954.853 -1.17469 1.05066 0
M  V30 10151 C 956.101 -1.87327 0.758485 0
M  V30 10152 C 956.422 -1.81358 -0.716549 0
M  V30 10153 O 955.692 -1.23868 -1.51768 0
M  V30 10154 H 954.272 -0.693512 0.277579 0
M  V30 10155 H 956.934 -1.4251 1.32954 0
M  V30 10156 H 956.03 -2.93101 1.0723 0
M  V30 10157 N 956.331 -0.831506 -1.3388 0
M  V30 10158 C 957.278 -0.257449 -2.2936 0
M  V30 10159 C 958.248 0.622604 -1.5399 0
M  V30 10160 O 959.433 0.562432 -1.82322 0
M  V30 10161 C 956.573 0.567587 -3.404 0
M  V30 10162 C 955.686 -0.335666 -4.30694 0
M  V30 10163 C 954.821 0.499762 -5.28844 0
M  V30 10164 C 953.86 -0.402343 -6.10776 0
M  V30 10165 N 952.997 0.39452 -7.00991 0
M  V30 10166 H 957.837 -1.077 -2.77857 0
M  V30 10167 H 955.374 -0.542589 -1.36727 0
M  V30 10168 H 957.332 1.06133 -4.03474 0
M  V30 10169 H 955.962 1.35217 -2.93115 0
M  V30 10170 H 955.014 -0.94768 -3.68406 0
M  V30 10171 H 956.326 -1.02896 -4.88072 0
M  V30 10172 H 955.48 1.05763 -5.9741 0
M  V30 10173 H 954.219 1.22652 -4.72025 0
M  V30 10174 H 953.224 -0.972288 -5.41135 0
M  V30 10175 H 954.449 -1.12735 -6.69677 0
M  V30 10176 H 952.395 1.1048 -6.4663 0
M  V30 10177 H 952.312 -0.240209 -7.55618 0
M  V30 10178 H 953.58 0.934867 -7.73874 0
M  V30 10179 N 957.809 1.4625 -0.587256 0
M  V30 10180 C 958.739 2.33132 0.131076 0
M  V30 10181 C 959.72 1.45619 0.879158 0
M  V30 10182 O 960.905 1.74428 0.853723 0
M  V30 10183 C 958.035 3.27975 1.14236 0
M  V30 10184 C 956.989 4.24965 0.508819 0
M  V30 10185 C 956.315 5.09349 1.62689 0
M  V30 10186 C 957.615 5.19322 -0.55694 0
M  V30 10187 H 959.309 2.93442 -0.594333 0
M  V30 10188 H 956.855 1.41106 -0.287263 0
M  V30 10189 H 958.808 3.87614 1.65328 0
M  V30 10190 H 957.532 2.65781 1.8981 0
M  V30 10191 H 956.191 3.66595 0.0189337 0
M  V30 10192 H 955.839 4.43537 2.37242 0
M  V30 10193 H 955.539 5.75036 1.20861 0
M  V30 10194 H 957.063 5.71852 2.14049 0
M  V30 10195 H 958.477 5.73151 -0.130903 0
M  V30 10196 H 956.874 5.93376 -0.895801 0
M  V30 10197 H 957.944 4.62979 -1.44148 0
M  V30 10198 N 959.287 0.325282 1.54207 0
M  V30 10199 C 960.25 -0.527228 2.23054 0
M  V30 10200 C 961.25 -1.04217 1.22456 0
M  V30 10201 O 962.44 -0.934325 1.47024 0
M  V30 10202 C 959.572 -1.7325 2.93594 0
M  V30 10203 H 960.765 0.0746423 2.99807 0
M  V30 10204 H 958.318 0.0763872 1.56113 0
M  V30 10205 H 959.053 -2.37356 2.20981 0
M  V30 10206 H 958.838 -1.37065 3.67363 0
M  V30 10207 H 960.328 -2.3376 3.46043 0
M  V30 10208 N 960.765 -1.57509 0.0534917 0
M  V30 10209 C 961.697 -2.08616 -0.949322 0
M  V30 10210 C 962.71 -1.01446 -1.27328 0
M  V30 10211 O 963.899 -1.29007 -1.23367 0
M  V30 10212 C 960.999 -2.51622 -2.27024 0
M  V30 10213 C 960.172 -3.82154 -2.12785 0
M  V30 10214 C 959.231 -4.11448 -3.2802 0
M  V30 10215 O 958.257 -4.81333 -3.03822 0
M  V30 10216 N 959.459 -3.63543 -4.52567 0
M  V30 10217 H 962.224 -2.95275 -0.5131 0
M  V30 10218 H 959.785 -1.61355 -0.132693 0
M  V30 10219 H 961.777 -2.68293 -3.02986 0
M  V30 10220 H 960.347 -1.70198 -2.62205 0
M  V30 10221 H 959.567 -3.75041 -1.21399 0
M  V30 10222 H 960.855 -4.67629 -2.00501 0
M  V30 10223 H 960.253 -3.07051 -4.75117 0
M  V30 10224 H 958.81 -3.85448 -5.25617 0
M  V30 10225 N 962.243 0.219913 -1.56058 0
M  V30 10226 C 963.206 1.25606 -1.91718 0
M  V30 10227 C 964.206 1.39721 -0.795912 0
M  V30 10228 O 965.396 1.37958 -1.06364 0
M  V30 10229 C 962.528 2.62961 -2.16943 0
M  V30 10230 H 963.721 0.951909 -2.84392 0
M  V30 10231 H 961.274 0.460398 -1.49365 0
M  V30 10232 H 962.009 2.98472 -1.26826 0
M  V30 10233 H 961.794 2.54093 -2.98629 0
M  V30 10234 H 963.284 3.37727 -2.45622 0
M  V30 10235 N 963.721 1.49897 0.486681 0
M  V30 10236 C 964.651 1.7054 1.59494 0
M  V30 10237 C 965.632 0.554184 1.60819 0
M  V30 10238 O 966.817 0.791617 1.77333 0
M  V30 10239 C 963.947 1.78517 2.97908 0
M  V30 10240 C 962.901 2.93571 3.11449 0
M  V30 10241 C 962.227 2.86674 4.51356 0
M  V30 10242 C 963.527 4.34308 2.90127 0
M  V30 10243 H 965.221 2.63329 1.42472 0
M  V30 10244 H 962.767 1.2672 0.683969 0
M  V30 10245 H 964.72 1.91544 3.75352 0
M  V30 10246 H 963.444 0.823381 3.16051 0
M  V30 10247 H 962.103 2.80169 2.36433 0
M  V30 10248 H 961.751 1.88373 4.66395 0
M  V30 10249 H 961.451 3.63903 4.61355 0
M  V30 10250 H 962.975 3.01728 5.30841 0
M  V30 10251 H 964.389 4.48317 3.57331 0
M  V30 10252 H 962.786 5.12869 3.11585 0
M  V30 10253 H 963.856 4.47759 1.86119 0
M  V30 10254 N 965.199 -0.738761 1.39212 0
M  V30 10255 C 966.149 -1.84376 1.34125 0
M  V30 10256 C 967.133 -1.5935 0.222793 0
M  V30 10257 O 968.325 -1.70918 0.460014 0
M  V30 10258 C 965.454 -3.22261 1.18334 0
M  V30 10259 C 964.54 -3.53129 2.34864 0
M  V30 10260 N 964.931 -3.54957 3.60332 0
M  V30 10261 C 963.229 -3.83472 2.27739 0
M  V30 10262 C 963.93 -3.83513 4.3737 0
M  V30 10263 N 962.906 -4.01097 3.66909 0
M  V30 10264 H 966.708 -1.84089 2.29104 0
M  V30 10265 H 964.222 -0.936826 1.32655 0
M  V30 10266 H 966.219 -4.01358 1.12772 0
M  V30 10267 H 964.879 -3.23789 0.243016 0
M  V30 10268 H 965.89 -3.36359 3.93806 0
M  V30 10269 H 962.567 -3.92628 1.41949 0
M  V30 10270 H 963.957 -3.91427 5.46109 0
M  V30 10271 N 966.677 -1.24326 -0.968545 0
M  V30 10272 C 967.609 -0.992749 -2.06584 0
M  V30 10273 C 968.622 0.0374902 -1.62757 0
M  V30 10274 O 969.811 -0.199448 -1.77382 0
M  V30 10275 C 966.911 -0.476165 -3.35538 0
M  V30 10276 C 966.084 -1.56934 -4.08277 0
M  V30 10277 C 965.143 -1.05555 -5.15504 0
M  V30 10278 O 964.169 -1.74707 -5.41725 0
M  V30 10279 N 965.371 0.110465 -5.80395 0
M  V30 10280 H 968.136 -1.93752 -2.28649 0
M  V30 10281 H 965.697 -1.15344 -1.13611 0
M  V30 10282 H 967.689 -0.117223 -4.0453 0
M  V30 10283 H 966.259 0.374315 -3.10351 0
M  V30 10284 H 965.479 -2.10051 -3.33575 0
M  V30 10285 H 966.767 -2.30415 -4.53637 0
M  V30 10286 H 966.165 0.688614 -5.61493 0
M  V30 10287 H 964.722 0.41056 -6.50506 0
M  V30 10288 N 968.156 1.1691 -1.05688 0
M  V30 10289 C 969.396 1.88972 -0.779044 0
M  V30 10290 C 969.76 1.7949 0.681708 0
M  V30 10291 O 970.961 2.46418 1.07386 0
M  V30 10292 C 969.232 3.34737 -1.25242 0
M  V30 10293 S 970.791 4.24718 -1.10272 0
M  V30 10294 H 967.609 0.652349 -0.282776 0
M  V30 10295 H 970.211 1.41162 -1.35254 0
M  V30 10296 H 968.915 3.39175 -2.3106 0
M  V30 10297 H 968.446 3.87593 -0.673417 0
M  V30 10298 H 970.461 4.96191 -0.0299004 0
M  V30 10299 N 969.634 0.838594 1.33437 0
M  V30 10300 C 970.859 0.446701 2.02532 0
M  V30 10301 C 971.284 -0.944275 1.62681 0
M  V30 10302 O 970.642 -1.61733 0.81927 0
M  V30 10303 C 970.69 0.574794 3.55989 0
M  V30 10304 O 969.794 -0.399063 4.10465 0
M  V30 10305 H 969.135 0.181637 0.638674 0
M  V30 10306 H 971.665 1.13335 1.70342 0
M  V30 10307 H 971.675 0.456339 4.0544 0
M  V30 10308 H 970.35 1.58921 3.8434 0
M  V30 10309 H 968.927 -0.238187 3.72139 0
M  V30 10310 N 971.112 -1.45937 0.595003 0
M  V30 10311 C 972.528 -1.57507 0.257641 0
M  V30 10312 C 972.728 -1.58829 -1.23998 0
M  V30 10313 O 971.784 -1.51183 -2.02237 0
M  V30 10314 C 973.097 -2.86354 0.917708 0
M  V30 10315 C 974.645 -3.00007 0.892446 0
M  V30 10316 C 975.12 -4.31607 1.53229 0
M  V30 10317 N 976.611 -4.38336 1.49719 0
M  V30 10318 C 977.346 -5.38805 1.96154 0
M  V30 10319 N 976.842 -6.45882 2.50617 0
M  V30 10320 N 978.635 -5.30084 1.86997 0
M  V30 10321 H 970.786 -1.43322 1.56756 0
M  V30 10322 H 973.049 -0.684436 0.655936 0
M  V30 10323 H 972.755 -2.91233 1.97171 0
M  V30 10324 H 972.629 -3.74703 0.433344 0
M  V30 10325 H 975.016 -2.94703 -0.152975 0
M  V30 10326 H 975.097 -2.13103 1.41495 0
M  V30 10327 H 974.741 -4.3767 2.57697 0
M  V30 10328 H 974.671 -5.17308 0.984903 0
M  V30 10329 H 977.162 -3.6156 1.09921 0
M  V30 10330 H 977.475 -7.18774 2.83874 0
M  V30 10331 H 975.82 -6.46668 2.54649 0
M  V30 10332 H 979.011 -4.45337 1.44196 0
M  V30 10333 H 979.184 -6.08237 2.23499 0
M  V30 10334 N 972.59 -0.333456 -1.54032 0
M  V30 10335 C 973.839 0.267081 -1.99924 0
M  V30 10336 C 974.152 1.52463 -1.22534 0
M  V30 10337 O 975.358 2.20178 -1.58852 0
M  V30 10338 C 973.814 0.526456 -3.56029 0
M  V30 10339 C 973.422 -0.714607 -4.42264 0
M  V30 10340 C 975.166 1.0864 -4.10363 0
M  V30 10341 C 973.073 -0.42659 -5.89859 0
M  V30 10342 H 972.003 0.103577 -0.746852 0
M  V30 10343 H 974.654 -0.447218 -1.77967 0
M  V30 10344 H 973.036 1.3012 -3.74012 0
M  V30 10345 H 974.21 -1.48968 -4.36056 0
M  V30 10346 H 972.525 -1.19547 -3.9887 0
M  V30 10347 H 975.122 1.31668 -5.18235 0
M  V30 10348 H 975.465 2.03884 -3.62956 0
M  V30 10349 H 975.998 0.37261 -3.96051 0
M  V30 10350 H 972.737 -1.34847 -6.4148 0
M  V30 10351 H 972.257 0.310588 -5.98995 0
M  V30 10352 H 973.936 -0.0400807 -6.46988 0
M  V30 10353 N 974.068 1.57479 -0.061844 0
M  V30 10354 C 975.345 1.84484 0.649993 0
M  V30 10355 C 975.725 0.952366 1.88396 0
M  V30 10356 O 975.073 0.0161035 2.28494 0
M  V30 10357 C 975.283 3.34452 0.997133 0
M  V30 10358 C 976.631 4.01724 1.37488 0
M  V30 10359 O 977.655 3.3914 1.08916 0
M  V30 10360 O 976.514 5.12091 1.90854 0
M  V30 10361 H 973.608 0.761798 0.321858 0
M  V30 10362 H 976.154 1.6945 -0.0920192 0
M  V30 10363 H 974.926 3.91115 0.120301 0
M  V30 10364 H 974.549 3.54713 1.79624 0
M  V30 10365 N 975.546 -0.211634 1.56173 0
M  V30 10366 C 976.476 -1.26533 1.96244 0
M  V30 10367 C 977.457 -1.48362 0.832028 0
M  V30 10368 O 978.642 -1.60378 1.0951 0
M  V30 10369 C 975.772 -2.61307 2.2877 0
M  V30 10370 C 974.726 -2.54119 3.44395 0
M  V30 10371 C 974.052 -3.93014 3.62552 0
M  V30 10372 C 975.352 -2.08046 4.79076 0
M  V30 10373 H 977.046 -0.932407 2.84511 0
M  V30 10374 H 974.592 -0.447084 1.36884 0
M  V30 10375 H 976.545 -3.35188 2.55396 0
M  V30 10376 H 975.269 -2.96307 1.37367 0
M  V30 10377 H 973.928 -1.82694 3.17834 0
M  V30 10378 H 973.576 -4.25338 2.68508 0
M  V30 10379 H 973.276 -3.89083 4.40327 0
M  V30 10380 H 974.8 -4.68542 3.91537 0
M  V30 10381 H 976.214 -2.71676 5.04842 0
M  V30 10382 H 974.611 -2.15154 5.60204 0
M  V30 10383 H 975.681 -1.03306 4.73768 0
M  V30 10384 N 977.024 -1.50153 -0.478725 0
M  V30 10385 C 977.954 -1.71384 -1.58587 0
M  V30 10386 C 978.935 -0.562705 -1.60523 0
M  V30 10387 O 980.12 -0.80101 -1.76911 0
M  V30 10388 C 977.25 -1.80094 -2.96957 0
M  V30 10389 C 976.204 -2.95218 -3.09888 0
M  V30 10390 C 975.53 -2.89063 -4.49829 0
M  V30 10391 C 976.83 -4.35841 -2.8782 0
M  V30 10392 H 978.524 -2.64081 -1.41073 0
M  V30 10393 H 976.07 -1.27081 -0.677239 0
M  V30 10394 H 978.023 -1.93531 -3.74331 0
M  V30 10395 H 976.747 -0.840131 -3.1561 0
M  V30 10396 H 975.406 -2.81419 -2.34944 0
M  V30 10397 H 975.054 -1.90844 -4.6539 0
M  V30 10398 H 974.754 -3.66345 -4.59418 0
M  V30 10399 H 976.278 -3.04539 -5.29234 0
M  V30 10400 H 977.692 -4.50205 -3.54948 0
M  V30 10401 H 976.089 -5.14515 -3.0886 0
M  V30 10402 H 977.159 -4.48739 -1.83742 0
M  V30 10403 N 978.502 0.731368 -1.39602 0
M  V30 10404 C 979.727 1.52567 -1.40492 0
M  V30 10405 C 980.152 1.881 -0.00228828 0
M  V30 10406 O 979.51 1.52167 0.985643 0
M  V30 10407 C 979.558 2.78749 -2.2876 0
M  V30 10408 O 978.662 3.7482 -1.71999 0
M  V30 10409 H 978.003 0.460601 -0.478271 0
M  V30 10410 H 980.533 0.902042 -1.83642 0
M  V30 10411 H 980.543 3.27446 -2.43399 0
M  V30 10412 H 979.218 2.5222 -3.30693 0
M  V30 10413 H 977.795 3.33604 -1.66622 0
M  V30 10414 N 979.98 1.24838 0.961938 0
M  V30 10415 C 981.205 1.11967 1.7458 0
M  V30 10416 C 981.63 -0.323287 1.85301 0
M  V30 10417 O 980.988 -1.23412 1.32812 0
M  V30 10418 C 981.036 1.77066 3.14134 0
M  V30 10419 O 980.14 1.04534 3.98932 0
M  V30 10420 H 979.481 0.391338 0.536424 0
M  V30 10421 H 982.011 1.65259 1.20626 0
M  V30 10422 H 982.021 1.83056 3.64629 0
M  V30 10423 H 980.696 2.82052 3.05646 0
M  V30 10424 H 979.273 1.06372 3.57407 0
M  V30 10425 N 981.458 -1.16348 1.06306 0
M  V30 10426 C 982.388 -2.2291 0.695234 0
M  V30 10427 C 983.369 -1.67208 -0.312343 0
M  V30 10428 O 984.554 -1.93293 -0.187442 0
M  V30 10429 C 981.684 -3.47205 0.0810149 0
M  V30 10430 C 980.638 -4.15801 1.01458 0
M  V30 10431 C 979.964 -5.3405 0.263656 0
M  V30 10432 C 981.264 -4.66766 2.34365 0
M  V30 10433 H 982.958 -2.53934 1.58613 0
M  V30 10434 H 980.504 -1.22056 0.76409 0
M  V30 10435 H 982.457 -4.2098 -0.18818 0
M  V30 10436 H 981.181 -3.15482 -0.844897 0
M  V30 10437 H 979.84 -3.43954 1.26852 0
M  V30 10438 H 979.488 -4.9858 -0.665378 0
M  V30 10439 H 979.188 -5.80885 0.88582 0
M  V30 10440 H 980.712 -6.106 0.00200994 0
M  V30 10441 H 982.126 -5.3212 2.13356 0
M  V30 10442 H 980.523 -5.24223 2.9208 0
M  V30 10443 H 981.593 -3.82969 2.97426 0
M  V30 10444 N 982.937 -0.845659 -1.3299 0
M  V30 10445 C 984.186 -0.440928 -1.96822 0
M  V30 10446 C 984.499 1.00668 -1.67706 0
M  V30 10447 O 985.705 1.51641 -2.25205 0
M  V30 10448 C 984.161 -0.73752 -3.52262 0
M  V30 10449 C 983.769 -2.20026 -3.90247 0
M  V30 10450 C 985.513 -0.400072 -4.22611 0
M  V30 10451 C 983.42 -2.44054 -5.38694 0
M  V30 10452 H 982.35 -0.161148 -0.736578 0
M  V30 10453 H 985.001 -1.03519 -1.51513 0
M  V30 10454 H 983.383 -0.0728025 -3.95933 0
M  V30 10455 H 984.557 -2.90602 -3.57613 0
M  V30 10456 H 982.872 -2.50135 -3.32899 0
M  V30 10457 H 985.469 -0.557136 -5.3179 0
M  V30 10458 H 985.812 0.657547 -4.11074 0
M  V30 10459 H 986.345 -1.0203 -3.84493 0
M  V30 10460 H 983.084 -3.48407 -5.55241 0
M  V30 10461 H 982.604 -1.78047 -5.72765 0
M  V30 10462 H 984.283 -2.27549 -6.05665 0
M  V30 10463 N 984.415 1.45619 -0.602734 0
M  V30 10464 C 985.645 2.06348 -0.102105 0
M  V30 10465 C 986.053 1.44884 1.21677 0
M  V30 10466 O 985.396 0.555559 1.75098 0
M  V30 10467 C 985.458 3.59309 0.117026 0
M  V30 10468 C 985.122 4.43081 -1.11931 0
M  V30 10469 C 986.119 4.78364 -2.03627 0
M  V30 10470 C 983.804 4.83908 -1.34677 0
M  V30 10471 C 985.798 5.53325 -3.16403 0
M  V30 10472 C 983.485 5.58624 -2.47754 0
M  V30 10473 C 984.483 5.93249 -3.38445 0
M  V30 10474 O 984.171 6.6645 -4.49555 0
M  V30 10475 H 983.903 0.672988 -0.0637478 0
M  V30 10476 H 986.457 1.87928 -0.828983 0
M  V30 10477 H 984.687 3.76111 0.898742 0
M  V30 10478 H 986.376 4.01897 0.568649 0
M  V30 10479 H 987.142 4.47384 -1.87277 0
M  V30 10480 H 983.021 4.56396 -0.649875 0
M  V30 10481 H 986.565 5.80268 -3.87214 0
M  V30 10482 H 982.462 5.89019 -2.64059 0
M  V30 10483 H 983.23 6.84895 -4.48175 0
M  V30 10484 N 985.893 0.34162 1.53853 0
M  V30 10485 C 987.139 -0.255862 2.01179 0
M  V30 10486 C 987.472 -1.50356 1.22909 0
M  V30 10487 O 986.747 -1.91913 0.316198 0
M  V30 10488 C 987.03 -0.571934 3.55529 0
M  V30 10489 C 986.883 0.687727 4.44511 0
M  V30 10490 C 988.202 -1.38233 4.17827 0
M  V30 10491 H 985.321 -0.091521 0.731295 0
M  V30 10492 H 987.963 0.461775 1.84303 0
M  V30 10493 H 986.113 -1.18331 3.70041 0
M  V30 10494 H 987.785 1.32572 4.4184 0
M  V30 10495 H 986.028 1.313 4.13452 0
M  V30 10496 H 986.699 0.421858 5.50386 0
M  V30 10497 H 989.175 -0.865374 4.07002 0
M  V30 10498 H 988.051 -1.57223 5.25901 0
M  V30 10499 H 988.312 -2.38386 3.72323 0
M  V30 10500 N 987.371 -1.57444 0.0701946 0
M  V30 10501 C 988.596 -1.98171 -0.61181 0
M  V30 10502 C 989.021 -0.94823 -1.62451 0
M  V30 10503 O 988.379 0.0863553 -1.81094 0
M  V30 10504 C 988.427 -3.37934 -1.2583 0
M  V30 10505 O 987.531 -3.37207 -2.37414 0
M  V30 10506 H 986.872 -0.645056 -0.157477 0
M  V30 10507 H 989.402 -2.04091 0.144235 0
M  V30 10508 H 989.412 -3.75083 -1.60552 0
M  V30 10509 H 988.087 -4.12684 -0.516234 0
M  V30 10510 H 986.664 -3.11826 -2.04497 0
M  V30 10511 N 988.849 0.203349 -1.56283 0
M  V30 10512 C 989.781 1.27592 -1.90402 0
M  V30 10513 C 990.794 1.4213 -0.79391 0
M  V30 10514 O 991.983 1.42703 -1.07229 0
M  V30 10515 C 989.083 2.64919 -2.11356 0
M  V30 10516 C 988.256 2.72095 -3.42466 0
M  V30 10517 C 987.315 3.9056 -3.52631 0
M  V30 10518 O 986.341 3.78048 -4.25521 0
M  V30 10519 N 987.543 5.0566 -2.85111 0
M  V30 10520 H 990.308 0.986423 -2.83001 0
M  V30 10521 H 987.869 0.39331 -1.5705 0
M  V30 10522 H 989.861 3.42581 -2.15453 0
M  V30 10523 H 988.431 2.86391 -1.25295 0
M  V30 10524 H 987.651 1.8077 -3.50308 0
M  V30 10525 H 988.939 2.73874 -4.28801 0
M  V30 10526 H 988.337 5.18723 -2.25705 0
M  V30 10527 H 986.894 5.81299 -2.94847 0
M  V30 10528 N 990.327 1.50405 0.470755 0
M  V30 10529 C 991.275 1.6982 1.58946 0
M  V30 10530 C 992.269 0.56407 1.59733 0
M  V30 10531 O 993.475 0.744576 1.63878 0
M  V30 10532 H 989.85 0.536016 0.527438 0
M  V30 10533 H 991.821 2.63662 1.39732 0
M  V30 10534 C 990.57 1.80986 2.96883 0
M  V30 10535 H 989.893 2.67645 2.96996 0
M  V30 10536 H 991.333 1.98596 3.74614 0
M  V30 10537 C 989.792 0.561551 3.32187 0
M  V30 10538 O 990.322 -0.299136 4.00585 0
M  V30 10539 N 988.528 0.415476 2.87615 0
M  V30 10540 H 988.075 1.11691 2.32127 0
M  V30 10541 H 988.033 -0.418592 3.11601 0
M  V30 10542 O 991.844 -0.616299 1.49278 0
M  V30 10543 H 992.535 -1.27072 1.46193 0
M  V30 END ATOM
M  V30 BEGIN BOND
M  V30 END BOND
M  V30 END CTAB
M  END
$$$$
