drugbank_target|P14618 Pyruvate kinase PKM (DB00119; DB01733; DB02726; DB07628; DB07692; DB07697; DB09130; DB11638)
 OpenBabel12092119243D

  0  0  0     0  0            999 V3000
M  V30 BEGIN CTAB
M  V30 COUNTS 8204 8271 0 0 0
M  V30 BEGIN ATOM
M  V30 1 H -0.908 1.98254 -0.117106 0
M  V30 2 N 0 1.576 0 0
M  V30 3 C 0.933 2.03868 1.02534 0
M  V30 4 C 1.911 0.928543 1.3348 0
M  V30 5 O 3.095 1.19667 1.45644 0
M  V30 6 C 0.222 2.43627 2.35294 0
M  V30 7 C -0.732 3.65373 2.2001 0
M  V30 8 S 0.101 5.13292 1.52614 0
M  V30 9 C 1.257 5.56322 2.86805 0
M  V30 10 H 1.49 2.90518 0.631377 0
M  V30 11 H -0.977 1.52953 0.210867 0
M  V30 12 H 0.981 2.67203 3.11629 0
M  V30 13 H -0.358 1.57376 2.7183 0
M  V30 14 H -1.165 3.90944 3.18086 0
M  V30 15 H -1.563 3.418 1.51819 0
M  V30 16 H 0.729 5.58782 3.83104 0
M  V30 17 H 1.672 6.56266 2.65933 0
M  V30 18 H 2.08 4.83886 2.90714 0
M  V30 19 N 1.4781 -0.272755 1.55222 0
M  V30 20 C 2.7031 -1.02683 1.80197 0
M  V30 21 C 3.1281 -1.79142 0.573551 0
M  V30 22 O 2.4861 -1.74917 -0.476849 0
M  V30 23 C 2.5341 -1.9609 3.02624 0
M  V30 24 O 1.6381 -3.04863 2.77727 0
M  V30 25 H 0.9791 -0.293557 0.595584 0
M  V30 26 H 3.5091 -0.30159 2.02365 0
M  V30 27 H 3.5191 -2.38039 3.31363 0
M  V30 28 H 2.1941 -1.39851 3.91682 0
M  V30 29 H 0.7711 -2.67228 2.60084 0
M  V30 30 N 2.9562 -1.48159 -0.537278 0
M  V30 31 C 3.9032 -1.62138 -1.64256 0
M  V30 32 C 4.8732 -0.463668 -1.59497 0
M  V30 33 O 6.0582 -0.686241 -1.78032 0
M  V30 34 C 3.1982 -1.66028 -3.02537 0
M  V30 35 C 2.3112 -2.92855 -3.17585 0
M  V30 36 C 1.4462 -2.87952 -4.46382 0
M  V30 37 C 0.4852 -4.09516 -4.54932 0
M  V30 38 N -0.3778 -4.02733 -5.75109 0
M  V30 39 H 4.4622 -2.56529 -1.51647 0
M  V30 40 H 1.9992 -1.27224 -0.738414 0
M  V30 41 H 3.9572 -1.66265 -3.82638 0
M  V30 42 H 2.5872 -0.751331 -3.13934 0
M  V30 43 H 1.6392 -3.02395 -2.30784 0
M  V30 44 H 2.9512 -3.82822 -3.19764 0
M  V30 45 H 2.1052 -2.8655 -5.34765 0
M  V30 46 H 0.8442 -1.95702 -4.46712 0
M  V30 47 H -0.1508 -4.11201 -3.64957 0
M  V30 48 H 1.0742 -5.02917 -4.56346 0
M  V30 49 H -0.9798 -3.13299 -5.76351 0
M  V30 50 H -1.0628 -4.86397 -5.78752 0
M  V30 51 H 0.2052 -4.05379 -6.65799 0
M  V30 52 N 4.4343 0.785586 -1.36625 0
M  V30 53 C 5.8453 1.36101 -1.27803 0
M  V30 54 C 6.1963 1.96035 0.0804875 0
M  V30 55 O 5.3213 1.92834 0.982042 0
M  V30 56 C 5.9163 2.47442 -2.31426 0
M  V30 57 C 4.4753 3.00789 -2.26281 0
M  V30 58 C 3.6223 1.73896 -2.15999 0
M  V30 59 H 6.5733 0.586928 -1.47448 0
M  V30 60 H 6.5943 3.2656 -1.95291 0
M  V30 61 H 6.1063 2.03791 -3.30289 0
M  V30 62 H 4.2073 3.48851 -1.30896 0
M  V30 63 H 4.3203 3.57343 -3.19128 0
M  V30 64 H 2.6843 1.9628 -1.62316 0
M  V30 65 H 3.4673 1.32368 -3.16755 0
M  V30 66 N 5.9124 1.20967 1.01018 0
M  V30 67 C 6.8624 0.93182 2.08089 0
M  V30 68 C 7.8464 -0.110898 1.60517 0
M  V30 69 O 9.0384 0.0973392 1.76732 0
M  V30 70 C 6.1674 0.492719 3.39746 0
M  V30 71 C 5.2534 1.56922 3.94 0
M  V30 72 N 5.6444 2.79312 4.21686 0
M  V30 73 C 3.9424 1.43688 4.2222 0
M  V30 74 C 4.6434 3.48797 4.65527 0
M  V30 75 N 3.6194 2.76224 4.68189 0
M  V30 76 H 7.4214 1.86175 2.27412 0
M  V30 77 H 4.9354 1.10463 1.19045 0
M  V30 78 H 6.9324 0.275044 4.15992 0
M  V30 79 H 5.5924 -0.430509 3.21833 0
M  V30 80 H 6.6034 3.15903 4.10397 0
M  V30 81 H 3.2804 0.578548 4.13472 0
M  V30 82 H 4.6704 4.53561 4.95714 0
M  V30 83 N 7.3905 -1.2043 1.01659 0
M  V30 84 C 8.6155 -1.94318 0.724942 0
M  V30 85 C 9.0405 -1.74266 -0.708034 0
M  V30 86 O 8.3985 -1.03694 -1.48719 0
M  V30 87 C 8.4465 -3.44486 1.06591 0
M  V30 88 O 7.5505 -4.12017 0.177599 0
M  V30 89 H 6.8915 -0.60708 0.26898 0
M  V30 90 H 9.4215 -1.52861 1.35995 0
M  V30 91 H 9.4315 -3.95106 1.01762 0
M  V30 92 H 8.1065 -3.58404 2.10997 0
M  V30 93 H 6.6835 -3.71821 0.283421 0
M  V30 94 N 8.8686 -0.792821 -1.36206 0
M  V30 95 C 9.7786 -0.194808 -2.3379 0
M  V30 96 C 10.7946 0.654869 -1.61206 0
M  V30 97 O 11.9706 0.569856 -1.9317 0
M  V30 98 C 9.0356 0.657721 -3.40404 0
M  V30 99 C 8.0966 -0.210849 -4.28782 0
M  V30 100 C 7.3296 0.601086 -5.30304 0
M  V30 101 O 7.5526 1.83682 -5.40016 0
M  V30 102 O 6.4866 -0.000808277 -6.019 0
M  V30 103 H 10.3126 -1.00172 -2.86704 0
M  V30 104 H 7.8976 -0.554341 -1.38735 0
M  V30 105 H 9.7796 1.14375 -4.05581 0
M  V30 106 H 8.4546 1.44247 -2.89784 0
M  V30 107 H 7.3616 -0.743714 -3.66633 0
M  V30 108 H 8.6946 -0.959195 -4.82763 0
M  V30 109 N 10.3467 1.47872 -0.545128 0
M  V30 110 C 11.3097 2.28337 0.198717 0
M  V30 111 C 12.3097 1.36255 0.853888 0
M  V30 112 O 13.4997 1.59003 0.711606 0
M  V30 113 C 10.6317 3.15585 1.28915 0
M  V30 114 H 11.8247 2.95567 -0.507941 0
M  V30 115 H 9.3777 1.53362 -0.301616 0
M  V30 116 H 10.1127 2.53019 2.02859 0
M  V30 117 H 9.8977 3.83337 0.824309 0
M  V30 118 H 11.3877 3.76243 1.81194 0
M  V30 119 N 11.8248 0.280983 1.55075 0
M  V30 120 C 13.0728 -0.333455 1.9933 0
M  V30 121 C 13.3938 -1.55937 1.17085 0
M  V30 122 O 12.6638 -1.94143 0.261805 0
M  V30 123 H 11.2438 -0.126197 0.736263 0
M  V30 124 H 13.9058 0.387678 1.91005 0
M  V30 125 H 13.0018 -0.619292 3.05894 0
M  V30 126 N 13.3029 -1.57598 0.00835791 0
M  V30 127 C 14.5309 -1.95214 -0.68549 0
M  V30 128 C 14.9459 -0.883706 -1.66841 0
M  V30 129 O 14.3029 0.136565 -1.81988 0
M  V30 130 C 14.3539 -3.32865 -1.41007 0
M  V30 131 O 14.0749 -4.35609 -0.466552 0
M  V30 132 C 15.5759 -3.84991 -2.19765 0
M  V30 133 H 12.7959 -0.643422 -0.190392 0
M  V30 134 H 15.3399 -2.04406 0.0619607 0
M  V30 135 H 13.4949 -3.24956 -2.10908 0
M  V30 136 H 13.9089 -5.15288 -0.978699 0
M  V30 137 H 15.3829 -4.8371 -2.65948 0
M  V30 138 H 15.8599 -3.18137 -3.02796 0
M  V30 139 H 16.4659 -3.96103 -1.54864 0
M  V30 140 N 14.781 0.264519 -1.55364 0
M  V30 141 C 15.744 1.31046 -1.88042 0
M  V30 142 C 16.744 1.41943 -0.755569 0
M  V30 143 O 17.934 1.40947 -1.02369 0
M  V30 144 C 15.066 2.69067 -2.09323 0
M  V30 145 H 16.259 1.03297 -2.81549 0
M  V30 146 H 13.812 0.502989 -1.47986 0
M  V30 147 H 14.547 3.01982 -1.18226 0
M  V30 148 H 14.332 2.62542 -2.91229 0
M  V30 149 H 15.822 3.44623 -2.35848 0
M  V30 150 N 16.2591 1.48442 0.529413 0
M  V30 151 C 17.5061 1.56488 1.28521 0
M  V30 152 C 17.8341 0.239042 1.93025 0
M  V30 153 O 17.0891 -0.770713 1.79885 0
M  V30 154 C 17.3881 2.6523 2.39558 0
M  V30 155 C 17.0541 4.07648 1.92702 0
M  V30 156 C 15.7161 4.46411 1.79641 0
M  V30 157 C 18.0681 4.96896 1.573 0
M  V30 158 C 15.3961 5.72226 1.29514 0
M  V30 159 C 17.7481 6.23202 1.08636 0
M  V30 160 C 16.4121 6.60821 0.941919 0
M  V30 161 H 15.6821 0.572631 0.470292 0
M  V30 162 H 18.3291 1.82161 0.59072 0
M  V30 163 H 16.6341 2.33419 3.14679 0
M  V30 164 H 18.3311 2.68671 2.97686 0
M  V30 165 H 14.9211 3.77036 2.03819 0
M  V30 166 H 19.1051 4.67626 1.66251 0
M  V30 167 H 14.3611 6.00097 1.17019 0
M  V30 168 H 18.5351 6.91753 0.803136 0
M  V30 169 H 16.1621 7.58198 0.5513 0
M  V30 170 N 17.7372 -0.778329 1.37039 0
M  V30 171 C 18.9862 -1.53189 1.3121 0
M  V30 172 C 19.2992 -1.95328 -0.103095 0
M  V30 173 O 20.5052 -2.70012 -0.283826 0
M  V30 174 C 18.9612 -2.76591 2.30272 0
M  V30 175 C 18.5692 -2.41577 3.77286 0
M  V30 176 C 20.3132 -3.5455 2.33441 0
M  V30 177 C 18.2202 -3.61441 4.68096 0
M  V30 178 H 17.1502 -0.5751 0.487622 0
M  V30 179 H 19.8012 -0.853101 1.62464 0
M  V30 180 H 18.1832 -3.46326 1.92027 0
M  V30 181 H 19.3572 -1.79668 4.2433 0
M  V30 182 H 17.6722 -1.76806 3.76999 0
M  V30 183 H 20.2692 -4.43628 2.98493 0
M  V30 184 H 20.6122 -3.93936 1.34611 0
M  V30 185 H 21.1452 -2.91805 2.7036 0
M  V30 186 H 17.8842 -3.27142 5.6803 0
M  V30 187 H 17.4042 -4.22478 4.25761 0
M  V30 188 H 19.0832 -4.28335 4.8491 0
M  V30 189 N 19.2153 -1.21501 -1.00376 0
M  V30 190 C 20.1473 -0.933174 -2.09343 0
M  V30 191 C 21.1603 0.0840896 -1.62583 0
M  V30 192 O 22.3493 -0.148563 -1.77881 0
M  V30 193 C 19.4493 -0.379869 -3.36764 0
M  V30 194 C 18.6223 -1.45176 -4.12605 0
M  V30 195 C 17.6813 -0.907476 -5.18316 0
M  V30 196 O 16.7073 -1.5912 -5.46507 0
M  V30 197 N 17.9093 0.276649 -5.7984 0
M  V30 198 H 20.6743 -1.87124 -2.34104 0
M  V30 199 H 18.2353 -1.12043 -1.16867 0
M  V30 200 H 20.2273 -0.00131488 -4.047 0
M  V30 201 H 18.7973 0.463048 -3.09151 0
M  V30 202 H 18.0173 -2.00411 -3.39454 0
M  V30 203 H 19.3053 -2.17328 -4.6005 0
M  V30 204 H 18.7033 0.849147 -5.59291 0
M  V30 205 H 17.2603 0.596702 -6.49063 0
M  V30 206 N 20.6934 1.19889 -1.02296 0
M  V30 207 C 21.9214 1.9339 -0.735399 0
M  V30 208 C 22.3364 1.75148 0.704887 0
M  V30 209 O 21.6934 1.06954 1.47875 0
M  V30 210 C 21.7444 3.45313 -1.06962 0
M  V30 211 O 21.4654 3.62964 -2.45334 0
M  V30 212 C 22.9664 4.35948 -0.804021 0
M  V30 213 H 20.1864 0.61448 -0.269546 0
M  V30 214 H 22.7304 1.522 -1.36585 0
M  V30 215 H 20.8854 3.84359 -0.484455 0
M  V30 216 H 21.2994 4.56886 -2.57595 0
M  V30 217 H 22.7734 5.41174 -1.0879 0
M  V30 218 H 23.2504 4.3842 0.261691 0
M  V30 219 H 23.8564 4.02574 -1.37164 0
M  V30 220 N 22.1715 0.800033 1.35784 0
M  V30 221 C 23.1035 0.163596 2.28615 0
M  V30 222 C 24.1165 -0.633317 1.49976 0
M  V30 223 O 25.3055 -0.466754 1.72289 0
M  V30 224 C 22.4055 -0.790958 3.29541 0
M  V30 225 C 21.5785 -0.0418255 4.3738 0
M  V30 226 C 20.6375 -0.91389 5.18203 0
M  V30 227 O 19.6635 -0.367234 5.68014 0
M  V30 228 N 20.8655 -2.23682 5.35674 0
M  V30 229 H 23.6305 0.96105 2.83873 0
M  V30 230 H 21.1915 0.654894 1.48063 0
M  V30 231 H 23.1835 -1.37844 3.80501 0
M  V30 232 H 21.7535 -1.48925 2.74846 0
M  V30 233 H 20.9735 0.726813 3.87442 0
M  V30 234 H 22.2615 0.474719 5.06581 0
M  V30 235 H 21.6595 -2.70497 4.96838 0
M  V30 236 H 20.2165 -2.77369 5.89839 0
M  V30 237 N 23.6496 -1.47581 0.552962 0
M  V30 238 C 24.5816 -2.27997 -0.234533 0
M  V30 239 C 25.5946 -1.36753 -0.883321 0
M  V30 240 O 26.7836 -1.61612 -0.757889 0
M  V30 241 C 23.8836 -3.10879 -1.34935 0
M  V30 242 C 23.0566 -4.30056 -0.798158 0
M  V30 243 C 22.1156 -4.94567 -1.79694 0
M  V30 244 O 21.1416 -5.53087 -1.34474 0
M  V30 245 N 22.3436 -4.88878 -3.13015 0
M  V30 246 H 25.1086 -2.96222 0.455255 0
M  V30 247 H 22.6696 -1.57163 0.388761 0
M  V30 248 H 24.6616 -3.50903 -2.01616 0
M  V30 249 H 23.2316 -2.44924 -1.94244 0
M  V30 250 H 22.4516 -3.94174 0.0453079 0
M  V30 251 H 23.7396 -5.07152 -0.409173 0
M  V30 252 H 23.1376 -4.42526 -3.52402 0
M  V30 253 H 21.6946 -5.32934 -3.75266 0
M  V30 254 N 25.1277 -0.289203 -1.54924 0
M  V30 255 C 26.0577 0.58549 -2.2604 0
M  V30 256 C 27.0387 1.14753 -1.25562 0
M  V30 257 O 28.2237 1.17906 -1.54311 0
M  V30 258 C 25.3537 1.76305 -2.99222 0
M  V30 259 C 24.3077 1.33191 -4.06748 0
M  V30 260 C 23.6337 2.5937 -4.6758 0
M  V30 261 C 24.9337 0.471775 -5.20165 0
M  V30 262 H 26.6277 -0.00763532 -2.99399 0
M  V30 263 H 24.1737 -0.00511229 -1.43999 0
M  V30 264 H 26.1267 2.38097 -3.47689 0
M  V30 265 H 24.8507 2.38223 -2.23422 0
M  V30 266 H 23.5097 0.737121 -3.59113 0
M  V30 267 H 23.1577 3.19576 -3.88433 0
M  V30 268 H 22.8577 2.31228 -5.40192 0
M  V30 269 H 24.3817 3.21985 -5.18804 0
M  V30 270 H 25.7957 0.995056 -5.64599 0
M  V30 271 H 24.1927 0.284639 -5.99425 0
M  V30 272 H 25.2627 -0.506041 -4.82252 0
M  V30 273 N 26.6058 1.57591 -0.0167156 0
M  V30 274 C 27.5558 2.05953 0.978137 0
M  V30 275 C 28.5398 0.957532 1.29306 0
M  V30 276 O 29.7318 1.22119 1.28125 0
M  V30 277 C 26.8608 2.58006 2.26468 0
M  V30 278 C 25.9468 3.75113 1.97867 0
M  V30 279 N 26.3378 4.86187 1.39486 0
M  V30 280 C 24.6358 3.83363 2.27924 0
M  V30 281 C 25.3368 5.67502 1.27735 0
M  V30 282 N 24.3128 5.14023 1.76866 0
M  V30 283 H 28.1148 2.89236 0.521522 0
M  V30 284 H 25.6288 1.61301 0.188596 0
M  V30 285 H 27.6258 2.90937 2.98599 0
M  V30 286 H 26.2858 1.76148 2.72767 0
M  V30 287 H 27.2968 5.06695 1.07147 0
M  V30 288 H 23.9738 3.1239 2.76982 0
M  V30 289 H 25.3638 6.66791 0.826978 0
M  V30 290 N 28.0839 -0.256276 1.55502 0
M  V30 291 C 29.0469 -1.30047 1.88734 0
M  V30 292 C 30.0469 -1.4154 0.763086 0
M  V30 293 O 31.2369 -1.40403 1.03115 0
M  V30 294 C 28.3689 -2.67953 2.10747 0
M  V30 295 H 29.5619 -1.01802 2.82093 0
M  V30 296 H 27.1149 -0.495134 1.4825 0
M  V30 297 H 27.8499 -3.01351 1.19825 0
M  V30 298 H 27.6349 -2.60993 2.92617 0
M  V30 299 H 29.1249 -3.43368 2.37673 0
M  V30 300 N 29.562 -1.4872 -0.521534 0
M  V30 301 C 30.525 -1.63379 -1.60748 0
M  V30 302 C 31.525 -0.50661 -1.52611 0
M  V30 303 O 32.715 -0.772601 -1.5613 0
M  V30 304 C 29.847 -1.61192 -3.00383 0
M  V30 305 H 31.04 -2.60217 -1.49087 0
M  V30 306 H 28.593 -1.37444 -0.744235 0
M  V30 307 H 29.328 -0.65863 -3.17541 0
M  V30 308 H 29.113 -2.43032 -3.07698 0
M  V30 309 H 30.603 -1.7466 -3.7932 0
M  V30 310 N 31.0401 0.771051 -1.3745 0
M  V30 311 C 31.9731 1.89166 -1.27638 0
M  V30 312 C 32.9511 1.61842 -0.156782 0
M  V30 313 O 34.1351 1.85569 -0.331111 0
M  V30 314 C 31.2621 3.24405 -0.973621 0
M  V30 315 C 30.3081 3.70638 -2.1102 0
M  V30 316 S 31.1411 3.84228 -3.73 0
M  V30 317 C 32.2971 5.22313 -3.44876 0
M  V30 318 H 32.5301 1.972 -2.22485 0
M  V30 319 H 30.0631 0.932224 -1.23081 0
M  V30 320 H 32.0211 4.02514 -0.805766 0
M  V30 321 H 30.6821 3.14071 -0.0426279 0
M  V30 322 H 29.8751 4.68685 -1.85338 0
M  V30 323 H 29.4771 2.99632 -2.23822 0
M  V30 324 H 31.7691 6.07505 -2.99908 0
M  V30 325 H 32.7121 5.53008 -4.42253 0
M  V30 326 H 33.1201 4.90284 -2.79789 0
M  V30 327 N 32.5182 1.22032 0.997298 0
M  V30 328 C 33.4812 0.987909 2.06816 0
M  V30 329 C 34.4812 -0.0440084 1.6074 0
M  V30 330 O 35.6712 0.194053 1.73116 0
M  V30 331 C 32.8032 0.49132 3.37341 0
M  V30 332 H 33.9962 1.93803 2.28868 0
M  V30 333 H 31.5492 1.03838 1.16822 0
M  V30 334 H 32.2842 -0.463364 3.20973 0
M  V30 335 H 32.0692 1.23575 3.72118 0
M  V30 336 H 33.5592 0.348824 4.16141 0
M  V30 337 N 33.9963 -1.19345 1.0293 0
M  V30 338 C 35.2733 -1.84811 0.640642 0
M  V30 339 C 35.6533 -1.91855 -0.88062 0
M  V30 340 O 35.0013 -1.43587 -1.7775 0
M  V30 341 C 35.2113 -3.23755 1.30321 0
M  V30 342 C 36.5593 -3.99912 1.42673 0
M  V30 343 O 37.5833 -3.33155 1.26041 0
M  V30 344 O 36.4423 -5.19494 1.6967 0
M  V30 345 H 33.5363 -0.796443 0.222726 0
M  V30 346 H 36.0823 -1.26831 1.12748 0
M  V30 347 H 34.8543 -3.13466 2.34211 0
M  V30 348 H 34.4773 -3.89381 0.804261 0
M  V30 349 N 35.4744 -0.807222 -1.35358 0
M  V30 350 C 36.7024 -0.400377 -2.02989 0
M  V30 351 C 37.1174 0.988859 -1.60832 0
M  V30 352 O 36.4744 1.63729 -0.806175 0
M  V30 353 C 36.5254 -0.474867 -3.58368 0
M  V30 354 O 36.2464 -1.80933 -3.98992 0
M  V30 355 C 37.7474 -0.0609112 -4.43258 0
M  V30 356 H 34.9674 -0.162587 -0.651004 0
M  V30 357 H 37.5114 -1.09102 -1.72965 0
M  V30 358 H 35.6664 0.167534 -3.87038 0
M  V30 359 H 36.0804 -1.77256 -4.9364 0
M  V30 360 H 37.5544 -0.164145 -5.51756 0
M  V30 361 H 38.0314 0.993831 -4.27808 0
M  V30 362 H 38.6374 -0.676492 -4.19885 0
M  V30 363 N 36.9525 1.47285 -0.560781 0
M  V30 364 C 38.1995 2.02464 -0.038062 0
M  V30 365 C 38.5275 1.43474 1.31322 0
M  V30 366 O 37.7825 0.581311 1.86867 0
M  V30 367 C 38.0815 3.57258 0.100784 0
M  V30 368 C 37.7475 4.35184 -1.18007 0
M  V30 369 C 36.4095 4.56194 -1.53103 0
M  V30 370 C 38.7615 4.80098 -2.02867 0
M  V30 371 C 36.0895 5.19367 -2.729 0
M  V30 372 C 38.4415 5.44593 -3.21871 0
M  V30 373 C 37.1055 5.63835 -3.57276 0
M  V30 374 H 36.3755 0.740869 -0.0139279 0
M  V30 375 H 39.0225 1.76916 -0.733012 0
M  V30 376 H 37.3275 3.81819 0.878724 0
M  V30 377 H 39.0245 3.97606 0.520639 0
M  V30 378 H 35.6145 4.19113 -0.8968 0
M  V30 379 H 39.7985 4.63642 -1.7706 0
M  V30 380 H 35.0545 5.32459 -3.00496 0
M  V30 381 H 39.2285 5.78358 -3.87911 0
M  V30 382 H 36.8555 6.12557 -4.50197 0
M  V30 383 N 38.4306 0.297415 1.54768 0
M  V30 384 C 39.3606 -0.573494 2.26348 0
M  V30 385 C 40.3416 -1.14085 1.26169 0
M  V30 386 O 41.5266 -1.17086 1.54934 0
M  V30 387 C 38.6566 -1.74716 3.00153 0
M  V30 388 C 37.6106 -1.31032 4.07449 0
M  V30 389 C 36.9366 -2.56887 4.68949 0
M  V30 390 C 38.2366 -0.444183 5.20408 0
M  V30 391 H 39.9306 0.0235131 2.99391 0
M  V30 392 H 37.4766 0.0127488 1.43994 0
M  V30 393 H 39.4296 -2.3625 3.48947 0
M  V30 394 H 38.1536 -2.37035 2.24682 0
M  V30 395 H 36.8126 -0.718066 3.59499 0
M  V30 396 H 36.4606 -3.17512 3.90122 0
M  V30 397 H 36.1606 -2.2836 5.41411 0
M  V30 398 H 37.6846 -3.19229 5.20505 0
M  V30 399 H 39.0986 -0.9651 5.65118 0
M  V30 400 H 37.4956 -0.252846 5.99567 0
M  V30 401 H 38.5656 0.531609 4.81977 0
M  V30 402 N 39.9087 -1.5758 0.0250728 0
M  V30 403 C 40.8187 -2.1343 -0.973905 0
M  V30 404 C 41.8347 -1.08556 -1.35984 0
M  V30 405 O 43.0107 -1.40592 -1.44207 0
M  V30 406 C 40.0757 -2.64703 -2.23904 0
M  V30 407 C 39.1367 -3.84276 -1.91391 0
M  V30 408 C 38.3697 -4.33095 -3.11873 0
M  V30 409 O 38.5927 -3.81107 -4.24398 0
M  V30 410 O 37.5267 -5.24984 -2.94406 0
M  V30 411 H 41.3527 -2.99057 -0.529036 0
M  V30 412 H 38.9377 -1.48118 -0.195288 0
M  V30 413 H 40.8197 -2.97769 -2.98181 0
M  V30 414 H 39.4947 -1.82161 -2.6758 0
M  V30 415 H 38.4017 -3.56143 -1.14511 0
M  V30 416 H 39.7347 -4.67968 -1.52534 0
M  V30 417 N 41.3868 0.248026 -1.55636 0
M  V30 418 C 42.3368 1.30994 -1.86614 0
M  V30 419 C 43.3208 1.43543 -0.726918 0
M  V30 420 O 44.5128 1.46804 -0.988818 0
M  V30 421 C 41.6418 2.6656 -2.16335 0
M  V30 422 C 40.7278 2.58019 -3.36581 0
M  V30 423 N 41.1188 2.1911 -4.55878 0
M  V30 424 C 39.4168 2.89035 -3.39669 0
M  V30 425 C 40.1178 2.21174 -5.38012 0
M  V30 426 N 39.0938 2.60632 -4.77045 0
M  V30 427 H 42.8958 0.999583 -2.76379 0
M  V30 428 H 40.4098 0.456652 -1.55848 0
M  V30 429 H 42.4068 3.43194 -2.36692 0
M  V30 430 H 41.0668 2.98463 -1.27867 0
M  V30 431 H 42.0778 1.90672 -4.81523 0
M  V30 432 H 38.7548 3.25485 -2.61469 0
M  V30 433 H 40.1448 1.9344 -6.43452 0
M  V30 434 N 42.8649 1.48995 0.513639 0
M  V30 435 C 43.7979 1.59319 1.63379 0
M  V30 436 C 44.7759 0.442816 1.56454 0
M  V30 437 O 45.9599 0.656655 1.76693 0
M  V30 438 C 43.0869 1.5364 3.01848 0
M  V30 439 C 42.1329 2.7372 3.27078 0
M  V30 440 S 42.9659 4.35528 3.1157 0
M  V30 441 C 44.1219 4.32473 4.52458 0
M  V30 442 H 44.3549 2.54079 1.54374 0
M  V30 443 H 41.8879 1.3773 0.697849 0
M  V30 444 H 43.8459 1.51049 3.81699 0
M  V30 445 H 42.5069 0.601898 3.08279 0
M  V30 446 H 41.6999 2.6593 4.28132 0
M  V30 447 H 41.3019 2.73657 2.54927 0
M  V30 448 H 43.5939 4.03414 5.44301 0
M  V30 449 H 44.5369 5.33762 4.65299 0
M  V30 450 H 44.9449 3.62718 4.32546 0
M  V30 451 N 44.343 -0.763751 1.37857 0
M  V30 452 C 45.583 -1.53551 1.34913 0
M  V30 453 C 45.947 -1.91895 -0.0635882 0
M  V30 454 O 47.148 -2.67916 -0.217825 0
M  V30 455 C 45.419 -2.76126 2.26912 0
M  V30 456 S 46.978 -3.66105 2.41893 0
M  V30 457 H 43.796 -0.52559 0.478828 0
M  V30 458 H 46.398 -0.897435 1.73685 0
M  V30 459 H 45.102 -2.4605 3.28463 0
M  V30 460 H 44.633 -3.44887 1.89253 0
M  V30 461 H 46.648 -4.68473 1.63545 0
M  V30 462 N 45.8211 -1.22559 -0.990812 0
M  V30 463 C 47.2371 -0.985996 -1.255 0
M  V30 464 C 47.4371 0.319173 -1.98956 0
M  V30 465 O 46.4931 1.04127 -2.3003 0
M  V30 466 C 47.8061 -2.18607 -2.06474 0
M  V30 467 C 49.3541 -2.22985 -2.19651 0
M  V30 468 C 49.8291 -3.4255 -3.04012 0
M  V30 469 N 51.3201 -3.42725 -3.11599 0
M  V30 470 C 52.0551 -4.31892 -3.7717 0
M  V30 471 N 51.5511 -5.31279 -4.44651 0
M  V30 472 N 53.3441 -4.19662 -3.73952 0
M  V30 473 H 45.4951 -2.06469 -0.49841 0
M  V30 474 H 47.7581 -0.904853 -0.282747 0
M  V30 475 H 47.4641 -3.13267 -1.59865 0
M  V30 476 H 47.3381 -2.18838 -3.07229 0
M  V30 477 H 49.7251 -1.28871 -2.65474 0
M  V30 478 H 49.8061 -2.26791 -1.18319 0
M  V30 479 H 49.4501 -4.36965 -2.58889 0
M  V30 480 H 49.3801 -3.35984 -4.0549 0
M  V30 481 H 51.8711 -2.70807 -2.63575 0
M  V30 482 H 52.1841 -5.95593 -4.92431 0
M  V30 483 H 50.5291 -5.3519 -4.43392 0
M  V30 484 H 53.7201 -3.41268 -3.20396 0
M  V30 485 H 53.8931 -4.89358 -4.24774 0
M  V30 486 N 47.2992 1.18797 -1.03562 0
M  V30 487 C 48.2292 2.24472 -0.643019 0
M  V30 488 C 49.2102 1.66433 0.351283 0
M  V30 489 O 50.3952 1.92803 0.232505 0
M  V30 490 C 47.5252 3.473 4.24935e-05 0
M  V30 491 C 46.4792 4.18055 -0.917257 0
M  V30 492 C 45.8052 5.34519 -0.138941 0
M  V30 493 C 47.1052 4.72109 -2.23407 0
M  V30 494 H 48.7992 2.57566 -1.52643 0
M  V30 495 H 46.3452 1.23806 -0.735394 0
M  V30 496 H 48.2982 4.20426 0.286383 0
M  V30 497 H 47.0222 3.13424 0.918299 0
M  V30 498 H 45.6812 3.46821 -1.1879 0
M  V30 499 H 45.3292 4.96891 0.781562 0
M  V30 500 H 45.0292 5.82794 -0.750005 0
M  V30 501 H 46.5532 6.10438 0.1405 0
M  V30 502 H 47.9672 5.36955 -2.00879 0
M  V30 503 H 46.3642 5.30897 -2.79765 0
M  V30 504 H 47.4342 3.89807 -2.88407 0
M  V30 505 N 48.7773 0.814389 1.34928 0
M  V30 506 C 50.0543 0.321363 1.92942 0
M  V30 507 C 50.4343 -1.19014 1.74353 0
M  V30 508 O 49.7823 -1.99328 1.11716 0
M  V30 509 C 49.9923 0.741323 3.41036 0
M  V30 510 C 51.3403 0.735266 4.18185 0
M  V30 511 O 52.3643 0.68336 3.49584 0
M  V30 512 O 51.2233 0.800703 5.40602 0
M  V30 513 H 48.3173 0.0858893 0.822528 0
M  V30 514 H 50.8633 0.898609 1.43955 0
M  V30 515 H 49.6353 1.78276 3.4833 0
M  V30 516 H 49.2583 0.139307 3.97356 0
M  V30 517 N 50.2554 -1.46986 0.568584 0
M  V30 518 C 51.5044 -2.01646 0.0465894 0
M  V30 519 C 51.8174 -1.44721 -1.31587 0
M  V30 520 O 53.0234 -1.91113 -1.92842 0
M  V30 521 C 51.4794 -3.59885 0.032752 0
M  V30 522 C 51.0874 -4.25804 1.39266 0
M  V30 523 C 52.8314 -4.22255 -0.436038 0
M  V30 524 C 50.7384 -5.76081 1.33732 0
M  V30 525 H 49.6684 -0.753876 0.013647 0
M  V30 526 H 52.3194 -1.68864 0.718131 0
M  V30 527 H 50.7014 -3.8968 -0.704669 0
M  V30 528 H 51.8754 -4.07637 2.1487 0
M  V30 529 H 50.1904 -3.7547 1.80032 0
M  V30 530 H 52.7874 -5.32394 -0.49602 0
M  V30 531 H 53.1304 -3.90212 -1.45053 0
M  V30 532 H 53.6634 -3.97033 0.246877 0
M  V30 533 H 50.4024 -6.12761 2.32817 0
M  V30 534 H 49.9224 -5.96553 0.623267 0
M  V30 535 H 51.6014 -6.38518 1.0442 0
M  V30 536 N 51.7335 -0.305618 -1.54608 0
M  V30 537 C 53.0105 0.355652 -1.92339 0
M  V30 538 C 53.3905 1.71324 -1.23335 0
M  V30 539 O 52.7385 2.25473 -0.370702 0
M  V30 540 C 52.9485 0.46572 -3.45879 0
M  V30 541 C 54.2965 0.734426 -4.182 0
M  V30 542 O 55.3205 0.54935 -3.51938 0
M  V30 543 O 54.1795 1.09024 -5.35515 0
M  V30 544 H 51.2735 0.199666 -0.802535 0
M  V30 545 H 53.8195 -0.354017 -1.65966 0
M  V30 546 H 52.5915 -0.488461 -3.88239 0
M  V30 547 H 52.2145 1.22367 -3.78301 0
M  V30 548 N 53.2116 1.57565 -0.0334293 0
M  V30 549 C 54.4366 1.96689 0.657895 0
M  V30 550 C 54.8616 0.910057 1.64619 0
M  V30 551 O 54.2196 -0.128598 1.80843 0
M  V30 552 C 54.2676 3.34905 1.33683 0
M  V30 553 O 53.3716 3.31574 2.45219 0
M  V30 554 H 52.7126 0.641205 0.172489 0
M  V30 555 H 55.2426 2.04372 -0.0965621 0
M  V30 556 H 55.2526 3.71234 1.69262 0
M  V30 557 H 53.9276 4.11366 0.612411 0
M  V30 558 H 52.5046 3.06968 2.11719 0
M  V30 559 N 54.6897 -0.239769 1.55765 0
M  V30 560 C 56.1007 -0.808263 1.68297 0
M  V30 561 C 56.4517 -1.85736 0.632181 0
M  V30 562 O 55.5767 -2.15277 -0.220204 0
M  V30 563 C 56.1717 -1.47284 3.05111 0
M  V30 564 C 54.7307 -1.98895 3.19559 0
M  V30 565 C 53.8777 -0.842575 2.64189 0
M  V30 566 H 56.8287 -0.0154422 1.58692 0
M  V30 567 H 56.8497 -2.34111 2.99954 0
M  V30 568 H 56.3617 -0.709053 3.81568 0
M  V30 569 H 54.4627 -2.78132 2.47938 0
M  V30 570 H 54.5757 -2.18143 4.26556 0
M  V30 571 H 52.9397 -1.24501 2.22197 0
M  V30 572 H 53.7227 -0.0917552 3.43177 0
M  V30 573 N 56.1678 -1.49265 -0.50573 0
M  V30 574 C 57.5788 -1.51769 -1.08734 0
M  V30 575 C 57.9298 -0.301192 -1.93874 0
M  V30 576 O 57.0548 0.589456 -2.08217 0
M  V30 577 C 57.6498 -2.75017 -1.97867 0
M  V30 578 C 56.2088 -2.80314 -2.51199 0
M  V30 579 C 55.3558 -2.4562 -1.28709 0
M  V30 580 H 58.3068 -1.56031 -0.289855 0
M  V30 581 H 58.3278 -2.5491 -2.82491 0
M  V30 582 H 57.8398 -3.63539 -1.35873 0
M  V30 583 H 55.9408 -1.96061 -3.16845 0
M  V30 584 H 56.0538 -3.82366 -2.88675 0
M  V30 585 H 54.4178 -1.97297 -1.61078 0
M  V30 586 H 55.2008 -3.36411 -0.6843 0
M  V30 587 N 57.6459 0.756429 -1.3826 0
M  V30 588 C 58.8949 1.51082 -1.3363 0
M  V30 589 C 59.2079 1.95467 0.0720068 0
M  V30 590 O 60.4139 2.7043 0.240834 0
M  V30 591 C 58.8699 2.72893 -2.34644 0
M  V30 592 C 58.4779 2.35544 -3.81081 0
M  V30 593 C 60.2219 3.50791 -2.39052 0
M  V30 594 C 58.1289 3.53948 -4.73787 0
M  V30 595 H 57.0589 0.56727 -0.49671 0
M  V30 596 H 59.7099 0.827147 -1.638 0
M  V30 597 H 58.0919 3.43227 -1.97513 0
M  V30 598 H 59.2659 1.72894 -4.27135 0
M  V30 599 H 57.5809 1.70786 -3.79764 0
M  V30 600 H 60.1779 4.38823 -3.05513 0
M  V30 601 H 60.5209 3.91745 -1.40861 0
M  V30 602 H 61.0539 2.87467 -2.74968 0
M  V30 603 H 57.7929 3.18064 -5.73163 0
M  V30 604 H 57.3129 4.15651 -4.32428 0
M  V30 605 H 58.9919 4.20566 -4.91663 0
M  V30 606 N 59.124 1.23083 0.984299 0
M  V30 607 C 60.352 1.08714 1.76037 0
M  V30 608 C 60.767 -0.361691 1.85303 0
M  V30 609 O 60.124 -1.25034 1.32939 0
M  V30 610 C 60.175 1.70206 3.18923 0
M  V30 611 O 59.896 3.09423 3.10144 0
M  V30 612 C 61.397 1.61227 4.12941 0
M  V30 613 H 58.617 0.380664 0.552572 0
M  V30 614 H 61.161 1.62853 1.23689 0
M  V30 615 H 59.316 1.20109 3.6831 0
M  V30 616 H 59.73 3.39188 4.00065 0
M  V30 617 H 61.204 2.08962 5.10919 0
M  V30 618 H 61.681 0.570375 4.35481 0
M  V30 619 H 62.287 2.10671 3.69456 0
M  V30 620 N 60.6021 -1.18246 1.0419 0
M  V30 621 C 61.5651 -2.20128 0.638452 0
M  V30 622 C 62.5651 -1.57885 -0.304805 0
M  V30 623 O 63.7551 -1.73967 -0.0900369 0
M  V30 624 C 60.8871 -3.4084 -0.0637751 0
M  V30 625 H 62.0801 -2.57336 1.54007 0
M  V30 626 H 59.6331 -1.32152 0.834598 0
M  V30 627 H 60.3681 -3.09166 -0.979136 0
M  V30 628 H 60.1531 -3.8726 0.614198 0
M  V30 629 H 61.6431 -4.16274 -0.332512 0
M  V30 630 N 62.0802 -0.821533 -1.34494 0
M  V30 631 C 63.4962 -0.507117 -1.51329 0
M  V30 632 C 63.6962 0.968964 -1.76673 0
M  V30 633 O 62.7522 1.75348 -1.81685 0
M  V30 634 C 64.0652 -1.36544 -2.67911 0
M  V30 635 C 65.6132 -1.36242 -2.81793 0
M  V30 636 C 66.0882 -2.2052 -4.01416 0
M  V30 637 N 67.5792 -2.18136 -4.08621 0
M  V30 638 C 68.3142 -2.80095 -5.00334 0
M  V30 639 N 67.8102 -3.51039 -5.9728 0
M  V30 640 N 69.6032 -2.69656 -4.93196 0
M  V30 641 H 61.7542 -1.77729 -1.16302 0
M  V30 642 H 64.0172 -0.757291 -0.570276 0
M  V30 643 H 63.7232 -2.41361 -2.55808 0
M  V30 644 H 63.5972 -1.02917 -3.62888 0
M  V30 645 H 65.9842 -0.322041 -2.93338 0
M  V30 646 H 66.0652 -1.73866 -1.87628 0
M  V30 647 H 65.7092 -3.24607 -3.90631 0
M  V30 648 H 65.6392 -1.80247 -4.94791 0
M  V30 649 H 68.1302 -1.6653 -3.39229 0
M  V30 650 H 68.4432 -3.95565 -6.63889 0
M  V30 651 H 66.7882 -3.55145 -5.97409 0
M  V30 652 H 69.9792 -2.13808 -4.16418 0
M  V30 653 H 70.1522 -3.1823 -5.64476 0
M  V30 654 N 63.5583 1.46682 -0.576371 0
M  V30 655 C 64.5063 2.31953 0.17335 0
M  V30 656 C 65.5003 1.44098 0.89062 0
M  V30 657 O 66.7063 1.60759 0.809728 0
M  V30 658 H 63.0813 0.748273 0.0747727 0
M  V30 659 H 65.0523 2.93007 -0.564738 0
M  V30 660 C 63.8013 3.27142 1.17786 0
M  V30 661 H 63.1243 3.94719 0.635361 0
M  V30 662 H 64.5643 3.896 1.67296 0
M  V30 663 C 63.0233 2.52036 2.23561 0
M  V30 664 O 63.5533 2.27877 3.3081 0
M  V30 665 N 61.7593 2.12709 1.97998 0
M  V30 666 H 61.3063 2.32557 1.10792 0
M  V30 667 H 61.2643 1.62776 2.68982 0
M  V30 668 N 65.0364 0.313813 1.54444 0
M  V30 669 C 66.2644 -0.293918 2.04802 0
M  V30 670 C 66.6794 -1.46537 1.19047 0
M  V30 671 O 66.0364 -1.81182 0.218939 0
M  V30 672 C 66.0874 -0.737806 3.53891 0
M  V30 673 O 65.8084 0.387038 4.36387 0
M  V30 674 C 67.3094 -1.40936 4.203 0
M  V30 675 H 64.5294 -0.0620057 0.668129 0
M  V30 676 H 67.0734 0.457169 1.99324 0
M  V30 677 H 65.2284 -1.43889 3.59687 0
M  V30 678 H 65.6424 0.0391274 5.24485 0
M  V30 679 H 67.1164 -1.67099 5.26101 0
M  V30 680 H 67.5934 -2.35355 3.70816 0
M  V30 681 H 68.1994 -0.751117 4.18615 0
M  V30 682 N 66.5145 -1.57545 0.0417849 0
M  V30 683 C 67.7625 -1.91937 -0.632829 0
M  V30 684 C 68.0835 -0.919978 -1.71934 0
M  V30 685 O 67.3535 0.0366064 -1.95866 0
M  V30 686 H 65.9335 -0.708493 -0.236742 0
M  V30 687 H 68.5955 -1.9468 0.0925745 0
M  V30 688 H 67.6915 -2.92912 -1.07746 0
M  V30 689 N 67.9926 0.231505 -1.5589 0
M  V30 690 C 69.2416 0.955346 -1.7764 0
M  V30 691 C 69.5546 1.85893 -0.608546 0
M  V30 692 O 70.7606 2.62067 -0.70943 0
M  V30 693 C 69.2166 1.74886 -3.14552 0
M  V30 694 C 68.8246 0.891915 -4.39032 0
M  V30 695 C 70.5686 2.46452 -3.45633 0
M  V30 696 C 68.4756 1.68221 -5.66971 0
M  V30 697 H 67.4056 0.360446 -0.662265 0
M  V30 698 H 70.0566 0.209516 -1.823 0
M  V30 699 H 68.4386 2.53723 -3.04041 0
M  V30 700 H 69.6126 0.144793 -4.60572 0
M  V30 701 H 67.9276 0.288863 -4.15397 0
M  V30 702 H 70.5246 3.06061 -4.38441 0
M  V30 703 H 70.8676 3.18841 -2.67668 0
M  V30 704 H 71.4006 1.74613 -3.57428 0
M  V30 705 H 68.1396 1.00178 -6.478 0
M  V30 706 H 67.6596 2.4042 -5.49507 0
M  V30 707 H 69.3386 2.24544 -6.06786 0
M  V30 708 N 69.4707 1.49531 0.497807 0
M  V30 709 C 70.7197 1.58426 1.24837 0
M  V30 710 C 71.0327 0.277643 1.93619 0
M  V30 711 O 72.2387 0.24517 2.70391 0
M  V30 712 C 70.6947 2.79538 2.26686 0
M  V30 713 C 70.3027 4.16971 1.63828 0
M  V30 714 C 72.0467 2.97764 3.0255 0
M  V30 715 C 69.9537 5.29301 2.63807 0
M  V30 716 H 68.8837 0.58989 0.469623 0
M  V30 717 H 71.5347 1.75923 0.521857 0
M  V30 718 H 69.9167 2.55542 3.02514 0
M  V30 719 H 71.0907 4.51116 0.939711 0
M  V30 720 H 69.4057 4.04129 1.00342 0
M  V30 721 H 72.0027 3.78856 3.77323 0
M  V30 722 H 72.3457 2.08448 3.60354 0
M  V30 723 H 72.8787 3.21815 2.33838 0
M  V30 724 H 69.6177 6.20687 2.10779 0
M  V30 725 H 69.1377 4.99606 3.31894 0
M  V30 726 H 70.8167 5.58768 3.2617 0
M  V30 727 N 70.9488 -0.749086 1.3866 0
M  V30 728 C 72.1888 -1.52112 1.36534 0
M  V30 729 C 72.5528 -1.91951 -0.0432316 0
M  V30 730 O 73.7538 -2.68132 -0.189396 0
M  V30 731 C 72.0248 -2.73704 2.29828 0
M  V30 732 S 73.5838 -3.63519 2.45763 0
M  V30 733 H 70.4018 -0.520482 0.484375 0
M  V30 734 H 73.0038 -0.878963 1.74627 0
M  V30 735 H 71.7078 -2.42552 3.31054 0
M  V30 736 H 71.2388 -3.4286 1.929 0
M  V30 737 H 73.2538 -4.66712 1.68505 0
M  V30 738 N 72.4269 -1.23603 -0.977757 0
M  V30 739 C 73.6549 -1.09646 -1.75458 0
M  V30 740 C 74.0699 0.351859 -1.85492 0
M  V30 741 O 73.4269 1.24327 -1.336 0
M  V30 742 C 73.4779 -1.71895 -3.18016 0
M  V30 743 O 73.1989 -3.11063 -3.08498 0
M  V30 744 C 74.6999 -1.63415 -4.12081 0
M  V30 745 H 71.9199 -0.38359 -0.550545 0
M  V30 746 H 74.4639 -1.63507 -1.22824 0
M  V30 747 H 72.6189 -1.22061 -3.67668 0
M  V30 748 H 73.0329 -3.41305 -3.9826 0
M  V30 749 H 74.5069 -2.11669 -5.09804 0
M  V30 750 H 74.9839 -0.593462 -4.35172 0
M  V30 751 H 75.5899 -2.12628 -3.68334 0
M  V30 752 N 73.905 1.17692 -1.04816 0
M  V30 753 C 75.154 1.87192 -0.751132 0
M  V30 754 C 75.467 1.8169 0.724441 0
M  V30 755 O 76.673 2.46625 1.13527 0
M  V30 756 C 75.129 3.35857 -1.29338 0
M  V30 757 C 74.737 3.4987 -2.79812 0
M  V30 758 C 76.481 4.10709 -1.07322 0
M  V30 759 C 74.388 4.92536 -3.27356 0
M  V30 760 H 73.318 0.701162 -0.277288 0
M  V30 761 H 75.969 1.32932 -1.26496 0
M  V30 762 H 74.351 3.89631 -0.707376 0
M  V30 763 H 75.525 3.06332 -3.44235 0
M  V30 764 H 73.84 2.88433 -3.00325 0
M  V30 765 H 76.437 5.15952 -1.4035 0
M  V30 766 H 76.78 4.16299 -0.0108001 0
M  V30 767 H 77.313 3.6313 -1.62423 0
M  V30 768 H 74.052 4.92119 -4.33012 0
M  V30 769 H 73.572 5.3676 -2.67673 0
M  V30 770 H 75.251 5.61288 -3.21815 0
M  V30 771 N 75.3831 0.828654 1.34056 0
M  V30 772 C 76.6311 0.41863 1.97717 0
M  V30 773 C 76.9521 -1.02314 1.66002 0
M  V30 774 O 76.2221 -1.71119 0.953683 0
M  V30 775 H 74.8021 0.151809 0.731412 0
M  V30 776 H 77.4641 1.05936 1.63596 0
M  V30 777 H 76.5601 0.542318 3.07352 0
M  V30 778 N 76.8612 -1.46375 0.584142 0
M  V30 779 C 78.2722 -1.86031 0.157959 0
M  V30 780 C 78.6232 -1.48753 -1.27933 0
M  V30 781 O 77.7482 -0.903098 -1.96655 0
M  V30 782 C 78.3432 -3.37642 0.279892 0
M  V30 783 C 76.9022 -3.76289 -0.09143 0
M  V30 784 C 76.0492 -2.7039 0.615178 0
M  V30 785 H 79.0002 -1.37509 0.792274 0
M  V30 786 H 79.0212 -3.77275 -0.494364 0
M  V30 787 H 78.5332 -3.64742 1.32607 0
M  V30 788 H 76.6342 -3.54806 -1.13769 0
M  V30 789 H 76.7472 -4.78246 0.285886 0
M  V30 790 H 75.1112 -2.5464 0.0552833 0
M  V30 791 H 75.8942 -3.0033 1.66303 0
M  V30 792 N 78.3393 -0.321999 -1.54275 0
M  V30 793 C 79.3023 0.531975 -2.22941 0
M  V30 794 C 80.3023 1.04478 -1.22234 0
M  V30 795 O 81.4923 0.937452 -1.46825 0
M  V30 796 C 78.6243 1.73874 -2.93224 0
M  V30 797 H 79.8173 -0.0682612 -2.99822 0
M  V30 798 H 77.3703 -0.0730644 -1.56129 0
M  V30 799 H 78.1053 2.37825 -2.20476 0
M  V30 800 H 77.8903 1.37847 -3.6707 0
M  V30 801 H 79.3803 2.34496 -3.45545 0
M  V30 802 N 79.8174 1.5752 -0.0501392 0
M  V30 803 C 81.0424 1.97376 0.636997 0
M  V30 804 C 81.4674 0.927466 1.63645 0
M  V30 805 O 80.8254 -0.10941 1.8097 0
M  V30 806 C 80.8734 3.36304 1.30123 0
M  V30 807 O 79.9774 3.34156 2.41689 0
M  V30 808 H 79.3184 0.642998 0.165679 0
M  V30 809 H 81.8484 2.04258 -0.118233 0
M  V30 810 H 81.8584 3.73008 1.65315 0
M  V30 811 H 80.5334 4.11993 0.568746 0
M  V30 812 H 79.1104 3.09196 2.08451 0
M  V30 813 N 81.2955 -0.223234 1.56011 0
M  V30 814 C 82.7115 -0.572856 1.48965 0
M  V30 815 C 82.9115 -1.87225 0.74492 0
M  V30 816 O 81.9675 -2.50899 0.283896 0
M  V30 817 C 83.2805 -0.653646 2.9351 0
M  V30 818 C 84.8285 -0.744386 3.0402 0
M  V30 819 C 85.3035 -0.856535 4.49919 0
M  V30 820 N 86.7945 -0.9208 4.53955 0
M  V30 821 C 87.5295 -1.02726 5.64123 0
M  V30 822 N 87.0255 -1.09777 6.84047 0
M  V30 823 N 88.8185 -1.06226 5.51971 0
M  V30 824 H 80.9695 0.629462 2.02858 0
M  V30 825 H 83.2325 0.220621 0.921971 0
M  V30 826 H 82.9385 0.231518 3.50937 0
M  V30 827 H 82.8125 -1.51781 3.45315 0
M  V30 828 H 85.1995 -1.61999 2.46658 0
M  V30 829 H 85.2805 0.14541 2.55386 0
M  V30 830 H 84.9245 0.0146069 5.07898 0
M  V30 831 H 84.8545 -1.76172 4.96257 0
M  V30 832 H 87.3455 -0.876694 3.6759 0
M  V30 833 H 87.6585 -1.17872 7.63758 0
M  V30 834 H 86.0035 -1.06693 6.86762 0
M  V30 835 H 89.1945 -1.00382 4.5721 0
M  V30 836 H 89.3675 -1.14177 6.37862 0
M  V30 837 N 82.7736 -1.49793 -0.48987 0
M  V30 838 C 83.9986 -1.63836 -1.27172 0
M  V30 839 C 84.4236 -0.31402 -1.8546 0
M  V30 840 O 83.7816 0.719803 -1.66399 0
M  V30 841 C 83.8296 -2.71797 -2.36978 0
M  V30 842 O 82.9336 -2.31744 -3.41128 0
M  V30 843 H 82.2746 -0.547997 -0.37496 0
M  V30 844 H 84.8046 -1.96053 -0.585191 0
M  V30 845 H 84.8146 -2.94305 -2.82575 0
M  V30 846 H 83.4896 -3.67923 -1.93921 0
M  V30 847 H 82.0666 -2.1961 -3.01373 0
M  V30 848 N 84.2517 0.741722 -1.39055 0
M  V30 849 C 85.4977 1.50336 -1.36113 0
M  V30 850 C 85.8307 1.94148 0.0450796 0
M  V30 851 O 85.1057 1.66301 1.00868 0
M  V30 852 C 85.3887 2.74773 -2.32749 0
M  V30 853 C 85.2417 2.37023 -3.82283 0
M  V30 854 C 86.5607 3.76846 -2.27322 0
M  V30 855 H 83.6797 0.545351 -0.495743 0
M  V30 856 H 86.3217 0.848624 -1.69995 0
M  V30 857 H 84.4717 3.30639 -2.03986 0
M  V30 858 H 86.1437 1.8684 -4.21768 0
M  V30 859 H 84.3867 1.69334 -3.99385 0
M  V30 860 H 85.0577 3.26104 -4.45376 0
M  V30 861 H 87.5337 3.30548 -2.5274 0
M  V30 862 H 86.4097 4.6159 -2.97028 0
M  V30 863 H 86.6707 4.23286 -1.27599 0
M  V30 864 N 85.7298 1.2412 0.971189 0
M  V30 865 C 86.6398 1.04747 2.09917 0
M  V30 866 C 87.6558 -0.0107162 1.73997 0
M  V30 867 O 88.8318 0.186714 2.00533 0
M  V30 868 C 85.8968 0.650828 3.40537 0
M  V30 869 C 84.9578 1.7851 3.90426 0
M  V30 870 C 84.1908 1.40729 5.14812 0
M  V30 871 O 84.4138 0.29557 5.69634 0
M  V30 872 O 83.3478 2.23168 5.58999 0
M  V30 873 H 87.1738 1.99304 2.29154 0
M  V30 874 H 84.7588 1.02908 1.08307 0
M  V30 875 H 86.6408 0.440992 4.19086 0
M  V30 876 H 85.3158 -0.265649 3.22608 0
M  V30 877 H 84.2228 2.04966 3.12953 0
M  V30 878 H 85.5558 2.68023 4.12825 0
M  V30 879 N 87.2079 -1.17134 1.05439 0
M  V30 880 C 88.4359 -1.91372 0.786414 0
M  V30 881 C 88.8509 -1.76955 -0.658202 0
M  V30 882 O 88.2079 -1.10838 -1.44987 0
M  V30 883 C 88.2589 -3.42356 1.1608 0
M  V30 884 O 87.9799 -3.56332 2.54871 0
M  V30 885 C 89.4809 -4.33663 0.919322 0
M  V30 886 H 86.7009 -0.607118 0.285743 0
M  V30 887 H 89.2449 -1.48525 1.40572 0
M  V30 888 H 87.3999 -3.82939 0.586191 0
M  V30 889 H 87.8139 -4.49896 2.69618 0
M  V30 890 H 89.2879 -5.38099 1.231 0
M  V30 891 H 89.7649 -4.38959 -0.145359 0
M  V30 892 H 90.3709 -3.98796 1.47789 0
M  V30 893 N 88.686 -0.835752 -1.33615 0
M  V30 894 C 89.616 -0.281739 -2.31794 0
M  V30 895 C 90.597 0.608833 -1.58831 0
M  V30 896 O 91.782 0.533035 -1.86741 0
M  V30 897 C 88.912 0.546612 -3.42971 0
M  V30 898 C 87.866 -0.247904 -4.27281 0
M  V30 899 C 87.192 0.704001 -5.30045 0
M  V30 900 C 88.492 -1.46324 -5.01385 0
M  V30 901 H 90.186 -1.10206 -2.78379 0
M  V30 902 H 87.732 -0.531388 -1.33837 0
M  V30 903 H 89.685 0.944467 -4.1068 0
M  V30 904 H 88.409 1.40011 -2.95067 0
M  V30 905 H 87.068 -0.627281 -3.61194 0
M  V30 906 H 86.716 1.55381 -4.78399 0
M  V30 907 H 86.416 0.176524 -5.87335 0
M  V30 908 H 87.94 1.09944 -6.0062 0
M  V30 909 H 89.354 -1.13871 -5.61877 0
M  V30 910 H 87.751 -1.92728 -5.6831 0
M  V30 911 H 88.821 -2.23467 -4.30338 0
M  V30 912 N 90.1641 1.46063 -0.591896 0
M  V30 913 C 91.1111 2.30399 0.136069 0
M  V30 914 C 92.0811 1.41169 0.875238 0
M  V30 915 O 93.2661 1.70112 0.86409 0
M  V30 916 C 90.4061 3.25804 1.13781 0
M  V30 917 C 89.5191 4.30134 0.401137 0
M  V30 918 C 88.6541 5.12659 1.39121 0
M  V30 919 C 87.6931 6.0873 0.641462 0
M  V30 920 N 86.8301 6.8409 1.58004 0
M  V30 921 H 91.6701 2.92118 -0.589144 0
M  V30 922 H 89.2071 1.43959 -0.302342 0
M  V30 923 H 91.1651 3.79569 1.73156 0
M  V30 924 H 89.7951 2.65872 1.83062 0
M  V30 925 H 88.8471 3.79152 -0.307826 0
M  V30 926 H 90.1591 4.98458 -0.184565 0
M  V30 927 H 89.3131 5.70747 2.05749 0
M  V30 928 H 88.0521 4.44316 2.01084 0
M  V30 929 H 87.0571 5.49786 -0.0385419 0
M  V30 930 H 88.2821 6.79095 0.0270945 0
M  V30 931 H 86.2281 6.18449 2.18761 0
M  V30 932 H 86.1451 7.48709 1.04738 0
M  V30 933 H 87.4131 7.4673 2.23639 0
M  V30 934 N 91.6422 0.330177 1.54103 0
M  V30 935 C 92.5522 -0.541534 2.28264 0
M  V30 936 C 93.5682 -1.12351 1.32866 0
M  V30 937 O 94.7442 -1.14206 1.65888 0
M  V30 938 C 91.8092 -1.68322 3.03098 0
M  V30 939 C 90.8702 -1.13238 4.14096 0
M  V30 940 C 90.1032 -2.21966 4.85352 0
M  V30 941 O 90.3262 -3.42437 4.56172 0
M  V30 942 O 89.2602 -1.87013 5.7211 0
M  V30 943 H 93.0862 0.060938 3.03639 0
M  V30 944 H 90.6712 0.09565 1.49093 0
M  V30 945 H 92.5532 -2.34777 3.49939 0
M  V30 946 H 91.2282 -2.27176 2.30593 0
M  V30 947 H 90.1352 -0.432736 3.71589 0
M  V30 948 H 91.4682 -0.588898 4.88664 0
M  V30 949 N 93.1203 -1.57491 0.0584922 0
M  V30 950 C 94.0533 -2.07533 -0.948969 0
M  V30 951 C 95.0313 -0.977444 -1.29942 0
M  V30 952 O 96.2153 -1.2499 -1.41102 0
M  V30 953 C 93.3423 -2.52192 -2.2609 0
M  V30 954 C 92.3883 -3.73287 -2.06298 0
M  V30 955 S 93.2213 -5.18603 -1.33459 0
M  V30 956 C 94.3773 -5.66583 -2.65959 0
M  V30 957 H 94.6103 -2.92662 -0.523118 0
M  V30 958 H 92.1433 -1.53631 -0.153954 0
M  V30 959 H 94.1013 -2.78585 -3.01498 0
M  V30 960 H 92.7623 -1.67356 -2.65802 0
M  V30 961 H 91.9553 -4.0248 -3.03357 0
M  V30 962 H 91.5573 -3.47199 -1.39029 0
M  V30 963 H 93.8493 -5.72616 -3.62101 0
M  V30 964 H 94.7923 -6.65684 -2.41393 0
M  V30 965 H 95.2003 -4.94342 -2.72554 0
M  V30 966 N 94.5984 0.214957 -1.56127 0
M  V30 967 C 95.8474 0.936451 -1.78643 0
M  V30 968 C 96.1604 1.85237 -0.628229 0
M  V30 969 O 97.3664 2.613 -0.737186 0
M  V30 970 C 95.8224 1.7154 -3.16389 0
M  V30 971 C 95.4304 0.845299 -4.39953 0
M  V30 972 C 97.1744 2.42772 -3.48227 0
M  V30 973 C 95.0814 1.62198 -5.68723 0
M  V30 974 H 94.0114 0.353401 -0.666051 0
M  V30 975 H 96.6624 0.190169 -1.82512 0
M  V30 976 H 95.0444 2.50484 -3.06715 0
M  V30 977 H 96.2184 0.0959353 -4.607 0
M  V30 978 H 94.5334 0.244789 -4.1568 0
M  V30 979 H 97.1304 3.01394 -4.41663 0
M  V30 980 H 97.4734 3.15984 -2.71035 0
M  V30 981 H 98.0064 1.70813 -3.5926 0
M  V30 982 H 94.7454 0.933011 -6.48826 0
M  V30 983 H 94.2654 2.34579 -5.52026 0
M  V30 984 H 95.9444 2.18095 -6.09133 0
M  V30 985 N 96.0765 1.50051 0.48192 0
M  V30 986 C 97.0235 1.68122 1.58125 0
M  V30 987 C 97.9935 0.522545 1.57666 0
M  V30 988 O 99.1785 0.751844 1.75362 0
M  V30 989 C 96.3185 1.77142 2.96167 0
M  V30 990 C 95.4315 3.0444 3.06497 0
M  V30 991 C 94.5665 3.04321 4.35387 0
M  V30 992 C 93.6055 4.26118 4.3942 0
M  V30 993 N 92.7425 4.238 5.59766 0
M  V30 994 H 97.5825 2.6198 1.42022 0
M  V30 995 H 95.1195 1.29877 0.690687 0
M  V30 996 H 97.0775 1.80352 3.76203 0
M  V30 997 H 95.7075 0.867329 3.1093 0
M  V30 998 H 94.7595 3.10752 2.19402 0
M  V30 999 H 96.0715 3.94426 3.05336 0
M  V30 1000 H 95.2255 3.062 5.23762 0
M  V30 1001 H 93.9645 2.12147 4.39141 0
M  V30 1002 H 92.9695 4.24463 3.49444 0
M  V30 1003 H 94.1945 5.19507 4.37366 0
M  V30 1004 H 92.1405 3.34474 5.64326 0
M  V30 1005 H 92.0575 5.07542 5.60301 0
M  V30 1006 H 93.3255 4.2981 6.50295 0
M  V30 1007 N 97.5546 -0.734337 1.39446 0
M  V30 1008 C 98.7796 -1.52866 1.40167 0
M  V30 1009 C 99.2046 -1.881 -0.00171513 0
M  V30 1010 O 98.5626 -1.51957 -0.988879 0
M  V30 1011 C 98.6106 -2.79235 2.28167 0
M  V30 1012 O 97.7146 -3.75185 1.71201 0
M  V30 1013 H 97.0556 -0.461618 0.477289 0
M  V30 1014 H 99.5856 -0.905949 1.8345 0
M  V30 1015 H 99.5956 -3.27963 2.42702 0
M  V30 1016 H 98.2706 -2.52923 3.30156 0
M  V30 1017 H 96.8476 -3.33958 1.65912 0
M  V30 1018 N 99.0327 -1.24633 -0.964593 0
M  V30 1019 C 100.281 -1.08573 -1.70459 0
M  V30 1020 C 100.602 0.375655 -1.91347 0
M  V30 1021 O 99.8717 1.26779 -1.49345 0
M  V30 1022 H 98.4517 -0.398784 -0.631649 0
M  V30 1023 H 101.114 -1.56601 -1.16026 0
M  V30 1024 H 100.21 -1.58623 -2.68785 0
M  V30 1025 N 100.511 1.16574 -1.06058 0
M  V30 1026 C 101.444 2.19798 -0.61352 0
M  V30 1027 C 102.422 1.58509 0.362453 0
M  V30 1028 O 103.606 1.86527 0.271994 0
M  V30 1029 C 100.733 3.3855 0.100915 0
M  V30 1030 C 99.7788 4.18317 -0.831438 0
M  V30 1031 S 100.612 4.82375 -2.32539 0
M  V30 1032 C 101.768 6.04508 -1.62238 0
M  V30 1033 H 102.001 2.5738 -1.48805 0
M  V30 1034 H 99.5338 1.27327 -0.873338 0
M  V30 1035 H 101.492 4.07358 0.506898 0
M  V30 1036 H 100.153 2.99338 0.951604 0
M  V30 1037 H 99.3458 5.03232 -0.278071 0
M  V30 1038 H 98.9478 3.5499 -1.17719 0
M  V30 1039 H 101.24 6.71133 -0.926622 0
M  V30 1040 H 102.183 6.64389 -2.44934 0
M  V30 1041 H 102.591 5.53559 -1.106 0
M  V30 1042 N 101.989 0.842826 1.3317 0
M  V30 1043 C 102.937 0.267495 2.31057 0
M  V30 1044 C 103.931 -0.602682 1.58316 0
M  V30 1045 O 105.137 -0.491803 1.73151 0
M  V30 1046 H 101.512 0.0677813 0.748939 0
M  V30 1047 H 103.483 1.10754 2.77085 0
M  V30 1048 C 102.232 -0.539331 3.43492 0
M  V30 1049 H 101.555 0.12095 3.99617 0
M  V30 1050 H 102.995 -0.90767 4.14171 0
M  V30 1051 C 101.454 -1.71981 2.89697 0
M  V30 1052 O 101.984 -2.81862 2.86211 0
M  V30 1053 N 100.19 -1.54299 2.46252 0
M  V30 1054 H 99.7369 -0.649143 2.49287 0
M  V30 1055 H 99.6949 -2.33431 2.10612 0
M  V30 1056 N 103.467 -1.45747 0.599634 0
M  V30 1057 C 104.713 -2.02592 0.0918643 0
M  V30 1058 C 105.046 -1.46806 -1.27128 0
M  V30 1059 O 104.321 -0.639658 -1.83681 0
M  V30 1060 C 104.604 -3.60073 0.0443398 0
M  V30 1061 C 104.457 -4.26208 1.43759 0
M  V30 1062 C 105.776 -4.35309 -0.647608 0
M  V30 1063 H 102.895 -0.736175 0.034857 0
M  V30 1064 H 105.537 -1.73694 0.770081 0
M  V30 1065 H 103.687 -3.84823 -0.533224 0
M  V30 1066 H 105.359 -4.12668 2.06162 0
M  V30 1067 H 103.602 -3.84916 2.00056 0
M  V30 1068 H 104.273 -5.35069 1.35665 0
M  V30 1069 H 106.749 -4.15805 -0.156776 0
M  V30 1070 H 105.625 -5.45038 -0.649942 0
M  V30 1071 H 105.886 -4.07598 -1.71219 0
M  V30 1072 N 104.945 -0.338344 -1.53925 0
M  V30 1073 C 105.908 0.508299 -2.23493 0
M  V30 1074 C 106.908 1.03175 -1.23335 0
M  V30 1075 O 108.098 0.921826 -1.47811 0
M  V30 1076 C 105.23 1.70754 -2.95052 0
M  V30 1077 H 106.423 -0.100058 -2.99733 0
M  V30 1078 H 103.976 -0.0896198 -1.56043 0
M  V30 1079 H 104.711 2.35474 -2.22986 0
M  V30 1080 H 104.496 1.33946 -3.68512 0
M  V30 1081 H 105.986 2.30818 -3.48013 0
M  V30 1082 N 106.423 1.57458 -0.0668435 0
M  V30 1083 C 107.839 1.56947 0.289772 0
M  V30 1084 C 108.039 1.07584 1.70376 0
M  V30 1085 O 107.095 0.739486 2.41429 0
M  V30 1086 C 108.408 3.0052 0.103943 0
M  V30 1087 C 109.956 3.12517 0.173857 0
M  V30 1088 C 110.431 4.57997 0.0163682 0
M  V30 1089 N 111.922 4.63144 0.0721352 0
M  V30 1090 C 112.657 5.73394 -0.0253794 0
M  V30 1091 N 112.153 6.92576 -0.176133 0
M  V30 1092 N 113.946 5.62091 0.0313305 0
M  V30 1093 H 106.097 1.87863 -0.991027 0
M  V30 1094 H 108.36 0.86583 -0.38606 0
M  V30 1095 H 108.066 3.40729 -0.871572 0
M  V30 1096 H 107.94 3.67304 0.858366 0
M  V30 1097 H 110.327 2.72197 1.13985 0
M  V30 1098 H 110.408 2.48381 -0.611586 0
M  V30 1099 H 110.052 4.99005 -0.946374 0
M  V30 1100 H 109.982 5.20158 0.821153 0
M  V30 1101 H 112.473 3.77436 0.187263 0
M  V30 1102 H 112.786 7.72418 -0.242821 0
M  V30 1103 H 111.131 6.94678 -0.211429 0
M  V30 1104 H 114.322 4.67867 0.147773 0
M  V30 1105 H 114.495 6.47982 -0.048121 0
M  V30 1106 N 107.901 -0.206675 1.56239 0
M  V30 1107 C 108.831 -1.25909 1.96645 0
M  V30 1108 C 109.812 -1.48097 0.836734 0
M  V30 1109 O 110.997 -1.6003 1.10019 0
M  V30 1110 C 108.127 -2.6058 2.29599 0
M  V30 1111 C 107.081 -2.53024 3.452 0
M  V30 1112 C 106.407 -3.91861 3.63798 0
M  V30 1113 C 107.707 -2.06524 4.79734 0
M  V30 1114 H 109.401 -0.923369 2.84806 0
M  V30 1115 H 106.947 -0.442735 1.37025 0
M  V30 1116 H 108.9 -3.34375 2.56459 0
M  V30 1117 H 107.624 -2.95869 1.38307 0
M  V30 1118 H 106.283 -1.81684 3.18412 0
M  V30 1119 H 105.931 -4.24483 2.69857 0
M  V30 1120 H 105.631 -3.87683 4.4156 0
M  V30 1121 H 107.155 -4.67296 3.93022 0
M  V30 1122 H 108.569 -2.70072 5.05702 0
M  V30 1123 H 106.966 -2.13374 5.60885 0
M  V30 1124 H 108.036 -1.01802 4.74093 0
M  V30 1125 N 109.379 -1.50304 -0.473955 0
M  V30 1126 C 110.327 -1.69482 -1.59307 0
M  V30 1127 C 111.321 -0.560669 -1.59853 0
M  V30 1128 O 112.527 -0.741087 -1.64036 0
M  V30 1129 H 108.902 -0.534892 -0.528578 0
M  V30 1130 H 110.873 -2.63364 -1.40293 0
M  V30 1131 C 109.622 -1.80354 -2.97267 0
M  V30 1132 H 108.945 -2.67012 -2.97564 0
M  V30 1133 H 110.385 -1.97798 -3.75036 0
M  V30 1134 C 108.844 -0.55448 -3.32306 0
M  V30 1135 O 109.374 0.307661 -4.0052 0
M  V30 1136 N 107.58 -0.409354 -2.87702 0
M  V30 1137 H 107.127 -1.11196 -2.32364 0
M  V30 1138 H 107.085 0.425223 -3.11511 0
M  V30 1139 N 110.857 0.726932 -1.39834 0
M  V30 1140 C 112.104 1.48664 -1.37496 0
M  V30 1141 C 112.432 1.94482 0.0264678 0
M  V30 1142 O 111.687 1.67692 1.00886 0
M  V30 1143 C 111.986 2.73495 -2.30077 0
M  V30 1144 C 111.652 2.46502 -3.77555 0
M  V30 1145 C 110.314 2.3885 -4.17737 0
M  V30 1146 C 112.666 2.23604 -4.70798 0
M  V30 1147 C 109.994 2.06352 -5.49214 0
M  V30 1148 C 112.346 1.92622 -6.02561 0
M  V30 1149 C 111.01 1.83444 -6.41798 0
M  V30 1150 H 110.28 0.544001 -0.503135 0
M  V30 1151 H 112.927 0.833657 -1.72402 0
M  V30 1152 H 111.232 3.43575 -1.88317 0
M  V30 1153 H 112.929 3.31549 -2.25558 0
M  V30 1154 H 109.519 2.5334 -3.45712 0
M  V30 1155 H 113.703 2.28479 -4.40581 0
M  V30 1156 H 108.959 1.97776 -5.78528 0
M  V30 1157 H 113.133 1.73914 -6.74334 0
M  V30 1158 H 110.76 1.58029 -7.43593 0
M  V30 1159 N 112.336 1.25143 0.95797 0
M  V30 1160 C 113.561 1.12521 1.74223 0
M  V30 1161 C 113.986 -0.317402 1.85403 0
M  V30 1162 O 113.344 -1.2299 1.33204 0
M  V30 1163 C 113.392 1.78062 3.1357 0
M  V30 1164 O 112.496 1.058 3.98598 0
M  V30 1165 H 111.837 0.39304 0.535178 0
M  V30 1166 H 114.367 1.65641 1.201 0
M  V30 1167 H 114.377 1.84213 3.64046 0
M  V30 1168 H 113.052 2.83021 3.04749 0
M  V30 1169 H 111.629 1.07506 3.57067 0
M  V30 1170 N 113.814 -1.1601 1.06675 0
M  V30 1171 C 114.764 -2.18512 0.650888 0
M  V30 1172 C 115.748 -1.57677 -0.320441 0
M  V30 1173 O 116.94 -1.76482 -0.135266 0
M  V30 1174 C 114.069 -3.43273 0.0429255 0
M  V30 1175 C 113.155 -4.11176 1.03898 0
M  V30 1176 N 113.546 -4.54672 2.216 0
M  V30 1177 C 111.844 -4.37417 0.870779 0
M  V30 1178 C 112.545 -5.07248 2.84736 0
M  V30 1179 N 111.521 -5.0037 2.12441 0
M  V30 1180 H 115.323 -2.49863 1.54745 0
M  V30 1181 H 112.837 -1.32503 0.938975 0
M  V30 1182 H 114.834 -4.16006 -0.272857 0
M  V30 1183 H 113.494 -3.13408 -0.84884 0
M  V30 1184 H 114.505 -4.4828 2.59356 0
M  V30 1185 H 111.182 -4.17488 0.0313293 0
M  V30 1186 H 112.572 -5.50912 3.84636 0
M  V30 1187 N 115.292 -0.849877 -1.32721 0
M  V30 1188 C 116.54 -0.450032 -1.97026 0
M  V30 1189 C 116.861 0.996604 -1.67609 0
M  V30 1190 O 116.131 1.6958 -0.980786 0
M  V30 1191 H 114.711 -0.163426 -0.728904 0
M  V30 1192 H 117.373 -1.08526 -1.6189 0
M  V30 1193 H 116.469 -0.591146 -3.0645 0
M  V30 1194 N 116.77 1.45427 -0.607355 0
M  V30 1195 C 117.998 2.06614 -0.108814 0
M  V30 1196 C 118.413 1.45204 1.2067 0
M  V30 1197 O 117.77 0.566132 1.73497 0
M  V30 1198 C 117.821 3.61481 0.0375347 0
M  V30 1199 O 117.542 4.20598 -1.22593 0
M  V30 1200 C 119.043 4.39652 0.567561 0
M  V30 1201 H 116.263 0.66747 -0.0687351 0
M  V30 1202 H 118.807 1.86675 -0.835022 0
M  V30 1203 H 116.962 3.80762 0.714068 0
M  V30 1204 H 117.376 5.1377 -1.05547 0
M  V30 1205 H 118.85 5.48518 0.61905 0
M  V30 1206 H 119.327 4.09417 1.58978 0
M  V30 1207 H 119.933 4.25234 -0.0749202 0
M  V30 1208 N 118.248 0.346503 1.53744 0
M  V30 1209 C 119.198 -0.524953 2.21874 0
M  V30 1210 C 120.182 -1.06376 1.20718 0
M  V30 1211 O 121.374 -0.996972 1.46251 0
M  V30 1212 C 118.503 -1.6739 2.99726 0
M  V30 1213 C 117.589 -1.14888 4.08242 0
M  V30 1214 N 117.98 -0.345329 5.0462 0
M  V30 1215 C 116.278 -1.4255 4.22606 0
M  V30 1216 C 116.979 -0.0600706 5.81669 0
M  V30 1217 N 115.955 -0.65252 5.39669 0
M  V30 1218 H 119.757 0.0960091 2.93743 0
M  V30 1219 H 117.271 0.15352 1.61673 0
M  V30 1220 H 119.268 -2.3102 3.47038 0
M  V30 1221 H 117.928 -2.29811 2.29384 0
M  V30 1222 H 118.939 0.0138439 5.17898 0
M  V30 1223 H 115.616 -2.05389 3.63486 0
M  V30 1224 H 117.006 0.588321 6.69319 0
M  V30 1225 N 119.726 -1.57421 0.075193 0
M  V30 1226 C 120.636 -2.1642 -0.905511 0
M  V30 1227 C 121.652 -1.12828 -1.32461 0
M  V30 1228 O 122.828 -1.45109 -1.39661 0
M  V30 1229 C 119.893 -2.71693 -2.15369 0
M  V30 1230 C 118.954 -3.90171 -1.79068 0
M  V30 1231 C 118.187 -4.42798 -2.97936 0
M  V30 1232 O 118.41 -3.94416 -4.12058 0
M  V30 1233 O 117.344 -5.34085 -2.77555 0
M  V30 1234 H 121.17 -3.00588 -0.433626 0
M  V30 1235 H 118.755 -1.48664 -0.148067 0
M  V30 1236 H 120.637 -3.07104 -2.88557 0
M  V30 1237 H 119.312 -1.90582 -2.61649 0
M  V30 1238 H 118.219 -3.59606 -1.03122 0
M  V30 1239 H 119.552 -4.72584 -1.37569 0
M  V30 1240 N 121.204 0.198386 -1.56346 0
M  V30 1241 C 122.434 0.934215 -1.84271 0
M  V30 1242 C 122.842 1.77496 -0.655125 0
M  V30 1243 O 122.185 1.7961 0.385488 0
M  V30 1244 C 122.247 1.88278 -3.06254 0
M  V30 1245 C 121.911 1.22431 -4.40295 0
M  V30 1246 C 122.908 0.602839 -5.16393 0
M  V30 1247 C 120.593 1.22915 -4.87029 0
M  V30 1248 C 122.587 -0.0050083 -6.374 0
M  V30 1249 C 120.274 0.617465 -6.07973 0
M  V30 1250 C 121.272 0.00146341 -6.83 0
M  V30 1251 O 120.96 -0.600642 -8.01653 0
M  V30 1252 H 120.692 0.278245 -0.616081 0
M  V30 1253 H 123.246 0.211626 -2.04307 0
M  V30 1254 H 121.476 2.64498 -2.82095 0
M  V30 1255 H 123.165 2.48612 -3.20853 0
M  V30 1256 H 123.931 0.591265 -4.81382 0
M  V30 1257 H 119.81 1.69801 -4.28589 0
M  V30 1258 H 123.354 -0.48643 -6.95902 0
M  V30 1259 H 119.251 0.62653 -6.42452 0
M  V30 1260 H 120.019 -0.497225 -8.16988 0
M  V30 1261 N 122.682 1.50554 0.465978 0
M  V30 1262 C 123.632 1.66177 1.56106 0
M  V30 1263 C 124.616 0.516265 1.52393 0
M  V30 1264 O 125.808 0.770906 1.5933 0
M  V30 1265 C 122.937 1.76396 2.94515 0
M  V30 1266 C 122.023 2.9664 3.03093 0
M  V30 1267 N 122.414 4.20245 2.81474 0
M  V30 1268 C 120.712 2.95304 3.34233 0
M  V30 1269 C 121.413 5.01259 2.95151 0
M  V30 1270 N 120.389 4.35318 3.25576 0
M  V30 1271 H 124.191 2.59434 1.38099 0
M  V30 1272 H 121.705 1.47808 0.6728 0
M  V30 1273 H 123.702 1.85694 3.73261 0
M  V30 1274 H 122.362 0.843017 3.13565 0
M  V30 1275 H 123.373 4.4966 2.56956 0
M  V30 1276 H 120.05 2.12729 3.59239 0
M  V30 1277 H 121.44 6.09564 2.82632 0
M  V30 1278 N 124.16 -0.719506 1.40217 0
M  V30 1279 C 125.123 -1.8153 1.39927 0
M  V30 1280 C 126.123 -1.58095 0.293723 0
M  V30 1281 O 127.313 -1.65209 0.552429 0
M  V30 1282 C 124.445 -3.19561 1.18716 0
M  V30 1283 H 125.638 -1.83186 2.37451 0
M  V30 1284 H 123.191 -0.924746 1.26008 0
M  V30 1285 H 123.926 -3.23557 0.219366 0
M  V30 1286 H 123.711 -3.3797 1.98793 0
M  V30 1287 H 125.201 -3.99598 1.21291 0
M  V30 1288 N 125.638 -1.25649 -0.95132 0
M  V30 1289 C 126.548 -1.08073 -2.08224 0
M  V30 1290 C 127.564 -0.0169666 -1.73992 0
M  V30 1291 O 128.74 -0.218593 -2.0021 0
M  V30 1292 C 125.805 -0.704922 -3.39458 0
M  V30 1293 C 124.866 -1.84699 -3.87537 0
M  V30 1294 C 124.099 -1.48902 -5.12508 0
M  V30 1295 O 124.322 -0.386156 -5.69091 0
M  V30 1296 O 123.256 -2.32033 -5.55378 0
M  V30 1297 H 127.082 -2.02924 -2.25954 0
M  V30 1298 H 124.667 -1.04618 -1.06656 0
M  V30 1299 H 126.549 -0.507609 -4.18332 0
M  V30 1300 H 125.224 0.214291 -3.2299 0
M  V30 1301 H 124.131 -2.09919 -3.09653 0
M  V30 1302 H 125.464 -2.74557 -4.08509 0
M  V30 1303 N 127.117 1.15442 -1.07289 0
M  V30 1304 C 128.345 1.90096 -0.81676 0
M  V30 1305 C 128.76 1.7798 0.629966 0
M  V30 1306 O 128.117 1.1313 1.43206 0
M  V30 1307 C 128.168 3.40466 -1.21512 0
M  V30 1308 O 127.889 3.52232 -2.60508 0
M  V30 1309 C 129.39 4.32145 -0.988198 0
M  V30 1310 H 126.61 0.602495 -0.295366 0
M  V30 1311 H 129.154 1.4627 -1.42918 0
M  V30 1312 H 127.309 3.81958 -0.647039 0
M  V30 1313 H 127.723 4.45549 -2.76742 0
M  V30 1314 H 129.197 5.36072 -1.31645 0
M  V30 1315 H 129.674 4.39135 0.0755063 0
M  V30 1316 H 130.28 3.96395 -1.54115 0
M  V30 1317 N 128.595 0.856903 1.32268 0
M  V30 1318 C 129.844 0.457599 1.96441 0
M  V30 1319 C 130.157 -0.992426 1.68553 0
M  V30 1320 O 131.363 -1.49727 2.26482 0
M  V30 1321 C 129.819 0.767358 3.51624 0
M  V30 1322 C 129.427 2.23326 3.88367 0
M  V30 1323 C 131.171 0.435887 4.22256 0
M  V30 1324 C 129.078 2.48613 5.36606 0
M  V30 1325 H 128.008 0.167387 0.735185 0
M  V30 1326 H 130.659 1.048 1.5063 0
M  V30 1327 H 129.041 0.106367 3.95857 0
M  V30 1328 H 130.215 2.93623 3.55137 0
M  V30 1329 H 128.53 2.52948 3.30766 0
M  V30 1330 H 131.127 0.602202 5.31298 0
M  V30 1331 H 131.47 -0.622672 4.11617 0
M  V30 1332 H 132.003 1.05286 3.83614 0
M  V30 1333 H 128.742 3.53101 5.52268 0
M  V30 1334 H 128.262 1.82896 5.71235 0
M  V30 1335 H 129.941 2.32676 6.03714 0
M  V30 1336 N 130.073 -1.45103 0.615059 0
M  V30 1337 C 131.02 -2.30586 -0.0993978 0
M  V30 1338 C 131.99 -1.42544 -0.852669 0
M  V30 1339 O 133.175 -1.71465 -0.836917 0
M  V30 1340 C 130.315 -3.27572 -1.08583 0
M  V30 1341 C 129.428 -4.30717 -0.332656 0
M  V30 1342 C 128.563 -5.14807 -1.30947 0
M  V30 1343 C 127.602 -6.09673 -0.544538 0
M  V30 1344 N 126.739 -6.86517 -1.47101 0
M  V30 1345 H 131.579 -2.91144 0.635542 0
M  V30 1346 H 129.116 -1.4346 0.325206 0
M  V30 1347 H 131.074 -3.82276 -1.67095 0
M  V30 1348 H 129.704 -2.68751 -1.78809 0
M  V30 1349 H 128.756 -3.78615 0.368107 0
M  V30 1350 H 130.068 -4.98102 0.263842 0
M  V30 1351 H 129.222 -5.73948 -1.96643 0
M  V30 1352 H 127.961 -4.47458 -1.9399 0
M  V30 1353 H 126.966 -5.49656 0.126003 0
M  V30 1354 H 128.191 -6.79052 0.080947 0
M  V30 1355 H 126.137 -6.21851 -2.08895 0
M  V30 1356 H 126.054 -7.50281 -0.928137 0
M  V30 1357 H 127.322 -7.50194 -2.11731 0
M  V30 1358 N 131.551 -0.354651 -1.53558 0
M  V30 1359 C 132.499 0.512195 -2.26891 0
M  V30 1360 C 133.493 1.09263 -1.29452 0
M  V30 1361 O 134.699 1.03709 -1.47121 0
M  V30 1362 H 131.074 0.183878 -0.729173 0
M  V30 1363 H 133.045 -0.128202 -2.98124 0
M  V30 1364 C 131.794 1.64563 -3.06291 0
M  V30 1365 H 131.117 1.20829 -3.81104 0
M  V30 1366 H 132.557 2.22711 -3.60799 0
M  V30 1367 C 131.016 2.58158 -2.16462 0
M  V30 1368 O 131.546 3.60695 -1.76811 0
M  V30 1369 N 129.752 2.27096 -1.81317 0
M  V30 1370 H 129.299 1.43751 -2.1376 0
M  V30 1371 H 129.257 2.89975 -1.21498 0
M  V30 1372 N 133.029 1.57378 -0.0835403 0
M  V30 1373 C 134.275 1.94217 0.583733 0
M  V30 1374 C 134.608 0.964653 1.68547 0
M  V30 1375 O 133.883 -0.00422258 1.945 0
M  V30 1376 C 134.166 3.41253 1.14972 0
M  V30 1377 C 134.019 4.49768 0.0538277 0
M  V30 1378 C 135.338 3.89352 2.05166 0
M  V30 1379 H 132.457 0.706233 0.210724 0
M  V30 1380 H 135.099 1.89392 -0.1519 0
M  V30 1381 H 133.249 3.45496 1.77665 0
M  V30 1382 H 134.921 4.57641 -0.579851 0
M  V30 1383 H 133.164 4.29432 -0.614068 0
M  V30 1384 H 133.835 5.49817 0.490452 0
M  V30 1385 H 136.311 3.87189 1.52393 0
M  V30 1386 H 135.187 4.92822 2.41698 0
M  V30 1387 H 135.448 3.27973 2.96456 0
M  V30 1388 N 134.507 -0.190092 1.56449 0
M  V30 1389 C 135.923 -0.54113 1.50146 0
M  V30 1390 C 136.123 -1.85603 0.784465 0
M  V30 1391 O 135.179 -2.5024 0.337051 0
M  V30 1392 C 136.492 -0.591241 2.9483 0
M  V30 1393 C 138.04 -0.679732 3.0553 0
M  V30 1394 C 138.515 -0.760908 4.51635 0
M  V30 1395 N 140.006 -0.824302 4.55806 0
M  V30 1396 C 140.741 -0.907365 5.66175 0
M  V30 1397 N 140.237 -0.952422 6.86222 0
M  V30 1398 N 142.03 -0.94494 5.541 0
M  V30 1399 H 134.181 0.67235 2.01478 0
M  V30 1400 H 136.444 0.240127 0.917084 0
M  V30 1401 H 136.15 0.305905 3.50367 0
M  V30 1402 H 136.024 -1.44422 3.48457 0
M  V30 1403 H 138.411 -1.56731 2.50039 0
M  V30 1404 H 138.492 0.199549 2.5502 0
M  V30 1405 H 138.136 0.122336 5.07753 0
M  V30 1406 H 138.066 -1.65606 4.99882 0
M  V30 1407 H 140.557 -0.798526 3.69367 0
M  V30 1408 H 140.87 -1.01645 7.66086 0
M  V30 1409 H 139.215 -0.921014 6.8887 0
M  V30 1410 H 142.406 -0.906612 4.59236 0
M  V30 1411 H 142.579 -1.00622 6.4014 0
M  V30 1412 N 135.985 -1.50799 -0.457987 0
M  V30 1413 C 137.213 -1.66218 -1.23203 0
M  V30 1414 C 137.628 -0.350894 -1.85511 0
M  V30 1415 O 136.985 0.668546 -1.69814 0
M  V30 1416 C 137.036 -2.76291 -2.33121 0
M  V30 1417 O 136.757 -4.02338 -1.73366 0
M  V30 1418 C 138.258 -3.028 -3.2377 0
M  V30 1419 H 135.478 -0.558361 -0.372121 0
M  V30 1420 H 138.022 -1.97099 -0.545179 0
M  V30 1421 H 136.177 -2.48068 -2.97558 0
M  V30 1422 H 136.591 -4.63312 -2.4585 0
M  V30 1423 H 138.065 -3.8345 -3.97077 0
M  V30 1424 H 138.542 -2.14385 -3.83322 0
M  V30 1425 H 139.148 -3.32604 -2.65056 0
M  V30 1426 N 137.463 0.71206 -1.40597 0
M  V30 1427 C 138.426 1.80785 -1.40888 0
M  V30 1428 C 139.426 1.57937 -0.302103 0
M  V30 1429 O 140.616 1.64913 -0.561182 0
M  V30 1430 C 137.748 3.18927 -1.20409 0
M  V30 1431 H 138.941 1.81924 -2.38419 0
M  V30 1432 H 136.494 0.91805 -1.26497 0
M  V30 1433 H 137.229 3.23436 -0.236522 0
M  V30 1434 H 137.014 3.36911 -2.00582 0
M  V30 1435 H 138.504 3.98949 -1.23408 0
M  V30 1436 N 138.941 1.26152 0.944643 0
M  V30 1437 C 140.169 1.14259 1.72489 0
M  V30 1438 C 140.584 -0.302555 1.8636 0
M  V30 1439 O 139.941 -1.20741 1.36849 0
M  V30 1440 C 139.992 1.80266 3.13347 0
M  V30 1441 O 139.713 3.19133 3.00143 0
M  V30 1442 C 141.214 1.74283 4.07603 0
M  V30 1443 H 138.434 0.398051 0.540181 0
M  V30 1444 H 140.978 1.66706 1.18446 0
M  V30 1445 H 139.133 1.31766 3.64303 0
M  V30 1446 H 139.547 3.51744 3.89071 0
M  V30 1447 H 141.021 2.25111 5.04013 0
M  V30 1448 H 141.498 0.708631 4.33446 0
M  V30 1449 H 142.104 2.22319 3.62567 0
M  V30 1450 N 140.419 -1.14872 1.07899 0
M  V30 1451 C 141.329 -2.2341 0.715915 0
M  V30 1452 C 142.345 -1.71808 -0.275306 0
M  V30 1453 O 143.521 -2.01039 -0.120545 0
M  V30 1454 C 140.586 -3.46474 0.125168 0
M  V30 1455 C 139.647 -4.13039 1.17034 0
M  V30 1456 C 138.88 -5.30229 0.607688 0
M  V30 1457 O 139.103 -5.675 -0.574497 0
M  V30 1458 O 138.037 -5.86444 1.35526 0
M  V30 1459 H 141.863 -2.56808 1.62121 0
M  V30 1460 H 139.448 -1.22702 0.852322 0
M  V30 1461 H 141.33 -4.20917 -0.201729 0
M  V30 1462 H 140.005 -3.14811 -0.753364 0
M  V30 1463 H 138.912 -3.40493 1.54968 0
M  V30 1464 H 140.245 -4.48796 2.02097 0
M  V30 1465 N 141.898 -0.863906 -1.31812 0
M  V30 1466 C 143.123 -0.48527 -2.01643 0
M  V30 1467 C 143.548 0.913058 -1.64453 0
M  V30 1468 O 142.906 1.6014 -0.849985 0
M  V30 1469 C 142.954 -0.642625 -3.54828 0
M  V30 1470 O 142.058 0.320659 -4.11151 0
M  V30 1471 H 141.399 -0.193793 -0.635091 0
M  V30 1472 H 143.929 -1.16565 -1.68148 0
M  V30 1473 H 143.939 -0.533628 -4.04495 0
M  V30 1474 H 142.614 -1.66227 -3.81237 0
M  V30 1475 H 141.191 0.167126 -3.72525 0
M  V30 1476 N 143.376 1.44774 -0.622745 0
M  V30 1477 C 144.623 2.02121 -0.1239 0
M  V30 1478 C 144.951 1.48915 1.25118 0
M  V30 1479 O 144.206 0.660045 1.84233 0
M  V30 1480 C 144.505 3.57364 -0.0508323 0
M  V30 1481 C 144.171 4.29787 -1.36358 0
M  V30 1482 C 142.833 4.4929 -1.72314 0
M  V30 1483 C 145.185 4.71062 -2.23048 0
M  V30 1484 C 142.513 5.07325 -2.94682 0
M  V30 1485 C 144.865 5.30452 -3.44679 0
M  V30 1486 C 143.529 5.48175 -3.80868 0
M  V30 1487 H 142.799 0.739612 -0.0453381 0
M  V30 1488 H 145.446 1.73648 -0.807389 0
M  V30 1489 H 143.751 3.85202 0.715991 0
M  V30 1490 H 145.448 3.99456 0.351533 0
M  V30 1491 H 142.038 4.14932 -1.07375 0
M  V30 1492 H 146.222 4.55715 -1.96565 0
M  V30 1493 H 141.478 5.19235 -3.22809 0
M  V30 1494 H 145.652 5.61385 -4.12092 0
M  V30 1495 H 143.279 5.92912 -4.75773 0
M  V30 1496 N 144.854 0.36279 1.53368 0
M  V30 1497 C 145.817 -0.472679 2.24273 0
M  V30 1498 C 146.817 -1.012 1.24961 0
M  V30 1499 O 148.007 -0.898194 1.49259 0
M  V30 1500 C 145.139 -1.66039 2.97731 0
M  V30 1501 H 146.332 0.14773 2.99536 0
M  V30 1502 H 143.885 0.114434 1.55881 0
M  V30 1503 H 144.62 -2.31896 2.26704 0
M  V30 1504 H 144.405 -1.28066 3.70596 0
M  V30 1505 H 145.895 -2.25252 3.51641 0
M  V30 1506 N 146.332 -1.57332 0.0918853 0
M  V30 1507 C 147.557 -1.98995 -0.584442 0
M  V30 1508 C 147.982 -0.970528 -1.61128 0
M  V30 1509 O 147.34 0.0613904 -1.81196 0
M  V30 1510 C 147.388 -3.39636 -1.21161 0
M  V30 1511 O 146.492 -3.40447 -2.32744 0
M  V30 1512 H 145.833 -0.647165 -0.148572 0
M  V30 1513 H 148.363 -2.03873 0.172347 0
M  V30 1514 H 148.373 -3.7726 -1.55367 0
M  V30 1515 H 147.048 -4.13356 -0.459313 0
M  V30 1516 H 145.625 -3.14614 -2.0018 0
M  V30 1517 N 147.81 0.181792 -1.56548 0
M  V30 1518 C 149.087 0.926765 -1.72251 0
M  V30 1519 C 149.467 2.00831 -0.650386 0
M  V30 1520 O 148.815 2.26008 0.336521 0
M  V30 1521 C 149.025 1.50106 -3.1507 0
M  V30 1522 C 150.373 1.97805 -3.75711 0
M  V30 1523 O 151.397 1.59922 -3.18282 0
M  V30 1524 O 150.256 2.67555 -4.76525 0
M  V30 1525 H 147.35 0.435506 -0.703039 0
M  V30 1526 H 149.896 0.170443 -1.68842 0
M  V30 1527 H 148.668 0.72212 -3.84579 0
M  V30 1528 H 148.291 2.32186 -3.22763 0
M  V30 1529 N 149.288 1.51039 0.449983 0
M  V30 1530 C 150.699 1.557 1.03026 0
M  V30 1531 C 151.05 0.372939 1.92623 0
M  V30 1532 O 150.175 -0.511771 2.10261 0
M  V30 1533 C 150.77 2.82171 1.87523 0
M  V30 1534 C 149.329 2.89444 2.40622 0
M  V30 1535 C 148.476 2.50228 1.19504 0
M  V30 1536 H 151.427 1.56999 0.231745 0
M  V30 1537 H 151.448 2.65219 2.72835 0
M  V30 1538 H 150.96 3.68331 1.22286 0
M  V30 1539 H 149.061 2.07685 3.0935 0
M  V30 1540 H 149.174 3.92816 2.74285 0
M  V30 1541 H 147.538 2.03139 1.53644 0
M  V30 1542 H 148.321 3.38719 0.558972 0
M  V30 1543 N 150.766 -0.704594 1.40972 0
M  V30 1544 C 152.015 -1.46018 1.39146 0
M  V30 1545 C 152.328 -1.956 0.000589254 0
M  V30 1546 O 153.534 -2.71137 -0.1403 0
M  V30 1547 C 151.99 -2.63996 2.4461 0
M  V30 1548 C 151.598 -2.21238 3.89561 0
M  V30 1549 C 153.342 -3.41677 2.51907 0
M  V30 1550 C 151.249 -3.3612 4.86598 0
M  V30 1551 H 150.179 -0.548444 0.517422 0
M  V30 1552 H 152.83 -0.765784 1.66757 0
M  V30 1553 H 151.212 -3.3566 2.10115 0
M  V30 1554 H 152.386 -1.56923 4.33257 0
M  V30 1555 H 150.701 -1.56574 3.85841 0
M  V30 1556 H 153.298 -4.27182 3.2159 0
M  V30 1557 H 153.641 -3.86247 1.55303 0
M  V30 1558 H 154.174 -2.77064 2.85448 0
M  V30 1559 H 150.913 -2.96572 5.84573 0
M  V30 1560 H 150.433 -3.99315 4.47557 0
M  V30 1561 H 152.112 -4.02029 5.06934 0
M  V30 1562 N 152.244 -1.26651 -0.937939 0
M  V30 1563 C 153.174 -1.10993 -2.05433 0
M  V30 1564 C 154.155 -0.0142161 -1.70094 0
M  V30 1565 O 155.34 -0.186837 -1.93299 0
M  V30 1566 C 152.47 -0.745561 -3.39203 0
M  V30 1567 C 151.424 -1.79337 -3.88616 0
M  V30 1568 C 150.75 -1.28324 -5.19073 0
M  V30 1569 C 152.05 -3.19553 -4.13138 0
M  V30 1570 H 153.744 -2.0438 -2.1879 0
M  V30 1571 H 151.29 -0.984041 -1.05131 0
M  V30 1572 H 153.243 -0.622888 -4.16771 0
M  V30 1573 H 151.967 0.22401 -3.25831 0
M  V30 1574 H 150.626 -1.90477 -3.13231 0
M  V30 1575 H 150.274 -0.303414 -5.02084 0
M  V30 1576 H 149.974 -1.98369 -5.53103 0
M  V30 1577 H 151.498 -1.1733 -5.99221 0
M  V30 1578 H 152.912 -3.11471 -4.81309 0
M  V30 1579 H 151.309 -3.87218 -4.58457 0
M  V30 1580 H 152.379 -3.65368 -3.18801 0
M  V30 1581 N 153.722 1.14298 -1.08507 0
M  V30 1582 C 154.952 1.88945 -0.835663 0
M  V30 1583 C 155.36 1.78894 0.615928 0
M  V30 1584 O 154.703 1.1468 1.43506 0
M  V30 1585 C 154.765 3.39585 -1.17994 0
M  V30 1586 C 154.429 3.7342 -2.63451 0
M  V30 1587 C 155.426 3.73454 -3.61702 0
M  V30 1588 C 153.111 4.03368 -2.99332 0
M  V30 1589 C 155.105 4.02961 -4.93864 0
M  V30 1590 C 152.792 4.32538 -4.31687 0
M  V30 1591 C 153.79 4.32318 -5.28763 0
M  V30 1592 O 153.478 4.6078 -6.58739 0
M  V30 1593 H 153.21 0.605307 -0.300965 0
M  V30 1594 H 155.764 1.45673 -1.44806 0
M  V30 1595 H 153.994 3.83315 -0.51055 0
M  V30 1596 H 155.683 3.9554 -0.911182 0
M  V30 1597 H 156.449 3.50403 -3.35325 0
M  V30 1598 H 152.328 4.02692 -2.24411 0
M  V30 1599 H 155.872 4.02704 -5.69627 0
M  V30 1600 H 151.769 4.55059 -4.57812 0
M  V30 1601 H 152.537 4.78492 -6.64069 0
M  V30 1602 N 155.201 0.870884 1.31352 0
M  V30 1603 C 156.617 0.562932 1.49343 0
M  V30 1604 C 156.817 -0.902725 1.80148 0
M  V30 1605 O 155.873 -1.68484 1.88067 0
M  V30 1606 C 157.186 1.46393 2.62659 0
M  V30 1607 C 158.734 1.46607 2.76542 0
M  V30 1608 C 159.209 2.35266 3.92955 0
M  V30 1609 N 160.7 2.33151 4.00243 0
M  V30 1610 C 161.435 2.98471 4.89594 0
M  V30 1611 N 160.931 3.72964 5.8384 0
M  V30 1612 N 162.724 2.87775 4.82848 0
M  V30 1613 H 154.875 1.81923 1.09626 0
M  V30 1614 H 157.138 0.777934 0.541777 0
M  V30 1615 H 156.844 2.50689 2.46674 0
M  V30 1616 H 156.718 1.16314 3.58819 0
M  V30 1617 H 159.105 0.43069 2.9194 0
M  V30 1618 H 159.186 1.8071 1.81046 0
M  V30 1619 H 158.83 3.38881 3.78315 0
M  V30 1620 H 158.76 1.98487 4.87761 0
M  V30 1621 H 161.251 1.79006 3.32814 0
M  V30 1622 H 161.564 4.19932 6.4875 0
M  V30 1623 H 159.909 3.77073 5.83816 0
M  V30 1624 H 163.1 2.29116 4.08195 0
M  V30 1625 H 163.273 3.38961 5.52277 0
M  V30 1626 N 156.679 -1.44442 0.630414 0
M  V30 1627 C 158.09 -1.85434 0.217063 0
M  V30 1628 C 158.441 -1.52748 -1.23136 0
M  V30 1629 O 157.566 -0.965205 -1.93682 0
M  V30 1630 C 158.161 -3.36581 0.387168 0
M  V30 1631 C 156.72 -3.76389 0.0283297 0
M  V30 1632 C 155.867 -2.68296 0.700889 0
M  V30 1633 H 158.818 -1.34919 0.83562 0
M  V30 1634 H 158.839 -3.78657 -0.374086 0
M  V30 1635 H 158.351 -3.60339 1.44144 0
M  V30 1636 H 156.452 -3.58246 -1.02423 0
M  V30 1637 H 156.565 -4.77095 0.437892 0
M  V30 1638 H 154.929 -2.54335 0.136267 0
M  V30 1639 H 155.712 -2.94887 1.75774 0
M  V30 1640 N 158.157 -0.370918 -1.53173 0
M  V30 1641 C 159.403 0.217423 -2.01631 0
M  V30 1642 C 159.736 1.47983 -1.25756 0
M  V30 1643 O 159.011 1.91274 -0.352764 0
M  V30 1644 C 159.294 0.503982 -3.56556 0
M  V30 1645 C 159.147 -0.77243 -4.43118 0
M  V30 1646 C 160.466 1.30234 -4.20389 0
M  V30 1647 H 157.585 0.0775486 -0.732909 0
M  V30 1648 H 160.227 -0.496863 -1.83388 0
M  V30 1649 H 158.377 1.11248 -3.72231 0
M  V30 1650 H 160.049 -1.4098 -4.39229 0
M  V30 1651 H 158.292 -1.39167 -4.10871 0
M  V30 1652 H 158.963 -0.526815 -5.4948 0
M  V30 1653 H 161.439 0.787546 -4.08579 0
M  V30 1654 H 160.315 1.47158 -5.28806 0
M  V30 1655 H 160.576 2.31237 -3.76805 0
M  V30 1656 N 159.635 1.57281 -0.100228 0
M  V30 1657 C 160.598 2.13158 0.842398 0
M  V30 1658 C 161.598 1.06202 1.20738 0
M  V30 1659 O 162.788 1.32066 1.13597 0
M  V30 1660 C 159.92 2.65639 2.13655 0
M  V30 1661 H 161.113 2.97766 0.357114 0
M  V30 1662 H 158.666 1.5559 0.148823 0
M  V30 1663 H 159.401 1.84566 2.66657 0
M  V30 1664 H 159.186 3.43844 1.88451 0
M  V30 1665 H 160.676 3.08846 2.81077 0
M  V30 1666 N 161.113 -0.173488 1.56642 0
M  V30 1667 C 162.359 -0.891784 1.8214 0
M  V30 1668 C 162.692 -1.8199 0.677736 0
M  V30 1669 O 161.967 -1.91842 -0.320446 0
M  V30 1670 C 162.25 -1.68933 3.18015 0
M  V30 1671 C 162.103 -0.784487 4.42906 0
M  V30 1672 C 163.422 -2.65748 3.50808 0
M  V30 1673 H 160.541 -0.322761 0.662567 0
M  V30 1674 H 163.183 -0.158095 1.89341 0
M  V30 1675 H 161.333 -2.31482 3.12007 0
M  V30 1676 H 163.005 -0.172046 4.60979 0
M  V30 1677 H 161.248 -0.0924117 4.33702 0
M  V30 1678 H 161.919 -1.37799 5.34524 0
M  V30 1679 H 164.395 -2.13327 3.57255 0
M  V30 1680 H 163.271 -3.18619 4.4696 0
M  V30 1681 H 163.532 -3.45842 2.75401 0
M  V30 1682 N 162.591 -1.51276 -0.441967 0
M  V30 1683 C 163.554 -1.7167 -1.51862 0
M  V30 1684 C 164.554 -0.586793 -1.49711 0
M  V30 1685 O 165.744 -0.854276 -1.51815 0
M  V30 1686 C 162.876 -1.76889 -2.91416 0
M  V30 1687 H 164.069 -2.67754 -1.35084 0
M  V30 1688 H 161.622 -1.41196 -0.670333 0
M  V30 1689 H 162.357 -0.826026 -3.13604 0
M  V30 1690 H 162.142 -2.59001 -2.94382 0
M  V30 1691 H 163.632 -1.94522 -3.69528 0
M  V30 1692 N 164.069 0.697108 -1.41344 0
M  V30 1693 C 164.999 1.82353 -1.45841 0
M  V30 1694 C 165.98 1.67115 -0.317247 0
M  V30 1695 O 167.165 1.86871 -0.528474 0
M  V30 1696 C 164.295 3.20476 -1.33838 0
M  V30 1697 C 163.249 3.50415 -2.4575 0
M  V30 1698 C 162.575 4.87878 -2.18813 0
M  V30 1699 C 163.875 3.49546 -3.88091 0
M  V30 1700 H 165.569 1.78846 -2.40113 0
M  V30 1701 H 163.115 0.859028 -1.15571 0
M  V30 1702 H 165.068 3.98988 -1.35596 0
M  V30 1703 H 163.792 3.24604 -0.360498 0
M  V30 1704 H 162.451 2.74253 -2.43271 0
M  V30 1705 H 162.099 4.8863 -1.19371 0
M  V30 1706 H 161.799 5.08875 -2.93803 0
M  V30 1707 H 163.323 5.68702 -2.22284 0
M  V30 1708 H 164.737 4.18066 -3.92293 0
M  V30 1709 H 163.134 3.82075 -4.62751 0
M  V30 1710 H 164.204 2.48552 -4.16353 0
M  V30 1711 N 165.547 1.27147 0.931209 0
M  V30 1712 C 166.824 1.0401 1.65654 0
M  V30 1713 C 167.204 -0.426297 2.06751 0
M  V30 1714 O 166.552 -1.40879 1.79904 0
M  V30 1715 C 166.762 1.99834 2.86125 0
M  V30 1716 C 168.11 2.29007 3.57549 0
M  V30 1717 O 169.134 1.97779 2.96246 0
M  V30 1718 O 167.993 2.82222 4.67989 0
M  V30 1719 H 165.087 0.396239 0.725895 0
M  V30 1720 H 167.633 1.38397 0.982056 0
M  V30 1721 H 166.405 2.98744 2.52721 0
M  V30 1722 H 166.028 1.65987 3.61295 0
M  V30 1723 N 167.025 -1.13721 1.09112 0
M  V30 1724 C 168.253 -1.88773 0.846899 0
M  V30 1725 C 168.668 -1.7896 -0.601572 0
M  V30 1726 O 168.025 -1.15394 -1.41388 0
M  V30 1727 C 168.076 -3.3849 1.26913 0
M  V30 1728 O 167.797 -3.48043 2.66079 0
M  V30 1729 C 169.298 -4.30518 1.05682 0
M  V30 1730 H 166.518 -0.59772 0.304914 0
M  V30 1731 H 169.062 -1.43977 1.45227 0
M  V30 1732 H 167.217 -3.80881 0.707723 0
M  V30 1733 H 167.631 -4.4109 2.83795 0
M  V30 1734 H 169.105 -5.3391 1.40156 0
M  V30 1735 H 169.582 -4.392 -0.00563416 0
M  V30 1736 H 170.188 -3.93893 1.60402 0
M  V30 1737 N 168.503 -0.877838 -1.30888 0
M  V30 1738 C 169.45 -0.337538 -2.28318 0
M  V30 1739 C 170.42 0.568346 -1.56074 0
M  V30 1740 O 171.605 0.498298 -1.84178 0
M  V30 1741 C 168.745 0.448142 -3.42178 0
M  V30 1742 C 167.858 -0.48615 -4.29256 0
M  V30 1743 C 166.993 0.314427 -5.30269 0
M  V30 1744 C 166.032 -0.615791 -6.08995 0
M  V30 1745 N 165.169 0.14902 -7.01942 0
M  V30 1746 H 170.009 -1.17356 -2.73919 0
M  V30 1747 H 167.546 -0.590094 -1.34745 0
M  V30 1748 H 169.504 0.919517 -4.06941 0
M  V30 1749 H 168.134 1.24879 -2.97666 0
M  V30 1750 H 167.186 -1.076 -3.64865 0
M  V30 1751 H 168.498 -1.19909 -4.84173 0
M  V30 1752 H 167.652 0.847969 -6.00745 0
M  V30 1753 H 166.391 1.06062 -4.76027 0
M  V30 1754 H 165.396 -1.16102 -5.37401 0
M  V30 1755 H 166.621 -1.36097 -6.65323 0
M  V30 1756 H 164.567 0.877884 -6.50099 0
M  V30 1757 H 164.484 -0.504433 -7.54315 0
M  V30 1758 H 165.752 0.663537 -7.76671 0
M  V30 1759 N 169.982 1.44106 -0.638065 0
M  V30 1760 C 171.23 2.01579 -0.145043 0
M  V30 1761 C 171.551 1.50496 1.24 0
M  V30 1762 O 170.821 0.711374 1.82527 0
M  V30 1763 H 169.401 0.745282 -0.05063 0
M  V30 1764 H 172.063 1.76516 -0.826327 0
M  V30 1765 H 171.159 3.11877 -0.118039 0
M  V30 1766 N 171.46 0.379036 1.52974 0
M  V30 1767 C 172.871 -0.0972525 1.86447 0
M  V30 1768 C 173.222 -1.47027 1.29914 0
M  V30 1769 O 172.347 -2.07135 0.626433 0
M  V30 1770 C 172.942 -0.183248 3.38304 0
M  V30 1771 C 171.501 -0.603812 3.71525 0
M  V30 1772 C 170.648 0.240632 2.76254 0
M  V30 1773 H 173.599 0.597316 1.4703 0
M  V30 1774 H 173.62 -1.00432 3.67006 0
M  V30 1775 H 173.132 0.816191 3.79421 0
M  V30 1776 H 171.233 -1.61099 3.35973 0
M  V30 1777 H 171.346 -0.369086 4.77676 0
M  V30 1778 H 169.71 -0.292548 2.53014 0
M  V30 1779 H 170.493 1.23786 3.20206 0
M  V30 1780 N 172.938 -1.57226 0.108567 0
M  V30 1781 C 173.848 -2.18292 -0.859401 0
M  V30 1782 C 174.864 -1.15612 -1.30038 0
M  V30 1783 O 176.04 -1.48039 -1.36552 0
M  V30 1784 C 173.105 -2.762 -2.09558 0
M  V30 1785 C 172.166 -3.93881 -1.70752 0
M  V30 1786 C 171.399 -4.49018 -2.88477 0
M  V30 1787 O 171.622 -4.03068 -4.036 0
M  V30 1788 O 170.556 -5.39852 -2.66164 0
M  V30 1789 H 174.382 -3.01441 -0.369769 0
M  V30 1790 H 171.967 -1.48945 -0.1165 0
M  V30 1791 H 173.849 -3.13156 -2.81978 0
M  V30 1792 H 172.524 -1.96089 -2.57548 0
M  V30 1793 H 171.431 -3.61713 -0.954714 0
M  V30 1794 H 172.764 -4.75396 -1.27513 0
M  V30 1795 N 174.416 0.165178 -1.56732 0
M  V30 1796 C 175.665 0.879143 -1.81532 0
M  V30 1797 C 175.978 1.83144 -0.686842 0
M  V30 1798 O 177.184 2.58823 -0.819944 0
M  V30 1799 C 175.64 1.61388 -3.21686 0
M  V30 1800 C 175.248 0.704904 -4.4242 0
M  V30 1801 C 176.992 2.3157 -3.55774 0
M  V30 1802 C 174.899 1.44022 -5.73595 0
M  V30 1803 H 173.829 0.332033 -0.676957 0
M  V30 1804 H 176.48 0.132008 -1.83025 0
M  V30 1805 H 174.862 2.40599 -3.14529 0
M  V30 1806 H 176.036 -0.0506815 -4.60772 0
M  V30 1807 H 174.351 0.112419 -4.16248 0
M  V30 1808 H 176.948 2.8719 -4.51028 0
M  V30 1809 H 177.291 3.07201 -2.8095 0
M  V30 1810 H 177.824 1.59297 -3.64513 0
M  V30 1811 H 174.563 0.72612 -6.51466 0
M  V30 1812 H 174.083 2.16898 -5.5921 0
M  V30 1813 H 175.762 1.98606 -6.15764 0
M  V30 1814 N 175.894 1.51508 0.433938 0
M  V30 1815 C 177.31 1.39759 0.770682 0
M  V30 1816 C 177.51 0.482594 1.95636 0
M  V30 1817 O 176.566 -0.0609691 2.52426 0
M  V30 1818 C 177.879 2.81851 1.04787 0
M  V30 1819 C 179.427 2.91025 1.1521 0
M  V30 1820 C 179.902 4.34032 1.46219 0
M  V30 1821 N 181.393 4.37154 1.53136 0
M  V30 1822 C 182.128 5.4484 1.78709 0
M  V30 1823 N 181.624 6.62682 2.02051 0
M  V30 1824 N 183.417 5.32324 1.80519 0
M  V30 1825 H 175.568 2.09548 -0.346892 0
M  V30 1826 H 177.831 0.943446 -0.0928074 0
M  V30 1827 H 177.537 3.50815 0.249304 0
M  V30 1828 H 177.411 3.21386 1.97461 0
M  V30 1829 H 179.798 2.22257 1.94128 0
M  V30 1830 H 179.879 2.54983 0.204281 0
M  V30 1831 H 179.523 5.03351 0.678274 0
M  V30 1832 H 179.453 4.6759 2.42212 0
M  V30 1833 H 181.944 3.52197 1.36987 0
M  V30 1834 H 182.257 7.40543 2.20943 0
M  V30 1835 H 180.602 6.65791 1.99366 0
M  V30 1836 H 183.793 4.39246 1.61805 0
M  V30 1837 H 183.966 6.16328 2.00111 0
M  V30 1838 N 177.372 -0.689602 1.41712 0
M  V30 1839 C 178.6 -1.47827 1.44758 0
M  V30 1840 C 179.015 -1.88721 0.0545703 0
M  V30 1841 O 178.372 -1.57176 -0.927463 0
M  V30 1842 C 178.423 -2.73698 2.3616 0
M  V30 1843 O 178.144 -2.34524 3.7004 0
M  V30 1844 C 179.645 -3.67389 2.48072 0
M  V30 1845 H 176.865 -0.455357 0.49284 0
M  V30 1846 H 179.409 -0.848574 1.86063 0
M  V30 1847 H 177.564 -3.32891 1.98148 0
M  V30 1848 H 177.978 -3.15701 4.18847 0
M  V30 1849 H 179.452 -4.52475 3.16181 0
M  V30 1850 H 179.929 -4.12284 1.51388 0
M  V30 1851 H 180.535 -3.14097 2.86746 0
M  V30 1852 N 178.85 -1.27639 -0.924453 0
M  V30 1853 C 180.098 -1.13941 -1.66918 0
M  V30 1854 C 180.419 0.314589 -1.92446 0
M  V30 1855 O 179.689 1.21964 -1.53303 0
M  V30 1856 H 178.269 -0.418678 -0.618642 0
M  V30 1857 H 180.931 -1.60213 -1.10985 0
M  V30 1858 H 180.027 -1.67094 -2.63602 0
M  V30 1859 N 180.328 1.1314 -1.09713 0
M  V30 1860 C 181.258 2.20748 -0.761102 0
M  V30 1861 C 182.239 1.68061 0.262566 0
M  V30 1862 O 183.424 1.93765 0.129977 0
M  V30 1863 C 180.554 3.46812 -0.184054 0
M  V30 1864 C 179.508 4.12606 -1.13757 0
M  V30 1865 C 178.834 5.33031 -0.422083 0
M  V30 1866 C 180.134 4.59603 -2.48118 0
M  V30 1867 H 181.828 2.49113 -1.66082 0
M  V30 1868 H 179.374 1.19734 -0.799987 0
M  V30 1869 H 181.327 4.21353 0.0631215 0
M  V30 1870 H 180.051 3.17851 0.750868 0
M  V30 1871 H 178.71 3.40036 -1.37007 0
M  V30 1872 H 178.358 5.00335 0.517072 0
M  V30 1873 H 178.058 5.77999 -1.05788 0
M  V30 1874 H 179.582 6.10325 -0.183277 0
M  V30 1875 H 180.996 5.25552 -2.29059 0
M  V30 1876 H 179.393 5.15321 -3.07514 0
M  V30 1877 H 180.463 3.73971 -3.08665 0
M  V30 1878 N 181.806 0.884767 1.30421 0
M  V30 1879 C 183.055 0.499164 1.95426 0
M  V30 1880 C 183.368 -0.95645 1.70621 0
M  V30 1881 O 184.574 -1.44889 2.29607 0
M  V30 1882 C 183.03 0.84177 3.49917 0
M  V30 1883 C 182.638 2.31514 3.83543 0
M  V30 1884 C 184.382 0.525355 4.21237 0
M  V30 1885 C 182.289 2.59939 5.31212 0
M  V30 1886 H 181.219 0.182944 0.73147 0
M  V30 1887 H 183.87 1.07971 1.48373 0
M  V30 1888 H 182.252 0.190311 3.95542 0
M  V30 1889 H 183.426 3.0109 3.48829 0
M  V30 1890 H 181.741 2.59907 3.25326 0
M  V30 1891 H 184.338 0.714762 5.29901 0
M  V30 1892 H 184.681 -0.535222 4.12845 0
M  V30 1893 H 185.214 1.134 3.81294 0
M  V30 1894 H 181.953 3.64736 5.44654 0
M  V30 1895 H 181.473 1.94972 5.67227 0
M  V30 1896 H 183.152 2.45429 5.98643 0
M  V30 1897 N 183.284 -1.43765 0.645699 0
M  V30 1898 C 184.231 -2.30745 -0.0504648 0
M  V30 1899 C 185.201 -1.4432 -0.822241 0
M  V30 1900 O 186.386 -1.73202 -0.800358 0
M  V30 1901 C 183.526 -3.29802 -1.0161 0
M  V30 1902 C 182.639 -4.31326 -0.241219 0
M  V30 1903 C 181.774 -5.17469 -1.19998 0
M  V30 1904 C 180.813 -6.10691 -0.415094 0
M  V30 1905 N 179.95 -6.89483 -1.32506 0
M  V30 1906 H 184.79 -2.8973 0.697155 0
M  V30 1907 H 182.327 -1.42738 0.355563 0
M  V30 1908 H 184.285 -3.85734 -1.58949 0
M  V30 1909 H 182.915 -2.72483 -1.73069 0
M  V30 1910 H 181.967 -3.77749 0.448334 0
M  V30 1911 H 183.279 -4.9743 0.369437 0
M  V30 1912 H 182.433 -5.7799 -1.84424 0
M  V30 1913 H 181.172 -4.51473 -1.84455 0
M  V30 1914 H 180.177 -5.49265 0.242565 0
M  V30 1915 H 181.402 -6.78727 0.224966 0
M  V30 1916 H 179.348 -6.26142 -1.95657 0
M  V30 1917 H 179.265 -7.52081 -0.768783 0
M  V30 1918 H 180.533 -7.54516 -1.9577 0
M  V30 1919 N 184.763 -0.387143 -1.52771 0
M  V30 1920 C 186.011 0.195349 -2.01154 0
M  V30 1921 C 186.332 1.475 -1.27549 0
M  V30 1922 O 185.602 1.91878 -0.394924 0
M  V30 1923 H 184.182 0.075178 -0.743207 0
M  V30 1924 H 186.844 -0.518337 -1.87881 0
M  V30 1925 H 185.94 0.407096 -3.09434 0
M  V30 1926 N 186.241 1.57166 -0.116904 0
M  V30 1927 C 187.466 1.999 0.55271 0
M  V30 1928 C 187.891 0.996039 1.59564 0
M  V30 1929 O 187.249 -0.032556 1.81271 0
M  V30 1930 C 187.297 3.4152 1.15742 0
M  V30 1931 O 186.401 3.44106 2.27299 0
M  V30 1932 H 185.742 0.649447 0.138258 0
M  V30 1933 H 188.272 2.03573 -0.204759 0
M  V30 1934 H 188.282 3.79684 1.49346 0
M  V30 1935 H 186.957 4.14034 0.393493 0
M  V30 1936 H 185.534 3.17759 1.9515 0
M  V30 1937 N 187.719 -0.156864 1.56817 0
M  V30 1938 C 188.967 -0.869404 1.82444 0
M  V30 1939 C 189.288 -1.82147 0.69623 0
M  V30 1940 O 188.558 -1.93847 -0.28287 0
M  V30 1941 H 187.138 -0.324043 0.673056 0
M  V30 1942 H 189.8 -0.153224 1.94297 0
M  V30 1943 H 188.896 -1.43761 2.77019 0
M  V30 1944 N 189.197 -1.51736 -0.425897 0
M  V30 1945 C 190.425 -1.68794 -1.1965 0
M  V30 1946 C 190.84 -0.390164 -1.84725 0
M  V30 1947 O 190.197 0.632376 -1.71194 0
M  V30 1948 C 190.248 -2.81174 -2.27208 0
M  V30 1949 O 189.969 -4.05925 -1.64793 0
M  V30 1950 C 191.47 -3.09599 -3.17275 0
M  V30 1951 H 188.69 -0.566128 -0.360194 0
M  V30 1952 H 191.234 -1.98211 -0.503249 0
M  V30 1953 H 189.389 -2.54324 -2.9223 0
M  V30 1954 H 189.803 -4.68423 -2.35967 0
M  V30 1955 H 191.277 -3.91786 -3.88854 0
M  V30 1956 H 191.754 -2.22468 -3.78688 0
M  V30 1957 H 192.36 -3.38151 -2.57941 0
M  V30 1958 N 190.675 0.682077 -1.42076 0
M  V30 1959 C 191.638 1.77756 -1.44691 0
M  V30 1960 C 192.638 1.5726 -0.335535 0
M  V30 1961 O 193.828 1.63686 -0.596037 0
M  V30 1962 C 190.96 3.16301 -1.27146 0
M  V30 1963 H 192.153 1.76826 -2.42224 0
M  V30 1964 H 189.706 0.891012 -1.28416 0
M  V30 1965 H 190.441 3.22862 -0.305075 0
M  V30 1966 H 190.226 3.32581 -2.07683 0
M  V30 1967 H 191.716 3.96241 -1.31843 0
M  V30 1968 N 192.153 1.28127 0.917671 0
M  V30 1969 C 193.063 1.13556 2.05286 0
M  V30 1970 C 194.079 0.0630914 1.73886 0
M  V30 1971 O 195.255 0.271598 1.9956 0
M  V30 1972 C 192.32 0.794676 3.3747 0
M  V30 1973 C 191.381 1.94909 3.82504 0
M  V30 1974 C 190.614 1.62437 5.0838 0
M  V30 1975 O 190.837 0.536905 5.67867 0
M  V30 1976 O 189.771 2.46677 5.4903 0
M  V30 1977 H 193.597 2.08844 2.20495 0
M  V30 1978 H 191.182 1.07409 1.03845 0
M  V30 1979 H 193.064 0.618344 4.16839 0
M  V30 1980 H 191.739 -0.128581 3.23445 0
M  V30 1981 H 190.646 2.18055 3.03978 0
M  V30 1982 H 191.979 2.85291 4.01086 0
M  V30 1983 N 193.631 -1.12557 1.10312 0
M  V30 1984 C 194.877 -1.84311 0.846011 0
M  V30 1985 C 195.21 -1.83805 -0.626859 0
M  V30 1986 O 194.485 -1.28268 -1.46211 0
M  V30 1987 C 194.768 -3.32048 1.39341 0
M  V30 1988 C 194.621 -3.41016 2.93305 0
M  V30 1989 C 195.94 -4.27764 1.03468 0
M  V30 1990 H 193.059 -0.669192 0.30879 0
M  V30 1991 H 195.701 -1.32057 1.36605 0
M  V30 1992 H 193.851 -3.76678 0.951087 0
M  V30 1993 H 195.523 -3.05031 3.46055 0
M  V30 1994 H 193.766 -2.81603 3.29973 0
M  V30 1995 H 194.437 -4.44948 3.26689 0
M  V30 1996 H 196.913 -3.91253 1.41633 0
M  V30 1997 H 195.789 -5.29549 1.44463 0
M  V30 1998 H 196.05 -4.42064 -0.0560404 0
M  V30 1999 N 195.109 -0.891671 -1.2995 0
M  V30 2000 C 196.019 -0.367691 -2.31701 0
M  V30 2001 C 197.035 0.533486 -1.6562 0
M  V30 2002 O 198.211 0.424997 -1.96865 0
M  V30 2003 C 195.276 0.403406 -3.44345 0
M  V30 2004 C 194.337 -0.528328 -4.26037 0
M  V30 2005 C 193.57 0.206063 -5.33302 0
M  V30 2006 O 193.793 1.43119 -5.52153 0
M  V30 2007 O 192.727 -0.447281 -6.00236 0
M  V30 2008 H 196.553 -1.21163 -2.78484 0
M  V30 2009 H 194.138 -0.655725 -1.34241 0
M  V30 2010 H 196.02 0.839753 -4.12948 0
M  V30 2011 H 194.695 1.22354 -2.99685 0
M  V30 2012 H 193.602 -1.01362 -3.60106 0
M  V30 2013 H 194.935 -1.31465 -4.74318 0
M  V30 2014 N 196.587 1.43421 -0.653314 0
M  V30 2015 C 197.517 2.33487 0.0246656 0
M  V30 2016 C 198.498 1.49475 0.811863 0
M  V30 2017 O 199.683 1.78139 0.773322 0
M  V30 2018 C 196.813 3.32841 0.99166 0
M  V30 2019 C 195.767 4.26842 0.314568 0
M  V30 2020 C 195.093 5.16236 1.39302 0
M  V30 2021 C 196.393 5.16243 -0.793095 0
M  V30 2022 H 198.087 2.90427 -0.727481 0
M  V30 2023 H 195.633 1.39649 -0.351287 0
M  V30 2024 H 197.586 3.94747 1.47487 0
M  V30 2025 H 196.31 2.74158 1.77497 0
M  V30 2026 H 194.969 3.663 -0.148199 0
M  V30 2027 H 194.617 4.53891 2.16776 0
M  V30 2028 H 194.317 5.79948 0.945223 0
M  V30 2029 H 195.841 5.81015 1.87759 0
M  V30 2030 H 197.255 5.71958 -0.392039 0
M  V30 2031 H 195.652 5.88676 -1.16536 0
M  V30 2032 H 196.722 4.55927 -1.65103 0
M  V30 2033 N 198.065 0.39524 1.52563 0
M  V30 2034 C 199.012 -0.437036 2.26624 0
M  V30 2035 C 199.982 -1.05281 1.28472 0
M  V30 2036 O 201.167 -1.07971 1.57311 0
M  V30 2037 C 198.307 -1.55524 3.08069 0
M  V30 2038 C 197.42 -0.961745 4.21158 0
M  V30 2039 C 196.555 -2.05149 4.89987 0
M  V30 2040 C 195.594 -1.4342 5.95061 0
M  V30 2041 N 194.731 -2.46351 6.57462 0
M  V30 2042 H 199.571 0.200976 2.97322 0
M  V30 2043 H 197.108 0.110944 1.46681 0
M  V30 2044 H 199.066 -2.21437 3.53584 0
M  V30 2045 H 197.696 -2.16348 2.3957 0
M  V30 2046 H 196.748 -0.192048 3.79915 0
M  V30 2047 H 198.06 -0.470701 4.96574 0
M  V30 2048 H 197.214 -2.78819 5.38837 0
M  V30 2049 H 195.953 -2.57615 4.14109 0
M  V30 2050 H 194.958 -0.682774 5.45544 0
M  V30 2051 H 196.183 -0.917416 6.72875 0
M  V30 2052 H 194.129 -2.97975 5.8442 0
M  V30 2053 H 194.046 -2.02019 7.28508 0
M  V30 2054 H 195.314 -3.19633 7.10954 0
M  V30 2055 N 199.544 -1.57102 0.125237 0
M  V30 2056 C 200.491 -2.15641 -0.822655 0
M  V30 2057 C 201.461 -1.08313 -1.25927 0
M  V30 2058 O 202.646 -1.36251 -1.33567 0
M  V30 2059 C 199.786 -2.76504 -2.06494 0
M  V30 2060 C 198.899 -3.98158 -1.67612 0
M  V30 2061 C 198.034 -4.47088 -2.86854 0
M  V30 2062 C 197.073 -5.6126 -2.44242 0
M  V30 2063 N 196.21 -6.04905 -3.56419 0
M  V30 2064 H 201.05 -2.96313 -0.316625 0
M  V30 2065 H 198.587 -1.46388 -0.144588 0
M  V30 2066 H 200.545 -3.09925 -2.79289 0
M  V30 2067 H 199.175 -1.98512 -2.54545 0
M  V30 2068 H 198.227 -3.70858 -0.846661 0
M  V30 2069 H 199.539 -4.80934 -1.32301 0
M  V30 2070 H 198.693 -4.82451 -3.67867 0
M  V30 2071 H 197.432 -3.63275 -3.25396 0
M  V30 2072 H 196.437 -5.25495 -1.61663 0
M  V30 2073 H 197.662 -6.46843 -2.0681 0
M  V30 2074 H 195.608 -5.24032 -3.94623 0
M  V30 2075 H 195.525 -6.82552 -3.25051 0
M  V30 2076 H 196.793 -6.44907 -4.37853 0
M  V30 2077 N 201.022 0.148545 -1.56898 0
M  V30 2078 C 202.27 0.859717 -1.82902 0
M  V30 2079 C 202.591 1.81775 -0.70588 0
M  V30 2080 O 201.861 1.93994 0.272586 0
M  V30 2081 H 200.441 0.320469 -0.674766 0
M  V30 2082 H 203.103 0.142918 -1.94375 0
M  V30 2083 H 202.199 1.4229 -2.77777 0
M  V30 2084 N 202.5 1.5196 0.417844 0
M  V30 2085 C 203.463 1.74065 1.49111 0
M  V30 2086 C 204.463 0.610537 1.48758 0
M  V30 2087 O 205.653 0.87832 1.50437 0
M  V30 2088 C 202.785 1.81502 2.88565 0
M  V30 2089 H 203.978 2.69869 1.30807 0
M  V30 2090 H 201.531 1.42244 0.647785 0
M  V30 2091 H 202.266 0.875813 3.1225 0
M  V30 2092 H 202.051 2.63651 2.90225 0
M  V30 2093 H 203.541 2.00376 3.66387 0
M  V30 2094 N 203.978 -0.674533 1.42435 0
M  V30 2095 C 205.206 -1.46283 1.46317 0
M  V30 2096 C 205.621 -1.88653 0.0745836 0
M  V30 2097 O 204.978 -1.58151 -0.91074 0
M  V30 2098 C 205.029 -2.71178 2.3905 0
M  V30 2099 O 204.75 -2.30586 3.72507 0
M  V30 2100 C 206.251 -3.64738 2.51955 0
M  V30 2101 H 203.471 -0.450104 0.497642 0
M  V30 2102 H 206.015 -0.828792 1.86953 0
M  V30 2103 H 204.17 -3.3077 2.01667 0
M  V30 2104 H 204.584 -3.11241 4.22172 0
M  V30 2105 H 206.058 -4.49096 3.20962 0
M  V30 2106 H 206.535 -4.10656 1.55752 0
M  V30 2107 H 207.141 -3.11038 2.90061 0
M  V30 2108 N 205.456 -1.28612 -0.910864 0
M  V30 2109 C 206.386 -1.15326 -2.03032 0
M  V30 2110 C 207.367 -0.0502924 -1.70026 0
M  V30 2111 O 208.552 -0.227797 -1.92859 0
M  V30 2112 C 205.682 -0.817343 -3.37545 0
M  V30 2113 C 204.636 -1.8754 -3.84724 0
M  V30 2114 C 203.962 -1.39305 -5.16235 0
M  V30 2115 C 205.262 -3.28244 -4.06267 0
M  V30 2116 H 206.956 -2.08975 -2.14406 0
M  V30 2117 H 204.502 -1.00612 -1.03021 0
M  V30 2118 H 206.455 -0.711151 -4.15356 0
M  V30 2119 H 205.179 0.154846 -3.26233 0
M  V30 2120 H 203.838 -1.97079 -3.09121 0
M  V30 2121 H 203.486 -0.409846 -5.01328 0
M  V30 2122 H 203.186 -2.10057 -5.48771 0
M  V30 2123 H 204.71 -1.30014 -5.96598 0
M  V30 2124 H 206.124 -3.21611 -4.74594 0
M  V30 2125 H 204.521 -3.96855 -4.5014 0
M  V30 2126 H 205.591 -3.72048 -3.10979 0
M  V30 2127 N 206.934 1.1197 -1.10907 0
M  V30 2128 C 207.881 2.17846 -0.762345 0
M  V30 2129 C 208.851 1.63995 0.263599 0
M  V30 2130 O 210.036 1.90273 0.141773 0
M  V30 2131 C 207.176 3.44487 -0.205651 0
M  V30 2132 C 206.289 4.12369 -1.28748 0
M  V30 2133 C 205.424 5.26674 -0.691919 0
M  V30 2134 C 204.463 5.86431 -1.75399 0
M  V30 2135 N 203.6 6.92142 -1.17833 0
M  V30 2136 H 208.44 2.46851 -1.6694 0
M  V30 2137 H 205.977 1.21188 -0.833776 0
M  V30 2138 H 207.935 4.16981 0.135037 0
M  V30 2139 H 206.565 3.15884 0.664613 0
M  V30 2140 H 205.617 3.38003 -1.74522 0
M  V30 2141 H 206.929 4.52844 -2.09125 0
M  V30 2142 H 206.083 6.05953 -0.300963 0
M  V30 2143 H 204.822 4.8749 0.143232 0
M  V30 2144 H 203.827 5.05835 -2.15432 0
M  V30 2145 H 205.052 6.27685 -2.59208 0
M  V30 2146 H 202.998 6.54985 -0.364725 0
M  V30 2147 H 202.915 7.31242 -1.91887 0
M  V30 2148 H 204.183 7.75237 -0.81408 0
M  V30 2149 N 208.412 0.89855 1.29475 0
M  V30 2150 C 209.661 0.519863 1.94885 0
M  V30 2151 C 209.974 -0.9383 1.71625 0
M  V30 2152 O 211.18 -1.42445 2.31131 0
M  V30 2153 C 209.636 0.878836 3.49005 0
M  V30 2154 C 209.244 2.35569 3.81066 0
M  V30 2155 C 210.988 0.570004 4.20656 0
M  V30 2156 C 208.895 2.65558 5.28425 0
M  V30 2157 H 207.825 0.190692 0.729488 0
M  V30 2158 H 210.476 1.09539 1.47219 0
M  V30 2159 H 208.858 0.232253 3.95318 0
M  V30 2160 H 210.032 3.04773 3.45616 0
M  V30 2161 H 208.347 2.63343 3.22552 0
M  V30 2162 H 210.944 0.770925 5.29113 0
M  V30 2163 H 211.287 -0.491404 4.1339 0
M  V30 2164 H 211.82 1.17438 3.8007 0
M  V30 2165 H 208.559 3.70493 5.40754 0
M  V30 2166 H 208.079 2.00977 5.65127 0
M  V30 2167 H 209.758 2.51765 5.96006 0
M  V30 2168 N 209.89 -1.43072 0.660911 0
M  V30 2169 C 211.118 -2.06067 0.185422 0
M  V30 2170 C 211.533 -1.49582 -1.15198 0
M  V30 2171 O 210.89 -0.630134 -1.71276 0
M  V30 2172 C 210.941 -3.61371 0.0966523 0
M  V30 2173 O 210.662 -4.15758 1.38119 0
M  V30 2174 C 212.163 -4.41455 -0.403996 0
M  V30 2175 H 209.383 -0.664459 0.0934604 0
M  V30 2176 H 211.927 -1.83447 0.90373 0
M  V30 2177 H 210.082 -3.8315 -0.572259 0
M  V30 2178 H 210.496 -5.09499 1.24542 0
M  V30 2179 H 211.97 -5.50437 -0.415045 0
M  V30 2180 H 212.447 -4.15036 -1.43674 0
M  V30 2181 H 213.053 -4.24663 0.232691 0
M  V30 2182 N 211.368 -0.403325 -1.52352 0
M  V30 2183 C 212.298 0.416205 -2.29761 0
M  V30 2184 C 213.279 1.05123 -1.33728 0
M  V30 2185 O 214.464 1.06134 -1.62632 0
M  V30 2186 C 211.594 1.53624 -3.11475 0
M  V30 2187 C 210.548 1.02653 -4.15507 0
M  V30 2188 C 209.874 2.23971 -4.85532 0
M  V30 2189 C 211.174 0.08463 -5.22231 0
M  V30 2190 H 212.868 -0.229701 -2.98518 0
M  V30 2191 H 210.414 -0.111913 -1.43564 0
M  V30 2192 H 212.367 2.1165 -3.64393 0
M  V30 2193 H 211.091 2.20994 -2.40477 0
M  V30 2194 H 209.75 0.46871 -3.63591 0
M  V30 2195 H 209.398 2.89883 -4.11068 0
M  V30 2196 H 209.098 1.90521 -5.55856 0
M  V30 2197 H 210.622 2.82614 -5.41259 0
M  V30 2198 H 212.036 0.573509 -5.70424 0
M  V30 2199 H 210.433 -0.160783 -5.99885 0
M  V30 2200 H 211.503 -0.86237 -4.7717 0
M  V30 2201 N 212.846 1.57033 -0.133567 0
M  V30 2202 C 214.123 1.87256 0.56522 0
M  V30 2203 C 214.503 1.03726 1.83859 0
M  V30 2204 O 213.851 0.120247 2.28183 0
M  V30 2205 C 214.061 3.3865 0.843636 0
M  V30 2206 C 215.409 4.07574 1.19032 0
M  V30 2207 O 216.433 3.43752 0.933429 0
M  V30 2208 O 215.292 5.20259 1.67312 0
M  V30 2209 H 212.386 0.775678 0.286796 0
M  V30 2210 H 214.932 1.68855 -0.169168 0
M  V30 2211 H 213.704 3.91257 -0.0581149 0
M  V30 2212 H 213.327 3.62532 1.63268 0
M  V30 2213 N 214.325 -0.140222 1.56975 0
M  V30 2214 C 215.273 -1.19207 1.99731 0
M  V30 2215 C 216.267 -1.44089 0.890777 0
M  V30 2216 O 217.473 -1.44301 1.07597 0
M  V30 2217 H 213.848 -0.40142 0.635898 0
M  V30 2218 H 215.819 -0.804813 2.87342 0
M  V30 2219 C 214.568 -2.51617 2.39967 0
M  V30 2220 H 213.891 -2.33303 3.24669 0
M  V30 2221 H 215.331 -3.23827 2.73701 0
M  V30 2222 C 213.79 -3.12654 1.25496 0
M  V30 2223 O 214.32 -3.97786 0.559371 0
M  V30 2224 N 212.526 -2.72206 1.01746 0
M  V30 2225 H 212.073 -2.03074 1.58489 0
M  V30 2226 H 212.031 -3.13377 0.253461 0
M  V30 2227 N 215.803 -1.52179 -0.40978 0
M  V30 2228 C 216.766 -1.74853 -1.48186 0
M  V30 2229 C 217.766 -0.618417 -1.48433 0
M  V30 2230 O 218.956 -0.886286 -1.49969 0
M  V30 2231 C 216.088 -1.8303 -2.87598 0
M  V30 2232 H 217.281 -2.70559 -1.29374 0
M  V30 2233 H 214.834 -1.42586 -0.640233 0
M  V30 2234 H 215.569 -0.89236 -3.11781 0
M  V30 2235 H 215.354 -2.65187 -2.88822 0
M  V30 2236 H 216.844 -2.02316 -3.65319 0
M  V30 2237 N 217.281 0.66697 -1.42791 0
M  V30 2238 C 218.511 1.45294 -1.46878 0
M  V30 2239 C 218.919 1.89027 -0.0809861 0
M  V30 2240 O 218.262 1.59219 0.916246 0
M  V30 2241 C 218.324 2.72908 -2.34012 0
M  V30 2242 C 217.988 2.51203 -3.81767 0
M  V30 2243 C 218.985 2.15302 -4.73224 0
M  V30 2244 C 216.67 2.65954 -4.26115 0
M  V30 2245 C 218.664 1.94431 -6.07022 0
M  V30 2246 C 216.351 2.44699 -5.59969 0
M  V30 2247 C 217.349 2.08992 -6.5024 0
M  V30 2248 O 217.037 1.87948 -7.81621 0
M  V30 2249 H 216.769 0.453306 -0.501487 0
M  V30 2250 H 219.323 0.826232 -1.88049 0
M  V30 2251 H 217.553 3.38089 -1.87703 0
M  V30 2252 H 219.242 3.34816 -2.29462 0
M  V30 2253 H 220.008 2.03495 -4.40244 0
M  V30 2254 H 215.887 2.92724 -3.56137 0
M  V30 2255 H 219.431 1.66484 -6.77443 0
M  V30 2256 H 215.328 2.56105 -5.9252 0
M  V30 2257 H 216.096 2.02483 -7.93059 0
M  V30 2258 N 218.759 1.29093 0.90403 0
M  V30 2259 C 219.692 1.08176 2.00931 0
M  V30 2260 C 220.67 -0.005083 1.62599 0
M  V30 2261 O 221.854 0.144765 1.87943 0
M  V30 2262 C 218.981 0.645897 3.32484 0
M  V30 2263 C 218.027 1.73081 3.89801 0
M  V30 2264 S 218.86 3.32905 4.19446 0
M  V30 2265 C 220.016 2.91176 5.54046 0
M  V30 2266 H 220.249 2.01752 2.18365 0
M  V30 2267 H 217.782 1.13191 1.0501 0
M  V30 2268 H 219.74 0.401131 4.08535 0
M  V30 2269 H 218.401 -0.270188 3.12936 0
M  V30 2270 H 217.594 1.37768 4.84805 0
M  V30 2271 H 217.196 1.92888 3.20422 0
M  V30 2272 H 219.488 2.37952 6.34338 0
M  V30 2273 H 220.431 3.85014 5.94281 0
M  V30 2274 H 220.839 2.296 5.15698 0
M  V30 2275 N 220.237 -1.11381 1.11499 0
M  V30 2276 C 221.147 -2.21019 0.786628 0
M  V30 2277 C 222.163 -1.72597 -0.220507 0
M  V30 2278 O 223.339 -2.01321 -0.0565251 0
M  V30 2279 C 220.404 -3.459 0.235333 0
M  V30 2280 C 219.465 -4.09107 1.30115 0
M  V30 2281 C 218.698 -5.28027 0.776068 0
M  V30 2282 O 218.921 -5.6904 -0.393661 0
M  V30 2283 O 217.855 -5.81835 1.54114 0
M  V30 2284 H 221.681 -2.51521 1.70209 0
M  V30 2285 H 219.266 -1.19928 0.890928 0
M  V30 2286 H 221.148 -4.21346 -0.067715 0
M  V30 2287 H 219.823 -3.17049 -0.652828 0
M  V30 2288 H 218.73 -3.35391 1.65722 0
M  V30 2289 H 220.063 -4.42139 2.16273 0
M  V30 2290 N 221.715 -0.905404 -1.28997 0
M  V30 2291 C 222.662 -0.385892 -2.27551 0
M  V30 2292 C 223.632 0.535113 -1.57244 0
M  V30 2293 O 224.817 0.459119 -1.85194 0
M  V30 2294 C 221.957 0.375461 -3.43051 0
M  V30 2295 C 221.07 -0.577092 -4.28128 0
M  V30 2296 C 220.205 0.201879 -5.30816 0
M  V30 2297 C 219.244 -0.744829 -6.07551 0
M  V30 2298 N 218.381 9.42587e-05 -7.021 0
M  V30 2299 H 223.221 -1.23139 -2.71368 0
M  V30 2300 H 220.758 -0.618542 -1.33463 0
M  V30 2301 H 222.716 0.832992 -4.088 0
M  V30 2302 H 221.346 1.18537 -3.00248 0
M  V30 2303 H 220.398 -1.15315 -3.62501 0
M  V30 2304 H 221.71 -1.30152 -4.8152 0
M  V30 2305 H 220.864 0.720351 -6.02408 0
M  V30 2306 H 219.603 0.959413 -4.7817 0
M  V30 2307 H 218.608 -1.27475 -5.34818 0
M  V30 2308 H 219.833 -1.50178 -6.62286 0
M  V30 2309 H 217.779 0.739791 -6.51815 0
M  V30 2310 H 217.696 -0.664321 -7.53076 0
M  V30 2311 H 218.964 0.498644 -7.77903 0
M  V30 2312 N 223.193 1.4272 -0.668489 0
M  V30 2313 C 224.433 2.03497 -0.19194 0
M  V30 2314 C 224.797 1.51684 1.17712 0
M  V30 2315 O 225.998 2.04205 1.74796 0
M  V30 2316 C 224.269 3.56734 -0.218032 0
M  V30 2317 S 225.828 4.38395 0.188438 0
M  V30 2318 H 222.646 0.706542 -0.0794959 0
M  V30 2319 H 225.248 1.74563 -0.880235 0
M  V30 2320 H 223.952 3.91943 -1.2169 0
M  V30 2321 H 223.483 3.90333 0.490303 0
M  V30 2322 H 225.498 4.75345 1.42345 0
M  V30 2323 N 224.671 0.411399 1.52136 0
M  V30 2324 C 225.948 -0.222308 1.94333 0
M  V30 2325 C 226.328 -1.6242 1.34844 0
M  V30 2326 O 225.676 -2.22384 0.525145 0
M  V30 2327 C 225.886 -0.226345 3.48265 0
M  V30 2328 C 227.234 -0.444592 4.22266 0
M  V30 2329 O 228.258 -0.305602 3.54887 0
M  V30 2330 O 227.117 -0.718749 5.41753 0
M  V30 2331 H 224.211 -0.143907 0.814383 0
M  V30 2332 H 226.757 0.467506 1.63133 0
M  V30 2333 H 225.529 0.75475 3.83952 0
M  V30 2334 H 225.152 -0.960163 3.85832 0
M  V30 2335 N 226.149 -1.5696 0.141893 0
M  V30 2336 C 227.059 -2.20066 -0.812905 0
M  V30 2337 C 228.075 -1.18344 -1.27557 0
M  V30 2338 O 229.251 -1.50902 -1.33381 0
M  V30 2339 C 226.316 -2.80583 -2.03652 0
M  V30 2340 C 225.377 -3.97414 -1.62359 0
M  V30 2341 C 224.61 -4.55036 -2.78887 0
M  V30 2342 O 224.833 -4.11538 -3.94959 0
M  V30 2343 O 223.767 -5.45376 -2.54653 0
M  V30 2344 H 227.593 -3.02157 -0.305746 0
M  V30 2345 H 225.178 -1.49159 -0.0848799 0
M  V30 2346 H 227.06 -3.19067 -2.75272 0
M  V30 2347 H 225.735 -2.01508 -2.5333 0
M  V30 2348 H 224.642 -3.63656 -0.877775 0
M  V30 2349 H 225.975 -4.77994 -1.17401 0
M  V30 2350 N 227.627 0.131896 -1.57047 0
M  V30 2351 C 228.575 1.18146 -2.0036 0
M  V30 2352 C 229.569 1.43614 -0.898406 0
M  V30 2353 O 230.775 1.43729 -1.08361 0
M  V30 2354 H 227.15 0.398042 -0.638018 0
M  V30 2355 H 229.121 0.789564 -2.87765 0
M  V30 2356 C 227.87 2.50341 -2.41298 0
M  V30 2357 H 227.193 2.31578 -3.25902 0
M  V30 2358 H 228.633 3.22371 -2.75414 0
M  V30 2359 C 227.092 3.11984 -1.27153 0
M  V30 2360 O 227.622 3.97484 -0.580459 0
M  V30 2361 N 225.828 2.71662 -1.03189 0
M  V30 2362 H 225.375 2.02231 -1.59564 0
M  V30 2363 H 225.333 3.13238 -0.270077 0
M  V30 2364 N 229.106 1.52395 0.401703 0
M  V30 2365 C 230.355 1.66044 1.14509 0
M  V30 2366 C 230.668 0.400216 1.91462 0
M  V30 2367 O 231.874 0.416632 2.68284 0
M  V30 2368 C 230.33 2.93388 2.0845 0
M  V30 2369 C 229.938 4.26545 1.36978 0
M  V30 2370 C 231.682 3.16402 2.83001 0
M  V30 2371 C 229.589 5.45007 2.29611 0
M  V30 2372 H 228.519 0.618562 0.431158 0
M  V30 2373 H 231.17 1.78886 0.40892 0
M  V30 2374 H 229.552 2.74263 2.8565 0
M  V30 2375 H 230.726 4.56179 0.650916 0
M  V30 2376 H 229.041 4.09692 0.74438 0
M  V30 2377 H 231.638 4.02085 3.52465 0
M  V30 2378 H 231.981 2.30943 3.46368 0
M  V30 2379 H 232.514 3.36034 2.12898 0
M  V30 2380 H 229.253 6.32835 1.70879 0
M  V30 2381 H 228.773 5.19702 2.9945 0
M  V30 2382 H 230.452 5.7838 2.89974 0
M  V30 2383 N 230.584 -0.659388 1.43143 0
M  V30 2384 C 231.514 -1.78422 1.50625 0
M  V30 2385 C 232.495 -1.66216 0.361443 0
M  V30 2386 O 233.68 -1.85404 0.577834 0
M  V30 2387 C 230.81 -3.16815 1.42287 0
M  V30 2388 C 229.764 -3.43777 2.54954 0
M  V30 2389 C 229.09 -4.81905 2.31671 0
M  V30 2390 C 230.39 -3.39134 3.97222 0
M  V30 2391 H 232.084 -1.72417 2.44771 0
M  V30 2392 H 229.63 -0.828084 1.17808 0
M  V30 2393 H 231.583 -3.95253 1.46127 0
M  V30 2394 H 230.307 -3.23534 0.446435 0
M  V30 2395 H 228.966 -2.67707 2.50457 0
M  V30 2396 H 228.614 -4.85294 1.32284 0
M  V30 2397 H 228.314 -5.00906 3.07192 0
M  V30 2398 H 229.838 -5.62609 2.37284 0
M  V30 2399 H 231.252 -4.07518 4.03239 0
M  V30 2400 H 229.649 -3.69671 4.72719 0
M  V30 2401 H 230.719 -2.37426 4.22797 0
M  V30 2402 N 232.062 -1.29571 -0.897171 0
M  V30 2403 C 233.308 -1.18873 -1.65048 0
M  V30 2404 C 233.663 0.256707 -1.9068 0
M  V30 2405 O 232.956 1.18202 -1.50794 0
M  V30 2406 C 233.15 -1.9382 -3.00281 0
M  V30 2407 C 232.979 -3.45503 -2.8785 0
M  V30 2408 C 231.749 -4.14856 -2.88483 0
M  V30 2409 C 233.947 -4.40956 -2.64693 0
M  V30 2410 N 231.929 -5.52886 -2.66815 0
M  V30 2411 C 233.3 -5.66464 -2.5203 0
M  V30 2412 C 235.355 -4.3069 -2.49821 0
M  V30 2413 C 234.058 -6.82871 -2.26008 0
M  V30 2414 C 236.084 -5.46852 -2.25182 0
M  V30 2415 C 235.446 -6.71333 -2.13286 0
M  V30 2416 H 231.545 -0.489998 -0.609447 0
M  V30 2417 H 234.129 -1.63431 -1.05822 0
M  V30 2418 H 232.3 -1.51671 -3.57562 0
M  V30 2419 H 234.032 -1.75366 -3.64731 0
M  V30 2420 H 230.787 -3.66579 -2.99861 0
M  V30 2421 H 231.211 -6.25487 -2.59027 0
M  V30 2422 H 235.853 -3.35141 -2.5776 0
M  V30 2423 H 233.571 -7.78473 -2.16806 0
M  V30 2424 H 237.157 -5.40809 -2.14515 0
M  V30 2425 H 236.037 -7.59701 -1.94485 0
M  V30 2426 N 233.54 1.10788 -1.12088 0
M  V30 2427 C 234.47 2.19083 -0.807755 0
M  V30 2428 C 235.451 1.6858 0.226859 0
M  V30 2429 O 236.636 1.93997 0.0888475 0
M  V30 2430 C 233.766 3.46344 -0.257576 0
M  V30 2431 C 232.72 4.101 -1.22483 0
M  V30 2432 C 232.046 5.32016 -0.535052 0
M  V30 2433 C 233.346 4.54236 -2.57811 0
M  V30 2434 H 235.04 2.45534 -1.71328 0
M  V30 2435 H 232.586 1.1801 -0.825205 0
M  V30 2436 H 234.539 4.21392 -0.0262679 0
M  V30 2437 H 233.263 3.19373 0.683278 0
M  V30 2438 H 231.922 3.37054 -1.44189 0
M  V30 2439 H 231.57 5.01319 0.410827 0
M  V30 2440 H 231.27 5.75625 -1.18024 0
M  V30 2441 H 232.794 6.09799 -0.312695 0
M  V30 2442 H 234.208 5.20575 -2.40155 0
M  V30 2443 H 232.605 5.08682 -3.18375 0
M  V30 2444 H 233.675 3.6734 -3.16528 0
M  V30 2445 N 235.018 0.912232 1.28515 0
M  V30 2446 C 236.295 0.463597 1.90027 0
M  V30 2447 C 236.675 -1.05753 1.82701 0
M  V30 2448 O 236.023 -1.90492 1.26194 0
M  V30 2449 C 236.233 0.992253 3.34597 0
M  V30 2450 C 237.581 1.04344 4.11579 0
M  V30 2451 O 238.605 0.94079 3.43551 0
M  V30 2452 O 237.464 1.1995 5.33174 0
M  V30 2453 H 234.558 0.146666 0.813891 0
M  V30 2454 H 237.104 1.00292 1.36893 0
M  V30 2455 H 235.876 2.03623 3.34146 0
M  V30 2456 H 235.499 0.433672 3.95228 0
M  V30 2457 N 236.496 -1.42363 0.676048 0
M  V30 2458 C 237.726 -2.05561 0.206967 0
M  V30 2459 C 238.134 -1.50887 -1.14148 0
M  V30 2460 O 237.477 -0.643933 -1.72044 0
M  V30 2461 C 237.539 -3.5944 0.0659508 0
M  V30 2462 C 237.203 -4.36812 1.34331 0
M  V30 2463 C 238.2 -4.67383 2.27704 0
M  V30 2464 C 235.885 -4.76429 1.59125 0
M  V30 2465 C 237.879 -5.36509 3.44147 0
M  V30 2466 C 235.566 -5.45294 2.75857 0
M  V30 2467 C 236.564 -5.75259 3.68193 0
M  V30 2468 O 236.252 -6.42712 4.82883 0
M  V30 2469 H 235.984 -0.668872 0.0979084 0
M  V30 2470 H 238.538 -1.83467 0.923531 0
M  V30 2471 H 236.768 -3.80197 -0.706204 0
M  V30 2472 H 238.457 -4.0427 -0.363418 0
M  V30 2473 H 239.223 -4.37275 2.09799 0
M  V30 2474 H 235.102 -4.52498 0.881258 0
M  V30 2475 H 238.646 -5.59814 4.16238 0
M  V30 2476 H 234.543 -5.7482 2.93688 0
M  V30 2477 H 235.311 -6.61204 4.82444 0
M  V30 2478 N 237.974 -0.419461 -1.51915 0
M  V30 2479 C 238.921 0.400927 -2.27291 0
M  V30 2480 C 239.891 1.03224 -1.30131 0
M  V30 2481 O 241.076 1.05455 -1.59009 0
M  V30 2482 C 238.216 1.50603 -3.10504 0
M  V30 2483 C 237.329 0.89462 -4.22635 0
M  V30 2484 C 236.464 1.97328 -4.93189 0
M  V30 2485 C 235.503 1.33935 -5.97267 0
M  V30 2486 N 234.64 2.3586 -6.61298 0
M  V30 2487 H 239.48 -0.248251 -2.96964 0
M  V30 2488 H 237.017 -0.134266 -1.46486 0
M  V30 2489 H 238.975 2.15783 -3.57062 0
M  V30 2490 H 237.605 2.12509 -2.42981 0
M  V30 2491 H 236.657 0.131583 -3.80172 0
M  V30 2492 H 237.969 0.391641 -4.9726 0
M  V30 2493 H 237.123 2.70211 -5.43204 0
M  V30 2494 H 235.862 2.50994 -4.18155 0
M  V30 2495 H 234.867 0.595896 -5.46561 0
M  V30 2496 H 236.092 0.810252 -6.74249 0
M  V30 2497 H 234.038 2.88639 -5.89087 0
M  V30 2498 H 233.955 1.90403 -7.3163 0
M  V30 2499 H 235.223 3.08282 -7.15949 0
M  V30 2500 N 239.452 1.56882 -0.150215 0
M  V30 2501 C 240.4 2.18214 0.805313 0
M  V30 2502 C 241.394 1.14006 1.25296 0
M  V30 2503 O 242.6 1.3225 1.22107 0
M  V30 2504 H 238.975 0.698762 0.277913 0
M  V30 2505 H 240.946 2.97231 0.263862 0
M  V30 2506 C 239.695 2.82065 2.03309 0
M  V30 2507 H 239.018 3.61968 1.69763 0
M  V30 2508 H 240.458 3.28477 2.68103 0
M  V30 2509 C 238.917 1.80739 2.84315 0
M  V30 2510 O 239.447 1.27983 3.80767 0
M  V30 2511 N 237.653 1.4997 2.48913 0
M  V30 2512 H 237.2 1.93062 1.70542 0
M  V30 2513 H 237.158 0.824217 3.03404 0
M  V30 2514 N 240.93 -0.123565 1.57115 0
M  V30 2515 C 242.179 -0.830704 1.83799 0
M  V30 2516 C 242.492 -1.81259 0.735158 0
M  V30 2517 O 243.698 -2.56558 0.888278 0
M  V30 2518 C 242.154 -1.52802 3.25852 0
M  V30 2519 C 241.762 -0.587356 4.44133 0
M  V30 2520 C 243.506 -2.22056 3.61789 0
M  V30 2521 C 241.413 -1.28764 5.77212 0
M  V30 2522 H 240.343 -0.313967 0.685522 0
M  V30 2523 H 242.994 -0.0834359 1.8331 0
M  V30 2524 H 241.376 -2.32175 3.20797 0
M  V30 2525 H 242.55 0.172829 4.60476 0
M  V30 2526 H 240.865 -0.00201892 4.164 0
M  V30 2527 H 243.462 -2.75131 4.58483 0
M  V30 2528 H 243.805 -2.99644 2.88997 0
M  V30 2529 H 244.338 -1.49576 3.68608 0
M  V30 2530 H 241.077 -0.55314 6.53162 0
M  V30 2531 H 240.597 -2.01995 5.64764 0
M  V30 2532 H 242.276 -1.8221 6.20813 0
M  V30 2533 N 242.408 -1.52605 -0.393616 0
M  V30 2534 C 243.648 -1.6911 -1.1481 0
M  V30 2535 C 244.012 -0.41969 -1.87357 0
M  V30 2536 O 245.213 -0.461034 -2.64817 0
M  V30 2537 C 243.484 -2.88909 -2.10395 0
M  V30 2538 S 245.043 -3.25977 -2.93742 0
M  V30 2539 H 241.861 -0.595337 -0.38871 0
M  V30 2540 H 244.463 -1.90641 -0.433178 0
M  V30 2541 H 243.167 -3.79672 -1.55812 0
M  V30 2542 H 242.698 -2.69698 -2.86403 0
M  V30 2543 H 244.713 -2.75806 -4.12487 0
M  V30 2544 N 243.887 0.651787 -1.4349 0
M  V30 2545 C 244.834 1.76462 -1.4876 0
M  V30 2546 C 245.804 1.62641 -0.337189 0
M  V30 2547 O 246.989 1.82864 -0.544544 0
M  V30 2548 C 244.129 3.14623 -1.41796 0
M  V30 2549 C 243.242 3.39568 -2.67053 0
M  V30 2550 C 242.377 4.67585 -2.52068 0
M  V30 2551 C 241.416 4.85639 -3.72587 0
M  V30 2552 N 240.553 6.04915 -3.56402 0
M  V30 2553 H 245.393 1.71293 -2.43849 0
M  V30 2554 H 242.93 0.835889 -1.21043 0
M  V30 2555 H 244.888 3.94496 -1.35753 0
M  V30 2556 H 243.518 3.18859 -0.50288 0
M  V30 2557 H 242.57 2.53783 -2.8337 0
M  V30 2558 H 243.882 3.48795 -3.56572 0
M  V30 2559 H 243.036 5.55586 -2.4374 0
M  V30 2560 H 241.775 4.60681 -1.60075 0
M  V30 2561 H 240.78 3.96073 -3.81321 0
M  V30 2562 H 242.005 4.94372 -4.65589 0
M  V30 2563 H 239.951 5.9914 -2.67146 0
M  V30 2564 H 239.868 6.15106 -4.39524 0
M  V30 2565 H 241.136 6.95533 -3.51929 0
M  V30 2566 N 245.365 1.30045 0.890287 0
M  V30 2567 C 246.611 1.18737 1.64406 0
M  V30 2568 C 246.944 -0.258525 1.92472 0
M  V30 2569 O 246.219 -1.18562 1.54186 0
M  V30 2570 C 246.502 2.01087 2.98724 0
M  V30 2571 C 246.355 3.53867 2.77665 0
M  V30 2572 C 247.674 1.84457 3.9958 0
M  V30 2573 H 244.793 0.432698 0.596608 0
M  V30 2574 H 247.435 1.5962 1.0306 0
M  V30 2575 H 245.585 1.66349 3.51084 0
M  V30 2576 H 247.257 3.98637 2.32133 0
M  V30 2577 H 245.5 3.78318 2.12269 0
M  V30 2578 H 246.171 4.06772 3.7315 0
M  V30 2579 H 248.647 2.14817 3.56361 0
M  V30 2580 H 247.523 2.44411 4.91482 0
M  V30 2581 H 247.784 0.802276 4.3476 0
M  V30 2582 N 246.843 -1.10192 1.12674 0
M  V30 2583 C 248.089 -1.82475 0.884915 0
M  V30 2584 C 248.422 -1.85093 -0.58773 0
M  V30 2585 O 247.697 -1.3134 -1.43457 0
M  V30 2586 C 247.98 -3.29018 1.46353 0
M  V30 2587 C 247.833 -3.34718 3.00473 0
M  V30 2588 C 249.152 -4.25473 1.12519 0
M  V30 2589 H 246.271 -0.662492 0.322915 0
M  V30 2590 H 248.913 -1.2913 1.39375 0
M  V30 2591 H 247.063 -3.74576 1.03077 0
M  V30 2592 H 248.735 -2.97622 3.52447 0
M  V30 2593 H 246.978 -2.74541 3.35872 0
M  V30 2594 H 247.649 -4.37918 3.36053 0
M  V30 2595 H 250.125 -3.88161 1.499 0
M  V30 2596 H 249.001 -5.26365 1.55663 0
M  V30 2597 H 249.262 -4.42084 0.0377407 0
M  V30 2598 N 248.321 -0.919034 -1.28029 0
M  V30 2599 C 249.231 -0.416756 -2.30869 0
M  V30 2600 C 250.247 0.498235 -1.66714 0
M  V30 2601 O 251.423 0.383144 -1.97722 0
M  V30 2602 C 248.488 0.330274 -3.45123 0
M  V30 2603 C 247.549 -0.618578 -4.2482 0
M  V30 2604 C 246.782 0.0928959 -5.33619 0
M  V30 2605 O 247.005 1.31375 -5.55065 0
M  V30 2606 O 245.939 -0.574499 -5.99152 0
M  V30 2607 H 249.765 -1.27043 -2.75851 0
M  V30 2608 H 247.35 -0.684052 -1.3282 0
M  V30 2609 H 249.232 0.751972 -4.14636 0
M  V30 2610 H 247.907 1.1597 -3.02213 0
M  V30 2611 H 246.814 -1.08978 -3.57875 0
M  V30 2612 H 248.147 -1.41497 -4.71423 0
M  V30 2613 N 249.799 1.42003 -0.683588 0
M  V30 2614 C 251.045 2.01712 -0.209825 0
M  V30 2615 C 251.378 1.53968 1.18353 0
M  V30 2616 O 250.653 0.745661 1.79639 0
M  V30 2617 C 250.936 3.59202 -0.254197 0
M  V30 2618 C 250.789 4.17102 -1.68363 0
M  V30 2619 C 252.108 4.38344 0.392709 0
M  V30 2620 H 249.227 0.732891 -0.0777189 0
M  V30 2621 H 251.869 1.68909 -0.87004 0
M  V30 2622 H 250.019 3.87278 0.307954 0
M  V30 2623 H 251.691 3.99946 -2.29871 0
M  V30 2624 H 249.934 3.72597 -2.22157 0
M  V30 2625 H 250.605 5.26249 -1.6663 0
M  V30 2626 H 253.081 4.16011 -0.0859162 0
M  V30 2627 H 251.957 5.47901 0.331063 0
M  V30 2628 H 252.218 4.16887 1.47164 0
M  V30 2629 N 251.277 0.427512 1.51691 0
M  V30 2630 C 252.525 -0.141948 2.01601 0
M  V30 2631 C 252.846 -1.44067 1.31414 0
M  V30 2632 O 252.116 -1.90763 0.445658 0
M  V30 2633 H 250.696 -0.0554468 0.744939 0
M  V30 2634 H 253.358 0.567968 1.86441 0
M  V30 2635 H 252.454 -0.324913 3.10404 0
M  V30 2636 N 252.755 -1.56801 0.158532 0
M  V30 2637 C 253.98 -2.01295 -0.499516 0
M  V30 2638 C 254.405 -1.03799 -1.56867 0
M  V30 2639 O 253.763 -0.0155162 -1.81293 0
M  V30 2640 C 253.811 -3.44469 -1.06647 0
M  V30 2641 O 252.915 -3.50012 -2.18095 0
M  V30 2642 H 252.256 -0.652884 -0.12099 0
M  V30 2643 H 254.786 -2.02958 0.258661 0
M  V30 2644 H 254.796 -3.8351 -1.39227 0
M  V30 2645 H 253.471 -4.14932 -0.283581 0
M  V30 2646 H 252.048 -3.22822 -1.86656 0
M  V30 2647 N 254.233 0.115231 -1.57178 0
M  V30 2648 C 255.18 1.14115 -2.00615 0
M  V30 2649 C 256.15 1.40939 -0.878941 0
M  V30 2650 O 257.335 1.52741 -1.14345 0
M  V30 2651 C 254.475 2.46156 -2.4187 0
M  V30 2652 C 253.588 2.26236 -3.68024 0
M  V30 2653 C 252.723 3.51534 -3.98243 0
M  V30 2654 C 251.762 3.26787 -5.17568 0
M  V30 2655 N 250.899 4.44298 -5.43639 0
M  V30 2656 H 255.739 0.763743 -2.88047 0
M  V30 2657 H 253.276 0.365615 -1.42484 0
M  V30 2658 H 255.234 3.23189 -2.63827 0
M  V30 2659 H 253.864 2.81783 -1.57475 0
M  V30 2660 H 252.916 1.40102 -3.5366 0
M  V30 2661 H 254.228 2.03929 -4.55208 0
M  V30 2662 H 253.382 4.36984 -4.20868 0
M  V30 2663 H 252.121 3.76876 -3.09541 0
M  V30 2664 H 251.126 2.39729 -4.94783 0
M  V30 2665 H 252.351 3.02812 -6.0785 0
M  V30 2666 H 250.297 4.69754 -4.57895 0
M  V30 2667 H 250.214 4.25109 -6.25154 0
M  V30 2668 H 251.482 5.3087 -5.70786 0
M  V30 2669 N 255.711 1.52812 0.385517 0
M  V30 2670 C 256.96 1.67249 1.12741 0
M  V30 2671 C 257.273 0.4205 1.91027 0
M  V30 2672 O 258.479 0.445064 2.67827 0
M  V30 2673 C 256.935 2.95583 2.05326 0
M  V30 2674 C 256.543 4.27974 1.32447 0
M  V30 2675 C 258.287 3.19386 2.7963 0
M  V30 2676 C 256.194 5.47412 2.23818 0
M  V30 2677 H 255.124 0.6231 0.424573 0
M  V30 2678 H 257.775 1.79309 0.389924 0
M  V30 2679 H 256.157 2.77277 2.82725 0
M  V30 2680 H 257.331 4.56844 0.602495 0
M  V30 2681 H 255.646 4.10459 0.700885 0
M  V30 2682 H 258.243 4.05801 3.48181 0
M  V30 2683 H 258.586 2.34604 3.43899 0
M  V30 2684 H 259.119 3.38274 2.09322 0
M  V30 2685 H 255.858 6.34612 1.64157 0
M  V30 2686 H 255.378 5.22849 2.93921 0
M  V30 2687 H 257.057 5.81423 2.83824 0
M  V30 2688 N 257.189 -0.644168 1.43834 0
M  V30 2689 C 258.419 -1.42939 1.49171 0
M  V30 2690 C 258.827 -1.88874 0.111048 0
M  V30 2691 O 258.17 -1.60656 -0.8908 0
M  V30 2692 C 258.232 -2.69151 2.38324 0
M  V30 2693 C 257.896 -2.45097 3.85715 0
M  V30 2694 C 258.893 -2.07747 4.76589 0
M  V30 2695 C 256.578 -2.59141 4.30292 0
M  V30 2696 C 258.572 -1.8475 6.10038 0
M  V30 2697 C 256.259 -2.35759 5.63792 0
M  V30 2698 C 257.257 -1.9862 6.53482 0
M  V30 2699 O 256.945 -1.75489 7.84512 0
M  V30 2700 H 256.677 -0.445271 0.508635 0
M  V30 2701 H 259.231 -0.79621 1.8934 0
M  V30 2702 H 257.461 -3.3506 1.93058 0
M  V30 2703 H 259.15 -3.31123 2.3476 0
M  V30 2704 H 259.916 -1.96465 4.43426 0
M  V30 2705 H 255.795 -2.87022 3.60749 0
M  V30 2706 H 259.339 -1.55686 6.80006 0
M  V30 2707 H 255.236 -2.46646 5.9652 0
M  V30 2708 H 256.004 -1.89841 7.9618 0
M  V30 2709 N 258.668 -1.30515 -0.883378 0
M  V30 2710 C 259.914 -1.19607 -1.63774 0
M  V30 2711 C 260.247 0.248314 -1.92606 0
M  V30 2712 O 259.522 1.17742 -1.54813 0
M  V30 2713 C 259.805 -2.02669 -2.97653 0
M  V30 2714 C 259.658 -3.55335 -2.75784 0
M  V30 2715 C 260.977 -1.86573 -3.98596 0
M  V30 2716 H 258.096 -0.435856 -0.594305 0
M  V30 2717 H 260.738 -1.60165 -1.02212 0
M  V30 2718 H 258.888 -1.68208 -3.50197 0
M  V30 2719 H 260.56 -3.99863 -2.30016 0
M  V30 2720 H 258.803 -3.79438 -2.1026 0
M  V30 2721 H 259.474 -4.08745 -3.70988 0
M  V30 2722 H 261.95 -2.16703 -3.55217 0
M  V30 2723 H 260.826 -2.47014 -4.90179 0
M  V30 2724 H 261.087 -0.825321 -4.34328 0
M  V30 2725 N 260.146 1.09593 -1.13257 0
M  V30 2726 C 261.423 1.78293 -0.804432 0
M  V30 2727 C 261.803 1.99004 0.70431 0
M  V30 2728 O 261.151 1.59007 1.641 0
M  V30 2729 C 261.361 3.10707 -1.5894 0
M  V30 2730 C 262.709 3.85443 -1.78099 0
M  V30 2731 O 263.733 3.20454 -1.55525 0
M  V30 2732 O 262.592 5.02108 -2.15753 0
M  V30 2733 H 259.686 0.773156 -0.293528 0
M  V30 2734 H 262.232 1.16164 -1.23709 0
M  V30 2735 H 261.004 2.91106 -2.61482 0
M  V30 2736 H 260.627 3.80558 -1.15157 0
M  V30 2737 N 261.624 0.925811 1.2754 0
M  V30 2738 C 262.901 0.483726 1.89524 0
M  V30 2739 C 263.281 -1.03809 1.83812 0
M  V30 2740 O 262.629 -1.89143 1.28207 0
M  V30 2741 C 262.839 1.02769 3.33526 0
M  V30 2742 C 264.187 1.08703 4.10449 0
M  V30 2743 O 265.211 0.977175 3.42534 0
M  V30 2744 O 264.07 1.25599 5.31871 0
M  V30 2745 H 261.164 0.15529 0.812289 0
M  V30 2746 H 263.71 1.01738 1.35822 0
M  V30 2747 H 262.482 2.07155 3.31967 0
M  V30 2748 H 262.105 0.475567 3.94746 0
M  V30 2749 N 263.102 -1.41638 0.69111 0
M  V30 2750 C 264.35 -2.00902 0.219758 0
M  V30 2751 C 264.671 -1.54994 -1.18329 0
M  V30 2752 O 263.941 -0.778628 -1.79762 0
M  V30 2753 H 262.521 -0.74289 0.0782558 0
M  V30 2754 H 265.183 -1.73327 0.891271 0
M  V30 2755 H 264.279 -3.11224 0.233708 0
M  V30 2756 N 264.58 -0.43555 -1.51462 0
M  V30 2757 C 265.51 0.367376 -2.30592 0
M  V30 2758 C 266.491 1.02263 -1.35928 0
M  V30 2759 O 267.676 1.02661 -1.64847 0
M  V30 2760 C 264.806 1.46983 -3.14664 0
M  V30 2761 C 263.76 0.938161 -4.17591 0
M  V30 2762 C 263.086 2.13622 -4.90173 0
M  V30 2763 C 264.386 -0.0261621 -5.22293 0
M  V30 2764 H 266.08 -0.292969 -2.97963 0
M  V30 2765 H 263.626 -0.14234 -1.43295 0
M  V30 2766 H 265.579 2.03873 -3.688 0
M  V30 2767 H 264.303 2.15843 -2.4511 0
M  V30 2768 H 262.962 0.391481 -3.64504 0
M  V30 2769 H 262.61 2.81098 -4.17124 0
M  V30 2770 H 262.31 1.78688 -5.59772 0
M  V30 2771 H 263.834 2.7107 -5.47132 0
M  V30 2772 H 265.248 0.452384 -5.71512 0
M  V30 2773 H 263.645 -0.287992 -5.99409 0
M  V30 2774 H 264.715 -0.963391 -4.75233 0
M  V30 2775 N 266.058 1.56714 -0.166846 0
M  V30 2776 C 267.307 1.95922 0.479318 0
M  V30 2777 C 267.62 1.05529 1.6469 0
M  V30 2778 O 268.826 1.34399 2.35901 0
M  V30 2779 C 267.282 3.48359 0.90412 0
M  V30 2780 C 266.89 4.47369 -0.237621 0
M  V30 2781 C 268.634 3.96394 1.51896 0
M  V30 2782 C 266.541 5.91039 0.206561 0
M  V30 2783 H 265.471 0.731495 0.18284 0
M  V30 2784 H 268.122 1.81728 -0.254363 0
M  V30 2785 H 266.504 3.57955 1.69365 0
M  V30 2786 H 267.678 4.49485 -1.01489 0
M  V30 2787 H 265.993 4.09366 -0.762128 0
M  V30 2788 H 268.59 5.01186 1.86325 0
M  V30 2789 H 268.933 3.39075 2.41524 0
M  V30 2790 H 269.466 3.89796 0.79395 0
M  V30 2791 H 266.205 6.52221 -0.654834 0
M  V30 2792 H 265.725 5.9224 0.949282 0
M  V30 2793 H 267.404 6.43707 0.651939 0
M  V30 2794 N 267.536 -0.106894 1.57237 0
M  V30 2795 C 268.761 -0.830287 1.90055 0
M  V30 2796 C 269.186 -1.72064 0.75998 0
M  V30 2797 O 268.544 -1.78982 -0.288991 0
M  V30 2798 C 268.592 -1.6295 3.21683 0
M  V30 2799 O 267.696 -2.73748 3.08441 0
M  V30 2800 H 267.037 -0.228855 0.623315 0
M  V30 2801 H 269.567 -0.085658 2.04421 0
M  V30 2802 H 269.577 -2.01621 3.54701 0
M  V30 2803 H 268.252 -0.975989 4.04286 0
M  V30 2804 H 266.829 -2.38192 2.86913 0
M  V30 2805 N 269.014 -1.53014 -0.377408 0
M  V30 2806 C 269.944 -1.81589 -1.46791 0
M  V30 2807 C 270.925 -0.668622 -1.56408 0
M  V30 2808 O 272.11 -0.917337 -1.71168 0
M  V30 2809 C 269.24 -1.99519 -2.8427 0
M  V30 2810 C 268.194 -3.15249 -2.89486 0
M  V30 2811 C 267.52 -3.18451 -4.29527 0
M  V30 2812 C 268.82 -4.54084 -2.58079 0
M  V30 2813 H 270.514 -2.7291 -1.23127 0
M  V30 2814 H 268.06 -1.31319 -0.590883 0
M  V30 2815 H 270.013 -2.18092 -3.60575 0
M  V30 2816 H 268.737 -1.04897 -3.09296 0
M  V30 2817 H 267.396 -2.96477 -2.15631 0
M  V30 2818 H 267.044 -2.2149 -4.5161 0
M  V30 2819 H 266.744 -3.962 -4.33934 0
M  V30 2820 H 268.268 -3.39193 -5.07721 0
M  V30 2821 H 269.682 -4.72899 -3.24098 0
M  V30 2822 H 268.079 -5.33987 -2.7382 0
M  V30 2823 H 269.149 -4.60006 -1.53372 0
M  V30 2824 N 270.492 0.636531 -1.44174 0
M  V30 2825 C 271.424 1.7618 -1.46606 0
M  V30 2826 C 272.437 1.58768 -0.360091 0
M  V30 2827 O 273.626 1.67181 -0.625518 0
M  V30 2828 C 270.726 3.13833 -1.27915 0
M  V30 2829 C 269.899 3.57753 -2.51658 0
M  V30 2830 C 268.958 4.74265 -2.27945 0
M  V30 2831 O 267.984 4.82852 -3.01401 0
M  V30 2832 N 269.186 5.65604 -1.30662 0
M  V30 2833 H 271.951 1.74567 -2.43612 0
M  V30 2834 H 269.512 0.820924 -1.39544 0
M  V30 2835 H 271.504 3.8949 -1.09907 0
M  V30 2836 H 270.074 3.10121 -0.39293 0
M  V30 2837 H 269.294 2.72362 -2.84978 0
M  V30 2838 H 270.582 3.83847 -3.33974 0
M  V30 2839 H 269.98 5.61354 -0.699844 0
M  V30 2840 H 268.537 6.40913 -1.18634 0
M  V30 2841 N 271.97 1.30982 0.876444 0
M  V30 2842 C 273.216 1.20474 1.63138 0
M  V30 2843 C 273.549 -0.238096 1.92735 0
M  V30 2844 O 272.824 -1.1692 1.55435 0
M  V30 2845 C 273.107 2.04244 2.96574 0
M  V30 2846 C 272.96 3.56793 2.73896 0
M  V30 2847 C 274.279 1.88684 3.97601 0
M  V30 2848 H 271.398 0.439001 0.591985 0
M  V30 2849 H 274.04 1.60704 1.01361 0
M  V30 2850 H 272.19 1.70063 3.493 0
M  V30 2851 H 273.862 4.01077 2.27892 0
M  V30 2852 H 272.105 3.80548 2.08245 0
M  V30 2853 H 272.776 4.10706 3.68815 0
M  V30 2854 H 275.252 2.18584 3.54062 0
M  V30 2855 H 274.128 2.4961 4.88862 0
M  V30 2856 H 274.389 0.848343 4.33884 0
M  V30 2857 N 273.449 -1.08991 1.13837 0
M  V30 2858 C 274.396 -2.15748 0.819835 0
M  V30 2859 C 275.366 -1.64636 -0.220026 0
M  V30 2860 O 276.551 -1.90582 -0.0912757 0
M  V30 2861 C 273.691 -3.4382 0.296913 0
M  V30 2862 C 272.804 -4.0881 1.39636 0
M  V30 2863 C 271.939 -5.24655 0.831314 0
M  V30 2864 C 270.978 -5.81575 1.90886 0
M  V30 2865 N 270.115 -6.88774 1.36142 0
M  V30 2866 H 274.955 -2.42338 1.73426 0
M  V30 2867 H 272.492 -1.18935 0.865613 0
M  V30 2868 H 274.45 -4.17193 -0.0244339 0
M  V30 2869 H 273.08 -3.17535 -0.580628 0
M  V30 2870 H 272.132 -3.33258 1.83422 0
M  V30 2871 H 273.444 -4.47141 2.21058 0
M  V30 2872 H 272.598 -6.04942 0.461515 0
M  V30 2873 H 271.337 -4.87698 -0.013932 0
M  V30 2874 H 270.342 -4.99946 2.28767 0
M  V30 2875 H 271.567 -6.20592 2.75758 0
M  V30 2876 H 269.513 -6.53788 0.538254 0
M  V30 2877 H 269.43 -7.25898 2.11208 0
M  V30 2878 H 270.698 -7.72806 1.01933 0
M  V30 2879 N 274.927 -0.932562 -1.27047 0
M  V30 2880 C 275.859 -0.392734 -2.2581 0
M  V30 2881 C 276.872 0.479241 -1.55586 0
M  V30 2882 O 278.061 0.291078 -1.76111 0
M  V30 2883 C 275.161 0.455456 -3.35826 0
M  V30 2884 C 274.334 -0.398355 -4.35582 0
M  V30 2885 C 273.393 0.387985 -5.24768 0
M  V30 2886 O 272.419 -0.206003 -5.68827 0
M  V30 2887 N 273.621 1.68664 -5.55457 0
M  V30 2888 H 276.386 -1.24173 -2.72766 0
M  V30 2889 H 273.947 -0.800511 -1.40725 0
M  V30 2890 H 275.939 0.988692 -3.92437 0
M  V30 2891 H 274.509 1.20522 -2.88432 0
M  V30 2892 H 273.729 -1.11286 -3.78165 0
M  V30 2893 H 275.017 -0.981889 -4.99236 0
M  V30 2894 H 274.415 2.19147 -5.21528 0
M  V30 2895 H 272.972 2.1663 -6.14748 0
M  V30 2896 N 276.405 1.4127 -0.698611 0
M  V30 2897 C 277.352 2.30773 -0.0352094 0
M  V30 2898 C 278.322 1.47273 0.768111 0
M  V30 2899 O 279.507 1.76053 0.735524 0
M  V30 2900 C 276.647 3.33346 0.893 0
M  V30 2901 C 275.76 4.31924 0.0809695 0
M  V30 2902 C 274.895 5.21566 1.0071 0
M  V30 2903 C 273.934 6.11811 0.188155 0
M  V30 2904 N 273.071 6.93926 1.06825 0
M  V30 2905 H 277.911 2.86943 -0.804207 0
M  V30 2906 H 275.448 1.4132 -0.408294 0
M  V30 2907 H 277.406 3.91368 1.44523 0
M  V30 2908 H 276.036 2.78719 1.62836 0
M  V30 2909 H 275.088 3.75825 -0.588224 0
M  V30 2910 H 276.4 4.95716 -0.553801 0
M  V30 2911 H 275.554 5.84437 1.62845 0
M  V30 2912 H 274.293 4.58008 1.67572 0
M  V30 2913 H 273.298 5.47986 -0.446254 0
M  V30 2914 H 274.523 6.77425 -0.476716 0
M  V30 2915 H 272.469 6.32973 1.72283 0
M  V30 2916 H 272.386 7.54416 0.489123 0
M  V30 2917 H 273.654 7.61262 1.67632 0
M  V30 2918 N 277.883 0.443576 1.51229 0
M  V30 2919 C 279.131 -0.120557 2.0174 0
M  V30 2920 C 279.452 -1.42665 1.32935 0
M  V30 2921 O 278.722 -1.9028 0.465866 0
M  V30 2922 H 277.302 -0.0475426 0.745486 0
M  V30 2923 H 279.964 0.587711 1.85828 0
M  V30 2924 H 279.06 -0.291972 3.10731 0
M  V30 2925 N 279.361 -1.56624 0.175154 0
M  V30 2926 C 280.324 -2.16934 -0.739738 0
M  V30 2927 C 281.324 -1.11842 -1.15533 0
M  V30 2928 O 282.514 -1.37335 -1.07167 0
M  V30 2929 C 279.646 -2.75531 -2.00738 0
M  V30 2930 H 280.839 -2.99131 -0.214639 0
M  V30 2931 H 278.392 -1.56123 -0.0744197 0
M  V30 2932 H 279.127 -1.97078 -2.57548 0
M  V30 2933 H 278.912 -3.52444 -1.71831 0
M  V30 2934 H 280.402 -3.21904 -2.66021 0
M  V30 2935 N 280.839 0.0985539 -1.57292 0
M  V30 2936 C 282.116 0.834155 -1.76921 0
M  V30 2937 C 282.496 1.97101 -0.755928 0
M  V30 2938 O 281.844 2.27474 0.216245 0
M  V30 2939 C 282.054 1.33194 -3.22584 0
M  V30 2940 C 283.402 1.77611 -3.85668 0
M  V30 2941 O 284.426 1.42825 -3.26312 0
M  V30 2942 O 283.285 2.4192 -4.90038 0
M  V30 2943 H 280.379 0.397628 -0.725135 0
M  V30 2944 H 282.925 0.0807044 -1.69508 0
M  V30 2945 H 281.697 0.517248 -3.87866 0
M  V30 2946 H 281.32 2.1475 -3.34616 0
M  V30 2947 N 282.317 1.53212 0.369288 0
M  V30 2948 C 283.564 1.69215 1.11232 0
M  V30 2949 C 283.892 0.442048 1.8941 0
M  V30 2950 O 283.147 -0.575944 1.87033 0
M  V30 2951 C 283.446 2.89101 2.10132 0
M  V30 2952 C 283.112 4.25758 1.48463 0
M  V30 2953 C 281.774 4.6292 1.31372 0
M  V30 2954 C 284.126 5.10757 1.03811 0
M  V30 2955 C 281.454 5.82722 0.68207 0
M  V30 2956 C 283.806 6.31201 0.420487 0
M  V30 2957 C 282.47 6.67079 0.237038 0
M  V30 2958 H 281.74 0.619201 0.407027 0
M  V30 2959 H 284.387 1.87391 0.394552 0
M  V30 2960 H 282.692 2.65421 2.88199 0
M  V30 2961 H 284.389 2.98676 2.6757 0
M  V30 2962 H 280.979 3.96494 1.62758 0
M  V30 2963 H 285.163 4.82599 1.1581 0
M  V30 2964 H 280.419 6.09113 0.528316 0
M  V30 2965 H 284.593 6.96368 0.0662874 0
M  V30 2966 H 282.22 7.59774 -0.254477 0
M  V30 2967 N 283.795 -0.628877 1.44509 0
M  V30 2968 C 284.725 -1.75187 1.54376 0
M  V30 2969 C 285.706 -1.65411 0.396618 0
M  V30 2970 O 286.891 -1.84137 0.617031 0
M  V30 2971 C 284.021 -3.13725 1.48976 0
M  V30 2972 C 282.975 -3.38291 2.62189 0
M  V30 2973 C 282.301 -4.76883 2.41841 0
M  V30 2974 C 283.601 -3.30632 4.04326 0
M  V30 2975 H 285.295 -1.67187 2.48373 0
M  V30 2976 H 282.841 -0.802909 1.19538 0
M  V30 2977 H 284.794 -3.92064 1.54478 0
M  V30 2978 H 283.518 -3.22515 0.514961 0
M  V30 2979 H 282.177 -2.62334 2.56079 0
M  V30 2980 H 281.825 -4.82378 1.42548 0
M  V30 2981 H 281.525 -4.94278 3.17747 0
M  V30 2982 H 283.049 -5.57449 2.49165 0
M  V30 2983 H 284.463 -3.98873 4.11793 0
M  V30 2984 H 282.86 -3.59561 4.80454 0
M  V30 2985 H 283.93 -2.28404 4.27738 0
M  V30 2986 N 285.273 -1.31445 -0.869486 0
M  V30 2987 C 286.519 -1.21337 -1.62496 0
M  V30 2988 C 286.852 0.227872 -1.92858 0
M  V30 2989 O 286.127 1.16094 -1.56053 0
M  V30 2990 C 286.41 -2.05814 -2.95487 0
M  V30 2991 C 286.263 -3.5824 -2.72 0
M  V30 2992 C 287.582 -1.9079 -3.96594 0
M  V30 2993 H 284.701 -0.442135 -0.589649 0
M  V30 2994 H 287.343 -1.6124 -1.00507 0
M  V30 2995 H 285.493 -1.71913 -3.48394 0
M  V30 2996 H 287.165 -4.0228 -2.25762 0
M  V30 2997 H 285.408 -3.81647 -2.06224 0
M  V30 2998 H 286.079 -4.12657 -3.66631 0
M  V30 2999 H 288.555 -2.20459 -3.52898 0
M  V30 3000 H 287.431 -2.52199 -4.87531 0
M  V30 3001 H 287.692 -0.871341 -4.33428 0
M  V30 3002 N 286.751 1.08385 -1.14413 0
M  V30 3003 C 287.979 1.84517 -0.936001 0
M  V30 3004 C 288.394 1.81626 0.515503 0
M  V30 3005 O 287.751 1.22008 1.35721 0
M  V30 3006 C 287.802 3.32049 -1.42918 0
M  V30 3007 O 287.523 3.34951 -2.82381 0
M  V30 3008 C 289.024 4.24986 -1.26103 0
M  V30 3009 H 286.244 0.582491 -0.333084 0
M  V30 3010 H 288.788 1.36885 -1.5193 0
M  V30 3011 H 286.943 3.7707 -0.888641 0
M  V30 3012 H 287.357 4.27048 -3.04517 0
M  V30 3013 H 288.831 5.26615 -1.6547 0
M  V30 3014 H 289.308 4.38726 -0.20392 0
M  V30 3015 H 289.914 3.85791 -1.79012 0
M  V30 3016 N 288.23 0.939286 1.26551 0
M  V30 3017 C 289.14 0.453432 2.30176 0
M  V30 3018 C 290.156 -0.471649 1.67486 0
M  V30 3019 O 291.332 -0.35164 1.98306 0
M  V30 3020 C 288.397 -0.275326 3.45605 0
M  V30 3021 C 287.458 0.686084 4.23782 0
M  V30 3022 C 286.691 -0.00798994 5.33699 0
M  V30 3023 O 286.914 -1.22528 5.57085 0
M  V30 3024 O 285.848 0.669746 5.98162 0
M  V30 3025 H 289.674 1.31416 2.73795 0
M  V30 3026 H 287.259 0.705095 1.31715 0
M  V30 3027 H 289.141 -0.685911 4.1578 0
M  V30 3028 H 287.816 -1.11147 3.0402 0
M  V30 3029 H 286.723 1.14658 3.56096 0
M  V30 3030 H 288.056 1.48979 4.69112 0
M  V30 3031 N 289.708 -1.40897 0.706093 0
M  V30 3032 C 290.954 -2.01352 0.241889 0
M  V30 3033 C 291.287 -1.55832 -1.15888 0
M  V30 3034 O 290.562 -0.774145 -1.7843 0
M  V30 3035 C 290.845 -3.58752 0.311311 0
M  V30 3036 C 290.698 -4.1437 1.74978 0
M  V30 3037 C 292.017 -4.38914 -0.322922 0
M  V30 3038 H 289.136 -0.731562 0.0893687 0
M  V30 3039 H 291.778 -1.67504 0.896802 0
M  V30 3040 H 289.928 -3.87718 -0.246302 0
M  V30 3041 H 291.6 -3.96239 2.36205 0
M  V30 3042 H 289.843 -3.69016 2.28057 0
M  V30 3043 H 290.514 -5.23532 1.74981 0
M  V30 3044 H 292.99 -4.15822 0.152089 0
M  V30 3045 H 291.866 -5.48358 -0.243855 0
M  V30 3046 H 292.127 -4.19176 -1.40513 0
M  V30 3047 N 291.186 -0.45159 -1.50991 0
M  V30 3048 C 292.096 0.358431 -2.31846 0
M  V30 3049 C 293.112 1.01438 -1.41373 0
M  V30 3050 O 294.288 1.00663 -1.74439 0
M  V30 3051 C 291.353 1.43704 -3.15515 0
M  V30 3052 C 290.414 0.799742 -4.21785 0
M  V30 3053 C 289.647 1.82696 -5.01456 0
M  V30 3054 O 289.87 3.05105 -4.81941 0
M  V30 3055 O 288.804 1.40958 -5.85162 0
M  V30 3056 H 292.63 -0.302032 -3.02194 0
M  V30 3057 H 290.215 -0.213825 -1.47862 0
M  V30 3058 H 292.097 2.06227 -3.67489 0
M  V30 3059 H 290.772 2.08133 -2.47916 0
M  V30 3060 H 289.679 0.136084 -3.73852 0
M  V30 3061 H 291.012 0.198718 -4.91799 0
M  V30 3062 N 292.664 1.56529 -0.183458 0
M  V30 3063 C 293.612 2.19873 0.758845 0
M  V30 3064 C 294.606 1.16638 1.22849 0
M  V30 3065 O 295.812 1.3481 1.19274 0
M  V30 3066 H 292.187 0.7045 0.263029 0
M  V30 3067 H 294.158 2.97724 0.200755 0
M  V30 3068 C 292.907 2.86314 1.9728 0
M  V30 3069 H 292.23 3.65487 1.62047 0
M  V30 3070 H 293.67 3.3409 2.61075 0
M  V30 3071 C 292.129 1.86729 2.80418 0
M  V30 3072 O 292.659 1.36031 3.77966 0
M  V30 3073 N 290.865 1.55216 2.45675 0
M  V30 3074 H 290.412 1.96636 1.66409 0
M  V30 3075 H 290.37 0.888388 3.01588 0
M  V30 3076 N 294.142 -0.090211 1.57342 0
M  V30 3077 C 295.39 -0.791241 1.85967 0
M  V30 3078 C 295.711 -1.7903 0.772859 0
M  V30 3079 O 294.981 -1.94872 -0.200398 0
M  V30 3080 H 293.561 -0.295205 0.686195 0
M  V30 3081 H 296.223 -0.0706782 1.94772 0
M  V30 3082 H 295.319 -1.31882 2.82867 0
M  V30 3083 N 295.62 -1.53406 -0.361157 0
M  V30 3084 C 296.868 -1.69467 -1.10115 0
M  V30 3085 C 297.189 -0.451352 -1.89705 0
M  V30 3086 O 296.459 0.534636 -1.88463 0
M  V30 3087 H 295.039 -0.624749 -0.409508 0
M  V30 3088 H 297.701 -1.90609 -0.406699 0
M  V30 3089 H 296.797 -2.55774 -1.78847 0
M  V30 3090 N 297.098 0.621204 -1.44841 0
M  V30 3091 C 298.323 1.41244 -1.51871 0
M  V30 3092 C 298.748 1.87519 -0.147764 0
M  V30 3093 O 298.106 1.59334 0.865 0
M  V30 3094 C 298.154 2.60221 -2.49634 0
M  V30 3095 O 297.258 3.60395 -2.00473 0
M  V30 3096 H 296.599 0.42223 -0.512463 0
M  V30 3097 H 299.129 0.757305 -1.90069 0
M  V30 3098 H 299.139 3.0764 -2.67996 0
M  V30 3099 H 297.814 2.25887 -3.4921 0
M  V30 3100 H 296.391 3.19717 -1.91925 0
M  V30 3101 N 298.576 1.31904 0.862503 0
M  V30 3102 C 299.506 1.22782 1.98612 0
M  V30 3103 C 300.487 0.113362 1.69722 0
M  V30 3104 O 301.672 0.299218 1.91881 0
M  V30 3105 C 298.802 0.942058 3.34279 0
M  V30 3106 C 297.756 2.0169 3.77499 0
M  V30 3107 C 297.082 1.58369 5.10709 0
M  V30 3108 C 298.382 3.43096 3.93805 0
M  V30 3109 H 300.076 2.16788 2.06502 0
M  V30 3110 H 297.622 1.04366 0.992154 0
M  V30 3111 H 299.575 0.864818 4.1243 0
M  V30 3112 H 298.299 -0.0336603 3.26583 0
M  V30 3113 H 296.958 2.08416 3.01593 0
M  V30 3114 H 296.606 0.595628 4.99461 0
M  V30 3115 H 296.306 2.30279 5.40597 0
M  V30 3116 H 297.83 1.52067 5.91361 0
M  V30 3117 H 299.244 3.39003 4.62331 0
M  V30 3118 H 297.641 4.13288 4.35101 0
M  V30 3119 H 298.711 3.83334 2.96957 0
M  V30 3120 N 300.054 -1.07777 1.14986 0
M  V30 3121 C 301.302 -1.79934 0.920235 0
M  V30 3122 C 301.623 -1.86955 -0.554336 0
M  V30 3123 O 300.893 -1.36731 -1.40291 0
M  V30 3124 H 299.473 -0.666424 0.337473 0
M  V30 3125 H 302.135 -1.3027 1.44968 0
M  V30 3126 H 301.231 -2.82539 1.32583 0
M  V30 3127 N 301.532 -0.945985 -1.26051 0
M  V30 3128 C 302.757 -0.612525 -1.98149 0
M  V30 3129 C 303.182 0.806623 -1.69927 0
M  V30 3130 O 302.54 1.54411 -0.950108 0
M  V30 3131 C 302.588 -0.866981 -3.50023 0
M  V30 3132 O 301.692 0.0585333 -4.12358 0
M  V30 3133 H 301.033 -0.23379 -0.621481 0
M  V30 3134 H 303.563 -1.27023 -1.60395 0
M  V30 3135 H 303.573 -0.789792 -4.00283 0
M  V30 3136 H 302.248 -1.90135 -3.69894 0
M  V30 3137 H 300.825 -0.0701241 -3.72834 0
M  V30 3138 N 303.011 1.40521 -0.713556 0
M  V30 3139 C 303.958 2.30723 -0.059684 0
M  V30 3140 C 304.928 1.48079 0.752448 0
M  V30 3141 O 306.113 1.76823 0.71681 0
M  V30 3142 C 303.253 3.34274 0.857594 0
M  V30 3143 C 302.366 4.31986 0.0351536 0
M  V30 3144 C 301.501 5.22605 0.951724 0
M  V30 3145 C 300.54 6.11976 0.123253 0
M  V30 3146 N 299.677 6.9502 0.99459 0
M  V30 3147 H 304.517 2.86074 -0.834596 0
M  V30 3148 H 302.054 1.40879 -0.42326 0
M  V30 3149 H 304.012 3.92879 1.40364 0
M  V30 3150 H 302.642 2.8043 1.59871 0
M  V30 3151 H 301.694 3.7518 -0.628052 0
M  V30 3152 H 303.006 4.95101 -0.606347 0
M  V30 3153 H 302.16 5.86131 1.56638 0
M  V30 3154 H 300.899 4.59759 1.62705 0
M  V30 3155 H 299.904 5.47482 -0.50435 0
M  V30 3156 H 301.129 6.76881 -0.548539 0
M  V30 3157 H 299.075 6.34764 1.6556 0
M  V30 3158 H 298.992 7.54892 0.40908 0
M  V30 3159 H 300.26 7.62997 1.59549 0
M  V30 3160 N 304.489 0.459591 1.5075 0
M  V30 3161 C 305.436 -0.340524 2.28274 0
M  V30 3162 C 306.406 -0.997371 1.32822 0
M  V30 3163 O 307.591 -1.01202 1.61749 0
M  V30 3164 C 304.731 -1.42317 3.14388 0
M  V30 3165 C 303.844 -0.782251 4.24859 0
M  V30 3166 C 302.979 -1.84182 4.98247 0
M  V30 3167 C 302.018 -1.18053 6.00608 0
M  V30 3168 N 301.155 -2.18244 6.67319 0
M  V30 3169 H 305.995 0.326899 2.96202 0
M  V30 3170 H 303.532 0.173057 1.46078 0
M  V30 3171 H 305.49 -2.06241 3.62658 0
M  V30 3172 H 304.12 -2.05992 2.4853 0
M  V30 3173 H 303.172 -0.0307404 3.80388 0
M  V30 3174 H 304.484 -0.259663 4.98124 0
M  V30 3175 H 303.638 -2.55714 5.50177 0
M  V30 3176 H 302.377 -2.39819 4.24662 0
M  V30 3177 H 301.382 -0.450776 5.47949 0
M  V30 3178 H 302.607 -0.631202 6.7616 0
M  V30 3179 H 300.553 -2.72919 5.96533 0
M  V30 3180 H 300.47 -1.70938 7.36421 0
M  V30 3181 H 301.738 -2.89191 7.23871 0
M  V30 3182 N 305.967 -1.56429 0.191757 0
M  V30 3183 C 307.215 -1.97095 -0.447006 0
M  V30 3184 C 307.536 -1.07967 -1.62383 0
M  V30 3185 O 306.806 -0.150248 -1.95323 0
M  V30 3186 H 305.386 -0.727832 -0.168135 0
M  V30 3187 H 308.048 -1.92911 0.27771 0
M  V30 3188 H 307.144 -3.01848 -0.793371 0
M  V30 3189 N 307.445 0.0818655 -1.57387 0
M  V30 3190 C 308.691 0.784074 -1.8703 0
M  V30 3191 C 309.024 1.77729 -0.782689 0
M  V30 3192 O 308.299 1.93384 0.208051 0
M  V30 3193 C 308.582 1.50105 -3.27323 0
M  V30 3194 C 308.435 0.524925 -4.46727 0
M  V30 3195 C 309.754 2.44843 -3.65705 0
M  V30 3196 H 306.873 0.283582 -0.680257 0
M  V30 3197 H 309.515 0.0474352 -1.89941 0
M  V30 3198 H 307.665 2.12897 -3.24972 0
M  V30 3199 H 309.337 -0.0970111 -4.61198 0
M  V30 3200 H 307.58 -0.160606 -4.33503 0
M  V30 3201 H 308.251 1.064 -5.41648 0
M  V30 3202 H 310.727 1.92135 -3.69085 0
M  V30 3203 H 309.603 2.92018 -4.64776 0
M  V30 3204 H 309.864 3.29197 -2.95096 0
M  V30 3205 N 308.923 1.53595 0.353017 0
M  V30 3206 C 309.871 1.81605 1.45335 0
M  V30 3207 C 310.865 0.685923 1.54892 0
M  V30 3208 O 312.071 0.869095 1.57628 0
M  V30 3209 H 308.446 0.575204 0.484401 0
M  V30 3210 H 310.417 2.73679 1.18921 0
M  V30 3211 C 309.166 2.03406 2.81995 0
M  V30 3212 H 308.489 2.89814 2.75405 0
M  V30 3213 H 309.929 2.26975 3.58132 0
M  V30 3214 C 308.388 0.816794 3.26849 0
M  V30 3215 O 308.918 0.0115856 4.01698 0
M  V30 3216 N 307.124 0.636682 2.8354 0
M  V30 3217 H 306.671 1.2931 2.22793 0
M  V30 3218 H 306.629 -0.176336 3.13905 0
M  V30 3219 N 310.401 -0.613514 1.45168 0
M  V30 3220 C 311.331 -1.7354 1.56225 0
M  V30 3221 C 312.312 -1.64981 0.41414 0
M  V30 3222 O 313.497 -1.83472 0.636526 0
M  V30 3223 C 310.627 -3.12128 1.52295 0
M  V30 3224 C 309.581 -3.35491 2.65762 0
M  V30 3225 C 308.907 -4.74291 2.46885 0
M  V30 3226 C 310.207 -3.26325 4.0781 0
M  V30 3227 H 311.901 -1.64543 2.50132 0
M  V30 3228 H 309.447 -0.790185 1.20383 0
M  V30 3229 H 311.4 -3.90404 1.58628 0
M  V30 3230 H 310.124 -3.2195 0.549139 0
M  V30 3231 H 308.783 -2.59603 2.58847 0
M  V30 3232 H 308.431 -4.80839 1.47657 0
M  V30 3233 H 308.131 -4.9088 3.22972 0
M  V30 3234 H 309.655 -5.54775 2.55063 0
M  V30 3235 H 311.069 -3.94483 4.16 0
M  V30 3236 H 309.466 -3.54445 4.8424 0
M  V30 3237 H 310.536 -2.23855 4.30136 0
M  V30 3238 N 311.879 -1.3236 -0.855495 0
M  V30 3239 C 313.29 -1.2056 -1.42556 0
M  V30 3240 C 313.641 0.182209 -1.95352 0
M  V30 3241 O 312.766 1.08088 -1.87472 0
M  V30 3242 C 313.361 -2.1826 -2.59129 0
M  V30 3243 C 311.92 -2.10351 -3.12137 0
M  V30 3244 C 311.067 -2.06674 -1.84882 0
M  V30 3245 H 314.018 -1.442 -0.662727 0
M  V30 3246 H 314.039 -1.78064 -3.36264 0
M  V30 3247 H 313.551 -3.19257 -2.20673 0
M  V30 3248 H 311.652 -1.12599 -3.55179 0
M  V30 3249 H 311.765 -3.00135 -3.73438 0
M  V30 3250 H 310.129 -1.51901 -2.04446 0
M  V30 3251 H 310.912 -3.09451 -1.48643 0
M  V30 3252 N 313.357 1.07166 -1.15556 0
M  V30 3253 C 314.605 1.79443 -0.929764 0
M  V30 3254 C 314.926 1.87246 0.544414 0
M  V30 3255 O 314.196 1.37473 1.39564 0
M  V30 3256 H 312.776 0.664625 -0.341003 0
M  V30 3257 H 315.438 1.29499 -1.45657 0
M  V30 3258 H 314.534 2.81832 -1.34079 0
M  V30 3259 N 314.835 0.952656 1.25548 0
M  V30 3260 C 315.798 0.475794 2.24207 0
M  V30 3261 C 316.798 -0.419428 1.55234 0
M  V30 3262 O 317.988 -0.216994 1.72843 0
M  V30 3263 C 315.12 -0.312814 3.39462 0
M  V30 3264 H 316.313 1.34779 2.67908 0
M  V30 3265 H 313.866 0.735739 1.37901 0
M  V30 3266 H 314.601 -1.20257 3.01179 0
M  V30 3267 H 314.386 0.329404 3.90714 0
M  V30 3268 H 315.876 -0.635986 4.12729 0
M  V30 3269 N 316.313 -1.40141 0.720998 0
M  V30 3270 C 317.276 -2.29058 0.0805834 0
M  V30 3271 C 318.276 -1.45632 -0.681758 0
M  V30 3272 O 319.466 -1.6648 -0.512856 0
M  V30 3273 C 316.598 -3.28925 -0.895593 0
M  V30 3274 H 317.791 -2.87191 0.863793 0
M  V30 3275 H 315.344 -1.48553 0.485975 0
M  V30 3276 H 316.079 -2.75822 -1.70566 0
M  V30 3277 H 315.864 -3.90519 -0.351766 0
M  V30 3278 H 317.354 -3.95494 -1.34069 0
M  V30 3279 N 317.792 -0.46758 -1.50504 0
M  V30 3280 C 319.038 0.0887532 -2.02606 0
M  V30 3281 C 319.371 1.39686 -1.34913 0
M  V30 3282 O 318.646 1.88644 -0.473694 0
M  V30 3283 C 318.929 0.276206 -3.59039 0
M  V30 3284 C 318.782 -1.05267 -4.37309 0
M  V30 3285 C 320.101 1.03235 -4.27821 0
M  V30 3286 H 317.22 0.0307814 -0.736357 0
M  V30 3287 H 319.862 -0.612485 -1.79857 0
M  V30 3288 H 318.012 0.8735 -3.78553 0
M  V30 3289 H 319.684 -1.68628 -4.29374 0
M  V30 3290 H 317.927 -1.65015 -4.01189 0
M  V30 3291 H 318.598 -0.875197 -5.45018 0
M  V30 3292 H 321.074 0.526111 -4.12761 0
M  V30 3293 H 319.95 1.1323 -5.37094 0
M  V30 3294 H 320.211 2.06806 -3.90748 0
M  V30 3295 N 319.27 1.56325 -0.20005 0
M  V30 3296 C 320.547 1.89484 0.48529 0
M  V30 3297 C 320.927 1.1143 1.79294 0
M  V30 3298 O 320.275 0.216919 2.27468 0
M  V30 3299 C 320.485 3.41923 0.699243 0
M  V30 3300 C 321.833 4.12256 1.01638 0
M  V30 3301 O 322.857 3.47402 0.786792 0
M  V30 3302 O 321.716 5.26887 1.45095 0
M  V30 3303 H 318.81 0.787144 0.253639 0
M  V30 3304 H 321.356 1.67985 -0.240633 0
M  V30 3305 H 320.128 3.90658 -0.224008 0
M  V30 3306 H 319.751 3.69131 1.47744 0
M  V30 3307 N 320.748 -0.0735177 1.57428 0
M  V30 3308 C 321.678 -1.0879 2.06608 0
M  V30 3309 C 322.659 -1.40473 0.959237 0
M  V30 3310 O 323.844 -1.5013 1.23185 0
M  V30 3311 C 320.974 -2.40183 2.50857 0
M  V30 3312 C 319.928 -2.22858 3.65402 0
M  V30 3313 C 319.254 -3.59619 3.957 0
M  V30 3314 C 320.554 -1.65123 4.95511 0
M  V30 3315 H 322.248 -0.678673 2.91607 0
M  V30 3316 H 319.794 -0.325013 1.40284 0
M  V30 3317 H 321.747 -3.11437 2.83874 0
M  V30 3318 H 320.471 -2.83083 1.62885 0
M  V30 3319 H 319.13 -1.54045 3.32664 0
M  V30 3320 H 318.778 -4.00086 3.04861 0
M  V30 3321 H 318.478 -3.48866 4.72828 0
M  V30 3322 H 320.002 -4.32306 4.31212 0
M  V30 3323 H 321.416 -2.26241 5.26771 0
M  V30 3324 H 319.813 -1.65071 5.7695 0
M  V30 3325 H 320.883 -0.612559 4.81015 0
M  V30 3326 N 322.226 -1.5378 -0.344866 0
M  V30 3327 C 323.637 -1.62428 -0.920552 0
M  V30 3328 C 323.988 -0.504747 -1.89596 0
M  V30 3329 O 323.113 0.365711 -2.13287 0
M  V30 3330 C 323.708 -2.94419 -1.67639 0
M  V30 3331 C 322.267 -3.05333 -2.20111 0
M  V30 3332 C 321.414 -2.57866 -1.01982 0
M  V30 3333 H 324.365 -1.58222 -0.123042 0
M  V30 3334 H 324.386 -2.83384 -2.53917 0
M  V30 3335 H 323.898 -3.7588 -0.966224 0
M  V30 3336 H 321.999 -2.28502 -2.94308 0
M  V30 3337 H 322.112 -4.10778 -2.46573 0
M  V30 3338 H 320.476 -2.13241 -1.39285 0
M  V30 3339 H 321.259 -3.41765 -0.324308 0
M  V30 3340 N 323.704 0.605807 -1.45491 0
M  V30 3341 C 324.667 1.69836 -1.5391 0
M  V30 3342 C 325.667 1.55261 -0.418424 0
M  V30 3343 O 326.857 1.60296 -0.681965 0
M  V30 3344 C 323.989 3.09117 -1.43734 0
M  V30 3345 H 325.182 1.63738 -2.51257 0
M  V30 3346 H 322.735 0.821689 -1.32959 0
M  V30 3347 H 323.47 3.20791 -0.475788 0
M  V30 3348 H 323.255 3.21104 -2.25021 0
M  V30 3349 H 324.745 3.88696 -1.52661 0
M  V30 3350 N 325.182 1.32811 0.848464 0
M  V30 3351 C 326.428 1.23907 1.60546 0
M  V30 3352 C 326.761 -0.197161 1.93197 0
M  V30 3353 O 326.036 -1.13596 1.5788 0
M  V30 3354 C 326.319 2.10489 2.92175 0
M  V30 3355 C 326.172 3.62522 2.66266 0
M  V30 3356 C 327.491 1.97075 3.93509 0
M  V30 3357 H 324.61 0.451459 0.58254 0
M  V30 3358 H 327.252 1.62818 0.979296 0
M  V30 3359 H 325.402 1.77434 3.45614 0
M  V30 3360 H 327.074 4.05821 2.19334 0
M  V30 3361 H 325.317 3.84879 2.00126 0
M  V30 3362 H 325.988 4.18437 3.6002 0
M  V30 3363 H 328.464 2.26045 3.49346 0
M  V30 3364 H 327.34 2.59923 4.83457 0
M  V30 3365 H 327.601 0.940186 4.31987 0
M  V30 3366 N 326.66 -1.06551 1.16123 0
M  V30 3367 C 327.885 -1.83544 0.965735 0
M  V30 3368 C 328.31 -1.81843 -0.481102 0
M  V30 3369 O 327.668 -1.21732 -1.34354 0
M  V30 3370 C 327.716 -3.28169 1.49457 0
M  V30 3371 O 326.82 -4.0643 0.699157 0
M  V30 3372 H 326.161 -0.568026 0.343864 0
M  V30 3373 H 328.691 -1.34362 1.54299 0
M  V30 3374 H 328.701 -3.78992 1.51092 0
M  V30 3375 H 327.376 -3.28722 2.54784 0
M  V30 3376 H 325.953 -3.65216 0.7531 0
M  V30 3377 N 328.138 -0.959301 -1.25041 0
M  V30 3378 C 329.048 -0.489994 -2.29426 0
M  V30 3379 C 330.064 0.444944 -1.68215 0
M  V30 3380 O 331.24 0.320046 -1.98841 0
M  V30 3381 C 328.305 0.220309 -3.45999 0
M  V30 3382 C 327.366 -0.753418 -4.22637 0
M  V30 3383 C 326.599 -0.076918 -5.33645 0
M  V30 3384 O 326.822 1.13649 -5.58963 0
M  V30 3385 O 325.756 -0.764824 -5.97021 0
M  V30 3386 H 329.582 -1.35755 -2.71669 0
M  V30 3387 H 327.167 -0.725961 -1.30576 0
M  V30 3388 H 329.049 0.619677 -4.16819 0
M  V30 3389 H 327.724 1.06296 -3.0575 0
M  V30 3390 H 326.631 -1.20308 -3.54227 0
M  V30 3391 H 327.964 -1.56423 -4.66683 0
M  V30 3392 N 329.616 1.39756 -0.72842 0
M  V30 3393 C 330.563 2.30647 -0.0841519 0
M  V30 3394 C 331.533 1.48869 0.7367 0
M  V30 3395 O 332.718 1.77574 0.698015 0
M  V30 3396 C 329.858 3.35165 0.822091 0
M  V30 3397 C 328.971 4.31999 -0.0106663 0
M  V30 3398 C 328.106 5.23585 0.896241 0
M  V30 3399 C 327.145 6.12072 0.0583381 0
M  V30 3400 N 326.282 6.96035 0.920818 0
M  V30 3401 H 331.122 2.85173 -0.864891 0
M  V30 3402 H 328.659 1.40422 -0.438179 0
M  V30 3403 H 330.617 3.94345 1.36189 0
M  V30 3404 H 329.247 2.8211 1.56888 0
M  V30 3405 H 328.299 3.74492 -0.66781 0
M  V30 3406 H 329.611 4.9443 -0.658825 0
M  V30 3407 H 328.765 5.87759 1.50412 0
M  V30 3408 H 327.504 4.61459 1.57819 0
M  V30 3409 H 326.509 5.46916 -0.562389 0
M  V30 3410 H 327.734 6.76261 -0.6203 0
M  V30 3411 H 325.68 6.36485 1.58818 0
M  V30 3412 H 325.597 7.55284 0.32899 0
M  V30 3413 H 326.865 7.64646 1.51447 0
M  V30 3414 N 331.094 0.475555 1.50254 0
M  V30 3415 C 332.371 -0.139685 1.95101 0
M  V30 3416 C 332.751 -1.56555 1.41611 0
M  V30 3417 O 332.099 -2.19956 0.618993 0
M  V30 3418 C 332.309 -0.0784298 3.48912 0
M  V30 3419 C 333.657 -0.265095 4.23772 0
M  V30 3420 O 334.681 -0.154808 3.55863 0
M  V30 3421 O 333.54 -0.488327 5.44314 0
M  V30 3422 H 330.634 -0.109236 0.819754 0
M  V30 3423 H 333.18 0.536276 1.61004 0
M  V30 3424 H 331.952 0.916918 3.80405 0
M  V30 3425 H 331.575 -0.795655 3.89558 0
M  V30 3426 N 332.573 -1.56217 0.208337 0
M  V30 3427 C 333.822 -1.97124 -0.427204 0
M  V30 3428 C 334.135 -1.09859 -1.61835 0
M  V30 3429 O 335.341 -1.40606 -2.32255 0
M  V30 3430 C 333.797 -3.50633 -0.811442 0
M  V30 3431 C 333.405 -4.46582 0.35615 0
M  V30 3432 C 335.149 -4.00282 -1.41332 0
M  V30 3433 C 333.056 -5.91379 -0.0497852 0
M  V30 3434 H 331.986 -0.736086 -0.163381 0
M  V30 3435 H 334.637 -1.8099 0.302456 0
M  V30 3436 H 333.019 -3.62319 -1.59815 0
M  V30 3437 H 334.193 -4.46636 1.1337 0
M  V30 3438 H 332.508 -4.07202 0.870396 0
M  V30 3439 H 335.105 -5.0595 -1.72972 0
M  V30 3440 H 335.448 -3.45359 -2.32449 0
M  V30 3441 H 335.981 -3.91764 -0.690323 0
M  V30 3442 H 332.72 -6.50255 0.827529 0
M  V30 3443 H 332.24 -5.94549 -0.791926 0
M  V30 3444 H 333.919 -6.45209 -0.481042 0
M  V30 3445 N 334.051 0.0651679 -1.57465 0
M  V30 3446 C 334.983 1.10359 -2.00882 0
M  V30 3447 C 335.996 1.346 -0.915788 0
M  V30 3448 O 337.185 1.32723 -1.1936 0
M  V30 3449 C 334.285 2.45312 -2.33828 0
M  V30 3450 C 333.458 2.40934 -3.65061 0
M  V30 3451 C 332.517 3.58047 -3.85602 0
M  V30 3452 O 331.543 3.39175 -4.57109 0
M  V30 3453 N 332.745 4.78637 -3.28462 0
M  V30 3454 H 335.51 0.733807 -2.90578 0
M  V30 3455 H 333.071 0.253719 -1.599 0
M  V30 3456 H 335.063 3.22314 -2.44737 0
M  V30 3457 H 333.633 2.74267 -1.49988 0
M  V30 3458 H 332.853 1.49273 -3.64844 0
M  V30 3459 H 334.141 2.35117 -4.51218 0
M  V30 3460 H 333.539 4.96872 -2.70433 0
M  V30 3461 H 332.096 5.53127 -3.44809 0
M  V30 3462 N 335.529 1.53961 0.336706 0
M  V30 3463 C 336.806 1.62171 1.09361 0
M  V30 3464 C 337.186 0.447263 2.06307 0
M  V30 3465 O 336.534 -0.559802 2.21537 0
M  V30 3466 C 336.744 2.98565 1.80721 0
M  V30 3467 C 338.092 3.54157 2.34218 0
M  V30 3468 O 339.116 3.00784 1.90807 0
M  V30 3469 O 337.975 4.47528 3.13657 0
M  V30 3470 H 335.069 0.6562 0.503319 0
M  V30 3471 H 337.615 1.66307 0.33765 0
M  V30 3472 H 336.387 3.75482 1.10132 0
M  V30 3473 H 336.01 2.9805 2.63158 0
M  V30 3474 N 337.007 -0.598083 1.45811 0
M  V30 3475 C 337.937 -1.71873 1.58057 0
M  V30 3476 C 338.918 -1.64533 0.431615 0
M  V30 3477 O 340.103 -1.82787 0.65595 0
M  V30 3478 C 337.233 -3.10495 1.55597 0
M  V30 3479 C 336.187 -3.32654 2.69305 0
M  V30 3480 C 335.513 -4.71646 2.51902 0
M  V30 3481 C 336.813 -3.21981 4.11248 0
M  V30 3482 H 338.507 -1.61881 2.51863 0
M  V30 3483 H 336.053 -0.777372 1.21214 0
M  V30 3484 H 338.006 -3.88699 1.6276 0
M  V30 3485 H 336.73 -3.2135 0.583255 0
M  V30 3486 H 335.389 -2.56843 2.61586 0
M  V30 3487 H 335.037 -4.79246 1.52748 0
M  V30 3488 H 334.737 -4.87426 3.2816 0
M  V30 3489 H 336.261 -5.52038 2.60933 0
M  V30 3490 H 337.675 -3.90049 4.20161 0
M  V30 3491 H 336.072 -3.49289 4.87972 0
M  V30 3492 H 337.142 -2.1928 4.32486 0
M  V30 3493 N 338.485 -1.33259 -0.841409 0
M  V30 3494 C 339.432 -1.23302 -1.95103 0
M  V30 3495 C 340.402 -0.112204 -1.65721 0
M  V30 3496 O 341.587 -0.290038 -1.88583 0
M  V30 3497 C 338.727 -0.975583 -3.31023 0
M  V30 3498 C 337.84 -2.18243 -3.72819 0
M  V30 3499 C 336.975 -1.85936 -4.97595 0
M  V30 3500 C 336.014 -3.02866 -5.3192 0
M  V30 3501 N 335.151 -2.70565 -6.47873 0
M  V30 3502 H 339.991 -2.18207 -2.02952 0
M  V30 3503 H 337.528 -1.0851 -0.993173 0
M  V30 3504 H 339.486 -0.80677 -4.09325 0
M  V30 3505 H 338.116 -0.0632755 -3.22738 0
M  V30 3506 H 337.168 -2.46107 -2.90061 0
M  V30 3507 H 338.48 -3.05666 -3.94169 0
M  V30 3508 H 337.634 -1.65684 -5.83638 0
M  V30 3509 H 336.373 -0.957452 -4.78209 0
M  V30 3510 H 335.378 -3.23736 -4.44382 0
M  V30 3511 H 336.603 -3.93809 -5.53255 0
M  V30 3512 H 334.549 -1.8293 -6.29978 0
M  V30 3513 H 334.466 -3.51519 -6.69306 0
M  V30 3514 H 335.734 -2.53774 -7.37034 0
M  V30 3515 N 339.963 1.05934 -1.16686 0
M  V30 3516 C 341.21 1.788 -0.950622 0
M  V30 3517 C 341.538 1.87384 0.521305 0
M  V30 3518 O 340.793 1.36438 1.40297 0
M  V30 3519 C 341.092 3.23105 -1.52767 0
M  V30 3520 C 340.758 3.34594 -3.02254 0
M  V30 3521 C 339.42 3.37437 -3.43059 0
M  V30 3522 C 341.772 3.36219 -3.98254 0
M  V30 3523 C 339.1 3.39525 -4.78477 0
M  V30 3524 C 341.452 3.39845 -5.33562 0
M  V30 3525 C 340.116 3.40971 -5.73842 0
M  V30 3526 H 339.386 0.654275 -0.347857 0
M  V30 3527 H 342.033 1.24555 -1.45459 0
M  V30 3528 H 340.338 3.80227 -0.94524 0
M  V30 3529 H 342.035 3.7809 -1.336 0
M  V30 3530 H 338.625 3.3309 -2.6972 0
M  V30 3531 H 342.809 3.33231 -3.67792 0
M  V30 3532 H 338.065 3.38703 -5.09009 0
M  V30 3533 H 342.239 3.4005 -6.07733 0
M  V30 3534 H 339.866 3.42342 -6.78753 0
M  V30 3535 N 341.441 0.965919 1.2453 0
M  V30 3536 C 342.689 0.625593 1.92174 0
M  V30 3537 C 343.01 -0.841652 1.75901 0
M  V30 3538 O 342.28 -1.60061 1.12948 0
M  V30 3539 H 340.86 0.228388 0.71123 0
M  V30 3540 H 343.522 1.2266 1.51461 0
M  V30 3541 H 342.618 0.864653 2.99884 0
M  V30 3542 N 342.919 -1.39368 0.735821 0
M  V30 3543 C 344.165 -2.00794 0.284544 0
M  V30 3544 C 344.498 -1.58255 -1.12557 0
M  V30 3545 O 343.773 -0.811819 -1.76748 0
M  V30 3546 C 344.056 -3.58011 0.387337 0
M  V30 3547 C 343.909 -4.10566 1.83728 0
M  V30 3548 C 345.228 -4.395 -0.22975 0
M  V30 3549 H 342.347 -0.729501 0.104866 0
M  V30 3550 H 344.989 -1.65564 0.93213 0
M  V30 3551 H 343.139 -3.88154 -0.164006 0
M  V30 3552 H 344.811 -3.91139 2.44556 0
M  V30 3553 H 343.054 -3.64095 2.35833 0
M  V30 3554 H 343.725 -5.19702 1.86047 0
M  V30 3555 H 346.201 -4.15406 0.240257 0
M  V30 3556 H 345.077 -5.48752 -0.127485 0
M  V30 3557 H 345.338 -4.22062 -1.3159 0
M  V30 3558 N 344.397 -0.483516 -1.5 0
M  V30 3559 C 345.307 0.309172 -2.32554 0
M  V30 3560 C 346.323 0.984159 -1.43493 0
M  V30 3561 O 347.499 0.969399 -1.76535 0
M  V30 3562 C 344.564 1.36979 -3.18493 0
M  V30 3563 C 343.625 0.710095 -4.23387 0
M  V30 3564 C 342.858 1.72018 -5.05218 0
M  V30 3565 O 343.081 2.94813 -4.88305 0
M  V30 3566 O 342.015 1.28515 -5.8802 0
M  V30 3567 H 345.841 -0.366064 -3.01486 0
M  V30 3568 H 343.426 -0.24514 -1.47375 0
M  V30 3569 H 345.308 1.98385 -3.71781 0
M  V30 3570 H 343.983 2.02828 -2.52275 0
M  V30 3571 H 342.89 0.0567539 -3.74057 0
M  V30 3572 H 344.223 0.0943557 -4.9211 0
M  V30 3573 N 345.875 1.56104 -0.216619 0
M  V30 3574 C 346.807 2.17339 0.72776 0
M  V30 3575 C 347.82 1.14109 1.16116 0
M  V30 3576 O 349.009 1.4111 1.09317 0
M  V30 3577 C 346.109 2.73818 1.99693 0
M  V30 3578 C 345.282 4.02168 1.71988 0
M  V30 3579 C 344.341 4.43259 2.83562 0
M  V30 3580 O 343.367 5.10257 2.52244 0
M  V30 3581 N 344.569 4.08535 4.12407 0
M  V30 3582 H 347.334 2.99005 0.203983 0
M  V30 3583 H 344.895 1.61861 -0.0354289 0
M  V30 3584 H 346.887 2.9828 2.73516 0
M  V30 3585 H 345.457 1.96483 2.43132 0
M  V30 3586 H 344.677 3.85612 0.818337 0
M  V30 3587 H 345.965 4.85907 1.50903 0
M  V30 3588 H 345.363 3.54687 4.40696 0
M  V30 3589 H 343.92 4.37901 4.8279 0
M  V30 3590 N 347.353 -0.0568162 1.57498 0
M  V30 3591 C 348.63 -0.786954 1.79071 0
M  V30 3592 C 349.01 -1.95028 0.80792 0
M  V30 3593 O 348.358 -2.27968 -0.155858 0
M  V30 3594 C 348.568 -1.24594 3.26002 0
M  V30 3595 C 349.916 -1.67323 3.90241 0
M  V30 3596 O 350.94 -1.34124 3.29984 0
M  V30 3597 O 349.799 -2.28842 4.9628 0
M  V30 3598 H 346.893 -0.378262 0.735423 0
M  V30 3599 H 349.439 -0.035734 1.69662 0
M  V30 3600 H 348.211 -0.41423 3.89101 0
M  V30 3601 H 347.834 -2.05803 3.40192 0
M  V30 3602 N 348.832 -1.54138 -0.328536 0
M  V30 3603 C 350.078 -1.7236 -1.06865 0
M  V30 3604 C 350.411 -0.493231 -1.87832 0
M  V30 3605 O 349.686 0.5098 -1.877 0
M  V30 3606 C 349.969 -2.99621 -1.99747 0
M  V30 3607 C 349.822 -4.32899 -1.22143 0
M  V30 3608 C 351.141 -3.22615 -2.99345 0
M  V30 3609 H 348.26 -0.627151 -0.387105 0
M  V30 3610 H 350.902 -1.86827 -0.345767 0
M  V30 3611 H 349.052 -2.87418 -2.61387 0
M  V30 3612 H 350.724 -4.56978 -0.630017 0
M  V30 3613 H 348.967 -4.30628 -0.523628 0
M  V30 3614 H 349.638 -5.18154 -1.90318 0
M  V30 3615 H 352.114 -3.34248 -2.47826 0
M  V30 3616 H 350.99 -4.13027 -3.61524 0
M  V30 3617 H 351.251 -2.3961 -3.71536 0
M  V30 3618 N 350.31 0.590341 -1.46126 0
M  V30 3619 C 351.587 1.35029 -1.41515 0
M  V30 3620 C 351.967 2.10888 -0.0946472 0
M  V30 3621 O 351.315 2.08998 0.923693 0
M  V30 3622 C 351.525 2.28269 -2.63997 0
M  V30 3623 C 352.873 2.90338 -3.09821 0
M  V30 3624 O 353.897 2.38585 -2.64492 0
M  V30 3625 O 352.756 3.84321 -3.88535 0
M  V30 3626 H 349.85 0.606317 -0.562413 0
M  V30 3627 H 352.396 0.611994 -1.58281 0
M  V30 3628 H 351.168 1.71591 -3.51671 0
M  V30 3629 H 350.791 3.0945 -2.49652 0
M  V30 3630 N 351.788 1.33704 0.83433 0
M  V30 3631 C 352.721 1.18675 1.94914 0
M  V30 3632 C 353.699 0.0811145 1.62398 0
M  V30 3633 O 354.883 0.244186 1.86912 0
M  V30 3634 C 352.01 0.821231 3.28593 0
M  V30 3635 C 351.056 1.93501 3.80079 0
M  V30 3636 S 351.889 3.54671 4.01209 0
M  V30 3637 C 353.045 3.20136 5.37833 0
M  V30 3638 H 353.278 2.13043 2.07364 0
M  V30 3639 H 350.811 1.18598 0.988624 0
M  V30 3640 H 352.769 0.617123 4.05835 0
M  V30 3641 H 351.43 -0.103927 3.13928 0
M  V30 3642 H 350.623 1.63273 4.76821 0
M  V30 3643 H 350.225 2.09601 3.09747 0
M  V30 3644 H 352.517 2.71242 6.20833 0
M  V30 3645 H 353.46 4.15975 5.73036 0
M  V30 3646 H 353.868 2.56613 5.02802 0
M  V30 3647 N 353.266 -1.05314 1.17247 0
M  V30 3648 C 354.512 -1.78557 0.961513 0
M  V30 3649 C 354.845 -1.87419 -0.508697 0
M  V30 3650 O 354.12 -1.37307 -1.37757 0
M  V30 3651 C 354.403 -3.22514 1.60176 0
M  V30 3652 C 354.256 -3.21673 3.14399 0
M  V30 3653 C 355.575 -4.20318 1.30463 0
M  V30 3654 H 352.694 -0.6482 0.350723 0
M  V30 3655 H 355.336 -1.23102 1.44727 0
M  V30 3656 H 353.486 -3.69867 1.18871 0
M  V30 3657 H 355.158 -2.82405 3.64753 0
M  V30 3658 H 353.401 -2.60048 3.47214 0
M  V30 3659 H 354.072 -4.23271 3.54324 0
M  V30 3660 H 356.548 -3.81454 1.66229 0
M  V30 3661 H 355.424 -5.19289 1.77848 0
M  V30 3662 H 355.685 -4.41526 0.22521 0
M  V30 3663 N 354.744 -0.972509 -1.24016 0
M  V30 3664 C 355.991 -0.637034 -1.92219 0
M  V30 3665 C 356.319 0.828418 -1.75976 0
M  V30 3666 O 355.574 1.61206 -1.10955 0
M  V30 3667 C 355.873 -0.963694 -3.44162 0
M  V30 3668 C 355.539 -2.41807 -3.80579 0
M  V30 3669 C 354.201 -2.81556 -3.9023 0
M  V30 3670 C 356.553 -3.36172 -3.98293 0
M  V30 3671 C 353.881 -4.14702 -4.15017 0
M  V30 3672 C 356.233 -4.68952 -4.24578 0
M  V30 3673 C 354.897 -5.08472 -4.32449 0
M  V30 3674 H 354.167 -0.233107 -0.703379 0
M  V30 3675 H 356.814 -1.2249 -1.47202 0
M  V30 3676 H 355.119 -0.29365 -3.90698 0
M  V30 3677 H 356.816 -0.682449 -3.9515 0
M  V30 3678 H 353.406 -2.09988 -3.73635 0
M  V30 3679 H 357.59 -3.06644 -3.90234 0
M  V30 3680 H 352.846 -4.4494 -4.19331 0
M  V30 3681 H 357.02 -5.42037 -4.37229 0
M  V30 3682 H 354.647 -6.11665 -4.51409 0
M  V30 3683 N 356.222 1.38976 -0.743202 0
M  V30 3684 C 357.185 2.28901 -0.117014 0
M  V30 3685 C 358.185 1.46698 0.658503 0
M  V30 3686 O 359.375 1.67274 0.486305 0
M  V30 3687 C 356.507 3.30309 0.84315 0
M  V30 3688 H 357.7 2.8578 -0.909373 0
M  V30 3689 H 355.253 1.47761 -0.509547 0
M  V30 3690 H 355.988 2.785 1.66157 0
M  V30 3691 H 355.773 3.91029 0.289594 0
M  V30 3692 H 357.263 3.97577 1.2776 0
M  V30 3693 N 357.7 0.491464 1.49741 0
M  V30 3694 C 358.925 -0.0557177 2.07325 0
M  V30 3695 C 359.35 -1.30925 1.35056 0
M  V30 3696 O 358.708 -1.76733 0.404365 0
M  V30 3697 C 358.756 -0.302074 3.59333 0
M  V30 3698 O 357.86 -1.37868 3.88672 0
M  V30 3699 H 357.201 0.0219956 0.663636 0
M  V30 3700 H 359.731 0.688352 1.92673 0
M  V30 3701 H 359.741 -0.536464 4.04458 0
M  V30 3702 H 358.416 0.61383 4.11345 0
M  V30 3703 H 356.993 -1.12999 3.55367 0
M  V30 3704 N 359.178 -1.55987 0.224894 0
M  V30 3705 C 360.425 -1.9839 -0.4059 0
M  V30 3706 C 360.753 -1.11261 -1.59535 0
M  V30 3707 O 360.008 -0.158314 -1.95059 0
M  V30 3708 C 360.307 -3.46394 -0.880106 0
M  V30 3709 C 359.973 -4.5046 0.19918 0
M  V30 3710 C 358.635 -4.7864 0.495661 0
M  V30 3711 C 360.987 -5.12855 0.928939 0
M  V30 3712 C 358.315 -5.66497 1.52636 0
M  V30 3713 C 360.667 -6.01828 1.949 0
M  V30 3714 C 359.331 -6.28351 2.25236 0
M  V30 3715 H 358.601 -0.725961 -0.148529 0
M  V30 3716 H 361.248 -1.88668 0.328113 0
M  V30 3717 H 359.553 -3.53337 -1.69294 0
M  V30 3718 H 361.25 -3.76577 -1.37808 0
M  V30 3719 H 357.84 -4.28579 -0.0420526 0
M  V30 3720 H 362.024 -4.9115 0.713129 0
M  V30 3721 H 357.28 -5.8531 1.76698 0
M  V30 3722 H 361.454 -6.49225 2.51951 0
M  V30 3723 H 359.081 -6.96226 3.05244 0
M  V30 3724 N 360.656 0.0484629 -1.57525 0
M  V30 3725 C 361.905 0.742065 -1.87553 0
M  V30 3726 C 362.218 1.77545 -0.820802 0
M  V30 3727 O 363.424 2.52027 -1.00967 0
M  V30 3728 C 361.88 1.37081 -3.32771 0
M  V30 3729 C 361.488 0.374786 -4.4643 0
M  V30 3730 C 363.232 2.04542 -3.71972 0
M  V30 3731 C 361.139 1.01077 -5.82698 0
M  V30 3732 H 360.069 0.280903 -0.699721 0
M  V30 3733 H 362.72 -0.00411877 -1.835 0
M  V30 3734 H 361.102 2.16605 -3.31509 0
M  V30 3735 H 362.276 -0.392331 -4.59127 0
M  V30 3736 H 360.591 -0.196653 -4.15935 0
M  V30 3737 H 363.188 2.52943 -4.71088 0
M  V30 3738 H 363.531 2.85515 -3.02964 0
M  V30 3739 H 364.064 1.31819 -3.75325 0
M  V30 3740 H 360.803 0.240878 -6.55057 0
M  V30 3741 H 360.323 1.74819 -5.73758 0
M  V30 3742 H 362.002 1.52383 -6.28799 0
M  V30 3743 N 362.134 1.5431 0.320358 0
M  V30 3744 C 363.55 1.45091 0.664889 0
M  V30 3745 C 363.75 0.626382 1.91517 0
M  V30 3746 O 362.806 0.126443 2.52183 0
M  V30 3747 C 364.119 2.88848 0.83591 0
M  V30 3748 C 365.667 2.9877 0.933046 0
M  V30 3749 C 366.142 4.43683 1.13621 0
M  V30 3750 N 367.633 4.47309 1.20287 0
M  V30 3751 C 368.368 5.56595 1.37801 0
M  V30 3752 N 367.864 6.75844 1.52338 0
M  V30 3753 N 369.657 5.44248 1.40535 0
M  V30 3754 H 361.808 2.06398 -0.501374 0
M  V30 3755 H 364.071 0.933963 -0.162534 0
M  V30 3756 H 363.777 3.51698 -0.0116092 0
M  V30 3757 H 363.651 3.35148 1.73078 0
M  V30 3758 H 366.038 2.36045 1.77107 0
M  V30 3759 H 366.119 2.55796 0.0145782 0
M  V30 3760 H 365.763 5.06995 0.303032 0
M  V30 3761 H 365.693 4.84269 2.0686 0
M  V30 3762 H 368.184 3.61388 1.10485 0
M  V30 3763 H 368.497 7.54892 1.65403 0
M  V30 3764 H 366.842 6.78746 1.4943 0
M  V30 3765 H 370.033 4.50038 1.28777 0
M  V30 3766 H 370.206 6.29473 1.53842 0
M  V30 3767 N 363.613 -0.582584 1.46437 0
M  V30 3768 C 364.56 -1.69164 1.5701 0
M  V30 3769 C 365.53 -1.60847 0.414403 0
M  V30 3770 O 366.715 -1.80058 0.631171 0
M  V30 3771 C 363.855 -3.075 1.56646 0
M  V30 3772 C 362.968 -3.2644 2.82951 0
M  V30 3773 C 362.103 -4.55026 2.7409 0
M  V30 3774 C 361.142 -4.6731 3.95333 0
M  V30 3775 N 360.279 -5.87221 3.84858 0
M  V30 3776 H 365.119 -1.59464 2.51744 0
M  V30 3777 H 362.656 -0.777186 1.24893 0
M  V30 3778 H 364.614 -3.8757 1.5442 0
M  V30 3779 H 363.244 -3.16096 0.654439 0
M  V30 3780 H 362.296 -2.39974 2.95155 0
M  V30 3781 H 363.608 -3.31385 3.72808 0
M  V30 3782 H 362.762 -5.43324 2.6997 0
M  V30 3783 H 361.501 -4.52519 1.81873 0
M  V30 3784 H 360.506 -3.77429 3.99784 0
M  V30 3785 H 361.731 -4.71595 4.88646 0
M  V30 3786 H 359.677 -5.85712 2.95427 0
M  V30 3787 H 359.594 -5.93435 4.6837 0
M  V30 3788 H 360.862 -6.7795 3.84713 0
M  V30 3789 N 365.091 -1.34144 -0.827227 0
M  V30 3790 C 366.054 -1.25264 -1.91942 0
M  V30 3791 C 367.054 -0.168866 -1.59911 0
M  V30 3792 O 368.244 -0.421198 -1.69031 0
M  V30 3793 C 365.376 -0.932952 -3.27885 0
M  V30 3794 H 366.569 -2.22357 -2.0124 0
M  V30 3795 H 364.122 -1.1837 -1.0207 0
M  V30 3796 H 364.857 0.0349917 -3.24281 0
M  V30 3797 H 364.642 -1.71682 -3.52516 0
M  V30 3798 H 366.132 -0.895874 -4.07877 0
M  V30 3799 N 366.569 1.04691 -1.17803 0
M  V30 3800 C 367.794 1.81984 -0.994813 0
M  V30 3801 C 368.219 1.82586 0.452112 0
M  V30 3802 O 367.577 1.23854 1.324 0
M  V30 3803 C 367.625 3.2575 -1.54659 0
M  V30 3804 O 366.729 4.05267 -0.763728 0
M  V30 3805 H 366.07 0.562483 -0.352857 0
M  V30 3806 H 368.6 1.3189 -1.56417 0
M  V30 3807 H 368.61 3.76541 -1.57102 0
M  V30 3808 H 367.285 3.24627 -2.59981 0
M  V30 3809 H 365.862 3.63972 -0.811108 0
M  V30 3810 N 368.047 0.979072 1.23499 0
M  V30 3811 C 369.324 0.563674 1.87302 0
M  V30 3812 C 369.704 -0.959199 1.88049 0
M  V30 3813 O 369.052 -1.83535 1.36114 0
M  V30 3814 C 369.262 1.16822 3.28867 0
M  V30 3815 C 370.61 1.26014 4.0547 0
M  V30 3816 O 371.634 1.12158 3.38082 0
M  V30 3817 O 370.493 1.48044 5.26066 0
M  V30 3818 H 367.587 0.189602 0.804972 0
M  V30 3819 H 370.133 1.07407 1.31384 0
M  V30 3820 H 368.905 2.21049 3.22883 0
M  V30 3821 H 368.528 0.642564 3.92373 0
M  V30 3822 N 369.525 -1.3858 0.750561 0
M  V30 3823 C 370.771 -2.00481 0.305825 0
M  V30 3824 C 371.104 -1.5944 -1.10872 0
M  V30 3825 O 370.379 -0.83052 -1.75877 0
M  V30 3826 C 370.662 -3.5758 0.425287 0
M  V30 3827 C 370.515 -4.08594 1.88072 0
M  V30 3828 C 371.834 -4.39719 -0.183122 0
M  V30 3829 H 368.953 -0.728348 0.112598 0
M  V30 3830 H 371.595 -1.64566 0.949638 0
M  V30 3831 H 369.745 -3.88306 -0.122828 0
M  V30 3832 H 371.417 -3.88523 2.48691 0
M  V30 3833 H 369.66 -3.61574 2.39681 0
M  V30 3834 H 370.331 -5.177 1.91548 0
M  V30 3835 H 372.807 -4.15128 0.284303 0
M  V30 3836 H 371.683 -5.48856 -0.0692757 0
M  V30 3837 H 371.944 -4.23434 -1.27106 0
M  V30 3838 N 371.003 -0.499398 -1.49478 0
M  V30 3839 C 371.953 0.299103 -2.2603 0
M  V30 3840 C 372.937 0.936934 -1.30807 0
M  V30 3841 O 374.129 0.844798 -1.55538 0
M  V30 3842 C 371.258 1.36391 -3.15044 0
M  V30 3843 C 370.344 0.732398 -4.17728 0
M  V30 3844 N 370.735 -0.164028 -5.05534 0
M  V30 3845 C 369.033 0.993162 -4.34801 0
M  V30 3846 C 369.734 -0.525345 -5.79323 0
M  V30 3847 N 368.71 0.106348 -5.43496 0
M  V30 3848 H 372.512 -0.391003 -2.91287 0
M  V30 3849 H 370.026 -0.31537 -1.59308 0
M  V30 3850 H 372.023 1.94939 -3.68516 0
M  V30 3851 H 370.683 2.05571 -2.51338 0
M  V30 3852 H 371.694 -0.534736 -5.15132 0
M  V30 3853 H 368.371 1.67783 -3.82302 0
M  V30 3854 H 369.761 -1.25862 -6.60006 0
M  V30 3855 N 372.481 1.55866 -0.233164 0
M  V30 3856 C 373.391 2.24431 0.683217 0
M  V30 3857 C 374.407 1.2558 1.2044 0
M  V30 3858 O 375.583 1.58422 1.24356 0
M  V30 3859 C 372.648 2.91979 1.86947 0
M  V30 3860 C 371.709 4.06204 1.38912 0
M  V30 3861 C 370.942 4.70522 2.51883 0
M  V30 3862 O 371.165 4.33865 3.70293 0
M  V30 3863 O 370.099 5.59296 2.22423 0
M  V30 3864 H 373.925 3.03426 0.129059 0
M  V30 3865 H 371.51 1.494 -0.0022283 0
M  V30 3866 H 373.392 3.34573 2.56201 0
M  V30 3867 H 372.067 2.15935 2.41151 0
M  V30 3868 H 370.974 3.68155 0.664259 0
M  V30 3869 H 372.307 4.84025 0.893328 0
M  V30 3870 N 373.959 -0.0401083 1.57549 0
M  V30 3871 C 375.205 -0.734211 1.89043 0
M  V30 3872 C 375.538 -1.75591 0.829535 0
M  V30 3873 O 374.813 -1.93868 -0.156706 0
M  V30 3874 C 375.096 -1.41374 3.31188 0
M  V30 3875 C 374.949 -0.406299 4.47961 0
M  V30 3876 C 376.268 -2.35061 3.72068 0
M  V30 3877 H 373.387 -0.265447 0.687537 0
M  V30 3878 H 376.029 0.00294087 1.9 0
M  V30 3879 H 374.179 -2.04206 3.30503 0
M  V30 3880 H 375.851 0.219255 4.60779 0
M  V30 3881 H 374.094 0.275485 4.32924 0
M  V30 3882 H 374.765 -0.920022 5.44279 0
M  V30 3883 H 377.241 -1.82282 3.74049 0
M  V30 3884 H 376.117 -2.79593 4.72355 0
M  V30 3885 H 376.378 -3.21258 3.0372 0
M  V30 3886 N 375.437 -1.54477 -0.31217 0
M  V30 3887 C 376.853 -1.45442 -0.657185 0
M  V30 3888 C 377.053 -0.63653 -1.91182 0
M  V30 3889 O 376.109 -0.139815 -2.52113 0
M  V30 3890 C 377.422 -2.89287 -0.82058 0
M  V30 3891 C 378.97 -2.9926 -0.917188 0
M  V30 3892 C 379.445 -4.44279 -1.11267 0
M  V30 3893 N 380.936 -4.4794 -1.17914 0
M  V30 3894 C 381.671 -5.57318 -1.34848 0
M  V30 3895 N 381.167 -6.76642 -1.48752 0
M  V30 3896 N 382.96 -5.44986 -1.37647 0
M  V30 3897 H 375.111 -2.06129 0.512313 0
M  V30 3898 H 377.374 -0.933088 0.167485 0
M  V30 3899 H 377.08 -3.51687 0.0302604 0
M  V30 3900 H 376.954 -3.36061 -1.71298 0
M  V30 3901 H 379.341 -2.36981 -1.75852 0
M  V30 3902 H 379.422 -2.558 -0.00101257 0
M  V30 3903 H 379.066 -5.07149 -0.27614 0
M  V30 3904 H 378.996 -4.85359 -2.04289 0
M  V30 3905 H 381.487 -3.61969 -1.08567 0
M  V30 3906 H 381.8 -7.55758 -1.61397 0
M  V30 3907 H 380.145 -6.79529 -1.45828 0
M  V30 3908 H 383.336 -4.50715 -1.26388 0
M  V30 3909 H 383.509 -6.3028 -1.50501 0
M  V30 3910 N 376.915 0.57481 -1.46744 0
M  V30 3911 C 377.862 1.68329 -1.57905 0
M  V30 3912 C 378.832 1.60625 -0.422927 0
M  V30 3913 O 380.017 1.79721 -0.640711 0
M  V30 3914 C 377.157 3.06665 -1.58274 0
M  V30 3915 C 376.27 3.24935 -2.84678 0
M  V30 3916 C 375.405 4.53566 -2.76499 0
M  V30 3917 C 374.444 4.65207 -3.97806 0
M  V30 3918 N 373.581 5.85172 -3.87967 0
M  V30 3919 H 378.421 1.58127 -2.52587 0
M  V30 3920 H 375.958 0.770552 -1.25303 0
M  V30 3921 H 377.916 3.86745 -1.56473 0
M  V30 3922 H 376.546 3.15745 -0.671194 0
M  V30 3923 H 375.598 2.38405 -2.96424 0
M  V30 3924 H 376.91 3.29403 -3.7456 0
M  V30 3925 H 376.064 5.41885 -2.72848 0
M  V30 3926 H 374.803 4.51548 -1.8427 0
M  V30 3927 H 373.808 3.75304 -4.0178 0
M  V30 3928 H 375.033 4.68997 -4.9114 0
M  V30 3929 H 372.979 5.84137 -2.98529 0
M  V30 3930 H 372.896 5.90943 -4.71511 0
M  V30 3931 H 374.164 6.759 -3.88303 0
M  V30 3932 N 378.394 1.34581 0.820102 0
M  V30 3933 C 379.64 1.27285 1.57881 0
M  V30 3934 C 379.973 -0.156137 1.93571 0
M  V30 3935 O 379.248 -1.10222 1.60254 0
M  V30 3936 C 379.531 2.16639 2.87645 0
M  V30 3937 C 379.384 3.68088 2.58517 0
M  V30 3938 C 380.703 2.05378 3.8924 0
M  V30 3939 H 377.822 0.463714 0.572833 0
M  V30 3940 H 380.464 1.64859 0.944539 0
M  V30 3941 H 378.614 1.84725 3.41773 0
M  V30 3942 H 380.286 4.10382 2.10676 0
M  V30 3943 H 378.529 3.89038 1.91917 0
M  V30 3944 H 379.2 4.2598 3.51063 0
M  V30 3945 H 381.676 2.33404 3.44473 0
M  V30 3946 H 380.552 2.7012 4.77835 0
M  V30 3947 H 380.813 1.0316 4.29896 0
M  V30 3948 N 379.872 -1.04064 1.18357 0
M  V30 3949 C 380.802 -2.14001 0.934113 0
M  V30 3950 C 381.783 -1.69616 -0.128186 0
M  V30 3951 O 382.968 -1.94185 0.0244093 0
M  V30 3952 C 380.098 -3.44253 0.459066 0
M  V30 3953 C 379.052 -4.02261 1.46185 0
M  V30 3954 C 378.378 -5.27992 0.844322 0
M  V30 3955 C 379.678 -4.38432 2.83856 0
M  V30 3956 H 381.372 -2.35127 1.85352 0
M  V30 3957 H 378.918 -1.12998 0.892604 0
M  V30 3958 H 380.871 -4.20522 0.271907 0
M  V30 3959 H 379.595 -3.22813 -0.495912 0
M  V30 3960 H 378.254 -3.28074 1.63595 0
M  V30 3961 H 377.902 -5.02862 -0.117845 0
M  V30 3962 H 377.602 -5.67765 1.51384 0
M  V30 3963 H 379.126 -6.06938 0.667693 0
M  V30 3964 H 380.54 -5.05688 2.70098 0
M  V30 3965 H 378.937 -4.89254 3.47491 0
M  V30 3966 H 380.007 -3.4826 3.37406 0
M  V30 3967 N 381.35 -0.985608 -1.22978 0
M  V30 3968 C 382.598 -0.656087 -1.91154 0
M  V30 3969 C 382.919 0.813561 -1.77218 0
M  V30 3970 O 382.189 1.58244 -1.1548 0
M  V30 3971 H 380.769 -0.239674 -0.707506 0
M  V30 3972 H 383.431 -1.25054 -1.49491 0
M  V30 3973 H 382.527 -0.912253 -2.9847 0
M  V30 3974 N 382.828 1.3818 -0.7579 0
M  V30 3975 C 383.738 2.3421 -0.135247 0
M  V30 3976 C 384.754 1.59487 0.695683 0
M  V30 3977 O 385.93 1.91657 0.618832 0
M  V30 3978 C 382.995 3.3862 0.744139 0
M  V30 3979 C 382.056 4.2918 -0.101658 0
M  V30 3980 C 381.289 5.28603 0.735851 0
M  V30 3981 O 381.512 5.35166 1.97366 0
M  V30 3982 O 380.446 6.01707 0.152372 0
M  V30 3983 H 384.272 2.8916 -0.928436 0
M  V30 3984 H 381.857 1.40101 -0.518855 0
M  V30 3985 H 383.739 4.02539 1.2466 0
M  V30 3986 H 382.414 2.86019 1.51575 0
M  V30 3987 H 381.321 3.68407 -0.650167 0
M  V30 3988 H 382.654 4.85048 -0.836024 0
M  V30 3989 N 384.306 0.507319 1.49211 0
M  V30 3990 C 385.253 -0.267728 2.29242 0
M  V30 3991 C 386.223 -0.954609 1.35928 0
M  V30 3992 O 387.408 -0.960046 1.64887 0
M  V30 3993 C 384.548 -1.32243 3.18756 0
M  V30 3994 C 383.661 -0.64669 4.27132 0
M  V30 3995 C 382.796 -1.68238 5.03855 0
M  V30 3996 C 381.835 -0.98885 6.0406 0
M  V30 3997 N 380.972 -1.96903 6.73924 0
M  V30 3998 H 385.812 0.420968 2.95012 0
M  V30 3999 H 383.349 0.219443 1.45454 0
M  V30 4000 H 385.307 -1.94599 3.69036 0
M  V30 4001 H 383.937 -1.97981 2.54958 0
M  V30 4002 H 382.989 0.0902926 3.80293 0
M  V30 4003 H 384.301 -0.101058 4.98698 0
M  V30 4004 H 383.455 -2.38081 5.58034 0
M  V30 4005 H 382.194 -2.26187 4.32077 0
M  V30 4006 H 381.199 -0.276222 5.49106 0
M  V30 4007 H 382.424 -0.415767 6.77826 0
M  V30 4008 H 380.37 -2.53803 6.04913 0
M  V30 4009 H 380.287 -1.47423 7.41487 0
M  V30 4010 H 381.555 -2.66015 7.32705 0
M  V30 4011 N 385.784 -1.5574 0.241426 0
M  V30 4012 C 387.032 -1.98417 -0.384075 0
M  V30 4013 C 387.353 -1.13078 -1.58866 0
M  V30 4014 O 386.623 -0.212312 -1.94746 0
M  V30 4015 H 385.203 -0.732813 -0.144894 0
M  V30 4016 H 387.865 -1.9193 0.338943 0
M  V30 4017 H 386.961 -3.04219 -0.696939 0
M  V30 4018 N 387.262 0.0317525 -1.57568 0
M  V30 4019 C 388.209 1.0332 -2.06382 0
M  V30 4020 C 389.179 1.36082 -0.952414 0
M  V30 4021 O 390.364 1.46466 -1.2228 0
M  V30 4022 C 387.504 2.32989 -2.54578 0
M  V30 4023 C 386.617 2.0641 -3.79498 0
M  V30 4024 C 385.752 3.2993 -4.16317 0
M  V30 4025 C 384.791 2.98893 -5.34162 0
M  V30 4026 N 383.928 4.14857 -5.66426 0
M  V30 4027 H 388.768 0.609982 -2.9169 0
M  V30 4028 H 386.305 0.289573 -1.44222 0
M  V30 4029 H 388.263 3.0875 -2.80587 0
M  V30 4030 H 386.893 2.73039 -1.7219 0
M  V30 4031 H 385.945 1.21158 -3.6059 0
M  V30 4032 H 387.257 1.79513 -4.65378 0
M  V30 4033 H 386.411 4.1406 -4.4344 0
M  V30 4034 H 385.15 3.59938 -3.29083 0
M  V30 4035 H 384.155 2.13164 -5.06795 0
M  V30 4036 H 385.38 2.70165 -6.23047 0
M  V30 4037 H 383.326 4.44821 -4.82151 0
M  V30 4038 H 383.243 3.91374 -6.4681 0
M  V30 4039 H 384.511 4.99868 -5.98124 0
M  V30 4040 N 388.74 1.54641 0.303973 0
M  V30 4041 C 389.688 1.86137 1.39484 0
M  V30 4042 C 390.682 0.734854 1.52631 0
M  V30 4043 O 391.888 0.918803 1.54784 0
M  V30 4044 H 388.263 0.590324 0.465856 0
M  V30 4045 H 390.234 2.77324 1.10154 0
M  V30 4046 C 388.983 2.12274 2.75382 0
M  V30 4047 H 388.306 2.98429 2.66046 0
M  V30 4048 H 389.746 2.38254 3.5073 0
M  V30 4049 C 388.205 0.920365 3.24085 0
M  V30 4050 O 388.735 0.139377 4.01458 0
M  V30 4051 N 386.941 0.726566 2.81371 0
M  V30 4052 H 386.488 1.36332 2.18567 0
M  V30 4053 H 386.446 -0.0763799 3.14307 0
M  V30 4054 N 390.218 -0.567019 1.47046 0
M  V30 4055 C 391.467 -1.32091 1.5243 0
M  V30 4056 C 391.78 -1.94704 0.187021 0
M  V30 4057 O 392.986 -2.7124 0.118771 0
M  V30 4058 C 391.442 -2.39479 2.68659 0
M  V30 4059 C 391.05 -1.831 4.08874 0
M  V30 4060 C 392.794 -3.16111 2.83327 0
M  V30 4061 C 390.701 -2.8821 5.16419 0
M  V30 4062 H 389.631 -0.496629 0.56734 0
M  V30 4063 H 392.282 -0.603354 1.73297 0
M  V30 4064 H 390.664 -3.14105 2.41152 0
M  V30 4065 H 391.838 -1.14913 4.46242 0
M  V30 4066 H 390.153 -1.19085 3.99008 0
M  V30 4067 H 392.75 -3.94585 3.60842 0
M  V30 4068 H 393.093 -3.69686 1.91411 0
M  V30 4069 H 393.626 -2.48595 3.10556 0
M  V30 4070 H 390.365 -2.39504 6.10179 0
M  V30 4071 H 389.885 -3.54839 4.8358 0
M  V30 4072 H 391.564 -3.51881 5.42945 0
M  V30 4073 N 391.696 -1.35014 -0.812953 0
M  V30 4074 C 392.643 -1.27412 -1.92444 0
M  V30 4075 C 393.613 -0.14733 -1.65445 0
M  V30 4076 O 394.798 -0.329974 -1.87925 0
M  V30 4077 C 391.938 -1.04558 -3.28879 0
M  V30 4078 C 391.051 -2.26101 -3.68106 0
M  V30 4079 C 390.186 -1.96449 -4.9354 0
M  V30 4080 C 389.225 -3.14081 -5.25376 0
M  V30 4081 N 388.362 -2.84246 -6.41988 0
M  V30 4082 H 393.202 -2.22463 -1.98278 0
M  V30 4083 H 390.739 -1.10593 -0.969933 0
M  V30 4084 H 392.697 -0.893413 -4.07522 0
M  V30 4085 H 391.327 -0.131719 -3.22531 0
M  V30 4086 H 390.379 -2.52204 -2.84775 0
M  V30 4087 H 391.691 -3.13959 -3.87597 0
M  V30 4088 H 390.845 -1.78026 -5.79993 0
M  V30 4089 H 389.584 -1.05867 -4.76071 0
M  V30 4090 H 388.589 -3.33089 -4.37415 0
M  V30 4091 H 389.814 -4.05455 -5.44778 0
M  V30 4092 H 387.76 -1.96252 -6.25956 0
M  V30 4093 H 387.677 -3.65637 -6.61699 0
M  V30 4094 H 388.945 -2.6935 -7.31485 0
M  V30 4095 N 393.175 1.03435 -1.18907 0
M  V30 4096 C 394.424 1.76143 -0.982669 0
M  V30 4097 C 394.737 1.89416 0.487953 0
M  V30 4098 O 395.943 2.59041 0.813036 0
M  V30 4099 C 394.399 3.16722 -1.70924 0
M  V30 4100 C 394.007 3.11522 -3.21959 0
M  V30 4101 C 395.751 3.93764 -1.58588 0
M  V30 4102 C 393.658 4.46999 -3.87228 0
M  V30 4103 H 392.588 0.660292 -0.364047 0
M  V30 4104 H 395.239 1.158 -1.42347 0
M  V30 4105 H 393.621 3.775 -1.19623 0
M  V30 4106 H 394.795 2.60158 -3.80335 0
M  V30 4107 H 393.11 2.47978 -3.34508 0
M  V30 4108 H 395.707 4.93963 -2.04707 0
M  V30 4109 H 396.05 4.12794 -0.539142 0
M  V30 4110 H 396.583 3.39576 -2.07203 0
M  V30 4111 H 393.322 4.33174 -4.91976 0
M  V30 4112 H 392.842 4.98441 -3.33642 0
M  V30 4113 H 394.521 5.15898 -3.90459 0
M  V30 4114 N 394.653 0.992116 1.22453 0
M  V30 4115 C 395.902 0.662992 1.90492 0
M  V30 4116 C 396.215 -0.808407 1.78113 0
M  V30 4117 O 397.421 -1.24908 2.41061 0
M  V30 4118 C 395.877 1.1353 3.41524 0
M  V30 4119 C 395.485 2.63187 3.62542 0
M  V30 4120 C 397.229 0.880465 4.15269 0
M  V30 4121 C 395.136 3.04024 5.0727 0
M  V30 4122 H 394.066 0.244278 0.713333 0
M  V30 4123 H 396.717 1.20157 1.38688 0
M  V30 4124 H 395.099 0.52485 3.92506 0
M  V30 4125 H 396.273 3.2957 3.22056 0
M  V30 4126 H 394.588 2.86543 3.02129 0
M  V30 4127 H 397.185 1.16128 5.21937 0
M  V30 4128 H 397.528 -0.183408 4.15896 0
M  V30 4129 H 398.061 1.45307 3.70312 0
M  V30 4130 H 394.8 4.09584 5.11782 0
M  V30 4131 H 394.32 2.42343 5.48662 0
M  V30 4132 H 395.999 2.95282 5.75689 0
M  V30 4133 N 396.131 -1.37776 0.765217 0
M  V30 4134 C 397.356 -2.04651 0.336537 0
M  V30 4135 C 397.781 -1.57337 -1.03086 0
M  V30 4136 O 397.139 -0.730621 -1.65927 0
M  V30 4137 C 397.187 -3.58577 0.381468 0
M  V30 4138 O 396.291 -4.07706 -0.62042 0
M  V30 4139 H 395.632 -0.64756 0.146838 0
M  V30 4140 H 398.162 -1.76221 1.03959 0
M  V30 4141 H 398.172 -4.07314 0.236448 0
M  V30 4142 H 396.847 -3.9237 1.37907 0
M  V30 4143 H 395.424 -3.70306 -0.439056 0
M  V30 4144 N 397.609 -0.515225 -1.4894 0
M  V30 4145 C 398.556 0.255567 -2.29381 0
M  V30 4146 C 399.526 0.947387 -1.36432 0
M  V30 4147 O 400.711 0.951288 -1.65394 0
M  V30 4148 C 397.851 1.30551 -3.19453 0
M  V30 4149 C 396.964 0.624029 -4.27469 0
M  V30 4150 C 396.099 1.65563 -5.0474 0
M  V30 4151 C 395.138 0.956802 -6.04576 0
M  V30 4152 N 394.275 1.93326 -6.74959 0
M  V30 4153 H 399.115 -0.436607 -2.94784 0
M  V30 4154 H 396.652 -0.227154 -1.45336 0
M  V30 4155 H 398.61 1.92639 -3.70062 0
M  V30 4156 H 397.24 1.96626 -2.56004 0
M  V30 4157 H 396.292 -0.110459 -3.8024 0
M  V30 4158 H 397.604 0.0746092 -4.98744 0
M  V30 4159 H 396.758 2.35119 -5.59289 0
M  V30 4160 H 395.497 2.23893 -4.3327 0
M  V30 4161 H 394.502 0.247097 -5.49244 0
M  V30 4162 H 395.727 0.379814 -6.78037 0
M  V30 4163 H 393.673 2.50591 -6.06251 0
M  V30 4164 H 393.59 1.43489 -7.42258 0
M  V30 4165 H 394.858 2.62126 -7.34105 0
M  V30 4166 N 399.087 1.5561 -0.249682 0
M  V30 4167 C 400.336 1.98187 0.37479 0
M  V30 4168 C 400.649 1.14111 1.58865 0
M  V30 4169 O 401.855 1.46714 2.28445 0
M  V30 4170 C 400.311 3.52661 0.718192 0
M  V30 4171 C 399.919 4.45481 -0.474428 0
M  V30 4172 C 401.663 4.03888 1.3067 0
M  V30 4173 C 399.57 5.91303 -0.107026 0
M  V30 4174 H 398.5 0.740159 0.143808 0
M  V30 4175 H 401.151 1.80125 -0.350336 0
M  V30 4176 H 399.533 3.66429 1.50152 0
M  V30 4177 H 400.707 4.43473 -1.25172 0
M  V30 4178 H 399.022 4.04751 -0.978052 0
M  V30 4179 H 401.619 5.10358 1.59496 0
M  V30 4180 H 401.962 3.51401 2.23211 0
M  V30 4181 H 402.495 3.93457 0.586211 0
M  V30 4182 H 399.234 6.47833 -0.999642 0
M  V30 4183 H 398.754 5.9644 0.634013 0
M  V30 4184 H 400.433 6.46258 0.309807 0
M  V30 4185 N 400.565 -0.0233959 1.57583 0
M  V30 4186 C 401.475 -1.03907 2.10334 0
M  V30 4187 C 402.491 -1.39257 1.04323 0
M  V30 4188 O 403.667 -1.48462 1.36091 0
M  V30 4189 C 400.732 -2.31938 2.57693 0
M  V30 4190 C 399.793 -2.03117 3.78209 0
M  V30 4191 C 399.026 -3.25043 4.233 0
M  V30 4192 O 399.249 -4.35916 3.67876 0
M  V30 4193 O 398.183 -3.10411 5.15683 0
M  V30 4194 H 402.009 -0.620748 2.97288 0
M  V30 4195 H 399.594 -0.240743 1.47448 0
M  V30 4196 H 401.476 -3.07196 2.88458 0
M  V30 4197 H 400.151 -2.73055 1.73847 0
M  V30 4198 H 399.058 -1.25408 3.52454 0
M  V30 4199 H 400.391 -1.66852 4.63056 0
M  V30 4200 N 402.043 -1.548 -0.295768 0
M  V30 4201 C 402.991 -1.86874 -1.38495 0
M  V30 4202 C 403.985 -0.742938 -1.52239 0
M  V30 4203 O 405.191 -0.926999 -1.54294 0
M  V30 4204 H 401.566 -0.592786 -0.462719 0
M  V30 4205 H 403.537 -2.77904 -1.08682 0
M  V30 4206 C 402.286 -2.13732 -2.74252 0
M  V30 4207 H 401.609 -2.99835 -2.64459 0
M  V30 4208 H 403.049 -2.4011 -3.49461 0
M  V30 4209 C 401.508 -0.937539 -3.23592 0
M  V30 4210 O 402.038 -0.160665 -4.01379 0
M  V30 4211 N 400.244 -0.741478 -2.80981 0
M  V30 4212 H 399.791 -1.37489 -2.1784 0
M  V30 4213 H 399.749 0.0597103 -3.14343 0
M  V30 4214 N 403.521 0.559213 -1.47345 0
M  V30 4215 C 404.471 1.66192 -1.5609 0
M  V30 4216 C 405.455 1.55323 -0.419957 0
M  V30 4217 O 406.647 1.63839 -0.669762 0
M  V30 4218 C 403.776 3.0497 -1.57634 0
M  V30 4219 C 402.862 3.2105 -2.77106 0
M  V30 4220 N 403.253 3.07203 -4.01821 0
M  V30 4221 C 401.551 3.52046 -2.73825 0
M  V30 4222 C 402.252 3.25919 -4.81821 0
M  V30 4223 N 401.228 3.52161 -4.14106 0
M  V30 4224 H 405.03 1.54052 -2.5029 0
M  V30 4225 H 402.544 0.763914 -1.43311 0
M  V30 4226 H 404.541 3.84142 -1.61989 0
M  V30 4227 H 403.201 3.18224 -0.645281 0
M  V30 4228 H 404.212 2.84572 -4.32711 0
M  V30 4229 H 400.889 3.71839 -1.89848 0
M  V30 4230 H 402.279 3.20198 -5.90697 0
M  V30 4231 N 404.999 1.35443 0.805782 0
M  V30 4232 C 405.909 1.30546 1.94923 0
M  V30 4233 C 406.925 0.210233 1.72725 0
M  V30 4234 O 408.101 0.43975 1.9654 0
M  V30 4235 C 405.166 1.07782 3.29521 0
M  V30 4236 C 404.227 2.26625 3.64609 0
M  V30 4237 C 403.46 2.04938 4.92784 0
M  V30 4238 O 403.683 1.01624 5.61274 0
M  V30 4239 O 402.617 2.9232 5.26149 0
M  V30 4240 H 406.443 2.26779 2.02002 0
M  V30 4241 H 404.028 1.15823 0.943682 0
M  V30 4242 H 405.91 0.969392 4.10098 0
M  V30 4243 H 404.585 0.146003 3.23371 0
M  V30 4244 H 403.492 2.43033 2.84404 0
M  V30 4245 H 404.825 3.18257 3.75464 0
M  V30 4246 N 406.477 -1.02803 1.19454 0
M  V30 4247 C 407.725 -1.75869 0.995722 0
M  V30 4248 C 408.046 -1.89138 -0.474543 0
M  V30 4249 O 407.316 -1.42558 -1.34366 0
M  V30 4250 H 405.896 -0.651511 0.365435 0
M  V30 4251 H 408.558 -1.24004 1.50363 0
M  V30 4252 H 407.654 -2.76661 1.44447 0
M  V30 4253 N 407.956 -0.998596 -1.21925 0
M  V30 4254 C 409.202 -0.678667 -1.91107 0
M  V30 4255 C 409.535 0.78791 -1.77498 0
M  V30 4256 O 408.81 1.57043 -1.1475 0
M  V30 4257 C 409.093 -1.09245 -3.43129 0
M  V30 4258 C 408.946 -2.61801 -3.6576 0
M  V30 4259 C 410.265 -0.649984 -4.35274 0
M  V30 4260 H 407.384 -0.248025 -0.694012 0
M  V30 4261 H 410.026 -1.24314 -1.43688 0
M  V30 4262 H 408.176 -0.612171 -3.83647 0
M  V30 4263 H 409.848 -3.17543 -3.34611 0
M  V30 4264 H 408.091 -3.03609 -3.09845 0
M  V30 4265 H 408.762 -2.85804 -4.7225 0
M  V30 4266 H 411.238 -1.0626 -4.02303 0
M  V30 4267 H 410.114 -0.967743 -5.40302 0
M  V30 4268 H 410.375 0.449139 -4.39813 0
M  V30 4269 N 409.434 1.37368 -0.772513 0
M  V30 4270 C 410.85 1.53059 -0.452231 0
M  V30 4271 C 411.05 1.73065 1.03203 0
M  V30 4272 O 410.106 1.75245 1.81784 0
M  V30 4273 C 411.419 2.72659 -1.26797 0
M  V30 4274 C 412.967 2.86521 -1.25995 0
M  V30 4275 C 413.442 4.09105 -2.05905 0
M  V30 4276 N 414.933 4.16219 -2.03263 0
M  V30 4277 C 415.668 5.10107 -2.61875 0
M  V30 4278 N 415.164 6.09547 -3.29278 0
M  V30 4279 N 416.957 5.02596 -2.51701 0
M  V30 4280 H 409.108 1.22634 -1.7342 0
M  V30 4281 H 411.371 0.597206 -0.736239 0
M  V30 4282 H 411.077 2.64343 -2.31982 0
M  V30 4283 H 410.951 3.66363 -0.897672 0
M  V30 4284 H 413.338 2.94308 -0.216081 0
M  V30 4285 H 413.419 1.93774 -1.66989 0
M  V30 4286 H 413.063 4.0208 -3.10313 0
M  V30 4287 H 412.993 5.00968 -1.62292 0
M  V30 4288 H 415.484 3.45012 -1.54192 0
M  V30 4289 H 415.797 6.77718 -3.71374 0
M  V30 4290 H 414.142 6.09824 -3.33377 0
M  V30 4291 H 417.333 4.23855 -1.98657 0
M  V30 4292 H 417.506 5.75582 -2.97673 0
M  V30 4293 N 410.912 0.523116 1.48665 0
M  V30 4294 C 412.328 0.180511 1.58576 0
M  V30 4295 C 412.528 -1.31597 1.52592 0
M  V30 4296 O 411.584 -2.0937 1.4114 0
M  V30 4297 C 412.897 0.776949 2.90489 0
M  V30 4298 C 414.445 0.745058 3.04003 0
M  V30 4299 C 414.92 1.31995 4.38567 0
M  V30 4300 N 416.411 1.28162 4.45117 0
M  V30 4301 C 417.146 1.6964 5.47731 0
M  V30 4302 N 416.642 2.18816 6.57337 0
M  V30 4303 N 418.435 1.6092 5.38573 0
M  V30 4304 H 410.586 1.4958 1.50797 0
M  V30 4305 H 412.849 0.621772 0.715614 0
M  V30 4306 H 412.555 1.82732 3.00503 0
M  V30 4307 H 412.429 0.25007 3.7637 0
M  V30 4308 H 414.816 -0.296532 2.93606 0
M  V30 4309 H 414.897 1.30933 2.1975 0
M  V30 4310 H 414.541 2.36043 4.49718 0
M  V30 4311 H 414.471 0.731418 5.21496 0
M  V30 4312 H 416.962 0.92155 3.66491 0
M  V30 4313 H 417.275 2.48478 7.31764 0
M  V30 4314 H 415.62 2.22805 6.58318 0
M  V30 4315 H 418.811 1.22304 4.5184 0
M  V30 4316 H 418.984 1.93567 6.18414 0
M  V30 4317 N 412.39 -1.55475 0.257931 0
M  V30 4318 C 413.637 -1.99207 -0.363728 0
M  V30 4319 C 413.965 -1.1462 -1.57139 0
M  V30 4320 O 413.22 -0.199653 -1.94679 0
M  V30 4321 C 413.519 -3.48183 -0.806433 0
M  V30 4322 C 413.185 -4.49936 0.294684 0
M  V30 4323 C 411.847 -4.77481 0.597076 0
M  V30 4324 C 414.199 -5.10769 1.03751 0
M  V30 4325 C 411.527 -5.63132 1.64618 0
M  V30 4326 C 413.879 -5.97558 2.07622 0
M  V30 4327 C 412.543 -6.23432 2.38514 0
M  V30 4328 H 411.813 -0.728949 -0.133097 0
M  V30 4329 H 414.46 -1.8793 0.368059 0
M  V30 4330 H 412.765 -3.56848 -1.61761 0
M  V30 4331 H 414.462 -3.79415 -1.29789 0
M  V30 4332 H 411.052 -4.28572 0.0488649 0
M  V30 4333 H 415.236 -4.89527 0.817149 0
M  V30 4334 H 410.492 -5.8143 1.89074 0
M  V30 4335 H 414.666 -6.43735 2.65666 0
M  V30 4336 H 412.293 -6.89594 3.19943 0
M  V30 4337 N 413.868 0.0150385 -1.57593 0
M  V30 4338 C 415.145 0.7392 -1.81094 0
M  V30 4339 C 415.525 1.92817 -0.859344 0
M  V30 4340 O 414.873 2.28301 0.095362 0
M  V30 4341 C 415.083 1.15907 -3.29191 0
M  V30 4342 C 416.431 1.56918 -3.9454 0
M  V30 4343 O 417.455 1.25328 -3.33424 0
M  V30 4344 O 416.314 2.15604 -5.02173 0
M  V30 4345 H 413.408 0.358631 -0.745193 0
M  V30 4346 H 415.954 -0.00926156 -1.69697 0
M  V30 4347 H 414.726 0.310921 -3.90063 0
M  V30 4348 H 414.349 1.96711 -3.45529 0
M  V30 4349 N 415.346 1.54954 0.287554 0
M  V30 4350 C 416.256 1.8991 1.37736 0
M  V30 4351 C 417.272 0.794701 1.54792 0
M  V30 4352 O 418.448 1.09243 1.69198 0
M  V30 4353 C 415.513 2.15108 2.71899 0
M  V30 4354 C 414.574 3.38752 2.63715 0
M  V30 4355 C 413.807 3.62739 3.91479 0
M  V30 4356 O 414.03 2.89492 4.91478 0
M  V30 4357 O 412.964 4.56267 3.92561 0
M  V30 4358 H 416.79 2.82652 1.11092 0
M  V30 4359 H 414.375 1.41315 0.484807 0
M  V30 4360 H 416.257 2.32806 3.51254 0
M  V30 4361 H 414.932 1.25551 2.9836 0
M  V30 4362 H 413.839 3.26405 1.82786 0
M  V30 4363 H 415.172 4.28483 2.42205 0
M  V30 4364 N 416.824 -0.551391 1.4764 0
M  V30 4365 C 418.073 -1.30467 1.53822 0
M  V30 4366 C 418.386 -1.94495 0.207661 0
M  V30 4367 O 419.592 -2.71099 0.147533 0
M  V30 4368 C 418.048 -2.36616 2.71184 0
M  V30 4369 C 417.656 -1.78754 4.10793 0
M  V30 4370 C 419.4 -3.13088 2.86663 0
M  V30 4371 C 417.307 -2.82717 5.19447 0
M  V30 4372 H 416.237 -0.490584 0.572576 0
M  V30 4373 H 418.888 -0.58494 1.73927 0
M  V30 4374 H 417.27 -3.11529 2.4447 0
M  V30 4375 H 418.444 -1.10173 4.47435 0
M  V30 4376 H 416.759 -1.14846 4.00249 0
M  V30 4377 H 419.356 -3.90736 3.65007 0
M  V30 4378 H 419.699 -3.67635 1.95321 0
M  V30 4379 H 420.232 -2.45288 3.13175 0
M  V30 4380 H 416.971 -2.33018 6.12685 0
M  V30 4381 H 416.491 -3.4969 4.87316 0
M  V30 4382 H 418.17 -3.46102 5.46646 0
M  V30 4383 N 418.302 -1.35869 -0.798587 0
M  V30 4384 C 419.232 -1.32118 -1.92528 0
M  V30 4385 C 420.213 -0.194209 -1.68988 0
M  V30 4386 O 421.398 -0.390426 -1.90235 0
M  V30 4387 C 418.528 -1.10047 -3.29404 0
M  V30 4388 C 417.482 -2.19471 -3.67446 0
M  V30 4389 C 416.808 -1.82555 -5.02571 0
M  V30 4390 C 418.108 -3.61495 -3.76987 0
M  V30 4391 H 419.802 -2.26394 -1.95924 0
M  V30 4392 H 417.348 -1.08981 -0.94123 0
M  V30 4393 H 419.301 -1.06061 -4.07835 0
M  V30 4394 H 418.025 -0.122195 -3.26371 0
M  V30 4395 H 416.684 -2.22568 -2.91306 0
M  V30 4396 H 416.332 -0.833249 -4.9605 0
M  V30 4397 H 416.032 -2.5581 -5.28995 0
M  V30 4398 H 417.556 -1.80108 -5.83432 0
M  V30 4399 H 418.97 -3.60676 -4.4563 0
M  V30 4400 H 417.367 -4.33577 -4.14887 0
M  V30 4401 H 418.437 -3.97065 -2.78329 0
M  V30 4402 N 419.78 1.02168 -1.19998 0
M  V30 4403 C 420.69 2.14069 -0.959774 0
M  V30 4404 C 421.706 1.73804 0.082655 0
M  V30 4405 O 422.882 2.01133 -0.103633 0
M  V30 4406 C 419.947 3.42936 -0.509459 0
M  V30 4407 C 419.008 3.97474 -1.62213 0
M  V30 4408 C 418.241 5.2019 -1.19321 0
M  V30 4409 O 418.464 5.70369 -0.0597726 0
M  V30 4410 O 417.398 5.67749 -1.99863 0
M  V30 4411 H 421.224 2.37199 -1.89658 0
M  V30 4412 H 418.809 1.12469 -0.983411 0
M  V30 4413 H 420.691 4.20551 -0.267322 0
M  V30 4414 H 419.366 3.21234 0.398821 0
M  V30 4415 H 418.273 3.21161 -1.9185 0
M  V30 4416 H 419.606 4.23555 -2.50723 0
M  V30 4417 N 421.258 1.00505 1.21394 0
M  V30 4418 C 422.221 0.570459 2.21987 0
M  V30 4419 C 423.221 -0.353211 1.56873 0
M  V30 4420 O 424.411 -0.14349 1.73608 0
M  V30 4421 C 421.543 -0.168555 3.40483 0
M  V30 4422 H 422.736 1.46021 2.6195 0
M  V30 4423 H 420.289 0.793565 1.34656 0
M  V30 4424 H 421.024 -1.07374 3.06009 0
M  V30 4425 H 420.809 0.494823 3.88965 0
M  V30 4426 H 422.299 -0.460362 4.15055 0
M  V30 4427 N 422.737 -1.36956 0.779787 0
M  V30 4428 C 423.962 -2.04283 0.358224 0
M  V30 4429 C 424.387 -1.58422 -1.01411 0
M  V30 4430 O 423.745 -0.748179 -1.65142 0
M  V30 4431 C 423.793 -3.58152 0.419479 0
M  V30 4432 O 422.897 -4.08342 -0.577142 0
M  V30 4433 H 422.238 -0.645967 0.153698 0
M  V30 4434 H 424.768 -1.75108 1.05822 0
M  V30 4435 H 424.778 -4.07041 0.279636 0
M  V30 4436 H 423.453 -3.90886 1.42061 0
M  V30 4437 H 422.03 -3.70751 -0.399755 0
M  V30 4438 N 424.215 -0.530993 -1.48385 0
M  V30 4439 C 425.492 0.0671788 -1.95485 0
M  V30 4440 C 425.872 1.51191 -1.47324 0
M  V30 4441 O 425.22 2.17507 -0.700202 0
M  V30 4442 C 425.43 -0.0511206 -3.48963 0
M  V30 4443 C 426.778 0.107632 -4.24464 0
M  V30 4444 O 427.802 0.0226248 -3.56193 0
M  V30 4445 O 426.661 0.285972 -5.45751 0
M  V30 4446 H 423.755 0.0787365 -0.823243 0
M  V30 4447 H 426.301 -0.595662 -1.58902 0
M  V30 4448 H 425.073 -1.05747 -3.7674 0
M  V30 4449 H 424.696 0.650525 -3.92242 0
M  V30 4450 N 425.693 1.55336 -0.266172 0
M  V30 4451 C 426.941 1.99003 0.35246 0
M  V30 4452 C 427.262 1.15591 1.57047 0
M  V30 4453 O 426.532 0.243268 1.94384 0
M  V30 4454 H 425.112 0.735025 0.133217 0
M  V30 4455 H 427.774 1.91367 -0.369434 0
M  V30 4456 H 426.87 3.05289 0.648453 0
M  V30 4457 N 427.171 -0.0066808 1.57599 0
M  V30 4458 C 428.42 -0.692078 1.89455 0
M  V30 4459 C 428.733 -1.75306 0.867586 0
M  V30 4460 O 429.939 -2.49262 1.07614 0
M  V30 4461 C 428.395 -1.2821 3.36289 0
M  V30 4462 C 428.003 -0.256291 4.47266 0
M  V30 4463 C 429.747 -1.94608 3.77264 0
M  V30 4464 C 427.654 -0.855927 5.85173 0
M  V30 4465 H 426.584 -0.262252 0.706923 0
M  V30 4466 H 429.235 0.052769 1.83424 0
M  V30 4467 H 427.617 -2.0774 3.37135 0
M  V30 4468 H 428.791 0.513923 4.57925 0
M  V30 4469 H 427.106 0.306862 4.15268 0
M  V30 4470 H 429.703 -2.40364 4.77629 0
M  V30 4471 H 430.046 -2.77382 3.10427 0
M  V30 4472 H 430.579 -1.21822 3.78688 0
M  V30 4473 H 427.318 -0.0671161 6.55466 0
M  V30 4474 H 426.838 -1.59546 5.78191 0
M  V30 4475 H 428.517 -1.35658 6.32618 0
M  V30 4476 N 428.649 -1.55105 -0.279332 0
M  V30 4477 C 429.582 -1.82467 -1.37044 0
M  V30 4478 C 430.56 -0.677261 -1.47824 0
M  V30 4479 O 431.744 -0.919578 -1.64548 0
M  V30 4480 C 428.871 -1.98066 -2.7475 0
M  V30 4481 C 427.917 -3.20594 -2.81286 0
M  V30 4482 S 428.75 -4.78116 -2.41175 0
M  V30 4483 C 429.906 -4.9668 -3.80867 0
M  V30 4484 H 430.139 -2.74728 -1.1363 0
M  V30 4485 H 427.672 -1.46794 -0.478625 0
M  V30 4486 H 429.63 -2.07739 -3.54055 0
M  V30 4487 H 428.291 -1.06704 -2.9542 0
M  V30 4488 H 427.484 -3.28376 -3.82341 0
M  V30 4489 H 427.086 -3.09479 -2.09996 0
M  V30 4490 H 429.378 -4.82033 -4.76078 0
M  V30 4491 H 430.321 -5.98741 -3.78041 0
M  V30 4492 H 430.729 -4.24698 -3.71876 0
M  V30 4493 N 430.127 0.543554 -1.4793 0
M  V30 4494 C 431.373 1.30201 -1.55485 0
M  V30 4495 C 431.706 1.92925 -0.222201 0
M  V30 4496 O 430.981 1.78586 0.77053 0
M  V30 4497 C 431.264 2.40174 -2.68307 0
M  V30 4498 C 431.117 1.8223 -4.11233 0
M  V30 4499 C 432.436 3.42024 -2.76961 0
M  V30 4500 H 429.555 0.472036 -0.565996 0
M  V30 4501 H 432.197 0.606914 -1.80046 0
M  V30 4502 H 430.347 2.99463 -2.47495 0
M  V30 4503 H 432.019 1.27096 -4.43446 0
M  V30 4504 H 430.262 1.12832 -4.18869 0
M  V30 4505 H 430.933 2.61793 -4.85972 0
M  V30 4506 H 433.409 2.92672 -2.95774 0
M  V30 4507 H 432.285 4.16383 -3.57654 0
M  V30 4508 H 432.546 4.0173 -1.84568 0
M  V30 4509 N 431.605 1.3629 0.791371 0
M  V30 4510 C 432.568 1.30309 1.88553 0
M  V30 4511 C 433.568 0.211204 1.59407 0
M  V30 4512 O 434.758 0.465865 1.67855 0
M  V30 4513 C 431.89 1.01956 3.25297 0
M  V30 4514 H 433.083 2.27614 1.95273 0
M  V30 4515 H 430.636 1.21035 0.988953 0
M  V30 4516 H 431.371 0.050998 3.2426 0
M  V30 4517 H 431.156 1.80968 3.4784 0
M  V30 4518 H 432.646 1.0037 4.05359 0
M  V30 4519 N 433.083 -1.0153 1.20538 0
M  V30 4520 C 434.499 -1.27461 0.96051 0
M  V30 4521 C 434.699 -1.98273 -0.359193 0
M  V30 4522 O 433.755 -2.27886 -1.0874 0
M  V30 4523 C 435.068 -2.10837 2.14402 0
M  V30 4524 C 436.616 -2.24099 2.18515 0
M  V30 4525 C 437.091 -3.10852 3.36355 0
M  V30 4526 N 438.582 -3.18441 3.36377 0
M  V30 4527 C 439.317 -3.85795 4.24205 0
M  V30 4528 N 438.813 -4.55264 5.22213 0
M  V30 4529 N 440.606 -3.82331 4.12043 0
M  V30 4530 H 432.757 -0.539907 2.05423 0
M  V30 4531 H 435.02 -0.30092 0.898972 0
M  V30 4532 H 434.726 -1.66144 3.09983 0
M  V30 4533 H 434.6 -3.11576 2.12604 0
M  V30 4534 H 436.987 -2.68016 1.23497 0
M  V30 4535 H 437.068 -1.22865 2.24361 0
M  V30 4536 H 436.712 -2.6764 4.31661 0
M  V30 4537 H 436.642 -4.12177 3.27746 0
M  V30 4538 H 439.133 -2.68978 2.65442 0
M  V30 4539 H 439.446 -5.04331 5.85551 0
M  V30 4540 H 437.791 -4.54085 5.26148 0
M  V30 4541 H 440.982 -3.27207 3.34743 0
M  V30 4542 H 441.155 -4.34547 4.807 0
M  V30 4543 N 434.561 -1.01147 -1.20859 0
M  V30 4544 C 435.809 -0.696486 -1.89719 0
M  V30 4545 C 436.13 0.775788 -1.78904 0
M  V30 4546 O 435.4 1.55759 -1.18811 0
M  V30 4547 H 433.98 -0.254628 -0.702263 0
M  V30 4548 H 436.642 -1.28197 -1.46804 0
M  V30 4549 H 435.738 -0.975357 -2.96468 0
M  V30 4550 N 436.039 1.36541 -0.78704 0
M  V30 4551 C 437.316 1.9355 -0.282424 0
M  V30 4552 C 437.696 1.71919 1.22503 0
M  V30 4553 O 437.044 1.07677 2.01539 0
M  V30 4554 C 437.254 3.4246 -0.672462 0
M  V30 4555 C 438.602 4.19582 -0.650863 0
M  V30 4556 O 439.626 3.50889 -0.612789 0
M  V30 4557 O 438.485 5.42106 -0.691623 0
M  V30 4558 H 435.579 0.824091 -0.0693 0
M  V30 4559 H 438.125 1.45736 -0.869423 0
M  V30 4560 H 436.897 3.51851 -1.71221 0
M  V30 4561 H 436.52 3.97556 -0.0592211 0
M  V30 4562 N 437.518 0.538854 1.48102 0
M  V30 4563 C 438.448 -0.207654 2.32575 0
M  V30 4564 C 439.429 -0.926559 1.4265 0
M  V30 4565 O 440.614 -0.91061 1.71527 0
M  V30 4566 C 437.744 -1.24957 3.24042 0
M  V30 4567 C 436.698 -0.648263 4.23062 0
M  V30 4568 C 436.024 -1.79348 5.03725 0
M  V30 4569 C 437.324 0.385897 5.20872 0
M  V30 4570 H 439.018 0.497534 2.95237 0
M  V30 4571 H 436.564 0.240715 1.41974 0
M  V30 4572 H 438.517 -1.77983 3.81969 0
M  V30 4573 H 437.241 -1.98446 2.59397 0
M  V30 4574 H 435.9 -0.139452 3.66335 0
M  V30 4575 H 435.548 -2.51696 4.35498 0
M  V30 4576 H 435.248 -1.39702 5.70751 0
M  V30 4577 H 436.772 -2.32735 5.64506 0
M  V30 4578 H 438.186 -0.057607 5.73271 0
M  V30 4579 H 436.583 0.700227 5.96001 0
M  V30 4580 H 437.653 1.28848 4.67468 0
M  V30 4581 N 438.996 -1.55193 0.274407 0
M  V30 4582 C 440.244 -1.99187 -0.341902 0
M  V30 4583 C 440.565 -1.16422 -1.56431 0
M  V30 4584 O 439.835 -0.253573 -1.94252 0
M  V30 4585 H 438.415 -0.735721 -0.129317 0
M  V30 4586 H 441.077 -1.91168 0.379578 0
M  V30 4587 H 440.173 -3.05629 -0.632253 0
M  V30 4588 N 440.474 -0.00167713 -1.576 0
M  V30 4589 C 441.723 0.682021 -1.89819 0
M  V30 4590 C 442.036 1.74844 -0.876871 0
M  V30 4591 O 443.242 2.48688 -1.08934 0
M  V30 4592 C 441.698 1.26425 -3.36964 0
M  V30 4593 C 441.306 0.232568 -4.47396 0
M  V30 4594 C 443.05 1.92604 -3.78291 0
M  V30 4595 C 440.957 0.824882 -5.85619 0
M  V30 4596 H 439.887 0.258499 -0.708304 0
M  V30 4597 H 442.538 -0.0624957 -1.83394 0
M  V30 4598 H 440.92 2.05949 -3.38232 0
M  V30 4599 H 442.094 -0.5382 -4.57646 0
M  V30 4600 H 440.409 -0.32888 -4.15099 0
M  V30 4601 H 443.006 2.37827 -4.78897 0
M  V30 4602 H 443.349 2.75732 -3.11894 0
M  V30 4603 H 443.882 1.19812 -3.79328 0
M  V30 4604 H 440.621 0.0323542 -6.55492 0
M  V30 4605 H 440.141 1.56477 -5.79029 0
M  V30 4606 H 441.82 1.32301 -6.33329 0
M  V30 4607 N 441.952 1.55251 0.271103 0
M  V30 4608 C 442.862 1.9136 1.35714 0
M  V30 4609 C 443.878 0.811075 1.5394 0
M  V30 4610 O 445.054 1.11031 1.6803 0
M  V30 4611 C 442.119 2.1798 2.69603 0
M  V30 4612 C 441.18 3.4153 2.60107 0
M  V30 4613 C 440.413 3.66871 3.8761 0
M  V30 4614 O 440.636 2.94689 4.8838 0
M  V30 4615 O 439.57 4.60405 3.87699 0
M  V30 4616 H 443.396 2.83815 1.08088 0
M  V30 4617 H 440.981 1.41821 0.469792 0
M  V30 4618 H 442.863 2.36518 3.48765 0
M  V30 4619 H 441.538 1.28708 2.97012 0
M  V30 4620 H 440.445 3.28325 1.79314 0
M  V30 4621 H 441.778 4.31027 2.37647 0
M  V30 4622 N 443.43 -0.535701 1.48216 0
M  V30 4623 C 444.679 -1.28828 1.55197 0
M  V30 4624 C 444.992 -1.94263 0.228278 0
M  V30 4625 O 446.198 -2.70927 0.176278 0
M  V30 4626 C 444.654 -2.33727 2.73678 0
M  V30 4627 C 444.262 -1.74386 4.12666 0
M  V30 4628 C 446.006 -3.1003 2.89968 0
M  V30 4629 C 443.913 -2.77192 5.22416 0
M  V30 4630 H 442.843 -0.484484 0.577747 0
M  V30 4631 H 445.494 -0.56646 1.74538 0
M  V30 4632 H 443.876 -3.08919 2.4776 0
M  V30 4633 H 445.05 -1.05421 4.48579 0
M  V30 4634 H 443.365 -1.10595 4.01445 0
M  V30 4635 H 445.962 -3.86842 3.6913 0
M  V30 4636 H 446.305 -3.65542 1.9921 0
M  V30 4637 H 446.838 -2.41952 3.15759 0
M  V30 4638 H 443.577 -2.26507 6.15122 0
M  V30 4639 H 443.097 -3.44502 4.90998 0
M  V30 4640 H 444.776 -3.40285 5.50286 0
M  V30 4641 N 444.908 -1.36708 -0.784132 0
M  V30 4642 C 446.319 -1.27947 -1.35965 0
M  V30 4643 C 446.67 0.0784013 -1.96043 0
M  V30 4644 O 445.795 0.979989 -1.92938 0
M  V30 4645 C 446.39 -2.31689 -2.47195 0
M  V30 4646 C 444.949 -2.26601 -3.00548 0
M  V30 4647 C 444.096 -2.16184 -1.73666 0
M  V30 4648 H 447.047 -1.4751 -0.585358 0
M  V30 4649 H 447.068 -1.95638 -3.26352 0
M  V30 4650 H 446.58 -3.30506 -2.03439 0
M  V30 4651 H 444.681 -1.31268 -3.48711 0
M  V30 4652 H 444.794 -3.19508 -3.57004 0
M  V30 4653 H 443.158 -1.62524 -1.96107 0
M  V30 4654 H 443.941 -3.16896 -1.32031 0
M  V30 4655 N 446.386 1.0089 -1.21074 0
M  V30 4656 C 447.349 2.0775 -0.968129 0
M  V30 4657 C 448.349 1.6069 0.0593445 0
M  V30 4658 O 449.539 1.73293 -0.177525 0
M  V30 4659 C 446.671 3.37794 -0.459108 0
M  V30 4660 H 447.864 2.30707 -1.9161 0
M  V30 4661 H 445.417 1.17807 -1.02719 0
M  V30 4662 H 446.152 3.20516 0.49397 0
M  V30 4663 H 445.937 3.7328 -1.20019 0
M  V30 4664 H 447.427 4.16454 -0.309099 0
M  V30 4665 N 447.864 1.01787 1.20321 0
M  V30 4666 C 448.774 0.598898 2.26827 0
M  V30 4667 C 449.79 -0.36418 1.70146 0
M  V30 4668 O 450.966 -0.224812 2.00141 0
M  V30 4669 C 448.031 -0.0549769 3.46656 0
M  V30 4670 C 447.092 0.954205 4.18561 0
M  V30 4671 C 446.325 0.331439 5.3267 0
M  V30 4672 O 446.548 -0.86851 5.63749 0
M  V30 4673 O 445.482 1.0488 5.92692 0
M  V30 4674 H 449.308 1.48562 2.64883 0
M  V30 4675 H 446.893 0.787434 1.26964 0
M  V30 4676 H 448.775 -0.420102 4.19301 0
M  V30 4677 H 447.45 -0.915876 3.10473 0
M  V30 4678 H 446.357 1.37072 3.48083 0
M  V30 4679 H 447.69 1.78511 4.58688 0
M  V30 4680 N 449.342 -1.36122 0.79427 0
M  V30 4681 C 450.289 -2.29982 0.194101 0
M  V30 4682 C 451.259 -1.52214 -0.664833 0
M  V30 4683 O 452.444 -1.80702 -0.612498 0
M  V30 4684 C 449.584 -3.38706 -0.661244 0
M  V30 4685 C 448.697 -4.31456 0.216766 0
M  V30 4686 C 447.832 -5.27265 -0.645411 0
M  V30 4687 C 446.871 -6.11653 0.233756 0
M  V30 4688 N 446.008 -6.99636 -0.587682 0
M  V30 4689 H 450.848 -2.80722 0.999965 0
M  V30 4690 H 448.385 -1.38172 0.504677 0
M  V30 4691 H 450.343 -4.00394 -1.17219 0
M  V30 4692 H 448.973 -2.89274 -1.43249 0
M  V30 4693 H 448.025 -3.7088 0.845724 0
M  V30 4694 H 449.337 -4.90724 0.893973 0
M  V30 4695 H 448.491 -5.94266 -1.22198 0
M  V30 4696 H 447.23 -4.68463 -1.35623 0
M  V30 4697 H 446.235 -5.4361 0.82269 0
M  V30 4698 H 447.46 -6.72531 0.942247 0
M  V30 4699 H 445.406 -6.43337 -1.2827 0
M  V30 4700 H 445.323 -7.55993 0.0317402 0
M  V30 4701 H 446.591 -7.71001 -1.14792 0
M  V30 4702 N 450.82 -0.546701 -1.47814 0
M  V30 4703 C 452.066 -0.0187684 -2.02791 0
M  V30 4704 C 452.399 1.32338 -1.42128 0
M  V30 4705 O 451.674 1.85867 -0.573023 0
M  V30 4706 C 451.957 0.0854985 -3.59998 0
M  V30 4707 C 451.81 -1.283 -4.31114 0
M  V30 4708 C 453.129 0.80412 -4.32691 0
M  V30 4709 H 450.248 -0.0082946 -0.736953 0
M  V30 4710 H 452.89 -0.706962 -1.76358 0
M  V30 4711 H 451.04 0.671609 -3.82651 0
M  V30 4712 H 452.712 -1.91151 -4.19832 0
M  V30 4713 H 450.955 -1.86049 -3.91878 0
M  V30 4714 H 451.626 -1.16287 -5.39612 0
M  V30 4715 H 454.102 0.306576 -4.14969 0
M  V30 4716 H 452.978 0.846011 -5.42341 0
M  V30 4717 H 453.239 1.85802 -4.01161 0
M  V30 4718 N 452.299 1.55045 -0.282633 0
M  V30 4719 C 453.546 1.9976 0.33199 0
M  V30 4720 C 453.874 1.17105 1.55295 0
M  V30 4721 O 453.129 0.230599 1.94337 0
M  V30 4722 C 453.428 3.49422 0.750938 0
M  V30 4723 C 453.094 4.4941 -0.366228 0
M  V30 4724 C 451.756 4.76471 -0.672964 0
M  V30 4725 C 454.108 5.09054 -1.11864 0
M  V30 4726 C 451.436 5.60442 -1.73556 0
M  V30 4727 C 453.788 5.9418 -2.17102 0
M  V30 4728 C 452.452 6.19558 -2.48402 0
M  V30 4729 H 451.722 0.730974 0.121484 0
M  V30 4730 H 454.369 1.8732 -0.39791 0
M  V30 4731 H 452.674 3.59377 1.56063 0
M  V30 4732 H 454.371 3.81432 1.23736 0
M  V30 4733 H 450.961 4.2844 -0.117041 0
M  V30 4734 H 455.145 4.88165 -0.894925 0
M  V30 4735 H 450.401 5.78349 -1.983 0
M  V30 4736 H 454.575 6.39427 -2.75873 0
M  V30 4737 H 452.202 6.84417 -3.30874 0
M  V30 4738 N 453.777 0.010035 1.57597 0
M  V30 4739 C 454.707 -0.976857 2.12084 0
M  V30 4740 C 455.688 -1.35191 1.03235 0
M  V30 4741 O 456.873 -1.43389 1.3097 0
M  V30 4742 C 454.003 -2.26548 2.63236 0
M  V30 4743 C 452.957 -2.03175 3.76701 0
M  V30 4744 C 452.283 -3.38138 4.14206 0
M  V30 4745 C 453.583 -1.38625 5.03568 0
M  V30 4746 H 455.277 -0.523145 2.94794 0
M  V30 4747 H 452.823 -0.250195 1.4181 0
M  V30 4748 H 454.776 -2.95952 2.99984 0
M  V30 4749 H 453.5 -2.74051 1.77661 0
M  V30 4750 H 452.159 -1.36195 3.40362 0
M  V30 4751 H 451.807 -3.83363 3.25641 0
M  V30 4752 H 451.507 -3.23312 4.90656 0
M  V30 4753 H 453.031 -4.08841 4.53521 0
M  V30 4754 H 454.445 -1.98 5.38023 0
M  V30 4755 H 452.842 -1.34256 5.84889 0
M  V30 4756 H 453.912 -0.356722 4.83586 0
M  V30 4757 N 455.255 -1.55392 -0.262866 0
M  V30 4758 C 456.218 -1.88181 -1.30846 0
M  V30 4759 C 457.218 -0.757079 -1.41862 0
M  V30 4760 O 458.408 -1.02519 -1.40838 0
M  V30 4761 C 455.54 -2.09609 -2.68844 0
M  V30 4762 H 456.733 -2.81659 -1.02997 0
M  V30 4763 H 454.286 -1.48039 -0.501414 0
M  V30 4764 H 455.021 -1.18547 -3.01856 0
M  V30 4765 H 454.806 -2.91508 -2.62231 0
M  V30 4766 H 456.296 -2.36215 -3.44372 0
M  V30 4767 N 456.733 0.527833 -1.48498 0
M  V30 4768 C 457.665 1.6482 -1.5927 0
M  V30 4769 C 458.678 1.55659 -0.476869 0
M  V30 4770 O 459.867 1.62081 -0.747806 0
M  V30 4771 C 456.967 3.0348 -1.50842 0
M  V30 4772 C 456.14 3.381 -2.77502 0
M  V30 4773 C 455.199 4.5605 -2.62497 0
M  V30 4774 O 454.225 4.59165 -3.36387 0
M  V30 4775 N 455.427 5.54353 -1.72257 0
M  V30 4776 H 458.192 1.56015 -2.55889 0
M  V30 4777 H 455.753 0.715152 -1.45249 0
M  V30 4778 H 457.745 3.80264 -1.38496 0
M  V30 4779 H 456.315 3.06352 -0.621887 0
M  V30 4780 H 455.535 2.50473 -3.04396 0
M  V30 4781 H 456.823 3.58017 -3.61527 0
M  V30 4782 H 456.221 5.54617 -1.11431 0
M  V30 4783 H 454.778 6.30347 -1.65849 0
M  V30 4784 N 458.211 1.37122 0.776871 0
M  V30 4785 C 459.158 1.3247 1.88998 0
M  V30 4786 C 460.128 0.191143 1.64997 0
M  V30 4787 O 461.313 0.379683 1.86984 0
M  V30 4788 C 458.453 1.13241 3.25992 0
M  V30 4789 C 457.566 2.35782 3.61982 0
M  V30 4790 C 456.701 2.09465 4.88158 0
M  V30 4791 C 455.74 3.279 5.16864 0
M  V30 4792 N 454.877 3.01167 6.34226 0
M  V30 4793 H 459.717 2.27642 1.9231 0
M  V30 4794 H 457.254 1.13125 0.94027 0
M  V30 4795 H 459.212 1.00115 4.0501 0
M  V30 4796 H 457.842 0.217186 3.22069 0
M  V30 4797 H 456.894 2.59666 2.77989 0
M  V30 4798 H 458.206 3.24125 3.79137 0
M  V30 4799 H 457.36 1.93341 5.75069 0
M  V30 4800 H 456.099 1.18452 4.73097 0
M  V30 4801 H 455.104 3.44569 4.2843 0
M  V30 4802 H 456.329 4.19757 5.33836 0
M  V30 4803 H 454.275 2.12779 6.20533 0
M  V30 4804 H 454.192 3.83052 6.51772 0
M  V30 4805 H 455.46 2.88649 7.24087 0
M  V30 4806 N 459.689 -1.00246 1.21608 0
M  V30 4807 C 460.622 -2.08794 0.920892 0
M  V30 4808 C 461.6 -1.62059 -0.132552 0
M  V30 4809 O 462.784 -1.885 -0.0030366 0
M  V30 4810 C 459.911 -3.36525 0.383226 0
M  V30 4811 C 458.957 -4.02172 1.41987 0
M  V30 4812 S 459.79 -4.44256 2.98994 0
M  V30 4813 C 460.946 -5.7517 2.4684 0
M  V30 4814 H 461.179 -2.33511 1.8401 0
M  V30 4815 H 458.712 -1.13562 1.04609 0
M  V30 4816 H 460.67 -4.10423 0.0795871 0
M  V30 4817 H 459.331 -3.09854 -0.514711 0
M  V30 4818 H 458.524 -4.94114 0.993335 0
M  V30 4819 H 458.126 -3.34559 1.67171 0
M  V30 4820 H 460.418 -6.51042 1.87484 0
M  V30 4821 H 461.361 -6.22638 3.37235 0
M  V30 4822 H 461.769 -5.32112 1.88461 0
M  V30 4823 N 461.167 -1.02423 -1.1978 0
M  V30 4824 C 462.1 -0.545641 -2.21581 0
M  V30 4825 C 463.078 0.411024 -1.57319 0
M  V30 4826 O 464.262 0.329223 -1.85603 0
M  V30 4827 C 461.389 0.204973 -3.38079 0
M  V30 4828 C 460.435 -0.70241 -4.20676 0
M  V30 4829 S 461.268 -2.17595 -4.89298 0
M  V30 4830 C 462.424 -1.43572 -6.09211 0
M  V30 4831 H 462.657 -1.4082 -2.61834 0
M  V30 4832 H 460.19 -0.833771 -1.29952 0
M  V30 4833 H 462.148 0.631924 -4.05607 0
M  V30 4834 H 460.809 1.0432 -2.9627 0
M  V30 4835 H 460.002 -0.123193 -5.03849 0
M  V30 4836 H 459.604 -1.06747 -3.58442 0
M  V30 4837 H 461.896 -0.719806 -6.73665 0
M  V30 4838 H 462.839 -2.24388 -6.71607 0
M  V30 4839 H 463.247 -0.935252 -5.56699 0
M  V30 4840 N 462.645 1.35699 -0.801477 0
M  V30 4841 C 463.894 1.98165 -0.375979 0
M  V30 4842 C 464.207 1.64306 1.06127 0
M  V30 4843 O 465.413 2.20097 1.58964 0
M  V30 4844 C 463.869 3.54497 -0.621305 0
M  V30 4845 C 463.477 3.9727 -2.07076 0
M  V30 4846 C 465.221 4.23697 -0.26091 0
M  V30 4847 C 463.128 5.46427 -2.26211 0
M  V30 4848 H 462.058 0.741478 -0.136844 0
M  V30 4849 H 464.709 1.54834 -0.984814 0
M  V30 4850 H 463.091 3.95958 0.0574112 0
M  V30 4851 H 464.265 3.66974 -2.78687 0
M  V30 4852 H 462.58 3.40943 -2.39054 0
M  V30 4853 H 465.177 5.33334 -0.381994 0
M  V30 4854 H 465.52 4.0869 0.792344 0
M  V30 4855 H 466.053 3.87639 -0.893339 0
M  V30 4856 H 462.792 5.66396 -3.29963 0
M  V30 4857 H 462.312 5.78309 -1.59119 0
M  V30 4858 H 463.991 6.12819 -2.07513 0
M  V30 4859 N 464.123 0.554532 1.47522 0
M  V30 4860 C 465.371 0.0294208 2.02079 0
M  V30 4861 C 465.692 -1.32411 1.43151 0
M  V30 4862 O 464.962 -1.863 0.605728 0
M  V30 4863 H 463.542 0.00788672 0.746958 0
M  V30 4864 H 466.204 0.723934 1.80956 0
M  V30 4865 H 465.3 -0.0606745 3.12041 0
M  V30 4866 N 465.601 -1.54893 0.290851 0
M  V30 4867 C 467.017 -1.59476 -0.0628432 0
M  V30 4868 C 467.217 -1.30795 -1.5328 0
M  V30 4869 O 466.273 -1.07644 -2.28406 0
M  V30 4870 C 467.586 -2.98928 0.325962 0
M  V30 4871 C 469.134 -3.11799 0.273882 0
M  V30 4872 C 469.609 -4.53544 0.637359 0
M  V30 4873 N 471.1 -4.59433 0.589507 0
M  V30 4874 C 471.835 -5.67164 0.84335 0
M  V30 4875 N 471.331 -6.82975 1.16263 0
M  V30 4876 N 473.124 -5.56786 0.771091 0
M  V30 4877 H 465.275 -1.71798 1.24896 0
M  V30 4878 H 467.538 -0.801879 0.505663 0
M  V30 4879 H 467.244 -3.24805 1.34887 0
M  V30 4880 H 467.118 -3.75793 -0.325441 0
M  V30 4881 H 469.505 -2.85677 -0.739765 0
M  V30 4882 H 469.586 -2.37112 0.959766 0
M  V30 4883 H 469.23 -4.80394 1.64877 0
M  V30 4884 H 469.16 -5.26553 -0.0704866 0
M  V30 4885 H 471.651 -3.76245 0.353252 0
M  V30 4886 H 471.964 -7.61048 1.34257 0
M  V30 4887 H 470.309 -6.84552 1.20057 0
M  V30 4888 H 473.5 -4.65187 0.521383 0
M  V30 4889 H 473.673 -6.40664 0.972295 0
M  V30 4890 N 467.08 -0.0183926 -1.57589 0
M  V30 4891 C 468.32 0.666846 -1.93216 0
M  V30 4892 C 468.684 1.69905 -0.894215 0
M  V30 4893 O 469.885 2.436 -1.13633 0
M  V30 4894 C 468.156 1.27684 -3.33814 0
M  V30 4895 S 469.715 1.98464 -3.91353 0
M  V30 4896 H 466.533 0.219826 -0.676164 0
M  V30 4897 H 469.135 -0.0794893 -1.95338 0
M  V30 4898 H 467.839 0.513006 -4.07181 0
M  V30 4899 H 467.37 2.06071 -3.3511 0
M  V30 4900 H 469.385 3.26189 -3.73918 0
M  V30 4901 N 468.558 1.5553 0.254621 0
M  V30 4902 C 469.506 1.9048 1.33492 0
M  V30 4903 C 470.5 0.78304 1.50216 0
M  V30 4904 O 471.706 0.967582 1.51782 0
M  V30 4905 H 468.081 0.604846 0.44684 0
M  V30 4906 H 470.052 2.80688 1.01275 0
M  V30 4907 C 468.801 2.20928 2.68489 0
M  V30 4908 H 468.124 3.06742 2.56417 0
M  V30 4909 H 469.564 2.49291 3.42972 0
M  V30 4910 C 468.023 1.023 3.20993 0
M  V30 4911 O 468.553 0.267027 4.00811 0
M  V30 4912 N 466.759 0.815714 2.78917 0
M  V30 4913 H 466.306 1.43217 2.14119 0
M  V30 4914 H 466.264 0.0236532 3.14391 0
M  V30 4915 N 470.036 -0.519951 1.48776 0
M  V30 4916 C 471.452 -0.849418 1.35119 0
M  V30 4917 C 471.652 -1.98077 0.36982 0
M  V30 4918 O 470.708 -2.51664 -0.205359 0
M  V30 4919 C 472.021 -1.20748 2.75391 0
M  V30 4920 C 473.569 -1.31679 2.83954 0
M  V30 4921 C 474.044 -1.70824 4.24951 0
M  V30 4922 N 475.535 -1.77908 4.27672 0
M  V30 4923 C 476.27 -2.09603 5.33717 0
M  V30 4924 N 475.766 -2.39652 6.5003 0
M  V30 4925 N 477.559 -2.10694 5.21119 0
M  V30 4926 H 469.71 0.226377 2.1119 0
M  V30 4927 H 471.973 0.0386519 0.947212 0
M  V30 4928 H 471.679 -0.449703 3.48813 0
M  V30 4929 H 471.553 -2.15534 3.09556 0
M  V30 4930 H 473.94 -2.06532 2.10781 0
M  V30 4931 H 474.021 -0.3499 2.53396 0
M  V30 4932 H 473.665 -0.965282 4.98643 0
M  V30 4933 H 473.595 -2.6858 4.52959 0
M  V30 4934 H 476.086 -1.56923 3.43779 0
M  V30 4935 H 476.399 -2.6297 7.26682 0
M  V30 4936 H 474.744 -2.37149 6.53288 0
M  V30 4937 H 477.935 -1.86682 4.29264 0
M  V30 4938 H 478.108 -2.35062 6.03863 0
M  V30 4939 N 471.514 -1.37532 -0.769588 0
M  V30 4940 C 472.477 -1.33292 -1.86456 0
M  V30 4941 C 473.477 -0.236537 -1.59051 0
M  V30 4942 O 474.667 -0.492511 -1.67093 0
M  V30 4943 C 471.799 -1.07118 -3.23633 0
M  V30 4944 H 472.992 -2.30692 -1.91628 0
M  V30 4945 H 470.545 -1.22593 -0.969572 0
M  V30 4946 H 471.28 -0.102578 -3.24138 0
M  V30 4947 H 471.065 -1.86479 -3.44917 0
M  V30 4948 H 472.555 -1.06806 -4.03711 0
M  V30 4949 N 472.992 0.995999 -1.22138 0
M  V30 4950 C 474.24 1.73167 -1.042 0
M  V30 4951 C 474.561 1.90329 0.42423 0
M  V30 4952 O 473.831 1.4607 1.30539 0
M  V30 4953 H 472.411 0.641593 -0.38258 0
M  V30 4954 H 475.073 1.19974 -1.53598 0
M  V30 4955 H 474.169 2.72734 -1.51731 0
M  V30 4956 N 474.47 1.03057 1.19235 0
M  V30 4957 C 475.417 0.612832 2.22515 0
M  V30 4958 C 476.387 -0.374224 1.61829 0
M  V30 4959 O 477.572 -0.270501 1.88873 0
M  V30 4960 C 474.712 -0.028475 3.45088 0
M  V30 4961 C 473.825 1.00483 4.20151 0
M  V30 4962 C 472.96 0.333102 5.30155 0
M  V30 4963 C 471.999 1.3522 5.96977 0
M  V30 4964 N 471.136 0.70616 6.9854 0
M  V30 4965 H 475.976 1.49812 2.57605 0
M  V30 4966 H 473.513 0.749658 1.26564 0
M  V30 4967 H 475.471 -0.417548 4.15105 0
M  V30 4968 H 474.101 -0.877334 3.10649 0
M  V30 4969 H 473.153 1.51194 3.49062 0
M  V30 4970 H 474.465 1.77929 4.65986 0
M  V30 4971 H 473.619 -0.110725 6.06599 0
M  V30 4972 H 472.358 -0.473547 4.85396 0
M  V30 4973 H 471.363 1.80627 5.19282 0
M  V30 4974 H 472.588 2.16037 6.4382 0
M  V30 4975 H 470.534 -0.0803667 6.55951 0
M  V30 4976 H 470.451 1.41848 7.42573 0
M  V30 4977 H 471.719 0.286391 7.78974 0
M  V30 4978 N 475.948 -1.35272 0.808662 0
M  V30 4979 C 477.359 -1.81179 0.450688 0
M  V30 4980 C 477.71 -1.67143 -1.02751 0
M  V30 4981 O 476.835 -1.20325 -1.79864 0
M  V30 4982 C 477.43 -3.28943 0.811275 0
M  V30 4983 C 475.989 -3.72985 0.505871 0
M  V30 4984 C 475.136 -2.57229 1.03578 0
M  V30 4985 H 478.087 -1.2322 1.00012 0
M  V30 4986 H 478.108 -3.80342 0.109588 0
M  V30 4987 H 477.62 -3.39127 1.88718 0
M  V30 4988 H 475.721 -3.68349 -0.561209 0
M  V30 4989 H 475.834 -4.67677 1.03995 0
M  V30 4990 H 474.198 -2.50548 0.458005 0
M  V30 4991 H 474.981 -2.7019 2.11784 0
M  V30 4992 N 477.426 -0.562348 -1.47226 0
M  V30 4993 C 478.672 -0.0402761 -2.0276 0
M  V30 4994 C 479.005 1.30823 -1.43523 0
M  V30 4995 O 478.28 1.85249 -0.592705 0
M  V30 4996 C 478.563 0.047311 -3.60069 0
M  V30 4997 C 478.416 -1.32865 -4.29729 0
M  V30 4998 C 479.735 0.758182 -4.3352 0
M  V30 4999 H 476.854 -0.0161105 -0.736824 0
M  V30 5000 H 479.496 -0.725628 -1.75598 0
M  V30 5001 H 477.646 0.630986 -3.83342 0
M  V30 5002 H 479.318 -1.95593 -4.17781 0
M  V30 5003 H 477.561 -1.90195 -3.89882 0
M  V30 5004 H 478.232 -1.22004 -5.38349 0
M  V30 5005 H 480.708 0.262546 -4.15271 0
M  V30 5006 H 479.584 0.78844 -5.43208 0
M  V30 5007 H 479.845 1.81537 -4.03109 0
M  V30 5008 N 478.904 1.54736 -0.299062 0
M  V30 5009 C 480.153 1.99279 0.311549 0
M  V30 5010 C 480.466 1.19107 1.55154 0
M  V30 5011 O 481.672 1.53908 2.23662 0
M  V30 5012 C 480.128 3.54768 0.605632 0
M  V30 5013 C 479.736 4.43746 -0.615914 0
M  V30 5014 C 481.48 4.07841 1.17754 0
M  V30 5015 C 479.387 5.90663 -0.29509 0
M  V30 5016 H 478.317 0.744359 0.120187 0
M  V30 5017 H 480.968 1.78919 -0.407464 0
M  V30 5018 H 479.35 3.71021 1.38419 0
M  V30 5019 H 480.524 4.39267 -1.39218 0
M  V30 5020 H 478.839 4.01434 -1.10633 0
M  V30 5021 H 481.436 5.15174 1.43179 0
M  V30 5022 H 481.779 3.58324 2.11918 0
M  V30 5023 H 482.312 3.95123 0.460739 0
M  V30 5024 H 479.051 6.44325 -1.20524 0
M  V30 5025 H 478.571 5.98155 0.44394 0
M  V30 5026 H 480.25 6.46916 0.104048 0
M  V30 5027 N 480.382 0.0267497 1.57577 0
M  V30 5028 C 481.622 -0.65659 1.93567 0
M  V30 5029 C 481.986 -1.69429 0.903213 0
M  V30 5030 O 483.187 -2.42994 1.14923 0
M  V30 5031 C 481.458 -1.25912 3.34486 0
M  V30 5032 S 483.017 -1.96386 3.924 0
M  V30 5033 H 479.835 -0.216237 0.67732 0
M  V30 5034 H 482.437 0.0898475 1.95293 0
M  V30 5035 H 481.141 -0.491405 4.07447 0
M  V30 5036 H 480.672 -2.04291 3.36198 0
M  V30 5037 H 482.687 -3.24202 3.75643 0
M  V30 5038 N 481.861 -1.55662 -0.24637 0
M  V30 5039 C 482.824 -1.89558 -1.28842 0
M  V30 5040 C 483.824 -0.772082 -1.41052 0
M  V30 5041 O 485.014 -1.04007 -1.39743 0
M  V30 5042 C 482.146 -2.12449 -2.66605 0
M  V30 5043 H 483.339 -2.82735 -1.00004 0
M  V30 5044 H 480.892 -1.48562 -0.485684 0
M  V30 5045 H 481.627 -1.21742 -3.00582 0
M  V30 5046 H 481.412 -2.94273 -2.59125 0
M  V30 5047 H 482.902 -2.39854 -3.41847 0
M  V30 5048 N 483.339 0.512053 -1.4905 0
M  V30 5049 C 484.567 1.29116 -1.61669 0
M  V30 5050 C 484.982 1.86655 -0.283787 0
M  V30 5051 O 484.339 1.67293 0.729331 0
M  V30 5052 C 484.39 2.4293 -2.67707 0
M  V30 5053 O 484.111 1.87758 -3.95826 0
M  V30 5054 C 485.612 3.34476 -2.90931 0
M  V30 5055 H 482.832 0.392009 -0.544583 0
M  V30 5056 H 485.376 0.615881 -1.95006 0
M  V30 5057 H 483.531 3.06308 -2.37179 0
M  V30 5058 H 483.945 2.62393 -4.54148 0
M  V30 5059 H 485.419 4.10642 -3.68886 0
M  V30 5060 H 485.896 3.90801 -2.00427 0
M  V30 5061 H 486.502 2.76874 -3.22832 0
M  V30 5062 N 484.817 1.37938 0.762283 0
M  V30 5063 C 485.749 1.30349 1.88525 0
M  V30 5064 C 486.762 0.217402 1.61342 0
M  V30 5065 O 487.951 0.474291 1.72084 0
M  V30 5066 C 485.051 0.994844 3.23969 0
M  V30 5067 C 484.224 2.18829 3.78725 0
M  V30 5068 C 483.283 1.84844 4.92665 0
M  V30 5069 O 482.309 2.57244 5.07754 0
M  V30 5070 N 483.511 0.798201 5.74986 0
M  V30 5071 H 486.276 2.27114 1.95549 0
M  V30 5072 H 483.837 1.31686 0.941825 0
M  V30 5073 H 485.829 0.748168 3.97724 0
M  V30 5074 H 484.399 0.115446 3.12387 0
M  V30 5075 H 483.619 2.59615 2.96637 0
M  V30 5076 H 484.907 2.98497 4.1204 0
M  V30 5077 H 484.305 0.197611 5.65355 0
M  V30 5078 H 482.862 0.611396 6.48926 0
M  V30 5079 N 486.295 -0.989507 1.22664 0
M  V30 5080 C 487.228 -2.07805 0.942985 0
M  V30 5081 C 488.206 -1.6219 -0.115356 0
M  V30 5082 O 489.39 -1.88492 0.0169565 0
M  V30 5083 C 486.517 -3.361 0.418898 0
M  V30 5084 C 485.563 -4.00643 1.46244 0
M  V30 5085 S 486.396 -4.41059 3.03689 0
M  V30 5086 C 487.552 -5.7252 2.52927 0
M  V30 5087 H 487.785 -2.31547 1.86476 0
M  V30 5088 H 485.318 -1.12446 1.05808 0
M  V30 5089 H 487.276 -4.10315 0.123114 0
M  V30 5090 H 485.937 -3.10383 -0.481818 0
M  V30 5091 H 485.13 -4.93033 1.04569 0
M  V30 5092 H 484.732 -3.32767 1.7071 0
M  V30 5093 H 487.024 -6.49017 1.94379 0
M  V30 5094 H 487.967 -6.19026 3.4382 0
M  V30 5095 H 488.375 -5.30083 1.94094 0
M  V30 5096 N 487.773 -1.03688 -1.18687 0
M  V30 5097 C 488.703 -0.645407 -2.24403 0
M  V30 5098 C 489.684 0.349511 -1.66471 0
M  V30 5099 O 490.869 0.230453 -1.92828 0
M  V30 5100 C 487.999 -0.00365337 -3.473 0
M  V30 5101 C 486.953 -0.921705 -4.17958 0
M  V30 5102 C 486.279 -0.144629 -5.34504 0
M  V30 5103 C 487.579 -2.23909 -4.71871 0
M  V30 5104 H 489.273 -1.52917 -2.57404 0
M  V30 5105 H 486.819 -0.736711 -1.23728 0
M  V30 5106 H 488.772 0.281908 -4.20456 0
M  V30 5107 H 487.496 0.914963 -3.13522 0
M  V30 5108 H 486.155 -1.19159 -3.46694 0
M  V30 5109 H 485.803 0.776274 -4.96974 0
M  V30 5110 H 485.503 -0.756206 -5.82714 0
M  V30 5111 H 487.027 0.134004 -6.10453 0
M  V30 5112 H 488.441 -2.0145 -5.36741 0
M  V30 5113 H 486.838 -2.8033 -5.30599 0
M  V30 5114 H 487.908 -2.88822 -3.895 0
M  V30 5115 N 489.251 1.34841 -0.815825 0
M  V30 5116 C 490.161 2.33425 -0.234462 0
M  V30 5117 C 491.177 1.62295 0.627413 0
M  V30 5118 O 492.353 1.94109 0.536987 0
M  V30 5119 C 489.418 3.41471 0.599849 0
M  V30 5120 C 488.479 4.28362 -0.283596 0
M  V30 5121 C 487.712 5.31248 0.51099 0
M  V30 5122 O 487.935 5.43056 1.7449 0
M  V30 5123 O 486.869 6.01812 -0.10297 0
M  V30 5124 H 490.695 2.84962 -1.05024 0
M  V30 5125 H 488.28 1.37774 -0.577809 0
M  V30 5126 H 490.162 4.07464 1.07475 0
M  V30 5127 H 488.837 2.9219 1.39308 0
M  V30 5128 H 487.744 3.65318 -0.805836 0
M  V30 5129 H 489.077 4.81066 -1.041 0
M  V30 5130 N 490.729 0.570148 1.46925 0
M  V30 5131 C 491.954 0.0542592 2.07329 0
M  V30 5132 C 492.379 -1.23582 1.41806 0
M  V30 5133 O 491.737 -1.74341 0.497479 0
M  V30 5134 C 491.785 -0.111175 3.60429 0
M  V30 5135 O 490.889 -1.17071 3.95434 0
M  V30 5136 H 490.23 0.0571425 0.661537 0
M  V30 5137 H 492.76 0.789516 1.88753 0
M  V30 5138 H 492.77 -0.321315 4.06733 0
M  V30 5139 H 491.445 0.831012 4.07513 0
M  V30 5140 H 490.022 -0.940029 3.60857 0
M  V30 5141 N 492.207 -1.54576 0.307264 0
M  V30 5142 C 493.14 -2.19946 -0.608195 0
M  V30 5143 C 494.118 -1.17096 -1.12815 0
M  V30 5144 O 495.302 -1.45766 -1.19518 0
M  V30 5145 C 492.429 -2.84826 -1.8328 0
M  V30 5146 C 491.475 -4.01256 -1.44554 0
M  V30 5147 S 492.308 -5.33197 -0.49612 0
M  V30 5148 C 493.464 -6.01563 -1.72838 0
M  V30 5149 H 493.697 -2.97253 -0.0528544 0
M  V30 5150 H 491.23 -1.54129 0.0913837 0
M  V30 5151 H 493.188 -3.22832 -2.53554 0
M  V30 5152 H 491.849 -2.07353 -2.35931 0
M  V30 5153 H 491.042 -4.45457 -2.35762 0
M  V30 5154 H 490.644 -3.6484 -0.822671 0
M  V30 5155 H 492.936 -6.22751 -2.6681 0
M  V30 5156 H 493.879 -6.9552 -1.32882 0
M  V30 5157 H 494.287 -5.31279 -1.90795 0
M  V30 5158 N 493.685 -0.035106 -1.57561 0
M  V30 5159 C 494.934 0.641604 -1.91223 0
M  V30 5160 C 495.247 1.72944 -0.913761 0
M  V30 5161 O 496.453 2.46321 -1.14185 0
M  V30 5162 C 494.909 1.19249 -3.3957 0
M  V30 5163 C 494.517 0.137616 -4.47789 0
M  V30 5164 C 496.261 1.84537 -3.82291 0
M  V30 5165 C 494.168 0.700478 -5.87237 0
M  V30 5166 H 493.098 0.243417 -0.713627 0
M  V30 5167 H 495.749 -0.101382 -1.8322 0
M  V30 5168 H 494.131 1.98728 -3.42525 0
M  V30 5169 H 495.305 -0.635153 -4.56402 0
M  V30 5170 H 493.62 -0.416855 -4.14308 0
M  V30 5171 H 496.217 2.27616 -4.83834 0
M  V30 5172 H 496.56 2.69054 -3.17672 0
M  V30 5173 H 497.093 1.11739 -3.81784 0
M  V30 5174 H 493.832 -0.106693 -6.55413 0
M  V30 5175 H 493.352 1.4416 -5.82218 0
M  V30 5176 H 495.031 1.18837 -6.35993 0
M  V30 5177 N 495.163 1.55791 0.238111 0
M  V30 5178 C 496.11 1.9105 1.29493 0
M  V30 5179 C 497.08 0.765733 1.47397 0
M  V30 5180 O 498.265 1.02017 1.61236 0
M  V30 5181 C 495.405 2.21826 2.64362 0
M  V30 5182 C 494.518 3.49153 2.54394 0
M  V30 5183 C 493.653 3.69455 3.81676 0
M  V30 5184 C 492.692 4.90353 3.66361 0
M  V30 5185 N 491.829 5.07131 4.85554 0
M  V30 5186 H 496.669 2.81172 0.987233 0
M  V30 5187 H 494.206 1.39179 0.476203 0
M  V30 5188 H 496.164 2.37675 3.4288 0
M  V30 5189 H 494.794 1.34897 2.93262 0
M  V30 5190 H 493.846 3.41587 1.67399 0
M  V30 5191 H 495.158 4.37818 2.38991 0
M  V30 5192 H 494.312 3.85311 4.68636 0
M  V30 5193 H 493.051 2.7904 3.99985 0
M  V30 5194 H 492.056 4.74464 2.77784 0
M  V30 5195 H 493.281 5.82237 3.49538 0
M  V30 5196 H 491.227 4.19654 5.04209 0
M  V30 5197 H 491.144 5.89899 4.72816 0
M  V30 5198 H 492.412 5.27407 5.73988 0
M  V30 5199 N 496.642 -0.504142 1.49319 0
M  V30 5200 C 497.589 -1.60603 1.65756 0
M  V30 5201 C 498.559 -1.58425 0.499082 0
M  V30 5202 O 499.744 -1.76459 0.725728 0
M  V30 5203 C 496.884 -2.98764 1.72726 0
M  V30 5204 C 495.997 -3.10982 2.99857 0
M  V30 5205 C 495.132 -4.39857 2.97824 0
M  V30 5206 C 494.171 -4.45697 4.19548 0
M  V30 5207 N 493.308 -5.65995 4.15444 0
M  V30 5208 H 498.148 -1.45895 2.59843 0
M  V30 5209 H 495.685 -0.709891 1.28837 0
M  V30 5210 H 497.643 -3.78839 1.74747 0
M  V30 5211 H 496.273 -3.12183 0.821075 0
M  V30 5212 H 495.325 -2.23991 3.07461 0
M  V30 5213 H 496.637 -3.11157 3.89849 0
M  V30 5214 H 495.791 -5.2825 2.98391 0
M  V30 5215 H 494.53 -4.42242 2.05604 0
M  V30 5216 H 493.535 -3.55707 4.19229 0
M  V30 5217 H 494.76 -4.4503 5.12957 0
M  V30 5218 H 492.706 -5.69229 3.26059 0
M  V30 5219 H 492.623 -5.67773 4.99169 0
M  V30 5220 H 493.891 -6.56604 4.20109 0
M  V30 5221 N 498.12 -1.38341 -0.754957 0
M  V30 5222 C 499.531 -1.30803 -1.3322 0
M  V30 5223 C 499.882 0.0368 -1.96165 0
M  V30 5224 O 499.007 0.938844 -1.94974 0
M  V30 5225 C 499.602 -2.3688 -2.42225 0
M  V30 5226 C 498.161 -2.32925 -2.95674 0
M  V30 5227 C 497.308 -2.19819 -1.69042 0
M  V30 5228 H 500.259 -1.48719 -0.553937 0
M  V30 5229 H 500.28 -2.02517 -3.22129 0
M  V30 5230 H 499.792 -3.34747 -1.96383 0
M  V30 5231 H 497.893 -1.38635 -3.45848 0
M  V30 5232 H 498.006 -3.27008 -3.50146 0
M  V30 5233 H 496.37 -1.66648 -1.92615 0
M  V30 5234 H 497.153 -3.19625 -1.25279 0
M  V30 5235 N 499.598 0.982988 -1.23187 0
M  V30 5236 C 501.014 1.2487 -0.993967 0
M  V30 5237 C 501.214 1.99155 0.306498 0
M  V30 5238 O 500.27 2.30688 1.0266 0
M  V30 5239 C 501.583 2.05078 -2.19917 0
M  V30 5240 C 503.131 2.18227 -2.2438 0
M  V30 5241 C 503.606 3.01825 -3.44479 0
M  V30 5242 N 505.097 3.09411 -3.44702 0
M  V30 5243 C 505.832 3.74412 -4.34285 0
M  V30 5244 N 505.328 4.41259 -5.341 0
M  V30 5245 N 507.121 3.71273 -4.22035 0
M  V30 5246 H 499.272 0.485253 -2.06783 0
M  V30 5247 H 501.535 0.276979 -0.906635 0
M  V30 5248 H 501.241 1.57867 -3.14279 0
M  V30 5249 H 501.115 3.05829 -2.2079 0
M  V30 5250 H 503.502 2.64648 -1.30559 0
M  V30 5251 H 503.583 1.16873 -2.2754 0
M  V30 5252 H 503.227 2.56102 -4.38605 0
M  V30 5253 H 503.157 4.03342 -3.38559 0
M  V30 5254 H 505.648 2.61845 -2.7248 0
M  V30 5255 H 505.961 4.88629 -5.98717 0
M  V30 5256 H 504.306 4.39975 -5.38002 0
M  V30 5257 H 507.497 3.18217 -3.43301 0
M  V30 5258 H 507.67 4.21649 -4.92053 0
M  V30 5259 N 501.076 1.04316 1.18135 0
M  V30 5260 C 502.487 0.775505 1.69832 0
M  V30 5261 C 502.838 -0.703348 1.8316 0
M  V30 5262 O 501.963 -1.54729 1.51287 0
M  V30 5263 C 502.558 1.40112 3.0847 0
M  V30 5264 C 501.117 1.18172 3.57368 0
M  V30 5265 C 500.264 1.49022 2.33854 0
M  V30 5266 H 503.215 1.20925 1.02775 0
M  V30 5267 H 503.236 0.805672 3.71873 0
M  V30 5268 H 502.748 2.47744 2.98738 0
M  V30 5269 H 500.849 0.124258 3.72393 0
M  V30 5270 H 500.962 1.8805 4.40652 0
M  V30 5271 H 499.326 0.909995 2.37889 0
M  V30 5272 H 500.109 2.57768 2.26738 0
M  V30 5273 N 502.554 -1.34406 0.822964 0
M  V30 5274 C 503.782 -2.02508 0.424039 0
M  V30 5275 C 504.197 -1.61975 -0.970022 0
M  V30 5276 O 503.554 -0.825228 -1.62777 0
M  V30 5277 C 503.605 -3.57789 0.516657 0
M  V30 5278 O 503.326 -3.96853 1.85577 0
M  V30 5279 C 504.827 -4.43157 0.112637 0
M  V30 5280 H 502.047 -0.649063 0.170173 0
M  V30 5281 H 504.591 -1.7168 1.11113 0
M  V30 5282 H 502.746 -3.87207 -0.122353 0
M  V30 5283 H 503.16 -4.91538 1.83005 0
M  V30 5284 H 504.634 -5.51527 0.228526 0
M  V30 5285 H 505.111 -4.28939 -0.943837 0
M  V30 5286 H 505.717 -4.19067 0.725449 0
M  V30 5287 N 504.032 -0.577932 -1.46621 0
M  V30 5288 C 505.448 -0.239242 -1.57797 0
M  V30 5289 C 505.648 1.25843 -1.57371 0
M  V30 5290 O 504.704 2.03988 -1.48813 0
M  V30 5291 C 506.017 -0.884227 -2.87405 0
M  V30 5292 C 507.565 -0.857373 -3.01028 0
M  V30 5293 C 508.04 -1.48181 -4.33366 0
M  V30 5294 N 509.531 -1.44593 -4.40053 0
M  V30 5295 C 510.266 -1.89852 -5.41058 0
M  V30 5296 N 509.762 -2.43062 -6.48762 0
M  V30 5297 N 511.555 -1.80797 -5.3223 0
M  V30 5298 H 503.706 -1.55073 -1.45142 0
M  V30 5299 H 505.969 -0.647903 -0.692044 0
M  V30 5300 H 505.675 -1.93759 -2.93514 0
M  V30 5301 H 505.549 -0.389585 -3.75183 0
M  V30 5302 H 507.936 0.187357 -2.94505 0
M  V30 5303 H 508.017 -1.38999 -2.14739 0
M  V30 5304 H 507.661 -2.52572 -4.40647 0
M  V30 5305 H 507.591 -0.924464 -5.18422 0
M  V30 5306 H 510.082 -1.05694 -3.62819 0
M  V30 5307 H 510.395 -2.75466 -7.22038 0
M  V30 5308 H 508.74 -2.47085 -6.49595 0
M  V30 5309 H 511.931 -1.38989 -4.46989 0
M  V30 5310 H 512.104 -2.16385 -6.10804 0
M  V30 5311 N 505.51 1.54411 -0.315457 0
M  V30 5312 C 506.473 2.22713 0.54142 0
M  V30 5313 C 507.473 1.2179 1.04995 0
M  V30 5314 O 508.663 1.46426 0.943667 0
M  V30 5315 C 505.795 2.92485 1.75116 0
M  V30 5316 H 506.988 2.99849 -0.0555508 0
M  V30 5317 H 504.541 1.56159 -0.0664453 0
M  V30 5318 H 505.276 2.19466 2.38758 0
M  V30 5319 H 505.061 3.66483 1.39401 0
M  V30 5320 H 506.551 3.44548 2.35959 0
M  V30 5321 N 506.988 0.0434614 1.5754 0
M  V30 5322 C 507.898 -0.94893 2.14552 0
M  V30 5323 C 508.914 -1.34707 1.10136 0
M  V30 5324 O 510.09 -1.42557 1.42266 0
M  V30 5325 C 507.155 -2.208 2.67298 0
M  V30 5326 C 506.216 -1.86893 3.86484 0
M  V30 5327 C 505.449 -3.06797 4.36705 0
M  V30 5328 O 505.672 -4.19921 3.86034 0
M  V30 5329 O 504.606 -2.8826 5.28384 0
M  V30 5330 H 508.432 -0.494099 2.99654 0
M  V30 5331 H 506.017 -0.177989 1.48336 0
M  V30 5332 H 507.899 -2.94686 3.01228 0
M  V30 5333 H 506.574 -2.65436 1.85272 0
M  V30 5334 H 505.481 -1.10347 3.57455 0
M  V30 5335 H 506.814 -1.47062 4.69716 0
M  V30 5336 N 508.466 -1.55915 -0.229846 0
M  V30 5337 C 509.714 -1.7819 -0.953565 0
M  V30 5338 C 510.035 -0.610504 -1.85197 0
M  V30 5339 O 509.305 0.372988 -1.92316 0
M  V30 5340 H 507.885 -0.657208 -0.355087 0
M  V30 5341 H 510.547 -1.9337 -0.243693 0
M  V30 5342 H 509.643 -2.70011 -1.56527 0
M  V30 5343 N 509.944 0.496216 -1.49584 0
M  V30 5344 C 511.169 1.27865 -1.63295 0
M  V30 5345 C 511.594 1.85592 -0.306156 0
M  V30 5346 O 510.952 1.66092 0.726851 0
M  V30 5347 C 511 2.38128 -2.7079 0
M  V30 5348 O 510.104 3.42108 -2.30296 0
M  V30 5349 H 509.445 0.377279 -0.546403 0
M  V30 5350 H 511.975 0.593497 -1.95803 0
M  V30 5351 H 511.985 2.8382 -2.93104 0
M  V30 5352 H 510.66 1.95479 -3.67098 0
M  V30 5353 H 509.237 3.02301 -2.18331 0
M  V30 5354 N 511.423 1.38739 0.74761 0
M  V30 5355 C 512.7 1.25791 1.49786 0
M  V30 5356 C 513.08 -0.138075 2.10648 0
M  V30 5357 O 512.428 -1.14815 1.9756 0
M  V30 5358 C 512.638 2.37265 2.55942 0
M  V30 5359 C 513.986 2.75978 3.22679 0
M  V30 5360 O 515.01 2.36621 2.6625 0
M  V30 5361 O 513.869 3.43867 4.24756 0
M  V30 5362 H 510.963 0.492251 0.664543 0
M  V30 5363 H 513.509 1.50582 0.782511 0
M  V30 5364 H 512.281 3.30644 2.0926 0
M  V30 5365 H 511.904 2.14071 3.35051 0
M  V30 5366 N 512.901 -0.976442 1.23707 0
M  V30 5367 C 514.147 -1.72081 1.07312 0
M  V30 5368 C 514.48 -1.90275 -0.388476 0
M  V30 5369 O 513.755 -1.4579 -1.28746 0
M  V30 5370 C 514.038 -3.11675 1.80363 0
M  V30 5371 C 513.891 -3.01027 3.3422 0
M  V30 5372 C 515.21 -4.1117 1.5693 0
M  V30 5373 H 512.329 -0.624583 0.391236 0
M  V30 5374 H 514.971 -1.13649 1.52263 0
M  V30 5375 H 513.121 -3.61559 1.42153 0
M  V30 5376 H 514.793 -2.58637 3.81975 0
M  V30 5377 H 513.036 -2.3744 3.63049 0
M  V30 5378 H 513.707 -3.9988 3.80525 0
M  V30 5379 H 516.183 -3.7011 1.90151 0
M  V30 5380 H 515.059 -5.06928 2.10513 0
M  V30 5381 H 515.32 -4.392 0.505548 0
M  V30 5382 N 514.379 -1.04941 -1.1758 0
M  V30 5383 C 515.342 -0.652456 -2.19717 0
M  V30 5384 C 516.342 0.294745 -1.58076 0
M  V30 5385 O 517.532 0.0789579 -1.74021 0
M  V30 5386 C 514.664 0.0420712 -3.40874 0
M  V30 5387 H 515.857 -1.55642 -2.5635 0
M  V30 5388 H 513.41 -0.842995 -1.31618 0
M  V30 5389 H 514.145 0.95943 -3.09783 0
M  V30 5390 H 513.93 -0.638844 -3.86861 0
M  V30 5391 H 515.42 0.306 -4.16477 0
M  V30 5392 N 515.857 1.33968 -0.830081 0
M  V30 5393 C 516.805 2.31301 -0.245435 0
M  V30 5394 C 517.799 1.57734 0.617762 0
M  V30 5395 O 519.005 1.72674 0.508303 0
M  V30 5396 H 515.38 0.749552 -0.0606316 0
M  V30 5397 H 517.351 2.78129 -1.08105 0
M  V30 5398 C 516.1 3.42961 0.572084 0
M  V30 5399 H 515.423 3.99714 -0.0828118 0
M  V30 5400 H 516.863 4.13286 0.94715 0
M  V30 5401 C 515.322 2.88043 1.74737 0
M  V30 5402 O 515.852 2.83508 2.8458 0
M  V30 5403 N 514.058 2.44768 1.56642 0
M  V30 5404 H 513.605 2.48656 0.672901 0
M  V30 5405 H 513.563 2.08375 2.3543 0
M  V30 5406 N 517.335 0.585699 1.46312 0
M  V30 5407 C 518.298 -0.135673 2.28798 0
M  V30 5408 C 519.298 -0.815988 1.38558 0
M  V30 5409 O 520.488 -0.667487 1.60904 0
M  V30 5410 C 517.62 -1.20163 3.1902 0
M  V30 5411 H 518.813 0.589257 2.94054 0
M  V30 5412 H 516.366 0.343794 1.52472 0
M  V30 5413 H 517.101 -1.95804 2.58517 0
M  V30 5414 H 516.886 -0.718282 3.85465 0
M  V30 5415 H 518.376 -1.70749 3.81096 0
M  V30 5416 N 518.813 -1.54241 0.323641 0
M  V30 5417 C 520.059 -2.00867 -0.279323 0
M  V30 5418 C 520.392 -1.21146 -1.5178 0
M  V30 5419 O 519.667 -0.29378 -1.92269 0
M  V30 5420 C 519.95 -3.54837 -0.613387 0
M  V30 5421 C 519.803 -4.45284 0.635803 0
M  V30 5422 C 521.122 -4.16186 -1.43099 0
M  V30 5423 H 518.241 -0.730177 -0.100049 0
M  V30 5424 H 520.883 -1.84829 0.440235 0
M  V30 5425 H 519.033 -3.68634 -1.22641 0
M  V30 5426 H 520.705 -4.43357 1.27406 0
M  V30 5427 H 518.948 -4.14956 1.26466 0
M  V30 5428 H 519.619 -5.5084 0.357597 0
M  V30 5429 H 522.095 -4.05964 -0.912814 0
M  V30 5430 H 520.971 -5.24031 -1.6335 0
M  V30 5431 H 521.232 -3.69516 -2.42715 0
M  V30 5432 N 520.291 -0.0518155 -1.57515 0
M  V30 5433 C 521.221 0.920283 -2.146 0
M  V30 5434 C 522.202 1.32406 -1.06783 0
M  V30 5435 O 523.387 1.39866 -1.34726 0
M  V30 5436 C 520.517 2.1949 -2.6915 0
M  V30 5437 C 519.471 1.93116 -3.81956 0
M  V30 5438 C 518.797 3.27037 -4.23026 0
M  V30 5439 C 520.097 1.25225 -5.07066 0
M  V30 5440 H 521.791 0.444801 -2.96077 0
M  V30 5441 H 519.337 0.212508 -1.42423 0
M  V30 5442 H 521.29 2.87894 -3.07725 0
M  V30 5443 H 520.014 2.69244 -1.84865 0
M  V30 5444 H 518.673 1.27123 -3.43854 0
M  V30 5445 H 518.321 3.74595 -3.3569 0
M  V30 5446 H 518.021 3.10189 -4.99056 0
M  V30 5447 H 519.545 3.96673 -4.64202 0
M  V30 5448 H 520.959 1.83666 -5.43083 0
M  V30 5449 H 519.356 1.18702 -5.88243 0
M  V30 5450 H 520.426 0.228382 -4.84362 0
M  V30 5451 N 521.769 1.56035 0.221574 0
M  V30 5452 C 523.046 1.69837 0.970301 0
M  V30 5453 C 523.426 0.599065 2.02421 0
M  V30 5454 O 522.774 -0.393929 2.25079 0
M  V30 5455 C 522.984 3.11148 1.58076 0
M  V30 5456 C 524.332 3.70555 2.07302 0
M  V30 5457 O 525.356 3.14109 1.6797 0
M  V30 5458 O 524.215 4.69562 2.79596 0
M  V30 5459 H 521.309 0.691727 0.453257 0
M  V30 5460 H 523.855 1.68353 0.213358 0
M  V30 5461 H 522.627 3.82617 0.819759 0
M  V30 5462 H 522.25 3.16749 2.40324 0
M  V30 5463 N 523.247 -0.488276 1.49845 0
M  V30 5464 C 524.495 -1.23911 1.59657 0
M  V30 5465 C 524.816 -1.92816 0.291005 0
M  V30 5466 O 524.086 -1.83328 -0.690485 0
M  V30 5467 H 522.666 -0.460357 0.588286 0
M  V30 5468 H 525.328 -0.564794 1.86537 0
M  V30 5469 H 524.424 -1.99625 2.39909 0
M  V30 5470 N 524.725 -1.39134 -0.740242 0
M  V30 5471 C 525.688 -1.37217 -1.83587 0
M  V30 5472 C 526.688 -0.270221 -1.58513 0
M  V30 5473 O 527.878 -0.527843 -1.6601 0
M  V30 5474 C 525.01 -1.13959 -3.21288 0
M  V30 5475 H 526.203 -2.34705 -1.86691 0
M  V30 5476 H 523.756 -1.24622 -0.94335 0
M  V30 5477 H 524.491 -0.17131 -3.23847 0
M  V30 5478 H 524.276 -1.93754 -3.40884 0
M  V30 5479 H 525.766 -1.15346 -4.01354 0
M  V30 5480 N 526.204 0.969867 -1.24223 0
M  V30 5481 C 527.481 1.68774 -0.988664 0
M  V30 5482 C 527.861 2.05342 0.489673 0
M  V30 5483 O 527.209 1.75486 1.46345 0
M  V30 5484 C 527.419 2.92135 -1.90941 0
M  V30 5485 C 528.767 3.64422 -2.17903 0
M  V30 5486 O 529.791 3.02188 -1.88576 0
M  V30 5487 O 528.65 4.76446 -2.67697 0
M  V30 5488 H 525.744 0.737736 -0.37373 0
M  V30 5489 H 528.29 1.02415 -1.35312 0
M  V30 5490 H 527.062 2.61788 -2.90831 0
M  V30 5491 H 526.685 3.66228 -1.54798 0
M  V30 5492 N 527.682 1.05563 1.17022 0
M  V30 5493 C 528.922 0.777033 1.89054 0
M  V30 5494 C 529.286 -0.683617 1.79418 0
M  V30 5495 O 530.487 -1.07648 2.46303 0
M  V30 5496 C 528.758 1.24886 3.34871 0
M  V30 5497 S 530.317 1.0982 4.24835 0
M  V30 5498 H 527.135 0.282082 0.652649 0
M  V30 5499 H 529.737 1.35103 1.41306 0
M  V30 5500 H 528.441 2.30699 3.3942 0
M  V30 5501 H 527.972 0.669292 3.87665 0
M  V30 5502 H 529.987 0.02462 4.96194 0
M  V30 5503 N 529.16 -1.33526 0.837174 0
M  V30 5504 C 530.409 -1.97098 0.428387 0
M  V30 5505 C 530.722 -1.67062 -1.01734 0
M  V30 5506 O 531.928 -2.24235 -1.53072 0
M  V30 5507 C 530.384 -3.52725 0.715075 0
M  V30 5508 C 529.992 -3.9164 2.17537 0
M  V30 5509 C 531.736 -4.22857 0.373154 0
M  V30 5510 C 529.643 -5.40237 2.40619 0
M  V30 5511 H 528.573 -0.737589 0.156455 0
M  V30 5512 H 531.224 -1.52169 1.02552 0
M  V30 5513 H 529.606 -3.95971 0.0475904 0
M  V30 5514 H 530.78 -3.59456 2.88319 0
M  V30 5515 H 529.095 -3.34485 2.4801 0
M  V30 5516 H 531.692 -5.32133 0.523264 0
M  V30 5517 H 532.035 -4.10647 -0.683708 0
M  V30 5518 H 532.568 -3.85135 0.995801 0
M  V30 5519 H 529.307 -5.57449 3.44864 0
M  V30 5520 H 528.827 -5.73887 1.74396 0
M  V30 5521 H 530.506 -6.07102 2.23688 0
M  V30 5522 N 530.638 -0.59345 -1.46 0
M  V30 5523 C 531.571 0.182196 -2.27472 0
M  V30 5524 C 532.549 0.886901 -1.36282 0
M  V30 5525 O 533.733 0.898627 -1.65701 0
M  V30 5526 C 530.86 1.26236 -3.14296 0
M  V30 5527 C 529.906 0.662331 -4.21326 0
M  V30 5528 S 530.739 -0.519017 -5.32979 0
M  V30 5529 C 531.895 0.562086 -6.23371 0
M  V30 5530 H 532.128 -0.509056 -2.92909 0
M  V30 5531 H 529.661 -0.380607 -1.49635 0
M  V30 5532 H 531.619 1.88075 -3.64881 0
M  V30 5533 H 530.28 1.92562 -2.48151 0
M  V30 5534 H 529.473 1.47461 -4.81945 0
M  V30 5535 H 529.075 0.119381 -3.73809 0
M  V30 5536 H 531.367 1.44494 -6.61912 0
M  V30 5537 H 532.31 -0.00760776 -7.081 0
M  V30 5538 H 532.718 0.871061 -5.57739 0
M  V30 5539 N 532.116 1.54067 -0.331816 0
M  V30 5540 C 533.046 2.27569 0.522932 0
M  V30 5541 C 534.027 1.28679 1.11247 0
M  V30 5542 O 535.212 1.57504 1.13605 0
M  V30 5543 C 532.342 3.0397 1.67987 0
M  V30 5544 C 531.296 4.10267 1.21924 0
M  V30 5545 C 530.622 4.74555 2.46377 0
M  V30 5546 C 531.922 5.21268 0.32815 0
M  V30 5547 H 533.616 2.99264 -0.0901977 0
M  V30 5548 H 531.162 1.4393 -0.044821 0
M  V30 5549 H 533.115 3.54123 2.28418 0
M  V30 5550 H 531.839 2.29906 2.31971 0
M  V30 5551 H 530.498 3.61009 0.637809 0
M  V30 5552 H 530.146 3.97098 3.08743 0
M  V30 5553 H 529.846 5.46363 2.16243 0
M  V30 5554 H 531.37 5.27487 3.07555 0
M  V30 5555 H 532.784 5.67128 0.838978 0
M  V30 5556 H 531.181 5.99982 0.119228 0
M  V30 5557 H 532.251 4.80673 -0.638839 0
M  V30 5558 N 533.594 0.0601682 1.57485 0
M  V30 5559 C 534.819 -0.624416 1.97777 0
M  V30 5560 C 535.244 -1.63051 0.937867 0
M  V30 5561 O 534.602 -1.81036 -0.0978845 0
M  V30 5562 C 534.65 -1.27979 3.37126 0
M  V30 5563 O 533.754 -2.39556 3.35688 0
M  V30 5564 H 533.095 -0.161581 0.64404 0
M  V30 5565 H 535.625 0.131237 2.04179 0
M  V30 5566 H 535.635 -1.62937 3.74053 0
M  V30 5567 H 534.31 -0.542501 4.12347 0
M  V30 5568 H 532.887 -2.06478 3.10517 0
M  V30 5569 N 535.072 -1.5615 -0.213296 0
M  V30 5570 C 536.32 -1.79191 -0.934612 0
M  V30 5571 C 536.641 -0.630112 -1.84539 0
M  V30 5572 O 535.911 0.35257 -1.92701 0
M  V30 5573 H 534.491 -0.660937 -0.348097 0
M  V30 5574 H 537.153 -1.93618 -0.22317 0
M  V30 5575 H 536.249 -2.71656 -1.53654 0
M  V30 5576 N 536.55 0.480323 -1.50102 0
M  V30 5577 C 537.46 1.60547 -1.71061 0
M  V30 5578 C 538.476 1.63564 -0.593529 0
M  V30 5579 O 539.652 1.81604 -0.870751 0
M  V30 5580 C 536.717 2.96814 -1.79171 0
M  V30 5581 C 535.778 3.04259 -3.02861 0
M  V30 5582 C 535.011 4.34027 -3.10574 0
M  V30 5583 O 535.234 5.24009 -2.25323 0
M  V30 5584 O 534.168 4.46873 -4.03223 0
M  V30 5585 H 537.994 1.45788 -2.6642 0
M  V30 5586 H 535.579 0.658838 -1.34088 0
M  V30 5587 H 537.461 3.77765 -1.86738 0
M  V30 5588 H 536.136 3.11791 -0.869947 0
M  V30 5589 H 535.043 2.22419 -3.008 0
M  V30 5590 H 536.376 2.94216 -3.94586 0
M  V30 5591 N 538.028 1.39524 0.732853 0
M  V30 5592 C 539.256 1.40143 1.52209 0
M  V30 5593 C 539.671 -0.00348836 1.888 0
M  V30 5594 O 539.028 -0.975357 1.5425 0
M  V30 5595 C 539.079 2.27632 2.8083 0
M  V30 5596 O 538.8 3.62654 2.45792 0
M  V30 5597 C 540.301 2.36658 3.74844 0
M  V30 5598 H 537.521 0.478604 0.470297 0
M  V30 5599 H 540.065 1.83366 0.905388 0
M  V30 5600 H 538.22 1.87818 3.38826 0
M  V30 5601 H 538.634 4.08941 3.28431 0
M  V30 5602 H 540.108 3.02118 4.61984 0
M  V30 5603 H 540.585 1.38638 4.16745 0
M  V30 5604 H 541.191 2.76951 3.22766 0
M  V30 5605 N 539.506 -0.963266 1.24736 0
M  V30 5606 C 540.469 -2.04013 1.04457 0
M  V30 5607 C 541.469 -1.608 0.000335555 0
M  V30 5608 O 542.659 -1.72515 0.241719 0
M  V30 5609 C 539.791 -3.35858 0.584162 0
M  V30 5610 H 540.984 -2.23436 2.00041 0
M  V30 5611 H 538.537 -1.13914 1.07021 0
M  V30 5612 H 539.272 -3.22128 -0.374673 0
M  V30 5613 H 539.057 -3.68568 1.3379 0
M  V30 5614 H 540.547 -4.1502 0.463451 0
M  V30 5615 N 540.985 -1.06182 -1.16461 0
M  V30 5616 C 541.932 -0.671613 -2.20812 0
M  V30 5617 C 542.902 0.331186 -1.62765 0
M  V30 5618 O 544.087 0.22033 -1.89524 0
M  V30 5619 C 541.227 -0.063029 -3.45042 0
M  V30 5620 C 540.34 -1.11587 -4.1734 0
M  V30 5621 C 539.475 -0.473546 -5.29085 0
M  V30 5622 C 538.514 -1.51 -5.93182 0
M  V30 5623 N 537.651 -0.891118 -6.96422 0
M  V30 5624 H 542.491 -1.56589 -2.53542 0
M  V30 5625 H 540.028 -0.782951 -1.24532 0
M  V30 5626 H 541.986 0.307344 -4.16066 0
M  V30 5627 H 540.616 0.794663 -3.12866 0
M  V30 5628 H 539.668 -1.60396 -3.44931 0
M  V30 5629 H 540.98 -1.90221 -4.61104 0
M  V30 5630 H 540.134 -0.0501432 -6.06679 0
M  V30 5631 H 538.873 0.344687 -4.8648 0
M  V30 5632 H 537.878 -1.94331 -5.14311 0
M  V30 5633 H 539.103 -2.33031 -6.37866 0
M  V30 5634 H 537.049 -0.0935753 -6.55933 0
M  V30 5635 H 536.966 -1.61486 -7.38551 0
M  V30 5636 H 538.234 -0.492822 -7.77941 0
M  V30 5637 N 542.463 1.3308 -0.844243 0
M  V30 5638 C 543.711 1.97215 -0.441676 0
M  V30 5639 C 544.032 1.67185 1.0037 0
M  V30 5640 O 543.302 0.973588 1.69994 0
M  V30 5641 H 541.882 0.72959 -0.160335 0
M  V30 5642 H 544.544 1.62348 -1.07838 0
M  V30 5643 H 543.64 3.06698 -0.57815 0
M  V30 5644 N 543.941 0.601185 1.45683 0
M  V30 5645 C 545.218 0.0261659 1.95582 0
M  V30 5646 C 545.598 -1.4399 1.5437 0
M  V30 5647 O 544.946 -2.13919 0.80318 0
M  V30 5648 C 545.156 0.217557 3.48321 0
M  V30 5649 C 546.504 0.0950076 4.24494 0
M  V30 5650 O 547.528 0.147345 3.55895 0
M  V30 5651 O 546.387 -0.025261 5.46494 0
M  V30 5652 H 543.481 -0.0393688 0.826062 0
M  V30 5653 H 546.027 0.670798 1.55879 0
M  V30 5654 H 544.799 1.23601 3.71266 0
M  V30 5655 H 544.422 -0.46264 3.94899 0
M  V30 5656 N 545.419 -1.53889 0.339982 0
M  V30 5657 C 546.649 -2.04973 -0.258738 0
M  V30 5658 C 547.057 -1.21485 -1.45045 0
M  V30 5659 O 546.4 -0.2422 -1.82096 0
M  V30 5660 C 546.462 -3.51783 -0.740853 0
M  V30 5661 C 546.126 -4.55802 0.330734 0
M  V30 5662 C 547.123 -5.06512 1.17226 0
M  V30 5663 C 544.808 -4.99966 0.483637 0
M  V30 5664 C 546.802 -5.99963 2.15227 0
M  V30 5665 C 544.489 -5.93229 1.46704 0
M  V30 5666 C 545.487 -6.43115 2.29981 0
M  V30 5667 O 545.175 -7.34545 3.26649 0
M  V30 5668 H 544.907 -0.673807 -0.0544037 0
M  V30 5669 H 547.461 -1.99492 0.489107 0
M  V30 5670 H 545.691 -3.54717 -1.53988 0
M  V30 5671 H 547.38 -3.85857 -1.25973 0
M  V30 5672 H 548.146 -4.73158 1.0652 0
M  V30 5673 H 544.025 -4.6074 -0.15471 0
M  V30 5674 H 547.569 -6.38825 2.80265 0
M  V30 5675 H 543.466 -6.25998 1.57468 0
M  V30 5676 H 544.234 -7.52468 3.22078 0
M  V30 5677 N 546.897 -0.0685191 -1.57451 0
M  V30 5678 C 548.308 0.464634 -1.80826 0
M  V30 5679 C 548.659 1.69847 -0.982169 0
M  V30 5680 O 547.784 2.15439 -0.203734 0
M  V30 5681 C 548.379 0.849721 -3.27971 0
M  V30 5682 C 546.938 1.32776 -3.52204 0
M  V30 5683 C 546.085 0.311332 -2.75547 0
M  V30 5684 H 549.036 -0.294248 -1.55948 0
M  V30 5685 H 549.057 1.71138 -3.39841 0
M  V30 5686 H 548.569 -0.0484736 -3.8807 0
M  V30 5687 H 546.67 2.24456 -2.97406 0
M  V30 5688 H 546.783 1.30794 -4.60901 0
M  V30 5689 H 545.147 0.787915 -2.42206 0
M  V30 5690 H 545.93 -0.579078 -3.38381 0
M  V30 5691 N 548.375 1.56261 0.205012 0
M  V30 5692 C 549.305 1.96779 1.257 0
M  V30 5693 C 550.286 0.838309 1.48008 0
M  V30 5694 O 551.471 1.10189 1.59913 0
M  V30 5695 C 548.601 2.29876 2.60335 0
M  V30 5696 C 547.555 3.45469 2.52656 0
M  V30 5697 C 546.881 3.64215 3.91473 0
M  V30 5698 C 548.181 4.79954 2.06014 0
M  V30 5699 H 549.875 2.84904 0.920338 0
M  V30 5700 H 547.421 1.37072 0.441277 0
M  V30 5701 H 549.374 2.56814 3.34102 0
M  V30 5702 H 548.098 1.38622 2.95722 0
M  V30 5703 H 546.757 3.18605 1.81345 0
M  V30 5704 H 546.405 2.70309 4.24196 0
M  V30 5705 H 546.105 4.41973 3.87213 0
M  V30 5706 H 547.629 3.93519 4.66878 0
M  V30 5707 H 549.043 5.05989 2.69533 0
M  V30 5708 H 547.44 5.61111 2.12777 0
M  V30 5709 H 548.51 4.74201 1.01297 0
M  V30 5710 N 549.853 -0.472356 1.50355 0
M  V30 5711 C 550.763 -1.59637 1.7191 0
M  V30 5712 C 551.779 -1.63247 0.602195 0
M  V30 5713 O 552.955 -1.81139 0.880369 0
M  V30 5714 C 550.02 -2.9586 1.80742 0
M  V30 5715 C 549.081 -3.02649 3.04471 0
M  V30 5716 C 548.314 -4.32374 3.12872 0
M  V30 5717 O 548.537 -5.22807 2.28099 0
M  V30 5718 O 547.471 -4.44728 4.05587 0
M  V30 5719 H 551.297 -1.44373 2.67189 0
M  V30 5720 H 548.882 -0.651717 1.34436 0
M  V30 5721 H 550.764 -3.7677 1.88739 0
M  V30 5722 H 549.439 -3.11325 0.88647 0
M  V30 5723 H 548.346 -2.20821 3.01975 0
M  V30 5724 H 549.679 -2.92119 3.9614 0
M  V30 5725 N 551.331 -1.39911 -0.725443 0
M  V30 5726 C 552.294 -1.39156 -1.82121 0
M  V30 5727 C 553.294 -0.287018 -1.58218 0
M  V30 5728 O 554.484 -0.545421 -1.65441 0
M  V30 5729 C 551.616 -1.1736 -3.20062 0
M  V30 5730 H 552.809 -2.36672 -1.84191 0
M  V30 5731 H 550.362 -1.25615 -0.930079 0
M  V30 5732 H 551.097 -0.205648 -3.23647 0
M  V30 5733 H 550.882 -1.97358 -3.3881 0
M  V30 5734 H 552.372 -1.19596 -4.00108 0
M  V30 5735 N 552.809 0.956637 -1.25245 0
M  V30 5736 C 554.055 1.70352 -1.10036 0
M  V30 5737 C 554.388 1.90869 0.358156 0
M  V30 5738 O 553.663 1.47819 1.26411 0
M  V30 5739 C 553.946 3.08766 -1.85298 0
M  V30 5740 C 553.799 2.95672 -3.38966 0
M  V30 5741 C 555.118 4.08622 -1.63451 0
M  V30 5742 H 552.237 0.618279 -0.401123 0
M  V30 5743 H 554.879 1.11212 -1.54051 0
M  V30 5744 H 553.029 3.59252 -1.47887 0
M  V30 5745 H 554.701 2.52527 -3.86041 0
M  V30 5746 H 552.944 2.31634 -3.6678 0
M  V30 5747 H 553.615 3.93776 -3.86839 0
M  V30 5748 H 556.091 3.67038 -1.96015 0
M  V30 5749 H 554.967 5.03514 -2.18551 0
M  V30 5750 H 555.228 4.3834 -0.575357 0
M  V30 5751 N 554.287 1.06798 1.15896 0
M  V30 5752 C 555.703 0.792423 1.38538 0
M  V30 5753 C 555.903 -0.60592 1.92174 0
M  V30 5754 O 554.959 -1.36561 2.12385 0
M  V30 5755 C 556.272 1.86157 2.36149 0
M  V30 5756 C 557.82 1.88567 2.49823 0
M  V30 5757 C 558.295 2.9455 3.5072 0
M  V30 5758 N 559.786 2.93616 3.58251 0
M  V30 5759 C 560.521 3.72267 4.36125 0
M  V30 5760 N 560.017 4.60751 5.17379 0
M  V30 5761 N 561.81 3.60637 4.31158 0
M  V30 5762 H 553.961 1.96993 0.794198 0
M  V30 5763 H 556.224 0.853942 0.411688 0
M  V30 5764 H 555.93 2.86603 2.03843 0
M  V30 5765 H 555.804 1.71692 3.3586 0
M  V30 5766 H 558.191 0.887765 2.8143 0
M  V30 5767 H 558.272 2.0711 1.5013 0
M  V30 5768 H 557.916 3.94537 3.19849 0
M  V30 5769 H 557.846 2.73255 4.50155 0
M  V30 5770 H 560.337 2.29472 3.00252 0
M  V30 5771 H 560.65 5.17408 5.74028 0
M  V30 5772 H 558.995 4.64803 5.16704 0
M  V30 5773 H 562.186 2.90892 3.66742 0
M  V30 5774 H 562.359 4.22176 4.91601 0
M  V30 5775 N 555.766 -1.3263 0.851289 0
M  V30 5776 C 556.699 -2.26952 0.238318 0
M  V30 5777 C 557.677 -1.50243 -0.621757 0
M  V30 5778 O 558.861 -1.79378 -0.579298 0
M  V30 5779 C 555.988 -3.32124 -0.664178 0
M  V30 5780 C 555.034 -4.26325 0.122067 0
M  V30 5781 S 555.867 -5.14404 1.48824 0
M  V30 5782 C 557.023 -6.231 0.591372 0
M  V30 5783 H 557.256 -2.78594 1.03791 0
M  V30 5784 H 554.789 -1.4011 0.648731 0
M  V30 5785 H 556.747 -3.93197 -1.17924 0
M  V30 5786 H 555.408 -2.79273 -1.43755 0
M  V30 5787 H 554.601 -5.00821 -0.565181 0
M  V30 5788 H 554.203 -3.69652 0.568602 0
M  V30 5789 H 556.495 -6.77187 -0.205762 0
M  V30 5790 H 557.438 -6.95936 1.30687 0
M  V30 5791 H 557.846 -5.64252 0.167206 0
M  V30 5792 N 557.244 -0.608902 -1.45362 0
M  V30 5793 C 558.176 0.147318 -2.28726 0
M  V30 5794 C 559.189 0.830468 -1.40025 0
M  V30 5795 O 560.378 0.695636 -1.64387 0
M  V30 5796 C 557.478 1.22968 -3.15804 0
M  V30 5797 C 556.651 0.633391 -4.3279 0
M  V30 5798 C 555.71 1.60682 -5.01067 0
M  V30 5799 O 554.736 1.13261 -5.57818 0
M  V30 5800 N 555.938 2.94123 -5.00472 0
M  V30 5801 H 558.703 -0.568014 -2.94268 0
M  V30 5802 H 556.264 -0.448479 -1.55564 0
M  V30 5803 H 558.256 1.88072 -3.58345 0
M  V30 5804 H 556.826 1.84752 -2.52162 0
M  V30 5805 H 556.046 -0.195762 -3.93714 0
M  V30 5806 H 557.334 0.215255 -5.08344 0
M  V30 5807 H 556.732 3.3525 -4.55657 0
M  V30 5808 H 555.289 3.54646 -5.46872 0
M  V30 5809 N 558.722 1.53707 -0.348139 0
M  V30 5810 C 559.672 2.2193 0.522592 0
M  V30 5811 C 560.656 1.20831 1.06248 0
M  V30 5812 O 561.848 1.46357 0.995415 0
M  V30 5813 C 558.977 2.99904 1.6707 0
M  V30 5814 C 558.063 4.08364 1.14454 0
M  V30 5815 N 558.454 5.04656 0.339958 0
M  V30 5816 C 556.752 4.22757 1.421 0
M  V30 5817 C 557.453 5.81675 0.0538806 0
M  V30 5818 N 556.429 5.39739 0.646776 0
M  V30 5819 H 560.231 2.93733 -0.099135 0
M  V30 5820 H 557.745 1.61656 -0.15524 0
M  V30 5821 H 559.742 3.47284 2.30651 0
M  V30 5822 H 558.402 2.29629 2.29566 0
M  V30 5823 H 559.413 5.17896 -0.0193552 0
M  V30 5824 H 556.09 3.63704 2.05002 0
M  V30 5825 H 557.48 6.69256 -0.595443 0
M  V30 5826 N 560.2 0.0768682 1.57412 0
M  V30 5827 C 561.13 -0.886026 2.16037 0
M  V30 5828 C 562.111 -1.30691 1.08876 0
M  V30 5829 O 563.296 -1.37705 1.36934 0
M  V30 5830 C 560.426 -2.1518 2.72608 0
M  V30 5831 C 559.38 -1.87015 3.8498 0
M  V30 5832 C 558.706 -3.20266 4.28175 0
M  V30 5833 C 560.006 -1.17143 5.08994 0
M  V30 5834 H 561.7 -0.397642 2.96748 0
M  V30 5835 H 559.246 -0.189823 1.42743 0
M  V30 5836 H 561.199 -2.82962 3.12266 0
M  V30 5837 H 559.923 -2.66269 1.89125 0
M  V30 5838 H 558.582 -1.21636 3.45833 0
M  V30 5839 H 558.23 -3.69207 3.41607 0
M  V30 5840 H 557.93 -3.0221 5.03927 0
M  V30 5841 H 559.454 -3.89237 4.70454 0
M  V30 5842 H 560.868 -1.75003 5.45937 0
M  V30 5843 H 559.265 -1.09328 5.90057 0
M  V30 5844 H 560.335 -0.151295 4.84664 0
M  V30 5845 N 561.678 -1.56367 -0.196722 0
M  V30 5846 C 562.927 -1.79724 -0.915539 0
M  V30 5847 C 563.24 -0.649804 -1.84491 0
M  V30 5848 O 564.446 -0.767631 -2.60422 0
M  V30 5849 C 562.902 -3.18369 -1.67836 0
M  V30 5850 C 562.51 -4.4091 -0.793897 0
M  V30 5851 C 564.254 -3.51037 -2.38691 0
M  V30 5852 C 562.161 -5.70577 -1.55549 0
M  V30 5853 H 561.091 -0.67013 -0.345604 0
M  V30 5854 H 563.742 -1.82721 -0.168856 0
M  V30 5855 H 562.124 -3.09617 -2.46887 0
M  V30 5856 H 563.298 -4.60781 -0.042163 0
M  V30 5857 H 561.613 -4.15937 -0.19626 0
M  V30 5858 H 564.21 -4.4515 -2.96219 0
M  V30 5859 H 564.553 -2.74704 -3.12799 0
M  V30 5860 H 565.086 -3.61229 -1.66608 0
M  V30 5861 H 561.825 -6.49871 -0.857226 0
M  V30 5862 H 561.345 -5.54726 -2.2812 0
M  V30 5863 H 563.024 -6.11637 -2.10971 0
M  V30 5864 N 563.156 0.464375 -1.50603 0
M  V30 5865 C 564.119 1.54393 -1.69397 0
M  V30 5866 C 565.119 1.50566 -0.564504 0
M  V30 5867 O 566.309 1.53066 -0.831645 0
M  V30 5868 C 563.441 2.9401 -1.72543 0
M  V30 5869 H 564.634 1.39044 -2.65719 0
M  V30 5870 H 562.187 0.69122 -1.40185 0
M  V30 5871 H 562.922 3.14795 -0.77938 0
M  V30 5872 H 562.707 2.98195 -2.54602 0
M  V30 5873 H 564.197 3.72375 -1.89015 0
M  V30 5874 N 564.634 1.40294 0.718013 0
M  V30 5875 C 566.05 1.2227 1.02577 0
M  V30 5876 C 566.25 0.0961976 2.0127 0
M  V30 5877 O 565.306 -0.546695 2.46511 0
M  V30 5878 C 566.619 2.56348 1.57182 0
M  V30 5879 C 568.167 2.6334 1.69178 0
M  V30 5880 C 568.642 3.9768 2.27188 0
M  V30 5881 N 570.133 3.99409 2.34578 0
M  V30 5882 C 570.868 5.00141 2.8044 0
M  V30 5883 N 570.364 6.11268 3.26073 0
M  V30 5884 N 572.157 4.87511 2.79802 0
M  V30 5885 H 564.308 2.12304 0.0637899 0
M  V30 5886 H 566.571 0.943632 0.0909036 0
M  V30 5887 H 566.277 3.3942 0.921262 0
M  V30 5888 H 566.151 2.77266 2.55741 0
M  V30 5889 H 568.538 1.80641 2.33351 0
M  V30 5890 H 568.619 2.46255 0.692247 0
M  V30 5891 H 568.263 4.80817 1.63638 0
M  V30 5892 H 568.193 4.12093 3.27852 0
M  V30 5893 H 570.684 3.19162 2.02346 0
M  V30 5894 H 570.997 6.84023 3.59628 0
M  V30 5895 H 569.342 6.14837 3.24038 0
M  V30 5896 H 572.533 3.9979 2.43487 0
M  V30 5897 H 572.706 5.66158 3.15228 0
M  V30 5898 N 566.112 -0.949982 1.2575 0
M  V30 5899 C 567.022 -2.08109 1.08295 0
M  V30 5900 C 568.038 -1.7399 0.0188181 0
M  V30 5901 O 569.214 -2.00187 0.220724 0
M  V30 5902 C 566.279 -3.39383 0.708534 0
M  V30 5903 C 565.34 -3.8734 1.85111 0
M  V30 5904 C 564.573 -5.12349 1.49447 0
M  V30 5905 O 564.796 -5.6905 0.392212 0
M  V30 5906 O 563.73 -5.5513 2.32624 0
M  V30 5907 H 567.556 -2.25738 2.03165 0
M  V30 5908 H 565.141 -1.06545 1.04731 0
M  V30 5909 H 567.023 -4.18277 0.512061 0
M  V30 5910 H 565.698 -3.23013 -0.210854 0
M  V30 5911 H 564.605 -3.09429 2.10248 0
M  V30 5912 H 565.938 -4.08216 2.74991 0
M  V30 5913 N 567.59 -1.07411 -1.15328 0
M  V30 5914 C 568.553 -0.698914 -2.18284 0
M  V30 5915 C 569.553 0.261149 -1.58665 0
M  V30 5916 O 570.743 0.0420277 -1.74149 0
M  V30 5917 C 567.875 -0.0302427 -3.40887 0
M  V30 5918 H 569.068 -1.61045 -2.52991 0
M  V30 5919 H 566.621 -0.870724 -1.298 0
M  V30 5920 H 567.356 0.893505 -3.11748 0
M  V30 5921 H 567.141 -0.720759 -3.85419 0
M  V30 5922 H 568.631 0.21759 -4.17033 0
M  V30 5923 N 569.068 1.32177 -0.85831 0
M  V30 5924 C 569.978 2.32561 -0.308606 0
M  V30 5925 C 570.994 1.64209 0.575462 0
M  V30 5926 O 572.17 1.95719 0.474961 0
M  V30 5927 C 569.235 3.43207 0.490909 0
M  V30 5928 C 568.296 4.27243 -0.419733 0
M  V30 5929 C 567.529 5.32605 0.341719 0
M  V30 5930 O 567.752 5.48332 1.57125 0
M  V30 5931 O 566.686 6.0118 -0.294379 0
M  V30 5932 H 570.512 2.81477 -1.14037 0
M  V30 5933 H 568.097 1.35866 -0.621349 0
M  V30 5934 H 569.979 4.10677 0.944574 0
M  V30 5935 H 568.654 2.96474 1.29941 0
M  V30 5936 H 567.561 3.62569 -0.921652 0
M  V30 5937 H 568.894 4.7751 -1.19352 0
M  V30 5938 N 570.547 0.616602 1.45037 0
M  V30 5939 C 571.51 -0.0871112 2.29034 0
M  V30 5940 C 572.51 -0.786414 1.40258 0
M  V30 5941 O 573.7 -0.633207 1.62284 0
M  V30 5942 C 570.832 -1.13369 3.21497 0
M  V30 5943 H 572.025 0.651497 2.92738 0
M  V30 5944 H 569.578 0.376058 1.51709 0
M  V30 5945 H 570.313 -1.90277 2.62612 0
M  V30 5946 H 570.098 -0.636358 3.86902 0
M  V30 5947 H 571.588 -1.62627 3.84633 0
M  V30 5948 N 572.025 -1.5352 0.356285 0
M  V30 5949 C 572.988 -2.24071 -0.482182 0
M  V30 5950 C 573.988 -1.24531 -1.01729 0
M  V30 5951 O 575.178 -1.48876 -0.904513 0
M  V30 5952 C 572.31 -2.97025 -1.67299 0
M  V30 5953 H 573.503 -2.99596 0.135031 0
M  V30 5954 H 571.056 -1.55928 0.107825 0
M  V30 5955 H 571.791 -2.25719 -2.32855 0
M  V30 5956 H 571.576 -3.7005 -1.29636 0
M  V30 5957 H 573.066 -3.50683 -2.26741 0
M  V30 5958 N 573.503 -0.0852151 -1.57369 0
M  V30 5959 C 574.752 0.580443 -1.93168 0
M  V30 5960 C 575.065 1.6995 -0.968319 0
M  V30 5961 O 576.271 2.42564 -1.21963 0
M  V30 5962 C 574.727 1.08386 -3.43192 0
M  V30 5963 C 574.335 -0.00491388 -4.48 0
M  V30 5964 C 576.079 1.72281 -3.87968 0
M  V30 5965 C 573.986 0.513299 -5.89168 0
M  V30 5966 H 572.916 0.22059 -0.72101 0
M  V30 5967 H 575.567 -0.159621 -1.82804 0
M  V30 5968 H 573.949 1.8773 -3.48674 0
M  V30 5969 H 575.123 -0.780032 -4.5415 0
M  V30 5970 H 573.438 -0.548453 -4.12772 0
M  V30 5971 H 576.035 2.12108 -4.9083 0
M  V30 5972 H 576.378 2.58811 -3.26071 0
M  V30 5973 H 576.911 0.995359 -3.85146 0
M  V30 5974 H 573.65 -0.315153 -6.54742 0
M  V30 5975 H 573.17 1.25564 -5.8651 0
M  V30 5976 H 574.849 0.985433 -6.39451 0
M  V30 5977 N 574.981 1.5647 0.188427 0
M  V30 5978 C 576.211 1.84863 0.922463 0
M  V30 5979 C 576.619 0.666413 1.77075 0
M  V30 5980 O 575.962 -0.374044 1.79852 0
M  V30 5981 C 576.024 3.07447 1.86324 0
M  V30 5982 C 575.688 4.41066 1.19625 0
M  V30 5983 C 576.685 5.16767 0.569946 0
M  V30 5984 C 574.37 4.87802 1.19811 0
M  V30 5985 C 576.364 6.37384 -0.045594 0
M  V30 5986 C 574.051 6.08353 0.57874 0
M  V30 5987 C 575.049 6.82987 -0.0420259 0
M  V30 5988 O 574.737 8.01254 -0.651675 0
M  V30 5989 H 574.469 0.61784 0.274316 0
M  V30 5990 H 577.023 2.04437 0.198613 0
M  V30 5991 H 575.253 2.83774 2.62696 0
M  V30 5992 H 576.942 3.2243 2.46564 0
M  V30 5993 H 577.708 4.81749 0.560601 0
M  V30 5994 H 573.587 4.29662 1.67069 0
M  V30 5995 H 577.131 6.95578 -0.530731 0
M  V30 5996 H 573.028 6.42838 0.58561 0
M  V30 5997 H 573.796 8.16655 -0.549236 0
M  V30 5998 N 576.459 -0.456382 1.50847 0
M  V30 5999 C 577.409 -1.55045 1.67168 0
M  V30 6000 C 578.393 -1.52061 0.525958 0
M  V30 6001 O 579.585 -1.58836 0.781036 0
M  V30 6002 C 576.714 -2.93386 1.78268 0
M  V30 6003 C 575.8 -3.01198 2.98564 0
M  V30 6004 N 576.191 -2.78792 4.22029 0
M  V30 6005 C 574.489 -3.32346 2.97426 0
M  V30 6006 C 575.19 -2.91953 5.03128 0
M  V30 6007 N 574.166 -3.22797 4.37382 0
M  V30 6008 H 577.968 -1.36444 2.60308 0
M  V30 6009 H 575.482 -0.663375 1.48233 0
M  V30 6010 H 577.479 -3.72071 1.88067 0
M  V30 6011 H 576.139 -3.13022 0.862965 0
M  V30 6012 H 577.15 -2.54087 4.51287 0
M  V30 6013 H 573.827 -3.57877 2.15012 0
M  V30 6014 H 575.217 -2.78745 6.11351 0
M  V30 6015 N 577.937 -1.40673 -0.710563 0
M  V30 6016 C 578.867 -1.44095 -1.83736 0
M  V30 6017 C 579.848 -0.301286 -1.67411 0
M  V30 6018 O 581.033 -0.510618 -1.87367 0
M  V30 6019 C 578.163 -1.30773 -3.21738 0
M  V30 6020 C 577.117 -2.42395 -3.52745 0
M  V30 6021 C 576.443 -2.14147 -4.89944 0
M  V30 6022 C 577.743 -3.84738 -3.53234 0
M  V30 6023 H 579.437 -2.38396 -1.81129 0
M  V30 6024 H 576.983 -1.14746 -0.870017 0
M  V30 6025 H 578.936 -1.31783 -4.00264 0
M  V30 6026 H 577.66 -0.329507 -3.24934 0
M  V30 6027 H 576.319 -2.40643 -2.76562 0
M  V30 6028 H 575.967 -1.14703 -4.89747 0
M  V30 6029 H 575.667 -2.88934 -5.11655 0
M  V30 6030 H 577.191 -2.16848 -5.70797 0
M  V30 6031 H 578.605 -3.88286 -4.2179 0
M  V30 6032 H 577.002 -4.59085 -3.86473 0
M  V30 6033 H 578.072 -4.13962 -2.52514 0
M  V30 6034 N 579.415 0.9433 -1.26252 0
M  V30 6035 C 580.347 2.04542 -1.03417 0
M  V30 6036 C 581.36 1.62799 0.0046911 0
M  V30 6037 O 582.549 1.76944 -0.235146 0
M  V30 6038 C 579.649 3.34511 -0.543671 0
M  V30 6039 C 578.822 4.05033 -1.65128 0
M  V30 6040 C 577.881 5.13273 -1.1592 0
M  V30 6041 O 576.907 5.38095 -1.85586 0
M  V30 6042 N 578.109 5.805 -0.00649279 0
M  V30 6043 H 580.874 2.24699 -1.98319 0
M  V30 6044 H 578.435 1.11264 -1.1761 0
M  V30 6045 H 580.427 4.04212 -0.198703 0
M  V30 6046 H 578.997 3.11042 0.311711 0
M  V30 6047 H 578.217 3.29275 -2.16729 0
M  V30 6048 H 579.505 4.48903 -2.39508 0
M  V30 6049 H 578.903 5.62767 0.575347 0
M  V30 6050 H 577.46 6.51201 0.279416 0
M  V30 6051 N 580.893 1.08022 1.14757 0
M  V30 6052 C 581.823 0.728248 2.21853 0
M  V30 6053 C 582.804 -0.287486 1.67653 0
M  V30 6054 O 583.989 -0.158727 1.9355 0
M  V30 6055 C 581.119 0.132549 3.47047 0
M  V30 6056 C 580.073 1.07619 4.14249 0
M  V30 6057 C 579.399 0.342907 5.33599 0
M  V30 6058 C 580.699 2.41268 4.63235 0
M  V30 6059 H 582.393 1.62365 2.51551 0
M  V30 6060 H 579.939 0.782125 1.20908 0
M  V30 6061 H 581.892 -0.125665 4.21213 0
M  V30 6062 H 580.616 -0.797971 3.16702 0
M  V30 6063 H 579.275 1.31944 3.42033 0
M  V30 6064 H 578.923 -0.59129 4.99513 0
M  V30 6065 H 578.623 0.971955 5.79506 0
M  V30 6066 H 580.147 0.0926538 6.1053 0
M  V30 6067 H 581.561 2.21232 5.28894 0
M  V30 6068 H 579.958 2.9983 5.19829 0
M  V30 6069 H 581.028 3.03079 3.78512 0
M  V30 6070 N 582.371 -1.3172 0.865308 0
M  V30 6071 C 583.618 -1.96876 0.473931 0
M  V30 6072 C 583.946 -1.68425 -0.972786 0
M  V30 6073 O 583.201 -0.970742 -1.69927 0
M  V30 6074 C 583.5 -3.5102 0.672283 0
M  V30 6075 C 583.166 -3.9948 2.09108 0
M  V30 6076 C 581.828 -4.12425 2.4791 0
M  V30 6077 C 584.18 -4.2503 3.0166 0
M  V30 6078 C 581.508 -4.48267 3.78515 0
M  V30 6079 C 583.86 -4.62335 4.31774 0
M  V30 6080 C 582.524 -4.73486 4.70497 0
M  V30 6081 H 581.794 -0.72042 0.173424 0
M  V30 6082 H 584.441 -1.56937 1.0974 0
M  V30 6083 H 582.746 -3.91785 -0.034356 0
M  V30 6084 H 584.443 -3.99475 0.349353 0
M  V30 6085 H 581.033 -3.89898 1.77981 0
M  V30 6086 H 585.217 -4.14529 2.7291 0
M  V30 6087 H 580.473 -4.55097 4.08285 0
M  V30 6088 H 584.647 -4.81058 5.03543 0
M  V30 6089 H 582.274 -5.01016 5.71741 0
M  V30 6090 N 583.85 -0.624285 -1.44708 0
M  V30 6091 C 584.76 0.0861083 -2.34442 0
M  V30 6092 C 585.776 0.84291 -1.5222 0
M  V30 6093 O 586.952 0.796723 -1.84971 0
M  V30 6094 C 584.017 1.05999 -3.30099 0
M  V30 6095 C 583.077 0.303316 -4.28227 0
M  V30 6096 C 582.311 1.23081 -5.19314 0
M  V30 6097 O 582.534 2.46929 -5.14181 0
M  V30 6098 O 581.468 0.71883 -5.97592 0
M  V30 6099 H 585.293 -0.651756 -2.96624 0
M  V30 6100 H 582.879 -0.384493 -1.44368 0
M  V30 6101 H 584.76 1.62046 -3.88997 0
M  V30 6102 H 583.436 1.77859 -2.70459 0
M  V30 6103 H 582.343 -0.300033 -3.72895 0
M  V30 6104 H 583.676 -0.375123 -4.90768 0
M  V30 6105 N 585.328 1.53329 -0.364422 0
M  V30 6106 C 586.238 2.29414 0.490552 0
M  V30 6107 C 587.254 1.35335 1.09363 0
M  V30 6108 O 588.43 1.68391 1.10483 0
M  V30 6109 C 585.495 3.06772 1.61529 0
M  V30 6110 C 584.556 4.16516 1.03986 0
M  V30 6111 C 583.789 4.90176 2.111 0
M  V30 6112 O 584.012 4.63687 3.32191 0
M  V30 6113 O 582.946 5.76134 1.74222 0
M  V30 6114 H 586.772 3.03428 -0.12856 0
M  V30 6115 H 584.357 1.48843 -0.128837 0
M  V30 6116 H 586.239 3.55082 2.26924 0
M  V30 6117 H 584.914 2.35596 2.21983 0
M  V30 6118 H 583.821 3.7246 0.349856 0
M  V30 6119 H 585.154 4.89855 0.4799 0
M  V30 6120 N 586.806 0.0935595 1.57322 0
M  V30 6121 C 587.736 -0.863062 2.16964 0
M  V30 6122 C 588.717 -1.29528 1.10256 0
M  V30 6123 O 589.902 -1.36245 1.38387 0
M  V30 6124 C 587.032 -2.12276 2.74875 0
M  V30 6125 C 585.986 -1.82921 3.86942 0
M  V30 6126 C 585.312 -3.15707 4.31548 0
M  V30 6127 C 586.612 -1.11737 5.10208 0
M  V30 6128 H 588.306 -0.366145 2.97153 0
M  V30 6129 H 585.852 -0.174673 1.42937 0
M  V30 6130 H 587.805 -2.79634 3.1525 0
M  V30 6131 H 586.529 -2.64248 1.91938 0
M  V30 6132 H 585.188 -1.17961 3.47103 0
M  V30 6133 H 584.836 -3.65563 3.45504 0
M  V30 6134 H 584.536 -2.96849 5.07104 0
M  V30 6135 H 586.06 -3.84226 4.74555 0
M  V30 6136 H 587.474 -1.69203 5.47762 0
M  V30 6137 H 585.871 -1.03064 5.91183 0
M  V30 6138 H 586.941 -0.0998818 4.84797 0
M  V30 6139 N 588.284 -1.56567 -0.180126 0
M  V30 6140 C 589.7 -1.50488 -0.531559 0
M  V30 6141 C 589.9 -0.796267 -1.851 0
M  V30 6142 O 588.956 -0.352978 -2.50021 0
M  V30 6143 C 590.269 -2.95201 -0.572456 0
M  V30 6144 C 591.817 -3.05957 -0.660264 0
M  V30 6145 C 592.292 -4.5211 -0.732135 0
M  V30 6146 N 593.783 -4.56322 -0.795262 0
M  V30 6147 C 594.518 -5.66742 -0.871296 0
M  V30 6148 N 594.014 -6.86815 -0.908708 0
M  V30 6149 N 595.807 -5.54691 -0.909639 0
M  V30 6150 H 587.958 -2.01045 0.685165 0
M  V30 6151 H 590.221 -0.915536 0.245962 0
M  V30 6152 H 589.927 -3.50165 0.328208 0
M  V30 6153 H 589.801 -3.49369 -1.422 0
M  V30 6154 H 592.188 -2.51032 -1.55136 0
M  V30 6155 H 592.269 -2.54888 0.215783 0
M  V30 6156 H 591.913 -5.07664 0.154664 0
M  V30 6157 H 591.843 -5.00926 -1.6242 0
M  V30 6158 H 594.334 -3.69868 -0.77499 0
M  V30 6159 H 594.647 -7.66718 -0.967654 0
M  V30 6160 H 592.992 -6.89443 -0.877132 0
M  V30 6161 H 596.183 -4.59804 -0.877353 0
M  V30 6162 H 596.356 -6.40768 -0.965434 0
M  V30 6163 N 589.762 0.448376 -1.51087 0
M  V30 6164 C 591.178 0.783984 -1.39017 0
M  V30 6165 C 591.378 1.96087 -0.463904 0
M  V30 6166 O 590.434 2.52357 0.0850534 0
M  V30 6167 C 591.747 1.07471 -2.80839 0
M  V30 6168 C 593.295 1.17981 -2.89913 0
M  V30 6169 C 593.77 1.50354 -4.32617 0
M  V30 6170 N 595.261 1.57301 -4.35673 0
M  V30 6171 C 595.996 1.839 -5.4311 0
M  V30 6172 N 595.492 2.08365 -6.60724 0
M  V30 6173 N 597.285 1.8559 -5.30578 0
M  V30 6174 H 589.436 -0.326881 -2.0987 0
M  V30 6175 H 591.699 -0.0838006 -0.944289 0
M  V30 6176 H 591.405 0.282768 -3.50561 0
M  V30 6177 H 591.279 2.00519 -3.19487 0
M  V30 6178 H 593.666 1.9624 -2.20395 0
M  V30 6179 H 593.747 0.228603 -2.54776 0
M  V30 6180 H 593.391 0.726273 -5.0268 0
M  V30 6181 H 593.321 2.46663 -4.65258 0
M  V30 6182 H 595.812 1.40342 -3.50874 0
M  V30 6183 H 596.125 2.27999 -7.38401 0
M  V30 6184 H 594.47 2.0571 -6.63859 0
M  V30 6185 H 597.661 1.65989 -4.37682 0
M  V30 6186 H 597.834 2.05983 -6.1439 0
M  V30 6187 N 591.24 1.41047 0.703093 0
M  V30 6188 C 592.17 1.45067 1.82969 0
M  V30 6189 C 593.151 0.31016 1.67248 0
M  V30 6190 O 594.336 0.520548 1.87093 0
M  V30 6191 C 591.466 1.32478 3.2104 0
M  V30 6192 C 590.42 2.44262 3.51454 0
M  V30 6193 C 589.746 2.16742 4.88801 0
M  V30 6194 C 591.046 3.86606 3.51189 0
M  V30 6195 H 592.74 2.39353 1.79863 0
M  V30 6196 H 590.286 1.15206 0.863919 0
M  V30 6197 H 592.239 1.33904 3.99559 0
M  V30 6198 H 590.963 0.346735 3.24754 0
M  V30 6199 H 589.622 2.42107 2.75282 0
M  V30 6200 H 589.27 1.17299 4.89132 0
M  V30 6201 H 588.97 2.91643 5.10116 0
M  V30 6202 H 590.494 2.19872 5.69639 0
M  V30 6203 H 591.908 3.90517 4.19725 0
M  V30 6204 H 590.305 4.61128 3.84033 0
M  V30 6205 H 591.375 4.15296 2.50315 0
M  V30 6206 N 592.718 -0.936591 1.26751 0
M  V30 6207 C 593.681 -2.01752 1.08761 0
M  V30 6208 C 594.681 -1.60763 0.0344435 0
M  V30 6209 O 595.871 -1.71963 0.278258 0
M  V30 6210 C 593.003 -3.34543 0.655271 0
M  V30 6211 H 594.196 -2.19143 2.04735 0
M  V30 6212 H 591.749 -1.11618 1.09413 0
M  V30 6213 H 592.484 -3.22851 -0.30626 0
M  V30 6214 H 592.269 -3.65647 1.41578 0
M  V30 6215 H 593.759 -4.13944 0.551378 0
M  V30 6216 N 594.196 -1.08629 -1.14182 0
M  V30 6217 C 595.607 -0.838003 -1.66836 0
M  V30 6218 C 595.958 0.634885 -1.85644 0
M  V30 6219 O 595.083 1.49008 -1.56926 0
M  V30 6220 C 595.678 -1.51465 -3.03058 0
M  V30 6221 C 594.237 -1.31355 -3.52736 0
M  V30 6222 C 593.384 -1.57599 -2.28162 0
M  V30 6223 H 596.335 -1.24656 -0.982165 0
M  V30 6224 H 596.356 -0.943134 -3.68626 0
M  V30 6225 H 595.868 -2.58661 -2.89337 0
M  V30 6226 H 593.969 -0.262384 -3.71675 0
M  V30 6227 H 594.082 -2.04275 -4.33369 0
M  V30 6228 H 592.446 -0.997659 -2.34348 0
M  V30 6229 H 593.229 -2.66006 -2.17015 0
M  V30 6230 N 595.674 1.31259 -0.872281 0
M  V30 6231 C 596.923 1.95893 -0.480493 0
M  V30 6232 C 597.236 1.697 0.972688 0
M  V30 6233 O 598.442 2.28214 1.47073 0
M  V30 6234 C 596.898 3.50705 -0.808342 0
M  V30 6235 C 596.506 3.85735 -2.27844 0
M  V30 6236 C 598.25 4.21719 -0.485136 0
M  V30 6237 C 596.157 5.33668 -2.54858 0
M  V30 6238 H 595.087 0.733182 -0.175955 0
M  V30 6239 H 597.738 1.49396 -1.0655 0
M  V30 6240 H 596.12 3.95706 -0.152558 0
M  V30 6241 H 597.294 3.51686 -2.97748 0
M  V30 6242 H 595.609 3.27792 -2.56791 0
M  V30 6243 H 598.206 5.30559 -0.664166 0
M  V30 6244 H 598.549 4.12316 0.574592 0
M  V30 6245 H 599.082 3.82359 -1.09756 0
M  V30 6246 H 595.821 5.48109 -3.59523 0
M  V30 6247 H 595.341 5.69061 -1.8955 0
M  V30 6248 H 597.02 6.00958 -2.39706 0
M  V30 6249 N 597.152 0.631951 1.44375 0
M  V30 6250 C 598.38 0.143867 2.06399 0
M  V30 6251 C 598.795 -1.18188 1.47231 0
M  V30 6252 O 598.152 -1.72511 0.595498 0
M  V30 6253 C 598.203 0.0238253 3.61492 0
M  V30 6254 O 597.924 1.29715 4.18456 0
M  V30 6255 C 599.425 -0.492856 4.40552 0
M  V30 6256 H 596.645 0.0800542 0.666207 0
M  V30 6257 H 599.189 0.866586 1.85231 0
M  V30 6258 H 597.344 -0.649338 3.81919 0
M  V30 6259 H 597.758 1.14252 5.11905 0
M  V30 6260 H 599.232 -0.525861 5.49489 0
M  V30 6261 H 599.709 -1.52006 4.12057 0
M  V30 6262 H 600.315 0.147085 4.25046 0
M  V30 6263 N 598.631 -1.53133 0.372548 0
M  V30 6264 C 599.856 -2.0625 -0.218098 0
M  V30 6265 C 600.281 -1.24375 -1.41111 0
M  V30 6266 O 599.639 -0.264554 -1.79359 0
M  V30 6267 C 599.687 -3.55858 -0.582876 0
M  V30 6268 O 598.791 -3.76667 -1.67917 0
M  V30 6269 H 598.132 -0.663317 -0.030104 0
M  V30 6270 H 600.662 -1.97477 0.535169 0
M  V30 6271 H 600.672 -3.99007 -0.851925 0
M  V30 6272 H 599.347 -4.14892 0.289428 0
M  V30 6273 H 597.924 -3.45413 -1.40513 0
M  V30 6274 N 600.109 -0.101901 -1.5727 0
M  V30 6275 C 601.386 0.602832 -1.86079 0
M  V30 6276 C 601.766 1.85912 -1 0
M  V30 6277 O 601.114 2.28379 -0.0742488 0
M  V30 6278 C 601.324 0.911694 -3.36881 0
M  V30 6279 C 602.672 1.2722 -4.05093 0
M  V30 6280 O 603.696 1.0025 -3.41802 0
M  V30 6281 O 602.555 1.7776 -5.16782 0
M  V30 6282 H 599.649 0.302366 -0.769743 0
M  V30 6283 H 602.195 -0.135113 -1.69161 0
M  V30 6284 H 600.967 0.0207256 -3.91295 0
M  V30 6285 H 600.59 1.70538 -3.59169 0
M  V30 6286 N 601.587 1.56661 0.17182 0
M  V30 6287 C 602.998 1.71652 0.734329 0
M  V30 6288 C 603.349 0.712335 1.82812 0
M  V30 6289 O 602.474 -0.126401 2.16031 0
M  V30 6290 C 603.069 3.11226 1.3388 0
M  V30 6291 C 601.628 3.27904 1.84813 0
M  V30 6292 C 600.775 2.67603 0.726917 0
M  V30 6293 H 603.726 1.5861 -0.0535665 0
M  V30 6294 H 603.747 3.09849 2.20849 0
M  V30 6295 H 603.259 3.8429 0.54249 0
M  V30 6296 H 601.36 2.59796 2.6709 0
M  V30 6297 H 601.473 4.35637 1.99392 0
M  V30 6298 H 599.837 2.274 1.14723 0
M  V30 6299 H 600.62 3.43252 -0.0575334 0
M  V30 6300 N 603.065 -0.440357 1.51323 0
M  V30 6301 C 604.293 -1.21255 1.67645 0
M  V30 6302 C 604.708 -1.85088 0.37252 0
M  V30 6303 O 604.065 -1.70582 -0.648683 0
M  V30 6304 C 604.116 -2.29881 2.78993 0
M  V30 6305 O 603.837 -1.68659 4.04334 0
M  V30 6306 C 605.338 -3.20214 3.06558 0
M  V30 6307 H 602.558 -0.36558 0.562666 0
M  V30 6308 H 605.102 -0.52214 1.97722 0
M  V30 6309 H 603.257 -2.94643 2.51524 0
M  V30 6310 H 603.671 -2.40426 4.6615 0
M  V30 6311 H 605.145 -3.92575 3.88058 0
M  V30 6312 H 605.622 -3.80794 2.18844 0
M  V30 6313 H 606.228 -2.61156 3.35675 0
M  V30 6314 N 604.543 -1.41418 -0.695603 0
M  V30 6315 C 605.453 -1.45622 -1.83933 0
M  V30 6316 C 606.469 -0.346825 -1.70508 0
M  V30 6317 O 607.645 -0.59454 -1.92424 0
M  V30 6318 C 604.71 -1.33627 -3.19914 0
M  V30 6319 C 603.771 -2.54882 -3.45447 0
M  V30 6320 C 603.004 -2.43449 -4.7494 0
M  V30 6321 O 603.227 -1.45905 -5.51424 0
M  V30 6322 O 602.161 -3.33206 -5.01256 0
M  V30 6323 H 605.987 -2.42114 -1.83342 0
M  V30 6324 H 603.572 -1.22956 -0.848658 0
M  V30 6325 H 605.454 -1.29221 -4.01098 0
M  V30 6326 H 604.129 -0.402508 -3.21188 0
M  V30 6327 H 603.036 -2.64865 -2.64192 0
M  V30 6328 H 604.369 -3.47087 -3.48987 0
M  V30 6329 N 606.021 0.929856 -1.27246 0
M  V30 6330 C 606.984 2.01172 -1.09829 0
M  V30 6331 C 607.984 1.60743 -0.0429687 0
M  V30 6332 O 609.174 1.71813 -0.287373 0
M  V30 6333 C 606.306 3.34191 -0.673003 0
M  V30 6334 H 607.499 2.18054 -2.05895 0
M  V30 6335 H 605.052 1.11036 -1.10003 0
M  V30 6336 H 605.787 3.23009 0.289134 0
M  V30 6337 H 605.572 3.64892 -1.43515 0
M  V30 6338 H 607.062 4.13646 -0.573323 0
M  V30 6339 N 607.499 1.09233 1.13605 0
M  V30 6340 C 608.727 0.848908 1.88683 0
M  V30 6341 C 609.142 -0.599667 1.79024 0
M  V30 6342 O 608.499 -1.41265 1.15544 0
M  V30 6343 C 608.55 1.27273 3.38355 0
M  V30 6344 O 608.271 2.66449 3.47759 0
M  V30 6345 C 609.772 1.0614 4.30406 0
M  V30 6346 H 606.992 0.305549 0.597395 0
M  V30 6347 H 609.536 1.4538 1.43823 0
M  V30 6348 H 607.691 0.711776 3.80805 0
M  V30 6349 H 608.105 2.84264 4.40788 0
M  V30 6350 H 609.579 1.40725 5.33761 0
M  V30 6351 H 610.056 -0.000960332 4.392 0
M  V30 6352 H 610.662 1.60821 3.93722 0
M  V30 6353 N 608.977 -1.30795 0.87923 0
M  V30 6354 C 609.94 -2.26563 0.346676 0
M  V30 6355 C 610.94 -1.52578 -0.507597 0
M  V30 6356 O 612.13 -1.71318 -0.315575 0
M  V30 6357 C 609.262 -3.37115 -0.506611 0
M  V30 6358 H 610.455 -2.75183 1.19223 0
M  V30 6359 H 608.008 -1.41886 0.655598 0
M  V30 6360 H 608.743 -2.93802 -1.37299 0
M  V30 6361 H 608.528 -3.91959 0.105218 0
M  V30 6362 H 610.018 -4.08412 -0.871192 0
M  V30 6363 N 610.455 -0.639598 -1.44038 0
M  V30 6364 C 611.701 -0.147698 -2.02261 0
M  V30 6365 C 612.034 1.23031 -1.50256 0
M  V30 6366 O 611.309 1.81847 -0.690068 0
M  V30 6367 C 611.592 -0.14362 -3.59813 0
M  V30 6368 C 611.445 -1.55458 -4.22082 0
M  V30 6369 C 612.764 0.527317 -4.36929 0
M  V30 6370 H 609.883 -0.0551453 -0.734934 0
M  V30 6371 H 612.525 -0.817688 -1.71505 0
M  V30 6372 H 610.675 0.426898 -3.86147 0
M  V30 6373 H 612.347 -2.17464 -4.06826 0
M  V30 6374 H 610.59 -2.10594 -3.79253 0
M  V30 6375 H 611.261 -1.50369 -5.31124 0
M  V30 6376 H 613.737 0.0420504 -4.16079 0
M  V30 6377 H 612.613 0.499389 -5.46624 0
M  V30 6378 H 612.874 1.59914 -4.12165 0
M  V30 6379 N 611.933 1.52934 -0.380664 0
M  V30 6380 C 613.181 2.01069 0.203874 0
M  V30 6381 C 613.502 1.26922 1.4804 0
M  V30 6382 O 612.772 0.386787 1.92044 0
M  V30 6383 H 611.352 0.742882 0.0783279 0
M  V30 6384 H 614.014 1.88099 -0.510368 0
M  V30 6385 H 613.11 3.09258 0.42021 0
M  V30 6386 N 613.412 0.11024 1.57214 0
M  V30 6387 C 614.375 -0.828808 2.1369 0
M  V30 6388 C 615.375 -1.20059 1.06969 0
M  V30 6389 O 616.565 -1.12754 1.32786 0
M  V30 6390 C 613.697 -2.11959 2.66994 0
M  V30 6391 H 614.89 -0.338146 2.97988 0
M  V30 6392 H 612.443 -0.138913 1.55681 0
M  V30 6393 H 613.178 -2.65476 1.8626 0
M  V30 6394 H 612.963 -1.86258 3.45037 0
M  V30 6395 H 614.453 -2.79105 3.10629 0
M  V30 6396 N 614.89 -1.56749 -0.16351 0
M  V30 6397 C 616.136 -1.82704 -0.880168 0
M  V30 6398 C 616.469 -0.689311 -1.81555 0
M  V30 6399 O 615.744 0.308224 -1.92042 0
M  V30 6400 C 616.027 -3.19084 -1.66905 0
M  V30 6401 C 615.88 -4.43397 -0.756269 0
M  V30 6402 C 617.199 -3.52493 -2.63509 0
M  V30 6403 H 614.318 -0.664608 -0.318535 0
M  V30 6404 H 616.96 -1.89438 -0.146036 0
M  V30 6405 H 615.11 -3.13475 -2.2949 0
M  V30 6406 H 616.782 -4.61079 -0.14269 0
M  V30 6407 H 615.025 -4.33752 -0.0647944 0
M  V30 6408 H 615.696 -5.3539 -1.34393 0
M  V30 6409 H 618.172 -3.58606 -2.11047 0
M  V30 6410 H 617.048 -4.48979 -3.15767 0
M  V30 6411 H 617.309 -2.77597 -3.44082 0
M  V30 6412 N 616.368 0.432326 -1.51554 0
M  V30 6413 C 617.278 1.55023 -1.76082 0
M  V30 6414 C 618.294 1.61593 -0.645265 0
M  V30 6415 O 619.47 1.78742 -0.928086 0
M  V30 6416 C 616.535 2.90964 -1.88523 0
M  V30 6417 C 615.596 2.9447 -3.12388 0
M  V30 6418 C 614.829 4.23926 -3.24225 0
M  V30 6419 O 615.052 5.16576 -2.4188 0
M  V30 6420 O 613.986 4.33818 -4.17235 0
M  V30 6421 H 617.812 1.37238 -2.70923 0
M  V30 6422 H 615.397 0.615845 -1.36117 0
M  V30 6423 H 617.279 3.71633 -1.98662 0
M  V30 6424 H 615.954 3.08865 -0.9687 0
M  V30 6425 H 614.861 2.12737 -3.07723 0
M  V30 6426 H 616.194 2.81514 -4.03746 0
M  V30 6427 N 617.846 1.41785 0.688094 0
M  V30 6428 C 618.809 1.43936 1.78368 0
M  V30 6429 C 619.809 0.328866 1.57401 0
M  V30 6430 O 620.999 0.589093 1.63937 0
M  V30 6431 C 618.131 1.25804 3.16838 0
M  V30 6432 H 619.324 2.41472 1.77852 0
M  V30 6433 H 616.877 1.28037 0.896448 0
M  V30 6434 H 617.612 0.291386 3.22988 0
M  V30 6435 H 617.397 2.06272 3.33458 0
M  V30 6436 H 618.887 1.30162 3.96797 0
M  V30 6437 N 619.324 -0.923095 1.27737 0
M  V30 6438 C 620.549 -1.71054 1.17283 0
M  V30 6439 C 620.974 -1.86208 -0.266153 0
M  V30 6440 O 620.332 -1.36545 -1.1927 0
M  V30 6441 C 620.38 -3.0854 1.86642 0
M  V30 6442 O 619.484 -3.95528 1.16752 0
M  V30 6443 H 618.825 -0.524136 0.407649 0
M  V30 6444 H 621.355 -1.15487 1.6889 0
M  V30 6445 H 621.365 -3.58828 1.94182 0
M  V30 6446 H 620.04 -2.96828 2.91317 0
M  V30 6447 H 618.617 -3.53967 1.17312 0
M  V30 6448 N 620.802 -1.09834 -1.13024 0
M  V30 6449 C 622.049 -0.83695 -1.84395 0
M  V30 6450 C 622.377 0.637463 -1.83757 0
M  V30 6451 O 621.632 1.48554 -1.27398 0
M  V30 6452 C 621.931 -1.32263 -3.32026 0
M  V30 6453 C 621.597 -2.80739 -3.52841 0
M  V30 6454 C 620.259 -3.21286 -3.5823 0
M  V30 6455 C 622.611 -3.76449 -3.60466 0
M  V30 6456 C 619.939 -4.56308 -3.68781 0
M  V30 6457 C 622.291 -5.11266 -3.72546 0
M  V30 6458 C 620.955 -5.51397 -3.76189 0
M  V30 6459 H 620.225 -0.306262 -0.674748 0
M  V30 6460 H 622.872 -1.37385 -1.33408 0
M  V30 6461 H 621.177 -0.705618 -3.85394 0
M  V30 6462 H 622.874 -1.09695 -3.85705 0
M  V30 6463 H 619.464 -2.48363 -3.49305 0
M  V30 6464 H 623.648 -3.46234 -3.55578 0
M  V30 6465 H 618.904 -4.86832 -3.69871 0
M  V30 6466 H 623.078 -5.85279 -3.77388 0
M  V30 6467 H 620.705 -6.56017 -3.84117 0
M  V30 6468 N 622.28 1.30327 -0.886154 0
M  V30 6469 C 623.227 2.28099 -0.352069 0
M  V30 6470 C 624.197 1.56433 0.558397 0
M  V30 6471 O 625.382 1.84492 0.486561 0
M  V30 6472 C 622.522 3.42456 0.426346 0
M  V30 6473 C 621.635 4.28938 -0.513472 0
M  V30 6474 C 620.77 5.30458 0.280657 0
M  V30 6475 C 619.809 6.0859 -0.654556 0
M  V30 6476 N 618.946 7.02022 0.104322 0
M  V30 6477 H 623.786 2.73166 -1.19097 0
M  V30 6478 H 621.323 1.34367 -0.598662 0
M  V30 6479 H 623.281 4.07518 0.893587 0
M  V30 6480 H 621.911 2.98455 1.22981 0
M  V30 6481 H 620.963 3.64173 -1.09921 0
M  V30 6482 H 622.275 4.83399 -1.2299 0
M  V30 6483 H 621.429 6.01273 0.8097 0
M  V30 6484 H 620.168 4.76693 1.03029 0
M  V30 6485 H 619.173 5.36651 -1.19522 0
M  V30 6486 H 620.398 6.64443 -1.4033 0
M  V30 6487 H 618.344 6.50645 0.836472 0
M  V30 6488 H 618.261 7.53979 -0.552453 0
M  V30 6489 H 619.529 7.77077 0.614069 0
M  V30 6490 N 623.758 0.647228 1.43697 0
M  V30 6491 C 624.998 0.16171 2.03759 0
M  V30 6492 C 625.362 -1.19951 1.49919 0
M  V30 6493 O 626.563 -1.77808 2.01588 0
M  V30 6494 C 624.834 0.16505 3.57019 0
M  V30 6495 S 626.393 -0.253497 4.38067 0
M  V30 6496 H 623.211 0.0689985 0.707644 0
M  V30 6497 H 625.813 0.854224 1.7585 0
M  V30 6498 H 624.517 1.15858 3.93707 0
M  V30 6499 H 624.048 -0.548194 3.89562 0
M  V30 6500 H 626.063 -1.49385 4.73179 0
M  V30 6501 N 625.236 -1.5273 0.388769 0
M  V30 6502 C 626.476 -2.03483 -0.193372 0
M  V30 6503 C 626.84 -1.26897 -1.44087 0
M  V30 6504 O 628.041 -1.67773 -2.10014 0
M  V30 6505 C 626.312 -3.54488 -0.455325 0
M  V30 6506 S 627.871 -4.27069 -1.00783 0
M  V30 6507 H 624.689 -0.708907 -0.0545131 0
M  V30 6508 H 627.291 -1.8798 0.536993 0
M  V30 6509 H 625.995 -4.07817 0.459722 0
M  V30 6510 H 625.526 -3.74196 -1.21413 0
M  V30 6511 H 627.541 -4.40185 -2.29023 0
M  V30 6512 N 626.714 -0.118576 -1.57153 0
M  V30 6513 C 627.939 0.550582 -1.99958 0
M  V30 6514 C 628.364 1.59458 -0.997736 0
M  V30 6515 O 627.722 1.81274 0.0306269 0
M  V30 6516 C 627.77 1.15379 -3.41643 0
M  V30 6517 O 626.874 2.26932 -3.44348 0
M  V30 6518 H 626.215 0.137567 -0.649593 0
M  V30 6519 H 628.745 -0.206926 -2.03551 0
M  V30 6520 H 628.755 1.48942 -3.79843 0
M  V30 6521 H 627.43 0.389087 -4.14076 0
M  V30 6522 H 626.007 1.94812 -3.17967 0
M  V30 6523 N 628.193 1.56834 0.155195 0
M  V30 6524 C 629.441 1.82536 0.867462 0
M  V30 6525 C 629.762 0.698168 1.82073 0
M  V30 6526 O 629.032 -0.280807 1.93877 0
M  V30 6527 H 627.612 0.673401 0.323327 0
M  V30 6528 H 630.274 1.94313 0.151156 0
M  V30 6529 H 629.37 2.77171 1.43466 0
M  V30 6530 N 629.671 -0.424282 1.51781 0
M  V30 6531 C 630.634 -1.49848 1.73431 0
M  V30 6532 C 631.634 -1.49016 0.604225 0
M  V30 6533 O 632.824 -1.50808 0.871935 0
M  V30 6534 C 629.956 -2.89332 1.80277 0
M  V30 6535 H 631.149 -1.3195 2.69312 0
M  V30 6536 H 628.702 -0.653809 1.41968 0
M  V30 6537 H 629.437 -3.12618 0.862568 0
M  V30 6538 H 629.222 -2.9134 2.62419 0
M  V30 6539 H 630.712 -3.67233 1.98821 0
M  V30 6540 N 631.149 -1.42148 -0.680565 0
M  V30 6541 C 632.398 -1.41604 -1.43636 0
M  V30 6542 C 632.711 -0.0337887 -1.95571 0
M  V30 6543 O 633.917 0.0942588 -2.71336 0
M  V30 6544 C 632.373 -2.49056 -2.59806 0
M  V30 6545 C 631.981 -3.9326 -2.14594 0
M  V30 6546 C 633.725 -2.5767 -3.37352 0
M  V30 6547 C 631.632 -4.92232 -3.27813 0
M  V30 6548 H 630.562 -0.526656 -0.539583 0
M  V30 6549 H 633.213 -1.68033 -0.737369 0
M  V30 6550 H 631.595 -2.15782 -3.32045 0
M  V30 6551 H 632.769 -4.35858 -1.49546 0
M  V30 6552 H 631.084 -3.88443 -1.50002 0
M  V30 6553 H 633.681 -3.28794 -4.21662 0
M  V30 6554 H 634.024 -1.61837 -3.83555 0
M  V30 6555 H 634.557 -2.90109 -2.72179 0
M  V30 6556 H 631.296 -5.89522 -2.86607 0
M  V30 6557 H 630.816 -4.5427 -3.91661 0
M  V30 6558 H 632.495 -5.13684 -3.93367 0
M  V30 6559 N 632.627 0.916307 -1.28225 0
M  V30 6560 C 633.876 1.65975 -1.14608 0
M  V30 6561 C 634.189 1.93204 0.305191 0
M  V30 6562 O 635.395 2.65611 0.562432 0
M  V30 6563 C 633.851 2.98989 -2.00333 0
M  V30 6564 C 633.459 2.79417 -3.50186 0
M  V30 6565 C 635.203 3.76856 -1.95397 0
M  V30 6566 C 633.11 4.08056 -4.28071 0
M  V30 6567 H 632.04 0.622587 -0.425324 0
M  V30 6568 H 634.691 1.01705 -1.52736 0
M  V30 6569 H 633.073 3.6438 -1.5506 0
M  V30 6570 H 634.247 2.22723 -4.034 0
M  V30 6571 H 632.562 2.14966 -3.56621 0
M  V30 6572 H 635.159 4.72203 -2.50856 0
M  V30 6573 H 635.502 4.05776 -0.930137 0
M  V30 6574 H 636.035 3.1828 -2.38626 0
M  V30 6575 H 632.774 3.8431 -5.31024 0
M  V30 6576 H 632.294 4.64371 -3.79631 0
M  V30 6577 H 633.973 4.76333 -4.37854 0
M  V30 6578 N 634.105 1.10431 1.1244 0
M  V30 6579 C 635.351 0.847972 1.84221 0
M  V30 6580 C 635.684 -0.624903 1.83871 0
M  V30 6581 O 634.959 -1.46074 1.28423 0
M  V30 6582 C 635.242 1.39695 3.319 0
M  V30 6583 C 635.095 2.93668 3.40704 0
M  V30 6584 C 636.414 1.03924 4.27654 0
M  V30 6585 H 633.533 0.309502 0.668863 0
M  V30 6586 H 636.175 1.36745 1.31912 0
M  V30 6587 H 634.325 0.955095 3.76577 0
M  V30 6588 H 635.997 3.46379 3.04662 0
M  V30 6589 H 634.24 3.30272 2.81252 0
M  V30 6590 H 634.911 3.27162 4.446 0
M  V30 6591 H 637.387 1.42049 3.91102 0
M  V30 6592 H 636.263 1.45027 5.29394 0
M  V30 6593 H 636.524 -0.051336 4.4207 0
M  V30 6594 N 635.583 -1.29855 0.893053 0
M  V30 6595 C 636.513 -2.3035 0.382249 0
M  V30 6596 C 637.494 -1.61328 -0.539203 0
M  V30 6597 O 638.679 -1.88882 -0.451342 0
M  V30 6598 C 635.809 -3.45024 -0.396983 0
M  V30 6599 C 634.763 -4.258 0.433437 0
M  V30 6600 C 634.089 -5.32605 -0.472889 0
M  V30 6601 C 635.389 -4.94549 1.67984 0
M  V30 6602 H 637.083 -2.73325 1.22205 0
M  V30 6603 H 634.629 -1.314 0.589073 0
M  V30 6604 H 636.582 -4.14398 -0.765024 0
M  V30 6605 H 635.306 -3.00875 -1.2705 0
M  V30 6606 H 633.965 -3.58125 0.783723 0
M  V30 6607 H 633.613 -4.84702 -1.34435 0
M  V30 6608 H 633.313 -5.87547 0.0789958 0
M  V30 6609 H 634.837 -6.04832 -0.837269 0
M  V30 6610 H 636.251 -5.56395 1.38192 0
M  V30 6611 H 634.648 -5.59393 2.17254 0
M  V30 6612 H 635.718 -4.20215 2.41965 0
M  V30 6613 N 637.061 -0.65484 -1.43351 0
M  V30 6614 C 638.289 -0.176685 -2.06144 0
M  V30 6615 C 638.704 1.15831 -1.49093 0
M  V30 6616 O 638.061 1.71542 -0.622868 0
M  V30 6617 C 638.112 -0.0813326 -3.61408 0
M  V30 6618 O 637.833 -1.36355 -4.1634 0
M  V30 6619 C 639.334 0.422706 -4.4128 0
M  V30 6620 H 636.554 -0.0906429 -0.66485 0
M  V30 6621 H 639.098 -0.895945 -1.83829 0
M  V30 6622 H 637.253 0.588496 -3.82904 0
M  V30 6623 H 637.667 -1.22381 -5.10023 0
M  V30 6624 H 639.141 0.438375 -5.50257 0
M  V30 6625 H 639.618 1.45432 -4.14423 0
M  V30 6626 H 640.224 -0.214687 -4.24758 0
M  V30 6627 N 638.539 1.52521 -0.396863 0
M  V30 6628 C 639.486 2.26671 0.434624 0
M  V30 6629 C 640.456 1.28584 1.05144 0
M  V30 6630 O 641.641 1.57426 1.07804 0
M  V30 6631 C 638.781 3.08234 1.55196 0
M  V30 6632 C 637.894 4.21261 0.957262 0
M  V30 6633 C 637.029 4.90205 2.04627 0
M  V30 6634 C 636.068 5.95213 1.42787 0
M  V30 6635 N 635.205 6.57723 2.45651 0
M  V30 6636 H 640.045 2.973 -0.204139 0
M  V30 6637 H 637.582 1.46669 -0.112505 0
M  V30 6638 H 639.54 3.53819 2.2106 0
M  V30 6639 H 638.17 2.398 2.16092 0
M  V30 6640 H 637.222 3.79935 0.188005 0
M  V30 6641 H 638.534 4.96624 0.465416 0
M  V30 6642 H 637.688 5.39133 2.78246 0
M  V30 6643 H 636.427 4.14383 2.57174 0
M  V30 6644 H 635.432 5.45616 0.676968 0
M  V30 6645 H 636.657 6.72972 0.910255 0
M  V30 6646 H 634.603 5.84737 2.97353 0
M  V30 6647 H 634.52 7.28723 2.01243 0
M  V30 6648 H 635.788 7.11293 3.18876 0
M  V30 6649 N 640.017 0.126909 1.57088 0
M  V30 6650 C 641.242 -0.53997 2.00248 0
M  V30 6651 C 641.667 -1.58927 1.00618 0
M  V30 6652 O 641.025 -1.81288 -0.0210131 0
M  V30 6653 C 641.073 -1.13565 3.4225 0
M  V30 6654 O 640.177 -2.25103 3.45547 0
M  V30 6655 H 639.518 -0.13412 0.650314 0
M  V30 6656 H 642.048 0.217718 2.03438 0
M  V30 6657 H 642.058 -1.46925 3.80627 0
M  V30 6658 H 640.733 -0.367122 4.14277 0
M  V30 6659 H 639.31 -1.93123 3.18995 0
M  V30 6660 N 641.495 -1.56914 -0.146875 0
M  V30 6661 C 642.743 -1.82994 -0.85777 0
M  V30 6662 C 643.064 -0.707814 -1.817 0
M  V30 6663 O 642.334 0.270521 -1.94023 0
M  V30 6664 H 640.914 -0.675106 -0.319751 0
M  V30 6665 H 643.576 -1.9439 -0.140849 0
M  V30 6666 H 642.672 -2.77928 -1.41994 0
M  V30 6667 N 642.974 0.416227 -1.52004 0
M  V30 6668 C 644.39 0.754319 -1.40649 0
M  V30 6669 C 644.59 1.95059 -0.505392 0
M  V30 6670 O 643.646 2.5248 0.0315057 0
M  V30 6671 C 644.959 1.0149 -2.83055 0
M  V30 6672 C 646.507 1.11805 -2.9235 0
M  V30 6673 C 646.982 1.41144 -4.35709 0
M  V30 6674 N 648.473 1.48024 -4.38911 0
M  V30 6675 C 649.208 1.72338 -5.46889 0
M  V30 6676 N 648.704 1.94303 -6.64995 0
M  V30 6677 N 650.497 1.74294 -5.34395 0
M  V30 6678 H 642.648 -0.371324 -2.09129 0
M  V30 6679 H 644.911 -0.103811 -0.942299 0
M  V30 6680 H 644.617 0.208345 -3.51082 0
M  V30 6681 H 644.491 1.93697 -3.23668 0
M  V30 6682 H 646.878 1.91521 -2.24508 0
M  V30 6683 H 646.959 0.17451 -2.55204 0
M  V30 6684 H 646.603 0.619484 -5.04108 0
M  V30 6685 H 646.533 2.36739 -4.70385 0
M  V30 6686 H 649.024 1.32868 -3.53772 0
M  V30 6687 H 649.337 2.12286 -7.43071 0
M  V30 6688 H 647.682 1.91582 -6.68073 0
M  V30 6689 H 650.873 1.56667 -4.41104 0
M  V30 6690 H 651.046 1.92904 -6.18621 0
M  V30 6691 N 644.452 1.42507 0.673017 0
M  V30 6692 C 645.677 1.4668 1.46627 0
M  V30 6693 C 646.102 0.080066 1.8793 0
M  V30 6694 O 645.46 -0.921879 1.56112 0
M  V30 6695 C 645.508 2.40091 2.69051 0
M  V30 6696 O 644.612 1.8735 3.67387 0
M  V30 6697 H 643.953 0.496908 0.44043 0
M  V30 6698 H 646.483 1.87215 0.825334 0
M  V30 6699 H 646.493 2.56731 3.17101 0
M  V30 6700 H 645.168 3.4084 2.3833 0
M  V30 6701 H 643.745 1.80274 3.26429 0
M  V30 6702 N 645.93 -0.909495 1.28709 0
M  V30 6703 C 646.893 -1.99399 1.13016 0
M  V30 6704 C 647.893 -1.60654 0.068536 0
M  V30 6705 O 649.083 -1.71334 0.314671 0
M  V30 6706 C 646.215 -3.33078 0.726085 0
M  V30 6707 H 647.408 -2.14751 2.09338 0
M  V30 6708 H 644.961 -1.09272 1.11756 0
M  V30 6709 H 645.696 -3.23428 -0.23771 0
M  V30 6710 H 645.481 -3.62562 1.49302 0
M  V30 6711 H 646.971 -4.12681 0.639058 0
M  V30 6712 N 647.408 -1.11026 -1.11852 0
M  V30 6713 C 648.358 -0.733836 -2.15868 0
M  V30 6714 C 649.342 0.26001 -1.58785 0
M  V30 6715 O 650.534 0.0677901 -1.7687 0
M  V30 6716 C 647.663 -0.173948 -3.42859 0
M  V30 6717 C 646.749 -1.1952 -4.0691 0
M  V30 6718 N 647.14 -2.38797 -4.45881 0
M  V30 6719 C 645.438 -1.03714 -4.33773 0
M  V30 6720 C 646.139 -3.03894 -4.96007 0
M  V30 6721 N 645.115 -2.31389 -4.91894 0
M  V30 6722 H 648.917 -1.64171 -2.43773 0
M  V30 6723 H 646.431 -0.988877 -1.28822 0
M  V30 6724 H 648.428 0.113836 -4.16745 0
M  V30 6725 H 647.088 0.728568 -3.16421 0
M  V30 6726 H 648.099 -2.76281 -4.38051 0
M  V30 6727 H 644.776 -0.190694 -4.17064 0
M  V30 6728 H 646.166 -4.05389 -5.35826 0
M  V30 6729 N 648.886 1.2938 -0.899927 0
M  V30 6730 C 649.818 2.26737 -0.335139 0
M  V30 6731 C 650.831 1.54316 0.518681 0
M  V30 6732 O 652.02 1.75313 0.335803 0
M  V30 6733 C 649.12 3.34558 0.540774 0
M  V30 6734 C 648.293 4.36455 -0.287372 0
M  V30 6735 C 647.352 5.2361 0.52141 0
M  V30 6736 O 646.378 5.69167 -0.0611735 0
M  V30 6737 N 647.58 5.50985 1.82745 0
M  V30 6738 H 650.345 2.75838 -1.17191 0
M  V30 6739 H 647.906 1.42716 -0.764438 0
M  V30 6740 H 649.898 3.89794 1.08825 0
M  V30 6741 H 648.468 2.85272 1.27823 0
M  V30 6742 H 647.688 3.80875 -1.01626 0
M  V30 6743 H 648.976 5.01573 -0.854518 0
M  V30 6744 H 648.374 5.15781 2.32349 0
M  V30 6745 H 646.931 6.09036 2.32204 0
M  V30 6746 N 650.364 0.662433 1.43002 0
M  V30 6747 C 651.61 0.179857 2.02001 0
M  V30 6748 C 651.943 -1.20625 1.52195 0
M  V30 6749 O 651.218 -1.80726 0.718911 0
M  V30 6750 C 651.501 0.200845 3.59539 0
M  V30 6751 C 651.354 1.62153 4.19555 0
M  V30 6752 C 652.673 -0.457738 4.37713 0
M  V30 6753 H 649.792 0.0668305 0.733964 0
M  V30 6754 H 652.434 0.84487 1.70182 0
M  V30 6755 H 650.584 -0.365411 3.86778 0
M  V30 6756 H 652.256 2.23908 4.03315 0
M  V30 6757 H 650.499 2.16601 3.75854 0
M  V30 6758 H 651.17 1.58799 5.28665 0
M  V30 6759 H 653.646 0.0241495 4.16093 0
M  V30 6760 H 652.522 -0.412363 5.47349 0
M  V30 6761 H 652.783 -1.53336 4.14657 0
M  V30 6762 N 651.842 -1.52309 0.404946 0
M  V30 6763 C 652.805 -2.25491 -0.410651 0
M  V30 6764 C 653.805 -1.27704 -0.977154 0
M  V30 6765 O 654.995 -1.51679 -0.856691 0
M  V30 6766 C 652.127 -3.02197 -1.57765 0
M  V30 6767 H 653.32 -2.99015 0.230277 0
M  V30 6768 H 650.873 -1.55506 0.157377 0
M  V30 6769 H 651.608 -2.33013 -2.25556 0
M  V30 6770 H 651.393 -3.73987 -1.17797 0
M  V30 6771 H 652.883 -3.57719 -2.15469 0
M  V30 6772 N 653.32 -0.135238 -1.57019 0
M  V30 6773 C 654.736 0.221262 -1.58059 0
M  V30 6774 C 654.936 1.65538 -1.14889 0
M  V30 6775 O 653.992 2.37985 -0.843751 0
M  V30 6776 C 655.305 -0.0268114 -3.00688 0
M  V30 6777 C 656.853 0.0378206 -3.12977 0
M  V30 6778 C 657.328 -0.182769 -4.57635 0
M  V30 6779 N 658.819 -0.129292 -4.6302 0
M  V30 6780 C 659.554 -0.274648 -5.72742 0
M  V30 6781 N 659.05 -0.477075 -6.91155 0
M  V30 6782 N 660.843 -0.213077 -5.61696 0
M  V30 6783 H 652.994 -1.07177 -1.83376 0
M  V30 6784 H 655.257 -0.423338 -0.848227 0
M  V30 6785 H 654.963 -1.01889 -3.36618 0
M  V30 6786 H 654.837 0.697863 -3.70688 0
M  V30 6787 H 657.224 1.02043 -2.76896 0
M  V30 6788 H 657.305 -0.718996 -2.45487 0
M  V30 6789 H 656.949 -1.16243 -4.94419 0
M  V30 6790 H 656.879 0.59423 -5.23237 0
M  V30 6791 H 659.37 0.0229896 -3.77893 0
M  V30 6792 H 659.683 -0.578413 -7.70632 0
M  V30 6793 H 658.028 -0.513252 -6.93102 0
M  V30 6794 H 661.219 -0.0557796 -4.68067 0
M  V30 6795 H 661.392 -0.329796 -6.4716 0
M  V30 6796 N 654.798 1.5699 0.138552 0
M  V30 6797 C 656.028 1.87704 0.863184 0
M  V30 6798 C 656.436 0.722411 1.74865 0
M  V30 6799 O 655.779 -0.316636 1.80951 0
M  V30 6800 C 655.841 3.13219 1.76449 0
M  V30 6801 C 655.505 4.44648 1.05532 0
M  V30 6802 C 656.502 5.18318 0.405252 0
M  V30 6803 C 654.187 4.91367 1.04231 0
M  V30 6804 C 656.181 6.36916 -0.24835 0
M  V30 6805 C 653.868 6.09887 0.384904 0
M  V30 6806 C 654.866 6.82508 -0.259292 0
M  V30 6807 O 654.554 7.98775 -0.906258 0
M  V30 6808 H 654.286 0.626255 0.254521 0
M  V30 6809 H 656.84 2.04966 0.133472 0
M  V30 6810 H 655.07 2.91988 2.53535 0
M  V30 6811 H 656.759 3.30111 2.36181 0
M  V30 6812 H 657.525 4.83289 0.407053 0
M  V30 6813 H 653.404 4.34759 1.53315 0
M  V30 6814 H 656.948 6.93538 -0.751755 0
M  V30 6815 H 652.845 6.44376 0.380799 0
M  V30 6816 H 653.613 8.14494 -0.80877 0
M  V30 6817 N 656.276 -0.40816 1.52223 0
M  V30 6818 C 657.692 -0.74685 1.41047 0
M  V30 6819 C 657.892 -1.94788 0.51573 0
M  V30 6820 O 656.948 -2.52494 -0.0181156 0
M  V30 6821 C 658.261 -0.999878 2.83589 0
M  V30 6822 C 659.809 -1.10253 2.92939 0
M  V30 6823 C 660.284 -1.38832 4.36451 0
M  V30 6824 N 661.775 -1.45694 4.3969 0
M  V30 6825 C 662.51 -1.69435 5.47795 0
M  V30 6826 N 662.006 -1.90774 6.66016 0
M  V30 6827 N 663.799 -1.71458 5.35312 0
M  V30 6828 H 655.95 0.382409 2.08929 0
M  V30 6829 H 658.213 0.108807 0.941735 0
M  V30 6830 H 657.919 -0.189723 3.51188 0
M  V30 6831 H 657.793 -1.91978 3.24691 0
M  V30 6832 H 660.18 -1.90328 2.2552 0
M  V30 6833 H 660.261 -0.160973 2.55293 0
M  V30 6834 H 659.905 -0.592741 5.04429 0
M  V30 6835 H 659.835 -2.34241 4.71634 0
M  V30 6836 H 662.326 -1.3099 3.54472 0
M  V30 6837 H 662.639 -2.08342 7.44186 0
M  V30 6838 H 660.984 -1.88037 6.69079 0
M  V30 6839 H 664.175 -1.54326 4.41929 0
M  V30 6840 H 664.348 -1.89621 6.19635 0
M  V30 6841 N 657.755 -1.42862 -0.66545 0
M  V30 6842 C 659.166 -1.3901 -1.24632 0
M  V30 6843 C 659.517 -0.0880285 -1.96002 0
M  V30 6844 O 658.642 0.812947 -2.0055 0
M  V30 6845 C 659.237 -2.51806 -2.2667 0
M  V30 6846 C 657.796 -2.51257 -2.80262 0
M  V30 6847 C 656.943 -2.30124 -1.5472 0
M  V30 6848 H 659.894 -1.5194 -0.458237 0
M  V30 6849 H 659.915 -2.22593 -3.08598 0
M  V30 6850 H 659.427 -3.46558 -1.74697 0
M  V30 6851 H 657.528 -1.60349 -3.36332 0
M  V30 6852 H 657.641 -3.48614 -3.28641 0
M  V30 6853 H 656.005 -1.7856 -1.81627 0
M  V30 6854 H 656.788 -3.26945 -1.04699 0
M  V30 6855 N 659.233 0.902656 -1.29189 0
M  V30 6856 C 660.649 1.18296 -1.07137 0
M  V30 6857 C 660.849 2.00701 0.179223 0
M  V30 6858 O 659.905 2.3675 0.877812 0
M  V30 6859 C 661.218 1.90677 -2.32514 0
M  V30 6860 C 662.766 2.03515 -2.37804 0
M  V30 6861 C 663.241 2.79307 -3.62976 0
M  V30 6862 N 664.732 2.86862 -3.63681 0
M  V30 6863 C 665.467 3.46035 -4.57217 0
M  V30 6864 N 664.963 4.06399 -5.61081 0
M  V30 6865 N 666.756 3.43681 -4.44792 0
M  V30 6866 H 658.907 0.352765 -2.0945 0
M  V30 6867 H 661.17 0.21876 -0.922414 0
M  V30 6868 H 660.876 1.3756 -3.23682 0
M  V30 6869 H 660.75 2.91169 -2.39793 0
M  V30 6870 H 663.137 2.55809 -1.47125 0
M  V30 6871 H 663.218 1.02166 -2.34512 0
M  V30 6872 H 662.862 2.2769 -4.54004 0
M  V30 6873 H 662.792 3.80995 -3.63525 0
M  V30 6874 H 665.283 2.43987 -2.88581 0
M  V30 6875 H 665.596 4.49564 -6.2858 0
M  V30 6876 H 663.941 4.0487 -5.64894 0
M  V30 6877 H 667.132 2.9574 -3.62843 0
M  V30 6878 H 667.305 3.89503 -5.17872 0
M  V30 6879 N 660.711 1.11618 1.11262 0
M  V30 6880 C 661.674 0.779447 2.15539 0
M  V30 6881 C 662.674 -0.202081 1.59525 0
M  V30 6882 O 663.864 0.0226356 1.74185 0
M  V30 6883 C 660.996 0.15674 3.40539 0
M  V30 6884 H 662.189 1.70324 2.4684 0
M  V30 6885 H 659.742 0.918298 1.26479 0
M  V30 6886 H 660.477 -0.777186 3.1485 0
M  V30 6887 H 660.262 0.863308 3.82478 0
M  V30 6888 H 661.752 -0.062661 4.17553 0
M  V30 6889 N 662.189 -1.289 0.906776 0
M  V30 6890 C 663.6 -1.77336 0.58384 0
M  V30 6891 C 663.951 -1.74304 -0.900697 0
M  V30 6892 O 663.076 -1.33335 -1.70443 0
M  V30 6893 C 663.671 -3.22019 1.05304 0
M  V30 6894 C 662.23 -3.68205 0.781148 0
M  V30 6895 C 661.377 -2.48837 1.22373 0
M  V30 6896 H 664.328 -1.15462 1.08877 0
M  V30 6897 H 664.349 -3.78481 0.391414 0
M  V30 6898 H 663.861 -3.24194 2.13353 0
M  V30 6899 H 661.962 -3.71497 -0.28643 0
M  V30 6900 H 662.075 -4.58675 1.384 0
M  V30 6901 H 660.439 -2.46461 0.642594 0
M  V30 6902 H 661.222 -2.53736 2.31242 0
M  V30 6903 N 663.667 -0.670007 -1.42649 0
M  V30 6904 C 664.916 -0.187526 -2.00826 0
M  V30 6905 C 665.229 1.21142 -1.53571 0
M  V30 6906 O 666.435 1.79001 -2.04134 0
M  V30 6907 C 664.891 -0.284409 -3.58774 0
M  V30 6908 C 664.499 -1.6871 -4.15019 0
M  V30 6909 C 666.243 0.139605 -4.2427 0
M  V30 6910 C 664.15 -1.73701 -5.65316 0
M  V30 6911 H 663.08 -0.0663468 -0.751075 0
M  V30 6912 H 665.731 -0.834492 -1.63427 0
M  V30 6913 H 664.113 0.430364 -3.93655 0
M  V30 6914 H 665.287 -2.42857 -3.91608 0
M  V30 6915 H 663.602 -2.05855 -3.61957 0
M  V30 6916 H 666.199 0.122398 -5.3456 0
M  V30 6917 H 666.542 1.17403 -3.99402 0
M  V30 6918 H 667.075 -0.523995 -3.94334 0
M  V30 6919 H 663.814 -2.75109 -5.94975 0
M  V30 6920 H 663.334 -1.03903 -5.90732 0
M  V30 6921 H 665.013 -1.48829 -6.2965 0
M  V30 6922 N 665.145 1.52092 -0.413018 0
M  V30 6923 C 666.394 2.01041 0.16287 0
M  V30 6924 C 666.707 1.30288 1.45892 0
M  V30 6925 O 667.913 1.70075 2.11629 0
M  V30 6926 C 666.369 3.58283 0.340806 0
M  V30 6927 C 665.977 4.37955 -0.943377 0
M  V30 6928 C 667.721 4.15452 0.871774 0
M  V30 6929 C 665.628 5.86847 -0.732417 0
M  V30 6930 H 664.558 0.751224 0.0646414 0
M  V30 6931 H 667.209 1.75404 -0.539059 0
M  V30 6932 H 665.591 3.80266 1.10516 0
M  V30 6933 H 666.765 4.2773 -1.71418 0
M  V30 6934 H 665.08 3.92122 -1.40105 0
M  V30 6935 H 667.677 5.24375 1.0457 0
M  V30 6936 H 668.02 3.73057 1.84755 0
M  V30 6937 H 668.553 3.97452 0.166377 0
M  V30 6938 H 665.292 6.33609 -1.67986 0
M  V30 6939 H 664.812 5.998 -0.000980058 0
M  V30 6940 H 666.491 6.45906 -0.376105 0
M  V30 6941 N 666.623 0.143563 1.56945 0
M  V30 6942 C 667.586 -0.783295 2.154 0
M  V30 6943 C 668.586 -1.17763 1.09492 0
M  V30 6944 O 669.776 -1.09912 1.35148 0
M  V30 6945 C 666.908 -2.06248 2.7143 0
M  V30 6946 H 668.101 -0.274863 2.98638 0
M  V30 6947 H 665.654 -0.105859 1.55941 0
M  V30 6948 H 666.389 -2.61466 1.91849 0
M  V30 6949 H 666.174 -1.78897 3.4891 0
M  V30 6950 H 667.664 -2.72453 3.16479 0
M  V30 6951 N 668.101 -1.57061 -0.130224 0
M  V30 6952 C 669.347 -1.8453 -0.841216 0
M  V30 6953 C 669.68 -0.727666 -1.80052 0
M  V30 6954 O 668.955 0.267419 -1.92653 0
M  V30 6955 C 669.238 -3.22553 -1.60099 0
M  V30 6956 C 669.091 -4.44901 -0.662048 0
M  V30 6957 C 670.41 -3.58003 -2.55973 0
M  V30 6958 H 667.529 -0.671215 -0.304366 0
M  V30 6959 H 670.171 -1.89705 -0.105821 0
M  V30 6960 H 668.321 -3.18272 -2.22789 0
M  V30 6961 H 669.993 -4.61278 -0.0448559 0
M  V30 6962 H 668.236 -4.33791 0.0272253 0
M  V30 6963 H 668.907 -5.3812 -1.23006 0
M  V30 6964 H 671.383 -3.63002 -2.03393 0
M  V30 6965 H 670.259 -4.55576 -3.06172 0
M  V30 6966 H 670.52 -2.84833 -3.38116 0
M  V30 6967 N 669.579 0.400081 -1.52437 0
M  V30 6968 C 670.807 1.16768 -1.70801 0
M  V30 6969 C 671.222 1.84036 -0.421462 0
M  V30 6970 O 670.579 1.72242 0.603228 0
M  V30 6971 C 670.63 2.22403 -2.8499 0
M  V30 6972 O 670.351 1.57879 -4.08663 0
M  V30 6973 C 671.852 3.11974 -3.1494 0
M  V30 6974 H 669.072 0.350533 -0.57216 0
M  V30 6975 H 671.616 0.469534 -1.99037 0
M  V30 6976 H 669.771 2.87871 -2.59247 0
M  V30 6977 H 670.185 2.27982 -4.7236 0
M  V30 6978 H 671.659 3.82148 -3.9833 0
M  V30 6979 H 672.136 3.74858 -2.28863 0
M  V30 6980 H 672.742 2.52165 -3.42481 0
M  V30 6981 N 671.057 1.43213 0.657864 0
M  V30 6982 C 672.473 1.26511 0.972992 0
M  V30 6983 C 672.673 0.181477 2.00681 0
M  V30 6984 O 671.729 -0.441649 2.48608 0
M  V30 6985 C 673.042 2.62784 1.46168 0
M  V30 6986 C 674.59 2.70278 1.57857 0
M  V30 6987 C 675.065 4.06958 2.10117 0
M  V30 6988 N 676.556 4.08999 2.17426 0
M  V30 6989 C 677.291 5.11585 2.58975 0
M  V30 6990 N 676.787 6.24548 2.99853 0
M  V30 6991 N 678.58 4.9894 2.58873 0
M  V30 6992 H 670.731 2.12384 -0.0263129 0
M  V30 6993 H 672.994 0.946638 0.0507992 0
M  V30 6994 H 672.7 3.43022 0.776474 0
M  V30 6995 H 672.574 2.87863 2.43751 0
M  V30 6996 H 674.961 1.90376 2.25479 0
M  V30 6997 H 675.042 2.4897 0.587179 0
M  V30 6998 H 674.686 4.87325 1.43098 0
M  V30 6999 H 674.616 4.25628 3.10078 0
M  V30 7000 H 677.107 3.27457 1.88627 0
M  V30 7001 H 677.42 6.98661 3.30292 0
M  V30 7002 H 675.765 6.28027 2.97669 0
M  V30 7003 H 678.956 4.09757 2.26311 0
M  V30 7004 H 679.129 5.79019 2.90932 0
M  V30 7005 N 672.536 -0.895792 1.29666 0
M  V30 7006 C 673.484 -2.02173 1.15017 0
M  V30 7007 C 674.478 -1.69276 0.0647651 0
M  V30 7008 O 675.684 -1.7859 0.224846 0
M  V30 7009 H 672.059 -0.662719 0.355397 0
M  V30 7010 H 674.03 -2.11666 2.10334 0
M  V30 7011 C 672.779 -3.37212 0.847555 0
M  V30 7012 H 672.102 -3.6303 1.67479 0
M  V30 7013 H 673.542 -4.16668 0.785106 0
M  V30 7014 C 672.001 -3.33891 -0.44929 0
M  V30 7015 O 672.531 -3.73673 -1.47415 0
M  V30 7016 N 670.737 -2.86991 -0.456547 0
M  V30 7017 H 670.284 -2.54813 0.377925 0
M  V30 7018 H 670.242 -2.85152 -1.32423 0
M  V30 7019 N 674.014 -1.12206 -1.10668 0
M  V30 7020 C 675.425 -0.890657 -1.64086 0
M  V30 7021 C 675.776 0.575502 -1.8757 0
M  V30 7022 O 674.901 1.4394 -1.61587 0
M  V30 7023 C 675.496 -1.61029 -2.98085 0
M  V30 7024 C 674.055 -1.4251 -3.48379 0
M  V30 7025 C 673.202 -1.64778 -2.23033 0
M  V30 7026 H 676.153 -1.27718 -0.94201 0
M  V30 7027 H 676.174 -1.05993 -3.65439 0
M  V30 7028 H 675.686 -2.67735 -2.80962 0
M  V30 7029 H 673.787 -0.380497 -3.70652 0
M  V30 7030 H 673.9 -2.17959 -4.26651 0
M  V30 7031 H 672.264 -1.07171 -2.31055 0
M  V30 7032 H 673.047 -2.72776 -2.08443 0
M  V30 7033 N 675.492 1.28418 -0.913599 0
M  V30 7034 C 676.424 2.26368 -0.359169 0
M  V30 7035 C 677.437 1.54858 0.502285 0
M  V30 7036 O 678.626 1.75659 0.31719 0
M  V30 7037 C 675.726 3.35112 0.50526 0
M  V30 7038 C 674.899 4.36126 -0.333648 0
M  V30 7039 C 673.958 5.24134 0.465845 0
M  V30 7040 O 672.984 5.6907 -0.121538 0
M  V30 7041 N 674.186 5.52892 1.76891 0
M  V30 7042 H 676.951 2.74579 -1.2011 0
M  V30 7043 H 674.512 1.41898 -0.779532 0
M  V30 7044 H 676.504 3.90926 1.04684 0
M  V30 7045 H 675.074 2.86611 1.2479 0
M  V30 7046 H 674.294 3.79776 -1.0566 0
M  V30 7047 H 675.582 5.00638 -0.907669 0
M  V30 7048 H 674.98 5.18217 2.26865 0
M  V30 7049 H 673.537 6.11464 2.25732 0
M  V30 7050 N 676.97 0.677563 1.42291 0
M  V30 7051 C 678.198 0.209459 2.05837 0
M  V30 7052 C 678.613 -1.13444 1.50917 0
M  V30 7053 O 677.97 -1.70529 0.65008 0
M  V30 7054 C 678.021 0.138819 3.61233 0
M  V30 7055 O 677.742 1.42962 4.14118 0
M  V30 7056 C 679.243 -0.352449 4.41897 0
M  V30 7057 H 676.463 0.101209 0.663323 0
M  V30 7058 H 679.007 0.925077 1.8238 0
M  V30 7059 H 677.162 -0.527505 3.83792 0
M  V30 7060 H 677.576 1.3048 5.08011 0
M  V30 7061 H 679.05 -0.350778 5.50884 0
M  V30 7062 H 679.527 -1.3882 4.16684 0
M  V30 7063 H 680.133 0.282236 4.24362 0
M  V30 7064 N 678.448 -1.51871 0.421078 0
M  V30 7065 C 679.411 -2.25914 -0.386712 0
M  V30 7066 C 680.411 -1.28733 -0.963555 0
M  V30 7067 O 681.601 -1.52579 -0.840556 0
M  V30 7068 C 678.733 -3.03853 -1.54551 0
M  V30 7069 H 679.926 -2.98754 0.261978 0
M  V30 7070 H 677.479 -1.5533 0.173862 0
M  V30 7071 H 678.214 -2.35392 -2.23072 0
M  V30 7072 H 677.999 -3.75215 -1.13824 0
M  V30 7073 H 679.489 -3.59984 -2.11663 0
M  V30 7074 N 679.926 -0.151884 -1.56866 0
M  V30 7075 C 681.342 0.204486 -1.58285 0
M  V30 7076 C 681.542 1.6431 -1.16639 0
M  V30 7077 O 680.598 2.37077 -0.868946 0
M  V30 7078 C 681.911 -0.0587019 -3.00643 0
M  V30 7079 C 683.459 0.00462303 -3.13 0
M  V30 7080 C 683.934 -0.231297 -4.57416 0
M  V30 7081 N 685.425 -0.178394 -4.62856 0
M  V30 7082 C 686.16 -0.335379 -5.72418 0
M  V30 7083 N 685.656 -0.550355 -6.90611 0
M  V30 7084 N 687.449 -0.272641 -5.61438 0
M  V30 7085 H 679.6 -1.09116 -1.82229 0
M  V30 7086 H 681.863 -0.432311 -0.843689 0
M  V30 7087 H 681.569 -1.05453 -3.35518 0
M  V30 7088 H 681.443 0.658508 -3.71407 0
M  V30 7089 H 683.83 0.991009 -2.77962 0
M  V30 7090 H 683.911 -0.744992 -2.44711 0
M  V30 7091 H 683.555 -1.2148 -4.93158 0
M  V30 7092 H 683.485 0.5387 -5.23837 0
M  V30 7093 H 685.976 -0.0170923 -3.77896 0
M  V30 7094 H 686.289 -0.660116 -7.69976 0
M  V30 7095 H 684.634 -0.586736 -6.92519 0
M  V30 7096 H 687.825 -0.105421 -4.67981 0
M  V30 7097 H 687.998 -0.398418 -6.46774 0
M  V30 7098 N 681.404 1.57128 0.121893 0
M  V30 7099 C 682.336 1.96773 1.17529 0
M  V30 7100 C 683.349 0.866668 1.37814 0
M  V30 7101 O 684.538 1.14497 1.3694 0
M  V30 7102 C 681.638 2.24832 2.53582 0
M  V30 7103 C 680.811 3.56138 2.53939 0
M  V30 7104 C 679.87 3.72443 3.71716 0
M  V30 7105 O 678.896 4.44584 3.55434 0
M  V30 7106 N 680.098 3.10993 4.90167 0
M  V30 7107 H 682.863 2.87743 0.838086 0
M  V30 7108 H 680.424 1.58881 0.311199 0
M  V30 7109 H 682.416 2.32958 3.30927 0
M  V30 7110 H 680.986 1.40002 2.79496 0
M  V30 7111 H 680.206 3.59226 1.62329 0
M  V30 7112 H 681.494 4.42448 2.51231 0
M  V30 7113 H 680.892 2.52345 5.06299 0
M  V30 7114 H 679.449 3.24644 5.65198 0
M  V30 7115 N 682.882 -0.391992 1.52647 0
M  V30 7116 C 683.845 -1.46135 1.7657 0
M  V30 7117 C 684.845 -1.47701 0.635698 0
M  V30 7118 O 686.035 -1.48924 0.903728 0
M  V30 7119 C 683.167 -2.85443 1.86374 0
M  V30 7120 H 684.36 -1.26208 2.72051 0
M  V30 7121 H 681.913 -0.623549 1.43323 0
M  V30 7122 H 682.648 -3.10718 0.928685 0
M  V30 7123 H 682.433 -2.85708 2.68539 0
M  V30 7124 H 683.923 -3.62933 2.06566 0
M  V30 7125 N 684.36 -1.4356 -0.65026 0
M  V30 7126 C 685.31 -1.45392 -1.75628 0
M  V30 7127 C 686.294 -0.322006 -1.57645 0
M  V30 7128 O 687.486 -0.565996 -1.67707 0
M  V30 7129 C 684.615 -1.38254 -3.1423 0
M  V30 7130 C 683.701 -2.56487 -3.3775 0
M  V30 7131 N 684.092 -3.81824 -3.31729 0
M  V30 7132 C 682.39 -2.51274 -3.6848 0
M  V30 7133 C 683.091 -4.60497 -3.55412 0
M  V30 7134 N 682.067 -3.91274 -3.77367 0
M  V30 7135 H 685.869 -2.40167 -1.69402 0
M  V30 7136 H 683.383 -1.38254 -0.852037 0
M  V30 7137 H 685.38 -1.3765 -3.9352 0
M  V30 7138 H 684.04 -0.445019 -3.21636 0
M  V30 7139 H 685.051 -4.14069 -3.11074 0
M  V30 7140 H 681.728 -1.66223 -3.82983 0
M  V30 7141 H 683.118 -5.69518 -3.5651 0
M  V30 7142 N 685.838 0.888903 -1.30139 0
M  V30 7143 C 686.768 2.01046 -1.18755 0
M  V30 7144 C 687.749 1.69916 -0.0791438 0
M  V30 7145 O 688.934 1.92445 -0.260498 0
M  V30 7146 C 686.064 3.36109 -0.874518 0
M  V30 7147 C 685.018 3.81486 -1.94043 0
M  V30 7148 C 684.344 5.13796 -1.48047 0
M  V30 7149 C 685.644 4.00637 -3.35093 0
M  V30 7150 H 687.338 2.10828 -2.12584 0
M  V30 7151 H 684.884 1.01298 -1.02346 0
M  V30 7152 H 686.837 4.14089 -0.781548 0
M  V30 7153 H 685.561 3.26449 0.0994519 0
M  V30 7154 H 684.22 3.05731 -2.02297 0
M  V30 7155 H 683.868 5.0056 -0.494878 0
M  V30 7156 H 683.568 5.45127 -2.19341 0
M  V30 7157 H 685.092 5.94305 -1.40121 0
M  V30 7158 H 686.506 4.69067 -3.2962 0
M  V30 7159 H 684.903 4.43339 -4.04438 0
M  V30 7160 H 685.973 3.0462 -3.77273 0
M  V30 7161 N 687.317 1.12792 1.10072 0
M  V30 7162 C 688.547 0.907189 1.85617 0
M  V30 7163 C 688.955 -0.547181 1.81115 0
M  V30 7164 O 688.298 -1.39024 1.20075 0
M  V30 7165 C 688.36 1.30872 3.34832 0
M  V30 7166 C 688.024 2.77516 3.6309 0
M  V30 7167 C 689.021 3.75696 3.59373 0
M  V30 7168 C 686.706 3.14513 3.91646 0
M  V30 7169 C 688.7 5.08888 3.83812 0
M  V30 7170 C 686.387 4.47886 4.15742 0
M  V30 7171 C 687.385 5.44882 4.11816 0
M  V30 7172 O 687.073 6.7585 4.35295 0
M  V30 7173 H 686.805 0.323855 0.593375 0
M  V30 7174 H 689.359 1.50262 1.40038 0
M  V30 7175 H 687.589 0.656518 3.81086 0
M  V30 7176 H 689.278 1.06153 3.91773 0
M  V30 7177 H 690.044 3.48458 3.37345 0
M  V30 7178 H 685.923 2.39622 3.93831 0
M  V30 7179 H 689.467 5.84586 3.80663 0
M  V30 7180 H 685.364 4.74851 4.37249 0
M  V30 7181 H 686.132 6.81853 4.52791 0
M  V30 7182 N 688.795 -1.27931 0.920396 0
M  V30 7183 C 690.211 -1.47085 0.619537 0
M  V30 7184 C 690.411 -1.83463 -0.833291 0
M  V30 7185 O 689.467 -1.94363 -1.61181 0
M  V30 7186 C 690.78 -2.56878 1.56314 0
M  V30 7187 C 692.328 -2.70743 1.57058 0
M  V30 7188 C 692.803 -3.83687 2.50097 0
M  V30 7189 N 694.294 -3.9105 2.48262 0
M  V30 7190 C 695.029 -4.77842 3.16945 0
M  V30 7191 N 694.525 -5.69176 3.94982 0
M  V30 7192 N 696.318 -4.71509 3.06 0
M  V30 7193 H 688.469 -1.02601 1.85975 0
M  V30 7194 H 690.732 -0.511682 0.798051 0
M  V30 7195 H 690.438 -2.36923 2.59923 0
M  V30 7196 H 690.312 -3.54117 1.29928 0
M  V30 7197 H 692.699 -2.90083 0.541832 0
M  V30 7198 H 692.78 -1.74015 1.8749 0
M  V30 7199 H 692.424 -3.65101 3.53077 0
M  V30 7200 H 692.354 -4.79827 2.16964 0
M  V30 7201 H 694.845 -3.25738 1.91581 0
M  V30 7202 H 695.158 -6.32245 4.44394 0
M  V30 7203 H 693.503 -5.68995 3.99086 0
M  V30 7204 H 696.694 -3.99151 2.44533 0
M  V30 7205 H 696.867 -5.38933 3.59799 0
M  V30 7206 N 690.273 -0.685099 -1.4193 0
M  V30 7207 C 691.521 -0.21124 -2.00993 0
M  V30 7208 C 691.842 1.18985 -1.54491 0
M  V30 7209 O 691.112 1.8009 -0.771 0
M  V30 7210 H 689.692 -0.0751059 -0.743215 0
M  V30 7211 H 692.354 -0.883915 -1.73704 0
M  V30 7212 H 691.45 -0.220513 -3.1132 0
M  V30 7213 N 691.751 1.51645 -0.429126 0
M  V30 7214 C 693 2.01203 0.141538 0
M  V30 7215 C 693.313 1.31828 1.44502 0
M  V30 7216 O 694.519 1.7231 2.09813 0
M  V30 7217 C 692.975 3.58624 0.302786 0
M  V30 7218 C 692.583 4.3693 -0.989775 0
M  V30 7219 C 694.327 4.16353 0.827661 0
M  V30 7220 C 692.234 5.86037 -0.794619 0
M  V30 7221 H 691.164 0.751867 0.05667 0
M  V30 7222 H 693.815 1.74822 -0.557633 0
M  V30 7223 H 692.197 3.81417 1.06476 0
M  V30 7224 H 693.371 4.25887 -1.75945 0
M  V30 7225 H 691.686 3.90614 -1.44256 0
M  V30 7226 H 694.283 5.25455 0.990026 0
M  V30 7227 H 694.626 3.74995 1.80787 0
M  V30 7228 H 695.159 3.97606 0.124213 0
M  V30 7229 H 691.898 6.31792 -1.74697 0
M  V30 7230 H 691.418 5.99765 -0.0645968 0
M  V30 7231 H 693.097 6.45471 -0.444591 0
M  V30 7232 N 693.229 0.160201 1.56784 0
M  V30 7233 C 694.476 -0.487588 1.96542 0
M  V30 7234 C 694.804 -1.63999 1.04569 0
M  V30 7235 O 694.059 -1.95546 0.0775211 0
M  V30 7236 C 694.358 -1.02259 3.42459 0
M  V30 7237 C 694.024 0.0127436 4.50898 0
M  V30 7238 C 692.686 0.297318 4.80281 0
M  V30 7239 C 695.038 0.716078 5.16257 0
M  V30 7240 C 692.366 1.29081 5.72324 0
M  V30 7241 C 694.718 1.69847 6.09372 0
M  V30 7242 C 693.382 1.99061 6.37127 0
M  V30 7243 H 692.652 -0.178421 0.719199 0
M  V30 7244 H 695.299 0.249818 1.89864 0
M  V30 7245 H 693.604 -1.8376 3.46034 0
M  V30 7246 H 695.301 -1.53261 3.70556 0
M  V30 7247 H 691.891 -0.219235 4.28039 0
M  V30 7248 H 696.075 0.509428 4.93679 0
M  V30 7249 H 691.331 1.52344 5.92116 0
M  V30 7250 H 695.505 2.2489 6.59088 0
M  V30 7251 H 693.132 2.76194 7.08252 0
M  V30 7252 N 694.707 -1.5719 -0.113559 0
M  V30 7253 C 696.118 -1.74259 -0.670116 0
M  V30 7254 C 696.469 -0.779694 -1.80042 0
M  V30 7255 O 695.594 0.0461353 -2.16351 0
M  V30 7256 C 696.189 -3.15981 -1.22236 0
M  V30 7257 C 694.748 -3.34537 -1.72516 0
M  V30 7258 C 693.895 -2.70116 -0.627098 0
M  V30 7259 H 696.846 -1.58301 0.112396 0
M  V30 7260 H 696.867 -3.17832 -2.09197 0
M  V30 7261 H 696.379 -3.86038 -0.39949 0
M  V30 7262 H 694.48 -2.6953 -2.57263 0
M  V30 7263 H 694.593 -4.42737 -1.83086 0
M  V30 7264 H 692.957 -2.31501 -1.06204 0
M  V30 7265 H 693.74 -3.42802 0.184889 0
M  V30 7266 N 696.185 0.383891 -1.52853 0
M  V30 7267 C 697.431 1.13009 -1.68395 0
M  V30 7268 C 697.764 1.89488 -0.425195 0
M  V30 7269 O 697.039 1.8574 0.577136 0
M  V30 7270 C 697.322 2.10419 -2.92226 0
M  V30 7271 C 697.175 1.3767 -4.28214 0
M  V30 7272 C 698.494 3.10781 -3.11614 0
M  V30 7273 H 695.613 0.409463 -0.612788 0
M  V30 7274 H 698.255 0.412895 -1.85459 0
M  V30 7275 H 696.405 2.71579 -2.77808 0
M  V30 7276 H 698.077 0.794352 -4.54409 0
M  V30 7277 H 696.32 0.678533 -4.2846 0
M  V30 7278 H 696.991 2.08874 -5.10956 0
M  V30 7279 H 699.467 2.59715 -3.25096 0
M  V30 7280 H 698.343 3.76179 -3.99725 0
M  V30 7281 H 698.604 3.79933 -2.2606 0
M  V30 7282 N 697.663 1.43903 0.642637 0
M  V30 7283 C 698.593 1.52697 1.76652 0
M  V30 7284 C 699.574 0.380816 1.65782 0
M  V30 7285 O 700.759 0.599432 1.84717 0
M  V30 7286 C 697.889 1.45975 3.15133 0
M  V30 7287 C 696.843 2.58949 3.40778 0
M  V30 7288 C 696.169 2.37279 4.79169 0
M  V30 7289 C 697.469 4.01153 3.34475 0
M  V30 7290 H 699.163 2.46766 1.69549 0
M  V30 7291 H 696.709 1.18767 0.814279 0
M  V30 7292 H 698.662 1.5073 3.93521 0
M  V30 7293 H 697.386 0.484162 3.22991 0
M  V30 7294 H 696.045 2.53564 2.64765 0
M  V30 7295 H 695.693 1.37939 4.83717 0
M  V30 7296 H 695.393 3.13016 4.97287 0
M  V30 7297 H 696.917 2.43834 5.59801 0
M  V30 7298 H 698.331 4.07968 4.02784 0
M  V30 7299 H 696.728 4.77001 3.64129 0
M  V30 7300 H 697.798 4.25539 2.32475 0
M  V30 7301 N 699.141 -0.881989 1.30609 0
M  V30 7302 C 700.381 -1.64817 1.20891 0
M  V30 7303 C 700.745 -1.90593 -0.232043 0
M  V30 7304 O 701.946 -2.64964 -0.452516 0
M  V30 7305 C 700.217 -2.95006 2.01758 0
M  V30 7306 S 701.776 -3.85953 2.08771 0
M  V30 7307 H 698.594 -0.565651 0.430767 0
M  V30 7308 H 701.196 -1.04665 1.65122 0
M  V30 7309 H 699.9 -2.73973 3.0556 0
M  V30 7310 H 699.431 -3.60189 1.582 0
M  V30 7311 H 701.446 -4.81037 1.21727 0
M  V30 7312 N 700.619 -1.13374 -1.09472 0
M  V30 7313 C 701.566 -0.810682 -2.16094 0
M  V30 7314 C 702.536 0.227003 -1.64541 0
M  V30 7315 O 703.721 0.0993538 -1.90541 0
M  V30 7316 C 700.861 -0.282336 -3.43943 0
M  V30 7317 C 699.974 -1.37902 -4.09398 0
M  V30 7318 C 699.109 -0.809066 -5.25002 0
M  V30 7319 C 698.148 -1.88419 -5.82379 0
M  V30 7320 N 697.285 -1.33221 -6.89345 0
M  V30 7321 H 702.125 -1.72397 -2.43071 0
M  V30 7322 H 699.662 -0.860564 -1.19301 0
M  V30 7323 H 701.62 0.0421189 -4.17179 0
M  V30 7324 H 700.25 0.594083 -3.17286 0
M  V30 7325 H 699.302 -1.82008 -3.34032 0
M  V30 7326 H 700.614 -2.19161 -4.48074 0
M  V30 7327 H 699.768 -0.435867 -6.05132 0
M  V30 7328 H 698.507 0.0346058 -4.87688 0
M  V30 7329 H 697.512 -2.26646 -5.00911 0
M  V30 7330 H 698.737 -2.73125 -6.21755 0
M  V30 7331 H 696.683 -0.510535 -6.5401 0
M  V30 7332 H 696.6 -2.08129 -7.26786 0
M  V30 7333 H 697.868 -0.986565 -7.73232 0
M  V30 7334 N 702.098 1.27442 -0.927168 0
M  V30 7335 C 703.375 1.89473 -0.485742 0
M  V30 7336 C 703.755 1.83922 1.03614 0
M  V30 7337 O 703.103 1.28409 1.89007 0
M  V30 7338 C 703.313 3.33417 -1.03123 0
M  V30 7339 C 704.661 4.10333 -1.0914 0
M  V30 7340 O 705.685 3.4243 -0.98082 0
M  V30 7341 O 704.544 5.31737 -1.26165 0
M  V30 7342 H 701.638 0.812124 -0.156154 0
M  V30 7343 H 704.184 1.35713 -1.01882 0
M  V30 7344 H 702.956 3.31747 -2.07508 0
M  V30 7345 H 702.579 3.94695 -0.479767 0
M  V30 7346 N 703.576 0.692616 1.41565 0
M  V30 7347 C 704.987 0.297478 1.84315 0
M  V30 7348 C 705.338 -1.16379 1.57957 0
M  V30 7349 O 704.463 -1.89303 1.0485 0
M  V30 7350 C 705.058 0.533136 3.34579 0
M  V30 7351 C 703.617 0.191944 3.7591 0
M  V30 7352 C 702.764 0.816873 2.64995 0
M  V30 7353 H 705.715 0.893488 1.31158 0
M  V30 7354 H 705.736 -0.209105 3.79925 0
M  V30 7355 H 705.248 1.59674 3.53731 0
M  V30 7356 H 703.349 -0.867512 3.6236 0
M  V30 7357 H 703.462 0.644902 4.7474 0
M  V30 7358 H 701.826 0.246715 2.53502 0
M  V30 7359 H 702.609 1.88429 2.86966 0
M  V30 7360 N 705.054 -1.51416 0.437162 0
M  V30 7361 C 706.3 -2.02386 -0.129555 0
M  V30 7362 C 706.633 -1.32071 -1.42376 0
M  V30 7363 O 705.908 -0.43559 -1.8956 0
M  V30 7364 C 706.191 -3.5841 -0.348487 0
M  V30 7365 C 706.044 -4.39341 0.964352 0
M  V30 7366 C 707.363 -4.25654 -1.11834 0
M  V30 7367 H 704.482 -0.735587 -0.0456109 0
M  V30 7368 H 707.124 -1.81055 0.576124 0
M  V30 7369 H 705.274 -3.76716 -0.949592 0
M  V30 7370 H 706.946 -4.32685 1.59942 0
M  V30 7371 H 705.189 -4.04432 1.56898 0
M  V30 7372 H 705.86 -5.4667 0.765212 0
M  V30 7373 H 708.336 -4.11617 -0.609165 0
M  V30 7374 H 707.212 -5.34704 -1.24029 0
M  V30 7375 H 707.473 -3.86502 -2.14636 0
M  V30 7376 N 706.532 -0.168513 -1.56696 0
M  V30 7377 C 707.464 0.794249 -2.14998 0
M  V30 7378 C 708.477 1.1957 -1.10485 0
M  V30 7379 O 709.666 1.13604 -1.37682 0
M  V30 7380 C 706.766 2.08018 -2.67547 0
M  V30 7381 C 705.939 1.84274 -3.96689 0
M  V30 7382 C 704.998 2.97059 -4.3433 0
M  V30 7383 O 704.024 2.67815 -5.02259 0
M  V30 7384 N 705.226 4.24775 -3.9566 0
M  V30 7385 H 707.991 0.295832 -2.98236 0
M  V30 7386 H 705.552 0.0143611 -1.61894 0
M  V30 7387 H 707.544 2.82559 -2.89729 0
M  V30 7388 H 706.114 2.49059 -1.88914 0
M  V30 7389 H 705.334 0.936528 -3.82914 0
M  V30 7390 H 706.622 1.65773 -4.81037 0
M  V30 7391 H 706.02 4.51395 -3.40968 0
M  V30 7392 H 704.577 4.96027 -4.22848 0
M  V30 7393 N 708.01 1.57248 0.105221 0
M  V30 7394 C 708.92 2.04653 1.14693 0
M  V30 7395 C 709.936 0.969488 1.44489 0
M  V30 7396 O 711.112 1.28196 1.55331 0
M  V30 7397 C 708.177 2.45297 2.45011 0
M  V30 7398 C 707.238 3.67148 2.22489 0
M  V30 7399 C 706.471 4.05844 3.46592 0
M  V30 7400 O 706.694 3.44736 4.54437 0
M  V30 7401 O 705.628 4.98862 3.36779 0
M  V30 7402 H 709.454 2.93663 0.774336 0
M  V30 7403 H 707.039 1.45998 0.31701 0
M  V30 7404 H 708.921 2.72112 3.21766 0
M  V30 7405 H 707.596 1.59429 2.81717 0
M  V30 7406 H 706.503 3.45463 1.43547 0
M  V30 7407 H 707.836 4.53764 1.9068 0
M  V30 7408 N 709.488 -0.375779 1.53054 0
M  V30 7409 C 710.451 -1.44254 1.7811 0
M  V30 7410 C 711.451 -1.47018 0.651328 0
M  V30 7411 O 712.641 -1.47957 0.919472 0
M  V30 7412 C 709.773 -2.8345 1.89391 0
M  V30 7413 H 710.966 -1.23316 2.73374 0
M  V30 7414 H 708.519 -0.608312 1.43977 0
M  V30 7415 H 709.254 -3.09716 0.961589 0
M  V30 7416 H 709.039 -2.82844 2.71555 0
M  V30 7417 H 710.529 -3.60722 2.10404 0
M  V30 7418 N 710.966 -1.44241 -0.634997 0
M  V30 7419 C 712.212 -1.48033 -1.39492 0
M  V30 7420 C 712.567 -0.109791 -1.92086 0
M  V30 7421 O 711.86 0.874394 -1.70484 0
M  V30 7422 C 712.054 -2.47279 -2.58046 0
M  V30 7423 C 711.883 -3.93848 -2.17057 0
M  V30 7424 C 710.653 -4.62061 -2.04518 0
M  V30 7425 C 712.851 -4.83172 -1.76208 0
M  V30 7426 N 710.833 -5.93471 -1.57051 0
M  V30 7427 C 712.204 -6.03996 -1.39958 0
M  V30 7428 C 714.259 -4.70271 -1.63554 0
M  V30 7429 C 712.962 -7.13351 -0.923196 0
M  V30 7430 C 714.988 -5.79646 -1.1732 0
M  V30 7431 C 714.35 -6.99609 -0.820181 0
M  V30 7432 H 710.449 -0.596743 -0.505392 0
M  V30 7433 H 713.033 -1.80542 -0.72887 0
M  V30 7434 H 711.204 -2.16766 -3.22284 0
M  V30 7435 H 712.936 -2.41391 -3.24827 0
M  V30 7436 H 709.691 -4.1682 -2.24851 0
M  V30 7437 H 710.115 -6.63275 -1.35628 0
M  V30 7438 H 714.757 -3.77964 -1.8948 0
M  V30 7439 H 712.475 -8.0547 -0.651441 0
M  V30 7440 H 716.061 -5.71689 -1.07993 0
M  V30 7441 H 714.941 -7.82803 -0.467901 0
M  V30 7442 N 712.444 0.87505 -1.31075 0
M  V30 7443 C 713.407 1.96333 -1.18263 0
M  V30 7444 C 714.407 1.60416 -0.111106 0
M  V30 7445 O 715.597 1.7044 -0.359987 0
M  V30 7446 C 712.729 3.31036 -0.81414 0
M  V30 7447 H 713.922 2.09125 -2.14958 0
M  V30 7448 H 711.475 1.06271 -1.14614 0
M  V30 7449 H 712.21 3.23944 0.151875 0
M  V30 7450 H 711.995 3.58476 -1.58862 0
M  V30 7451 H 713.485 4.10842 -0.748249 0
M  V30 7452 N 713.922 1.13953 1.08869 0
M  V30 7453 C 714.832 0.835666 2.19212 0
M  V30 7454 C 715.848 -0.182005 1.73045 0
M  V30 7455 O 717.024 -0.0116661 2.01397 0
M  V30 7456 C 714.089 0.312325 3.4529 0
M  V30 7457 C 713.15 1.39196 4.06107 0
M  V30 7458 C 712.383 0.893496 5.26168 0
M  V30 7459 O 712.606 -0.266807 5.69776 0
M  V30 7460 O 711.54 1.67037 5.78258 0
M  V30 7461 H 715.366 1.75769 2.47667 0
M  V30 7462 H 712.951 0.917421 1.17914 0
M  V30 7463 H 714.833 0.0261582 4.21392 0
M  V30 7464 H 713.508 -0.582042 3.18424 0
M  V30 7465 H 712.415 1.73152 3.31616 0
M  V30 7466 H 713.748 2.26068 4.37212 0
M  V30 7467 N 715.4 -1.26948 0.933913 0
M  V30 7468 C 716.677 -1.89212 0.495784 0
M  V30 7469 C 717.057 -1.84469 -1.02637 0
M  V30 7470 O 716.405 -1.29409 -1.88323 0
M  V30 7471 C 716.615 -3.32865 1.0489 0
M  V30 7472 C 717.963 -4.09749 1.11315 0
M  V30 7473 O 718.987 -3.41905 0.998966 0
M  V30 7474 O 717.846 -5.31061 1.28983 0
M  V30 7475 H 714.94 -0.811284 0.160459 0
M  V30 7476 H 717.486 -1.35171 1.02601 0
M  V30 7477 H 716.258 -3.30642 2.09265 0
M  V30 7478 H 715.881 -3.94435 0.500692 0
M  V30 7479 N 716.879 -0.700114 -1.41195 0
M  V30 7480 C 718.125 -0.233351 -2.01453 0
M  V30 7481 C 718.458 1.16548 -1.55339 0
M  V30 7482 O 717.733 1.78756 -0.766575 0
M  V30 7483 C 718.016 -0.2961 -3.58881 0
M  V30 7484 C 717.869 -1.7322 -4.15108 0
M  V30 7485 C 719.188 0.341525 -4.38773 0
M  V30 7486 H 716.307 -0.0862667 -0.731934 0
M  V30 7487 H 718.949 -0.889693 -1.67882 0
M  V30 7488 H 717.099 0.262736 -3.87611 0
M  V30 7489 H 718.771 -2.34523 -3.97236 0
M  V30 7490 H 717.014 -2.2649 -3.69979 0
M  V30 7491 H 717.685 -1.7276 -5.24269 0
M  V30 7492 H 720.161 -0.134461 -4.15883 0
M  V30 7493 H 719.037 0.267098 -5.4825 0
M  V30 7494 H 719.298 1.42289 -4.18577 0
M  V30 7495 N 718.357 1.51182 -0.445186 0
M  V30 7496 C 719.634 1.9478 0.178965 0
M  V30 7497 C 720.014 1.38428 1.59376 0
M  V30 7498 O 719.362 0.574552 2.21159 0
M  V30 7499 C 719.572 3.48683 0.148711 0
M  V30 7500 C 720.92 4.23152 0.35042 0
M  V30 7501 O 721.944 3.55479 0.226474 0
M  V30 7502 O 720.803 5.4322 0.597893 0
M  V30 7503 H 717.897 0.817387 0.12573 0
M  V30 7504 H 720.443 1.62051 -0.503729 0
M  V30 7505 H 719.215 3.82176 -0.84009 0
M  V30 7506 H 718.838 3.87875 0.873979 0
M  V30 7507 N 719.835 0.176821 1.56605 0
M  V30 7508 C 720.765 -0.746841 2.21234 0
M  V30 7509 C 721.746 -1.23502 1.16967 0
M  V30 7510 O 722.931 -1.28718 1.45414 0
M  V30 7511 C 720.061 -1.97407 2.8574 0
M  V30 7512 C 719.015 -1.62153 3.96094 0
M  V30 7513 C 718.341 -2.92387 4.47676 0
M  V30 7514 C 719.641 -0.845353 5.15413 0
M  V30 7515 H 721.335 -0.208116 2.98676 0
M  V30 7516 H 718.881 -0.0986594 1.43662 0
M  V30 7517 H 720.834 -2.62531 3.2963 0
M  V30 7518 H 719.558 -2.53703 2.05676 0
M  V30 7519 H 718.217 -0.993964 3.52868 0
M  V30 7520 H 717.865 -3.46734 3.64396 0
M  V30 7521 H 717.565 -2.69551 5.22127 0
M  V30 7522 H 719.089 -3.5853 4.94255 0
M  V30 7523 H 720.503 -1.39929 5.55961 0
M  V30 7524 H 718.9 -0.715814 5.95815 0
M  V30 7525 H 719.97 0.157239 4.84645 0
M  V30 7526 N 721.313 -1.57302 -0.09688 0
M  V30 7527 C 722.729 -1.53094 -0.451041 0
M  V30 7528 C 722.929 -0.893265 -1.80618 0
M  V30 7529 O 721.985 -0.485013 -2.47798 0
M  V30 7530 C 723.298 -2.9782 -0.415172 0
M  V30 7531 C 724.846 -3.09026 -0.497155 0
M  V30 7532 C 725.321 -4.55356 -0.491452 0
M  V30 7533 N 726.812 -4.59896 -0.552258 0
M  V30 7534 C 727.547 -5.70563 -0.569654 0
M  V30 7535 N 727.043 -6.90666 -0.543365 0
M  V30 7536 N 728.836 -5.58733 -0.614331 0
M  V30 7537 H 720.987 -1.97131 0.790771 0
M  V30 7538 H 723.25 -0.901211 0.294147 0
M  V30 7539 H 722.956 -3.47933 0.513362 0
M  V30 7540 H 722.83 -3.56416 -1.23481 0
M  V30 7541 H 725.217 -2.58902 -1.41611 0
M  V30 7542 H 725.298 -2.53386 0.35059 0
M  V30 7543 H 724.942 -5.06131 0.423549 0
M  V30 7544 H 724.872 -5.08832 -1.35639 0
M  V30 7545 H 727.363 -3.73456 -0.577842 0
M  V30 7546 H 727.676 -7.70769 -0.559873 0
M  V30 7547 H 726.021 -6.93123 -0.510441 0
M  V30 7548 H 729.212 -4.63809 -0.632387 0
M  V30 7549 H 729.385 -6.44984 -0.62442 0
M  V30 7550 N 722.791 0.367657 -1.53252 0
M  V30 7551 C 724.037 1.11216 -1.69584 0
M  V30 7552 C 724.37 1.89026 -0.445269 0
M  V30 7553 O 723.645 1.86342 0.557404 0
M  V30 7554 C 723.928 2.07308 -2.94441 0
M  V30 7555 C 723.781 1.3312 -4.2965 0
M  V30 7556 C 725.1 3.07459 -3.14892 0
M  V30 7557 H 722.219 0.40294 -0.617096 0
M  V30 7558 H 724.861 0.393201 -1.85887 0
M  V30 7559 H 723.011 2.68617 -2.80673 0
M  V30 7560 H 724.683 0.746111 -4.55226 0
M  V30 7561 H 722.926 0.633051 -4.29156 0
M  V30 7562 H 723.597 2.03443 -5.13142 0
M  V30 7563 H 726.073 2.56252 -3.27832 0
M  V30 7564 H 724.949 3.71919 -4.03693 0
M  V30 7565 H 725.21 3.77514 -2.30077 0
M  V30 7566 N 724.269 1.44576 0.627338 0
M  V30 7567 C 725.217 1.52039 1.76031 0
M  V30 7568 C 726.211 0.391796 1.64807 0
M  V30 7569 O 727.417 0.5669 1.7084 0
M  V30 7570 H 723.792 0.477165 0.581221 0
M  V30 7571 H 725.763 2.47387 1.6686 0
M  V30 7572 C 724.512 1.48539 3.14375 0
M  V30 7573 H 723.835 2.34699 3.23661 0
M  V30 7574 H 725.275 1.57821 3.93534 0
M  V30 7575 C 723.734 0.20672 3.36265 0
M  V30 7576 O 724.264 -0.72154 3.95167 0
M  V30 7577 N 722.47 0.108654 2.90397 0
M  V30 7578 H 722.017 0.864884 2.42647 0
M  V30 7579 H 721.975 -0.746121 3.05418 0
M  V30 7580 N 725.747 -0.868086 1.31537 0
M  V30 7581 C 726.994 -1.62127 1.2133 0
M  V30 7582 C 727.322 -1.93158 -0.2281 0
M  V30 7583 O 726.577 -1.5632 -1.1774 0
M  V30 7584 C 726.876 -2.95889 2.0046 0
M  V30 7585 C 726.542 -2.84343 3.49943 0
M  V30 7586 C 725.204 -2.80901 3.90702 0
M  V30 7587 C 727.556 -2.71243 4.45058 0
M  V30 7588 C 724.884 -2.6222 5.24841 0
M  V30 7589 C 727.236 -2.54098 5.79325 0
M  V30 7590 C 725.9 -2.4904 6.19302 0
M  V30 7591 H 725.17 -0.593265 0.443979 0
M  V30 7592 H 727.817 -1.00803 1.62822 0
M  V30 7593 H 726.122 -3.61259 1.51655 0
M  V30 7594 H 727.819 -3.53161 1.89942 0
M  V30 7595 H 724.409 -2.8784 3.17563 0
M  V30 7596 H 728.593 -2.72956 4.14498 0
M  V30 7597 H 723.849 -2.56731 5.54887 0
M  V30 7598 H 728.023 -2.42938 6.52652 0
M  V30 7599 H 725.65 -2.34324 7.23185 0
M  V30 7600 N 727.225 -1.14528 -1.08264 0
M  V30 7601 C 728.188 -0.83632 -2.13397 0
M  V30 7602 C 729.188 0.159715 -1.60005 0
M  V30 7603 O 730.378 -0.0688098 -1.74064 0
M  V30 7604 C 727.51 -0.246973 -3.40004 0
M  V30 7605 H 728.703 -1.76808 -2.42237 0
M  V30 7606 H 726.256 -0.951509 -1.24 0
M  V30 7607 H 726.991 0.693436 -3.168 0
M  V30 7608 H 726.776 -0.964412 -3.80055 0
M  V30 7609 H 728.266 -0.0480679 -4.17572 0
M  V30 7610 N 728.703 1.26451 -0.940633 0
M  V30 7611 C 729.636 2.24771 -0.394094 0
M  V30 7612 C 730.614 1.54169 0.516781 0
M  V30 7613 O 731.798 1.82942 0.454352 0
M  V30 7614 C 728.925 3.3591 0.433807 0
M  V30 7615 C 727.971 4.24472 -0.415464 0
M  V30 7616 S 728.804 5.0293 -1.83907 0
M  V30 7617 C 729.96 6.17546 -1.01921 0
M  V30 7618 H 730.193 2.70782 -1.22737 0
M  V30 7619 H 727.726 1.35308 -0.743709 0
M  V30 7620 H 729.684 4.00387 0.905576 0
M  V30 7621 H 728.345 2.88512 1.24175 0
M  V30 7622 H 727.538 5.03525 0.218833 0
M  V30 7623 H 727.14 3.64857 -0.821897 0
M  V30 7624 H 729.432 6.76996 -0.261227 0
M  V30 7625 H 730.375 6.8528 -1.78318 0
M  V30 7626 H 730.783 5.6176 -0.555511 0
M  V30 7627 N 730.181 0.707592 1.40822 0
M  V30 7628 C 731.129 0.0386643 2.32568 0
M  V30 7629 C 732.123 -0.755653 1.51612 0
M  V30 7630 O 733.329 -0.659921 1.67467 0
M  V30 7631 H 729.704 -0.00629912 0.751974 0
M  V30 7632 H 731.675 0.8293 2.86645 0
M  V30 7633 C 730.424 -0.87496 3.36511 0
M  V30 7634 H 729.747 -0.273157 3.98866 0
M  V30 7635 H 731.187 -1.31111 4.03219 0
M  V30 7636 C 729.646 -1.99672 2.71353 0
M  V30 7637 O 730.176 -3.08676 2.57064 0
M  V30 7638 N 728.382 -1.77799 2.29861 0
M  V30 7639 H 727.929 -0.89147 2.41683 0
M  V30 7640 H 727.887 -2.53036 1.86601 0
M  V30 7641 N 731.66 -1.50943 0.453197 0
M  V30 7642 C 732.906 -2.02512 -0.108082 0
M  V30 7643 C 733.239 -1.33574 -1.40967 0
M  V30 7644 O 732.514 -0.455671 -1.89087 0
M  V30 7645 C 732.797 -3.58759 -0.310453 0
M  V30 7646 C 732.65 -4.38293 1.0109 0
M  V30 7647 C 733.969 -4.26816 -1.07313 0
M  V30 7648 H 731.088 -0.73603 -0.0378064 0
M  V30 7649 H 733.73 -1.80433 0.595295 0
M  V30 7650 H 731.88 -3.77702 -0.909582 0
M  V30 7651 H 733.552 -4.30964 1.64523 0
M  V30 7652 H 731.795 -4.02745 1.61179 0
M  V30 7653 H 732.466 -5.45828 0.82315 0
M  V30 7654 H 734.942 -4.1224 -0.565473 0
M  V30 7655 H 733.818 -5.35989 -1.1835 0
M  V30 7656 H 734.079 -3.88757 -2.10525 0
M  V30 7657 N 733.138 -0.185124 -1.56509 0
M  V30 7658 C 734.386 0.455357 -1.96903 0
M  V30 7659 C 734.707 1.62839 -1.07277 0
M  V30 7660 O 733.977 1.95385 -0.141966 0
M  V30 7661 H 732.557 0.171218 -0.727113 0
M  V30 7662 H 735.219 -0.26953 -1.93027 0
M  V30 7663 H 734.315 0.80616 -3.01509 0
M  V30 7664 N 734.616 1.57351 0.0885366 0
M  V30 7665 C 735.563 2.02523 1.10693 0
M  V30 7666 C 736.533 0.902736 1.39427 0
M  V30 7667 O 737.718 1.16921 1.50779 0
M  V30 7668 C 734.858 2.46013 2.42016 0
M  V30 7669 C 733.971 3.7181 2.19957 0
M  V30 7670 C 733.106 4.04152 3.44724 0
M  V30 7671 C 732.145 5.2304 3.17956 0
M  V30 7672 N 731.282 5.51102 4.35007 0
M  V30 7673 H 736.122 2.89302 0.714742 0
M  V30 7674 H 733.659 1.43084 0.341378 0
M  V30 7675 H 735.617 2.69274 3.18665 0
M  V30 7676 H 734.247 1.62235 2.79069 0
M  V30 7677 H 733.299 3.55987 1.34079 0
M  V30 7678 H 734.611 4.58604 1.96173 0
M  V30 7679 H 733.765 4.28225 4.29777 0
M  V30 7680 H 732.504 3.15893 3.71568 0
M  V30 7681 H 731.509 4.98781 2.31296 0
M  V30 7682 H 732.734 6.12902 2.92451 0
M  V30 7683 H 730.68 4.65802 4.61914 0
M  V30 7684 H 730.597 6.3228 4.14437 0
M  V30 7685 H 731.865 5.79714 5.21106 0
M  V30 7686 N 736.094 -0.359525 1.53444 0
M  V30 7687 C 737.057 -1.42357 1.7963 0
M  V30 7688 C 738.057 -1.46319 0.666884 0
M  V30 7689 O 739.247 -1.46974 0.935113 0
M  V30 7690 C 736.379 -2.81425 1.92387 0
M  V30 7691 H 737.572 -1.20409 2.74666 0
M  V30 7692 H 735.125 -0.593007 1.44614 0
M  V30 7693 H 735.86 -3.08679 0.994384 0
M  V30 7694 H 735.645 -2.79947 2.74539 0
M  V30 7695 H 737.135 -3.5847 2.14218 0
M  V30 7696 N 737.572 -1.44907 -0.619662 0
M  V30 7697 C 738.988 -1.29046 -0.939107 0
M  V30 7698 C 739.188 -0.23462 -2.00129 0
M  V30 7699 O 738.244 0.37558 -2.49691 0
M  V30 7700 C 739.557 -2.66567 -1.39149 0
M  V30 7701 C 741.105 -2.74368 -1.50635 0
M  V30 7702 C 741.58 -4.12386 -1.99253 0
M  V30 7703 N 743.071 -4.1462 -2.06506 0
M  V30 7704 C 743.806 -5.18272 -2.4532 0
M  V30 7705 N 743.302 -6.32278 -2.83189 0
M  V30 7706 N 745.095 -5.05628 -2.45554 0
M  V30 7707 H 737.246 -2.12239 0.0826135 0
M  V30 7708 H 739.509 -0.947652 -0.0256829 0
M  V30 7709 H 739.215 -3.4496 -0.685254 0
M  V30 7710 H 739.089 -2.94224 -2.36034 0
M  V30 7711 H 741.476 -1.96287 -2.20353 0
M  V30 7712 H 741.557 -2.50439 -0.520963 0
M  V30 7713 H 741.201 -4.90947 -1.30127 0
M  V30 7714 H 741.131 -4.33699 -2.98684 0
M  V30 7715 H 743.622 -3.32343 -1.79878 0
M  V30 7716 H 743.935 -7.07172 -3.11652 0
M  V30 7717 H 742.28 -6.35699 -2.80913 0
M  V30 7718 H 745.471 -4.15613 -2.15367 0
M  V30 7719 H 745.644 -5.86529 -2.75478 0
M  V30 7720 N 739.05 0.861098 -1.31996 0
M  V30 7721 C 740.298 1.61162 -1.21947 0
M  V30 7722 C 740.619 1.93751 0.220351 0
M  V30 7723 O 739.889 1.59069 1.14341 0
M  V30 7724 H 738.469 0.597485 -0.448353 0
M  V30 7725 H 741.131 1.03039 -1.65436 0
M  V30 7726 H 740.227 2.55138 -1.79752 0
M  V30 7727 N 740.528 1.15101 1.07655 0
M  V30 7728 C 741.775 0.923974 1.80191 0
M  V30 7729 C 742.103 -0.549065 1.86589 0
M  V30 7730 O 741.358 -1.42307 1.3434 0
M  V30 7731 C 741.657 1.47954 3.25337 0
M  V30 7732 C 741.323 2.97253 3.39044 0
M  V30 7733 C 739.985 3.38012 3.42493 0
M  V30 7734 C 742.337 3.93219 3.42094 0
M  V30 7735 C 739.665 4.73384 3.4659 0
M  V30 7736 C 742.017 5.28458 3.47728 0
M  V30 7737 C 740.681 5.68717 3.49453 0
M  V30 7738 H 739.951 0.338106 0.659367 0
M  V30 7739 H 742.598 1.43594 1.26701 0
M  V30 7740 H 740.903 0.888691 3.81588 0
M  V30 7741 H 742.6 1.27972 3.80032 0
M  V30 7742 H 739.19 2.64746 3.37057 0
M  V30 7743 H 743.374 3.62805 3.38654 0
M  V30 7744 H 738.63 5.03925 3.46222 0
M  V30 7745 H 742.804 6.02618 3.49034 0
M  V30 7746 H 740.431 6.73596 3.5238 0
M  V30 7747 N 742.006 -1.2595 0.947325 0
M  V30 7748 C 743.253 -1.93463 0.598178 0
M  V30 7749 C 743.581 -1.74271 -0.863705 0
M  V30 7750 O 742.836 -1.07684 -1.63409 0
M  V30 7751 C 743.135 -3.46034 0.894158 0
M  V30 7752 C 742.801 -3.85373 2.3409 0
M  V30 7753 C 741.463 -3.95823 2.73637 0
M  V30 7754 C 743.815 -4.04986 3.2808 0
M  V30 7755 C 741.143 -4.23288 4.06257 0
M  V30 7756 C 743.495 -4.3394 4.60303 0
M  V30 7757 C 742.159 -4.42606 4.99656 0
M  V30 7758 H 741.429 -0.707933 0.218889 0
M  V30 7759 H 744.076 -1.4964 1.19499 0
M  V30 7760 H 742.381 -3.9121 0.214874 0
M  V30 7761 H 744.078 -3.96445 0.602698 0
M  V30 7762 H 740.668 -3.7779 2.02417 0
M  V30 7763 H 744.852 -3.96333 2.9872 0
M  V30 7764 H 740.108 -4.28211 4.36401 0
M  V30 7765 H 744.282 -4.48061 5.33118 0
M  V30 7766 H 741.909 -4.63641 6.02446 0
M  V30 7767 N 743.484 -0.715051 -1.40445 0
M  V30 7768 C 744.431 -0.0621393 -2.30716 0
M  V30 7769 C 745.401 0.750871 -1.48159 0
M  V30 7770 O 746.586 0.714928 -1.76899 0
M  V30 7771 C 743.726 0.854036 -3.34365 0
M  V30 7772 C 742.839 0.0305565 -4.31989 0
M  V30 7773 C 741.974 0.946162 -5.22706 0
M  V30 7774 C 741.013 0.116741 -6.11989 0
M  V30 7775 N 740.15 0.987194 -6.95125 0
M  V30 7776 H 744.99 -0.83764 -2.85985 0
M  V30 7777 H 742.527 -0.424759 -1.40834 0
M  V30 7778 H 744.485 1.39946 -3.93028 0
M  V30 7779 H 743.115 1.59572 -2.806 0
M  V30 7780 H 742.167 -0.632044 -3.75112 0
M  V30 7781 H 743.479 -0.611615 -4.95036 0
M  V30 7782 H 742.633 1.56014 -5.86297 0
M  V30 7783 H 741.372 1.62216 -4.59932 0
M  V30 7784 H 740.377 -0.510176 -5.47428 0
M  V30 7785 H 741.602 -0.555742 -6.76822 0
M  V30 7786 H 739.548 1.64885 -6.3494 0
M  V30 7787 H 739.465 0.401046 -7.54936 0
M  V30 7788 H 740.733 1.58737 -7.63166 0
M  V30 7789 N 744.962 1.50701 -0.461195 0
M  V30 7790 C 745.909 2.2831 0.338094 0
M  V30 7791 C 746.879 1.32928 0.995957 0
M  V30 7792 O 748.064 1.61857 1.0103 0
M  V30 7793 C 745.204 3.14539 1.41983 0
M  V30 7794 C 744.317 4.24942 0.77773 0
M  V30 7795 C 743.452 4.98443 1.83652 0
M  V30 7796 C 742.491 6.00733 1.17413 0
M  V30 7797 N 741.628 6.6755 2.17533 0
M  V30 7798 H 746.468 2.96167 -0.330051 0
M  V30 7799 H 744.005 1.4606 -0.174611 0
M  V30 7800 H 745.963 3.62877 2.05855 0
M  V30 7801 H 744.593 2.48749 2.05727 0
M  V30 7802 H 743.645 3.80391 0.0266924 0
M  V30 7803 H 744.957 4.98151 0.254362 0
M  V30 7804 H 744.111 5.50449 2.55129 0
M  V30 7805 H 742.85 4.24917 2.39367 0
M  V30 7806 H 741.855 5.47997 0.444944 0
M  V30 7807 H 743.08 6.76227 0.624006 0
M  V30 7808 H 741.026 5.96823 2.72284 0
M  V30 7809 H 740.943 7.36603 1.70154 0
M  V30 7810 H 742.211 7.24178 2.88421 0
M  V30 7811 N 746.441 0.193421 1.56409 0
M  V30 7812 C 747.689 -0.444908 1.97142 0
M  V30 7813 C 748.01 -1.62268 1.08139 0
M  V30 7814 O 747.28 -1.95307 0.152326 0
M  V30 7815 H 745.86 -0.16736 0.728011 0
M  V30 7816 H 748.522 0.279763 1.92882 0
M  V30 7817 H 747.618 -0.790159 3.01932 0
M  V30 7818 N 747.919 -1.57396 -0.0801906 0
M  V30 7819 C 749.196 -1.77883 -0.813451 0
M  V30 7820 C 749.576 -0.778879 -1.96206 0
M  V30 7821 O 748.924 0.189683 -2.27711 0
M  V30 7822 C 749.134 -3.24116 -1.2942 0
M  V30 7823 C 750.482 -3.87714 -1.73098 0
M  V30 7824 O 751.506 -3.27956 -1.39007 0
M  V30 7825 O 750.365 -4.92828 -2.36184 0
M  V30 7826 H 747.459 -0.729727 -0.389138 0
M  V30 7827 H 750.005 -1.69591 -0.0609166 0
M  V30 7828 H 748.777 -3.88443 -0.471947 0
M  V30 7829 H 748.4 -3.371 -2.1083 0
M  V30 7830 N 749.397 0.351382 -1.53633 0
M  V30 7831 C 750.643 1.09411 -1.70754 0
M  V30 7832 C 750.976 1.88544 -0.465293 0
M  V30 7833 O 750.251 1.86923 0.537608 0
M  V30 7834 C 750.534 2.04173 -2.96623 0
M  V30 7835 C 750.387 1.28556 -4.31038 0
M  V30 7836 C 751.706 3.04102 -3.18136 0
M  V30 7837 H 748.825 0.396373 -0.621335 0
M  V30 7838 H 751.467 0.373464 -1.86293 0
M  V30 7839 H 749.617 2.65625 -2.83506 0
M  V30 7840 H 751.289 0.697786 -4.55992 0
M  V30 7841 H 749.532 0.587498 -4.29803 0
M  V30 7842 H 750.203 1.97989 -5.15271 0
M  V30 7843 H 752.679 2.5276 -3.30532 0
M  V30 7844 H 751.555 3.67616 -4.07615 0
M  V30 7845 H 751.816 3.75053 -2.34068 0
M  V30 7846 N 750.875 1.45233 0.611969 0
M  V30 7847 C 752.121 1.49242 1.37312 0
M  V30 7848 C 752.454 0.131963 1.93751 0
M  V30 7849 O 751.729 -0.852999 1.74798 0
M  V30 7850 C 752.012 2.56811 2.52428 0
M  V30 7851 C 751.865 4.02284 2.01215 0
M  V30 7852 C 753.184 2.60705 3.54572 0
M  V30 7853 H 750.303 0.54336 0.497925 0
M  V30 7854 H 752.945 1.77019 0.690242 0
M  V30 7855 H 751.095 2.33256 3.10683 0
M  V30 7856 H 752.767 4.37035 1.47643 0
M  V30 7857 H 751.01 4.1315 1.32248 0
M  V30 7858 H 751.681 4.7323 2.84178 0
M  V30 7859 H 754.157 2.81799 3.06151 0
M  V30 7860 H 753.033 3.37841 4.32614 0
M  V30 7861 H 753.294 1.65627 4.09903 0
M  V30 7862 N 752.353 -0.854086 1.3245 0
M  V30 7863 C 753.602 -1.60318 1.22397 0
M  V30 7864 C 753.915 -1.9444 -0.212664 0
M  V30 7865 O 755.121 -2.67991 -0.435066 0
M  V30 7866 C 753.577 -2.8909 2.1437 0
M  V30 7867 C 753.185 -2.62391 3.63119 0
M  V30 7868 C 754.929 -3.67104 2.13155 0
M  V30 7869 C 752.836 -3.87167 4.47052 0
M  V30 7870 H 751.766 -0.601586 0.454544 0
M  V30 7871 H 754.417 -0.943023 1.57415 0
M  V30 7872 H 752.799 -3.56567 1.72268 0
M  V30 7873 H 753.973 -2.03222 4.13567 0
M  V30 7874 H 752.288 -1.97706 3.66471 0
M  V30 7875 H 754.885 -4.59696 2.731 0
M  V30 7876 H 755.228 -4.00876 1.12268 0
M  V30 7877 H 755.761 -3.06533 2.5354 0
M  V30 7878 H 752.5 -3.58536 5.48755 0
M  V30 7879 H 752.02 -4.45729 4.01355 0
M  V30 7880 H 753.699 -4.549 4.60081 0
M  V30 7881 N 753.831 -1.1567 -1.07043 0
M  V30 7882 C 755.077 -0.9349 -1.79965 0
M  V30 7883 C 755.41 0.536464 -1.86643 0
M  V30 7884 O 754.685 1.39781 -1.35247 0
M  V30 7885 C 754.968 -1.55371 -3.24857 0
M  V30 7886 C 754.821 -3.09589 -3.26305 0
M  V30 7887 C 756.14 -1.24209 -4.22209 0
M  V30 7888 H 753.259 -0.341061 -0.653335 0
M  V30 7889 H 755.901 -1.42883 -1.25237 0
M  V30 7890 H 754.051 -1.13368 -3.71591 0
M  V30 7891 H 755.723 -3.60521 -2.87789 0
M  V30 7892 H 753.966 -3.43315 -2.65174 0
M  V30 7893 H 754.637 -3.48002 -4.28484 0
M  V30 7894 H 757.113 -1.60548 -3.8388 0
M  V30 7895 H 755.989 -1.70119 -5.21872 0
M  V30 7896 H 756.25 -0.15964 -4.41812 0
M  V30 7897 N 755.309 1.25446 -0.953992 0
M  V30 7898 C 756.239 2.28264 -0.491717 0
M  V30 7899 C 757.22 1.63717 0.461617 0
M  V30 7900 O 758.405 1.90821 0.36071 0
M  V30 7901 C 755.535 3.46525 0.231915 0
M  V30 7902 C 754.489 4.23247 -0.636098 0
M  V30 7903 C 753.815 5.34254 0.218238 0
M  V30 7904 C 755.115 4.85971 -1.91389 0
M  V30 7905 H 756.809 2.67183 -1.35106 0
M  V30 7906 H 754.355 1.2844 -0.651095 0
M  V30 7907 H 756.308 4.17576 0.566439 0
M  V30 7908 H 755.032 3.06594 1.12551 0
M  V30 7909 H 753.691 3.53978 -0.953696 0
M  V30 7910 H 753.339 4.90564 1.11156 0
M  V30 7911 H 753.039 5.86501 -0.359232 0
M  V30 7912 H 754.563 6.08138 0.547743 0
M  V30 7913 H 755.977 5.49168 -1.64581 0
M  V30 7914 H 754.374 5.48391 -2.43696 0
M  V30 7915 H 755.444 4.08192 -2.61738 0
M  V30 7916 N 756.787 0.722489 1.40064 0
M  V30 7917 C 758.015 0.274838 2.05066 0
M  V30 7918 C 758.43 -1.08586 1.54449 0
M  V30 7919 O 757.787 -1.68375 0.704003 0
M  V30 7920 C 757.838 0.253673 3.60609 0
M  V30 7921 O 757.559 1.56064 4.0936 0
M  V30 7922 C 759.06 -0.211684 4.42794 0
M  V30 7923 H 756.28 0.12226 0.659768 0
M  V30 7924 H 758.824 0.982632 1.79345 0
M  V30 7925 H 756.979 -0.405137 3.85276 0
M  V30 7926 H 757.393 1.46576 5.03603 0
M  V30 7927 H 758.867 -0.175341 5.51721 0
M  V30 7928 H 759.344 -1.25493 4.2089 0
M  V30 7929 H 759.95 0.4171 4.2325 0
M  V30 7930 N 758.265 -1.50454 0.469181 0
M  V30 7931 C 759.513 -2.01916 -0.0862982 0
M  V30 7932 C 759.834 -1.35337 -1.40388 0
M  V30 7933 O 759.104 -0.498096 -1.89462 0
M  V30 7934 H 757.684 -0.746185 -0.0348825 0
M  V30 7935 H 760.346 -1.84804 0.619167 0
M  V30 7936 H 759.442 -3.11182 -0.239189 0
M  V30 7937 N 759.743 -0.201713 -1.56304 0
M  V30 7938 C 760.989 0.429292 -1.98818 0
M  V30 7939 C 761.344 1.58779 -1.08659 0
M  V30 7940 O 760.637 1.91142 -0.132365 0
M  V30 7941 C 760.831 0.931432 -3.45049 0
M  V30 7942 C 760.66 -0.176878 -4.49352 0
M  V30 7943 C 759.43 -0.636712 -5.01272 0
M  V30 7944 C 761.628 -0.988177 -5.04717 0
M  V30 7945 N 759.61 -1.72215 -5.8925 0
M  V30 7946 C 760.981 -1.92288 -5.89428 0
M  V30 7947 C 763.036 -1.02985 -4.87133 0
M  V30 7948 C 761.739 -2.89582 -6.58434 0
M  V30 7949 C 763.765 -1.99087 -5.56883 0
M  V30 7950 C 763.127 -2.913 -6.41345 0
M  V30 7951 H 759.226 0.124322 -0.772054 0
M  V30 7952 H 761.81 -0.308929 -1.92234 0
M  V30 7953 H 759.981 1.63907 -3.52121 0
M  V30 7954 H 761.713 1.5336 -3.74517 0
M  V30 7955 H 758.468 -0.228861 -4.73047 0
M  V30 7956 H 758.892 -2.26627 -6.37941 0
M  V30 7957 H 763.534 -0.330894 -4.21503 0
M  V30 7958 H 761.252 -3.6045 -7.23258 0
M  V30 7959 H 764.838 -2.0296 -5.45251 0
M  V30 7960 H 763.718 -3.6445 -6.94367 0
M  V30 7961 N 761.222 1.57436 0.0718424 0
M  V30 7962 C 762.638 1.53792 0.426628 0
M  V30 7963 C 762.838 0.921887 1.79174 0
M  V30 7964 O 761.894 0.524374 2.46995 0
M  V30 7965 C 763.207 2.98443 0.367739 0
M  V30 7966 C 764.755 3.09778 0.447928 0
M  V30 7967 C 765.23 4.5608 0.418946 0
M  V30 7968 N 766.721 4.60716 0.479022 0
M  V30 7969 C 767.456 5.71397 0.47881 0
M  V30 7970 N 766.952 6.91443 0.433417 0
M  V30 7971 N 768.745 5.59639 0.525364 0
M  V30 7972 H 760.896 1.95848 -0.822033 0
M  V30 7973 H 763.159 0.896418 -0.308447 0
M  V30 7974 H 762.865 3.47072 -0.56865 0
M  V30 7975 H 762.739 3.58335 1.17795 0
M  V30 7976 H 765.126 2.61122 1.37474 0
M  V30 7977 H 765.207 2.52796 -0.390857 0
M  V30 7978 H 764.851 5.05393 -0.504016 0
M  V30 7979 H 764.781 5.10925 1.27526 0
M  V30 7980 H 767.272 3.74328 0.518355 0
M  V30 7981 H 767.585 7.71562 0.43718 0
M  V30 7982 H 765.93 6.93847 0.400106 0
M  V30 7983 H 769.121 4.64756 0.558519 0
M  V30 7984 H 769.294 6.45896 0.52173 0
M  V30 7985 N 762.7 -0.34323 1.53817 0
M  V30 7986 C 764.111 -0.918823 1.62525 0
M  V30 7987 C 764.462 -1.89542 0.506765 0
M  V30 7988 O 763.587 -2.13326 -0.363441 0
M  V30 7989 C 764.182 -1.67326 2.94597 0
M  V30 7990 C 762.741 -2.19786 3.05567 0
M  V30 7991 C 761.888 -1.01708 2.57974 0
M  V30 7992 H 764.839 -0.121358 1.58235 0
M  V30 7993 H 764.86 -2.53615 2.83654 0
M  V30 7994 H 764.372 -0.962223 3.75983 0
M  V30 7995 H 762.473 -2.94065 2.28816 0
M  V30 7996 H 762.586 -2.46135 4.1104 0
M  V30 7997 H 760.95 -1.39058 2.13389 0
M  V30 7998 H 761.733 -0.320671 3.41799 0
M  V30 7999 N 764.178 -1.45556 -0.604258 0
M  V30 8000 C 765.426 -1.4945 -1.36048 0
M  V30 8001 C 765.747 -0.138933 -1.94504 0
M  V30 8002 O 765.017 0.832097 -1.7735 0
M  V30 8003 H 763.597 -0.550381 -0.505064 0
M  V30 8004 H 766.259 -1.81535 -0.709308 0
M  V30 8005 H 765.355 -2.23519 -2.17821 0
M  V30 8006 N 765.656 0.84705 -1.32902 0
M  V30 8007 C 766.881 1.63925 -1.27056 0
M  V30 8008 C 767.306 1.87443 0.157136 0
M  V30 8009 O 766.664 1.43266 1.11106 0
M  V30 8010 C 766.712 2.97134 -2.04313 0
M  V30 8011 O 765.816 3.88049 -1.39614 0
M  V30 8012 H 765.157 0.499477 -0.437514 0
M  V30 8013 H 767.687 1.05443 -1.75336 0
M  V30 8014 H 767.697 3.46896 -2.14772 0
M  V30 8015 H 766.372 2.79339 -3.08128 0
M  V30 8016 H 764.949 3.46525 -1.3775 0
M  V30 8017 N 767.134 1.16236 1.06428 0
M  V30 8018 C 768.382 0.941171 1.78847 0
M  V30 8019 C 768.703 -0.53248 1.87589 0
M  V30 8020 O 767.973 -1.38686 1.38358 0
M  V30 8021 H 766.553 0.345228 0.66244 0
M  V30 8022 H 769.215 1.46479 1.28569 0
M  V30 8023 H 768.311 1.35871 2.80972 0
M  V30 8024 N 768.612 -1.24939 0.960631 0
M  V30 8025 C 769.859 -1.92818 0.618663 0
M  V30 8026 C 770.187 -1.75177 -0.845173 0
M  V30 8027 O 769.442 -1.09412 -1.62258 0
M  V30 8028 C 769.741 -3.45066 0.930809 0
M  V30 8029 C 769.407 -3.82869 2.38164 0
M  V30 8030 C 768.069 -3.92899 2.7782 0
M  V30 8031 C 770.421 -4.01483 3.32356 0
M  V30 8032 C 767.749 -4.18955 4.10723 0
M  V30 8033 C 770.101 -4.29033 4.6488 0
M  V30 8034 C 768.765 -4.37282 5.04322 0
M  V30 8035 H 768.035 -0.705571 0.226385 0
M  V30 8036 H 770.682 -1.48365 1.21079 0
M  V30 8037 H 768.987 -3.9096 0.256355 0
M  V30 8038 H 770.684 -3.95783 0.644712 0
M  V30 8039 H 767.274 -3.75622 2.06413 0
M  V30 8040 H 771.458 -3.93143 3.02907 0
M  V30 8041 H 766.714 -4.23558 4.40918 0
M  V30 8042 H 770.888 -4.42381 5.3784 0
M  V30 8043 H 768.515 -4.57225 6.0733 0
M  V30 8044 N 770.09 -0.729906 -1.39679 0
M  V30 8045 C 771.318 -0.285709 -2.04918 0
M  V30 8046 C 771.733 1.07765 -1.55023 0
M  V30 8047 O 771.09 1.67999 -0.712923 0
M  V30 8048 C 771.141 -0.272793 -3.60469 0
M  V30 8049 O 770.862 -1.58233 -4.08527 0
M  V30 8050 C 772.363 0.188199 -4.429 0
M  V30 8051 H 769.583 -0.125758 -0.65911 0
M  V30 8052 H 772.127 -0.992129 -1.78821 0
M  V30 8053 H 770.282 0.384699 -3.85485 0
M  V30 8054 H 770.696 -1.49245 -5.02818 0
M  V30 8055 H 772.17 0.14608 -5.51807 0
M  V30 8056 H 772.647 1.2326 -4.21549 0
M  V30 8057 H 773.253 -0.439541 -4.23023 0
M  V30 8058 N 771.568 1.50203 -0.477153 0
M  V30 8059 C 772.516 2.30278 0.327826 0
M  V30 8060 C 773.51 1.37831 0.984839 0
M  V30 8061 O 774.716 1.54994 0.915251 0
M  V30 8062 H 771.091 0.741612 0.124564 0
M  V30 8063 H 773.062 2.96124 -0.367853 0
M  V30 8064 C 771.811 3.18548 1.39365 0
M  V30 8065 H 771.134 3.89596 0.897475 0
M  V30 8066 H 772.574 3.77561 1.92934 0
M  V30 8067 C 771.033 2.36548 2.39889 0
M  V30 8068 O 771.563 2.05282 3.45286 0
M  V30 8069 N 769.769 1.99015 2.11758 0
M  V30 8070 H 769.316 2.24641 1.26071 0
M  V30 8071 H 769.274 1.44454 2.7925 0
M  V30 8072 N 773.046 0.209999 1.56195 0
M  V30 8073 C 774.274 -0.429996 2.02382 0
M  V30 8074 C 774.689 -1.54159 1.08998 0
M  V30 8075 O 774.046 -1.82239 0.0974856 0
M  V30 8076 C 774.097 -0.972433 3.48175 0
M  V30 8077 O 773.818 0.0948231 4.37997 0
M  V30 8078 C 775.319 -1.68683 4.09952 0
M  V30 8079 H 772.539 -0.106475 0.662498 0
M  V30 8080 H 775.083 0.323072 2.01932 0
M  V30 8081 H 773.238 -1.67582 3.49278 0
M  V30 8082 H 773.652 -0.31113 5.23576 0
M  V30 8083 H 775.126 -2.01851 5.13771 0
M  V30 8084 H 775.603 -2.59587 3.54276 0
M  V30 8085 H 776.209 -1.02893 4.12666 0
M  V30 8086 N 774.524 -1.57472 -0.0634922 0
M  V30 8087 C 775.457 -1.99571 -1.10664 0
M  V30 8088 C 776.435 -0.874015 -1.37112 0
M  V30 8089 O 777.619 -1.13702 -1.50347 0
M  V30 8090 C 774.746 -2.3395 -2.44918 0
M  V30 8091 C 773.792 -3.56213 -2.34551 0
M  V30 8092 S 774.625 -5.06727 -1.73169 0
M  V30 8093 C 775.781 -5.44316 -3.08984 0
M  V30 8094 H 776.014 -2.87739 -0.747905 0
M  V30 8095 H 773.547 -1.5198 -0.272316 0
M  V30 8096 H 775.505 -2.54431 -3.22141 0
M  V30 8097 H 774.166 -1.46297 -2.7795 0
M  V30 8098 H 773.359 -3.77812 -3.33578 0
M  V30 8099 H 772.961 -3.35406 -1.65466 0
M  V30 8100 H 775.253 -5.42894 -4.05305 0
M  V30 8101 H 776.196 -6.4502 -2.92156 0
M  V30 8102 H 776.604 -4.71781 -3.09972 0
M  V30 8103 N 776.003 0.335068 -1.53997 0
M  V30 8104 C 777.419 0.678704 -1.4445 0
M  V30 8105 C 777.619 1.92106 -0.608078 0
M  V30 8106 O 776.675 2.52292 -0.102373 0
M  V30 8107 C 777.988 0.863435 -2.88037 0
M  V30 8108 C 779.536 0.961513 -2.97866 0
M  V30 8109 C 780.011 1.1785 -4.42578 0
M  V30 8110 N 781.502 1.2455 -4.46141 0
M  V30 8111 C 782.237 1.43106 -5.55255 0
M  V30 8112 N 781.733 1.5878 -6.74359 0
M  V30 8113 N 783.526 1.45722 -5.42883 0
M  V30 8114 H 775.677 -0.481656 -2.06867 0
M  V30 8115 H 777.94 -0.153615 -0.935471 0
M  V30 8116 H 777.646 0.0219511 -3.51693 0
M  V30 8117 H 777.52 1.76268 -3.33481 0
M  V30 8118 H 779.907 1.79351 -2.34344 0
M  V30 8119 H 779.988 0.0389862 -2.5577 0
M  V30 8120 H 779.632 0.351397 -5.06683 0
M  V30 8121 H 779.562 2.11472 -4.82273 0
M  V30 8122 H 782.053 1.13928 -3.60318 0
M  V30 8123 H 782.366 1.72599 -7.53279 0
M  V30 8124 H 780.711 1.559 -6.77289 0
M  V30 8125 H 783.902 1.33065 -4.48789 0
M  V30 8126 H 784.075 1.59841 -6.27977 0
M  V30 8127 N 777.481 1.45874 0.596531 0
M  V30 8128 C 778.727 1.5069 1.35722 0
M  V30 8129 C 779.06 0.152506 1.936 0
M  V30 8130 O 778.335 -0.834411 1.75692 0
M  V30 8131 C 778.618 2.59474 2.4969 0
M  V30 8132 C 778.471 4.04396 1.96937 0
M  V30 8133 C 779.79 2.64451 3.51787 0
M  V30 8134 H 776.909 0.548611 0.492133 0
M  V30 8135 H 779.551 1.77741 0.671428 0
M  V30 8136 H 777.701 2.36539 3.08191 0
M  V30 8137 H 779.373 4.38576 1.43 0
M  V30 8138 H 777.616 4.14529 1.27859 0
M  V30 8139 H 778.287 4.76218 2.79143 0
M  V30 8140 H 780.763 2.85031 3.03145 0
M  V30 8141 H 779.639 3.42411 4.29006 0
M  V30 8142 H 779.9 1.69965 4.08123 0
M  V30 8143 N 778.959 -0.83999 1.33349 0
M  V30 8144 C 780.205 -1.59753 1.24927 0
M  V30 8145 C 780.538 -1.93318 -0.184855 0
M  V30 8146 O 779.813 -1.586 -1.12589 0
M  V30 8147 C 780.096 -2.90829 2.12345 0
M  V30 8148 C 779.949 -2.63953 3.6421 0
M  V30 8149 C 781.268 -3.92246 1.99577 0
M  V30 8150 H 778.387 -0.579654 0.45516 0
M  V30 8151 H 781.029 -0.968909 1.63439 0
M  V30 8152 H 779.179 -3.44478 1.79631 0
M  V30 8153 H 780.851 -2.16745 4.07209 0
M  V30 8154 H 779.094 -1.97671 3.86146 0
M  V30 8155 H 779.765 -3.57348 4.20721 0
M  V30 8156 H 782.241 -3.479 2.28265 0
M  V30 8157 H 781.117 -4.81793 2.62996 0
M  V30 8158 H 781.378 -4.3138 0.967673 0
M  V30 8159 N 780.437 -1.16799 -1.0581 0
M  V30 8160 C 781.848 -0.95945 -1.60161 0
M  V30 8161 C 782.199 0.49543 -1.89842 0
M  V30 8162 O 781.324 1.36957 -1.67546 0
M  V30 8163 C 781.919 -1.73527 -2.90987 0
M  V30 8164 C 780.478 -1.57158 -3.42021 0
M  V30 8165 C 779.625 -1.74089 -2.15843 0
M  V30 8166 H 782.576 -1.31598 -0.886992 0
M  V30 8167 H 782.597 -1.21397 -3.60615 0
M  V30 8168 H 782.109 -2.79411 -2.69353 0
M  V30 8169 H 780.21 -0.537361 -3.68705 0
M  V30 8170 H 780.323 -2.35858 -4.17022 0
M  V30 8171 H 778.687 -1.16874 -2.26302 0
M  V30 8172 H 779.47 -2.81371 -1.96686 0
M  V30 8173 N 781.915 1.24427 -0.967243 0
M  V30 8174 C 783.161 1.92772 -0.629812 0
M  V30 8175 C 783.494 1.75436 0.832827 0
M  V30 8176 O 782.769 1.10716 1.59913 0
M  V30 8177 C 783.052 3.45798 -1.00477 0
M  V30 8178 C 782.905 3.72304 -2.52407 0
M  V30 8179 C 784.224 4.36787 -0.538999 0
M  V30 8180 H 781.343 0.700099 -0.230282 0
M  V30 8181 H 783.985 1.46805 -1.20616 0
M  V30 8182 H 782.135 3.8508 -0.514336 0
M  V30 8183 H 783.807 3.42584 -3.08924 0
M  V30 8184 H 782.05 3.17472 -2.95625 0
M  V30 8185 H 782.721 4.7937 -2.73693 0
M  V30 8186 H 785.197 4.04877 -0.959874 0
M  V30 8187 H 784.073 5.4259 -0.829926 0
M  V30 8188 H 784.334 4.38527 0.560923 0
M  V30 8189 N 783.393 0.737304 1.3929 0
M  V30 8190 C 784.804 0.355966 1.83275 0
M  V30 8191 C 785.155 -1.11295 1.6158 0
M  V30 8192 O 784.28 -1.85871 1.10819 0
M  V30 8193 C 784.875 0.63931 3.32713 0
M  V30 8194 C 783.434 0.31144 3.75109 0
M  V30 8195 C 782.581 0.900765 2.62262 0
M  V30 8196 H 785.532 0.934763 1.28249 0
M  V30 8197 H 785.553 -0.0881293 3.80398 0
M  V30 8198 H 785.065 1.70847 3.48472 0
M  V30 8199 H 783.166 -0.751791 3.64937 0
M  V30 8200 H 783.279 0.795611 4.72448 0
M  V30 8201 H 781.643 0.327239 2.52589 0
M  V30 8202 H 782.426 1.97463 2.80826 0
M  V30 8203 O 784.91 -1.48837 0.626876 0
M  V30 8204 H 785.601 -1.93161 0.14443 0
M  V30 END ATOM
M  V30 BEGIN BOND
M  V30 END BOND
M  V30 END CTAB
M  END
$$$$
