drugbank_target|P50618 Protein NrdI (DB03247)
 OpenBabel12092120273D

  0  0  0     0  0            999 V3000
M  V30 BEGIN CTAB
M  V30 COUNTS 2061 2081 0 0 0
M  V30 BEGIN ATOM
M  V30 1 H -0.908 1.98254 -0.117106 0
M  V30 2 N 0 1.576 0 0
M  V30 3 C 0.933 2.03868 1.02534 0
M  V30 4 C 1.911 0.928543 1.3348 0
M  V30 5 O 3.095 1.19667 1.45644 0
M  V30 6 C 0.222 2.43627 2.35294 0
M  V30 7 C -0.732 3.65373 2.2001 0
M  V30 8 S 0.101 5.13292 1.52614 0
M  V30 9 C 1.257 5.56322 2.86805 0
M  V30 10 H 1.49 2.90518 0.631377 0
M  V30 11 H -0.977 1.52953 0.210867 0
M  V30 12 H 0.981 2.67203 3.11629 0
M  V30 13 H -0.358 1.57376 2.7183 0
M  V30 14 H -1.165 3.90944 3.18086 0
M  V30 15 H -1.563 3.418 1.51819 0
M  V30 16 H 0.729 5.58782 3.83104 0
M  V30 17 H 1.672 6.56266 2.65933 0
M  V30 18 H 2.08 4.83886 2.90714 0
M  V30 19 N 1.4781 -0.272755 1.55222 0
M  V30 20 C 2.7241 -1.00581 1.761 0
M  V30 21 C 3.0571 -1.85932 0.560625 0
M  V30 22 O 2.3321 -1.89416 -0.441801 0
M  V30 23 C 2.6151 -1.88816 3.06628 0
M  V30 24 C 2.4681 -1.06457 4.37021 0
M  V30 25 C 3.7871 -2.8752 3.33197 0
M  V30 26 H 0.9061 -0.364244 0.640699 0
M  V30 27 H 3.5481 -0.278189 1.87952 0
M  V30 28 H 1.6981 -2.50856 2.96654 0
M  V30 29 H 3.3701 -0.464863 4.58952 0
M  V30 30 H 1.6131 -0.368043 4.32236 0
M  V30 31 H 2.2841 -1.71514 5.24678 0
M  V30 32 H 4.7601 -2.35615 3.42965 0
M  V30 33 H 3.6361 -3.46399 4.25792 0
M  V30 34 H 3.8971 -3.62657 2.52849 0
M  V30 35 N 2.9562 -1.48159 -0.537278 0
M  V30 36 C 3.8882 -1.58218 -1.65831 0
M  V30 37 C 4.9012 -0.466948 -1.5596 0
M  V30 38 O 6.0902 -0.73747 -1.62553 0
M  V30 39 C 3.1902 -1.48906 -3.04434 0
M  V30 40 C 2.3632 -2.75343 -3.3986 0
M  V30 41 C 1.4222 -2.59588 -4.57712 0
M  V30 42 O 0.4482 -3.33457 -4.61297 0
M  V30 43 N 1.6502 -1.68724 -5.55439 0
M  V30 44 H 4.4152 -2.54891 -1.57641 0
M  V30 45 H 1.9762 -1.4479 -0.724386 0
M  V30 46 H 3.9682 -1.36072 -3.81139 0
M  V30 47 H 2.5382 -0.602368 -3.06741 0
M  V30 48 H 1.7582 -3.02795 -2.52406 0
M  V30 49 H 3.0462 -3.5924 -3.60311 0
M  V30 50 H 2.4442 -1.07898 -5.55315 0
M  V30 51 H 1.0012 -1.61832 -6.3139 0
M  V30 52 N 4.4343 0.785586 -1.36625 0
M  V30 53 C 5.6833 1.53883 -1.30396 0
M  V30 54 C 5.9963 1.95271 0.113452 0
M  V30 55 O 7.2023 2.69858 0.298142 0
M  V30 56 C 5.6583 2.77808 -2.28802 0
M  V30 57 C 5.2663 2.43574 -3.75999 0
M  V30 58 C 7.0103 3.55783 -2.31558 0
M  V30 59 C 4.9173 3.63919 -4.66173 0
M  V30 60 H 3.8473 0.577678 -0.484566 0
M  V30 61 H 6.4983 0.861705 -1.62009 0
M  V30 62 H 4.8803 3.47339 -1.90188 0
M  V30 63 H 6.0543 1.81916 -4.23371 0
M  V30 64 H 4.3693 1.78803 -3.76056 0
M  V30 65 H 6.9663 4.45205 -2.96137 0
M  V30 66 H 7.3093 3.94644 -1.3252 0
M  V30 67 H 7.8423 2.93235 -2.68809 0
M  V30 68 H 4.5813 3.3015 -5.66287 0
M  V30 69 H 4.1013 4.2473 -4.23515 0
M  V30 70 H 5.7803 4.30901 -4.82632 0
M  V30 71 N 5.9124 1.20967 1.01018 0
M  V30 72 C 7.1614 1.01796 1.74128 0
M  V30 73 C 7.4744 -0.449691 1.90361 0
M  V30 74 O 8.6804 -0.76068 2.60626 0
M  V30 75 C 7.1364 1.7727 3.13215 0
M  V30 76 C 6.7444 3.28171 3.04972 0
M  V30 77 C 8.4884 1.66489 3.90489 0
M  V30 78 C 6.3954 3.96156 4.39107 0
M  V30 79 H 5.3254 0.377276 0.652824 0
M  V30 80 H 7.9764 1.44651 1.12909 0
M  V30 81 H 6.3584 1.27205 3.75013 0
M  V30 82 H 7.5324 3.85499 2.52443 0
M  V30 83 H 5.8474 3.39437 2.41188 0
M  V30 84 H 8.4444 2.14617 4.89738 0
M  V30 85 H 8.7874 0.6222 4.11624 0
M  V30 86 H 9.3204 2.14003 3.35332 0
M  V30 87 H 6.0594 5.00604 4.23174 0
M  V30 88 H 5.5794 3.43617 4.91617 0
M  V30 89 H 7.2584 4.00774 5.07926 0
M  V30 90 N 7.3905 -1.2043 1.01659 0
M  V30 91 C 8.6375 -1.89797 0.705917 0
M  V30 92 C 8.9655 -1.78848 -0.764439 0
M  V30 93 O 8.2205 -1.16694 -1.57102 0
M  V30 94 C 8.5195 -3.40464 1.08714 0
M  V30 95 C 8.1855 -3.71614 2.5537 0
M  V30 96 C 6.8475 -3.79826 2.95441 0
M  V30 97 C 9.1995 -3.85915 3.50313 0
M  V30 98 C 6.5275 -3.99797 4.29394 0
M  V30 99 C 8.8795 -4.07396 4.83954 0
M  V30 100 C 7.5435 -4.13837 5.23732 0
M  V30 101 H 6.8135 -0.694518 0.258313 0
M  V30 102 H 9.4605 -1.42691 1.27717 0
M  V30 103 H 7.7655 -3.89385 0.434309 0
M  V30 104 H 9.4625 -3.92433 0.824461 0
M  V30 105 H 6.0525 -3.65822 2.23321 0
M  V30 106 H 10.2365 -3.78926 3.20513 0
M  V30 107 H 5.4925 -4.03018 4.59768 0
M  V30 108 H 9.6665 -4.17404 5.57447 0
M  V30 109 H 7.2935 -4.29064 6.27541 0
M  V30 110 N 8.8686 -0.792821 -1.36206 0
M  V30 111 C 10.1456 -0.290627 -1.93429 0
M  V30 112 C 10.5256 1.21773 -1.72437 0
M  V30 113 O 9.8736 2.0108 -1.08531 0
M  V30 114 C 10.0836 -0.686973 -3.42172 0
M  V30 115 C 11.4316 -0.668643 -4.19302 0
M  V30 116 O 12.4556 -0.627658 -3.50626 0
M  V30 117 O 11.3146 -0.714597 -5.41808 0
M  V30 118 H 8.4086 -0.0727927 -0.82379 0
M  V30 119 H 10.9546 -0.875593 -1.45367 0
M  V30 120 H 9.7266 -1.72711 -3.51122 0
M  V30 121 H 9.3496 -0.0760733 -3.97527 0
M  V30 122 N 10.3467 1.47872 -0.545128 0
M  V30 123 C 11.5717 2.07391 -0.0190611 0
M  V30 124 C 11.9967 1.39688 1.25971 0
M  V30 125 O 11.3547 0.467816 1.7516 0
M  V30 126 C 11.4027 3.60188 0.172335 0
M  V30 127 O 10.5067 3.9339 1.23766 0
M  V30 128 H 9.8477 0.662411 -0.0459059 0
M  V30 129 H 12.3777 1.90066 -0.757365 0
M  V30 130 H 12.3877 4.06129 0.390305 0
M  V30 131 H 11.0627 4.08865 -0.761725 0
M  V30 132 H 9.6397 3.5921 1.00114 0
M  V30 133 N 11.8248 0.280983 1.55075 0
M  V30 134 C 12.7718 -0.603937 2.22758 0
M  V30 135 C 13.7418 -1.1452 1.20309 0
M  V30 136 O 14.9268 -1.19343 1.48869 0
M  V30 137 C 12.0668 -1.77947 2.95684 0
M  V30 138 C 11.1798 -1.2715 4.12864 0
M  V30 139 C 10.3148 -2.4093 4.7342 0
M  V30 140 C 9.3538 -1.87165 5.82783 0
M  V30 141 N 8.4908 -2.94441 6.37377 0
M  V30 142 H 13.3308 -0.020124 2.97993 0
M  V30 143 H 10.8678 0.00183425 1.471 0
M  V30 144 H 12.8258 -2.47055 3.36184 0
M  V30 145 H 11.4558 -2.33522 2.22861 0
M  V30 146 H 10.5078 -0.473331 3.77444 0
M  V30 147 H 11.8198 -0.837751 4.91715 0
M  V30 148 H 10.9738 -3.18021 5.1667 0
M  V30 149 H 9.7128 -2.87623 3.93859 0
M  V30 150 H 8.7178 -1.08556 5.38976 0
M  V30 151 H 9.9428 -1.41401 6.64216 0
M  V30 152 H 7.8888 -3.40505 5.60707 0
M  V30 153 H 7.8058 -2.55501 7.11516 0
M  V30 154 H 9.0738 -3.71489 6.85285 0
M  V30 155 N 13.3029 -1.57598 0.00835791 0
M  V30 156 C 14.5309 -1.95214 -0.68549 0
M  V30 157 C 14.9459 -0.883706 -1.66841 0
M  V30 158 O 14.3029 0.136565 -1.81988 0
M  V30 159 C 14.3539 -3.32865 -1.41007 0
M  V30 160 O 14.0749 -4.35609 -0.466552 0
M  V30 161 C 15.5759 -3.84991 -2.19765 0
M  V30 162 H 12.7959 -0.643422 -0.190392 0
M  V30 163 H 15.3399 -2.04406 0.0619607 0
M  V30 164 H 13.4949 -3.24956 -2.10908 0
M  V30 165 H 13.9089 -5.15288 -0.978699 0
M  V30 166 H 15.3829 -4.8371 -2.65948 0
M  V30 167 H 15.8599 -3.18137 -3.02796 0
M  V30 168 H 16.4659 -3.96103 -1.54864 0
M  V30 169 N 14.781 0.264519 -1.55364 0
M  V30 170 C 16.029 0.993021 -1.76021 0
M  V30 171 C 16.35 1.86511 -0.569099 0
M  V30 172 O 15.62 1.91438 0.415735 0
M  V30 173 H 14.2 0.369639 -0.649135 0
M  V30 174 H 16.862 0.286707 -1.9278 0
M  V30 175 H 15.958 1.62502 -2.66457 0
M  V30 176 N 16.2591 1.48442 0.529413 0
M  V30 177 C 17.2071 1.63452 1.65487 0
M  V30 178 C 18.2011 0.500955 1.61823 0
M  V30 179 O 19.4071 0.679695 1.66674 0
M  V30 180 H 15.7821 0.514905 0.548066 0
M  V30 181 H 17.7531 2.57975 1.49971 0
M  V30 182 C 16.5021 1.69196 3.03756 0
M  V30 183 H 15.8251 2.55784 3.07269 0
M  V30 184 H 17.2651 1.83743 3.82119 0
M  V30 185 C 15.7241 0.430765 3.34135 0
M  V30 186 O 16.2541 -0.4561 3.99102 0
M  V30 187 N 14.4601 0.302293 2.89023 0
M  V30 188 H 14.0071 1.02496 2.36331 0
M  V30 189 H 13.9651 -0.540546 3.09718 0
M  V30 190 N 17.7372 -0.778329 1.37039 0
M  V30 191 C 18.9832 -1.53892 1.32079 0
M  V30 192 C 19.3162 -1.9396 -0.0965386 0
M  V30 193 O 18.5912 -1.63568 -1.05242 0
M  V30 194 C 18.8742 -2.80847 2.25382 0
M  V30 195 C 18.7272 -2.47076 3.75864 0
M  V30 196 C 20.0462 -3.82741 2.1725 0
M  V30 197 H 17.1652 -0.558303 0.48111 0
M  V30 198 H 19.8072 -0.893397 1.67685 0
M  V30 199 H 17.9572 -3.35931 1.95148 0
M  V30 200 H 19.6292 -1.97957 4.16666 0
M  V30 201 H 17.8722 -1.79863 3.94755 0
M  V30 202 H 18.5432 -3.37798 4.36574 0
M  V30 203 H 21.0192 -3.37133 2.43887 0
M  V30 204 H 19.8952 -4.69303 2.84686 0
M  V30 205 H 20.1562 -4.2652 1.16331 0
M  V30 206 N 19.2153 -1.21501 -1.00376 0
M  V30 207 C 20.1473 -0.933174 -2.09343 0
M  V30 208 C 21.1603 0.0840896 -1.62583 0
M  V30 209 O 22.3493 -0.148563 -1.77881 0
M  V30 210 C 19.4493 -0.379869 -3.36764 0
M  V30 211 C 18.6223 -1.45176 -4.12605 0
M  V30 212 C 17.6813 -0.907476 -5.18316 0
M  V30 213 O 16.7073 -1.5912 -5.46507 0
M  V30 214 N 17.9093 0.276649 -5.7984 0
M  V30 215 H 20.6743 -1.87124 -2.34104 0
M  V30 216 H 18.2353 -1.12043 -1.16867 0
M  V30 217 H 20.2273 -0.00131488 -4.047 0
M  V30 218 H 18.7973 0.463048 -3.09151 0
M  V30 219 H 18.0173 -2.00411 -3.39454 0
M  V30 220 H 19.3053 -2.17328 -4.6005 0
M  V30 221 H 18.7033 0.849147 -5.59291 0
M  V30 222 H 17.2603 0.596702 -6.49063 0
M  V30 223 N 20.6934 1.19889 -1.02296 0
M  V30 224 C 22.1094 1.41462 -0.738954 0
M  V30 225 C 22.3094 1.89721 0.678846 0
M  V30 226 O 21.3654 2.07016 1.4457 0
M  V30 227 C 22.6784 2.43083 -1.77005 0
M  V30 228 C 24.2264 2.5684 -1.78892 0
M  V30 229 C 24.7014 3.61709 -2.80945 0
M  V30 230 N 26.1924 3.69199 -2.79725 0
M  V30 231 C 26.9274 4.50019 -3.55345 0
M  V30 232 N 26.4234 5.34592 -4.40662 0
M  V30 233 N 28.2164 4.44612 -3.43914 0
M  V30 234 H 20.3674 0.868827 -1.93817 0
M  V30 235 H 22.6304 0.44399 -0.837602 0
M  V30 236 H 22.3364 2.14636 -2.78612 0
M  V30 237 H 22.2104 3.4217 -1.58744 0
M  V30 238 H 24.5974 2.84614 -0.779674 0
M  V30 239 H 24.6784 1.57927 -2.01228 0
M  V30 240 H 24.3224 3.34678 -3.82038 0
M  V30 241 H 24.2524 4.60259 -2.5587 0
M  V30 242 H 26.7434 3.08794 -2.17842 0
M  V30 243 H 27.0564 5.93363 -4.95116 0
M  V30 244 H 25.4014 5.34073 -4.44737 0
M  V30 245 H 28.5924 3.7758 -2.76679 0
M  V30 246 H 28.7654 5.0736 -4.031 0
M  V30 247 N 22.1715 0.800033 1.35784 0
M  V30 248 C 23.4185 0.377342 1.98953 0
M  V30 249 C 23.7465 -1.05378 1.6348 0
M  V30 250 O 23.0015 -1.74459 0.886707 0
M  V30 251 C 23.3005 0.500276 3.53881 0
M  V30 252 C 22.9665 1.89375 4.09204 0
M  V30 253 C 21.6285 2.27499 4.24025 0
M  V30 254 C 23.9805 2.8057 4.39238 0
M  V30 255 C 21.3085 3.562 4.66195 0
M  V30 256 C 23.6605 4.0871 4.82844 0
M  V30 257 C 22.3245 4.46843 4.95871 0
M  V30 258 H 21.5945 0.138079 0.728021 0
M  V30 259 H 24.2415 1.01955 1.62103 0
M  V30 260 H 22.5465 -0.225405 3.91151 0
M  V30 261 H 24.2435 0.154097 4.00704 0
M  V30 262 H 20.8335 1.58753 3.98115 0
M  V30 263 H 25.0175 2.52367 4.27346 0
M  V30 264 H 20.2735 3.85602 4.74469 0
M  V30 265 H 24.4475 4.79481 5.05046 0
M  V30 266 H 22.0745 5.46623 5.28306 0
M  V30 267 N 23.6496 -1.47581 0.552962 0
M  V30 268 C 24.8956 -2.02782 0.0273648 0
M  V30 269 C 25.2286 -1.42687 -1.31734 0
M  V30 270 O 24.5036 -0.580897 -1.85623 0
M  V30 271 C 24.7866 -3.60031 -0.0702371 0
M  V30 272 C 24.6396 -4.30566 1.30126 0
M  V30 273 C 25.9586 -4.33028 -0.785771 0
M  V30 274 H 23.0776 -0.736912 0.0114185 0
M  V30 275 H 25.7196 -1.76056 0.714432 0
M  V30 276 H 23.8696 -3.82932 -0.655382 0
M  V30 277 H 25.5416 -4.19018 1.92929 0
M  V30 278 H 23.7846 -3.91086 1.87709 0
M  V30 279 H 24.4556 -5.39114 1.18573 0
M  V30 280 H 26.9316 -4.15095 -0.288982 0
M  V30 281 H 25.8076 -5.42695 -0.823013 0
M  V30 282 H 26.0686 -4.01945 -1.841 0
M  V30 283 N 25.1277 -0.289203 -1.54924 0
M  V30 284 C 26.0757 0.607966 -2.24514 0
M  V30 285 C 27.0697 1.14655 -1.24702 0
M  V30 286 O 28.2757 1.09856 -1.4259 0
M  V30 287 H 24.6507 0.21464 -0.720718 0
M  V30 288 H 26.6217 -0.00164182 -2.984 0
M  V30 289 C 25.3707 1.77406 -2.99036 0
M  V30 290 H 24.6937 1.36884 -3.75637 0
M  V30 291 H 26.1337 2.37814 -3.51028 0
M  V30 292 C 24.5927 2.67107 -2.05318 0
M  V30 293 O 25.1227 3.6787 -1.61353 0
M  V30 294 N 23.3287 2.34582 -1.71521 0
M  V30 295 H 22.8757 1.52688 -2.07471 0
M  V30 296 H 22.8337 2.94867 -1.0909 0
M  V30 297 N 26.6058 1.57591 -0.0167156 0
M  V30 298 C 27.5528 2.09462 0.969251 0
M  V30 299 C 28.5228 0.99381 1.33089 0
M  V30 300 O 29.7078 1.26726 1.42636 0
M  V30 301 C 26.8478 2.61622 2.25051 0
M  V30 302 C 25.9608 3.85666 1.94642 0
M  V30 303 C 25.0958 4.26266 3.16972 0
M  V30 304 C 24.1348 5.43101 2.82326 0
M  V30 305 N 23.2718 5.78915 3.97243 0
M  V30 306 H 28.1118 2.93428 0.519997 0
M  V30 307 H 25.6488 1.45044 0.245087 0
M  V30 308 H 27.6068 2.89949 2.99976 0
M  V30 309 H 26.2368 1.80505 2.67615 0
M  V30 310 H 25.2888 3.64145 1.10013 0
M  V30 311 H 26.6008 4.70678 1.65117 0
M  V30 312 H 25.7548 4.55963 4.00228 0
M  V30 313 H 24.4938 3.39996 3.49648 0
M  V30 314 H 23.4988 5.1311 1.97479 0
M  V30 315 H 24.7238 6.3106 2.50879 0
M  V30 316 H 22.6698 4.95602 4.29785 0
M  V30 317 H 22.5868 6.58539 3.71299 0
M  V30 318 H 23.8548 6.13212 4.81239 0
M  V30 319 N 28.0839 -0.256276 1.55502 0
M  V30 320 C 29.3119 -1.00342 1.8094 0
M  V30 321 C 29.7269 -1.79307 0.59114 0
M  V30 322 O 29.0839 -1.77114 -0.440081 0
M  V30 323 C 29.1349 -1.94875 3.04476 0
M  V30 324 O 28.8559 -1.19107 4.21598 0
M  V30 325 C 30.3569 -2.81266 3.42644 0
M  V30 326 H 27.5769 -0.295685 0.602338 0
M  V30 327 H 30.1209 -0.281998 2.02546 0
M  V30 328 H 28.2759 -2.62457 2.84947 0
M  V30 329 H 28.6899 -1.82969 4.91551 0
M  V30 330 H 30.1639 -3.43362 4.32211 0
M  V30 331 H 30.6409 -3.51897 2.62802 0
M  V30 332 H 31.2469 -2.1915 3.64491 0
M  V30 333 N 29.562 -1.4872 -0.521534 0
M  V30 334 C 30.81 -1.56857 -1.27437 0
M  V30 335 C 31.131 -0.247982 -1.93417 0
M  V30 336 O 30.401 0.731151 -1.81744 0
M  V30 337 H 28.981 -0.577885 -0.473347 0
M  V30 338 H 31.643 -1.85233 -0.606205 0
M  V30 339 H 30.739 -2.35402 -2.0492 0
M  V30 340 N 31.0401 0.771051 -1.3745 0
M  V30 341 C 32.2871 1.52963 -1.32697 0
M  V30 342 C 32.6151 1.94299 0.0883274 0
M  V30 343 O 31.8701 1.64397 1.0617 0
M  V30 344 C 32.1691 2.80676 -2.2126 0
M  V30 345 C 31.8351 2.58389 -3.69521 0
M  V30 346 C 30.4971 2.52019 -4.09927 0
M  V30 347 C 32.8491 2.38469 -4.63446 0
M  V30 348 C 30.1771 2.23721 -5.42371 0
M  V30 349 C 32.5291 2.11694 -5.96128 0
M  V30 350 C 31.1931 2.03769 -6.35637 0
M  V30 351 H 30.4631 0.559732 -0.485573 0
M  V30 352 H 33.1101 0.888083 -1.69662 0
M  V30 353 H 31.4151 3.49392 -1.77291 0
M  V30 354 H 33.1121 3.38557 -2.14895 0
M  V30 355 H 29.7021 2.6421 -3.37478 0
M  V30 356 H 33.8861 2.4238 -4.33089 0
M  V30 357 H 29.1421 2.16081 -5.71943 0
M  V30 358 H 33.3161 1.9528 -6.6846 0
M  V30 359 H 30.9431 1.81606 -7.38189 0
M  V30 360 N 32.5182 1.22032 0.997298 0
M  V30 361 C 33.4502 0.944263 2.08845 0
M  V30 362 C 34.4632 -0.0754663 1.62625 0
M  V30 363 O 35.6522 0.157994 1.77799 0
M  V30 364 C 32.7522 0.397723 3.36558 0
M  V30 365 C 31.9252 1.47362 4.11829 0
M  V30 366 C 30.9842 0.934951 5.17827 0
M  V30 367 O 30.0102 1.62016 5.45655 0
M  V30 368 N 31.2122 -0.245895 5.79979 0
M  V30 369 H 33.9772 1.88363 2.33109 0
M  V30 370 H 31.5382 1.12661 1.16272 0
M  V30 371 H 33.5302 0.0227771 4.04694 0
M  V30 372 H 32.1002 -0.446646 3.09393 0
M  V30 373 H 31.3202 2.02208 3.38386 0
M  V30 374 H 32.6082 2.19764 4.58891 0
M  V30 375 H 32.0062 -0.819475 5.59733 0
M  V30 376 H 30.5632 -0.562272 6.4937 0
M  V30 377 N 33.9963 -1.19345 1.0293 0
M  V30 378 C 34.9283 -2.22036 0.56857 0
M  V30 379 C 35.9413 -1.58865 -0.355779 0
M  V30 380 O 37.1303 -1.77851 -0.152103 0
M  V30 381 C 34.2303 -3.38363 -0.190752 0
M  V30 382 C 33.4033 -4.31118 0.738643 0
M  V30 383 C 32.4623 -5.26194 0.0246497 0
M  V30 384 O 31.4883 -5.65461 0.651354 0
M  V30 385 N 32.6903 -5.66971 -1.24594 0
M  V30 386 H 35.4553 -2.6219 1.45177 0
M  V30 387 H 33.0163 -1.34015 0.908381 0
M  V30 388 H 35.0083 -3.98981 -0.677961 0
M  V30 389 H 33.5783 -2.96994 -0.975366 0
M  V30 390 H 32.7983 -3.68276 1.40593 0
M  V30 391 H 34.0863 -4.90001 1.37029 0
M  V30 392 H 33.4843 -5.37104 -1.77583 0
M  V30 393 H 32.0413 -6.2984 -1.67764 0
M  V30 394 N 35.4744 -0.807222 -1.35358 0
M  V30 395 C 36.7234 -0.384376 -1.98004 0
M  V30 396 C 37.0364 1.0543 -1.64754 0
M  V30 397 O 38.2424 1.58029 -2.20769 0
M  V30 398 C 36.6984 -0.636326 -3.5423 0
M  V30 399 C 36.3064 -2.08759 -3.96388 0
M  V30 400 C 38.0504 -0.278869 -4.23583 0
M  V30 401 C 35.9574 -2.28525 -5.45463 0
M  V30 402 H 34.8874 -0.139986 -0.740891 0
M  V30 403 H 37.5384 -0.991369 -1.54415 0
M  V30 404 H 35.9204 0.0406256 -3.95979 0
M  V30 405 H 37.0944 -2.8024 -3.6579 0
M  V30 406 H 35.4094 -2.40497 -3.39926 0
M  V30 407 H 38.0064 -0.404599 -5.33167 0
M  V30 408 H 38.3494 0.775012 -4.09022 0
M  V30 409 H 38.8824 -0.909764 -3.87257 0
M  V30 410 H 35.6214 -3.32361 -5.64992 0
M  V30 411 H 35.1414 -1.61569 -5.77629 0
M  V30 412 H 36.8204 -2.10109 -6.11934 0
M  V30 413 N 36.9525 1.47285 -0.560781 0
M  V30 414 C 38.3685 1.58065 -0.22081 0
M  V30 415 C 38.5685 1.55892 1.27671 0
M  V30 416 O 37.6245 1.46422 2.0571 0
M  V30 417 C 38.9375 2.88418 -0.850625 0
M  V30 418 C 40.4855 3.02009 -0.822184 0
M  V30 419 C 40.9605 4.35066 -1.43113 0
M  V30 420 N 42.4515 4.41711 -1.39448 0
M  V30 421 C 43.1865 5.43237 -1.83525 0
M  V30 422 N 42.6825 6.51555 -2.35474 0
M  V30 423 N 44.4755 5.34304 -1.74574 0
M  V30 424 H 36.6265 1.46941 -1.53369 0
M  V30 425 H 38.8895 0.699558 -0.639783 0
M  V30 426 H 38.5955 2.95755 -1.9032 0
M  V30 427 H 38.4695 3.75612 -0.345773 0
M  V30 428 H 40.8565 2.94266 0.221714 0
M  V30 429 H 40.9375 2.16347 -1.36483 0
M  V30 430 H 40.5815 4.43565 -2.47412 0
M  V30 431 H 40.5115 5.19465 -0.863899 0
M  V30 432 H 43.0025 3.64027 -1.01452 0
M  V30 433 H 43.3155 7.25203 -2.67021 0
M  V30 434 H 41.6605 6.52435 -2.39487 0
M  V30 435 H 44.8515 4.48581 -1.33763 0
M  V30 436 H 45.0245 6.13288 -2.09242 0
M  V30 437 N 38.4306 0.297415 1.54768 0
M  V30 438 C 39.3776 -0.580276 2.23386 0
M  V30 439 C 40.3476 -1.13238 1.21517 0
M  V30 440 O 41.5326 -1.17757 1.50126 0
M  V30 441 C 38.6726 -1.74801 2.97555 0
M  V30 442 C 37.7856 -1.22764 4.1419 0
M  V30 443 C 36.9206 -2.35895 4.75949 0
M  V30 444 C 35.9596 -1.80974 5.84735 0
M  V30 445 N 35.0966 -2.87664 6.40464 0
M  V30 446 H 39.9366 0.0114833 2.97998 0
M  V30 447 H 37.4736 0.0174361 1.4709 0
M  V30 448 H 39.4316 -2.43475 3.38786 0
M  V30 449 H 38.0616 -2.31145 2.25326 0
M  V30 450 H 37.1136 -0.433271 3.77924 0
M  V30 451 H 38.4256 -0.785551 4.92575 0
M  V30 452 H 37.5796 -3.12523 5.20014 0
M  V30 453 H 36.3186 -2.83429 3.96887 0
M  V30 454 H 35.3236 -1.02834 5.40097 0
M  V30 455 H 36.5486 -1.34348 6.65678 0
M  V30 456 H 34.4946 -3.34538 5.64287 0
M  V30 457 H 34.4116 -2.4794 7.14186 0
M  V30 458 H 35.6796 -3.642 6.89187 0
M  V30 459 N 39.9087 -1.5758 0.0250728 0
M  V30 460 C 41.1547 -1.91917 -0.655413 0
M  V30 461 C 41.4877 -0.901433 -1.72011 0
M  V30 462 O 40.7627 0.0764069 -1.9435 0
M  V30 463 C 41.0457 -3.36751 -1.27558 0
M  V30 464 C 40.8987 -4.49258 -0.220719 0
M  V30 465 C 42.2177 -3.81469 -2.19475 0
M  V30 466 H 39.3367 -0.697925 -0.23679 0
M  V30 467 H 41.9787 -1.89825 0.0815036 0
M  V30 468 H 40.1287 -3.38664 -1.90365 0
M  V30 469 H 41.8007 -4.59478 0.409601 0
M  V30 470 H 40.0437 -4.31415 0.454264 0
M  V30 471 H 40.7147 -5.47618 -0.694175 0
M  V30 472 H 43.1907 -3.81266 -1.66659 0
M  V30 473 H 42.0667 -4.83512 -2.59822 0
M  V30 474 H 42.3277 -3.16744 -3.08424 0
M  V30 475 N 41.3868 0.248026 -1.55636 0
M  V30 476 C 42.6638 0.998988 -1.68165 0
M  V30 477 C 43.0438 2.03409 -0.564621 0
M  V30 478 O 42.3918 2.24378 0.432076 0
M  V30 479 C 42.6018 1.63334 -3.0842 0
M  V30 480 C 43.9498 2.13562 -3.66983 0
M  V30 481 O 44.9738 1.73277 -3.11213 0
M  V30 482 O 43.8328 2.87526 -4.64749 0
M  V30 483 H 40.9268 0.464933 -0.683935 0
M  V30 484 H 43.4728 0.241902 -1.67967 0
M  V30 485 H 42.2448 0.884583 -3.8117 0
M  V30 486 H 41.8678 2.45666 -3.12624 0
M  V30 487 N 42.8649 1.48995 0.513639 0
M  V30 488 C 43.7749 1.67443 1.64317 0
M  V30 489 C 44.7909 0.556947 1.64846 0
M  V30 490 O 45.9669 0.830082 1.83498 0
M  V30 491 C 43.0319 1.72515 3.00732 0
M  V30 492 C 42.0929 2.96009 3.1093 0
M  V30 493 C 41.3259 3.00829 4.40837 0
M  V30 494 O 41.5489 2.13594 5.28898 0
M  V30 495 O 40.4829 3.93168 4.55744 0
M  V30 496 H 44.3089 2.63106 1.51687 0
M  V30 497 H 41.8939 1.32588 0.688543 0
M  V30 498 H 43.7759 1.78277 3.81831 0
M  V30 499 H 42.4509 0.800278 3.13651 0
M  V30 500 H 41.3579 2.9577 2.29065 0
M  V30 501 H 42.6909 3.87934 3.02933 0
M  V30 502 N 44.343 -0.763751 1.37857 0
M  V30 503 C 45.276 -1.88486 1.28639 0
M  V30 504 C 46.254 -1.61757 0.165363 0
M  V30 505 O 47.438 -1.85391 0.340948 0
M  V30 506 C 44.565 -3.23884 0.990811 0
M  V30 507 C 43.611 -3.69514 2.12983 0
M  V30 508 S 44.444 -3.82244 3.75033 0
M  V30 509 C 45.6 -5.20477 3.47641 0
M  V30 510 H 45.833 -1.96017 2.23527 0
M  V30 511 H 43.366 -0.925684 1.23574 0
M  V30 512 H 45.324 -4.02081 0.827101 0
M  V30 513 H 43.985 -3.14044 0.0592832 0
M  V30 514 H 43.178 -4.67696 1.87821 0
M  V30 515 H 42.78 -2.98441 2.25408 0
M  V30 516 H 45.072 -6.05905 3.03125 0
M  V30 517 H 46.015 -5.50655 4.4518 0
M  V30 518 H 46.423 -4.88793 2.82385 0
M  V30 519 N 45.8211 -1.22559 -0.990812 0
M  V30 520 C 47.0981 -0.959875 -1.70428 0
M  V30 521 C 47.4781 0.524455 -2.04481 0
M  V30 522 O 46.8261 1.49302 -1.72977 0
M  V30 523 C 47.0361 -1.85955 -2.95333 0
M  V30 524 C 48.3841 -2.11687 -3.68068 0
M  V30 525 O 49.4081 -1.8342 -3.05345 0
M  V30 526 O 48.2671 -2.59572 -4.80921 0
M  V30 527 H 45.3611 -0.361154 -0.743974 0
M  V30 528 H 47.9071 -1.33554 -1.04697 0
M  V30 529 H 46.6791 -2.86346 -2.66687 0
M  V30 530 H 46.3021 -1.4856 -3.68803 0
M  V30 531 N 47.2992 1.18797 -1.03562 0
M  V30 532 C 48.2492 2.20161 -0.592724 0
M  V30 533 C 49.2332 1.56772 0.362133 0
M  V30 534 O 50.4252 1.76062 0.182009 0
M  V30 535 C 47.5542 3.43266 0.0481024 0
M  V30 536 C 46.6402 4.13786 -0.9296 0
M  V30 537 N 47.0312 4.60388 -2.09467 0
M  V30 538 C 45.3292 4.39572 -0.754499 0
M  V30 539 C 46.0302 5.14619 -2.71187 0
M  V30 540 N 45.0062 5.05826 -1.991 0
M  V30 541 H 48.8082 2.53877 -1.48066 0
M  V30 542 H 46.3222 1.34946 -0.903514 0
M  V30 543 H 48.3192 4.15136 0.383058 0
M  V30 544 H 46.9792 3.11048 0.931636 0
M  V30 545 H 47.9902 4.54999 -2.47379 0
M  V30 546 H 44.6672 4.17425 0.0793713 0
M  V30 547 H 46.0572 5.60917 -3.69895 0
M  V30 548 N 48.7773 0.814389 1.34928 0
M  V30 549 C 50.0233 0.399013 1.98836 0
M  V30 550 C 50.3563 -1.03314 1.64438 0
M  V30 551 O 49.6313 -1.71811 0.911659 0
M  V30 552 C 49.9143 0.591629 3.55207 0
M  V30 553 C 49.7673 2.06928 3.99376 0
M  V30 554 C 51.0863 0.022199 4.40094 0
M  V30 555 H 48.2053 0.146451 0.722303 0
M  V30 556 H 50.8473 1.02537 1.59957 0
M  V30 557 H 48.9973 0.0584441 3.88456 0
M  V30 558 H 50.6693 2.66544 3.76499 0
M  V30 559 H 48.9123 2.56287 3.49999 0
M  V30 560 H 49.5833 2.1549 5.08201 0
M  V30 561 H 52.0593 0.477643 4.13349 0
M  V30 562 H 50.9353 0.186832 5.48582 0
M  V30 563 H 51.1963 -1.07215 4.28902 0
M  V30 564 N 50.2554 -1.46986 0.568584 0
M  V30 565 C 51.5324 -1.95592 -0.0174074 0
M  V30 566 C 51.9124 -1.51124 -1.47393 0
M  V30 567 O 51.2604 -0.755329 -2.15655 0
M  V30 568 C 51.4704 -3.48719 0.139913 0
M  V30 569 C 52.8184 -4.246 0.000426376 0
M  V30 570 O 53.8424 -3.56135 0.0680316 0
M  V30 571 O 52.7014 -5.46302 -0.146988 0
M  V30 572 H 49.7954 -0.82498 -0.0577599 0
M  V30 573 H 52.3414 -1.57335 0.635909 0
M  V30 574 H 51.1134 -3.73927 1.15301 0
M  V30 575 H 50.7364 -3.93771 -0.550491 0
M  V30 576 N 51.7335 -0.305618 -1.54608 0
M  V30 577 C 52.9615 0.304775 -2.04643 0
M  V30 578 C 53.3765 1.47167 -1.18268 0
M  V30 579 O 52.7335 1.81296 -0.209328 0
M  V30 580 C 52.7845 0.756564 -3.53495 0
M  V30 581 O 52.5055 -0.36389 -4.36586 0
M  V30 582 C 54.0065 1.43163 -4.19546 0
M  V30 583 H 51.2265 0.0655481 -0.667791 0
M  V30 584 H 53.7705 -0.446592 -1.99564 0
M  V30 585 H 51.9255 1.45794 -3.58919 0
M  V30 586 H 52.3395 -0.0113121 -5.24499 0
M  V30 587 H 53.8135 1.69886 -5.25207 0
M  V30 588 H 54.2905 2.37318 -3.69563 0
M  V30 589 H 54.8965 0.773307 -4.18211 0
M  V30 590 N 53.2116 1.57565 -0.0334293 0
M  V30 591 C 54.6226 1.79746 0.504798 0
M  V30 592 C 54.9736 0.944091 1.71992 0
M  V30 593 O 54.0986 0.155694 2.15839 0
M  V30 594 C 54.6936 3.25997 0.922567 0
M  V30 595 C 53.2526 3.49159 1.40588 0
M  V30 596 C 52.3996 2.74785 0.372633 0
M  V30 597 H 55.3506 1.56565 -0.259436 0
M  V30 598 H 55.3716 3.35945 1.78666 0
M  V30 599 H 54.8836 3.88081 0.0379825 0
M  V30 600 H 52.9846 2.92332 2.31025 0
M  V30 601 H 53.0976 4.57873 1.41028 0
M  V30 602 H 51.4616 2.40391 0.841672 0
M  V30 603 H 52.2446 3.39587 -0.503559 0
M  V30 604 N 54.6897 -0.239769 1.55765 0
M  V30 605 C 55.9367 -0.966801 1.7793 0
M  V30 606 C 56.2647 -1.85046 0.599015 0
M  V30 607 O 55.5197 -1.91197 -0.417395 0
M  V30 608 C 55.8187 -1.852 3.05672 0
M  V30 609 C 55.4847 -1.1231 4.36689 0
M  V30 610 C 54.1467 -0.921689 4.72291 0
M  V30 611 C 56.4987 -0.607019 5.17653 0
M  V30 612 C 53.8267 -0.191996 5.86386 0
M  V30 613 C 56.1787 0.109241 6.32506 0
M  V30 614 C 54.8427 0.322073 6.66723 0
M  V30 615 H 54.1127 -0.353778 0.651093 0
M  V30 616 H 56.7597 -0.23634 1.90036 0
M  V30 617 H 55.0647 -2.64975 2.8861 0
M  V30 618 H 56.7617 -2.41635 3.20021 0
M  V30 619 H 53.3517 -1.29004 4.08725 0
M  V30 620 H 57.5357 -0.750153 4.90598 0
M  V30 621 H 52.7917 -0.0166949 6.11398 0
M  V30 622 H 56.9657 0.516737 6.9448 0
M  V30 623 H 54.5927 0.88944 7.54979 0
M  V30 624 N 56.1678 -1.49265 -0.50573 0
M  V30 625 C 57.4138 -1.58748 -1.26202 0
M  V30 626 C 57.7468 -0.271227 -1.92297 0
M  V30 627 O 57.0218 0.724831 -1.80489 0
M  V30 628 C 57.3048 -2.74332 -2.33268 0
M  V30 629 C 57.1578 -4.15737 -1.71705 0
M  V30 630 C 58.4768 -2.85576 -3.34865 0
M  V30 631 H 55.5958 -0.577826 -0.457478 0
M  V30 632 H 58.2378 -1.81532 -0.560897 0
M  V30 633 H 56.3878 -2.55036 -2.93068 0
M  V30 634 H 58.0598 -4.46537 -1.15769 0
M  V30 635 H 56.3028 -4.21605 -1.02135 0
M  V30 636 H 56.9738 -4.92477 -2.49341 0
M  V30 637 H 59.4498 -3.03127 -2.8505 0
M  V30 638 H 58.3258 -3.68135 -4.07146 0
M  V30 639 H 58.5868 -1.94732 -3.96903 0
M  V30 640 N 57.6459 0.756429 -1.3826 0
M  V30 641 C 58.5759 1.88374 -1.37976 0
M  V30 642 C 59.5569 1.68311 -0.246082 0
M  V30 643 O 60.7419 1.88944 -0.44874 0
M  V30 644 C 57.8719 3.25864 -1.20125 0
M  V30 645 C 56.8259 3.60523 -2.30666 0
M  V30 646 C 56.1519 4.9672 -1.97923 0
M  V30 647 C 57.4519 3.65692 -3.72916 0
M  V30 648 H 59.1459 1.88869 -2.32312 0
M  V30 649 H 56.6919 0.907272 -1.11824 0
M  V30 650 H 58.6449 4.0438 -1.18552 0
M  V30 651 H 57.3689 3.25841 -0.222498 0
M  V30 652 H 56.0279 2.84324 -2.3142 0
M  V30 653 H 55.6759 4.93253 -0.985393 0
M  V30 654 H 55.3759 5.20878 -2.71955 0
M  V30 655 H 56.8999 5.77618 -1.97964 0
M  V30 656 H 58.3139 4.34328 -3.74208 0
M  V30 657 H 56.7109 4.01358 -4.4613 0
M  V30 658 H 57.7809 2.65987 -4.05436 0
M  V30 659 N 59.124 1.23083 0.984299 0
M  V30 660 C 60.37 1.06214 1.72761 0
M  V30 661 C 60.703 -0.400584 1.90024 0
M  V30 662 O 59.978 -1.29672 1.44967 0
M  V30 663 C 60.261 1.78375 3.12817 0
M  V30 664 C 60.114 3.32296 3.03149 0
M  V30 665 C 61.433 1.54309 4.12161 0
M  V30 666 H 58.552 0.387251 0.627061 0
M  V30 667 H 61.194 1.51536 1.14616 0
M  V30 668 H 59.344 1.39848 3.62457 0
M  V30 669 H 61.016 3.8032 2.61064 0
M  V30 670 H 59.259 3.6153 2.39747 0
M  V30 671 H 59.93 3.77972 4.02295 0
M  V30 672 H 62.406 1.87791 3.71314 0
M  V30 673 H 61.282 2.07281 5.08258 0
M  V30 674 H 61.543 0.477572 4.39513 0
M  V30 675 N 60.6021 -1.18246 1.0419 0
M  V30 676 C 61.8301 -1.92195 0.766072 0
M  V30 677 C 62.2451 -1.76247 -0.676933 0
M  V30 678 O 61.6021 -1.09293 -1.46155 0
M  V30 679 C 61.6531 -3.43568 1.12442 0
M  V30 680 O 61.3741 -3.59015 2.51078 0
M  V30 681 C 62.8751 -4.34613 0.873275 0
M  V30 682 H 60.0951 -0.610114 0.279288 0
M  V30 683 H 62.6391 -1.50007 1.38989 0
M  V30 684 H 60.7941 -3.8354 0.545542 0
M  V30 685 H 61.2081 -4.5273 2.64831 0
M  V30 686 H 62.6821 -5.39374 1.17385 0
M  V30 687 H 63.1591 -4.38781 -0.191909 0
M  V30 688 H 63.7651 -4.00341 1.43551 0
M  V30 689 N 62.0802 -0.821533 -1.34494 0
M  V30 690 C 63.3102 -0.421272 -2.02259 0
M  V30 691 C 63.7182 0.977047 -1.6202 0
M  V30 692 O 63.0612 1.64348 -0.820703 0
M  V30 693 C 63.1232 -0.44231 -3.56769 0
M  V30 694 C 62.7872 -1.79372 -4.20327 0
M  V30 695 C 63.7842 -2.75435 -4.40944 0
M  V30 696 C 61.4692 -2.08182 -4.57127 0
M  V30 697 C 63.4632 -3.98482 -4.97484 0
M  V30 698 C 61.1502 -3.31489 -5.13379 0
M  V30 699 C 62.1482 -4.26457 -5.33501 0
M  V30 700 O 61.8362 -5.47585 -5.88562 0
M  V30 701 H 61.5682 -0.167473 -0.654927 0
M  V30 702 H 64.1222 -1.11073 -1.72777 0
M  V30 703 H 62.3522 0.303836 -3.85505 0
M  V30 704 H 64.0412 -0.0622925 -4.05852 0
M  V30 705 H 64.8072 -2.54473 -4.12878 0
M  V30 706 H 60.6862 -1.35066 -4.4077 0
M  V30 707 H 64.2302 -4.72618 -5.13106 0
M  V30 708 H 60.1272 -3.52316 -5.40873 0
M  V30 709 H 60.8952 -5.49086 -6.06998 0
M  V30 710 N 63.5583 1.46682 -0.576371 0
M  V30 711 C 64.7863 2.06798 -0.0649635 0
M  V30 712 C 65.2013 1.42612 1.23723 0
M  V30 713 O 64.5583 0.529203 1.74659 0
M  V30 714 C 64.6093 3.6132 0.114202 0
M  V30 715 O 64.3303 4.23104 -1.13644 0
M  V30 716 C 65.8313 4.38349 0.66069 0
M  V30 717 H 63.0513 0.668778 -0.0545616 0
M  V30 718 H 65.5953 1.88404 -0.795237 0
M  V30 719 H 63.7503 3.79162 0.794673 0
M  V30 720 H 64.1643 5.15894 -0.946253 0
M  V30 721 H 65.6383 5.47081 0.73526 0
M  V30 722 H 66.1153 4.05953 1.67627 0
M  V30 723 H 66.7213 4.25297 0.0152951 0
M  V30 724 N 65.0364 0.313813 1.54444 0
M  V30 725 C 66.2644 -0.293918 2.04802 0
M  V30 726 C 66.6794 -1.46537 1.19047 0
M  V30 727 O 66.0364 -1.81182 0.218939 0
M  V30 728 C 66.0874 -0.737806 3.53891 0
M  V30 729 O 65.8084 0.387038 4.36387 0
M  V30 730 C 67.3094 -1.40936 4.203 0
M  V30 731 H 64.5294 -0.0620057 0.668129 0
M  V30 732 H 67.0734 0.457169 1.99324 0
M  V30 733 H 65.2284 -1.43889 3.59687 0
M  V30 734 H 65.6424 0.0391274 5.24485 0
M  V30 735 H 67.1164 -1.67099 5.26101 0
M  V30 736 H 67.5934 -2.35355 3.70816 0
M  V30 737 H 68.1994 -0.751117 4.18615 0
M  V30 738 N 66.5145 -1.57545 0.0417849 0
M  V30 739 C 67.4625 -2.12148 -0.953723 0
M  V30 740 C 68.4565 -1.05104 -1.32852 0
M  V30 741 O 69.6625 -1.23524 -1.30927 0
M  V30 742 H 66.0375 -0.677957 -0.325389 0
M  V30 743 H 68.0085 -2.94707 -0.467991 0
M  V30 744 C 66.7575 -2.6739 -2.22257 0
M  V30 745 H 66.0805 -3.49413 -1.94295 0
M  V30 746 H 67.5205 -3.09227 -2.90094 0
M  V30 747 C 65.9795 -1.60723 -2.96091 0
M  V30 748 O 66.5095 -1.01449 -3.88679 0
M  V30 749 N 64.7155 -1.32466 -2.58652 0
M  V30 750 H 64.2625 -1.80856 -1.83437 0
M  V30 751 H 64.2205 -0.61325 -3.08361 0
M  V30 752 N 67.9926 0.231505 -1.5589 0
M  V30 753 C 69.2396 0.957352 -1.78441 0
M  V30 754 C 69.5676 1.84726 -0.60882 0
M  V30 755 O 68.8226 1.91416 0.40725 0
M  V30 756 C 69.1216 1.83577 -3.0665 0
M  V30 757 C 68.7876 1.09993 -4.37278 0
M  V30 758 C 67.4496 0.896629 -4.72773 0
M  V30 759 C 69.8016 0.579558 -5.17968 0
M  V30 760 C 67.1296 0.160896 -5.86479 0
M  V30 761 C 69.4816 -0.142783 -6.32439 0
M  V30 762 C 68.1456 -0.357427 -6.66542 0
M  V30 763 H 67.4156 0.35032 -0.65296 0
M  V30 764 H 70.0626 0.226259 -1.90159 0
M  V30 765 H 68.3676 2.63441 -2.90011 0
M  V30 766 H 70.0646 2.39934 -3.21298 0
M  V30 767 H 66.6546 1.26835 -4.09403 0
M  V30 768 H 70.8386 0.724125 -4.90989 0
M  V30 769 H 66.0946 -0.0157293 -6.11398 0
M  V30 770 H 70.2686 -0.553559 -6.94196 0
M  V30 771 H 67.8956 -0.929466 -7.54497 0
M  V30 772 N 69.4707 1.49531 0.497807 0
M  V30 773 C 70.7187 1.58865 1.24926 0
M  V30 774 C 71.0397 0.278721 1.92998 0
M  V30 775 O 70.3097 -0.702144 1.82885 0
M  V30 776 H 68.8897 0.585343 0.464094 0
M  V30 777 H 71.5517 1.86174 0.57666 0
M  V30 778 H 70.6477 2.38633 2.01149 0
M  V30 779 N 70.9488 -0.749086 1.3866 0
M  V30 780 C 71.8808 -1.87273 1.32142 0
M  V30 781 C 72.8938 -1.61127 0.232787 0
M  V30 782 O 74.0828 -1.71623 0.49069 0
M  V30 783 C 71.1828 -3.23005 1.02571 0
M  V30 784 C 70.3558 -3.7662 2.22433 0
M  V30 785 C 69.4148 -4.90879 1.89537 0
M  V30 786 O 68.4408 -5.05276 2.62078 0
M  V30 787 N 69.6428 -5.74198 0.853031 0
M  V30 788 H 72.4078 -1.93373 2.28969 0
M  V30 789 H 69.9688 -0.929216 1.32579 0
M  V30 790 H 71.9608 -3.96992 0.786085 0
M  V30 791 H 70.5308 -3.12262 0.145249 0
M  V30 792 H 69.7508 -2.94147 2.62434 0
M  V30 793 H 71.0388 -4.09173 3.02415 0
M  V30 794 H 70.4368 -5.6514 0.25155 0
M  V30 795 H 68.9938 -6.48313 0.67329 0
M  V30 796 N 72.4269 -1.23603 -0.977757 0
M  V30 797 C 73.6729 -1.07129 -1.72195 0
M  V30 798 C 74.0059 0.390501 -1.90233 0
M  V30 799 O 73.2809 1.28902 -1.45653 0
M  V30 800 C 73.5639 -1.80031 -3.11867 0
M  V30 801 C 73.4169 -3.33899 -3.01383 0
M  V30 802 C 74.7359 -1.56492 -4.11337 0
M  V30 803 H 71.8549 -0.390571 -0.624999 0
M  V30 804 H 74.4969 -1.52142 -1.13811 0
M  V30 805 H 72.6469 -1.41768 -3.6171 0
M  V30 806 H 74.3189 -3.81699 -2.59043 0
M  V30 807 H 72.5619 -3.62796 -2.37827 0
M  V30 808 H 73.2329 -3.801 -4.00285 0
M  V30 809 H 75.7089 -1.89757 -3.70313 0
M  V30 810 H 74.5849 -2.09973 -5.07151 0
M  V30 811 H 74.8459 -0.500874 -4.39254 0
M  V30 812 N 73.905 1.17692 -1.04816 0
M  V30 813 C 75.316 1.69501 -0.782698 0
M  V30 814 C 75.667 1.83456 0.695577 0
M  V30 815 O 74.792 1.51942 1.54086 0
M  V30 816 C 75.387 3.07874 -1.41419 0
M  V30 817 C 73.946 3.56864 -1.19686 0
M  V30 818 C 73.093 2.3322 -1.50012 0
M  V30 819 H 76.044 1.02262 -1.2136 0
M  V30 820 H 76.065 3.71528 -0.821428 0
M  V30 821 H 75.577 2.97685 -2.49009 0
M  V30 822 H 73.678 3.72337 -0.140043 0
M  V30 823 H 73.791 4.39851 -1.89916 0
M  V30 824 H 72.155 2.37501 -0.920071 0
M  V30 825 H 72.938 2.25644 -2.58727 0
M  V30 826 N 75.3831 0.828654 1.34056 0
M  V30 827 C 76.3461 0.259927 2.27721 0
M  V30 828 C 77.3461 -0.565478 1.50529 0
M  V30 829 O 78.5361 -0.38075 1.69988 0
M  V30 830 C 75.6681 -0.634944 3.34935 0
M  V30 831 H 76.8611 1.0863 2.79534 0
M  V30 832 H 74.4141 0.600951 1.44285 0
M  V30 833 H 75.1491 -1.48416 2.88346 0
M  V30 834 H 74.9341 -0.0444999 3.92075 0
M  V30 835 H 76.4241 -1.02648 4.04788 0
M  V30 836 N 76.8612 -1.46375 0.584142 0
M  V30 837 C 78.0862 -2.07268 0.0740405 0
M  V30 838 C 78.5112 -1.42979 -1.22223 0
M  V30 839 O 77.8692 -0.514092 -1.73859 0
M  V30 840 C 77.9172 -3.60518 -0.0767769 0
M  V30 841 O 77.0212 -3.96533 -1.13292 0
M  V30 842 H 76.3622 -0.660961 0.0634524 0
M  V30 843 H 78.8922 -1.87991 0.807492 0
M  V30 844 H 78.9022 -4.07021 -0.282489 0
M  V30 845 H 77.5772 -4.06702 0.86986 0
M  V30 846 H 76.1542 -3.61738 -0.905553 0
M  V30 847 N 78.3393 -0.321999 -1.54275 0
M  V30 848 C 79.5673 0.283052 -2.04955 0
M  V30 849 C 79.9823 1.45904 -1.19823 0
M  V30 850 O 79.3393 1.81063 -0.228545 0
M  V30 851 C 79.3903 0.719028 -3.54277 0
M  V30 852 O 79.1113 -0.410175 -4.36176 0
M  V30 853 C 80.6123 1.38705 -4.21041 0
M  V30 854 H 77.8323 0.0584616 -0.668448 0
M  V30 855 H 80.3763 -0.467734 -1.99079 0
M  V30 856 H 78.5313 1.41979 -3.60445 0
M  V30 857 H 78.9453 -0.0669416 -5.24457 0
M  V30 858 H 80.4193 1.64306 -5.2698 0
M  V30 859 H 80.8963 2.33385 -3.72059 0
M  V30 860 H 81.5023 0.728906 -4.19007 0
M  V30 861 N 79.8174 1.5752 -0.0501392 0
M  V30 862 C 80.7494 2.08413 0.95376 0
M  V30 863 C 81.7624 1.01175 1.27544 0
M  V30 864 O 82.9514 1.28744 1.23641 0
M  V30 865 C 80.0514 2.51138 2.27559 0
M  V30 866 C 79.2244 3.817 2.13598 0
M  V30 867 C 78.2834 4.10749 3.28895 0
M  V30 868 O 77.3094 4.80685 3.04845 0
M  V30 869 N 78.5114 3.62579 4.5334 0
M  V30 870 H 81.2764 2.95165 0.519383 0
M  V30 871 H 78.8374 1.61327 0.136127 0
M  V30 872 H 80.8294 2.67648 3.03557 0
M  V30 873 H 79.3994 1.6964 2.62567 0
M  V30 874 H 78.6194 3.74782 1.22197 0
M  V30 875 H 79.9074 4.67201 2.01496 0
M  V30 876 H 79.3054 3.06039 4.75769 0
M  V30 877 H 77.8624 3.84329 5.26436 0
M  V30 878 N 81.2955 -0.223234 1.56011 0
M  V30 879 C 82.5205 -0.968978 1.83373 0
M  V30 880 C 82.9455 -1.77227 0.630254 0
M  V30 881 O 82.3035 -1.76345 -0.420959 0
M  V30 882 C 82.3515 -1.86363 3.08709 0
M  V30 883 O 81.4555 -2.95873 2.87285 0
M  V30 884 H 80.7965 -0.274461 0.604622 0
M  V30 885 H 83.3265 -0.237056 2.03222 0
M  V30 886 H 83.3365 -2.27376 3.38768 0
M  V30 887 H 82.0115 -1.27319 3.95933 0
M  V30 888 H 80.5885 -2.58818 2.68454 0
M  V30 889 N 82.7736 -1.49793 -0.48987 0
M  V30 890 C 84.0206 -1.59841 -1.24327 0
M  V30 891 C 84.3486 -0.290135 -1.92324 0
M  V30 892 O 83.6036 0.722749 -1.81865 0
M  V30 893 C 83.9026 -2.71488 -2.32441 0
M  V30 894 C 83.5686 -4.12614 -1.81826 0
M  V30 895 C 82.2306 -4.51017 -1.67742 0
M  V30 896 C 84.5826 -5.00892 -1.4407 0
M  V30 897 C 81.9106 -5.75459 -1.14297 0
M  V30 898 C 84.2626 -6.25863 -0.920742 0
M  V30 899 C 82.9266 -6.63086 -0.766383 0
M  V30 900 H 82.1966 -0.584899 -0.454944 0
M  V30 901 H 84.8436 -1.83663 -0.542215 0
M  V30 902 H 83.1486 -2.4168 -3.0838 0
M  V30 903 H 84.8456 -2.76469 -2.90458 0
M  V30 904 H 81.4356 -3.82307 -1.93751 0
M  V30 905 H 85.6196 -4.7187 -1.53794 0
M  V30 906 H 80.8756 -6.02989 -1.01068 0
M  V30 907 H 85.0496 -6.9364 -0.619448 0
M  V30 908 H 82.6766 -7.59393 -0.350083 0
M  V30 909 N 84.2517 0.741722 -1.39055 0
M  V30 910 C 85.1817 1.869 -1.39966 0
M  V30 911 C 86.1627 1.6804 -0.26392 0
M  V30 912 O 87.3477 1.88458 -0.468755 0
M  V30 913 C 84.4777 3.24572 -1.23574 0
M  V30 914 C 83.4317 3.58056 -2.34477 0
M  V30 915 C 82.7577 4.94593 -2.0318 0
M  V30 916 C 84.0577 3.61716 -3.76774 0
M  V30 917 H 85.7517 1.86395 -2.34302 0
M  V30 918 H 83.2977 0.895361 -1.1278 0
M  V30 919 H 85.2507 4.031 -1.22834 0
M  V30 920 H 83.9747 3.25587 -0.257045 0
M  V30 921 H 82.6337 2.81854 -2.34423 0
M  V30 922 H 82.2817 4.92181 -1.03765 0
M  V30 923 H 81.9817 5.17964 -2.77465 0
M  V30 924 H 83.5057 5.75486 -2.04079 0
M  V30 925 H 84.9197 4.30335 -3.78794 0
M  V30 926 H 83.3167 3.96603 -4.50362 0
M  V30 927 H 84.3867 2.61672 -4.08235 0
M  V30 928 N 85.7298 1.2412 0.971189 0
M  V30 929 C 86.6398 1.04747 2.09917 0
M  V30 930 C 87.6558 -0.0107162 1.73997 0
M  V30 931 O 88.8318 0.186714 2.00533 0
M  V30 932 C 85.8968 0.650828 3.40537 0
M  V30 933 C 84.9578 1.7851 3.90426 0
M  V30 934 C 84.1908 1.40729 5.14812 0
M  V30 935 O 84.4138 0.29557 5.69634 0
M  V30 936 O 83.3478 2.23168 5.58999 0
M  V30 937 H 87.1738 1.99304 2.29154 0
M  V30 938 H 84.7588 1.02908 1.08307 0
M  V30 939 H 86.6408 0.440992 4.19086 0
M  V30 940 H 85.3158 -0.265649 3.22608 0
M  V30 941 H 84.2228 2.04966 3.12953 0
M  V30 942 H 85.5558 2.68023 4.12825 0
M  V30 943 N 87.2079 -1.17134 1.05439 0
M  V30 944 C 88.1549 -2.21235 0.657539 0
M  V30 945 C 89.1249 -1.62551 -0.341543 0
M  V30 946 O 90.3099 -1.89379 -0.232393 0
M  V30 947 C 87.4499 -3.45076 0.0410575 0
M  V30 948 C 86.5629 -4.18042 1.08927 0
M  V30 949 C 85.6979 -5.29376 0.439848 0
M  V30 950 C 84.7369 -5.94132 1.4722 0
M  V30 951 N 83.8739 -6.96975 0.846756 0
M  V30 952 H 88.7139 -2.54534 1.54972 0
M  V30 953 H 86.2509 -1.25028 0.775006 0
M  V30 954 H 88.2089 -4.15862 -0.33383 0
M  V30 955 H 86.8389 -3.12353 -0.814568 0
M  V30 956 H 85.8909 -3.45945 1.58196 0
M  V30 957 H 87.2029 -4.62306 1.87282 0
M  V30 958 H 86.3569 -6.06699 0.0115125 0
M  V30 959 H 85.0959 -4.86251 -0.375656 0
M  V30 960 H 84.1009 -5.15538 1.91052 0
M  V30 961 H 85.3259 -6.39337 2.28965 0
M  V30 962 H 83.2719 -6.5598 0.0518075 0
M  V30 963 H 83.1889 -7.39565 1.5678 0
M  V30 964 H 84.4569 -7.78239 0.443277 0
M  V30 965 N 88.686 -0.835752 -1.33615 0
M  V30 966 C 89.916 -0.442701 -2.01801 0
M  V30 967 C 90.324 0.959807 -1.63047 0
M  V30 968 O 89.667 1.63468 -0.838088 0
M  V30 969 C 89.729 -0.480125 -3.56279 0
M  V30 970 C 89.393 -1.8382 -4.18401 0
M  V30 971 C 90.39 -2.80097 -4.37998 0
M  V30 972 C 88.075 -2.13019 -4.54894 0
M  V30 973 C 90.069 -4.03736 -4.9323 0
M  V30 974 C 87.756 -3.36916 -5.09834 0
M  V30 975 C 88.754 -4.32091 -5.28948 0
M  V30 976 O 88.442 -5.53797 -5.82721 0
M  V30 977 H 88.174 -0.17441 -0.653114 0
M  V30 978 H 90.728 -1.129 -1.71589 0
M  V30 979 H 88.958 0.262931 -3.85805 0
M  V30 980 H 90.647 -0.105335 -4.05763 0
M  V30 981 H 91.413 -2.58838 -4.10156 0
M  V30 982 H 87.292 -1.39733 -4.39313 0
M  V30 983 H 90.836 -4.78034 -5.08064 0
M  V30 984 H 86.733 -3.58033 -5.37106 0
M  V30 985 H 87.501 -5.55494 -6.0114 0
M  V30 986 N 90.1641 1.46063 -0.591896 0
M  V30 987 C 91.1271 2.28854 0.125973 0
M  V30 988 C 92.1271 1.38903 0.810107 0
M  V30 989 O 93.3171 1.61186 0.66066 0
M  V30 990 C 90.4491 3.19526 1.1881 0
M  V30 991 H 91.6421 2.93802 -0.601717 0
M  V30 992 H 89.1951 1.52325 -0.350254 0
M  V30 993 H 89.9301 2.59345 1.94707 0
M  V30 994 H 89.7151 3.85766 0.701936 0
M  V30 995 H 91.2051 3.81817 1.69132 0
M  V30 996 N 91.6422 0.330177 1.54103 0
M  V30 997 C 92.5922 -0.548456 2.21305 0
M  V30 998 C 93.5762 -1.07651 1.19583 0
M  V30 999 O 94.7682 -1.01243 1.45186 0
M  V30 1000 C 91.8972 -1.70559 2.97934 0
M  V30 1001 C 90.9832 -1.19212 4.07 0
M  V30 1002 N 91.3742 -0.398831 5.04225 0
M  V30 1003 C 89.6722 -1.47024 4.2107 0
M  V30 1004 C 90.3732 -0.121761 5.81573 0
M  V30 1005 N 89.3492 -0.709722 5.38947 0
M  V30 1006 H 93.1512 0.0648483 2.93828 0
M  V30 1007 H 90.6652 0.136363 1.61826 0
M  V30 1008 H 92.6622 -2.34688 3.44568 0
M  V30 1009 H 91.3222 -2.32231 2.26934 0
M  V30 1010 H 92.3332 -0.0410869 5.17884 0
M  V30 1011 H 89.0102 -2.09232 3.61287 0
M  V30 1012 H 90.4002 0.517298 6.69906 0
M  V30 1013 N 93.1203 -1.57491 0.0584922 0
M  V30 1014 C 94.0503 -2.14988 -0.911178 0
M  V30 1015 C 95.0313 -1.07343 -1.31952 0
M  V30 1016 O 96.2163 -1.35318 -1.39294 0
M  V30 1017 C 93.3463 -2.70078 -2.18347 0
M  V30 1018 C 92.3003 -3.82771 -1.91495 0
M  V30 1019 C 91.6263 -4.24408 -3.25241 0
M  V30 1020 C 92.9263 -5.07592 -1.23075 0
M  V30 1021 H 94.6203 -2.96263 -0.432246 0
M  V30 1022 H 92.1663 -1.42512 -0.206469 0
M  V30 1023 H 94.1193 -3.08943 -2.86587 0
M  V30 1024 H 92.8433 -1.86005 -2.68458 0
M  V30 1025 H 91.5023 -3.44389 -1.25664 0
M  V30 1026 H 91.1503 -3.37275 -3.73168 0
M  V30 1027 H 90.8503 -5.00366 -3.08071 0
M  V30 1028 H 92.3743 -4.65879 -3.94701 0
M  V30 1029 H 93.7883 -5.43857 -1.81362 0
M  V30 1030 H 92.1853 -5.88741 -1.16207 0
M  V30 1031 H 93.2553 -4.84454 -0.207847 0
M  V30 1032 N 94.5984 0.214957 -1.56127 0
M  V30 1033 C 95.5284 1.2695 -1.95974 0
M  V30 1034 C 96.5094 1.48539 -0.828868 0
M  V30 1035 O 97.6944 1.60611 -1.09168 0
M  V30 1036 C 94.8244 2.61794 -2.28214 0
M  V30 1037 C 93.7784 2.54851 -3.43853 0
M  V30 1038 C 93.1044 3.93785 -3.61715 0
M  V30 1039 C 94.4044 2.09065 -4.78632 0
M  V30 1040 H 96.0984 0.93846 -2.84312 0
M  V30 1041 H 93.6444 0.449996 -1.36788 0
M  V30 1042 H 95.5974 3.35731 -2.54682 0
M  V30 1043 H 94.3214 2.96599 -1.36736 0
M  V30 1044 H 92.9804 1.8337 -3.17444 0
M  V30 1045 H 92.6284 4.25908 -2.67602 0
M  V30 1046 H 92.3284 3.90019 -4.39498 0
M  V30 1047 H 93.8524 4.69374 -3.90539 0
M  V30 1048 H 95.2664 2.7275 -5.04262 0
M  V30 1049 H 93.6634 2.16346 -5.59745 0
M  V30 1050 H 94.7334 1.04315 -4.73547 0
M  V30 1051 N 96.0765 1.50051 0.48192 0
M  V30 1052 C 97.0065 1.71046 1.58951 0
M  V30 1053 C 97.9875 0.559288 1.60642 0
M  V30 1054 O 99.1725 0.797243 1.77081 0
M  V30 1055 C 96.3025 1.79462 2.97339 0
M  V30 1056 C 95.2565 2.94558 3.10515 0
M  V30 1057 C 94.5825 2.88105 4.50444 0
M  V30 1058 C 95.8825 4.35227 2.88747 0
M  V30 1059 H 97.5765 2.6378 1.41635 0
M  V30 1060 H 95.1225 1.26936 0.679942 0
M  V30 1061 H 97.0755 1.92734 3.74742 0
M  V30 1062 H 95.7995 0.833412 3.15788 0
M  V30 1063 H 94.4585 2.80918 2.35543 0
M  V30 1064 H 94.1065 1.89853 4.65795 0
M  V30 1065 H 93.8065 3.65366 4.60197 0
M  V30 1066 H 95.3305 3.03412 5.29881 0
M  V30 1067 H 96.7445 4.49449 3.55905 0
M  V30 1068 H 95.1415 5.13856 3.09955 0
M  V30 1069 H 96.2115 4.48347 1.84696 0
M  V30 1070 N 97.5546 -0.734337 1.39446 0
M  V30 1071 C 98.8026 -1.49096 1.36436 0
M  V30 1072 C 99.1236 -1.94961 -0.0388255 0
M  V30 1073 O 98.3936 -1.69033 -0.990191 0
M  V30 1074 H 96.9736 -0.5531 0.502085 0
M  V30 1075 H 99.6356 -0.871725 1.74319 0
M  V30 1076 H 98.7316 -2.37276 2.02747 0
M  V30 1077 N 99.0327 -1.24633 -0.964593 0
M  V30 1078 C 100.279 -1.08949 -1.71049 0
M  V30 1079 C 100.612 0.370302 -1.90637 0
M  V30 1080 O 99.8867 1.27349 -1.47011 0
M  V30 1081 C 100.17 -1.83329 -3.0994 0
M  V30 1082 C 100.023 -3.37077 -2.97824 0
M  V30 1083 C 101.342 -1.60846 -4.09654 0
M  V30 1084 H 98.4607 -0.397178 -0.620821 0
M  V30 1085 H 101.103 -1.5334 -1.12191 0
M  V30 1086 H 99.2527 -1.45597 -3.60186 0
M  V30 1087 H 100.925 -3.84425 -2.5498 0
M  V30 1088 H 99.1677 -3.65298 -2.33965 0
M  V30 1089 H 99.8387 -3.84324 -3.96231 0
M  V30 1090 H 102.315 -1.93674 -3.68279 0
M  V30 1091 H 101.191 -2.1534 -5.04896 0
M  V30 1092 H 101.452 -0.547434 -4.38698 0
M  V30 1093 N 100.511 1.16574 -1.06058 0
M  V30 1094 C 101.474 2.19085 -0.673392 0
M  V30 1095 C 102.474 1.5835 0.279648 0
M  V30 1096 O 103.664 1.74088 0.0623488 0
M  V30 1097 C 100.796 3.40899 0.00954234 0
M  V30 1098 H 101.989 2.54853 -1.58081 0
M  V30 1099 H 99.5418 1.30808 -0.855516 0
M  V30 1100 H 100.277 3.10684 0.929826 0
M  V30 1101 H 100.062 3.86233 -0.67573 0
M  V30 1102 H 101.552 4.1675 0.266245 0
M  V30 1103 N 101.989 0.842826 1.3317 0
M  V30 1104 C 102.952 0.284065 2.27433 0
M  V30 1105 C 103.952 -0.54948 1.5112 0
M  V30 1106 O 105.142 -0.362699 1.70382 0
M  V30 1107 C 102.274 -0.599384 3.35589 0
M  V30 1108 H 103.467 1.11589 2.78366 0
M  V30 1109 H 101.02 0.616221 1.4364 0
M  V30 1110 H 101.755 -1.45349 2.89904 0
M  V30 1111 H 101.54 -0.00291266 3.921 0
M  V30 1112 H 103.03 -0.983488 4.05854 0
M  V30 1113 N 103.467 -1.45747 0.599634 0
M  V30 1114 C 104.692 -2.07178 0.0960198 0
M  V30 1115 C 105.117 -1.44268 -1.207 0
M  V30 1116 O 104.475 -0.532503 -1.73303 0
M  V30 1117 C 104.523 -3.60579 -0.0385348 0
M  V30 1118 O 103.627 -3.97713 -1.0908 0
M  V30 1119 H 102.968 -0.660251 0.0704593 0
M  V30 1120 H 105.498 -1.87124 0.827385 0
M  V30 1121 H 105.508 -4.07298 -0.239304 0
M  V30 1122 H 104.183 -4.05756 0.912947 0
M  V30 1123 H 102.76 -3.62678 -0.867135 0
M  V30 1124 N 104.945 -0.338344 -1.53925 0
M  V30 1125 C 106.193 0.259245 -2.0043 0
M  V30 1126 C 106.514 1.51484 -1.22791 0
M  V30 1127 O 105.784 1.93037 -0.33368 0
M  V30 1128 H 104.364 0.0987845 -0.740439 0
M  V30 1129 H 107.026 -0.458302 -1.89435 0
M  V30 1130 H 106.122 0.505334 -3.07982 0
M  V30 1131 N 106.423 1.57458 -0.0668435 0
M  V30 1132 C 107.371 2.13639 0.919851 0
M  V30 1133 C 108.365 1.07204 1.31163 0
M  V30 1134 O 109.571 1.25591 1.28945 0
M  V30 1135 H 105.946 0.683048 0.314562 0
M  V30 1136 H 107.917 2.95415 0.421047 0
M  V30 1137 C 106.666 2.70892 2.17975 0
M  V30 1138 H 105.989 3.5246 1.88711 0
M  V30 1139 H 107.429 3.13803 2.85138 0
M  V30 1140 C 105.888 1.65414 2.93496 0
M  V30 1141 O 106.418 1.07619 3.87015 0
M  V30 1142 N 104.624 1.36564 2.56512 0
M  V30 1143 H 104.171 1.83751 1.80536 0
M  V30 1144 H 104.129 0.66223 3.07347 0
M  V30 1145 N 107.901 -0.206675 1.56239 0
M  V30 1146 C 108.848 -1.25617 1.93621 0
M  V30 1147 C 109.818 -1.45824 0.795274 0
M  V30 1148 O 111.003 -1.59148 1.05245 0
M  V30 1149 C 108.143 -2.59839 2.27107 0
M  V30 1150 C 107.256 -2.47308 3.54207 0
M  V30 1151 C 106.391 -3.74155 3.7707 0
M  V30 1152 C 105.43 -3.56407 4.97635 0
M  V30 1153 N 104.567 -4.75238 5.1681 0
M  V30 1154 H 109.407 -0.930383 2.83104 0
M  V30 1155 H 106.944 -0.448065 1.4011 0
M  V30 1156 H 108.902 -3.38021 2.44535 0
M  V30 1157 H 107.532 -2.90485 1.40778 0
M  V30 1158 H 106.584 -1.60483 3.4489 0
M  V30 1159 H 107.896 -2.30122 4.42544 0
M  V30 1160 H 107.05 -4.60778 3.94675 0
M  V30 1161 H 105.789 -3.94282 2.87042 0
M  V30 1162 H 104.794 -2.68168 4.79964 0
M  V30 1163 H 106.019 -3.37736 5.89161 0
M  V30 1164 H 103.965 -4.95651 4.29728 0
M  V30 1165 H 103.882 -4.60835 5.99306 0
M  V30 1166 H 105.15 -5.63246 5.38864 0
M  V30 1167 N 109.379 -1.50304 -0.473955 0
M  V30 1168 C 110.625 -1.61389 -1.22806 0
M  V30 1169 C 110.958 -0.311955 -1.91678 0
M  V30 1170 O 110.233 0.686384 -1.81986 0
M  V30 1171 C 110.516 -2.79219 -2.27396 0
M  V30 1172 C 110.369 -4.19286 -1.62848 0
M  V30 1173 C 111.688 -2.92614 -3.28732 0
M  V30 1174 H 108.807 -0.587399 -0.445119 0
M  V30 1175 H 111.449 -1.82681 -0.522265 0
M  V30 1176 H 109.599 -2.61195 -2.87592 0
M  V30 1177 H 111.271 -4.48892 -1.06271 0
M  V30 1178 H 109.514 -4.23677 -0.931693 0
M  V30 1179 H 110.185 -4.97655 -2.38838 0
M  V30 1180 H 112.661 -3.09105 -2.78556 0
M  V30 1181 H 111.537 -3.76688 -3.99246 0
M  V30 1182 H 111.798 -2.03107 -3.92683 0
M  V30 1183 N 110.857 0.726932 -1.39834 0
M  V30 1184 C 112.103 1.48771 -1.38704 0
M  V30 1185 C 112.458 1.92394 0.0146387 0
M  V30 1186 O 111.751 1.64474 0.982797 0
M  V30 1187 C 111.945 2.73495 -2.30077 0
M  V30 1188 C 111.774 2.42068 -3.78989 0
M  V30 1189 C 110.544 2.33966 -4.4787 0
M  V30 1190 C 112.742 2.0708 -4.70768 0
M  V30 1191 N 110.724 1.95095 -5.82075 0
M  V30 1192 C 112.095 1.78719 -5.93683 0
M  V30 1193 C 114.15 1.93618 -4.58712 0
M  V30 1194 C 112.853 1.3825 -7.05889 0
M  V30 1195 C 114.879 1.54553 -5.70848 0
M  V30 1196 C 114.241 1.27082 -6.92842 0
M  V30 1197 H 110.34 0.542919 -0.562817 0
M  V30 1198 H 112.924 0.84408 -1.75452 0
M  V30 1199 H 111.095 3.35625 -1.95474 0
M  V30 1200 H 112.827 3.39755 -2.19883 0
M  V30 1201 H 109.582 2.51331 -4.0141 0
M  V30 1202 H 110.006 1.7823 -6.53118 0
M  V30 1203 H 114.648 2.13522 -3.64922 0
M  V30 1204 H 112.366 1.17088 -7.99572 0
M  V30 1205 H 115.952 1.44731 -5.6351 0
M  V30 1206 H 114.832 0.973069 -7.78139 0
M  V30 1207 N 112.336 1.25143 0.95797 0
M  V30 1208 C 113.584 1.09476 1.69881 0
M  V30 1209 C 113.905 -0.365502 1.91544 0
M  V30 1210 O 113.175 -1.25985 1.50015 0
M  V30 1211 H 111.755 0.402128 0.629525 0
M  V30 1212 H 114.417 1.57214 1.15194 0
M  V30 1213 H 113.513 1.60046 2.6794 0
M  V30 1214 N 113.814 -1.1601 1.06675 0
M  V30 1215 C 115.091 -1.82679 0.699114 0
M  V30 1216 C 115.471 -1.94559 -0.819137 0
M  V30 1217 O 114.819 -1.49169 -1.73092 0
M  V30 1218 C 115.029 -3.19445 1.40555 0
M  V30 1219 C 116.377 -3.95171 1.55323 0
M  V30 1220 O 117.401 -3.28976 1.36577 0
M  V30 1221 O 116.26 -5.13833 1.86112 0
M  V30 1222 H 113.354 -0.788954 0.247951 0
M  V30 1223 H 115.9 -1.23179 1.16726 0
M  V30 1224 H 114.672 -3.05856 2.44065 0
M  V30 1225 H 114.295 -3.86625 0.927733 0
M  V30 1226 N 115.292 -0.849877 -1.32721 0
M  V30 1227 C 116.24 -0.279745 -2.30912 0
M  V30 1228 C 117.234 0.594278 -1.58634 0
M  V30 1229 O 118.44 0.482613 -1.73409 0
M  V30 1230 H 114.815 -0.0717521 -0.748569 0
M  V30 1231 H 116.786 -1.12222 -2.76494 0
M  V30 1232 C 115.535 0.521108 -3.43773 0
M  V30 1233 H 114.858 -0.142141 -3.99547 0
M  V30 1234 H 116.298 0.885693 -4.14646 0
M  V30 1235 C 114.757 1.70442 -2.90605 0
M  V30 1236 O 115.287 2.8034 -2.87702 0
M  V30 1237 N 113.493 1.52991 -2.47067 0
M  V30 1238 H 113.04 0.635914 -2.49628 0
M  V30 1239 H 112.998 2.32311 -2.11847 0
M  V30 1240 N 116.77 1.45427 -0.607355 0
M  V30 1241 C 118.017 2.02241 -0.102455 0
M  V30 1242 C 118.345 1.4758 1.26691 0
M  V30 1243 O 117.6 0.640468 1.84923 0
M  V30 1244 C 117.899 3.57398 -0.0129263 0
M  V30 1245 C 117.565 4.3121 -1.31792 0
M  V30 1246 C 116.227 4.51092 -1.67539 0
M  V30 1247 C 118.579 4.73401 -2.18039 0
M  V30 1248 C 115.907 5.10422 -2.89285 0
M  V30 1249 C 118.259 5.34078 -3.39034 0
M  V30 1250 C 116.923 5.52184 -3.75033 0
M  V30 1251 H 116.193 0.740051 -0.037491 0
M  V30 1252 H 118.84 1.74494 -0.788926 0
M  V30 1253 H 117.145 3.84421 0.756806 0
M  V30 1254 H 118.842 3.99061 0.393881 0
M  V30 1255 H 115.432 4.16047 -1.02968 0
M  V30 1256 H 119.616 4.57774 -1.91721 0
M  V30 1257 H 114.872 5.22629 -3.17283 0
M  V30 1258 H 119.046 5.65724 -4.06115 0
M  V30 1259 H 116.673 5.97925 -4.69457 0
M  V30 1260 N 118.248 0.346503 1.53744 0
M  V30 1261 C 119.211 -0.496439 2.23759 0
M  V30 1262 C 120.211 -1.0252 1.2388 0
M  V30 1263 O 121.401 -0.913974 1.48297 0
M  V30 1264 C 118.533 -1.69187 2.95954 0
M  V30 1265 H 119.726 0.115952 2.99676 0
M  V30 1266 H 117.279 0.0978939 1.55993 0
M  V30 1267 H 118.014 -2.34288 2.24231 0
M  V30 1268 H 117.799 -1.31989 3.69217 0
M  V30 1269 H 119.289 -2.28969 3.49232 0
M  V30 1270 N 119.726 -1.57421 0.075193 0
M  V30 1271 C 120.673 -2.12915 -0.890843 0
M  V30 1272 C 121.643 -1.04252 -1.29309 0
M  V30 1273 O 122.828 -1.31933 -1.37834 0
M  V30 1274 C 119.968 -2.69795 -2.15186 0
M  V30 1275 C 119.081 -3.92624 -1.80194 0
M  V30 1276 C 118.216 -4.37736 -3.00933 0
M  V30 1277 C 117.255 -5.53205 -2.61974 0
M  V30 1278 N 116.392 -5.9326 -3.75483 0
M  V30 1279 H 121.232 -2.95156 -0.410735 0
M  V30 1280 H 118.769 -1.45854 -0.191086 0
M  V30 1281 H 120.727 -3.00883 -2.89008 0
M  V30 1282 H 119.357 -1.90313 -2.60731 0
M  V30 1283 H 118.409 -3.67977 -0.964218 0
M  V30 1284 H 119.721 -4.76482 -1.47534 0
M  V30 1285 H 118.875 -4.70503 -3.8303 0
M  V30 1286 H 117.614 -3.52739 -3.36789 0
M  V30 1287 H 116.619 -5.20086 -1.783 0
M  V30 1288 H 117.844 -6.39936 -2.27284 0
M  V30 1289 H 115.79 -5.11212 -4.11094 0
M  V30 1290 H 115.707 -6.71865 -3.46602 0
M  V30 1291 H 116.975 -6.30651 -4.58148 0
M  V30 1292 N 121.204 0.198386 -1.56346 0
M  V30 1293 C 122.429 0.939682 -1.84891 0
M  V30 1294 C 122.854 1.76202 -0.658369 0
M  V30 1295 O 122.212 1.76993 0.392851 0
M  V30 1296 C 122.26 1.81428 -3.11635 0
M  V30 1297 O 121.364 2.91265 -2.91956 0
M  V30 1298 H 120.705 0.264807 -0.608912 0
M  V30 1299 H 123.235 0.204695 -2.03573 0
M  V30 1300 H 123.245 2.21958 -3.42343 0
M  V30 1301 H 121.92 1.21004 -3.97908 0
M  V30 1302 H 120.497 2.54514 -2.72538 0
M  V30 1303 N 122.682 1.50554 0.465978 0
M  V30 1304 C 123.645 1.69233 1.54574 0
M  V30 1305 C 124.645 0.562901 1.50626 0
M  V30 1306 O 125.835 0.830016 1.53155 0
M  V30 1307 C 122.967 1.7223 2.94193 0
M  V30 1308 H 124.16 2.65571 1.39327 0
M  V30 1309 H 121.713 1.40111 0.692711 0
M  V30 1310 H 122.448 0.77603 3.14878 0
M  V30 1311 H 122.233 2.54285 2.98466 0
M  V30 1312 H 123.723 1.88618 3.72576 0
M  V30 1313 N 124.16 -0.719506 1.40217 0
M  V30 1314 C 125.437 -1.47221 1.28784 0
M  V30 1315 C 125.817 -2.10883 -0.0956067 0
M  V30 1316 O 125.165 -1.99833 -1.10811 0
M  V30 1317 C 125.375 -2.5111 2.42373 0
M  V30 1318 C 126.723 -3.17053 2.82423 0
M  V30 1319 O 127.747 -2.61429 2.41937 0
M  V30 1320 O 126.606 -4.17742 3.52355 0
M  V30 1321 H 123.7 -0.654491 0.50554 0
M  V30 1322 H 126.246 -0.752014 1.52128 0
M  V30 1323 H 125.018 -2.02556 3.34793 0
M  V30 1324 H 124.641 -3.3067 2.20778 0
M  V30 1325 N 125.638 -1.25649 -0.95132 0
M  V30 1326 C 126.866 -1.13343 -1.73092 0
M  V30 1327 C 127.281 0.312434 -1.86197 0
M  V30 1328 O 126.638 1.21465 -1.36207 0
M  V30 1329 C 126.689 -1.78602 -3.14299 0
M  V30 1330 O 126.41 -3.17537 -3.01831 0
M  V30 1331 C 127.911 -1.72119 -4.08522 0
M  V30 1332 H 125.131 -0.395181 -0.542285 0
M  V30 1333 H 127.675 -1.66076 -1.19328 0
M  V30 1334 H 125.83 -1.29832 -3.64996 0
M  V30 1335 H 126.244 -3.49676 -3.90931 0
M  V30 1336 H 127.718 -2.22435 -5.052 0
M  V30 1337 H 128.195 -0.685635 -4.33815 0
M  V30 1338 H 128.801 -2.20393 -3.63741 0
M  V30 1339 N 127.117 1.15442 -1.07289 0
M  V30 1340 C 128.366 1.85557 -0.790669 0
M  V30 1341 C 128.679 1.83186 0.685739 0
M  V30 1342 O 129.885 2.48977 1.0827 0
M  V30 1343 C 128.341 3.33038 -1.36433 0
M  V30 1344 C 127.949 3.43856 -2.8717 0
M  V30 1345 C 129.693 4.0834 -1.1601 0
M  V30 1346 C 127.6 4.85482 -3.3773 0
M  V30 1347 H 126.53 0.695122 -0.292098 0
M  V30 1348 H 129.181 1.30219 -1.29287 0
M  V30 1349 H 127.563 3.88043 -0.789864 0
M  V30 1350 H 128.737 2.98961 -3.50655 0
M  V30 1351 H 127.052 2.81998 -3.06376 0
M  V30 1352 H 129.649 5.12859 -1.51262 0
M  V30 1353 H 129.992 4.16182 -0.0991007 0
M  V30 1354 H 130.525 3.59603 -1.70089 0
M  V30 1355 H 127.264 4.82823 -4.43353 0
M  V30 1356 H 126.784 5.30961 -2.78999 0
M  V30 1357 H 128.463 5.54335 -3.33648 0
M  V30 1358 N 128.595 0.856903 1.32268 0
M  V30 1359 C 129.82 0.474569 2.01897 0
M  V30 1360 C 130.245 -0.921766 1.63967 0
M  V30 1361 O 129.603 -1.60589 0.84148 0
M  V30 1362 C 129.651 0.623799 3.55164 0
M  V30 1363 O 128.755 -0.342459 4.10976 0
M  V30 1364 H 128.096 0.190422 0.63611 0
M  V30 1365 H 130.626 1.15672 1.68764 0
M  V30 1366 H 130.636 0.512169 4.04773 0
M  V30 1367 H 129.311 1.64202 3.82113 0
M  V30 1368 H 127.888 -0.18688 3.72431 0
M  V30 1369 N 130.073 -1.45103 0.615059 0
M  V30 1370 C 131.489 -1.57137 0.279322 0
M  V30 1371 C 131.689 -1.60523 -1.21797 0
M  V30 1372 O 130.745 -1.53956 -2.00134 0
M  V30 1373 C 132.058 -2.85062 0.957083 0
M  V30 1374 C 133.606 -2.98749 0.933706 0
M  V30 1375 C 134.081 -4.29455 1.59162 0
M  V30 1376 N 135.572 -4.36231 1.55746 0
M  V30 1377 C 136.307 -5.36051 2.0356 0
M  V30 1378 N 135.803 -6.42367 2.59494 0
M  V30 1379 N 137.596 -5.27456 1.94284 0
M  V30 1380 H 129.747 -1.41148 1.58717 0
M  V30 1381 H 132.01 -0.675331 0.665306 0
M  V30 1382 H 131.716 -2.88488 2.01166 0
M  V30 1383 H 131.59 -3.7407 0.48494 0
M  V30 1384 H 133.977 -2.94886 -0.112347 0
M  V30 1385 H 134.058 -2.11132 1.44419 0
M  V30 1386 H 133.702 -4.34077 2.63704 0
M  V30 1387 H 133.632 -5.15901 1.0561 0
M  V30 1388 H 136.123 -3.60011 1.14893 0
M  V30 1389 H 136.436 -7.14793 2.93752 0
M  V30 1390 H 134.781 -6.43097 2.63537 0
M  V30 1391 H 137.972 -4.43308 1.5032 0
M  V30 1392 H 138.145 -6.05099 2.3186 0
M  V30 1393 N 131.551 -0.354651 -1.53558 0
M  V30 1394 C 132.483 0.5315 -2.22952 0
M  V30 1395 C 133.496 1.05503 -1.23988 0
M  V30 1396 O 134.685 0.963279 -1.50277 0
M  V30 1397 C 131.785 1.74538 -2.90499 0
M  V30 1398 C 130.958 1.35524 -4.15875 0
M  V30 1399 C 130.017 2.42999 -4.66731 0
M  V30 1400 O 129.043 2.05844 -5.30676 0
M  V30 1401 N 130.245 3.74423 -4.43608 0
M  V30 1402 H 133.01 -0.0628615 -2.99634 0
M  V30 1403 H 130.571 -0.179302 -1.60904 0
M  V30 1404 H 132.563 2.45892 -3.21433 0
M  V30 1405 H 131.133 2.24686 -2.17336 0
M  V30 1406 H 130.353 0.471998 -3.91364 0
M  V30 1407 H 131.641 1.07071 -4.97406 0
M  V30 1408 H 131.039 4.07391 -3.92491 0
M  V30 1409 H 129.596 4.41913 -4.7912 0
M  V30 1410 N 133.029 1.57378 -0.0835403 0
M  V30 1411 C 134.259 1.97975 0.590713 0
M  V30 1412 C 134.667 0.961083 1.62972 0
M  V30 1413 O 134.01 -0.0590879 1.83605 0
M  V30 1414 C 134.072 3.34915 1.3066 0
M  V30 1415 C 133.736 4.55069 0.419698 0
M  V30 1416 C 134.733 5.18868 -0.32749 0
M  V30 1417 C 132.418 5.0114 0.341137 0
M  V30 1418 C 134.412 6.27098 -1.14134 0
M  V30 1419 C 132.099 6.0924 -0.476374 0
M  V30 1420 C 133.097 6.72083 -1.21627 0
M  V30 1421 O 132.785 7.781 -2.02028 0
M  V30 1422 H 132.517 0.655818 0.163947 0
M  V30 1423 H 135.071 2.04807 -0.156021 0
M  V30 1424 H 133.301 3.24733 2.09966 0
M  V30 1425 H 134.99 3.60037 1.87424 0
M  V30 1426 H 135.756 4.84211 -0.276459 0
M  V30 1427 H 131.635 4.51996 0.90668 0
M  V30 1428 H 135.179 6.7608 -1.71935 0
M  V30 1429 H 131.076 6.43329 -0.528927 0
M  V30 1430 H 131.844 7.95034 -1.94586 0
M  V30 1431 N 134.507 -0.190092 1.56449 0
M  V30 1432 C 135.439 -1.25973 1.91477 0
M  V30 1433 C 136.452 -1.41452 0.805931 0
M  V30 1434 O 137.641 -1.41789 1.08435 0
M  V30 1435 C 134.741 -2.63117 2.13594 0
M  V30 1436 C 133.914 -2.69182 3.4476 0
M  V30 1437 C 132.973 -3.87557 3.5593 0
M  V30 1438 O 131.999 -3.74427 4.28711 0
M  V30 1439 N 133.201 -5.03224 2.89388 0
M  V30 1440 H 135.966 -0.962394 2.83828 0
M  V30 1441 H 133.527 -0.379981 1.57378 0
M  V30 1442 H 135.519 -3.40742 2.1835 0
M  V30 1443 H 134.089 -2.85319 1.27719 0
M  V30 1444 H 133.309 -1.77793 3.51828 0
M  V30 1445 H 134.597 -2.70229 4.31107 0
M  V30 1446 H 133.995 -5.16791 2.30094 0
M  V30 1447 H 132.552 -5.78778 2.99764 0
M  V30 1448 N 135.985 -1.50799 -0.457987 0
M  V30 1449 C 137.231 -1.62683 -1.21088 0
M  V30 1450 C 137.564 -0.332268 -1.91336 0
M  V30 1451 O 136.839 0.667043 -1.82704 0
M  V30 1452 C 137.122 -2.81615 -2.24422 0
M  V30 1453 C 136.975 -4.20989 -1.58392 0
M  V30 1454 C 138.294 -2.96085 -3.2561 0
M  V30 1455 H 135.413 -0.592087 -0.438864 0
M  V30 1456 H 138.055 -1.83225 -0.50286 0
M  V30 1457 H 136.205 -2.64231 -2.84806 0
M  V30 1458 H 137.877 -4.49994 -1.01504 0
M  V30 1459 H 136.12 -4.24641 -0.886704 0
M  V30 1460 H 136.791 -5.0016 -2.33547 0
M  V30 1461 H 139.267 -3.12042 -2.75262 0
M  V30 1462 H 138.143 -3.80902 -3.95228 0
M  V30 1463 H 138.404 -2.0726 -3.90507 0
M  V30 1464 N 137.463 0.71206 -1.40597 0
M  V30 1465 C 138.874 1.29135 -1.34837 0
M  V30 1466 C 139.225 1.96186 -0.0235395 0
M  V30 1467 O 138.35 1.97768 0.878444 0
M  V30 1468 C 138.945 2.34827 -2.44217 0
M  V30 1469 C 137.504 2.88371 -2.41907 0
M  V30 1470 C 136.651 1.62202 -2.24913 0
M  V30 1471 H 139.602 0.507944 -1.50352 0
M  V30 1472 H 139.623 3.15749 -2.12327 0
M  V30 1473 H 139.135 1.85996 -3.40627 0
M  V30 1474 H 137.236 3.41422 -1.49204 0
M  V30 1475 H 137.349 3.39925 -3.37621 0
M  V30 1476 H 135.713 1.874 -1.72492 0
M  V30 1477 H 136.496 1.15391 -3.23326 0
M  V30 1478 N 138.941 1.26152 0.944643 0
M  V30 1479 C 140.19 1.10883 1.68487 0
M  V30 1480 C 140.503 -0.348153 1.92477 0
M  V30 1481 O 141.709 -0.621459 2.64292 0
M  V30 1482 C 140.165 1.93624 3.03377 0
M  V30 1483 C 139.773 3.43875 2.87148 0
M  V30 1484 C 141.517 1.86954 3.81115 0
M  V30 1485 C 139.424 4.18875 4.1749 0
M  V30 1486 H 138.354 0.41135 0.631907 0
M  V30 1487 H 141.005 1.50433 1.05082 0
M  V30 1488 H 139.387 1.46904 3.67743 0
M  V30 1489 H 140.561 3.98338 2.31653 0
M  V30 1490 H 138.876 3.51744 2.22856 0
M  V30 1491 H 141.473 2.40275 4.77673 0
M  V30 1492 H 141.816 0.839518 4.07747 0
M  V30 1493 H 142.349 2.31477 3.23517 0
M  V30 1494 H 139.088 5.22332 3.96043 0
M  V30 1495 H 138.608 3.69193 4.72712 0
M  V30 1496 H 140.287 4.27134 4.85968 0
M  V30 1497 N 140.419 -1.14872 1.07899 0
M  V30 1498 C 141.349 -2.2193 0.725887 0
M  V30 1499 C 142.33 -1.67622 -0.28927 0
M  V30 1500 O 143.515 -1.93533 -0.160787 0
M  V30 1501 C 140.645 -3.47061 0.128856 0
M  V30 1502 C 139.599 -4.14363 1.07178 0
M  V30 1503 C 138.925 -5.33636 0.337229 0
M  V30 1504 C 140.225 -4.63492 2.40775 0
M  V30 1505 H 141.919 -2.51724 1.62097 0
M  V30 1506 H 139.465 -1.20991 0.780838 0
M  V30 1507 H 141.418 -4.21199 -0.130147 0
M  V30 1508 H 140.142 -3.16617 -0.80134 0
M  V30 1509 H 138.801 -3.42173 1.3158 0
M  V30 1510 H 138.449 -4.99449 -0.596606 0
M  V30 1511 H 138.149 -5.79609 0.965788 0
M  V30 1512 H 139.673 -6.10539 0.0861567 0
M  V30 1513 H 141.087 -5.2913 2.20669 0
M  V30 1514 H 139.484 -5.20148 2.99276 0
M  V30 1515 H 140.554 -3.78834 3.02676 0
M  V30 1516 N 141.898 -0.863906 -1.31812 0
M  V30 1517 C 142.848 -0.286898 -2.26188 0
M  V30 1518 C 143.832 0.572577 -1.50367 0
M  V30 1519 O 145.024 0.420447 -1.71934 0
M  V30 1520 C 142.153 0.515849 -3.39402 0
M  V30 1521 C 141.239 -0.356531 -4.22599 0
M  V30 1522 N 141.63 -1.44716 -4.84656 0
M  V30 1523 C 139.928 -0.147898 -4.45755 0
M  V30 1524 C 140.629 -1.98462 -5.46798 0
M  V30 1525 N 139.605 -1.28247 -5.28255 0
M  V30 1526 H 143.407 -1.12055 -2.717 0
M  V30 1527 H 140.921 -0.711012 -1.46008 0
M  V30 1528 H 142.918 0.945701 -4.06032 0
M  V30 1529 H 141.578 1.34718 -2.95434 0
M  V30 1530 H 142.589 -1.83008 -4.84488 0
M  V30 1531 H 139.266 0.647973 -4.12441 0
M  V30 1532 H 140.656 -2.89932 -6.06126 0
M  V30 1533 N 143.376 1.44774 -0.622745 0
M  V30 1534 C 144.323 2.30635 0.0871679 0
M  V30 1535 C 145.293 1.42994 0.845097 0
M  V30 1536 O 146.478 1.71907 0.827812 0
M  V30 1537 C 143.618 3.28144 1.06844 0
M  V30 1538 C 142.731 4.30888 0.309809 0
M  V30 1539 C 141.866 5.15494 1.28215 0
M  V30 1540 C 140.905 6.09953 0.512198 0
M  V30 1541 N 140.042 6.87287 1.43458 0
M  V30 1542 H 144.882 2.90803 -0.650974 0
M  V30 1543 H 142.419 1.43286 -0.33281 0
M  V30 1544 H 144.377 3.83157 1.65066 0
M  V30 1545 H 143.007 2.69695 1.77382 0
M  V30 1546 H 142.059 3.78414 -0.388181 0
M  V30 1547 H 143.371 4.97955 -0.290254 0
M  V30 1548 H 142.525 5.74983 1.93596 0
M  V30 1549 H 141.264 4.48481 1.91614 0
M  V30 1550 H 140.269 5.49581 -0.155151 0
M  V30 1551 H 141.494 6.78999 -0.116958 0
M  V30 1552 H 139.44 6.2295 2.05594 0
M  V30 1553 H 139.357 7.50763 0.888335 0
M  V30 1554 H 140.625 7.51306 2.07749 0
M  V30 1555 N 144.854 0.36279 1.53368 0
M  V30 1556 C 146.101 -0.227776 2.01215 0
M  V30 1557 C 146.429 -1.49003 1.25014 0
M  V30 1558 O 145.684 -1.92876 0.331236 0
M  V30 1559 C 145.983 -0.568417 3.52851 0
M  V30 1560 C 145.649 0.59918 4.46901 0
M  V30 1561 C 144.311 0.919559 4.72332 0
M  V30 1562 C 146.663 1.38156 5.02556 0
M  V30 1563 C 143.991 2.02434 5.5067 0
M  V30 1564 C 146.343 2.47674 5.821 0
M  V30 1565 C 145.007 2.8025 6.05819 0
M  V30 1566 H 144.277 -0.083349 0.736297 0
M  V30 1567 H 146.924 0.494677 1.85001 0
M  V30 1568 H 145.229 -1.37185 3.66998 0
M  V30 1569 H 146.926 -1.03756 3.87344 0
M  V30 1570 H 143.516 0.339437 4.27254 0
M  V30 1571 H 147.7 1.14729 4.82857 0
M  V30 1572 H 142.956 2.28075 5.67267 0
M  V30 1573 H 147.13 3.08716 6.24234 0
M  V30 1574 H 144.757 3.65979 6.66306 0
M  V30 1575 N 146.332 -1.57332 0.0918853 0
M  V30 1576 C 147.242 -2.17368 -0.882505 0
M  V30 1577 C 148.258 -1.14226 -1.31257 0
M  V30 1578 O 149.434 -1.46582 -1.38115 0
M  V30 1579 C 146.499 -2.73962 -2.12476 0
M  V30 1580 C 145.56 -3.92048 -1.7492 0
M  V30 1581 C 144.793 -4.45933 -2.93223 0
M  V30 1582 O 145.016 -3.98764 -4.07852 0
M  V30 1583 O 143.95 -5.36999 -2.71875 0
M  V30 1584 H 147.776 -3.01031 -0.40172 0
M  V30 1585 H 145.361 -1.48813 -0.132291 0
M  V30 1586 H 147.243 -3.10147 -2.85283 0
M  V30 1587 H 145.918 -1.93347 -2.59613 0
M  V30 1588 H 144.825 -3.6068 -0.993025 0
M  V30 1589 H 146.158 -4.74017 -1.32548 0
M  V30 1590 N 147.81 0.181792 -1.56548 0
M  V30 1591 C 148.74 1.22765 -1.98623 0
M  V30 1592 C 149.721 1.46747 -0.860189 0
M  V30 1593 O 150.906 1.58259 -1.12551 0
M  V30 1594 C 148.036 2.56894 -2.33715 0
M  V30 1595 C 146.99 2.475 -3.49182 0
M  V30 1596 C 146.316 3.86023 -3.69986 0
M  V30 1597 C 147.616 1.98866 -4.82959 0
M  V30 1598 H 149.31 0.877942 -2.86239 0
M  V30 1599 H 146.856 0.42088 -1.37712 0
M  V30 1600 H 148.809 3.30253 -2.61746 0
M  V30 1601 H 147.533 2.93632 -1.42997 0
M  V30 1602 H 146.192 1.76596 -3.21262 0
M  V30 1603 H 145.84 4.20136 -2.76576 0
M  V30 1604 H 145.54 3.80609 -4.47672 0
M  V30 1605 H 147.064 4.60984 -4.00407 0
M  V30 1606 H 148.478 2.61992 -5.09934 0
M  V30 1607 H 146.875 2.04424 -5.64208 0
M  V30 1608 H 147.945 0.942465 -4.75653 0
M  V30 1609 N 149.288 1.51039 0.449983 0
M  V30 1610 C 150.513 1.6715 1.22783 0
M  V30 1611 C 150.938 0.363081 1.84563 0
M  V30 1612 O 150.296 -0.675433 1.68249 0
M  V30 1613 C 150.344 2.77985 2.29689 0
M  V30 1614 O 149.448 2.40707 3.34864 0
M  V30 1615 H 148.789 0.557746 0.360299 0
M  V30 1616 H 151.319 1.97535 0.533005 0
M  V30 1617 H 151.329 3.01693 2.74673 0
M  V30 1618 H 150.004 3.72935 1.84098 0
M  V30 1619 H 148.581 2.27523 2.95445 0
M  V30 1620 N 150.766 -0.704594 1.40972 0
M  V30 1621 C 152.014 -1.46169 1.39568 0
M  V30 1622 C 152.335 -1.95 0.00253745 0
M  V30 1623 O 151.605 -1.71095 -0.954114 0
M  V30 1624 H 150.185 -0.542326 0.513704 0
M  V30 1625 H 152.847 -0.834553 1.76128 0
M  V30 1626 H 151.943 -2.32922 2.07735 0
M  V30 1627 N 152.244 -1.26651 -0.937939 0
M  V30 1628 C 153.472 -1.15173 -1.7188 0
M  V30 1629 C 153.887 0.292668 -1.86518 0
M  V30 1630 O 153.244 1.20014 -1.37488 0
M  V30 1631 C 153.295 -1.81925 -3.12387 0
M  V30 1632 O 153.016 -3.2072 -2.98446 0
M  V30 1633 C 154.517 -1.76442 -4.06673 0
M  V30 1634 H 151.737 -0.400911 -0.538063 0
M  V30 1635 H 154.281 -1.67332 -1.1756 0
M  V30 1636 H 152.436 -1.33696 -3.63599 0
M  V30 1637 H 152.85 -3.53802 -3.872 0
M  V30 1638 H 154.324 -2.27781 -5.02812 0
M  V30 1639 H 154.801 -0.731608 -4.33064 0
M  V30 1640 H 155.407 -2.24238 -3.61382 0
M  V30 1641 N 153.722 1.14298 -1.08507 0
M  V30 1642 C 154.947 1.8976 -0.837001 0
M  V30 1643 C 155.372 1.78097 0.605228 0
M  V30 1644 O 154.73 1.12188 1.4242 0
M  V30 1645 C 154.778 3.37685 -1.26495 0
M  V30 1646 O 153.882 4.10281 -0.417514 0
M  V30 1647 H 153.223 0.590365 -0.303917 0
M  V30 1648 H 155.753 1.44672 -1.44676 0
M  V30 1649 H 155.763 3.88501 -1.24625 0
M  V30 1650 H 154.438 3.45492 -2.31534 0
M  V30 1651 H 153.015 3.69536 -0.499722 0
M  V30 1652 N 155.201 0.870884 1.31352 0
M  V30 1653 C 156.148 0.325425 2.28494 0
M  V30 1654 C 157.118 -0.576615 1.5577 0
M  V30 1655 O 158.303 -0.508059 1.83911 0
M  V30 1656 C 155.443 -0.466283 3.41935 0
M  V30 1657 C 154.556 0.463378 4.29508 0
M  V30 1658 C 153.691 -0.342544 5.30094 0
M  V30 1659 C 152.73 0.583486 6.09313 0
M  V30 1660 N 151.867 -0.186244 7.01853 0
M  V30 1661 H 156.707 1.15901 2.74538 0
M  V30 1662 H 154.244 0.58294 1.35056 0
M  V30 1663 H 156.202 -0.941085 4.06447 0
M  V30 1664 H 154.832 -1.26456 2.97 0
M  V30 1665 H 153.884 1.05663 3.65431 0
M  V30 1666 H 155.196 1.1734 4.84802 0
M  V30 1667 H 154.35 -0.879816 6.00287 0
M  V30 1668 H 153.089 -1.08585 4.75458 0
M  V30 1669 H 152.094 1.13251 5.3801 0
M  V30 1670 H 153.319 1.32566 6.66035 0
M  V30 1671 H 151.265 -0.912348 6.49625 0
M  V30 1672 H 151.182 0.464422 7.54572 0
M  V30 1673 H 152.45 -0.704716 7.76308 0
M  V30 1674 N 156.679 -1.44442 0.630414 0
M  V30 1675 C 157.956 -1.9549 0.0655657 0
M  V30 1676 C 158.336 -1.5724 -1.40851 0
M  V30 1677 O 157.684 -0.846116 -2.12257 0
M  V30 1678 C 157.894 -3.47812 0.287691 0
M  V30 1679 C 159.242 -4.24216 0.180513 0
M  V30 1680 O 160.266 -3.55526 0.219019 0
M  V30 1681 O 159.125 -5.46434 0.0848493 0
M  V30 1682 H 156.219 -0.826688 -0.0227177 0
M  V30 1683 H 158.765 -1.54496 0.702068 0
M  V30 1684 H 157.537 -3.687 1.31056 0
M  V30 1685 H 157.16 -3.95751 -0.382984 0
M  V30 1686 N 158.157 -0.370918 -1.53173 0
M  V30 1687 C 159.403 0.217423 -2.01631 0
M  V30 1688 C 159.736 1.47983 -1.25756 0
M  V30 1689 O 159.011 1.91274 -0.352764 0
M  V30 1690 C 159.294 0.503982 -3.56556 0
M  V30 1691 C 159.147 -0.77243 -4.43118 0
M  V30 1692 C 160.466 1.30234 -4.20389 0
M  V30 1693 H 157.585 0.0775486 -0.732909 0
M  V30 1694 H 160.227 -0.496863 -1.83388 0
M  V30 1695 H 158.377 1.11248 -3.72231 0
M  V30 1696 H 160.049 -1.4098 -4.39229 0
M  V30 1697 H 158.292 -1.39167 -4.10871 0
M  V30 1698 H 158.963 -0.526815 -5.4948 0
M  V30 1699 H 161.439 0.787546 -4.08579 0
M  V30 1700 H 160.315 1.47158 -5.28806 0
M  V30 1701 H 160.576 2.31237 -3.76805 0
M  V30 1702 N 159.635 1.57281 -0.100228 0
M  V30 1703 C 160.545 2.17833 0.870965 0
M  V30 1704 C 161.561 1.14921 1.30649 0
M  V30 1705 O 162.737 1.47313 1.37335 0
M  V30 1706 C 159.802 2.75085 2.1102 0
M  V30 1707 C 158.863 3.9297 1.72838 0
M  V30 1708 C 158.096 4.47482 2.90854 0
M  V30 1709 O 158.319 4.00922 4.05731 0
M  V30 1710 O 157.253 5.38433 2.69023 0
M  V30 1711 H 161.079 3.0124 0.38575 0
M  V30 1712 H 158.664 1.48881 0.124397 0
M  V30 1713 H 160.546 3.11656 2.83634 0
M  V30 1714 H 159.221 1.94721 2.58584 0
M  V30 1715 H 158.128 3.61201 0.973883 0
M  V30 1716 H 159.461 4.74713 1.30033 0
M  V30 1717 N 161.113 -0.173488 1.56642 0
M  V30 1718 C 162.043 -1.2171 1.99271 0
M  V30 1719 C 163.024 -1.46289 0.867959 0
M  V30 1720 O 164.209 -1.5766 1.13388 0
M  V30 1721 C 161.339 -2.55651 2.35074 0
M  V30 1722 C 160.293 -2.45645 3.50489 0
M  V30 1723 C 159.619 -3.84056 3.72028 0
M  V30 1724 C 160.919 -1.96302 4.84007 0
M  V30 1725 H 162.613 -0.86275 2.867 0
M  V30 1726 H 160.159 -0.413571 1.37933 0
M  V30 1727 H 162.112 -3.2886 2.63494 0
M  V30 1728 H 160.836 -2.92869 1.44552 0
M  V30 1729 H 159.495 -1.7489 3.22194 0
M  V30 1730 H 159.143 -4.18664 2.788 0
M  V30 1731 H 158.843 -3.7823 4.49684 0
M  V30 1732 H 160.367 -4.58854 4.02846 0
M  V30 1733 H 161.781 -2.59284 5.11317 0
M  V30 1734 H 160.178 -2.01429 5.65284 0
M  V30 1735 H 161.248 -0.917226 4.76146 0
M  V30 1736 N 162.591 -1.51276 -0.441967 0
M  V30 1737 C 163.838 -1.63715 -1.19179 0
M  V30 1738 C 164.166 -0.351175 -1.91303 0
M  V30 1739 O 163.421 0.664524 -1.84072 0
M  V30 1740 C 163.72 -2.78746 -2.23686 0
M  V30 1741 C 163.386 -4.18189 -1.68607 0
M  V30 1742 C 162.048 -4.56125 -1.53308 0
M  V30 1743 C 164.4 -5.05222 -1.28062 0
M  V30 1744 C 161.728 -5.78804 -0.959317 0
M  V30 1745 C 164.08 -6.28476 -0.721162 0
M  V30 1746 C 162.744 -6.65188 -0.55504 0
M  V30 1747 H 162.014 -0.599076 -0.436106 0
M  V30 1748 H 164.661 -1.85296 -0.48351 0
M  V30 1749 H 162.966 -2.51369 -3.00535 0
M  V30 1750 H 164.663 -2.8557 -2.81515 0
M  V30 1751 H 161.253 -3.88277 -1.8149 0
M  V30 1752 H 165.437 -4.76524 -1.38704 0
M  V30 1753 H 160.693 -6.05899 -0.81833 0
M  V30 1754 H 164.867 -6.95259 -0.398458 0
M  V30 1755 H 162.494 -7.60123 -0.108311 0
M  V30 1756 N 164.069 0.697108 -1.41344 0
M  V30 1757 C 165.297 1.48593 -1.43972 0
M  V30 1758 C 165.712 1.88747 -0.0445612 0
M  V30 1759 O 165.069 1.56682 0.935785 0
M  V30 1760 C 165.12 2.74946 -2.34706 0
M  V30 1761 O 164.841 2.36484 -3.68791 0
M  V30 1762 C 166.342 3.687 -2.46121 0
M  V30 1763 H 163.562 0.457964 -0.490418 0
M  V30 1764 H 166.106 0.858429 -1.8561 0
M  V30 1765 H 164.261 3.33937 -1.9638 0
M  V30 1766 H 164.675 3.17918 -4.17167 0
M  V30 1767 H 166.149 4.54145 -3.13777 0
M  V30 1768 H 166.626 4.13081 -1.49199 0
M  V30 1769 H 167.232 3.15613 -2.85076 0
M  V30 1770 N 165.547 1.27147 0.931209 0
M  V30 1771 C 166.479 1.05364 2.03546 0
M  V30 1772 C 167.492 0.0108438 1.62796 0
M  V30 1773 O 168.681 0.25202 1.76712 0
M  V30 1774 C 165.781 0.575566 3.33977 0
M  V30 1775 C 164.954 1.68985 4.03439 0
M  V30 1776 C 164.013 1.20813 5.12143 0
M  V30 1777 O 163.039 1.90712 5.363 0
M  V30 1778 N 164.241 0.0618851 5.80467 0
M  V30 1779 H 167.006 2.00454 2.22796 0
M  V30 1780 H 164.567 1.18666 1.10136 0
M  V30 1781 H 166.559 0.237264 4.04004 0
M  V30 1782 H 165.129 -0.282016 3.11325 0
M  V30 1783 H 164.349 2.19861 3.27192 0
M  V30 1784 H 165.637 2.4378 4.46597 0
M  V30 1785 H 165.035 -0.521621 5.6329 0
M  V30 1786 H 163.592 -0.217264 6.51438 0
M  V30 1787 N 167.025 -1.13721 1.09112 0
M  V30 1788 C 167.935 -2.22638 0.73957 0
M  V30 1789 C 168.951 -1.72091 -0.257068 0
M  V30 1790 O 170.127 -2.01155 -0.0992154 0
M  V30 1791 C 167.192 -3.46322 0.16191 0
M  V30 1792 C 166.253 -4.11775 1.21408 0
M  V30 1793 C 165.486 -5.29555 0.663891 0
M  V30 1794 O 165.709 -5.68077 -0.514274 0
M  V30 1795 O 164.643 -5.84973 1.41738 0
M  V30 1796 H 168.469 -2.55074 1.64836 0
M  V30 1797 H 166.054 -1.21791 0.865289 0
M  V30 1798 H 167.936 -4.21107 -0.157073 0
M  V30 1799 H 166.611 -3.15593 -0.719932 0
M  V30 1800 H 165.518 -3.3883 1.58571 0
M  V30 1801 H 166.851 -4.46627 2.06845 0
M  V30 1802 N 168.503 -0.877838 -1.30888 0
M  V30 1803 C 169.749 -0.493426 -1.96706 0
M  V30 1804 C 170.082 0.953504 -1.6918 0
M  V30 1805 O 169.357 1.67266 -0.992594 0
M  V30 1806 C 169.64 -0.760429 -3.51979 0
M  V30 1807 C 169.493 -2.25747 -3.89048 0
M  V30 1808 C 170.812 -0.232148 -4.39487 0
M  V30 1809 H 167.931 -0.180746 -0.714493 0
M  V30 1810 H 170.573 -1.10052 -1.54882 0
M  V30 1811 H 168.723 -0.243715 -3.87735 0
M  V30 1812 H 170.395 -2.84204 -3.63354 0
M  V30 1813 H 168.638 -2.72694 -3.37373 0
M  V30 1814 H 169.309 -2.39491 -4.97341 0
M  V30 1815 H 171.785 -0.674314 -4.106 0
M  V30 1816 H 170.661 -0.448355 -5.47066 0
M  V30 1817 H 170.922 0.866297 -4.33529 0
M  V30 1818 N 169.982 1.44106 -0.638065 0
M  V30 1819 C 170.892 2.34513 0.0637334 0
M  V30 1820 C 171.908 1.53018 0.828346 0
M  V30 1821 O 173.084 1.85723 0.779036 0
M  V30 1822 C 170.149 3.31095 1.02844 0
M  V30 1823 C 169.21 4.28497 0.26244 0
M  V30 1824 C 168.443 5.20465 1.1812 0
M  V30 1825 O 168.666 5.16514 2.42011 0
M  V30 1826 O 167.6 5.98251 0.661774 0
M  V30 1827 H 171.426 2.95989 -0.68003 0
M  V30 1828 H 169.011 1.43994 -0.398252 0
M  V30 1829 H 170.893 3.90526 1.58327 0
M  V30 1830 H 169.568 2.72144 1.7527 0
M  V30 1831 H 168.475 3.72592 -0.335602 0
M  V30 1832 H 169.808 4.90388 -0.421936 0
M  V30 1833 N 171.46 0.379036 1.52974 0
M  V30 1834 C 172.876 0.0285448 1.59574 0
M  V30 1835 C 173.076 -1.45542 1.39355 0
M  V30 1836 O 172.132 -2.2187 1.20541 0
M  V30 1837 C 173.445 0.496535 2.96572 0
M  V30 1838 C 174.993 0.451909 3.0972 0
M  V30 1839 C 175.468 0.895924 4.49152 0
M  V30 1840 N 176.959 0.851522 4.55306 0
M  V30 1841 C 177.694 1.16661 5.61407 0
M  V30 1842 N 177.19 1.55166 6.752 0
M  V30 1843 N 178.983 1.08853 5.51459 0
M  V30 1844 H 171.134 1.34525 1.64367 0
M  V30 1845 H 173.397 0.550733 0.771619 0
M  V30 1846 H 173.103 1.53258 3.16552 0
M  V30 1847 H 172.977 -0.109802 3.7704 0
M  V30 1848 H 175.364 -0.575029 2.89443 0
M  V30 1849 H 175.445 1.09392 2.3123 0
M  V30 1850 H 175.089 1.92104 4.70168 0
M  V30 1851 H 175.019 0.23103 5.26093 0
M  V30 1852 H 177.51 0.568038 3.73606 0
M  V30 1853 H 177.823 1.776 7.52116 0
M  V30 1854 H 176.168 1.59044 6.76557 0
M  V30 1855 H 179.359 0.786803 4.6144 0
M  V30 1856 H 179.532 1.33742 6.34048 0
M  V30 1857 N 172.938 -1.57226 0.108567 0
M  V30 1858 C 174.184 -1.95121 -0.552761 0
M  V30 1859 C 174.517 -0.991345 -1.66991 0
M  V30 1860 O 173.792 -0.0267211 -1.94482 0
M  V30 1861 C 174.075 -3.43039 -1.09528 0
M  V30 1862 C 173.928 -4.49797 0.0177332 0
M  V30 1863 C 175.247 -3.92567 -1.98945 0
M  V30 1864 H 172.366 -0.709496 -0.199461 0
M  V30 1865 H 175.008 -1.89126 0.182011 0
M  V30 1866 H 173.158 -3.48279 -1.72146 0
M  V30 1867 H 174.83 -4.56661 0.652584 0
M  V30 1868 H 173.073 -4.284 0.682309 0
M  V30 1869 H 173.744 -5.50528 -0.402919 0
M  V30 1870 H 176.22 -3.89565 -1.46214 0
M  V30 1871 H 175.096 -4.96605 -2.33827 0
M  V30 1872 H 175.357 -3.32648 -2.91201 0
M  V30 1873 N 174.416 0.165178 -1.56732 0
M  V30 1874 C 175.662 0.882112 -1.82611 0
M  V30 1875 C 175.995 1.81628 -0.687378 0
M  V30 1876 O 175.27 1.92009 0.310267 0
M  V30 1877 C 175.553 1.67245 -3.18906 0
M  V30 1878 C 175.406 0.760987 -4.43316 0
M  V30 1879 C 176.725 2.63884 -3.52212 0
M  V30 1880 H 173.844 0.319242 -0.664269 0
M  V30 1881 H 176.486 0.148052 -1.89422 0
M  V30 1882 H 174.636 2.29824 -3.1323 0
M  V30 1883 H 176.308 0.147596 -4.61064 0
M  V30 1884 H 174.551 0.0694102 -4.33744 0
M  V30 1885 H 175.222 1.34962 -5.35247 0
M  V30 1886 H 177.698 2.11429 -3.58381 0
M  V30 1887 H 176.574 3.16245 -4.48643 0
M  V30 1888 H 176.835 3.44377 -2.77231 0
M  V30 1889 N 175.894 1.51508 0.433938 0
M  V30 1890 C 177.122 1.68157 1.20543 0
M  V30 1891 C 177.537 0.380362 1.84929 0
M  V30 1892 O 176.894 -0.641446 1.70856 0
M  V30 1893 C 176.945 2.79965 2.28696 0
M  V30 1894 O 176.666 4.05045 1.66943 0
M  V30 1895 C 178.167 3.07912 3.18912 0
M  V30 1896 H 175.387 0.56421 0.363191 0
M  V30 1897 H 177.931 1.97941 0.513754 0
M  V30 1898 H 176.086 2.5277 2.93574 0
M  V30 1899 H 176.5 4.67165 2.38448 0
M  V30 1900 H 177.974 3.89719 3.90926 0
M  V30 1901 H 178.451 2.20456 3.79863 0
M  V30 1902 H 179.057 3.36779 2.59731 0
M  V30 1903 N 177.372 -0.689602 1.41712 0
M  V30 1904 C 178.319 -1.80345 1.44029 0
M  V30 1905 C 179.289 -1.63478 0.293948 0
M  V30 1906 O 180.474 -1.84244 0.495869 0
M  V30 1907 C 177.614 -3.18272 1.33405 0
M  V30 1908 C 176.727 -3.46529 2.57956 0
M  V30 1909 C 175.862 -4.74103 2.39582 0
M  V30 1910 C 174.901 -4.95347 3.5958 0
M  V30 1911 N 174.038 -6.14151 3.40239 0
M  V30 1912 H 178.878 -1.77698 2.39222 0
M  V30 1913 H 176.415 -0.867688 1.18784 0
M  V30 1914 H 178.373 -3.97956 1.25246 0
M  V30 1915 H 177.003 -3.2008 0.418164 0
M  V30 1916 H 176.055 -2.61207 2.76542 0
M  V30 1917 H 177.367 -3.58126 3.47199 0
M  V30 1918 H 176.521 -5.61853 2.28924 0
M  V30 1919 H 175.26 -4.64763 1.47805 0
M  V30 1920 H 174.265 -4.06044 3.70686 0
M  V30 1921 H 175.49 -5.06542 4.52318 0
M  V30 1922 H 173.436 -6.06013 2.51167 0
M  V30 1923 H 173.353 -6.26543 4.23061 0
M  V30 1924 H 174.621 -7.04619 3.33365 0
M  V30 1925 N 178.85 -1.27639 -0.924453 0
M  V30 1926 C 180.075 -1.17101 -1.71179 0
M  V30 1927 C 180.5 0.268134 -1.86179 0
M  V30 1928 O 179.858 1.19415 -1.36418 0
M  V30 1929 C 179.906 -1.86313 -3.08739 0
M  V30 1930 O 179.01 -1.16331 -3.95652 0
M  V30 1931 H 178.351 -0.407091 -0.524569 0
M  V30 1932 H 180.881 -1.68767 -1.15666 0
M  V30 1933 H 180.891 -1.938 -3.59034 0
M  V30 1934 H 179.566 -2.91001 -2.97138 0
M  V30 1935 H 178.143 -1.16935 -3.54091 0
M  V30 1936 N 180.328 1.1314 -1.09713 0
M  V30 1937 C 181.553 1.88862 -0.857081 0
M  V30 1938 C 181.978 1.78729 0.586304 0
M  V30 1939 O 181.336 1.13692 1.41222 0
M  V30 1940 C 181.384 3.36325 -1.30069 0
M  V30 1941 O 180.488 4.09815 -0.461007 0
M  V30 1942 H 179.829 0.587108 -0.310162 0
M  V30 1943 H 182.359 1.43129 -1.46203 0
M  V30 1944 H 182.369 3.87157 -1.28738 0
M  V30 1945 H 181.044 3.43017 -2.35185 0
M  V30 1946 H 179.621 3.68986 -0.538888 0
M  V30 1947 N 181.806 0.884767 1.30421 0
M  V30 1948 C 182.769 0.356277 2.26414 0
M  V30 1949 C 183.769 -0.501124 1.52792 0
M  V30 1950 O 184.959 -0.30831 1.7145 0
M  V30 1951 C 182.091 -0.492316 3.37326 0
M  V30 1952 H 183.284 1.20389 2.74675 0
M  V30 1953 H 180.837 0.661607 1.41607 0
M  V30 1954 H 181.572 -1.36052 2.94381 0
M  V30 1955 H 181.357 0.121832 3.91911 0
M  V30 1956 H 182.847 -0.853871 4.08777 0
M  V30 1957 N 183.284 -1.43765 0.645699 0
M  V30 1958 C 184.231 -2.30745 -0.0504648 0
M  V30 1959 C 185.201 -1.4432 -0.822241 0
M  V30 1960 O 186.386 -1.73202 -0.800358 0
M  V30 1961 C 183.526 -3.29802 -1.0161 0
M  V30 1962 C 182.639 -4.31326 -0.241219 0
M  V30 1963 C 181.774 -5.17469 -1.19998 0
M  V30 1964 C 180.813 -6.10691 -0.415094 0
M  V30 1965 N 179.95 -6.89483 -1.32506 0
M  V30 1966 H 184.79 -2.8973 0.697155 0
M  V30 1967 H 182.327 -1.42738 0.355563 0
M  V30 1968 H 184.285 -3.85734 -1.58949 0
M  V30 1969 H 182.915 -2.72483 -1.73069 0
M  V30 1970 H 181.967 -3.77749 0.448334 0
M  V30 1971 H 183.279 -4.9743 0.369437 0
M  V30 1972 H 182.433 -5.7799 -1.84424 0
M  V30 1973 H 181.172 -4.51473 -1.84455 0
M  V30 1974 H 180.177 -5.49265 0.242565 0
M  V30 1975 H 181.402 -6.78727 0.224966 0
M  V30 1976 H 179.348 -6.26142 -1.95657 0
M  V30 1977 H 179.265 -7.52081 -0.768783 0
M  V30 1978 H 180.533 -7.54516 -1.9577 0
M  V30 1979 N 184.763 -0.387143 -1.52771 0
M  V30 1980 C 185.696 0.493123 -2.22808 0
M  V30 1981 C 186.674 1.0658 -1.22798 0
M  V30 1982 O 187.858 1.11785 -1.51777 0
M  V30 1983 C 184.985 1.68238 -2.93962 0
M  V30 1984 C 184.031 1.23515 -4.08223 0
M  V30 1985 S 184.864 0.21848 -5.35054 0
M  V30 1986 C 186.02 1.41357 -6.09729 0
M  V30 1987 H 186.253 -0.101625 -2.97126 0
M  V30 1988 H 183.786 -0.171323 -1.53447 0
M  V30 1989 H 185.744 2.36443 -3.35567 0
M  V30 1990 H 184.405 2.24842 -2.19328 0
M  V30 1991 H 183.598 2.12304 -4.57103 0
M  V30 1992 H 183.2 0.632044 -3.68621 0
M  V30 1993 H 185.492 2.34101 -6.3577 0
M  V30 1994 H 186.435 0.965736 -7.01484 0
M  V30 1995 H 186.843 1.6294 -5.40473 0
M  V30 1996 N 186.241 1.57166 -0.116904 0
M  V30 1997 C 187.518 1.86645 0.585049 0
M  V30 1998 C 187.898 1.0177 1.84949 0
M  V30 1999 O 187.246 0.0960379 2.28298 0
M  V30 2000 C 187.456 3.37736 0.879507 0
M  V30 2001 C 188.804 4.06289 1.23348 0
M  V30 2002 O 189.828 3.42743 0.969836 0
M  V30 2003 O 188.687 5.18455 1.7282 0
M  V30 2004 H 185.781 0.772593 0.295007 0
M  V30 2005 H 188.327 1.69025 -0.151249 0
M  V30 2006 H 187.099 3.91296 -0.0166136 0
M  V30 2007 H 186.722 3.6078 1.67103 0
M  V30 2008 N 187.719 -0.156864 1.56817 0
M  V30 2009 C 189.13 -0.717916 1.72345 0
M  V30 2010 C 189.481 -1.82124 0.729747 0
M  V30 2011 O 188.606 -2.16141 -0.105781 0
M  V30 2012 C 189.201 -1.30904 3.12489 0
M  V30 2013 C 187.76 -1.81676 3.29653 0
M  V30 2014 C 186.907 -0.701349 2.68284 0
M  V30 2015 H 189.858 0.0686989 1.58551 0
M  V30 2016 H 189.879 -2.17882 3.11942 0
M  V30 2017 H 189.391 -0.505796 3.8479 0
M  V30 2018 H 187.492 -2.64598 2.62333 0
M  V30 2019 H 187.605 -1.95226 4.3752 0
M  V30 2020 H 185.969 -1.12548 2.28484 0
M  V30 2021 H 186.752 0.0902846 3.43181 0
M  V30 2022 N 189.197 -1.51736 -0.425897 0
M  V30 2023 C 190.443 -1.65214 -1.1761 0
M  V30 2024 C 190.776 -0.372778 -1.90589 0
M  V30 2025 O 190.051 0.628139 -1.84078 0
M  V30 2026 C 190.334 -2.86312 -2.18398 0
M  V30 2027 C 190.187 -4.24254 -1.49426 0
M  V30 2028 C 191.506 -3.02925 -3.19256 0
M  V30 2029 H 188.625 -0.601263 -0.426206 0
M  V30 2030 H 191.267 -1.8425 -0.463882 0
M  V30 2031 H 189.417 -2.70213 -2.79137 0
M  V30 2032 H 191.089 -4.52046 -0.919362 0
M  V30 2033 H 189.332 -4.26426 -0.796432 0
M  V30 2034 H 190.003 -5.05001 -2.22885 0
M  V30 2035 H 192.479 -3.1781 -2.68581 0
M  V30 2036 H 191.355 -3.89199 -3.8706 0
M  V30 2037 H 191.616 -2.15497 -3.86023 0
M  V30 2038 N 190.675 0.682077 -1.42076 0
M  V30 2039 C 191.622 1.79578 -1.44984 0
M  V30 2040 C 192.592 1.6332 -0.302614 0
M  V30 2041 O 193.777 1.83978 -0.505633 0
M  V30 2042 C 190.917 3.1756 -1.35091 0
M  V30 2043 C 190.03 3.45156 -2.59791 0
M  V30 2044 C 189.165 4.72826 -2.42093 0
M  V30 2045 C 188.204 4.93433 -3.62202 0
M  V30 2046 N 187.341 6.12338 -3.43491 0
M  V30 2047 H 192.181 1.76427 -2.40161 0
M  V30 2048 H 189.718 0.861376 -1.19242 0
M  V30 2049 H 191.676 3.97287 -1.27354 0
M  V30 2050 H 190.306 3.19854 -0.435133 0
M  V30 2051 H 189.358 2.59736 -2.77923 0
M  V30 2052 H 190.67 3.5628 -3.49094 0
M  V30 2053 H 189.824 5.60631 -2.319 0
M  V30 2054 H 188.563 4.63973 -1.50268 0
M  V30 2055 H 187.568 4.04073 -3.72834 0
M  V30 2056 H 188.793 5.04136 -4.54998 0
M  V30 2057 H 186.739 6.04672 -2.54377 0
M  V30 2058 H 186.656 6.2429 -4.26377 0
M  V30 2059 H 187.924 7.02841 -3.37097 0
M  V30 2060 O 192.192 1.38868 0.824489 0
M  V30 2061 H 192.883 1.26408 1.46767 0
M  V30 END ATOM
M  V30 BEGIN BOND
M  V30 END BOND
M  V30 END CTAB
M  END
$$$$
