drugbank_target|P09848 Lactase-phlorizin hydrolase (DB02376; DB02471; DB03389; DB04282; DB04564; DB04659; DB04779; DB08558)
 OpenBabel12092120513D

  0  0  0     0  0            999 V3000
M  V30 BEGIN CTAB
M  V30 COUNTS 30303 30771 0 0 0
M  V30 BEGIN ATOM
M  V30 1 H -0.908 1.98254 -0.117106 0
M  V30 2 N 0 1.576 0 0
M  V30 3 C 0.933 2.03868 1.02534 0
M  V30 4 C 1.911 0.928543 1.3348 0
M  V30 5 O 3.095 1.19667 1.45644 0
M  V30 6 C 0.222 2.43627 2.35294 0
M  V30 7 C -0.732 3.65373 2.2001 0
M  V30 8 S 0.101 5.13292 1.52614 0
M  V30 9 C 1.257 5.56322 2.86805 0
M  V30 10 H 1.49 2.90518 0.631377 0
M  V30 11 H -0.977 1.52953 0.210867 0
M  V30 12 H 0.981 2.67203 3.11629 0
M  V30 13 H -0.358 1.57376 2.7183 0
M  V30 14 H -1.165 3.90944 3.18086 0
M  V30 15 H -1.563 3.418 1.51819 0
M  V30 16 H 0.729 5.58782 3.83104 0
M  V30 17 H 1.672 6.56266 2.65933 0
M  V30 18 H 2.08 4.83886 2.90714 0
M  V30 19 N 1.4781 -0.272755 1.55222 0
M  V30 20 C 2.3881 -1.35918 1.91216 0
M  V30 21 C 3.4041 -1.54026 0.809436 0
M  V30 22 O 4.5801 -1.68148 1.10852 0
M  V30 23 C 1.6451 -2.69834 2.17693 0
M  V30 24 C 0.7061 -2.6047 3.41253 0
M  V30 25 C -0.0609 -3.88 3.66458 0
M  V30 26 O 0.1621 -4.88693 2.94169 0
M  V30 27 O -0.9039 -3.88189 4.59992 0
M  V30 28 H 2.9221 -1.0839 2.83699 0
M  V30 29 H 0.5071 -0.471301 1.41771 0
M  V30 30 H 2.3891 -3.49017 2.36147 0
M  V30 31 H 1.0641 -2.97148 1.28392 0
M  V30 32 H -0.0289 -1.79663 3.28134 0
M  V30 33 H 1.3041 -2.38106 4.30774 0
M  V30 34 N 2.9562 -1.48159 -0.537278 0
M  V30 35 C 3.8862 -1.65029 -1.6519 0
M  V30 36 C 4.8672 -0.499281 -1.62607 0
M  V30 37 O 6.0522 -0.730972 -1.79918 0
M  V30 38 C 3.1822 -1.68303 -3.03795 0
M  V30 39 C 2.1362 -2.8283 -3.21234 0
M  V30 40 C 1.4622 -2.71189 -4.60826 0
M  V30 41 C 2.7622 -4.24211 -3.04701 0
M  V30 42 H 4.4562 -2.58341 -1.51328 0
M  V30 43 H 2.0022 -1.24325 -0.726585 0
M  V30 44 H 3.9552 -1.78693 -3.81637 0
M  V30 45 H 2.6792 -0.715635 -3.18663 0
M  V30 46 H 1.3382 -2.71983 -2.45807 0
M  V30 47 H 0.9862 -1.72435 -4.7252 0
M  V30 48 H 0.6862 -3.48035 -4.7344 0
M  V30 49 H 2.2102 -2.83537 -5.40777 0
M  V30 50 H 3.6242 -4.3593 -3.72341 0
M  V30 51 H 2.0212 -5.01998 -3.28813 0
M  V30 52 H 3.0912 -4.41184 -2.01209 0
M  V30 53 N 4.4343 0.785586 -1.36625 0
M  V30 54 C 5.6593 1.57963 -1.34397 0
M  V30 55 C 6.0843 1.87964 0.071526 0
M  V30 56 O 5.4423 1.48182 1.0446 0
M  V30 57 C 5.4903 2.87511 -2.17646 0
M  V30 58 O 4.5943 3.81281 -1.57158 0
M  V30 59 H 3.9353 0.479014 -0.459828 0
M  V30 60 H 6.4653 0.973411 -1.79961 0
M  V30 61 H 6.4753 3.36745 -2.30362 0
M  V30 62 H 5.1503 2.65002 -3.20541 0
M  V30 63 H 3.7273 3.39885 -1.53403 0
M  V30 64 N 5.9124 1.20967 1.01018 0
M  V30 65 C 7.1584 1.0353 1.7508 0
M  V30 66 C 7.5134 -0.42734 1.87594 0
M  V30 67 O 6.8064 -1.31298 1.3954 0
M  V30 68 C 7.0004 1.65997 3.16512 0
M  V30 69 C 6.8294 3.18184 3.17788 0
M  V30 70 C 5.5994 3.87198 3.24662 0
M  V30 71 C 7.7974 4.15334 3.03319 0
M  V30 72 N 5.7794 5.26618 3.15509 0
M  V30 73 C 7.1504 5.41472 3.02007 0
M  V30 74 C 9.2054 4.06449 2.87583 0
M  V30 75 C 7.9084 6.5975 2.86571 0
M  V30 76 C 9.9344 5.24357 2.73503 0
M  V30 77 C 9.2964 6.49404 2.72862 0
M  V30 78 H 5.3954 0.433137 0.651089 0
M  V30 79 H 7.9794 1.5324 1.20107 0
M  V30 80 H 6.1504 1.18863 3.69765 0
M  V30 81 H 7.8824 1.41816 3.79039 0
M  V30 82 H 4.6374 3.38093 3.31648 0
M  V30 83 H 5.0614 5.99626 3.14289 0
M  V30 84 H 9.7034 3.10573 2.86887 0
M  V30 85 H 7.4214 7.55792 2.86015 0
M  V30 86 H 11.0074 5.19299 2.62334 0
M  V30 87 H 9.8874 7.39105 2.62093 0
M  V30 88 N 7.3905 -1.2043 1.01659 0
M  V30 89 C 8.3405 -2.21076 0.557623 0
M  V30 90 C 9.3245 -1.56176 -0.387029 0
M  V30 91 O 10.5165 -1.7575 -0.209996 0
M  V30 92 C 7.6455 -3.43146 -0.102707 0
M  V30 93 C 6.7315 -4.15213 0.863652 0
M  V30 94 N 7.1225 -4.63662 2.02117 0
M  V30 95 C 5.4205 -4.40716 0.684472 0
M  V30 96 C 6.1215 -5.18868 2.62966 0
M  V30 97 N 5.0975 -5.0893 1.91027 0
M  V30 98 H 8.8995 -2.56201 1.44008 0
M  V30 99 H 6.4135 -1.36366 0.881931 0
M  V30 100 H 8.4105 -4.14475 -0.449054 0
M  V30 101 H 7.0705 -3.09526 -0.981003 0
M  V30 102 H 8.0815 -4.58877 2.40109 0
M  V30 103 H 4.7585 -4.17245 -0.14577 0
M  V30 104 H 6.1485 -5.6673 3.60924 0
M  V30 105 N 8.8686 -0.792821 -1.36206 0
M  V30 106 C 10.1146 -0.36733 -1.99446 0
M  V30 107 C 10.4476 1.05917 -1.62774 0
M  V30 108 O 9.7226 1.7324 -0.88421 0
M  V30 109 C 10.0056 -0.535044 -3.56103 0
M  V30 110 C 9.8586 -2.00548 -4.02617 0
M  V30 111 C 11.1776 0.0478191 -4.40074 0
M  V30 112 H 8.2966 -0.134941 -0.724541 0
M  V30 113 H 10.9386 -0.999794 -1.61568 0
M  V30 114 H 9.0886 0.00336329 -3.885 0
M  V30 115 H 10.7606 -2.60521 -3.80692 0
M  V30 116 H 9.0036 -2.50686 -3.54032 0
M  V30 117 H 9.6746 -2.07377 -5.11565 0
M  V30 118 H 12.1506 -0.411822 -4.14057 0
M  V30 119 H 11.0266 -0.0995336 -5.4881 0
M  V30 120 H 11.2876 1.14025 -4.27142 0
M  V30 121 N 10.3467 1.47872 -0.545128 0
M  V30 122 C 11.5927 2.02793 -0.0166104 0
M  V30 123 C 11.9257 1.41987 1.32489 0
M  V30 124 O 11.2007 0.571045 1.85928 0
M  V30 125 C 11.4837 3.59989 0.0893294 0
M  V30 126 C 11.3367 4.3125 -1.27841 0
M  V30 127 C 12.6557 4.32606 0.808724 0
M  V30 128 H 9.7747 0.736962 -0.00751035 0
M  V30 129 H 12.4167 1.76433 -0.705085 0
M  V30 130 H 10.5667 3.82579 0.675681 0
M  V30 131 H 12.2387 4.20035 -1.90704 0
M  V30 132 H 10.4817 3.92076 -1.85632 0
M  V30 133 H 11.1527 5.39736 -1.15713 0
M  V30 134 H 13.6287 4.14936 0.310992 0
M  V30 135 H 12.5047 5.42251 0.851782 0
M  V30 136 H 12.7657 4.00963 1.86229 0
M  V30 137 N 11.8248 0.280983 1.55075 0
M  V30 138 C 13.0718 -0.334115 1.99725 0
M  V30 139 C 13.3998 -1.5542 1.1694 0
M  V30 140 O 12.6548 -1.94361 0.228531 0
M  V30 141 C 12.9538 -0.754656 3.49342 0
M  V30 142 C 12.6198 0.361445 4.49449 0
M  V30 143 C 11.2818 0.667893 4.76542 0
M  V30 144 C 13.6338 1.11322 5.09173 0
M  V30 145 C 10.9618 1.7296 5.60626 0
M  V30 146 C 13.3138 2.1647 5.9441 0
M  V30 147 C 11.9778 2.47742 6.19822 0
M  V30 148 H 11.2478 -0.122261 0.730844 0
M  V30 149 H 13.8948 0.395917 1.87363 0
M  V30 150 H 12.1998 -1.56446 3.5921 0
M  V30 151 H 13.8968 -1.24142 3.813 0
M  V30 152 H 10.4868 0.112481 4.28452 0
M  V30 153 H 14.6708 0.88973 4.8826 0
M  V30 154 H 9.9268 1.97684 5.78559 0
M  V30 155 H 14.1008 2.75193 6.3972 0
M  V30 156 H 11.7278 3.30145 6.84769 0
M  V30 157 N 13.3029 -1.57598 0.00835791 0
M  V30 158 C 14.5519 -1.90107 -0.673968 0
M  V30 159 C 14.8649 -0.884275 -1.7447 0
M  V30 160 O 16.0709 -1.09987 -2.48224 0
M  V30 161 C 14.5269 -3.37497 -1.24995 0
M  V30 162 C 14.1349 -4.47491 -0.2136 0
M  V30 163 C 15.8789 -3.79104 -1.90999 0
M  V30 164 C 13.7859 -5.85963 -0.80005 0
M  V30 165 H 12.7159 -0.709393 -0.255495 0
M  V30 166 H 15.3669 -1.83365 0.0702693 0
M  V30 167 H 13.7489 -3.39102 -2.04513 0
M  V30 168 H 14.9229 -4.57414 0.557596 0
M  V30 169 H 13.2379 -4.14956 0.346474 0
M  V30 170 H 15.8349 -4.79901 -2.35795 0
M  V30 171 H 16.1779 -3.1306 -2.74407 0
M  V30 172 H 16.7109 -3.79833 -1.18203 0
M  V30 173 H 13.4499 -6.555 -0.00456708 0
M  V30 174 H 12.9699 -5.79687 -1.54021 0
M  V30 175 H 14.6489 -6.33884 -1.29615 0
M  V30 176 N 14.781 0.264519 -1.55364 0
M  V30 177 C 15.744 1.31046 -1.88042 0
M  V30 178 C 16.744 1.41943 -0.755569 0
M  V30 179 O 17.934 1.40947 -1.02369 0
M  V30 180 C 15.066 2.69067 -2.09323 0
M  V30 181 H 16.259 1.03297 -2.81549 0
M  V30 182 H 13.812 0.502989 -1.47986 0
M  V30 183 H 14.547 3.01982 -1.18226 0
M  V30 184 H 14.332 2.62542 -2.91229 0
M  V30 185 H 15.822 3.44623 -2.35848 0
M  V30 186 N 16.2591 1.48442 0.529413 0
M  V30 187 C 17.1891 1.65902 1.64313 0
M  V30 188 C 18.1701 0.507897 1.6234 0
M  V30 189 O 19.3551 0.740503 1.79528 0
M  V30 190 C 16.4851 1.69911 3.02898 0
M  V30 191 C 15.4391 2.8453 3.19729 0
M  V30 192 C 14.7651 2.73629 4.59381 0
M  V30 193 C 16.0651 4.25821 3.02447 0
M  V30 194 H 17.7591 2.5914 1.49955 0
M  V30 195 H 15.3051 1.24709 0.719982 0
M  V30 196 H 17.2581 1.80715 3.80684 0
M  V30 197 H 15.9821 0.732524 3.18279 0
M  V30 198 H 14.6411 2.73283 2.44361 0
M  V30 199 H 14.2891 1.74938 4.71599 0
M  V30 200 H 13.9891 3.50541 4.71588 0
M  V30 201 H 15.5131 2.86401 5.39265 0
M  V30 202 H 16.9271 4.37898 3.70024 0
M  V30 203 H 15.3241 5.03735 3.26146 0
M  V30 204 H 16.3941 4.42244 1.98867 0
M  V30 205 N 17.7372 -0.778329 1.37039 0
M  V30 206 C 18.6672 -1.90546 1.34962 0
M  V30 207 C 19.6482 -1.68681 0.219274 0
M  V30 208 O 20.8332 -1.89634 0.418624 0
M  V30 209 C 17.9632 -3.27734 1.14925 0
M  V30 210 C 16.9172 -3.64147 2.24902 0
M  V30 211 C 16.2432 -4.99806 1.89996 0
M  V30 212 C 17.5432 -3.71579 3.67051 0
M  V30 213 H 19.2372 -1.92541 2.29277 0
M  V30 214 H 16.7832 -0.924948 1.10366 0
M  V30 215 H 18.7362 -4.06215 1.12104 0
M  V30 216 H 17.4602 -3.26154 0.170631 0
M  V30 217 H 16.1192 -2.8797 2.26868 0
M  V30 218 H 15.7672 -4.94759 0.906796 0
M  V30 219 H 15.4672 -5.25139 2.63634 0
M  V30 220 H 16.9912 -5.80694 1.88749 0
M  V30 221 H 18.4052 -4.40227 3.67251 0
M  V30 222 H 16.8022 -4.08405 4.39688 0
M  V30 223 H 17.8722 -2.72404 4.01154 0
M  V30 224 N 19.2153 -1.21501 -1.00376 0
M  V30 225 C 20.4403 -1.05977 -1.78279 0
M  V30 226 C 20.8653 0.385994 -1.84097 0
M  V30 227 O 20.2233 1.27849 -1.28547 0
M  V30 228 C 20.2713 -1.66302 -3.19963 0
M  V30 229 O 19.3753 -0.909333 -4.0225 0
M  V30 230 H 18.7163 -0.372906 -0.549397 0
M  V30 231 H 21.2463 -1.6107 -1.26165 0
M  V30 232 H 21.2563 -1.70574 -3.70632 0
M  V30 233 H 19.9313 -2.71515 -3.15043 0
M  V30 234 H 18.5083 -0.941795 -3.60811 0
M  V30 235 N 20.6934 1.19889 -1.02296 0
M  V30 236 C 21.9404 1.8942 -0.715972 0
M  V30 237 C 22.2684 1.79251 0.754944 0
M  V30 238 O 21.5234 1.17526 1.56481 0
M  V30 239 C 21.8224 3.39883 -1.10518 0
M  V30 240 C 21.4884 3.70254 -2.57337 0
M  V30 241 C 20.1504 3.78254 -2.97452 0
M  V30 242 C 22.5024 3.84052 -3.52354 0
M  V30 243 C 19.8304 3.97514 -4.31509 0
M  V30 244 C 22.1824 4.04824 -4.86108 0
M  V30 245 C 20.8464 4.11054 -5.25919 0
M  V30 246 H 20.1164 0.693138 -0.261993 0
M  V30 247 H 22.7634 1.42012 -1.28472 0
M  V30 248 H 21.0684 3.8915 -0.454953 0
M  V30 249 H 22.7654 3.9199 -0.845261 0
M  V30 250 H 19.3554 3.64632 -2.25258 0
M  V30 251 H 23.5394 3.77221 -3.22518 0
M  V30 252 H 18.7954 4.00574 -4.61898 0
M  V30 253 H 22.9694 4.14442 -5.59653 0
M  V30 254 H 20.5964 4.2573 -6.29808 0
M  V30 255 N 22.1715 0.800033 1.35784 0
M  V30 256 C 23.3965 0.388511 2.03729 0
M  V30 257 C 23.8215 -0.990481 1.5991 0
M  V30 258 O 23.1795 -1.64013 0.772612 0
M  V30 259 C 23.2275 0.4726 3.5749 0
M  V30 260 O 22.3315 -0.51646 4.09153 0
M  V30 261 H 21.6725 0.163271 0.643614 0
M  V30 262 H 24.2025 1.0841 1.73518 0
M  V30 263 H 24.2125 0.34003 4.06581 0
M  V30 264 H 22.8875 1.47848 3.88734 0
M  V30 265 H 21.4645 -0.344673 3.71304 0
M  V30 266 N 23.6496 -1.47581 0.552962 0
M  V30 267 C 24.8896 -2.04379 0.0296245 0
M  V30 268 C 25.2536 -1.4185 -1.29393 0
M  V30 269 O 26.4546 -1.89669 -1.90471 0
M  V30 270 C 24.7256 -3.57339 -0.0661371 0
M  V30 271 S 26.2846 -4.35511 -0.536213 0
M  V30 272 H 23.1026 -0.710625 0.0230991 0
M  V30 273 H 25.7046 -1.81005 0.738734 0
M  V30 274 H 24.4086 -4.00374 0.901596 0
M  V30 275 H 23.9396 -3.85202 -0.798931 0
M  V30 276 H 25.9546 -4.6253 -1.79668 0
M  V30 277 N 25.1277 -0.289203 -1.54924 0
M  V30 278 C 26.3737 0.316922 -2.00916 0
M  V30 279 C 26.7287 1.52424 -1.17408 0
M  V30 280 O 26.0217 1.90097 -0.239536 0
M  V30 281 C 26.2157 0.736119 -3.49737 0
M  V30 282 C 26.0447 -0.429036 -4.47649 0
M  V30 283 C 24.8147 -0.917311 -4.96904 0
M  V30 284 C 27.0127 -1.27016 -4.98369 0
M  V30 285 N 24.9947 -2.05046 -5.78644 0
M  V30 286 C 26.3657 -2.25097 -5.77695 0
M  V30 287 C 28.4207 -1.30188 -4.80578 0
M  V30 288 C 27.1237 -3.26114 -6.41126 0
M  V30 289 C 29.1497 -2.30057 -5.44819 0
M  V30 290 C 28.5117 -3.2687 -6.23968 0
M  V30 291 H 24.6107 0.0807535 -0.777819 0
M  V30 292 H 27.1947 -0.416434 -1.90194 0
M  V30 293 H 25.3657 1.43867 -3.60773 0
M  V30 294 H 27.0977 1.32078 -3.82541 0
M  V30 295 H 23.8527 -0.494248 -4.71014 0
M  V30 296 H 24.2767 -2.62108 -6.24202 0
M  V30 297 H 28.9187 -0.567163 -4.18979 0
M  V30 298 H 26.6367 -4.00512 -7.01866 0
M  V30 299 H 30.2227 -2.33271 -5.32988 0
M  V30 300 H 29.1027 -4.02883 -6.72796 0
M  V30 301 N 26.6058 1.57591 -0.0167156 0
M  V30 302 C 27.8538 1.90906 0.663285 0
M  V30 303 C 28.1748 0.892509 1.73376 0
M  V30 304 O 27.4448 -0.0677623 1.95783 0
M  V30 305 H 26.0248 0.704637 0.247983 0
M  V30 306 H 28.6868 1.94803 -0.0615909 0
M  V30 307 H 27.7828 2.9116 1.12393 0
M  V30 308 N 28.0839 -0.256276 1.55502 0
M  V30 309 C 29.3089 -1.00766 1.81276 0
M  V30 310 C 29.7339 -1.78524 0.59252 0
M  V30 311 O 29.0919 -1.75413 -0.45827 0
M  V30 312 C 29.1399 -1.92869 3.04687 0
M  V30 313 O 28.2439 -3.019 2.80945 0
M  V30 314 H 27.5849 -0.287224 0.598664 0
M  V30 315 H 30.1149 -0.280109 2.02674 0
M  V30 316 H 30.1249 -2.34511 3.33869 0
M  V30 317 H 28.7999 -1.35689 3.93143 0
M  V30 318 H 27.3769 -2.64454 2.62904 0
M  V30 319 N 29.562 -1.4872 -0.521534 0
M  V30 320 C 30.839 -1.4766 -1.2828 0
M  V30 321 C 31.219 -0.19292 -2.10217 0
M  V30 322 O 30.567 0.825193 -2.13079 0
M  V30 323 C 30.777 -2.74358 -2.15705 0
M  V30 324 C 32.125 -3.23028 -2.75569 0
M  V30 325 O 33.149 -2.75333 -2.25987 0
M  V30 326 O 32.008 -4.0604 -3.65778 0
M  V30 327 H 29.102 -0.590085 -0.579421 0
M  V30 328 H 31.648 -1.60963 -0.537492 0
M  V30 329 H 30.42 -3.59292 -1.54999 0
M  V30 330 H 30.043 -2.63816 -2.97467 0
M  V30 331 N 31.0401 0.771051 -1.3745 0
M  V30 332 C 32.2861 1.53109 -1.339 0
M  V30 333 C 32.6411 1.9225 0.0758401 0
M  V30 334 O 31.9341 1.61264 1.03463 0
M  V30 335 C 32.1281 2.80676 -2.2126 0
M  V30 336 C 31.9571 2.54003 -3.71096 0
M  V30 337 C 30.7271 2.48097 -4.402 0
M  V30 338 C 32.9251 2.21953 -4.63941 0
M  V30 339 N 30.9071 2.13515 -5.75573 0
M  V30 340 C 32.2781 1.97516 -5.87697 0
M  V30 341 C 34.3331 2.08114 -4.5232 0
M  V30 342 C 33.0361 1.60638 -7.01133 0
M  V30 343 C 35.0621 1.72636 -5.65642 0
M  V30 344 C 34.4241 1.4906 -6.88448 0
M  V30 345 H 30.5231 0.56055 -0.54526 0
M  V30 346 H 33.1071 0.899472 -1.72678 0
M  V30 347 H 31.2781 3.41674 -1.84698 0
M  V30 348 H 33.0101 3.46578 -2.08963 0
M  V30 349 H 29.7651 2.63974 -3.93211 0
M  V30 350 H 30.1891 1.98919 -6.47117 0
M  V30 351 H 34.8311 2.25024 -3.57944 0
M  V30 352 H 32.5491 1.42467 -7.95443 0
M  V30 353 H 36.1351 1.62586 -5.58621 0
M  V30 354 H 35.0151 1.22014 -7.7465 0
M  V30 355 N 32.5182 1.22032 0.997298 0
M  V30 356 C 33.4282 1.00271 2.12092 0
M  V30 357 C 34.4442 -0.047621 1.73935 0
M  V30 358 O 35.6202 0.144136 2.00884 0
M  V30 359 C 32.6852 0.578449 3.4184 0
M  V30 360 C 31.7462 1.70189 3.94125 0
M  V30 361 C 30.9792 1.29778 5.17681 0
M  V30 362 O 31.2022 0.174676 5.70132 0
M  V30 363 O 30.1362 2.11261 5.63607 0
M  V30 364 H 33.9622 1.94398 2.3333 0
M  V30 365 H 31.5472 1.00587 1.10465 0
M  V30 366 H 33.4292 0.351998 4.19927 0
M  V30 367 H 32.1042 -0.334019 3.21972 0
M  V30 368 H 31.0112 1.98282 3.1723 0
M  V30 369 H 32.3442 2.59206 4.18417 0
M  V30 370 N 33.9963 -1.19345 1.0293 0
M  V30 371 C 35.2213 -1.93538 0.745511 0
M  V30 372 C 35.6463 -1.75007 -0.689511 0
M  V30 373 O 35.0043 -1.05265 -1.47611 0
M  V30 374 C 35.0523 -3.43336 1.10239 0
M  V30 375 O 34.1563 -4.11806 0.221289 0
M  V30 376 H 33.4973 -0.604193 0.275404 0
M  V30 377 H 36.0273 -1.5141 1.37609 0
M  V30 378 H 36.0373 -3.94004 1.05947 0
M  V30 379 H 34.7123 -3.56146 2.14786 0
M  V30 380 H 33.2893 -3.715 0.322842 0
M  V30 381 N 35.4744 -0.807222 -1.35358 0
M  V30 382 C 36.7514 -0.311126 -1.9311 0
M  V30 383 C 37.1314 1.19937 -1.73719 0
M  V30 384 O 36.4794 1.99918 -1.10657 0
M  V30 385 C 36.6894 -0.723226 -3.41424 0
M  V30 386 C 38.0374 -0.713078 -4.18569 0
M  V30 387 O 39.0614 -0.664811 -3.49941 0
M  V30 388 O 37.9204 -0.772022 -5.41019 0
M  V30 389 H 35.0144 -0.081526 -0.822972 0
M  V30 390 H 37.5604 -0.890962 -1.4443 0
M  V30 391 H 36.3324 -1.76426 -3.4927 0
M  V30 392 H 35.9554 -0.118232 -3.97424 0
M  V30 393 N 36.9525 1.47285 -0.560781 0
M  V30 394 C 38.3685 1.58065 -0.22081 0
M  V30 395 C 38.5685 1.55892 1.27671 0
M  V30 396 O 37.6245 1.46422 2.0571 0
M  V30 397 C 38.9375 2.88418 -0.850625 0
M  V30 398 C 40.4855 3.02009 -0.822184 0
M  V30 399 C 40.9605 4.35066 -1.43113 0
M  V30 400 N 42.4515 4.41711 -1.39448 0
M  V30 401 C 43.1865 5.43237 -1.83525 0
M  V30 402 N 42.6825 6.51555 -2.35474 0
M  V30 403 N 44.4755 5.34304 -1.74574 0
M  V30 404 H 36.6265 1.46941 -1.53369 0
M  V30 405 H 38.8895 0.699558 -0.639783 0
M  V30 406 H 38.5955 2.95755 -1.9032 0
M  V30 407 H 38.4695 3.75612 -0.345773 0
M  V30 408 H 40.8565 2.94266 0.221714 0
M  V30 409 H 40.9375 2.16347 -1.36483 0
M  V30 410 H 40.5815 4.43565 -2.47412 0
M  V30 411 H 40.5115 5.19465 -0.863899 0
M  V30 412 H 43.0025 3.64027 -1.01452 0
M  V30 413 H 43.3155 7.25203 -2.67021 0
M  V30 414 H 41.6605 6.52435 -2.39487 0
M  V30 415 H 44.8515 4.48581 -1.33763 0
M  V30 416 H 45.0245 6.13288 -2.09242 0
M  V30 417 N 38.4306 0.297415 1.54768 0
M  V30 418 C 39.3786 -0.596051 2.24833 0
M  V30 419 C 40.3726 -1.13992 1.25308 0
M  V30 420 O 41.5786 -1.09098 1.4317 0
M  V30 421 H 37.9536 -0.210814 0.721846 0
M  V30 422 H 39.9246 0.0174667 2.98395 0
M  V30 423 C 38.6736 -1.75818 2.99972 0
M  V30 424 H 37.9966 -1.3489 3.76357 0
M  V30 425 H 39.4366 -2.35949 3.52284 0
M  V30 426 C 37.8956 -2.66014 2.06732 0
M  V30 427 O 38.4256 -3.67009 1.63302 0
M  V30 428 N 36.6316 -2.33669 1.72763 0
M  V30 429 H 36.1786 -1.51586 2.08277 0
M  V30 430 H 36.1366 -2.94285 1.10652 0
M  V30 431 N 39.9087 -1.5758 0.0250728 0
M  V30 432 C 41.1557 -1.91633 -0.654444 0
M  V30 433 C 41.4837 -0.901103 -1.72367 0
M  V30 434 O 40.7387 0.0905647 -1.9549 0
M  V30 435 C 41.0377 -3.32421 -1.31268 0
M  V30 436 C 40.7037 -4.49344 -0.374223 0
M  V30 437 C 39.3657 -4.8106 -0.115911 0
M  V30 438 C 41.7177 -5.20498 0.270432 0
M  V30 439 C 39.0457 -5.8129 0.79493 0
M  V30 440 C 41.3977 -6.21699 1.1693 0
M  V30 441 C 40.0617 -6.51859 1.43655 0
M  V30 442 H 39.3317 -0.701236 -0.239478 0
M  V30 443 H 41.9787 -1.91307 0.0859734 0
M  V30 444 H 40.2837 -3.28989 -2.12775 0
M  V30 445 H 41.9807 -3.56038 -1.84494 0
M  V30 446 H 38.5707 -4.24579 -0.58573 0
M  V30 447 H 42.7547 -4.96229 0.0839194 0
M  V30 448 H 38.0107 -6.03005 1.00973 0
M  V30 449 H 42.1847 -6.75955 1.67504 0
M  V30 450 H 39.8117 -7.2934 2.144 0
M  V30 451 N 41.3868 0.248026 -1.55636 0
M  V30 452 C 42.6358 0.974134 -1.76617 0
M  V30 453 C 42.9488 1.86528 -0.588796 0
M  V30 454 O 44.1548 2.62805 -0.681594 0
M  V30 455 C 42.6108 1.78213 -3.12679 0
M  V30 456 C 42.2188 0.93843 -4.38061 0
M  V30 457 C 43.9628 2.50104 -3.42999 0
M  V30 458 C 41.8698 1.74225 -5.65155 0
M  V30 459 H 40.7998 0.36745 -0.658405 0
M  V30 460 H 43.4508 0.22884 -1.82067 0
M  V30 461 H 41.8328 2.56933 -3.01333 0
M  V30 462 H 43.0068 0.193635 -4.60393 0
M  V30 463 H 41.3218 0.332905 -4.15067 0
M  V30 464 H 43.9188 3.10694 -4.3517 0
M  V30 465 H 44.2618 3.21662 -2.64271 0
M  V30 466 H 44.7948 1.78395 -3.55556 0
M  V30 467 H 41.5338 1.07043 -6.46701 0
M  V30 468 H 41.0538 2.46235 -5.46926 0
M  V30 469 H 42.7328 2.30967 -6.0437 0
M  V30 470 N 42.8649 1.48995 0.513639 0
M  V30 471 C 44.0899 1.61792 1.29762 0
M  V30 472 C 44.5149 0.284475 1.85936 0
M  V30 473 O 43.8729 -0.746185 1.65232 0
M  V30 474 C 43.9209 2.67993 2.41272 0
M  V30 475 O 43.0249 2.26287 3.44772 0
M  V30 476 H 42.3659 0.541963 0.38363 0
M  V30 477 H 44.8959 1.95097 0.616307 0
M  V30 478 H 44.9059 2.89772 2.87221 0
M  V30 479 H 43.5809 3.64791 1.9975 0
M  V30 480 H 42.1579 2.14788 3.04829 0
M  V30 481 N 44.343 -0.763751 1.37857 0
M  V30 482 C 45.571 -1.55293 1.36718 0
M  V30 483 C 45.986 -1.88745 -0.0455434 0
M  V30 484 O 45.343 -1.52039 -1.00947 0
M  V30 485 C 45.394 -2.85831 2.2132 0
M  V30 486 O 45.115 -2.5381 3.57089 0
M  V30 487 C 46.616 -3.80023 2.28249 0
M  V30 488 H 43.836 -0.480841 0.468009 0
M  V30 489 H 46.38 -0.946009 1.81303 0
M  V30 490 H 44.535 -3.42926 1.80223 0
M  V30 491 H 44.949 -3.37459 4.01524 0
M  V30 492 H 46.423 -4.68599 2.91752 0
M  V30 493 H 46.9 -4.1973 1.2932 0
M  V30 494 H 47.506 -3.28855 2.69693 0
M  V30 495 N 45.8211 -1.22559 -0.990812 0
M  V30 496 C 46.7841 -0.998863 -2.0629 0
M  V30 497 C 47.7841 0.0354834 -1.60761 0
M  V30 498 O 48.9741 -0.203231 -1.7301 0
M  V30 499 C 46.1061 -0.509203 -3.37076 0
M  V30 500 H 47.2991 -1.95014 -2.27837 0
M  V30 501 H 44.8521 -1.04456 -1.16269 0
M  V30 502 H 45.5871 0.446335 -3.21214 0
M  V30 503 H 45.3721 -1.25547 -3.71457 0
M  V30 504 H 46.8621 -0.370888 -4.1595 0
M  V30 505 N 47.2992 1.18797 -1.03562 0
M  V30 506 C 48.5472 1.88278 -0.734569 0
M  V30 507 C 48.8682 1.8043 0.739586 0
M  V30 508 O 48.1382 1.21925 1.53333 0
M  V30 509 H 46.7182 0.696991 -0.268725 0
M  V30 510 H 49.3802 1.44192 -1.31129 0
M  V30 511 H 48.4762 2.94443 -1.03489 0
M  V30 512 N 48.7773 0.814389 1.34928 0
M  V30 513 C 50.1883 0.458364 1.80986 0
M  V30 514 C 50.5393 -1.02042 1.67577 0
M  V30 515 O 49.6643 -1.79352 1.21086 0
M  V30 516 C 50.2593 0.825212 3.28597 0
M  V30 517 C 48.8183 0.521677 3.72767 0
M  V30 518 C 47.9653 1.04668 2.56788 0
M  V30 519 H 50.9163 1.00533 1.22795 0
M  V30 520 H 50.9373 0.12571 3.80292 0
M  V30 521 H 50.4493 1.90154 3.38324 0
M  V30 522 H 48.5503 -0.545589 3.68584 0
M  V30 523 H 48.6633 1.05977 4.67232 0
M  V30 524 H 47.0273 0.468622 2.50352 0
M  V30 525 H 47.8103 2.12927 2.6929 0
M  V30 526 N 50.2554 -1.46986 0.568584 0
M  V30 527 C 51.1854 -2.32946 -0.160753 0
M  V30 528 C 52.1664 -1.44487 -0.897631 0
M  V30 529 O 53.3514 -1.73327 -0.875867 0
M  V30 530 C 50.4814 -3.26494 -1.18403 0
M  V30 531 C 49.4354 -4.24282 -0.562895 0
M  V30 532 C 48.7614 -5.07236 -1.69163 0
M  V30 533 C 50.0614 -5.19989 0.490761 0
M  V30 534 H 51.7554 -2.94175 0.556916 0
M  V30 535 H 49.3014 -1.4146 0.26927 0
M  V30 536 H 51.2544 -3.85477 -1.70251 0
M  V30 537 H 49.9784 -2.63343 -1.93179 0
M  V30 538 H 48.6374 -3.66541 -0.0656164 0
M  V30 539 H 48.2854 -4.4048 -2.42871 0
M  V30 540 H 47.9854 -5.7345 -1.28174 0
M  V30 541 H 49.5094 -5.6908 -2.21314 0
M  V30 542 H 50.9234 -5.73271 0.0579047 0
M  V30 543 H 49.3204 -5.94469 0.820165 0
M  V30 544 H 50.3904 -4.64777 1.3824 0
M  V30 545 N 51.7335 -0.305618 -1.54608 0
M  V30 546 C 52.9615 0.304775 -2.04643 0
M  V30 547 C 53.3765 1.47167 -1.18268 0
M  V30 548 O 52.7335 1.81296 -0.209328 0
M  V30 549 C 52.7845 0.756564 -3.53495 0
M  V30 550 O 52.5055 -0.36389 -4.36586 0
M  V30 551 C 54.0065 1.43163 -4.19546 0
M  V30 552 H 51.2265 0.0655481 -0.667791 0
M  V30 553 H 53.7705 -0.446592 -1.99564 0
M  V30 554 H 51.9255 1.45794 -3.58919 0
M  V30 555 H 52.3395 -0.0113121 -5.24499 0
M  V30 556 H 53.8135 1.69886 -5.25207 0
M  V30 557 H 54.2905 2.37318 -3.69563 0
M  V30 558 H 54.8965 0.773307 -4.18211 0
M  V30 559 N 53.2116 1.57565 -0.0334293 0
M  V30 560 C 54.1596 2.1164 0.96496 0
M  V30 561 C 55.1536 1.04398 1.33407 0
M  V30 562 O 56.3596 1.22828 1.3158 0
M  V30 563 H 52.7346 0.676222 0.32898 0
M  V30 564 H 54.7056 2.94455 0.483614 0
M  V30 565 C 53.4546 2.66207 2.23672 0
M  V30 566 H 52.7776 3.48378 1.96145 0
M  V30 567 H 54.2176 3.07685 2.9173 0
M  V30 568 C 52.6766 1.59151 2.96939 0
M  V30 569 O 53.2066 0.993858 3.89211 0
M  V30 570 N 51.4126 1.31093 2.59351 0
M  V30 571 H 50.9596 1.7988 1.84393 0
M  V30 572 H 50.9176 0.596889 3.08682 0
M  V30 573 N 54.6897 -0.239769 1.55765 0
M  V30 574 C 55.9667 -0.990056 1.68693 0
M  V30 575 C 56.3467 -2.03107 0.5754 0
M  V30 576 O 55.6947 -2.24604 -0.42017 0
M  V30 577 C 55.9047 -1.61696 3.09282 0
M  V30 578 C 57.2527 -2.11613 3.6811 0
M  V30 579 O 58.2767 -1.71624 3.12127 0
M  V30 580 O 57.1357 -2.85057 4.66267 0
M  V30 581 H 54.2297 -0.461299 0.686391 0
M  V30 582 H 56.7757 -0.232991 1.68093 0
M  V30 583 H 55.5477 -0.864357 3.81634 0
M  V30 584 H 55.1707 -2.44005 3.13923 0
M  V30 585 N 56.1678 -1.49265 -0.50573 0
M  V30 586 C 57.0978 -1.68495 -1.61653 0
M  V30 587 C 58.0788 -0.53366 -1.61512 0
M  V30 588 O 59.2638 -0.76897 -1.78327 0
M  V30 589 C 56.3938 -1.74709 -3.00157 0
M  V30 590 C 55.3478 -2.89581 -3.15162 0
M  V30 591 C 54.6738 -2.80903 -4.5497 0
M  V30 592 C 55.9738 -4.30578 -2.95634 0
M  V30 593 H 57.6678 -2.61493 -1.45814 0
M  V30 594 H 55.2138 -1.25838 -0.70005 0
M  V30 595 H 57.1668 -1.86748 -3.77761 0
M  V30 596 H 55.8908 -0.783067 -3.17074 0
M  V30 597 H 54.5498 -2.77136 -2.39982 0
M  V30 598 H 54.1978 -1.82419 -4.68756 0
M  V30 599 H 53.8978 -3.57999 -4.65951 0
M  V30 600 H 55.4218 -2.94944 -5.34641 0
M  V30 601 H 56.8358 -4.4373 -3.63011 0
M  V30 602 H 55.2328 -5.0886 -3.18091 0
M  V30 603 H 56.3028 -4.45352 -1.91806 0
M  V30 604 N 57.6459 0.756429 -1.3826 0
M  V30 605 C 58.5759 1.88374 -1.37976 0
M  V30 606 C 59.5569 1.68311 -0.246082 0
M  V30 607 O 60.7419 1.88944 -0.44874 0
M  V30 608 C 57.8719 3.25864 -1.20125 0
M  V30 609 C 56.8259 3.60523 -2.30666 0
M  V30 610 C 56.1519 4.9672 -1.97923 0
M  V30 611 C 57.4519 3.65692 -3.72916 0
M  V30 612 H 59.1459 1.88869 -2.32312 0
M  V30 613 H 56.6919 0.907272 -1.11824 0
M  V30 614 H 58.6449 4.0438 -1.18552 0
M  V30 615 H 57.3689 3.25841 -0.222498 0
M  V30 616 H 56.0279 2.84324 -2.3142 0
M  V30 617 H 55.6759 4.93253 -0.985393 0
M  V30 618 H 55.3759 5.20878 -2.71955 0
M  V30 619 H 56.8999 5.77618 -1.97964 0
M  V30 620 H 58.3139 4.34328 -3.74208 0
M  V30 621 H 56.7109 4.01358 -4.4613 0
M  V30 622 H 57.7809 2.65987 -4.05436 0
M  V30 623 N 59.124 1.23083 0.984299 0
M  V30 624 C 60.074 0.975749 2.06066 0
M  V30 625 C 61.058 -0.0768251 1.60716 0
M  V30 626 O 62.25 0.134805 1.76486 0
M  V30 627 C 59.379 0.564673 3.38624 0
M  V30 628 C 58.465 1.65244 3.90583 0
M  V30 629 N 58.856 2.88193 4.15666 0
M  V30 630 C 57.154 1.52612 4.19077 0
M  V30 631 C 57.855 3.58593 4.58024 0
M  V30 632 N 56.831 2.86093 4.62225 0
M  V30 633 H 60.633 1.90957 2.23411 0
M  V30 634 H 58.147 1.12963 1.16675 0
M  V30 635 H 60.144 0.36322 4.15315 0
M  V30 636 H 58.804 -0.362147 3.22674 0
M  V30 637 H 59.815 3.24537 4.03604 0
M  V30 638 H 56.492 0.666121 4.12152 0
M  V30 639 H 57.882 4.63974 4.85982 0
M  V30 640 N 60.6021 -1.18246 1.0419 0
M  V30 641 C 61.5501 -2.23968 0.627792 0
M  V30 642 C 62.5441 -1.65828 -0.346019 0
M  V30 643 O 63.7501 -1.78733 -0.213175 0
M  V30 644 H 60.1251 -0.728939 0.184802 0
M  V30 645 H 62.0961 -2.56202 1.52981 0
M  V30 646 C 60.8451 -3.47699 0.00796591 0
M  V30 647 H 60.1681 -3.92734 0.748347 0
M  V30 648 H 61.6081 -4.23294 -0.24455 0
M  V30 649 C 60.0671 -3.13153 -1.24246 0
M  V30 650 O 60.5971 -3.27003 -2.33307 0
M  V30 651 N 58.8031 -2.67467 -1.13622 0
M  V30 652 H 58.3501 -2.56396 -0.248734 0
M  V30 653 H 58.3081 -2.44724 -1.97377 0
M  V30 654 N 62.0802 -0.821533 -1.34494 0
M  V30 655 C 63.0102 -0.257138 -2.3208 0
M  V30 656 C 63.9912 0.625645 -1.58176 0
M  V30 657 O 65.1762 0.552811 -1.86166 0
M  V30 658 C 62.3062 0.582958 -3.42372 0
M  V30 659 C 61.2602 -0.202571 -4.2752 0
M  V30 660 C 60.5862 0.760179 -5.29269 0
M  V30 661 C 61.8862 -1.40998 -5.02908 0
M  V30 662 H 63.5802 -1.07247 -2.79532 0
M  V30 663 H 61.1262 -0.517163 -1.34393 0
M  V30 664 H 63.0792 0.987972 -4.09655 0
M  V30 665 H 61.8032 1.43133 -2.93565 0
M  V30 666 H 60.4622 -0.588936 -3.61838 0
M  V30 667 H 60.1102 1.60447 -4.76724 0
M  V30 668 H 59.8102 0.238809 -5.87115 0
M  V30 669 H 61.3342 1.16308 -5.9942 0
M  V30 670 H 62.7482 -1.07905 -5.63054 0
M  V30 671 H 61.1452 -1.86689 -5.70322 0
M  V30 672 H 62.2152 -2.1889 -4.32684 0
M  V30 673 N 63.5583 1.46682 -0.576371 0
M  V30 674 C 64.7833 2.07304 -0.0630475 0
M  V30 675 C 65.2083 1.42329 1.2298 0
M  V30 676 O 64.5663 0.504865 1.74129 0
M  V30 677 C 64.6143 3.60472 0.095895 0
M  V30 678 O 63.7183 3.95927 1.15394 0
M  V30 679 H 63.0593 0.661288 -0.0599463 0
M  V30 680 H 65.5893 1.88417 -0.797511 0
M  V30 681 H 65.5993 4.06865 0.304071 0
M  V30 682 H 64.2743 4.07157 -0.84828 0
M  V30 683 H 62.8513 3.61252 0.924724 0
M  V30 684 N 65.0364 0.313813 1.54444 0
M  V30 685 C 66.2844 -0.291099 1.99993 0
M  V30 686 C 66.6054 -1.53418 1.20366 0
M  V30 687 O 65.8754 -1.93544 0.302927 0
M  V30 688 H 64.4554 -0.110552 0.738774 0
M  V30 689 H 67.1174 0.428106 1.9014 0
M  V30 690 H 66.2134 -0.554268 3.07139 0
M  V30 691 N 66.5145 -1.57545 0.0417849 0
M  V30 692 C 67.4445 -2.14009 -0.933929 0
M  V30 693 C 68.4255 -1.05938 -1.33083 0
M  V30 694 O 69.6105 -1.33833 -1.40721 0
M  V30 695 C 66.7405 -2.67747 -2.21199 0
M  V30 696 C 65.6945 -3.80718 -1.95544 0
M  V30 697 C 65.0205 -4.20935 -3.29724 0
M  V30 698 C 66.3205 -5.06258 -1.28452 0
M  V30 699 H 68.0145 -2.95788 -0.463645 0
M  V30 700 H 65.5605 -1.42285 -0.221573 0
M  V30 701 H 67.5135 -3.05886 -2.89848 0
M  V30 702 H 66.2375 -1.83147 -2.70416 0
M  V30 703 H 64.8965 -3.43037 -1.2931 0
M  V30 704 H 64.5445 -3.33298 -3.76724 0
M  V30 705 H 64.2445 -4.9707 -3.13361 0
M  V30 706 H 65.7685 -4.61666 -3.9962 0
M  V30 707 H 67.1825 -5.41903 -1.8712 0
M  V30 708 H 65.5795 -5.87475 -1.22445 0
M  V30 709 H 66.6495 -4.84207 -0.259219 0
M  V30 710 N 67.9926 0.231505 -1.5589 0
M  V30 711 C 68.9226 1.29022 -1.94617 0
M  V30 712 C 69.9036 1.4941 -0.813067 0
M  V30 713 O 71.0886 1.6176 -1.07459 0
M  V30 714 C 68.2186 2.64199 -2.25424 0
M  V30 715 C 67.1726 2.58484 -3.41131 0
M  V30 716 C 66.4986 3.97599 -3.57518 0
M  V30 717 C 67.7986 2.1413 -4.76388 0
M  V30 718 H 69.4926 0.968563 -2.83301 0
M  V30 719 H 67.0386 0.464479 -1.36303 0
M  V30 720 H 68.9916 3.38413 -2.51107 0
M  V30 721 H 67.7156 2.98032 -1.33583 0
M  V30 722 H 66.3746 1.86727 -3.15481 0
M  V30 723 H 66.0226 4.28723 -2.6307 0
M  V30 724 H 65.7226 3.94659 -4.35337 0
M  V30 725 H 67.2466 4.7349 -3.85538 0
M  V30 726 H 68.6606 2.78083 -5.01341 0
M  V30 727 H 67.0576 2.2227 -5.57419 0
M  V30 728 H 68.1276 1.09331 -4.72414 0
M  V30 729 N 69.4707 1.49531 0.497807 0
M  V30 730 C 70.7187 1.58865 1.24926 0
M  V30 731 C 71.0397 0.278721 1.92998 0
M  V30 732 O 70.3097 -0.702144 1.82885 0
M  V30 733 H 68.8897 0.585343 0.464094 0
M  V30 734 H 71.5517 1.86174 0.57666 0
M  V30 735 H 70.6477 2.38633 2.01149 0
M  V30 736 N 70.9488 -0.749086 1.3866 0
M  V30 737 C 72.2258 -1.4992 1.25632 0
M  V30 738 C 72.6058 -2.10633 -0.140317 0
M  V30 739 O 71.9538 -1.97437 -1.15025 0
M  V30 740 C 72.1638 -2.56195 2.36992 0
M  V30 741 C 73.5118 -3.22972 2.75634 0
M  V30 742 O 74.5358 -2.66502 2.36337 0
M  V30 743 O 73.3948 -4.25122 3.43415 0
M  V30 744 H 70.4888 -0.665067 0.491544 0
M  V30 745 H 73.0348 -0.784113 1.50498 0
M  V30 746 H 71.8068 -2.09612 3.30422 0
M  V30 747 H 71.4298 -3.35279 2.13714 0
M  V30 748 N 72.4269 -1.23603 -0.977757 0
M  V30 749 C 73.3589 -0.977369 -2.07317 0
M  V30 750 C 74.3719 0.0495845 -1.62724 0
M  V30 751 O 75.5609 -0.186261 -1.77526 0
M  V30 752 C 72.6609 -0.451216 -3.35883 0
M  V30 753 C 71.8339 -1.53896 -4.09432 0
M  V30 754 C 70.8929 -1.01721 -5.16274 0
M  V30 755 O 69.9189 -1.70676 -5.43009 0
M  V30 756 N 71.1209 0.153594 -5.80297 0
M  V30 757 H 73.8859 -1.92047 -2.30082 0
M  V30 758 H 71.4469 -1.14497 -1.14465 0
M  V30 759 H 73.4389 -0.0871574 -4.04606 0
M  V30 760 H 72.0089 0.397368 -3.10064 0
M  V30 761 H 71.2289 -2.07566 -3.35127 0
M  V30 762 H 72.5169 -2.27037 -4.55337 0
M  V30 763 H 71.9149 0.730323 -5.60966 0
M  V30 764 H 70.4719 0.458892 -6.50183 0
M  V30 765 N 73.905 1.17692 -1.04816 0
M  V30 766 C 75.13 1.92327 -0.776207 0
M  V30 767 C 75.555 1.76082 0.661581 0
M  V30 768 O 74.913 1.076 1.45917 0
M  V30 769 C 74.961 3.41539 -1.15687 0
M  V30 770 O 74.065 4.11402 -0.286775 0
M  V30 771 H 73.406 0.599735 -0.284981 0
M  V30 772 H 75.936 1.49201 -1.4 0
M  V30 773 H 75.946 3.92269 -1.12202 0
M  V30 774 H 74.621 3.52684 -2.20425 0
M  V30 775 H 73.198 3.70939 -0.381903 0
M  V30 776 N 75.3831 0.828654 1.34056 0
M  V30 777 C 76.6081 0.431637 2.02859 0
M  V30 778 C 77.0331 -0.956339 1.61975 0
M  V30 779 O 76.3911 -1.62338 0.807228 0
M  V30 780 C 76.4391 0.548323 3.56407 0
M  V30 781 O 75.5431 -0.429556 4.10157 0
M  V30 782 H 74.8841 0.176886 0.640006 0
M  V30 783 H 77.4141 1.12066 1.71179 0
M  V30 784 H 77.4241 0.426196 4.05768 0
M  V30 785 H 76.0991 1.5606 3.8551 0
M  V30 786 H 74.6761 -0.265836 3.71951 0
M  V30 787 N 76.8612 -1.46375 0.584142 0
M  V30 788 C 77.8092 -2.32042 -0.161047 0
M  V30 789 C 78.8032 -1.44569 -0.882966 0
M  V30 790 O 80.0092 -1.61186 -0.801191 0
M  V30 791 H 76.3842 -0.748659 -0.0708033 0
M  V30 792 H 78.3552 -2.92704 0.580269 0
M  V30 793 C 77.1042 -3.27762 -1.1605 0
M  V30 794 H 76.4272 -3.95051 -0.614419 0
M  V30 795 H 77.8672 -3.90481 -1.65228 0
M  V30 796 C 76.3262 -2.53218 -2.22221 0
M  V30 797 O 76.8562 -2.29628 -3.29597 0
M  V30 798 N 75.0622 -2.13756 -1.96868 0
M  V30 799 H 74.6092 -2.33142 -1.09557 0
M  V30 800 H 74.5672 -1.642 -2.68115 0
M  V30 801 N 78.3393 -0.321999 -1.54275 0
M  V30 802 C 79.5863 0.281044 -2.0054 0
M  V30 803 C 79.9143 1.52265 -1.21019 0
M  V30 804 O 79.1693 1.93687 -0.279982 0
M  V30 805 C 79.4683 0.661769 -3.5122 0
M  V30 806 C 79.1343 -0.480482 -4.48333 0
M  V30 807 C 77.7963 -0.794005 -4.74604 0
M  V30 808 C 80.1483 -1.24783 -5.06042 0
M  V30 809 C 77.4763 -1.87763 -5.55844 0
M  V30 810 C 79.8283 -2.32153 -5.88462 0
M  V30 811 C 78.4923 -2.64089 -6.13036 0
M  V30 812 H 77.7623 0.102841 -0.733829 0
M  V30 813 H 80.4093 -0.445453 -1.86247 0
M  V30 814 H 78.7143 1.46867 -3.63232 0
M  V30 815 H 80.4113 1.13989 -3.84457 0
M  V30 816 H 77.0013 -0.226039 -4.28004 0
M  V30 817 H 81.1853 -1.01887 -4.85729 0
M  V30 818 H 76.4413 -2.12954 -5.73115 0
M  V30 819 H 80.6153 -2.92057 -6.32199 0
M  V30 820 H 78.2423 -3.48185 -6.75775 0
M  V30 821 N 79.8174 1.5752 -0.0501392 0
M  V30 822 C 81.0634 1.92936 0.624798 0
M  V30 823 C 81.3964 0.928685 1.70555 0
M  V30 824 O 80.6714 -0.0454779 1.94447 0
M  V30 825 C 80.9544 3.38737 1.22185 0
M  V30 826 C 80.8074 4.49552 0.149218 0
M  V30 827 C 82.1264 3.84913 2.13378 0
M  V30 828 H 79.2454 0.701604 0.225657 0
M  V30 829 H 81.8874 1.89671 -0.111693 0
M  V30 830 H 80.0374 3.4165 1.84953 0
M  V30 831 H 81.7094 4.58768 -0.482648 0
M  V30 832 H 79.9524 4.30638 -0.522841 0
M  V30 833 H 80.6234 5.48653 0.606966 0
M  V30 834 H 83.0994 3.8387 1.60572 0
M  V30 835 H 81.9754 4.87584 2.52097 0
M  V30 836 H 82.2364 3.21611 3.03346 0
M  V30 837 N 81.2955 -0.223234 1.56011 0
M  V30 838 C 82.2585 -1.26014 1.9145 0
M  V30 839 C 83.2585 -1.3989 0.792937 0
M  V30 840 O 84.4485 -1.38184 1.0607 0
M  V30 841 C 81.5805 -2.63422 2.16383 0
M  V30 842 H 82.7735 -0.95796 2.84189 0
M  V30 843 H 80.3265 -0.463576 1.49267 0
M  V30 844 H 81.0615 -2.98741 1.2619 0
M  V30 845 H 80.8465 -2.54728 2.98088 0
M  V30 846 H 82.3365 -3.38249 2.44903 0
M  V30 847 N 82.7736 -1.49793 -0.48987 0
M  V30 848 C 84.0216 -1.59525 -1.24081 0
M  V30 849 C 84.3426 -0.288953 -1.92847 0
M  V30 850 O 83.6126 0.692436 -1.83254 0
M  V30 851 H 82.1926 -0.587796 -0.460983 0
M  V30 852 H 84.8546 -1.86477 -0.566778 0
M  V30 853 H 83.9506 -2.39696 -1.99881 0
M  V30 854 N 84.2517 0.741722 -1.39055 0
M  V30 855 C 85.5287 1.49252 -1.26425 0
M  V30 856 C 85.9087 2.10705 0.129144 0
M  V30 857 O 85.2567 1.98045 1.13976 0
M  V30 858 C 85.4667 2.54934 -2.38347 0
M  V30 859 C 86.8147 3.21506 -2.77343 0
M  V30 860 O 87.8387 2.65245 -2.37747 0
M  V30 861 O 86.6977 4.23294 -3.45665 0
M  V30 862 H 83.7917 0.662451 -0.495064 0
M  V30 863 H 86.3377 0.776121 -1.50912 0
M  V30 864 H 85.1097 2.07857 -3.31529 0
M  V30 865 H 84.7327 3.34141 -2.15489 0
M  V30 866 N 85.7298 1.2412 0.971189 0
M  V30 867 C 86.6768 1.0305 2.06517 0
M  V30 868 C 87.6468 -0.0550666 1.66009 0
M  V30 869 O 88.8318 0.0988688 1.90544 0
M  V30 870 C 85.9718 0.637653 3.39158 0
M  V30 871 C 85.0848 1.79633 3.92882 0
M  V30 872 C 84.2198 1.34939 5.13775 0
M  V30 873 C 83.2588 2.47823 5.59687 0
M  V30 874 N 82.3958 2.04022 6.71803 0
M  V30 875 H 87.2358 1.96685 2.23873 0
M  V30 876 H 84.7728 0.979694 1.09729 0
M  V30 877 H 86.7308 0.390931 4.15364 0
M  V30 878 H 85.3608 -0.261693 3.21737 0
M  V30 879 H 84.4128 2.15681 3.13346 0
M  V30 880 H 85.7248 2.64466 4.22918 0
M  V30 881 H 84.8788 1.06134 5.97345 0
M  V30 882 H 83.6178 0.471557 4.85415 0
M  V30 883 H 82.6228 2.77392 4.74693 0
M  V30 884 H 83.8478 3.36158 5.90063 0
M  V30 885 H 81.7938 1.18632 6.45184 0
M  V30 886 H 81.7108 2.82409 7.01271 0
M  V30 887 H 82.9788 1.78347 7.58823 0
M  V30 888 N 87.2079 -1.17134 1.05439 0
M  V30 889 C 88.4849 -1.83411 0.679699 0
M  V30 890 C 88.8649 -1.9368 -0.839726 0
M  V30 891 O 88.2129 -1.47325 -1.74664 0
M  V30 892 C 88.4229 -3.20918 1.37159 0
M  V30 893 C 89.7709 -3.96796 1.51123 0
M  V30 894 O 90.7949 -3.30406 1.3308 0
M  V30 895 O 89.6539 -5.15778 1.80651 0
M  V30 896 H 86.7479 -0.79154 0.239569 0
M  V30 897 H 89.2939 -1.24411 1.15413 0
M  V30 898 H 88.0659 -3.08428 2.40807 0
M  V30 899 H 87.6889 -3.87587 0.886674 0
M  V30 900 N 88.686 -0.835752 -1.33615 0
M  V30 901 C 89.619 -0.211815 -2.27215 0
M  V30 902 C 90.597 0.639249 -1.49507 0
M  V30 903 O 91.781 0.600193 -1.78689 0
M  V30 904 C 88.908 0.702893 -3.31326 0
M  V30 905 C 87.954 -0.0723049 -4.26439 0
M  V30 906 S 88.787 -1.42811 -5.16106 0
M  V30 907 C 89.943 -0.518613 -6.23748 0
M  V30 908 H 90.176 -1.00533 -2.79786 0
M  V30 909 H 87.709 -0.632336 -1.40858 0
M  V30 910 H 89.667 1.22505 -3.91794 0
M  V30 911 H 88.328 1.47004 -2.77576 0
M  V30 912 H 87.521 0.62359 -5.00127 0
M  V30 913 H 87.123 -0.525424 -3.70291 0
M  V30 914 H 89.415 0.284778 -6.76901 0
M  V30 915 H 90.358 -1.22556 -6.97413 0
M  V30 916 H 90.766 -0.101344 -5.64409 0
M  V30 917 N 90.1641 1.46063 -0.591896 0
M  V30 918 C 91.3941 2.06418 -0.0867676 0
M  V30 919 C 91.8021 1.43975 1.22751 0
M  V30 920 O 91.1451 0.542531 1.75506 0
M  V30 921 C 91.2071 3.59213 0.143725 0
M  V30 922 C 90.8711 4.439 -1.08635 0
M  V30 923 C 91.8681 4.79864 -2.00067 0
M  V30 924 C 89.5531 4.84896 -1.31077 0
M  V30 925 C 91.5471 5.55661 -3.12282 0
M  V30 926 C 89.2341 5.6045 -2.43596 0
M  V30 927 C 90.2321 5.95747 -3.34027 0
M  V30 928 O 89.9201 6.69772 -4.4459 0
M  V30 929 H 89.6521 0.673443 -0.0587447 0
M  V30 930 H 92.2061 1.88539 -0.814994 0
M  V30 931 H 90.4361 3.75433 0.926668 0
M  V30 932 H 92.1251 4.01463 0.5985 0
M  V30 933 H 92.8911 4.48763 -1.83947 0
M  V30 934 H 88.7701 4.56867 -0.61594 0
M  V30 935 H 92.3141 5.8313 -3.82891 0
M  V30 936 H 88.2111 5.90965 -2.59674 0
M  V30 937 H 88.9791 6.88207 -4.43073 0
M  V30 938 N 91.6422 0.330177 1.54103 0
M  V30 939 C 92.8882 -0.270806 2.00984 0
M  V30 940 C 93.2212 -1.51265 1.21789 0
M  V30 941 O 92.4962 -1.92142 0.301927 0
M  V30 942 C 92.7792 -0.598339 3.55094 0
M  V30 943 C 92.6322 0.654674 4.4501 0
M  V30 944 C 93.9512 -1.41334 4.16789 0
M  V30 945 H 91.0702 -0.0969531 0.730595 0
M  V30 946 H 93.7122 0.448066 1.84641 0
M  V30 947 H 91.8622 -1.21078 3.69151 0
M  V30 948 H 93.5342 1.29285 4.42813 0
M  V30 949 H 91.7772 1.28224 4.14416 0
M  V30 950 H 92.4482 0.380944 5.50684 0
M  V30 951 H 94.9242 -0.895597 4.06347 0
M  V30 952 H 93.8002 -1.61127 5.24718 0
M  V30 953 H 94.0612 -2.41146 3.70541 0
M  V30 954 N 93.1203 -1.57491 0.0584922 0
M  V30 955 C 94.3603 -1.94851 -0.617458 0
M  V30 956 C 94.7243 -0.937165 -1.67575 0
M  V30 957 O 95.9253 -1.19795 -2.40629 0
M  V30 958 C 94.1963 -3.36955 -1.19147 0
M  V30 959 S 95.7553 -3.96277 -1.8844 0
M  V30 960 H 92.5733 -0.681539 -0.202547 0
M  V30 961 H 95.1753 -1.95073 0.129176 0
M  V30 962 H 93.8793 -4.08355 -0.409215 0
M  V30 963 H 93.4103 -3.40245 -1.97476 0
M  V30 964 H 95.4253 -3.82099 -3.16568 0
M  V30 965 N 94.5984 0.214957 -1.56127 0
M  V30 966 C 95.5484 1.27006 -1.8935 0
M  V30 967 C 96.5324 1.41969 -0.757202 0
M  V30 968 O 97.7244 1.44673 -1.01973 0
M  V30 969 C 94.8534 2.61911 -2.2194 0
M  V30 970 C 93.9394 2.50822 -3.41978 0
M  V30 971 N 94.3304 2.09391 -4.60423 0
M  V30 972 C 92.6284 2.81765 -3.45723 0
M  V30 973 C 93.3294 2.09712 -5.42582 0
M  V30 974 N 92.3054 2.50454 -4.82466 0
M  V30 975 H 96.1074 0.940734 -2.78437 0
M  V30 976 H 93.6214 0.423492 -1.56781 0
M  V30 977 H 95.6184 3.38096 -2.43919 0
M  V30 978 H 94.2784 2.95684 -1.34169 0
M  V30 979 H 95.2894 1.80416 -4.85459 0
M  V30 980 H 91.9664 3.19865 -2.68314 0
M  V30 981 H 93.3564 1.79748 -6.4741 0
M  V30 982 N 96.0765 1.50051 0.48192 0
M  V30 983 C 97.0085 1.64263 1.59844 0
M  V30 984 C 98.0215 0.52451 1.54119 0
M  V30 985 O 99.2105 0.797293 1.59704 0
M  V30 986 C 96.3105 1.60102 2.98698 0
M  V30 987 C 95.4835 2.87767 3.29407 0
M  V30 988 C 94.5425 2.76397 4.47762 0
M  V30 989 O 93.5685 3.50348 4.48603 0
M  V30 990 N 94.7705 1.89222 5.48794 0
M  V30 991 H 97.5355 2.60566 1.48073 0
M  V30 992 H 95.0965 1.47379 0.670149 0
M  V30 993 H 97.0885 1.50123 3.75826 0
M  V30 994 H 95.6585 0.715798 3.04294 0
M  V30 995 H 94.8785 3.11954 2.40994 0
M  V30 996 H 96.1665 3.72365 3.4673 0
M  V30 997 H 95.5645 1.28434 5.50928 0
M  V30 998 H 94.1215 1.85154 6.24949 0
M  V30 999 N 97.5546 -0.734337 1.39446 0
M  V30 1000 C 98.9656 -1.31264 1.32766 0
M  V30 1001 C 99.3166 -1.96198 -0.00767497 0
M  V30 1002 O 98.4416 -1.96346 -0.909796 0
M  V30 1003 C 99.0366 -2.38682 2.4045 0
M  V30 1004 C 97.5956 -2.92184 2.37288 0
M  V30 1005 C 96.7426 -1.6576 2.22304 0
M  V30 1006 H 99.6936 -0.531799 1.49525 0
M  V30 1007 H 99.7146 -3.19087 2.07276 0
M  V30 1008 H 99.2266 -1.91392 3.37625 0
M  V30 1009 H 97.3276 -3.43752 1.43754 0
M  V30 1010 H 97.4406 -3.45253 3.3217 0
M  V30 1011 H 95.8046 -1.9012 1.69489 0
M  V30 1012 H 96.5876 -1.20521 3.21449 0
M  V30 1013 N 99.0327 -1.24633 -0.964593 0
M  V30 1014 C 99.9627 -1.06611 -2.07741 0
M  V30 1015 C 100.944 0.0218666 -1.70086 0
M  V30 1016 O 102.129 -0.145793 -1.93652 0
M  V30 1017 C 99.2587 -0.673444 -3.40708 0
M  V30 1018 C 98.2127 -1.71054 -3.92332 0
M  V30 1019 C 97.5387 -1.17285 -5.21678 0
M  V30 1020 C 98.8387 -3.10718 -4.19824 0
M  V30 1021 H 100.533 -1.99693 -2.23076 0
M  V30 1022 H 98.0787 -0.96152 -1.07195 0
M  V30 1023 H 100.032 -0.534345 -4.17998 0
M  V30 1024 H 98.7557 0.293073 -3.25282 0
M  V30 1025 H 97.4147 -1.83791 -3.17201 0
M  V30 1026 H 97.0627 -0.196847 -5.02615 0
M  V30 1027 H 96.7627 -1.86592 -5.57187 0
M  V30 1028 H 98.2867 -1.04593 -6.01575 0
M  V30 1029 H 99.7007 -3.01192 -4.87808 0
M  V30 1030 H 98.0977 -3.77406 -4.66567 0
M  V30 1031 H 99.1677 -3.58524 -3.26479 0
M  V30 1032 N 100.511 1.16574 -1.06058 0
M  V30 1033 C 101.922 1.68662 -0.800632 0
M  V30 1034 C 102.273 1.84184 0.67608 0
M  V30 1035 O 101.398 1.53568 1.52466 0
M  V30 1036 C 101.993 3.06356 -1.44676 0
M  V30 1037 C 100.552 3.55575 -1.23465 0
M  V30 1038 C 99.6988 2.31616 -1.52477 0
M  V30 1039 H 102.65 1.00969 -1.22438 0
M  V30 1040 H 102.671 3.70636 -0.860788 0
M  V30 1041 H 102.183 2.95027 -2.52152 0
M  V30 1042 H 100.284 3.72167 -0.179527 0
M  V30 1043 H 100.397 4.37812 -1.94571 0
M  V30 1044 H 98.7608 2.36512 -0.945209 0
M  V30 1045 H 99.5438 2.22887 -2.61106 0
M  V30 1046 N 101.989 0.842826 1.3317 0
M  V30 1047 C 103.217 0.454055 2.01856 0
M  V30 1048 C 103.632 -0.94587 1.63397 0
M  V30 1049 O 102.989 -1.61534 0.849302 0
M  V30 1050 C 103.04 0.569715 3.56982 0
M  V30 1051 O 102.761 1.91448 3.94055 0
M  V30 1052 C 104.262 0.178412 4.42941 0
M  V30 1053 H 101.482 0.17979 0.646465 0
M  V30 1054 H 104.026 1.1365 1.70012 0
M  V30 1055 H 102.181 -0.0648587 3.87346 0
M  V30 1056 H 102.595 1.90282 4.88767 0
M  V30 1057 H 104.069 0.310376 5.51127 0
M  V30 1058 H 104.546 -0.880056 4.30293 0
M  V30 1059 H 105.152 0.787579 4.17944 0
M  V30 1060 N 103.467 -1.45747 0.599634 0
M  V30 1061 C 104.714 -2.02292 0.0917284 0
M  V30 1062 C 105.042 -1.46906 -1.27472 0
M  V30 1063 O 104.297 -0.630652 -1.8526 0
M  V30 1064 C 104.596 -3.57399 -0.00602758 0
M  V30 1065 C 104.262 -4.31902 1.29503 0
M  V30 1066 C 102.924 -4.51974 1.65144 0
M  V30 1067 C 105.276 -4.74551 2.15525 0
M  V30 1068 C 102.604 -5.11949 2.86574 0
M  V30 1069 C 104.956 -5.35868 3.36196 0
M  V30 1070 C 103.62 -5.54165 3.72099 0
M  V30 1071 H 102.89 -0.740239 0.0335658 0
M  V30 1072 H 105.537 -1.7491 0.779661 0
M  V30 1073 H 103.842 -3.84014 -0.777183 0
M  V30 1074 H 105.539 -3.98846 -0.415038 0
M  V30 1075 H 102.129 -4.16588 1.00761 0
M  V30 1076 H 106.313 -4.58784 1.8929 0
M  V30 1077 H 101.569 -5.24305 3.14507 0
M  V30 1078 H 105.743 -5.6787 4.03109 0
M  V30 1079 H 103.37 -6.00406 4.6628 0
M  V30 1080 N 104.945 -0.338344 -1.53925 0
M  V30 1081 C 105.875 0.51328 -2.27789 0
M  V30 1082 C 106.856 1.107 -1.29149 0
M  V30 1083 O 108.041 1.12937 -1.57984 0
M  V30 1084 C 105.171 1.66697 -3.04679 0
M  V30 1085 C 104.125 1.20183 -4.1078 0
M  V30 1086 C 103.451 2.44363 -4.75595 0
M  V30 1087 C 104.751 0.30605 -5.21403 0
M  V30 1088 H 106.445 -0.102883 -2.99223 0
M  V30 1089 H 103.991 -0.0509219 -1.4391 0
M  V30 1090 H 105.944 2.26915 -3.55088 0
M  V30 1091 H 104.668 2.30995 -2.30887 0
M  V30 1092 H 103.327 0.622499 -3.61276 0
M  V30 1093 H 102.975 3.07057 -3.98403 0
M  V30 1094 H 102.675 2.13925 -5.47275 0
M  V30 1095 H 104.199 3.05317 -5.28786 0
M  V30 1096 H 105.613 0.814929 -5.67478 0
M  V30 1097 H 104.01 0.0937929 -6.00027 0
M  V30 1098 H 105.08 -0.65921 -4.80398 0
M  V30 1099 N 106.423 1.57458 -0.0668435 0
M  V30 1100 C 107.834 1.80776 0.466558 0
M  V30 1101 C 108.185 0.980361 1.69951 0
M  V30 1102 O 107.31 0.201441 2.1546 0
M  V30 1103 C 107.905 3.27881 0.85321 0
M  V30 1104 C 106.464 3.52062 1.3315 0
M  V30 1105 C 105.611 2.75513 0.314264 0
M  V30 1106 H 108.562 1.5598 -0.292588 0
M  V30 1107 H 108.583 3.39659 1.715 0
M  V30 1108 H 108.095 3.88075 -0.0443439 0
M  V30 1109 H 106.196 2.97167 2.24772 0
M  V30 1110 H 106.309 4.60762 1.31285 0
M  V30 1111 H 104.673 2.42123 0.790492 0
M  V30 1112 H 105.456 3.38442 -0.575477 0
M  V30 1113 N 107.901 -0.206675 1.56239 0
M  V30 1114 C 108.811 -1.27686 1.96808 0
M  V30 1115 C 109.827 -1.50455 0.874035 0
M  V30 1116 O 111.003 -1.63295 1.17884 0
M  V30 1117 C 108.068 -2.60358 2.28942 0
M  V30 1118 C 107.129 -2.45762 3.51994 0
M  V30 1119 C 106.362 -3.72108 3.82585 0
M  V30 1120 O 106.585 -4.75776 3.14631 0
M  V30 1121 O 105.519 -3.6833 4.76043 0
M  V30 1122 H 109.345 -0.962593 2.88041 0
M  V30 1123 H 106.93 -0.410746 1.43643 0
M  V30 1124 H 108.812 -3.38687 2.50737 0
M  V30 1125 H 107.487 -2.91435 1.4088 0
M  V30 1126 H 106.394 -1.65584 3.35459 0
M  V30 1127 H 107.727 -2.19621 4.40486 0
M  V30 1128 N 109.379 -1.50304 -0.473955 0
M  V30 1129 C 110.609 -1.64663 -1.24778 0
M  V30 1130 C 111.017 -0.328174 -1.86332 0
M  V30 1131 O 110.36 0.699536 -1.69859 0
M  V30 1132 C 110.422 -2.6778 -2.39863 0
M  V30 1133 C 110.086 -4.11413 -1.98969 0
M  V30 1134 C 111.083 -4.97372 -1.51385 0
M  V30 1135 C 108.768 -4.57312 -2.07777 0
M  V30 1136 C 110.762 -6.27277 -1.13148 0
M  V30 1137 C 108.449 -5.87223 -1.69152 0
M  V30 1138 C 109.447 -6.72031 -1.21915 0
M  V30 1139 O 109.135 -7.99518 -0.838237 0
M  V30 1140 H 108.867 -0.556602 -0.383627 0
M  V30 1141 H 111.421 -1.9726 -0.572491 0
M  V30 1142 H 109.651 -2.30419 -3.10554 0
M  V30 1143 H 111.34 -2.71388 -3.01833 0
M  V30 1144 H 112.106 -4.63128 -1.44004 0
M  V30 1145 H 107.985 -3.91449 -2.43493 0
M  V30 1146 H 111.529 -6.93425 -0.762077 0
M  V30 1147 H 107.426 -6.20989 -1.76191 0
M  V30 1148 H 108.194 -8.12764 -0.967339 0
M  V30 1149 N 110.857 0.726932 -1.39834 0
M  V30 1150 C 112.104 1.48664 -1.37496 0
M  V30 1151 C 112.432 1.94482 0.0264678 0
M  V30 1152 O 111.687 1.67692 1.00886 0
M  V30 1153 C 111.986 2.73495 -2.30077 0
M  V30 1154 C 111.652 2.46502 -3.77555 0
M  V30 1155 C 110.314 2.3885 -4.17737 0
M  V30 1156 C 112.666 2.23604 -4.70798 0
M  V30 1157 C 109.994 2.06352 -5.49214 0
M  V30 1158 C 112.346 1.92622 -6.02561 0
M  V30 1159 C 111.01 1.83444 -6.41798 0
M  V30 1160 H 110.28 0.544001 -0.503135 0
M  V30 1161 H 112.927 0.833657 -1.72402 0
M  V30 1162 H 111.232 3.43575 -1.88317 0
M  V30 1163 H 112.929 3.31549 -2.25558 0
M  V30 1164 H 109.519 2.5334 -3.45712 0
M  V30 1165 H 113.703 2.28479 -4.40581 0
M  V30 1166 H 108.959 1.97776 -5.78528 0
M  V30 1167 H 113.133 1.73914 -6.74334 0
M  V30 1168 H 110.76 1.58029 -7.43593 0
M  V30 1169 N 112.336 1.25143 0.95797 0
M  V30 1170 C 113.561 1.12521 1.74223 0
M  V30 1171 C 113.986 -0.317402 1.85403 0
M  V30 1172 O 113.344 -1.2299 1.33204 0
M  V30 1173 C 113.392 1.78062 3.1357 0
M  V30 1174 O 112.496 1.058 3.98598 0
M  V30 1175 H 111.837 0.39304 0.535178 0
M  V30 1176 H 114.367 1.65641 1.201 0
M  V30 1177 H 114.377 1.84213 3.64046 0
M  V30 1178 H 113.052 2.83021 3.04749 0
M  V30 1179 H 111.629 1.07506 3.57067 0
M  V30 1180 N 113.814 -1.1601 1.06675 0
M  V30 1181 C 115.039 -1.91068 0.806706 0
M  V30 1182 C 115.464 -1.77112 -0.633485 0
M  V30 1183 O 114.822 -1.09908 -1.44187 0
M  V30 1184 C 114.87 -3.39655 1.21106 0
M  V30 1185 O 113.974 -4.10893 0.352189 0
M  V30 1186 H 113.315 -0.595125 0.294486 0
M  V30 1187 H 115.845 -1.46955 1.42356 0
M  V30 1188 H 115.855 -3.90434 1.18428 0
M  V30 1189 H 114.53 -3.49132 2.26008 0
M  V30 1190 H 113.107 -3.70285 0.440868 0
M  V30 1191 N 115.292 -0.849877 -1.32721 0
M  V30 1192 C 116.222 -0.306308 -2.31482 0
M  V30 1193 C 117.203 0.591952 -1.59468 0
M  V30 1194 O 118.388 0.513199 -1.87296 0
M  V30 1195 C 115.518 0.510204 -3.43532 0
M  V30 1196 C 114.472 -0.293209 -4.26994 0
M  V30 1197 C 113.798 0.647743 -5.30762 0
M  V30 1198 C 115.098 -1.51634 -4.99804 0
M  V30 1199 H 116.792 -1.13153 -2.77195 0
M  V30 1200 H 114.338 -0.545553 -1.33266 0
M  V30 1201 H 116.291 0.900856 -4.11658 0
M  V30 1202 H 115.015 1.36874 -2.96535 0
M  V30 1203 H 113.674 -0.665555 -3.60508 0
M  V30 1204 H 113.322 1.50299 -4.8002 0
M  V30 1205 H 113.022 0.11422 -5.87489 0
M  V30 1206 H 114.546 1.03567 -6.01753 0
M  V30 1207 H 115.96 -1.19824 -5.60638 0
M  V30 1208 H 114.357 -1.98745 -5.66234 0
M  V30 1209 H 115.427 -2.28018 -4.27943 0
M  V30 1210 N 116.77 1.45427 -0.607355 0
M  V30 1211 C 117.72 2.27612 0.133038 0
M  V30 1212 C 118.704 1.37307 0.838785 0
M  V30 1213 O 119.896 1.61299 0.728813 0
M  V30 1214 C 117.025 3.24173 1.12991 0
M  V30 1215 C 116.111 4.21965 0.425011 0
M  V30 1216 N 116.502 5.02982 -0.533217 0
M  V30 1217 C 114.8 4.40899 0.672593 0
M  V30 1218 C 115.501 5.73931 -0.947518 0
M  V30 1219 N 114.477 5.42819 -0.291321 0
M  V30 1220 H 118.279 2.87649 -0.602935 0
M  V30 1221 H 115.793 1.56576 -0.431006 0
M  V30 1222 H 117.79 3.81783 1.67473 0
M  V30 1223 H 116.45 2.65696 1.86644 0
M  V30 1224 H 117.461 5.09843 -0.90995 0
M  V30 1225 H 114.138 3.93547 1.39382 0
M  V30 1226 H 115.528 6.49037 -1.73782 0
M  V30 1227 N 118.248 0.346503 1.53744 0
M  V30 1228 C 119.211 -0.496439 2.23759 0
M  V30 1229 C 120.211 -1.0252 1.2388 0
M  V30 1230 O 121.401 -0.913974 1.48297 0
M  V30 1231 C 118.533 -1.69187 2.95954 0
M  V30 1232 H 119.726 0.115952 2.99676 0
M  V30 1233 H 117.279 0.0978939 1.55993 0
M  V30 1234 H 118.014 -2.34288 2.24231 0
M  V30 1235 H 117.799 -1.31989 3.69217 0
M  V30 1236 H 119.289 -2.28969 3.49232 0
M  V30 1237 N 119.726 -1.57421 0.075193 0
M  V30 1238 C 120.951 -1.98364 -0.605515 0
M  V30 1239 C 121.376 -0.953383 -1.62149 0
M  V30 1240 O 120.734 0.0806053 -1.81121 0
M  V30 1241 C 120.782 -3.38332 -1.24756 0
M  V30 1242 O 119.886 -3.37959 -2.36342 0
M  V30 1243 H 119.227 -0.645553 -0.155428 0
M  V30 1244 H 121.757 -2.04044 0.150714 0
M  V30 1245 H 121.767 -3.75591 -1.5936 0
M  V30 1246 H 120.442 -4.12846 -0.503129 0
M  V30 1247 H 119.019 -3.12474 -2.03506 0
M  V30 1248 N 121.204 0.198386 -1.56346 0
M  V30 1249 C 122.136 1.26987 -1.90806 0
M  V30 1250 C 123.149 1.41877 -0.798419 0
M  V30 1251 O 124.338 1.42362 -1.07682 0
M  V30 1252 C 121.438 2.64246 -2.12196 0
M  V30 1253 C 120.611 2.71007 -3.43328 0
M  V30 1254 C 119.67 3.89439 -3.5387 0
M  V30 1255 O 118.696 3.76695 -4.26719 0
M  V30 1256 N 119.898 5.04752 -2.86715 0
M  V30 1257 H 122.663 0.977433 -2.83313 0
M  V30 1258 H 120.224 0.388322 -1.57174 0
M  V30 1259 H 122.216 3.41896 -2.1654 0
M  V30 1260 H 120.786 2.85992 -1.26204 0
M  V30 1261 H 120.006 1.79657 -3.50881 0
M  V30 1262 H 121.294 2.72512 -4.29668 0
M  V30 1263 H 120.692 5.18004 -2.2735 0
M  V30 1264 H 119.249 5.8036 -2.96691 0
M  V30 1265 N 122.682 1.50554 0.465978 0
M  V30 1266 C 123.931 1.61038 1.21448 0
M  V30 1267 C 124.244 0.31865 1.92987 0
M  V30 1268 O 125.45 0.302469 2.6981 0
M  V30 1269 C 123.906 2.84283 2.20706 0
M  V30 1270 C 123.514 4.20352 1.54946 0
M  V30 1271 C 125.258 3.04115 2.96166 0
M  V30 1272 C 123.165 5.34778 2.5252 0
M  V30 1273 H 122.095 0.599718 0.457005 0
M  V30 1274 H 124.746 1.7699 0.484424 0
M  V30 1275 H 123.128 2.61901 2.97025 0
M  V30 1276 H 124.302 4.53008 0.843811 0
M  V30 1277 H 122.617 4.06167 0.917475 0
M  V30 1278 H 125.214 3.86774 3.69202 0
M  V30 1279 H 125.557 2.16045 3.55852 0
M  V30 1280 H 126.09 3.26702 2.26959 0
M  V30 1281 H 122.829 6.25018 1.97566 0
M  V30 1282 H 122.349 5.06534 3.21222 0
M  V30 1283 H 124.028 5.65561 3.14245 0
M  V30 1284 N 124.16 -0.719506 1.40217 0
M  V30 1285 C 125.388 -1.50864 1.41589 0
M  V30 1286 C 125.803 -1.88794 0.0145275 0
M  V30 1287 O 125.16 -1.55174 -0.960594 0
M  V30 1288 C 125.211 -2.78646 2.30302 0
M  V30 1289 O 124.932 -2.42321 3.64983 0
M  V30 1290 C 126.433 -3.72569 2.40224 0
M  V30 1291 H 123.653 -0.465709 0.48307 0
M  V30 1292 H 126.197 -0.88785 1.84221 0
M  V30 1293 H 124.352 -3.37019 1.91042 0
M  V30 1294 H 124.766 -3.24514 4.12057 0
M  V30 1295 H 126.24 -4.5908 3.06512 0
M  V30 1296 H 126.717 -4.15403 1.42608 0
M  V30 1297 H 127.323 -3.20109 2.80019 0
M  V30 1298 N 125.638 -1.25649 -0.95132 0
M  V30 1299 C 126.588 -1.03004 -2.03406 0
M  V30 1300 C 127.572 0.034187 -1.60864 0
M  V30 1301 O 128.764 -0.181549 -1.76066 0
M  V30 1302 C 125.893 -0.654255 -3.37008 0
M  V30 1303 C 124.979 -1.75542 -3.86065 0
M  V30 1304 N 125.37 -2.99113 -4.07879 0
M  V30 1305 C 123.668 -1.63669 -4.14884 0
M  V30 1306 C 124.369 -3.70611 -4.48356 0
M  V30 1307 N 123.345 -2.98247 -4.54477 0
M  V30 1308 H 127.147 -1.96813 -2.1827 0
M  V30 1309 H 124.661 -1.16017 -1.13639 0
M  V30 1310 H 126.658 -0.473206 -4.14206 0
M  V30 1311 H 125.318 0.276468 -3.23521 0
M  V30 1312 H 126.329 -3.35124 -3.94857 0
M  V30 1313 H 123.006 -0.775161 -4.10241 0
M  V30 1314 H 124.396 -4.76695 -4.73509 0
M  V30 1315 N 127.117 1.15442 -1.07289 0
M  V30 1316 C 128.347 1.89821 -0.815576 0
M  V30 1317 C 128.755 1.7823 0.634867 0
M  V30 1318 O 128.098 1.13152 1.44715 0
M  V30 1319 C 128.16 3.40817 -1.14385 0
M  V30 1320 C 127.824 3.76193 -2.59476 0
M  V30 1321 C 128.821 3.77269 -3.57721 0
M  V30 1322 C 126.506 4.0652 -2.95037 0
M  V30 1323 C 128.5 4.08176 -4.89562 0
M  V30 1324 C 126.187 4.37092 -4.27076 0
M  V30 1325 C 127.185 4.37902 -5.24148 0
M  V30 1326 O 126.873 4.67741 -6.53815 0
M  V30 1327 H 126.605 0.608465 -0.294528 0
M  V30 1328 H 129.159 1.472 -1.43252 0
M  V30 1329 H 127.389 3.83835 -0.469865 0
M  V30 1330 H 129.078 3.96485 -0.869179 0
M  V30 1331 H 129.844 3.5394 -3.3159 0
M  V30 1332 H 125.723 4.05049 -2.20128 0
M  V30 1333 H 129.267 4.08723 -5.65324 0
M  V30 1334 H 125.164 4.59889 -4.5296 0
M  V30 1335 H 125.932 4.85509 -6.58957 0
M  V30 1336 N 128.595 0.856903 1.32268 0
M  V30 1337 C 129.542 0.301172 2.28827 0
M  V30 1338 C 130.512 -0.593104 1.5515 0
M  V30 1339 O 131.697 -0.527537 1.83362 0
M  V30 1340 C 128.837 -0.502523 3.41422 0
M  V30 1341 C 127.95 0.417797 4.29975 0
M  V30 1342 C 127.085 -0.398749 5.29701 0
M  V30 1343 C 126.124 0.518827 6.09897 0
M  V30 1344 N 125.261 -0.260674 7.01616 0
M  V30 1345 H 130.101 1.12983 2.75751 0
M  V30 1346 H 127.638 0.568582 1.35667 0
M  V30 1347 H 129.596 -0.984141 4.05426 0
M  V30 1348 H 128.226 -1.29599 2.95642 0
M  V30 1349 H 127.278 1.01781 3.66531 0
M  V30 1350 H 128.59 1.12191 4.86019 0
M  V30 1351 H 127.744 -0.943435 5.9932 0
M  V30 1352 H 126.483 -1.13622 4.7428 0
M  V30 1353 H 125.488 1.07538 5.39181 0
M  V30 1354 H 126.713 1.25495 6.67404 0
M  V30 1355 H 124.659 -0.981198 6.4862 0
M  V30 1356 H 124.576 0.384364 7.55022 0
M  V30 1357 H 125.844 -0.787014 7.75517 0
M  V30 1358 N 130.073 -1.45103 0.615059 0
M  V30 1359 C 131.319 -2.02483 0.113347 0
M  V30 1360 C 131.652 -1.48146 -1.25564 0
M  V30 1361 O 130.927 -0.659104 -1.82992 0
M  V30 1362 C 131.21 -3.60005 0.0825278 0
M  V30 1363 C 131.063 -4.2466 1.48271 0
M  V30 1364 C 132.382 -4.35972 -0.601401 0
M  V30 1365 H 129.501 -0.735764 0.0426632 0
M  V30 1366 H 132.143 -1.72868 0.788461 0
M  V30 1367 H 130.293 -3.85367 -0.492378 0
M  V30 1368 H 131.965 -4.10458 2.10527 0
M  V30 1369 H 130.208 -3.82772 2.04127 0
M  V30 1370 H 130.879 -5.336 1.41332 0
M  V30 1371 H 133.355 -4.15947 -0.112666 0
M  V30 1372 H 132.231 -5.45697 -0.592097 0
M  V30 1373 H 132.492 -4.09391 -1.66887 0
M  V30 1374 N 131.551 -0.354651 -1.53558 0
M  V30 1375 C 132.798 0.238443 -2.01091 0
M  V30 1376 C 133.126 1.49663 -1.24222 0
M  V30 1377 O 132.381 1.93049 -0.321003 0
M  V30 1378 C 132.68 0.587121 -3.52545 0
M  V30 1379 C 132.346 -0.575472 -4.47213 0
M  V30 1380 C 131.008 -0.894497 -4.72813 0
M  V30 1381 C 133.36 -1.35489 -5.03281 0
M  V30 1382 C 130.688 -1.99511 -5.51736 0
M  V30 1383 C 133.04 -2.44583 -5.83405 0
M  V30 1384 C 131.704 -2.77033 -6.07296 0
M  V30 1385 H 130.974 0.0872526 -0.735845 0
M  V30 1386 H 133.621 -0.484859 -1.8526 0
M  V30 1387 H 131.926 1.39129 -3.66265 0
M  V30 1388 H 133.623 1.05809 -3.86789 0
M  V30 1389 H 130.213 -0.316774 -4.27428 0
M  V30 1390 H 134.397 -1.12167 -4.83459 0
M  V30 1391 H 129.653 -2.25063 -5.68469 0
M  V30 1392 H 133.827 -3.05401 -6.25862 0
M  V30 1393 H 131.454 -3.6244 -6.68237 0
M  V30 1394 N 133.029 1.57378 -0.0835403 0
M  V30 1395 C 133.959 2.1641 0.87686 0
M  V30 1396 C 134.94 1.09429 1.30228 0
M  V30 1397 O 136.125 1.37516 1.37124 0
M  V30 1398 C 133.255 2.73517 2.14022 0
M  V30 1399 C 132.209 3.85769 1.85381 0
M  V30 1400 C 131.535 4.29529 3.18448 0
M  V30 1401 C 132.835 5.09486 1.14984 0
M  V30 1402 H 134.529 2.96914 0.385059 0
M  V30 1403 H 132.075 1.42823 0.18377 0
M  V30 1404 H 134.028 3.13463 2.81636 0
M  V30 1405 H 132.752 1.90252 2.65465 0
M  V30 1406 H 131.411 3.46345 1.20169 0
M  V30 1407 H 131.059 3.43169 3.67755 0
M  V30 1408 H 130.759 5.05204 3.00071 0
M  V30 1409 H 132.283 4.72099 3.8724 0
M  V30 1410 H 133.697 5.46674 1.72687 0
M  V30 1411 H 132.094 5.90515 1.06826 0
M  V30 1412 H 133.164 4.84724 0.130749 0
M  V30 1413 N 134.507 -0.190092 1.56449 0
M  V30 1414 C 135.732 -0.929864 1.85387 0
M  V30 1415 C 136.157 -1.7585 0.667704 0
M  V30 1416 O 135.515 -1.77198 -0.383459 0
M  V30 1417 C 135.563 -1.79773 3.12593 0
M  V30 1418 O 134.667 -2.89713 2.93496 0
M  V30 1419 H 134.008 -0.261574 0.610307 0
M  V30 1420 H 136.538 -0.193896 2.03679 0
M  V30 1421 H 136.548 -2.20139 3.43515 0
M  V30 1422 H 135.223 -1.18892 3.98544 0
M  V30 1423 H 133.8 -2.53065 2.73884 0
M  V30 1424 N 135.985 -1.50799 -0.457987 0
M  V30 1425 C 137.231 -1.63648 -1.20792 0
M  V30 1426 C 137.586 -0.338662 -1.89396 0
M  V30 1427 O 136.879 0.664291 -1.79716 0
M  V30 1428 C 137.073 -2.76358 -2.2663 0
M  V30 1429 C 136.902 -4.16974 -1.68411 0
M  V30 1430 C 135.672 -4.83199 -1.47807 0
M  V30 1431 C 137.87 -5.00774 -1.17176 0
M  V30 1432 N 135.852 -6.07991 -0.849692 0
M  V30 1433 C 137.223 -6.16397 -0.667403 0
M  V30 1434 C 139.278 -4.86452 -1.06155 0
M  V30 1435 C 137.981 -7.19272 -0.0636908 0
M  V30 1436 C 140.007 -5.89515 -0.471759 0
M  V30 1437 C 139.369 -7.04397 0.0221557 0
M  V30 1438 H 135.468 -0.652888 -0.43042 0
M  V30 1439 H 138.052 -1.87962 -0.507785 0
M  V30 1440 H 136.223 -2.53744 -2.94056 0
M  V30 1441 H 137.955 -2.78496 -2.93636 0
M  V30 1442 H 134.71 -4.40714 -1.73403 0
M  V30 1443 H 135.134 -6.74733 -0.553537 0
M  V30 1444 H 139.776 -3.97907 -1.42932 0
M  V30 1445 H 137.494 -8.07481 0.316253 0
M  V30 1446 H 141.08 -5.805 -0.388671 0
M  V30 1447 H 139.96 -7.82782 0.471375 0
M  V30 1448 N 137.463 0.71206 -1.40597 0
M  V30 1449 C 138.426 1.80785 -1.40888 0
M  V30 1450 C 139.426 1.57937 -0.302103 0
M  V30 1451 O 140.616 1.64913 -0.561182 0
M  V30 1452 C 137.748 3.18927 -1.20409 0
M  V30 1453 H 138.941 1.81924 -2.38419 0
M  V30 1454 H 136.494 0.91805 -1.26497 0
M  V30 1455 H 137.229 3.23436 -0.236522 0
M  V30 1456 H 137.014 3.36911 -2.00582 0
M  V30 1457 H 138.504 3.98949 -1.23408 0
M  V30 1458 N 138.941 1.26152 0.944643 0
M  V30 1459 C 139.873 1.03199 2.04652 0
M  V30 1460 C 140.886 -0.00642356 1.62799 0
M  V30 1461 O 142.075 0.233263 1.76969 0
M  V30 1462 C 139.175 0.540111 3.34568 0
M  V30 1463 C 138.348 1.64697 4.05208 0
M  V30 1464 C 137.407 1.15374 5.13396 0
M  V30 1465 O 136.433 1.85013 5.38293 0
M  V30 1466 N 137.635 0.00031529 5.805 0
M  V30 1467 H 140.4 1.9808 2.2491 0
M  V30 1468 H 137.961 1.17491 1.11389 0
M  V30 1469 H 139.953 0.194401 4.04233 0
M  V30 1470 H 138.523 -0.315021 3.11009 0
M  V30 1471 H 137.743 2.16379 3.29506 0
M  V30 1472 H 139.031 2.3903 4.49157 0
M  V30 1473 H 138.429 -0.581336 5.62705 0
M  V30 1474 H 136.986 -0.286346 6.51171 0
M  V30 1475 N 140.419 -1.14872 1.07899 0
M  V30 1476 C 141.349 -2.2193 0.725887 0
M  V30 1477 C 142.33 -1.67622 -0.28927 0
M  V30 1478 O 143.515 -1.93533 -0.160787 0
M  V30 1479 C 140.645 -3.47061 0.128856 0
M  V30 1480 C 139.599 -4.14363 1.07178 0
M  V30 1481 C 138.925 -5.33636 0.337229 0
M  V30 1482 C 140.225 -4.63492 2.40775 0
M  V30 1483 H 141.919 -2.51724 1.62097 0
M  V30 1484 H 139.465 -1.20991 0.780838 0
M  V30 1485 H 141.418 -4.21199 -0.130147 0
M  V30 1486 H 140.142 -3.16617 -0.80134 0
M  V30 1487 H 138.801 -3.42173 1.3158 0
M  V30 1488 H 138.449 -4.99449 -0.596606 0
M  V30 1489 H 138.149 -5.79609 0.965788 0
M  V30 1490 H 139.673 -6.10539 0.0861567 0
M  V30 1491 H 141.087 -5.2913 2.20669 0
M  V30 1492 H 139.484 -5.20148 2.99276 0
M  V30 1493 H 140.554 -3.78834 3.02676 0
M  V30 1494 N 141.898 -0.863906 -1.31812 0
M  V30 1495 C 142.828 -0.330843 -2.31144 0
M  V30 1496 C 143.809 0.575005 -1.60087 0
M  V30 1497 O 144.994 0.493304 -1.8783 0
M  V30 1498 C 142.124 0.47374 -3.44054 0
M  V30 1499 C 141.078 -0.338481 -4.26659 0
M  V30 1500 C 140.404 0.591412 -5.31419 0
M  V30 1501 C 141.704 -1.56926 -4.98168 0
M  V30 1502 H 143.398 -1.16086 -2.75979 0
M  V30 1503 H 140.944 -0.559657 -1.32679 0
M  V30 1504 H 142.897 0.857143 -4.12591 0
M  V30 1505 H 141.621 1.33721 -2.9797 0
M  V30 1506 H 140.28 -0.703754 -3.59782 0
M  V30 1507 H 139.928 1.45199 -4.81587 0
M  V30 1508 H 139.628 0.0519022 -5.87577 0
M  V30 1509 H 141.152 0.97179 -6.02817 0
M  V30 1510 H 142.566 -1.25764 -5.59336 0
M  V30 1511 H 140.963 -2.04739 -5.64094 0
M  V30 1512 H 142.033 -2.32544 -4.25501 0
M  V30 1513 N 143.376 1.44774 -0.622745 0
M  V30 1514 C 144.787 1.85546 -0.207226 0
M  V30 1515 C 145.138 1.52093 1.23944 0
M  V30 1516 O 144.263 0.95492 1.94191 0
M  V30 1517 C 144.858 3.36781 -0.369313 0
M  V30 1518 C 143.417 3.76399 -0.00836847 0
M  V30 1519 C 142.564 2.68664 -0.686651 0
M  V30 1520 H 145.515 1.3536 -0.828454 0
M  V30 1521 H 145.536 3.78453 0.394162 0
M  V30 1522 H 145.048 3.61098 -1.42231 0
M  V30 1523 H 143.149 3.57698 1.04322 0
M  V30 1524 H 143.262 4.7732 -0.412584 0
M  V30 1525 H 141.626 2.54404 -0.122777 0
M  V30 1526 H 142.409 2.95815 -1.74208 0
M  V30 1527 N 144.854 0.36279 1.53368 0
M  V30 1528 C 145.817 -0.472679 2.24273 0
M  V30 1529 C 146.817 -1.012 1.24961 0
M  V30 1530 O 148.007 -0.898194 1.49259 0
M  V30 1531 C 145.139 -1.66039 2.97731 0
M  V30 1532 H 146.332 0.14773 2.99536 0
M  V30 1533 H 143.885 0.114434 1.55881 0
M  V30 1534 H 144.62 -2.31896 2.26704 0
M  V30 1535 H 144.405 -1.28066 3.70596 0
M  V30 1536 H 145.895 -2.25252 3.51641 0
M  V30 1537 N 146.332 -1.57332 0.0918853 0
M  V30 1538 C 147.58 -1.93853 -0.571446 0
M  V30 1539 C 147.901 -0.974212 -1.6892 0
M  V30 1540 O 147.171 -0.0257254 -1.95883 0
M  V30 1541 H 145.751 -0.715666 -0.214082 0
M  V30 1542 H 148.413 -1.94287 0.154464 0
M  V30 1543 H 147.509 -2.96191 -0.983729 0
M  V30 1544 N 147.81 0.181792 -1.56548 0
M  V30 1545 C 149.035 0.920019 -1.85877 0
M  V30 1546 C 149.46 1.75494 -0.677021 0
M  V30 1547 O 148.818 1.77399 0.374056 0
M  V30 1548 C 148.866 1.78112 -3.13542 0
M  V30 1549 O 147.97 2.88152 -2.95029 0
M  V30 1550 H 147.311 0.258334 -0.611686 0
M  V30 1551 H 149.841 0.183092 -2.03779 0
M  V30 1552 H 149.851 2.18314 -3.44678 0
M  V30 1553 H 148.526 1.16777 -3.99169 0
M  V30 1554 H 147.103 2.51609 -2.75222 0
M  V30 1555 N 149.288 1.51039 0.449983 0
M  V30 1556 C 150.516 1.66869 1.2232 0
M  V30 1557 C 150.931 0.360727 1.85322 0
M  V30 1558 O 150.288 -0.659531 1.70166 0
M  V30 1559 C 150.339 2.77524 2.31652 0
M  V30 1560 O 150.06 4.03252 1.7123 0
M  V30 1561 C 151.561 3.04512 3.2216 0
M  V30 1562 H 148.781 0.560326 0.369155 0
M  V30 1563 H 151.325 1.97385 0.534719 0
M  V30 1564 H 149.48 2.49642 2.96239 0
M  V30 1565 H 149.894 4.64609 2.43389 0
M  V30 1566 H 151.368 3.85551 3.95038 0
M  V30 1567 H 151.845 2.16415 3.8218 0
M  V30 1568 H 152.451 3.34005 2.63288 0
M  V30 1569 N 150.766 -0.704594 1.40972 0
M  V30 1570 C 151.698 -1.82974 1.38033 0
M  V30 1571 C 152.711 -1.60305 0.283931 0
M  V30 1572 O 153.9 -1.69975 0.545042 0
M  V30 1573 C 151 -3.19578 1.12795 0
M  V30 1574 C 150.173 -3.69352 2.34302 0
M  V30 1575 C 149.232 -4.84601 2.05058 0
M  V30 1576 O 148.258 -4.96682 2.7802 0
M  V30 1577 N 149.46 -5.71194 1.03528 0
M  V30 1578 H 152.225 -1.85991 2.35005 0
M  V30 1579 H 149.786 -0.886567 1.35468 0
M  V30 1580 H 151.778 -3.9429 0.911987 0
M  V30 1581 H 150.348 -3.11642 0.24452 0
M  V30 1582 H 149.568 -2.85649 2.71659 0
M  V30 1583 H 150.856 -3.99345 3.1528 0
M  V30 1584 H 150.254 -5.64054 0.431217 0
M  V30 1585 H 148.811 -6.45843 0.879205 0
M  V30 1586 N 152.244 -1.26651 -0.937939 0
M  V30 1587 C 153.192 -1.08308 -2.05845 0
M  V30 1588 C 154.186 -0.0090757 -1.69398 0
M  V30 1589 O 155.392 -0.166007 -1.79233 0
M  V30 1590 H 151.767 -0.333416 -0.674046 0
M  V30 1591 H 153.738 -2.03261 -2.18467 0
M  V30 1592 C 152.487 -0.736229 -3.39816 0
M  V30 1593 H 151.81 -1.55453 -3.6834 0
M  V30 1594 H 153.25 -0.64769 -4.19024 0
M  V30 1595 C 151.709 0.558824 -3.32233 0
M  V30 1596 O 152.239 1.59621 -3.68624 0
M  V30 1597 N 150.445 0.550657 -2.85335 0
M  V30 1598 H 149.992 -0.293943 -2.55917 0
M  V30 1599 H 149.95 1.41726 -2.80644 0
M  V30 1600 N 153.722 1.14298 -1.08507 0
M  V30 1601 C 155.133 1.66926 -0.836227 0
M  V30 1602 C 155.484 1.85576 0.63686 0
M  V30 1603 O 154.609 1.56767 1.49175 0
M  V30 1604 C 155.204 3.03219 -1.51142 0
M  V30 1605 C 153.763 3.52876 -1.30979 0
M  V30 1606 C 152.91 2.2833 -1.57356 0
M  V30 1607 H 155.861 0.983491 -1.24552 0
M  V30 1608 H 155.882 3.68726 -0.939211 0
M  V30 1609 H 155.394 2.89612 -2.58353 0
M  V30 1610 H 153.495 3.71703 -0.258429 0
M  V30 1611 H 153.608 4.33586 -2.03814 0
M  V30 1612 H 151.972 2.34454 -0.995164 0
M  V30 1613 H 152.755 2.17298 -2.65775 0
M  V30 1614 N 155.201 0.870884 1.31352 0
M  V30 1615 C 156.478 0.402907 1.91405 0
M  V30 1616 C 156.858 -1.11512 1.79244 0
M  V30 1617 O 156.206 -1.94411 1.2007 0
M  V30 1618 C 156.416 0.885301 3.37585 0
M  V30 1619 C 157.764 0.911971 4.14691 0
M  V30 1620 O 158.788 0.831016 3.46371 0
M  V30 1621 O 157.647 1.02927 5.3672 0
M  V30 1622 H 154.741 0.120698 0.818145 0
M  V30 1623 H 157.287 0.958857 1.40014 0
M  V30 1624 H 156.059 1.92889 3.40455 0
M  V30 1625 H 155.682 0.307714 3.96407 0
M  V30 1626 N 156.679 -1.44442 0.630414 0
M  V30 1627 C 157.589 -2.34476 -0.0761693 0
M  V30 1628 C 158.605 -1.52576 -0.836449 0
M  V30 1629 O 159.781 -1.85307 -0.788874 0
M  V30 1630 C 156.846 -3.30545 -1.04599 0
M  V30 1631 C 155.907 -4.28352 -0.28516 0
M  V30 1632 C 155.14 -5.19831 -1.20878 0
M  V30 1633 O 155.363 -5.15223 -2.44747 0
M  V30 1634 O 154.297 -5.97892 -0.693491 0
M  V30 1635 H 158.123 -2.96345 0.664324 0
M  V30 1636 H 155.708 -1.44203 0.39061 0
M  V30 1637 H 157.59 -3.89681 -1.60396 0
M  V30 1638 H 156.265 -2.7121 -1.76711 0
M  V30 1639 H 155.172 -3.72764 0.315837 0
M  V30 1640 H 156.505 -4.90605 0.395924 0
M  V30 1641 N 158.157 -0.370918 -1.53173 0
M  V30 1642 C 159.104 0.473035 -2.259 0
M  V30 1643 C 160.074 1.07311 -1.26781 0
M  V30 1644 O 161.259 1.1046 -1.55574 0
M  V30 1645 C 158.399 1.60405 -3.05556 0
M  V30 1646 C 157.512 1.02863 -4.19575 0
M  V30 1647 C 156.647 2.12918 -4.86661 0
M  V30 1648 C 155.686 1.52869 -5.92704 0
M  V30 1649 N 154.823 2.56779 -6.53459 0
M  V30 1650 H 159.663 -0.153649 -2.97604 0
M  V30 1651 H 157.2 -0.0875946 -1.46839 0
M  V30 1652 H 159.158 2.27034 -3.50016 0
M  V30 1653 H 157.788 2.20131 -2.36097 0
M  V30 1654 H 156.84 0.252465 -3.79561 0
M  V30 1655 H 158.152 0.549642 -4.95762 0
M  V30 1656 H 157.306 2.87356 -5.34333 0
M  V30 1657 H 156.045 2.6417 -4.09958 0
M  V30 1658 H 155.05 0.769479 -5.44389 0
M  V30 1659 H 156.275 1.02435 -6.7133 0
M  V30 1660 H 154.221 3.07235 -5.79606 0
M  V30 1661 H 154.138 2.13583 -7.25202 0
M  V30 1662 H 155.406 3.30903 -7.05779 0
M  V30 1663 N 159.635 1.57281 -0.100228 0
M  V30 1664 C 160.863 1.98879 0.570509 0
M  V30 1665 C 161.278 0.979476 1.61405 0
M  V30 1666 O 160.635 -0.0302288 1.82475 0
M  V30 1667 C 160.686 3.4052 1.2136 0
M  V30 1668 O 160.407 4.37588 0.211786 0
M  V30 1669 C 161.908 3.97149 1.96945 0
M  V30 1670 H 159.128 0.653428 0.152555 0
M  V30 1671 H 161.672 2.03697 -0.18103 0
M  V30 1672 H 159.827 3.367 1.91603 0
M  V30 1673 H 160.241 5.20118 0.676607 0
M  V30 1674 H 161.715 4.98393 2.37294 0
M  V30 1675 H 162.192 3.3525 2.83733 0
M  V30 1676 H 162.798 4.04458 1.31506 0
M  V30 1677 N 161.113 -0.173488 1.56642 0
M  V30 1678 C 162.359 -0.891784 1.8214 0
M  V30 1679 C 162.692 -1.8199 0.677736 0
M  V30 1680 O 161.967 -1.91842 -0.320446 0
M  V30 1681 C 162.25 -1.68933 3.18015 0
M  V30 1682 C 162.103 -0.784487 4.42906 0
M  V30 1683 C 163.422 -2.65748 3.50808 0
M  V30 1684 H 160.541 -0.322761 0.662567 0
M  V30 1685 H 163.183 -0.158095 1.89341 0
M  V30 1686 H 161.333 -2.31482 3.12007 0
M  V30 1687 H 163.005 -0.172046 4.60979 0
M  V30 1688 H 161.248 -0.0924117 4.33702 0
M  V30 1689 H 161.919 -1.37799 5.34524 0
M  V30 1690 H 164.395 -2.13327 3.57255 0
M  V30 1691 H 163.271 -3.18619 4.4696 0
M  V30 1692 H 163.532 -3.45842 2.75401 0
M  V30 1693 N 162.591 -1.51276 -0.441967 0
M  V30 1694 C 163.523 -1.68444 -1.55433 0
M  V30 1695 C 164.536 -0.565187 -1.52674 0
M  V30 1696 O 165.725 -0.839356 -1.57534 0
M  V30 1697 C 162.825 -1.67966 -2.94348 0
M  V30 1698 C 161.998 -2.964 -3.21661 0
M  V30 1699 C 161.057 -2.88171 -4.40277 0
M  V30 1700 O 160.083 -3.62119 -4.39157 0
M  V30 1701 N 161.285 -2.03706 -5.43584 0
M  V30 1702 H 164.05 -2.644 -1.41112 0
M  V30 1703 H 161.611 -1.49104 -0.630838 0
M  V30 1704 H 163.603 -1.60035 -3.71713 0
M  V30 1705 H 162.173 -0.796225 -3.0229 0
M  V30 1706 H 161.393 -3.18234 -2.32638 0
M  V30 1707 H 162.681 -3.81427 -3.36736 0
M  V30 1708 H 162.079 -1.42995 -5.47329 0
M  V30 1709 H 160.636 -2.01658 -6.1982 0
M  V30 1710 N 164.069 0.697108 -1.41344 0
M  V30 1711 C 165.309 1.46939 -1.42085 0
M  V30 1712 C 165.673 1.9198 -0.0280397 0
M  V30 1713 O 166.874 2.6865 0.0897504 0
M  V30 1714 C 165.145 2.64985 -2.39828 0
M  V30 1715 S 166.704 3.54147 -2.59085 0
M  V30 1716 H 163.522 0.502146 -0.503359 0
M  V30 1717 H 166.124 0.813546 -1.77769 0
M  V30 1718 H 164.828 2.30098 -3.39828 0
M  V30 1719 H 164.359 3.35464 -2.05493 0
M  V30 1720 H 166.374 4.60137 -1.85711 0
M  V30 1721 N 165.547 1.27147 0.931209 0
M  V30 1722 C 166.777 1.15914 1.71019 0
M  V30 1723 C 167.185 -0.287112 1.87009 0
M  V30 1724 O 166.528 -1.20761 1.38429 0
M  V30 1725 C 166.59 1.76647 3.13107 0
M  V30 1726 C 166.254 3.25807 3.20467 0
M  V30 1727 C 167.251 4.22489 3.02983 0
M  V30 1728 C 164.936 3.66452 3.43538 0
M  V30 1729 C 166.93 5.57794 3.08454 0
M  V30 1730 C 164.617 5.01888 3.48643 0
M  V30 1731 C 165.615 5.97369 3.31119 0
M  V30 1732 O 165.303 7.30337 3.35952 0
M  V30 1733 H 165.035 0.404062 0.54195 0
M  V30 1734 H 167.589 1.68457 1.17521 0
M  V30 1735 H 165.819 1.18578 3.68071 0
M  V30 1736 H 167.508 1.60179 3.72958 0
M  V30 1737 H 168.274 3.92425 2.85004 0
M  V30 1738 H 164.153 2.92611 3.5623 0
M  V30 1739 H 167.697 6.32298 2.94694 0
M  V30 1740 H 163.594 5.31609 3.66145 0
M  V30 1741 H 164.362 7.38739 3.5243 0
M  V30 1742 N 167.025 -1.13721 1.09112 0
M  V30 1743 C 168.441 -1.36914 0.820174 0
M  V30 1744 C 168.641 -1.93356 -0.567079 0
M  V30 1745 O 167.697 -2.15093 -1.32255 0
M  V30 1746 C 169.01 -2.3235 1.90877 0
M  V30 1747 C 170.558 -2.45973 1.93562 0
M  V30 1748 C 171.033 -3.44714 3.01556 0
M  V30 1749 N 172.524 -3.52263 3.00775 0
M  V30 1750 C 173.259 -4.28536 3.80978 0
M  V30 1751 N 172.755 -5.07991 4.71081 0
M  V30 1752 N 174.548 -4.23804 3.69251 0
M  V30 1753 H 166.699 -0.754348 1.98553 0
M  V30 1754 H 168.962 -0.3944 0.862063 0
M  V30 1755 H 168.668 -1.98027 2.90651 0
M  V30 1756 H 168.542 -3.32332 1.78424 0
M  V30 1757 H 170.929 -2.79584 0.944286 0
M  V30 1758 H 171.01 -1.45926 2.10093 0
M  V30 1759 H 170.654 -3.11835 4.00901 0
M  V30 1760 H 170.584 -4.44558 2.82269 0
M  V30 1761 H 173.075 -2.95567 2.35475 0
M  V30 1762 H 173.388 -5.63487 5.28869 0
M  V30 1763 H 171.733 -5.07235 4.75119 0
M  V30 1764 H 174.924 -3.60806 2.98222 0
M  V30 1765 H 175.097 -4.82995 4.31995 0
M  V30 1766 N 168.503 -0.877838 -1.30888 0
M  V30 1767 C 169.919 -0.570844 -1.49042 0
M  V30 1768 C 170.119 0.893159 -1.80624 0
M  V30 1769 O 169.175 1.67485 -1.88958 0
M  V30 1770 C 170.488 -1.47784 -2.61878 0
M  V30 1771 C 172.036 -1.48071 -2.75761 0
M  V30 1772 C 172.511 -2.37347 -3.91702 0
M  V30 1773 N 174.002 -2.35271 -3.99001 0
M  V30 1774 C 174.737 -3.01063 -4.88004 0
M  V30 1775 N 174.233 -3.76055 -5.81854 0
M  V30 1776 N 176.026 -2.90332 -4.81315 0
M  V30 1777 H 168.177 -1.82502 -1.0866 0
M  V30 1778 H 170.44 -0.780797 -0.537644 0
M  V30 1779 H 170.146 -2.51993 -2.45341 0
M  V30 1780 H 170.02 -1.18215 -3.58197 0
M  V30 1781 H 172.407 -0.446166 -2.91708 0
M  V30 1782 H 172.488 -1.81668 -1.80085 0
M  V30 1783 H 172.132 -3.40883 -3.76512 0
M  V30 1784 H 172.062 -2.01071 -4.86701 0
M  V30 1785 H 174.553 -1.80768 -3.3186 0
M  V30 1786 H 174.866 -4.23366 -6.46514 0
M  V30 1787 H 173.211 -3.80163 -5.81808 0
M  V30 1788 H 176.402 -2.31278 -4.06974 0
M  V30 1789 H 176.575 -3.41885 -5.50471 0
M  V30 1790 N 169.982 1.44106 -0.638065 0
M  V30 1791 C 170.912 2.33448 0.0494287 0
M  V30 1792 C 171.893 1.48606 0.827672 0
M  V30 1793 O 173.078 1.77308 0.792173 0
M  V30 1794 C 170.208 3.31771 1.02691 0
M  V30 1795 C 169.162 4.26485 0.359823 0
M  V30 1796 C 168.488 5.14729 1.44769 0
M  V30 1797 C 169.788 5.17056 -0.738296 0
M  V30 1798 H 171.482 2.91183 -0.696636 0
M  V30 1799 H 169.028 1.40014 -0.336456 0
M  V30 1800 H 170.981 3.93161 1.51666 0
M  V30 1801 H 169.705 2.7226 1.80395 0
M  V30 1802 H 168.364 3.66437 -0.10934 0
M  V30 1803 H 168.012 4.51566 2.21578 0
M  V30 1804 H 167.712 5.78913 1.00668 0
M  V30 1805 H 169.236 5.78991 1.93911 0
M  V30 1806 H 170.65 5.72342 -0.331354 0
M  V30 1807 H 169.047 5.89879 -1.10286 0
M  V30 1808 H 170.117 4.57652 -1.60258 0
M  V30 1809 N 171.46 0.379036 1.52974 0
M  V30 1810 C 172.39 -0.452706 2.29069 0
M  V30 1811 C 173.371 -1.07237 1.32039 0
M  V30 1812 O 174.556 -1.08708 1.60923 0
M  V30 1813 C 171.686 -1.5856 3.08992 0
M  V30 1814 C 170.64 -1.0925 4.13822 0
M  V30 1815 C 169.966 -2.31668 4.81907 0
M  V30 1816 C 171.266 -0.167702 5.22031 0
M  V30 1817 H 172.96 0.182181 2.98845 0
M  V30 1818 H 170.506 0.0890592 1.43724 0
M  V30 1819 H 172.459 -2.1742 3.6098 0
M  V30 1820 H 171.183 -2.24792 2.36931 0
M  V30 1821 H 169.842 -0.526494 3.628 0
M  V30 1822 H 169.49 -2.96386 4.06404 0
M  V30 1823 H 169.19 -1.9934 5.52754 0
M  V30 1824 H 170.714 -2.91189 5.36695 0
M  V30 1825 H 172.128 -0.664186 5.6944 0
M  V30 1826 H 170.525 0.0653265 6.00064 0
M  V30 1827 H 171.595 0.786347 4.78482 0
M  V30 1828 N 172.938 -1.57226 0.108567 0
M  V30 1829 C 173.885 -2.14756 -0.845481 0
M  V30 1830 C 174.855 -1.06971 -1.27068 0
M  V30 1831 O 176.04 -1.34827 -1.35005 0
M  V30 1832 C 173.18 -2.74298 -2.09415 0
M  V30 1833 C 172.293 -3.96358 -1.71826 0
M  V30 1834 C 171.428 -4.44021 -2.9158 0
M  V30 1835 C 170.467 -5.58637 -2.50181 0
M  V30 1836 N 169.604 -6.01091 -3.62814 0
M  V30 1837 H 174.444 -2.95961 -0.348035 0
M  V30 1838 H 171.981 -1.46226 -0.160106 0
M  V30 1839 H 173.939 -3.06945 -2.82561 0
M  V30 1840 H 172.569 -1.95801 -2.56636 0
M  V30 1841 H 171.621 -3.69939 -0.885947 0
M  V30 1842 H 172.933 -4.79504 -1.37394 0
M  V30 1843 H 172.087 -4.78522 -3.72963 0
M  V30 1844 H 170.826 -3.59803 -3.29231 0
M  V30 1845 H 169.831 -5.23751 -1.67228 0
M  V30 1846 H 171.056 -6.44613 -2.13659 0
M  V30 1847 H 169.002 -5.19817 -4.00158 0
M  V30 1848 H 168.919 -6.79066 -3.32273 0
M  V30 1849 H 170.187 -6.40227 -4.44668 0
M  V30 1850 N 174.416 0.165178 -1.56732 0
M  V30 1851 C 175.379 1.18822 -1.95995 0
M  V30 1852 C 176.379 1.3685 -0.84431 0
M  V30 1853 O 177.569 1.34152 -1.11126 0
M  V30 1854 C 174.701 2.5521 -2.26011 0
M  V30 1855 H 175.894 0.851825 -2.87548 0
M  V30 1856 H 173.447 0.407857 -1.50885 0
M  V30 1857 H 174.182 2.93852 -1.37191 0
M  V30 1858 H 173.967 2.43489 -3.07336 0
M  V30 1859 H 175.457 3.28927 -2.57288 0
M  V30 1860 N 175.894 1.51508 0.433938 0
M  V30 1861 C 176.824 1.76016 1.53429 0
M  V30 1862 C 177.805 0.610112 1.58782 0
M  V30 1863 O 178.99 0.853177 1.74455 0
M  V30 1864 C 176.12 1.88831 2.9148 0
M  V30 1865 C 175.074 3.04288 3.00987 0
M  V30 1866 C 174.4 3.0229 4.4105 0
M  V30 1867 C 175.7 4.44193 2.74754 0
M  V30 1868 H 177.394 2.68152 1.33171 0
M  V30 1869 H 174.94 1.29035 0.639214 0
M  V30 1870 H 176.893 2.04559 3.6842 0
M  V30 1871 H 175.617 0.933455 3.12976 0
M  V30 1872 H 174.276 2.8827 2.26486 0
M  V30 1873 H 173.924 2.04576 4.59519 0
M  V30 1874 H 173.624 3.79822 4.4834 0
M  V30 1875 H 175.148 3.20116 5.1996 0
M  V30 1876 H 176.562 4.60544 3.41426 0
M  V30 1877 H 174.959 5.23457 2.9345 0
M  V30 1878 H 176.029 4.53996 1.70339 0
M  V30 1879 N 177.372 -0.689602 1.41712 0
M  V30 1880 C 178.319 -1.80345 1.44029 0
M  V30 1881 C 179.289 -1.63478 0.293948 0
M  V30 1882 O 180.474 -1.84244 0.495869 0
M  V30 1883 C 177.614 -3.18272 1.33405 0
M  V30 1884 C 176.727 -3.46529 2.57956 0
M  V30 1885 C 175.862 -4.74103 2.39582 0
M  V30 1886 C 174.901 -4.95347 3.5958 0
M  V30 1887 N 174.038 -6.14151 3.40239 0
M  V30 1888 H 178.878 -1.77698 2.39222 0
M  V30 1889 H 176.415 -0.867688 1.18784 0
M  V30 1890 H 178.373 -3.97956 1.25246 0
M  V30 1891 H 177.003 -3.2008 0.418164 0
M  V30 1892 H 176.055 -2.61207 2.76542 0
M  V30 1893 H 177.367 -3.58126 3.47199 0
M  V30 1894 H 176.521 -5.61853 2.28924 0
M  V30 1895 H 175.26 -4.64763 1.47805 0
M  V30 1896 H 174.265 -4.06044 3.70686 0
M  V30 1897 H 175.49 -5.06542 4.52318 0
M  V30 1898 H 173.436 -6.06013 2.51167 0
M  V30 1899 H 173.353 -6.26543 4.23061 0
M  V30 1900 H 174.621 -7.04619 3.33365 0
M  V30 1901 N 178.85 -1.27639 -0.924453 0
M  V30 1902 C 180.078 -1.16989 -1.70649 0
M  V30 1903 C 180.493 0.272869 -1.86818 0
M  V30 1904 O 179.85 1.18549 -1.38753 0
M  V30 1905 C 179.901 -1.85229 -3.10439 0
M  V30 1906 O 179.622 -3.23868 -2.95028 0
M  V30 1907 C 181.123 -1.80746 -4.04779 0
M  V30 1908 H 178.343 -0.406595 -0.53378 0
M  V30 1909 H 180.887 -1.68569 -1.15778 0
M  V30 1910 H 179.042 -1.37545 -3.6216 0
M  V30 1911 H 179.456 -3.57889 -3.83426 0
M  V30 1912 H 180.93 -2.33101 -5.00368 0
M  V30 1913 H 181.407 -0.777499 -4.32263 0
M  V30 1914 H 182.013 -2.28059 -3.58984 0
M  V30 1915 N 180.328 1.1314 -1.09713 0
M  V30 1916 C 181.291 2.16831 -0.742751 0
M  V30 1917 C 182.291 1.59159 0.229129 0
M  V30 1918 O 183.481 1.74199 0.00693237 0
M  V30 1919 C 180.613 3.40756 -0.0989168 0
M  V30 1920 H 181.806 2.49695 -1.66109 0
M  V30 1921 H 179.359 1.2802 -0.896699 0
M  V30 1922 H 180.094 3.13485 0.830514 0
M  V30 1923 H 179.879 3.83888 -0.798265 0
M  V30 1924 H 181.369 4.17386 0.133524 0
M  V30 1925 N 181.806 0.884767 1.30421 0
M  V30 1926 C 183.222 0.57874 1.48737 0
M  V30 1927 C 183.422 -0.883567 1.81095 0
M  V30 1928 O 182.478 -1.6648 1.89844 0
M  V30 1929 C 183.791 1.49171 2.61091 0
M  V30 1930 C 185.339 1.49532 2.74971 0
M  V30 1931 C 185.814 2.39421 3.90438 0
M  V30 1932 N 187.305 2.37383 3.97748 0
M  V30 1933 C 188.04 3.03647 4.86401 0
M  V30 1934 N 187.536 3.79136 5.79852 0
M  V30 1935 N 189.329 2.9288 4.79768 0
M  V30 1936 H 181.48 1.83075 1.0769 0
M  V30 1937 H 183.743 0.783637 0.533495 0
M  V30 1938 H 183.449 2.53291 2.44001 0
M  V30 1939 H 183.323 1.20113 3.57565 0
M  V30 1940 H 185.71 0.46163 2.91467 0
M  V30 1941 H 185.791 1.8262 1.79119 0
M  V30 1942 H 185.435 3.42874 3.74699 0
M  V30 1943 H 185.365 2.03649 4.85628 0
M  V30 1944 H 187.856 1.82525 3.30897 0
M  V30 1945 H 188.169 4.26789 6.4426 0
M  V30 1946 H 186.514 3.83243 5.79784 0
M  V30 1947 H 189.705 2.33433 4.05742 0
M  V30 1948 H 189.878 3.448 5.4865 0
M  V30 1949 N 183.284 -1.43765 0.645699 0
M  V30 1950 C 184.214 -2.33471 -0.0370477 0
M  V30 1951 C 185.195 -1.49042 -0.819779 0
M  V30 1952 O 186.38 -1.77726 -0.782758 0
M  V30 1953 C 183.51 -3.32311 -1.0093 0
M  V30 1954 C 182.464 -4.2667 -0.337201 0
M  V30 1955 C 181.79 -5.1549 -1.42037 0
M  V30 1956 C 183.09 -5.16657 0.765706 0
M  V30 1957 H 184.784 -2.90809 0.712069 0
M  V30 1958 H 182.33 -1.39834 0.343876 0
M  V30 1959 H 184.283 -3.9396 -1.49578 0
M  V30 1960 H 183.007 -2.73213 -1.78948 0
M  V30 1961 H 181.666 -3.66374 0.128771 0
M  V30 1962 H 181.314 -4.52735 -2.1918 0
M  V30 1963 H 181.014 -5.79438 -0.975966 0
M  V30 1964 H 182.538 -5.80012 -1.90838 0
M  V30 1965 H 183.952 -5.72158 0.361702 0
M  V30 1966 H 182.349 -5.89286 1.13413 0
M  V30 1967 H 183.419 -4.56796 1.62683 0
M  V30 1968 N 184.763 -0.387143 -1.52771 0
M  V30 1969 C 185.695 0.484089 -2.2403 0
M  V30 1970 C 186.708 1.02849 -1.26198 0
M  V30 1971 O 187.897 0.931186 -1.52286 0
M  V30 1972 C 184.997 1.68337 -2.94136 0
M  V30 1973 C 184.17 1.26672 -4.18656 0
M  V30 1974 C 183.229 2.33045 -4.7178 0
M  V30 1975 O 182.255 1.94541 -5.34923 0
M  V30 1976 N 183.457 3.64929 -4.5145 0
M  V30 1977 H 186.222 -0.126404 -2.99433 0
M  V30 1978 H 183.783 -0.213392 -1.60488 0
M  V30 1979 H 185.775 2.39019 -3.26577 0
M  V30 1980 H 184.345 2.20025 -2.22053 0
M  V30 1981 H 183.565 0.388878 -3.92277 0
M  V30 1982 H 184.853 0.964964 -4.99566 0
M  V30 1983 H 184.251 3.98974 -4.01044 0
M  V30 1984 H 182.808 4.31651 -4.88386 0
M  V30 1985 N 186.241 1.57166 -0.116904 0
M  V30 1986 C 187.652 1.82169 0.408809 0
M  V30 1987 C 188.003 1.03393 1.66746 0
M  V30 1988 O 187.128 0.269886 2.1471 0
M  V30 1989 C 187.723 3.30429 0.748466 0
M  V30 1990 C 186.282 3.5612 1.21882 0
M  V30 1991 C 185.429 2.76374 0.226452 0
M  V30 1992 H 188.38 1.5497 -0.342063 0
M  V30 1993 H 188.401 3.44943 1.60607 0
M  V30 1994 H 187.913 3.87737 -0.167784 0
M  V30 1995 H 186.014 3.04168 2.15204 0
M  V30 1996 H 186.127 4.64705 1.16559 0
M  V30 1997 H 184.491 2.44515 0.713063 0
M  V30 1998 H 185.274 3.3644 -0.682859 0
M  V30 1999 N 187.719 -0.156864 1.56817 0
M  V30 2000 C 188.652 -1.22316 1.9265 0
M  V30 2001 C 189.63 -1.42059 0.791076 0
M  V30 2002 O 190.814 -1.56831 1.04576 0
M  V30 2003 C 187.941 -2.58375 2.18998 0
M  V30 2004 C 186.987 -2.55284 3.41661 0
M  V30 2005 S 187.82 -2.02946 4.95553 0
M  V30 2006 C 188.976 -3.40753 5.25013 0
M  V30 2007 H 189.209 -0.917403 2.82791 0
M  V30 2008 H 186.742 -0.362059 1.50095 0
M  V30 2009 H 188.7 -3.36677 2.34859 0
M  V30 2010 H 187.361 -2.86145 1.29538 0
M  V30 2011 H 186.554 -3.55418 3.57343 0
M  V30 2012 H 186.156 -1.85086 3.24991 0
M  V30 2013 H 188.448 -4.36819 5.17876 0
M  V30 2014 H 189.391 -3.29933 6.26538 0
M  V30 2015 H 189.799 -3.37433 4.52548 0
M  V30 2016 N 189.197 -1.51736 -0.425897 0
M  V30 2017 C 190.443 -1.65214 -1.1761 0
M  V30 2018 C 190.776 -0.372778 -1.90589 0
M  V30 2019 O 190.051 0.628139 -1.84078 0
M  V30 2020 C 190.334 -2.86312 -2.18398 0
M  V30 2021 C 190.187 -4.24254 -1.49426 0
M  V30 2022 C 191.506 -3.02925 -3.19256 0
M  V30 2023 H 188.625 -0.601263 -0.426206 0
M  V30 2024 H 191.267 -1.8425 -0.463882 0
M  V30 2025 H 189.417 -2.70213 -2.79137 0
M  V30 2026 H 191.089 -4.52046 -0.919362 0
M  V30 2027 H 189.332 -4.26426 -0.796432 0
M  V30 2028 H 190.003 -5.05001 -2.22885 0
M  V30 2029 H 192.479 -3.1781 -2.68581 0
M  V30 2030 H 191.355 -3.89199 -3.8706 0
M  V30 2031 H 191.616 -2.15497 -3.86023 0
M  V30 2032 N 190.675 0.682077 -1.42076 0
M  V30 2033 C 191.924 1.43786 -1.41451 0
M  V30 2034 C 192.237 1.95574 -0.0317074 0
M  V30 2035 O 193.443 2.71326 0.0971462 0
M  V30 2036 C 191.899 2.60071 -2.48779 0
M  V30 2037 C 191.507 2.15013 -3.93031 0
M  V30 2038 C 193.251 3.37626 -2.57311 0
M  V30 2039 C 191.158 3.28336 -4.91883 0
M  V30 2040 H 190.088 0.540143 -0.526082 0
M  V30 2041 H 192.739 0.739157 -1.67955 0
M  V30 2042 H 191.121 3.32275 -2.15429 0
M  V30 2043 H 192.295 1.5001 -4.35699 0
M  V30 2044 H 190.61 1.50416 -3.88284 0
M  V30 2045 H 193.207 4.22012 -3.28345 0
M  V30 2046 H 193.55 3.83727 -1.61429 0
M  V30 2047 H 194.083 2.72488 -2.89819 0
M  V30 2048 H 190.822 2.87234 -5.89217 0
M  V30 2049 H 190.342 3.92145 -4.53853 0
M  V30 2050 H 192.021 3.93913 -5.13265 0
M  V30 2051 N 192.153 1.28127 0.917671 0
M  V30 2052 C 193.083 1.14248 2.03641 0
M  V30 2053 C 194.064 0.0412748 1.7005 0
M  V30 2054 O 195.249 0.217566 1.92977 0
M  V30 2055 C 192.379 0.799431 3.37974 0
M  V30 2056 C 191.333 1.85497 3.85713 0
M  V30 2057 C 190.659 1.36565 5.16966 0
M  V30 2058 C 191.959 3.26085 4.08002 0
M  V30 2059 H 193.653 2.07835 2.15511 0
M  V30 2060 H 191.199 1.00064 1.03553 0
M  V30 2061 H 193.152 0.689114 4.15727 0
M  V30 2062 H 191.876 -0.172145 3.26146 0
M  V30 2063 H 190.535 1.95437 3.10161 0
M  V30 2064 H 190.183 0.383253 5.01538 0
M  V30 2065 H 189.883 2.07143 5.49878 0
M  V30 2066 H 191.407 1.26848 5.97279 0
M  V30 2067 H 192.821 3.19089 4.76293 0
M  V30 2068 H 191.218 3.94462 4.52238 0
M  V30 2069 H 192.288 3.70394 3.12948 0
M  V30 2070 N 193.631 -1.12557 1.10312 0
M  V30 2071 C 194.581 -2.16331 0.720076 0
M  V30 2072 C 195.565 -1.58616 -0.270115 0
M  V30 2073 O 196.757 -1.76823 -0.0790507 0
M  V30 2074 C 193.886 -3.42963 0.152113 0
M  V30 2075 C 192.972 -4.07663 1.16927 0
M  V30 2076 N 193.363 -4.47392 2.35953 0
M  V30 2077 C 191.661 -4.34425 1.0095 0
M  V30 2078 C 192.362 -4.97932 3.0073 0
M  V30 2079 N 191.338 -4.93358 2.28252 0
M  V30 2080 H 195.14 -2.44813 1.62616 0
M  V30 2081 H 192.654 -1.29449 0.980654 0
M  V30 2082 H 194.651 -4.16664 -0.14037 0
M  V30 2083 H 193.311 -3.1595 -0.748701 0
M  V30 2084 H 194.322 -4.39802 2.73486 0
M  V30 2085 H 190.999 -4.17177 0.164134 0
M  V30 2086 H 192.389 -5.38397 4.01969 0
M  V30 2087 N 195.109 -0.891671 -1.2995 0
M  V30 2088 C 196.059 -0.334811 -2.25528 0
M  V30 2089 C 197.043 0.540553 -1.51548 0
M  V30 2090 O 198.235 0.383882 -1.72787 0
M  V30 2091 C 195.364 0.44374 -3.4042 0
M  V30 2092 C 194.45 -0.44609 -4.21747 0
M  V30 2093 N 194.841 -1.54963 -4.81477 0
M  V30 2094 C 193.139 -0.242415 -4.45341 0
M  V30 2095 C 193.84 -2.10015 -5.42465 0
M  V30 2096 N 192.816 -1.39423 -5.25416 0
M  V30 2097 H 196.618 -1.17792 -2.69262 0
M  V30 2098 H 194.132 -0.741822 -1.44467 0
M  V30 2099 H 196.129 0.859362 -4.07947 0
M  V30 2100 H 194.789 1.28421 -2.98225 0
M  V30 2101 H 195.8 -1.93244 -4.80497 0
M  V30 2102 H 192.477 0.560342 -4.13723 0
M  V30 2103 H 193.867 -3.02724 -5.9984 0
M  V30 2104 N 196.587 1.43421 -0.653314 0
M  V30 2105 C 197.519 2.29071 0.0769134 0
M  V30 2106 C 198.532 1.42513 0.787017 0
M  V30 2107 O 199.721 1.66449 0.644757 0
M  V30 2108 C 196.821 3.19436 1.13199 0
M  V30 2109 C 195.994 4.34533 0.500006 0
M  V30 2110 C 195.053 5.05771 1.45198 0
M  V30 2111 O 194.079 5.61037 0.960538 0
M  V30 2112 N 195.281 5.0928 2.78594 0
M  V30 2113 H 198.046 2.92382 -0.658235 0
M  V30 2114 H 195.607 1.54112 -0.496104 0
M  V30 2115 H 197.599 3.63958 1.76964 0
M  V30 2116 H 196.169 2.57724 1.7691 0
M  V30 2117 H 195.389 3.92925 -0.316738 0
M  V30 2118 H 196.677 5.08766 0.0588345 0
M  V30 2119 H 196.075 4.65751 3.2108 0
M  V30 2120 H 194.632 5.57519 3.37662 0
M  V30 2121 N 198.065 0.39524 1.52563 0
M  V30 2122 C 199.293 -0.184943 2.06072 0
M  V30 2123 C 199.708 -1.40021 1.26647 0
M  V30 2124 O 199.065 -1.79767 0.314672 0
M  V30 2125 C 199.116 -0.549179 3.57304 0
M  V30 2126 O 198.837 0.617813 4.33722 0
M  V30 2127 C 200.338 -1.18459 4.2718 0
M  V30 2128 H 197.558 -0.0265025 0.670476 0
M  V30 2129 H 200.102 0.562184 1.96621 0
M  V30 2130 H 198.257 -1.2462 3.66809 0
M  V30 2131 H 198.671 0.317091 5.23541 0
M  V30 2132 H 200.145 -1.38976 5.34219 0
M  V30 2133 H 200.622 -2.15368 3.82771 0
M  V30 2134 H 201.228 -0.528163 4.22008 0
M  V30 2135 N 199.544 -1.57102 0.125237 0
M  V30 2136 C 200.474 -2.18659 -0.819174 0
M  V30 2137 C 201.455 -1.12843 -1.27281 0
M  V30 2138 O 202.64 -1.41104 -1.33429 0
M  V30 2139 C 199.77 -2.79096 -2.06695 0
M  V30 2140 C 198.724 -3.90548 -1.75088 0
M  V30 2141 C 198.05 -4.37821 -3.06948 0
M  V30 2142 C 199.35 -5.12356 -1.01435 0
M  V30 2143 H 201.044 -2.9783 -0.306202 0
M  V30 2144 H 198.59 -1.4326 -0.145839 0
M  V30 2145 H 200.543 -3.2082 -2.73226 0
M  V30 2146 H 199.267 -1.97223 -2.60328 0
M  V30 2147 H 197.926 -3.49409 -1.10944 0
M  V30 2148 H 197.574 -3.52799 -3.58527 0
M  V30 2149 H 197.274 -5.12982 -2.86571 0
M  V30 2150 H 198.798 -4.822 -3.74587 0
M  V30 2151 H 200.212 -5.5106 -1.58132 0
M  V30 2152 H 198.609 -5.9314 -0.911319 0
M  V30 2153 H 199.679 -4.849 -0.00218681 0
M  V30 2154 N 201.022 0.148545 -1.56898 0
M  V30 2155 C 202.433 0.708766 -1.72723 0
M  V30 2156 C 202.784 1.81734 -0.739395 0
M  V30 2157 O 201.909 2.16194 0.0943169 0
M  V30 2158 C 202.504 1.29245 -3.13179 0
M  V30 2159 C 201.063 1.79925 -3.30611 0
M  V30 2160 C 200.21 0.687111 -2.68652 0
M  V30 2161 H 203.161 -0.0771063 -1.58513 0
M  V30 2162 H 203.182 2.16224 -3.13093 0
M  V30 2163 H 202.694 0.485382 -3.85053 0
M  V30 2164 H 200.795 2.63203 -2.63732 0
M  V30 2165 H 200.908 1.92903 -4.38549 0
M  V30 2166 H 199.272 1.11335 -2.29078 0
M  V30 2167 H 200.055 -0.108483 -3.43129 0
M  V30 2168 N 202.5 1.5196 0.417844 0
M  V30 2169 C 203.463 1.74065 1.49111 0
M  V30 2170 C 204.463 0.610537 1.48758 0
M  V30 2171 O 205.653 0.87832 1.50437 0
M  V30 2172 C 202.785 1.81502 2.88565 0
M  V30 2173 H 203.978 2.69869 1.30807 0
M  V30 2174 H 201.531 1.42244 0.647785 0
M  V30 2175 H 202.266 0.875813 3.1225 0
M  V30 2176 H 202.051 2.63651 2.90225 0
M  V30 2177 H 203.541 2.00376 3.66387 0
M  V30 2178 N 203.978 -0.674533 1.42435 0
M  V30 2179 C 205.203 -1.46784 1.46524 0
M  V30 2180 C 205.628 -1.87938 0.078066 0
M  V30 2181 O 204.986 -1.56014 -0.92354 0
M  V30 2182 C 205.034 -2.69307 2.39805 0
M  V30 2183 O 204.138 -3.67587 1.86959 0
M  V30 2184 H 203.479 -0.440959 0.496439 0
M  V30 2185 H 206.009 -0.827326 1.87127 0
M  V30 2186 H 206.019 -3.17374 2.56393 0
M  V30 2187 H 204.694 -2.38692 3.40586 0
M  V30 2188 H 203.271 -3.2662 1.79927 0
M  V30 2189 N 205.456 -1.28612 -0.910864 0
M  V30 2190 C 206.684 -1.18792 -1.69399 0
M  V30 2191 C 207.099 0.253039 -1.87097 0
M  V30 2192 O 206.456 1.17071 -1.40003 0
M  V30 2193 C 206.507 -1.88511 -3.08457 0
M  V30 2194 O 206.228 -3.26979 -2.91576 0
M  V30 2195 C 207.729 -1.85029 -4.02839 0
M  V30 2196 H 204.949 -0.412233 -0.529438 0
M  V30 2197 H 207.493 -1.69788 -1.13984 0
M  V30 2198 H 205.648 -1.41379 -3.60681 0
M  V30 2199 H 206.062 -3.61936 -3.79608 0
M  V30 2200 H 207.536 -2.38395 -4.97867 0
M  V30 2201 H 208.013 -0.823303 -4.31414 0
M  V30 2202 H 208.619 -2.31853 -3.56545 0
M  V30 2203 N 206.934 1.1197 -1.10907 0
M  V30 2204 C 207.864 2.19928 -0.784473 0
M  V30 2205 C 208.845 1.6833 0.244726 0
M  V30 2206 O 210.03 1.93892 0.109418 0
M  V30 2207 C 207.16 3.46597 -0.220827 0
M  V30 2208 C 206.114 4.11376 -1.18127 0
M  V30 2209 C 205.44 5.32554 -0.478594 0
M  V30 2210 C 206.74 4.56945 -2.52979 0
M  V30 2211 H 208.434 2.47337 -1.68715 0
M  V30 2212 H 205.98 1.18879 -0.812642 0
M  V30 2213 H 207.933 4.21396 0.0184278 0
M  V30 2214 H 206.657 3.1863 0.717113 0
M  V30 2215 H 205.316 3.38564 -1.40606 0
M  V30 2216 H 204.964 5.00856 0.463976 0
M  V30 2217 H 204.664 5.76844 -1.11912 0
M  V30 2218 H 206.188 6.10096 -0.248 0
M  V30 2219 H 207.602 5.23093 -2.3462 0
M  V30 2220 H 205.999 5.1203 -3.12962 0
M  V30 2221 H 207.069 3.70676 -3.12614 0
M  V30 2222 N 208.412 0.89855 1.29475 0
M  V30 2223 C 209.828 0.594483 1.48115 0
M  V30 2224 C 210.028 -0.86431 1.82022 0
M  V30 2225 O 209.084 -1.64457 1.91599 0
M  V30 2226 C 210.397 1.51932 2.59494 0
M  V30 2227 C 211.945 1.5244 2.7337 0
M  V30 2228 C 212.42 2.43548 3.87877 0
M  V30 2229 N 213.911 2.41589 3.95208 0
M  V30 2230 C 214.646 3.08789 4.83153 0
M  V30 2231 N 214.142 3.85265 5.75798 0
M  V30 2232 N 215.935 2.97952 4.76635 0
M  V30 2233 H 208.086 1.84207 1.05742 0
M  V30 2234 H 210.349 0.789251 0.525154 0
M  V30 2235 H 210.055 2.55865 2.41301 0
M  V30 2236 H 209.929 1.23899 3.56271 0
M  V30 2237 H 212.316 0.492518 2.90961 0
M  V30 2238 H 212.397 1.8451 1.77172 0
M  V30 2239 H 212.041 3.46829 3.71041 0
M  V30 2240 H 211.971 2.08788 4.83441 0
M  V30 2241 H 214.462 1.86025 3.28943 0
M  V30 2242 H 214.775 4.33598 6.39697 0
M  V30 2243 H 213.12 3.89371 5.75687 0
M  V30 2244 H 216.311 2.37723 4.03244 0
M  V30 2245 H 216.484 3.50599 5.44962 0
M  V30 2246 N 209.89 -1.43072 0.660911 0
M  V30 2247 C 211.306 -1.56169 0.329173 0
M  V30 2248 C 211.506 -1.64317 -1.16629 0
M  V30 2249 O 210.562 -1.60245 -1.95135 0
M  V30 2250 C 211.875 -2.81873 1.04729 0
M  V30 2251 C 213.423 -2.95627 1.02828 0
M  V30 2252 C 213.898 -4.24174 1.72744 0
M  V30 2253 N 215.389 -4.31055 1.69545 0
M  V30 2254 C 216.124 -5.29304 2.20511 0
M  V30 2255 N 215.62 -6.33786 2.79799 0
M  V30 2256 N 217.413 -5.21008 2.10966 0
M  V30 2257 H 209.564 -1.36027 1.63127 0
M  V30 2258 H 211.827 -0.653823 0.686454 0
M  V30 2259 H 211.533 -2.81942 2.10242 0
M  V30 2260 H 211.407 -3.72338 0.603702 0
M  V30 2261 H 213.794 -2.95094 -0.0184742 0
M  V30 2262 H 213.875 -2.06431 1.51063 0
M  V30 2263 H 213.519 -4.25467 2.7738 0
M  V30 2264 H 213.449 -5.1228 1.2197 0
M  V30 2265 H 215.94 -3.56174 1.26288 0
M  V30 2266 H 216.253 -7.05086 3.16344 0
M  V30 2267 H 214.598 -6.34387 2.83863 0
M  V30 2268 H 217.789 -4.38301 1.64347 0
M  V30 2269 H 217.962 -5.97416 2.50993 0
M  V30 2270 N 211.368 -0.403325 -1.52352 0
M  V30 2271 C 212.596 0.174012 -2.06167 0
M  V30 2272 C 213.011 1.39347 -1.27388 0
M  V30 2273 O 212.368 1.79597 -0.324201 0
M  V30 2274 C 212.419 0.530223 -3.5759 0
M  V30 2275 O 212.14 -0.640806 -4.33388 0
M  V30 2276 C 213.641 1.16192 -4.27802 0
M  V30 2277 H 210.861 0.0229464 -0.670608 0
M  V30 2278 H 213.405 -0.572604 -1.9632 0
M  V30 2279 H 211.56 1.22673 -3.67464 0
M  V30 2280 H 211.974 -0.344851 -5.23365 0
M  V30 2281 H 213.448 1.36141 -5.34948 0
M  V30 2282 H 213.925 2.13335 -3.83907 0
M  V30 2283 H 214.531 0.505775 -4.22282 0
M  V30 2284 N 212.846 1.57033 -0.133567 0
M  V30 2285 C 213.756 2.19632 0.824564 0
M  V30 2286 C 214.772 1.17666 1.28182 0
M  V30 2287 O 215.948 1.50193 1.3418 0
M  V30 2288 C 213.013 2.79499 2.05137 0
M  V30 2289 C 212.074 3.96548 1.64464 0
M  V30 2290 C 211.307 4.5355 2.81297 0
M  V30 2291 O 211.53 4.09438 3.97136 0
M  V30 2292 O 210.464 5.44018 2.57542 0
M  V30 2293 H 214.29 3.01991 0.321766 0
M  V30 2294 H 211.875 1.49112 0.0927889 0
M  V30 2295 H 213.757 3.17602 2.7696 0
M  V30 2296 H 212.432 2.00162 2.54395 0
M  V30 2297 H 211.339 3.63186 0.897048 0
M  V30 2298 H 212.672 4.77364 1.19934 0
M  V30 2299 N 214.325 -0.140222 1.56975 0
M  V30 2300 C 215.288 -1.15689 1.97861 0
M  V30 2301 C 216.288 -1.3549 0.865974 0
M  V30 2302 O 217.478 -1.32367 1.13246 0
M  V30 2303 C 214.61 -2.51582 2.30042 0
M  V30 2304 H 215.803 -0.805971 2.88867 0
M  V30 2305 H 213.356 -0.383801 1.51515 0
M  V30 2306 H 214.091 -2.91632 1.41849 0
M  V30 2307 H 213.876 -2.38569 3.11171 0
M  V30 2308 H 215.366 -3.24792 2.62488 0
M  V30 2309 N 215.803 -1.52179 -0.40978 0
M  V30 2310 C 217.05 -1.66206 -1.15679 0
M  V30 2311 C 217.378 -0.391674 -1.90516 0
M  V30 2312 O 216.633 0.62533 -1.8544 0
M  V30 2313 C 216.932 -2.83428 -2.17723 0
M  V30 2314 C 216.598 -4.21672 -1.59699 0
M  V30 2315 C 215.26 -4.59274 -1.43599 0
M  V30 2316 C 217.612 -5.07825 -1.17317 0
M  V30 2317 C 214.94 -5.80709 -0.836328 0
M  V30 2318 C 217.292 -6.29864 -0.587691 0
M  V30 2319 C 215.956 -6.66216 -0.413818 0
M  V30 2320 H 215.226 -0.608192 -0.423301 0
M  V30 2321 H 217.873 -1.86279 -0.444097 0
M  V30 2322 H 216.178 -2.57687 -2.95135 0
M  V30 2323 H 217.875 -2.91477 -2.75394 0
M  V30 2324 H 214.465 -3.9204 -1.73213 0
M  V30 2325 H 218.649 -4.79359 -1.28565 0
M  V30 2326 H 213.905 -6.07498 -0.689626 0
M  V30 2327 H 218.079 -6.95948 -0.250894 0
M  V30 2328 H 215.706 -7.60182 0.0529471 0
M  V30 2329 N 217.281 0.66697 -1.42791 0
M  V30 2330 C 218.244 1.76211 -1.46568 0
M  V30 2331 C 219.244 1.56896 -0.352196 0
M  V30 2332 O 220.434 1.63044 -0.613364 0
M  V30 2333 C 217.566 3.14935 -1.30494 0
M  V30 2334 H 218.759 1.74247 -2.44086 0
M  V30 2335 H 216.312 0.877342 -1.29354 0
M  V30 2336 H 217.047 3.2252 -0.339301 0
M  V30 2337 H 216.832 3.30359 -2.11199 0
M  V30 2338 H 218.322 3.94821 -1.36038 0
M  V30 2339 N 218.759 1.29093 0.90403 0
M  V30 2340 C 220.036 1.075 1.63411 0
M  V30 2341 C 220.416 -0.382346 2.07609 0
M  V30 2342 O 219.764 -1.37031 1.82851 0
M  V30 2343 C 219.974 2.05858 2.81822 0
M  V30 2344 C 221.322 2.36539 3.52611 0
M  V30 2345 O 222.346 2.04019 2.91984 0
M  V30 2346 O 221.205 2.92085 4.61897 0
M  V30 2347 H 218.299 0.411547 0.717327 0
M  V30 2348 H 220.845 1.40449 0.952479 0
M  V30 2349 H 219.617 3.04037 2.46327 0
M  V30 2350 H 219.24 1.73613 3.57693 0
M  V30 2351 N 220.237 -1.11381 1.11499 0
M  V30 2352 C 221.167 -2.19509 0.796125 0
M  V30 2353 C 222.148 -1.68458 -0.235796 0
M  V30 2354 O 223.333 -1.93947 -0.0991344 0
M  V30 2355 C 220.463 -3.46475 0.239205 0
M  V30 2356 C 219.417 -4.10744 1.20307 0
M  V30 2357 C 218.743 -5.32293 0.50683 0
M  V30 2358 C 220.043 -4.55597 2.55399 0
M  V30 2359 H 221.737 -2.46439 1.70024 0
M  V30 2360 H 219.283 -1.18446 0.818935 0
M  V30 2361 H 221.236 -4.214 0.00392006 0
M  V30 2362 H 219.96 -3.19006 -0.700206 0
M  V30 2363 H 218.619 -3.37813 1.42399 0
M  V30 2364 H 218.267 -5.01095 -0.437408 0
M  V30 2365 H 217.967 -5.76243 1.1497 0
M  V30 2366 H 219.491 -6.09956 0.280351 0
M  V30 2367 H 220.905 -5.21841 2.37391 0
M  V30 2368 H 219.302 -5.10363 3.15673 0
M  V30 2369 H 220.372 -3.69013 3.14575 0
M  V30 2370 N 221.715 -0.905404 -1.28997 0
M  V30 2371 C 222.962 -0.534248 -1.95325 0
M  V30 2372 C 223.29 0.920535 -1.71337 0
M  V30 2373 O 222.545 1.66861 -1.02254 0
M  V30 2374 C 222.844 -0.779906 -3.48787 0
M  V30 2375 C 222.51 -2.21293 -3.92861 0
M  V30 2376 C 221.172 -2.60475 -4.04606 0
M  V30 2377 C 223.524 -3.14587 -4.15553 0
M  V30 2378 C 220.852 -3.9212 -4.36416 0
M  V30 2379 C 223.204 -4.45787 -4.48839 0
M  V30 2380 C 221.868 -4.84834 -4.58794 0
M  V30 2381 H 221.138 -0.195495 -0.714747 0
M  V30 2382 H 223.785 -1.14514 -1.53488 0
M  V30 2383 H 222.09 -0.0861365 -3.91705 0
M  V30 2384 H 223.787 -0.472029 -3.98212 0
M  V30 2385 H 220.377 -1.89887 -3.84241 0
M  V30 2386 H 224.561 -2.85528 -4.0594 0
M  V30 2387 H 219.817 -4.22086 -4.42327 0
M  V30 2388 H 223.991 -5.18098 -4.65346 0
M  V30 2389 H 221.618 -5.86877 -4.83197 0
M  V30 2390 N 223.193 1.4272 -0.668489 0
M  V30 2391 C 224.156 2.292 0.00448567 0
M  V30 2392 C 225.156 1.43001 0.735339 0
M  V30 2393 O 226.346 1.64461 0.57429 0
M  V30 2394 C 223.478 3.25375 1.01705 0
M  V30 2395 H 224.671 2.90199 -0.756608 0
M  V30 2396 H 222.224 1.50254 -0.430506 0
M  V30 2397 H 222.959 2.69301 1.80686 0
M  V30 2398 H 222.744 3.88944 0.496463 0
M  V30 2399 H 224.234 3.90245 1.48655 0
M  V30 2400 N 224.671 0.411399 1.52136 0
M  V30 2401 C 225.948 -0.222308 1.94333 0
M  V30 2402 C 226.328 -1.6242 1.34844 0
M  V30 2403 O 225.676 -2.22384 0.525145 0
M  V30 2404 C 225.886 -0.226345 3.48265 0
M  V30 2405 C 227.234 -0.444592 4.22266 0
M  V30 2406 O 228.258 -0.305602 3.54887 0
M  V30 2407 O 227.117 -0.718749 5.41753 0
M  V30 2408 H 224.211 -0.143907 0.814383 0
M  V30 2409 H 226.757 0.467506 1.63133 0
M  V30 2410 H 225.529 0.75475 3.83952 0
M  V30 2411 H 225.152 -0.960163 3.85832 0
M  V30 2412 N 226.149 -1.5696 0.141893 0
M  V30 2413 C 227.379 -2.00031 -0.516828 0
M  V30 2414 C 227.787 -1.02091 -1.59293 0
M  V30 2415 O 227.13 -0.00909657 -1.83698 0
M  V30 2416 C 227.192 -3.39534 -1.1814 0
M  V30 2417 C 226.856 -4.56313 -0.250513 0
M  V30 2418 C 227.853 -5.17295 0.519839 0
M  V30 2419 C 225.538 -5.02061 -0.154907 0
M  V30 2420 C 227.532 -6.2243 1.3733 0
M  V30 2421 C 225.219 -6.07053 0.702161 0
M  V30 2422 C 226.217 -6.67106 1.46487 0
M  V30 2423 O 225.905 -7.70066 2.30767 0
M  V30 2424 H 225.637 -0.661451 -0.139493 0
M  V30 2425 H 228.191 -2.04086 0.231926 0
M  V30 2426 H 226.421 -3.32302 -1.97769 0
M  V30 2427 H 228.11 -3.66745 -1.73933 0
M  V30 2428 H 228.876 -4.82852 0.45598 0
M  V30 2429 H 224.755 -4.5505 -0.7383 0
M  V30 2430 H 228.299 -6.69233 1.96909 0
M  V30 2431 H 224.196 -6.40923 0.76733 0
M  V30 2432 H 224.964 -7.87264 2.23959 0
M  V30 2433 N 227.627 0.131896 -1.57047 0
M  V30 2434 C 228.59 1.14638 -1.98471 0
M  V30 2435 C 229.59 1.35029 -0.873148 0
M  V30 2436 O 230.78 1.31764 -1.13946 0
M  V30 2437 C 227.912 2.50358 -2.31373 0
M  V30 2438 H 229.105 0.79064 -2.8929 0
M  V30 2439 H 226.658 0.375761 -1.51716 0
M  V30 2440 H 227.393 2.90876 -1.43393 0
M  V30 2441 H 227.178 2.36915 -3.12432 0
M  V30 2442 H 228.668 3.23395 -2.64207 0
M  V30 2443 N 229.106 1.52395 0.401703 0
M  V30 2444 C 230.334 1.70676 1.16949 0
M  V30 2445 C 230.749 0.419503 1.8408 0
M  V30 2446 O 230.106 -0.605061 1.72178 0
M  V30 2447 C 230.157 2.84753 2.22706 0
M  V30 2448 O 229.878 4.08495 1.58314 0
M  V30 2449 C 231.379 3.14608 3.12309 0
M  V30 2450 H 228.599 0.571787 0.351142 0
M  V30 2451 H 231.143 1.98987 0.471652 0
M  V30 2452 H 229.298 2.58941 2.88147 0
M  V30 2453 H 229.712 4.72117 2.28485 0
M  V30 2454 H 231.186 3.97923 3.82572 0
M  V30 2455 H 231.663 2.28464 3.75101 0
M  V30 2456 H 232.269 3.42212 2.52529 0
M  V30 2457 N 230.584 -0.659388 1.43143 0
M  V30 2458 C 231.831 -1.41935 1.44433 0
M  V30 2459 C 232.159 -1.94387 0.0663522 0
M  V30 2460 O 231.414 -1.72314 -0.927706 0
M  V30 2461 C 231.713 -2.62206 2.42864 0
M  V30 2462 C 231.379 -2.28208 3.88886 0
M  V30 2463 C 230.041 -2.18647 4.28657 0
M  V30 2464 C 232.393 -2.00887 4.8093 0
M  V30 2465 C 229.721 -1.79914 5.58433 0
M  V30 2466 C 232.073 -1.63653 6.11065 0
M  V30 2467 C 230.737 -1.52614 6.49819 0
M  V30 2468 H 230.007 -0.519376 0.528517 0
M  V30 2469 H 232.654 -0.750453 1.76183 0
M  V30 2470 H 230.959 -3.34199 2.04495 0
M  V30 2471 H 232.656 -3.2041 2.41119 0
M  V30 2472 H 229.246 -2.36557 3.57406 0
M  V30 2473 H 233.43 -2.07198 4.5098 0
M  V30 2474 H 228.686 -1.69948 5.87305 0
M  V30 2475 H 232.86 -1.41543 6.81864 0
M  V30 2476 H 230.487 -1.22371 7.50286 0
M  V30 2477 N 232.062 -1.29571 -0.897171 0
M  V30 2478 C 233.025 -1.14913 -1.98312 0
M  V30 2479 C 234.025 -0.0838629 -1.60581 0
M  V30 2480 O 235.215 -0.331006 -1.71026 0
M  V30 2481 C 232.347 -0.757835 -3.3237 0
M  V30 2482 H 233.54 -2.11377 -2.12743 0
M  V30 2483 H 231.093 -1.12793 -1.08201 0
M  V30 2484 H 231.828 0.206837 -3.2364 0
M  V30 2485 H 231.613 -1.52755 -3.61121 0
M  V30 2486 H 233.103 -0.678408 -4.12053 0
M  V30 2487 N 233.54 1.10788 -1.12088 0
M  V30 2488 C 234.787 1.82671 -0.873931 0
M  V30 2489 C 235.115 1.85004 0.600311 0
M  V30 2490 O 234.37 1.30365 1.45957 0
M  V30 2491 C 234.669 3.29294 -1.38926 0
M  V30 2492 C 234.335 3.47113 -2.87791 0
M  V30 2493 C 232.997 3.51684 -3.28439 0
M  V30 2494 C 235.349 3.52808 -3.83635 0
M  V30 2495 C 232.677 3.59513 -4.63646 0
M  V30 2496 C 235.029 3.62169 -5.18668 0
M  V30 2497 C 233.693 3.65003 -5.58864 0
M  V30 2498 H 232.963 0.668441 -0.319794 0
M  V30 2499 H 235.61 1.30613 -1.40045 0
M  V30 2500 H 233.915 3.83894 -0.783122 0
M  V30 2501 H 235.612 3.83416 -1.17443 0
M  V30 2502 H 232.202 3.4423 -2.5535 0
M  V30 2503 H 236.386 3.4853 -3.53328 0
M  V30 2504 H 231.642 3.59987 -4.94185 0
M  V30 2505 H 235.816 3.6552 -5.92763 0
M  V30 2506 H 233.443 3.70822 -6.63623 0
M  V30 2507 N 235.018 0.912232 1.28515 0
M  V30 2508 C 235.968 0.370649 2.24967 0
M  V30 2509 C 236.952 -0.516375 1.52389 0
M  V30 2510 O 238.144 -0.356345 1.73376 0
M  V30 2511 C 235.273 -0.389526 3.41083 0
M  V30 2512 C 234.359 0.51313 4.20984 0
M  V30 2513 N 234.75 1.62604 4.78951 0
M  V30 2514 C 233.048 0.313235 4.44899 0
M  V30 2515 C 233.749 2.18619 5.39055 0
M  V30 2516 N 232.725 1.47765 5.23132 0
M  V30 2517 H 236.527 1.22061 2.67354 0
M  V30 2518 H 234.041 0.764712 1.43269 0
M  V30 2519 H 236.038 -0.794353 4.09262 0
M  V30 2520 H 234.698 -1.2366 3.0023 0
M  V30 2521 H 235.709 2.00864 4.77362 0
M  V30 2522 H 232.386 -0.494452 4.14562 0
M  V30 2523 H 233.776 3.12228 5.94948 0
M  V30 2524 N 236.496 -1.42363 0.676048 0
M  V30 2525 C 237.721 -2.06377 0.205705 0
M  V30 2526 C 238.146 -1.50463 -1.12883 0
M  V30 2527 O 237.504 -0.623619 -1.70237 0
M  V30 2528 C 237.552 -3.60277 0.152655 0
M  V30 2529 O 236.656 -4.02935 -0.87845 0
M  V30 2530 H 235.997 -0.655588 0.105359 0
M  V30 2531 H 238.527 -1.82475 0.925412 0
M  V30 2532 H 238.537 -4.07993 -0.0230675 0
M  V30 2533 H 237.212 -4.00346 1.12675 0
M  V30 2534 H 235.789 -3.66764 -0.673668 0
M  V30 2535 N 237.974 -0.419461 -1.51915 0
M  V30 2536 C 239.221 0.152939 -2.01922 0
M  V30 2537 C 239.549 1.4426 -1.30458 0
M  V30 2538 O 238.804 1.91514 -0.402593 0
M  V30 2539 C 239.103 0.437067 -3.54717 0
M  V30 2540 C 238.769 -0.764632 -4.44369 0
M  V30 2541 C 237.431 -1.09423 -4.68594 0
M  V30 2542 C 239.783 -1.56713 -4.97082 0
M  V30 2543 C 237.111 -2.22732 -5.42777 0
M  V30 2544 C 239.463 -2.69107 -5.72507 0
M  V30 2545 C 238.127 -3.02541 -5.95 0
M  V30 2546 H 237.397 0.0559644 -0.738884 0
M  V30 2547 H 240.044 -0.562998 -1.83037 0
M  V30 2548 H 238.349 1.23469 -3.71837 0
M  V30 2549 H 240.046 0.893083 -3.90928 0
M  V30 2550 H 236.636 -0.497775 -4.257 0
M  V30 2551 H 240.82 -1.32571 -4.78266 0
M  V30 2552 H 236.076 -2.48971 -5.58411 0
M  V30 2553 H 240.25 -3.31671 -6.12346 0
M  V30 2554 H 237.877 -3.90457 -6.52264 0
M  V30 2555 N 239.452 1.56882 -0.150215 0
M  V30 2556 C 240.7 1.9584 0.499105 0
M  V30 2557 C 241.021 1.03623 1.65188 0
M  V30 2558 O 240.291 0.0984084 1.95653 0
M  V30 2559 H 238.871 0.723119 0.187373 0
M  V30 2560 H 241.533 1.9358 -0.226466 0
M  V30 2561 H 240.629 2.99638 0.873122 0
M  V30 2562 N 240.93 -0.123565 1.57115 0
M  V30 2563 C 242.207 -0.862196 1.75572 0
M  V30 2564 C 242.587 -1.98279 0.724475 0
M  V30 2565 O 241.935 -2.27102 -0.252407 0
M  V30 2566 C 242.145 -1.38309 3.20424 0
M  V30 2567 C 243.493 -1.83724 3.82793 0
M  V30 2568 O 244.517 -1.47999 3.23998 0
M  V30 2569 O 243.376 -2.49685 4.86127 0
M  V30 2570 H 240.47 -0.409113 0.718718 0
M  V30 2571 H 243.016 -0.107661 1.69358 0
M  V30 2572 H 241.788 -0.578889 3.86994 0
M  V30 2573 H 241.411 -2.20046 3.31158 0
M  V30 2574 N 242.408 -1.52605 -0.393616 0
M  V30 2575 C 243.338 -1.80022 -1.48709 0
M  V30 2576 C 244.319 -0.651995 -1.57108 0
M  V30 2577 O 245.504 -0.89913 -1.72132 0
M  V30 2578 C 242.634 -1.96492 -2.86371 0
M  V30 2579 C 241.588 -3.12161 -2.92813 0
M  V30 2580 C 240.914 -3.13877 -4.3288 0
M  V30 2581 C 242.214 -4.51322 -2.6288 0
M  V30 2582 H 243.908 -2.71589 -1.26015 0
M  V30 2583 H 241.454 -1.30684 -0.604778 0
M  V30 2584 H 243.407 -2.14255 -3.62867 0
M  V30 2585 H 242.131 -1.01611 -3.10391 0
M  V30 2586 H 240.79 -2.94173 -2.18764 0
M  V30 2587 H 240.438 -2.16687 -4.53933 0
M  V30 2588 H 240.138 -3.91576 -4.38112 0
M  V30 2589 H 241.662 -3.33789 -5.1129 0
M  V30 2590 H 243.076 -4.69435 -3.29096 0
M  V30 2591 H 241.473 -5.31053 -2.79468 0
M  V30 2592 H 242.543 -4.58353 -1.58242 0
M  V30 2593 N 243.887 0.651787 -1.4349 0
M  V30 2594 C 245.133 1.41376 -1.45398 0
M  V30 2595 C 245.466 1.94041 -0.0784823 0
M  V30 2596 O 244.741 1.72379 0.900878 0
M  V30 2597 C 245.024 2.59414 -2.49752 0
M  V30 2598 C 244.877 2.12232 -3.96582 0
M  V30 2599 C 246.196 3.61626 -2.50827 0
M  V30 2600 H 243.315 0.512719 -0.529422 0
M  V30 2601 H 245.957 0.738796 -1.75048 0
M  V30 2602 H 244.107 3.16997 -2.246 0
M  V30 2603 H 245.779 1.59639 -4.32797 0
M  V30 2604 H 244.022 1.43592 -4.09346 0
M  V30 2605 H 244.693 2.9712 -4.65214 0
M  V30 2606 H 247.169 3.13805 -2.7325 0
M  V30 2607 H 246.045 4.41766 -3.25783 0
M  V30 2608 H 246.306 4.14314 -1.5426 0
M  V30 2609 N 245.365 1.30045 0.890287 0
M  V30 2610 C 246.613 1.18327 1.63839 0
M  V30 2611 C 246.934 -0.263455 1.93212 0
M  V30 2612 O 246.204 -1.17856 1.56482 0
M  V30 2613 H 244.784 0.434933 0.607324 0
M  V30 2614 H 247.446 1.631 1.06698 0
M  V30 2615 H 246.542 1.74024 2.59079 0
M  V30 2616 N 246.843 -1.10192 1.12674 0
M  V30 2617 C 248.092 -1.81573 0.8783 0
M  V30 2618 C 248.405 -1.86249 -0.597557 0
M  V30 2619 O 249.611 -2.5386 -0.962681 0
M  V30 2620 C 248.067 -3.26149 1.52167 0
M  V30 2621 C 247.675 -3.29763 3.03249 0
M  V30 2622 C 249.419 -4.0234 1.3536 0
M  V30 2623 C 247.326 -4.68815 3.60508 0
M  V30 2624 H 246.256 -0.680394 0.324931 0
M  V30 2625 H 248.907 -1.23902 1.35353 0
M  V30 2626 H 247.289 -3.83832 0.974104 0
M  V30 2627 H 248.463 -2.8189 3.6452 0
M  V30 2628 H 246.778 -2.67059 3.19481 0
M  V30 2629 H 249.375 -5.05058 1.75559 0
M  V30 2630 H 249.718 -4.15235 0.297554 0
M  V30 2631 H 250.251 -3.51079 1.87052 0
M  V30 2632 H 246.99 -4.61121 4.65884 0
M  V30 2633 H 246.51 -5.17045 3.04014 0
M  V30 2634 H 248.189 -5.37785 3.59717 0
M  V30 2635 N 248.321 -0.919034 -1.28029 0
M  V30 2636 C 249.567 -0.565221 -1.95389 0
M  V30 2637 C 249.922 0.882325 -1.70976 0
M  V30 2638 O 249.215 1.61988 -1.02325 0
M  V30 2639 C 249.409 -0.816855 -3.4794 0
M  V30 2640 C 249.238 -2.28731 -3.87185 0
M  V30 2641 C 248.008 -2.93841 -4.11079 0
M  V30 2642 C 250.206 -3.26415 -3.97439 0
M  V30 2643 N 248.188 -4.31129 -4.37037 0
M  V30 2644 C 249.559 -4.48884 -4.27672 0
M  V30 2645 C 251.614 -3.21742 -3.79982 0
M  V30 2646 C 250.317 -5.67268 -4.42266 0
M  V30 2647 C 252.343 -4.39431 -3.95796 0
M  V30 2648 C 251.705 -5.60675 -4.26407 0
M  V30 2649 H 247.804 -0.256797 -0.738633 0
M  V30 2650 H 250.388 -1.18386 -1.54573 0
M  V30 2651 H 248.559 -0.227445 -3.87733 0
M  V30 2652 H 250.291 -0.426542 -4.02446 0
M  V30 2653 H 247.046 -2.44547 -4.05578 0
M  V30 2654 H 247.47 -5.02127 -4.5409 0
M  V30 2655 H 252.112 -2.29079 -3.55363 0
M  V30 2656 H 249.83 -6.60406 -4.65714 0
M  V30 2657 H 253.416 -4.37323 -3.83719 0
M  V30 2658 H 252.296 -6.50223 -4.38383 0
M  V30 2659 N 249.799 1.42003 -0.683588 0
M  V30 2660 C 251.046 2.01413 -0.209514 0
M  V30 2661 C 251.374 1.54088 1.1869 0
M  V30 2662 O 250.629 0.737591 1.81268 0
M  V30 2663 C 250.928 3.56827 -0.202357 0
M  V30 2664 C 250.594 4.23617 -1.54464 0
M  V30 2665 C 249.256 4.41577 -1.91215 0
M  V30 2666 C 251.608 4.61178 -2.42826 0
M  V30 2667 C 248.936 4.9437 -3.15935 0
M  V30 2668 C 251.288 5.15355 -3.66867 0
M  V30 2669 C 249.952 5.31528 -4.03776 0
M  V30 2670 H 249.222 0.737023 -0.0766668 0
M  V30 2671 H 251.869 1.70067 -0.880312 0
M  V30 2672 H 250.174 3.87892 0.551969 0
M  V30 2673 H 251.871 4.00588 0.181793 0
M  V30 2674 H 248.461 4.10004 -1.24877 0
M  V30 2675 H 252.645 4.46968 -2.15717 0
M  V30 2676 H 247.901 5.05076 -3.44541 0
M  V30 2677 H 252.075 5.43402 -4.35531 0
M  V30 2678 H 249.702 5.72199 -5.00492 0
M  V30 2679 N 251.277 0.427512 1.51691 0
M  V30 2680 C 252.505 -0.141191 2.06418 0
M  V30 2681 C 252.92 -1.37303 1.29589 0
M  V30 2682 O 252.277 -1.79059 0.352732 0
M  V30 2683 C 252.328 -0.473266 3.58389 0
M  V30 2684 O 252.049 0.709673 4.32314 0
M  V30 2685 C 253.55 -1.09371 4.29596 0
M  V30 2686 H 250.77 -0.0122747 0.670888 0
M  V30 2687 H 253.314 0.603764 1.95384 0
M  V30 2688 H 251.469 -1.16812 3.69369 0
M  V30 2689 H 251.883 0.42807 5.2275 0
M  V30 2690 H 253.357 -1.27613 5.37046 0
M  V30 2691 H 253.834 -2.072 3.87253 0
M  V30 2692 H 254.44 -0.43853 4.23033 0
M  V30 2693 N 252.755 -1.56801 0.158532 0
M  V30 2694 C 254.002 -1.9649 -0.489679 0
M  V30 2695 C 254.33 -1.04394 -1.6411 0
M  V30 2696 O 253.585 -0.0754401 -1.95555 0
M  V30 2697 C 253.884 -3.4235 -1.02623 0
M  V30 2698 C 253.55 -4.50899 0.00794526 0
M  V30 2699 C 252.212 -4.80312 0.292207 0
M  V30 2700 C 254.564 -5.16333 0.710584 0
M  V30 2701 C 251.892 -5.72461 1.28472 0
M  V30 2702 C 254.244 -6.09553 1.69199 0
M  V30 2703 C 252.908 -6.37339 1.98383 0
M  V30 2704 H 252.178 -0.719009 -0.179186 0
M  V30 2705 H 254.825 -1.8989 0.247798 0
M  V30 2706 H 253.13 -3.45838 -1.84128 0
M  V30 2707 H 254.827 -3.70393 -1.53656 0
M  V30 2708 H 251.417 -4.28015 -0.22379 0
M  V30 2709 H 255.601 -4.93732 0.504174 0
M  V30 2710 H 250.857 -5.92278 1.51714 0
M  V30 2711 H 255.031 -6.59327 2.24189 0
M  V30 2712 H 252.658 -7.08546 2.7544 0
M  V30 2713 N 254.233 0.115231 -1.57178 0
M  V30 2714 C 255.458 0.840354 -1.89612 0
M  V30 2715 C 255.883 1.72464 -0.750845 0
M  V30 2716 O 255.241 1.78826 0.298478 0
M  V30 2717 C 255.289 1.64654 -3.20814 0
M  V30 2718 O 254.393 2.7538 -3.06985 0
M  V30 2719 H 253.734 0.232158 -0.622092 0
M  V30 2720 H 256.264 0.0964977 -2.04372 0
M  V30 2721 H 256.274 2.03499 -3.53627 0
M  V30 2722 H 254.949 0.997416 -4.03763 0
M  V30 2723 H 253.526 2.3971 -2.85646 0
M  V30 2724 N 255.711 1.52812 0.385517 0
M  V30 2725 C 256.988 1.5861 1.14465 0
M  V30 2726 C 257.368 0.381402 2.07626 0
M  V30 2727 O 256.716 -0.629999 2.19643 0
M  V30 2728 C 256.926 2.92664 1.90128 0
M  V30 2729 C 258.274 3.46526 2.45367 0
M  V30 2730 O 259.298 2.94562 2.0028 0
M  V30 2731 O 258.157 4.37323 3.27736 0
M  V30 2732 H 255.251 0.639855 0.523941 0
M  V30 2733 H 257.797 1.65149 0.390389 0
M  V30 2734 H 256.569 3.71788 1.22022 0
M  V30 2735 H 256.192 2.89527 2.72507 0
M  V30 2736 N 257.189 -0.644168 1.43834 0
M  V30 2737 C 258.119 -1.76814 1.52509 0
M  V30 2738 C 259.1 -1.65823 0.379052 0
M  V30 2739 O 260.285 -1.84781 0.597466 0
M  V30 2740 C 257.415 -3.15288 1.4564 0
M  V30 2741 C 256.369 -3.41053 2.58586 0
M  V30 2742 C 255.695 -4.79421 2.36769 0
M  V30 2743 C 256.995 -3.34902 4.00797 0
M  V30 2744 H 258.689 -1.69812 2.46586 0
M  V30 2745 H 256.235 -0.815542 1.1868 0
M  V30 2746 H 258.188 -3.93681 1.50311 0
M  V30 2747 H 256.912 -3.23043 0.480725 0
M  V30 2748 H 255.571 -2.65035 2.53282 0
M  V30 2749 H 255.219 -4.83863 1.37424 0
M  V30 2750 H 254.919 -4.9762 3.12487 0
M  V30 2751 H 256.443 -5.6006 2.43238 0
M  V30 2752 H 257.857 -4.03218 4.07539 0
M  V30 2753 H 256.254 -3.64637 4.76613 0
M  V30 2754 H 257.324 -2.32928 4.25291 0
M  V30 2755 N 258.668 -1.30515 -0.883378 0
M  V30 2756 C 259.578 -1.18959 -2.02203 0
M  V30 2757 C 260.594 -0.109172 -1.73657 0
M  V30 2758 O 261.77 -0.324413 -1.9877 0
M  V30 2759 C 258.835 -0.883871 -3.35244 0
M  V30 2760 C 257.896 -2.04982 -3.77201 0
M  V30 2761 C 257.129 -1.75859 -5.03894 0
M  V30 2762 O 257.352 -0.687276 -5.66244 0
M  V30 2763 O 256.286 -2.61146 -5.42297 0
M  V30 2764 H 260.112 -2.14616 -2.1488 0
M  V30 2765 H 257.697 -1.10124 -1.0096 0
M  V30 2766 H 259.579 -0.728644 -4.15053 0
M  V30 2767 H 258.254 0.0427798 -3.23672 0
M  V30 2768 H 257.161 -2.26038 -2.9809 0
M  V30 2769 H 258.494 -2.95825 -3.93381 0
M  V30 2770 N 260.146 1.09593 -1.13257 0
M  V30 2771 C 261.056 2.19739 -0.821691 0
M  V30 2772 C 262.072 1.72926 0.19302 0
M  V30 2773 O 263.248 2.01385 0.0244895 0
M  V30 2774 C 260.313 3.45482 -0.290333 0
M  V30 2775 C 259.374 4.06985 -1.36607 0
M  V30 2776 C 258.607 5.26726 -0.859975 0
M  V30 2777 O 258.83 5.69594 0.303082 0
M  V30 2778 O 257.764 5.7931 -1.63351 0
M  V30 2779 H 261.59 2.48781 -1.74189 0
M  V30 2780 H 259.175 1.18496 -0.909894 0
M  V30 2781 H 261.057 4.214 0.000674022 0
M  V30 2782 H 259.732 3.18047 0.602306 0
M  V30 2783 H 258.639 3.32712 -1.71037 0
M  V30 2784 H 259.972 4.38643 -2.23279 0
M  V30 2785 N 261.624 0.925811 1.2754 0
M  V30 2786 C 262.87 0.566092 1.94739 0
M  V30 2787 C 263.203 -0.890057 1.72603 0
M  V30 2788 O 262.478 -1.63467 1.05399 0
M  V30 2789 C 262.761 0.89054 3.48915 0
M  V30 2790 C 262.614 2.4003 3.80402 0
M  V30 2791 C 263.933 0.395101 4.38323 0
M  V30 2792 H 261.052 0.20714 0.707292 0
M  V30 2793 H 263.694 1.15725 1.50691 0
M  V30 2794 H 261.844 0.387452 3.86563 0
M  V30 2795 H 263.516 2.97494 3.52555 0
M  V30 2796 H 261.759 2.85028 3.2702 0
M  V30 2797 H 262.43 2.57785 4.8811 0
M  V30 2798 H 264.906 0.826241 4.07814 0
M  V30 2799 H 263.782 0.651086 5.45025 0
M  V30 2800 H 264.043 -0.704798 4.36446 0
M  V30 2801 N 263.102 -1.41638 0.69111 0
M  V30 2802 C 264.351 -2.00526 0.217318 0
M  V30 2803 C 264.664 -1.55353 -1.18848 0
M  V30 2804 O 265.87 -2.06769 -1.75951 0
M  V30 2805 C 264.326 -3.58313 0.337639 0
M  V30 2806 C 263.934 -4.12469 1.74852 0
M  V30 2807 C 265.678 -4.24431 -0.0766066 0
M  V30 2808 C 263.585 -5.62675 1.82074 0
M  V30 2809 H 262.515 -0.750008 0.0774893 0
M  V30 2810 H 265.166 -1.6217 0.858661 0
M  V30 2811 H 263.548 -3.9425 -0.371879 0
M  V30 2812 H 264.722 -3.8796 2.48644 0
M  V30 2813 H 263.037 -3.58861 2.11205 0
M  V30 2814 H 265.634 -5.34683 -0.0430284 0
M  V30 2815 H 265.977 -4.01101 -1.1146 0
M  V30 2816 H 266.51 -3.93512 0.582476 0
M  V30 2817 H 263.249 -5.90826 2.83911 0
M  V30 2818 H 262.769 -5.89124 1.12661 0
M  V30 2819 H 264.448 -6.27371 1.58159 0
M  V30 2820 N 264.58 -0.43555 -1.51462 0
M  V30 2821 C 265.527 0.376797 -2.27703 0
M  V30 2822 C 266.497 1.01838 -1.31219 0
M  V30 2823 O 267.682 1.03762 -1.60119 0
M  V30 2824 C 264.822 1.47301 -3.12084 0
M  V30 2825 C 263.935 0.849744 -4.2356 0
M  V30 2826 C 263.07 1.92086 -4.95254 0
M  V30 2827 C 262.109 1.27593 -5.98654 0
M  V30 2828 N 261.246 2.28833 -6.63762 0
M  V30 2829 H 266.086 -0.279734 -2.96684 0
M  V30 2830 H 263.623 -0.149795 -1.46335 0
M  V30 2831 H 265.581 2.11984 -3.59331 0
M  V30 2832 H 264.211 2.0992 -2.45221 0
M  V30 2833 H 263.263 0.0912529 -3.80291 0
M  V30 2834 H 264.575 0.338878 -4.97648 0
M  V30 2835 H 263.729 2.64435 -5.46039 0
M  V30 2836 H 262.468 2.46545 -4.20793 0
M  V30 2837 H 261.473 0.537893 -5.47162 0
M  V30 2838 H 262.698 0.738693 -6.7507 0
M  V30 2839 H 260.644 2.82375 -5.92115 0
M  V30 2840 H 260.561 1.82632 -7.33608 0
M  V30 2841 H 261.829 3.00671 -7.19178 0
M  V30 2842 N 266.058 1.56714 -0.166846 0
M  V30 2843 C 266.968 2.21331 0.777791 0
M  V30 2844 C 267.984 1.20358 1.25658 0
M  V30 2845 O 269.16 1.53005 1.30964 0
M  V30 2846 C 266.225 2.83787 1.99163 0
M  V30 2847 C 265.286 3.99947 1.56016 0
M  V30 2848 C 264.519 4.59415 2.71613 0
M  V30 2849 O 264.742 4.17769 3.88362 0
M  V30 2850 O 263.676 5.49359 2.45945 0
M  V30 2851 H 267.502 3.02605 0.257636 0
M  V30 2852 H 265.087 1.49275 0.0611393 0
M  V30 2853 H 266.969 3.23405 2.70161 0
M  V30 2854 H 265.644 2.05513 2.50092 0
M  V30 2855 H 264.551 3.65007 0.819809 0
M  V30 2856 H 265.884 4.79801 1.09782 0
M  V30 2857 N 267.536 -0.106894 1.57237 0
M  V30 2858 C 268.466 -1.13148 2.04254 0
M  V30 2859 C 269.447 -1.42476 0.929224 0
M  V30 2860 O 270.632 -1.52709 1.19973 0
M  V30 2861 C 267.762 -2.4545 2.45706 0
M  V30 2862 C 266.716 -2.30558 3.60592 0
M  V30 2863 C 266.042 -3.67931 3.87983 0
M  V30 2864 C 267.342 -1.75597 4.91897 0
M  V30 2865 H 269.036 -0.740374 2.90101 0
M  V30 2866 H 266.582 -0.354696 1.39563 0
M  V30 2867 H 268.535 -3.17389 2.77205 0
M  V30 2868 H 267.259 -2.86475 1.56843 0
M  V30 2869 H 265.918 -1.61067 3.29322 0
M  V30 2870 H 265.566 -4.06462 2.96306 0
M  V30 2871 H 265.266 -3.58817 4.65322 0
M  V30 2872 H 266.79 -4.41356 4.21945 0
M  V30 2873 H 268.204 -2.37364 5.21854 0
M  V30 2874 H 266.601 -1.77272 5.73319 0
M  V30 2875 H 267.671 -0.714451 4.79608 0
M  V30 2876 N 269.014 -1.53014 -0.377408 0
M  V30 2877 C 270.425 -1.60438 -0.954798 0
M  V30 2878 C 270.776 -0.464418 -1.90624 0
M  V30 2879 O 269.901 0.41087 -2.12464 0
M  V30 2880 C 270.496 -2.90797 -1.73847 0
M  V30 2881 C 269.055 -3.00595 -2.26538 0
M  V30 2882 C 268.202 -2.55645 -1.07429 0
M  V30 2883 H 271.153 -1.57926 -0.156575 0
M  V30 2884 H 271.174 -2.77935 -2.5987 0
M  V30 2885 H 270.686 -3.73746 -1.04574 0
M  V30 2886 H 268.787 -2.22208 -2.99089 0
M  V30 2887 H 268.9 -4.05456 -2.5523 0
M  V30 2888 H 267.264 -2.10239 -1.43777 0
M  V30 2889 H 268.047 -3.41 -0.396728 0
M  V30 2890 N 270.492 0.636531 -1.44174 0
M  V30 2891 C 271.442 1.74233 -1.47061 0
M  V30 2892 C 272.426 1.57331 -0.337034 0
M  V30 2893 O 273.618 1.67159 -0.581973 0
M  V30 2894 C 270.747 3.12897 -1.41246 0
M  V30 2895 C 269.833 3.35288 -2.59698 0
M  V30 2896 N 270.224 3.2807 -3.84972 0
M  V30 2897 C 268.522 3.66065 -2.54778 0
M  V30 2898 C 269.223 3.51001 -4.63867 0
M  V30 2899 N 268.199 3.73616 -3.94857 0
M  V30 2900 H 272.001 1.67103 -2.41773 0
M  V30 2901 H 269.515 0.838806 -1.3906 0
M  V30 2902 H 271.512 3.92189 -1.41398 0
M  V30 2903 H 270.172 3.21197 -0.47569 0
M  V30 2904 H 271.183 3.07109 -4.17019 0
M  V30 2905 H 267.86 3.81379 -1.6987 0
M  V30 2906 H 269.25 3.51059 -5.72894 0
M  V30 2907 N 271.97 1.30982 0.876444 0
M  V30 2908 C 272.902 1.13902 1.98894 0
M  V30 2909 C 273.915 0.0798815 1.62604 0
M  V30 2910 O 275.104 0.326743 1.75484 0
M  V30 2911 C 272.204 0.716699 3.31235 0
M  V30 2912 C 271.377 1.85945 3.95908 0
M  V30 2913 C 270.436 1.42426 5.06558 0
M  V30 2914 O 269.462 2.13287 5.27729 0
M  V30 2915 N 270.664 0.308025 5.79682 0
M  V30 2916 H 273.429 2.09724 2.14094 0
M  V30 2917 H 270.99 1.2323 1.05004 0
M  V30 2918 H 272.982 0.408403 4.02634 0
M  V30 2919 H 271.552 -0.149719 3.12241 0
M  V30 2920 H 270.772 2.33541 3.17573 0
M  V30 2921 H 272.06 2.62503 4.35855 0
M  V30 2922 H 271.458 -0.282241 5.64995 0
M  V30 2923 H 270.015 0.0592282 6.51773 0
M  V30 2924 N 273.449 -1.08991 1.13837 0
M  V30 2925 C 274.359 -2.19301 0.833333 0
M  V30 2926 C 275.375 -1.73026 -0.183847 0
M  V30 2927 O 276.551 -2.01395 -0.0138092 0
M  V30 2928 C 273.616 -3.45323 0.308651 0
M  V30 2929 C 272.677 -4.06255 1.38764 0
M  V30 2930 C 271.91 -5.26262 0.887896 0
M  V30 2931 O 272.133 -5.69747 -0.27287 0
M  V30 2932 O 271.067 -5.78435 1.66421 0
M  V30 2933 H 274.893 -2.47854 1.75506 0
M  V30 2934 H 272.478 -1.18012 0.916166 0
M  V30 2935 H 274.36 -4.21394 0.0216739 0
M  V30 2936 H 273.035 -3.18362 -0.585431 0
M  V30 2937 H 271.942 -3.318 1.72799 0
M  V30 2938 H 273.275 -4.37452 2.25602 0
M  V30 2939 N 274.927 -0.932562 -1.27047 0
M  V30 2940 C 276.152 -0.591474 -1.98787 0
M  V30 2941 C 276.577 0.824601 -1.69062 0
M  V30 2942 O 275.935 1.5541 -0.933677 0
M  V30 2943 C 275.983 -0.829808 -3.50922 0
M  V30 2944 O 275.087 0.102266 -4.12273 0
M  V30 2945 H 274.428 -0.227185 -0.623926 0
M  V30 2946 H 276.958 -1.25314 -1.61733 0
M  V30 2947 H 276.968 -0.747292 -4.01098 0
M  V30 2948 H 275.643 -1.86201 -3.7189 0
M  V30 2949 H 274.22 -0.0305761 -3.72887 0
M  V30 2950 N 276.405 1.4127 -0.698611 0
M  V30 2951 C 277.821 1.55241 -0.370462 0
M  V30 2952 C 278.021 1.67351 1.12231 0
M  V30 2953 O 277.077 1.65363 1.90818 0
M  V30 2954 C 278.39 2.78997 -1.12165 0
M  V30 2955 C 279.938 2.92797 -1.1063 0
M  V30 2956 C 280.413 4.19445 -1.8393 0
M  V30 2957 N 281.904 4.26409 -1.80914 0
M  V30 2958 C 282.639 5.23271 -2.34467 0
M  V30 2959 N 282.135 6.26145 -2.96504 0
M  V30 2960 N 283.928 5.15232 -2.24706 0
M  V30 2961 H 276.079 1.31654 -1.66676 0
M  V30 2962 H 278.342 0.635393 -0.703548 0
M  V30 2963 H 278.048 2.76268 -2.17644 0
M  V30 2964 H 277.922 3.70606 -0.702209 0
M  V30 2965 H 280.309 2.95039 -0.0597713 0
M  V30 2966 H 280.39 2.02353 -1.56483 0
M  V30 2967 H 280.034 4.17964 -2.88563 0
M  V30 2968 H 279.964 5.08866 -1.35509 0
M  V30 2969 H 282.455 3.527 -1.35687 0
M  V30 2970 H 282.768 6.96451 -3.34927 0
M  V30 2971 H 281.113 6.26638 -3.00583 0
M  V30 2972 H 284.304 4.33789 -1.7591 0
M  V30 2973 H 284.477 5.90552 -2.66745 0
M  V30 2974 N 277.883 0.443576 1.51229 0
M  V30 2975 C 278.846 -0.353132 2.26463 0
M  V30 2976 C 279.846 -0.944338 1.3015 0
M  V30 2977 O 281.036 -0.817813 1.5381 0
M  V30 2978 C 278.168 -1.50023 3.06114 0
M  V30 2979 H 279.361 0.3063 2.98332 0
M  V30 2980 H 276.914 0.196902 1.55055 0
M  V30 2981 H 277.649 -2.19553 2.38677 0
M  V30 2982 H 277.434 -1.08241 3.76864 0
M  V30 2983 H 278.924 -2.06296 3.63087 0
M  V30 2984 N 279.361 -1.56624 0.175154 0
M  V30 2985 C 280.586 -2.01813 -0.478137 0
M  V30 2986 C 281.011 -1.05457 -1.55757 0
M  V30 2987 O 280.369 -0.0347439 -1.81267 0
M  V30 2988 C 280.417 -3.45581 -1.02987 0
M  V30 2989 O 279.521 -3.52305 -2.14371 0
M  V30 2990 H 278.862 -0.65413 -0.114059 0
M  V30 2991 H 281.392 -2.02673 0.280173 0
M  V30 2992 H 281.402 -3.84965 -1.35151 0
M  V30 2993 H 280.077 -4.1521 -0.239556 0
M  V30 2994 H 278.654 -3.24783 -1.83222 0
M  V30 2995 N 280.839 0.0985539 -1.57292 0
M  V30 2996 C 281.771 1.14595 -1.98496 0
M  V30 2997 C 282.784 1.36512 -0.887031 0
M  V30 2998 O 283.973 1.35225 -1.16518 0
M  V30 2999 C 281.073 2.50216 -2.28572 0
M  V30 3000 C 280.246 2.48624 -3.59868 0
M  V30 3001 C 279.305 3.66146 -3.7792 0
M  V30 3002 O 278.331 3.48795 -4.49812 0
M  V30 3003 N 279.533 4.85496 -3.18235 0
M  V30 3004 H 282.298 0.795277 -2.88956 0
M  V30 3005 H 279.859 0.287579 -1.59325 0
M  V30 3006 H 281.851 3.27432 -2.37845 0
M  V30 3007 H 280.421 2.77387 -1.44136 0
M  V30 3008 H 279.641 1.56978 -3.61596 0
M  V30 3009 H 280.929 2.44635 -4.46129 0
M  V30 3010 H 280.327 5.02497 -2.59833 0
M  V30 3011 H 278.884 5.60317 -3.32999 0
M  V30 3012 N 282.317 1.53212 0.369288 0
M  V30 3013 C 283.247 1.82365 1.45826 0
M  V30 3014 C 284.228 0.676907 1.56051 0
M  V30 3015 O 285.413 0.926401 1.70679 0
M  V30 3016 C 282.543 2.01023 2.83208 0
M  V30 3017 C 281.497 3.1678 2.8781 0
M  V30 3018 C 280.823 3.20724 4.27832 0
M  V30 3019 C 282.123 4.55447 2.55667 0
M  V30 3020 H 283.817 2.73559 1.21678 0
M  V30 3021 H 281.363 1.3163 0.583911 0
M  V30 3022 H 283.316 2.20001 3.59413 0
M  V30 3023 H 282.04 1.06536 3.08736 0
M  V30 3024 H 280.699 2.97616 2.14056 0
M  V30 3025 H 280.347 2.23882 4.50429 0
M  V30 3026 H 280.047 3.98496 4.31827 0
M  V30 3027 H 281.571 3.41881 5.05915 0
M  V30 3028 H 282.985 4.74611 3.21586 0
M  V30 3029 H 281.382 5.35432 2.70984 0
M  V30 3030 H 282.452 4.60812 1.5093 0
M  V30 3031 N 283.795 -0.628877 1.44509 0
M  V30 3032 C 284.727 -1.754 1.47538 0
M  V30 3033 C 285.74 -1.58575 0.368506 0
M  V30 3034 O 286.929 -1.66847 0.634376 0
M  V30 3035 C 284.029 -3.1315 1.29577 0
M  V30 3036 C 283.202 -3.56413 2.53551 0
M  V30 3037 C 282.261 -4.7305 2.30457 0
M  V30 3038 O 281.287 -4.81247 3.03957 0
M  V30 3039 N 282.489 -5.64903 1.3366 0
M  V30 3040 H 285.254 -1.73272 2.44534 0
M  V30 3041 H 282.815 -0.813512 1.39977 0
M  V30 3042 H 284.807 -3.88902 1.11971 0
M  V30 3043 H 283.377 -3.09908 0.409371 0
M  V30 3044 H 282.597 -2.70847 2.86419 0
M  V30 3045 H 283.885 -3.82071 3.36005 0
M  V30 3046 H 283.283 -5.60975 0.729604 0
M  V30 3047 H 281.84 -6.40275 1.22032 0
M  V30 3048 N 285.273 -1.31445 -0.869486 0
M  V30 3049 C 286.501 -1.24122 -1.65534 0
M  V30 3050 C 286.916 0.193387 -1.87807 0
M  V30 3051 O 286.273 1.12557 -1.43656 0
M  V30 3052 C 286.324 -1.98229 -3.02304 0
M  V30 3053 O 286.045 -3.3609 -2.81026 0
M  V30 3054 C 287.546 -1.97751 -3.96749 0
M  V30 3055 H 284.766 -0.428868 -0.516055 0
M  V30 3056 H 287.31 -1.73328 -1.08525 0
M  V30 3057 H 285.465 -1.52782 -3.56001 0
M  V30 3058 H 285.879 -3.7383 -3.67902 0
M  V30 3059 H 287.353 -2.54114 -4.90031 0
M  V30 3060 H 287.83 -0.960137 -4.28577 0
M  V30 3061 H 288.436 -2.43079 -3.48988 0
M  V30 3062 N 286.751 1.08385 -1.14413 0
M  V30 3063 C 287.681 2.17321 -0.854044 0
M  V30 3064 C 288.662 1.69024 0.191049 0
M  V30 3065 O 289.847 1.94141 0.0476779 0
M  V30 3066 C 286.977 3.45719 -0.330983 0
M  V30 3067 C 285.931 4.07409 -1.31155 0
M  V30 3068 C 285.257 5.30762 -0.64778 0
M  V30 3069 C 286.557 4.48665 -2.67388 0
M  V30 3070 H 288.251 2.41845 -1.76498 0
M  V30 3071 H 285.797 1.16233 -0.850051 0
M  V30 3072 H 287.75 4.21241 -0.115645 0
M  V30 3073 H 286.474 3.2075 0.615381 0
M  V30 3074 H 285.133 3.33919 -1.51306 0
M  V30 3075 H 284.781 5.02078 0.304398 0
M  V30 3076 H 284.481 5.72992 -1.30207 0
M  V30 3077 H 286.005 6.08998 -0.441972 0
M  V30 3078 H 287.419 5.15364 -2.51143 0
M  V30 3079 H 285.816 5.01814 -3.29093 0
M  V30 3080 H 286.886 3.60543 -3.24248 0
M  V30 3081 N 288.23 0.939286 1.26551 0
M  V30 3082 C 289.455 0.602008 1.98471 0
M  V30 3083 C 289.88 -0.815624 1.69497 0
M  V30 3084 O 289.238 -1.54912 0.941905 0
M  V30 3085 C 289.286 0.848407 3.50477 0
M  V30 3086 O 288.39 -0.0804009 4.12322 0
M  V30 3087 H 287.731 0.23049 0.622712 0
M  V30 3088 H 290.261 1.2617 1.61066 0
M  V30 3089 H 290.271 0.768553 4.00696 0
M  V30 3090 H 288.946 1.88171 3.70897 0
M  V30 3091 H 287.523 0.0503508 3.72866 0
M  V30 3092 N 289.708 -1.40897 0.706093 0
M  V30 3093 C 290.985 -1.94868 0.169099 0
M  V30 3094 C 291.365 -1.64485 -1.32318 0
M  V30 3095 O 290.713 -0.95744 -2.07474 0
M  V30 3096 C 290.923 -3.45798 0.471654 0
M  V30 3097 C 292.271 -4.22663 0.405127 0
M  V30 3098 O 293.295 -3.53865 0.407168 0
M  V30 3099 O 292.154 -5.45216 0.374383 0
M  V30 3100 H 289.248 -0.82673 0.0211352 0
M  V30 3101 H 291.794 -1.50558 0.782976 0
M  V30 3102 H 290.566 -3.61235 1.50416 0
M  V30 3103 H 290.189 -3.97225 -0.172666 0
M  V30 3104 N 291.186 -0.45159 -1.50991 0
M  V30 3105 C 292.149 0.341117 -2.26647 0
M  V30 3106 C 293.149 0.937422 -1.30649 0
M  V30 3107 O 294.339 0.809644 -1.54241 0
M  V30 3108 C 291.471 1.48398 -3.06905 0
M  V30 3109 H 292.664 -0.322117 -2.98165 0
M  V30 3110 H 290.217 -0.205122 -1.54948 0
M  V30 3111 H 290.952 2.18284 -2.39838 0
M  V30 3112 H 290.737 1.06241 -3.77432 0
M  V30 3113 H 292.227 2.04367 -3.64176 0
M  V30 3114 N 292.664 1.56529 -0.183458 0
M  V30 3115 C 293.614 2.1515 0.754605 0
M  V30 3116 C 294.598 1.08904 1.18443 0
M  V30 3117 O 295.79 1.34997 1.14476 0
M  V30 3118 C 292.919 2.80531 1.97881 0
M  V30 3119 C 292.005 3.93952 1.57043 0
M  V30 3120 N 292.396 4.98221 0.87231 0
M  V30 3121 C 290.694 4.05338 1.86057 0
M  V30 3122 C 291.395 5.77836 0.669377 0
M  V30 3123 N 290.371 5.29858 1.21454 0
M  V30 3124 H 294.173 2.93132 0.212387 0
M  V30 3125 H 291.687 1.62391 0.0167725 0
M  V30 3126 H 293.684 3.20914 2.6612 0
M  V30 3127 H 292.344 2.04035 2.52586 0
M  V30 3128 H 293.355 5.15191 0.529033 0
M  V30 3129 H 290.032 3.39957 2.42354 0
M  V30 3130 H 291.422 6.71799 0.116422 0
M  V30 3131 N 294.142 -0.090211 1.57342 0
M  V30 3132 C 295.558 -0.444547 1.53284 0
M  V30 3133 C 295.758 -1.80238 0.900914 0
M  V30 3134 O 294.814 -2.4759 0.495513 0
M  V30 3135 C 296.127 -0.402543 2.97993 0
M  V30 3136 C 297.675 -0.48405 3.09234 0
M  V30 3137 C 298.15 -0.472144 4.5556 0
M  V30 3138 N 299.641 -0.532757 4.60126 0
M  V30 3139 C 300.376 -0.545462 5.708 0
M  V30 3140 N 299.872 -0.514082 6.9089 0
M  V30 3141 N 301.665 -0.59064 5.58988 0
M  V30 3142 H 293.816 0.799121 1.96794 0
M  V30 3143 H 296.079 0.297965 0.899956 0
M  V30 3144 H 295.785 0.528106 3.47712 0
M  V30 3145 H 295.659 -1.21969 3.56936 0
M  V30 3146 H 298.046 -1.40512 2.595 0
M  V30 3147 H 298.127 0.361328 2.53235 0
M  V30 3148 H 297.771 0.445 5.05947 0
M  V30 3149 H 297.701 -1.3348 5.09402 0
M  V30 3150 H 300.192 -0.562006 3.73698 0
M  V30 3151 H 300.505 -0.527195 7.71 0
M  V30 3152 H 298.85 -0.481054 6.93333 0
M  V30 3153 H 302.041 -0.61272 4.64073 0
M  V30 3154 H 302.214 -0.597073 6.45243 0
M  V30 3155 N 295.62 -1.53406 -0.361157 0
M  V30 3156 C 296.567 -1.80156 -1.44265 0
M  V30 3157 C 297.537 -0.646183 -1.53015 0
M  V30 3158 O 298.722 -0.888818 -1.68833 0
M  V30 3159 C 295.862 -2.00116 -2.81154 0
M  V30 3160 C 294.975 -3.27833 -2.81335 0
M  V30 3161 C 294.11 -3.37957 -4.09828 0
M  V30 3162 C 293.149 -4.59689 -4.04168 0
M  V30 3163 N 292.286 -4.66942 -5.24318 0
M  V30 3164 H 297.126 -2.72438 -1.20754 0
M  V30 3165 H 294.663 -1.34954 -0.585296 0
M  V30 3166 H 296.621 -2.09677 -3.60682 0
M  V30 3167 H 295.251 -1.11167 -3.03054 0
M  V30 3168 H 294.303 -3.27204 -1.94014 0
M  V30 3169 H 295.615 -4.17442 -2.73027 0
M  V30 3170 H 294.769 -3.46853 -4.97773 0
M  V30 3171 H 293.508 -2.46372 -4.20894 0
M  V30 3172 H 292.513 -4.50889 -3.14609 0
M  V30 3173 H 293.738 -5.5262 -3.947 0
M  V30 3174 H 291.684 -3.7826 -5.35962 0
M  V30 3175 H 291.601 -5.50462 -5.18197 0
M  V30 3176 H 292.869 -4.80127 -6.14084 0
M  V30 3177 N 297.098 0.621204 -1.44841 0
M  V30 3178 C 298.061 1.71459 -1.521 0
M  V30 3179 C 299.061 1.55696 -0.401933 0
M  V30 3180 O 300.251 1.61011 -0.664925 0
M  V30 3181 C 297.383 3.10624 -1.40447 0
M  V30 3182 H 298.576 1.66394 -2.49506 0
M  V30 3183 H 296.129 0.835745 -1.3208 0
M  V30 3184 H 296.864 3.21277 -0.441737 0
M  V30 3185 H 296.649 3.23473 -2.21602 0
M  V30 3186 H 298.139 3.90293 -1.4853 0
M  V30 3187 N 298.576 1.31904 0.862503 0
M  V30 3188 C 299.806 1.24817 1.64634 0
M  V30 3189 C 300.214 -0.187579 1.88268 0
M  V30 3190 O 299.557 -1.13253 1.44635 0
M  V30 3191 C 299.619 1.92996 3.03303 0
M  V30 3192 C 299.283 3.42336 3.02746 0
M  V30 3193 C 300.28 4.37956 2.80162 0
M  V30 3194 C 297.965 3.84147 3.2363 0
M  V30 3195 C 299.959 5.73361 2.78453 0
M  V30 3196 C 297.646 5.19663 3.21549 0
M  V30 3197 C 298.644 6.14081 2.98988 0
M  V30 3198 O 298.332 7.47118 2.96766 0
M  V30 3199 H 298.064 0.432222 0.519769 0
M  V30 3200 H 300.618 1.7445 1.08427 0
M  V30 3201 H 298.848 1.37922 3.61268 0
M  V30 3202 H 300.537 1.79723 3.63943 0
M  V30 3203 H 301.303 4.06981 2.63802 0
M  V30 3204 H 297.182 3.11083 3.40218 0
M  V30 3205 H 300.726 6.4703 2.60763 0
M  V30 3206 H 296.623 5.5027 3.37451 0
M  V30 3207 H 297.391 7.56382 3.12775 0
M  V30 3208 N 300.054 -1.07777 1.14986 0
M  V30 3209 C 300.964 -2.18404 0.856546 0
M  V30 3210 C 301.98 -1.73211 -0.165485 0
M  V30 3211 O 303.156 -2.01399 0.00755219 0
M  V30 3212 C 300.221 -3.44977 0.34526 0
M  V30 3213 C 299.282 -4.0476 1.43065 0
M  V30 3214 C 298.515 -5.25291 0.943663 0
M  V30 3215 O 298.738 -5.70004 -0.212426 0
M  V30 3216 O 297.672 -5.76638 1.72547 0
M  V30 3217 H 301.498 -2.45978 1.78125 0
M  V30 3218 H 299.083 -1.17033 0.928631 0
M  V30 3219 H 300.965 -4.21348 0.0663671 0
M  V30 3220 H 299.64 -3.18965 -0.551631 0
M  V30 3221 H 298.547 -3.29949 1.76309 0
M  V30 3222 H 299.88 -4.35035 2.30229 0
M  V30 3223 N 301.532 -0.945985 -1.26051 0
M  V30 3224 C 302.781 -0.591836 -1.92822 0
M  V30 3225 C 303.094 0.873956 -1.7499 0
M  V30 3226 O 304.3 1.33769 -2.36259 0
M  V30 3227 C 302.756 -1.00776 -3.45503 0
M  V30 3228 C 302.364 -2.4955 -3.7206 0
M  V30 3229 C 304.108 -0.725735 -4.1825 0
M  V30 3230 C 302.015 -2.84988 -5.18205 0
M  V30 3231 H 300.945 -0.217635 -0.721908 0
M  V30 3232 H 303.596 -1.14927 -1.43052 0
M  V30 3233 H 301.978 -0.378812 -3.94184 0
M  V30 3234 H 303.152 -3.1739 -3.34066 0
M  V30 3235 H 301.467 -2.75133 -3.12555 0
M  V30 3236 H 304.064 -0.966771 -5.25887 0
M  V30 3237 H 304.407 0.337639 -4.14929 0
M  V30 3238 H 304.94 -1.31463 -3.7545 0
M  V30 3239 H 301.679 -3.90307 -5.26631 0
M  V30 3240 H 301.199 -2.21813 -5.57278 0
M  V30 3241 H 302.878 -2.73712 -5.86252 0
M  V30 3242 N 303.011 1.40521 -0.713556 0
M  V30 3243 C 304.241 2.0494 -0.261395 0
M  V30 3244 C 304.649 1.53861 1.10107 0
M  V30 3245 O 303.992 0.689321 1.70276 0
M  V30 3246 C 304.054 3.59138 -0.161227 0
M  V30 3247 C 303.718 4.33096 -1.45865 0
M  V30 3248 C 304.715 4.61182 -2.40016 0
M  V30 3249 C 302.4 4.72043 -1.71701 0
M  V30 3250 C 304.394 5.27196 -3.58251 0
M  V30 3251 C 302.081 5.37789 -2.90218 0
M  V30 3252 C 303.079 5.65295 -3.83315 0
M  V30 3253 O 302.767 6.29683 -4.99754 0
M  V30 3254 H 302.499 0.666041 -0.115608 0
M  V30 3255 H 305.053 1.80954 -0.971849 0
M  V30 3256 H 303.283 3.81936 0.605153 0
M  V30 3257 H 304.972 4.05091 0.256105 0
M  V30 3258 H 305.738 4.31559 -2.21318 0
M  V30 3259 H 301.617 4.50003 -1.00092 0
M  V30 3260 H 305.161 5.48582 -4.30934 0
M  V30 3261 H 301.058 5.66831 -3.08825 0
M  V30 3262 H 301.826 6.4818 -4.99805 0
M  V30 3263 N 304.489 0.459591 1.5075 0
M  V30 3264 C 305.439 -0.358926 2.25157 0
M  V30 3265 C 306.423 -0.971285 1.28276 0
M  V30 3266 O 307.615 -0.885739 1.53244 0
M  V30 3267 C 304.744 -1.44695 3.11317 0
M  V30 3268 C 303.83 -0.842894 4.15639 0
M  V30 3269 N 304.221 0.0299373 5.05791 0
M  V30 3270 C 302.519 -1.10809 4.32015 0
M  V30 3271 C 303.22 0.371563 5.80512 0
M  V30 3272 N 302.196 -0.250409 5.43023 0
M  V30 3273 H 305.998 0.313636 2.92222 0
M  V30 3274 H 303.512 0.273021 1.60089 0
M  V30 3275 H 305.509 -2.04641 3.63218 0
M  V30 3276 H 304.169 -2.12162 2.45799 0
M  V30 3277 H 305.18 0.39797 5.16369 0
M  V30 3278 H 301.857 -1.7786 3.77719 0
M  V30 3279 H 303.247 1.08319 6.63111 0
M  V30 3280 N 305.967 -1.56429 0.191757 0
M  V30 3281 C 306.877 -2.22541 -0.742481 0
M  V30 3282 C 307.893 -1.22342 -1.23727 0
M  V30 3283 O 309.069 -1.55069 -1.28513 0
M  V30 3284 C 306.134 -2.8692 -1.94623 0
M  V30 3285 C 305.195 -4.02378 -1.49633 0
M  V30 3286 C 304.428 -4.63678 -2.6427 0
M  V30 3287 O 304.651 -4.23895 -3.81666 0
M  V30 3288 O 303.585 -5.53202 -2.37174 0
M  V30 3289 H 307.411 -3.02977 -0.209462 0
M  V30 3290 H 304.996 -1.49353 -0.0373832 0
M  V30 3291 H 306.878 -3.27663 -2.64982 0
M  V30 3292 H 305.553 -2.09466 -2.46791 0
M  V30 3293 H 304.46 -3.66265 -0.761636 0
M  V30 3294 H 305.793 -4.81487 -1.02134 0
M  V30 3295 N 307.445 0.0818655 -1.57387 0
M  V30 3296 C 308.67 0.799946 -1.91352 0
M  V30 3297 C 309.095 1.70833 -0.787258 0
M  V30 3298 O 308.453 1.79419 0.26048 0
M  V30 3299 C 308.501 1.57812 -3.24234 0
M  V30 3300 O 307.605 2.68806 -3.12757 0
M  V30 3301 H 306.946 0.21891 -0.626877 0
M  V30 3302 H 309.476 0.0531256 -2.04531 0
M  V30 3303 H 309.486 1.95952 -3.57864 0
M  V30 3304 H 308.161 0.911548 -4.05788 0
M  V30 3305 H 306.738 2.33597 -2.90666 0
M  V30 3306 N 308.923 1.53595 0.353017 0
M  V30 3307 C 310.153 1.74058 1.11299 0
M  V30 3308 C 310.561 0.475205 1.83135 0
M  V30 3309 O 309.904 -0.562344 1.74881 0
M  V30 3310 C 309.966 2.85994 2.17825 0
M  V30 3311 C 309.63 4.25923 1.65647 0
M  V30 3312 C 310.627 5.07829 1.11383 0
M  V30 3313 C 308.312 4.72377 1.7078 0
M  V30 3314 C 310.306 6.34285 0.629439 0
M  V30 3315 C 307.993 5.98808 1.21953 0
M  V30 3316 C 308.991 6.79594 0.681265 0
M  V30 3317 O 308.679 8.03651 0.200248 0
M  V30 3318 H 308.411 0.585327 0.338183 0
M  V30 3319 H 310.965 2.01186 0.413927 0
M  V30 3320 H 309.195 2.54368 2.91262 0
M  V30 3321 H 310.884 2.94515 2.79313 0
M  V30 3322 H 311.65 4.73107 1.06746 0
M  V30 3323 H 307.529 4.0956 2.11617 0
M  V30 3324 H 311.073 6.97288 0.208636 0
M  V30 3325 H 306.97 6.33026 1.26287 0
M  V30 3326 H 307.738 8.1788 0.318416 0
M  V30 3327 N 310.401 -0.613514 1.45168 0
M  V30 3328 C 311.364 -1.7065 1.53007 0
M  V30 3329 C 312.364 -1.5548 0.410184 0
M  V30 3330 O 313.554 -1.60656 0.673455 0
M  V30 3331 C 310.686 -3.09875 1.42093 0
M  V30 3332 H 311.879 -1.65068 2.50385 0
M  V30 3333 H 309.432 -0.828728 1.32521 0
M  V30 3334 H 310.167 -3.21039 0.458769 0
M  V30 3335 H 309.952 -3.22293 2.23315 0
M  V30 3336 H 311.442 -3.895 1.50598 0
M  V30 3337 N 311.879 -1.3236 -0.855495 0
M  V30 3338 C 313.126 -1.22872 -1.60962 0
M  V30 3339 C 313.454 0.209658 -1.93367 0
M  V30 3340 O 312.709 1.16243 -1.57436 0
M  V30 3341 C 313.008 -2.03275 -2.93963 0
M  V30 3342 C 312.674 -3.5264 -2.80991 0
M  V30 3343 C 311.336 -3.93364 -2.7716 0
M  V30 3344 C 313.688 -4.47626 -2.66983 0
M  V30 3345 C 311.016 -5.27319 -2.572 0
M  V30 3346 C 313.368 -5.81723 -2.48558 0
M  V30 3347 C 312.032 -6.2165 -2.4312 0
M  V30 3348 H 311.302 -0.44962 -0.589001 0
M  V30 3349 H 313.949 -1.63777 -0.992442 0
M  V30 3350 H 312.254 -1.55095 -3.59795 0
M  V30 3351 H 313.951 -1.93303 -3.51333 0
M  V30 3352 H 310.541 -3.20295 -2.84797 0
M  V30 3353 H 314.725 -4.17084 -2.68988 0
M  V30 3354 H 309.981 -5.57311 -2.51424 0
M  V30 3355 H 314.155 -6.5494 -2.36699 0
M  V30 3356 H 311.782 -7.25388 -2.27412 0
M  V30 3357 N 313.357 1.07166 -1.15556 0
M  V30 3358 C 314.289 2.14341 -0.811815 0
M  V30 3359 C 315.302 1.61835 0.177015 0
M  V30 3360 O 316.491 1.78439 -0.0464996 0
M  V30 3361 C 313.591 3.38387 -0.186481 0
M  V30 3362 C 312.764 4.20238 -1.21321 0
M  V30 3363 C 311.823 5.2266 -0.609302 0
M  V30 3364 O 310.849 5.54719 -1.27576 0
M  V30 3365 N 312.051 5.77306 0.608099 0
M  V30 3366 H 314.816 2.44431 -1.73417 0
M  V30 3367 H 312.377 1.23089 -1.0517 0
M  V30 3368 H 314.369 4.04044 0.230339 0
M  V30 3369 H 312.939 3.05994 0.639249 0
M  V30 3370 H 312.159 3.50369 -1.80652 0
M  V30 3371 H 313.447 4.71736 -1.90638 0
M  V30 3372 H 312.845 5.53513 1.1679 0
M  V30 3373 H 311.402 6.44583 0.96725 0
M  V30 3374 N 314.835 0.952656 1.25548 0
M  V30 3375 C 316.083 0.605176 1.92826 0
M  V30 3376 C 316.404 -0.860261 1.74999 0
M  V30 3377 O 315.674 -1.6125 1.11244 0
M  V30 3378 H 314.254 0.220832 0.713612 0
M  V30 3379 H 316.916 1.21047 1.52754 0
M  V30 3380 H 316.012 0.832798 3.00784 0
M  V30 3381 N 316.313 -1.40141 0.720998 0
M  V30 3382 C 317.561 -2.0039 0.262323 0
M  V30 3383 C 317.882 -1.57469 -1.15015 0
M  V30 3384 O 317.152 -0.816582 -1.78069 0
M  V30 3385 H 315.732 -0.741063 0.093996 0
M  V30 3386 H 318.394 -1.71398 0.927835 0
M  V30 3387 H 317.49 -3.10658 0.299671 0
M  V30 3388 N 317.792 -0.46758 -1.50504 0
M  V30 3389 C 318.739 0.328413 -2.28452 0
M  V30 3390 C 319.709 0.990313 -1.33349 0
M  V30 3391 O 320.894 1.00343 -1.62284 0
M  V30 3392 C 318.034 1.40648 -3.15138 0
M  V30 3393 C 317.147 0.759709 -4.25267 0
M  V30 3394 C 316.282 1.81537 -4.99217 0
M  V30 3395 C 315.321 1.14866 -6.01226 0
M  V30 3396 N 314.458 2.14702 -6.68467 0
M  V30 3397 H 319.298 -0.342603 -2.96024 0
M  V30 3398 H 316.835 -0.180801 -1.45985 0
M  V30 3399 H 318.793 2.04315 -3.63746 0
M  V30 3400 H 317.423 2.04671 -2.49619 0
M  V30 3401 H 316.475 0.0105671 -3.80399 0
M  V30 3402 H 317.787 0.233243 -4.98254 0
M  V30 3403 H 316.941 2.52793 -5.51526 0
M  V30 3404 H 315.68 2.37564 -4.25928 0
M  V30 3405 H 314.685 0.42171 -5.4818 0
M  V30 3406 H 315.91 0.595334 -6.76485 0
M  V30 3407 H 313.856 2.69752 -5.97972 0
M  V30 3408 H 313.773 1.6703 -7.37317 0
M  V30 3409 H 315.041 2.85348 -7.25394 0
M  V30 3410 N 319.27 1.56325 -0.20005 0
M  V30 3411 C 320.2 2.22318 0.713916 0
M  V30 3412 C 321.181 1.18788 1.21752 0
M  V30 3413 O 322.366 1.47309 1.26545 0
M  V30 3414 C 319.496 2.88639 1.93144 0
M  V30 3415 C 318.45 3.98457 1.56255 0
M  V30 3416 C 317.776 4.51967 2.85709 0
M  V30 3417 C 319.076 5.16612 0.768747 0
M  V30 3418 H 320.77 2.98952 0.163755 0
M  V30 3419 H 318.316 1.43792 0.0773219 0
M  V30 3420 H 320.269 3.33491 2.57608 0
M  V30 3421 H 318.993 2.09419 2.50621 0
M  V30 3422 H 317.652 3.54305 0.941471 0
M  V30 3423 H 317.3 3.69503 3.41287 0
M  V30 3424 H 317 5.26071 2.6177 0
M  V30 3425 H 318.524 4.99523 3.51154 0
M  V30 3426 H 319.938 5.57977 1.3166 0
M  V30 3427 H 318.335 5.96812 0.627286 0
M  V30 3428 H 319.405 4.84358 -0.229168 0
M  V30 3429 N 320.748 -0.0735177 1.57428 0
M  V30 3430 C 321.973 -0.789787 1.91774 0
M  V30 3431 C 322.398 -1.70413 0.796306 0
M  V30 3432 O 321.756 -1.79555 -0.250961 0
M  V30 3433 C 321.804 -1.5609 3.25067 0
M  V30 3434 O 320.908 -2.67144 3.14178 0
M  V30 3435 H 320.249 -0.215582 0.628029 0
M  V30 3436 H 322.779 -0.0422781 2.04556 0
M  V30 3437 H 322.789 -1.94052 3.58898 0
M  V30 3438 H 321.464 -0.890015 4.06265 0
M  V30 3439 H 320.041 -2.32052 2.91901 0
M  V30 3440 N 322.226 -1.5378 -0.344866 0
M  V30 3441 C 323.472 -1.71216 -1.08687 0
M  V30 3442 C 323.805 -0.473281 -1.88345 0
M  V30 3443 O 323.08 0.52968 -1.87149 0
M  V30 3444 C 323.363 -2.97486 -2.02914 0
M  V30 3445 C 323.216 -4.31579 -1.26727 0
M  V30 3446 C 324.535 -3.19422 -3.0275 0
M  V30 3447 H 321.654 -0.62301 -0.393735 0
M  V30 3448 H 324.296 -1.8645 -0.365563 0
M  V30 3449 H 322.446 -2.84629 -2.64421 0
M  V30 3450 H 324.118 -4.56284 -0.67845 0
M  V30 3451 H 322.361 -4.30049 -0.569273 0
M  V30 3452 H 323.032 -5.16106 -1.95803 0
M  V30 3453 H 325.508 -3.316 -2.51357 0
M  V30 3454 H 324.384 -4.09169 -3.65885 0
M  V30 3455 H 324.645 -2.35656 -3.74057 0
M  V30 3456 N 323.704 0.605807 -1.45491 0
M  V30 3457 C 324.95 1.36679 -1.49823 0
M  V30 3458 C 325.283 1.93693 -0.140175 0
M  V30 3459 O 324.558 1.75158 0.845581 0
M  V30 3460 C 324.841 2.51337 -2.57879 0
M  V30 3461 C 324.694 1.99508 -4.03134 0
M  V30 3462 C 326.013 3.53463 -2.62205 0
M  V30 3463 H 323.132 0.495617 -0.545466 0
M  V30 3464 H 325.774 0.682732 -1.7731 0
M  V30 3465 H 323.924 3.09691 -2.34571 0
M  V30 3466 H 325.596 1.45789 -4.37656 0
M  V30 3467 H 323.839 1.30496 -4.13707 0
M  V30 3468 H 324.51 2.82169 -4.74431 0
M  V30 3469 H 326.986 3.04953 -2.83095 0
M  V30 3470 H 325.862 4.31178 -3.39672 0
M  V30 3471 H 326.123 4.09197 -1.67363 0
M  V30 3472 N 325.182 1.32811 0.848464 0
M  V30 3473 C 326.112 1.24882 1.97299 0
M  V30 3474 C 327.093 0.131357 1.69592 0
M  V30 3475 O 328.278 0.319553 1.91553 0
M  V30 3476 C 325.408 0.97746 3.33261 0
M  V30 3477 C 324.362 2.05682 3.75338 0
M  V30 3478 C 323.688 1.63777 5.09 0
M  V30 3479 C 324.988 3.47254 3.90144 0
M  V30 3480 H 326.682 2.18966 2.04191 0
M  V30 3481 H 324.228 1.05413 0.981029 0
M  V30 3482 H 326.181 0.908513 4.1149 0
M  V30 3483 H 324.905 0.000980011 3.266 0
M  V30 3484 H 323.564 2.11603 2.99366 0
M  V30 3485 H 323.212 0.648569 4.98801 0
M  V30 3486 H 322.912 2.36 5.38124 0
M  V30 3487 H 324.436 1.5833 5.89715 0
M  V30 3488 H 325.85 3.43888 4.58709 0
M  V30 3489 H 324.247 4.1788 4.30693 0
M  V30 3490 H 325.317 3.86462 2.92874 0
M  V30 3491 N 326.66 -1.06551 1.16123 0
M  V30 3492 C 328.076 -1.3142 0.905585 0
M  V30 3493 C 328.276 -1.96571 -0.442964 0
M  V30 3494 O 327.332 -2.23068 -1.18308 0
M  V30 3495 C 328.645 -2.19741 2.05267 0
M  V30 3496 C 330.193 -2.33165 2.08813 0
M  V30 3497 C 330.668 -3.24838 3.22868 0
M  V30 3498 N 332.159 -3.32421 3.22568 0
M  V30 3499 C 332.894 -4.0344 4.0746 0
M  V30 3500 N 332.39 -4.77003 5.02434 0
M  V30 3501 N 334.183 -3.99464 3.95456 0
M  V30 3502 H 326.334 -0.626548 2.02949 0
M  V30 3503 H 328.597 -0.338777 0.8854 0
M  V30 3504 H 328.303 -1.79142 3.02657 0
M  V30 3505 H 328.177 -3.20313 1.99198 0
M  V30 3506 H 330.564 -2.73013 1.12018 0
M  V30 3507 H 330.645 -1.3227 2.18948 0
M  V30 3508 H 330.289 -2.85708 4.19921 0
M  V30 3509 H 330.219 -4.25707 3.0997 0
M  V30 3510 H 332.71 -2.79994 2.53795 0
M  V30 3511 H 333.023 -5.28712 5.63634 0
M  V30 3512 H 331.368 -4.75992 5.06415 0
M  V30 3513 H 334.559 -3.4111 3.20564 0
M  V30 3514 H 334.732 -4.54544 4.61837 0
M  V30 3515 N 328.138 -0.959301 -1.25041 0
M  V30 3516 C 329.101 -0.487677 -2.23952 0
M  V30 3517 C 330.101 0.41119 -1.55454 0
M  V30 3518 O 331.291 0.207825 -1.72956 0
M  V30 3519 C 328.423 0.294807 -3.39623 0
M  V30 3520 H 329.616 -1.36198 -2.67189 0
M  V30 3521 H 327.169 -0.743042 -1.37508 0
M  V30 3522 H 327.904 1.18658 -3.01813 0
M  V30 3523 H 327.689 -0.35012 -3.90534 0
M  V30 3524 H 329.179 0.614089 -4.1306 0
M  V30 3525 N 329.616 1.39756 -0.72842 0
M  V30 3526 C 330.526 2.34444 -0.0855374 0
M  V30 3527 C 331.542 1.57976 0.729356 0
M  V30 3528 O 332.718 1.90301 0.659346 0
M  V30 3529 C 329.783 3.36965 0.815798 0
M  V30 3530 C 328.844 4.29299 -0.0105996 0
M  V30 3531 C 328.077 5.26923 0.84781 0
M  V30 3532 O 328.3 5.30859 2.08673 0
M  V30 3533 O 327.234 6.01249 0.279969 0
M  V30 3534 H 331.06 2.91065 -0.866892 0
M  V30 3535 H 328.645 1.4117 -0.48902 0
M  V30 3536 H 330.527 3.99804 1.33171 0
M  V30 3537 H 329.202 2.82739 1.57608 0
M  V30 3538 H 328.109 3.69703 -0.571877 0
M  V30 3539 H 329.442 4.86712 -0.73295 0
M  V30 3540 N 331.094 0.475555 1.50254 0
M  V30 3541 C 332.371 -0.139685 1.95101 0
M  V30 3542 C 332.751 -1.56555 1.41611 0
M  V30 3543 O 332.099 -2.19956 0.618993 0
M  V30 3544 C 332.309 -0.0784298 3.48912 0
M  V30 3545 C 333.657 -0.265095 4.23772 0
M  V30 3546 O 334.681 -0.154808 3.55863 0
M  V30 3547 O 333.54 -0.488327 5.44314 0
M  V30 3548 H 330.634 -0.109236 0.819754 0
M  V30 3549 H 333.18 0.536276 1.61004 0
M  V30 3550 H 331.952 0.916918 3.80405 0
M  V30 3551 H 331.575 -0.795655 3.89558 0
M  V30 3552 N 332.573 -1.56217 0.208337 0
M  V30 3553 C 333.822 -1.97124 -0.427204 0
M  V30 3554 C 334.135 -1.09859 -1.61835 0
M  V30 3555 O 335.341 -1.40606 -2.32255 0
M  V30 3556 C 333.797 -3.50633 -0.811442 0
M  V30 3557 C 333.405 -4.46582 0.35615 0
M  V30 3558 C 335.149 -4.00282 -1.41332 0
M  V30 3559 C 333.056 -5.91379 -0.0497852 0
M  V30 3560 H 331.986 -0.736086 -0.163381 0
M  V30 3561 H 334.637 -1.8099 0.302456 0
M  V30 3562 H 333.019 -3.62319 -1.59815 0
M  V30 3563 H 334.193 -4.46636 1.1337 0
M  V30 3564 H 332.508 -4.07202 0.870396 0
M  V30 3565 H 335.105 -5.0595 -1.72972 0
M  V30 3566 H 335.448 -3.45359 -2.32449 0
M  V30 3567 H 335.981 -3.91764 -0.690323 0
M  V30 3568 H 332.72 -6.50255 0.827529 0
M  V30 3569 H 332.24 -5.94549 -0.791926 0
M  V30 3570 H 333.919 -6.45209 -0.481042 0
M  V30 3571 N 334.051 0.0651679 -1.57465 0
M  V30 3572 C 335.462 0.616213 -1.76238 0
M  V30 3573 C 335.813 1.7756 -0.834689 0
M  V30 3574 O 334.938 2.1639 -0.0204156 0
M  V30 3575 C 335.533 1.12462 -3.1959 0
M  V30 3576 C 334.092 1.62147 -3.39684 0
M  V30 3577 C 333.239 0.543739 -2.71917 0
M  V30 3578 H 336.19 -0.161022 -1.57881 0
M  V30 3579 H 336.211 1.99324 -3.24114 0
M  V30 3580 H 335.723 0.280592 -3.87084 0
M  V30 3581 H 333.824 2.48854 -2.77313 0
M  V30 3582 H 333.937 1.69385 -4.48158 0
M  V30 3583 H 332.301 0.990352 -2.34657 0
M  V30 3584 H 333.084 -0.290216 -3.42071 0
M  V30 3585 N 335.529 1.53961 0.336706 0
M  V30 3586 C 336.439 1.85432 1.43708 0
M  V30 3587 C 337.455 0.745053 1.57242 0
M  V30 3588 O 338.631 1.03804 1.72588 0
M  V30 3589 C 335.696 2.06349 2.78605 0
M  V30 3590 C 334.757 3.30191 2.74358 0
M  V30 3591 C 333.99 3.50101 4.02822 0
M  V30 3592 O 334.213 2.7371 5.00439 0
M  V30 3593 O 333.147 4.43547 4.06878 0
M  V30 3594 H 336.973 2.78975 1.20028 0
M  V30 3595 H 334.558 1.39701 0.52952 0
M  V30 3596 H 336.44 2.21513 3.58483 0
M  V30 3597 H 335.115 1.15995 3.02203 0
M  V30 3598 H 334.022 3.20425 1.93078 0
M  V30 3599 H 335.355 4.2056 2.55715 0
M  V30 3600 N 337.007 -0.598083 1.45811 0
M  V30 3601 C 337.937 -1.71873 1.58057 0
M  V30 3602 C 338.918 -1.64533 0.431615 0
M  V30 3603 O 340.103 -1.82787 0.65595 0
M  V30 3604 C 337.233 -3.10495 1.55597 0
M  V30 3605 C 336.187 -3.32654 2.69305 0
M  V30 3606 C 335.513 -4.71646 2.51902 0
M  V30 3607 C 336.813 -3.21981 4.11248 0
M  V30 3608 H 338.507 -1.61881 2.51863 0
M  V30 3609 H 336.053 -0.777372 1.21214 0
M  V30 3610 H 338.006 -3.88699 1.6276 0
M  V30 3611 H 336.73 -3.2135 0.583255 0
M  V30 3612 H 335.389 -2.56843 2.61586 0
M  V30 3613 H 335.037 -4.79246 1.52748 0
M  V30 3614 H 334.737 -4.87426 3.2816 0
M  V30 3615 H 336.261 -5.52038 2.60933 0
M  V30 3616 H 337.675 -3.90049 4.20161 0
M  V30 3617 H 336.072 -3.49289 4.87972 0
M  V30 3618 H 337.142 -2.1928 4.32486 0
M  V30 3619 N 338.485 -1.33259 -0.841409 0
M  V30 3620 C 339.415 -1.25926 -1.96634 0
M  V30 3621 C 340.396 -0.140349 -1.6952 0
M  V30 3622 O 341.581 -0.329707 -1.91381 0
M  V30 3623 C 338.711 -0.99512 -3.32738 0
M  V30 3624 C 337.665 -2.0767 -3.74242 0
M  V30 3625 C 336.991 -1.66474 -5.08125 0
M  V30 3626 C 338.291 -3.49318 -3.88297 0
M  V30 3627 H 339.985 -2.20046 -2.03027 0
M  V30 3628 H 337.531 -1.05931 -0.975425 0
M  V30 3629 H 339.484 -0.930323 -4.11002 0
M  V30 3630 H 338.208 -0.0183004 -3.26595 0
M  V30 3631 H 336.867 -2.13187 -2.98239 0
M  V30 3632 H 336.515 -0.675012 -4.9845 0
M  V30 3633 H 336.215 -2.3885 -5.36865 0
M  V30 3634 H 337.739 -1.61455 -5.88867 0
M  V30 3635 H 339.153 -3.46316 -4.56879 0
M  V30 3636 H 337.55 -4.20158 -4.28471 0
M  V30 3637 H 338.62 -3.8801 -2.9082 0
M  V30 3638 N 339.963 1.05934 -1.16686 0
M  V30 3639 C 340.893 2.1546 -0.899949 0
M  V30 3640 C 341.874 1.69391 0.155154 0
M  V30 3641 O 343.059 1.94199 0.00648693 0
M  V30 3642 C 340.189 3.44939 -0.404241 0
M  V30 3643 C 339.143 4.04536 -1.39767 0
M  V30 3644 C 338.469 5.29268 -0.760216 0
M  V30 3645 C 339.769 4.42893 -2.76845 0
M  V30 3646 H 341.463 2.38046 -1.81588 0
M  V30 3647 H 339.009 1.14404 -0.874514 0
M  V30 3648 H 340.962 4.20901 -0.204971 0
M  V30 3649 H 339.686 3.21983 0.547206 0
M  V30 3650 H 338.345 3.30635 -1.58355 0
M  V30 3651 H 337.993 5.02611 0.197831 0
M  V30 3652 H 337.693 5.70101 -1.42332 0
M  V30 3653 H 339.217 6.07924 -0.57105 0
M  V30 3654 H 340.631 5.09921 -2.62019 0
M  V30 3655 H 339.028 4.94721 -3.39663 0
M  V30 3656 H 340.098 3.53584 -3.31823 0
M  V30 3657 N 341.441 0.965919 1.2453 0
M  V30 3658 C 342.351 0.502154 2.29163 0
M  V30 3659 C 343.367 -0.436017 1.68448 0
M  V30 3660 O 344.543 -0.309497 1.99008 0
M  V30 3661 C 341.608 -0.201956 3.46111 0
M  V30 3662 C 340.669 0.775821 4.22232 0
M  V30 3663 C 339.902 0.105217 5.33596 0
M  V30 3664 O 340.125 -1.10683 5.59558 0
M  V30 3665 O 339.059 0.796475 5.96607 0
M  V30 3666 H 342.885 1.37194 2.70946 0
M  V30 3667 H 340.47 0.732875 1.30189 0
M  V30 3668 H 342.352 -0.597564 4.17142 0
M  V30 3669 H 341.027 -1.04673 3.06309 0
M  V30 3670 H 339.934 1.22185 3.53584 0
M  V30 3671 H 341.267 1.58896 4.65846 0
M  V30 3672 N 342.919 -1.39368 0.735821 0
M  V30 3673 C 344.33 -1.83313 0.354015 0
M  V30 3674 C 344.681 -1.61461 -1.11466 0
M  V30 3675 O 343.806 -1.10621 -1.85989 0
M  V30 3676 C 344.401 -3.32781 0.635769 0
M  V30 3677 C 342.96 -3.75142 0.307448 0
M  V30 3678 C 342.107 -2.62358 0.897974 0
M  V30 3679 H 345.058 -1.28349 0.933398 0
M  V30 3680 H 345.079 -3.80388 -0.0921773 0
M  V30 3681 H 344.591 -3.48654 1.70476 0
M  V30 3682 H 342.692 -3.64857 -0.755674 0
M  V30 3683 H 342.805 -4.72532 0.790583 0
M  V30 3684 H 341.169 -2.52624 0.324551 0
M  V30 3685 H 341.952 -2.81036 1.97164 0
M  V30 3686 N 344.397 -0.483516 -1.5 0
M  V30 3687 C 345.808 -0.0314176 -1.86674 0
M  V30 3688 C 346.159 1.37728 -1.39733 0
M  V30 3689 O 345.284 2.02327 -0.767635 0
M  V30 3690 C 345.879 -0.0502376 -3.38763 0
M  V30 3691 C 344.438 0.346442 -3.74802 0
M  V30 3692 C 343.585 -0.430366 -2.7394 0
M  V30 3693 H 346.536 -0.697182 -1.42566 0
M  V30 3694 H 346.557 0.749116 -3.73053 0
M  V30 3695 H 346.069 -1.07563 -3.72897 0
M  V30 3696 H 344.17 1.37572 -3.46273 0
M  V30 3697 H 344.283 0.0391486 -4.79084 0
M  V30 3698 H 342.647 0.117557 -2.54429 0
M  V30 3699 H 343.43 -1.4555 -3.10918 0
M  V30 3700 N 345.875 1.56104 -0.216619 0
M  V30 3701 C 347.124 1.97348 0.416744 0
M  V30 3702 C 347.437 1.10715 1.6125 0
M  V30 3703 O 348.643 1.41836 2.31506 0
M  V30 3704 C 347.099 3.51059 0.792835 0
M  V30 3705 C 346.707 4.46387 -0.379828 0
M  V30 3706 C 348.451 4.01026 1.39208 0
M  V30 3707 C 346.358 5.91397 0.0184223 0
M  V30 3708 H 345.288 0.736942 0.159475 0
M  V30 3709 H 347.939 1.80827 -0.31205 0
M  V30 3710 H 346.321 3.63162 1.57891 0
M  V30 3711 H 347.495 4.46029 -1.15737 0
M  V30 3712 H 345.81 4.06734 -0.891979 0
M  V30 3713 H 348.407 5.0686 1.70286 0
M  V30 3714 H 348.75 3.46587 2.30614 0
M  V30 3715 H 349.283 3.92125 0.669537 0
M  V30 3716 H 346.022 6.49807 -0.862002 0
M  V30 3717 H 345.542 5.94961 0.760384 0
M  V30 3718 H 347.221 6.45455 0.446818 0
M  V30 3719 N 347.353 -0.0568162 1.57498 0
M  V30 3720 C 348.578 -0.769402 1.92601 0
M  V30 3721 C 349.003 -1.69559 0.814336 0
M  V30 3722 O 348.361 -1.79811 -0.231903 0
M  V30 3723 C 348.409 -1.52634 3.26704 0
M  V30 3724 O 347.513 -2.63797 3.16994 0
M  V30 3725 H 346.854 -0.208909 0.63028 0
M  V30 3726 H 349.384 -0.0205798 2.0459 0
M  V30 3727 H 349.394 -1.90234 3.60936 0
M  V30 3728 H 348.069 -0.846875 4.07186 0
M  V30 3729 H 346.646 -2.28943 2.94346 0
M  V30 3730 N 348.832 -1.54138 -0.328536 0
M  V30 3731 C 349.795 -1.82462 -1.38709 0
M  V30 3732 C 350.795 -0.696229 -1.44946 0
M  V30 3733 O 351.985 -0.964535 -1.4506 0
M  V30 3734 C 349.117 -1.98018 -2.77492 0
M  V30 3735 H 350.31 -2.77037 -1.14851 0
M  V30 3736 H 347.863 -1.45779 -0.563751 0
M  V30 3737 H 348.598 -1.05637 -3.06613 0
M  V30 3738 H 348.383 -2.80124 -2.74359 0
M  V30 3739 H 349.873 -2.21396 -3.54081 0
M  V30 3740 N 350.31 0.590341 -1.46126 0
M  V30 3741 C 351.24 1.71032 -1.58966 0
M  V30 3742 C 352.221 1.64302 -0.440335 0
M  V30 3743 O 353.406 1.82436 -0.665634 0
M  V30 3744 C 350.536 3.09665 -1.57241 0
M  V30 3745 C 349.49 3.31221 -2.71066 0
M  V30 3746 C 348.816 4.70303 -2.54399 0
M  V30 3747 C 350.116 3.19796 -4.1295 0
M  V30 3748 H 351.81 1.60543 -2.52718 0
M  V30 3749 H 349.356 0.770933 -1.21625 0
M  V30 3750 H 351.309 3.87831 -1.64819 0
M  V30 3751 H 350.033 3.21036 -0.600289 0
M  V30 3752 H 348.692 2.55452 -2.62944 0
M  V30 3753 H 348.34 4.78429 -1.55288 0
M  V30 3754 H 348.04 4.85679 -3.30741 0
M  V30 3755 H 349.564 5.50647 -2.63857 0
M  V30 3756 H 350.978 3.87815 -4.22223 0
M  V30 3757 H 349.375 3.46696 -4.89818 0
M  V30 3758 H 350.445 2.16983 -4.33643 0
M  V30 3759 N 351.788 1.33704 0.83433 0
M  V30 3760 C 352.751 1.24244 1.92603 0
M  V30 3761 C 353.751 0.160383 1.59998 0
M  V30 3762 O 354.941 0.412228 1.69252 0
M  V30 3763 C 352.073 0.91555 3.28376 0
M  V30 3764 H 353.266 2.21287 2.02416 0
M  V30 3765 H 350.819 1.17827 1.02696 0
M  V30 3766 H 351.554 -0.0521886 3.24258 0
M  V30 3767 H 351.339 1.69811 3.53422 0
M  V30 3768 H 352.829 0.874231 4.08347 0
M  V30 3769 N 353.266 -1.05314 1.17247 0
M  V30 3770 C 354.198 -2.13023 0.845812 0
M  V30 3771 C 355.211 -1.62096 -0.151246 0
M  V30 3772 O 356.4 -1.78343 0.0748818 0
M  V30 3773 C 353.5 -3.38047 0.240292 0
M  V30 3774 C 352.673 -4.18255 1.27991 0
M  V30 3775 C 351.732 -5.21625 0.692375 0
M  V30 3776 O 350.758 -5.52619 1.36385 0
M  V30 3777 N 351.96 -5.78201 -0.516178 0
M  V30 3778 H 354.725 -2.41642 1.77283 0
M  V30 3779 H 352.286 -1.21401 1.07115 0
M  V30 3780 H 354.278 -4.04359 -0.16603 0
M  V30 3781 H 352.848 -3.06972 -0.590487 0
M  V30 3782 H 352.068 -3.47451 1.86203 0
M  V30 3783 H 353.356 -4.68643 1.98119 0
M  V30 3784 H 352.754 -5.55301 -1.07969 0
M  V30 3785 H 351.311 -6.4604 -0.86458 0
M  V30 3786 N 354.744 -0.972509 -1.24016 0
M  V30 3787 C 356.021 -0.553733 -1.87598 0
M  V30 3788 C 356.401 0.969158 -1.87538 0
M  V30 3789 O 355.749 1.84255 -1.35139 0
M  V30 3790 C 355.959 -1.15076 -3.29482 0
M  V30 3791 C 357.307 -1.23862 -4.06132 0
M  V30 3792 O 358.331 -1.10363 -3.38672 0
M  V30 3793 O 357.19 -1.45252 -5.26844 0
M  V30 3794 H 354.284 -0.185331 -0.805966 0
M  V30 3795 H 356.83 -1.06709 -1.31952 0
M  V30 3796 H 355.602 -2.19333 -3.2405 0
M  V30 3797 H 355.225 -0.621746 -3.92709 0
M  V30 3798 N 356.222 1.38976 -0.743202 0
M  V30 3799 C 357.45 2.04636 -0.30525 0
M  V30 3800 C 357.865 1.56044 1.06281 0
M  V30 3801 O 357.222 0.728921 1.67311 0
M  V30 3802 C 357.273 3.60193 -0.307177 0
M  V30 3803 O 356.994 4.06998 -1.62124 0
M  V30 3804 C 358.495 4.4306 0.145928 0
M  V30 3805 H 355.715 0.65788 -0.132041 0
M  V30 3806 H 358.259 1.77866 -1.00915 0
M  V30 3807 H 356.414 3.85835 0.347898 0
M  V30 3808 H 356.828 5.01371 -1.54036 0
M  V30 3809 H 358.302 5.51921 0.0934183 0
M  V30 3810 H 358.779 4.22706 1.19231 0
M  V30 3811 H 359.385 4.22584 -0.479886 0
M  V30 3812 N 357.7 0.491464 1.49741 0
M  V30 3813 C 358.946 -0.0565092 2.02721 0
M  V30 3814 C 359.279 -1.37522 1.37118 0
M  V30 3815 O 358.554 -1.87866 0.503645 0
M  V30 3816 C 358.837 -0.219051 3.59433 0
M  V30 3817 C 358.69 1.12211 4.35579 0
M  V30 3818 C 360.009 -0.964157 4.29409 0
M  V30 3819 H 357.128 -0.0190627 0.736753 0
M  V30 3820 H 359.77 0.641021 1.7886 0
M  V30 3821 H 357.92 -0.813165 3.79895 0
M  V30 3822 H 359.592 1.75437 4.26637 0
M  V30 3823 H 357.835 1.71377 3.98513 0
M  V30 3824 H 358.506 0.961794 5.43556 0
M  V30 3825 H 360.982 -0.460378 4.13545 0
M  V30 3826 H 359.858 -1.04671 5.38828 0
M  V30 3827 H 360.119 -2.00563 3.93988 0
M  V30 3828 N 359.178 -1.55987 0.224894 0
M  V30 3829 C 360.455 -1.90232 -0.455083 0
M  V30 3830 C 360.835 -1.14269 -1.77499 0
M  V30 3831 O 360.183 -0.253079 -2.27094 0
M  V30 3832 C 360.393 -3.42993 -0.644758 0
M  V30 3833 C 361.741 -4.13821 -0.950669 0
M  V30 3834 O 362.765 -3.4861 -0.731423 0
M  V30 3835 O 361.624 -5.29128 -1.36695 0
M  V30 3836 H 358.718 -0.79108 -0.241084 0
M  V30 3837 H 361.264 -1.67581 0.267327 0
M  V30 3838 H 360.036 -3.90252 0.28613 0
M  V30 3839 H 359.659 -3.71434 -1.41853 0
M  V30 3840 N 360.656 0.0484629 -1.57525 0
M  V30 3841 C 361.903 0.743125 -1.88372 0
M  V30 3842 C 362.231 1.76383 -0.819715 0
M  V30 3843 O 361.486 1.94855 0.181659 0
M  V30 3844 C 361.785 1.46632 -3.25935 0
M  V30 3845 C 361.451 0.583427 -4.4711 0
M  V30 3846 C 360.113 0.340191 -4.79996 0
M  V30 3847 C 362.465 -0.0273345 -5.21193 0
M  V30 3848 C 359.793 -0.522903 -5.84365 0
M  V30 3849 C 362.145 -0.878017 -6.26477 0
M  V30 3850 C 360.809 -1.1309 -6.5785 0
M  V30 3851 H 360.079 0.271929 -0.689301 0
M  V30 3852 H 362.726 0.00336166 -1.915 0
M  V30 3853 H 361.031 2.2789 -3.18706 0
M  V30 3854 H 362.728 2.00902 -3.47044 0
M  V30 3855 H 359.318 0.783151 -4.21384 0
M  V30 3856 H 363.502 0.147654 -4.9608 0
M  V30 3857 H 358.758 -0.727335 -6.07058 0
M  V30 3858 H 362.932 -1.35789 -6.83033 0
M  V30 3859 H 360.559 -1.80144 -7.38547 0
M  V30 3860 N 362.134 1.5431 0.320358 0
M  V30 3861 C 363.064 1.86912 1.3995 0
M  V30 3862 C 364.045 0.726211 1.53819 0
M  V30 3863 O 365.23 0.980233 1.67646 0
M  V30 3864 C 362.36 2.09932 2.7667 0
M  V30 3865 C 361.314 3.25776 2.77586 0
M  V30 3866 C 360.64 3.34173 4.17412 0
M  V30 3867 C 361.94 4.6335 2.41048 0
M  V30 3868 H 363.634 2.77292 1.12914 0
M  V30 3869 H 361.18 1.33421 0.541738 0
M  V30 3870 H 363.133 2.31324 3.52232 0
M  V30 3871 H 361.857 1.16304 3.0519 0
M  V30 3872 H 360.516 3.04276 2.04479 0
M  V30 3873 H 360.164 2.38098 4.43078 0
M  V30 3874 H 359.864 4.12033 4.18931 0
M  V30 3875 H 361.388 3.57803 4.94782 0
M  V30 3876 H 362.802 4.84602 3.06324 0
M  V30 3877 H 361.199 5.43782 2.53813 0
M  V30 3878 H 362.269 4.65381 1.36193 0
M  V30 3879 N 363.613 -0.582584 1.46437 0
M  V30 3880 C 364.838 -1.37168 1.55563 0
M  V30 3881 C 365.263 -1.87061 0.19743 0
M  V30 3882 O 364.621 -1.61572 -0.822451 0
M  V30 3883 C 364.669 -2.53511 2.56446 0
M  V30 3884 O 363.773 -3.54953 2.09958 0
M  V30 3885 H 363.114 -0.408494 0.523477 0
M  V30 3886 H 365.644 -0.706646 1.9201 0
M  V30 3887 H 365.654 -3.00426 2.76058 0
M  V30 3888 H 364.329 -2.16549 3.55076 0
M  V30 3889 H 362.906 -3.14516 2.00334 0
M  V30 3890 N 365.091 -1.34144 -0.827227 0
M  V30 3891 C 366.021 -1.28005 -1.95287 0
M  V30 3892 C 367.002 -0.158321 -1.69362 0
M  V30 3893 O 368.187 -0.349987 -1.9102 0
M  V30 3894 C 365.317 -1.03036 -3.31664 0
M  V30 3895 C 364.271 -2.11628 -3.72019 0
M  V30 3896 C 363.597 -1.71854 -5.0633 0
M  V30 3897 C 364.897 -3.53417 -3.8457 0
M  V30 3898 H 366.591 -2.22187 -2.00682 0
M  V30 3899 H 364.137 -1.0696 -0.964135 0
M  V30 3900 H 366.09 -0.973863 -4.09993 0
M  V30 3901 H 364.814 -0.0529391 -3.26557 0
M  V30 3902 H 363.473 -2.16339 -2.95961 0
M  V30 3903 H 363.121 -0.727841 -4.97706 0
M  V30 3904 H 362.821 -2.44531 -5.34302 0
M  V30 3905 H 364.345 -1.67692 -5.87122 0
M  V30 3906 H 365.759 -3.51142 -4.5318 0
M  V30 3907 H 364.156 -4.24679 -4.2399 0
M  V30 3908 H 365.226 -3.91072 -2.86689 0
M  V30 3909 N 366.569 1.04691 -1.17803 0
M  V30 3910 C 367.846 1.7472 -0.879328 0
M  V30 3911 C 368.226 2.01812 0.619271 0
M  V30 3912 O 367.574 1.65824 1.57209 0
M  V30 3913 C 367.784 3.03686 -1.71976 0
M  V30 3914 C 369.132 3.77542 -1.94286 0
M  V30 3915 O 370.156 3.13569 -1.68976 0
M  V30 3916 O 369.015 4.92506 -2.36855 0
M  V30 3917 H 366.109 0.760011 -0.326056 0
M  V30 3918 H 368.655 1.10813 -1.28525 0
M  V30 3919 H 367.427 2.79754 -2.73594 0
M  V30 3920 H 367.05 3.75332 -1.31194 0
M  V30 3921 N 368.047 0.979072 1.23499 0
M  V30 3922 C 368.977 0.537606 2.27227 0
M  V30 3923 C 369.958 -0.428539 1.64613 0
M  V30 3924 O 371.143 -0.322191 1.91509 0
M  V30 3925 C 368.273 -0.162052 3.46922 0
M  V30 3926 C 367.227 0.721242 4.21879 0
M  V30 3927 C 366.553 -0.110555 5.34586 0
M  V30 3928 C 367.853 2.01141 4.82016 0
M  V30 3929 H 369.547 1.40462 2.64406 0
M  V30 3930 H 367.093 0.67684 1.27102 0
M  V30 3931 H 369.046 -0.482192 4.18632 0
M  V30 3932 H 367.77 -1.06351 3.08799 0
M  V30 3933 H 366.429 1.02482 3.51984 0
M  V30 3934 H 366.077 -1.0125 4.92704 0
M  V30 3935 H 365.777 0.477325 5.85658 0
M  V30 3936 H 367.301 -0.425107 6.09118 0
M  V30 3937 H 368.715 1.75612 5.45741 0
M  V30 3938 H 367.112 2.54695 5.43369 0
M  V30 3939 H 368.182 2.69909 4.02836 0
M  V30 3940 N 369.525 -1.3858 0.750561 0
M  V30 3941 C 370.75 -2.04997 0.314812 0
M  V30 3942 C 371.175 -1.56235 -1.04749 0
M  V30 3943 O 370.533 -0.712981 -1.66692 0
M  V30 3944 C 370.581 -3.58961 0.343415 0
M  V30 3945 O 369.685 -4.07025 -0.663628 0
M  V30 3946 H 369.026 -0.649081 0.139962 0
M  V30 3947 H 371.556 -1.77313 1.02084 0
M  V30 3948 H 371.566 -4.07542 0.193233 0
M  V30 3949 H 370.241 -3.93811 1.33738 0
M  V30 3950 H 368.818 -3.6982 -0.478307 0
M  V30 3951 N 371.003 -0.499398 -1.49478 0
M  V30 3952 C 372.233 0.0424839 -2.06556 0
M  V30 3953 C 372.641 1.31514 -1.36018 0
M  V30 3954 O 371.984 1.78555 -0.431718 0
M  V30 3955 C 372.046 0.368074 -3.57611 0
M  V30 3956 C 371.71 -0.806631 -4.49825 0
M  V30 3957 C 372.707 -1.69667 -4.91436 0
M  V30 3958 C 370.392 -1.00498 -4.92144 0
M  V30 3959 C 372.386 -2.76923 -5.74101 0
M  V30 3960 C 370.073 -2.08072 -5.74586 0
M  V30 3961 C 371.071 -2.96119 -6.15469 0
M  V30 3962 O 370.759 -4.01836 -6.96264 0
M  V30 3963 H 370.491 -0.0165165 -0.675798 0
M  V30 3964 H 373.045 -0.695497 -1.93267 0
M  V30 3965 H 371.275 1.15963 -3.68903 0
M  V30 3966 H 372.964 0.848381 -3.96935 0
M  V30 3967 H 373.73 -1.55524 -4.59388 0
M  V30 3968 H 369.609 -0.329036 -4.59824 0
M  V30 3969 H 373.153 -3.45676 -6.05932 0
M  V30 3970 H 369.05 -2.22211 -6.06047 0
M  V30 3971 H 369.818 -3.9917 -7.14567 0
M  V30 3972 N 372.481 1.55866 -0.233164 0
M  V30 3973 C 373.391 2.24431 0.683217 0
M  V30 3974 C 374.407 1.2558 1.2044 0
M  V30 3975 O 375.583 1.58422 1.24356 0
M  V30 3976 C 372.648 2.91979 1.86947 0
M  V30 3977 C 371.709 4.06204 1.38912 0
M  V30 3978 C 370.942 4.70522 2.51883 0
M  V30 3979 O 371.165 4.33865 3.70293 0
M  V30 3980 O 370.099 5.59296 2.22423 0
M  V30 3981 H 373.925 3.03426 0.129059 0
M  V30 3982 H 371.51 1.494 -0.0022283 0
M  V30 3983 H 373.392 3.34573 2.56201 0
M  V30 3984 H 372.067 2.15935 2.41151 0
M  V30 3985 H 370.974 3.68155 0.664259 0
M  V30 3986 H 372.307 4.84025 0.893328 0
M  V30 3987 N 373.959 -0.0401083 1.57549 0
M  V30 3988 C 375.199 -0.738098 1.90608 0
M  V30 3989 C 375.563 -1.73107 0.830539 0
M  V30 3990 O 376.764 -2.4765 1.04513 0
M  V30 3991 C 375.035 -1.39985 3.28845 0
M  V30 3992 S 376.594 -2.12852 3.83718 0
M  V30 3993 H 373.412 -0.24477 0.667539 0
M  V30 3994 H 376.014 0.00693599 1.95499 0
M  V30 3995 H 374.718 -0.663775 4.04997 0
M  V30 3996 H 374.249 -2.18366 3.2723 0
M  V30 3997 H 376.264 -3.39842 3.61555 0
M  V30 3998 N 375.437 -1.54477 -0.31217 0
M  V30 3999 C 376.369 -1.81011 -1.40598 0
M  V30 4000 C 377.382 -0.692546 -1.47335 0
M  V30 4001 O 378.571 -0.969847 -1.49854 0
M  V30 4002 C 375.671 -1.92307 -2.79054 0
M  V30 4003 C 374.844 -3.22594 -2.95384 0
M  V30 4004 C 373.903 -3.24448 -4.1427 0
M  V30 4005 O 372.929 -3.98035 -4.06887 0
M  V30 4006 N 374.131 -2.49042 -5.24365 0
M  V30 4007 H 376.896 -2.75408 -1.18196 0
M  V30 4008 H 374.457 -1.53914 -0.502202 0
M  V30 4009 H 376.449 -1.90962 -3.56813 0
M  V30 4010 H 375.019 -1.04955 -2.94454 0
M  V30 4011 H 374.239 -3.36806 -2.04831 0
M  V30 4012 H 375.527 -4.08593 -3.03198 0
M  V30 4013 H 374.925 -1.88867 -5.33241 0
M  V30 4014 H 373.482 -2.53463 -6.005 0
M  V30 4015 N 376.915 0.57481 -1.46744 0
M  V30 4016 C 377.863 1.70435 -1.58286 0
M  V30 4017 C 378.857 1.63287 -0.450956 0
M  V30 4018 O 380.063 1.68685 -0.628121 0
M  V30 4019 H 376.438 0.56364 -0.497809 0
M  V30 4020 H 378.409 1.57833 -2.53242 0
M  V30 4021 C 377.158 3.08815 -1.59776 0
M  V30 4022 H 376.481 3.1499 -2.46214 0
M  V30 4023 H 377.921 3.87588 -1.71905 0
M  V30 4024 C 376.38 3.35301 -0.327812 0
M  V30 4025 O 376.91 3.97511 0.57861 0
M  V30 4026 N 375.116 2.89816 -0.213274 0
M  V30 4027 H 374.663 2.39371 -0.951798 0
M  V30 4028 H 374.621 3.0791 0.63553 0
M  V30 4029 N 378.394 1.34581 0.820102 0
M  V30 4030 C 379.304 1.28471 1.96297 0
M  V30 4031 C 380.32 0.191902 1.72939 0
M  V30 4032 O 381.496 0.418879 1.96996 0
M  V30 4033 C 378.561 1.04281 3.30645 0
M  V30 4034 C 377.622 2.22745 3.66992 0
M  V30 4035 C 376.855 1.997 4.9493 0
M  V30 4036 O 377.078 0.956656 5.6232 0
M  V30 4037 O 376.012 2.86723 5.2922 0
M  V30 4038 H 379.838 2.24624 2.04396 0
M  V30 4039 H 377.423 1.14816 0.955913 0
M  V30 4040 H 379.305 0.925841 4.11104 0
M  V30 4041 H 377.98 0.111697 3.23507 0
M  V30 4042 H 376.887 2.40003 2.86966 0
M  V30 4043 H 378.22 3.14257 3.78819 0
M  V30 4044 N 379.872 -1.04064 1.18357 0
M  V30 4045 C 380.835 -2.10243 0.912707 0
M  V30 4046 C 381.835 -1.60477 -0.101928 0
M  V30 4047 O 383.025 -1.73703 0.131517 0
M  V30 4048 C 380.157 -3.38893 0.369387 0
M  V30 4049 H 381.35 -2.35706 1.85426 0
M  V30 4050 H 378.903 -1.20489 0.995594 0
M  V30 4051 H 379.638 -3.19094 -0.578776 0
M  V30 4052 H 379.423 -3.76331 1.1008 0
M  V30 4053 H 380.913 -4.17128 0.198575 0
M  V30 4054 N 381.35 -0.985608 -1.22978 0
M  V30 4055 C 382.575 -0.675254 -1.961 0
M  V30 4056 C 383 0.752154 -1.72407 0
M  V30 4057 O 382.358 1.5131 -0.998751 0
M  V30 4058 C 382.406 -0.977899 -3.47087 0
M  V30 4059 O 381.51 -0.072685 -4.12336 0
M  V30 4060 H 380.851 -0.253443 -0.613728 0
M  V30 4061 H 383.381 -1.32061 -1.56272 0
M  V30 4062 H 383.391 -0.916739 -3.97567 0
M  V30 4063 H 382.066 -2.01807 -3.63657 0
M  V30 4064 H 380.643 -0.188703 -3.72422 0
M  V30 4065 N 382.828 1.3818 -0.7579 0
M  V30 4066 C 383.758 2.33027 -0.148597 0
M  V30 4067 C 384.739 1.55085 0.69875 0
M  V30 4068 O 385.924 1.83384 0.639053 0
M  V30 4069 C 383.054 3.3928 0.742034 0
M  V30 4070 C 382.008 4.28 -0.00291946 0
M  V30 4071 C 381.334 5.25146 1.00625 0
M  V30 4072 C 382.634 5.08938 -1.17385 0
M  V30 4073 H 384.328 2.84231 -0.940909 0
M  V30 4074 H 381.874 1.36659 -0.453908 0
M  V30 4075 H 383.827 4.046 1.17799 0
M  V30 4076 H 382.551 2.86569 1.56671 0
M  V30 4077 H 381.21 3.64192 -0.419504 0
M  V30 4078 H 380.858 4.68721 1.8251 0
M  V30 4079 H 380.558 5.85361 0.512428 0
M  V30 4080 H 382.082 5.93342 1.44143 0
M  V30 4081 H 383.496 5.67474 -0.815224 0
M  V30 4082 H 381.893 5.7841 -1.59882 0
M  V30 4083 H 382.963 4.42424 -1.98468 0
M  V30 4084 N 384.306 0.507319 1.49211 0
M  V30 4085 C 385.722 0.163682 1.58758 0
M  V30 4086 C 385.922 -1.33208 1.51188 0
M  V30 4087 O 384.978 -2.10855 1.38911 0
M  V30 4088 C 386.291 0.746095 2.91297 0
M  V30 4089 C 387.839 0.712773 3.04776 0
M  V30 4090 C 388.314 1.27336 4.39943 0
M  V30 4091 N 389.805 1.23433 4.46451 0
M  V30 4092 C 390.54 1.63821 5.495 0
M  V30 4093 N 390.036 2.11832 6.5962 0
M  V30 4094 N 391.829 1.55198 5.4025 0
M  V30 4095 H 383.98 1.47972 1.52375 0
M  V30 4096 H 386.243 0.614147 0.722168 0
M  V30 4097 H 385.949 1.79534 3.02424 0
M  V30 4098 H 385.823 0.210137 3.76614 0
M  V30 4099 H 388.21 -0.327656 2.93275 0
M  V30 4100 H 388.291 1.28595 2.21127 0
M  V30 4101 H 387.935 2.3126 4.52196 0
M  V30 4102 H 387.865 0.676066 5.22242 0
M  V30 4103 H 390.356 0.882627 3.67448 0
M  V30 4104 H 390.669 2.40703 7.34358 0
M  V30 4105 H 389.014 2.1581 6.60644 0
M  V30 4106 H 392.205 1.17505 4.53112 0
M  V30 4107 H 392.378 1.86997 6.20432 0
M  V30 4108 N 385.784 -1.5574 0.241426 0
M  V30 4109 C 386.716 -2.18469 -0.693091 0
M  V30 4110 C 387.729 -1.15942 -1.14286 0
M  V30 4111 O 388.918 -1.42832 -1.07058 0
M  V30 4112 C 386.018 -2.7696 -1.95311 0
M  V30 4113 C 385.191 -4.04853 -1.65568 0
M  V30 4114 C 384.25 -4.47715 -2.76474 0
M  V30 4115 O 383.276 -5.14205 -2.44094 0
M  V30 4116 N 384.478 -4.15044 -4.05855 0
M  V30 4117 H 387.243 -2.99292 -0.156388 0
M  V30 4118 H 384.804 -1.61784 0.0611752 0
M  V30 4119 H 386.796 -3.02594 -2.68736 0
M  V30 4120 H 385.366 -2.00326 -2.39975 0
M  V30 4121 H 384.586 -3.86865 -0.756886 0
M  V30 4122 H 385.874 -4.88246 -1.43153 0
M  V30 4123 H 385.272 -3.61654 -4.34998 0
M  V30 4124 H 383.829 -4.45526 -4.75762 0
M  V30 4125 N 387.262 0.0317525 -1.57568 0
M  V30 4126 C 388.209 1.0332 -2.06382 0
M  V30 4127 C 389.179 1.36082 -0.952414 0
M  V30 4128 O 390.364 1.46466 -1.2228 0
M  V30 4129 C 387.504 2.32989 -2.54578 0
M  V30 4130 C 386.617 2.0641 -3.79498 0
M  V30 4131 C 385.752 3.2993 -4.16317 0
M  V30 4132 C 384.791 2.98893 -5.34162 0
M  V30 4133 N 383.928 4.14857 -5.66426 0
M  V30 4134 H 388.768 0.609982 -2.9169 0
M  V30 4135 H 386.305 0.289573 -1.44222 0
M  V30 4136 H 388.263 3.0875 -2.80587 0
M  V30 4137 H 386.893 2.73039 -1.7219 0
M  V30 4138 H 385.945 1.21158 -3.6059 0
M  V30 4139 H 387.257 1.79513 -4.65378 0
M  V30 4140 H 386.411 4.1406 -4.4344 0
M  V30 4141 H 385.15 3.59938 -3.29083 0
M  V30 4142 H 384.155 2.13164 -5.06795 0
M  V30 4143 H 385.38 2.70165 -6.23047 0
M  V30 4144 H 383.326 4.44821 -4.82151 0
M  V30 4145 H 383.243 3.91374 -6.4681 0
M  V30 4146 H 384.511 4.99868 -5.98124 0
M  V30 4147 N 388.74 1.54641 0.303973 0
M  V30 4148 C 389.67 1.88386 1.3796 0
M  V30 4149 C 390.651 0.742485 1.5304 0
M  V30 4150 O 391.836 0.997959 1.66597 0
M  V30 4151 C 388.966 2.12854 2.74427 0
M  V30 4152 C 387.92 3.28702 2.74115 0
M  V30 4153 C 387.246 3.38582 4.13844 0
M  V30 4154 C 388.546 4.65881 2.3612 0
M  V30 4155 H 390.24 2.78474 1.09966 0
M  V30 4156 H 387.786 1.33988 0.527556 0
M  V30 4157 H 389.739 2.35047 3.49758 0
M  V30 4158 H 388.463 1.19535 3.03939 0
M  V30 4159 H 387.122 3.06428 2.0124 0
M  V30 4160 H 386.77 2.42784 4.40528 0
M  V30 4161 H 386.47 4.16453 4.14537 0
M  V30 4162 H 387.994 3.63031 4.90959 0
M  V30 4163 H 389.408 4.87823 3.01167 0
M  V30 4164 H 387.805 5.46444 2.48031 0
M  V30 4165 H 388.875 4.66799 1.3125 0
M  V30 4166 N 390.218 -0.567019 1.47046 0
M  V30 4167 C 391.443 -1.3551 1.57009 0
M  V30 4168 C 391.868 -1.86841 0.217259 0
M  V30 4169 O 391.226 -1.62435 -0.805268 0
M  V30 4170 C 391.274 -2.50777 2.5912 0
M  V30 4171 O 390.378 -3.52706 2.13711 0
M  V30 4172 H 389.719 -0.402919 0.52778 0
M  V30 4173 H 392.249 -0.686241 1.92748 0
M  V30 4174 H 392.259 -2.97481 2.79229 0
M  V30 4175 H 390.934 -2.12771 3.57353 0
M  V30 4176 H 389.511 -3.12374 2.03659 0
M  V30 4177 N 391.696 -1.35014 -0.812953 0
M  V30 4178 C 392.643 -1.27412 -1.92444 0
M  V30 4179 C 393.613 -0.14733 -1.65445 0
M  V30 4180 O 394.798 -0.329974 -1.87925 0
M  V30 4181 C 391.938 -1.04558 -3.28879 0
M  V30 4182 C 391.051 -2.26101 -3.68106 0
M  V30 4183 C 390.186 -1.96449 -4.9354 0
M  V30 4184 C 389.225 -3.14081 -5.25376 0
M  V30 4185 N 388.362 -2.84246 -6.41988 0
M  V30 4186 H 393.202 -2.22463 -1.98278 0
M  V30 4187 H 390.739 -1.10593 -0.969933 0
M  V30 4188 H 392.697 -0.893413 -4.07522 0
M  V30 4189 H 391.327 -0.131719 -3.22531 0
M  V30 4190 H 390.379 -2.52204 -2.84775 0
M  V30 4191 H 391.691 -3.13959 -3.87597 0
M  V30 4192 H 390.845 -1.78026 -5.79993 0
M  V30 4193 H 389.584 -1.05867 -4.76071 0
M  V30 4194 H 388.589 -3.33089 -4.37415 0
M  V30 4195 H 389.814 -4.05455 -5.44778 0
M  V30 4196 H 387.76 -1.96252 -6.25956 0
M  V30 4197 H 387.677 -3.65637 -6.61699 0
M  V30 4198 H 388.945 -2.6935 -7.31485 0
M  V30 4199 N 393.175 1.03435 -1.18907 0
M  V30 4200 C 394.105 2.13503 -0.945448 0
M  V30 4201 C 395.086 1.69682 0.119189 0
M  V30 4202 O 396.271 1.94169 -0.034707 0
M  V30 4203 C 393.401 3.44004 -0.477316 0
M  V30 4204 C 392.355 4.0148 -1.48316 0
M  V30 4205 C 391.681 5.27537 -0.872311 0
M  V30 4206 C 392.981 4.36921 -2.86177 0
M  V30 4207 H 394.675 2.34141 -1.86597 0
M  V30 4208 H 392.221 1.12523 -0.898584 0
M  V30 4209 H 394.174 4.20372 -0.294204 0
M  V30 4210 H 392.898 3.23072 0.478786 0
M  V30 4211 H 391.557 3.27201 -1.65332 0
M  V30 4212 H 391.205 5.02917 0.0911752 0
M  V30 4213 H 390.905 5.66954 -1.54393 0
M  V30 4214 H 392.429 6.06576 -0.699871 0
M  V30 4215 H 393.843 5.04248 -2.72776 0
M  V30 4216 H 392.24 4.87405 -3.50081 0
M  V30 4217 H 393.31 3.46466 -3.39248 0
M  V30 4218 N 394.653 0.992116 1.22453 0
M  V30 4219 C 395.585 0.500024 2.23679 0
M  V30 4220 C 396.598 -0.404463 1.57696 0
M  V30 4221 O 397.787 -0.206722 1.77299 0
M  V30 4222 C 394.887 -0.294711 3.37616 0
M  V30 4223 C 394.06 0.605723 4.33186 0
M  V30 4224 C 393.119 -0.13717 5.26021 0
M  V30 4225 O 392.145 0.477164 5.67196 0
M  V30 4226 N 393.347 -1.4197 5.62872 0
M  V30 4227 H 396.112 1.37045 2.66531 0
M  V30 4228 H 393.673 0.866741 1.36745 0
M  V30 4229 H 395.665 -0.800329 3.96707 0
M  V30 4230 H 394.235 -1.06623 2.93854 0
M  V30 4231 H 393.455 1.29202 3.72425 0
M  V30 4232 H 394.743 1.21896 4.93983 0
M  V30 4233 H 394.141 -1.94015 5.31389 0
M  V30 4234 H 392.698 -1.87052 6.24383 0
M  V30 4235 N 396.131 -1.37776 0.765217 0
M  V30 4236 C 397.359 -2.04124 0.337767 0
M  V30 4237 C 397.774 -1.57715 -1.03785 0
M  V30 4238 O 397.131 -0.755447 -1.6613 0
M  V30 4239 C 397.182 -3.59658 0.364442 0
M  V30 4240 O 396.903 -4.04367 1.68579 0
M  V30 4241 C 398.404 -4.43236 -0.0754221 0
M  V30 4242 H 395.624 -0.655696 0.142491 0
M  V30 4243 H 398.168 -1.76238 1.03732 0
M  V30 4244 H 396.323 -3.86339 -0.286471 0
M  V30 4245 H 396.737 -4.98857 1.61993 0
M  V30 4246 H 398.211 -5.52 -0.00560067 0
M  V30 4247 H 398.688 -4.2455 -1.12491 0
M  V30 4248 H 399.294 -4.21767 0.547055 0
M  V30 4249 N 397.609 -0.515225 -1.4894 0
M  V30 4250 C 398.858 0.0261361 -2.01683 0
M  V30 4251 C 399.171 1.36719 -1.39883 0
M  V30 4252 O 400.377 1.99606 -1.84037 0
M  V30 4253 C 398.833 0.0970111 -3.59769 0
M  V30 4254 C 398.441 -1.23825 -4.30548 0
M  V30 4255 C 400.185 0.587981 -4.20408 0
M  V30 4256 C 398.092 -1.12877 -5.80528 0
M  V30 4257 H 397.022 0.0135398 -0.753878 0
M  V30 4258 H 399.673 -0.656787 -1.71343 0
M  V30 4259 H 398.055 0.844694 -3.86886 0
M  V30 4260 H 399.229 -2.00034 -4.15118 0
M  V30 4261 H 397.544 -1.66379 -3.81716 0
M  V30 4262 H 400.141 0.68763 -5.3026 0
M  V30 4263 H 400.484 1.59026 -3.84729 0
M  V30 4264 H 401.017 -0.103582 -3.97665 0
M  V30 4265 H 397.756 -2.10575 -6.20756 0
M  V30 4266 H 397.276 -0.407799 -5.98412 0
M  V30 4267 H 398.955 -0.813332 -6.41868 0
M  V30 4268 N 399.087 1.5561 -0.249682 0
M  V30 4269 C 399.997 2.25143 0.659375 0
M  V30 4270 C 401.013 1.2685 1.19101 0
M  V30 4271 O 402.189 1.59732 1.22669 0
M  V30 4272 C 399.254 2.93945 1.8384 0
M  V30 4273 C 398.315 4.07655 1.34596 0
M  V30 4274 C 397.548 4.73167 2.46878 0
M  V30 4275 O 397.771 4.37768 3.65671 0
M  V30 4276 O 396.705 5.61623 2.16478 0
M  V30 4277 H 400.531 3.03545 0.0968698 0
M  V30 4278 H 398.116 1.49389 -0.018074 0
M  V30 4279 H 399.998 3.37271 2.52638 0
M  V30 4280 H 398.673 2.18481 2.38847 0
M  V30 4281 H 397.58 3.68839 0.625174 0
M  V30 4282 H 398.913 4.84946 0.841941 0
M  V30 4283 N 400.565 -0.0233959 1.57583 0
M  V30 4284 C 401.976 -0.56927 1.77809 0
M  V30 4285 C 402.327 -1.75284 0.881472 0
M  V30 4286 O 401.452 -2.1626 0.0777805 0
M  V30 4287 C 402.047 -1.03949 3.22459 0
M  V30 4288 C 400.606 -1.53084 3.43864 0
M  V30 4289 C 399.753 -0.471454 2.73263 0
M  V30 4290 H 402.704 0.202825 1.57399 0
M  V30 4291 H 402.725 -1.90661 3.29285 0
M  V30 4292 H 402.237 -0.177865 3.87692 0
M  V30 4293 H 400.338 -2.41414 2.83814 0
M  V30 4294 H 400.451 -1.57443 4.52491 0
M  V30 4295 H 398.815 -0.927788 2.37201 0
M  V30 4296 H 399.598 0.380808 3.41181 0
M  V30 4297 N 402.043 -1.548 -0.295768 0
M  V30 4298 C 402.99 -1.86113 -1.36494 0
M  V30 4299 C 403.96 -0.7105 -1.50137 0
M  V30 4300 O 405.145 -0.959626 -1.64912 0
M  V30 4301 C 402.285 -2.11861 -2.72413 0
M  V30 4302 C 401.398 -3.39471 -2.67177 0
M  V30 4303 C 400.533 -3.55035 -3.95125 0
M  V30 4304 C 399.572 -4.76418 -3.84308 0
M  V30 4305 N 398.709 -4.8876 -5.04042 0
M  V30 4306 H 403.549 -2.77314 -1.09091 0
M  V30 4307 H 401.086 -1.37315 -0.52753 0
M  V30 4308 H 403.044 -2.24786 -3.51464 0
M  V30 4309 H 401.674 -1.2392 -2.98066 0
M  V30 4310 H 400.726 -3.35139 -1.79962 0
M  V30 4311 H 402.038 -4.28646 -2.55076 0
M  V30 4312 H 401.192 -3.67653 -4.82614 0
M  V30 4313 H 399.931 -2.64002 -4.10066 0
M  V30 4314 H 398.936 -4.63827 -2.95202 0
M  V30 4315 H 400.161 -5.68863 -3.70906 0
M  V30 4316 H 398.107 -4.00652 -5.19436 0
M  V30 4317 H 398.024 -5.71945 -4.94384 0
M  V30 4318 H 399.292 -5.0574 -5.93167 0
M  V30 4319 N 403.521 0.559213 -1.47345 0
M  V30 4320 C 404.767 1.31843 -1.54095 0
M  V30 4321 C 405.1 1.93149 -0.201726 0
M  V30 4322 O 404.375 1.77759 0.789428 0
M  V30 4323 C 404.658 2.43006 -2.65744 0
M  V30 4324 C 404.511 1.86581 -4.09277 0
M  V30 4325 C 405.83 3.44943 -2.73318 0
M  V30 4326 H 402.949 0.478012 -0.560957 0
M  V30 4327 H 405.591 0.625977 -1.79392 0
M  V30 4328 H 403.741 3.02072 -2.44305 0
M  V30 4329 H 405.413 1.31792 -4.42073 0
M  V30 4330 H 403.656 1.17268 -4.17649 0
M  V30 4331 H 404.327 2.66933 -4.83168 0
M  V30 4332 H 406.803 2.95793 -2.92653 0
M  V30 4333 H 405.679 4.20153 -3.53218 0
M  V30 4334 H 405.94 4.03665 -1.80296 0
M  V30 4335 N 404.999 1.35443 0.805782 0
M  V30 4336 C 405.946 1.28431 1.91766 0
M  V30 4337 C 406.916 0.156102 1.65365 0
M  V30 4338 O 408.101 0.339936 1.87747 0
M  V30 4339 C 405.241 1.06301 3.2832 0
M  V30 4340 C 404.354 2.2805 3.66902 0
M  V30 4341 C 403.489 1.99064 4.92491 0
M  V30 4342 C 402.528 3.16863 5.23703 0
M  V30 4343 N 401.665 2.87647 6.40471 0
M  V30 4344 H 406.505 2.23511 1.97096 0
M  V30 4345 H 404.042 1.11105 0.964054 0
M  V30 4346 H 406 0.915012 4.07042 0
M  V30 4347 H 404.63 0.148822 3.22457 0
M  V30 4348 H 403.682 2.53711 2.83434 0
M  V30 4349 H 404.994 3.1601 3.85927 0
M  V30 4350 H 404.148 1.81099 5.7904 0
M  V30 4351 H 402.887 1.0839 4.75503 0
M  V30 4352 H 401.892 3.35404 4.35642 0
M  V30 4353 H 403.117 4.08339 5.4262 0
M  V30 4354 H 401.063 1.99568 6.24907 0
M  V30 4355 H 400.98 3.69141 6.59751 0
M  V30 4356 H 402.248 2.73226 7.30047 0
M  V30 4357 N 406.477 -1.02803 1.19454 0
M  V30 4358 C 407.723 -1.76478 0.999171 0
M  V30 4359 C 408.056 -1.88456 -0.468828 0
M  V30 4360 O 407.331 -1.40198 -1.34814 0
M  V30 4361 C 407.614 -3.19044 1.66981 0
M  V30 4362 C 407.467 -3.14932 3.21151 0
M  V30 4363 C 408.786 -4.17456 1.39349 0
M  V30 4364 H 405.905 -0.640614 0.364393 0
M  V30 4365 H 408.547 -1.20005 1.47305 0
M  V30 4366 H 406.697 -3.67263 1.2669 0
M  V30 4367 H 408.369 -2.74605 3.70661 0
M  V30 4368 H 406.612 -2.52625 3.52652 0
M  V30 4369 H 407.283 -4.1566 3.63223 0
M  V30 4370 H 409.759 -3.77842 1.74283 0
M  V30 4371 H 408.635 -5.154 1.88823 0
M  V30 4372 H 408.896 -4.40949 0.318813 0
M  V30 4373 N 407.956 -0.998596 -1.21925 0
M  V30 4374 C 409.203 -0.677663 -1.90824 0
M  V30 4375 C 409.531 0.790905 -1.77693 0
M  V30 4376 O 408.786 1.58817 -1.14349 0
M  V30 4377 C 409.085 -1.03648 -3.42041 0
M  V30 4378 C 408.751 -2.49825 -3.75364 0
M  V30 4379 C 407.413 -2.8977 -3.8417 0
M  V30 4380 C 409.765 -3.44545 -3.91073 0
M  V30 4381 C 407.093 -4.23412 -4.06127 0
M  V30 4382 C 409.445 -4.77853 -4.14535 0
M  V30 4383 C 408.109 -5.17531 -4.21566 0
M  V30 4384 H 407.379 -0.247975 -0.698276 0
M  V30 4385 H 410.026 -1.25584 -1.44571 0
M  V30 4386 H 408.331 -0.376457 -3.89987 0
M  V30 4387 H 410.028 -0.766113 -3.93614 0
M  V30 4388 H 406.618 -2.17866 -3.69097 0
M  V30 4389 H 410.802 -3.14853 -3.83642 0
M  V30 4390 H 406.058 -4.53734 -4.09799 0
M  V30 4391 H 410.232 -5.51189 -4.25633 0
M  V30 4392 H 407.859 -6.21102 -4.38333 0
M  V30 4393 N 409.434 1.37368 -0.772513 0
M  V30 4394 C 410.683 1.98918 -0.333861 0
M  V30 4395 C 410.996 1.62017 1.09589 0
M  V30 4396 O 412.202 2.16676 1.63596 0
M  V30 4397 C 410.658 3.55735 -0.545971 0
M  V30 4398 C 410.266 4.01573 -1.98603 0
M  V30 4399 C 412.01 4.24156 -0.170979 0
M  V30 4400 C 409.917 5.51102 -2.1457 0
M  V30 4401 H 408.847 0.744214 -0.121085 0
M  V30 4402 H 411.498 1.56888 -0.95175 0
M  V30 4403 H 409.88 3.95748 0.141387 0
M  V30 4404 H 411.054 3.72803 -2.7084 0
M  V30 4405 H 409.369 3.45937 -2.31769 0
M  V30 4406 H 411.966 5.34024 -0.26878 0
M  V30 4407 H 412.309 4.06917 0.878855 0
M  V30 4408 H 412.842 3.89447 -0.810914 0
M  V30 4409 H 409.581 5.73268 -3.17875 0
M  V30 4410 H 409.101 5.81554 -1.46817 0
M  V30 4411 H 410.78 6.17083 -1.94468 0
M  V30 4412 N 410.912 0.523116 1.48665 0
M  V30 4413 C 412.159 -0.0134763 2.02496 0
M  V30 4414 C 412.487 -1.3493 1.40086 0
M  V30 4415 O 411.742 -1.88286 0.533567 0
M  V30 4416 C 412.041 -0.191671 3.56886 0
M  V30 4417 C 411.707 1.06893 4.38046 0
M  V30 4418 C 410.369 1.41443 4.59943 0
M  V30 4419 C 412.721 1.90584 4.85106 0
M  V30 4420 C 410.049 2.59594 5.26144 0
M  V30 4421 C 412.401 3.07907 5.52609 0
M  V30 4422 C 411.065 3.42811 5.72745 0
M  V30 4423 H 410.335 -0.00493133 0.740984 0
M  V30 4424 H 412.982 0.687751 1.78724 0
M  V30 4425 H 411.287 -0.97561 3.79459 0
M  V30 4426 H 412.984 -0.621659 3.96152 0
M  V30 4427 H 409.574 0.789848 4.21259 0
M  V30 4428 H 413.758 1.65203 4.67997 0
M  V30 4429 H 409.014 2.86847 5.39934 0
M  V30 4430 H 413.188 3.73066 5.88043 0
M  V30 4431 H 410.815 4.34462 6.23816 0
M  V30 4432 N 412.39 -1.55475 0.257931 0
M  V30 4433 C 413.338 -2.23244 -0.653076 0
M  V30 4434 C 414.332 -1.22366 -1.17144 0
M  V30 4435 O 415.538 -1.40347 -1.12706 0
M  V30 4436 H 411.913 -0.716247 -0.229117 0
M  V30 4437 H 413.884 -2.98343 -0.0584788 0
M  V30 4438 C 412.633 -2.95401 -1.83395 0
M  V30 4439 H 411.956 -3.72802 -1.44424 0
M  V30 4440 H 413.396 -3.46165 -2.44838 0
M  V30 4441 C 411.855 -1.99895 -2.71189 0
M  V30 4442 O 412.385 -1.53909 -3.71046 0
M  V30 4443 N 410.591 -1.6676 -2.3799 0
M  V30 4444 H 410.138 -2.04352 -1.56837 0
M  V30 4445 H 410.096 -1.03127 -2.97005 0
M  V30 4446 N 413.868 0.0150385 -1.57593 0
M  V30 4447 C 414.798 1.01047 -2.10503 0
M  V30 4448 C 415.779 1.36816 -1.01071 0
M  V30 4449 O 416.964 1.45455 -1.28672 0
M  V30 4450 C 414.094 2.30708 -2.59598 0
M  V30 4451 C 413.048 2.09142 -3.73421 0
M  V30 4452 C 412.374 3.44685 -4.08774 0
M  V30 4453 C 413.674 1.46619 -5.01298 0
M  V30 4454 H 415.368 0.569978 -2.93925 0
M  V30 4455 H 412.914 0.272724 -1.41394 0
M  V30 4456 H 414.867 3.00687 -2.95238 0
M  V30 4457 H 413.591 2.76843 -1.73279 0
M  V30 4458 H 412.25 1.41592 -3.38153 0
M  V30 4459 H 411.898 3.88495 -3.195 0
M  V30 4460 H 411.598 3.31077 -4.8545 0
M  V30 4461 H 413.122 4.16004 -4.4696 0
M  V30 4462 H 414.536 2.06535 -5.34805 0
M  V30 4463 H 412.933 1.43544 -5.82679 0
M  V30 4464 H 414.003 0.433611 -4.82957 0
M  V30 4465 N 415.346 1.54954 0.287554 0
M  V30 4466 C 416.293 1.86834 1.35505 0
M  V30 4467 C 417.263 0.718452 1.49758 0
M  V30 4468 O 418.448 0.968358 1.644 0
M  V30 4469 C 415.588 2.13303 2.71286 0
M  V30 4470 C 414.701 3.40883 2.65373 0
M  V30 4471 C 413.836 3.57125 3.93236 0
M  V30 4472 C 412.875 4.78449 3.81776 0
M  V30 4473 N 412.012 4.91426 5.01443 0
M  V30 4474 H 416.852 2.77889 1.07619 0
M  V30 4475 H 414.389 1.37593 0.520241 0
M  V30 4476 H 416.347 2.26646 3.50267 0
M  V30 4477 H 414.977 1.25499 2.97405 0
M  V30 4478 H 414.029 3.36088 1.78182 0
M  V30 4479 H 415.341 4.29993 2.52799 0
M  V30 4480 H 414.495 3.70207 4.80658 0
M  V30 4481 H 413.234 2.66173 4.0866 0
M  V30 4482 H 412.239 4.65386 2.92738 0
M  V30 4483 H 413.464 5.70822 3.67884 0
M  V30 4484 H 411.41 4.03401 5.17304 0
M  V30 4485 H 411.327 5.74559 4.91343 0
M  V30 4486 H 412.595 5.08879 5.90477 0
M  V30 4487 N 416.824 -0.551391 1.4764 0
M  V30 4488 C 417.754 -1.66757 1.63445 0
M  V30 4489 C 418.735 -1.63077 0.483742 0
M  V30 4490 O 419.92 -1.80607 0.71377 0
M  V30 4491 C 417.05 -3.05387 1.65396 0
M  V30 4492 C 416.004 -3.23918 2.79752 0
M  V30 4493 C 415.33 -4.63393 2.66779 0
M  V30 4494 C 416.63 -3.08735 4.21284 0
M  V30 4495 H 418.324 -1.53786 2.56886 0
M  V30 4496 H 415.87 -0.738415 1.23626 0
M  V30 4497 H 417.823 -3.83325 1.75043 0
M  V30 4498 H 416.547 -3.19332 0.685195 0
M  V30 4499 H 415.206 -2.48391 2.69625 0
M  V30 4500 H 414.854 -4.74144 1.67918 0
M  V30 4501 H 414.554 -4.7674 3.43501 0
M  V30 4502 H 416.078 -5.43458 2.78364 0
M  V30 4503 H 417.492 -3.76484 4.32357 0
M  V30 4504 H 415.889 -3.33588 4.98838 0
M  V30 4505 H 416.959 -2.0541 4.39243 0
M  V30 4506 N 418.302 -1.35869 -0.798587 0
M  V30 4507 C 419.713 -1.26498 -1.37314 0
M  V30 4508 C 420.064 0.0991899 -1.95949 0
M  V30 4509 O 419.189 1.0004 -1.91888 0
M  V30 4510 C 419.784 -2.29054 -2.49639 0
M  V30 4511 C 418.343 -2.234 -3.02935 0
M  V30 4512 C 417.49 -2.14329 -1.75949 0
M  V30 4513 H 420.441 -1.46881 -0.600971 0
M  V30 4514 H 420.462 -1.92166 -3.28409 0
M  V30 4515 H 419.974 -3.2833 -2.06933 0
M  V30 4516 H 418.075 -1.27562 -3.50084 0
M  V30 4517 H 418.188 -3.15703 -3.60372 0
M  V30 4518 H 416.552 -1.60435 -1.9782 0
M  V30 4519 H 417.335 -3.15477 -1.35384 0
M  V30 4520 N 419.78 1.02168 -1.19998 0
M  V30 4521 C 421.057 1.72816 -0.916191 0
M  V30 4522 C 421.437 2.03081 0.576325 0
M  V30 4523 O 420.785 1.69122 1.53656 0
M  V30 4524 C 420.995 2.9997 -1.78378 0
M  V30 4525 C 422.343 3.73336 -2.02251 0
M  V30 4526 O 423.367 3.09914 -1.75589 0
M  V30 4527 O 422.226 4.87371 -2.47249 0
M  V30 4528 H 419.32 0.752924 -0.342103 0
M  V30 4529 H 421.866 1.08062 -1.30846 0
M  V30 4530 H 420.638 2.73888 -2.79466 0
M  V30 4531 H 420.261 3.72464 -1.39126 0
M  V30 4532 N 421.258 1.00505 1.21394 0
M  V30 4533 C 422.498 0.696149 1.9218 0
M  V30 4534 C 422.862 -0.759099 1.76357 0
M  V30 4535 O 424.063 -1.17998 2.41516 0
M  V30 4536 C 422.334 1.10571 3.39866 0
M  V30 4537 S 423.893 0.91702 4.29111 0
M  V30 4538 H 420.711 0.254147 0.664026 0
M  V30 4539 H 423.313 1.28988 1.46909 0
M  V30 4540 H 422.017 2.16096 3.489 0
M  V30 4541 H 421.548 0.504268 3.90155 0
M  V30 4542 H 423.563 -0.185855 4.95852 0
M  V30 4543 N 422.737 -1.36956 0.779787 0
M  V30 4544 C 424.148 -1.82094 0.412156 0
M  V30 4545 C 424.499 -1.64926 -1.06273 0
M  V30 4546 O 423.624 -1.16483 -1.82375 0
M  V30 4547 C 424.219 -3.3059 0.741319 0
M  V30 4548 C 422.778 -3.73974 0.426641 0
M  V30 4549 C 421.925 -2.59368 0.980987 0
M  V30 4550 H 424.876 -1.25314 0.973758 0
M  V30 4551 H 424.897 -3.80489 0.028887 0
M  V30 4552 H 424.409 -3.43054 1.81482 0
M  V30 4553 H 422.51 -3.67076 -0.639215 0
M  V30 4554 H 422.623 -4.69778 0.940515 0
M  V30 4555 H 420.987 -2.51463 0.404757 0
M  V30 4556 H 421.77 -2.74621 2.06005 0
M  V30 4557 N 424.215 -0.530993 -1.48385 0
M  V30 4558 C 425.44 0.000729535 -2.074 0
M  V30 4559 C 425.865 1.27298 -1.3848 0
M  V30 4560 O 425.223 1.75599 -0.451081 0
M  V30 4561 C 425.271 0.206697 -3.60007 0
M  V30 4562 O 424.375 1.27514 -3.92191 0
M  V30 4563 H 423.716 -0.039583 -0.662819 0
M  V30 4564 H 426.246 -0.739194 -1.9078 0
M  V30 4565 H 426.256 0.42904 -4.05738 0
M  V30 4566 H 424.931 -0.722675 -4.09573 0
M  V30 4567 H 423.508 1.03537 -3.58238 0
M  V30 4568 N 425.693 1.55336 -0.266172 0
M  V30 4569 C 426.921 2.03801 0.356756 0
M  V30 4570 C 427.336 1.14485 1.50129 0
M  V30 4571 O 426.693 0.163121 1.8177 0
M  V30 4572 C 426.744 3.51455 0.846281 0
M  V30 4573 O 426.465 4.37371 -0.252663 0
M  V30 4574 C 427.966 4.15767 1.53794 0
M  V30 4575 H 425.186 0.665906 0.0825218 0
M  V30 4576 H 427.73 2.00636 -0.39566 0
M  V30 4577 H 425.885 3.55092 1.54881 0
M  V30 4578 H 426.299 5.24358 0.122173 0
M  V30 4579 H 427.773 5.20714 1.83198 0
M  V30 4580 H 428.25 3.63404 2.46646 0
M  V30 4581 H 428.856 4.16107 0.879488 0
M  V30 4582 N 427.171 -0.0066808 1.57599 0
M  V30 4583 C 428.104 -1.03397 2.03431 0
M  V30 4584 C 429.082 -1.33872 0.922877 0
M  V30 4585 O 430.266 -1.4615 1.19048 0
M  V30 4586 C 427.393 -2.36325 2.42628 0
M  V30 4587 C 426.439 -2.21557 3.64438 0
M  V30 4588 S 427.272 -1.54789 5.12641 0
M  V30 4589 C 428.428 -2.8916 5.55101 0
M  V30 4590 H 428.661 -0.643687 2.90248 0
M  V30 4591 H 426.194 -0.217349 1.52863 0
M  V30 4592 H 428.152 -3.12759 2.65879 0
M  V30 4593 H 426.813 -2.72495 1.56222 0
M  V30 4594 H 426.006 -3.1974 3.89592 0
M  V30 4595 H 425.608 -1.53267 3.41153 0
M  V30 4596 H 427.9 -3.8547 5.57153 0
M  V30 4597 H 428.843 -2.68713 6.55133 0
M  V30 4598 H 429.251 -2.92762 4.82649 0
M  V30 4599 N 428.649 -1.55105 -0.279332 0
M  V30 4600 C 429.596 -1.8755 -1.34513 0
M  V30 4601 C 430.566 -0.726384 -1.49375 0
M  V30 4602 O 431.751 -0.977063 -1.63884 0
M  V30 4603 C 428.891 -2.14738 -2.70151 0
M  V30 4604 C 428.004 -3.42285 -2.63562 0
M  V30 4605 C 427.139 -3.59206 -3.91337 0
M  V30 4606 C 426.178 -4.80467 -3.79233 0
M  V30 4607 N 425.315 -4.94079 -4.98829 0
M  V30 4608 H 430.155 -2.78456 -1.06143 0
M  V30 4609 H 427.692 -1.37867 -0.512936 0
M  V30 4610 H 429.65 -2.28501 -3.49061 0
M  V30 4611 H 428.28 -1.27075 -2.96735 0
M  V30 4612 H 427.332 -3.37029 -1.76397 0
M  V30 4613 H 428.644 -4.31328 -2.50515 0
M  V30 4614 H 427.798 -3.72751 -4.78687 0
M  V30 4615 H 426.537 -2.68337 -4.07243 0
M  V30 4616 H 425.542 -4.66932 -2.90266 0
M  V30 4617 H 426.767 -5.72765 -3.64852 0
M  V30 4618 H 424.713 -4.06139 -5.15158 0
M  V30 4619 H 424.63 -5.77156 -4.8829 0
M  V30 4620 H 425.898 -5.12003 -5.8777 0
M  V30 4621 N 430.127 0.543554 -1.4793 0
M  V30 4622 C 431.075 1.67039 -1.61866 0
M  V30 4623 C 432.069 1.62294 -0.48549 0
M  V30 4624 O 433.275 1.67315 -0.66376 0
M  V30 4625 H 429.65 0.552954 -0.509652 0
M  V30 4626 H 431.621 1.52426 -2.56533 0
M  V30 4627 C 430.37 3.05357 -1.6629 0
M  V30 4628 H 429.693 3.09696 -2.5284 0
M  V30 4629 H 431.133 3.83855 -1.80088 0
M  V30 4630 C 429.592 3.34531 -0.398861 0
M  V30 4631 O 430.122 3.98649 0.494162 0
M  V30 4632 N 428.328 2.89299 -0.2747 0
M  V30 4633 H 427.875 2.37298 -1.00236 0
M  V30 4634 H 427.833 3.09188 0.570075 0
M  V30 4635 N 431.605 1.3629 0.791371 0
M  V30 4636 C 433.016 1.27225 1.36641 0
M  V30 4637 C 433.367 -0.0887968 1.95999 0
M  V30 4638 O 432.492 -0.990207 1.92416 0
M  V30 4639 C 433.087 2.30375 2.48421 0
M  V30 4640 C 431.646 2.25004 3.01746 0
M  V30 4641 C 430.793 2.15259 1.7481 0
M  V30 4642 H 433.744 1.47198 0.593173 0
M  V30 4643 H 433.765 1.93905 3.27385 0
M  V30 4644 H 433.277 3.29422 2.05189 0
M  V30 4645 H 431.378 1.29417 3.49403 0
M  V30 4646 H 431.491 3.1761 3.58693 0
M  V30 4647 H 429.855 1.61482 1.96966 0
M  V30 4648 H 430.638 3.16191 1.33709 0
M  V30 4649 N 433.083 -1.0153 1.20538 0
M  V30 4650 C 434.046 -2.0826 0.957098 0
M  V30 4651 C 435.046 -1.60657 -0.0678655 0
M  V30 4652 O 436.236 -1.73385 0.168332 0
M  V30 4653 C 433.368 -3.38033 0.441188 0
M  V30 4654 H 434.561 -2.31719 1.90384 0
M  V30 4655 H 432.114 -1.1835 1.02093 0
M  V30 4656 H 432.849 -3.20249 -0.510961 0
M  V30 4657 H 432.634 -3.73911 1.18038 0
M  V30 4658 H 434.124 -4.16613 0.287009 0
M  V30 4659 N 434.561 -1.01147 -1.20859 0
M  V30 4660 C 435.786 -0.716698 -1.94623 0
M  V30 4661 C 436.211 0.715415 -1.73964 0
M  V30 4662 O 435.569 1.49157 -1.03062 0
M  V30 4663 C 435.617 -1.0513 -3.44935 0
M  V30 4664 O 434.721 -0.160131 -4.12089 0
M  V30 4665 H 434.062 -0.266404 -0.608214 0
M  V30 4666 H 436.592 -1.35346 -1.53436 0
M  V30 4667 H 436.602 -1.00086 -3.95533 0
M  V30 4668 H 435.277 -2.09475 -3.59295 0
M  V30 4669 H 433.854 -0.267657 -3.71938 0
M  V30 4670 N 436.039 1.36541 -0.78704 0
M  V30 4671 C 436.969 2.32659 -0.197992 0
M  V30 4672 C 437.95 1.56533 0.665697 0
M  V30 4673 O 439.135 1.84698 0.60001 0
M  V30 4674 C 436.265 3.40778 0.669901 0
M  V30 4675 C 435.219 4.27897 -0.0937039 0
M  V30 4676 C 434.545 5.27163 0.894629 0
M  V30 4677 C 435.845 5.06334 -1.28154 0
M  V30 4678 H 437.539 2.82171 -1.00099 0
M  V30 4679 H 435.085 1.35665 -0.482793 0
M  V30 4680 H 437.038 4.07008 1.09191 0
M  V30 4681 H 435.762 2.89827 1.50558 0
M  V30 4682 H 434.421 3.6322 -0.49666 0
M  V30 4683 H 434.069 4.72486 1.72527 0
M  V30 4684 H 433.769 5.86317 0.388149 0
M  V30 4685 H 435.293 5.96266 1.31525 0
M  V30 4686 H 436.707 5.65617 -0.93541 0
M  V30 4687 H 435.104 5.74888 -1.72115 0
M  V30 4688 H 436.174 4.38114 -2.07807 0
M  V30 4689 N 437.518 0.538854 1.48102 0
M  V30 4690 C 438.448 -0.207654 2.32575 0
M  V30 4691 C 439.429 -0.926559 1.4265 0
M  V30 4692 O 440.614 -0.91061 1.71527 0
M  V30 4693 C 437.744 -1.24957 3.24042 0
M  V30 4694 C 436.698 -0.648263 4.23062 0
M  V30 4695 C 436.024 -1.79348 5.03725 0
M  V30 4696 C 437.324 0.385897 5.20872 0
M  V30 4697 H 439.018 0.497534 2.95237 0
M  V30 4698 H 436.564 0.240715 1.41974 0
M  V30 4699 H 438.517 -1.77983 3.81969 0
M  V30 4700 H 437.241 -1.98446 2.59397 0
M  V30 4701 H 435.9 -0.139452 3.66335 0
M  V30 4702 H 435.548 -2.51696 4.35498 0
M  V30 4703 H 435.248 -1.39702 5.70751 0
M  V30 4704 H 436.772 -2.32735 5.64506 0
M  V30 4705 H 438.186 -0.057607 5.73271 0
M  V30 4706 H 436.583 0.700227 5.96001 0
M  V30 4707 H 437.653 1.28848 4.67468 0
M  V30 4708 N 438.996 -1.55193 0.274407 0
M  V30 4709 C 440.243 -1.99581 -0.342579 0
M  V30 4710 C 440.571 -1.1628 -1.55914 0
M  V30 4711 O 439.826 -0.22029 -1.94456 0
M  V30 4712 C 440.125 -3.49019 -0.769458 0
M  V30 4713 C 439.791 -4.49598 0.342389 0
M  V30 4714 C 438.453 -4.76821 0.647686 0
M  V30 4715 C 440.805 -5.0964 1.09163 0
M  V30 4716 C 438.133 -5.61354 1.70581 0
M  V30 4717 C 440.485 -5.95323 2.13948 0
M  V30 4718 C 439.149 -6.20867 2.45113 0
M  V30 4719 H 438.419 -0.730319 -0.125358 0
M  V30 4720 H 441.066 -1.87529 0.387971 0
M  V30 4721 H 439.371 -3.58544 -1.57967 0
M  V30 4722 H 441.068 -3.8077 -1.25757 0
M  V30 4723 H 437.658 -4.28496 0.094318 0
M  V30 4724 H 441.842 -4.88632 0.869024 0
M  V30 4725 H 437.098 -5.79392 1.9523 0
M  V30 4726 H 441.272 -6.40881 2.72478 0
M  V30 4727 H 438.899 -6.86162 3.27239 0
M  V30 4728 N 440.474 -0.00167713 -1.576 0
M  V30 4729 C 441.699 0.69739 -1.95323 0
M  V30 4730 C 442.124 1.6642 -0.876706 0
M  V30 4731 O 441.482 1.80548 0.165007 0
M  V30 4732 C 441.53 1.40403 -3.32144 0
M  V30 4733 O 440.634 2.5185 -3.26566 0
M  V30 4734 H 439.975 0.185373 -0.637599 0
M  V30 4735 H 442.505 -0.0553665 -2.04525 0
M  V30 4736 H 442.515 1.76707 -3.67748 0
M  V30 4737 H 441.19 0.695167 -4.10049 0
M  V30 4738 H 439.767 2.17861 -3.0264 0
M  V30 4739 N 441.952 1.55251 0.271103 0
M  V30 4740 C 442.882 1.9127 1.33933 0
M  V30 4741 C 443.863 0.77478 1.5143 0
M  V30 4742 O 445.048 1.03307 1.64442 0
M  V30 4743 C 442.178 2.18627 2.69851 0
M  V30 4744 C 441.132 3.34442 2.67081 0
M  V30 4745 C 440.458 3.47284 4.06569 0
M  V30 4746 C 441.758 4.70784 2.26185 0
M  V30 4747 H 443.452 2.80744 1.04035 0
M  V30 4748 H 440.998 1.35077 0.499017 0
M  V30 4749 H 442.951 2.42413 3.44694 0
M  V30 4750 H 441.675 1.25955 3.01335 0
M  V30 4751 H 440.334 3.10627 1.94695 0
M  V30 4752 H 439.982 2.52074 4.35279 0
M  V30 4753 H 439.682 4.25152 4.0561 0
M  V30 4754 H 441.206 3.73363 4.83148 0
M  V30 4755 H 442.62 4.94102 2.90751 0
M  V30 4756 H 441.017 5.51582 2.36384 0
M  V30 4757 H 442.087 4.69478 1.21319 0
M  V30 4758 N 443.43 -0.535701 1.48216 0
M  V30 4759 C 444.677 -1.29183 1.55942 0
M  V30 4760 C 445.005 -1.93125 0.230857 0
M  V30 4761 O 444.26 -1.79556 -0.778331 0
M  V30 4762 C 444.559 -2.4068 2.64212 0
M  V30 4763 C 444.225 -1.94428 4.06827 0
M  V30 4764 C 442.887 -1.81532 4.45645 0
M  V30 4765 C 445.239 -1.59405 4.96225 0
M  V30 4766 C 442.567 -1.31939 5.71672 0
M  V30 4767 C 444.919 -1.11276 6.22736 0
M  V30 4768 C 443.583 -0.969924 6.60416 0
M  V30 4769 H 442.853 -0.472715 0.570632 0
M  V30 4770 H 445.5 -0.598437 1.81909 0
M  V30 4771 H 443.805 -3.15666 2.32083 0
M  V30 4772 H 445.502 -2.98822 2.67407 0
M  V30 4773 H 442.092 -2.05415 3.76168 0
M  V30 4774 H 446.276 -1.68231 4.66917 0
M  V30 4775 H 441.532 -1.19562 5.99596 0
M  V30 4776 H 445.706 -0.832453 6.91407 0
M  V30 4777 H 443.333 -0.583436 7.57958 0
M  V30 4778 N 444.908 -1.36708 -0.784132 0
M  V30 4779 C 445.818 -1.3363 -1.92822 0
M  V30 4780 C 446.834 -0.237686 -1.72369 0
M  V30 4781 O 448.01 -0.470962 -1.95816 0
M  V30 4782 C 445.075 -1.13011 -3.27764 0
M  V30 4783 C 444.136 -2.32397 -3.60957 0
M  V30 4784 C 443.369 -2.12752 -4.89461 0
M  V30 4785 O 443.592 -1.10541 -5.59586 0
M  V30 4786 O 442.526 -3.00653 -5.21432 0
M  V30 4787 H 446.352 -2.29964 -1.98369 0
M  V30 4788 H 443.937 -1.1731 -0.925136 0
M  V30 4789 H 445.819 -1.03451 -4.08504 0
M  V30 4790 H 444.494 -0.19743 -3.23097 0
M  V30 4791 H 443.401 -2.47527 -2.80502 0
M  V30 4792 H 444.734 -3.2419 -3.70354 0
M  V30 4793 N 446.386 1.0089 -1.21074 0
M  V30 4794 C 447.349 2.0775 -0.968129 0
M  V30 4795 C 448.349 1.6069 0.0593445 0
M  V30 4796 O 449.539 1.73293 -0.177525 0
M  V30 4797 C 446.671 3.37794 -0.459108 0
M  V30 4798 H 447.864 2.30707 -1.9161 0
M  V30 4799 H 445.417 1.17807 -1.02719 0
M  V30 4800 H 446.152 3.20516 0.49397 0
M  V30 4801 H 445.937 3.7328 -1.20019 0
M  V30 4802 H 447.427 4.16454 -0.309099 0
M  V30 4803 N 447.864 1.01787 1.20321 0
M  V30 4804 C 449.113 0.703249 1.89043 0
M  V30 4805 C 449.426 -0.770445 1.79787 0
M  V30 4806 O 450.632 -1.19767 2.43656 0
M  V30 4807 C 449.088 1.20749 3.3904 0
M  V30 4808 C 448.696 2.70817 3.56878 0
M  V30 4809 C 450.44 0.968352 4.13308 0
M  V30 4810 C 448.347 3.14716 5.00708 0
M  V30 4811 H 447.277 0.259354 0.707991 0
M  V30 4812 H 449.928 1.23072 1.36108 0
M  V30 4813 H 448.31 0.607989 3.91305 0
M  V30 4814 H 449.484 3.36327 3.14993 0
M  V30 4815 H 447.799 2.92888 2.95983 0
M  V30 4816 H 450.396 1.27173 5.19356 0
M  V30 4817 H 450.739 -0.095149 4.16191 0
M  V30 4818 H 451.272 1.53129 3.67146 0
M  V30 4819 H 448.011 4.20347 5.02979 0
M  V30 4820 H 447.531 2.53927 5.43398 0
M  V30 4821 H 449.21 3.07426 5.69296 0
M  V30 4822 N 449.342 -1.36122 0.79427 0
M  V30 4823 C 450.29 -2.31871 0.184023 0
M  V30 4824 C 451.284 -1.56041 -0.659365 0
M  V30 4825 O 452.49 -1.71266 -0.553906 0
M  V30 4826 H 448.865 -0.750896 0.0407373 0
M  V30 4827 H 450.836 -2.80898 1.00693 0
M  V30 4828 C 449.585 -3.41324 -0.662813 0
M  V30 4829 H 448.908 -3.99793 -0.0231944 0
M  V30 4830 H 450.348 -4.10629 -1.05639 0
M  V30 4831 C 448.807 -2.83308 -1.82313 0
M  V30 4832 O 449.337 -2.75863 -2.91997 0
M  V30 4833 N 447.543 -2.40529 -1.63077 0
M  V30 4834 H 447.09 -2.46785 -0.738591 0
M  V30 4835 H 447.048 -2.02059 -2.40872 0
M  V30 4836 N 450.82 -0.546701 -1.47814 0
M  V30 4837 C 451.767 0.206854 -2.29871 0
M  V30 4838 C 452.737 0.918235 -1.38411 0
M  V30 4839 O 453.922 0.915991 -1.67375 0
M  V30 4840 C 451.062 1.23746 -3.22151 0
M  V30 4841 C 450.175 0.533216 -4.28697 0
M  V30 4842 C 449.31 1.5482 -5.08138 0
M  V30 4843 C 448.349 0.828347 -6.06469 0
M  V30 4844 N 447.486 1.78966 -6.78908 0
M  V30 4845 H 452.326 -0.499037 -2.93792 0
M  V30 4846 H 449.863 -0.25793 -1.44821 0
M  V30 4847 H 451.821 1.84746 -3.74065 0
M  V30 4848 H 450.451 1.91151 -2.60117 0
M  V30 4849 H 449.503 -0.191089 -3.7992 0
M  V30 4850 H 450.815 -0.0311987 -4.9879 0
M  V30 4851 H 449.969 2.23202 -5.6415 0
M  V30 4852 H 448.708 2.14652 -4.37922 0
M  V30 4853 H 447.713 0.130539 -5.49645 0
M  V30 4854 H 448.938 0.235907 -6.7869 0
M  V30 4855 H 446.884 2.37675 -6.1143 0
M  V30 4856 H 446.801 1.27712 -7.45135 0
M  V30 4857 H 448.069 2.46496 -7.395 0
M  V30 4858 N 452.299 1.55045 -0.282633 0
M  V30 4859 C 453.576 1.9179 0.384166 0
M  V30 4860 C 453.956 1.20778 1.73136 0
M  V30 4861 O 453.304 0.33719 2.25998 0
M  V30 4862 C 453.514 3.45149 0.517014 0
M  V30 4863 C 454.862 4.17064 0.796427 0
M  V30 4864 O 455.886 3.51084 0.601535 0
M  V30 4865 O 454.745 5.33837 1.16962 0
M  V30 4866 H 451.839 0.799483 0.211558 0
M  V30 4867 H 454.385 1.66474 -0.32934 0
M  V30 4868 H 453.157 3.88922 -0.430772 0
M  V30 4869 H 452.78 3.76443 1.2797 0
M  V30 4870 N 453.777 0.010035 1.57597 0
M  V30 4871 C 454.709 -1.00649 2.05918 0
M  V30 4872 C 455.722 -1.30077 0.978964 0
M  V30 4873 O 456.911 -1.26878 1.25556 0
M  V30 4874 C 454.011 -2.33876 2.45265 0
M  V30 4875 C 453.184 -2.23242 3.7614 0
M  V30 4876 C 452.243 -3.39242 4.02245 0
M  V30 4877 O 451.269 -3.1698 4.72771 0
M  V30 4878 N 452.471 -4.6242 3.50924 0
M  V30 4879 H 455.236 -0.594333 2.93748 0
M  V30 4880 H 452.797 -0.17714 1.60928 0
M  V30 4881 H 454.789 -3.1027 2.59836 0
M  V30 4882 H 453.359 -2.66799 1.62902 0
M  V30 4883 H 452.579 -1.31696 3.71551 0
M  V30 4884 H 453.867 -2.13321 4.61922 0
M  V30 4885 H 453.265 -4.83404 2.93832 0
M  V30 4886 H 451.822 -5.36046 3.70807 0
M  V30 4887 N 455.255 -1.55392 -0.262866 0
M  V30 4888 C 456.501 -1.76737 -0.99458 0
M  V30 4889 C 456.834 -0.572453 -1.85571 0
M  V30 4890 O 456.109 0.429732 -1.89693 0
M  V30 4891 C 456.392 -3.07824 -1.8686 0
M  V30 4892 C 456.245 -4.3769 -1.03672 0
M  V30 4893 C 457.564 -3.35021 -2.85393 0
M  V30 4894 H 454.683 -0.643005 -0.360157 0
M  V30 4895 H 457.325 -1.88126 -0.266216 0
M  V30 4896 H 455.475 -2.98245 -2.48962 0
M  V30 4897 H 457.147 -4.59238 -0.43563 0
M  V30 4898 H 455.39 -4.32461 -0.340513 0
M  V30 4899 H 456.061 -5.25759 -1.6817 0
M  V30 4900 H 458.537 -3.44458 -2.33426 0
M  V30 4901 H 457.413 -4.27989 -3.43681 0
M  V30 4902 H 457.674 -2.55153 -3.61039 0
M  V30 4903 N 456.733 0.527833 -1.48498 0
M  V30 4904 C 457.663 1.64136 -1.66077 0
M  V30 4905 C 458.644 1.62286 -0.509625 0
M  V30 4906 O 459.829 1.79449 -0.742413 0
M  V30 4907 C 456.959 3.02717 -1.70234 0
M  V30 4908 C 455.913 3.19426 -2.8487 0
M  V30 4909 C 455.239 4.5909 -2.74118 0
M  V30 4910 C 456.539 3.01993 -4.26142 0
M  V30 4911 H 458.233 1.4968 -2.593 0
M  V30 4912 H 455.779 0.718654 -1.24785 0
M  V30 4913 H 457.732 3.80491 -1.8112 0
M  V30 4914 H 456.456 3.18201 -0.735911 0
M  V30 4915 H 455.115 2.4407 -2.73542 0
M  V30 4916 H 454.763 4.71413 -1.7544 0
M  V30 4917 H 454.463 4.71214 -3.51042 0
M  V30 4918 H 455.987 5.3896 -2.86974 0
M  V30 4919 H 457.401 3.69558 -4.38292 0
M  V30 4920 H 455.798 3.2561 -5.04082 0
M  V30 4921 H 456.868 1.98396 -4.42456 0
M  V30 4922 N 458.211 1.37122 0.776871 0
M  V30 4923 C 459.439 1.3523 1.5659 0
M  V30 4924 C 459.854 -0.0635518 1.88693 0
M  V30 4925 O 459.211 -1.02394 1.51069 0
M  V30 4926 C 459.262 2.18583 2.8793 0
M  V30 4927 O 458.983 3.5465 2.57206 0
M  V30 4928 C 460.484 2.24612 3.82183 0
M  V30 4929 H 457.704 0.4634 0.485285 0
M  V30 4930 H 460.248 1.80392 0.963266 0
M  V30 4931 H 458.403 1.76943 3.4463 0
M  V30 4932 H 458.817 3.98286 3.41275 0
M  V30 4933 H 460.291 2.87267 4.71361 0
M  V30 4934 H 460.768 1.25309 4.20944 0
M  V30 4935 H 461.374 2.66543 3.31414 0
M  V30 4936 N 459.689 -1.00246 1.21608 0
M  V30 4937 C 460.938 -1.73476 1.02902 0
M  V30 4938 C 461.251 -1.90643 -0.437561 0
M  V30 4939 O 462.457 -2.61105 -0.74407 0
M  V30 4940 C 460.913 -3.12079 1.79261 0
M  V30 4941 C 460.521 -3.02877 3.30106 0
M  V30 4942 C 462.265 -3.89421 1.68972 0
M  V30 4943 C 460.172 -4.36575 3.98944 0
M  V30 4944 H 459.102 -0.650408 0.381425 0
M  V30 4945 H 461.753 -1.11985 1.45367 0
M  V30 4946 H 460.135 -3.74196 1.2959 0
M  V30 4947 H 461.309 -2.49983 3.87098 0
M  V30 4948 H 459.624 -2.39022 3.40965 0
M  V30 4949 H 462.221 -4.88362 2.17731 0
M  V30 4950 H 462.564 -4.1122 0.648397 0
M  V30 4951 H 463.097 -3.33963 2.16133 0
M  V30 4952 H 459.836 -4.19978 5.03288 0
M  V30 4953 H 459.356 -4.8942 3.4674 0
M  V30 4954 H 461.035 -5.05364 4.04 0
M  V30 4955 N 461.167 -1.02423 -1.1978 0
M  V30 4956 C 462.415 -0.716569 -1.8897 0
M  V30 4957 C 462.736 0.756769 -1.79716 0
M  V30 4958 O 462.006 1.5449 -1.20456 0
M  V30 4959 H 460.586 -0.262062 -0.699523 0
M  V30 4960 H 463.248 -1.29747 -1.45436 0
M  V30 4961 H 462.344 -1.00675 -2.95417 0
M  V30 4962 N 462.645 1.35699 -0.801477 0
M  V30 4963 C 463.892 1.98913 -0.379459 0
M  V30 4964 C 464.22 1.63592 1.05204 0
M  V30 4965 O 463.475 0.888563 1.74365 0
M  V30 4966 C 463.774 3.53828 -0.504041 0
M  V30 4967 C 463.44 4.09002 -1.8981 0
M  V30 4968 C 462.102 4.23783 -2.27951 0
M  V30 4969 C 464.454 4.38939 -2.81038 0
M  V30 4970 C 461.782 4.65816 -3.56696 0
M  V30 4971 C 464.134 4.82409 -4.09224 0
M  V30 4972 C 462.798 4.95395 -4.4737 0
M  V30 4973 H 462.068 0.727874 -0.138854 0
M  V30 4974 H 464.715 1.61994 -1.02128 0
M  V30 4975 H 463.02 3.91175 0.221242 0
M  V30 4976 H 464.717 4.00687 -0.158361 0
M  V30 4977 H 461.307 3.97946 -1.59176 0
M  V30 4978 H 465.491 4.27077 -2.52821 0
M  V30 4979 H 460.747 4.74059 -3.86106 0
M  V30 4980 H 464.921 5.04535 -4.80018 0
M  V30 4981 H 462.548 5.27724 -5.47185 0
M  V30 4982 N 464.123 0.554532 1.47522 0
M  V30 4983 C 465.4 -0.0360704 1.95567 0
M  V30 4984 C 465.78 -1.48828 1.49711 0
M  V30 4985 O 465.128 -2.16366 0.734717 0
M  V30 4986 C 465.338 0.106631 3.48837 0
M  V30 4987 C 466.686 -0.0400899 4.24581 0
M  V30 4988 O 467.71 0.0340453 3.56184 0
M  V30 4989 O 466.569 -0.199111 5.46137 0
M  V30 4990 H 463.663 -0.0656294 0.824392 0
M  V30 4991 H 466.209 0.620867 1.57935 0
M  V30 4992 H 464.981 1.11727 3.7501 0
M  V30 4993 H 464.604 -0.58804 3.93227 0
M  V30 4994 N 465.601 -1.54893 0.290851 0
M  V30 4995 C 466.85 -1.99111 -0.322113 0
M  V30 4996 C 467.163 -1.18283 -1.55784 0
M  V30 4997 O 468.369 -1.5272 -2.24475 0
M  V30 4998 C 466.825 -3.54442 -0.624438 0
M  V30 4999 C 466.433 -4.44066 0.592373 0
M  V30 5000 C 468.177 -4.07211 -1.19916 0
M  V30 5001 C 466.084 -5.90812 0.263762 0
M  V30 5002 H 465.014 -0.743712 -0.124133 0
M  V30 5003 H 467.665 -1.79132 0.39797 0
M  V30 5004 H 466.047 -3.70281 -1.40384 0
M  V30 5005 H 467.221 -4.39999 1.36886 0
M  V30 5006 H 465.536 -4.02015 1.08502 0
M  V30 5007 H 468.133 -5.14407 -1.45909 0
M  V30 5008 H 468.476 -3.57196 -2.13815 0
M  V30 5009 H 469.009 -3.94873 -0.481687 0
M  V30 5010 H 465.748 -6.44955 1.17105 0
M  V30 5011 H 465.268 -5.97911 -0.475655 0
M  V30 5012 H 466.947 -6.46852 -0.138354 0
M  V30 5013 N 467.08 -0.0183926 -1.57589 0
M  V30 5014 C 468.028 0.985111 -2.10709 0
M  V30 5015 C 469.022 1.34397 -1.0312 0
M  V30 5016 O 470.228 1.32746 -1.21567 0
M  V30 5017 H 466.603 0.335418 -0.673052 0
M  V30 5018 H 468.574 0.511689 -2.9398 0
M  V30 5019 C 467.323 2.26202 -2.64061 0
M  V30 5020 H 466.646 1.9946 -3.4649 0
M  V30 5021 H 468.086 2.94652 -3.04887 0
M  V30 5022 C 466.545 2.98444 -1.5631 0
M  V30 5023 O 467.075 3.90142 -0.956674 0
M  V30 5024 N 465.281 2.6059 -1.28612 0
M  V30 5025 H 464.828 1.86101 -1.78112 0
M  V30 5026 H 464.786 3.09238 -0.567406 0
M  V30 5027 N 468.558 1.5553 0.254621 0
M  V30 5028 C 469.468 1.92789 1.33677 0
M  V30 5029 C 470.484 0.827356 1.53071 0
M  V30 5030 O 471.66 1.12807 1.66843 0
M  V30 5031 C 468.725 2.20827 2.67275 0
M  V30 5032 C 467.786 3.4427 2.5647 0
M  V30 5033 C 467.019 3.70961 3.83697 0
M  V30 5034 O 467.242 2.99852 4.85227 0
M  V30 5035 O 466.176 4.64491 3.82794 0
M  V30 5036 H 470.002 2.84945 1.05071 0
M  V30 5037 H 467.587 1.42312 0.454723 0
M  V30 5038 H 469.469 2.40204 3.46237 0
M  V30 5039 H 468.144 1.31851 2.9563 0
M  V30 5040 H 467.051 3.30209 1.75821 0
M  V30 5041 H 468.384 4.33524 2.33062 0
M  V30 5042 N 470.036 -0.519951 1.48776 0
M  V30 5043 C 471.283 -1.27522 1.57303 0
M  V30 5044 C 471.611 -1.92869 0.251328 0
M  V30 5045 O 470.866 -1.80372 -0.759243 0
M  V30 5046 C 471.165 -2.37864 2.6675 0
M  V30 5047 C 470.831 -1.90103 4.08867 0
M  V30 5048 C 469.493 -1.76795 4.47546 0
M  V30 5049 C 471.845 -1.54133 4.97888 0
M  V30 5050 C 469.173 -1.25868 5.73039 0
M  V30 5051 C 471.525 -1.04665 6.23881 0
M  V30 5052 C 470.189 -0.899823 6.61407 0
M  V30 5053 H 469.459 -0.466636 0.575614 0
M  V30 5054 H 472.106 -0.579109 1.82534 0
M  V30 5055 H 470.411 -3.13186 2.35418 0
M  V30 5056 H 472.108 -2.95969 2.70561 0
M  V30 5057 H 468.698 -2.01414 3.78326 0
M  V30 5058 H 472.882 -1.6327 4.68675 0
M  V30 5059 H 468.138 -1.13196 6.0083 0
M  V30 5060 H 472.312 -0.759074 6.92251 0
M  V30 5061 H 469.939 -0.503011 7.58534 0
M  V30 5062 N 471.514 -1.37532 -0.769588 0
M  V30 5063 C 472.444 -1.36172 -1.89682 0
M  V30 5064 C 473.425 -0.23001 -1.68538 0
M  V30 5065 O 474.61 -0.43069 -1.89364 0
M  V30 5066 C 471.74 -1.1701 -3.26995 0
M  V30 5067 C 470.694 -2.27216 -3.62708 0
M  V30 5068 C 470.02 -1.93174 -4.98586 0
M  V30 5069 C 471.32 -3.6941 -3.69234 0
M  V30 5070 H 473.014 -2.30499 -1.91078 0
M  V30 5071 H 470.56 -1.10953 -0.917902 0
M  V30 5072 H 472.513 -1.14688 -4.05493 0
M  V30 5073 H 471.237 -0.191395 -3.26039 0
M  V30 5074 H 469.896 -2.28697 -2.86519 0
M  V30 5075 H 469.544 -0.938281 -4.94171 0
M  V30 5076 H 469.244 -2.66973 -5.23449 0
M  V30 5077 H 470.768 -1.92443 -5.79481 0
M  V30 5078 H 472.182 -3.70047 -4.37879 0
M  V30 5079 H 470.579 -4.4228 -4.05597 0
M  V30 5080 H 471.649 -4.0288 -2.69844 0
M  V30 5081 N 472.992 0.995999 -1.22138 0
M  V30 5082 C 474.217 1.77601 -1.0711 0
M  V30 5083 C 474.642 1.84339 0.374264 0
M  V30 5084 O 474 1.29359 1.27028 0
M  V30 5085 C 474.048 3.18897 -1.68336 0
M  V30 5086 O 473.152 4.01663 -0.934928 0
M  V30 5087 H 472.493 0.547011 -0.376397 0
M  V30 5088 H 475.023 1.25137 -1.6187 0
M  V30 5089 H 475.033 3.69539 -1.72931 0
M  V30 5090 H 473.708 3.13308 -2.73516 0
M  V30 5091 H 472.285 3.60204 -0.964751 0
M  V30 5092 N 474.47 1.03057 1.19235 0
M  V30 5093 C 475.71 0.736757 1.9066 0
M  V30 5094 C 476.074 -0.721521 1.77927 0
M  V30 5095 O 477.275 -1.12849 2.43964 0
M  V30 5096 C 475.546 1.17755 3.37444 0
M  V30 5097 S 477.105 1.00783 4.27069 0
M  V30 5098 H 473.923 0.268174 0.658486 0
M  V30 5099 H 476.525 1.32076 1.4414 0
M  V30 5100 H 475.229 2.23448 3.44237 0
M  V30 5101 H 474.76 0.586912 3.88997 0
M  V30 5102 H 476.775 -0.0806356 4.96134 0
M  V30 5103 N 475.948 -1.35272 0.808662 0
M  V30 5104 C 477.173 -2.03477 0.401475 0
M  V30 5105 C 477.598 -1.60537 -0.980279 0
M  V30 5106 O 476.956 -0.78304 -1.63518 0
M  V30 5107 C 477.004 -3.57181 0.495354 0
M  V30 5108 O 476.108 -4.09474 -0.490397 0
M  V30 5109 H 475.449 -0.642561 0.167366 0
M  V30 5110 H 477.979 -1.72824 1.09512 0
M  V30 5111 H 477.989 -4.06356 0.365912 0
M  V30 5112 H 476.664 -3.87784 1.5032 0
M  V30 5113 H 475.241 -3.71516 -0.321023 0
M  V30 5114 N 477.426 -0.562348 -1.47226 0
M  V30 5115 C 478.651 -0.0432632 -2.07355 0
M  V30 5116 C 479.076 1.24332 -1.41149 0
M  V30 5117 O 478.434 1.74603 -0.488226 0
M  V30 5118 C 478.482 0.130288 -3.60365 0
M  V30 5119 O 477.586 1.19166 -3.94808 0
M  V30 5120 H 476.927 -0.0536334 -0.66183 0
M  V30 5121 H 479.457 -0.779495 -1.89169 0
M  V30 5122 H 479.467 0.342881 -4.06557 0
M  V30 5123 H 478.142 -0.809389 -4.07948 0
M  V30 5124 H 476.719 0.959153 -3.60354 0
M  V30 5125 N 478.904 1.54736 -0.299062 0
M  V30 5126 C 480.129 2.04975 0.316254 0
M  V30 5127 C 480.554 1.17501 1.46885 0
M  V30 5128 O 479.912 0.178678 1.80417 0
M  V30 5129 C 479.96 3.52672 0.751997 0
M  V30 5130 O 479.064 3.68226 1.85697 0
M  V30 5131 H 478.405 0.661126 0.0617175 0
M  V30 5132 H 480.935 1.99805 -0.440341 0
M  V30 5133 H 480.945 3.94488 1.04133 0
M  V30 5134 H 479.62 4.158 -0.0911482 0
M  V30 5135 H 478.197 3.38316 1.56834 0
M  V30 5136 N 480.382 0.0267497 1.57577 0
M  V30 5137 C 481.607 -0.666227 1.96408 0
M  V30 5138 C 482.032 -1.65004 0.903071 0
M  V30 5139 O 481.39 -1.80787 -0.136263 0
M  V30 5140 C 481.438 -1.35101 3.34335 0
M  V30 5141 O 480.542 -2.46623 3.30531 0
M  V30 5142 H 479.883 -0.175206 0.640468 0
M  V30 5143 H 482.413 0.0878977 2.04411 0
M  V30 5144 H 482.423 -1.70834 3.70513 0
M  V30 5145 H 481.098 -0.629844 4.11103 0
M  V30 5146 H 479.675 -2.13019 3.06068 0
M  V30 5147 N 481.861 -1.55662 -0.24637 0
M  V30 5148 C 482.808 -1.90361 -1.30504 0
M  V30 5149 C 483.778 -0.757905 -1.47801 0
M  V30 5150 O 484.963 -1.01161 -1.61775 0
M  V30 5151 C 482.103 -2.2042 -2.65535 0
M  V30 5152 C 481.216 -3.47799 -2.56242 0
M  V30 5153 C 480.351 -3.67426 -3.8363 0
M  V30 5154 C 479.39 -4.88403 -3.68956 0
M  V30 5155 N 478.527 -5.04548 -4.88237 0
M  V30 5156 H 483.367 -2.80645 -1.00213 0
M  V30 5157 H 480.904 -1.38924 -0.483577 0
M  V30 5158 H 482.862 -2.35853 -3.44135 0
M  V30 5159 H 481.492 -1.3334 -2.93973 0
M  V30 5160 H 480.544 -3.40694 -1.69208 0
M  V30 5161 H 481.856 -4.36544 -2.4131 0
M  V30 5162 H 481.01 -3.82821 -4.70673 0
M  V30 5163 H 479.749 -2.76914 -4.01459 0
M  V30 5164 H 478.754 -4.72984 -2.80296 0
M  V30 5165 H 479.979 -5.80375 -3.52621 0
M  V30 5166 H 477.925 -4.16974 -5.06427 0
M  V30 5167 H 477.842 -5.87384 -4.75937 0
M  V30 5168 H 479.11 -5.24355 -5.76777 0
M  V30 5169 N 483.339 0.512053 -1.4905 0
M  V30 5170 C 484.286 1.6148 -1.64902 0
M  V30 5171 C 485.256 1.58687 -0.490673 0
M  V30 5172 O 486.441 1.76842 -0.71636 0
M  V30 5173 C 483.581 2.99676 -1.71139 0
M  V30 5174 C 482.694 3.12568 -2.98203 0
M  V30 5175 C 481.829 4.4143 -2.95487 0
M  V30 5176 C 480.868 4.47916 -4.17179 0
M  V30 5177 N 480.005 5.68191 -4.12437 0
M  V30 5178 H 484.845 1.47271 -2.59066 0
M  V30 5179 H 482.382 0.716713 -1.28459 0
M  V30 5180 H 484.34 3.79761 -1.72736 0
M  V30 5181 H 482.97 3.12614 -0.804508 0
M  V30 5182 H 482.022 2.25618 -3.06269 0
M  V30 5183 H 483.334 3.1322 -3.88194 0
M  V30 5184 H 482.488 5.29825 -2.95585 0
M  V30 5185 H 481.227 4.43326 -2.03256 0
M  V30 5186 H 480.232 3.57925 -4.17337 0
M  V30 5187 H 481.457 4.47744 -5.1059 0
M  V30 5188 H 479.403 5.7095 -3.23036 0
M  V30 5189 H 479.32 5.70413 -4.96151 0
M  V30 5190 H 480.588 6.58823 -4.16621 0
M  V30 5191 N 484.817 1.37938 0.762283 0
M  V30 5192 C 486.042 1.37059 1.55659 0
M  V30 5193 C 486.467 -0.0396123 1.88058 0
M  V30 5194 O 485.825 -1.01929 1.49934 0
M  V30 5195 C 485.873 2.22494 2.83776 0
M  V30 5196 O 484.977 1.63607 3.78559 0
M  V30 5197 H 484.318 0.467892 0.47114 0
M  V30 5198 H 486.848 1.81587 0.942725 0
M  V30 5199 H 486.858 2.36045 3.32786 0
M  V30 5200 H 485.533 3.24993 2.59524 0
M  V30 5201 H 484.11 1.5915 3.37233 0
M  V30 5202 N 486.295 -0.989507 1.22664 0
M  V30 5203 C 487.228 -2.07805 0.942985 0
M  V30 5204 C 488.206 -1.6219 -0.115356 0
M  V30 5205 O 489.39 -1.88492 0.0169565 0
M  V30 5206 C 486.517 -3.361 0.418898 0
M  V30 5207 C 485.563 -4.00643 1.46244 0
M  V30 5208 S 486.396 -4.41059 3.03689 0
M  V30 5209 C 487.552 -5.7252 2.52927 0
M  V30 5210 H 487.785 -2.31547 1.86476 0
M  V30 5211 H 485.318 -1.12446 1.05808 0
M  V30 5212 H 487.276 -4.10315 0.123114 0
M  V30 5213 H 485.937 -3.10383 -0.481818 0
M  V30 5214 H 485.13 -4.93033 1.04569 0
M  V30 5215 H 484.732 -3.32767 1.7071 0
M  V30 5216 H 487.024 -6.49017 1.94379 0
M  V30 5217 H 487.967 -6.19026 3.4382 0
M  V30 5218 H 488.375 -5.30083 1.94094 0
M  V30 5219 N 487.773 -1.03688 -1.18687 0
M  V30 5220 C 488.998 -0.757819 -1.93059 0
M  V30 5221 C 489.423 0.678353 -1.75442 0
M  V30 5222 O 488.781 1.46938 -1.06203 0
M  V30 5223 C 488.829 -1.12423 -3.42627 0
M  V30 5224 O 487.933 -0.247505 -4.11657 0
M  V30 5225 H 487.274 -0.279245 -0.602427 0
M  V30 5226 H 489.804 -1.3857 -1.5053 0
M  V30 5227 H 489.814 -1.08454 -3.93322 0
M  V30 5228 H 488.489 -2.17049 -3.54771 0
M  V30 5229 H 487.066 -0.34649 -3.71287 0
M  V30 5230 N 489.251 1.34841 -0.815825 0
M  V30 5231 C 490.491 2.00321 -0.406297 0
M  V30 5232 C 490.855 1.63293 1.00992 0
M  V30 5233 O 492.056 2.21563 1.52195 0
M  V30 5234 C 490.327 3.52421 -0.594469 0
M  V30 5235 S 491.886 4.37926 -0.276735 0
M  V30 5236 H 488.704 0.694155 -0.153848 0
M  V30 5237 H 491.306 1.64263 -1.06009 0
M  V30 5238 H 490.01 3.76858 -1.625 0
M  V30 5239 H 489.541 3.9333 0.0743157 0
M  V30 5240 H 491.556 4.87743 0.912215 0
M  V30 5241 N 490.729 0.570148 1.46925 0
M  V30 5242 C 491.954 0.0542592 2.07329 0
M  V30 5243 C 492.379 -1.23582 1.41806 0
M  V30 5244 O 491.737 -1.74341 0.497479 0
M  V30 5245 C 491.785 -0.111175 3.60429 0
M  V30 5246 O 490.889 -1.17071 3.95434 0
M  V30 5247 H 490.23 0.0571425 0.661537 0
M  V30 5248 H 492.76 0.789516 1.88753 0
M  V30 5249 H 492.77 -0.321315 4.06733 0
M  V30 5250 H 491.445 0.831012 4.07513 0
M  V30 5251 H 490.022 -0.940029 3.60857 0
M  V30 5252 N 492.207 -1.54576 0.307264 0
M  V30 5253 C 493.137 -2.26708 -0.55907 0
M  V30 5254 C 494.118 -1.26893 -1.1328 0
M  V30 5255 O 495.303 -1.55677 -1.16097 0
M  V30 5256 C 492.433 -3.01259 -1.72801 0
M  V30 5257 C 491.387 -4.08275 -1.28435 0
M  V30 5258 C 490.713 -4.70575 -2.53895 0
M  V30 5259 C 492.013 -5.2068 -0.411038 0
M  V30 5260 H 493.707 -2.9937 0.042576 0
M  V30 5261 H 491.253 -1.43983 0.0219173 0
M  V30 5262 H 493.206 -3.50444 -2.34023 0
M  V30 5263 H 491.93 -2.26187 -2.356 0
M  V30 5264 H 490.589 -3.59949 -0.695161 0
M  V30 5265 H 490.237 -3.92136 -3.15021 0
M  V30 5266 H 489.937 -5.42854 -2.24908 0
M  V30 5267 H 491.461 -5.22527 -3.15908 0
M  V30 5268 H 492.875 -5.65721 -0.929097 0
M  V30 5269 H 491.272 -5.99716 -0.214664 0
M  V30 5270 H 492.342 -4.81629 0.562287 0
M  V30 5271 N 493.685 -0.035106 -1.57561 0
M  V30 5272 C 494.913 0.652258 -1.9635 0
M  V30 5273 C 495.328 1.65317 -0.911897 0
M  V30 5274 O 494.685 1.82194 0.105657 0
M  V30 5275 C 494.736 1.35337 -3.35211 0
M  V30 5276 O 494.457 0.392548 -4.36338 0
M  V30 5277 C 495.958 2.13199 -3.88666 0
M  V30 5278 H 493.178 0.179444 -0.646561 0
M  V30 5279 H 495.722 -0.0966459 -2.04271 0
M  V30 5280 H 493.877 2.05362 -3.28489 0
M  V30 5281 H 494.291 0.891097 -5.16875 0
M  V30 5282 H 495.765 2.577 -4.88154 0
M  V30 5283 H 496.242 2.97353 -3.23231 0
M  V30 5284 H 496.848 1.48118 -3.98674 0
M  V30 5285 N 495.163 1.55791 0.238111 0
M  V30 5286 C 496.411 1.77681 0.963001 0
M  V30 5287 C 496.732 0.600674 1.85518 0
M  V30 5288 O 496.002 -0.383182 1.92116 0
M  V30 5289 H 494.582 0.655315 0.358568 0
M  V30 5290 H 497.244 1.93239 0.253945 0
M  V30 5291 H 496.34 2.69177 1.57956 0
M  V30 5292 N 496.642 -0.504142 1.49319 0
M  V30 5293 C 497.867 -1.28729 1.62615 0
M  V30 5294 C 498.292 -1.85752 0.296309 0
M  V30 5295 O 497.65 -1.65704 -0.735649 0
M  V30 5296 C 497.698 -2.39561 2.69524 0
M  V30 5297 O 496.802 -3.43324 2.28478 0
M  V30 5298 H 496.143 -0.380172 0.544395 0
M  V30 5299 H 498.673 -0.603872 1.95485 0
M  V30 5300 H 498.683 -2.8537 2.91595 0
M  V30 5301 H 497.358 -1.97423 3.66056 0
M  V30 5302 H 495.935 -3.03455 2.16725 0
M  V30 5303 N 498.12 -1.38341 -0.754957 0
M  V30 5304 C 499.05 -1.38176 -1.88227 0
M  V30 5305 C 500.031 -0.247873 -1.68284 0
M  V30 5306 O 501.216 -0.45075 -1.88896 0
M  V30 5307 C 498.346 -1.20471 -3.25736 0
M  V30 5308 C 497.3 -2.3105 -3.60278 0
M  V30 5309 C 496.626 -1.98452 -4.96509 0
M  V30 5310 C 497.926 -3.73305 -3.65295 0
M  V30 5311 H 499.62 -2.32512 -1.88622 0
M  V30 5312 H 497.166 -1.1192 -0.906082 0
M  V30 5313 H 499.119 -1.18982 -4.04254 0
M  V30 5314 H 497.843 -0.225965 -3.25817 0
M  V30 5315 H 496.502 -2.31723 -2.84078 0
M  V30 5316 H 496.15 -0.990641 -4.93148 0
M  V30 5317 H 495.85 -2.7251 -5.20588 0
M  V30 5318 H 497.374 -1.98578 -5.77407 0
M  V30 5319 H 498.788 -3.7467 -4.3393 0
M  V30 5320 H 497.185 -4.46557 -4.00883 0
M  V30 5321 H 498.255 -4.05719 -2.65556 0
M  V30 5322 N 499.598 0.982988 -1.23187 0
M  V30 5323 C 500.561 2.05649 -1.01198 0
M  V30 5324 C 501.561 1.6078 0.0252464 0
M  V30 5325 O 502.751 1.72878 -0.214243 0
M  V30 5326 C 499.883 3.36744 -0.530656 0
M  V30 5327 H 501.076 2.2659 -1.96461 0
M  V30 5328 H 498.629 1.15602 -1.05195 0
M  V30 5329 H 499.364 3.21492 0.425873 0
M  V30 5330 H 499.149 3.7065 -1.2791 0
M  V30 5331 H 500.639 4.15705 -0.397366 0
M  V30 5332 N 501.076 1.04316 1.18135 0
M  V30 5333 C 502.006 0.657299 2.24058 0
M  V30 5334 C 502.987 -0.340678 1.66654 0
M  V30 5335 O 504.172 -0.220223 1.92947 0
M  V30 5336 C 501.302 0.0220715 3.47293 0
M  V30 5337 C 500.256 0.943857 4.17463 0
M  V30 5338 C 499.582 0.172973 5.3442 0
M  V30 5339 C 500.882 2.26409 4.70677 0
M  V30 5340 H 502.576 1.5428 2.56589 0
M  V30 5341 H 500.122 0.743263 1.23335 0
M  V30 5342 H 502.075 -0.259607 4.206 0
M  V30 5343 H 500.799 -0.898323 3.14003 0
M  V30 5344 H 499.458 1.20996 3.46057 0
M  V30 5345 H 499.106 -0.749907 4.97379 0
M  V30 5346 H 498.806 0.787098 5.82304 0
M  V30 5347 H 500.33 -0.101628 6.10515 0
M  V30 5348 H 501.744 2.04294 5.35665 0
M  V30 5349 H 500.141 2.8314 5.29105 0
M  V30 5350 H 501.211 2.90883 3.87962 0
M  V30 5351 N 502.554 -1.34406 0.822964 0
M  V30 5352 C 503.486 -2.28305 0.202375 0
M  V30 5353 C 504.499 -1.5103 -0.60777 0
M  V30 5354 O 505.688 -1.73057 -0.437444 0
M  V30 5355 C 502.788 -3.30836 -0.734911 0
M  V30 5356 C 501.961 -4.37388 0.0324177 0
M  V30 5357 C 501.02 -5.1968 -0.825803 0
M  V30 5358 O 500.046 -5.68556 -0.270771 0
M  V30 5359 N 501.248 -5.39393 -2.14558 0
M  V30 5360 H 504.013 -2.82201 1.00909 0
M  V30 5361 H 501.574 -1.4693 0.67993 0
M  V30 5362 H 503.566 -3.82786 -1.31365 0
M  V30 5363 H 502.136 -2.77334 -1.44238 0
M  V30 5364 H 501.356 -3.86152 0.792469 0
M  V30 5365 H 502.644 -5.05702 0.560633 0
M  V30 5366 H 502.042 -5.01357 -2.62025 0
M  V30 5367 H 500.599 -5.94461 -2.67318 0
M  V30 5368 N 504.032 -0.577932 -1.46621 0
M  V30 5369 C 505.443 -0.150071 -1.86096 0
M  V30 5370 C 505.794 1.28563 -1.48209 0
M  V30 5371 O 504.919 1.97036 -0.894754 0
M  V30 5372 C 505.514 -0.265576 -3.37758 0
M  V30 5373 C 504.073 0.10738 -3.76247 0
M  V30 5374 C 503.22 -0.603711 -2.70649 0
M  V30 5375 H 506.171 -0.786438 -1.37844 0
M  V30 5376 H 506.192 0.510352 -3.77062 0
M  V30 5377 H 505.704 -1.3106 -3.65301 0
M  V30 5378 H 503.805 1.15272 -3.54321 0
M  V30 5379 H 503.918 -0.26561 -4.78363 0
M  V30 5380 H 502.282 -0.0444884 -2.54661 0
M  V30 5381 H 503.065 -1.65029 -3.01032 0
M  V30 5382 N 505.51 1.54411 -0.315457 0
M  V30 5383 C 506.787 1.92562 0.343398 0
M  V30 5384 C 507.167 1.24423 1.70535 0
M  V30 5385 O 506.515 0.385051 2.25232 0
M  V30 5386 C 506.725 3.46168 0.443687 0
M  V30 5387 C 508.073 4.18659 0.707783 0
M  V30 5388 O 509.097 3.52281 0.52693 0
M  V30 5389 O 507.956 5.36198 1.05612 0
M  V30 5390 H 505.05 0.80379 0.194552 0
M  V30 5391 H 507.596 1.65738 -0.364577 0
M  V30 5392 H 506.368 3.8792 -0.513172 0
M  V30 5393 H 505.991 3.79073 1.19956 0
M  V30 5394 N 506.988 0.0434614 1.5754 0
M  V30 5395 C 507.92 -0.962586 2.08007 0
M  V30 5396 C 508.933 -1.27972 1.00634 0
M  V30 5397 O 510.122 -1.24186 1.28219 0
M  V30 5398 C 507.222 -2.28621 2.50171 0
M  V30 5399 C 506.395 -2.15214 3.80791 0
M  V30 5400 C 505.454 -3.30633 4.09351 0
M  V30 5401 O 504.48 -3.0688 4.79388 0
M  V30 5402 N 505.682 -4.54873 3.60654 0
M  V30 5403 H 508.447 -0.531891 2.94942 0
M  V30 5404 H 506.008 -0.142965 1.61268 0
M  V30 5405 H 508 -3.04689 2.66359 0
M  V30 5406 H 506.57 -2.63283 1.68525 0
M  V30 5407 H 505.79 -1.23785 3.74261 0
M  V30 5408 H 507.078 -2.03475 4.66343 0
M  V30 5409 H 506.476 -4.77063 3.04019 0
M  V30 5410 H 505.033 -5.2806 3.82094 0
M  V30 5411 N 508.466 -1.55915 -0.229846 0
M  V30 5412 C 509.398 -1.88209 -1.30805 0
M  V30 5413 C 510.411 -0.769672 -1.43457 0
M  V30 5414 O 511.6 -1.04792 -1.44502 0
M  V30 5415 C 508.7 -2.06829 -2.68468 0
M  V30 5416 C 507.873 -3.37798 -2.77869 0
M  V30 5417 C 506.932 -3.45952 -3.96489 0
M  V30 5418 O 505.958 -4.19043 -3.85216 0
M  V30 5419 N 507.16 -2.76488 -5.10426 0
M  V30 5420 H 509.925 -2.81286 -1.03431 0
M  V30 5421 H 507.486 -1.5636 -0.41991 0
M  V30 5422 H 509.478 -2.09608 -3.46189 0
M  V30 5423 H 508.048 -1.20416 -2.88477 0
M  V30 5424 H 507.268 -3.4719 -1.86689 0
M  V30 5425 H 508.556 -4.24091 -2.81113 0
M  V30 5426 H 507.954 -2.16868 -5.2248 0
M  V30 5427 H 506.511 -2.84938 -5.8622 0
M  V30 5428 N 509.944 0.496216 -1.49584 0
M  V30 5429 C 510.876 1.61404 -1.62731 0
M  V30 5430 C 511.889 1.54613 -0.50978 0
M  V30 5431 O 513.078 1.60458 -0.782017 0
M  V30 5432 C 510.178 3.00212 -1.57245 0
M  V30 5433 C 509.351 3.32138 -2.84611 0
M  V30 5434 C 508.41 4.5038 -2.72112 0
M  V30 5435 O 507.436 4.51926 -3.46051 0
M  V30 5436 N 508.638 5.50575 -1.83977 0
M  V30 5437 H 511.403 1.50552 -2.59141 0
M  V30 5438 H 508.964 0.684182 -1.46733 0
M  V30 5439 H 510.956 3.77241 -1.4653 0
M  V30 5440 H 509.526 3.04964 -0.686729 0
M  V30 5441 H 508.746 2.4396 -3.09641 0
M  V30 5442 H 510.034 3.50268 -3.69039 0
M  V30 5443 H 509.432 5.52128 -1.23171 0
M  V30 5444 H 507.989 6.26687 -1.79182 0
M  V30 5445 N 511.423 1.38739 0.74761 0
M  V30 5446 C 512.7 1.25791 1.49786 0
M  V30 5447 C 513.08 -0.138075 2.10648 0
M  V30 5448 O 512.428 -1.14815 1.9756 0
M  V30 5449 C 512.638 2.37265 2.55942 0
M  V30 5450 C 513.986 2.75978 3.22679 0
M  V30 5451 O 515.01 2.36621 2.6625 0
M  V30 5452 O 513.869 3.43867 4.24756 0
M  V30 5453 H 510.963 0.492251 0.664543 0
M  V30 5454 H 513.509 1.50582 0.782511 0
M  V30 5455 H 512.281 3.30644 2.0926 0
M  V30 5456 H 511.904 2.14071 3.35051 0
M  V30 5457 N 512.901 -0.976442 1.23707 0
M  V30 5458 C 513.851 -2.0544 0.988851 0
M  V30 5459 C 514.835 -1.60762 -0.0665901 0
M  V30 5460 O 516.027 -1.76396 0.14604 0
M  V30 5461 C 513.156 -3.38258 0.586223 0
M  V30 5462 C 512.242 -3.89523 1.67728 0
M  V30 5463 N 512.633 -4.13823 2.90834 0
M  V30 5464 C 510.931 -4.18097 1.55277 0
M  V30 5465 C 511.632 -4.55731 3.61502 0
M  V30 5466 N 510.608 -4.60394 2.8903 0
M  V30 5467 H 514.41 -2.22191 1.92376 0
M  V30 5468 H 511.924 -1.15954 1.13704 0
M  V30 5469 H 513.921 -4.15075 0.389658 0
M  V30 5470 H 512.581 -3.22898 -0.341594 0
M  V30 5471 H 513.592 -4.01529 3.271 0
M  V30 5472 H 510.269 -4.11719 0.692351 0
M  V30 5473 H 511.659 -4.83018 4.67059 0
M  V30 5474 N 514.379 -1.04941 -1.1758 0
M  V30 5475 C 515.289 -0.658826 -2.25159 0
M  V30 5476 C 516.305 0.318941 -1.71052 0
M  V30 5477 O 517.481 0.171669 -2.00667 0
M  V30 5478 C 514.546 -0.0369522 -3.4668 0
M  V30 5479 C 513.607 -1.06484 -4.15884 0
M  V30 5480 C 512.84 -0.472551 -5.31604 0
M  V30 5481 O 513.063 0.718736 -5.65854 0
M  V30 5482 O 511.997 -1.20557 -5.89703 0
M  V30 5483 H 515.823 -1.55533 -2.60851 0
M  V30 5484 H 513.408 -0.820819 -1.24832 0
M  V30 5485 H 515.29 0.308784 -4.20267 0
M  V30 5486 H 513.965 0.833238 -3.12792 0
M  V30 5487 H 512.872 -1.46253 -3.44327 0
M  V30 5488 H 514.205 -1.9061 -4.53794 0
M  V30 5489 N 515.857 1.33968 -0.830081 0
M  V30 5490 C 517.085 2.0228 -0.434773 0
M  V30 5491 C 517.5 1.62487 0.961419 0
M  V30 5492 O 516.857 0.833849 1.62337 0
M  V30 5493 C 516.908 3.5751 -0.535625 0
M  V30 5494 O 516.629 3.95864 -1.87679 0
M  V30 5495 C 518.13 4.43091 -0.136137 0
M  V30 5496 H 515.35 0.648151 -0.173613 0
M  V30 5497 H 517.894 1.71089 -1.12022 0
M  V30 5498 H 516.049 3.87266 0.101817 0
M  V30 5499 H 516.463 4.9056 -1.85609 0
M  V30 5500 H 517.937 5.51398 -0.257772 0
M  V30 5501 H 518.414 4.29433 0.921076 0
M  V30 5502 H 519.02 4.18677 -0.747662 0
M  V30 5503 N 517.335 0.585699 1.46312 0
M  V30 5504 C 518.563 0.0781299 2.06752 0
M  V30 5505 C 518.978 -1.22812 1.43396 0
M  V30 5506 O 518.335 -1.74318 0.540314 0
M  V30 5507 C 518.386 -0.0911927 3.61385 0
M  V30 5508 O 518.107 1.16336 4.22371 0
M  V30 5509 C 519.608 -0.632765 4.38761 0
M  V30 5510 H 516.828 0.0588188 0.668417 0
M  V30 5511 H 519.372 0.807218 1.87894 0
M  V30 5512 H 517.527 -0.770514 3.7966 0
M  V30 5513 H 517.941 0.979082 5.15281 0
M  V30 5514 H 519.415 -0.70041 5.47538 0
M  V30 5515 H 519.892 -1.65039 4.07012 0
M  V30 5516 H 520.498 0.0117856 4.25298 0
M  V30 5517 N 518.813 -1.54241 0.323641 0
M  V30 5518 C 520.09 -1.92741 -0.333181 0
M  V30 5519 C 520.47 -1.25326 -1.69872 0
M  V30 5520 O 519.818 -0.396991 -2.25025 0
M  V30 5521 C 520.028 -3.46399 -0.425322 0
M  V30 5522 C 521.376 -4.19029 -0.68557 0
M  V30 5523 O 522.4 -3.52555 -0.50824 0
M  V30 5524 O 521.259 -5.36751 -1.02767 0
M  V30 5525 H 518.353 -0.804811 -0.190286 0
M  V30 5526 H 520.899 -1.65542 0.373361 0
M  V30 5527 H 519.671 -3.87643 0.533737 0
M  V30 5528 H 519.294 -3.79704 -1.17944 0
M  V30 5529 N 520.291 -0.0518155 -1.57515 0
M  V30 5530 C 521.516 0.634896 -1.97443 0
M  V30 5531 C 521.941 1.63546 -0.929207 0
M  V30 5532 O 521.299 1.80981 0.107484 0
M  V30 5533 C 521.347 1.29765 -3.36442 0
M  V30 5534 O 520.451 2.41333 -3.34413 0
M  V30 5535 H 519.792 0.164994 -0.643174 0
M  V30 5536 H 522.322 -0.120407 -2.04245 0
M  V30 5537 H 522.332 1.64918 -3.73184 0
M  V30 5538 H 521.007 0.564361 -4.12053 0
M  V30 5539 H 519.584 2.08122 -3.09418 0
M  V30 5540 N 521.769 1.56035 0.221574 0
M  V30 5541 C 522.994 1.83476 0.967026 0
M  V30 5542 C 523.419 0.632139 1.7716 0
M  V30 5543 O 522.777 -0.419082 1.7639 0
M  V30 5544 C 522.825 3.08907 1.86034 0
M  V30 5545 O 521.929 2.876 2.95567 0
M  V30 5546 H 521.27 0.604913 0.273817 0
M  V30 5547 H 523.8 2.03247 0.234893 0
M  V30 5548 H 523.81 3.3901 2.27016 0
M  V30 5549 H 522.485 3.96068 1.26898 0
M  V30 5550 H 521.062 2.6873 2.58532 0
M  V30 5551 N 523.247 -0.488276 1.49845 0
M  V30 5552 C 524.658 -1.06955 1.53028 0
M  V30 5553 C 525.009 -1.9351 0.323797 0
M  V30 5554 O 524.134 -2.08891 -0.565116 0
M  V30 5555 C 524.729 -1.94643 2.77307 0
M  V30 5556 C 523.288 -2.4791 2.83227 0
M  V30 5557 C 522.435 -1.25833 2.47106 0
M  V30 5558 H 525.386 -0.271626 1.56358 0
M  V30 5559 H 525.407 -2.79496 2.5819 0
M  V30 5560 H 524.919 -1.31621 3.65099 0
M  V30 5561 H 523.02 -3.14535 1.99745 0
M  V30 5562 H 523.133 -2.84193 3.85709 0
M  V30 5563 H 521.497 -1.58764 1.99163 0
M  V30 5564 H 522.28 -0.644993 3.37186 0
M  V30 5565 N 524.725 -1.39134 -0.740242 0
M  V30 5566 C 525.688 -1.37217 -1.83587 0
M  V30 5567 C 526.688 -0.270221 -1.58513 0
M  V30 5568 O 527.878 -0.527843 -1.6601 0
M  V30 5569 C 525.01 -1.13959 -3.21288 0
M  V30 5570 H 526.203 -2.34705 -1.86691 0
M  V30 5571 H 523.756 -1.24622 -0.94335 0
M  V30 5572 H 524.491 -0.17131 -3.23847 0
M  V30 5573 H 524.276 -1.93754 -3.40884 0
M  V30 5574 H 525.766 -1.15346 -4.01354 0
M  V30 5575 N 526.204 0.969867 -1.24223 0
M  V30 5576 C 527.429 1.75289 -1.10853 0
M  V30 5577 C 527.854 1.85091 0.335079 0
M  V30 5578 O 527.212 1.32024 1.24255 0
M  V30 5579 C 527.26 3.15255 -1.75062 0
M  V30 5580 O 526.364 3.99589 -1.01992 0
M  V30 5581 H 525.705 0.538904 -0.387915 0
M  V30 5582 H 528.235 1.21675 -1.64488 0
M  V30 5583 H 528.245 3.65787 -1.80731 0
M  V30 5584 H 526.92 3.07436 -2.801 0
M  V30 5585 H 525.497 3.58077 -1.04094 0
M  V30 5586 N 527.682 1.05563 1.17022 0
M  V30 5587 C 528.645 0.664098 2.19368 0
M  V30 5588 C 529.645 -0.286358 1.5823 0
M  V30 5589 O 530.835 -0.069728 1.7406 0
M  V30 5590 C 527.967 -0.0239932 3.40892 0
M  V30 5591 H 529.16 1.57 2.55521 0
M  V30 5592 H 526.713 0.849964 1.31169 0
M  V30 5593 H 527.448 -0.942988 3.10287 0
M  V30 5594 H 527.233 0.659351 3.86516 0
M  V30 5595 H 528.723 -0.283909 4.16634 0
M  V30 5596 N 529.16 -1.33526 0.837174 0
M  V30 5597 C 530.39 -2.01754 0.444848 0
M  V30 5598 C 530.798 -1.63149 -0.958072 0
M  V30 5599 O 530.141 -0.839827 -1.63379 0
M  V30 5600 C 530.203 -3.56228 0.483917 0
M  V30 5601 C 529.867 -4.18205 1.84265 0
M  V30 5602 C 530.864 -4.37699 2.80563 0
M  V30 5603 C 528.549 -4.54667 2.13503 0
M  V30 5604 C 530.543 -4.928 4.04261 0
M  V30 5605 C 528.23 -5.09475 3.37458 0
M  V30 5606 C 529.228 -5.28488 4.32654 0
M  V30 5607 O 528.916 -5.82132 5.54417 0
M  V30 5608 H 528.648 -0.652928 0.175104 0
M  V30 5609 H 531.202 -1.71469 1.13082 0
M  V30 5610 H 529.432 -3.85833 -0.258826 0
M  V30 5611 H 531.121 -4.05752 0.109653 0
M  V30 5612 H 531.887 -4.0988 2.59274 0
M  V30 5613 H 527.766 -4.39164 1.40201 0
M  V30 5614 H 531.31 -5.07555 4.78574 0
M  V30 5615 H 527.207 -5.36725 3.58604 0
M  V30 5616 H 527.975 -6.00548 5.56133 0
M  V30 5617 N 530.638 -0.59345 -1.46 0
M  V30 5618 C 531.57 0.171569 -2.28557 0
M  V30 5619 C 532.583 0.845273 -1.39137 0
M  V30 5620 O 533.772 0.713033 -1.6364 0
M  V30 5621 C 530.872 1.26311 -3.14482 0
M  V30 5622 C 530.045 0.679258 -4.32094 0
M  V30 5623 C 529.104 1.65987 -4.99334 0
M  V30 5624 O 528.13 1.19171 -5.56585 0
M  V30 5625 N 529.332 2.99414 -4.97324 0
M  V30 5626 H 532.097 -0.536771 -2.94854 0
M  V30 5627 H 529.658 -0.431954 -1.56031 0
M  V30 5628 H 531.65 1.91863 -3.5633 0
M  V30 5629 H 530.22 1.87416 -2.50188 0
M  V30 5630 H 529.44 -0.153992 -3.93899 0
M  V30 5631 H 530.728 0.26916 -5.08088 0
M  V30 5632 H 530.126 3.40064 -4.52076 0
M  V30 5633 H 528.683 3.60426 -5.4308 0
M  V30 5634 N 532.116 1.54067 -0.331816 0
M  V30 5635 C 533.532 1.59587 0.0205388 0
M  V30 5636 C 533.732 1.34813 1.49759 0
M  V30 5637 O 532.788 1.13661 2.25471 0
M  V30 5638 C 534.101 2.97959 -0.405103 0
M  V30 5639 C 535.649 3.10964 -0.356454 0
M  V30 5640 C 536.124 4.51694 -0.757384 0
M  V30 5641 N 537.615 4.57709 -0.71111 0
M  V30 5642 C 538.35 5.64729 -0.993427 0
M  V30 5643 N 537.846 6.79652 -1.3433 0
M  V30 5644 N 539.639 5.54546 -0.918442 0
M  V30 5645 H 531.79 1.68426 -1.29407 0
M  V30 5646 H 534.053 0.78819 -0.526745 0
M  V30 5647 H 533.759 3.21115 -1.43451 0
M  V30 5648 H 533.633 3.76524 0.225692 0
M  V30 5649 H 536.02 2.87538 0.663763 0
M  V30 5650 H 536.101 2.34484 -1.02229 0
M  V30 5651 H 535.745 4.75853 -1.77555 0
M  V30 5652 H 535.675 5.26555 -0.0691444 0
M  V30 5653 H 538.166 3.75176 -0.452883 0
M  V30 5654 H 538.479 7.57221 -1.54388 0
M  V30 5655 H 536.824 6.81128 -1.38164 0
M  V30 5656 H 540.015 4.63641 -0.644536 0
M  V30 5657 H 540.188 6.37861 -1.14181 0
M  V30 5658 N 533.594 0.0601682 1.57485 0
M  V30 5659 C 534.843 -0.611101 1.9222 0
M  V30 5660 C 535.156 -1.71469 0.941159 0
M  V30 5661 O 536.362 -2.44473 1.18089 0
M  V30 5662 C 534.818 -1.13832 3.41424 0
M  V30 5663 C 534.426 -0.0663596 4.47951 0
M  V30 5664 C 536.17 -1.78432 3.85178 0
M  V30 5665 C 534.077 -0.606965 5.88277 0
M  V30 5666 H 533.007 -0.232033 0.71741 0
M  V30 5667 H 535.658 0.130518 1.83035 0
M  V30 5668 H 534.04 -1.93254 3.45643 0
M  V30 5669 H 535.214 0.707682 4.55333 0
M  V30 5670 H 533.529 0.482715 4.13593 0
M  V30 5671 H 536.126 -2.1989 4.87394 0
M  V30 5672 H 536.469 -2.63966 3.21913 0
M  V30 5673 H 537.002 -1.05651 3.83514 0
M  V30 5674 H 533.741 0.21095 6.5516 0
M  V30 5675 H 533.261 -1.34879 5.84438 0
M  V30 5676 H 534.94 -1.08704 6.37803 0
M  V30 5677 N 535.072 -1.5615 -0.213296 0
M  V30 5678 C 536.318 -1.80718 -0.933402 0
M  V30 5679 C 536.673 -0.634441 -1.81639 0
M  V30 5680 O 535.966 0.371182 -1.8797 0
M  V30 5681 C 536.16 -3.08772 -1.79985 0
M  V30 5682 C 535.989 -4.38389 -1.00224 0
M  V30 5683 C 534.759 -5.00513 -0.693885 0
M  V30 5684 C 536.957 -5.13013 -0.363598 0
M  V30 5685 N 534.939 -6.13774 0.124266 0
M  V30 5686 C 536.31 -6.19186 0.31757 0
M  V30 5687 C 538.365 -4.97126 -0.277468 0
M  V30 5688 C 537.068 -7.11197 1.07664 0
M  V30 5689 C 539.094 -5.89544 0.468155 0
M  V30 5690 C 538.456 -6.95149 1.13784 0
M  V30 5691 H 534.555 -0.712833 -0.321549 0
M  V30 5692 H 537.139 -1.93633 -0.203588 0
M  V30 5693 H 535.31 -2.97126 -2.50142 0
M  V30 5694 H 537.042 -3.21499 -2.45806 0
M  V30 5695 H 533.797 -4.62619 -1.01391 0
M  V30 5696 H 534.221 -6.74981 0.522418 0
M  V30 5697 H 538.863 -4.15526 -0.78087 0
M  V30 5698 H 536.581 -7.92273 1.59153 0
M  V30 5699 H 540.167 -5.79327 0.535911 0
M  V30 5700 H 539.047 -7.65428 1.70557 0
M  V30 5701 N 536.55 0.480323 -1.50102 0
M  V30 5702 C 537.46 1.60547 -1.71061 0
M  V30 5703 C 538.476 1.63564 -0.593529 0
M  V30 5704 O 539.652 1.81604 -0.870751 0
M  V30 5705 C 536.717 2.96814 -1.79171 0
M  V30 5706 C 535.778 3.04259 -3.02861 0
M  V30 5707 C 535.011 4.34027 -3.10574 0
M  V30 5708 O 535.234 5.24009 -2.25323 0
M  V30 5709 O 534.168 4.46873 -4.03223 0
M  V30 5710 H 537.994 1.45788 -2.6642 0
M  V30 5711 H 535.579 0.658838 -1.34088 0
M  V30 5712 H 537.461 3.77765 -1.86738 0
M  V30 5713 H 536.136 3.11791 -0.869947 0
M  V30 5714 H 535.043 2.22419 -3.008 0
M  V30 5715 H 536.376 2.94216 -3.94586 0
M  V30 5716 N 538.028 1.39524 0.732853 0
M  V30 5717 C 538.991 1.38189 1.82857 0
M  V30 5718 C 539.991 0.278624 1.58368 0
M  V30 5719 O 541.181 0.536639 1.65728 0
M  V30 5720 C 538.313 1.15661 3.2068 0
M  V30 5721 H 539.506 2.35692 1.85444 0
M  V30 5722 H 537.059 1.2512 0.936728 0
M  V30 5723 H 537.794 0.188482 3.23752 0
M  V30 5724 H 537.579 1.95559 3.39852 0
M  V30 5725 H 539.069 1.17472 4.00737 0
M  V30 5726 N 539.506 -0.963266 1.24736 0
M  V30 5727 C 540.753 -1.7068 1.0897 0
M  V30 5728 C 541.081 -1.90934 -0.370751 0
M  V30 5729 O 540.336 -1.47155 -1.29011 0
M  V30 5730 C 540.635 -3.09944 1.7796 0
M  V30 5731 C 540.301 -3.09518 3.27887 0
M  V30 5732 C 538.963 -3.09109 3.68789 0
M  V30 5733 C 541.315 -3.03509 4.23712 0
M  V30 5734 C 538.643 -3.00429 5.03944 0
M  V30 5735 C 540.995 -2.96371 5.5888 0
M  V30 5736 C 539.659 -2.94293 5.99123 0
M  V30 5737 H 538.929 -0.624564 0.398749 0
M  V30 5738 H 541.576 -1.12603 1.54896 0
M  V30 5739 H 539.881 -3.71513 1.2444 0
M  V30 5740 H 541.578 -3.66278 1.63222 0
M  V30 5741 H 538.168 -3.10603 2.95337 0
M  V30 5742 H 542.352 -3.0295 3.93109 0
M  V30 5743 H 537.608 -2.97183 5.34314 0
M  V30 5744 H 541.782 -2.90681 6.32833 0
M  V30 5745 H 539.409 -2.87322 7.03811 0
M  V30 5746 N 540.985 -1.06182 -1.16461 0
M  V30 5747 C 541.948 -0.675723 -2.19013 0
M  V30 5748 C 542.948 0.277963 -1.58379 0
M  V30 5749 O 544.138 0.0604962 -1.74095 0
M  V30 5750 C 541.27 0.00591459 -3.40899 0
M  V30 5751 H 542.463 -1.58353 -2.54685 0
M  V30 5752 H 540.016 -0.856908 -1.30716 0
M  V30 5753 H 540.751 0.92652 -3.10783 0
M  V30 5754 H 540.536 -0.67984 -3.86161 0
M  V30 5755 H 542.026 0.26181 -4.16778 0
M  V30 5756 N 542.463 1.3308 -0.844243 0
M  V30 5757 C 543.411 2.31028 -0.269954 0
M  V30 5758 C 544.405 1.58381 0.600997 0
M  V30 5759 O 545.611 1.73203 0.48996 0
M  V30 5760 H 541.986 0.748866 -0.0685782 0
M  V30 5761 H 543.957 2.76967 -1.11049 0
M  V30 5762 C 542.706 3.43549 0.535676 0
M  V30 5763 H 542.029 3.99604 -0.125202 0
M  V30 5764 H 543.469 4.14267 0.903262 0
M  V30 5765 C 541.928 2.8988 1.71672 0
M  V30 5766 O 542.458 2.86511 2.81557 0
M  V30 5767 N 540.664 2.46416 1.54037 0
M  V30 5768 H 540.211 2.49356 0.64649 0
M  V30 5769 H 540.169 2.1086 2.33207 0
M  V30 5770 N 543.941 0.601185 1.45683 0
M  V30 5771 C 544.873 -0.159446 2.28645 0
M  V30 5772 C 545.886 -0.837882 1.39583 0
M  V30 5773 O 547.075 -0.704344 1.64016 0
M  V30 5774 C 544.175 -1.24641 3.15147 0
M  V30 5775 C 543.348 -0.656334 4.32448 0
M  V30 5776 C 542.407 -1.63337 5.00208 0
M  V30 5777 O 541.433 -1.16217 5.57209 0
M  V30 5778 N 542.635 -2.96773 4.98905 0
M  V30 5779 H 545.4 0.5524 2.94565 0
M  V30 5780 H 542.961 0.440223 1.558 0
M  V30 5781 H 544.953 -1.8997 3.57342 0
M  V30 5782 H 543.523 -1.86087 2.51178 0
M  V30 5783 H 542.743 0.174879 3.93812 0
M  V30 5784 H 544.031 -0.242211 5.08223 0
M  V30 5785 H 543.429 -3.37662 4.53873 0
M  V30 5786 H 541.986 -3.57541 5.44984 0
M  V30 5787 N 545.419 -1.53889 0.339982 0
M  V30 5788 C 546.644 -2.05741 -0.261798 0
M  V30 5789 C 547.069 -1.21354 -1.43718 0
M  V30 5790 O 546.427 -0.22645 -1.7988 0
M  V30 5791 C 546.475 -3.54542 -0.658228 0
M  V30 5792 O 545.579 -3.7302 -1.75869 0
M  V30 5793 H 544.92 -0.662529 -0.0441672 0
M  V30 5794 H 547.45 -1.98568 0.493161 0
M  V30 5795 H 547.46 -3.9711 -0.936368 0
M  V30 5796 H 546.135 -4.15412 0.201358 0
M  V30 5797 H 544.712 -3.42355 -1.47809 0
M  V30 5798 N 546.897 -0.0685191 -1.57451 0
M  V30 5799 C 548.313 0.288101 -1.56978 0
M  V30 5800 C 548.513 1.70262 -1.07765 0
M  V30 5801 O 547.569 2.4135 -0.742054 0
M  V30 5802 C 548.882 0.100745 -3.00531 0
M  V30 5803 C 550.43 0.170531 -3.12535 0
M  V30 5804 C 550.905 0.0114944 -4.57999 0
M  V30 5805 N 552.396 0.0672065 -4.63151 0
M  V30 5806 C 553.131 -0.0314813 -5.73391 0
M  V30 5807 N 552.627 -0.183503 -6.92557 0
M  V30 5808 N 554.42 0.0253489 -5.62094 0
M  V30 5809 H 546.571 -0.993026 -1.87757 0
M  V30 5810 H 548.834 -0.386981 -0.865419 0
M  V30 5811 H 548.54 -0.875197 -3.40636 0
M  V30 5812 H 548.414 0.854457 -3.67395 0
M  V30 5813 H 550.801 1.13696 -2.72318 0
M  V30 5814 H 550.882 -0.614229 -2.48316 0
M  V30 5815 H 550.526 -0.951684 -4.98904 0
M  V30 5816 H 550.456 0.815617 -5.20245 0
M  V30 5817 H 552.947 0.183246 -3.77455 0
M  V30 5818 H 553.26 -0.251041 -7.72392 0
M  V30 5819 H 551.605 -0.218822 -6.94655 0
M  V30 5820 H 554.796 0.142794 -4.67882 0
M  V30 5821 H 554.969 -0.0550166 -6.47977 0
M  V30 5822 N 548.375 1.56261 0.205012 0
M  V30 5823 C 549.338 1.92908 1.23771 0
M  V30 5824 C 550.338 0.809208 1.38955 0
M  V30 5825 O 551.528 1.07676 1.36936 0
M  V30 5826 C 548.66 2.19442 2.60879 0
M  V30 5827 H 549.853 2.85287 0.924728 0
M  V30 5828 H 547.406 1.49798 0.446125 0
M  V30 5829 H 548.141 1.29668 2.97248 0
M  V30 5830 H 547.926 3.0104 2.51232 0
M  V30 5831 H 549.416 2.48833 3.35368 0
M  V30 5832 N 549.853 -0.472356 1.50355 0
M  V30 5833 C 550.763 -1.59637 1.7191 0
M  V30 5834 C 551.779 -1.63247 0.602195 0
M  V30 5835 O 552.955 -1.81139 0.880369 0
M  V30 5836 C 550.02 -2.9586 1.80742 0
M  V30 5837 C 549.081 -3.02649 3.04471 0
M  V30 5838 C 548.314 -4.32374 3.12872 0
M  V30 5839 O 548.537 -5.22807 2.28099 0
M  V30 5840 O 547.471 -4.44728 4.05587 0
M  V30 5841 H 551.297 -1.44373 2.67189 0
M  V30 5842 H 548.882 -0.651717 1.34436 0
M  V30 5843 H 550.764 -3.7677 1.88739 0
M  V30 5844 H 549.439 -3.11325 0.88647 0
M  V30 5845 H 548.346 -2.20821 3.01975 0
M  V30 5846 H 549.679 -2.92119 3.9614 0
M  V30 5847 N 551.331 -1.39911 -0.725443 0
M  V30 5848 C 552.747 -1.21725 -1.03224 0
M  V30 5849 C 552.947 -0.0855224 -2.01318 0
M  V30 5850 O 552.003 0.55976 -2.46217 0
M  V30 5851 C 553.316 -2.55511 -1.58539 0
M  V30 5852 C 554.864 -2.62439 -1.70572 0
M  V30 5853 C 555.339 -3.9647 -2.29294 0
M  V30 5854 N 556.83 -3.98159 -2.36692 0
M  V30 5855 C 557.565 -4.98647 -2.83088 0
M  V30 5856 N 557.061 -6.0953 -3.2931 0
M  V30 5857 N 558.854 -4.8602 -2.82384 0
M  V30 5858 H 551.005 -2.12267 -0.075048 0
M  V30 5859 H 553.268 -0.943136 -0.0959066 0
M  V30 5860 H 552.974 -3.38926 -0.939249 0
M  V30 5861 H 552.848 -2.75905 -2.57208 0
M  V30 5862 H 555.235 -1.79401 -2.34306 0
M  V30 5863 H 555.316 -2.45885 -0.705297 0
M  V30 5864 H 554.96 -4.79942 -1.66186 0
M  V30 5865 H 554.89 -4.10349 -3.30032 0
M  V30 5866 H 557.381 -3.18085 -2.04035 0
M  V30 5867 H 557.694 -6.82106 -3.6325 0
M  V30 5868 H 556.039 -6.1311 -3.27294 0
M  V30 5869 H 559.23 -3.98493 -2.45603 0
M  V30 5870 H 559.403 -5.64478 -3.18226 0
M  V30 5871 N 552.809 0.956637 -1.25245 0
M  V30 5872 C 554.086 1.67716 -1.00651 0
M  V30 5873 C 554.466 2.0585 0.467866 0
M  V30 5874 O 553.814 1.77029 1.44475 0
M  V30 5875 C 554.024 2.90093 -1.94028 0
M  V30 5876 C 555.372 3.6209 -2.21756 0
M  V30 5877 O 556.396 3.00171 -1.9177 0
M  V30 5878 O 555.255 4.7358 -2.72735 0
M  V30 5879 H 552.349 0.733731 -0.381533 0
M  V30 5880 H 554.895 1.00974 -1.3639 0
M  V30 5881 H 553.667 2.58689 -2.93591 0
M  V30 5882 H 553.29 3.64566 -1.58674 0
M  V30 5883 N 554.287 1.06798 1.15896 0
M  V30 5884 C 555.25 0.687328 2.18651 0
M  V30 5885 C 556.25 -0.269559 1.58524 0
M  V30 5886 O 557.44 -0.0512627 1.74125 0
M  V30 5887 C 554.572 0.0121642 3.40898 0
M  V30 5888 H 555.765 1.59701 2.53842 0
M  V30 5889 H 553.318 0.863828 1.3026 0
M  V30 5890 H 554.053 -0.910025 3.1127 0
M  V30 5891 H 553.838 0.700309 3.85795 0
M  V30 5892 H 555.328 -0.239703 4.16911 0
M  V30 5893 N 555.766 -1.3263 0.851289 0
M  V30 5894 C 557.013 -1.97368 0.453023 0
M  V30 5895 C 557.341 -1.67384 -0.990596 0
M  V30 5896 O 556.596 -0.952665 -1.70947 0
M  V30 5897 C 556.895 -3.51713 0.635015 0
M  V30 5898 C 556.561 -4.01676 2.04859 0
M  V30 5899 C 555.223 -4.15031 2.43522 0
M  V30 5900 C 557.575 -4.28206 2.97135 0
M  V30 5901 C 554.903 -4.52257 3.73739 0
M  V30 5902 C 557.255 -4.66889 4.26846 0
M  V30 5903 C 555.919 -4.7845 4.65448 0
M  V30 5904 H 555.189 -0.722219 0.165773 0
M  V30 5905 H 557.836 -1.58092 1.0807 0
M  V30 5906 H 556.141 -3.91726 -0.0759081 0
M  V30 5907 H 557.838 -3.99823 0.306964 0
M  V30 5908 H 554.428 -3.91764 1.73836 0
M  V30 5909 H 558.612 -4.174 2.68498 0
M  V30 5910 H 553.868 -4.59402 4.03435 0
M  V30 5911 H 558.042 -4.86372 4.98413 0
M  V30 5912 H 555.669 -5.07052 5.66395 0
M  V30 5913 N 557.244 -0.608902 -1.45362 0
M  V30 5914 C 558.174 0.0964526 -2.33301 0
M  V30 5915 C 559.155 0.857444 -1.46908 0
M  V30 5916 O 560.34 0.827735 -1.75676 0
M  V30 5917 C 557.47 1.09354 -3.29635 0
M  V30 5918 C 556.424 0.445676 -4.25673 0
M  V30 5919 C 555.75 1.5511 -5.11708 0
M  V30 5920 C 557.05 -0.633972 -5.18438 0
M  V30 5921 H 558.744 -0.637829 -2.92527 0
M  V30 5922 H 556.29 -0.308178 -1.40664 0
M  V30 5923 H 558.243 1.59556 -3.90025 0
M  V30 5924 H 556.967 1.85843 -2.6857 0
M  V30 5925 H 555.626 -0.0354897 -3.66583 0
M  V30 5926 H 555.274 2.30631 -4.4701 0
M  V30 5927 H 554.974 1.12311 -5.76767 0
M  V30 5928 H 556.498 2.05537 -5.74967 0
M  V30 5929 H 557.912 -0.215974 -5.72893 0
M  V30 5930 H 556.309 -0.983789 -5.91981 0
M  V30 5931 H 557.379 -1.51005 -4.60788 0
M  V30 5932 N 558.722 1.53707 -0.348139 0
M  V30 5933 C 559.654 2.22725 0.540946 0
M  V30 5934 C 560.667 1.2354 1.06027 0
M  V30 5935 O 561.856 1.49867 0.96964 0
M  V30 5936 C 558.956 2.89756 1.75768 0
M  V30 5937 C 558.129 4.15297 1.37285 0
M  V30 5938 C 557.188 4.65697 2.44976 0
M  V30 5939 O 556.214 5.29798 2.08092 0
M  V30 5940 N 557.416 4.42017 3.763 0
M  V30 5941 H 560.181 2.99658 -0.0501592 0
M  V30 5942 H 557.742 1.60979 -0.17248 0
M  V30 5943 H 559.734 3.20388 2.47252 0
M  V30 5944 H 558.304 2.16382 2.25605 0
M  V30 5945 H 557.524 3.9116 0.488584 0
M  V30 5946 H 558.812 4.96948 1.09179 0
M  V30 5947 H 558.21 3.9076 4.09051 0
M  V30 5948 H 556.767 4.77242 4.4394 0
M  V30 5949 N 560.2 0.0768682 1.57412 0
M  V30 5950 C 561.477 -0.632359 1.85096 0
M  V30 5951 C 561.857 -1.87479 0.9703 0
M  V30 5952 O 561.205 -2.28469 0.0379062 0
M  V30 5953 C 561.415 -0.965174 3.35388 0
M  V30 5954 C 562.763 -1.33648 4.03018 0
M  V30 5955 O 563.787 -1.05675 3.40164 0
M  V30 5956 O 562.646 -1.85959 5.13889 0
M  V30 5957 H 559.74 -0.314574 0.764835 0
M  V30 5958 H 562.286 0.108184 1.69355 0
M  V30 5959 H 561.058 -0.0829745 3.91212 0
M  V30 5960 H 560.681 -1.76231 3.5641 0
M  V30 5961 N 561.678 -1.56367 -0.196722 0
M  V30 5962 C 562.906 -1.84639 -0.933608 0
M  V30 5963 C 563.321 -0.659164 -1.76919 0
M  V30 5964 O 562.678 0.372142 -1.78665 0
M  V30 5965 C 562.729 -3.11694 -1.83109 0
M  V30 5966 O 562.45 -4.25838 -1.02924 0
M  V30 5967 C 563.951 -3.53132 -2.67979 0
M  V30 5968 H 561.171 -0.613188 -0.272473 0
M  V30 5969 H 563.715 -2.03475 -0.204465 0
M  V30 5970 H 561.87 -2.94759 -2.51387 0
M  V30 5971 H 562.284 -4.98178 -1.64069 0
M  V30 5972 H 563.758 -4.45005 -3.26611 0
M  V30 5973 H 564.235 -2.76045 -3.41608 0
M  V30 5974 H 564.841 -3.72592 -2.05074 0
M  V30 5975 N 563.156 0.464375 -1.50603 0
M  V30 5976 C 564.403 1.21596 -1.61928 0
M  V30 5977 C 564.731 1.91804 -0.322737 0
M  V30 5978 O 563.986 1.83065 0.691776 0
M  V30 5979 C 564.285 2.278 -2.75394 0
M  V30 5980 C 563.951 1.74797 -4.1564 0
M  V30 5981 C 562.613 1.60063 -4.53799 0
M  V30 5982 C 564.965 1.35548 -5.03266 0
M  V30 5983 C 562.293 1.04514 -5.77316 0
M  V30 5984 C 564.645 0.814381 -6.27336 0
M  V30 5985 C 563.309 0.653726 -6.64291 0
M  V30 5986 H 562.579 0.444951 -0.592536 0
M  V30 5987 H 565.226 0.510964 -1.84557 0
M  V30 5988 H 563.531 3.04233 -2.46879 0
M  V30 5989 H 565.228 2.85723 -2.81359 0
M  V30 5990 H 561.818 1.87234 -3.8554 0
M  V30 5991 H 566.002 1.45763 -4.74412 0
M  V30 5992 H 561.258 0.908186 -6.04617 0
M  V30 5993 H 565.432 0.501626 -6.94591 0
M  V30 5994 H 563.059 0.22114 -7.59878 0
M  V30 5995 N 564.634 1.40294 0.718013 0
M  V30 5996 C 566.045 1.34289 1.29705 0
M  V30 5997 C 566.396 0.0152228 1.96194 0
M  V30 5998 O 565.521 -0.88682 1.97394 0
M  V30 5999 C 566.116 2.43219 2.3586 0
M  V30 6000 C 564.675 2.40682 2.89394 0
M  V30 6001 C 563.822 2.24223 1.63154 0
M  V30 6002 H 566.773 1.50135 0.514312 0
M  V30 6003 H 566.794 2.10986 3.16647 0
M  V30 6004 H 566.306 3.39836 1.87439 0
M  V30 6005 H 564.407 1.47756 3.42051 0
M  V30 6006 H 564.52 3.36177 3.41353 0
M  V30 6007 H 562.884 1.71696 1.88129 0
M  V30 6008 H 563.667 3.22834 1.16761 0
M  V30 6009 N 566.112 -0.949982 1.2575 0
M  V30 6010 C 567.022 -2.08109 1.08295 0
M  V30 6011 C 568.038 -1.7399 0.0188181 0
M  V30 6012 O 569.214 -2.00187 0.220724 0
M  V30 6013 C 566.279 -3.39383 0.708534 0
M  V30 6014 C 565.34 -3.8734 1.85111 0
M  V30 6015 C 564.573 -5.12349 1.49447 0
M  V30 6016 O 564.796 -5.6905 0.392212 0
M  V30 6017 O 563.73 -5.5513 2.32624 0
M  V30 6018 H 567.556 -2.25738 2.03165 0
M  V30 6019 H 565.141 -1.06545 1.04731 0
M  V30 6020 H 567.023 -4.18277 0.512061 0
M  V30 6021 H 565.698 -3.23013 -0.210854 0
M  V30 6022 H 564.605 -3.09429 2.10248 0
M  V30 6023 H 565.938 -4.08216 2.74991 0
M  V30 6024 N 567.59 -1.07411 -1.15328 0
M  V30 6025 C 568.838 -0.796073 -1.85761 0
M  V30 6026 C 569.159 0.679864 -1.82764 0
M  V30 6027 O 568.429 1.49242 -1.269 0
M  V30 6028 H 567.009 -0.291495 -0.687779 0
M  V30 6029 H 569.671 -1.35799 -1.39802 0
M  V30 6030 H 568.767 -1.13114 -2.90881 0
M  V30 6031 N 569.068 1.32177 -0.85831 0
M  V30 6032 C 570.315 1.97125 -0.463484 0
M  V30 6033 C 570.643 1.67907 0.981705 0
M  V30 6034 O 569.898 0.961717 1.70439 0
M  V30 6035 C 570.197 3.51372 -0.653658 0
M  V30 6036 C 569.863 4.00584 -2.06987 0
M  V30 6037 C 568.525 4.13733 -2.4572 0
M  V30 6038 C 570.877 4.26624 -2.99402 0
M  V30 6039 C 568.205 4.50268 -3.76132 0
M  V30 6040 C 570.557 4.64618 -4.29316 0
M  V30 6041 C 569.221 4.75975 -4.67979 0
M  V30 6042 H 568.491 0.72133 -0.169601 0
M  V30 6043 H 571.138 1.57517 -1.08907 0
M  V30 6044 H 569.443 3.91761 0.0551328 0
M  V30 6045 H 571.14 3.99655 -0.328163 0
M  V30 6046 H 567.73 3.90837 -1.75911 0
M  V30 6047 H 571.914 4.1597 -2.70708 0
M  V30 6048 H 567.17 4.57256 -4.05865 0
M  V30 6049 H 571.344 4.83722 -5.00985 0
M  V30 6050 H 568.971 5.04041 -5.69076 0
M  V30 6051 N 570.547 0.616602 1.45037 0
M  V30 6052 C 571.477 -0.0840787 2.33349 0
M  V30 6053 C 572.458 -0.849641 1.4736 0
M  V30 6054 O 573.643 -0.818407 1.76113 0
M  V30 6055 C 570.773 -1.07604 3.3021 0
M  V30 6056 C 569.727 -0.423096 4.25904 0
M  V30 6057 C 569.053 -1.52394 5.12523 0
M  V30 6058 C 570.353 0.661457 5.18095 0
M  V30 6059 H 572.047 0.653333 2.92185 0
M  V30 6060 H 569.593 0.315634 1.40498 0
M  V30 6061 H 571.546 -1.57485 3.90866 0
M  V30 6062 H 570.27 -1.84416 2.69552 0
M  V30 6063 H 568.929 0.05493 3.66559 0
M  V30 6064 H 568.577 -2.28257 4.48227 0
M  V30 6065 H 568.277 -1.09251 5.77354 0
M  V30 6066 H 569.801 -2.02485 5.76049 0
M  V30 6067 H 571.215 0.246353 5.7277 0
M  V30 6068 H 569.612 1.01517 5.91451 0
M  V30 6069 H 570.682 1.53446 4.59981 0
M  V30 6070 N 572.025 -1.5352 0.356285 0
M  V30 6071 C 573.271 -2.02104 -0.229271 0
M  V30 6072 C 573.626 -1.23923 -1.47176 0
M  V30 6073 O 572.919 -0.321957 -1.88876 0
M  V30 6074 C 573.113 -3.52607 -0.583369 0
M  V30 6075 C 572.942 -4.4536 0.623253 0
M  V30 6076 C 571.712 -4.92446 1.13248 0
M  V30 6077 C 573.91 -4.92375 1.48563 0
M  V30 6078 N 571.892 -5.69183 2.3001 0
M  V30 6079 C 573.263 -5.67362 2.50001 0
M  V30 6080 C 575.318 -4.74464 1.50959 0
M  V30 6081 C 574.021 -6.26341 3.5368 0
M  V30 6082 C 576.047 -5.34302 2.53526 0
M  V30 6083 C 575.409 -6.09166 3.53688 0
M  V30 6084 H 571.508 -0.780595 -0.0468602 0
M  V30 6085 H 574.092 -1.88204 0.49873 0
M  V30 6086 H 572.263 -3.66686 -1.28046 0
M  V30 6087 H 573.995 -3.87922 -1.15321 0
M  V30 6088 H 570.75 -4.6842 0.698562 0
M  V30 6089 H 571.174 -6.12216 2.88998 0
M  V30 6090 H 575.816 -4.16117 0.748785 0
M  V30 6091 H 573.534 -6.8379 4.30648 0
M  V30 6092 H 577.12 -5.22342 2.56223 0
M  V30 6093 H 576 -6.54644 4.31753 0
M  V30 6094 N 573.503 -0.0852151 -1.57369 0
M  V30 6095 C 574.751 0.579658 -1.93609 0
M  V30 6096 C 575.072 1.69332 -0.967043 0
M  V30 6097 O 574.342 1.95892 -0.0174215 0
M  V30 6098 H 572.922 0.217113 -0.714752 0
M  V30 6099 H 575.584 -0.146226 -1.94351 0
M  V30 6100 H 574.68 0.996276 -2.95771 0
M  V30 6101 N 574.981 1.5647 0.188427 0
M  V30 6102 C 575.944 1.9421 1.21718 0
M  V30 6103 C 576.944 0.823901 1.38089 0
M  V30 6104 O 578.134 1.09122 1.35787 0
M  V30 6105 C 575.266 2.22197 2.58537 0
M  V30 6106 H 576.459 2.86252 0.894418 0
M  V30 6107 H 574.012 1.50263 0.430211 0
M  V30 6108 H 574.747 1.32814 2.95856 0
M  V30 6109 H 574.532 3.03688 2.48025 0
M  V30 6110 H 576.022 2.52376 3.3271 0
M  V30 6111 N 576.459 -0.456382 1.50847 0
M  V30 6112 C 577.684 -1.2349 1.66628 0
M  V30 6113 C 578.109 -1.84715 0.355254 0
M  V30 6114 O 577.467 -1.67961 -0.682559 0
M  V30 6115 C 577.515 -2.30865 2.77009 0
M  V30 6116 O 576.619 -3.35882 2.39285 0
M  V30 6117 H 575.96 -0.36266 0.556214 0
M  V30 6118 H 578.49 -0.541374 1.97308 0
M  V30 6119 H 578.5 -2.75949 3.00526 0
M  V30 6120 H 577.175 -1.85677 3.72152 0
M  V30 6121 H 575.752 -2.96406 2.26269 0
M  V30 6122 N 577.937 -1.40673 -0.710563 0
M  V30 6123 C 579.165 -1.42547 -1.4996 0
M  V30 6124 C 579.58 -0.0265485 -1.88781 0
M  V30 6125 O 578.937 0.950694 -1.55782 0
M  V30 6126 C 578.988 -2.32071 -2.77173 0
M  V30 6127 O 578.709 -3.66518 -2.39992 0
M  V30 6128 C 580.21 -2.42591 -3.71032 0
M  V30 6129 H 577.43 -0.486025 -0.462623 0
M  V30 6130 H 579.974 -1.84783 -0.876102 0
M  V30 6131 H 578.129 -1.93184 -3.35795 0
M  V30 6132 H 578.543 -4.14115 -3.21884 0
M  V30 6133 H 580.017 -3.09429 -4.57119 0
M  V30 6134 H 580.494 -1.4525 -4.14486 0
M  V30 6135 H 581.1 -2.82051 -3.18319 0
M  V30 6136 N 579.415 0.9433 -1.26252 0
M  V30 6137 C 580.663 1.68592 -1.11451 0
M  V30 6138 C 580.984 1.91957 0.343123 0
M  V30 6139 O 580.254 1.51475 1.24226 0
M  V30 6140 H 578.834 0.624789 -0.409448 0
M  V30 6141 H 581.496 1.13351 -1.58548 0
M  V30 6142 H 580.592 2.66054 -1.63162 0
M  V30 6143 N 580.893 1.08022 1.14757 0
M  V30 6144 C 581.856 0.71048 2.1791 0
M  V30 6145 C 582.856 -0.252731 1.58801 0
M  V30 6146 O 584.046 -0.0327915 1.74169 0
M  V30 6147 C 581.178 0.0483203 3.40866 0
M  V30 6148 H 582.371 1.62384 2.52134 0
M  V30 6149 H 579.924 0.877595 1.29337 0
M  V30 6150 H 580.659 -0.876959 3.12218 0
M  V30 6151 H 580.444 0.741189 3.85031 0
M  V30 6152 H 581.934 -0.195471 4.17142 0
M  V30 6153 N 582.371 -1.3172 0.865308 0
M  V30 6154 C 583.618 -1.96876 0.473931 0
M  V30 6155 C 583.946 -1.68425 -0.972786 0
M  V30 6156 O 583.201 -0.970742 -1.69927 0
M  V30 6157 C 583.5 -3.5102 0.672283 0
M  V30 6158 C 583.166 -3.9948 2.09108 0
M  V30 6159 C 581.828 -4.12425 2.4791 0
M  V30 6160 C 584.18 -4.2503 3.0166 0
M  V30 6161 C 581.508 -4.48267 3.78515 0
M  V30 6162 C 583.86 -4.62335 4.31774 0
M  V30 6163 C 582.524 -4.73486 4.70497 0
M  V30 6164 H 581.794 -0.72042 0.173424 0
M  V30 6165 H 584.441 -1.56937 1.0974 0
M  V30 6166 H 582.746 -3.91785 -0.034356 0
M  V30 6167 H 584.443 -3.99475 0.349353 0
M  V30 6168 H 581.033 -3.89898 1.77981 0
M  V30 6169 H 585.217 -4.14529 2.7291 0
M  V30 6170 H 580.473 -4.55097 4.08285 0
M  V30 6171 H 584.647 -4.81058 5.03543 0
M  V30 6172 H 582.274 -5.01016 5.71741 0
M  V30 6173 N 583.85 -0.624285 -1.44708 0
M  V30 6174 C 584.798 0.0969952 -2.32398 0
M  V30 6175 C 585.792 0.842762 -1.46949 0
M  V30 6176 O 586.998 0.756436 -1.63334 0
M  V30 6177 H 583.373 0.0501306 -0.750327 0
M  V30 6178 H 585.344 -0.660767 -2.90992 0
M  V30 6179 C 584.093 1.06967 -3.30837 0
M  V30 6180 H 583.416 0.505242 -3.96595 0
M  V30 6181 H 584.856 1.54397 -3.94889 0
M  V30 6182 C 583.315 2.15153 -2.5925 0
M  V30 6183 O 583.845 3.23139 -2.3863 0
M  V30 6184 N 582.051 1.90898 -2.19103 0
M  V30 6185 H 581.598 1.03086 -2.36074 0
M  V30 6186 H 581.556 2.63485 -1.71531 0
M  V30 6187 N 585.328 1.53329 -0.364422 0
M  V30 6188 C 586.574 2.01537 0.225969 0
M  V30 6189 C 586.907 1.25128 1.48515 0
M  V30 6190 O 586.182 0.344653 1.91422 0
M  V30 6191 C 586.465 3.56339 0.519092 0
M  V30 6192 C 586.318 4.43441 -0.753639 0
M  V30 6193 C 587.637 4.19833 1.32015 0
M  V30 6194 H 584.756 0.732573 0.0806548 0
M  V30 6195 H 587.398 1.83597 -0.489084 0
M  V30 6196 H 585.548 3.71756 1.12825 0
M  V30 6197 H 587.22 4.39823 -1.39116 0
M  V30 6198 H 585.463 4.11457 -1.37424 0
M  V30 6199 H 586.134 5.49699 -0.503517 0
M  V30 6200 H 588.61 4.08242 0.804859 0
M  V30 6201 H 587.486 5.28177 1.49399 0
M  V30 6202 H 587.747 3.75821 2.32832 0
M  V30 6203 N 586.806 0.0935595 1.57322 0
M  V30 6204 C 587.716 -0.880192 2.17462 0
M  V30 6205 C 588.732 -1.31135 1.14366 0
M  V30 6206 O 589.908 -1.37958 1.46729 0
M  V30 6207 C 586.973 -2.12184 2.74188 0
M  V30 6208 C 586.034 -1.74503 3.92234 0
M  V30 6209 C 585.267 -2.92748 4.46245 0
M  V30 6210 O 585.49 -4.07427 3.99198 0
M  V30 6211 O 584.424 -2.71303 5.37288 0
M  V30 6212 H 588.25 -0.398516 3.01074 0
M  V30 6213 H 585.835 -0.130707 1.48827 0
M  V30 6214 H 587.717 -2.84953 3.10451 0
M  V30 6215 H 586.392 -2.59407 1.93623 0
M  V30 6216 H 585.299 -0.989186 3.60785 0
M  V30 6217 H 586.632 -1.32044 4.74157 0
M  V30 6218 N 588.284 -1.56567 -0.180126 0
M  V30 6219 C 589.532 -1.81133 -0.896392 0
M  V30 6220 C 589.853 -0.669114 -1.83161 0
M  V30 6221 O 589.123 0.311616 -1.93406 0
M  V30 6222 H 587.703 -0.668172 -0.333999 0
M  V30 6223 H 590.365 -1.94048 -0.182051 0
M  V30 6224 H 589.461 -2.74854 -1.47857 0
M  V30 6225 N 589.762 0.448376 -1.51087 0
M  V30 6226 C 591.01 1.19635 -1.62886 0
M  V30 6227 C 591.331 1.91977 -0.342024 0
M  V30 6228 O 590.601 1.85094 0.641636 0
M  V30 6229 H 589.181 0.444598 -0.600285 0
M  V30 6230 H 591.843 0.515138 -1.87969 0
M  V30 6231 H 590.939 1.93194 -2.45117 0
M  V30 6232 N 591.24 1.41047 0.703093 0
M  V30 6233 C 592.486 1.41209 1.46396 0
M  V30 6234 C 592.841 0.0180188 1.92392 0
M  V30 6235 O 592.134 -0.954739 1.66118 0
M  V30 6236 C 592.328 2.34686 2.6955 0
M  V30 6237 C 592.157 3.83044 2.35601 0
M  V30 6238 C 590.927 4.51777 2.26331 0
M  V30 6239 C 593.125 4.74215 1.9906 0
M  V30 6240 N 591.107 5.85302 1.85188 0
M  V30 6241 C 592.478 5.96631 1.68616 0
M  V30 6242 C 594.533 4.61932 1.85805 0
M  V30 6243 C 593.236 7.08134 1.26249 0
M  V30 6244 C 595.262 5.73389 1.44842 0
M  V30 6245 C 594.624 6.94899 1.15304 0
M  V30 6246 H 590.723 0.571951 0.533288 0
M  V30 6247 H 593.307 1.76859 0.814179 0
M  V30 6248 H 591.478 2.01143 3.32259 0
M  V30 6249 H 593.21 2.25618 3.35974 0
M  V30 6250 H 589.965 4.05618 2.44482 0
M  V30 6251 H 590.389 6.56049 1.67119 0
M  V30 6252 H 595.031 3.68494 2.07298 0
M  V30 6253 H 592.749 8.01445 1.035 0
M  V30 6254 H 596.335 5.65886 1.35146 0
M  V30 6255 H 595.215 7.79679 0.840854 0
M  V30 6256 N 592.718 -0.936591 1.26751 0
M  V30 6257 C 593.681 -2.01752 1.08761 0
M  V30 6258 C 594.681 -1.60763 0.0344435 0
M  V30 6259 O 595.871 -1.71963 0.278258 0
M  V30 6260 C 593.003 -3.34543 0.655271 0
M  V30 6261 H 594.196 -2.19143 2.04735 0
M  V30 6262 H 591.749 -1.11618 1.09413 0
M  V30 6263 H 592.484 -3.22851 -0.30626 0
M  V30 6264 H 592.269 -3.65647 1.41578 0
M  V30 6265 H 593.759 -4.13944 0.551378 0
M  V30 6266 N 594.196 -1.08629 -1.14182 0
M  V30 6267 C 595.106 -0.730126 -2.22949 0
M  V30 6268 C 596.122 0.26436 -1.7198 0
M  V30 6269 O 597.298 0.107742 -2.01112 0
M  V30 6270 C 594.363 -0.147227 -3.46387 0
M  V30 6271 C 593.424 -1.19662 -4.12286 0
M  V30 6272 C 592.657 -0.641437 -5.29831 0
M  V30 6273 O 592.88 0.538351 -5.67854 0
M  V30 6274 O 591.814 -1.39257 -5.85569 0
M  V30 6275 H 595.64 -1.63753 -2.55771 0
M  V30 6276 H 593.225 -0.860118 -1.22157 0
M  V30 6277 H 595.107 0.174923 -4.21037 0
M  V30 6278 H 593.782 0.733304 -3.15285 0
M  V30 6279 H 592.689 -1.57133 -3.395 0
M  V30 6280 H 594.022 -2.0495 -4.475 0
M  V30 6281 N 595.674 1.31259 -0.872281 0
M  V30 6282 C 596.922 1.96233 -0.483409 0
M  V30 6283 C 597.243 1.69276 0.968012 0
M  V30 6284 O 596.513 1.00943 1.67891 0
M  V30 6285 H 595.093 0.726025 -0.175774 0
M  V30 6286 H 597.755 1.60024 -1.11258 0
M  V30 6287 H 596.851 3.05403 -0.643075 0
M  V30 6288 N 597.152 0.631951 1.44375 0
M  V30 6289 C 598.4 0.136497 2.01639 0
M  V30 6290 C 598.721 -1.24637 1.49969 0
M  V30 6291 O 597.991 -1.82827 0.70363 0
M  V30 6292 H 596.571 0.0474703 0.74549 0
M  V30 6293 H 599.233 0.818837 1.76865 0
M  V30 6294 H 598.329 0.104817 3.11924 0
M  V30 6295 N 598.631 -1.53133 0.372548 0
M  V30 6296 C 600.047 -1.59585 0.02178 0
M  V30 6297 C 600.247 -1.38736 -1.46132 0
M  V30 6298 O 599.303 -1.19599 -2.22379 0
M  V30 6299 C 600.616 -2.9678 0.483959 0
M  V30 6300 C 602.164 -3.09909 0.438775 0
M  V30 6301 C 602.639 -4.49527 0.876876 0
M  V30 6302 N 604.13 -4.55663 0.832214 0
M  V30 6303 C 604.865 -5.61896 1.14281 0
M  V30 6304 N 604.361 -6.75852 1.52303 0
M  V30 6305 N 606.154 -5.51916 1.06515 0
M  V30 6306 H 598.305 -1.64936 1.33827 0
M  V30 6307 H 600.568 -0.773947 0.547458 0
M  V30 6308 H 600.274 -3.17198 1.51915 0
M  V30 6309 H 600.148 -3.7699 -0.125784 0
M  V30 6310 H 602.535 -2.89197 -0.587294 0
M  V30 6311 H 602.616 -2.31691 1.0841 0
M  V30 6312 H 602.26 -4.70979 1.90109 0
M  V30 6313 H 602.19 -5.26186 0.208727 0
M  V30 6314 H 604.681 -3.73844 0.552195 0
M  V30 6315 H 604.994 -7.52862 1.7441 0
M  V30 6316 H 603.339 -6.77226 1.56175 0
M  V30 6317 H 606.53 -4.6177 0.767235 0
M  V30 6318 H 606.703 -6.34609 1.31053 0
M  V30 6319 N 600.109 -0.101901 -1.5727 0
M  V30 6320 C 601.357 0.559091 -1.94213 0
M  V30 6321 C 601.678 1.68297 -0.984948 0
M  V30 6322 O 600.948 1.95863 -0.0381975 0
M  V30 6323 H 599.528 0.20952 -0.717015 0
M  V30 6324 H 602.19 -0.166831 -1.94185 0
M  V30 6325 H 601.286 0.96485 -2.96811 0
M  V30 6326 N 601.587 1.56661 0.17182 0
M  V30 6327 C 602.833 1.82235 0.889845 0
M  V30 6328 C 603.166 0.679673 1.81918 0
M  V30 6329 O 602.441 -0.318404 1.91876 0
M  V30 6330 C 602.724 3.18195 1.68595 0
M  V30 6331 C 602.577 4.42989 0.779773 0
M  V30 6332 C 603.896 3.5109 2.65375 0
M  V30 6333 H 601.015 0.66291 0.322056 0
M  V30 6334 H 603.657 1.89358 0.15608 0
M  V30 6335 H 601.807 3.12253 2.3115 0
M  V30 6336 H 603.479 4.60997 0.16714 0
M  V30 6337 H 601.722 4.33711 0.0877964 0
M  V30 6338 H 602.393 5.3467 1.3723 0
M  V30 6339 H 604.869 3.57482 2.12946 0
M  V30 6340 H 603.745 4.47298 3.18144 0
M  V30 6341 H 604.006 2.75768 3.45549 0
M  V30 6342 N 603.065 -0.440357 1.51323 0
M  V30 6343 C 604.29 -1.21716 1.67928 0
M  V30 6344 C 604.715 -1.84328 0.374826 0
M  V30 6345 O 604.073 -1.68675 -0.664706 0
M  V30 6346 C 604.121 -2.27914 2.79442 0
M  V30 6347 O 603.225 -3.33325 2.42834 0
M  V30 6348 H 602.566 -0.35674 0.560029 0
M  V30 6349 H 605.096 -0.520417 1.97871 0
M  V30 6350 H 605.106 -2.72746 3.03436 0
M  V30 6351 H 603.781 -1.8172 3.741 0
M  V30 6352 H 602.358 -2.9399 2.294 0
M  V30 6353 N 604.543 -1.41418 -0.695603 0
M  V30 6354 C 605.792 -1.40073 -1.4513 0
M  V30 6355 C 606.105 -0.0130439 -1.95596 0
M  V30 6356 O 607.311 0.123032 -2.71221 0
M  V30 6357 C 605.767 -2.46286 -2.62433 0
M  V30 6358 C 605.375 -3.90962 -2.18753 0
M  V30 6359 C 607.119 -2.54077 -3.40066 0
M  V30 6360 C 605.026 -4.88728 -3.33015 0
M  V30 6361 H 603.956 -0.520903 -0.545138 0
M  V30 6362 H 606.607 -1.67242 -0.75515 0
M  V30 6363 H 604.989 -2.12248 -3.34315 0
M  V30 6364 H 606.163 -4.34248 -1.54161 0
M  V30 6365 H 604.478 -3.86831 -1.54114 0
M  V30 6366 H 607.075 -3.24303 -4.25125 0
M  V30 6367 H 607.418 -1.5776 -3.8525 0
M  V30 6368 H 607.951 -2.87206 -2.75241 0
M  V30 6369 H 604.69 -5.86449 -2.92844 0
M  V30 6370 H 604.21 -4.50091 -3.96457 0
M  V30 6371 H 605.889 -5.09483 -3.98793 0
M  V30 6372 N 606.021 0.929856 -1.27246 0
M  V30 6373 C 607.267 1.6802 -1.14634 0
M  V30 6374 C 607.622 1.89965 0.305151 0
M  V30 6375 O 606.915 1.47737 1.22001 0
M  V30 6376 C 607.109 3.05116 -1.86115 0
M  V30 6377 C 606.938 2.96549 -3.38066 0
M  V30 6378 C 605.708 2.98947 -4.0738 0
M  V30 6379 C 607.906 2.7583 -4.34077 0
M  V30 6380 N 605.888 2.80799 -5.45917 0
M  V30 6381 C 607.259 2.66364 -5.59866 0
M  V30 6382 C 609.314 2.60701 -4.24193 0
M  V30 6383 C 608.017 2.43313 -6.76898 0
M  V30 6384 C 610.043 2.39026 -5.40944 0
M  V30 6385 C 609.405 2.30302 -6.65688 0
M  V30 6386 H 605.504 0.62172 -0.474329 0
M  V30 6387 H 608.088 1.09947 -1.60685 0
M  V30 6388 H 606.259 3.61306 -1.42522 0
M  V30 6389 H 607.991 3.69076 -1.66027 0
M  V30 6390 H 604.746 3.09093 -3.58829 0
M  V30 6391 H 605.17 2.74861 -6.18692 0
M  V30 6392 H 609.812 2.66206 -3.28473 0
M  V30 6393 H 607.53 2.36548 -7.72704 0
M  V30 6394 H 611.116 2.28208 -5.35175 0
M  V30 6395 H 609.996 2.13756 -7.54505 0
M  V30 6396 N 607.499 1.09233 1.13605 0
M  V30 6397 C 608.776 0.739633 1.81077 0
M  V30 6398 C 609.156 -0.775595 1.96336 0
M  V30 6399 O 608.504 -1.69726 1.52988 0
M  V30 6400 C 608.714 1.47636 3.16235 0
M  V30 6401 C 610.062 1.64087 3.91613 0
M  V30 6402 O 611.086 1.43871 3.25852 0
M  V30 6403 O 609.945 1.97511 5.0956 0
M  V30 6404 H 607.039 0.265464 0.783236 0
M  V30 6405 H 609.585 1.19441 1.20549 0
M  V30 6406 H 608.357 2.50818 3.00344 0
M  V30 6407 H 607.98 1.01362 3.84462 0
M  V30 6408 N 608.977 -1.30795 0.87923 0
M  V30 6409 C 610.388 -1.78535 0.546093 0
M  V30 6410 C 610.739 -1.72354 -0.937467 0
M  V30 6411 O 609.864 -1.2969 -1.73233 0
M  V30 6412 C 610.459 -3.24181 0.9845 0
M  V30 6413 C 609.018 -3.69779 0.702871 0
M  V30 6414 C 608.165 -2.51377 1.17068 0
M  V30 6415 H 611.116 -1.17746 1.06403 0
M  V30 6416 H 611.137 -3.79227 0.311045 0
M  V30 6417 H 610.649 -3.28647 2.06429 0
M  V30 6418 H 608.75 -3.70806 -0.365166 0
M  V30 6419 H 608.863 -4.61507 1.28639 0
M  V30 6420 H 607.227 -2.47768 0.590172 0
M  V30 6421 H 608.01 -2.58584 2.25808 0
M  V30 6422 N 610.455 -0.639598 -1.44038 0
M  V30 6423 C 611.871 -0.305953 -1.5664 0
M  V30 6424 C 612.071 1.19055 -1.62567 0
M  V30 6425 O 611.127 1.97492 -1.57331 0
M  V30 6426 C 612.44 -1.00533 -2.83397 0
M  V30 6427 C 613.988 -0.984278 -2.97121 0
M  V30 6428 C 614.463 -1.66428 -4.26691 0
M  V30 6429 N 615.954 -1.63127 -4.33525 0
M  V30 6430 C 616.689 -2.12629 -5.32519 0
M  V30 6431 N 616.185 -2.70359 -6.3787 0
M  V30 6432 N 617.978 -2.03208 -5.24083 0
M  V30 6433 H 610.129 -1.6109 -1.38434 0
M  V30 6434 H 612.392 -0.676672 -0.663942 0
M  V30 6435 H 612.098 -2.06034 -2.85032 0
M  V30 6436 H 611.972 -0.548362 -3.73193 0
M  V30 6437 H 614.359 0.0622792 -2.95034 0
M  V30 6438 H 614.44 -1.47981 -2.08651 0
M  V30 6439 H 614.084 -2.71034 -4.29538 0
M  V30 6440 H 614.014 -1.14351 -5.14034 0
M  V30 6441 H 616.505 -1.20987 -3.58009 0
M  V30 6442 H 616.818 -3.05842 -7.09704 0
M  V30 6443 H 615.163 -2.74414 -6.38531 0
M  V30 6444 H 618.354 -1.57823 -4.40692 0
M  V30 6445 H 618.527 -2.42097 -6.01077 0
M  V30 6446 N 611.933 1.52934 -0.380664 0
M  V30 6447 C 613.349 1.59571 -0.0302429 0
M  V30 6448 C 613.549 1.39509 1.45394 0
M  V30 6449 O 612.605 1.20777 2.21741 0
M  V30 6450 C 613.918 2.96519 -0.499691 0
M  V30 6451 C 615.466 3.09672 -0.455204 0
M  V30 6452 C 615.941 4.49056 -0.900703 0
M  V30 6453 N 617.432 4.55215 -0.856367 0
M  V30 6454 C 618.167 5.61282 -1.17259 0
M  V30 6455 N 617.663 6.75035 -1.55885 0
M  V30 6456 N 619.456 5.51343 -1.0944 0
M  V30 6457 H 611.607 1.64224 -1.347 0
M  V30 6458 H 613.87 0.771033 -0.551554 0
M  V30 6459 H 613.576 3.16388 -1.53595 0
M  V30 6460 H 613.45 3.77052 0.105789 0
M  V30 6461 H 615.837 2.89504 0.571949 0
M  V30 6462 H 615.918 2.31113 -1.09638 0
M  V30 6463 H 615.562 4.69964 -1.92604 0
M  V30 6464 H 615.492 5.26068 -0.236629 0
M  V30 6465 H 617.983 3.73546 -0.572013 0
M  V30 6466 H 618.296 7.51926 -1.784 0
M  V30 6467 H 616.641 6.76388 -1.59764 0
M  V30 6468 H 619.832 4.61356 -0.791713 0
M  V30 6469 H 620.005 6.33905 -1.34417 0
M  V30 6470 N 613.412 0.11024 1.57214 0
M  V30 6471 C 614.823 -0.416527 1.81994 0
M  V30 6472 C 615.174 -1.67183 1.02686 0
M  V30 6473 O 614.299 -2.14823 0.260782 0
M  V30 6474 C 614.894 -0.762466 3.30109 0
M  V30 6475 C 613.453 -1.23391 3.556 0
M  V30 6476 C 612.6 -0.238166 2.76275 0
M  V30 6477 H 615.551 0.335491 1.55113 0
M  V30 6478 H 615.572 -1.62068 3.44259 0
M  V30 6479 H 615.084 0.151346 3.87805 0
M  V30 6480 H 613.185 -2.16492 3.03253 0
M  V30 6481 H 613.298 -1.18528 4.64207 0
M  V30 6482 H 611.662 -0.723421 2.4421 0
M  V30 6483 H 612.445 0.668591 3.36727 0
M  V30 6484 N 614.89 -1.56749 -0.16351 0
M  V30 6485 C 615.82 -2.00042 -1.20438 0
M  V30 6486 C 616.801 -0.877256 -1.45733 0
M  V30 6487 O 617.986 -1.1439 -1.56935 0
M  V30 6488 C 615.116 -2.36697 -2.54149 0
M  V30 6489 C 614.07 -3.52046 -2.43408 0
M  V30 6490 C 613.396 -3.74466 -3.81679 0
M  V30 6491 C 614.696 -4.85247 -1.93216 0
M  V30 6492 H 616.39 -2.87244 -0.844477 0
M  V30 6493 H 613.936 -1.38194 -0.40478 0
M  V30 6494 H 615.889 -2.65582 -3.27176 0
M  V30 6495 H 614.613 -1.46414 -2.91943 0
M  V30 6496 H 613.272 -3.23301 -1.72834 0
M  V30 6497 H 612.92 -2.81461 -4.1688 0
M  V30 6498 H 612.62 -4.52084 -3.75359 0
M  V30 6499 H 614.144 -4.0576 -4.5628 0
M  V30 6500 H 615.558 -5.12957 -2.56023 0
M  V30 6501 H 613.955 -5.66556 -1.97825 0
M  V30 6502 H 615.025 -4.7672 -0.88689 0
M  V30 6503 N 616.368 0.432326 -1.51554 0
M  V30 6504 C 617.316 1.54572 -1.73811 0
M  V30 6505 C 618.31 1.58246 -0.604539 0
M  V30 6506 O 619.516 1.6193 -0.786041 0
M  V30 6507 H 615.891 0.513626 -0.549265 0
M  V30 6508 H 617.862 1.32977 -2.67132 0
M  V30 6509 C 616.611 2.92181 -1.88483 0
M  V30 6510 H 615.934 2.90088 -2.75116 0
M  V30 6511 H 617.374 3.69439 -2.08065 0
M  V30 6512 C 615.833 3.3065 -0.645909 0
M  V30 6513 O 616.363 4.01216 0.197093 0
M  V30 6514 N 614.569 2.86464 -0.488538 0
M  V30 6515 H 614.116 2.29209 -1.17562 0
M  V30 6516 H 614.074 3.12565 0.339156 0
M  V30 6517 N 617.846 1.41785 0.688094 0
M  V30 6518 C 619.074 1.44915 1.47673 0
M  V30 6519 C 619.489 0.0565786 1.88715 0
M  V30 6520 O 618.846 -0.92579 1.57275 0
M  V30 6521 C 618.897 2.36452 2.73446 0
M  V30 6522 O 618.618 3.7029 2.34131 0
M  V30 6523 C 620.119 2.48463 3.67125 0
M  V30 6524 H 617.339 0.493324 0.454832 0
M  V30 6525 H 619.883 1.86153 0.846594 0
M  V30 6526 H 618.038 1.98502 3.3268 0
M  V30 6527 H 618.452 4.19183 3.15255 0
M  V30 6528 H 619.926 3.16662 4.52138 0
M  V30 6529 H 620.403 1.51826 4.12123 0
M  V30 6530 H 621.009 2.8708 3.13792 0
M  V30 6531 N 619.324 -0.923095 1.27737 0
M  V30 6532 C 620.552 -1.70525 1.17171 0
M  V30 6533 C 620.967 -1.86847 -0.270881 0
M  V30 6534 O 620.324 -1.38879 -1.18401 0
M  V30 6535 C 620.375 -3.10242 1.85559 0
M  V30 6536 O 620.096 -2.94683 3.24182 0
M  V30 6537 C 621.597 -4.04586 1.81176 0
M  V30 6538 H 618.817 -0.533347 0.407163 0
M  V30 6539 H 621.361 -1.15599 1.68692 0
M  V30 6540 H 619.516 -3.62014 1.3793 0
M  V30 6541 H 619.93 -3.83045 3.58297 0
M  V30 6542 H 621.404 -5.00119 2.33633 0
M  V30 6543 H 621.881 -4.3218 0.782099 0
M  V30 6544 H 622.487 -3.58741 2.2844 0
M  V30 6545 N 620.802 -1.09834 -1.13024 0
M  V30 6546 C 621.712 -0.753731 -2.22162 0
M  V30 6547 C 622.728 0.246105 -1.72251 0
M  V30 6548 O 623.904 0.0864051 -2.01215 0
M  V30 6549 C 620.969 -0.183958 -3.46212 0
M  V30 6550 C 620.03 -1.24028 -4.10993 0
M  V30 6551 C 619.263 -0.697597 -5.29121 0
M  V30 6552 O 619.486 0.478092 -5.68393 0
M  V30 6553 O 618.42 -1.4546 -5.84059 0
M  V30 6554 H 622.246 -1.66456 -2.5402 0
M  V30 6555 H 619.831 -0.873026 -1.21238 0
M  V30 6556 H 621.713 0.130257 -4.21199 0
M  V30 6557 H 620.388 0.699823 -3.16045 0
M  V30 6558 H 619.295 -1.60725 -3.37814 0
M  V30 6559 H 620.628 -2.09685 -4.45301 0
M  V30 6560 N 622.28 1.30327 -0.886154 0
M  V30 6561 C 623.528 1.9571 -0.504195 0
M  V30 6562 C 623.849 1.70294 0.950003 0
M  V30 6563 O 623.119 1.02718 1.66811 0
M  V30 6564 H 621.699 0.72412 -0.183465 0
M  V30 6565 H 624.361 1.58835 -1.12949 0
M  V30 6566 H 623.457 3.04704 -0.675431 0
M  V30 6567 N 623.758 0.647228 1.43697 0
M  V30 6568 C 624.69 -0.0866232 2.29036 0
M  V30 6569 C 625.703 -0.793051 1.42178 0
M  V30 6570 O 626.892 -0.651807 1.66174 0
M  V30 6571 C 623.992 -1.14552 3.18953 0
M  V30 6572 C 623.165 -0.518422 4.34317 0
M  V30 6573 C 622.224 -1.4734 5.05151 0
M  V30 6574 O 621.25 -0.984312 5.60625 0
M  V30 6575 N 622.452 -2.8075 5.08094 0
M  V30 6576 H 625.217 0.645834 2.92659 0
M  V30 6577 H 622.778 0.489567 1.54321 0
M  V30 6578 H 624.77 -1.78505 3.63205 0
M  V30 6579 H 623.34 -1.78001 2.56971 0
M  V30 6580 H 622.56 0.300079 3.93056 0
M  V30 6581 H 623.848 -0.080401 5.08736 0
M  V30 6582 H 623.246 -3.23052 4.64386 0
M  V30 6583 H 621.803 -3.40022 5.56083 0
M  V30 6584 N 625.236 -1.5273 0.388769 0
M  V30 6585 C 626.199 -2.25043 -0.434544 0
M  V30 6586 C 627.199 -1.26661 -0.990644 0
M  V30 6587 O 628.389 -1.50762 -0.872731 0
M  V30 6588 C 625.521 -3.00507 -1.60961 0
M  V30 6589 H 626.714 -2.99242 0.198549 0
M  V30 6590 H 624.267 -1.55664 0.140875 0
M  V30 6591 H 625.002 -2.30607 -2.28015 0
M  V30 6592 H 624.787 -3.72716 -1.21757 0
M  V30 6593 H 626.277 -3.55413 -2.19251 0
M  V30 6594 N 626.714 -0.118576 -1.57153 0
M  V30 6595 C 627.942 0.54726 -1.99531 0
M  V30 6596 C 628.357 1.60251 -0.998246 0
M  V30 6597 O 627.714 1.82498 0.00893106 0
M  V30 6598 C 627.765 1.17378 -3.41913 0
M  V30 6599 O 627.486 0.160703 -4.37805 0
M  V30 6600 C 628.987 1.92297 -3.9942 0
M  V30 6601 H 626.207 0.144919 -0.655164 0
M  V30 6602 H 628.751 -0.20479 -2.03472 0
M  V30 6603 H 626.906 1.87661 -3.38913 0
M  V30 6604 H 627.32 0.61586 -5.20872 0
M  V30 6605 H 628.794 2.31462 -5.01128 0
M  V30 6606 H 629.271 2.79801 -3.38538 0
M  V30 6607 H 629.877 1.26777 -4.05965 0
M  V30 6608 N 628.193 1.56834 0.155195 0
M  V30 6609 C 629.123 2.00678 1.19376 0
M  V30 6610 C 630.104 0.884973 1.45266 0
M  V30 6611 O 631.289 1.1522 1.56326 0
M  V30 6612 C 628.419 2.38042 2.5289 0
M  V30 6613 C 627.373 3.53332 2.41538 0
M  V30 6614 C 626.699 3.76485 3.79688 0
M  V30 6615 C 627.999 4.86265 1.9064 0
M  V30 6616 H 629.693 2.87688 0.829232 0
M  V30 6617 H 627.239 1.38407 0.397445 0
M  V30 6618 H 629.192 2.67314 3.25763 0
M  V30 6619 H 627.916 1.4796 2.91162 0
M  V30 6620 H 626.575 3.24213 1.71117 0
M  V30 6621 H 626.223 2.83667 4.15382 0
M  V30 6622 H 625.923 4.54068 3.72956 0
M  V30 6623 H 627.447 4.08174 4.54122 0
M  V30 6624 H 628.861 5.14308 2.53299 0
M  V30 6625 H 627.258 5.67597 1.94818 0
M  V30 6626 H 628.328 4.77184 0.861596 0
M  V30 6627 N 629.671 -0.424282 1.51781 0
M  V30 6628 C 630.581 -1.54087 1.76902 0
M  V30 6629 C 631.597 -1.61249 0.653826 0
M  V30 6630 O 632.773 -1.78247 0.937552 0
M  V30 6631 C 629.838 -2.8996 1.90063 0
M  V30 6632 C 628.899 -2.92809 3.13945 0
M  V30 6633 C 628.132 -4.22201 3.26469 0
M  V30 6634 O 628.355 -5.15286 2.44616 0
M  V30 6635 O 627.289 -4.31599 4.1953 0
M  V30 6636 H 631.115 -1.358 2.71647 0
M  V30 6637 H 628.7 -0.608618 1.36441 0
M  V30 6638 H 630.582 -3.70575 2.0063 0
M  V30 6639 H 629.257 -3.08347 0.985067 0
M  V30 6640 H 628.164 -2.11102 3.08847 0
M  V30 6641 H 629.497 -2.79369 4.05233 0
M  V30 6642 N 631.149 -1.42148 -0.680565 0
M  V30 6643 C 632.395 -1.42521 -1.44277 0
M  V30 6644 C 632.728 -0.0393718 -1.9416 0
M  V30 6645 O 632.003 0.935425 -1.70529 0
M  V30 6646 C 632.286 -2.44475 -2.64394 0
M  V30 6647 C 632.139 -3.92226 -2.20179 0
M  V30 6648 C 633.458 -2.43491 -3.66606 0
M  V30 6649 H 630.577 -0.518985 -0.523282 0
M  V30 6650 H 633.219 -1.73524 -0.773914 0
M  V30 6651 H 631.369 -2.18168 -3.21458 0
M  V30 6652 H 633.041 -4.29493 -1.68327 0
M  V30 6653 H 631.284 -4.0637 -1.5181 0
M  V30 6654 H 631.955 -4.59133 -3.06433 0
M  V30 6655 H 634.431 -2.66872 -3.19247 0
M  V30 6656 H 633.307 -3.16816 -4.4824 0
M  V30 6657 H 633.568 -1.45881 -4.17338 0
M  V30 6658 N 632.627 0.916307 -1.28225 0
M  V30 6659 C 633.59 1.99996 -1.11957 0
M  V30 6660 C 634.59 1.60688 -0.0600152 0
M  V30 6661 O 635.78 1.71499 -0.30558 0
M  V30 6662 C 632.912 3.33458 -0.708411 0
M  V30 6663 H 634.105 2.15858 -2.08196 0
M  V30 6664 H 631.658 1.09863 -1.11175 0
M  V30 6665 H 632.393 3.23297 0.254859 0
M  V30 6666 H 632.178 3.63349 -1.47377 0
M  V30 6667 H 633.668 4.13014 -0.617164 0
M  V30 6668 N 634.105 1.10431 1.1244 0
M  V30 6669 C 635.33 0.869089 1.88313 0
M  V30 6670 C 635.755 -0.574912 1.79099 0
M  V30 6671 O 635.113 -1.40496 1.14589 0
M  V30 6672 C 635.161 1.32208 3.3549 0
M  V30 6673 O 634.265 0.487092 4.09513 0
M  V30 6674 H 633.606 0.313894 0.585121 0
M  V30 6675 H 636.136 1.47111 1.42195 0
M  V30 6676 H 636.146 1.31201 3.86329 0
M  V30 6677 H 634.821 2.37364 3.41513 0
M  V30 6678 H 633.398 0.562372 3.68635 0
M  V30 6679 N 635.583 -1.29855 0.893053 0
M  V30 6680 C 636.86 -1.90694 0.435336 0
M  V30 6681 C 637.24 -1.8111 -1.08454 0
M  V30 6682 O 636.588 -1.23352 -1.92345 0
M  V30 6683 C 636.798 -3.36033 0.942472 0
M  V30 6684 C 638.146 -4.13083 0.982226 0
M  V30 6685 O 639.17 -3.4491 0.889686 0
M  V30 6686 O 638.029 -5.34896 1.12022 0
M  V30 6687 H 635.123 -0.815978 0.134567 0
M  V30 6688 H 637.669 -1.38367 0.982484 0
M  V30 6689 H 636.441 -3.37132 1.9864 0
M  V30 6690 H 636.064 -3.95828 0.374952 0
M  V30 6691 N 637.061 -0.65484 -1.43351 0
M  V30 6692 C 638.286 -0.175046 -2.0666 0
M  V30 6693 C 638.711 1.15104 -1.4877 0
M  V30 6694 O 638.069 1.71144 -0.598279 0
M  V30 6695 C 638.117 -0.0991544 -3.60464 0
M  V30 6696 O 637.221 0.938169 -4.01587 0
M  V30 6697 H 636.562 -0.0956148 -0.65708 0
M  V30 6698 H 639.092 -0.898222 -1.83829 0
M  V30 6699 H 639.102 0.083632 -4.07914 0
M  V30 6700 H 637.777 -1.06719 -4.01975 0
M  V30 6701 H 636.354 0.72804 -3.65724 0
M  V30 6702 N 638.539 1.52521 -0.396863 0
M  V30 6703 C 639.769 2.05792 0.182485 0
M  V30 6704 C 640.177 1.26784 1.40436 0
M  V30 6705 O 639.52 0.309617 1.81072 0
M  V30 6706 C 639.582 3.54291 0.609781 0
M  V30 6707 C 639.246 4.5426 -0.499674 0
M  V30 6708 C 640.243 5.01812 -1.35944 0
M  V30 6709 C 637.928 4.97827 -0.668864 0
M  V30 6710 C 639.922 5.91562 -2.37346 0
M  V30 6711 C 637.609 5.87376 -1.68621 0
M  V30 6712 C 638.607 6.34137 -2.53692 0
M  V30 6713 O 638.295 7.21915 -3.53686 0
M  V30 6714 H 638.027 0.675362 0.0293583 0
M  V30 6715 H 640.581 1.97539 -0.56281 0
M  V30 6716 H 638.811 3.60188 1.40717 0
M  V30 6717 H 640.5 3.90267 1.11565 0
M  V30 6718 H 641.266 4.68879 -1.24008 0
M  V30 6719 H 637.145 4.60997 -0.0163971 0
M  V30 6720 H 640.689 6.27983 -3.03782 0
M  V30 6721 H 636.586 6.19723 -1.80593 0
M  V30 6722 H 637.354 7.39996 -3.49784 0
M  V30 6723 N 640.017 0.126909 1.57088 0
M  V30 6724 C 640.967 -0.831678 2.1229 0
M  V30 6725 C 641.951 -1.22292 1.04564 0
M  V30 6726 O 643.143 -1.19269 1.30782 0
M  V30 6727 C 640.272 -2.07866 2.73215 0
M  V30 6728 C 639.358 -1.71143 3.88035 0
M  V30 6729 N 639.749 -1.05136 4.94753 0
M  V30 6730 C 638.047 -2.00549 3.98367 0
M  V30 6731 C 638.748 -0.877257 5.75047 0
M  V30 6732 N 637.724 -1.40477 5.25135 0
M  V30 6733 H 641.526 -0.317926 2.92175 0
M  V30 6734 H 639.04 -0.0753052 1.62225 0
M  V30 6735 H 641.037 -2.77516 3.11111 0
M  V30 6736 H 639.697 -2.59778 1.94796 0
M  V30 6737 H 640.708 -0.71442 5.12949 0
M  V30 6738 H 637.385 -2.54452 3.30999 0
M  V30 6739 H 638.775 -0.358536 6.70943 0
M  V30 6740 N 641.495 -1.56914 -0.146875 0
M  V30 6741 C 642.442 -1.98275 -1.18134 0
M  V30 6742 C 643.412 -0.850367 -1.42681 0
M  V30 6743 O 644.597 -1.11244 -1.55014 0
M  V30 6744 C 641.737 -2.36861 -2.5098 0
M  V30 6745 C 640.85 -3.63391 -2.33605 0
M  V30 6746 C 639.985 -3.91079 -3.59486 0
M  V30 6747 C 639.024 -5.10879 -3.37149 0
M  V30 6748 N 638.161 -5.34577 -4.55161 0
M  V30 6749 H 643.001 -2.8645 -0.821622 0
M  V30 6750 H 640.538 -1.41718 -0.394248 0
M  V30 6751 H 642.496 -2.57262 -3.28439 0
M  V30 6752 H 641.126 -1.51766 -2.84898 0
M  V30 6753 H 640.178 -3.50766 -1.47199 0
M  V30 6754 H 641.49 -4.51007 -2.13059 0
M  V30 6755 H 640.644 -4.11979 -4.45374 0
M  V30 6756 H 639.383 -3.01885 -3.83036 0
M  V30 6757 H 638.388 -4.89853 -2.49649 0
M  V30 6758 H 639.613 -6.01626 -3.14997 0
M  V30 6759 H 637.559 -4.48337 -4.78884 0
M  V30 6760 H 637.476 -6.16463 -4.37618 0
M  V30 6761 H 638.744 -5.59975 -5.42263 0
M  V30 6762 N 642.974 0.416227 -1.52004 0
M  V30 6763 C 644.22 1.16555 -1.6596 0
M  V30 6764 C 644.553 1.90347 -0.384906 0
M  V30 6765 O 643.828 1.84474 0.616405 0
M  V30 6766 C 644.111 2.1657 -2.87696 0
M  V30 6767 C 643.964 1.46722 -4.25197 0
M  V30 6768 C 645.283 3.17321 -3.04951 0
M  V30 6769 H 642.402 0.422369 -0.603965 0
M  V30 6770 H 645.044 0.452141 -1.84542 0
M  V30 6771 H 643.194 2.77411 -2.71985 0
M  V30 6772 H 644.866 0.89056 -4.52622 0
M  V30 6773 H 643.109 0.769263 -4.26925 0
M  V30 6774 H 643.78 2.19665 -5.0641 0
M  V30 6775 H 646.256 2.66552 -3.19514 0
M  V30 6776 H 645.132 3.84573 -3.91656 0
M  V30 6777 H 645.393 3.84643 -2.17951 0
M  V30 6778 N 644.452 1.42507 0.673017 0
M  V30 6779 C 645.415 1.4582 1.76831 0
M  V30 6780 C 646.415 0.345542 1.57043 0
M  V30 6781 O 647.605 0.606447 1.63303 0
M  V30 6782 C 644.737 1.29158 3.15485 0
M  V30 6783 H 645.93 2.43345 1.7528 0
M  V30 6784 H 643.483 1.28981 0.882817 0
M  V30 6785 H 644.218 0.325626 3.22661 0
M  V30 6786 H 644.003 2.09797 3.31252 0
M  V30 6787 H 645.493 1.34363 3.95394 0
M  V30 6788 N 645.93 -0.909495 1.28709 0
M  V30 6789 C 647.155 -1.69801 1.1909 0
M  V30 6790 C 647.58 -1.86479 -0.246388 0
M  V30 6791 O 646.938 -1.37802 -1.17815 0
M  V30 6792 C 646.986 -3.06543 1.89904 0
M  V30 6793 O 646.09 -3.94268 1.2094 0
M  V30 6794 H 645.431 -0.519783 0.413185 0
M  V30 6795 H 647.961 -1.13689 1.70106 0
M  V30 6796 H 647.971 -3.56748 1.97977 0
M  V30 6797 H 646.646 -2.93722 2.94449 0
M  V30 6798 H 645.223 -3.52702 1.2106 0
M  V30 6799 N 647.408 -1.11026 -1.11852 0
M  V30 6800 C 648.685 -0.768347 -1.79877 0
M  V30 6801 C 649.065 0.744261 -1.97545 0
M  V30 6802 O 648.413 1.67271 -1.55669 0
M  V30 6803 C 648.623 -1.52648 -3.13846 0
M  V30 6804 C 649.971 -1.70297 -3.88953 0
M  V30 6805 O 650.995 -1.49037 -3.23522 0
M  V30 6806 O 649.854 -2.05593 -5.06353 0
M  V30 6807 H 646.948 -0.277891 -0.778913 0
M  V30 6808 H 649.494 -1.21343 -1.18633 0
M  V30 6809 H 648.266 -2.55564 -2.96315 0
M  V30 6810 H 647.889 -1.07466 -3.82801 0
M  V30 6811 N 648.886 1.2938 -0.899927 0
M  V30 6812 C 650.132 1.9584 -0.526742 0
M  V30 6813 C 650.465 1.70774 0.924651 0
M  V30 6814 O 649.74 1.02084 1.65557 0
M  V30 6815 C 650.023 3.50638 -0.820062 0
M  V30 6816 C 649.876 3.85161 -2.32317 0
M  V30 6817 C 651.195 4.3903 -0.30671 0
M  V30 6818 H 648.314 0.711322 -0.192848 0
M  V30 6819 H 650.956 1.52992 -1.12665 0
M  V30 6820 H 649.106 3.87265 -0.309491 0
M  V30 6821 H 650.778 3.58477 -2.9033 0
M  V30 6822 H 649.021 3.32696 -2.78381 0
M  V30 6823 H 649.692 4.93204 -2.47898 0
M  V30 6824 H 652.168 4.09396 -0.743908 0
M  V30 6825 H 651.044 5.46226 -0.541144 0
M  V30 6826 H 651.305 4.34937 0.792588 0
M  V30 6827 N 650.364 0.662433 1.43002 0
M  V30 6828 C 651.327 -0.0142016 2.29196 0
M  V30 6829 C 652.327 -0.741394 1.42688 0
M  V30 6830 O 653.517 -0.581257 1.64216 0
M  V30 6831 C 650.649 -1.03084 3.24941 0
M  V30 6832 H 651.842 0.7443 2.90517 0
M  V30 6833 H 649.395 0.424133 1.50435 0
M  V30 6834 H 650.13 -1.81826 2.68533 0
M  V30 6835 H 649.915 -0.512946 3.8873 0
M  V30 6836 H 651.405 -1.50308 3.89612 0
M  V30 6837 N 651.842 -1.52309 0.404946 0
M  V30 6838 C 652.772 -2.29805 -0.41376 0
M  V30 6839 C 653.753 -1.3384 -1.0498 0
M  V30 6840 O 654.938 -1.62745 -1.05961 0
M  V30 6841 C 652.068 -3.11639 -1.53292 0
M  V30 6842 C 651.022 -4.15616 -1.02211 0
M  V30 6843 C 650.348 -4.8577 -2.23455 0
M  V30 6844 C 651.648 -5.2224 -0.0790725 0
M  V30 6845 H 653.342 -2.98493 0.232878 0
M  V30 6846 H 650.888 -1.43552 0.113441 0
M  V30 6847 H 652.841 -3.64618 -2.11262 0
M  V30 6848 H 651.565 -2.40712 -2.20738 0
M  V30 6849 H 650.224 -3.63641 -0.46484 0
M  V30 6850 H 649.872 -4.11376 -2.89445 0
M  V30 6851 H 649.572 -5.56058 -1.89929 0
M  V30 6852 H 651.096 -5.4156 -2.82038 0
M  V30 6853 H 652.51 -5.70485 -0.567438 0
M  V30 6854 H 650.907 -5.99867 0.167167 0
M  V30 6855 H 651.977 -4.77078 0.867447 0
M  V30 6856 N 653.32 -0.135238 -1.57019 0
M  V30 6857 C 654.25 0.805235 -2.19176 0
M  V30 6858 C 655.231 1.2656 -1.13651 0
M  V30 6859 O 656.416 1.32528 -1.4195 0
M  V30 6860 C 653.546 2.04914 -2.80406 0
M  V30 6861 C 652.5 1.72598 -3.91655 0
M  V30 6862 C 651.826 3.04154 -4.39766 0
M  V30 6863 C 653.126 0.981709 -5.12991 0
M  V30 6864 H 654.82 0.287232 -2.98019 0
M  V30 6865 H 652.366 0.136714 -1.4335 0
M  V30 6866 H 654.319 2.71178 -3.22553 0
M  V30 6867 H 653.043 2.59067 -1.98877 0
M  V30 6868 H 651.702 1.08717 -3.50109 0
M  V30 6869 H 651.35 3.56274 -3.55075 0
M  V30 6870 H 651.05 2.83299 -5.14796 0
M  V30 6871 H 652.574 3.71509 -4.84576 0
M  V30 6872 H 653.988 1.5462 -5.52056 0
M  V30 6873 H 652.385 0.873533 -5.93708 0
M  V30 6874 H 653.455 -0.0286887 -4.84892 0
M  V30 6875 N 654.798 1.5699 0.138552 0
M  V30 6876 C 656.038 1.85619 0.855849 0
M  V30 6877 C 656.402 0.720663 1.77962 0
M  V30 6878 O 657.603 0.888221 2.53701 0
M  V30 6879 C 655.874 3.19447 1.60275 0
M  V30 6880 S 657.433 3.69656 2.36431 0
M  V30 6881 H 654.251 0.650926 0.286035 0
M  V30 6882 H 656.853 1.9516 0.115331 0
M  V30 6883 H 655.557 4.00053 0.915737 0
M  V30 6884 H 655.088 3.12935 2.38402 0
M  V30 6885 H 657.103 3.39595 3.61787 0
M  V30 6886 N 656.276 -0.40816 1.52223 0
M  V30 6887 C 657.524 -1.15274 1.66001 0
M  V30 6888 C 657.845 -1.91003 0.392803 0
M  V30 6889 O 657.115 -1.8673 -0.592336 0
M  V30 6890 H 655.695 -0.428526 0.611861 0
M  V30 6891 H 658.357 -0.46512 1.89269 0
M  V30 6892 H 657.453 -1.86628 2.50153 0
M  V30 6893 N 657.755 -1.42862 -0.66545 0
M  V30 6894 C 658.685 -1.49867 -1.79059 0
M  V30 6895 C 659.666 -0.354394 -1.66367 0
M  V30 6896 O 660.851 -0.569969 -1.85647 0
M  V30 6897 C 657.981 -1.40943 -3.17415 0
M  V30 6898 C 656.935 -2.53495 -3.44854 0
M  V30 6899 C 656.261 -2.29626 -4.82883 0
M  V30 6900 C 657.561 -3.95781 -3.40815 0
M  V30 6901 H 659.255 -2.44037 -1.73453 0
M  V30 6902 H 656.801 -1.17456 -0.833071 0
M  V30 6903 H 658.754 -1.4445 -3.95869 0
M  V30 6904 H 657.478 -0.432716 -3.23721 0
M  V30 6905 H 656.137 -2.4932 -2.68766 0
M  V30 6906 H 655.785 -1.30226 -4.8585 0
M  V30 6907 H 655.485 -3.05065 -5.02204 0
M  V30 6908 H 657.009 -2.34897 -5.63609 0
M  V30 6909 H 658.423 -4.01508 -4.09224 0
M  V30 6910 H 656.82 -4.71148 -3.71672 0
M  V30 6911 H 657.89 -4.21786 -2.39216 0
M  V30 6912 N 659.233 0.902656 -1.29189 0
M  V30 6913 C 660.649 1.18296 -1.07137 0
M  V30 6914 C 660.849 2.00701 0.179223 0
M  V30 6915 O 659.905 2.3675 0.877812 0
M  V30 6916 C 661.218 1.90677 -2.32514 0
M  V30 6917 C 662.766 2.03515 -2.37804 0
M  V30 6918 C 663.241 2.79307 -3.62976 0
M  V30 6919 N 664.732 2.86862 -3.63681 0
M  V30 6920 C 665.467 3.46035 -4.57217 0
M  V30 6921 N 664.963 4.06399 -5.61081 0
M  V30 6922 N 666.756 3.43681 -4.44792 0
M  V30 6923 H 658.907 0.352765 -2.0945 0
M  V30 6924 H 661.17 0.21876 -0.922414 0
M  V30 6925 H 660.876 1.3756 -3.23682 0
M  V30 6926 H 660.75 2.91169 -2.39793 0
M  V30 6927 H 663.137 2.55809 -1.47125 0
M  V30 6928 H 663.218 1.02166 -2.34512 0
M  V30 6929 H 662.862 2.2769 -4.54004 0
M  V30 6930 H 662.792 3.80995 -3.63525 0
M  V30 6931 H 665.283 2.43987 -2.88581 0
M  V30 6932 H 665.596 4.49564 -6.2858 0
M  V30 6933 H 663.941 4.0487 -5.64894 0
M  V30 6934 H 667.132 2.9574 -3.62843 0
M  V30 6935 H 667.305 3.89503 -5.17872 0
M  V30 6936 N 660.711 1.11618 1.11262 0
M  V30 6937 C 661.674 0.779447 2.15539 0
M  V30 6938 C 662.674 -0.202081 1.59525 0
M  V30 6939 O 663.864 0.0226356 1.74185 0
M  V30 6940 C 660.996 0.15674 3.40539 0
M  V30 6941 H 662.189 1.70324 2.4684 0
M  V30 6942 H 659.742 0.918298 1.26479 0
M  V30 6943 H 660.477 -0.777186 3.1485 0
M  V30 6944 H 660.262 0.863308 3.82478 0
M  V30 6945 H 661.752 -0.062661 4.17553 0
M  V30 6946 N 662.189 -1.289 0.906776 0
M  V30 6947 C 663.121 -2.26556 0.347159 0
M  V30 6948 C 664.134 -1.54589 -0.51049 0
M  V30 6949 O 665.323 -1.75489 -0.326501 0
M  V30 6950 C 662.423 -3.3484 -0.523024 0
M  V30 6951 C 661.596 -4.36296 0.310515 0
M  V30 6952 C 660.655 -5.23879 -0.493634 0
M  V30 6953 O 659.681 -5.69127 0.0913569 0
M  V30 6954 N 660.883 -5.51946 -1.7982 0
M  V30 6955 H 663.648 -2.75212 1.18652 0
M  V30 6956 H 661.209 -1.42309 0.771996 0
M  V30 6957 H 663.201 -3.90366 -1.06756 0
M  V30 6958 H 661.771 -2.85946 -1.26309 0
M  V30 6959 H 660.991 -3.80331 1.03644 0
M  V30 6960 H 662.279 -5.01113 0.881106 0
M  V30 6961 H 661.677 -5.17006 -2.2961 0
M  V30 6962 H 660.234 -6.10258 -2.28971 0
M  V30 6963 N 663.667 -0.670007 -1.42649 0
M  V30 6964 C 664.913 -0.190568 -2.01903 0
M  V30 6965 C 665.246 1.19817 -1.52832 0
M  V30 6966 O 664.521 1.80342 -0.728485 0
M  V30 6967 C 664.804 -0.21991 -3.59428 0
M  V30 6968 C 664.657 -1.64376 -4.18689 0
M  V30 6969 C 665.976 0.434519 -4.3795 0
M  V30 6970 H 663.095 -0.0707219 -0.733599 0
M  V30 6971 H 665.737 -0.853883 -1.69732 0
M  V30 6972 H 663.887 0.344894 -3.86966 0
M  V30 6973 H 665.559 -2.26044 -4.02122 0
M  V30 6974 H 663.802 -2.18591 -3.747 0
M  V30 6975 H 664.473 -1.61601 -5.27815 0
M  V30 6976 H 666.949 -0.0462156 -4.16074 0
M  V30 6977 H 665.825 0.38333 -5.4756 0
M  V30 6978 H 666.086 1.51135 -4.15464 0
M  V30 6979 N 665.145 1.52092 -0.413018 0
M  V30 6980 C 666.375 2.05974 0.160648 0
M  V30 6981 C 666.783 1.28267 1.39084 0
M  V30 6982 O 666.126 0.328805 1.80733 0
M  V30 6983 C 666.188 3.54918 0.572169 0
M  V30 6984 C 665.852 4.53705 -0.547826 0
M  V30 6985 C 666.849 5.00342 -1.41259 0
M  V30 6986 C 664.534 4.97089 -0.721627 0
M  V30 6987 C 666.528 5.89011 -2.43607 0
M  V30 6988 C 664.215 5.85554 -1.74841 0
M  V30 6989 C 665.213 6.3141 -2.60403 0
M  V30 6990 O 664.901 7.18123 -3.61323 0
M  V30 6991 H 664.633 0.675636 0.0221936 0
M  V30 6992 H 667.187 1.96931 -0.58373 0
M  V30 6993 H 665.417 3.61661 1.36889 0
M  V30 6994 H 667.106 3.91428 1.0742 0
M  V30 6995 H 667.872 4.67537 -1.28974 0
M  V30 6996 H 663.751 4.60954 -0.0652911 0
M  V30 6997 H 667.295 6.24725 -3.10425 0
M  V30 6998 H 663.192 6.17773 -1.87156 0
M  V30 6999 H 663.96 7.36244 -3.57613 0
M  V30 7000 N 666.623 0.143563 1.56945 0
M  V30 7001 C 667.57 -0.797433 2.16586 0
M  V30 7002 C 668.54 -1.24654 1.09775 0
M  V30 7003 O 669.725 -1.31968 1.37801 0
M  V30 7004 C 666.865 -2.03253 2.78895 0
M  V30 7005 C 665.978 -1.62954 4.00087 0
M  V30 7006 C 665.113 -2.81617 4.50406 0
M  V30 7007 C 664.152 -2.37675 5.64072 0
M  V30 7008 N 663.289 -3.49335 6.09023 0
M  V30 7009 H 668.129 -0.282023 2.96662 0
M  V30 7010 H 665.666 -0.127494 1.46546 0
M  V30 7011 H 667.624 -2.75653 3.13163 0
M  V30 7012 H 666.254 -2.52211 2.01469 0
M  V30 7013 H 665.306 -0.803322 3.71821 0
M  V30 7014 H 666.618 -1.26679 4.82446 0
M  V30 7015 H 665.772 -3.62212 4.86711 0
M  V30 7016 H 664.511 -3.21134 3.67048 0
M  V30 7017 H 663.516 -1.55519 5.27346 0
M  V30 7018 H 664.741 -1.99247 6.49213 0
M  V30 7019 H 662.687 -3.8848 5.28601 0
M  V30 7020 H 662.604 -3.17064 6.86299 0
M  V30 7021 H 663.872 -4.30297 6.49973 0
M  V30 7022 N 668.101 -1.57061 -0.130224 0
M  V30 7023 C 669.348 -1.84257 -0.839972 0
M  V30 7024 C 669.676 -0.726986 -1.80403 0
M  V30 7025 O 668.931 0.282632 -1.93648 0
M  V30 7026 C 669.23 -3.17878 -1.63365 0
M  V30 7027 C 668.896 -4.43475 -0.814891 0
M  V30 7028 C 667.558 -4.77581 -0.589066 0
M  V30 7029 C 669.91 -5.20631 -0.243437 0
M  V30 7030 C 667.238 -5.86292 0.218648 0
M  V30 7031 C 669.59 -6.30192 0.551408 0
M  V30 7032 C 668.254 -6.62837 0.787653 0
M  V30 7033 H 667.524 -0.674245 -0.307367 0
M  V30 7034 H 670.171 -1.91224 -0.102832 0
M  V30 7035 H 668.476 -3.06437 -2.44138 0
M  V30 7036 H 670.173 -3.3614 -2.18658 0
M  V30 7037 H 666.763 -4.16747 -1.00098 0
M  V30 7038 H 670.947 -4.94644 -0.405145 0
M  V30 7039 H 666.203 -6.10017 0.411016 0
M  V30 7040 H 670.377 -6.89165 1.00126 0
M  V30 7041 H 668.004 -7.46908 1.41537 0
M  V30 7042 N 669.579 0.400081 -1.52437 0
M  V30 7043 C 670.804 1.17221 -1.71096 0
M  V30 7044 C 671.229 1.83269 -0.423565 0
M  V30 7045 O 670.587 1.70378 0.619751 0
M  V30 7046 C 670.635 2.20425 -2.85386 0
M  V30 7047 O 669.739 3.26769 -2.51586 0
M  V30 7048 H 669.08 0.341766 -0.569291 0
M  V30 7049 H 671.61 0.467772 -1.99181 0
M  V30 7050 H 671.62 2.64605 -3.10561 0
M  V30 7051 H 670.295 1.71737 -3.78786 0
M  V30 7052 H 668.872 2.87804 -2.37114 0
M  V30 7053 N 671.057 1.43213 0.657864 0
M  V30 7054 C 672.306 1.43871 1.41365 0
M  V30 7055 C 672.619 0.064898 1.95492 0
M  V30 7056 O 673.825 -0.0510796 2.71452 0
M  V30 7057 C 672.281 2.53158 2.55811 0
M  V30 7058 C 671.889 3.96624 2.08311 0
M  V30 7059 C 673.633 2.63004 3.3321 0
M  V30 7060 C 671.54 4.97385 3.1994 0
M  V30 7061 H 670.47 0.535174 0.531136 0
M  V30 7062 H 673.121 1.69185 0.710543 0
M  V30 7063 H 671.503 2.21037 3.2857 0
M  V30 7064 H 672.677 4.38182 1.42593 0
M  V30 7065 H 670.992 3.90781 1.43804 0
M  V30 7066 H 673.589 3.3546 4.16378 0
M  V30 7067 H 673.932 1.67918 3.80932 0
M  V30 7068 H 674.465 2.94403 2.67529 0
M  V30 7069 H 671.204 5.94007 2.77192 0
M  V30 7070 H 670.724 4.60444 3.84385 0
M  V30 7071 H 672.403 5.19877 3.85145 0
M  V30 7072 N 672.536 -0.895792 1.29666 0
M  V30 7073 C 673.761 -1.68528 1.20885 0
M  V30 7074 C 674.186 -1.8673 -0.226595 0
M  V30 7075 O 673.544 -1.39044 -1.16347 0
M  V30 7076 C 673.592 -3.04512 1.93144 0
M  V30 7077 O 672.696 -3.92963 1.25115 0
M  V30 7078 H 672.037 -0.515371 0.418675 0
M  V30 7079 H 674.567 -1.11878 1.71302 0
M  V30 7080 H 674.577 -3.54628 2.0175 0
M  V30 7081 H 673.252 -2.90582 2.97548 0
M  V30 7082 H 671.829 -3.51399 1.24794 0
M  V30 7083 N 674.014 -1.12206 -1.10668 0
M  V30 7084 C 675.26 -0.887096 -1.83036 0
M  V30 7085 C 675.615 0.580887 -1.83422 0
M  V30 7086 O 674.908 1.42379 -1.28213 0
M  V30 7087 C 675.102 -1.39276 -3.29146 0
M  V30 7088 C 674.931 -2.90837 -3.42992 0
M  V30 7089 C 673.701 -3.59047 -3.55546 0
M  V30 7090 C 675.899 -3.8885 -3.36601 0
M  V30 7091 N 673.881 -4.98747 -3.57945 0
M  V30 7092 C 675.252 -5.14666 -3.45716 0
M  V30 7093 C 677.307 -3.81296 -3.20184 0
M  V30 7094 C 676.01 -6.33814 -3.40106 0
M  V30 7095 C 678.036 -4.99965 -3.15895 0
M  V30 7096 C 677.398 -6.24637 -3.25589 0
M  V30 7097 H 673.497 -0.377857 -0.684652 0
M  V30 7098 H 676.081 -1.42791 -1.32358 0
M  V30 7099 H 674.252 -0.879026 -3.78322 0
M  V30 7100 H 675.984 -1.10011 -3.89461 0
M  V30 7101 H 672.739 -3.09533 -3.5845 0
M  V30 7102 H 673.163 -5.71606 -3.62762 0
M  V30 7103 H 677.805 -2.85806 -3.11569 0
M  V30 7104 H 675.523 -7.29574 -3.47487 0
M  V30 7105 H 679.109 -4.95847 -3.04347 0
M  V30 7106 H 677.989 -7.14921 -3.22269 0
M  V30 7107 N 675.492 1.28418 -0.913599 0
M  V30 7108 C 676.717 1.99643 -0.561899 0
M  V30 7109 C 677.142 1.67819 0.849608 0
M  V30 7110 O 676.5 0.910503 1.56779 0
M  V30 7111 C 676.548 3.52116 -0.777622 0
M  V30 7112 O 675.652 4.12076 0.163457 0
M  V30 7113 H 674.993 0.627229 -0.217898 0
M  V30 7114 H 677.523 1.63575 -1.229 0
M  V30 7115 H 677.533 4.02163 -0.687666 0
M  V30 7116 H 676.208 3.74613 -1.8066 0
M  V30 7117 H 674.785 3.72892 0.0247827 0
M  V30 7118 N 676.97 0.677563 1.42291 0
M  V30 7119 C 678.386 0.347376 1.55774 0
M  V30 7120 C 678.586 -1.14703 1.65667 0
M  V30 7121 O 677.642 -1.93252 1.62512 0
M  V30 7122 C 678.955 1.08011 2.80631 0
M  V30 7123 C 680.503 1.06271 2.94407 0
M  V30 7124 C 680.978 1.77683 4.22129 0
M  V30 7125 N 682.469 1.74564 4.29047 0
M  V30 7126 C 683.204 2.26673 5.26694 0
M  V30 7127 N 682.7 2.87176 6.30477 0
M  V30 7128 N 684.493 2.17032 5.18511 0
M  V30 7129 H 676.644 1.64703 1.34114 0
M  V30 7130 H 678.907 0.694038 0.645768 0
M  V30 7131 H 678.613 2.13518 2.79469 0
M  V30 7132 H 678.487 0.647115 3.71608 0
M  V30 7133 H 680.874 0.0159658 2.95096 0
M  V30 7134 H 680.955 1.53461 2.04654 0
M  V30 7135 H 680.599 2.82327 4.22201 0
M  V30 7136 H 680.529 1.2794 5.10822 0
M  V30 7137 H 683.02 1.30436 3.54676 0
M  V30 7138 H 683.333 3.24551 7.01346 0
M  V30 7139 H 681.678 2.91247 6.31031 0
M  V30 7140 H 684.869 1.69451 4.36353 0
M  V30 7141 H 685.042 2.57948 5.94446 0
M  V30 7142 N 678.448 -1.51871 0.421078 0
M  V30 7143 C 679.697 -2.01125 -0.152206 0
M  V30 7144 C 680.01 -1.3106 -1.45199 0
M  V30 7145 O 681.216 -1.71195 -2.10724 0
M  V30 7146 C 679.672 -3.58458 -0.3218 0
M  V30 7147 C 679.28 -4.37448 0.96659 0
M  V30 7148 C 681.024 -4.15908 -0.84973 0
M  V30 7149 C 678.931 -5.86451 0.763529 0
M  V30 7150 H 677.861 -0.751556 -0.0606565 0
M  V30 7151 H 680.512 -1.75115 0.548354 0
M  V30 7152 H 678.894 -3.80847 -1.08498 0
M  V30 7153 H 680.068 -4.26814 1.73684 0
M  V30 7154 H 678.383 -3.91373 1.42183 0
M  V30 7155 H 680.98 -5.24922 -1.01788 0
M  V30 7156 H 681.323 -3.74031 -1.82774 0
M  V30 7157 H 681.856 -3.97535 -0.145297 0
M  V30 7158 H 678.595 -6.3271 1.71344 0
M  V30 7159 H 678.115 -5.99791 0.0327889 0
M  V30 7160 H 679.794 -6.45697 0.410354 0
M  V30 7161 N 679.926 -0.151884 -1.56866 0
M  V30 7162 C 681.173 0.498004 -1.96281 0
M  V30 7163 C 681.501 1.64551 -1.03698 0
M  V30 7164 O 680.756 1.95585 -0.0671497 0
M  V30 7165 C 681.055 1.04074 -3.41911 0
M  V30 7166 C 680.721 0.0111688 -4.50899 0
M  V30 7167 C 679.383 -0.271844 -4.80432 0
M  V30 7168 C 681.735 -0.68869 -5.1663 0
M  V30 7169 C 679.063 -1.26044 -5.73001 0
M  V30 7170 C 681.415 -1.66613 -6.10264 0
M  V30 7171 C 680.079 -1.9568 -6.38174 0
M  V30 7172 H 679.349 0.182233 -0.718242 0
M  V30 7173 H 681.996 -0.239746 -1.89993 0
M  V30 7174 H 680.301 1.85592 -3.45055 0
M  V30 7175 H 681.998 1.55224 -3.69738 0
M  V30 7176 H 678.588 0.241932 -4.27917 0
M  V30 7177 H 682.772 -0.48324 -4.93942 0
M  V30 7178 H 678.028 -1.49202 -5.92915 0
M  V30 7179 H 682.202 -2.21392 -6.60272 0
M  V30 7180 H 679.829 -2.72434 -7.09707 0
M  V30 7181 N 681.404 1.57128 0.121893 0
M  V30 7182 C 682.815 1.73902 0.679348 0
M  V30 7183 C 683.166 0.770135 1.80453 0
M  V30 7184 O 682.291 -0.0576083 2.16323 0
M  V30 7185 C 682.886 3.15328 1.2391 0
M  V30 7186 C 681.445 3.33618 1.74288 0
M  V30 7187 C 680.592 2.6978 0.641414 0
M  V30 7188 H 683.543 1.58359 -0.104 0
M  V30 7189 H 683.564 3.16718 2.10879 0
M  V30 7190 H 683.076 3.85821 0.419957 0
M  V30 7191 H 681.177 2.68162 2.58689 0
M  V30 7192 H 681.29 4.4176 1.85432 0
M  V30 7193 H 679.654 2.30935 1.0743 0
M  V30 7194 H 680.437 3.42895 -0.166707 0
M  V30 7195 N 682.882 -0.391992 1.52647 0
M  V30 7196 C 683.815 -1.50019 1.71958 0
M  V30 7197 C 684.793 -1.5238 0.567365 0
M  V30 7198 O 685.977 -1.70831 0.796806 0
M  V30 7199 C 683.104 -2.88496 1.77447 0
M  V30 7200 C 682.15 -3.03974 2.99169 0
M  V30 7201 S 682.983 -2.75487 4.59203 0
M  V30 7202 C 684.139 -4.16163 4.67503 0
M  V30 7203 H 684.372 -1.33413 2.65685 0
M  V30 7204 H 681.905 -0.584674 1.42902 0
M  V30 7205 H 683.863 -3.68296 1.81296 0
M  V30 7206 H 682.524 -3.02431 0.848188 0
M  V30 7207 H 681.717 -4.05328 2.99542 0
M  V30 7208 H 681.319 -2.32062 2.93297 0
M  V30 7209 H 683.611 -5.10048 4.45934 0
M  V30 7210 H 684.554 -4.20806 5.69498 0
M  V30 7211 H 684.962 -4.01933 3.96371 0
M  V30 7212 N 684.36 -1.4356 -0.65026 0
M  V30 7213 C 685.608 -1.45046 -1.40734 0
M  V30 7214 C 685.929 -0.0769822 -1.94848 0
M  V30 7215 O 685.199 0.888098 -1.74613 0
M  V30 7216 H 683.779 -0.534034 -0.522318 0
M  V30 7217 H 686.441 -1.79186 -0.766703 0
M  V30 7218 H 685.537 -2.16476 -2.24822 0
M  V30 7219 N 685.838 0.888903 -1.30139 0
M  V30 7220 C 686.788 1.9814 -1.12803 0
M  V30 7221 C 687.772 1.60839 -0.0443137 0
M  V30 7222 O 688.964 1.74971 -0.267208 0
M  V30 7223 C 686.093 3.33416 -0.817849 0
M  V30 7224 C 685.179 3.77043 -1.94163 0
M  V30 7225 N 685.57 3.92805 -3.18651 0
M  V30 7226 C 683.868 4.06407 -1.8371 0
M  V30 7227 C 684.569 4.29746 -3.92038 0
M  V30 7228 N 683.545 4.3939 -3.20059 0
M  V30 7229 H 687.347 2.08411 -2.07225 0
M  V30 7230 H 684.861 1.07845 -1.21421 0
M  V30 7231 H 686.858 4.11405 -0.674668 0
M  V30 7232 H 685.518 3.24484 0.118344 0
M  V30 7233 H 686.529 3.78042 -3.53984 0
M  V30 7234 H 683.206 4.05972 -0.974331 0
M  V30 7235 H 684.596 4.49695 -4.99223 0
M  V30 7236 N 687.317 1.12792 1.10072 0
M  V30 7237 C 688.565 0.883796 1.81751 0
M  V30 7238 C 688.886 -0.591891 1.858 0
M  V30 7239 O 688.156 -1.43017 1.33876 0
M  V30 7240 H 686.736 0.323978 0.673088 0
M  V30 7241 H 689.398 1.42314 1.33164 0
M  V30 7242 H 688.494 1.26863 2.85153 0
M  V30 7243 N 688.795 -1.27931 0.920396 0
M  V30 7244 C 690.02 -1.99343 0.572478 0
M  V30 7245 C 690.445 -1.68267 -0.840696 0
M  V30 7246 O 689.803 -0.918805 -1.56294 0
M  V30 7247 C 689.851 -3.51698 0.796284 0
M  V30 7248 O 688.955 -4.12157 -0.141602 0
M  V30 7249 H 688.296 -0.626065 0.221221 0
M  V30 7250 H 690.826 -1.62921 1.23765 0
M  V30 7251 H 690.836 -4.01793 0.708984 0
M  V30 7252 H 689.511 -3.73649 1.82644 0
M  V30 7253 H 688.088 -3.729 -0.005007 0
M  V30 7254 N 690.273 -0.685099 -1.4193 0
M  V30 7255 C 691.498 -0.218842 -2.06242 0
M  V30 7256 C 691.923 1.11923 -1.51178 0
M  V30 7257 O 691.281 1.69837 -0.634446 0
M  V30 7258 C 691.329 -0.175592 -3.60172 0
M  V30 7259 O 690.433 0.852776 -4.03487 0
M  V30 7260 H 689.774 -0.109531 -0.654904 0
M  V30 7261 H 692.304 -0.937013 -1.81882 0
M  V30 7262 H 692.314 -0.00291151 -4.08 0
M  V30 7263 H 690.989 -1.15222 -3.99621 0
M  V30 7264 H 689.566 0.650301 -3.67186 0
M  V30 7265 N 691.751 1.51645 -0.429126 0
M  V30 7266 C 693.162 1.86665 0.0359003 0
M  V30 7267 C 693.513 1.34677 1.42676 0
M  V30 7268 O 692.638 0.694195 2.04963 0
M  V30 7269 C 693.233 3.38724 0.0719221 0
M  V30 7270 C 691.792 3.7331 0.481336 0
M  V30 7271 C 690.939 2.75313 -0.331329 0
M  V30 7272 H 693.89 1.44987 -0.645333 0
M  V30 7273 H 693.911 3.7011 0.883118 0
M  V30 7274 H 693.423 3.76532 -0.940495 0
M  V30 7275 H 691.524 3.41088 1.49966 0
M  V30 7276 H 691.637 4.78631 0.211837 0
M  V30 7277 H 690.001 2.53839 0.209204 0
M  V30 7278 H 690.784 3.15963 -1.34247 0
M  V30 7279 N 693.229 0.160201 1.56784 0
M  V30 7280 C 694.454 -0.497373 2.01348 0
M  V30 7281 C 694.879 -1.56757 1.03966 0
M  V30 7282 O 694.237 -1.81292 0.0174455 0
M  V30 7283 C 694.285 -1.0628 3.44582 0
M  V30 7284 O 693.389 -2.17723 3.50244 0
M  V30 7285 H 692.73 -0.120295 0.653012 0
M  V30 7286 H 695.26 0.260821 2.02931 0
M  V30 7287 H 695.27 -1.38819 3.83658 0
M  V30 7288 H 693.945 -0.279166 4.14962 0
M  V30 7289 H 692.522 -1.86313 3.2302 0
M  V30 7290 N 694.707 -1.5719 -0.113559 0
M  V30 7291 C 695.637 -2.03772 -1.14013 0
M  V30 7292 C 696.618 -0.923176 -1.42869 0
M  V30 7293 O 697.803 -1.19325 -1.53216 0
M  V30 7294 C 694.933 -2.44663 -2.4649 0
M  V30 7295 C 693.887 -3.59612 -2.32085 0
M  V30 7296 C 693.213 -3.8642 -3.69573 0
M  V30 7297 C 694.513 -4.91149 -1.7768 0
M  V30 7298 H 696.207 -2.89785 -0.752665 0
M  V30 7299 H 693.753 -1.39412 -0.360609 0
M  V30 7300 H 695.706 -2.75857 -3.18561 0
M  V30 7301 H 694.43 -1.55628 -2.87137 0
M  V30 7302 H 693.089 -3.28636 -1.62461 0
M  V30 7303 H 692.737 -2.94581 -4.07715 0
M  V30 7304 H 692.437 -4.63797 -3.60786 0
M  V30 7305 H 693.961 -4.2007 -4.4314 0
M  V30 7306 H 695.375 -5.20843 -2.39574 0
M  V30 7307 H 693.772 -5.72562 -1.79701 0
M  V30 7308 H 694.842 -4.79301 -0.734776 0
M  V30 7309 N 696.185 0.383891 -1.52853 0
M  V30 7310 C 697.596 0.961591 -1.60032 0
M  V30 7311 C 697.947 1.90819 -0.456333 0
M  V30 7312 O 697.072 2.12288 0.419873 0
M  V30 7313 C 697.667 1.75078 -2.90057 0
M  V30 7314 C 696.226 2.2781 -2.99632 0
M  V30 7315 C 695.373 1.08512 -2.55187 0
M  V30 7316 H 698.324 0.163269 -1.57858 0
M  V30 7317 H 698.345 2.61046 -2.7683 0
M  V30 7318 H 697.857 1.06157 -3.73299 0
M  V30 7319 H 695.958 3.00028 -2.20939 0
M  V30 7320 H 696.071 2.56947 -4.0437 0
M  V30 7321 H 694.435 1.44667 -2.09627 0
M  V30 7322 H 695.218 0.41118 -3.40829 0
M  V30 7323 N 697.663 1.43903 0.642637 0
M  V30 7324 C 698.911 1.45791 1.39962 0
M  V30 7325 C 699.232 0.0873144 1.94804 0
M  V30 7326 O 698.502 -0.878825 1.75081 0
M  V30 7327 H 697.082 0.536797 0.519479 0
M  V30 7328 H 699.744 1.7959 0.757189 0
M  V30 7329 H 698.84 2.17665 2.2367 0
M  V30 7330 N 699.141 -0.881989 1.30609 0
M  V30 7331 C 700.387 -1.63647 1.19781 0
M  V30 7332 C 700.72 -1.92632 -0.246265 0
M  V30 7333 O 699.995 -1.54938 -1.17577 0
M  V30 7334 C 700.278 -2.97437 2.02985 0
M  V30 7335 C 700.131 -2.75406 3.55628 0
M  V30 7336 C 701.45 -3.98397 1.86997 0
M  V30 7337 H 698.569 -0.593841 0.436488 0
M  V30 7338 H 701.211 -1.02041 1.60273 0
M  V30 7339 H 699.361 -3.50018 1.68581 0
M  V30 7340 H 701.033 -2.2959 4.00107 0
M  V30 7341 H 699.276 -2.09856 3.79662 0
M  V30 7342 H 699.947 -3.70552 4.09139 0
M  V30 7343 H 702.423 -3.54986 2.17081 0
M  V30 7344 H 701.299 -4.89916 2.47536 0
M  V30 7345 H 701.56 -4.3424 0.829943 0
M  V30 7346 N 700.619 -1.13374 -1.09472 0
M  V30 7347 C 701.582 -0.813639 -2.14272 0
M  V30 7348 C 702.582 0.176677 -1.59826 0
M  V30 7349 O 703.772 -0.0503441 -1.74127 0
M  V30 7350 C 700.904 -0.210897 -3.40247 0
M  V30 7351 H 702.097 -1.74229 -2.44099 0
M  V30 7352 H 699.65 -0.938304 -1.25002 0
M  V30 7353 H 700.385 0.726998 -3.16046 0
M  V30 7354 H 700.17 -0.924048 -3.81056 0
M  V30 7355 H 701.66 -0.00377603 -4.176 0
M  V30 7356 N 702.098 1.27442 -0.927168 0
M  V30 7357 C 703.328 1.9821 -0.582775 0
M  V30 7358 C 703.736 1.69361 0.843406 0
M  V30 7359 O 703.079 0.950381 1.57205 0
M  V30 7360 C 703.141 3.52048 -0.728165 0
M  V30 7361 C 702.805 4.04518 -2.12637 0
M  V30 7362 C 703.802 4.17332 -3.10048 0
M  V30 7363 C 701.487 4.38879 -2.44317 0
M  V30 7364 C 703.481 4.6378 -4.37249 0
M  V30 7365 C 701.168 4.85018 -3.71753 0
M  V30 7366 C 702.166 4.97428 -4.68033 0
M  V30 7367 O 701.854 5.42556 -5.93202 0
M  V30 7368 H 701.586 0.639314 -0.219667 0
M  V30 7369 H 704.14 1.63272 -1.24626 0
M  V30 7370 H 702.37 3.86699 -0.00758143 0
M  V30 7371 H 704.059 4.04033 -0.388906 0
M  V30 7372 H 704.825 3.91046 -2.86894 0
M  V30 7373 H 700.704 4.28462 -1.70121 0
M  V30 7374 H 704.248 4.73382 -5.12402 0
M  V30 7375 H 700.145 5.10746 -3.94726 0
M  V30 7376 H 700.913 5.60811 -5.96182 0
M  V30 7377 N 703.576 0.692616 1.41565 0
M  V30 7378 C 704.806 0.230943 2.05305 0
M  V30 7379 C 705.214 -1.12379 1.52209 0
M  V30 7380 O 704.557 -1.71281 0.663968 0
M  V30 7381 C 704.619 0.107894 3.59338 0
M  V30 7382 C 704.283 1.39419 4.35214 0
M  V30 7383 C 705.28 2.33143 4.64694 0
M  V30 7384 C 702.965 1.64674 4.74539 0
M  V30 7385 C 704.959 3.50385 5.32456 0
M  V30 7386 C 702.646 2.82202 5.42038 0
M  V30 7387 C 703.644 3.74881 5.70923 0
M  V30 7388 O 703.332 4.90351 6.37033 0
M  V30 7389 H 703.064 0.105708 0.667684 0
M  V30 7390 H 705.618 0.94488 1.82376 0
M  V30 7391 H 703.848 -0.661785 3.80995 0
M  V30 7392 H 705.537 -0.316213 4.04666 0
M  V30 7393 H 706.303 2.14887 4.34797 0
M  V30 7394 H 702.182 0.934007 4.51439 0
M  V30 7395 H 705.726 4.22743 5.54918 0
M  V30 7396 H 701.623 3.00376 5.71353 0
M  V30 7397 H 702.391 4.90128 6.55528 0
M  V30 7398 N 705.054 -1.51416 0.437162 0
M  V30 7399 C 706.002 -2.29328 -0.388765 0
M  V30 7400 C 706.996 -1.35171 -1.02104 0
M  V30 7401 O 708.202 -1.52513 -0.956024 0
M  V30 7402 H 704.577 -0.738048 -0.144183 0
M  V30 7403 H 706.548 -2.96995 0.289212 0
M  V30 7404 C 705.297 -3.14741 -1.47761 0
M  V30 7405 H 704.62 -3.8708 -1.00045 0
M  V30 7406 H 706.06 -3.72313 -2.02877 0
M  V30 7407 C 704.519 -2.30105 -2.46076 0
M  V30 7408 O 705.049 -1.96055 -3.50607 0
M  V30 7409 N 703.255 -1.93331 -2.1696 0
M  V30 7410 H 702.802 -2.2122 -1.31983 0
M  V30 7411 H 702.76 -1.36999 -2.82982 0
M  V30 7412 N 706.532 -0.168513 -1.56696 0
M  V30 7413 C 707.479 0.762875 -2.17828 0
M  V30 7414 C 708.449 1.22892 -1.11745 0
M  V30 7415 O 709.634 1.29759 -1.39883 0
M  V30 7416 C 706.774 1.9879 -2.82093 0
M  V30 7417 C 705.887 1.56568 -4.02629 0
M  V30 7418 C 705.022 2.74416 -4.54829 0
M  V30 7419 C 704.061 2.28671 -5.67782 0
M  V30 7420 N 703.198 3.39602 -6.14504 0
M  V30 7421 H 708.038 0.23479 -2.97074 0
M  V30 7422 H 705.575 0.104163 -1.46731 0
M  V30 7423 H 707.533 2.70636 -3.17509 0
M  V30 7424 H 706.163 2.48973 -2.05456 0
M  V30 7425 H 705.215 0.744067 -3.73052 0
M  V30 7426 H 706.527 1.18988 -4.844 0
M  V30 7427 H 705.681 3.54423 -4.92412 0
M  V30 7428 H 704.42 3.15254 -3.7211 0
M  V30 7429 H 703.425 1.4711 -5.29753 0
M  V30 7430 H 704.65 1.88894 -6.52301 0
M  V30 7431 H 702.596 3.80021 -5.34715 0
M  V30 7432 H 702.513 3.06105 -6.91257 0
M  V30 7433 H 703.781 4.19902 -6.56737 0
M  V30 7434 N 708.01 1.57248 0.105221 0
M  V30 7435 C 708.94 2.04374 1.12931 0
M  V30 7436 C 709.921 0.93074 1.42377 0
M  V30 7437 O 711.106 1.20136 1.52581 0
M  V30 7438 C 708.236 2.45967 2.45189 0
M  V30 7439 C 707.19 3.60838 2.30174 0
M  V30 7440 C 706.516 3.88374 3.67518 0
M  V30 7441 C 707.816 4.92084 1.75073 0
M  V30 7442 H 709.51 2.9018 0.737287 0
M  V30 7443 H 707.056 1.39601 0.353211 0
M  V30 7444 H 709.009 2.77542 3.17094 0
M  V30 7445 H 707.733 1.57148 2.86308 0
M  V30 7446 H 706.392 3.29493 1.60716 0
M  V30 7447 H 706.04 2.96739 4.06147 0
M  V30 7448 H 705.74 4.65703 3.58321 0
M  V30 7449 H 707.264 4.22415 4.40906 0
M  V30 7450 H 708.678 5.22106 2.36809 0
M  V30 7451 H 707.075 5.73507 1.76662 0
M  V30 7452 H 708.145 4.79684 0.709347 0
M  V30 7453 N 709.488 -0.375779 1.53054 0
M  V30 7454 C 710.737 -1.11674 1.67964 0
M  V30 7455 C 711.05 -1.90755 0.432655 0
M  V30 7456 O 712.256 -2.67538 0.462109 0
M  V30 7457 C 710.712 -2.0344 2.96884 0
M  V30 7458 C 710.32 -1.29719 4.28809 0
M  V30 7459 C 712.064 -2.7759 3.2116 0
M  V30 7460 C 709.971 -2.20327 5.48826 0
M  V30 7461 H 708.901 -0.420597 0.625791 0
M  V30 7462 H 711.552 -0.378499 1.79554 0
M  V30 7463 H 709.934 -2.80953 2.79072 0
M  V30 7464 H 711.108 -0.573394 4.57219 0
M  V30 7465 H 709.423 -0.674735 4.10897 0
M  V30 7466 H 712.02 -3.4559 4.0801 0
M  V30 7467 H 712.363 -3.42399 2.36789 0
M  V30 7468 H 712.896 -2.07164 3.396 0
M  V30 7469 H 709.635 -1.60113 6.35645 0
M  V30 7470 H 709.155 -2.90585 5.2471 0
M  V30 7471 H 710.834 -2.80116 5.83219 0
M  V30 7472 N 710.966 -1.44241 -0.634997 0
M  V30 7473 C 712.243 -1.37296 -1.39317 0
M  V30 7474 C 712.623 -0.0297532 -2.11079 0
M  V30 7475 O 711.971 0.987524 -2.06059 0
M  V30 7476 C 712.181 -2.56853 -2.36279 0
M  V30 7477 C 713.529 -3.00747 -2.99728 0
M  V30 7478 O 714.553 -2.5703 -2.46605 0
M  V30 7479 O 713.412 -3.76533 -3.96087 0
M  V30 7480 H 710.506 -0.543503 -0.623325 0
M  V30 7481 H 713.052 -1.56324 -0.660376 0
M  V30 7482 H 711.824 -3.46228 -1.82324 0
M  V30 7483 H 711.447 -2.40019 -3.16981 0
M  V30 7484 N 712.444 0.87505 -1.31075 0
M  V30 7485 C 713.86 1.15997 -1.09622 0
M  V30 7486 C 714.06 2.01036 0.136611 0
M  V30 7487 O 713.116 2.38559 0.827397 0
M  V30 7488 C 714.429 1.85702 -2.36506 0
M  V30 7489 C 715.977 1.98425 -2.42067 0
M  V30 7490 C 716.452 2.71544 -3.68819 0
M  V30 7491 N 717.943 2.79084 -3.69684 0
M  V30 7492 C 718.678 3.36259 -4.64454 0
M  V30 7493 N 718.174 3.94406 -5.69575 0
M  V30 7494 N 719.967 3.34169 -4.51982 0
M  V30 7495 H 712.118 0.308258 -2.10151 0
M  V30 7496 H 714.381 0.199145 -0.926847 0
M  V30 7497 H 714.087 1.30663 -3.26527 0
M  V30 7498 H 713.961 2.86017 -2.45915 0
M  V30 7499 H 716.348 2.5263 -1.52518 0
M  V30 7500 H 716.429 0.971682 -2.36626 0
M  V30 7501 H 716.073 2.18008 -4.58732 0
M  V30 7502 H 716.003 3.73198 -3.71525 0
M  V30 7503 H 718.494 2.3781 -2.93691 0
M  V30 7504 H 718.807 4.36129 -6.37974 0
M  V30 7505 H 717.152 3.92797 -5.73355 0
M  V30 7506 H 720.343 2.87977 -3.69035 0
M  V30 7507 H 720.516 3.78431 -5.26017 0
M  V30 7508 N 713.922 1.13953 1.08869 0
M  V30 7509 C 714.852 0.844824 2.17681 0
M  V30 7510 C 715.833 -0.198213 1.68941 0
M  V30 7511 O 717.018 -0.0559073 1.9412 0
M  V30 7512 C 714.148 0.316325 3.45856 0
M  V30 7513 C 713.102 1.29426 4.07962 0
M  V30 7514 C 712.428 0.625275 5.31031 0
M  V30 7515 C 713.728 2.65484 4.49795 0
M  V30 7516 H 715.422 1.75471 2.42591 0
M  V30 7517 H 712.968 0.845116 1.16592 0
M  V30 7518 H 714.921 0.0977876 4.21287 0
M  V30 7519 H 713.645 -0.628972 3.20486 0
M  V30 7520 H 712.304 1.49889 3.34558 0
M  V30 7521 H 711.952 -0.325678 5.01945 0
M  V30 7522 H 711.652 1.27777 5.73539 0
M  V30 7523 H 713.176 0.416152 6.0918 0
M  V30 7524 H 714.59 2.48957 5.16424 0
M  V30 7525 H 712.987 3.26963 5.03205 0
M  V30 7526 H 714.057 3.22717 3.61914 0
M  V30 7527 N 715.4 -1.26948 0.933913 0
M  V30 7528 C 716.332 -2.25768 0.395137 0
M  V30 7529 C 717.345 -1.55637 -0.477585 0
M  V30 7530 O 718.534 -1.76142 -0.289204 0
M  V30 7531 C 715.634 -3.35874 -0.451882 0
M  V30 7532 C 714.807 -4.3554 0.40299 0
M  V30 7533 C 713.866 -5.24809 -0.3824 0
M  V30 7534 O 712.892 -5.68805 0.212057 0
M  V30 7535 N 714.094 -5.55636 -1.68072 0
M  V30 7536 H 716.859 -2.72634 1.24463 0
M  V30 7537 H 714.42 -1.40639 0.802008 0
M  V30 7538 H 716.412 -3.92542 -0.984516 0
M  V30 7539 H 714.982 -2.8856 -1.20215 0
M  V30 7540 H 714.202 -3.78047 1.11688 0
M  V30 7541 H 715.49 -4.99131 0.987201 0
M  V30 7542 H 714.888 -5.2176 -2.18592 0
M  V30 7543 H 713.445 -6.14978 -2.15975 0
M  V30 7544 N 716.879 -0.700114 -1.41195 0
M  V30 7545 C 718.156 -0.160836 -1.94938 0
M  V30 7546 C 718.536 1.33014 -1.63922 0
M  V30 7547 O 717.884 2.07878 -0.948636 0
M  V30 7548 C 718.094 -0.456991 -3.45995 0
M  V30 7549 C 719.442 -0.387207 -4.22831 0
M  V30 7550 O 720.466 -0.392164 -3.54035 0
M  V30 7551 O 719.325 -0.351267 -5.4537 0
M  V30 7552 H 716.419 -0.0176304 -0.826812 0
M  V30 7553 H 718.965 -0.776586 -1.50888 0
M  V30 7554 H 717.737 -1.48884 -3.61869 0
M  V30 7555 H 717.36 0.189503 -3.97148 0
M  V30 7556 N 718.357 1.51182 -0.445186 0
M  V30 7557 C 719.32 2.26501 0.350722 0
M  V30 7558 C 720.32 1.3025 0.942952 0
M  V30 7559 O 721.51 1.53897 0.816175 0
M  V30 7560 C 718.642 3.06274 1.49697 0
M  V30 7561 H 719.835 2.98299 -0.309474 0
M  V30 7562 H 717.388 1.55034 -0.198551 0
M  V30 7563 H 718.123 2.38911 2.19299 0
M  V30 7564 H 717.908 3.76979 1.0784 0
M  V30 7565 H 719.398 3.63306 2.05909 0
M  V30 7566 N 719.835 0.176821 1.56605 0
M  V30 7567 C 721.083 -0.465793 1.96659 0
M  V30 7568 C 721.404 -1.63406 1.06412 0
M  V30 7569 O 720.674 -1.95457 0.131603 0
M  V30 7570 H 719.254 -0.175072 0.726195 0
M  V30 7571 H 721.916 0.25929 1.93168 0
M  V30 7572 H 721.012 -0.822138 3.01077 0
M  V30 7573 N 721.313 -1.57302 -0.09688 0
M  V30 7574 C 722.562 -1.85183 -0.799388 0
M  V30 7575 C 722.875 -0.765818 -1.79985 0
M  V30 7576 O 724.081 -0.931696 -2.55013 0
M  V30 7577 C 722.537 -3.28399 -1.47249 0
M  V30 7578 C 722.145 -4.45066 -0.511888 0
M  V30 7579 C 723.889 -3.65506 -2.15883 0
M  V30 7580 C 721.796 -5.79315 -1.18948 0
M  V30 7581 H 720.726 -0.690752 -0.302287 0
M  V30 7582 H 723.377 -1.83425 -0.0523104 0
M  V30 7583 H 721.759 -3.24692 -2.26697 0
M  V30 7584 H 722.933 -4.60116 0.250962 0
M  V30 7585 H 721.248 -4.16343 0.0686576 0
M  V30 7586 H 723.845 -4.63087 -2.67309 0
M  V30 7587 H 724.188 -2.94041 -2.94696 0
M  V30 7588 H 724.721 -3.71094 -1.43298 0
M  V30 7589 H 721.46 -6.54007 -0.442198 0
M  V30 7590 H 720.98 -5.68111 -1.9238 0
M  V30 7591 H 722.659 -6.23816 -1.71646 0
M  V30 7592 N 722.791 0.367657 -1.53252 0
M  V30 7593 C 723.701 1.47415 -1.82499 0
M  V30 7594 C 724.717 1.58711 -0.713222 0
M  V30 7595 O 725.893 1.74644 -1.00306 0
M  V30 7596 C 722.958 2.82706 -2.00694 0
M  V30 7597 C 722.019 2.80955 -3.24596 0
M  V30 7598 C 721.252 4.09793 -3.41914 0
M  V30 7599 O 721.475 5.05852 -2.63572 0
M  V30 7600 O 720.409 4.15731 -4.3526 0
M  V30 7601 H 724.235 1.25624 -2.765 0
M  V30 7602 H 721.82 0.557559 -1.38606 0
M  V30 7603 H 723.702 3.62873 -2.14246 0
M  V30 7604 H 722.377 3.04479 -1.09883 0
M  V30 7605 H 721.284 1.99494 -3.16469 0
M  V30 7606 H 722.617 2.64136 -4.15323 0
M  V30 7607 N 724.269 1.44576 0.627338 0
M  V30 7608 C 725.68 1.42266 1.20902 0
M  V30 7609 C 726.031 0.139964 1.957 0
M  V30 7610 O 725.156 -0.759489 2.02634 0
M  V30 7611 C 725.751 2.57727 2.19914 0
M  V30 7612 C 724.31 2.58599 2.73502 0
M  V30 7613 C 723.457 2.34145 1.48564 0
M  V30 7614 H 726.408 1.53102 0.417791 0
M  V30 7615 H 726.429 2.30697 3.02588 0
M  V30 7616 H 725.941 3.51068 1.65447 0
M  V30 7617 H 724.042 1.6921 3.31962 0
M  V30 7618 H 724.155 3.57205 3.19282 0
M  V30 7619 H 722.519 1.83313 1.76829 0
M  V30 7620 H 723.302 3.29606 0.959935 0
M  V30 7621 N 725.747 -0.868086 1.31537 0
M  V30 7622 C 726.68 -1.97871 1.13676 0
M  V30 7623 C 727.658 -1.62551 0.0397589 0
M  V30 7624 O 728.842 -1.87473 0.196539 0
M  V30 7625 C 725.969 -3.30577 0.73734 0
M  V30 7626 C 725.015 -3.8488 1.83765 0
M  V30 7627 S 725.848 -4.10106 3.44345 0
M  V30 7628 C 727.004 -5.45806 3.06344 0
M  V30 7629 H 727.237 -2.12719 2.07697 0
M  V30 7630 H 724.77 -1.01849 1.16044 0
M  V30 7631 H 726.728 -4.07274 0.513641 0
M  V30 7632 H 725.389 -3.13562 -0.183787 0
M  V30 7633 H 724.582 -4.80821 1.51085 0
M  V30 7634 H 724.184 -3.14981 2.01651 0
M  V30 7635 H 726.476 -6.27535 2.55354 0
M  V30 7636 H 727.419 -5.83437 4.01257 0
M  V30 7637 H 727.827 -5.0917 2.43734 0
M  V30 7638 N 727.225 -1.14528 -1.08264 0
M  V30 7639 C 728.188 -0.83632 -2.13397 0
M  V30 7640 C 729.188 0.159715 -1.60005 0
M  V30 7641 O 730.378 -0.0688098 -1.74064 0
M  V30 7642 C 727.51 -0.246973 -3.40004 0
M  V30 7643 H 728.703 -1.76808 -2.42237 0
M  V30 7644 H 726.256 -0.951509 -1.24 0
M  V30 7645 H 726.991 0.693436 -3.168 0
M  V30 7646 H 726.776 -0.964412 -3.80055 0
M  V30 7647 H 728.266 -0.0480679 -4.17572 0
M  V30 7648 N 728.703 1.26451 -0.940633 0
M  V30 7649 C 729.931 1.97868 -0.604642 0
M  V30 7650 C 730.346 1.70051 0.820251 0
M  V30 7651 O 729.703 0.96843 1.54686 0
M  V30 7652 C 729.754 3.51684 -0.836689 0
M  V30 7653 O 729.475 3.78533 -2.20554 0
M  V30 7654 C 730.976 4.40343 -0.511169 0
M  V30 7655 H 728.196 0.631105 -0.227919 0
M  V30 7656 H 730.74 1.60979 -1.26119 0
M  V30 7657 H 728.895 3.86736 -0.226759 0
M  V30 7658 H 729.309 4.73065 -2.26517 0
M  V30 7659 H 730.783 5.47229 -0.724157 0
M  V30 7660 H 731.26 4.35694 0.553815 0
M  V30 7661 H 731.866 4.10834 -1.0998 0
M  V30 7662 N 730.181 0.707592 1.40822 0
M  V30 7663 C 731.111 0.0644925 2.33411 0
M  V30 7664 C 732.092 -0.754205 1.52466 0
M  V30 7665 O 733.277 -0.704749 1.80961 0
M  V30 7666 C 730.407 -0.863865 3.36385 0
M  V30 7667 C 729.361 -0.15138 4.27732 0
M  V30 7668 C 728.687 -1.19491 5.21177 0
M  V30 7669 C 729.987 0.989607 5.12839 0
M  V30 7670 H 731.681 0.837829 2.87438 0
M  V30 7671 H 729.227 0.404346 1.38207 0
M  V30 7672 H 731.18 -1.32309 4.0009 0
M  V30 7673 H 729.904 -1.66901 2.80734 0
M  V30 7674 H 728.563 0.287937 3.65467 0
M  V30 7675 H 728.211 -1.9929 4.61836 0
M  V30 7676 H 727.911 -0.723123 5.83134 0
M  V30 7677 H 729.435 -1.6544 5.8776 0
M  V30 7678 H 730.849 0.610114 5.70044 0
M  V30 7679 H 729.246 1.38926 5.83798 0
M  V30 7680 H 730.316 1.82389 4.49291 0
M  V30 7681 N 731.66 -1.50943 0.453197 0
M  V30 7682 C 732.907 -2.02212 -0.107922 0
M  V30 7683 C 733.235 -1.33639 -1.41318 0
M  V30 7684 O 732.49 -0.445154 -1.9057 0
M  V30 7685 C 732.789 -3.55603 -0.357944 0
M  V30 7686 C 732.455 -4.42556 0.863427 0
M  V30 7687 C 731.117 -4.6604 1.19834 0
M  V30 7688 C 733.469 -4.93468 1.67747 0
M  V30 7689 C 730.797 -5.37681 2.34768 0
M  V30 7690 C 733.149 -5.6637 2.81793 0
M  V30 7691 C 731.813 -5.88113 3.1572 0
M  V30 7692 H 731.083 -0.739947 -0.0394916 0
M  V30 7693 H 733.73 -1.81738 0.60363 0
M  V30 7694 H 732.035 -3.74495 -1.15156 0
M  V30 7695 H 733.732 -3.92821 -0.805781 0
M  V30 7696 H 730.322 -4.24485 0.592478 0
M  V30 7697 H 734.506 -4.75194 1.43192 0
M  V30 7698 H 729.762 -5.52727 2.61348 0
M  V30 7699 H 733.936 -6.04806 3.45229 0
M  V30 7700 H 731.563 -6.43404 4.04889 0
M  V30 7701 N 733.138 -0.185124 -1.56509 0
M  V30 7702 C 734.088 0.752315 -2.15231 0
M  V30 7703 C 735.072 1.18327 -1.0903 0
M  V30 7704 O 736.264 1.14333 -1.35119 0
M  V30 7705 C 733.393 1.97583 -2.80742 0
M  V30 7706 C 732.479 1.56623 -3.94119 0
M  V30 7707 N 732.87 0.867008 -4.98314 0
M  V30 7708 C 731.168 1.85626 -4.05535 0
M  V30 7709 C 731.869 0.663228 -5.77907 0
M  V30 7710 N 730.845 1.20891 -5.29987 0
M  V30 7711 H 734.647 0.209267 -2.93154 0
M  V30 7712 H 732.161 0.0150444 -1.62393 0
M  V30 7713 H 734.158 2.65779 -3.21197 0
M  V30 7714 H 732.818 2.52369 -2.04303 0
M  V30 7715 H 733.829 0.52355 -5.15247 0
M  V30 7716 H 730.506 2.41992 -3.40215 0
M  V30 7717 H 731.896 0.109273 -6.71811 0
M  V30 7718 N 734.616 1.57351 0.0885366 0
M  V30 7719 C 735.862 1.87564 0.786842 0
M  V30 7720 C 736.217 0.776774 1.76023 0
M  V30 7721 O 735.51 -0.220637 1.90325 0
M  V30 7722 C 735.704 3.22098 1.5488 0
M  V30 7723 C 735.533 4.44967 0.650706 0
M  V30 7724 C 734.303 5.04444 0.293957 0
M  V30 7725 C 736.501 5.1428 -0.0452187 0
M  V30 7726 N 734.483 6.10846 -0.611609 0
M  V30 7727 C 735.854 6.14704 -0.808603 0
M  V30 7728 C 737.909 4.97759 -0.118451 0
M  V30 7729 C 736.612 7.00392 -1.63839 0
M  V30 7730 C 738.638 5.8396 -0.935157 0
M  V30 7731 C 738 6.83909 -1.68664 0
M  V30 7732 H 734.099 0.73613 0.263887 0
M  V30 7733 H 736.683 1.94638 0.049074 0
M  V30 7734 H 734.854 3.16064 2.2574 0
M  V30 7735 H 736.586 3.40015 2.19481 0
M  V30 7736 H 733.341 4.69214 0.643086 0
M  V30 7737 H 733.765 6.68695 -1.05714 0
M  V30 7738 H 738.407 4.20418 0.448202 0
M  V30 7739 H 736.125 7.7712 -2.21608 0
M  V30 7740 H 739.711 5.73236 -0.994579 0
M  V30 7741 H 738.591 7.49454 -2.30842 0
M  V30 7742 N 736.094 -0.359525 1.53444 0
M  V30 7743 C 737.371 -1.11756 1.6053 0
M  V30 7744 C 737.751 -2.06949 0.416587 0
M  V30 7745 O 737.099 -2.20681 -0.592628 0
M  V30 7746 C 737.309 -1.85133 2.95849 0
M  V30 7747 C 738.657 -2.3945 3.50641 0
M  V30 7748 O 739.681 -1.95251 2.97918 0
M  V30 7749 O 738.54 -3.20266 4.42823 0
M  V30 7750 H 735.634 -0.513005 0.648656 0
M  V30 7751 H 738.18 -0.362301 1.65787 0
M  V30 7752 H 736.952 -1.15694 3.73806 0
M  V30 7753 H 736.575 -2.67554 2.9411 0
M  V30 7754 N 737.572 -1.44907 -0.619662 0
M  V30 7755 C 738.502 -1.55488 -1.742 0
M  V30 7756 C 739.483 -0.407143 -1.65156 0
M  V30 7757 O 740.668 -0.628743 -1.8374 0
M  V30 7758 C 737.798 -1.5097 -3.1277 0
M  V30 7759 C 736.752 -2.64337 -3.36615 0
M  V30 7760 C 736.078 -2.44872 -4.75333 0
M  V30 7761 C 737.378 -4.06423 -3.28051 0
M  V30 7762 H 739.072 -2.49432 -1.65602 0
M  V30 7763 H 736.618 -1.20047 -0.795281 0
M  V30 7764 H 738.571 -1.56971 -3.91073 0
M  V30 7765 H 737.295 -0.535486 -3.2218 0
M  V30 7766 H 735.954 -2.57744 -2.60698 0
M  V30 7767 H 735.602 -1.45617 -4.81461 0
M  V30 7768 H 735.302 -3.20888 -4.92244 0
M  V30 7769 H 736.826 -2.52709 -5.55851 0
M  V30 7770 H 738.24 -4.14324 -3.96243 0
M  V30 7771 H 736.637 -4.82733 -3.56495 0
M  V30 7772 H 737.707 -4.29183 -2.25676 0
M  V30 7773 N 739.05 0.861098 -1.31996 0
M  V30 7774 C 740.461 1.43065 -1.19955 0
M  V30 7775 C 740.812 1.95273 0.190489 0
M  V30 7776 O 739.937 1.87012 1.08882 0
M  V30 7777 C 740.532 2.60052 -2.1716 0
M  V30 7778 C 739.091 3.13026 -2.09026 0
M  V30 7779 C 738.238 1.85756 -2.05888 0
M  V30 7780 H 741.189 0.668834 -1.43918 0
M  V30 7781 H 741.21 3.37016 -1.76637 0
M  V30 7782 H 740.722 2.22024 -3.18319 0
M  V30 7783 H 738.823 3.55653 -1.11092 0
M  V30 7784 H 738.936 3.74707 -2.98549 0
M  V30 7785 H 737.3 2.05088 -1.51033 0
M  V30 7786 H 738.083 1.49954 -3.08818 0
M  V30 7787 N 740.528 1.15101 1.07655 0
M  V30 7788 C 741.46 0.802722 2.14684 0
M  V30 7789 C 742.473 -0.183874 1.61758 0
M  V30 7790 O 743.662 0.0389349 1.78458 0
M  V30 7791 C 740.762 0.172135 3.38463 0
M  V30 7792 C 739.935 1.19538 4.20749 0
M  V30 7793 C 738.994 0.58714 5.22914 0
M  V30 7794 O 738.02 1.25224 5.55255 0
M  V30 7795 N 739.222 -0.632566 5.77043 0
M  V30 7796 H 741.987 1.72379 2.45164 0
M  V30 7797 H 739.548 1.04647 1.23534 0
M  V30 7798 H 741.54 -0.247465 4.03943 0
M  V30 7799 H 740.11 -0.652214 3.0572 0
M  V30 7800 H 739.33 1.79165 3.51132 0
M  V30 7801 H 740.618 1.88636 4.7254 0
M  V30 7802 H 740.016 -1.19135 5.53013 0
M  V30 7803 H 738.573 -0.994566 6.44167 0
M  V30 7804 N 742.006 -1.2595 0.947325 0
M  V30 7805 C 742.969 -2.24407 0.466285 0
M  V30 7806 C 743.969 -1.55054 -0.426005 0
M  V30 7807 O 745.159 -1.7275 -0.224319 0
M  V30 7808 C 742.291 -3.39326 -0.327201 0
M  V30 7809 H 743.484 -2.68477 1.33642 0
M  V30 7810 H 741.037 -1.38211 0.729887 0
M  V30 7811 H 741.772 -3.00667 -1.21532 0
M  V30 7812 H 741.557 -3.9085 0.312839 0
M  V30 7813 H 743.047 -4.12455 -0.653477 0
M  V30 7814 N 743.484 -0.715051 -1.40445 0
M  V30 7815 C 744.414 -0.0768699 -2.33373 0
M  V30 7816 C 745.395 0.746109 -1.52863 0
M  V30 7817 O 746.58 0.695142 -1.81332 0
M  V30 7818 C 743.71 0.846014 -3.36838 0
M  V30 7819 C 742.664 0.128694 -4.27806 0
M  V30 7820 C 741.99 1.16726 -5.21804 0
M  V30 7821 C 743.29 -1.01679 -5.12307 0
M  V30 7822 H 744.984 -0.853061 -2.8699 0
M  V30 7823 H 742.53 -0.41167 -1.3799 0
M  V30 7824 H 744.483 1.30185 -4.00786 0
M  V30 7825 H 743.207 1.6541 -2.81615 0
M  V30 7826 H 741.866 -0.307314 -3.6531 0
M  V30 7827 H 741.514 1.96838 -4.62887 0
M  V30 7828 H 741.214 0.692188 -5.83509 0
M  V30 7829 H 742.738 1.62321 -5.88629 0
M  V30 7830 H 744.152 -0.640337 -5.69713 0
M  V30 7831 H 742.549 -1.4202 -5.83053 0
M  V30 7832 H 743.619 -1.84769 -4.48317 0
M  V30 7833 N 744.962 1.50701 -0.461195 0
M  V30 7834 C 745.894 2.26124 0.374244 0
M  V30 7835 C 746.907 1.31064 0.965715 0
M  V30 7836 O 748.096 1.56647 0.855801 0
M  V30 7837 C 745.196 3.01996 1.5379 0
M  V30 7838 C 744.369 4.24336 1.06101 0
M  V30 7839 C 743.428 4.82585 2.09756 0
M  V30 7840 O 742.454 5.43775 1.68219 0
M  V30 7841 N 743.656 4.68712 3.42475 0
M  V30 7842 H 746.421 2.9846 -0.2723 0
M  V30 7843 H 743.982 1.59256 -0.291415 0
M  V30 7844 H 745.974 3.37846 2.22806 0
M  V30 7845 H 744.544 2.32521 2.08933 0
M  V30 7846 H 743.764 3.93707 0.197085 0
M  V30 7847 H 745.052 5.03678 0.720156 0
M  V30 7848 H 744.45 4.20026 3.78938 0
M  V30 7849 H 743.007 5.08858 4.07317 0
M  V30 7850 N 746.441 0.193421 1.56409 0
M  V30 7851 C 747.718 -0.493318 1.89277 0
M  V30 7852 C 748.098 -1.79765 1.10669 0
M  V30 7853 O 747.446 -2.27558 0.207274 0
M  V30 7854 C 747.656 -0.713732 3.41624 0
M  V30 7855 C 749.004 -1.03385 4.11821 0
M  V30 7856 O 750.028 -0.801511 3.47065 0
M  V30 7857 O 748.887 -1.47327 5.26267 0
M  V30 7858 H 745.981 -0.256973 0.786062 0
M  V30 7859 H 748.527 0.23351 1.68086 0
M  V30 7860 H 747.299 0.207446 3.9075 0
M  V30 7861 H 746.922 -1.49308 3.68501 0
M  V30 7862 N 747.919 -1.57396 -0.0801906 0
M  V30 7863 C 748.869 -1.9955 -1.10289 0
M  V30 7864 C 749.853 -0.876234 -1.34948 0
M  V30 7865 O 751.045 -1.14012 -1.35389 0
M  V30 7866 C 748.174 -2.43596 -2.419 0
M  V30 7867 C 747.26 -3.6224 -2.20551 0
M  V30 7868 N 747.651 -4.76693 -1.69109 0
M  V30 7869 C 745.949 -3.68627 -2.51059 0
M  V30 7870 C 746.65 -5.58577 -1.62379 0
M  V30 7871 N 745.626 -5.02178 -2.0813 0
M  V30 7872 H 749.428 -2.85483 -0.698335 0
M  V30 7873 H 746.942 -1.59837 -0.287395 0
M  V30 7874 H 748.939 -2.72031 -3.15919 0
M  V30 7875 H 747.599 -1.59047 -2.8308 0
M  V30 7876 H 748.61 -4.9915 -1.38092 0
M  V30 7877 H 745.287 -2.94772 -2.95661 0
M  V30 7878 H 746.677 -6.60447 -1.2353 0
M  V30 7879 N 749.397 0.351382 -1.53633 0
M  V30 7880 C 750.645 1.09034 -1.70165 0
M  V30 7881 C 750.966 1.89413 -0.463422 0
M  V30 7882 O 750.236 1.888 0.522624 0
M  V30 7883 H 748.816 0.405522 -0.627344 0
M  V30 7884 H 751.478 0.394554 -1.90865 0
M  V30 7885 H 750.574 1.77215 -2.56907 0
M  V30 7886 N 750.875 1.45233 0.611969 0
M  V30 7887 C 752.123 1.48727 1.36838 0
M  V30 7888 C 752.444 0.128616 1.94575 0
M  V30 7889 O 751.714 -0.84149 1.76906 0
M  V30 7890 H 750.294 0.547695 0.507976 0
M  V30 7891 H 752.956 1.81156 0.718925 0
M  V30 7892 H 752.052 2.2236 2.19003 0
M  V30 7893 N 752.353 -0.854086 1.3245 0
M  V30 7894 C 753.599 -1.6105 1.24235 0
M  V30 7895 C 753.954 -1.91421 -0.193877 0
M  V30 7896 O 753.247 -1.54599 -1.1318 0
M  V30 7897 C 753.441 -2.93746 2.03587 0
M  V30 7898 C 753.27 -2.76335 3.54781 0
M  V30 7899 C 752.04 -2.74687 4.24117 0
M  V30 7900 C 754.238 -2.50052 4.4942 0
M  V30 7901 N 752.22 -2.48493 5.6136 0
M  V30 7902 C 753.591 -2.33269 5.74444 0
M  V30 7903 C 755.646 -2.35525 4.38671 0
M  V30 7904 C 754.349 -2.03434 6.89933 0
M  V30 7905 C 756.375 -2.07081 5.5396 0
M  V30 7906 C 755.737 -1.91098 6.77983 0
M  V30 7907 H 751.836 -0.593008 0.50977 0
M  V30 7908 H 754.42 -1.00392 1.66822 0
M  V30 7909 H 752.591 -3.52382 1.63345 0
M  V30 7910 H 754.323 -3.58768 1.87263 0
M  V30 7911 H 751.078 -2.87647 3.7624 0
M  V30 7912 H 751.502 -2.38322 6.33665 0
M  V30 7913 H 756.144 -2.46602 3.43435 0
M  V30 7914 H 753.862 -1.91095 7.85181 0
M  V30 7915 H 757.448 -1.96618 5.4757 0
M  V30 7916 H 756.328 -1.69402 7.65684 0
M  V30 7917 N 753.831 -1.1567 -1.07043 0
M  V30 7918 C 754.763 -0.814095 -2.14255 0
M  V30 7919 C 755.776 0.175293 -1.61854 0
M  V30 7920 O 756.965 -0.0483984 -1.78434 0
M  V30 7921 C 754.065 -0.190082 -3.38367 0
M  V30 7922 C 753.238 -1.21768 -4.20109 0
M  V30 7923 C 752.297 -0.614863 -5.22595 0
M  V30 7924 O 751.323 -1.28167 -5.54583 0
M  V30 7925 N 752.525 0.601955 -5.77371 0
M  V30 7926 H 755.29 -1.73677 -2.44247 0
M  V30 7927 H 752.851 -1.05301 -1.22977 0
M  V30 7928 H 754.843 0.22604 -4.04068 0
M  V30 7929 H 753.413 0.635992 -3.06062 0
M  V30 7930 H 752.633 -1.81025 -3.50177 0
M  V30 7931 H 753.921 -1.9114 -4.71533 0
M  V30 7932 H 753.319 1.162 -5.53637 0
M  V30 7933 H 751.876 0.96039 -6.44686 0
M  V30 7934 N 755.309 1.25446 -0.953992 0
M  V30 7935 C 756.257 2.27909 -0.46478 0
M  V30 7936 C 757.251 1.62904 0.464607 0
M  V30 7937 O 758.457 1.76733 0.341407 0
M  V30 7938 H 754.832 0.74036 -0.131798 0
M  V30 7939 H 756.803 2.66559 -1.34122 0
M  V30 7940 C 755.552 3.46853 0.242589 0
M  V30 7941 H 754.875 3.97105 -0.463418 0
M  V30 7942 H 756.315 4.20432 0.548919 0
M  V30 7943 C 754.774 3.03386 1.46487 0
M  V30 7944 O 755.304 3.09342 2.56262 0
M  V30 7945 N 753.51 2.58584 1.32599 0
M  V30 7946 H 753.057 2.53938 0.432834 0
M  V30 7947 H 753.015 2.29866 2.14497 0
M  V30 7948 N 756.787 0.722489 1.40064 0
M  V30 7949 C 757.697 0.0755984 2.34478 0
M  V30 7950 C 758.713 -0.736046 1.57665 0
M  V30 7951 O 759.889 -0.667407 1.9002 0
M  V30 7952 C 756.954 -0.830075 3.36616 0
M  V30 7953 C 756.015 -0.00759884 4.29299 0
M  V30 7954 C 755.248 -0.870139 5.26559 0
M  V30 7955 O 755.471 -2.10921 5.2997 0
M  V30 7956 O 754.405 -0.305454 6.01124 0
M  V30 7957 H 758.231 0.854545 2.9143 0
M  V30 7958 H 755.816 0.483032 1.41376 0
M  V30 7959 H 757.698 -1.34864 3.99236 0
M  V30 7960 H 756.373 -1.58805 2.82069 0
M  V30 7961 H 755.28 0.556199 3.69942 0
M  V30 7962 H 756.613 0.712312 4.87018 0
M  V30 7963 N 758.265 -1.50454 0.469181 0
M  V30 7964 C 759.49 -2.0722 -0.0864892 0
M  V30 7965 C 759.915 -1.33098 -1.32916 0
M  V30 7966 O 759.273 -0.378084 -1.77314 0
M  V30 7967 C 759.321 -3.58845 -0.355384 0
M  V30 7968 O 758.425 -3.86583 -1.43622 0
M  V30 7969 H 757.766 -0.663889 0.0121414 0
M  V30 7970 H 760.296 -1.93674 0.659674 0
M  V30 7971 H 760.306 -4.03617 -0.596447 0
M  V30 7972 H 758.981 -4.12211 0.552698 0
M  V30 7973 H 757.558 -3.5365 -1.18262 0
M  V30 7974 N 759.743 -0.201713 -1.56304 0
M  V30 7975 C 760.989 0.435952 -1.98059 0
M  V30 7976 C 761.322 1.60811 -1.08873 0
M  V30 7977 O 760.597 1.9398 -0.142128 0
M  V30 7978 C 760.88 0.889706 -3.48936 0
M  V30 7979 C 760.733 -0.284725 -4.48898 0
M  V30 7980 C 762.052 1.7529 -4.03685 0
M  V30 7981 H 759.171 0.15699 -0.720085 0
M  V30 7982 H 761.813 -0.293965 -1.87712 0
M  V30 7983 H 759.963 1.51166 -3.57884 0
M  V30 7984 H 761.635 -0.922531 -4.51981 0
M  V30 7985 H 759.878 -0.935427 -4.23594 0
M  V30 7986 H 760.549 0.0753865 -5.51949 0
M  V30 7987 H 763.025 1.2283 -3.97558 0
M  V30 7988 H 761.901 2.03933 -5.0961 0
M  V30 7989 H 762.162 2.70939 -3.49348 0
M  V30 7990 N 761.222 1.57436 0.0718424 0
M  V30 7991 C 762.468 1.87525 0.772149 0
M  V30 7992 C 762.801 0.79399 1.77227 0
M  V30 7993 O 762.076 -0.195733 1.93513 0
M  V30 7994 C 762.359 3.28272 1.48018 0
M  V30 7995 C 762.212 4.47052 0.49647 0
M  V30 7996 C 763.531 3.67256 2.42509 0
M  V30 7997 H 760.65 0.682049 0.279245 0
M  V30 7998 H 763.292 1.89967 0.03534 0
M  V30 7999 H 761.442 3.26321 2.10824 0
M  V30 8000 H 763.114 4.61127 -0.126375 0
M  V30 8001 H 761.357 4.33392 -0.188205 0
M  V30 8002 H 762.028 5.42315 1.02949 0
M  V30 8003 H 764.504 3.70301 1.89781 0
M  V30 8004 H 763.38 4.66626 2.89053 0
M  V30 8005 H 763.641 2.97186 3.27312 0
M  V30 8006 N 762.7 -0.34323 1.53817 0
M  V30 8007 C 763.977 -1.10047 1.61706 0
M  V30 8008 C 764.357 -2.06495 0.438514 0
M  V30 8009 O 763.705 -2.21297 -0.569188 0
M  V30 8010 C 763.915 -1.81985 2.97796 0
M  V30 8011 C 765.263 -2.35717 3.53161 0
M  V30 8012 O 766.287 -1.9208 2.99973 0
M  V30 8013 O 765.146 -3.15551 4.46195 0
M  V30 8014 H 762.24 -0.506096 0.654061 0
M  V30 8015 H 764.786 -0.344697 1.66162 0
M  V30 8016 H 763.558 -1.11722 3.75012 0
M  V30 8017 H 763.181 -2.64419 2.96931 0
M  V30 8018 N 764.178 -1.45556 -0.604258 0
M  V30 8019 C 765.141 -1.54091 -1.69672 0
M  V30 8020 C 766.141 -0.420076 -1.55216 0
M  V30 8021 O 767.331 -0.683671 -1.60224 0
M  V30 8022 C 764.463 -1.44063 -3.08964 0
M  V30 8023 H 765.656 -2.51431 -1.6347 0
M  V30 8024 H 763.209 -1.33046 -0.820273 0
M  V30 8025 H 763.944 -0.479201 -3.2074 0
M  V30 8026 H 763.729 -2.25362 -3.20865 0
M  V30 8027 H 765.219 -1.53075 -3.88533 0
M  V30 8028 N 765.656 0.84705 -1.32902 0
M  V30 8029 C 766.903 1.60176 -1.23894 0
M  V30 8030 C 767.231 1.93496 0.197341 0
M  V30 8031 O 766.486 1.58173 1.15238 0
M  V30 8032 C 766.785 2.92663 -2.05142 0
M  V30 8033 C 766.451 2.7874 -3.54422 0
M  V30 8034 C 765.113 2.7465 -3.95121 0
M  V30 8035 C 767.465 2.64128 -4.49317 0
M  V30 8036 C 764.793 2.53837 -5.28946 0
M  V30 8037 C 767.145 2.44849 -5.83294 0
M  V30 8038 C 765.809 2.39156 -6.23186 0
M  V30 8039 H 765.079 0.586127 -0.453361 0
M  V30 8040 H 767.726 0.981994 -1.64405 0
M  V30 8041 H 766.031 3.588 -1.57383 0
M  V30 8042 H 767.728 3.50095 -1.95537 0
M  V30 8043 H 764.318 2.82751 -3.22102 0
M  V30 8044 H 768.502 2.66327 -4.18788 0
M  V30 8045 H 763.758 2.4787 -5.58901 0
M  V30 8046 H 767.932 2.32524 -6.56434 0
M  V30 8047 H 765.559 2.22789 -7.26821 0
M  V30 8048 N 767.134 1.16236 1.06428 0
M  V30 8049 C 768.064 0.890807 2.1584 0
M  V30 8050 C 769.045 -0.162333 1.69324 0
M  V30 8051 O 770.23 -0.0147191 1.94194 0
M  V30 8052 C 767.36 0.389615 3.45108 0
M  V30 8053 C 766.314 1.38051 4.05125 0
M  V30 8054 C 765.64 0.737773 5.29586 0
M  V30 8055 C 766.94 2.74965 4.44062 0
M  V30 8056 H 768.634 1.80577 2.38814 0
M  V30 8057 H 766.18 0.869657 1.14774 0
M  V30 8058 H 768.133 0.187127 4.20984 0
M  V30 8059 H 766.857 -0.560851 3.21748 0
M  V30 8060 H 765.516 1.56952 3.31303 0
M  V30 8061 H 765.164 -0.219135 5.02522 0
M  V30 8062 H 764.864 1.39914 5.70699 0
M  V30 8063 H 766.388 0.545275 6.0816 0
M  V30 8064 H 767.802 2.59855 5.11027 0
M  V30 8065 H 766.199 3.37563 4.96156 0
M  V30 8066 H 767.269 3.30321 3.54987 0
M  V30 8067 N 768.612 -1.24939 0.960631 0
M  V30 8068 C 769.889 -1.88118 0.535807 0
M  V30 8069 C 770.269 -1.86605 -0.987009 0
M  V30 8070 O 769.617 -1.33375 -1.85536 0
M  V30 8071 C 769.827 -3.30565 1.11927 0
M  V30 8072 C 771.175 -4.07296 1.19981 0
M  V30 8073 O 772.199 -3.39709 1.07126 0
M  V30 8074 O 771.058 -5.28206 1.40218 0
M  V30 8075 H 768.152 -0.807698 0.177631 0
M  V30 8076 H 770.698 -1.32964 1.05445 0
M  V30 8077 H 769.47 -3.26128 2.16231 0
M  V30 8078 H 769.093 -3.93284 0.584245 0
M  V30 8079 N 770.09 -0.729906 -1.39679 0
M  V30 8080 C 771.32 -0.285295 -2.04621 0
M  V30 8081 C 771.728 1.08304 -1.55135 0
M  V30 8082 O 771.071 1.6946 -0.709146 0
M  V30 8083 C 771.133 -0.203129 -3.58926 0
M  V30 8084 C 770.797 -1.50909 -4.31365 0
M  V30 8085 C 771.794 -2.45381 -4.58349 0
M  V30 8086 C 769.479 -1.77198 -4.70007 0
M  V30 8087 C 771.473 -3.64379 -5.22979 0
M  V30 8088 C 769.16 -2.96474 -5.34365 0
M  V30 8089 C 770.158 -3.89886 -5.60783 0
M  V30 8090 O 769.846 -5.07069 -6.23808 0
M  V30 8091 H 769.578 -0.123373 -0.664647 0
M  V30 8092 H 772.132 -0.992901 -1.79807 0
M  V30 8093 H 770.362 0.560538 -3.82616 0
M  V30 8094 H 772.051 0.208811 -4.05363 0
M  V30 8095 H 772.817 -2.2634 -4.28947 0
M  V30 8096 H 768.696 -1.05337 -4.48804 0
M  V30 8097 H 772.24 -4.37307 -5.43515 0
M  V30 8098 H 768.137 -3.15419 -5.63188 0
M  V30 8099 H 768.905 -5.07335 -6.42303 0
M  V30 8100 N 771.568 1.50203 -0.477153 0
M  V30 8101 C 772.531 2.27194 0.302599 0
M  V30 8102 C 773.531 1.32221 0.915112 0
M  V30 8103 O 774.721 1.55593 0.783348 0
M  V30 8104 C 771.853 3.0938 1.43167 0
M  V30 8105 H 773.046 2.97575 -0.372678 0
M  V30 8106 H 770.599 1.54578 -0.231392 0
M  V30 8107 H 771.334 2.43509 2.14182 0
M  V30 8108 H 771.119 3.79181 0.998197 0
M  V30 8109 H 772.609 3.67592 1.98157 0
M  V30 8110 N 773.046 0.209999 1.56195 0
M  V30 8111 C 774.009 -0.691232 2.18528 0
M  V30 8112 C 775.009 -1.13013 1.14388 0
M  V30 8113 O 776.199 -1.04081 1.39688 0
M  V30 8114 C 773.331 -1.94551 2.79934 0
M  V30 8115 H 774.524 -0.147953 2.99535 0
M  V30 8116 H 772.077 -0.0396243 1.5625 0
M  V30 8117 H 772.812 -2.53094 2.02766 0
M  V30 8118 H 772.597 -1.63938 3.56184 0
M  V30 8119 H 774.087 -2.58785 3.2775 0
M  V30 8120 N 774.524 -1.57472 -0.0634922 0
M  V30 8121 C 775.771 -1.87654 -0.761066 0
M  V30 8122 C 776.099 -0.802847 -1.77157 0
M  V30 8123 O 775.354 0.200244 -1.94673 0
M  V30 8124 C 775.653 -3.24521 -1.49736 0
M  V30 8125 C 775.319 -4.46532 -0.626065 0
M  V30 8126 C 773.981 -4.7965 -0.385978 0
M  V30 8127 C 776.333 -5.21195 -0.0224001 0
M  V30 8128 C 773.661 -5.84837 0.467118 0
M  V30 8129 C 776.013 -6.27286 0.818198 0
M  V30 8130 C 774.677 -6.58899 1.06808 0
M  V30 8131 H 773.947 -0.686675 -0.278494 0
M  V30 8132 H 776.594 -1.91488 -0.0216348 0
M  V30 8133 H 774.899 -3.16516 -2.30921 0
M  V30 8134 H 776.596 -3.45111 -2.04204 0
M  V30 8135 H 773.186 -4.20618 -0.823325 0
M  V30 8136 H 777.37 -4.95917 -0.194985 0
M  V30 8137 H 772.626 -6.07725 0.669375 0
M  V30 8138 H 776.8 -6.84298 1.29265 0
M  V30 8139 H 774.427 -7.40233 1.73088 0
M  V30 8140 N 776.003 0.335068 -1.53997 0
M  V30 8141 C 777.243 1.0827 -1.7337 0
M  V30 8142 C 777.607 1.85618 -0.490913 0
M  V30 8143 O 778.808 2.62864 -0.561799 0
M  V30 8144 C 777.079 1.99212 -2.96731 0
M  V30 8145 S 778.638 2.81083 -3.36954 0
M  V30 8146 H 775.456 0.365698 -0.609743 0
M  V30 8147 H 778.058 0.360079 -1.92155 0
M  V30 8148 H 776.762 1.41204 -3.85344 0
M  V30 8149 H 776.293 2.75898 -2.80436 0
M  V30 8150 H 778.308 4.01657 -2.91352 0
M  V30 8151 N 777.481 1.45874 0.596531 0
M  V30 8152 C 778.728 1.50467 1.35521 0
M  V30 8153 C 779.056 0.150802 1.93915 0
M  V30 8154 O 778.311 -0.851913 1.76184 0
M  V30 8155 C 778.61 2.54034 2.51399 0
M  V30 8156 C 778.276 3.9844 2.11085 0
M  V30 8157 C 776.938 4.37758 1.99804 0
M  V30 8158 C 779.29 4.89209 1.79788 0
M  V30 8159 C 776.618 5.65727 1.55465 0
M  V30 8160 C 778.97 6.17602 1.36931 0
M  V30 8161 C 777.634 6.5584 1.24218 0
M  V30 8162 H 776.904 0.550597 0.495907 0
M  V30 8163 H 779.551 1.79279 0.673145 0
M  V30 8164 H 777.856 2.18832 3.24992 0
M  V30 8165 H 779.553 2.54822 3.09624 0
M  V30 8166 H 776.143 3.67353 2.20794 0
M  V30 8167 H 780.327 4.59562 1.87395 0
M  V30 8168 H 775.583 5.94139 1.44253 0
M  V30 8169 H 779.757 6.87373 1.11764 0
M  V30 8170 H 777.384 7.54897 0.896353 0
M  V30 8171 N 778.959 -0.83999 1.33349 0
M  V30 8172 C 780.184 -1.63249 1.27924 0
M  V30 8173 C 780.609 -1.87523 -0.147193 0
M  V30 8174 O 779.967 -1.43853 -1.10345 0
M  V30 8175 C 780.015 -2.96046 2.05886 0
M  V30 8176 O 779.119 -3.87303 1.4167 0
M  V30 8177 H 778.46 -0.49715 0.440157 0
M  V30 8178 H 780.99 -1.04512 1.75893 0
M  V30 8179 H 781 -3.45752 2.16609 0
M  V30 8180 H 779.675 -2.77701 3.09605 0
M  V30 8181 H 778.252 -3.45789 1.39585 0
M  V30 8182 N 780.437 -1.16799 -1.0581 0
M  V30 8183 C 781.665 -0.97687 -1.82387 0
M  V30 8184 C 782.08 0.474917 -1.82729 0
M  V30 8185 O 781.437 1.3297 -1.25001 0
M  V30 8186 C 781.488 -1.50279 -3.28783 0
M  V30 8187 O 781.209 -2.89772 -3.28578 0
M  V30 8188 C 782.71 -1.35538 -4.22071 0
M  V30 8189 H 779.93 -0.345977 -0.574927 0
M  V30 8190 H 782.474 -1.54942 -1.33466 0
M  V30 8191 H 780.629 -0.972414 -3.74997 0
M  V30 8192 H 781.043 -3.13954 -4.20159 0
M  V30 8193 H 782.517 -1.7716 -5.22799 0
M  V30 8194 H 782.994 -0.301598 -4.38163 0
M  V30 8195 H 783.6 -1.87562 -3.81708 0
M  V30 8196 N 781.915 1.24427 -0.967243 0
M  V30 8197 C 783.162 1.92487 -0.62888 0
M  V30 8198 C 783.49 1.75623 0.835871 0
M  V30 8199 O 782.745 1.1027 1.61675 0
M  V30 8200 C 783.044 3.44568 -0.949096 0
M  V30 8201 C 782.71 3.816 -2.40192 0
M  V30 8202 C 781.372 3.9142 -2.799 0
M  V30 8203 C 783.724 3.99715 -3.34481 0
M  V30 8204 C 781.052 4.16771 -4.12939 0
M  V30 8205 C 783.404 4.26562 -4.67148 0
M  V30 8206 C 782.068 4.34601 -5.06634 0
M  V30 8207 H 781.338 0.704361 -0.230124 0
M  V30 8208 H 783.985 1.4772 -1.21864 0
M  V30 8209 H 782.29 3.90819 -0.277085 0
M  V30 8210 H 783.987 3.95436 -0.665692 0
M  V30 8211 H 780.577 3.74522 -2.08402 0
M  V30 8212 H 784.761 3.91531 -3.04987 0
M  V30 8213 H 780.017 4.21214 -4.43158 0
M  V30 8214 H 784.191 4.39523 -5.40178 0
M  V30 8215 H 781.818 4.53998 -6.09746 0
M  V30 8216 N 783.393 0.737304 1.3929 0
M  V30 8217 C 784.641 0.285691 2.00071 0
M  V30 8218 C 784.962 -1.13169 1.58801 0
M  V30 8219 O 784.232 -1.77104 0.837308 0
M  V30 8220 H 782.812 0.102638 0.739915 0
M  V30 8221 H 785.474 0.947775 1.70303 0
M  V30 8222 H 784.57 0.335906 3.10287 0
M  V30 8223 N 784.871 -1.49948 0.485112 0
M  V30 8224 C 786.148 -1.95186 -0.12726 0
M  V30 8225 C 786.528 -1.42605 -1.5565 0
M  V30 8226 O 785.876 -0.632986 -2.19558 0
M  V30 8227 C 786.086 -3.48955 -0.0562117 0
M  V30 8228 C 787.434 -4.23932 -0.238106 0
M  V30 8229 O 788.458 -3.55955 -0.132145 0
M  V30 8230 O 787.317 -5.44614 -0.453658 0
M  V30 8231 H 784.411 -0.820433 -0.104014 0
M  V30 8232 H 786.957 -1.60659 0.546517 0
M  V30 8233 H 785.729 -3.79814 0.941122 0
M  V30 8234 H 785.352 -3.90056 -0.770834 0
M  V30 8235 N 786.349 -0.21828 -1.56081 0
M  V30 8236 C 787.765 0.137168 -1.59009 0
M  V30 8237 C 787.965 1.59215 -1.23503 0
M  V30 8238 O 787.021 2.33178 -0.968716 0
M  V30 8239 C 788.334 -0.186162 -3.00123 0
M  V30 8240 C 789.882 -0.128135 -3.12738 0
M  V30 8241 C 790.357 -0.425094 -4.56023 0
M  V30 8242 N 791.848 -0.374547 -4.61683 0
M  V30 8243 C 792.583 -0.57786 -5.70481 0
M  V30 8244 N 792.079 -0.842771 -6.87655 0
M  V30 8245 N 793.872 -0.510521 -5.59777 0
M  V30 8246 H 786.023 -1.16746 -1.77437 0
M  V30 8247 H 788.286 -0.467706 -0.824594 0
M  V30 8248 H 787.992 -1.19589 -3.30744 0
M  V30 8249 H 787.866 0.500388 -3.73866 0
M  V30 8250 H 790.253 0.872224 -2.81915 0
M  V30 8251 H 790.334 -0.848112 -2.41331 0
M  V30 8252 H 789.978 -1.42288 -4.87562 0
M  V30 8253 H 789.908 0.316038 -5.25651 0
M  V30 8254 H 792.399 -0.177356 -3.77484 0
M  V30 8255 H 792.712 -0.986095 -7.66483 0
M  V30 8256 H 791.057 -0.879929 -6.89407 0
M  V30 8257 H 794.248 -0.303813 -4.67113 0
M  V30 8258 H 794.421 -0.672378 -6.44502 0
M  V30 8259 N 787.827 1.57504 0.0551401 0
M  V30 8260 C 789.073 1.88334 0.752216 0
M  V30 8261 C 789.406 0.812742 1.76375 0
M  V30 8262 O 788.681 -0.175198 1.93709 0
M  V30 8263 C 788.964 3.29824 1.44528 0
M  V30 8264 C 788.817 4.47553 0.449026 0
M  V30 8265 C 790.136 3.69808 2.38601 0
M  V30 8266 H 787.255 0.684973 0.271995 0
M  V30 8267 H 789.897 1.89994 0.0151895 0
M  V30 8268 H 788.047 3.28539 2.07351 0
M  V30 8269 H 789.719 4.60967 -0.175277 0
M  V30 8270 H 787.962 4.33168 -0.234162 0
M  V30 8271 H 788.633 5.43376 0.971917 0
M  V30 8272 H 791.109 3.72293 1.85842 0
M  V30 8273 H 789.985 4.69665 2.84088 0
M  V30 8274 H 790.246 3.00641 3.24141 0
M  V30 8275 N 789.305 -0.326896 1.54172 0
M  V30 8276 C 790.252 -1.40216 1.83325 0
M  V30 8277 C 791.222 -1.51538 0.680107 0
M  V30 8278 O 792.407 -1.66811 0.926206 0
M  V30 8279 C 789.547 -2.76626 2.0633 0
M  V30 8280 C 788.66 -2.73963 3.34019 0
M  V30 8281 C 787.795 -4.02198 3.47002 0
M  V30 8282 C 786.834 -3.93828 4.68578 0
M  V30 8283 N 785.971 -5.13787 4.78506 0
M  V30 8284 H 790.811 -1.14656 2.7506 0
M  V30 8285 H 788.348 -0.555089 1.36225 0
M  V30 8286 H 790.306 -3.55922 2.17659 0
M  V30 8287 H 788.936 -3.00503 1.1789 0
M  V30 8288 H 787.988 -1.86677 3.31445 0
M  V30 8289 H 789.3 -2.6366 4.2342 0
M  V30 8290 H 788.454 -4.89923 3.57855 0
M  V30 8291 H 787.193 -4.15302 2.55687 0
M  V30 8292 H 786.198 -3.04487 4.57786 0
M  V30 8293 H 787.423 -3.82292 5.61275 0
M  V30 8294 H 785.369 -5.27403 3.90105 0
M  V30 8295 H 785.286 -5.05807 5.61868 0
M  V30 8296 H 786.554 -6.03236 4.93686 0
M  V30 8297 N 790.784 -1.46188 -0.588786 0
M  V30 8298 C 791.714 -1.59148 -1.70863 0
M  V30 8299 C 792.695 -0.442083 -1.64255 0
M  V30 8300 O 793.88 -0.667575 -1.82365 0
M  V30 8301 C 791.01 -1.5757 -3.09498 0
M  V30 8302 C 789.964 -2.71418 -3.30932 0
M  V30 8303 C 789.29 -2.549 -4.70032 0
M  V30 8304 C 790.59 -4.1329 -3.19356 0
M  V30 8305 H 792.284 -2.52889 -1.60274 0
M  V30 8306 H 789.83 -1.21707 -0.769638 0
M  V30 8307 H 791.783 -1.65231 -3.87655 0
M  V30 8308 H 790.507 -0.603705 -3.20972 0
M  V30 8309 H 789.166 -2.63216 -2.55172 0
M  V30 8310 H 788.814 -1.55797 -4.78264 0
M  V30 8311 H 788.514 -3.31257 -4.85327 0
M  V30 8312 H 790.038 -2.64443 -5.50366 0
M  V30 8313 H 791.452 -4.22636 -3.87365 0
M  V30 8314 H 789.849 -4.90187 -3.46175 0
M  V30 8315 H 790.919 -4.33874 -2.16522 0
M  V30 8316 N 792.262 0.832906 -1.33792 0
M  V30 8317 C 793.508 1.59053 -1.26782 0
M  V30 8318 C 793.863 1.91705 0.163399 0
M  V30 8319 O 793.156 1.5638 1.10706 0
M  V30 8320 C 793.35 2.9047 -2.08235 0
M  V30 8321 C 793.179 2.70656 -3.59132 0
M  V30 8322 C 791.949 2.67905 -4.28433 0
M  V30 8323 C 794.147 2.42871 -4.53341 0
M  V30 8324 N 792.129 2.39531 -5.65242 0
M  V30 8325 C 793.5 2.24101 -5.78082 0
M  V30 8326 C 795.555 2.28517 -4.42362 0
M  V30 8327 C 794.258 1.92432 -6.93082 0
M  V30 8328 C 796.284 1.98242 -5.57184 0
M  V30 8329 C 795.646 1.80288 -6.80937 0
M  V30 8330 H 791.745 0.584823 -0.51914 0
M  V30 8331 H 794.329 0.977252 -1.68398 0
M  V30 8332 H 792.5 3.49739 -1.6893 0
M  V30 8333 H 794.232 3.55744 -1.92947 0
M  V30 8334 H 790.987 2.81624 -3.80768 0
M  V30 8335 H 791.411 2.28211 -6.37377 0
M  V30 8336 H 796.053 2.41107 -3.47314 0
M  V30 8337 H 793.771 1.78579 -7.88121 0
M  V30 8338 H 797.357 1.87882 -5.50628 0
M  V30 8339 H 796.237 1.57199 -7.68283 0
M  V30 8340 N 793.74 1.17359 1.05189 0
M  V30 8341 C 794.986 0.963413 1.78455 0
M  V30 8342 C 795.319 -0.506703 1.87473 0
M  V30 8343 O 794.594 -1.37611 1.37453 0
M  V30 8344 C 794.877 1.60519 3.22344 0
M  V30 8345 C 794.73 3.14741 3.21338 0
M  V30 8346 C 796.049 1.3091 4.20179 0
M  V30 8347 H 793.168 0.351412 0.647826 0
M  V30 8348 H 795.81 1.44858 1.22948 0
M  V30 8349 H 793.96 1.19265 3.69741 0
M  V30 8350 H 795.632 3.65053 2.82017 0
M  V30 8351 H 793.875 3.4749 2.59679 0
M  V30 8352 H 794.546 3.54775 4.22894 0
M  V30 8353 H 797.022 1.66635 3.81277 0
M  V30 8354 H 795.898 1.784 5.191 0
M  V30 8355 H 796.159 0.229908 4.41502 0
M  V30 8356 N 795.218 -1.23913 0.973828 0
M  V30 8357 C 796.446 -1.96195 0.656891 0
M  V30 8358 C 796.861 -1.72166 -0.774876 0
M  V30 8359 O 796.218 -1.0091 -1.52064 0
M  V30 8360 C 796.269 -3.49342 0.929638 0
M  V30 8361 O 795.99 -3.72553 2.30512 0
M  V30 8362 C 797.491 -4.38833 0.627739 0
M  V30 8363 H 794.711 -0.624841 0.244572 0
M  V30 8364 H 797.255 -1.57579 1.30343 0
M  V30 8365 H 795.41 -3.85999 0.329216 0
M  V30 8366 H 795.824 -4.66893 2.3898 0
M  V30 8367 H 797.298 -5.45117 0.868991 0
M  V30 8368 H 797.775 -4.37009 -0.438104 0
M  V30 8369 H 798.381 -4.07773 1.20834 0
M  V30 8370 N 796.696 -0.74468 -1.38897 0
M  V30 8371 C 797.943 -0.296884 -2.00312 0
M  V30 8372 C 798.271 1.11878 -1.59102 0
M  V30 8373 O 797.526 1.7789 -0.815702 0
M  V30 8374 C 797.825 -0.357302 -3.55609 0
M  V30 8375 C 797.491 -1.72736 -4.16501 0
M  V30 8376 C 796.153 -2.10232 -4.32846 0
M  V30 8377 C 798.505 -2.62647 -4.50184 0
M  V30 8378 C 795.833 -3.3713 -4.80167 0
M  V30 8379 C 798.185 -3.88926 -4.98918 0
M  V30 8380 C 796.849 -4.26503 -5.1347 0
M  V30 8381 H 796.119 -0.108638 -0.732993 0
M  V30 8382 H 798.766 -0.953419 -1.66079 0
M  V30 8383 H 797.071 0.382805 -3.89925 0
M  V30 8384 H 798.768 0.0074596 -4.00999 0
M  V30 8385 H 795.358 -1.42585 -4.04187 0
M  V30 8386 H 799.542 -2.34945 -4.37166 0
M  V30 8387 H 794.798 -3.66174 -4.89619 0
M  V30 8388 H 798.972 -4.58745 -5.23952 0
M  V30 8389 H 796.599 -5.24896 -5.49898 0
M  V30 8390 N 798.174 1.49689 -0.493057 0
M  V30 8391 C 799.124 2.25901 0.308682 0
M  V30 8392 C 800.108 1.30408 0.94247 0
M  V30 8393 O 801.3 1.55179 0.851384 0
M  V30 8394 C 798.429 3.14463 1.37725 0
M  V30 8395 C 797.515 4.17414 0.7501 0
M  V30 8396 N 797.906 5.05599 -0.142597 0
M  V30 8397 C 796.204 4.34377 1.01159 0
M  V30 8398 C 796.905 5.7954 -0.500782 0
M  V30 8399 N 795.881 5.43446 0.129386 0
M  V30 8400 H 799.683 2.91451 -0.378652 0
M  V30 8401 H 797.197 1.59441 -0.308614 0
M  V30 8402 H 799.194 3.67687 1.965 0
M  V30 8403 H 797.854 2.50464 2.06635 0
M  V30 8404 H 798.865 5.15354 -0.512894 0
M  V30 8405 H 795.542 3.81588 1.69402 0
M  V30 8406 H 796.932 6.60534 -1.23063 0
M  V30 8407 N 799.652 0.226554 1.55963 0
M  V30 8408 C 800.562 -0.692725 2.24139 0
M  V30 8409 C 801.578 -1.20971 1.25068 0
M  V30 8410 O 802.754 -1.25027 1.57893 0
M  V30 8411 C 799.819 -1.88183 2.91184 0
M  V30 8412 C 798.88 -1.40633 4.05612 0
M  V30 8413 C 798.113 -2.53875 4.6945 0
M  V30 8414 O 798.336 -3.72129 4.32292 0
M  V30 8415 O 797.27 -2.24792 5.58348 0
M  V30 8416 H 801.096 -0.141921 3.03368 0
M  V30 8417 H 798.681 -0.0041049 1.49399 0
M  V30 8418 H 800.563 -2.57617 3.33484 0
M  V30 8419 H 799.238 -2.42064 2.14911 0
M  V30 8420 H 798.145 -0.67986 3.67871 0
M  V30 8421 H 799.478 -0.913838 4.83642 0
M  V30 8422 N 801.13 -1.57531 -0.0467866 0
M  V30 8423 C 802.541 -1.76945 -0.595603 0
M  V30 8424 C 802.892 -0.855354 -1.76573 0
M  V30 8425 O 802.017 -0.045668 -2.16352 0
M  V30 8426 C 802.612 -3.20881 -1.08725 0
M  V30 8427 C 801.171 -3.41553 -1.58172 0
M  V30 8428 C 800.318 -2.72533 -0.511968 0
M  V30 8429 H 803.269 -1.57682 0.179436 0
M  V30 8430 H 803.29 -3.26419 -1.95528 0
M  V30 8431 H 802.802 -3.87385 -0.235398 0
M  V30 8432 H 800.903 -2.80199 -2.456 0
M  V30 8433 H 801.016 -4.50104 -1.64143 0
M  V30 8434 H 799.38 -2.35797 -0.962899 0
M  V30 8435 H 800.163 -3.41709 0.330117 0
M  V30 8436 N 802.608 0.318715 -1.54344 0
M  V30 8437 C 803.854 1.05383 -1.73971 0
M  V30 8438 C 804.209 1.85524 -0.509781 0
M  V30 8439 O 803.502 1.8502 0.49782 0
M  V30 8440 C 803.696 2.00514 -2.95853 0
M  V30 8441 C 803.525 1.29728 -4.30582 0
M  V30 8442 C 802.295 1.03177 -4.94654 0
M  V30 8443 C 804.493 0.710718 -5.09366 0
M  V30 8444 N 802.475 0.29232 -6.13204 0
M  V30 8445 C 803.846 0.103132 -6.19914 0
M  V30 8446 C 805.901 0.614011 -4.94099 0
M  V30 8447 C 804.604 -0.591782 -7.16862 0
M  V30 8448 C 806.63 -0.0672115 -5.91362 0
M  V30 8449 C 805.992 -0.663721 -7.01266 0
M  V30 8450 H 802.091 0.369157 -0.689382 0
M  V30 8451 H 804.675 0.334453 -1.91806 0
M  V30 8452 H 802.846 2.69719 -2.79475 0
M  V30 8453 H 804.578 2.67046 -3.04086 0
M  V30 8454 H 801.333 1.32536 -4.54677 0
M  V30 8455 H 801.757 -0.0634005 -6.7697 0
M  V30 8456 H 806.399 1.06091 -4.09273 0
M  V30 8457 H 804.117 -1.0505 -8.01243 0
M  V30 8458 H 807.703 -0.141742 -5.81627 0
M  V30 8459 H 806.583 -1.18248 -7.75234 0
M  V30 8460 N 804.086 1.46499 0.581025 0
M  V30 8461 C 805.332 1.52121 1.34116 0
M  V30 8462 C 805.665 0.173031 1.93428 0
M  V30 8463 O 804.94 -0.815729 1.76568 0
M  V30 8464 C 805.223 2.62108 2.46924 0
M  V30 8465 C 805.076 4.06462 1.92636 0
M  V30 8466 C 806.395 2.68167 3.48962 0
M  V30 8467 H 803.514 0.5538 0.486287 0
M  V30 8468 H 806.156 1.78443 0.652538 0
M  V30 8469 H 804.306 2.39794 3.05665 0
M  V30 8470 H 805.978 4.40068 1.3834 0
M  V30 8471 H 804.221 4.15862 1.23455 0
M  V30 8472 H 804.892 4.79152 2.74076 0
M  V30 8473 H 807.368 2.8823 3.00104 0
M  V30 8474 H 806.244 3.46942 4.2535 0
M  V30 8475 H 806.505 1.74284 4.06297 0
M  V30 8476 N 805.565 -0.825799 1.34232 0
M  V30 8477 C 806.498 -1.94155 1.19914 0
M  V30 8478 C 807.476 -1.62343 0.0914533 0
M  V30 8479 O 808.66 -1.86752 0.256082 0
M  V30 8480 C 805.787 -3.28064 0.842138 0
M  V30 8481 C 804.833 -3.78839 1.95917 0
M  V30 8482 S 805.666 -3.98943 3.57218 0
M  V30 8483 C 806.822 -5.35783 3.23554 0
M  V30 8484 H 807.055 -2.06003 2.14359 0
M  V30 8485 H 804.588 -0.981053 1.19225 0
M  V30 8486 H 806.546 -4.05434 0.642952 0
M  V30 8487 H 805.207 -3.13988 -0.0839363 0
M  V30 8488 H 804.4 -4.75771 1.66306 0
M  V30 8489 H 804.002 -3.08406 2.11569 0
M  V30 8490 H 806.294 -6.19094 2.7519 0
M  V30 8491 H 807.237 -5.70376 4.19615 0
M  V30 8492 H 807.645 -5.01158 2.5981 0
M  V30 8493 N 807.043 -1.17915 -1.04565 0
M  V30 8494 C 808.268 -0.996749 -1.81878 0
M  V30 8495 C 808.693 0.450169 -1.82634 0
M  V30 8496 O 808.051 1.32268 -1.23995 0
M  V30 8497 C 808.099 -1.55005 -3.25585 0
M  V30 8498 O 807.203 -0.76804 -4.05185 0
M  V30 8499 H 806.544 -0.353456 -0.562108 0
M  V30 8500 H 809.074 -1.56557 -1.31723 0
M  V30 8501 H 809.084 -1.57503 -3.76373 0
M  V30 8502 H 807.759 -2.60327 -3.2435 0
M  V30 8503 H 806.336 -0.81498 -3.63885 0
M  V30 8504 N 808.521 1.23394 -0.980386 0
M  V30 8505 C 809.751 1.9556 -0.666319 0
M  V30 8506 C 810.159 1.72786 0.770815 0
M  V30 8507 O 809.502 1.0162 1.53033 0
M  V30 8508 C 809.564 3.48643 -0.876825 0
M  V30 8509 C 809.228 3.95135 -2.29602 0
M  V30 8510 C 810.225 4.03806 -3.2747 0
M  V30 8511 C 807.91 4.28122 -2.62711 0
M  V30 8512 C 809.904 4.44818 -4.56526 0
M  V30 8513 C 807.591 4.68814 -3.9199 0
M  V30 8514 C 808.589 4.77129 -4.88709 0
M  V30 8515 O 808.277 5.16908 -6.15679 0
M  V30 8516 H 808.009 0.629422 -0.246585 0
M  V30 8517 H 810.563 1.57839 -1.31438 0
M  V30 8518 H 808.793 3.86319 -0.171587 0
M  V30 8519 H 810.482 4.0202 -0.55992 0
M  V30 8520 H 811.248 3.78526 -3.03222 0
M  V30 8521 H 807.127 4.20861 -1.8814 0
M  V30 8522 H 810.671 4.51223 -5.32018 0
M  V30 8523 H 806.568 4.93545 -4.16033 0
M  V30 8524 H 807.336 5.3502 -6.19432 0
M  V30 8525 N 809.999 0.752036 1.385 0
M  V30 8526 C 810.962 0.131587 2.28822 0
M  V30 8527 C 811.962 -0.649149 1.47115 0
M  V30 8528 O 813.152 -0.475645 1.67581 0
M  V30 8529 C 810.284 -0.822101 3.30839 0
M  V30 8530 H 811.477 0.927551 2.85196 0
M  V30 8531 H 809.03 0.518945 1.47434 0
M  V30 8532 H 809.765 -1.6438 2.79553 0
M  V30 8533 H 809.55 -0.264689 3.91206 0
M  V30 8534 H 811.04 -1.25226 3.98382 0
M  V30 8535 N 811.477 -1.49425 0.500989 0
M  V30 8536 C 812.725 -2.02053 -0.0434495 0
M  V30 8537 C 813.046 -1.38285 -1.37486 0
M  V30 8538 O 812.316 -0.538171 -1.88363 0
M  V30 8539 H 810.896 -0.746757 -0.0190469 0
M  V30 8540 H 813.558 -1.83449 0.658227 0
M  V30 8541 H 812.654 -3.11619 -0.173129 0
M  V30 8542 N 812.955 -0.234822 -1.55841 0
M  V30 8543 C 814.185 0.397168 -2.02746 0
M  V30 8544 C 814.593 1.52951 -1.11367 0
M  V30 8545 O 813.936 1.8332 -0.118133 0
M  V30 8546 C 813.998 0.977748 -3.45948 0
M  V30 8547 C 813.662 -0.0208193 -4.56995 0
M  V30 8548 C 814.659 -0.826015 -5.13296 0
M  V30 8549 C 812.344 -0.143416 -5.02095 0
M  V30 8550 C 814.338 -1.74038 -6.1318 0
M  V30 8551 C 812.025 -1.0613 -6.01814 0
M  V30 8552 C 813.023 -1.85832 -6.57233 0
M  V30 8553 O 812.711 -2.76075 -7.55008 0
M  V30 8554 H 812.443 0.0999802 -0.668566 0
M  V30 8555 H 814.997 -0.352673 -2.0235 0
M  V30 8556 H 813.227 1.77693 -3.43456 0
M  V30 8557 H 814.916 1.51854 -3.76424 0
M  V30 8558 H 815.682 -0.741822 -4.79293 0
M  V30 8559 H 811.561 0.466857 -4.5863 0
M  V30 8560 H 815.105 -2.36291 -6.56363 0
M  V30 8561 H 811.002 -1.14646 -6.35237 0
M  V30 8562 H 811.77 -2.703 -7.7258 0
M  V30 8563 N 814.433 1.57553 0.0384317 0
M  V30 8564 C 815.681 1.88468 0.729672 0
M  V30 8565 C 816.002 0.831302 1.76393 0
M  V30 8566 O 815.272 -0.13622 1.95426 0
M  V30 8567 H 813.852 0.695529 0.272485 0
M  V30 8568 H 816.514 1.94899 0.0066032 0
M  V30 8569 H 815.61 2.8705 1.22511 0
M  V30 8570 N 815.911 -0.310526 1.54511 0
M  V30 8571 C 817.139 -1.06611 1.77318 0
M  V30 8572 C 817.554 -1.81265 0.528043 0
M  V30 8573 O 816.911 -1.75466 -0.50178 0
M  V30 8574 C 816.962 -2.05409 2.97472 0
M  V30 8575 O 816.683 -1.33785 4.17173 0
M  V30 8576 C 818.184 -2.93082 3.32593 0
M  V30 8577 H 815.404 -0.316578 0.591624 0
M  V30 8578 H 817.948 -0.352691 2.01436 0
M  V30 8579 H 816.103 -2.72266 2.7559 0
M  V30 8580 H 816.517 -2.00055 4.84849 0
M  V30 8581 H 817.991 -3.58274 4.19933 0
M  V30 8582 H 818.468 -3.60877 2.50329 0
M  V30 8583 H 819.074 -2.31768 3.566 0
M  V30 8584 N 817.389 -1.46805 -0.573248 0
M  V30 8585 C 818.637 -1.52302 -1.32847 0
M  V30 8586 C 818.958 -0.180159 -1.94166 0
M  V30 8587 O 818.228 0.794291 -1.79075 0
M  V30 8588 H 816.808 -0.56097 -0.493276 0
M  V30 8589 H 819.47 -1.82998 -0.670642 0
M  V30 8590 H 818.566 -2.28089 -2.13031 0
M  V30 8591 N 818.867 0.818669 -1.34668 0
M  V30 8592 C 819.799 1.93754 -1.22442 0
M  V30 8593 C 820.812 1.62103 -0.150501 0
M  V30 8594 O 822.001 1.73898 -0.402728 0
M  V30 8595 C 819.101 3.27806 -0.860031 0
M  V30 8596 C 818.274 3.8745 -2.02981 0
M  V30 8597 C 817.333 4.99887 -1.64314 0
M  V30 8598 O 816.359 5.17957 -2.36029 0
M  V30 8599 N 817.561 5.77795 -0.55976 0
M  V30 8600 H 820.326 2.04773 -2.18833 0
M  V30 8601 H 817.887 0.995472 -1.27679 0
M  V30 8602 H 819.879 4.00478 -0.583068 0
M  V30 8603 H 818.449 3.12597 0.0138253 0
M  V30 8604 H 817.669 3.07119 -2.47127 0
M  V30 8605 H 818.957 4.2403 -2.81204 0
M  V30 8606 H 818.355 5.65688 0.0363329 0
M  V30 8607 H 816.912 6.50899 -0.342541 0
M  V30 8608 N 820.346 1.18468 1.03938 0
M  V30 8609 C 821.296 0.880799 2.103 0
M  V30 8610 C 822.28 -0.150008 1.60199 0
M  V30 8611 O 823.472 0.054213 1.76917 0
M  V30 8612 C 820.601 0.409723 3.40846 0
M  V30 8613 C 819.687 1.47267 3.9771 0
M  V30 8614 N 820.078 2.68945 4.28371 0
M  V30 8615 C 818.376 1.33349 4.25598 0
M  V30 8616 C 819.077 3.37341 4.73894 0
M  V30 8617 N 818.053 2.64725 4.74786 0
M  V30 8618 H 821.855 1.80574 2.31884 0
M  V30 8619 H 819.369 1.07527 1.21703 0
M  V30 8620 H 821.366 0.17352 4.16539 0
M  V30 8621 H 820.026 -0.508862 3.20688 0
M  V30 8622 H 821.037 3.05801 4.17978 0
M  V30 8623 H 817.714 0.477548 4.1476 0
M  V30 8624 H 819.104 4.41338 5.06627 0
M  V30 8625 N 821.824 -1.22873 0.986916 0
M  V30 8626 C 823.235 -1.73264 0.695438 0
M  V30 8627 C 823.586 -1.79679 -0.788023 0
M  V30 8628 O 822.711 -1.43905 -1.61618 0
M  V30 8629 C 823.306 -3.14671 1.2557 0
M  V30 8630 C 821.865 -3.62492 1.01373 0
M  V30 8631 C 821.012 -2.40551 1.37951 0
M  V30 8632 H 823.963 -1.08304 1.15999 0
M  V30 8633 H 823.984 -3.75226 0.631322 0
M  V30 8634 H 823.496 -3.0997 2.33539 0
M  V30 8635 H 821.597 -3.72567 -0.0495917 0
M  V30 8636 H 821.71 -4.48944 1.67289 0
M  V30 8637 H 820.074 -2.41875 0.798033 0
M  V30 8638 H 820.857 -2.38516 2.46911 0
M  V30 8639 N 823.302 -0.75937 -1.38099 0
M  V30 8640 C 824.713 -0.385078 -1.82686 0
M  V30 8641 C 825.064 1.0871 -1.6333 0
M  V30 8642 O 824.189 1.84084 -1.13762 0
M  V30 8643 C 824.784 -0.692161 -3.31654 0
M  V30 8644 C 823.343 -0.371077 -3.74566 0
M  V30 8645 C 822.49 -0.942375 -2.60796 0
M  V30 8646 H 825.441 -0.955048 -1.26746 0
M  V30 8647 H 825.462 0.0276001 -3.8049 0
M  V30 8648 H 824.974 -1.76369 -3.4571 0
M  V30 8649 H 823.075 0.693637 -3.66087 0
M  V30 8650 H 823.188 -0.870672 -4.71122 0
M  V30 8651 H 821.552 -0.367383 -2.52036 0
M  V30 8652 H 822.335 -2.01905 -2.77649 0
M  V30 8653 N 824.78 1.49157 -0.508906 0
M  V30 8654 C 826.028 2.02073 0.0327335 0
M  V30 8655 C 826.349 1.39012 1.3675 0
M  V30 8656 O 825.619 0.548153 1.88075 0
M  V30 8657 H 824.199 0.746848 0.0150864 0
M  V30 8658 H 826.861 1.83097 -0.667946 0
M  V30 8659 H 825.957 3.11707 0.1566 0
M  V30 8660 N 826.258 0.243083 1.55714 0
M  V30 8661 C 827.507 -0.383188 1.98027 0
M  V30 8662 C 827.82 -1.59347 1.13436 0
M  V30 8663 O 829.026 -2.29065 1.45745 0
M  V30 8664 C 827.482 -0.733135 3.52354 0
M  V30 8665 C 827.09 0.455539 4.45678 0
M  V30 8666 C 828.834 -1.32381 4.03331 0
M  V30 8667 C 826.741 0.0819591 5.91343 0
M  V30 8668 H 825.671 -0.146944 0.739543 0
M  V30 8669 H 828.322 0.342697 1.80272 0
M  V30 8670 H 826.704 -1.51704 3.65789 0
M  V30 8671 H 827.878 1.23291 4.44 0
M  V30 8672 H 826.193 0.960886 4.05162 0
M  V30 8673 H 828.79 -1.61658 5.09677 0
M  V30 8674 H 829.133 -2.24698 3.50452 0
M  V30 8675 H 829.666 -0.602885 3.93205 0
M  V30 8676 H 826.405 0.972171 6.48251 0
M  V30 8677 H 825.925 -0.659291 5.96166 0
M  V30 8678 H 827.604 -0.3372 6.46121 0
M  V30 8679 N 827.736 -1.57571 -0.0300757 0
M  V30 8680 C 828.961 -1.93879 -0.736601 0
M  V30 8681 C 829.386 -0.842998 -1.68152 0
M  V30 8682 O 828.744 0.20135 -1.80178 0
M  V30 8683 C 828.792 -3.29247 -1.47066 0
M  V30 8684 O 827.896 -3.21426 -2.58378 0
M  V30 8685 H 827.237 -0.633735 -0.198181 0
M  V30 8686 H 829.767 -2.04595 0.0141485 0
M  V30 8687 H 829.777 -3.64113 -1.84081 0
M  V30 8688 H 828.452 -4.08565 -0.77764 0
M  V30 8689 H 827.029 -2.98189 -2.23914 0
M  V30 8690 N 829.214 0.302327 -1.54673 0
M  V30 8691 C 830.491 1.05721 -1.64567 0
M  V30 8692 C 830.871 2.0526 -0.493108 0
M  V30 8693 O 830.219 2.22729 0.510315 0
M  V30 8694 C 830.429 1.74025 -3.02517 0
M  V30 8695 C 831.777 2.26271 -3.59286 0
M  V30 8696 O 832.801 1.8406 -3.0496 0
M  V30 8697 O 831.66 3.0361 -4.54404 0
M  V30 8698 H 828.754 0.488577 -0.667249 0
M  V30 8699 H 831.3 0.300521 -1.67018 0
M  V30 8700 H 830.072 1.0174 -3.77842 0
M  V30 8701 H 829.695 2.56454 -3.03838 0
M  V30 8702 N 830.692 1.47107 0.565454 0
M  V30 8703 C 832.103 1.47266 1.1476 0
M  V30 8704 C 832.454 0.222841 1.9493 0
M  V30 8705 O 831.579 -0.672862 2.05673 0
M  V30 8706 C 832.174 2.66822 2.08785 0
M  V30 8707 C 830.733 2.69967 2.62288 0
M  V30 8708 C 829.88 2.40236 1.38499 0
M  V30 8709 H 832.831 1.54736 0.352479 0
M  V30 8710 H 832.852 2.43323 2.92531 0
M  V30 8711 H 832.364 3.5777 1.50408 0
M  V30 8712 H 830.465 1.83137 3.24487 0
M  V30 8713 H 830.578 3.70426 3.03845 0
M  V30 8714 H 828.942 1.90648 1.68895 0
M  V30 8715 H 829.725 3.33381 0.819274 0
M  V30 8716 N 832.17 -0.811516 1.35101 0
M  V30 8717 C 833.418 -1.56525 1.27845 0
M  V30 8718 C 833.739 -1.94435 -0.14829 0
M  V30 8719 O 833.009 -1.63203 -1.08359 0
M  V30 8720 H 831.589 -0.580433 0.47022 0
M  V30 8721 H 834.251 -0.968277 1.69146 0
M  V30 8722 H 833.347 -2.48291 1.89097 0
M  V30 8723 N 833.648 -1.19017 -1.03309 0
M  V30 8724 C 834.894 -0.991681 -1.769 0
M  V30 8725 C 835.227 0.476813 -1.88255 0
M  V30 8726 O 834.502 1.35407 -1.39625 0
M  V30 8727 C 834.785 -1.65627 -3.19749 0
M  V30 8728 C 834.638 -3.19813 -3.1629 0
M  V30 8729 C 835.957 -1.37579 -4.18043 0
M  V30 8730 H 833.076 -0.361674 -0.642153 0
M  V30 8731 H 835.718 -1.46795 -1.20628 0
M  V30 8732 H 833.868 -1.25132 -3.67796 0
M  V30 8733 H 835.54 -3.69494 -2.76174 0
M  V30 8734 H 833.783 -3.51578 -2.54117 0
M  V30 8735 H 834.454 -3.61457 -4.17196 0
M  V30 8736 H 836.93 -1.72679 -3.78578 0
M  V30 8737 H 835.806 -1.86636 -5.16196 0
M  V30 8738 H 836.067 -0.300118 -4.4108 0
M  V30 8739 N 835.127 1.22348 -0.993418 0
M  V30 8740 C 836.09 2.22522 -0.549251 0
M  V30 8741 C 837.09 1.56529 0.368164 0
M  V30 8742 O 838.28 1.73463 0.16005 0
M  V30 8743 C 835.412 3.40307 0.201037 0
M  V30 8744 H 836.605 2.63332 -1.43515 0
M  V30 8745 H 834.158 1.35407 -0.78068 0
M  V30 8746 H 834.893 3.0497 1.10289 0
M  V30 8747 H 834.678 3.8942 -0.457685 0
M  V30 8748 H 836.168 4.14597 0.499946 0
M  V30 8749 N 836.605 0.766683 1.37694 0
M  V30 8750 C 837.83 0.338715 2.04615 0
M  V30 8751 C 838.255 -1.02918 1.57447 0
M  V30 8752 O 837.613 -1.65849 0.732386 0
M  V30 8753 C 837.661 0.385284 3.58536 0
M  V30 8754 O 836.765 -0.616081 4.07772 0
M  V30 8755 H 836.106 0.147527 0.647404 0
M  V30 8756 H 838.636 1.04146 1.7611 0
M  V30 8757 H 838.646 0.240782 4.07289 0
M  V30 8758 H 837.321 1.38325 3.92223 0
M  V30 8759 H 835.898 -0.435115 3.70353 0
M  V30 8760 N 838.083 -1.48885 0.516809 0
M  V30 8761 C 839.33 -2.02488 -0.0220602 0
M  V30 8762 C 839.658 -1.39513 -1.35523 0
M  V30 8763 O 838.913 -0.52558 -1.8851 0
M  V30 8764 C 839.212 -3.56801 -0.206798 0
M  V30 8765 C 838.878 -4.38496 1.05035 0
M  V30 8766 C 837.54 -4.60538 1.39492 0
M  V30 8767 C 839.892 -4.85909 1.88525 0
M  V30 8768 C 837.22 -5.2724 2.57361 0
M  V30 8769 C 839.572 -5.53909 3.05561 0
M  V30 8770 C 838.236 -5.74193 3.4038 0
M  V30 8771 H 837.506 -0.740956 -0.00807238 0
M  V30 8772 H 840.153 -1.79014 0.680168 0
M  V30 8773 H 838.458 -3.79042 -0.991687 0
M  V30 8774 H 840.155 -3.95885 -0.638447 0
M  V30 8775 H 836.745 -4.2159 0.771984 0
M  V30 8776 H 840.929 -4.68694 1.63218 0
M  V30 8777 H 836.185 -5.41145 2.84556 0
M  V30 8778 H 840.359 -5.89619 3.7057 0
M  V30 8779 H 837.986 -6.25652 4.31814 0
M  V30 8780 N 839.561 -0.251338 -1.55583 0
M  V30 8781 C 840.508 0.646337 -2.21565 0
M  V30 8782 C 841.478 1.16796 -1.18102 0
M  V30 8783 O 842.663 1.22162 -1.46564 0
M  V30 8784 C 839.803 1.83557 -2.92234 0
M  V30 8785 C 838.916 1.35006 -4.10363 0
M  V30 8786 C 838.051 2.4992 -4.68736 0
M  V30 8787 C 837.09 1.98253 -5.79105 0
M  V30 8788 N 836.227 3.06551 -6.31642 0
M  V30 8789 H 841.067 0.0769881 -2.97901 0
M  V30 8790 H 838.604 0.026238 -1.47077 0
M  V30 8791 H 840.562 2.53425 -3.31408 0
M  V30 8792 H 839.192 2.37733 -2.18364 0
M  V30 8793 H 838.244 0.545274 -3.76472 0
M  V30 8794 H 839.556 0.931435 -4.90026 0
M  V30 8795 H 838.71 3.27823 -5.10507 0
M  V30 8796 H 837.449 2.95086 -3.88298 0
M  V30 8797 H 836.454 1.18822 -5.36807 0
M  V30 8798 H 837.679 1.54051 -6.61396 0
M  V30 8799 H 835.625 3.51143 -5.54107 0
M  V30 8800 H 835.542 2.69033 -7.06511 0
M  V30 8801 H 836.81 3.84499 -6.78071 0
M  V30 8802 N 841.039 1.57585 0.0217189 0
M  V30 8803 C 842.285 1.89887 0.712099 0
M  V30 8804 C 842.618 0.849971 1.74611 0
M  V30 8805 O 841.893 -0.13407 1.94037 0
M  V30 8806 C 842.176 3.32815 1.37499 0
M  V30 8807 C 842.029 4.48405 0.353993 0
M  V30 8808 C 843.348 3.74786 2.30703 0
M  V30 8809 H 840.467 0.690588 0.257405 0
M  V30 8810 H 843.109 1.89983 -0.0251145 0
M  V30 8811 H 841.259 3.32863 2.00335 0
M  V30 8812 H 842.931 4.60491 -0.273015 0
M  V30 8813 H 841.174 4.32573 -0.32599 0
M  V30 8814 H 841.845 5.45316 0.85644 0
M  V30 8815 H 844.321 3.76151 1.77904 0
M  V30 8816 H 843.197 4.75585 2.74061 0
M  V30 8817 H 843.458 3.07449 3.17691 0
M  V30 8818 N 842.517 -0.29412 1.54831 0
M  V30 8819 C 843.48 -1.3461 1.85507 0
M  V30 8820 C 844.48 -1.43359 0.728343 0
M  V30 8821 O 845.67 -1.42875 0.996609 0
M  V30 8822 C 842.802 -2.73012 2.0415 0
M  V30 8823 H 843.995 -1.08651 2.79526 0
M  V30 8824 H 841.548 -0.531138 1.46999 0
M  V30 8825 H 842.283 -3.04183 1.12441 0
M  V30 8826 H 842.068 -2.68051 2.86166 0
M  V30 8827 H 843.558 -3.49061 2.29229 0
M  V30 8828 N 843.995 -1.47404 -0.557645 0
M  V30 8829 C 844.945 -1.56267 -1.66026 0
M  V30 8830 C 845.929 -0.42161 -1.55278 0
M  V30 8831 O 847.121 -0.671505 -1.63768 0
M  V30 8832 C 844.25 -1.57958 -3.04802 0
M  V30 8833 C 843.336 -2.77447 -3.20755 0
M  V30 8834 N 843.727 -4.02148 -3.06775 0
M  V30 8835 C 842.025 -2.74199 -3.51754 0
M  V30 8836 C 842.726 -4.82168 -3.25406 0
M  V30 8837 N 841.702 -4.14481 -3.5172 0
M  V30 8838 H 845.504 -2.50454 -1.53785 0
M  V30 8839 H 843.018 -1.43392 -0.762388 0
M  V30 8840 H 845.015 -1.62397 -3.8397 0
M  V30 8841 H 843.675 -0.648667 -3.18155 0
M  V30 8842 H 844.686 -4.33014 -2.84111 0
M  V30 8843 H 841.363 -1.90243 -3.71637 0
M  V30 8844 H 842.753 -5.91037 -3.19569 0
M  V30 8845 N 845.473 0.80434 -1.35529 0
M  V30 8846 C 846.403 1.93086 -1.31301 0
M  V30 8847 C 847.384 1.69068 -0.187044 0
M  V30 8848 O 848.569 1.90399 -0.382359 0
M  V30 8849 C 845.699 3.29867 -1.0865 0
M  V30 8850 C 844.653 3.68373 -2.17911 0
M  V30 8851 C 843.979 5.0334 -1.80423 0
M  V30 8852 C 845.279 3.78516 -3.59893 0
M  V30 8853 H 846.973 1.96882 -2.25561 0
M  V30 8854 H 844.519 0.945841 -1.08581 0
M  V30 8855 H 846.472 4.08281 -1.04331 0
M  V30 8856 H 845.196 3.2642 -0.108359 0
M  V30 8857 H 843.855 2.92247 -2.21331 0
M  V30 8858 H 843.503 4.96399 -0.812213 0
M  V30 8859 H 843.203 5.30074 -2.53565 0
M  V30 8860 H 844.727 5.84191 -1.77633 0
M  V30 8861 H 846.141 4.47155 -3.58783 0
M  V30 8862 H 844.538 4.16721 -4.31814 0
M  V30 8863 H 845.608 2.8001 -3.95882 0
M  V30 8864 N 846.951 1.19563 1.02676 0
M  V30 8865 C 848.197 1.00105 1.76371 0
M  V30 8866 C 848.53 -0.466823 1.88506 0
M  V30 8867 O 847.805 -1.34665 1.40341 0
M  V30 8868 C 848.088 1.67321 3.18866 0
M  V30 8869 C 847.941 3.21486 3.1459 0
M  V30 8870 C 849.26 1.39794 4.17308 0
M  V30 8871 H 846.379 0.365075 0.640226 0
M  V30 8872 H 849.021 1.47433 1.19848 0
M  V30 8873 H 847.171 1.27081 3.67128 0
M  V30 8874 H 848.843 3.70953 2.7421 0
M  V30 8875 H 847.086 3.5292 2.52249 0
M  V30 8876 H 847.757 3.63665 4.15273 0
M  V30 8877 H 850.233 1.74685 3.77657 0
M  V30 8878 H 849.109 1.89371 5.15199 0
M  V30 8879 H 849.37 0.323505 4.40915 0
M  V30 8880 N 848.429 -1.21819 0.999893 0
M  V30 8881 C 849.359 -2.26282 0.576096 0
M  V30 8882 C 850.34 -1.65317 -0.400537 0
M  V30 8883 O 851.525 -1.92028 -0.28964 0
M  V30 8884 C 848.655 -3.47147 -0.103145 0
M  V30 8885 C 847.609 -4.20594 0.792745 0
M  V30 8886 C 846.935 -5.34696 -0.0198026 0
M  V30 8887 C 848.235 -4.78533 2.09293 0
M  V30 8888 H 849.929 -2.61984 1.4493 0
M  V30 8889 H 847.475 -1.25935 0.698316 0
M  V30 8890 H 849.428 -4.1939 -0.411068 0
M  V30 8891 H 848.152 -3.1056 -1.01094 0
M  V30 8892 H 846.811 -3.50194 1.08442 0
M  V30 8893 H 846.459 -4.94352 -0.928729 0
M  V30 8894 H 846.159 -5.84764 0.576661 0
M  V30 8895 H 847.683 -6.09752 -0.321659 0
M  V30 8896 H 849.097 -5.42682 1.8485 0
M  V30 8897 H 847.494 -5.38968 2.63881 0
M  V30 8898 H 848.564 -3.98197 2.76708 0
M  V30 8899 N 849.908 -0.773975 -1.37286 0
M  V30 8900 C 850.855 -0.159938 -2.30245 0
M  V30 8901 C 851.825 0.687356 -1.51211 0
M  V30 8902 O 853.01 0.639255 -1.79773 0
M  V30 8903 C 850.15 0.711452 -3.37687 0
M  V30 8904 C 849.263 -0.152692 -4.3173 0
M  V30 8905 C 848.398 0.723613 -5.26248 0
M  V30 8906 C 847.437 -0.14293 -6.11933 0
M  V30 8907 N 846.574 0.691479 -6.98687 0
M  V30 8908 H 851.414 -0.958182 -2.82175 0
M  V30 8909 H 848.951 -0.48411 -1.38906 0
M  V30 8910 H 850.909 1.2315 -3.9861 0
M  V30 8911 H 849.539 1.47528 -2.87116 0
M  V30 8912 H 848.591 -0.790574 -3.72094 0
M  V30 8913 H 849.903 -0.821027 -4.91997 0
M  V30 8914 H 849.057 1.31006 -5.92387 0
M  V30 8915 H 847.796 1.42562 -4.66398 0
M  V30 8916 H 846.801 -0.7419 -5.44771 0
M  V30 8917 H 848.026 -0.842305 -6.73856 0
M  V30 8918 H 845.972 1.37806 -6.41362 0
M  V30 8919 H 845.889 0.0804911 -7.55957 0
M  V30 8920 H 847.157 1.26225 -7.69212 0
M  V30 8921 N 851.386 1.48609 -0.524698 0
M  V30 8922 C 852.349 2.28041 0.230166 0
M  V30 8923 C 853.349 1.35065 0.872584 0
M  V30 8924 O 854.539 1.58007 0.73345 0
M  V30 8925 C 851.671 3.13778 1.33252 0
M  V30 8926 H 852.864 2.96239 -0.467161 0
M  V30 8927 H 850.417 1.53763 -0.280452 0
M  V30 8928 H 851.152 2.502 2.06327 0
M  V30 8929 H 850.937 3.82165 0.877058 0
M  V30 8930 H 852.427 3.7371 1.86362 0
M  V30 8931 N 852.864 0.259585 1.55447 0
M  V30 8932 C 853.814 -0.648769 2.18575 0
M  V30 8933 C 854.798 -1.1299 1.14552 0
M  V30 8934 O 855.99 -1.07756 1.4042 0
M  V30 8935 C 853.119 -1.83963 2.89849 0
M  V30 8936 C 852.205 -1.37641 4.01143 0
M  V30 8937 N 852.596 -0.628269 5.01883 0
M  V30 8938 C 850.894 -1.66066 4.1393 0
M  V30 8939 C 851.595 -0.386746 5.80413 0
M  V30 8940 N 850.571 -0.954665 5.35151 0
M  V30 8941 H 854.373 -0.0691616 2.93819 0
M  V30 8942 H 851.887 0.0624525 1.6228 0
M  V30 8943 H 853.884 -2.50151 3.33512 0
M  V30 8944 H 852.544 -2.42334 2.16112 0
M  V30 8945 H 853.555 -0.277123 5.17158 0
M  V30 8946 H 850.232 -2.25484 3.51373 0
M  V30 8947 H 851.622 0.211382 6.71567 0
M  V30 8948 N 854.342 -1.57594 -0.0133615 0
M  V30 8949 C 855.305 -2.06534 -0.993799 0
M  V30 8950 C 856.305 -0.972267 -1.28077 0
M  V30 8951 O 857.495 -1.23537 -1.22818 0
M  V30 8952 C 854.627 -2.49554 -2.3224 0
M  V30 8953 H 855.82 -2.94419 -0.570741 0
M  V30 8954 H 853.373 -1.54113 -0.260546 0
M  V30 8955 H 854.108 -1.64872 -2.79263 0
M  V30 8956 H 853.893 -3.29371 -2.12737 0
M  V30 8957 H 855.383 -2.8779 -3.026 0
M  V30 8958 N 855.82 0.285905 -1.54985 0
M  V30 8959 C 857.236 0.632405 -1.46536 0
M  V30 8960 C 857.436 1.90074 -0.668888 0
M  V30 8961 O 856.492 2.51839 -0.182586 0
M  V30 8962 C 857.805 0.771361 -2.90638 0
M  V30 8963 C 859.353 0.866262 -3.00774 0
M  V30 8964 C 859.828 1.0371 -4.46103 0
M  V30 8965 N 861.319 1.10294 -4.49877 0
M  V30 8966 C 862.054 1.25369 -5.59527 0
M  V30 8967 N 861.55 1.37246 -6.7907 0
M  V30 8968 N 863.343 1.28377 -5.47244 0
M  V30 8969 H 855.494 -0.547226 -2.0523 0
M  V30 8970 H 857.757 -0.183298 -0.930111 0
M  V30 8971 H 857.463 -0.0899485 -3.51585 0
M  V30 8972 H 857.337 1.65569 -3.3892 0
M  V30 8973 H 859.724 1.71805 -2.39931 0
M  V30 8974 H 859.805 -0.0424049 -2.55765 0
M  V30 8975 H 859.449 0.190021 -5.07544 0
M  V30 8976 H 859.379 1.96022 -4.88757 0
M  V30 8977 H 861.87 1.02407 -3.6376 0
M  V30 8978 H 862.183 1.48546 -7.58389 0
M  V30 8979 H 860.528 1.34274 -6.81906 0
M  V30 8980 H 863.719 1.1872 -4.52795 0
M  V30 8981 H 863.892 1.39782 -6.32744 0
M  V30 8982 N 857.298 1.47698 0.54982 0
M  V30 8983 C 858.526 1.5833 1.33188 0
M  V30 8984 C 858.941 0.236193 1.87317 0
M  V30 8985 O 858.298 -0.77167 1.65383 0
M  V30 8986 C 858.349 2.61438 2.49664 0
M  V30 8987 O 858.07 3.9092 1.97771 0
M  V30 8988 C 859.571 2.82324 3.41772 0
M  V30 8989 H 856.791 0.53443 0.405741 0
M  V30 8990 H 859.335 1.93375 0.665309 0
M  V30 8991 H 857.49 2.29307 3.12245 0
M  V30 8992 H 857.904 4.47323 2.73866 0
M  V30 8993 H 859.378 3.58316 4.19897 0
M  V30 8994 H 859.855 1.90416 3.95776 0
M  V30 8995 H 860.461 3.15682 2.85 0
M  V30 8996 N 858.776 -0.797141 1.35954 0
M  V30 8997 C 860.022 -1.55636 1.30954 0
M  V30 8998 C 860.377 -1.92071 -0.112515 0
M  V30 8999 O 859.67 -1.5926 -1.06521 0
M  V30 9000 C 859.864 -2.84847 2.15863 0
M  V30 9001 C 859.693 -2.61039 3.66182 0
M  V30 9002 C 858.463 -2.56452 4.35385 0
M  V30 9003 C 860.661 -2.30766 4.59621 0
M  V30 9004 N 858.643 -2.2446 5.71394 0
M  V30 9005 C 860.014 -2.08695 5.8382 0
M  V30 9006 C 862.069 -2.16708 4.48266 0
M  V30 9007 C 860.772 -1.73989 6.9794 0
M  V30 9008 C 862.798 -1.83399 5.62244 0
M  V30 9009 C 862.16 -1.62171 6.85478 0
M  V30 9010 H 858.259 -0.570853 0.534463 0
M  V30 9011 H 860.843 -0.932261 1.7093 0
M  V30 9012 H 859.014 -3.45137 1.78144 0
M  V30 9013 H 860.746 -3.50503 2.02311 0
M  V30 9014 H 857.501 -2.7143 3.88101 0
M  V30 9015 H 857.925 -2.11232 6.43203 0
M  V30 9016 H 862.567 -2.31814 3.53585 0
M  V30 9017 H 860.285 -1.57621 7.92579 0
M  V30 9018 H 863.871 -1.73217 5.55416 0
M  V30 9019 H 862.751 -1.36774 7.7218 0
M  V30 9020 N 860.254 -1.20106 -1.0204 0
M  V30 9021 C 861.204 -0.914145 -2.08872 0
M  V30 9022 C 862.188 0.124503 -1.60418 0
M  V30 9023 O 863.38 -0.0823521 -1.76808 0
M  V30 9024 C 860.509 -0.463897 -3.40151 0
M  V30 9025 C 859.595 -1.53576 -3.95317 0
M  V30 9026 N 859.986 -2.75726 -4.24038 0
M  V30 9027 C 858.284 -1.40103 -4.23423 0
M  V30 9028 C 858.985 -3.44838 -4.68468 0
M  V30 9029 N 857.961 -2.72245 -4.70514 0
M  V30 9030 H 861.763 -1.8424 -2.28982 0
M  V30 9031 H 859.277 -1.0945 -1.19977 0
M  V30 9032 H 861.274 -0.239766 -4.1621 0
M  V30 9033 H 859.934 0.457779 -3.21457 0
M  V30 9034 H 860.945 -3.12412 -4.13061 0
M  V30 9035 H 857.622 -0.543472 -4.13948 0
M  V30 9036 H 859.012 -4.49342 -4.99541 0
M  V30 9037 N 861.732 1.21287 -1.00634 0
M  V30 9038 C 862.682 2.21541 -0.53886 0
M  V30 9039 C 863.666 1.55842 0.400256 0
M  V30 9040 O 864.858 1.75566 0.224889 0
M  V30 9041 C 861.987 3.43047 0.131796 0
M  V30 9042 C 861.073 4.1593 -0.828419 0
M  V30 9043 N 861.464 4.65359 -1.98178 0
M  V30 9044 C 859.762 4.41281 -0.647083 0
M  V30 9045 C 860.463 5.21079 -2.58557 0
M  V30 9046 N 859.439 5.10531 -1.86705 0
M  V30 9047 H 863.241 2.57413 -1.41831 0
M  V30 9048 H 860.755 1.37109 -0.870338 0
M  V30 9049 H 862.752 4.14079 0.484178 0
M  V30 9050 H 861.412 3.08683 1.00721 0
M  V30 9051 H 862.423 4.60896 -2.3621 0
M  V30 9052 H 859.1 4.17107 0.181139 0
M  V30 9053 H 860.49 5.6977 -3.56107 0
M  V30 9054 N 863.21 0.781244 1.36873 0
M  V30 9055 C 864.44 0.361042 2.03421 0
M  V30 9056 C 864.848 -1.02471 1.59048 0
M  V30 9057 O 864.191 -1.66712 0.771552 0
M  V30 9058 C 864.253 0.336202 3.57924 0
M  V30 9059 C 863.917 1.66815 4.25467 0
M  V30 9060 C 864.914 2.62224 4.48926 0
M  V30 9061 C 862.599 1.9452 4.63106 0
M  V30 9062 C 864.593 3.83538 5.09095 0
M  V30 9063 C 862.28 3.16103 5.22994 0
M  V30 9064 C 863.278 4.10431 5.45926 0
M  V30 9065 O 862.966 5.29871 6.04559 0
M  V30 9066 H 862.698 0.147956 0.65961 0
M  V30 9067 H 865.252 1.05895 1.75998 0
M  V30 9068 H 863.482 -0.418147 3.84433 0
M  V30 9069 H 865.171 -0.0582199 4.05858 0
M  V30 9070 H 865.937 2.42104 4.20251 0
M  V30 9071 H 861.816 1.21921 4.44585 0
M  V30 9072 H 865.36 4.57178 5.2691 0
M  V30 9073 H 861.257 3.36104 5.51094 0
M  V30 9074 H 862.025 5.30825 6.23031 0
M  V30 9075 N 864.689 -1.48329 0.532571 0
M  V30 9076 C 865.637 -2.31336 -0.242133 0
M  V30 9077 C 866.631 -1.41391 -0.933006 0
M  V30 9078 O 867.837 -1.58284 -0.857096 0
M  V30 9079 H 864.212 -0.745724 -0.0969536 0
M  V30 9080 H 866.183 -2.94555 0.477504 0
M  V30 9081 C 864.932 -3.23501 -1.27446 0
M  V30 9082 H 864.255 -3.92659 -0.752261 0
M  V30 9083 H 865.695 -3.84461 -1.78789 0
M  V30 9084 C 864.154 -2.45288 -2.30944 0
M  V30 9085 O 864.684 -2.17955 -3.37429 0
M  V30 9086 N 862.89 -2.06737 -2.04226 0
M  V30 9087 H 862.437 -2.29166 -1.17647 0
M  V30 9088 H 862.395 -1.54719 -2.73696 0
M  V30 9089 N 866.167 -0.267825 -1.55308 0
M  V30 9090 C 867.392 0.357487 -2.04296 0
M  V30 9091 C 867.817 1.49222 -1.14518 0
M  V30 9092 O 867.175 1.80741 -0.142292 0
M  V30 9093 C 867.223 0.822899 -3.51085 0
M  V30 9094 O 866.327 1.93078 -3.6441 0
M  V30 9095 H 865.668 0.075025 -0.659748 0
M  V30 9096 H 868.198 -0.399996 -2.00652 0
M  V30 9097 H 868.208 1.12059 -3.92309 0
M  V30 9098 H 866.883 -0.0073562 -4.15899 0
M  V30 9099 H 865.46 1.63618 -3.35087 0
M  V30 9100 N 867.645 1.57599 0.00500368 0
M  V30 9101 C 868.595 2.04585 1.00643 0
M  V30 9102 C 869.579 0.939622 1.30614 0
M  V30 9103 O 870.771 1.20342 1.29796 0
M  V30 9104 C 867.9 2.5486 2.30002 0
M  V30 9105 C 866.986 3.7235 2.03017 0
M  V30 9106 N 867.377 4.84218 1.46173 0
M  V30 9107 C 865.675 3.80185 2.33185 0
M  V30 9108 C 866.376 5.65688 1.35544 0
M  V30 9109 N 865.352 5.11536 1.83933 0
M  V30 9110 H 869.154 2.8849 0.561332 0
M  V30 9111 H 866.668 1.61026 0.210808 0
M  V30 9112 H 868.665 2.86794 3.0258 0
M  V30 9113 H 867.325 1.72372 2.75169 0
M  V30 9114 H 868.336 5.0517 1.1412 0
M  V30 9115 H 865.013 3.08543 2.81261 0
M  V30 9116 H 866.403 6.65588 0.918791 0
M  V30 9117 N 869.123 -0.277682 1.55134 0
M  V30 9118 C 870.073 -1.34531 1.8408 0
M  V30 9119 C 871.057 -1.44904 0.699393 0
M  V30 9120 O 872.249 -1.48664 0.960623 0
M  V30 9121 C 869.378 -2.7064 2.11208 0
M  V30 9122 C 868.464 -2.64396 3.31596 0
M  V30 9123 N 868.855 -2.2777 4.51613 0
M  V30 9124 C 867.153 -2.95464 3.34091 0
M  V30 9125 C 867.854 -2.31401 5.33693 0
M  V30 9126 N 866.83 -2.69688 4.71984 0
M  V30 9127 H 870.632 -1.05214 2.74421 0
M  V30 9128 H 868.146 -0.486311 1.54948 0
M  V30 9129 H 870.143 -3.47649 2.301 0
M  V30 9130 H 868.803 -3.00849 1.22148 0
M  V30 9131 H 869.814 -1.99827 4.77797 0
M  V30 9132 H 866.491 -3.30415 2.5521 0
M  V30 9133 H 867.881 -2.05685 6.39643 0
M  V30 9134 N 870.601 -1.47988 -0.541979 0
M  V30 9135 C 872.017 -1.33843 -0.869383 0
M  V30 9136 C 872.217 -0.340374 -1.98604 0
M  V30 9137 O 871.273 0.242696 -2.51331 0
M  V30 9138 C 872.586 -2.73568 -1.24823 0
M  V30 9139 C 874.134 -2.81967 -1.3588 0
M  V30 9140 C 874.609 -4.22368 -1.77114 0
M  V30 9141 N 876.1 -4.24983 -1.84237 0
M  V30 9142 C 876.835 -5.30547 -2.17503 0
M  V30 9143 N 876.331 -6.46401 -2.49275 0
M  V30 9144 N 878.124 -5.17933 -2.18406 0
M  V30 9145 H 870.275 -2.11503 0.195001 0
M  V30 9146 H 872.538 -0.947681 0.0245862 0
M  V30 9147 H 872.244 -3.48107 -0.501435 0
M  V30 9148 H 872.118 -3.06322 -2.20106 0
M  V30 9149 H 874.505 -2.07692 -2.09638 0
M  V30 9150 H 874.586 -2.52848 -0.387478 0
M  V30 9151 H 874.23 -4.97155 -1.0392 0
M  V30 9152 H 874.16 -4.48922 -2.75275 0
M  V30 9153 H 876.651 -3.41411 -1.62009 0
M  V30 9154 H 876.964 -7.22698 -2.73729 0
M  V30 9155 H 875.309 -6.49696 -2.46821 0
M  V30 9156 H 878.5 -4.26445 -1.93034 0
M  V30 9157 H 878.673 -6.00307 -2.44 0
M  V30 9158 N 872.079 0.78992 -1.36375 0
M  V30 9159 C 873.49 1.36506 -1.2737 0
M  V30 9160 C 873.841 1.96008 0.086711 0
M  V30 9161 O 872.966 1.92521 0.988159 0
M  V30 9162 C 873.561 2.48175 -2.30639 0
M  V30 9163 C 872.12 3.01506 -2.25325 0
M  V30 9164 C 871.267 1.74581 -2.15445 0
M  V30 9165 H 874.218 0.591606 -1.47261 0
M  V30 9166 H 874.239 3.27179 -1.94253 0
M  V30 9167 H 873.751 2.04838 -3.2964 0
M  V30 9168 H 871.852 3.49265 -1.29788 0
M  V30 9169 H 871.965 3.58355 -3.17992 0
M  V30 9170 H 870.329 1.96794 -1.61692 0
M  V30 9171 H 871.112 1.33373 -3.16333 0
M  V30 9172 N 873.557 1.20646 1.01402 0
M  V30 9173 C 874.489 0.915392 2.10127 0
M  V30 9174 C 875.502 -0.0978705 1.62506 0
M  V30 9175 O 876.691 0.133477 1.78 0
M  V30 9176 C 873.791 0.351304 3.37074 0
M  V30 9177 C 872.964 1.41673 4.13821 0
M  V30 9178 C 872.023 0.8635 5.19067 0
M  V30 9179 O 871.049 1.54481 5.47836 0
M  V30 9180 N 872.251 -0.325799 5.79585 0
M  V30 9181 H 875.016 1.85132 2.35682 0
M  V30 9182 H 872.577 1.11048 1.17813 0
M  V30 9183 H 874.569 -0.032996 4.04687 0
M  V30 9184 H 873.139 -0.489242 3.08748 0
M  V30 9185 H 872.359 1.97526 3.41141 0
M  V30 9186 H 873.647 2.1342 4.61876 0
M  V30 9187 H 873.045 -0.896534 5.58551 0
M  V30 9188 H 871.602 -0.651708 6.48534 0
M  V30 9189 N 875.035 -1.20752 1.01276 0
M  V30 9190 C 875.967 -2.22798 0.537917 0
M  V30 9191 C 876.98 -1.5836 -0.377638 0
M  V30 9192 O 878.169 -1.77624 -0.176599 0
M  V30 9193 C 875.269 -3.38068 -0.237364 0
M  V30 9194 C 874.442 -4.32095 0.679161 0
M  V30 9195 C 873.501 -5.26178 -0.0478676 0
M  V30 9196 O 872.527 -5.66305 0.573366 0
M  V30 9197 N 873.729 -5.65201 -1.32396 0
M  V30 9198 H 876.494 -2.64166 1.4155 0
M  V30 9199 H 874.055 -1.35254 0.889826 0
M  V30 9200 H 876.047 -3.98009 -0.73288 0
M  V30 9201 H 874.617 -2.95622 -1.0162 0
M  V30 9202 H 873.837 -3.70179 1.35505 0
M  V30 9203 H 875.125 -4.91842 1.30263 0
M  V30 9204 H 874.523 -5.34606 -1.84968 0
M  V30 9205 H 873.08 -6.27468 -1.76428 0
M  V30 9206 N 876.513 -0.788492 -1.36457 0
M  V30 9207 C 877.445 -0.144208 -2.28746 0
M  V30 9208 C 878.458 0.646009 -1.49434 0
M  V30 9209 O 879.647 0.481344 -1.71888 0
M  V30 9210 C 876.747 0.818869 -3.28858 0
M  V30 9211 C 875.92 0.0789055 -4.37329 0
M  V30 9212 C 874.979 0.957791 -5.1741 0
M  V30 9213 O 874.005 0.415378 -5.67682 0
M  V30 9214 N 875.207 2.28216 -5.33758 0
M  V30 9215 H 877.972 -0.936949 -2.84678 0
M  V30 9216 H 875.533 -0.642317 -1.48613 0
M  V30 9217 H 877.525 1.41065 -3.79319 0
M  V30 9218 H 876.095 1.51249 -2.73573 0
M  V30 9219 H 875.315 -0.693939 -3.88044 0
M  V30 9220 H 876.603 -0.431753 -5.06965 0
M  V30 9221 H 876.001 2.747 -4.94527 0
M  V30 9222 H 874.558 2.8236 -5.87466 0
M  V30 9223 N 877.991 1.48044 -0.54043 0
M  V30 9224 C 879.239 2.02097 -0.0101367 0
M  V30 9225 C 879.56 1.41881 1.33771 0
M  V30 9226 O 878.83 0.587923 1.8687 0
M  V30 9227 H 877.41 0.747 -0.000758716 0
M  V30 9228 H 880.072 1.81639 -0.706634 0
M  V30 9229 H 879.168 3.11969 0.0904474 0
M  V30 9230 N 879.47 0.276058 1.55163 0
M  V30 9231 C 880.42 -0.625549 2.19251 0
M  V30 9232 C 881.404 -1.11769 1.15744 0
M  V30 9233 O 882.596 -1.0626 1.41555 0
M  V30 9234 C 879.725 -1.80879 2.91784 0
M  V30 9235 C 878.811 -1.33379 4.0258 0
M  V30 9236 N 879.202 -0.575002 5.02521 0
M  V30 9237 C 877.5 -1.61666 4.15668 0
M  V30 9238 C 878.201 -0.325164 5.8079 0
M  V30 9239 N 877.177 -0.897851 5.36134 0
M  V30 9240 H 880.979 -0.0379943 2.93875 0
M  V30 9241 H 878.493 0.079661 1.62205 0
M  V30 9242 H 880.49 -2.466 3.36146 0
M  V30 9243 H 879.15 -2.40028 2.1867 0
M  V30 9244 H 880.161 -0.222256 5.17423 0
M  V30 9245 H 876.838 -2.21745 3.53745 0
M  V30 9246 H 878.228 0.282598 6.71305 0
M  V30 9247 N 880.948 -1.576 0.00335426 0
M  V30 9248 C 882.194 -1.90996 -0.681799 0
M  V30 9249 C 882.527 -0.877643 -1.73237 0
M  V30 9250 O 881.802 0.103183 -1.94226 0
M  V30 9251 C 882.085 -3.34961 -1.32187 0
M  V30 9252 C 881.938 -4.48911 -0.28261 0
M  V30 9253 C 883.257 -3.78408 -2.24711 0
M  V30 9254 H 880.376 -0.694596 -0.246386 0
M  V30 9255 H 883.018 -1.89919 0.055336 0
M  V30 9256 H 881.168 -3.36008 -1.95014 0
M  V30 9257 H 882.84 -4.59999 0.346241 0
M  V30 9258 H 881.083 -4.32 0.394768 0
M  V30 9259 H 881.754 -5.46609 -0.769576 0
M  V30 9260 H 884.23 -3.78934 -1.71897 0
M  V30 9261 H 883.106 -4.79885 -2.66461 0
M  V30 9262 H 883.367 -3.12464 -3.1276 0
M  V30 9263 N 882.426 0.269451 -1.5528 0
M  V30 9264 C 883.674 0.998604 -1.75705 0
M  V30 9265 C 883.995 1.86691 -0.563175 0
M  V30 9266 O 883.265 1.91305 0.421811 0
M  V30 9267 H 881.845 0.371698 -0.647958 0
M  V30 9268 H 884.507 0.292826 -1.92688 0
M  V30 9269 H 883.603 1.63348 -2.6594 0
M  V30 9270 N 883.904 1.48273 0.534124 0
M  V30 9271 C 885.153 1.55334 1.28663 0
M  V30 9272 C 885.466 0.230345 1.94239 0
M  V30 9273 O 886.672 0.179161 2.70908 0
M  V30 9274 C 885.128 2.73927 2.33435 0
M  V30 9275 C 884.736 4.12852 1.73947 0
M  V30 9276 C 886.48 2.90298 3.09722 0
M  V30 9277 C 884.387 5.22711 2.76636 0
M  V30 9278 H 883.317 0.578262 0.483869 0
M  V30 9279 H 885.968 1.74598 0.564602 0
M  V30 9280 H 884.35 2.48089 3.08655 0
M  V30 9281 H 885.524 4.48691 1.04944 0
M  V30 9282 H 883.839 4.01562 1.10167 0
M  V30 9283 H 886.436 3.69542 3.86449 0
M  V30 9284 H 886.779 1.99598 3.6533 0
M  V30 9285 H 887.312 3.16017 2.41616 0
M  V30 9286 H 884.051 6.15362 2.25852 0
M  V30 9287 H 883.571 4.91364 3.43979 0
M  V30 9288 H 885.25 5.50648 3.39699 0
M  V30 9289 N 885.382 -0.782676 1.36792 0
M  V30 9290 C 886.628 -1.54311 1.3159 0
M  V30 9291 C 886.961 -1.93928 -0.102696 0
M  V30 9292 O 886.236 -1.63233 -1.05761 0
M  V30 9293 C 886.519 -2.81561 2.24489 0
M  V30 9294 C 886.372 -2.48268 3.75078 0
M  V30 9295 C 887.691 -3.83428 2.16034 0
M  V30 9296 H 884.81 -0.559828 0.479335 0
M  V30 9297 H 887.452 -0.898717 1.67401 0
M  V30 9298 H 885.602 -3.36549 1.9408 0
M  V30 9299 H 887.274 -1.99279 4.16036 0
M  V30 9300 H 885.517 -1.81116 3.94182 0
M  V30 9301 H 886.188 -3.39183 4.35499 0
M  V30 9302 H 888.664 -3.37905 2.42815 0
M  V30 9303 H 887.54 -4.70204 2.83194 0
M  V30 9304 H 887.801 -4.26887 1.14976 0
M  V30 9305 N 886.86 -1.21182 -1.00761 0
M  V30 9306 C 887.79 -0.992773 -2.11344 0
M  V30 9307 C 888.771 0.0813618 -1.69905 0
M  V30 9308 O 889.956 -0.0779503 -1.94043 0
M  V30 9309 C 887.086 -0.553826 -3.42856 0
M  V30 9310 C 886.04 -1.57223 -3.98077 0
M  V30 9311 C 885.366 -0.989605 -5.25463 0
M  V30 9312 C 886.666 -2.95839 -4.30438 0
M  V30 9313 H 888.36 -1.91766 -2.29927 0
M  V30 9314 H 885.906 -0.923426 -1.10494 0
M  V30 9315 H 887.859 -0.387771 -4.19612 0
M  V30 9316 H 886.583 0.406702 -3.24058 0
M  V30 9317 H 885.242 -1.7258 -3.23437 0
M  V30 9318 H 884.89 -0.0208743 -5.02996 0
M  V30 9319 H 884.59 -1.66984 -5.63374 0
M  V30 9320 H 886.114 -0.834815 -6.04866 0
M  V30 9321 H 887.528 -2.8394 -4.98047 0
M  V30 9322 H 885.925 -3.60851 -4.79486 0
M  V30 9323 H 886.995 -3.46882 -3.38823 0
M  V30 9324 N 888.338 1.20213 -1.01915 0
M  V30 9325 C 889.286 2.25125 -0.584936 0
M  V30 9326 C 890.28 1.65138 0.377602 0
M  V30 9327 O 891.486 1.78294 0.247245 0
M  V30 9328 H 887.861 0.732333 -0.170858 0
M  V30 9329 H 889.832 2.59075 -1.48063 0
M  V30 9330 C 888.581 3.47651 0.058389 0
M  V30 9331 H 887.904 3.9409 -0.673263 0
M  V30 9332 H 889.344 4.2275 0.325285 0
M  V30 9333 C 887.803 3.10725 1.30199 0
M  V30 9334 O 888.333 3.22491 2.39505 0
M  V30 9335 N 886.539 2.6525 1.18706 0
M  V30 9336 H 886.086 2.55875 0.297618 0
M  V30 9337 H 886.044 2.40913 2.02011 0
M  V30 9338 N 889.816 0.795718 1.36037 0
M  V30 9339 C 891.041 0.38204 2.03851 0
M  V30 9340 C 891.466 -0.995553 1.59594 0
M  V30 9341 O 890.824 -1.64258 0.767401 0
M  V30 9342 C 890.872 0.461248 3.57638 0
M  V30 9343 O 889.976 -0.529448 4.08987 0
M  V30 9344 H 889.317 0.161227 0.644129 0
M  V30 9345 H 891.847 1.07858 1.73861 0
M  V30 9346 H 891.857 0.32712 4.06687 0
M  V30 9347 H 890.532 1.46613 3.89201 0
M  V30 9348 H 889.109 -0.35646 3.71192 0
M  V30 9349 N 891.294 -1.47756 0.548274 0
M  V30 9350 C 892.571 -1.9555 -0.0443603 0
M  V30 9351 C 892.951 -1.49079 -1.49462 0
M  V30 9352 O 892.299 -0.725538 -2.16675 0
M  V30 9353 C 892.509 -3.48879 0.0918425 0
M  V30 9354 C 893.857 -4.2456 -0.0580879 0
M  V30 9355 O 894.881 -3.56195 0.018946 0
M  V30 9356 O 893.74 -5.46048 -0.222261 0
M  V30 9357 H 890.834 -0.824106 -0.0691235 0
M  V30 9358 H 893.38 -1.58196 0.614166 0
M  V30 9359 H 892.152 -3.7548 1.10137 0
M  V30 9360 H 891.775 -3.92975 -0.604704 0
M  V30 9361 N 892.772 -0.284283 -1.55015 0
M  V30 9362 C 894.018 0.3233 -2.00814 0
M  V30 9363 C 894.373 1.52796 -1.16923 0
M  V30 9364 O 893.666 1.90172 -0.233499 0
M  V30 9365 C 893.86 0.747219 -3.49502 0
M  V30 9366 C 893.689 -0.414821 -4.47783 0
M  V30 9367 C 892.459 -0.901531 -4.97193 0
M  V30 9368 C 894.657 -1.25433 -4.9877 0
M  V30 9369 N 892.639 -2.03208 -5.79292 0
M  V30 9370 C 894.01 -2.23262 -5.78406 0
M  V30 9371 C 896.065 -1.28662 -4.80989 0
M  V30 9372 C 894.768 -3.24077 -6.42158 0
M  V30 9373 C 896.794 -2.28326 -5.45547 0
M  V30 9374 C 896.156 -3.24887 -6.25002 0
M  V30 9375 H 892.255 0.0832226 -0.777559 0
M  V30 9376 H 894.839 -0.410393 -1.90326 0
M  V30 9377 H 893.01 1.45012 -3.60314 0
M  V30 9378 H 894.742 1.33292 -3.8212 0
M  V30 9379 H 891.497 -0.479291 -4.71169 0
M  V30 9380 H 891.921 -2.60125 -6.25031 0
M  V30 9381 H 896.563 -0.553858 -4.19157 0
M  V30 9382 H 894.281 -3.98281 -7.03134 0
M  V30 9383 H 897.867 -2.31578 -5.33726 0
M  V30 9384 H 896.747 -4.00745 -6.74072 0
M  V30 9385 N 894.251 1.57596 -0.0117121 0
M  V30 9386 C 895.214 2.08089 0.960816 0
M  V30 9387 C 896.214 0.992519 1.26514 0
M  V30 9388 O 897.404 1.25475 1.20837 0
M  V30 9389 C 894.536 2.53217 2.28241 0
M  V30 9390 H 895.729 2.9529 0.523829 0
M  V30 9391 H 893.282 1.54508 0.235995 0
M  V30 9392 H 894.017 1.69294 2.76604 0
M  V30 9393 H 893.802 3.32714 2.0747 0
M  V30 9394 H 895.292 2.92568 2.97983 0
M  V30 9395 N 895.729 -0.261212 1.5542 0
M  V30 9396 C 896.639 -1.34493 1.92221 0
M  V30 9397 C 897.655 -1.53421 0.82086 0
M  V30 9398 O 898.831 -1.6732 1.12099 0
M  V30 9399 C 895.896 -2.68209 2.19692 0
M  V30 9400 C 894.957 -2.57927 3.43179 0
M  V30 9401 C 894.19 -3.85266 3.69331 0
M  V30 9402 O 894.413 -4.86493 2.97793 0
M  V30 9403 O 893.347 -3.8476 4.62865 0
M  V30 9404 H 897.173 -1.06278 2.84497 0
M  V30 9405 H 894.758 -0.460752 1.42118 0
M  V30 9406 H 896.64 -3.47252 2.38734 0
M  V30 9407 H 895.315 -2.96186 1.30597 0
M  V30 9408 H 894.222 -1.77219 3.2946 0
M  V30 9409 H 895.555 -2.34898 4.32532 0
M  V30 9410 N 897.207 -1.48554 -0.526253 0
M  V30 9411 C 898.618 -1.50256 -1.10815 0
M  V30 9412 C 898.969 -0.274445 -1.94271 0
M  V30 9413 O 898.094 0.618094 -2.07385 0
M  V30 9414 C 898.689 -2.72264 -2.01638 0
M  V30 9415 C 897.248 -2.76826 -2.55038 0
M  V30 9416 C 896.395 -2.43823 -1.32081 0
M  V30 9417 H 899.346 -1.55616 -0.31133 0
M  V30 9418 H 899.367 -2.50993 -2.85977 0
M  V30 9419 H 898.879 -3.61632 -1.4087 0
M  V30 9420 H 896.98 -1.91676 -3.19517 0
M  V30 9421 H 897.093 -3.78351 -2.93917 0
M  V30 9422 H 895.457 -1.95058 -1.63781 0
M  V30 9423 H 896.24 -3.35436 -0.730596 0
M  V30 9424 N 898.685 0.775411 -1.37205 0
M  V30 9425 C 899.615 1.90258 -1.35367 0
M  V30 9426 C 900.596 1.68634 -0.222864 0
M  V30 9427 O 901.781 1.89545 -0.422659 0
M  V30 9428 C 898.911 3.27488 -1.15623 0
M  V30 9429 C 897.865 3.63668 -2.25676 0
M  V30 9430 C 897.191 4.994 -1.91059 0
M  V30 9431 C 898.491 3.70797 -3.67841 0
M  V30 9432 H 900.185 1.92053 -2.29687 0
M  V30 9433 H 897.731 0.922597 -1.10563 0
M  V30 9434 H 899.684 4.05976 -1.12968 0
M  V30 9435 H 898.408 3.26117 -0.177573 0
M  V30 9436 H 897.067 2.87486 -2.2748 0
M  V30 9437 H 896.715 4.94565 -0.917324 0
M  V30 9438 H 896.415 5.24576 -2.64751 0
M  V30 9439 H 897.939 5.80291 -1.89985 0
M  V30 9440 H 899.353 4.39444 -3.68187 0
M  V30 9441 H 897.75 4.07468 -4.40556 0
M  V30 9442 H 898.82 2.71549 -4.01732 0
M  V30 9443 N 900.163 1.21714 1.00117 0
M  V30 9444 C 901.388 1.06357 1.78054 0
M  V30 9445 C 901.813 -0.382075 1.84179 0
M  V30 9446 O 901.171 -1.27575 1.28819 0
M  V30 9447 C 901.219 1.66982 3.19608 0
M  V30 9448 O 900.323 0.917892 4.02055 0
M  V30 9449 H 899.664 0.374074 0.548602 0
M  V30 9450 H 902.194 1.61338 1.25822 0
M  V30 9451 H 902.204 1.71363 3.70268 0
M  V30 9452 H 900.879 2.72185 3.14465 0
M  V30 9453 H 899.456 0.949473 3.6061 0
M  V30 9454 N 901.641 -1.19671 1.02551 0
M  V30 9455 C 903.052 -1.70964 0.750208 0
M  V30 9456 C 903.403 -1.82095 -0.730461 0
M  V30 9457 O 902.528 -1.48974 -1.56958 0
M  V30 9458 C 903.123 -3.10516 1.35518 0
M  V30 9459 C 901.682 -3.59083 1.12854 0
M  V30 9460 C 900.829 -2.36041 1.45534 0
M  V30 9461 H 903.78 -1.04559 1.19386 0
M  V30 9462 H 903.801 -3.73028 0.750378 0
M  V30 9463 H 903.313 -3.02383 2.43282 0
M  V30 9464 H 901.414 -3.72536 0.0689627 0
M  V30 9465 H 901.527 -4.43395 1.81488 0
M  V30 9466 H 899.891 -2.39214 0.87458 0
M  V30 9467 H 900.674 -2.3054 2.54374 0
M  V30 9468 N 903.119 -0.802921 -1.35613 0
M  V30 9469 C 904.029 -0.212177 -2.33639 0
M  V30 9470 C 905.045 0.642871 -1.61689 0
M  V30 9471 O 906.221 0.555485 -1.93588 0
M  V30 9472 C 903.286 0.632406 -3.40883 0
M  V30 9473 C 902.347 -0.242708 -4.28613 0
M  V30 9474 C 901.58 0.56166 -5.30736 0
M  V30 9475 O 901.803 1.79664 -5.41366 0
M  V30 9476 O 900.737 -0.0455387 -6.01883 0
M  V30 9477 H 904.563 -1.023 -2.85952 0
M  V30 9478 H 902.148 -0.564636 -1.38319 0
M  V30 9479 H 904.03 1.11358 -4.0642 0
M  V30 9480 H 902.705 1.42089 -2.90848 0
M  V30 9481 H 901.612 -0.77094 -3.6607 0
M  V30 9482 H 902.945 -0.995046 -4.82037 0
M  V30 9483 N 904.597 1.47463 -0.556102 0
M  V30 9484 C 906.013 1.58134 -0.21579 0
M  V30 9485 C 906.213 1.55486 1.28166 0
M  V30 9486 O 905.269 1.45768 2.06174 0
M  V30 9487 C 906.582 2.88686 -0.841464 0
M  V30 9488 C 908.13 3.02268 -0.812591 0
M  V30 9489 C 908.605 4.35518 -1.41731 0
M  V30 9490 N 910.096 4.42151 -1.38045 0
M  V30 9491 C 910.831 5.43817 -1.81799 0
M  V30 9492 N 910.327 6.52299 -2.33404 0
M  V30 9493 N 912.12 5.34855 -1.72877 0
M  V30 9494 H 904.271 1.47428 -1.52901 0
M  V30 9495 H 906.534 0.701586 -0.637559 0
M  V30 9496 H 906.24 2.96358 -1.8938 0
M  V30 9497 H 906.114 3.7572 -0.333846 0
M  V30 9498 H 908.501 2.94194 0.231056 0
M  V30 9499 H 908.582 2.16779 -1.35796 0
M  V30 9500 H 908.226 4.44348 -2.46002 0
M  V30 9501 H 908.156 5.19737 -0.847402 0
M  V30 9502 H 910.647 3.64348 -1.00296 0
M  V30 9503 H 910.96 7.26047 -2.64717 0
M  V30 9504 H 909.305 6.53192 -2.37414 0
M  V30 9505 H 912.496 4.49004 -1.32338 0
M  V30 9506 H 912.669 6.13949 -2.07294 0
M  V30 9507 N 906.075 0.2925 1.54862 0
M  V30 9508 C 907.486 -0.201841 1.85606 0
M  V30 9509 C 907.837 -1.54093 1.21449 0
M  V30 9510 O 906.962 -2.10327 0.509079 0
M  V30 9511 C 907.557 -0.373011 3.3674 0
M  V30 9512 C 906.116 -0.811574 3.67547 0
M  V30 9513 C 905.263 0.0850583 2.7717 0
M  V30 9514 H 908.214 0.513774 1.50153 0
M  V30 9515 H 908.235 -1.20892 3.60785 0
M  V30 9516 H 907.747 0.601751 3.83407 0
M  V30 9517 H 905.848 -1.79719 3.26392 0
M  V30 9518 H 905.961 -0.636853 4.74848 0
M  V30 9519 H 904.325 -0.434224 2.50971 0
M  V30 9520 H 905.108 1.05602 3.26654 0
M  V30 9521 N 907.553 -1.57587 0.0200696 0
M  V30 9522 C 908.463 -2.13119 -0.980676 0
M  V30 9523 C 909.479 -1.08124 -1.36328 0
M  V30 9524 O 910.655 -1.40134 -1.44653 0
M  V30 9525 C 907.72 -2.63991 -2.24743 0
M  V30 9526 C 906.781 -3.83667 -1.9261 0
M  V30 9527 C 906.014 -4.32103 -3.13246 0
M  V30 9528 O 906.237 -3.79758 -4.25606 0
M  V30 9529 O 905.171 -5.24047 -2.96072 0
M  V30 9530 H 908.997 -2.98887 -0.538528 0
M  V30 9531 H 906.582 -1.48055 -0.19999 0
M  V30 9532 H 908.464 -2.9682 -2.99125 0
M  V30 9533 H 907.139 -1.81311 -2.68157 0
M  V30 9534 H 906.046 -3.55778 -1.15641 0
M  V30 9535 H 907.379 -4.67482 -1.54019 0
M  V30 9536 N 909.032 0.252966 -1.55557 0
M  V30 9537 C 910.309 1.00432 -1.67847 0
M  V30 9538 C 910.689 2.03587 -0.55816 0
M  V30 9539 O 910.037 2.24239 0.439197 0
M  V30 9540 C 910.247 1.64313 -3.079 0
M  V30 9541 C 911.595 2.14726 -3.66303 0
M  V30 9542 O 912.619 1.74264 -3.10661 0
M  V30 9543 O 911.478 2.89 -4.63833 0
M  V30 9544 H 908.572 0.467102 -0.682455 0
M  V30 9545 H 911.118 0.247233 -1.67889 0
M  V30 9546 H 909.89 0.896681 -3.80888 0
M  V30 9547 H 909.513 2.46657 -3.11843 0
M  V30 9548 N 910.51 1.48831 0.518367 0
M  V30 9549 C 911.44 1.67119 1.63075 0
M  V30 9550 C 912.421 0.519948 1.61958 0
M  V30 9551 O 913.606 0.753824 1.78972 0
M  V30 9552 C 910.736 1.72158 3.01627 0
M  V30 9553 C 909.69 2.86898 3.17606 0
M  V30 9554 C 909.016 2.77035 4.57335 0
M  V30 9555 C 910.316 4.28057 2.99274 0
M  V30 9556 H 912.01 2.60248 1.48025 0
M  V30 9557 H 909.556 1.2524 0.710694 0
M  V30 9558 H 911.509 1.83539 3.7933 0
M  V30 9559 H 910.233 0.756157 3.17726 0
M  V30 9560 H 908.892 2.75091 2.42323 0
M  V30 9561 H 908.54 1.78438 4.70286 0
M  V30 9562 H 908.24 3.54036 4.6897 0
M  V30 9563 H 909.764 2.904 5.37122 0
M  V30 9564 H 911.178 4.40636 3.6676 0
M  V30 9565 H 909.575 5.06145 3.22393 0
M  V30 9566 H 910.645 4.4371 1.95574 0
M  V30 9567 N 911.988 -0.768124 1.37614 0
M  V30 9568 C 913.404 -1.06919 1.18493 0
M  V30 9569 C 913.604 -2.01486 0.0235753 0
M  V30 9570 O 912.66 -2.4438 -0.635209 0
M  V30 9571 C 913.973 -1.66321 2.50515 0
M  V30 9572 C 915.521 -1.78562 2.57069 0
M  V30 9573 C 915.996 -2.41377 3.89231 0
M  V30 9574 N 917.487 -2.48824 3.90693 0
M  V30 9575 C 918.222 -2.98288 4.89706 0
M  V30 9576 N 917.718 -3.47897 5.99115 0
M  V30 9577 N 919.511 -2.97196 4.77107 0
M  V30 9578 H 911.662 -0.140286 2.11936 0
M  V30 9579 H 913.925 -0.124863 0.939741 0
M  V30 9580 H 913.631 -1.04303 3.35878 0
M  V30 9581 H 913.505 -2.65571 2.67866 0
M  V30 9582 H 915.892 -2.39712 1.72111 0
M  V30 9583 H 915.973 -0.780574 2.43599 0
M  V30 9584 H 915.617 -1.80866 4.74605 0
M  V30 9585 H 915.547 -3.42495 4.00006 0
M  V30 9586 H 918.038 -2.1372 3.1166 0
M  V30 9587 H 918.351 -3.84053 6.70614 0
M  V30 9588 H 916.696 -3.45993 6.02755 0
M  V30 9589 H 919.887 -2.57741 3.90752 0
M  V30 9590 H 920.06 -3.35434 5.54426 0
M  V30 9591 N 913.466 -1.22244 -0.994698 0
M  V30 9592 C 914.429 -0.992308 -2.06606 0
M  V30 9593 C 915.429 0.0405872 -1.60749 0
M  V30 9594 O 916.619 -0.197737 -1.73074 0
M  V30 9595 C 913.751 -0.498499 -3.37236 0
M  V30 9596 H 914.944 -1.9429 -2.28455 0
M  V30 9597 H 912.497 -1.04087 -1.166 0
M  V30 9598 H 913.232 0.456531 -3.21071 0
M  V30 9599 H 913.017 -1.24367 -3.71854 0
M  V30 9600 H 914.507 -0.35768 -4.16065 0
M  V30 9601 N 914.944 1.19125 -1.03184 0
M  V30 9602 C 916.169 1.93379 -0.749628 0
M  V30 9603 C 916.594 1.75153 0.685785 0
M  V30 9604 O 915.952 1.05579 1.47386 0
M  V30 9605 C 916 3.43101 -1.1097 0
M  V30 9606 O 915.104 4.11758 -0.230053 0
M  V30 9607 H 914.445 0.603605 -0.276689 0
M  V30 9608 H 916.975 1.51116 -1.37931 0
M  V30 9609 H 916.985 3.93778 -1.06785 0
M  V30 9610 H 915.66 3.55688 -2.15544 0
M  V30 9611 H 914.237 3.7143 -0.330748 0
M  V30 9612 N 916.422 0.810101 1.35185 0
M  V30 9613 C 917.332 0.224565 2.33523 0
M  V30 9614 C 918.348 -0.634287 1.62027 0
M  V30 9615 O 919.524 -0.545211 1.9388 0
M  V30 9616 C 916.589 -0.614319 3.41214 0
M  V30 9617 C 915.65 0.265435 4.28479 0
M  V30 9618 C 914.883 -0.533506 5.31027 0
M  V30 9619 O 915.106 -1.7679 5.42311 0
M  V30 9620 O 914.04 0.0774573 6.0185 0
M  V30 9621 H 917.866 1.03815 2.85405 0
M  V30 9622 H 915.451 0.571964 1.38018 0
M  V30 9623 H 917.333 -1.09201 4.07005 0
M  V30 9624 H 916.008 -1.40545 2.91597 0
M  V30 9625 H 914.915 0.790343 3.65656 0
M  V30 9626 H 916.248 1.0206 4.81503 0
M  V30 9627 N 917.9 -1.47166 0.563914 0
M  V30 9628 C 919.316 -1.58018 0.224173 0
M  V30 9629 C 919.516 -1.56163 -1.27339 0
M  V30 9630 O 918.572 -1.4686 -2.05398 0
M  V30 9631 C 919.885 -2.88236 0.856762 0
M  V30 9632 C 921.433 -3.01833 0.82861 0
M  V30 9633 C 921.908 -4.34761 1.44039 0
M  V30 9634 N 923.399 -4.41413 1.40388 0
M  V30 9635 C 924.134 -5.42845 1.84681 0
M  V30 9636 N 923.63 -6.51052 2.3686 0
M  V30 9637 N 925.423 -5.33931 1.75711 0
M  V30 9638 H 917.574 -1.46615 1.53681 0
M  V30 9639 H 919.837 -0.698195 0.64127 0
M  V30 9640 H 919.543 -2.95349 1.90949 0
M  V30 9641 H 919.417 -3.75537 0.353766 0
M  V30 9642 H 921.804 -2.94312 -0.215451 0
M  V30 9643 H 921.885 -2.16056 1.36943 0
M  V30 9644 H 921.529 -4.43037 2.48355 0
M  V30 9645 H 921.459 -5.1928 0.874953 0
M  V30 9646 H 923.95 -3.63811 1.02227 0
M  V30 9647 H 924.263 -7.24633 2.68564 0
M  V30 9648 H 922.608 -6.51924 2.40875 0
M  V30 9649 H 925.799 -4.48295 1.34718 0
M  V30 9650 H 925.972 -6.12841 2.10547 0
M  V30 9651 N 919.378 -0.300708 -1.54705 0
M  V30 9652 C 920.625 0.308654 -2.00134 0
M  V30 9653 C 920.953 1.53918 -1.1891 0
M  V30 9654 O 920.208 1.94054 -0.253263 0
M  V30 9655 C 920.507 0.710108 -3.50275 0
M  V30 9656 C 920.173 -0.418651 -4.48952 0
M  V30 9657 C 918.835 -0.728524 -4.75653 0
M  V30 9658 C 921.187 -1.17797 -5.07714 0
M  V30 9659 C 918.515 -1.80085 -5.58378 0
M  V30 9660 C 920.867 -2.24022 -5.91606 0
M  V30 9661 C 919.531 -2.55616 -6.16617 0
M  V30 9662 H 918.801 0.112945 -0.732342 0
M  V30 9663 H 921.448 -0.419744 -1.86843 0
M  V30 9664 H 919.753 1.51859 -3.61173 0
M  V30 9665 H 921.45 1.19277 -3.8285 0
M  V30 9666 H 918.04 -0.167034 -4.28274 0
M  V30 9667 H 922.224 -0.951835 -4.87087 0
M  V30 9668 H 917.48 -2.05036 -5.75995 0
M  V30 9669 H 921.654 -2.83317 -6.36164 0
M  V30 9670 H 919.281 -3.38839 -6.80509 0
M  V30 9671 N 920.856 1.57574 -0.0284266 0
M  V30 9672 C 921.786 2.1321 0.952039 0
M  V30 9673 C 922.767 1.04806 1.33977 0
M  V30 9674 O 923.952 1.32635 1.41851 0
M  V30 9675 C 921.082 2.65862 2.23461 0
M  V30 9676 C 920.036 3.79047 1.98765 0
M  V30 9677 C 919.362 4.18124 3.33281 0
M  V30 9678 C 920.662 5.05151 1.32739 0
M  V30 9679 H 922.356 2.95385 0.488705 0
M  V30 9680 H 919.902 1.42092 0.233628 0
M  V30 9681 H 921.855 3.03417 2.92431 0
M  V30 9682 H 920.579 1.80848 2.71959 0
M  V30 9683 H 919.238 3.41929 1.32213 0
M  V30 9684 H 918.886 3.30092 3.79537 0
M  V30 9685 H 918.586 4.94396 3.17563 0
M  V30 9686 H 920.11 4.58262 4.0352 0
M  V30 9687 H 921.524 5.40297 1.91708 0
M  V30 9688 H 919.921 5.86416 1.27421 0
M  V30 9689 H 920.991 4.83969 0.300261 0
M  V30 9690 N 922.334 -0.244713 1.55689 0
M  V30 9691 C 923.284 -1.30596 1.86892 0
M  V30 9692 C 924.268 -1.43388 0.729972 0
M  V30 9693 O 925.46 -1.46593 0.99194 0
M  V30 9694 C 922.589 -2.66099 2.16902 0
M  V30 9695 C 921.675 -2.57302 3.37129 0
M  V30 9696 N 922.066 -2.18139 4.56343 0
M  V30 9697 C 920.364 -2.88311 3.40283 0
M  V30 9698 C 921.065 -2.20028 5.38482 0
M  V30 9699 N 920.041 -2.59616 4.77599 0
M  V30 9700 H 923.843 -0.993699 2.76591 0
M  V30 9701 H 921.357 -0.453334 1.55944 0
M  V30 9702 H 923.354 -3.4269 2.37422 0
M  V30 9703 H 922.014 -2.9819 1.28502 0
M  V30 9704 H 923.025 -1.89647 4.81928 0
M  V30 9705 H 919.702 -3.24928 2.62161 0
M  V30 9706 H 921.092 -1.9207 6.43862 0
M  V30 9707 N 923.813 -1.49104 -0.510467 0
M  V30 9708 C 925.06 -1.58112 -1.26518 0
M  V30 9709 C 925.388 -0.263603 -1.92705 0
M  V30 9710 O 924.643 0.747743 -1.80852 0
M  V30 9711 C 924.942 -2.68259 -2.36161 0
M  V30 9712 C 924.608 -4.10069 -1.87495 0
M  V30 9713 C 923.27 -4.48662 -1.73942 0
M  V30 9714 C 925.622 -4.98859 -1.5096 0
M  V30 9715 C 922.95 -5.73829 -1.22217 0
M  V30 9716 C 925.302 -6.24535 -1.00691 0
M  V30 9717 C 923.966 -6.61967 -0.857691 0
M  V30 9718 H 923.236 -0.578574 -0.462962 0
M  V30 9719 H 925.883 -1.82899 -0.567475 0
M  V30 9720 H 924.188 -2.37407 -3.11681 0
M  V30 9721 H 925.885 -2.7244 -2.9424 0
M  V30 9722 H 922.475 -3.79601 -1.99001 0
M  V30 9723 H 926.659 -4.69706 -1.60282 0
M  V30 9724 H 921.915 -6.01539 -1.09368 0
M  V30 9725 H 926.089 -6.9272 -0.71498 0
M  V30 9726 H 923.716 -7.58839 -0.454702 0
M  V30 9727 N 925.291 0.760815 -1.38019 0
M  V30 9728 C 926.224 1.88212 -1.2904 0
M  V30 9729 C 927.202 1.61721 -0.168805 0
M  V30 9730 O 928.386 1.85318 -0.344893 0
M  V30 9731 C 925.513 3.23672 -0.997702 0
M  V30 9732 C 924.559 3.6906 -2.13769 0
M  V30 9733 S 925.392 3.81445 -3.75845 0
M  V30 9734 C 926.548 5.19736 -3.48748 0
M  V30 9735 H 926.781 1.95541 -2.23944 0
M  V30 9736 H 924.314 0.923051 -1.2377 0
M  V30 9737 H 926.272 4.01904 -0.835657 0
M  V30 9738 H 924.933 3.14031 -0.065967 0
M  V30 9739 H 924.126 4.67295 -1.88816 0
M  V30 9740 H 923.728 2.97961 -2.26043 0
M  V30 9741 H 926.02 6.05259 -3.04414 0
M  V30 9742 H 926.963 5.49706 -4.46351 0
M  V30 9743 H 927.371 4.88191 -2.83425 0
M  V30 9744 N 926.769 1.22769 0.988202 0
M  V30 9745 C 927.699 1.02627 2.09738 0
M  V30 9746 C 928.68 -0.0543211 1.70013 0
M  V30 9747 O 929.865 0.108811 1.93895 0
M  V30 9748 C 926.995 0.608302 3.41931 0
M  V30 9749 C 925.949 1.63536 3.95525 0
M  V30 9750 C 925.275 1.07308 5.23822 0
M  V30 9751 C 926.575 3.02649 4.25677 0
M  V30 9752 H 928.269 1.954 2.26847 0
M  V30 9753 H 925.815 0.940888 1.09011 0
M  V30 9754 H 927.768 0.454478 4.18942 0
M  V30 9755 H 926.492 -0.355095 3.24664 0
M  V30 9756 H 925.151 1.77704 3.20651 0
M  V30 9757 H 924.799 0.100894 5.02899 0
M  V30 9758 H 924.499 1.75925 5.60646 0
M  V30 9759 H 926.023 0.930938 6.03462 0
M  V30 9760 H 927.437 2.91828 4.93467 0
M  V30 9761 H 925.834 3.68434 4.73684 0
M  V30 9762 H 926.904 3.52228 3.33262 0
M  V30 9763 N 928.247 -1.18576 1.03814 0
M  V30 9764 C 929.495 -1.88121 0.738574 0
M  V30 9765 C 929.816 -1.80587 -0.735744 0
M  V30 9766 O 929.086 -1.22251 -1.53074 0
M  V30 9767 H 927.666 -0.696417 0.270208 0
M  V30 9768 H 930.328 -1.43912 1.31435 0
M  V30 9769 H 929.424 -2.94222 1.04115 0
M  V30 9770 N 929.725 -0.817259 -1.34754 0
M  V30 9771 C 930.971 -0.412407 -1.99175 0
M  V30 9772 C 931.326 1.01192 -1.6364 0
M  V30 9773 O 930.619 1.69417 -0.894897 0
M  V30 9774 C 930.813 -0.5453 -3.53216 0
M  V30 9775 C 930.642 -1.981 -4.03716 0
M  V30 9776 C 929.412 -2.61167 -4.32574 0
M  V30 9777 C 931.61 -2.94698 -4.21494 0
M  V30 9778 N 929.592 -3.96035 -4.69073 0
M  V30 9779 C 930.963 -4.14462 -4.61109 0
M  V30 9780 C 933.018 -2.9139 -4.03728 0
M  V30 9781 C 931.721 -5.31363 -4.84815 0
M  V30 9782 C 933.747 -4.07502 -4.28598 0
M  V30 9783 C 933.109 -5.26016 -4.68494 0
M  V30 9784 H 929.208 -0.198899 -0.756282 0
M  V30 9785 H 931.792 -1.06076 -1.63266 0
M  V30 9786 H 929.963 0.073122 -3.88331 0
M  V30 9787 H 931.695 -0.113999 -4.04539 0
M  V30 9788 H 928.45 -2.12446 -4.23277 0
M  V30 9789 H 928.874 -4.65502 -4.91566 0
M  V30 9790 H 933.516 -2.00908 -3.72016 0
M  V30 9791 H 931.234 -6.22408 -5.15397 0
M  V30 9792 H 934.82 -4.06335 -4.16393 0
M  V30 9793 H 933.7 -6.14369 -4.87361 0
M  V30 9794 N 931.203 1.46865 -0.571711 0
M  V30 9795 C 932.45 2.0243 -0.0531071 0
M  V30 9796 C 932.778 1.44446 1.30252 0
M  V30 9797 O 932.033 0.595182 1.8643 0
M  V30 9798 C 932.332 3.57323 0.0742311 0
M  V30 9799 C 931.998 4.34295 -1.21237 0
M  V30 9800 C 930.66 4.55044 -1.56489 0
M  V30 9801 C 933.012 4.78577 -2.0643 0
M  V30 9802 C 930.34 5.17325 -2.76752 0
M  V30 9803 C 932.692 5.42186 -3.25909 0
M  V30 9804 C 931.356 5.61165 -3.61456 0
M  V30 9805 H 930.626 0.740745 -0.0194333 0
M  V30 9806 H 933.273 1.76366 -0.74614 0
M  V30 9807 H 931.578 3.82461 0.850325 0
M  V30 9808 H 933.275 3.97982 0.491077 0
M  V30 9809 H 929.865 4.18435 -0.927922 0
M  V30 9810 H 934.049 4.62313 -1.80501 0
M  V30 9811 H 929.305 5.30211 -3.04444 0
M  V30 9812 H 933.479 5.75459 -3.92198 0
M  V30 9813 H 931.106 6.09195 -4.54737 0
M  V30 9814 N 932.681 0.308908 1.54543 0
M  V30 9815 C 933.644 -0.550857 2.22482 0
M  V30 9816 C 934.644 -1.0551 1.21344 0
M  V30 9817 O 935.834 -0.949866 1.46025 0
M  V30 9818 C 932.966 -1.76354 2.9174 0
M  V30 9819 H 934.159 0.0428395 2.99869 0
M  V30 9820 H 931.712 0.059825 1.56185 0
M  V30 9821 H 932.447 -2.39686 2.18451 0
M  V30 9822 H 932.232 -1.40954 3.65889 0
M  V30 9823 H 933.722 -2.37417 3.43545 0
M  V30 9824 N 934.159 -1.57557 0.0367827 0
M  V30 9825 C 935.109 -2.07182 -0.95183 0
M  V30 9826 C 936.093 -0.973921 -1.28076 0
M  V30 9827 O 937.285 -1.23741 -1.26559 0
M  V30 9828 C 934.414 -2.60869 -2.23164 0
M  V30 9829 C 933.5 -3.77602 -1.93074 0
M  V30 9830 N 933.891 -4.87923 -1.33283 0
M  V30 9831 C 932.189 -3.86234 -2.23023 0
M  V30 9832 C 932.89 -5.69083 -1.20498 0
M  V30 9833 N 931.866 -5.16233 -1.70306 0
M  V30 9834 H 935.668 -2.89876 -0.484647 0
M  V30 9835 H 933.182 -1.61528 -0.16804 0
M  V30 9836 H 935.179 -2.94716 -2.9487 0
M  V30 9837 H 933.839 -1.79607 -2.70502 0
M  V30 9838 H 934.85 -5.08018 -1.00686 0
M  V30 9839 H 931.527 -3.15891 -2.72981 0
M  V30 9840 H 932.917 -6.6779 -0.741999 0
M  V30 9841 N 935.637 0.236453 -1.55816 0
M  V30 9842 C 937.048 0.80468 -1.68469 0
M  V30 9843 C 937.399 1.85601 -0.636133 0
M  V30 9844 O 936.524 2.15323 0.215622 0
M  V30 9845 C 937.119 1.46634 -3.05424 0
M  V30 9846 C 935.678 1.98214 -3.19981 0
M  V30 9847 C 934.825 0.83695 -2.64368 0
M  V30 9848 H 937.776 0.0120647 -1.58695 0
M  V30 9849 H 937.797 2.33472 -3.00451 0
M  V30 9850 H 937.309 0.700931 -3.81718 0
M  V30 9851 H 935.41 2.77604 -2.4853 0
M  V30 9852 H 935.523 2.17235 -4.2702 0
M  V30 9853 H 933.887 1.24028 -2.22462 0
M  V30 9854 H 934.67 0.084451 -3.43196 0
M  V30 9855 N 937.115 1.49373 0.502552 0
M  V30 9856 C 938.361 1.59016 1.25864 0
M  V30 9857 C 938.694 0.27532 1.92238 0
M  V30 9858 O 937.969 -0.720988 1.80643 0
M  V30 9859 C 938.252 2.74828 2.32683 0
M  V30 9860 C 938.105 4.16102 1.7082 0
M  V30 9861 C 939.424 2.86288 3.34256 0
M  V30 9862 H 936.543 0.578798 0.456248 0
M  V30 9863 H 939.185 1.81651 0.557032 0
M  V30 9864 H 937.335 2.5566 2.92524 0
M  V30 9865 H 939.007 4.46782 1.14818 0
M  V30 9866 H 937.25 4.21822 1.01238 0
M  V30 9867 H 937.921 4.93006 2.48292 0
M  V30 9868 H 940.397 3.03733 2.84404 0
M  V30 9869 H 939.273 3.69001 4.06362 0
M  V30 9870 H 939.534 1.95576 3.96488 0
M  V30 9871 N 938.594 -0.753485 1.38421 0
M  V30 9872 C 939.841 -1.51261 1.34634 0
M  V30 9873 C 940.169 -1.94396 -0.0635771 0
M  V30 9874 O 939.424 -1.65736 -1.04068 0
M  V30 9875 C 939.723 -2.77836 2.24816 0
M  V30 9876 C 939.389 -2.53662 3.72782 0
M  V30 9877 C 938.051 -2.46779 4.13103 0
M  V30 9878 C 940.403 -2.32548 4.66445 0
M  V30 9879 C 937.731 -2.16796 5.45176 0
M  V30 9880 C 940.083 -2.04085 5.98775 0
M  V30 9881 C 938.747 -1.95658 6.3818 0
M  V30 9882 H 938.017 -0.553503 0.492661 0
M  V30 9883 H 940.664 -0.866406 1.7078 0
M  V30 9884 H 938.969 -3.47106 1.81726 0
M  V30 9885 H 940.666 -3.35793 2.19189 0
M  V30 9886 H 937.256 -2.59891 3.40815 0
M  V30 9887 H 941.44 -2.36845 4.3614 0
M  V30 9888 H 936.696 -2.0878 5.74648 0
M  V30 9889 H 940.87 -1.86751 6.70893 0
M  V30 9890 H 938.497 -1.7219 7.40442 0
M  V30 9891 N 940.072 -1.23292 -0.981677 0
M  V30 9892 C 941.318 -1.06582 -1.72535 0
M  V30 9893 C 941.651 0.396538 -1.90108 0
M  V30 9894 O 940.926 1.29363 -1.45243 0
M  V30 9895 C 941.209 -1.7904 -3.12437 0
M  V30 9896 C 941.062 -3.32941 -3.02441 0
M  V30 9897 C 942.381 -1.55185 -4.11832 0
M  V30 9898 H 939.5 -0.388585 -0.626236 0
M  V30 9899 H 942.142 -1.51779 -1.14293 0
M  V30 9900 H 940.292 -1.40619 -3.62158 0
M  V30 9901 H 941.964 -3.80875 -2.60254 0
M  V30 9902 H 940.207 -3.62039 -2.38977 0
M  V30 9903 H 940.878 -3.78827 -4.0149 0
M  V30 9904 H 943.354 -1.88581 -3.70913 0
M  V30 9905 H 942.23 -2.08362 -5.07815 0
M  V30 9906 H 942.491 -0.486925 -4.3941 0
M  V30 9907 N 941.55 1.18024 -1.04442 0
M  V30 9908 C 942.827 1.8398 -0.664125 0
M  V30 9909 C 943.207 1.92961 0.856116 0
M  V30 9910 O 942.555 1.45839 1.75907 0
M  V30 9911 C 942.765 3.22069 -1.34433 0
M  V30 9912 C 944.113 3.98063 -1.47754 0
M  V30 9913 O 945.137 3.31523 -1.30274 0
M  V30 9914 O 943.996 5.17291 -1.76272 0
M  V30 9915 H 941.09 0.793543 -0.23285 0
M  V30 9916 H 943.636 1.25385 -1.14354 0
M  V30 9917 H 942.408 3.10458 -2.38184 0
M  V30 9918 H 942.031 3.88325 -0.853782 0
M  V30 9919 N 943.028 0.824394 1.34319 0
M  V30 9920 C 944.276 0.41235 1.97849 0
M  V30 9921 C 944.597 -1.02841 1.65677 0
M  V30 9922 O 943.867 -1.71421 0.948245 0
M  V30 9923 H 942.447 0.149486 0.73189 0
M  V30 9924 H 945.109 1.05416 1.63931 0
M  V30 9925 H 944.205 0.532557 3.07523 0
M  V30 9926 N 944.506 -1.46559 0.579492 0
M  V30 9927 C 945.783 -1.956 -0.00287136 0
M  V30 9928 C 946.163 -1.52215 -1.46266 0
M  V30 9929 O 945.511 -0.771335 -2.15088 0
M  V30 9930 C 945.721 -3.48606 0.165824 0
M  V30 9931 C 947.069 -4.24588 0.0319807 0
M  V30 9932 O 948.093 -3.56075 0.094496 0
M  V30 9933 O 946.952 -5.46396 -0.106386 0
M  V30 9934 H 944.046 -0.825387 -0.0516274 0
M  V30 9935 H 946.592 -1.56858 0.647584 0
M  V30 9936 H 945.364 -3.7306 1.18076 0
M  V30 9937 H 944.987 -3.94169 -0.521212 0
M  V30 9938 N 945.984 -0.3171 -1.54377 0
M  V30 9939 C 947.214 0.289138 -2.04567 0
M  V30 9940 C 947.622 1.46833 -1.19318 0
M  V30 9941 O 946.965 1.82436 -0.215141 0
M  V30 9942 C 947.027 0.792994 -3.50645 0
M  V30 9943 C 946.691 -0.263033 -4.56242 0
M  V30 9944 C 947.688 -1.09694 -5.08196 0
M  V30 9945 C 945.373 -0.409364 -5.00629 0
M  V30 9946 C 947.367 -2.06297 -6.03092 0
M  V30 9947 C 945.054 -1.37882 -5.95342 0
M  V30 9948 C 946.052 -2.20409 -6.46459 0
M  V30 9949 O 945.74 -3.15708 -7.39313 0
M  V30 9950 H 945.472 0.0644005 -0.672925 0
M  V30 9951 H 948.026 -0.459438 -2.00196 0
M  V30 9952 H 946.256 1.59237 -3.52392 0
M  V30 9953 H 947.945 1.31687 -3.83944 0
M  V30 9954 H 948.711 -0.994842 -4.74687 0
M  V30 9955 H 944.59 0.223091 -4.6046 0
M  V30 9956 H 948.134 -2.70751 -6.42915 0
M  V30 9957 H 944.031 -1.48158 -6.28267 0
M  V30 9958 H 944.799 -3.10873 -7.57166 0
M  V30 9959 N 947.462 1.57535 -0.0451378 0
M  V30 9960 C 948.873 1.80116 0.491426 0
M  V30 9961 C 949.224 0.956846 1.71286 0
M  V30 9962 O 948.349 0.17173 2.15718 0
M  V30 9963 C 948.944 3.26674 0.898315 0
M  V30 9964 C 947.503 3.50194 1.37989 0
M  V30 9965 C 946.65 2.75054 0.352202 0
M  V30 9966 H 949.601 1.56368 -0.271065 0
M  V30 9967 H 949.622 3.37263 1.76164 0
M  V30 9968 H 949.134 3.88099 0.009141 0
M  V30 9969 H 947.235 2.94041 2.28846 0
M  V30 9970 H 947.348 4.58909 1.37622 0
M  V30 9971 H 945.712 2.4101 0.823784 0
M  V30 9972 H 946.495 3.39203 -0.528782 0
M  V30 9973 N 948.94 -0.228186 1.55939 0
M  V30 9974 C 949.903 -1.26621 1.91049 0
M  V30 9975 C 950.903 -1.40141 0.788491 0
M  V30 9976 O 952.093 -1.3852 1.05631 0
M  V30 9977 C 949.225 -2.64108 2.15545 0
M  V30 9978 H 950.418 -0.966978 2.83883 0
M  V30 9979 H 947.971 -0.468313 1.49119 0
M  V30 9980 H 948.706 -2.99141 1.25241 0
M  V30 9981 H 948.491 -2.55673 2.97277 0
M  V30 9982 H 949.981 -3.39025 2.43827 0
M  V30 9983 N 950.418 -1.49637 -0.494624 0
M  V30 9984 C 951.646 -1.63164 -1.2722 0
M  V30 9985 C 952.061 -0.305552 -1.86311 0
M  V30 9986 O 951.418 0.709758 -1.68133 0
M  V30 9987 C 951.469 -2.70524 -2.39789 0
M  V30 9988 O 951.19 -3.97991 -1.83126 0
M  V30 9989 C 952.691 -2.94814 -3.31058 0
M  V30 9990 H 949.911 -0.54912 -0.385627 0
M  V30 9991 H 952.455 -1.95711 -0.593081 0
M  V30 9992 H 950.61 -2.40738 -3.03519 0
M  V30 9993 H 951.024 -4.57179 -2.57075 0
M  V30 9994 H 952.498 -3.73653 -4.06309 0
M  V30 9995 H 952.975 -2.04974 -3.88436 0
M  V30 9996 H 953.581 -3.26042 -2.73088 0
M  V30 9997 N 951.896 0.746133 -1.38819 0
M  V30 9998 C 952.826 1.87344 -1.39372 0
M  V30 9999 C 953.807 1.68123 -0.258583 0
M  V30 10000 O 954.992 1.88606 -0.462769 0
M  V30 10001 C 952.122 3.24962 -1.22543 0
M  V30 10002 C 951.076 3.58799 -2.33339 0
M  V30 10003 C 950.402 4.95235 -2.01609 0
M  V30 10004 C 951.702 3.62911 -3.75624 0
M  V30 10005 H 953.396 1.87138 -2.33709 0
M  V30 10006 H 950.942 0.898937 -1.12495 0
M  V30 10007 H 952.895 4.03488 -1.21554 0
M  V30 10008 H 951.619 3.25667 -0.246707 0
M  V30 10009 H 950.278 2.82596 -2.33527 0
M  V30 10010 H 949.926 4.92508 -1.02202 0
M  V30 10011 H 949.626 5.18843 -2.75819 0
M  V30 10012 H 951.15 5.76131 -2.02251 0
M  V30 10013 H 952.564 4.31535 -3.77426 0
M  V30 10014 H 950.961 3.98031 -4.491 0
M  V30 10015 H 952.031 2.62967 -4.07402 0
M  V30 10016 N 953.375 1.23811 0.975125 0
M  V30 10017 C 954.791 1.0019 1.24234 0
M  V30 10018 C 954.991 -0.293811 1.99346 0
M  V30 10019 O 954.047 -1.01189 2.31337 0
M  V30 10020 C 955.36 2.21218 2.03674 0
M  V30 10021 C 956.908 2.25764 2.16793 0
M  V30 10022 C 957.383 3.46394 2.99626 0
M  V30 10023 N 958.874 3.46665 3.07209 0
M  V30 10024 C 959.609 4.3666 3.71639 0
M  V30 10025 N 959.105 5.36899 4.37849 0
M  V30 10026 N 960.898 4.2439 3.68578 0
M  V30 10027 H 953.049 2.07087 0.472076 0
M  V30 10028 H 955.312 0.90838 0.271201 0
M  V30 10029 H 955.018 3.15277 1.55862 0
M  V30 10030 H 954.892 2.22733 3.04417 0
M  V30 10031 H 957.279 1.32242 2.63811 0
M  V30 10032 H 957.36 2.28279 1.15422 0
M  V30 10033 H 957.004 4.40227 2.53304 0
M  V30 10034 H 956.934 3.41121 4.01178 0
M  V30 10035 H 959.425 2.74142 2.60105 0
M  V30 10036 H 959.738 6.01816 4.84807 0
M  V30 10037 H 958.083 5.40793 4.36541 0
M  V30 10038 H 961.274 3.4532 3.16025 0
M  V30 10039 H 961.447 4.94727 4.18508 0
M  V30 10040 N 954.853 -1.17469 1.05066 0
M  V30 10041 C 956.081 -1.9162 0.780334 0
M  V30 10042 C 956.496 -1.76745 -0.663817 0
M  V30 10043 O 955.853 -1.10377 -1.45338 0
M  V30 10044 C 955.904 -3.42723 1.14992 0
M  V30 10045 O 955.625 -3.57139 2.53739 0
M  V30 10046 C 957.126 -4.33952 0.905549 0
M  V30 10047 H 954.346 -0.608022 0.283814 0
M  V30 10048 H 956.89 -1.4897 1.401 0
M  V30 10049 H 955.045 -3.83124 0.57403 0
M  V30 10050 H 955.459 -4.5075 2.68189 0
M  V30 10051 H 956.933 -5.38487 1.21391 0
M  V30 10052 H 957.41 -4.38911 -0.159295 0
M  V30 10053 H 958.016 -3.99263 1.46522 0
M  V30 10054 N 956.331 -0.831506 -1.3388 0
M  V30 10055 C 957.263 -0.216908 -2.28171 0
M  V30 10056 C 958.276 0.598141 -1.51414 0
M  V30 10057 O 959.465 0.426416 -1.73332 0
M  V30 10058 C 956.565 0.713831 -3.31297 0
M  V30 10059 C 955.738 -0.0602673 -4.37358 0
M  V30 10060 C 954.797 0.792696 -5.20195 0
M  V30 10061 O 953.823 0.234564 -5.68716 0
M  V30 10062 N 955.025 2.11119 -5.40748 0
M  V30 10063 H 957.79 -1.02704 -2.81553 0
M  V30 10064 H 955.351 -0.689272 -1.46495 0
M  V30 10065 H 957.343 1.28925 -3.83615 0
M  V30 10066 H 955.913 1.42469 -2.78247 0
M  V30 10067 H 955.133 -0.817041 -3.8564 0
M  V30 10068 H 956.421 -0.592822 -5.05335 0
M  V30 10069 H 955.819 2.58828 -5.03016 0
M  V30 10070 H 954.376 2.63527 -5.96151 0
M  V30 10071 N 957.809 1.4625 -0.587256 0
M  V30 10072 C 959.058 2.01571 -0.0722643 0
M  V30 10073 C 959.371 1.46385 1.29733 0
M  V30 10074 O 960.577 1.93554 1.90392 0
M  V30 10075 C 959.033 3.59814 -0.078579 0
M  V30 10076 C 958.641 4.23996 -1.44678 0
M  V30 10077 C 960.385 4.22776 0.382231 0
M  V30 10078 C 958.292 5.74332 -1.41057 0
M  V30 10079 H 957.222 0.753642 -0.0232461 0
M  V30 10080 H 959.873 1.67936 -0.739577 0
M  V30 10081 H 958.255 3.90546 0.654988 0
M  V30 10082 H 959.429 4.04867 -2.20043 0
M  V30 10083 H 957.744 3.73147 -1.84799 0
M  V30 10084 H 960.341 5.32983 0.428182 0
M  V30 10085 H 960.684 3.92027 1.40072 0
M  V30 10086 H 961.217 3.96687 -0.297417 0
M  V30 10087 H 957.956 6.09747 -2.40601 0
M  V30 10088 H 957.476 5.95711 -0.699185 0
M  V30 10089 H 959.155 6.37137 -1.12543 0
M  V30 10090 N 959.287 0.325282 1.54207 0
M  V30 10091 C 960.219 -0.57395 2.21897 0
M  V30 10092 C 961.232 -1.0785 1.21952 0
M  V30 10093 O 962.421 -0.991782 1.48411 0
M  V30 10094 C 959.521 -1.8005 2.87115 0
M  V30 10095 C 958.694 -1.43435 4.13213 0
M  V30 10096 C 957.753 -2.51862 4.62009 0
M  V30 10097 O 956.779 -2.15934 5.26651 0
M  V30 10098 N 957.981 -3.8282 4.36382 0
M  V30 10099 H 960.746 0.00566918 2.99699 0
M  V30 10100 H 958.307 0.148563 1.61217 0
M  V30 10101 H 960.299 -2.51981 3.16682 0
M  V30 10102 H 958.869 -2.28792 2.13009 0
M  V30 10103 H 958.089 -0.546598 3.90392 0
M  V30 10104 H 959.377 -1.16544 4.95273 0
M  V30 10105 H 958.775 -4.14807 3.84645 0
M  V30 10106 H 957.332 -4.50976 4.70599 0
M  V30 10107 N 960.765 -1.57509 0.0534917 0
M  V30 10108 C 961.697 -2.08616 -0.949322 0
M  V30 10109 C 962.71 -1.01446 -1.27328 0
M  V30 10110 O 963.899 -1.29007 -1.23367 0
M  V30 10111 C 960.999 -2.51622 -2.27024 0
M  V30 10112 C 960.172 -3.82154 -2.12785 0
M  V30 10113 C 959.231 -4.11448 -3.2802 0
M  V30 10114 O 958.257 -4.81333 -3.03822 0
M  V30 10115 N 959.459 -3.63543 -4.52567 0
M  V30 10116 H 962.224 -2.95275 -0.5131 0
M  V30 10117 H 959.785 -1.61355 -0.132693 0
M  V30 10118 H 961.777 -2.68293 -3.02986 0
M  V30 10119 H 960.347 -1.70198 -2.62205 0
M  V30 10120 H 959.567 -3.75041 -1.21399 0
M  V30 10121 H 960.855 -4.67629 -2.00501 0
M  V30 10122 H 960.253 -3.07051 -4.75117 0
M  V30 10123 H 958.81 -3.85448 -5.25617 0
M  V30 10124 N 962.243 0.219913 -1.56058 0
M  V30 10125 C 963.176 1.29978 -1.87566 0
M  V30 10126 C 964.154 1.45131 -0.733203 0
M  V30 10127 O 965.338 1.60917 -0.981729 0
M  V30 10128 C 962.465 2.66988 -2.08411 0
M  V30 10129 C 961.511 2.68842 -3.31099 0
M  V30 10130 S 962.344 2.22745 -4.86975 0
M  V30 10131 C 963.5 3.61627 -5.10859 0
M  V30 10132 H 963.733 1.03059 -2.78866 0
M  V30 10133 H 961.266 0.422233 -1.48514 0
M  V30 10134 H 963.224 3.45866 -2.21104 0
M  V30 10135 H 961.885 2.91131 -1.17905 0
M  V30 10136 H 961.078 3.69526 -3.42734 0
M  V30 10137 H 960.68 1.98028 -3.17271 0
M  V30 10138 H 962.972 4.57328 -4.99857 0
M  V30 10139 H 963.915 3.54906 -6.12737 0
M  V30 10140 H 964.323 3.55391 -4.38586 0
M  V30 10141 N 963.721 1.49897 0.486681 0
M  V30 10142 C 964.669 1.68125 1.60738 0
M  V30 10143 C 965.663 0.547097 1.60322 0
M  V30 10144 O 966.869 0.727153 1.64659 0
M  V30 10145 H 963.244 0.530391 0.533094 0
M  V30 10146 H 965.215 2.62165 1.42521 0
M  V30 10147 C 963.964 1.77827 2.98786 0
M  V30 10148 H 963.287 2.6448 2.99818 0
M  V30 10149 H 964.727 1.94611 3.76699 0
M  V30 10150 C 963.186 0.526287 3.32764 0
M  V30 10151 O 963.716 -0.341607 4.00245 0
M  V30 10152 N 961.922 0.384947 2.88039 0
M  V30 10153 H 961.469 1.09222 2.33299 0
M  V30 10154 H 961.427 -0.451618 3.11139 0
M  V30 10155 N 965.199 -0.738761 1.39212 0
M  V30 10156 C 966.615 -1.04381 1.20734 0
M  V30 10157 C 966.815 -2.01391 0.0663082 0
M  V30 10158 O 965.871 -2.45672 -0.583229 0
M  V30 10159 C 967.184 -1.6097 2.53987 0
M  V30 10160 C 968.732 -1.73069 2.60799 0
M  V30 10161 C 969.207 -2.33067 3.94264 0
M  V30 10162 N 970.698 -2.40481 3.95883 0
M  V30 10163 C 971.433 -2.87834 4.95923 0
M  V30 10164 N 970.929 -3.35111 6.0636 0
M  V30 10165 N 972.722 -2.87009 4.83304 0
M  V30 10166 H 964.873 -0.0952996 2.12186 0
M  V30 10167 H 967.136 -0.104902 0.942178 0
M  V30 10168 H 966.842 -0.971548 3.38015 0
M  V30 10169 H 966.716 -2.59829 2.73439 0
M  V30 10170 H 969.103 -2.36007 1.77157 0
M  V30 10171 H 969.184 -0.728728 2.452 0
M  V30 10172 H 968.828 -1.70758 4.78335 0
M  V30 10173 H 968.758 -3.33933 4.07181 0
M  V30 10174 H 971.249 -2.07061 3.16123 0
M  V30 10175 H 971.562 -3.69742 6.78609 0
M  V30 10176 H 969.907 -3.33129 6.09959 0
M  V30 10177 H 973.098 -2.49395 3.96131 0
M  V30 10178 H 973.271 -3.23598 5.61416 0
M  V30 10179 N 966.677 -1.24326 -0.968545 0
M  V30 10180 C 967.609 -0.992749 -2.06584 0
M  V30 10181 C 968.622 0.0374902 -1.62757 0
M  V30 10182 O 969.811 -0.199448 -1.77382 0
M  V30 10183 C 966.911 -0.476165 -3.35538 0
M  V30 10184 C 966.084 -1.56934 -4.08277 0
M  V30 10185 C 965.143 -1.05555 -5.15504 0
M  V30 10186 O 964.169 -1.74707 -5.41725 0
M  V30 10187 N 965.371 0.110465 -5.80395 0
M  V30 10188 H 968.136 -1.93752 -2.28649 0
M  V30 10189 H 965.697 -1.15344 -1.13611 0
M  V30 10190 H 967.689 -0.117223 -4.0453 0
M  V30 10191 H 966.259 0.374315 -3.10351 0
M  V30 10192 H 965.479 -2.10051 -3.33575 0
M  V30 10193 H 966.767 -2.30415 -4.53637 0
M  V30 10194 H 966.165 0.688614 -5.61493 0
M  V30 10195 H 964.722 0.41056 -6.50506 0
M  V30 10196 N 968.156 1.1691 -1.05688 0
M  V30 10197 C 969.396 1.88972 -0.779044 0
M  V30 10198 C 969.76 1.7949 0.681708 0
M  V30 10199 O 970.961 2.46418 1.07386 0
M  V30 10200 C 969.232 3.34737 -1.25242 0
M  V30 10201 S 970.791 4.24718 -1.10272 0
M  V30 10202 H 967.609 0.652349 -0.282776 0
M  V30 10203 H 970.211 1.41162 -1.35254 0
M  V30 10204 H 968.915 3.39175 -2.3106 0
M  V30 10205 H 968.446 3.87593 -0.673417 0
M  V30 10206 H 970.461 4.96191 -0.0299004 0
M  V30 10207 N 969.634 0.838594 1.33437 0
M  V30 10208 C 970.859 0.446701 2.02532 0
M  V30 10209 C 971.284 -0.944275 1.62681 0
M  V30 10210 O 970.642 -1.61733 0.81927 0
M  V30 10211 C 970.69 0.574794 3.55989 0
M  V30 10212 O 969.794 -0.399063 4.10465 0
M  V30 10213 H 969.135 0.181637 0.638674 0
M  V30 10214 H 971.665 1.13335 1.70342 0
M  V30 10215 H 971.675 0.456339 4.0544 0
M  V30 10216 H 970.35 1.58921 3.8434 0
M  V30 10217 H 968.927 -0.238187 3.72139 0
M  V30 10218 N 971.112 -1.45937 0.595003 0
M  V30 10219 C 972.062 -2.27491 -0.152331 0
M  V30 10220 C 973.046 -1.36591 -0.850396 0
M  V30 10221 O 974.238 -1.60675 -0.742462 0
M  V30 10222 C 971.367 -3.23203 -1.15735 0
M  V30 10223 C 970.453 -4.2159 -0.46077 0
M  V30 10224 N 970.844 -5.03416 0.490555 0
M  V30 10225 C 969.142 -4.40313 -0.709949 0
M  V30 10226 C 969.843 -5.74714 0.898825 0
M  V30 10227 N 968.819 -5.43046 0.24529 0
M  V30 10228 H 972.621 -2.8815 0.578526 0
M  V30 10229 H 970.135 -1.56936 0.417716 0
M  V30 10230 H 972.132 -3.8035 -1.70704 0
M  V30 10231 H 970.792 -2.64104 -1.8889 0
M  V30 10232 H 971.803 -5.10597 0.866692 0
M  V30 10233 H 968.48 -3.92351 -1.42713 0
M  V30 10234 H 969.87 -6.50487 1.68273 0
M  V30 10235 N 972.59 -0.333456 -1.54032 0
M  V30 10236 C 974.001 0.15256 -1.86076 0
M  V30 10237 C 974.352 1.50819 -1.25492 0
M  V30 10238 O 973.477 2.08903 -0.564665 0
M  V30 10239 C 974.072 0.283599 -3.37611 0
M  V30 10240 C 972.631 0.713841 -3.69569 0
M  V30 10241 C 971.778 -0.158515 -2.76847 0
M  V30 10242 H 974.729 -0.553404 -1.48738 0
M  V30 10243 H 974.75 1.11284 -3.63863 0
M  V30 10244 H 974.262 -0.703193 -3.81676 0
M  V30 10245 H 972.363 1.71002 -3.31042 0
M  V30 10246 H 972.476 0.510731 -4.7637 0
M  V30 10247 H 970.84 0.367531 -2.52034 0
M  V30 10248 H 971.623 -1.14226 -3.2374 0
M  V30 10249 N 974.068 1.57479 -0.061844 0
M  V30 10250 C 975.314 1.93395 0.610443 0
M  V30 10251 C 975.647 0.941334 1.6986 0
M  V30 10252 O 974.922 -0.0310262 1.94475 0
M  V30 10253 C 975.205 3.39636 1.19664 0
M  V30 10254 C 975.058 4.49651 0.115805 0
M  V30 10255 C 976.377 3.86488 2.10512 0
M  V30 10256 H 973.496 0.703262 0.220436 0
M  V30 10257 H 976.138 1.89583 -0.125785 0
M  V30 10258 H 974.288 3.43015 1.82409 0
M  V30 10259 H 975.96 4.58397 -0.516728 0
M  V30 10260 H 974.203 4.30237 -0.55483 0
M  V30 10261 H 974.874 5.49089 0.566176 0
M  V30 10262 H 977.35 3.85052 1.57715 0
M  V30 10263 H 976.226 4.89444 2.48466 0
M  V30 10264 H 976.487 3.23856 3.00948 0
M  V30 10265 N 975.546 -0.211634 1.56173 0
M  V30 10266 C 976.509 -1.24588 1.92381 0
M  V30 10267 C 977.509 -1.39297 0.803311 0
M  V30 10268 O 978.699 -1.37392 1.07094 0
M  V30 10269 C 975.831 -2.61807 2.18335 0
M  V30 10270 H 977.024 -0.936814 2.84893 0
M  V30 10271 H 974.577 -0.452471 1.49607 0
M  V30 10272 H 975.312 -2.97795 1.28407 0
M  V30 10273 H 975.097 -2.52506 2.99972 0
M  V30 10274 H 976.587 -3.3642 2.4741 0
M  V30 10275 N 977.024 -1.50153 -0.478725 0
M  V30 10276 C 977.956 -1.64603 -1.59494 0
M  V30 10277 C 978.969 -0.527789 -1.54007 0
M  V30 10278 O 980.158 -0.80069 -1.59534 0
M  V30 10279 C 977.258 -1.60738 -2.98356 0
M  V30 10280 C 976.431 -2.88468 -3.28794 0
M  V30 10281 C 975.49 -2.77349 -4.47173 0
M  V30 10282 O 974.516 -3.51302 -4.47857 0
M  V30 10283 N 975.718 -1.9039 -5.4839 0
M  V30 10284 H 978.483 -2.6088 -1.47518 0
M  V30 10285 H 976.044 -1.47521 -0.667011 0
M  V30 10286 H 978.036 -1.50923 -3.75505 0
M  V30 10287 H 976.606 -0.722273 -3.04141 0
M  V30 10288 H 975.826 -3.12467 -2.40329 0
M  V30 10289 H 977.114 -3.73102 -3.45937 0
M  V30 10290 H 976.512 -1.29606 -5.50653 0
M  V30 10291 H 975.069 -1.86484 -6.24553 0
M  V30 10292 N 978.502 0.731368 -1.39602 0
M  V30 10293 C 979.432 1.85855 -1.41351 0
M  V30 10294 C 980.413 1.67839 -0.2764 0
M  V30 10295 O 981.598 1.88104 -0.482747 0
M  V30 10296 C 978.728 3.23644 -1.25983 0
M  V30 10297 C 977.682 3.56304 -2.37132 0
M  V30 10298 C 977.008 4.93069 -2.0685 0
M  V30 10299 C 978.308 3.58906 -3.79452 0
M  V30 10300 H 980.002 1.84648 -2.3568 0
M  V30 10301 H 977.548 0.886955 -1.13442 0
M  V30 10302 H 979.501 4.02176 -1.25826 0
M  V30 10303 H 978.225 3.25387 -0.281234 0
M  V30 10304 H 976.884 2.80104 -2.36511 0
M  V30 10305 H 976.532 4.91396 -1.0742 0
M  V30 10306 H 976.232 5.15888 -2.81306 0
M  V30 10307 H 977.756 5.73953 -2.0835 0
M  V30 10308 H 979.17 4.27508 -3.81982 0
M  V30 10309 H 977.567 3.93246 -4.53297 0
M  V30 10310 H 978.637 2.58631 -4.10168 0
M  V30 10311 N 979.98 1.24838 0.961938 0
M  V30 10312 C 981.391 1.08369 1.5203 0
M  V30 10313 C 981.742 -0.343005 1.93178 0
M  V30 10314 O 980.867 -1.2321 1.779 0
M  V30 10315 C 981.462 1.96102 2.76278 0
M  V30 10316 C 980.021 1.8384 3.28451 0
M  V30 10317 C 979.168 1.9069 2.01327 0
M  V30 10318 H 982.119 1.38231 0.779613 0
M  V30 10319 H 982.14 1.4967 3.49827 0
M  V30 10320 H 981.652 2.99931 2.46298 0
M  V30 10321 H 979.753 0.828653 3.63269 0
M  V30 10322 H 979.866 2.68251 3.96961 0
M  V30 10323 H 978.23 1.34488 2.16299 0
M  V30 10324 H 979.013 2.96111 1.73705 0
M  V30 10325 N 981.458 -1.16348 1.06306 0
M  V30 10326 C 982.368 -2.24375 0.685059 0
M  V30 10327 C 983.384 -1.71413 -0.298956 0
M  V30 10328 O 984.56 -2.00854 -0.148239 0
M  V30 10329 C 981.625 -3.46614 0.0774088 0
M  V30 10330 C 980.686 -4.14613 1.11331 0
M  V30 10331 C 979.919 -5.31016 0.534559 0
M  V30 10332 O 980.142 -5.66654 -0.65265 0
M  V30 10333 O 979.076 -5.88256 1.27431 0
M  V30 10334 H 982.902 -2.59018 1.58566 0
M  V30 10335 H 980.487 -1.23865 0.835332 0
M  V30 10336 H 982.369 -4.20599 -0.259716 0
M  V30 10337 H 981.044 -3.13743 -0.796677 0
M  V30 10338 H 979.951 -3.42597 1.50261 0
M  V30 10339 H 981.284 -4.51538 1.95893 0
M  V30 10340 N 982.937 -0.845659 -1.3299 0
M  V30 10341 C 984.184 -0.444653 -1.97558 0
M  V30 10342 C 984.512 0.997682 -1.66963 0
M  V30 10343 O 983.767 1.71349 -0.94541 0
M  V30 10344 C 984.066 -0.6201 -3.51979 0
M  V30 10345 C 983.732 -2.03155 -4.02541 0
M  V30 10346 C 982.394 -2.4176 -4.16059 0
M  V30 10347 C 984.746 -2.95317 -4.29462 0
M  V30 10348 C 982.074 -3.71818 -4.53837 0
M  V30 10349 C 984.426 -4.24863 -4.68694 0
M  V30 10350 C 983.09 -4.63416 -4.80419 0
M  V30 10351 H 982.36 -0.16271 -0.722915 0
M  V30 10352 H 985.007 -1.07399 -1.58549 0
M  V30 10353 H 983.312 0.092513 -3.91691 0
M  V30 10354 H 985.009 -0.290012 -3.9995 0
M  V30 10355 H 981.599 -1.72174 -3.92497 0
M  V30 10356 H 985.783 -2.66726 -4.18534 0
M  V30 10357 H 981.039 -4.01484 -4.61108 0
M  V30 10358 H 985.213 -4.96347 -4.8848 0
M  V30 10359 H 982.84 -5.6424 -5.09448 0
M  V30 10360 N 984.415 1.45619 -0.602734 0
M  V30 10361 C 985.643 2.06647 -0.102253 0
M  V30 10362 C 986.058 1.4482 1.21131 0
M  V30 10363 O 985.415 0.560621 1.73676 0
M  V30 10364 C 985.466 3.61467 0.0490113 0
M  V30 10365 O 985.187 4.20985 -1.21257 0
M  V30 10366 C 986.688 4.39469 0.581517 0
M  V30 10367 H 983.908 0.667685 -0.0666155 0
M  V30 10368 H 986.452 1.86939 -0.829091 0
M  V30 10369 H 984.607 3.80534 0.726153 0
M  V30 10370 H 985.021 5.14103 -1.03915 0
M  V30 10371 H 986.495 5.48318 0.636462 0
M  V30 10372 H 986.972 4.0891 1.60277 0
M  V30 10373 H 987.578 4.25256 -0.061419 0
M  V30 10374 N 985.893 0.34162 1.53853 0
M  V30 10375 C 986.803 -0.524555 2.2866 0
M  V30 10376 C 987.819 -1.1136 1.33697 0
M  V30 10377 O 988.995 -1.1297 1.66732 0
M  V30 10378 C 986.06 -1.66065 3.04341 0
M  V30 10379 C 985.121 -1.10158 4.14926 0
M  V30 10380 C 984.354 -2.18353 4.86988 0
M  V30 10381 O 984.577 -3.39038 4.58704 0
M  V30 10382 O 983.511 -1.82756 5.73484 0
M  V30 10383 H 987.337 0.0835014 3.03585 0
M  V30 10384 H 984.922 0.106727 1.49018 0
M  V30 10385 H 986.804 -2.3217 3.51674 0
M  V30 10386 H 985.479 -2.25456 2.32275 0
M  V30 10387 H 984.386 -0.405109 3.719 0
M  V30 10388 H 985.719 -0.552567 4.89088 0
M  V30 10389 N 987.371 -1.57444 0.0701946 0
M  V30 10390 C 988.334 -2.11511 -0.882923 0
M  V30 10391 C 989.334 -1.03879 -1.22743 0
M  V30 10392 O 990.524 -1.29874 -1.16097 0
M  V30 10393 C 987.656 -2.61514 -2.18686 0
M  V30 10394 H 988.849 -2.9703 -0.413873 0
M  V30 10395 H 986.402 -1.55278 -0.178488 0
M  V30 10396 H 987.137 -1.79443 -2.70131 0
M  V30 10397 H 986.922 -3.40185 -1.94978 0
M  V30 10398 H 988.412 -3.03425 -2.86919 0
M  V30 10399 N 988.849 0.203349 -1.56283 0
M  V30 10400 C 989.759 1.27266 -1.9708 0
M  V30 10401 C 990.775 1.50268 -0.877236 0
M  V30 10402 O 991.951 1.63044 -1.18231 0
M  V30 10403 C 989.016 2.59871 -2.29495 0
M  V30 10404 C 988.077 2.45012 -3.52516 0
M  V30 10405 C 987.31 3.71293 -3.83376 0
M  V30 10406 O 987.533 4.75106 -3.15643 0
M  V30 10407 O 986.467 3.67316 -4.76826 0
M  V30 10408 H 990.293 0.956461 -2.88246 0
M  V30 10409 H 987.878 0.407688 -1.4373 0
M  V30 10410 H 989.76 3.38152 -2.51458 0
M  V30 10411 H 988.435 2.91135 -1.415 0
M  V30 10412 H 987.342 1.6487 -3.35811 0
M  V30 10413 H 988.675 2.18683 -4.40952 0
M  V30 10414 N 990.327 1.50405 0.470755 0
M  V30 10415 C 991.274 1.69293 1.56871 0
M  V30 10416 C 992.244 0.534248 1.57274 0
M  V30 10417 O 993.429 0.764855 1.74799 0
M  V30 10418 C 990.569 1.79338 2.94842 0
M  V30 10419 C 989.682 3.06709 3.04226 0
M  V30 10420 C 988.817 3.07548 4.33114 0
M  V30 10421 C 987.856 4.29372 4.36241 0
M  V30 10422 N 986.993 4.27949 5.56601 0
M  V30 10423 H 991.833 2.63029 1.40071 0
M  V30 10424 H 989.37 1.30386 0.681016 0
M  V30 10425 H 991.328 1.83143 3.74853 0
M  V30 10426 H 989.958 0.890411 3.10277 0
M  V30 10427 H 989.01 3.12374 2.17086 0
M  V30 10428 H 990.322 3.96684 3.02396 0
M  V30 10429 H 989.476 3.10084 5.21472 0
M  V30 10430 H 988.215 2.15404 4.37553 0
M  V30 10431 H 987.22 4.27048 3.4628 0
M  V30 10432 H 988.445 5.22743 4.33493 0
M  V30 10433 H 986.391 3.38658 5.61824 0
M  V30 10434 H 986.308 5.11692 5.56513 0
M  V30 10435 H 987.576 4.34631 6.47083 0
M  V30 10436 N 991.805 -0.723954 1.39988 0
M  V30 10437 C 992.737 -1.84859 1.35498 0
M  V30 10438 C 993.75 -1.60681 0.261812 0
M  V30 10439 O 994.939 -1.7071 0.521566 0
M  V30 10440 C 992.039 -3.21103 1.08381 0
M  V30 10441 C 991.212 -3.72546 2.2919 0
M  V30 10442 C 990.271 -4.8738 1.9836 0
M  V30 10443 O 989.297 -5.00467 2.71149 0
M  V30 10444 N 990.499 -5.72566 0.956461 0
M  V30 10445 H 993.264 -1.89212 2.3242 0
M  V30 10446 H 990.825 -0.905152 1.34233 0
M  V30 10447 H 992.817 -3.9551 0.857564 0
M  V30 10448 H 991.387 -3.1195 0.201549 0
M  V30 10449 H 990.607 -2.89365 2.67697 0
M  V30 10450 H 991.895 -4.03652 3.09746 0
M  V30 10451 H 991.293 -5.64595 0.353444 0
M  V30 10452 H 989.85 -6.46993 0.790118 0
M  V30 10453 N 993.283 -1.25346 -0.955304 0
M  V30 10454 C 994.213 -1.08152 -2.06943 0
M  V30 10455 C 995.194 0.00922598 -1.70097 0
M  V30 10456 O 996.379 -0.160181 -1.93538 0
M  V30 10457 C 993.509 -0.698745 -3.40198 0
M  V30 10458 C 992.463 -1.73965 -3.9105 0
M  V30 10459 C 991.789 -1.21158 -5.20792 0
M  V30 10460 C 993.089 -3.13829 -4.17503 0
M  V30 10461 H 994.783 -2.01345 -2.21586 0
M  V30 10462 H 992.329 -0.969459 -1.06478 0
M  V30 10463 H 994.282 -0.565394 -4.1759 0
M  V30 10464 H 993.006 0.268892 -3.25491 0
M  V30 10465 H 991.665 -1.86143 -3.15827 0
M  V30 10466 H 991.313 -0.234193 -5.02455 0
M  V30 10467 H 991.013 -1.90728 -5.55785 0
M  V30 10468 H 992.537 -1.09061 -6.00781 0
M  V30 10469 H 993.951 -3.04809 -4.85556 0
M  V30 10470 H 992.348 -3.80863 -4.63749 0
M  V30 10471 H 993.418 -3.6094 -3.23806 0
M  V30 10472 N 994.761 1.15782 -1.06922 0
M  V30 10473 C 995.691 2.22538 -0.707045 0
M  V30 10474 C 996.672 1.67371 0.303471 0
M  V30 10475 O 997.857 1.9339 0.177189 0
M  V30 10476 C 994.987 3.47158 -0.0994269 0
M  V30 10477 C 993.941 4.15257 -1.03661 0
M  V30 10478 C 993.267 5.33902 -0.291974 0
M  V30 10479 C 994.567 4.65516 -2.36837 0
M  V30 10480 H 996.261 2.53089 -1.59958 0
M  V30 10481 H 993.807 1.21649 -0.770552 0
M  V30 10482 H 995.76 4.21073 0.165852 0
M  V30 10483 H 994.484 3.15926 0.828155 0
M  V30 10484 H 993.143 3.43276 -1.28674 0
M  V30 10485 H 992.791 4.98926 0.638928 0
M  V30 10486 H 992.491 5.80407 -0.916613 0
M  V30 10487 H 994.015 6.1059 -0.0343915 0
M  V30 10488 H 995.429 5.30981 -2.16175 0
M  V30 10489 H 993.826 5.22666 -2.94856 0
M  V30 10490 H 994.896 3.81387 -2.99453 0
M  V30 10491 N 996.239 0.8527 1.3254 0
M  V30 10492 C 997.186 0.293905 2.28921 0
M  V30 10493 C 998.156 -0.598027 1.54961 0
M  V30 10494 O 999.341 -0.533355 1.83194 0
M  V30 10495 C 996.481 -0.513361 3.4126 0
M  V30 10496 C 995.594 0.404144 4.30105 0
M  V30 10497 C 994.729 -0.415564 5.29572 0
M  V30 10498 C 993.768 0.499461 6.10059 0
M  V30 10499 N 992.905 -0.282949 7.0153 0
M  V30 10500 H 997.745 1.12107 2.76109 0
M  V30 10501 H 995.282 0.564272 1.35847 0
M  V30 10502 H 997.24 -0.997008 4.05112 0
M  V30 10503 H 995.87 -1.30537 2.95229 0
M  V30 10504 H 994.922 1.00617 3.66852 0
M  V30 10505 H 996.234 1.10648 4.86373 0
M  V30 10506 H 995.388 -0.962458 5.99017 0
M  V30 10507 H 994.127 -1.15127 4.73917 0
M  V30 10508 H 993.132 1.05825 5.39519 0
M  V30 10509 H 994.357 1.23375 6.67799 0
M  V30 10510 H 992.303 -1.00179 6.48306 0
M  V30 10511 H 992.22 0.36039 7.55141 0
M  V30 10512 H 993.488 -0.811632 7.75263 0
M  V30 10513 N 997.718 -1.45297 0.610449 0
M  V30 10514 C 998.966 -2.01819 0.106548 0
M  V30 10515 C 999.287 -1.48102 -1.26849 0
M  V30 10516 O 998.557 -0.676411 -1.83852 0
M  V30 10517 H 997.137 -0.746113 0.0363982 0
M  V30 10518 H 999.799 -1.78061 0.792491 0
M  V30 10519 H 998.895 -3.12045 0.0585 0
M  V30 10520 N 999.196 -0.349774 -1.5367 0
M  V30 10521 C 1000.42 0.248692 -2.05904 0
M  V30 10522 C 1000.85 1.42942 -1.22267 0
M  V30 10523 O 1000.2 1.79732 -0.237899 0
M  V30 10524 C 1000.25 0.635639 -3.54953 0
M  V30 10525 O 999.356 1.7349 -3.74132 0
M  V30 10526 H 998.697 0.0399477 -0.662797 0
M  V30 10527 H 1001.23 -0.505795 -1.9825 0
M  V30 10528 H 1001.24 0.911064 -3.97698 0
M  V30 10529 H 999.912 -0.227805 -4.15276 0
M  V30 10530 H 998.489 1.45626 -3.43289 0
M  V30 10531 N 1000.67 1.57404 -0.0785433 0
M  V30 10532 C 1001.64 2.11977 0.871693 0
M  V30 10533 C 1002.64 1.04529 1.2219 0
M  V30 10534 O 1003.83 1.30488 1.15406 0
M  V30 10535 C 1000.96 2.6267 2.17296 0
M  V30 10536 H 1002.15 2.97246 0.398115 0
M  V30 10537 H 999.705 1.5537 0.170251 0
M  V30 10538 H 1000.44 1.80873 2.69175 0
M  V30 10539 H 1000.22 3.41214 1.93171 0
M  V30 10540 H 1001.71 3.04943 2.85306 0
M  V30 10541 N 1002.15 -0.195058 1.56388 0
M  V30 10542 C 1003.43 -0.941335 1.71459 0
M  V30 10543 C 1003.81 -2.01375 0.633336 0
M  V30 10544 O 1003.16 -2.25715 -0.35567 0
M  V30 10545 C 1003.37 -1.52772 3.13786 0
M  V30 10546 C 1004.71 -2.00983 3.7402 0
M  V30 10547 O 1005.74 -1.62614 3.16915 0
M  V30 10548 O 1004.6 -2.71586 4.7424 0
M  V30 10549 H 1001.69 -0.441451 0.699321 0
M  V30 10550 H 1004.24 -0.184752 1.68691 0
M  V30 10551 H 1003.01 -0.754699 3.83953 0
M  V30 10552 H 1002.63 -2.34914 3.20782 0
M  V30 10553 N 1003.63 -1.50653 -0.462772 0
M  V30 10554 C 1004.88 -1.62057 -1.21424 0
M  V30 10555 C 1005.2 -0.324778 -1.91769 0
M  V30 10556 O 1004.46 0.689828 -1.83139 0
M  V30 10557 C 1004.76 -2.75637 -2.27507 0
M  V30 10558 C 1004.42 -4.15826 -1.74354 0
M  V30 10559 C 1003.09 -4.53969 -1.5958 0
M  V30 10560 C 1005.44 -5.03409 -1.35012 0
M  V30 10561 C 1002.77 -5.77427 -1.03899 0
M  V30 10562 C 1005.12 -6.27422 -0.807704 0
M  V30 10563 C 1003.78 -6.6436 -0.646657 0
M  V30 10564 H 1003.05 -0.59301 -0.44432 0
M  V30 10565 H 1005.7 -1.84612 -0.508999 0
M  V30 10566 H 1004 -2.47203 -3.0397 0
M  V30 10567 H 1005.7 -2.81663 -2.85424 0
M  V30 10568 H 1002.29 -3.85739 -1.86823 0
M  V30 10569 H 1006.48 -4.74567 -1.45258 0
M  V30 10570 H 1001.73 -6.04713 -0.901751 0
M  V30 10571 H 1005.91 -6.94644 -0.494234 0
M  V30 10572 H 1003.53 -7.59901 -0.213053 0
M  V30 10573 N 1005.11 0.71652 -1.4037 0
M  V30 10574 C 1006.04 1.84345 -1.43315 0
M  V30 10575 C 1007.02 1.67537 -0.294186 0
M  V30 10576 O 1008.2 1.87582 -0.502671 0
M  V30 10577 C 1005.33 3.2229 -1.29408 0
M  V30 10578 C 1004.29 3.53769 -2.40897 0
M  V30 10579 C 1003.61 4.90847 -2.12068 0
M  V30 10580 C 1004.91 3.54862 -3.83237 0
M  V30 10581 H 1006.61 1.82138 -2.37626 0
M  V30 10582 H 1004.15 0.874873 -1.14376 0
M  V30 10583 H 1006.11 4.00819 -1.30085 0
M  V30 10584 H 1004.83 3.2507 -0.31573 0
M  V30 10585 H 1003.49 2.77579 -2.39469 0
M  V30 10586 H 1003.14 4.90229 -1.12626 0
M  V30 10587 H 1002.84 5.12875 -2.86762 0
M  V30 10588 H 1004.36 5.71711 -2.14426 0
M  V30 10589 H 1005.78 4.23432 -3.86494 0
M  V30 10590 H 1004.17 3.88416 -4.57442 0
M  V30 10591 H 1005.24 2.54266 -4.12888 0
M  V30 10592 N 1006.59 1.25851 0.948643 0
M  V30 10593 C 1007.83 1.10735 1.69062 0
M  V30 10594 C 1008.16 -0.351257 1.9181 0
M  V30 10595 O 1007.43 -1.24867 1.50947 0
M  V30 10596 H 1006.01 0.406796 0.626519 0
M  V30 10597 H 1008.67 1.58066 1.14022 0
M  V30 10598 H 1007.76 1.62033 2.66743 0
M  V30 10599 N 1008.06 -1.15214 1.07534 0
M  V30 10600 C 1008.99 -2.2216 0.718837 0
M  V30 10601 C 1009.98 -1.6753 -0.29459 0
M  V30 10602 O 1011.16 -1.93481 -0.166931 0
M  V30 10603 C 1008.29 -3.471 0.117836 0
M  V30 10604 C 1007.24 -4.14701 1.05862 0
M  V30 10605 C 1006.57 -5.3374 0.320284 0
M  V30 10606 C 1007.87 -4.64254 2.39302 0
M  V30 10607 H 1009.56 -2.52237 1.61297 0
M  V30 10608 H 1007.11 -1.21239 0.776992 0
M  V30 10609 H 1009.06 -4.21156 -0.143519 0
M  V30 10610 H 1007.79 -3.16361 -0.811389 0
M  V30 10611 H 1006.45 -3.42589 1.30493 0
M  V30 10612 H 1006.09 -4.99257 -0.61246 0
M  V30 10613 H 1005.79 -5.79912 0.947381 0
M  V30 10614 H 1007.32 -6.10563 0.0667721 0
M  V30 10615 H 1008.73 -5.29827 2.18988 0
M  V30 10616 H 1007.13 -5.21095 2.97623 0
M  V30 10617 H 1008.2 -3.79793 3.01472 0
M  V30 10618 N 1009.54 -0.859717 -1.32086 0
M  V30 10619 C 1010.77 -0.478865 -2.01796 0
M  V30 10620 C 1011.19 0.918274 -1.64163 0
M  V30 10621 O 1010.55 1.60409 -0.844896 0
M  V30 10622 C 1010.6 -0.631356 -3.5503 0
M  V30 10623 O 1009.7 0.333712 -4.11048 0
M  V30 10624 H 1009.04 -0.191775 -0.635703 0
M  V30 10625 H 1011.57 -1.16031 -1.68517 0
M  V30 10626 H 1011.58 -0.520783 -4.04663 0
M  V30 10627 H 1010.26 -1.65015 -3.81763 0
M  V30 10628 H 1008.84 0.178953 -3.7247 0
M  V30 10629 N 1011.02 1.44971 -0.618145 0
M  V30 10630 C 1011.97 2.27704 0.116119 0
M  V30 10631 C 1012.95 1.37927 0.828558 0
M  V30 10632 O 1014.15 1.61836 0.716806 0
M  V30 10633 C 1011.28 3.25004 1.10578 0
M  V30 10634 C 1010.36 4.22269 0.39364 0
M  V30 10635 N 1010.75 5.02571 -0.570581 0
M  V30 10636 C 1009.05 4.41387 0.639809 0
M  V30 10637 C 1009.75 5.73211 -0.990144 0
M  V30 10638 N 1008.73 5.42587 -0.331653 0
M  V30 10639 H 1012.53 2.87193 -0.624295 0
M  V30 10640 H 1010.04 1.56252 -0.442631 0
M  V30 10641 H 1012.04 3.83017 1.64631 0
M  V30 10642 H 1010.7 2.67075 1.84664 0
M  V30 10643 H 1011.71 5.09153 -0.947814 0
M  V30 10644 H 1008.39 3.94572 1.36453 0
M  V30 10645 H 1009.78 6.47728 -1.78601 0
M  V30 10646 N 1012.5 0.357919 1.53482 0
M  V30 10647 C 1013.73 -0.234799 2.05261 0
M  V30 10648 C 1014.14 -1.43618 1.23169 0
M  V30 10649 O 1013.48 -1.81801 0.263435 0
M  V30 10650 C 1013.54 -0.699748 3.52624 0
M  V30 10651 C 1013.21 0.383905 4.55385 0
M  V30 10652 C 1014.2 1.23129 5.05109 0
M  V30 10653 C 1011.89 0.541953 4.99368 0
M  V30 10654 C 1013.88 2.22214 5.97411 0
M  V30 10655 C 1011.57 1.53618 5.91477 0
M  V30 10656 C 1012.57 2.37471 6.40388 0
M  V30 10657 O 1012.25 3.35199 7.30682 0
M  V30 10658 H 1011.99 -0.0465364 0.674396 0
M  V30 10659 H 1014.54 0.512355 1.98907 0
M  V30 10660 H 1012.77 -1.49838 3.5649 0
M  V30 10661 H 1014.46 -1.21461 3.87301 0
M  V30 10662 H 1015.23 1.12035 4.71883 0
M  V30 10663 H 1011.1 -0.100929 4.6089 0
M  V30 10664 H 1014.65 2.87702 6.35511 0
M  V30 10665 H 1010.55 1.64763 6.24118 0
M  V30 10666 H 1011.31 3.30838 7.48658 0
M  V30 10667 N 1013.98 -1.5736 0.0868897 0
M  V30 10668 C 1015.2 -1.98388 -0.587349 0
M  V30 10669 C 1015.62 -0.965757 -1.6223 0
M  V30 10670 O 1014.98 0.0456981 -1.82443 0
M  V30 10671 C 1015.03 -3.39479 -1.24242 0
M  V30 10672 O 1014.75 -4.37393 -0.248878 0
M  V30 10673 C 1016.25 -3.95465 -2.00305 0
M  V30 10674 H 1013.47 -0.652111 -0.15809 0
M  V30 10675 H 1016.01 -2.03843 0.163754 0
M  V30 10676 H 1014.17 -3.35063 -1.94451 0
M  V30 10677 H 1014.58 -5.19525 -0.720678 0
M  V30 10678 H 1016.06 -4.96363 -2.41511 0
M  V30 10679 H 1016.53 -3.32832 -2.86565 0
M  V30 10680 H 1017.14 -4.03328 -1.34931 0
M  V30 10681 N 1015.45 0.186762 -1.56489 0
M  V30 10682 C 1016.68 0.925916 -1.85584 0
M  V30 10683 C 1017.1 1.75708 -0.671446 0
M  V30 10684 O 1016.46 1.7728 0.379687 0
M  V30 10685 C 1016.51 1.79107 -3.12975 0
M  V30 10686 O 1015.61 2.89088 -2.94112 0
M  V30 10687 H 1014.96 0.260275 -0.610863 0
M  V30 10688 H 1017.49 0.189561 -2.0372 0
M  V30 10689 H 1017.5 2.19408 -3.43983 0
M  V30 10690 H 1016.17 1.18044 -3.98796 0
M  V30 10691 H 1014.75 2.52482 -2.74422 0
M  V30 10692 N 1016.93 1.50896 0.454776 0
M  V30 10693 C 1018.35 1.38684 0.78987 0
M  V30 10694 C 1018.55 0.455587 1.96282 0
M  V30 10695 O 1017.6 -0.0957503 2.52318 0
M  V30 10696 C 1018.92 2.80381 1.08661 0
M  V30 10697 C 1020.47 2.8941 1.19209 0
M  V30 10698 C 1020.94 4.31976 1.52187 0
M  V30 10699 N 1022.43 4.35002 1.59146 0
M  V30 10700 C 1023.17 5.42326 1.862 0
M  V30 10701 N 1022.66 6.59835 2.11164 0
M  V30 10702 N 1024.46 5.29786 1.87838 0
M  V30 10703 H 1016.61 2.10006 -0.317981 0
M  V30 10704 H 1018.87 0.944636 -0.0797969 0
M  V30 10705 H 1018.58 3.50438 0.297626 0
M  V30 10706 H 1018.45 3.18634 2.01872 0
M  V30 10707 H 1020.84 2.19561 1.97173 0
M  V30 10708 H 1020.92 2.54677 0.239401 0
M  V30 10709 H 1020.56 5.02368 0.747576 0
M  V30 10710 H 1020.49 4.64208 2.48633 0
M  V30 10711 H 1022.98 3.50276 1.41828 0
M  V30 10712 H 1023.3 7.37428 2.31128 0
M  V30 10713 H 1021.64 6.62981 2.08522 0
M  V30 10714 H 1024.83 4.36974 1.67843 0
M  V30 10715 H 1025 6.13511 2.08585 0
M  V30 10716 N 1018.41 -0.709066 1.40748 0
M  V30 10717 C 1019.34 -1.83583 1.4429 0
M  V30 10718 C 1020.32 -1.67378 0.303067 0
M  V30 10719 O 1021.51 -1.87312 0.512612 0
M  V30 10720 C 1018.64 -3.21599 1.31116 0
M  V30 10721 C 1017.59 -3.52486 2.4277 0
M  V30 10722 C 1016.92 -4.89716 2.14668 0
M  V30 10723 C 1018.22 -3.52824 3.85113 0
M  V30 10724 H 1019.91 -1.80876 2.38588 0
M  V30 10725 H 1017.46 -0.868795 1.14839 0
M  V30 10726 H 1019.41 -4.00123 1.32209 0
M  V30 10727 H 1018.13 -3.24898 0.332965 0
M  V30 10728 H 1016.79 -2.76305 2.40937 0
M  V30 10729 H 1016.44 -4.89625 1.15224 0
M  V30 10730 H 1016.14 -5.11347 2.89478 0
M  V30 10731 H 1017.66 -5.70566 2.17455 0
M  V30 10732 H 1019.08 -4.21377 3.88734 0
M  V30 10733 H 1017.48 -3.85984 4.59496 0
M  V30 10734 H 1018.55 -2.52073 4.14231 0
M  V30 10735 N 1019.89 -1.26353 -0.941956 0
M  V30 10736 C 1021.14 -1.11241 -1.68251 0
M  V30 10737 C 1021.45 0.344055 -1.9255 0
M  V30 10738 O 1022.66 0.615832 -2.64423 0
M  V30 10739 C 1021.11 -1.94269 -3.02965 0
M  V30 10740 C 1020.72 -3.44485 -2.86415 0
M  V30 10741 C 1022.47 -1.87764 -3.80716 0
M  V30 10742 C 1020.37 -4.19763 -4.16597 0
M  V30 10743 H 1019.3 -0.412694 -0.63103 0
M  V30 10744 H 1021.95 -1.50656 -1.04762 0
M  V30 10745 H 1020.34 -1.47687 -3.6743 0
M  V30 10746 H 1021.51 -3.9883 -2.30805 0
M  V30 10747 H 1019.82 -3.52218 -2.22107 0
M  V30 10748 H 1022.42 -2.41292 -4.77161 0
M  V30 10749 H 1022.76 -0.848195 -4.07568 0
M  V30 10750 H 1023.3 -2.32165 -3.23024 0
M  V30 10751 H 1020.04 -5.23173 -3.9493 0
M  V30 10752 H 1019.56 -3.70198 -4.71925 0
M  V30 10753 H 1021.24 -4.28168 -4.85058 0
M  V30 10754 N 1021.37 1.14642 -1.08144 0
M  V30 10755 C 1022.59 1.90025 -0.830972 0
M  V30 10756 C 1023.02 1.77904 0.610879 0
M  V30 10757 O 1022.38 1.11735 1.42776 0
M  V30 10758 C 1022.42 3.38085 -1.25422 0
M  V30 10759 O 1021.53 4.10412 -0.404486 0
M  V30 10760 H 1020.87 0.591327 -0.302041 0
M  V30 10761 H 1023.4 1.4513 -1.44216 0
M  V30 10762 H 1023.41 3.88894 -1.23391 0
M  V30 10763 H 1022.08 3.46226 -2.30435 0
M  V30 10764 H 1020.66 3.69693 -0.487987 0
M  V30 10765 N 1022.85 0.866709 1.31628 0
M  V30 10766 C 1023.79 0.309128 2.30537 0
M  V30 10767 C 1024.79 -0.574028 1.59378 0
M  V30 10768 O 1025.99 -0.460491 1.7401 0
M  V30 10769 H 1022.37 0.081279 0.747595 0
M  V30 10770 H 1024.34 1.15734 2.75042 0
M  V30 10771 C 1023.09 -0.477287 3.44409 0
M  V30 10772 H 1022.41 0.19301 3.99334 0
M  V30 10773 H 1023.85 -0.832818 4.1574 0
M  V30 10774 C 1022.31 -1.66727 2.92752 0
M  V30 10775 O 1022.84 -2.76654 2.91248 0
M  V30 10776 N 1021.05 -1.49833 2.48995 0
M  V30 10777 H 1020.59 -0.604073 2.50417 0
M  V30 10778 H 1020.55 -2.29594 2.14788 0
M  V30 10779 N 1024.32 -1.44642 0.625825 0
M  V30 10780 C 1025.29 -2.29085 -0.072526 0
M  V30 10781 C 1026.29 -1.40755 -0.777467 0
M  V30 10782 O 1027.48 -1.62684 -0.622861 0
M  V30 10783 C 1024.61 -3.22212 -1.1132 0
M  V30 10784 H 1025.8 -2.92317 0.670124 0
M  V30 10785 H 1023.35 -1.51466 0.38571 0
M  V30 10786 H 1024.09 -2.63819 -1.88601 0
M  V30 10787 H 1023.87 -3.87299 -0.611709 0
M  V30 10788 H 1025.36 -3.8566 -1.60175 0
M  V30 10789 N 1025.8 -0.366053 -1.5329 0
M  V30 10790 C 1027.21 0.113056 -1.86357 0
M  V30 10791 C 1027.56 1.48123 -1.28662 0
M  V30 10792 O 1026.69 2.07658 -0.608849 0
M  V30 10793 C 1027.28 0.211923 -3.38137 0
M  V30 10794 C 1025.84 0.635289 -3.71 0
M  V30 10795 C 1024.99 -0.217203 -2.76448 0
M  V30 10796 H 1027.94 -0.584829 -1.47531 0
M  V30 10797 H 1027.96 1.0354 -3.66142 0
M  V30 10798 H 1027.47 -0.783994 -3.80099 0
M  V30 10799 H 1025.57 1.63942 -3.34595 0
M  V30 10800 H 1025.69 0.409571 -4.77346 0
M  V30 10801 H 1024.05 0.313988 -2.52757 0
M  V30 10802 H 1024.83 -1.21067 -3.21244 0
M  V30 10803 N 1027.28 1.57312 -0.0952337 0
M  V30 10804 C 1028.21 2.11059 0.893678 0
M  V30 10805 C 1029.22 1.04787 1.24594 0
M  V30 10806 O 1030.41 1.32233 1.19903 0
M  V30 10807 C 1027.51 2.57552 2.20272 0
M  V30 10808 C 1026.69 3.87661 2.02578 0
M  V30 10809 C 1025.75 4.2 3.16996 0
M  V30 10810 O 1024.77 4.89219 2.90953 0
M  V30 10811 N 1025.97 3.75414 4.42769 0
M  V30 10812 H 1028.74 2.96532 0.434632 0
M  V30 10813 H 1026.3 1.6165 0.0898661 0
M  V30 10814 H 1028.29 2.76232 2.95766 0
M  V30 10815 H 1026.86 1.7709 2.576 0
M  V30 10816 H 1026.08 3.78128 1.11413 0
M  V30 10817 H 1027.37 4.7278 1.88032 0
M  V30 10818 H 1026.77 3.1954 4.66809 0
M  V30 10819 H 1025.32 3.99249 5.15212 0
M  V30 10820 N 1028.76 -0.17846 1.56586 0
M  V30 10821 C 1029.71 -1.24042 1.96765 0
M  V30 10822 C 1030.7 -1.46218 0.855375 0
M  V30 10823 O 1031.91 -1.46882 1.04046 0
M  V30 10824 H 1028.28 -0.416807 0.62592 0
M  V30 10825 H 1030.25 -0.874644 2.85294 0
M  V30 10826 C 1029 -2.57394 2.3376 0
M  V30 10827 H 1028.32 -2.41151 3.18883 0
M  V30 10828 H 1029.76 -3.30405 2.65723 0
M  V30 10829 C 1028.22 -3.15621 1.17835 0
M  V30 10830 O 1028.75 -3.99032 0.462202 0
M  V30 10831 N 1026.96 -2.74606 0.950783 0
M  V30 10832 H 1026.51 -2.06878 1.5349 0
M  V30 10833 H 1026.46 -3.13902 0.176967 0
M  V30 10834 N 1030.24 -1.51135 -0.446768 0
M  V30 10835 C 1031.46 -1.67129 -1.21965 0
M  V30 10836 C 1031.88 -0.36467 -1.85245 0
M  V30 10837 O 1031.24 0.655908 -1.70306 0
M  V30 10838 C 1031.29 -2.78016 -2.31061 0
M  V30 10839 O 1031.01 -4.03615 -1.70371 0
M  V30 10840 C 1032.51 -3.05197 -3.21511 0
M  V30 10841 H 1029.73 -0.561111 -0.367961 0
M  V30 10842 H 1032.27 -1.97499 -0.530517 0
M  V30 10843 H 1030.43 -2.50272 -2.95707 0
M  V30 10844 H 1030.84 -4.65126 -2.424 0
M  V30 10845 H 1032.32 -3.8639 -3.94216 0
M  V30 10846 H 1032.79 -2.17228 -3.81718 0
M  V30 10847 H 1033.4 -3.34565 -2.62577 0
M  V30 10848 N 1031.71 0.701592 -1.41122 0
M  V30 10849 C 1032.95 1.4739 -1.41618 0
M  V30 10850 C 1033.32 1.91987 -0.0219443 0
M  V30 10851 O 1034.52 2.6862 0.0982793 0
M  V30 10852 C 1032.79 2.65745 -2.38986 0
M  V30 10853 S 1034.35 3.54968 -2.5796 0
M  V30 10854 H 1031.17 0.503742 -0.501762 0
M  V30 10855 H 1033.77 0.819186 -1.77509 0
M  V30 10856 H 1032.47 2.31176 -3.39096 0
M  V30 10857 H 1032 3.36115 -2.04426 0
M  V30 10858 H 1034.02 4.60724 -1.84249 0
M  V30 10859 N 1033.19 1.2685 0.935242 0
M  V30 10860 C 1034.44 1.12132 1.67658 0
M  V30 10861 C 1034.75 -0.333839 1.9273 0
M  V30 10862 O 1035.96 -0.601801 2.64746 0
M  V30 10863 C 1034.42 1.95873 3.0193 0
M  V30 10864 C 1034.02 3.46 2.84584 0
M  V30 10865 C 1035.77 1.89781 3.79715 0
M  V30 10866 C 1033.67 4.21966 4.14365 0
M  V30 10867 H 1032.6 0.416035 0.628833 0
M  V30 10868 H 1035.26 1.51209 1.03962 0
M  V30 10869 H 1033.64 1.49633 3.66641 0
M  V30 10870 H 1034.81 4.00049 2.28687 0
M  V30 10871 H 1033.13 3.53391 2.20236 0
M  V30 10872 H 1035.72 2.43819 4.75875 0
M  V30 10873 H 1036.07 0.869797 4.07112 0
M  V30 10874 H 1036.6 2.33875 3.21788 0
M  V30 10875 H 1033.34 5.2526 3.9215 0
M  V30 10876 H 1032.86 3.72696 4.69955 0
M  V30 10877 H 1034.54 4.30734 4.82781 0
M  V30 10878 N 1034.67 -1.14067 1.0875 0
M  V30 10879 C 1036.08 -1.66747 0.839778 0
M  V30 10880 C 1036.43 -1.85711 -0.632909 0
M  V30 10881 O 1035.56 -1.57084 -1.48841 0
M  V30 10882 C 1036.15 -3.02896 1.51787 0
M  V30 10883 C 1034.71 -3.52596 1.3173 0
M  V30 10884 C 1033.86 -2.27994 1.57841 0
M  V30 10885 H 1036.81 -0.980838 1.24761 0
M  V30 10886 H 1036.83 -3.68526 0.947057 0
M  V30 10887 H 1036.34 -2.89062 2.58969 0
M  V30 10888 H 1034.44 -3.71647 0.266339 0
M  V30 10889 H 1034.56 -4.33151 2.04736 0
M  V30 10890 H 1032.92 -2.34241 1.00015 0
M  V30 10891 H 1033.7 -2.16732 2.66237 0
M  V30 10892 N 1036.15 -0.873678 -1.31166 0
M  V30 10893 C 1037.37 -0.500242 -2.01277 0
M  V30 10894 C 1037.8 0.900811 -1.65127 0
M  V30 10895 O 1037.16 1.59504 -0.861862 0
M  V30 10896 C 1037.2 -0.668976 -3.5434 0
M  V30 10897 O 1036.31 0.290096 -4.11378 0
M  V30 10898 H 1035.65 -0.198507 -0.633633 0
M  V30 10899 H 1038.18 -1.17811 -1.67277 0
M  V30 10900 H 1038.19 -0.563673 -4.04088 0
M  V30 10901 H 1036.86 -1.69055 -3.79991 0
M  V30 10902 H 1035.44 0.139437 -3.72639 0
M  V30 10903 N 1037.63 1.44308 -0.633487 0
M  V30 10904 C 1038.86 2.06085 -0.145852 0
M  V30 10905 C 1039.26 1.47432 1.18577 0
M  V30 10906 O 1038.61 0.592575 1.7388 0
M  V30 10907 C 1038.67 3.59477 0.0407848 0
M  V30 10908 C 1038.33 4.40607 -1.21304 0
M  V30 10909 C 1039.33 4.73937 -2.13728 0
M  V30 10910 C 1037.02 4.80943 -1.44911 0
M  V30 10911 C 1039.01 5.46489 -3.28068 0
M  V30 10912 C 1036.7 5.53243 -2.59548 0
M  V30 10913 C 1037.69 5.85936 -3.50953 0
M  V30 10914 O 1037.38 6.56764 -4.6359 0
M  V30 10915 H 1037.11 0.671484 -0.0780085 0
M  V30 10916 H 1039.67 1.86128 -0.868658 0
M  V30 10917 H 1037.9 3.77933 0.818761 0
M  V30 10918 H 1039.59 4.03013 0.483273 0
M  V30 10919 H 1040.35 4.43311 -1.96725 0
M  V30 10920 H 1036.23 4.54915 -0.746537 0
M  V30 10921 H 1039.78 5.71924 -3.99435 0
M  V30 10922 H 1035.67 5.83285 -2.76493 0
M  V30 10923 H 1036.44 6.75234 -4.62602 0
M  V30 10924 N 1039.1 0.374177 1.53094 0
M  V30 10925 C 1040.38 -0.269632 1.93733 0
M  V30 10926 C 1040.76 -1.6566 1.30843 0
M  V30 10927 O 1040.11 -2.23598 0.470759 0
M  V30 10928 C 1040.32 -0.311204 3.4761 0
M  V30 10929 C 1041.67 -0.547432 4.21056 0
M  V30 10930 O 1042.69 -0.392053 3.54036 0
M  V30 10931 O 1041.55 -0.850645 5.39839 0
M  V30 10932 H 1038.64 -0.163723 0.810632 0
M  V30 10933 H 1041.19 0.427586 1.64225 0
M  V30 10934 H 1039.96 0.660897 3.85678 0
M  V30 10935 H 1039.59 -1.05397 3.83376 0
M  V30 10936 N 1040.58 -1.57259 0.103575 0
M  V30 10937 C 1041.81 -1.99 -0.566275 0
M  V30 10938 C 1042.23 -0.982909 -1.61197 0
M  V30 10939 O 1041.58 0.026345 -1.82481 0
M  V30 10940 C 1041.63 -3.40778 -1.20635 0
M  V30 10941 O 1041.35 -4.37632 -0.202472 0
M  V30 10942 C 1042.86 -3.97567 -1.961 0
M  V30 10943 H 1040.08 -0.653751 -0.151164 0
M  V30 10944 H 1042.62 -2.03658 0.185365 0
M  V30 10945 H 1040.77 -3.37107 -1.90886 0
M  V30 10946 H 1041.19 -5.2026 -0.665535 0
M  V30 10947 H 1042.66 -4.98897 -2.36233 0
M  V30 10948 H 1043.14 -3.35853 -2.83018 0
M  V30 10949 H 1043.75 -4.04737 -1.30645 0
M  V30 10950 N 1042.06 0.170153 -1.56679 0
M  V30 10951 C 1043.31 0.884902 -1.81252 0
M  V30 10952 C 1043.62 1.83361 -0.681024 0
M  V30 10953 O 1044.83 2.59082 -0.811722 0
M  V30 10954 C 1043.28 1.62408 -3.21172 0
M  V30 10955 C 1042.89 0.718947 -4.42194 0
M  V30 10956 C 1044.64 2.32699 -3.55037 0
M  V30 10957 C 1042.54 1.45843 -5.73135 0
M  V30 10958 H 1041.47 0.33418 -0.675899 0
M  V30 10959 H 1044.12 0.137818 -1.82982 0
M  V30 10960 H 1042.51 2.41596 -3.13763 0
M  V30 10961 H 1043.68 -0.0360521 -4.60786 0
M  V30 10962 H 1042 0.125634 -4.1621 0
M  V30 10963 H 1044.59 2.88621 -4.50114 0
M  V30 10964 H 1044.94 3.08092 -2.79974 0
M  V30 10965 H 1045.47 1.60453 -3.64005 0
M  V30 10966 H 1042.21 0.746799 -6.51232 0
M  V30 10967 H 1041.73 2.18672 -5.58518 0
M  V30 10968 H 1043.41 2.0056 -6.1513 0
M  V30 10969 N 1043.54 1.5137 0.438746 0
M  V30 10970 C 1044.79 1.63645 1.18595 0
M  V30 10971 C 1045.11 0.354241 1.91755 0
M  V30 10972 O 1044.38 -0.629838 1.85499 0
M  V30 10973 H 1042.96 0.603103 0.440767 0
M  V30 10974 H 1045.62 1.88293 0.503159 0
M  V30 10975 H 1044.72 2.46342 1.9163 0
M  V30 10976 N 1045.02 -0.694098 1.41492 0
M  V30 10977 C 1046.26 -1.45127 1.4065 0
M  V30 10978 C 1046.59 -1.94993 0.0170289 0
M  V30 10979 O 1045.86 -1.71799 -0.941372 0
M  V30 10980 H 1044.44 -0.538493 0.51772 0
M  V30 10981 H 1047.1 -0.821441 1.76744 0
M  V30 10982 H 1046.19 -2.31372 2.0946 0
M  V30 10983 N 1046.49 -1.27344 -0.928501 0
M  V30 10984 C 1047.74 -1.13635 -1.6761 0
M  V30 10985 C 1048.07 0.317957 -1.91884 0
M  V30 10986 O 1047.32 1.24904 -1.50657 0
M  V30 10987 C 1047.62 -1.86439 -3.04918 0
M  V30 10988 C 1047.29 -3.36298 -3.00358 0
M  V30 10989 C 1045.95 -3.77173 -2.98821 0
M  V30 10990 C 1048.3 -4.31921 -2.91708 0
M  V30 10991 C 1045.63 -5.12037 -2.86417 0
M  V30 10992 C 1047.98 -5.66841 -2.80846 0
M  V30 10993 C 1046.65 -6.07011 -2.77659 0
M  V30 10994 H 1045.92 -0.415821 -0.61333 0
M  V30 10995 H 1048.56 -1.57943 -1.08288 0
M  V30 10996 H 1046.87 -1.34638 -3.6794 0
M  V30 10997 H 1048.57 -1.73261 -3.61637 0
M  V30 10998 H 1045.16 -3.0379 -3.0234 0
M  V30 10999 H 1049.34 -4.01314 -2.91994 0
M  V30 11000 H 1044.6 -5.42307 -2.82336 0
M  V30 11001 H 1048.77 -6.40608 -2.73119 0
M  V30 11002 H 1046.4 -7.11467 -2.67804 0
M  V30 11003 N 1047.97 1.13488 -1.09353 0
M  V30 11004 C 1049.2 1.89133 -0.85108 0
M  V30 11005 C 1049.62 1.78542 0.591976 0
M  V30 11006 O 1048.98 1.13243 1.41583 0
M  V30 11007 C 1049.03 3.36736 -1.29001 0
M  V30 11008 O 1048.13 4.09959 -0.447993 0
M  V30 11009 H 1047.47 0.58809 -0.308296 0
M  V30 11010 H 1050 1.43593 -1.45747 0
M  V30 11011 H 1050.01 3.87564 -1.27508 0
M  V30 11012 H 1048.69 3.43762 -2.34095 0
M  V30 11013 H 1047.27 3.69155 -0.52717 0
M  V30 11014 N 1049.45 0.880621 1.30701 0
M  V30 11015 C 1050.38 0.301443 2.27209 0
M  V30 11016 C 1051.4 -0.541533 1.53529 0
M  V30 11017 O 1052.59 -0.361791 1.74795 0
M  V30 11018 C 1049.69 -0.59038 3.33718 0
M  V30 11019 C 1048.86 0.222549 4.36833 0
M  V30 11020 C 1047.92 -0.599083 5.22779 0
M  V30 11021 O 1046.94 -0.0233267 5.69195 0
M  V30 11022 N 1048.15 -1.90904 5.48211 0
M  V30 11023 H 1050.91 1.13083 2.77547 0
M  V30 11024 H 1048.47 0.743168 1.43835 0
M  V30 11025 H 1050.46 -1.14599 3.88135 0
M  V30 11026 H 1049.03 -1.32044 2.83343 0
M  V30 11027 H 1048.25 0.959606 3.82342 0
M  V30 11028 H 1049.54 0.779965 5.02786 0
M  V30 11029 H 1048.94 -2.3998 5.12275 0
M  V30 11030 H 1047.5 -2.4122 6.05521 0
M  V30 11031 N 1050.93 -1.4397 0.641131 0
M  V30 11032 C 1051.88 -2.2786 -0.079879 0
M  V30 11033 C 1052.86 -1.39227 -0.80651 0
M  V30 11034 O 1054.06 -1.62956 -0.690969 0
M  V30 11035 C 1051.18 -3.26722 -1.05394 0
M  V30 11036 C 1050.27 -4.22842 -0.326411 0
M  V30 11037 N 1050.66 -5.016 0.650464 0
M  V30 11038 C 1048.96 -4.42349 -0.569507 0
M  V30 11039 C 1049.66 -5.71563 1.08121 0
M  V30 11040 N 1048.64 -5.41991 0.417932 0
M  V30 11041 H 1052.44 -2.86163 0.669906 0
M  V30 11042 H 1049.95 -1.55528 0.467433 0
M  V30 11043 H 1051.95 -3.85588 -1.58517 0
M  V30 11044 H 1050.61 -2.69979 -1.80392 0
M  V30 11045 H 1051.62 -5.07581 1.0287 0
M  V30 11046 H 1048.3 -3.96693 -1.30159 0
M  V30 11047 H 1049.69 -6.44805 1.88883 0
M  V30 11048 N 1052.41 -0.382291 -1.52893 0
M  V30 11049 C 1053.65 0.202433 -2.01787 0
M  V30 11050 C 1053.99 1.47044 -1.26853 0
M  V30 11051 O 1053.26 1.91007 -0.366969 0
M  V30 11052 C 1053.54 0.477471 -3.5692 0
M  V30 11053 C 1053.4 -0.805339 -4.42532 0
M  V30 11054 C 1054.72 1.27106 -4.21346 0
M  V30 11055 H 1051.84 0.0720998 -0.733465 0
M  V30 11056 H 1054.48 -0.510478 -1.83014 0
M  V30 11057 H 1052.63 1.08478 -3.73048 0
M  V30 11058 H 1054.3 -1.4424 -4.3817 0
M  V30 11059 H 1052.54 -1.42216 -4.09826 0
M  V30 11060 H 1053.21 -0.567635 -5.49074 0
M  V30 11061 H 1055.69 0.757161 -4.09153 0
M  V30 11062 H 1054.57 1.43225 -5.29885 0
M  V30 11063 H 1054.83 2.28431 -3.78513 0
M  V30 11064 N 1053.89 1.57202 -0.111913 0
M  V30 11065 C 1054.83 2.16186 0.858286 0
M  V30 11066 C 1055.83 1.10917 1.28039 0
M  V30 11067 O 1057.03 1.29233 1.25295 0
M  V30 11068 H 1053.41 0.691777 0.29487 0
M  V30 11069 H 1055.38 2.96499 0.336265 0
M  V30 11070 C 1054.13 2.77024 2.10127 0
M  V30 11071 H 1053.45 3.5772 1.78539 0
M  V30 11072 H 1054.89 3.21841 2.76033 0
M  V30 11073 C 1053.35 1.73752 2.88638 0
M  V30 11074 O 1053.88 1.18659 3.83774 0
M  V30 11075 N 1052.09 1.43855 2.52496 0
M  V30 11076 H 1051.63 1.88846 1.75199 0
M  V30 11077 H 1051.59 0.749985 3.05324 0
M  V30 11078 N 1055.36 -0.161842 1.56767 0
M  V30 11079 C 1056.31 -1.20506 1.93552 0
M  V30 11080 C 1057.3 -1.39317 0.804952 0
M  V30 11081 O 1058.49 -1.41129 1.06825 0
M  V30 11082 C 1055.62 -2.54227 2.30702 0
M  V30 11083 C 1054.7 -2.3907 3.50295 0
M  V30 11084 N 1055.1 -1.93642 4.67265 0
M  V30 11085 C 1053.39 -2.69868 3.55088 0
M  V30 11086 C 1054.09 -1.91175 5.49388 0
M  V30 11087 N 1053.07 -2.33935 4.90689 0
M  V30 11088 H 1056.87 -0.845687 2.8147 0
M  V30 11089 H 1054.39 -0.370034 1.58128 0
M  V30 11090 H 1056.38 -3.29623 2.55254 0
M  V30 11091 H 1055.04 -2.90959 1.44128 0
M  V30 11092 H 1056.05 -1.63834 4.91303 0
M  V30 11093 H 1052.73 -3.10574 2.79016 0
M  V30 11094 H 1054.12 -1.57671 6.53138 0
M  V30 11095 N 1056.84 -1.516 -0.430713 0
M  V30 11096 C 1058.09 -1.6484 -1.18134 0
M  V30 11097 C 1058.42 -0.366725 -1.90706 0
M  V30 11098 O 1057.7 0.63398 -1.83878 0
M  V30 11099 C 1057.98 -2.85617 -2.19306 0
M  V30 11100 C 1057.83 -4.23778 -1.50773 0
M  V30 11101 C 1059.15 -3.01909 -3.20217 0
M  V30 11102 H 1056.27 -0.599907 -0.428113 0
M  V30 11103 H 1058.91 -1.84102 -0.46973 0
M  V30 11104 H 1057.06 -2.69325 -2.79993 0
M  V30 11105 H 1058.73 -4.51752 -0.93371 0
M  V30 11106 H 1056.98 -4.26171 -0.809966 0
M  V30 11107 H 1057.65 -5.04291 -2.24487 0
M  V30 11108 H 1060.12 -3.16956 -2.69589 0
M  V30 11109 H 1059 -3.87968 -3.88293 0
M  V30 11110 H 1059.26 -2.1427 -3.86705 0
M  V30 11111 N 1058.32 0.686584 -1.41858 0
M  V30 11112 C 1059.57 1.44738 -1.42908 0
M  V30 11113 C 1059.92 1.92357 -0.0404705 0
M  V30 11114 O 1059.21 1.67221 0.935287 0
M  V30 11115 C 1059.41 2.66793 -2.37816 0
M  V30 11116 C 1059.24 2.31114 -3.85767 0
M  V30 11117 C 1058.01 2.21043 -4.54388 0
M  V30 11118 C 1060.2 1.93512 -4.76505 0
M  V30 11119 N 1058.19 1.78344 -5.87424 0
M  V30 11120 C 1059.56 1.61642 -5.98558 0
M  V30 11121 C 1061.61 1.80401 -4.64069 0
M  V30 11122 C 1060.32 1.17977 -7.09559 0
M  V30 11123 C 1062.34 1.38141 -5.7504 0
M  V30 11124 C 1061.7 1.07186 -6.96197 0
M  V30 11125 H 1057.8 0.526577 -0.578136 0
M  V30 11126 H 1060.39 0.793483 -1.77797 0
M  V30 11127 H 1058.56 3.29889 -2.05007 0
M  V30 11128 H 1060.29 3.33318 -2.29524 0
M  V30 11129 H 1057.04 2.39731 -4.08443 0
M  V30 11130 H 1057.47 1.59451 -6.57955 0
M  V30 11131 H 1062.11 2.02983 -3.70888 0
M  V30 11132 H 1059.83 0.941397 -8.02598 0
M  V30 11133 H 1063.41 1.28533 -5.67425 0
M  V30 11134 H 1062.29 0.749804 -7.80607 0
M  V30 11135 N 1059.8 1.27835 0.921735 0
M  V30 11136 C 1061.21 1.13151 1.48505 0
M  V30 11137 C 1061.56 -0.281373 1.94172 0
M  V30 11138 O 1060.68 -1.17487 1.8173 0
M  V30 11139 C 1061.28 2.04792 2.69899 0
M  V30 11140 C 1059.84 1.94196 3.22436 0
M  V30 11141 C 1058.99 1.96999 1.95158 0
M  V30 11142 H 1061.94 1.40641 0.735241 0
M  V30 11143 H 1061.96 1.60724 3.44889 0
M  V30 11144 H 1061.47 3.07615 2.36631 0
M  V30 11145 H 1059.57 0.943805 3.60448 0
M  V30 11146 H 1059.68 2.80744 3.88226 0
M  V30 11147 H 1058.05 1.41301 2.11911 0
M  V30 11148 H 1058.83 3.01487 1.64196 0
M  V30 11149 N 1061.28 -1.12907 1.09954 0
M  V30 11150 C 1062.21 -2.18194 0.701701 0
M  V30 11151 C 1063.22 -1.60724 -0.259131 0
M  V30 11152 O 1064.41 -1.78445 -0.0443549 0
M  V30 11153 C 1061.51 -3.38897 0.0140602 0
M  V30 11154 C 1060.68 -4.25867 0.997807 0
M  V30 11155 C 1059.74 -5.25084 0.34257 0
M  V30 11156 O 1058.77 -5.60492 0.991857 0
M  V30 11157 N 1059.97 -5.73464 -0.901058 0
M  V30 11158 H 1062.73 -2.52939 1.60755 0
M  V30 11159 H 1060.3 -1.28281 0.987703 0
M  V30 11160 H 1062.29 -4.02349 -0.435628 0
M  V30 11161 H 1060.86 -3.02345 -0.794118 0
M  V30 11162 H 1060.08 -3.59107 1.6259 0
M  V30 11163 H 1061.37 -4.80825 1.66388 0
M  V30 11164 H 1060.76 -5.46854 -1.44802 0
M  V30 11165 H 1059.32 -6.38827 -1.29398 0
M  V30 11166 N 1062.75 -0.88754 -1.30232 0
M  V30 11167 C 1063.98 -0.522306 -2.00199 0
M  V30 11168 C 1064.4 0.889866 -1.66514 0
M  V30 11169 O 1063.75 1.58558 -0.903639 0
M  V30 11170 C 1063.8 -0.690551 -3.54843 0
M  V30 11171 O 1063.53 -2.04713 -3.8733 0
M  V30 11172 C 1065.03 -0.328649 -4.4208 0
M  V30 11173 H 1062.25 -0.201628 -0.63999 0
M  V30 11174 H 1064.79 -1.19355 -1.66056 0
M  V30 11175 H 1062.95 -0.0666493 -3.87343 0
M  V30 11176 H 1063.36 -2.06762 -4.82027 0
M  V30 11177 H 1064.83 -0.497257 -5.49756 0
M  V30 11178 H 1065.31 0.733502 -4.33032 0
M  V30 11179 H 1065.92 -0.928982 -4.1503 0
M  V30 11180 N 1064.23 1.43628 -0.648757 0
M  V30 11181 C 1065.46 2.06732 -0.166284 0
M  V30 11182 C 1065.88 1.48281 1.15734 0
M  V30 11183 O 1065.24 0.591018 1.71396 0
M  V30 11184 C 1065.29 3.60502 -0.0838732 0
M  V30 11185 O 1064.39 4.01186 0.955185 0
M  V30 11186 H 1063.73 0.657479 -0.0928285 0
M  V30 11187 H 1066.26 1.84208 -0.890421 0
M  V30 11188 H 1066.27 4.07875 0.100923 0
M  V30 11189 H 1064.95 4.02424 -1.05014 0
M  V30 11190 H 1063.53 3.65412 0.743537 0
M  V30 11191 N 1065.71 0.390394 1.52688 0
M  V30 11192 C 1066.94 -0.194013 2.06491 0
M  V30 11193 C 1067.36 -1.3965 1.26014 0
M  V30 11194 O 1066.72 -1.79038 0.285468 0
M  V30 11195 C 1066.77 -0.541306 3.56514 0
M  V30 11196 O 1065.87 -1.63509 3.78601 0
M  V30 11197 H 1065.21 -0.0223608 0.663623 0
M  V30 11198 H 1067.74 0.558179 1.96839 0
M  V30 11199 H 1067.75 -0.805301 3.99974 0
M  V30 11200 H 1066.43 0.337828 4.14526 0
M  V30 11201 H 1065 -1.36473 3.4703 0
M  V30 11202 N 1067.19 -1.57141 0.120249 0
M  V30 11203 C 1068.41 -2.00017 -0.548454 0
M  V30 11204 C 1068.84 -0.999433 -1.59352 0
M  V30 11205 O 1068.2 0.0286978 -1.81277 0
M  V30 11206 C 1068.24 -3.41766 -1.15015 0
M  V30 11207 O 1067.35 -3.44589 -2.26566 0
M  V30 11208 H 1066.69 -0.649739 -0.136875 0
M  V30 11209 H 1069.22 -2.03529 0.209092 0
M  V30 11210 H 1069.23 -3.80001 -1.48537 0
M  V30 11211 H 1067.9 -4.14117 -0.384681 0
M  V30 11212 H 1066.48 -3.18174 -1.94473 0
M  V30 11213 N 1068.67 0.153526 -1.5685 0
M  V30 11214 C 1069.91 0.863728 -1.8415 0
M  V30 11215 C 1070.27 1.79084 -0.703324 0
M  V30 11216 O 1069.56 1.8925 0.299149 0
M  V30 11217 C 1069.75 1.68066 -3.15418 0
M  V30 11218 C 1069.58 0.834145 -4.41896 0
M  V30 11219 C 1068.35 0.502294 -5.02797 0
M  V30 11220 C 1070.55 0.167476 -5.14027 0
M  V30 11221 N 1068.53 -0.3585 -6.12852 0
M  V30 11222 C 1069.9 -0.55373 -6.17522 0
M  V30 11223 C 1071.96 0.0874745 -4.97823 0
M  V30 11224 C 1070.66 -1.34737 -7.06568 0
M  V30 11225 C 1072.69 -0.692888 -5.87327 0
M  V30 11226 C 1072.05 -1.4024 -6.90299 0
M  V30 11227 H 1068.15 0.2941 -0.724589 0
M  V30 11228 H 1070.73 0.129515 -1.94269 0
M  V30 11229 H 1068.9 2.38616 -3.06459 0
M  V30 11230 H 1070.64 2.33353 -3.30649 0
M  V30 11231 H 1067.39 0.836557 -4.66153 0
M  V30 11232 H 1067.82 -0.77973 -6.72495 0
M  V30 11233 H 1072.46 0.621662 -4.18205 0
M  V30 11234 H 1070.18 -1.89284 -7.85619 0
M  V30 11235 H 1073.76 -0.756694 -5.76858 0
M  V30 11236 H 1072.64 -1.99655 -7.58359 0
M  V30 11237 N 1070.14 1.51827 0.422667 0
M  V30 11238 C 1071.39 1.6445 1.16786 0
M  V30 11239 C 1071.71 0.373792 1.91995 0
M  V30 11240 O 1072.91 0.379621 2.68833 0
M  V30 11241 C 1071.37 2.90488 2.12473 0
M  V30 11242 C 1070.98 4.24617 1.42844 0
M  V30 11243 C 1072.72 3.12472 2.87335 0
M  V30 11244 C 1070.63 5.41791 2.371 0
M  V30 11245 H 1069.56 0.612561 0.439641 0
M  V30 11246 H 1072.21 1.78305 0.433534 0
M  V30 11247 H 1070.59 2.703 2.89402 0
M  V30 11248 H 1071.76 4.55239 0.71372 0
M  V30 11249 H 1070.08 4.08628 0.800769 0
M  V30 11250 H 1072.68 3.9719 3.57973 0
M  V30 11251 H 1073.02 2.26148 3.49518 0
M  V30 11252 H 1073.55 3.33069 2.17509 0
M  V30 11253 H 1070.29 6.3042 1.79584 0
M  V30 11254 H 1069.81 5.15526 3.06583 0
M  V30 11255 H 1071.49 5.74329 2.97918 0
M  V30 11256 N 1071.62 -0.679052 1.4222 0
M  V30 11257 C 1073.04 -0.991665 1.25053 0
M  V30 11258 C 1073.24 -2.00928 0.151665 0
M  V30 11259 O 1072.29 -2.47925 -0.478507 0
M  V30 11260 C 1073.61 -1.50053 2.60585 0
M  V30 11261 C 1075.16 -1.61852 2.67905 0
M  V30 11262 C 1075.63 -2.16135 4.03794 0
M  V30 11263 N 1077.12 -2.23474 4.05726 0
M  V30 11264 C 1077.86 -2.66541 5.07685 0
M  V30 11265 N 1077.35 -3.09092 6.20028 0
M  V30 11266 N 1079.15 -2.66252 4.95042 0
M  V30 11267 H 1071.3 -0.00521851 2.12399 0
M  V30 11268 H 1073.56 -0.0648465 0.94578 0
M  V30 11269 H 1073.27 -0.82731 3.41831 0
M  V30 11270 H 1073.14 -2.47998 2.84213 0
M  V30 11271 H 1075.53 -2.28281 1.87008 0
M  V30 11272 H 1075.61 -0.624074 2.4807 0
M  V30 11273 H 1075.25 -1.50316 4.85147 0
M  V30 11274 H 1075.18 -3.16363 4.20978 0
M  V30 11275 H 1077.67 -1.93467 3.24621 0
M  V30 11276 H 1077.99 -3.40627 6.93681 0
M  V30 11277 H 1076.33 -3.06959 6.23539 0
M  V30 11278 H 1079.52 -2.32369 4.06352 0
M  V30 11279 H 1079.69 -2.99496 5.74636 0
M  V30 11280 N 1073.1 -1.28322 -0.914942 0
M  V30 11281 C 1074.35 -1.15578 -1.66642 0
M  V30 11282 C 1074.68 0.295209 -1.91943 0
M  V30 11283 O 1073.95 1.21482 -1.51896 0
M  V30 11284 C 1074.24 -1.9535 -3.02507 0
M  V30 11285 C 1074.09 -3.48504 -2.84367 0
M  V30 11286 C 1075.41 -1.76798 -4.03027 0
M  V30 11287 H 1072.53 -0.421234 -0.604757 0
M  V30 11288 H 1075.17 -1.57625 -1.06087 0
M  V30 11289 H 1073.32 -1.59619 -3.54195 0
M  V30 11290 H 1074.99 -3.94135 -2.39699 0
M  V30 11291 H 1073.24 -3.74198 -2.1945 0
M  V30 11292 H 1073.91 -3.99576 -3.80845 0
M  V30 11293 H 1076.38 -2.07977 -3.60395 0
M  V30 11294 H 1075.26 -2.34987 -4.96057 0
M  V30 11295 H 1075.52 -0.719162 -4.36211 0
M  V30 11296 N 1074.58 1.12322 -1.10551 0
M  V30 11297 C 1075.82 1.8413 -0.849932 0
M  V30 11298 C 1076.16 1.83938 0.622946 0
M  V30 11299 O 1075.43 1.28579 1.45937 0
M  V30 11300 C 1075.72 3.31751 -1.40048 0
M  V30 11301 C 1075.57 3.40391 -2.9403 0
M  V30 11302 C 1076.89 4.27543 -1.04379 0
M  V30 11303 H 1074.01 0.668533 -0.310213 0
M  V30 11304 H 1076.65 1.31766 -1.36886 0
M  V30 11305 H 1074.8 3.76475 -0.959102 0
M  V30 11306 H 1076.47 3.04294 -3.46703 0
M  V30 11307 H 1074.71 2.809 -3.30571 0
M  V30 11308 H 1075.38 4.44252 -3.27635 0
M  V30 11309 H 1077.86 3.90951 -1.42466 0
M  V30 11310 H 1076.74 5.2924 -1.4559 0
M  V30 11311 H 1077 4.42075 0.0466316 0
M  V30 11312 N 1076.06 0.894434 1.2976 0
M  V30 11313 C 1077.47 0.566892 1.77885 0
M  V30 11314 C 1077.82 -0.917289 1.73437 0
M  V30 11315 O 1076.94 -1.71707 1.31703 0
M  V30 11316 C 1077.54 1.02227 3.2301 0
M  V30 11317 C 1076.1 0.745978 3.68934 0
M  V30 11318 C 1075.24 1.19993 2.49994 0
M  V30 11319 H 1078.2 1.0777 1.16496 0
M  V30 11320 H 1078.22 0.355281 3.78838 0
M  V30 11321 H 1077.73 2.1025 3.26215 0
M  V30 11322 H 1075.83 -0.321866 3.71207 0
M  V30 11323 H 1075.94 1.34017 4.59974 0
M  V30 11324 H 1074.31 0.619047 2.47063 0
M  V30 11325 H 1075.09 2.28811 2.55931 0
M  V30 11326 N 1077.53 -1.43282 0.656365 0
M  V30 11327 C 1078.78 -2.02603 0.179905 0
M  V30 11328 C 1079.14 -1.50875 -1.19393 0
M  V30 11329 O 1078.43 -0.6935 -1.78609 0
M  V30 11330 C 1078.62 -3.57148 0.134225 0
M  V30 11331 C 1078.45 -4.23872 1.50209 0
M  V30 11332 C 1077.22 -4.59812 2.09526 0
M  V30 11333 C 1079.42 -4.52674 2.44112 0
M  V30 11334 N 1077.4 -5.11624 3.39284 0
M  V30 11335 C 1078.77 -5.05839 3.58506 0
M  V30 11336 C 1080.83 -4.34645 2.42874 0
M  V30 11337 C 1079.53 -5.42872 4.71892 0
M  V30 11338 C 1081.56 -4.72742 3.55343 0
M  V30 11339 C 1080.92 -5.26043 4.68463 0
M  V30 11340 H 1077.02 -0.774177 0.110334 0
M  V30 11341 H 1079.6 -1.74413 0.865352 0
M  V30 11342 H 1077.77 -3.84896 -0.520575 0
M  V30 11343 H 1079.5 -4.03154 -0.3534 0
M  V30 11344 H 1076.26 -4.44958 1.62203 0
M  V30 11345 H 1076.68 -5.4198 4.05693 0
M  V30 11346 H 1081.33 -3.92708 1.56654 0
M  V30 11347 H 1079.04 -5.83752 5.58802 0
M  V30 11348 H 1082.63 -4.60485 3.55591 0
M  V30 11349 H 1081.51 -5.54975 5.54051 0
M  V30 11350 N 1079.01 -0.398486 -1.52479 0
M  V30 11351 C 1080.26 0.180394 -2.01293 0
M  V30 11352 C 1080.58 1.46548 -1.28641 0
M  V30 11353 O 1079.85 1.91579 -0.409173 0
M  V30 11354 H 1078.43 0.0696528 -0.743746 0
M  V30 11355 H 1081.09 -0.532285 -1.87491 0
M  V30 11356 H 1080.19 0.38409 -3.09728 0
M  V30 11357 N 1080.49 1.57075 -0.12858 0
M  V30 11358 C 1081.74 1.94695 0.526952 0
M  V30 11359 C 1082.05 1.01482 1.67215 0
M  V30 11360 O 1083.26 1.28606 2.39108 0
M  V30 11361 C 1081.72 3.4605 0.988801 0
M  V30 11362 C 1081.32 4.47816 -0.128457 0
M  V30 11363 C 1083.07 3.92572 1.61517 0
M  V30 11364 C 1080.97 5.9036 0.350628 0
M  V30 11365 H 1079.9 0.726819 0.200623 0
M  V30 11366 H 1082.56 1.82295 -0.209972 0
M  V30 11367 H 1080.94 3.53718 1.78043 0
M  V30 11368 H 1082.11 4.51826 -0.904976 0
M  V30 11369 H 1080.43 4.11103 -0.662075 0
M  V30 11370 H 1083.02 4.96493 1.98491 0
M  V30 11371 H 1083.37 3.33085 2.49721 0
M  V30 11372 H 1083.9 3.87744 0.888768 0
M  V30 11373 H 1080.64 6.53624 -0.495592 0
M  V30 11374 H 1080.16 5.89749 1.09342 0
M  V30 11375 H 1081.84 6.41926 0.808717 0
M  V30 11376 N 1081.97 -0.145205 1.5693 0
M  V30 11377 C 1083.39 -0.497905 1.51635 0
M  V30 11378 C 1083.59 -1.8328 0.837301 0
M  V30 11379 O 1082.64 -2.49172 0.408584 0
M  V30 11380 C 1083.95 -0.506557 2.96403 0
M  V30 11381 C 1085.5 -0.591947 3.07352 0
M  V30 11382 C 1085.98 -0.631244 4.53629 0
M  V30 11383 N 1087.47 -0.693417 4.5798 0
M  V30 11384 C 1088.2 -0.744836 5.68542 0
M  V30 11385 N 1087.7 -0.755492 6.88668 0
M  V30 11386 N 1089.49 -0.785854 5.5658 0
M  V30 11387 H 1081.64 0.729779 1.99469 0
M  V30 11388 H 1083.91 0.266295 0.90983 0
M  V30 11389 H 1083.61 0.406127 3.49347 0
M  V30 11390 H 1083.49 -1.34383 3.5245 0
M  V30 11391 H 1085.87 -1.49505 2.54425 0
M  V30 11392 H 1085.95 0.272507 2.54344 0
M  V30 11393 H 1085.6 0.26771 5.07194 0
M  V30 11394 H 1085.53 -1.51221 5.0442 0
M  V30 11395 H 1088.02 -0.692408 3.71503 0
M  V30 11396 H 1088.33 -0.796624 7.68683 0
M  V30 11397 H 1086.68 -0.723339 6.91226 0
M  V30 11398 H 1089.87 -0.774712 4.61645 0
M  V30 11399 H 1090.04 -0.822461 6.42759 0
M  V30 11400 N 1083.45 -1.52049 -0.414609 0
M  V30 11401 C 1084.86 -1.40729 -0.752822 0
M  V30 11402 C 1085.06 -0.507468 -1.95005 0
M  V30 11403 O 1084.12 0.0288189 -2.52484 0
M  V30 11404 C 1085.43 -2.83163 -1.01189 0
M  V30 11405 C 1086.98 -2.92469 -1.11494 0
M  V30 11406 C 1087.46 -4.35859 -1.4068 0
M  V30 11407 N 1088.95 -4.39069 -1.47557 0
M  V30 11408 C 1089.68 -5.47072 -1.71756 0
M  V30 11409 N 1089.18 -6.65201 -1.93595 0
M  V30 11410 N 1090.97 -5.3458 -1.73726 0
M  V30 11411 H 1083.12 -2.09089 0.373549 0
M  V30 11412 H 1085.38 -0.942188 0.104814 0
M  V30 11413 H 1085.09 -3.51104 -0.204609 0
M  V30 11414 H 1084.96 -3.23874 -1.93353 0
M  V30 11415 H 1087.35 -2.24711 -1.91282 0
M  V30 11416 H 1087.43 -2.55222 -0.171794 0
M  V30 11417 H 1087.08 -5.04174 -0.614119 0
M  V30 11418 H 1087.01 -4.70637 -2.36238 0
M  V30 11419 H 1089.5 -3.53913 -1.32491 0
M  V30 11420 H 1089.81 -7.43297 -2.11495 0
M  V30 11421 H 1088.16 -6.68276 -1.90871 0
M  V30 11422 H 1091.35 -4.41271 -1.56198 0
M  V30 11423 H 1091.52 -6.18826 -1.92246 0
M  V30 11424 N 1084.93 0.6715 -1.42579 0
M  V30 11425 C 1085.86 1.79693 -1.49107 0
M  V30 11426 C 1086.84 1.66516 -0.347338 0
M  V30 11427 O 1088.02 1.85887 -0.562094 0
M  V30 11428 C 1085.15 3.1801 -1.39596 0
M  V30 11429 C 1084.11 3.45926 -2.5203 0
M  V30 11430 C 1083.43 4.83852 -2.27577 0
M  V30 11431 C 1084.73 3.4249 -3.94333 0
M  V30 11432 H 1086.43 1.74486 -2.433 0
M  V30 11433 H 1083.97 0.838042 -1.17102 0
M  V30 11434 H 1085.92 3.96478 -1.42771 0
M  V30 11435 H 1084.65 3.23901 -0.418989 0
M  V30 11436 H 1083.31 2.6982 -2.48178 0
M  V30 11437 H 1082.96 4.86398 -1.28165 0
M  V30 11438 H 1082.66 5.03493 -3.02934 0
M  V30 11439 H 1084.18 5.646 -2.32506 0
M  V30 11440 H 1085.59 4.10922 -3.9977 0
M  V30 11441 H 1083.99 3.73666 -4.69568 0
M  V30 11442 H 1085.06 2.41002 -4.20768 0
M  V30 11443 N 1086.4 1.28806 0.908124 0
M  V30 11444 C 1087.33 1.15758 2.02787 0
M  V30 11445 C 1088.31 0.053911 1.70015 0
M  V30 11446 O 1089.5 0.231901 1.9281 0
M  V30 11447 C 1086.63 0.824526 3.37371 0
M  V30 11448 C 1085.58 1.88359 3.84324 0
M  V30 11449 C 1084.91 1.40404 5.15937 0
M  V30 11450 C 1086.21 3.29108 4.05568 0
M  V30 11451 H 1087.9 2.09431 2.13961 0
M  V30 11452 H 1085.45 1.00831 1.02806 0
M  V30 11453 H 1087.4 0.71999 4.15204 0
M  V30 11454 H 1086.13 -0.147902 3.26265 0
M  V30 11455 H 1084.79 1.97736 3.087 0
M  V30 11456 H 1084.43 0.420515 5.01239 0
M  V30 11457 H 1084.13 2.11224 5.48323 0
M  V30 11458 H 1085.66 1.31283 5.9632 0
M  V30 11459 H 1087.07 3.2262 4.73909 0
M  V30 11460 H 1085.47 3.97812 4.49294 0
M  V30 11461 H 1086.54 3.72709 3.10187 0
M  V30 11462 N 1087.88 -1.11734 1.11145 0
M  V30 11463 C 1088.81 -2.17438 0.724804 0
M  V30 11464 C 1089.83 -1.6099 -0.242069 0
M  V30 11465 O 1091.02 -1.78482 -0.0254259 0
M  V30 11466 C 1088.12 -3.38863 0.050004 0
M  V30 11467 C 1087.29 -4.24785 1.04292 0
M  V30 11468 C 1086.35 -5.24691 0.398243 0
M  V30 11469 O 1085.37 -5.59408 1.05125 0
M  V30 11470 N 1086.58 -5.74388 -0.840184 0
M  V30 11471 H 1089.34 -2.51219 1.63429 0
M  V30 11472 H 1086.9 -1.27226 1.00125 0
M  V30 11473 H 1088.89 -4.02788 -0.392929 0
M  V30 11474 H 1087.46 -3.0317 -0.762005 0
M  V30 11475 H 1086.68 -3.57363 1.6639 0
M  V30 11476 H 1087.97 -4.79033 1.71478 0
M  V30 11477 H 1087.37 -5.48359 -1.38994 0
M  V30 11478 H 1085.93 -6.40163 -1.22615 0
M  V30 11479 N 1089.36 -0.901303 -1.29284 0
M  V30 11480 C 1090.61 -0.528043 -1.95494 0
M  V30 11481 C 1090.93 0.92597 -1.71044 0
M  V30 11482 O 1090.19 1.67185 -1.01723 0
M  V30 11483 C 1090.49 -0.768828 -3.49033 0
M  V30 11484 C 1090.15 -2.20045 -3.93562 0
M  V30 11485 C 1088.82 -2.59189 -4.05431 0
M  V30 11486 C 1091.17 -3.13266 -4.1655 0
M  V30 11487 C 1088.5 -3.90733 -4.37658 0
M  V30 11488 C 1090.85 -4.4436 -4.50252 0
M  V30 11489 C 1089.51 -4.83375 -4.60331 0
M  V30 11490 H 1088.78 -0.193225 -0.715364 0
M  V30 11491 H 1091.43 -1.14027 -1.53851 0
M  V30 11492 H 1089.73 -0.0736997 -3.91731 0
M  V30 11493 H 1091.43 -0.459384 -3.9836 0
M  V30 11494 H 1088.02 -1.88666 -3.84842 0
M  V30 11495 H 1092.21 -2.84237 -4.06845 0
M  V30 11496 H 1087.46 -4.2068 -4.43665 0
M  V30 11497 H 1091.64 -5.16618 -4.66989 0
M  V30 11498 H 1089.26 -5.8534 -4.85058 0
M  V30 11499 N 1090.84 1.42931 -0.663954 0
M  V30 11500 C 1092.08 2.01982 -0.182007 0
M  V30 11501 C 1092.42 1.52323 1.20463 0
M  V30 11502 O 1091.69 0.720834 1.80649 0
M  V30 11503 C 1091.97 3.59518 -0.204671 0
M  V30 11504 C 1091.83 4.19382 -1.62599 0
M  V30 11505 C 1093.15 4.37762 0.45308 0
M  V30 11506 H 1090.27 0.733892 -0.0676115 0
M  V30 11507 H 1092.91 1.70092 -0.84668 0
M  V30 11508 H 1091.06 3.86816 0.361295 0
M  V30 11509 H 1092.73 4.03076 -2.24337 0
M  V30 11510 H 1090.97 3.75623 -2.17001 0
M  V30 11511 H 1091.64 5.28496 -1.59362 0
M  V30 11512 H 1094.12 4.1609 -0.0285774 0
M  V30 11513 H 1093 5.47392 0.406538 0
M  V30 11514 H 1093.26 4.1482 1.52895 0
M  V30 11515 N 1092.32 0.406567 1.52266 0
M  V30 11516 C 1093.54 -0.172101 2.06685 0
M  V30 11517 C 1093.97 -1.38306 1.27488 0
M  V30 11518 O 1093.32 -1.78726 0.304441 0
M  V30 11519 C 1093.37 -0.503463 3.57068 0
M  V30 11520 O 1092.48 -1.59485 3.80314 0
M  V30 11521 H 1091.82 -0.0153209 0.663823 0
M  V30 11522 H 1094.35 0.579025 1.96236 0
M  V30 11523 H 1094.36 -0.762833 4.00805 0
M  V30 11524 H 1093.03 0.381775 4.14144 0
M  V30 11525 H 1091.61 -1.32784 3.48458 0
M  V30 11526 N 1093.79 -1.57004 0.136909 0
M  V30 11527 C 1094.72 -2.19262 -0.802902 0
M  V30 11528 C 1095.71 -1.13786 -1.26439 0
M  V30 11529 O 1096.89 -1.42091 -1.32377 0
M  V30 11530 C 1094.02 -2.80624 -2.04615 0
M  V30 11531 C 1092.97 -3.91839 -1.72181 0
M  V30 11532 C 1092.3 -4.4009 -3.03686 0
M  V30 11533 C 1093.6 -5.13095 -0.976249 0
M  V30 11534 H 1095.29 -2.98049 -0.28406 0
M  V30 11535 H 1092.84 -1.43364 -0.135189 0
M  V30 11536 H 1094.79 -3.22842 -2.70834 0
M  V30 11537 H 1093.52 -1.99153 -2.58855 0
M  V30 11538 H 1092.18 -3.50224 -1.08344 0
M  V30 11539 H 1091.82 -3.55454 -3.55896 0
M  V30 11540 H 1091.52 -5.15098 -2.82751 0
M  V30 11541 H 1093.05 -4.84971 -3.70993 0
M  V30 11542 H 1094.46 -5.5222 -1.54033 0
M  V30 11543 H 1092.86 -5.93801 -0.867214 0
M  V30 11544 H 1093.93 -4.84888 0.0338488 0
M  V30 11545 N 1095.27 0.136881 -1.57004 0
M  V30 11546 C 1096.18 1.18793 -2.023 0
M  V30 11547 C 1097.2 1.46412 -0.94018 0
M  V30 11548 O 1098.37 1.57883 -1.2504 0
M  V30 11549 C 1095.44 2.49903 -2.40311 0
M  V30 11550 C 1094.5 2.29841 -3.6259 0
M  V30 11551 C 1093.73 3.54699 -3.98779 0
M  V30 11552 O 1093.96 4.61291 -3.3551 0
M  V30 11553 O 1092.89 3.46761 -4.91976 0
M  V30 11554 H 1096.72 0.833345 -2.92043 0
M  V30 11555 H 1094.3 0.346361 -1.4533 0
M  V30 11556 H 1096.18 3.27183 -2.65574 0
M  V30 11557 H 1094.86 2.84872 -1.5372 0
M  V30 11558 H 1093.77 1.50478 -3.42501 0
M  V30 11559 H 1095.1 1.99784 -4.4983 0
M  V30 11560 N 1096.75 1.52266 0.40654 0
M  V30 11561 C 1097.98 1.70057 1.1732 0
M  V30 11562 C 1098.39 0.41084 1.84686 0
M  V30 11563 O 1097.73 -0.623187 1.72806 0
M  V30 11564 C 1097.79 2.78197 2.27698 0
M  V30 11565 C 1097.46 4.19866 1.80447 0
M  V30 11566 C 1098.45 5.03621 1.29082 0
M  V30 11567 C 1096.14 4.66112 1.87202 0
M  V30 11568 C 1098.13 6.31694 0.850973 0
M  V30 11569 C 1095.82 5.94174 1.42829 0
M  V30 11570 C 1096.82 6.76794 0.918621 0
M  V30 11571 O 1096.51 8.02458 0.481302 0
M  V30 11572 H 1096.24 0.573137 0.358455 0
M  V30 11573 H 1098.79 1.99615 0.484064 0
M  V30 11574 H 1097.02 2.44022 2.99983 0
M  V30 11575 H 1098.71 2.84562 2.89446 0
M  V30 11576 H 1099.48 4.69083 1.23234 0
M  V30 11577 H 1095.36 4.01905 2.25816 0
M  V30 11578 H 1098.9 6.96131 0.452471 0
M  V30 11579 H 1094.8 6.2822 1.48358 0
M  V30 11580 H 1095.57 8.16266 0.604376 0
M  V30 11581 N 1098.23 -0.663929 1.42933 0
M  V30 11582 C 1099.46 -1.45192 1.474 0
M  V30 11583 C 1099.87 -1.88592 0.0886014 0
M  V30 11584 O 1099.23 -1.58824 -0.898962 0
M  V30 11585 C 1099.28 -2.69394 2.41059 0
M  V30 11586 O 1099 -2.27812 3.7421 0
M  V30 11587 C 1100.5 -3.62855 2.54659 0
M  V30 11588 H 1097.72 -0.446394 0.500973 0
M  V30 11589 H 1100.27 -0.814875 1.87563 0
M  V30 11590 H 1098.42 -3.29262 2.0412 0
M  V30 11591 H 1098.83 -3.08095 4.24474 0
M  V30 11592 H 1100.31 -4.46698 3.24291 0
M  V30 11593 H 1100.79 -4.09487 1.58799 0
M  V30 11594 H 1101.39 -3.08874 2.92364 0
M  V30 11595 N 1099.71 -1.29285 -0.901281 0
M  V30 11596 C 1101.12 -1.07263 -1.18182 0
M  V30 11597 C 1101.32 0.177087 -2.0072 0
M  V30 11598 O 1100.38 0.875292 -2.36844 0
M  V30 11599 C 1101.69 -2.32717 -1.9043 0
M  V30 11600 C 1103.24 -2.3802 -2.03262 0
M  V30 11601 C 1103.71 -3.63273 -2.7892 0
M  V30 11602 N 1105.21 -3.63986 -2.86475 0
M  V30 11603 C 1105.94 -4.57585 -3.45549 0
M  V30 11604 N 1105.44 -5.61513 -4.05801 0
M  V30 11605 N 1107.23 -4.45157 -3.43208 0
M  V30 11606 H 1099.38 -2.09487 -0.350536 0
M  V30 11607 H 1101.64 -0.922647 -0.217778 0
M  V30 11608 H 1101.35 -3.23828 -1.37216 0
M  V30 11609 H 1101.22 -2.40102 -2.90913 0
M  V30 11610 H 1103.61 -1.47398 -2.55652 0
M  V30 11611 H 1103.69 -2.3462 -1.01916 0
M  V30 11612 H 1103.34 -4.54246 -2.27206 0
M  V30 11613 H 1103.27 -3.6393 -3.80608 0
M  V30 11614 H 1105.76 -2.8884 -2.43679 0
M  V30 11615 H 1106.07 -6.29058 -4.48894 0
M  V30 11616 H 1104.41 -5.65325 -4.04268 0
M  V30 11617 H 1107.61 -3.63158 -2.95354 0
M  V30 11618 H 1107.78 -5.18286 -3.88952 0
M  V30 11619 N 1101.18 1.11143 -1.11736 0
M  V30 11620 C 1102.43 1.82586 -0.866412 0
M  V30 11621 C 1102.75 1.85227 0.609593 0
M  V30 11622 O 1102.02 1.32505 1.44288 0
M  V30 11623 H 1100.6 0.676149 -0.31754 0
M  V30 11624 H 1103.27 1.34516 -1.41037 0
M  V30 11625 H 1102.36 2.8635 -1.24136 0
M  V30 11626 N 1102.66 0.908147 1.28804 0
M  V30 11627 C 1103.61 0.390734 2.27468 0
M  V30 11628 C 1104.58 -0.531765 1.57358 0
M  V30 11629 O 1105.76 -0.455177 1.85291 0
M  V30 11630 C 1102.9 -0.368159 3.43131 0
M  V30 11631 C 1102.02 0.586202 4.28004 0
M  V30 11632 C 1101.15 -0.190581 5.30858 0
M  V30 11633 C 1100.19 0.757758 6.07391 0
M  V30 11634 N 1099.33 0.0148488 7.02098 0
M  V30 11635 H 1104.17 1.23717 2.71105 0
M  V30 11636 H 1101.71 0.621382 1.33331 0
M  V30 11637 H 1103.66 -0.824289 4.08976 0
M  V30 11638 H 1102.29 -1.17898 3.00499 0
M  V30 11639 H 1101.35 1.16086 3.62254 0
M  V30 11640 H 1102.66 1.31177 4.81242 0
M  V30 11641 H 1101.81 -0.707528 6.0256 0
M  V30 11642 H 1100.55 -0.949234 4.78373 0
M  V30 11643 H 1099.56 1.28613 5.34545 0
M  V30 11644 H 1100.78 1.51588 6.61965 0
M  V30 11645 H 1098.73 -0.725916 6.51971 0
M  V30 11646 H 1098.64 0.680347 7.52932 0
M  V30 11647 H 1099.91 -0.482086 7.78008 0
M  V30 11648 N 1104.14 -1.42577 0.671525 0
M  V30 11649 C 1105.39 -2.01882 0.192716 0
M  V30 11650 C 1105.72 -1.52959 -1.19654 0
M  V30 11651 O 1104.99 -0.730404 -1.80265 0
M  V30 11652 C 1105.28 -3.59404 0.223734 0
M  V30 11653 C 1105.13 -4.18514 1.64821 0
M  V30 11654 C 1106.45 -4.37996 -0.429858 0
M  V30 11655 H 1103.57 -0.733523 0.0715026 0
M  V30 11656 H 1106.21 -1.69641 0.855689 0
M  V30 11657 H 1104.36 -3.87003 -0.340776 0
M  V30 11658 H 1106.03 -4.01881 2.26472 0
M  V30 11659 H 1104.28 -3.74467 2.1899 0
M  V30 11660 H 1104.95 -5.27643 1.62162 0
M  V30 11661 H 1107.42 -4.16069 0.0506433 0
M  V30 11662 H 1106.3 -5.476 -0.377503 0
M  V30 11663 H 1106.56 -4.15625 -1.50693 0
M  V30 11664 N 1105.62 -0.414636 -1.52048 0
M  V30 11665 C 1107.03 0.0537107 -1.86623 0
M  V30 11666 C 1107.38 1.43955 -1.3331 0
M  V30 11667 O 1106.51 2.05616 -0.674606 0
M  V30 11668 C 1107.1 0.104241 -3.3864 0
M  V30 11669 C 1105.66 0.516936 -3.72833 0
M  V30 11670 C 1104.81 -0.305042 -2.75617 0
M  V30 11671 H 1107.76 -0.631469 -1.45596 0
M  V30 11672 H 1107.78 0.918395 -3.6925 0
M  V30 11673 H 1107.29 -0.904523 -3.77412 0
M  V30 11674 H 1105.39 1.53214 -3.39641 0
M  V30 11675 H 1105.5 0.2575 -4.78408 0
M  V30 11676 H 1103.87 0.233416 -2.53628 0
M  V30 11677 H 1104.65 -1.31226 -3.1723 0
M  V30 11678 N 1107.1 1.56929 -0.145233 0
M  V30 11679 C 1108.35 1.95243 0.506273 0
M  V30 11680 C 1108.66 1.0325 1.66129 0
M  V30 11681 O 1109.86 1.31135 2.37731 0
M  V30 11682 C 1108.32 3.47079 0.952042 0
M  V30 11683 C 1107.93 4.47654 -0.175947 0
M  V30 11684 C 1109.67 3.94263 1.57344 0
M  V30 11685 C 1107.58 5.90698 0.287993 0
M  V30 11686 H 1106.51 0.728906 0.192903 0
M  V30 11687 H 1109.16 1.82062 -0.229295 0
M  V30 11688 H 1107.54 3.55587 1.74282 0
M  V30 11689 H 1108.72 4.50841 -0.952848 0
M  V30 11690 H 1107.03 4.10377 -0.70564 0
M  V30 11691 H 1109.63 4.9857 1.93214 0
M  V30 11692 H 1109.97 3.35714 2.46174 0
M  V30 11693 H 1110.5 3.88665 0.847593 0
M  V30 11694 H 1107.24 6.53061 -0.564889 0
M  V30 11695 H 1106.76 5.90876 1.03081 0
M  V30 11696 H 1108.44 6.42747 0.740586 0
M  V30 11697 N 1108.58 -0.128553 1.57075 0
M  V30 11698 C 1109.81 -0.851214 1.8825 0
M  V30 11699 C 1110.21 -1.74402 0.733531 0
M  V30 11700 O 1109.56 -1.81149 -0.305108 0
M  V30 11701 C 1109.62 -1.74451 3.14336 0
M  V30 11702 C 1109.28 -1.02699 4.45311 0
M  V30 11703 C 1110.28 -0.37224 5.18566 0
M  V30 11704 C 1107.96 -1.01101 4.9202 0
M  V30 11705 C 1109.96 0.2889 6.36745 0
M  V30 11706 C 1107.65 -0.346063 6.10119 0
M  V30 11707 C 1108.64 0.302744 6.82329 0
M  V30 11708 O 1108.33 0.9571 7.98182 0
M  V30 11709 H 1108.06 -0.250529 0.627863 0
M  V30 11710 H 1110.62 -0.120418 2.05047 0
M  V30 11711 H 1108.85 -2.51671 2.93596 0
M  V30 11712 H 1110.54 -2.34075 3.31608 0
M  V30 11713 H 1111.3 -0.376271 4.83538 0
M  V30 11714 H 1107.18 -1.50543 4.35727 0
M  V30 11715 H 1110.73 0.795901 6.93045 0
M  V30 11716 H 1106.62 -0.339762 6.44605 0
M  V30 11717 H 1107.39 0.860616 8.13963 0
M  V30 11718 N 1110.05 -1.5248 -0.398459 0
M  V30 11719 C 1110.98 -1.79549 -1.49279 0
M  V30 11720 C 1111.96 -0.647004 -1.57315 0
M  V30 11721 O 1113.15 -0.893661 -1.72416 0
M  V30 11722 C 1110.28 -1.95582 -2.86993 0
M  V30 11723 C 1109.23 -3.1123 -2.93803 0
M  V30 11724 C 1108.56 -3.12501 -4.33874 0
M  V30 11725 C 1109.86 -4.50485 -2.64312 0
M  V30 11726 H 1111.55 -2.71187 -1.26877 0
M  V30 11727 H 1109.1 -1.30492 -0.608924 0
M  V30 11728 H 1111.05 -2.13102 -3.63546 0
M  V30 11729 H 1109.78 -1.00625 -3.10712 0
M  V30 11730 H 1108.44 -2.93477 -2.19697 0
M  V30 11731 H 1108.08 -2.15245 -4.54619 0
M  V30 11732 H 1107.78 -3.90183 -4.39353 0
M  V30 11733 H 1109.31 -3.32164 -5.12347 0
M  V30 11734 H 1110.72 -4.68387 -3.30585 0
M  V30 11735 H 1109.12 -5.30163 -2.81153 0
M  V30 11736 H 1110.19 -4.57848 -1.59696 0
M  V30 11737 N 1111.53 0.65634 -1.43283 0
M  V30 11738 C 1112.49 1.75117 -1.47874 0
M  V30 11739 C 1113.49 1.56629 -0.363846 0
M  V30 11740 O 1114.68 1.62584 -0.625464 0
M  V30 11741 C 1111.82 3.13957 -1.32831 0
M  V30 11742 H 1113.01 1.72429 -2.45374 0
M  V30 11743 H 1110.56 0.867704 -1.30002 0
M  V30 11744 H 1111.3 3.22259 -0.36326 0
M  V30 11745 H 1111.08 3.28781 -2.13649 0
M  V30 11746 H 1112.57 3.93799 -1.38969 0
M  V30 11747 N 1113.01 1.29761 0.894412 0
M  V30 11748 C 1114.26 1.17806 1.64214 0
M  V30 11749 C 1114.58 -0.269588 1.93127 0
M  V30 11750 O 1113.85 -1.18352 1.56107 0
M  V30 11751 H 1112.43 0.433002 0.608702 0
M  V30 11752 H 1115.09 1.6276 1.07216 0
M  V30 11753 H 1114.19 1.73201 2.5963 0
M  V30 11754 N 1114.49 -1.10549 1.12324 0
M  V30 11755 C 1115.44 -2.18944 0.785248 0
M  V30 11756 C 1116.43 -1.67867 -0.227389 0
M  V30 11757 O 1117.64 -1.79796 -0.0857162 0
M  V30 11758 H 1114.01 -0.713976 0.236098 0
M  V30 11759 H 1115.98 -2.44692 1.70788 0
M  V30 11760 C 1114.73 -3.46765 0.25485 0
M  V30 11761 H 1114.05 -3.86428 1.02534 0
M  V30 11762 H 1115.49 -4.23962 0.0566526 0
M  V30 11763 C 1113.95 -3.21185 -1.01695 0
M  V30 11764 O 1114.48 -3.42745 -2.09497 0
M  V30 11765 N 1112.69 -2.7486 -0.943423 0
M  V30 11766 H 1112.24 -2.57515 -0.0660366 0
M  V30 11767 H 1112.19 -2.58122 -1.795 0
M  V30 11768 N 1115.97 -0.914965 -1.28321 0
M  V30 11769 C 1117.21 -0.547665 -1.94538 0
M  V30 11770 C 1117.53 0.911834 -1.72368 0
M  V30 11771 O 1116.8 1.64481 -1.06408 0
M  V30 11772 H 1115.38 -0.199549 -0.719853 0
M  V30 11773 H 1118.05 -1.16459 -1.5628 0
M  V30 11774 H 1117.14 -0.743138 -3.03124 0
M  V30 11775 N 1117.44 1.42219 -0.679077 0
M  V30 11776 C 1118.38 2.28152 0.0468359 0
M  V30 11777 C 1119.35 1.41307 0.804433 0
M  V30 11778 O 1120.54 1.70744 0.798673 0
M  V30 11779 C 1117.67 3.21236 1.07355 0
M  V30 11780 C 1116.71 4.24515 0.411042 0
M  V30 11781 S 1117.54 5.28958 -0.834506 0
M  V30 11782 C 1118.7 6.25608 0.191029 0
M  V30 11783 H 1118.93 2.89371 -0.682045 0
M  V30 11784 H 1116.47 1.47112 -0.468767 0
M  V30 11785 H 1118.42 3.75402 1.66082 0
M  V30 11786 H 1117.09 2.59145 1.7749 0
M  V30 11787 H 1116.28 4.89849 1.1859 0
M  V30 11788 H 1115.88 3.73859 -0.102742 0
M  V30 11789 H 1118.17 6.69323 1.04944 0
M  V30 11790 H 1119.12 7.06806 -0.427959 0
M  V30 11791 H 1119.52 5.61926 0.538422 0
M  V30 11792 N 1118.92 0.422693 1.51826 0
M  V30 11793 C 1120.33 -0.0438129 1.86649 0
M  V30 11794 C 1120.68 -1.43246 1.34071 0
M  V30 11795 O 1119.81 -2.05256 0.685501 0
M  V30 11796 C 1120.4 -0.0862802 3.3869 0
M  V30 11797 C 1118.96 -0.497157 3.73102 0
M  V30 11798 C 1118.11 0.319655 2.75451 0
M  V30 11799 H 1121.06 0.639181 1.45259 0
M  V30 11800 H 1121.08 -0.8988 3.69732 0
M  V30 11801 H 1120.59 0.924525 3.76927 0
M  V30 11802 H 1118.69 -1.51411 3.40449 0
M  V30 11803 H 1118.81 -0.232125 4.78537 0
M  V30 11804 H 1117.17 -0.219963 2.53748 0
M  V30 11805 H 1117.95 1.32906 3.16529 0
M  V30 11806 N 1120.4 -1.5685 0.153553 0
M  V30 11807 C 1121.65 -1.95509 -0.495911 0
M  V30 11808 C 1121.96 -1.04129 -1.65579 0
M  V30 11809 O 1123.17 -1.32394 -2.37032 0
M  V30 11810 C 1121.62 -3.47579 -0.933622 0
M  V30 11811 C 1121.23 -4.47555 0.199684 0
M  V30 11812 C 1122.98 -3.95092 -1.55251 0
M  V30 11813 C 1120.88 -5.90843 -0.256663 0
M  V30 11814 H 1119.81 -0.729919 -0.189035 0
M  V30 11815 H 1122.46 -1.81938 0.238947 0
M  V30 11816 H 1120.85 -3.56506 -1.72394 0
M  V30 11817 H 1122.02 -4.50329 0.976744 0
M  V30 11818 H 1120.33 -4.09997 0.727394 0
M  V30 11819 H 1122.93 -4.99588 -1.90567 0
M  V30 11820 H 1123.27 -3.37015 -2.4439 0
M  V30 11821 H 1123.81 -3.89109 -0.826969 0
M  V30 11822 H 1120.55 -6.52753 0.599515 0
M  V30 11823 H 1120.07 -5.91414 -0.999458 0
M  V30 11824 H 1121.75 -6.43131 -0.70649 0
M  V30 11825 N 1121.88 0.120221 -1.57141 0
M  V30 11826 C 1123.13 0.826586 -1.84423 0
M  V30 11827 C 1123.45 1.80473 -0.738553 0
M  V30 11828 O 1122.72 1.94454 0.23755 0
M  V30 11829 H 1121.3 0.308246 -0.680436 0
M  V30 11830 H 1123.96 0.107835 -1.94601 0
M  V30 11831 H 1123.05 1.37256 -2.80298 0
M  V30 11832 N 1123.36 1.52689 0.390367 0
M  V30 11833 C 1124.27 1.8029 1.50108 0
M  V30 11834 C 1125.28 0.689582 1.59752 0
M  V30 11835 O 1126.46 0.977024 1.76114 0
M  V30 11836 C 1123.52 1.96475 2.85654 0
M  V30 11837 C 1122.58 3.2039 2.85743 0
M  V30 11838 C 1121.82 3.35793 4.14824 0
M  V30 11839 O 1122.04 2.56033 5.09709 0
M  V30 11840 O 1120.97 4.2904 4.22147 0
M  V30 11841 H 1124.8 2.74605 1.29715 0
M  V30 11842 H 1122.39 1.37763 0.578074 0
M  V30 11843 H 1124.27 2.08835 3.66013 0
M  V30 11844 H 1122.94 1.05351 3.06077 0
M  V30 11845 H 1121.85 3.13473 2.0417 0
M  V30 11846 H 1123.18 4.11356 2.70272 0
M  V30 11847 N 1124.83 -0.648732 1.43629 0
M  V30 11848 C 1126.06 -1.44117 1.49148 0
M  V30 11849 C 1126.48 -1.87767 0.111952 0
M  V30 11850 O 1125.84 -1.57655 -0.895249 0
M  V30 11851 C 1125.89 -2.64938 2.44623 0
M  V30 11852 O 1124.99 -3.64155 1.93559 0
M  V30 11853 H 1124.34 -0.431933 0.504312 0
M  V30 11854 H 1126.87 -0.793439 1.88589 0
M  V30 11855 H 1126.88 -3.12698 2.62076 0
M  V30 11856 H 1125.55 -2.3251 3.44836 0
M  V30 11857 H 1124.13 -3.23322 1.85789 0
M  V30 11858 N 1126.31 -1.30234 -0.887518 0
M  V30 11859 C 1127.22 -1.18316 -2.02579 0
M  V30 11860 C 1128.24 -0.103658 -1.73691 0
M  V30 11861 O 1129.41 -0.3181 -1.98872 0
M  V30 11862 C 1126.48 -0.873222 -3.35523 0
M  V30 11863 C 1125.54 -2.03783 -3.7785 0
M  V30 11864 C 1124.77 -1.74258 -5.0445 0
M  V30 11865 O 1125 -0.669295 -5.6646 0
M  V30 11866 O 1123.93 -2.59423 -5.43124 0
M  V30 11867 H 1127.76 -2.13933 -2.15561 0
M  V30 11868 H 1125.34 -1.09803 -1.0131 0
M  V30 11869 H 1127.22 -0.715463 -4.15282 0
M  V30 11870 H 1125.9 0.053056 -3.23657 0
M  V30 11871 H 1124.81 -2.2509 -2.98806 0
M  V30 11872 H 1126.14 -2.94574 -3.94318 0
M  V30 11873 N 1127.79 1.09952 -1.12909 0
M  V30 11874 C 1128.74 2.18525 -0.796849 0
M  V30 11875 C 1129.73 1.67985 0.218483 0
M  V30 11876 O 1130.94 1.79839 0.07618 0
M  V30 11877 H 1127.31 0.712714 -0.239882 0
M  V30 11878 H 1129.28 2.43783 -1.72083 0
M  V30 11879 C 1128.03 3.46625 -0.273237 0
M  V30 11880 H 1127.36 3.85879 -1.04582 0
M  V30 11881 H 1128.8 4.23926 -0.0791355 0
M  V30 11882 C 1127.26 3.2172 0.999903 0
M  V30 11883 O 1127.79 3.43851 2.07676 0
M  V30 11884 N 1125.99 2.75356 0.928833 0
M  V30 11885 H 1125.54 2.57547 0.052379 0
M  V30 11886 H 1125.5 2.5907 1.78129 0
M  V30 11887 N 1129.27 0.921757 1.27833 0
M  V30 11888 C 1130.2 0.433466 2.29441 0
M  V30 11889 C 1131.18 -0.503133 1.62489 0
M  V30 11890 O 1132.36 -0.409156 1.89841 0
M  V30 11891 C 1129.49 -0.320029 3.45822 0
M  V30 11892 C 1128.45 0.528178 4.24728 0
M  V30 11893 C 1127.77 -0.354132 5.33526 0
M  V30 11894 C 1129.07 1.78959 4.90684 0
M  V30 11895 H 1130.77 1.28263 2.70535 0
M  V30 11896 H 1128.31 0.618197 1.30055 0
M  V30 11897 H 1130.27 -0.672526 4.15999 0
M  V30 11898 H 1128.99 -1.20317 3.0363 0
M  V30 11899 H 1127.65 0.863302 3.5629 0
M  V30 11900 H 1127.3 -1.23605 4.87576 0
M  V30 11901 H 1127 0.209855 5.87225 0
M  V30 11902 H 1128.52 -0.702333 6.06547 0
M  V30 11903 H 1129.94 1.50552 5.53179 0
M  V30 11904 H 1128.33 2.29661 5.54415 0
M  V30 11905 H 1129.4 2.51265 4.14721 0
M  V30 11906 N 1130.75 -1.41857 0.686609 0
M  V30 11907 C 1131.99 -2.01368 0.213801 0
M  V30 11908 C 1132.32 -1.5434 -1.18361 0
M  V30 11909 O 1131.58 -0.741447 -1.81111 0
M  V30 11910 C 1131.88 -3.56783 0.209951 0
M  V30 11911 C 1131.54 -4.23288 1.55365 0
M  V30 11912 C 1130.2 -4.41169 1.92154 0
M  V30 11913 C 1132.56 -4.6066 2.43807 0
M  V30 11914 C 1129.88 -4.93697 3.16986 0
M  V30 11915 C 1132.24 -5.14573 3.67963 0
M  V30 11916 C 1130.9 -5.30667 4.04906 0
M  V30 11917 H 1130.17 -0.736858 0.0782352 0
M  V30 11918 H 1132.82 -1.69879 0.88393 0
M  V30 11919 H 1131.12 -3.88009 -0.543712 0
M  V30 11920 H 1132.82 -4.00625 -0.173267 0
M  V30 11921 H 1129.41 -4.09738 1.2575 0
M  V30 11922 H 1133.59 -4.46507 2.16668 0
M  V30 11923 H 1128.85 -5.04342 3.45615 0
M  V30 11924 H 1133.02 -5.42473 4.36687 0
M  V30 11925 H 1130.65 -5.71133 5.01709 0
M  V30 11926 N 1132.22 -0.430739 -1.51599 0
M  V30 11927 C 1133.5 0.197543 -1.946 0
M  V30 11928 C 1133.88 1.6069 -1.36901 0
M  V30 11929 O 1133.23 2.21697 -0.553422 0
M  V30 11930 C 1133.44 0.181976 -3.48525 0
M  V30 11931 C 1134.79 0.390783 -4.22798 0
M  V30 11932 O 1135.81 0.260384 -3.55247 0
M  V30 11933 O 1134.67 0.649701 -5.42624 0
M  V30 11934 H 1131.76 0.133524 -0.81615 0
M  V30 11935 H 1134.31 -0.488243 -1.62525 0
M  V30 11936 H 1133.08 -0.803584 -3.8296 0
M  V30 11937 H 1132.71 0.910952 -3.87024 0
M  V30 11938 N 1133.7 1.56767 -0.161869 0
M  V30 11939 C 1134.98 1.88245 0.531352 0
M  V30 11940 C 1135.36 1.07025 1.81958 0
M  V30 11941 O 1134.71 0.161385 2.27929 0
M  V30 11942 C 1134.92 3.40117 0.782416 0
M  V30 11943 C 1136.27 4.09655 1.11661 0
M  V30 11944 O 1137.29 3.4538 0.871274 0
M  V30 11945 O 1136.15 5.23192 1.57901 0
M  V30 11946 H 1133.24 0.780725 0.272759 0
M  V30 11947 H 1135.79 1.68522 -0.199597 0
M  V30 11948 H 1134.56 3.91088 -0.128677 0
M  V30 11949 H 1134.18 3.65418 1.56702 0
M  V30 11950 N 1135.18 -0.111886 1.57202 0
M  V30 11951 C 1136.41 -0.836317 1.89791 0
M  V30 11952 C 1136.83 -1.72304 0.754513 0
M  V30 11953 O 1136.19 -1.78889 -0.294672 0
M  V30 11954 C 1136.24 -1.63971 3.21164 0
M  V30 11955 O 1135.34 -2.74726 3.0757 0
M  V30 11956 H 1134.68 -0.230833 0.622585 0
M  V30 11957 H 1137.21 -0.0921478 2.04392 0
M  V30 11958 H 1137.22 -2.02746 3.54059 0
M  V30 11959 H 1135.9 -0.98882 4.03974 0
M  V30 11960 H 1134.47 -2.39101 2.86156 0
M  V30 11961 N 1136.66 -1.52894 -0.382264 0
M  V30 11962 C 1137.59 -1.81122 -1.47367 0
M  V30 11963 C 1138.57 -0.663653 -1.56619 0
M  V30 11964 O 1139.75 -0.911898 -1.71459 0
M  V30 11965 C 1136.88 -1.98615 -2.84902 0
M  V30 11966 C 1135.84 -3.14328 -2.90485 0
M  V30 11967 C 1135.16 -3.17086 -4.30535 0
M  V30 11968 C 1136.46 -4.53263 -2.59519 0
M  V30 11969 H 1138.16 -2.72518 -1.23993 0
M  V30 11970 H 1135.7 -1.3113 -0.595049 0
M  V30 11971 H 1137.66 -2.16946 -3.61265 0
M  V30 11972 H 1136.38 -1.03915 -3.09628 0
M  V30 11973 H 1135.04 -2.95791 -2.16572 0
M  V30 11974 H 1134.69 -2.20055 -4.52311 0
M  V30 11975 H 1134.39 -3.94821 -4.3519 0
M  V30 11976 H 1135.91 -3.3758 -5.08795 0
M  V30 11977 H 1137.33 -4.71867 -3.25598 0
M  V30 11978 H 1135.72 -5.33115 -2.75514 0
M  V30 11979 H 1136.79 -4.59516 -1.54831 0
M  V30 11980 N 1138.14 0.641106 -1.43971 0
M  V30 11981 C 1139.55 0.958161 -1.27638 0
M  V30 11982 C 1139.75 2.00456 -0.204885 0
M  V30 11983 O 1138.81 2.49106 0.412606 0
M  V30 11984 C 1140.12 1.43091 -2.64472 0
M  V30 11985 C 1141.67 1.54692 -2.72102 0
M  V30 11986 C 1142.15 2.05353 -4.09382 0
M  V30 11987 N 1143.64 2.12638 -4.11509 0
M  V30 11988 C 1144.37 2.52987 -5.14573 0
M  V30 11989 N 1143.87 2.92544 -6.28005 0
M  V30 11990 N 1145.66 2.53033 -5.01927 0
M  V30 11991 H 1137.81 -0.0510973 -2.12339 0
M  V30 11992 H 1140.07 0.039748 -0.947166 0
M  V30 11993 H 1139.78 0.736389 -3.43904 0
M  V30 11994 H 1139.65 2.40375 -2.90688 0
M  V30 11995 H 1142.04 2.23242 -1.92994 0
M  V30 11996 H 1142.12 0.558083 -2.49638 0
M  V30 11997 H 1141.77 1.37401 -4.88962 0
M  V30 11998 H 1141.7 3.0509 -4.29218 0
M  V30 11999 H 1144.19 1.84792 -3.29636 0
M  V30 12000 H 1144.5 3.22116 -7.02468 0
M  V30 12001 H 1142.85 2.90319 -6.31458 0
M  V30 12002 H 1146.04 2.21514 -4.1237 0
M  V30 12003 H 1146.21 2.84155 -5.82375 0
M  V30 12004 N 1139.62 1.30703 0.880598 0
M  V30 12005 C 1140.86 1.19955 1.63519 0
M  V30 12006 C 1141.19 -0.244214 1.92658 0
M  V30 12007 O 1140.47 -1.17412 1.55063 0
M  V30 12008 C 1140.75 2.03302 2.97221 0
M  V30 12009 C 1140.61 3.55921 2.75028 0
M  V30 12010 C 1141.92 1.87421 3.98198 0
M  V30 12011 H 1139.04 0.43712 0.593376 0
M  V30 12012 H 1141.69 1.60382 1.01871 0
M  V30 12013 H 1139.84 1.68953 3.49839 0
M  V30 12014 H 1141.51 4.00352 2.29164 0
M  V30 12015 H 1139.75 3.79885 2.09452 0
M  V30 12016 H 1140.42 4.09533 3.70117 0
M  V30 12017 H 1142.9 2.17459 3.54755 0
M  V30 12018 H 1141.77 2.48057 4.89652 0
M  V30 12019 H 1142.03 0.834563 4.34151 0
M  V30 12020 N 1141.09 -1.09351 1.1349 0
M  V30 12021 C 1142.37 -1.78121 0.808225 0
M  V30 12022 C 1142.75 -1.99154 -0.700072 0
M  V30 12023 O 1142.1 -1.59356 -1.63762 0
M  V30 12024 C 1142.31 -3.10368 1.59601 0
M  V30 12025 C 1143.66 -3.85063 1.78919 0
M  V30 12026 O 1144.68 -3.20122 1.56206 0
M  V30 12027 O 1143.54 -5.01648 2.16821 0
M  V30 12028 H 1140.63 -0.77253 0.295173 0
M  V30 12029 H 1143.18 -1.15901 1.23956 0
M  V30 12030 H 1141.95 -2.90549 2.62101 0
M  V30 12031 H 1141.57 -3.80312 1.15967 0
M  V30 12032 N 1142.57 -0.928524 -1.27343 0
M  V30 12033 C 1143.8 -0.584884 -1.98148 0
M  V30 12034 C 1144.21 0.841603 -1.69451 0
M  V30 12035 O 1143.55 1.57104 -0.952053 0
M  V30 12036 C 1143.61 -0.731911 -3.51971 0
M  V30 12037 C 1143.28 -2.13067 -4.04291 0
M  V30 12038 C 1144.28 -3.10492 -4.17002 0
M  V30 12039 C 1141.96 -2.44784 -4.38619 0
M  V30 12040 C 1143.95 -4.37742 -4.63315 0
M  V30 12041 C 1141.64 -3.72269 -4.84622 0
M  V30 12042 C 1142.64 -4.68562 -4.9693 0
M  V30 12043 O 1142.33 -5.93779 -5.41924 0
M  V30 12044 H 1142.06 -0.220347 -0.63908 0
M  V30 12045 H 1144.61 -1.24799 -1.63139 0
M  V30 12046 H 1142.84 -0.0116966 -3.86698 0
M  V30 12047 H 1144.53 -0.393206 -4.03991 0
M  V30 12048 H 1145.3 -2.8731 -3.9074 0
M  V30 12049 H 1141.18 -1.70577 -4.28281 0
M  V30 12050 H 1144.72 -5.12905 -4.72836 0
M  V30 12051 H 1140.62 -3.95269 -5.10326 0
M  V30 12052 H 1141.39 -5.96779 -5.60176 0
M  V30 12053 N 1144.05 1.41491 -0.694123 0
M  V30 12054 C 1145.3 2.01252 -0.224477 0
M  V30 12055 C 1145.62 1.54965 1.17541 0
M  V30 12056 O 1144.88 0.751041 1.80715 0
M  V30 12057 C 1145.18 3.56666 -0.228869 0
M  V30 12058 C 1144.84 4.22458 -1.57608 0
M  V30 12059 C 1143.51 4.40144 -1.94491 0
M  V30 12060 C 1145.86 4.5936 -2.46247 0
M  V30 12061 C 1143.19 4.92009 -3.196 0
M  V30 12062 C 1145.54 5.12615 -3.70687 0
M  V30 12063 C 1144.2 5.28512 -4.07715 0
M  V30 12064 H 1143.47 0.736433 -0.0821419 0
M  V30 12065 H 1146.12 1.69408 -0.892926 0
M  V30 12066 H 1144.42 3.88292 0.523128 0
M  V30 12067 H 1146.12 4.00712 0.152019 0
M  V30 12068 H 1142.71 4.09065 -1.27921 0
M  V30 12069 H 1146.9 4.45352 -2.19032 0
M  V30 12070 H 1142.15 5.02502 -3.48285 0
M  V30 12071 H 1146.33 5.4015 -4.39558 0
M  V30 12072 H 1143.95 5.68464 -5.0473 0
M  V30 12073 N 1145.53 0.438773 1.51369 0
M  V30 12074 C 1146.48 -0.386324 2.29369 0
M  V30 12075 C 1147.47 -1.0196 1.3528 0
M  V30 12076 O 1148.68 -0.9544 1.52615 0
M  V30 12077 H 1145.05 -0.143397 0.738201 0
M  V30 12078 H 1147.02 0.292372 2.96964 0
M  V30 12079 C 1145.77 -1.47426 3.14898 0
M  V30 12080 H 1145.09 -0.996335 3.87186 0
M  V30 12081 H 1146.53 -2.02481 3.72529 0
M  V30 12082 C 1144.99 -2.45831 2.30366 0
M  V30 12083 O 1145.52 -3.50398 1.96428 0
M  V30 12084 N 1143.73 -2.16754 1.93561 0
M  V30 12085 H 1143.28 -1.31748 2.2136 0
M  V30 12086 H 1143.23 -2.82836 1.373 0
M  V30 12087 N 1147.01 -1.56678 0.170181 0
M  V30 12088 C 1147.94 -2.15083 -0.791961 0
M  V30 12089 C 1148.95 -1.10612 -1.19452 0
M  V30 12090 O 1150.14 -1.37803 -1.13457 0
M  V30 12091 C 1147.24 -2.67769 -2.07733 0
M  V30 12092 C 1146.41 -3.96885 -1.83851 0
M  V30 12093 C 1145.47 -4.34646 -2.96596 0
M  V30 12094 O 1144.5 -5.02543 -2.67281 0
M  V30 12095 N 1145.7 -3.96112 -4.24353 0
M  V30 12096 H 1148.46 -2.98268 -0.292658 0
M  V30 12097 H 1146.03 -1.61895 -0.0126383 0
M  V30 12098 H 1148.02 -2.90029 -2.8225 0
M  V30 12099 H 1146.59 -1.89179 -2.48858 0
M  V30 12100 H 1145.81 -3.83013 -0.932452 0
M  V30 12101 H 1147.1 -4.81213 -1.65261 0
M  V30 12102 H 1146.49 -3.41448 -4.51032 0
M  V30 12103 H 1145.05 -4.23375 -4.95577 0
M  V30 12104 N 1148.48 0.103547 -1.57259 0
M  V30 12105 C 1149.71 0.821158 -1.8958 0
M  V30 12106 C 1150.12 1.73213 -0.761184 0
M  V30 12107 O 1149.46 1.81611 0.27625 0
M  V30 12108 C 1149.53 1.69428 -3.17072 0
M  V30 12109 C 1149.19 0.956014 -4.46889 0
M  V30 12110 C 1150.19 0.289694 -5.19092 0
M  V30 12111 C 1147.87 0.932602 -4.93566 0
M  V30 12112 C 1149.87 -0.390164 -6.36205 0
M  V30 12113 C 1147.55 0.248954 -6.10593 0
M  V30 12114 C 1148.55 -0.411259 -6.81761 0
M  V30 12115 O 1148.24 -1.08396 -7.96559 0
M  V30 12116 H 1147.97 0.240508 -0.631769 0
M  V30 12117 H 1150.53 0.0877817 -2.05212 0
M  V30 12118 H 1148.76 2.46968 -2.97563 0
M  V30 12119 H 1150.44 2.28769 -3.3529 0
M  V30 12120 H 1151.21 0.299297 -4.84076 0
M  V30 12121 H 1147.09 1.43592 -4.38067 0
M  V30 12122 H 1150.63 -0.906057 -6.91691 0
M  V30 12123 H 1146.53 0.237168 -6.45064 0
M  V30 12124 H 1147.3 -0.990002 -8.12491 0
M  V30 12125 N 1149.96 1.53094 0.37415 0
M  V30 12126 C 1151.21 1.68082 1.11495 0
M  V30 12127 C 1151.52 0.434685 1.90709 0
M  V30 12128 O 1152.73 0.464956 2.67489 0
M  V30 12129 C 1151.19 2.97101 2.03124 0
M  V30 12130 C 1150.79 4.28947 1.29262 0
M  V30 12131 C 1152.54 3.21456 2.77248 0
M  V30 12132 C 1150.44 5.4906 2.19743 0
M  V30 12133 H 1149.37 0.626238 0.419931 0
M  V30 12134 H 1152.03 1.79594 0.376588 0
M  V30 12135 H 1150.41 2.79371 2.80656 0
M  V30 12136 H 1151.58 4.57279 0.568528 0
M  V30 12137 H 1149.9 4.10968 0.670362 0
M  V30 12138 H 1152.49 4.08377 3.45155 0
M  V30 12139 H 1152.84 2.37153 3.42146 0
M  V30 12140 H 1153.37 3.3982 2.06803 0
M  V30 12141 H 1150.11 6.35815 1.59437 0
M  V30 12142 H 1149.63 5.25019 2.90027 0
M  V30 12143 H 1151.31 5.83517 2.79495 0
M  V30 12144 N 1151.44 -0.633461 1.44309 0
M  V30 12145 C 1152.39 -1.76674 1.51292 0
M  V30 12146 C 1153.38 -1.64972 0.384807 0
M  V30 12147 O 1154.59 -1.71079 0.559653 0
M  V30 12148 H 1150.96 -0.583238 0.474697 0
M  V30 12149 H 1152.93 -1.67907 2.46678 0
M  V30 12150 C 1151.68 -3.15002 1.47205 0
M  V30 12151 H 1151.01 -3.24653 2.33325 0
M  V30 12152 H 1152.45 -3.94199 1.56151 0
M  V30 12153 C 1150.9 -3.3635 0.192464 0
M  V30 12154 O 1151.43 -3.94857 -0.738285 0
M  V30 12155 N 1149.64 -2.9044 0.0963424 0
M  V30 12156 H 1149.19 -2.43011 0.85459 0
M  V30 12157 H 1149.15 -3.05099 -0.759061 0
M  V30 12158 N 1152.92 -1.31168 -0.873655 0
M  V30 12159 C 1153.83 -1.20458 -2.01313 0
M  V30 12160 C 1154.84 -0.122074 -1.73571 0
M  V30 12161 O 1156.02 -0.339176 -1.98523 0
M  V30 12162 C 1153.09 -0.90876 -3.34578 0
M  V30 12163 C 1152.15 -2.07779 -3.75668 0
M  V30 12164 C 1151.38 -1.79599 -5.02573 0
M  V30 12165 O 1151.6 -0.729338 -5.65718 0
M  V30 12166 O 1150.54 -2.65169 -5.40341 0
M  V30 12167 H 1154.36 -2.16207 -2.13279 0
M  V30 12168 H 1151.95 -1.10871 -1.00139 0
M  V30 12169 H 1153.83 -0.759469 -4.145 0
M  V30 12170 H 1152.5 0.0187249 -3.23695 0
M  V30 12171 H 1151.41 -2.28247 -2.96402 0
M  V30 12172 H 1152.74 -2.9874 -3.91172 0
M  V30 12173 N 1154.4 1.08748 -1.14068 0
M  V30 12174 C 1155.64 1.81333 -0.908081 0
M  V30 12175 C 1155.98 1.85826 0.564112 0
M  V30 12176 O 1155.25 1.33157 1.41773 0
M  V30 12177 C 1155.53 3.27127 -1.50531 0
M  V30 12178 C 1155.39 3.30865 -3.04711 0
M  V30 12179 C 1156.71 4.24006 -1.17928 0
M  V30 12180 H 1153.82 0.658326 -0.331325 0
M  V30 12181 H 1156.47 1.27345 -1.41008 0
M  V30 12182 H 1154.62 3.73233 -1.07839 0
M  V30 12183 H 1156.29 2.93109 -3.56209 0
M  V30 12184 H 1154.53 2.70241 -3.39341 0
M  V30 12185 H 1155.2 4.33603 -3.41603 0
M  V30 12186 H 1157.68 3.86221 -1.54831 0
M  V30 12187 H 1156.55 5.2434 -1.62353 0
M  V30 12188 H 1156.82 4.42 -0.0940349 0
M  V30 12189 N 1155.87 0.935264 1.26849 0
M  V30 12190 C 1156.8 0.457776 2.28969 0
M  V30 12191 C 1157.79 -0.48587 1.63013 0
M  V30 12192 O 1158.97 -0.388998 1.90264 0
M  V30 12193 C 1156.1 -0.283332 3.46142 0
M  V30 12194 C 1155.05 0.573196 4.24144 0
M  V30 12195 C 1154.38 -0.297525 5.33872 0
M  V30 12196 C 1155.68 1.84153 4.88759 0
M  V30 12197 H 1157.37 1.31125 2.69159 0
M  V30 12198 H 1154.92 0.631956 1.29392 0
M  V30 12199 H 1156.87 -0.628366 4.16689 0
M  V30 12200 H 1155.6 -1.1709 3.04889 0
M  V30 12201 H 1154.26 0.901043 3.55354 0
M  V30 12202 H 1153.9 -1.18427 4.8886 0
M  V30 12203 H 1153.6 0.272126 5.8697 0
M  V30 12204 H 1155.13 -0.637961 6.07258 0
M  V30 12205 H 1156.54 1.5641 5.51551 0
M  V30 12206 H 1154.94 2.35528 5.51948 0
M  V30 12207 H 1156.01 2.5565 4.12033 0
M  V30 12208 N 1157.35 -1.41121 0.701616 0
M  V30 12209 C 1158.3 -2.30765 0.040121 0
M  V30 12210 C 1159.27 -1.47436 -0.764975 0
M  V30 12211 O 1160.45 -1.76209 -0.731775 0
M  V30 12212 C 1157.59 -3.33535 -0.885903 0
M  V30 12213 C 1156.71 -4.3194 -0.0717765 0
M  V30 12214 C 1155.84 -5.21779 -0.995996 0
M  V30 12215 C 1154.88 -6.11849 -0.175133 0
M  V30 12216 N 1154.02 -6.94151 -1.05348 0
M  V30 12217 H 1158.86 -2.86772 0.810312 0
M  V30 12218 H 1156.4 -1.41233 0.411301 0
M  V30 12219 H 1158.35 -3.91675 -1.4369 0
M  V30 12220 H 1156.98 -2.79065 -1.62243 0
M  V30 12221 H 1156.04 -3.75698 0.596221 0
M  V30 12222 H 1157.35 -4.95597 0.56435 0
M  V30 12223 H 1156.5 -5.84782 -1.61601 0
M  V30 12224 H 1155.24 -4.58363 -1.66597 0
M  V30 12225 H 1154.25 -5.4789 0.457916 0
M  V30 12226 H 1155.47 -6.77322 0.491133 0
M  V30 12227 H 1153.42 -6.33338 -1.70936 0
M  V30 12228 H 1153.33 -7.54518 -0.473065 0
M  V30 12229 H 1154.6 -7.61617 -1.66012 0
M  V30 12230 N 1158.83 -0.446794 -1.51134 0
M  V30 12231 C 1159.79 0.348311 -2.26538 0
M  V30 12232 C 1160.79 0.941566 -1.3035 0
M  V30 12233 O 1161.98 0.814537 -1.53984 0
M  V30 12234 C 1159.12 1.49371 -3.06433 0
M  V30 12235 H 1160.31 -0.312648 -2.98266 0
M  V30 12236 H 1157.86 -0.200201 -1.55013 0
M  V30 12237 H 1158.6 2.19045 -2.39144 0
M  V30 12238 H 1158.38 1.07439 -3.77093 0
M  V30 12239 H 1159.87 2.05522 -3.63525 0
M  V30 12240 N 1160.31 1.56586 -0.178487 0
M  V30 12241 C 1161.56 1.96273 0.464745 0
M  V30 12242 C 1161.87 1.0675 1.63902 0
M  V30 12243 O 1163.08 1.36148 2.34896 0
M  V30 12244 C 1161.53 3.49021 0.878207 0
M  V30 12245 C 1161.14 4.4718 -0.270861 0
M  V30 12246 C 1162.88 3.97512 1.48946 0
M  V30 12247 C 1160.79 5.91176 0.162632 0
M  V30 12248 H 1159.72 0.732834 0.177398 0
M  V30 12249 H 1162.37 1.81534 -0.267861 0
M  V30 12250 H 1160.75 3.59203 1.667 0
M  V30 12251 H 1161.93 4.48718 -1.04826 0
M  V30 12252 H 1160.24 4.08788 -0.792529 0
M  V30 12253 H 1162.84 5.02556 1.82595 0
M  V30 12254 H 1163.18 3.40861 2.38997 0
M  V30 12255 H 1163.72 3.90376 0.76496 0
M  V30 12256 H 1160.46 6.51716 -0.703286 0
M  V30 12257 H 1159.98 5.9293 0.905243 0
M  V30 12258 H 1161.65 6.44174 0.604084 0
M  V30 12259 N 1161.79 -0.095206 1.57312 0
M  V30 12260 C 1162.73 -1.11551 2.02052 0
M  V30 12261 C 1163.7 -1.39808 0.896818 0
M  V30 12262 O 1164.89 -1.51273 1.1628 0
M  V30 12263 C 1162.03 -2.43056 2.44985 0
M  V30 12264 C 1161.14 -2.21531 3.70875 0
M  V30 12265 C 1160.28 -3.46434 4.02687 0
M  V30 12266 C 1159.32 -3.2017 5.21687 0
M  V30 12267 N 1158.45 -4.37339 5.49253 0
M  V30 12268 H 1163.29 -0.727 2.88996 0
M  V30 12269 H 1160.83 -0.347441 1.42938 0
M  V30 12270 H 1162.79 -3.19803 2.67921 0
M  V30 12271 H 1161.42 -2.79754 1.61051 0
M  V30 12272 H 1160.47 -1.35587 3.55416 0
M  V30 12273 H 1161.78 -1.98116 4.57768 0
M  V30 12274 H 1160.94 -4.31589 4.26399 0
M  V30 12275 H 1159.67 -3.72904 3.14315 0
M  V30 12276 H 1158.68 -2.33409 4.97796 0
M  V30 12277 H 1159.9 -2.95047 6.11657 0
M  V30 12278 H 1157.85 -4.63885 4.6384 0
M  V30 12279 H 1157.77 -4.17114 6.30517 0
M  V30 12280 H 1159.04 -5.23559 5.775 0
M  V30 12281 N 1163.26 -1.53291 -0.366026 0
M  V30 12282 C 1164.17 -1.82656 -1.47221 0
M  V30 12283 C 1165.19 -0.71491 -1.58635 0
M  V30 12284 O 1166.37 -1.00492 -1.74538 0
M  V30 12285 C 1163.43 -2.00995 -2.82492 0
M  V30 12286 C 1162.49 -3.24895 -2.8061 0
M  V30 12287 C 1161.73 -3.4235 -4.09429 0
M  V30 12288 O 1161.95 -2.6411 -5.05571 0
M  V30 12289 O 1160.88 -4.35702 -4.15268 0
M  V30 12290 H 1164.71 -2.76634 -1.2533 0
M  V30 12291 H 1162.29 -1.38665 -0.556084 0
M  V30 12292 H 1164.18 -2.14632 -3.62645 0
M  V30 12293 H 1162.85 -1.10207 -3.04362 0
M  V30 12294 H 1161.76 -3.16682 -1.99157 0
M  V30 12295 H 1163.09 -4.15604 -2.63694 0
M  V30 12296 N 1164.74 0.6258 -1.44643 0
M  V30 12297 C 1166.02 1.38439 -1.38181 0
M  V30 12298 C 1166.4 2.11056 -0.0431928 0
M  V30 12299 O 1165.75 2.06683 0.974383 0
M  V30 12300 C 1165.96 2.34639 -2.58352 0
M  V30 12301 C 1167.31 2.97807 -3.02649 0
M  V30 12302 O 1168.33 2.44963 -2.58595 0
M  V30 12303 O 1167.19 3.93682 -3.79048 0
M  V30 12304 H 1164.28 0.619852 -0.54746 0
M  V30 12305 H 1166.83 0.650409 -1.56741 0
M  V30 12306 H 1165.6 1.80116 -3.47382 0
M  V30 12307 H 1165.22 3.15446 -2.42032 0
M  V30 12308 N 1166.22 1.31629 0.866686 0
M  V30 12309 C 1167.45 1.24609 1.65793 0
M  V30 12310 C 1167.87 -0.184944 1.87189 0
M  V30 12311 O 1167.23 -1.1322 1.41601 0
M  V30 12312 C 1167.28 1.9988 3.00134 0
M  V30 12313 O 1166.38 1.33838 3.90079 0
M  V30 12314 H 1165.72 0.430051 0.505917 0
M  V30 12315 H 1168.25 1.73752 1.08035 0
M  V30 12316 H 1168.26 2.09599 3.50046 0
M  V30 12317 H 1166.94 3.03947 2.83882 0
M  V30 12318 H 1165.51 1.3259 3.48532 0
M  V30 12319 N 1167.7 -1.08142 1.14644 0
M  V30 12320 C 1168.95 -1.80849 0.917685 0
M  V30 12321 C 1169.28 -1.86123 -0.554249 0
M  V30 12322 O 1168.55 -1.33907 -1.41065 0
M  V30 12323 C 1168.84 -3.26325 1.52264 0
M  V30 12324 C 1168.69 -3.29244 3.06461 0
M  V30 12325 C 1170.01 -4.23375 1.20175 0
M  V30 12326 H 1167.13 -0.656559 0.334812 0
M  V30 12327 H 1169.77 -1.26595 1.41682 0
M  V30 12328 H 1167.92 -3.72656 1.09817 0
M  V30 12329 H 1169.59 -2.91216 3.57758 0
M  V30 12330 H 1167.83 -2.68438 3.40769 0
M  V30 12331 H 1168.51 -4.31785 3.43897 0
M  V30 12332 H 1170.98 -3.85394 1.56877 0
M  V30 12333 H 1169.86 -5.23472 1.65132 0
M  V30 12334 H 1170.12 -4.41944 0.117474 0
M  V30 12335 N 1169.18 -0.941978 -1.26351 0
M  V30 12336 C 1170.45 -0.507822 -1.88893 0
M  V30 12337 C 1170.83 1.0146 -1.85119 0
M  V30 12338 O 1170.18 1.87495 -1.30606 0
M  V30 12339 C 1170.39 -1.07007 -3.3219 0
M  V30 12340 C 1171.74 -1.13922 -4.09032 0
M  V30 12341 O 1172.76 -1.02072 -3.41262 0
M  V30 12342 O 1171.62 -1.32362 -5.30229 0
M  V30 12343 H 1168.72 -0.165621 -0.810246 0
M  V30 12344 H 1171.26 -1.03459 -1.34515 0
M  V30 12345 H 1170.04 -2.11366 -3.29302 0
M  V30 12346 H 1169.66 -0.525797 -3.94108 0
M  V30 12347 N 1170.66 1.40747 -0.709091 0
M  V30 12348 C 1171.9 2.013 -0.246174 0
M  V30 12349 C 1172.23 1.56078 1.15556 0
M  V30 12350 O 1171.51 0.777941 1.78265 0
M  V30 12351 C 1171.79 3.58685 -0.318945 0
M  V30 12352 C 1171.65 4.13997 -1.75859 0
M  V30 12353 C 1172.96 4.38981 0.31358 0
M  V30 12354 H 1170.08 0.73137 -0.0909255 0
M  V30 12355 H 1172.73 1.67312 -0.900365 0
M  V30 12356 H 1170.88 3.8777 0.23805 0
M  V30 12357 H 1172.55 3.95735 -2.37047 0
M  V30 12358 H 1170.79 3.6853 -2.28841 0
M  V30 12359 H 1171.46 5.23158 -1.76095 0
M  V30 12360 H 1173.94 4.15789 -0.160939 0
M  V30 12361 H 1172.81 5.48409 0.232184 0
M  V30 12362 H 1173.07 4.19474 1.39621 0
M  V30 12363 N 1172.13 0.454803 1.50895 0
M  V30 12364 C 1173.55 0.108037 1.59234 0
M  V30 12365 C 1173.75 -1.38416 1.46435 0
M  V30 12366 O 1172.81 -2.15586 1.31449 0
M  V30 12367 C 1174.12 0.643721 2.93729 0
M  V30 12368 C 1175.67 0.605703 3.07083 0
M  V30 12369 C 1176.14 1.11865 4.44128 0
M  V30 12370 N 1177.63 1.07738 4.50496 0
M  V30 12371 C 1178.37 1.44495 5.54895 0
M  V30 12372 N 1177.86 1.88624 6.66628 0
M  V30 12373 N 1179.66 1.36201 5.45349 0
M  V30 12374 H 1171.81 1.4255 1.57459 0
M  V30 12375 H 1174.07 0.588504 0.743214 0
M  V30 12376 H 1173.78 1.68844 3.0852 0
M  V30 12377 H 1173.65 0.0782404 3.77119 0
M  V30 12378 H 1176.04 -0.430065 2.91949 0
M  V30 12379 H 1176.12 1.2078 2.2549 0
M  V30 12380 H 1175.76 2.15297 4.6001 0
M  V30 12381 H 1175.69 0.492933 5.24288 0
M  V30 12382 H 1178.18 0.753526 3.70311 0
M  V30 12383 H 1178.5 2.14863 7.4233 0
M  V30 12384 H 1176.84 1.92564 6.6779 0
M  V30 12385 H 1180.03 1.01579 4.56946 0
M  V30 12386 H 1180.21 1.65175 6.26595 0
M  V30 12387 N 1173.61 -1.56489 0.186789 0
M  V30 12388 C 1174.84 -2.02163 -0.463126 0
M  V30 12389 C 1175.26 -1.06612 -1.54969 0
M  V30 12390 O 1174.62 -0.0482139 -1.81236 0
M  V30 12391 C 1174.67 -3.46337 -1.00416 0
M  V30 12392 O 1173.77 -3.53889 -2.11747 0
M  V30 12393 H 1173.11 -0.65496 -0.109194 0
M  V30 12394 H 1175.64 -2.02459 0.295227 0
M  V30 12395 H 1175.65 -3.85959 -1.32287 0
M  V30 12396 H 1174.33 -4.15376 -0.208693 0
M  V30 12397 H 1172.9 -3.26136 -1.80803 0
M  V30 12398 N 1175.09 0.086862 -1.5736 0
M  V30 12399 C 1176.32 0.801004 -1.9044 0
M  V30 12400 C 1176.73 1.72396 -0.779513 0
M  V30 12401 O 1176.07 1.81894 0.256972 0
M  V30 12402 C 1176.13 1.66055 -3.18851 0
M  V30 12403 C 1175.8 0.908561 -4.47877 0
M  V30 12404 C 1176.79 0.234621 -5.1937 0
M  V30 12405 C 1174.48 0.8802 -4.94528 0
M  V30 12406 C 1176.47 -0.45762 -6.35755 0
M  V30 12407 C 1174.16 0.184179 -6.10822 0
M  V30 12408 C 1175.16 -0.483545 -6.81286 0
M  V30 12409 O 1174.85 -1.16839 -7.95364 0
M  V30 12410 H 1174.58 0.233794 -0.634284 0
M  V30 12411 H 1177.13 0.0660113 -2.05294 0
M  V30 12412 H 1175.36 2.43798 -3.00165 0
M  V30 12413 H 1177.05 2.252 -3.37698 0
M  V30 12414 H 1177.82 0.247938 -4.84366 0
M  V30 12415 H 1173.7 1.38938 -4.39565 0
M  V30 12416 H 1177.24 -0.979369 -6.90691 0
M  V30 12417 H 1173.14 0.168737 -6.45279 0
M  V30 12418 H 1173.9 -1.07612 -8.11395 0
M  V30 12419 N 1176.57 1.53483 0.357892 0
M  V30 12420 C 1177.82 1.69256 1.09706 0
M  V30 12421 C 1178.13 0.454888 1.90237 0
M  V30 12422 O 1179.34 0.4933 2.66981 0
M  V30 12423 C 1177.79 2.99238 1.99961 0
M  V30 12424 C 1177.4 4.30293 1.24706 0
M  V30 12425 C 1179.14 3.24378 2.73823 0
M  V30 12426 C 1177.05 5.5136 2.13907 0
M  V30 12427 H 1175.98 0.630657 0.413265 0
M  V30 12428 H 1178.63 1.79983 0.357518 0
M  V30 12429 H 1177.01 2.82332 2.77677 0
M  V30 12430 H 1178.19 4.57857 0.519995 0
M  V30 12431 H 1176.5 4.11656 0.626736 0
M  V30 12432 H 1179.1 4.12015 3.40805 0
M  V30 12433 H 1179.44 2.40769 3.39612 0
M  V30 12434 H 1179.98 3.41994 2.03187 0
M  V30 12435 H 1176.71 6.3747 1.52684 0
M  V30 12436 H 1176.23 5.28065 2.84442 0
M  V30 12437 H 1177.91 5.86448 2.7329 0
M  V30 12438 N 1178.05 -0.61812 1.44973 0
M  V30 12439 C 1179.01 -1.71135 1.52465 0
M  V30 12440 C 1180.01 -1.5561 0.405246 0
M  V30 12441 O 1181.2 -1.60869 0.668351 0
M  V30 12442 C 1178.33 -3.10324 1.41108 0
M  V30 12443 H 1179.52 -1.65862 2.49859 0
M  V30 12444 H 1177.08 -0.832932 1.32257 0
M  V30 12445 H 1177.81 -3.21183 0.448574 0
M  V30 12446 H 1177.6 -3.23001 2.2229 0
M  V30 12447 H 1179.09 -3.89976 1.49361 0
M  V30 12448 N 1179.52 -1.32087 -0.859693 0
M  V30 12449 C 1180.94 -1.10968 -1.14709 0
M  V30 12450 C 1181.14 0.113139 -2.01182 0
M  V30 12451 O 1180.2 0.799499 -2.39508 0
M  V30 12452 C 1181.51 -2.38657 -1.8293 0
M  V30 12453 C 1183.06 -2.44366 -1.95587 0
M  V30 12454 C 1183.53 -3.71963 -2.67222 0
M  V30 12455 N 1185.02 -3.72916 -2.7475 0
M  V30 12456 C 1185.76 -4.68346 -3.30816 0
M  V30 12457 N 1185.25 -5.74139 -3.87732 0
M  V30 12458 N 1187.05 -4.55851 -3.28872 0
M  V30 12459 H 1179.2 -2.10497 -0.283711 0
M  V30 12460 H 1181.46 -0.929108 -0.188315 0
M  V30 12461 H 1181.17 -3.2803 -1.26844 0
M  V30 12462 H 1181.04 -2.49236 -2.83128 0
M  V30 12463 H 1183.43 -1.55456 -2.50833 0
M  V30 12464 H 1183.51 -2.37744 -0.944001 0
M  V30 12465 H 1183.15 -4.61245 -2.1264 0
M  V30 12466 H 1183.08 -3.75855 -3.68837 0
M  V30 12467 H 1185.57 -2.96447 -2.34367 0
M  V30 12468 H 1185.89 -6.43021 -4.28654 0
M  V30 12469 H 1184.23 -5.779 -3.86078 0
M  V30 12470 H 1187.42 -3.72371 -2.83651 0
M  V30 12471 H 1187.6 -5.30398 -3.72266 0
M  V30 12472 N 1181 1.07532 -1.15215 0
M  V30 12473 C 1182.23 1.84356 -0.950139 0
M  V30 12474 C 1182.65 1.81429 0.496502 0
M  V30 12475 O 1182.01 1.20589 1.35381 0
M  V30 12476 C 1182.06 3.29425 -1.46669 0
M  V30 12477 O 1181.16 4.07008 -0.664674 0
M  V30 12478 H 1180.5 0.570921 -0.339036 0
M  V30 12479 H 1183.03 1.35665 -1.53154 0
M  V30 12480 H 1183.04 3.8026 -1.47873 0
M  V30 12481 H 1181.72 3.3087 -2.51988 0
M  V30 12482 H 1180.29 3.65841 -0.72211 0
M  V30 12483 N 1182.48 0.948665 1.2585 0
M  V30 12484 C 1183.41 0.482036 2.2847 0
M  V30 12485 C 1184.39 -0.468553 1.63519 0
M  V30 12486 O 1185.58 -0.368796 1.90666 0
M  V30 12487 C 1182.71 -0.246603 3.46423 0
M  V30 12488 C 1181.66 0.61815 4.23513 0
M  V30 12489 C 1180.99 -0.240884 5.34157 0
M  V30 12490 C 1182.29 1.89327 4.86778 0
M  V30 12491 H 1183.98 1.33973 2.67753 0
M  V30 12492 H 1181.53 0.645645 1.28715 0
M  V30 12493 H 1183.48 -0.584135 4.17332 0
M  V30 12494 H 1182.2 -1.13849 3.06114 0
M  V30 12495 H 1180.86 0.938682 3.54379 0
M  V30 12496 H 1180.51 -1.13235 4.90089 0
M  V30 12497 H 1180.21 0.334367 5.86648 0
M  V30 12498 H 1181.73 -0.573517 6.07901 0
M  V30 12499 H 1183.15 1.62252 5.49861 0
M  V30 12500 H 1181.55 2.41369 5.49419 0
M  V30 12501 H 1182.62 2.60006 4.09298 0
M  V30 12502 N 1183.96 -1.40369 0.716545 0
M  V30 12503 C 1185.21 -2.00101 0.253452 0
M  V30 12504 C 1185.52 -1.57471 -1.16027 0
M  V30 12505 O 1186.73 -2.09909 -1.72193 0
M  V30 12506 C 1185.18 -3.57645 0.402213 0
M  V30 12507 C 1184.79 -4.09248 1.82264 0
M  V30 12508 C 1186.53 -4.245 -3.88526e-05 0
M  V30 12509 C 1184.44 -5.59299 1.92193 0
M  V30 12510 H 1183.37 -0.748488 0.0910047 0
M  V30 12511 H 1186.02 -1.60595 0.887772 0
M  V30 12512 H 1184.4 -3.94857 -0.300706 0
M  V30 12513 H 1185.58 -3.83412 2.55601 0
M  V30 12514 H 1183.89 -3.54993 2.17644 0
M  V30 12515 H 1186.49 -5.34673 0.0534202 0
M  V30 12516 H 1186.83 -4.03046 -1.04208 0
M  V30 12517 H 1187.37 -3.92398 0.65336 0
M  V30 12518 H 1184.11 -5.85608 2.94522 0
M  V30 12519 H 1183.63 -5.86997 1.23268 0
M  V30 12520 H 1185.3 -6.24416 1.6945 0
M  V30 12521 N 1185.44 -0.462799 -1.50652 0
M  V30 12522 C 1186.71 0.156221 -1.94975 0
M  V30 12523 C 1187.09 1.5775 -1.40279 0
M  V30 12524 O 1186.44 2.20473 -0.600323 0
M  V30 12525 C 1186.65 0.108008 -3.48833 0
M  V30 12526 C 1188 0.301013 -4.23532 0
M  V30 12527 O 1189.02 0.184973 -3.55719 0
M  V30 12528 O 1187.88 0.534457 -5.4388 0
M  V30 12529 H 1184.98 0.116182 -0.818798 0
M  V30 12530 H 1187.52 -0.522607 -1.61453 0
M  V30 12531 H 1186.29 -0.884634 -3.81169 0
M  V30 12532 H 1185.92 0.828653 -3.88869 0
M  V30 12533 N 1186.91 1.56388 -0.195085 0
M  V30 12534 C 1188.16 1.97189 0.44281 0
M  V30 12535 C 1188.48 1.08312 1.62153 0
M  V30 12536 O 1187.75 0.154404 1.95291 0
M  V30 12537 H 1186.33 0.728188 0.166585 0
M  V30 12538 H 1189 1.92852 -0.281815 0
M  V30 12539 H 1188.09 3.02016 0.786945 0
M  V30 12540 N 1188.39 -0.0785156 1.57404 0
M  V30 12541 C 1189.64 -0.778938 1.86919 0
M  V30 12542 C 1189.97 -1.77915 0.785906 0
M  V30 12543 O 1189.22 -1.94473 -0.218811 0
M  V30 12544 C 1189.52 -1.52826 3.23078 0
M  V30 12545 C 1189.19 -0.668645 4.45915 0
M  V30 12546 C 1187.85 -0.43173 4.79259 0
M  V30 12547 C 1190.2 -0.0721327 5.2115 0
M  V30 12548 C 1187.53 0.41129 5.85257 0
M  V30 12549 C 1189.88 0.758303 6.28039 0
M  V30 12550 C 1188.55 1.00515 6.59889 0
M  V30 12551 H 1187.82 -0.285034 0.683986 0
M  V30 12552 H 1190.46 -0.039906 1.91458 0
M  V30 12553 H 1188.77 -2.33931 3.14299 0
M  V30 12554 H 1190.46 -2.07488 3.43147 0
M  V30 12555 H 1187.05 -0.863424 4.19813 0
M  V30 12556 H 1191.24 -0.242297 4.95708 0
M  V30 12557 H 1186.49 0.611354 6.08336 0
M  V30 12558 H 1190.67 1.2273 6.855 0
M  V30 12559 H 1188.3 1.66017 7.41851 0
M  V30 12560 N 1189.87 -1.5367 -0.349747 0
M  V30 12561 C 1190.78 -1.84207 -1.45275 0
M  V30 12562 C 1191.8 -0.731695 -1.57868 0
M  V30 12563 O 1192.97 -1.02337 -1.73462 0
M  V30 12564 C 1190.04 -2.0398 -2.80345 0
M  V30 12565 C 1189.1 -3.27853 -2.77148 0
M  V30 12566 C 1188.33 -3.46673 -4.05775 0
M  V30 12567 O 1188.55 -2.69457 -5.02741 0
M  V30 12568 O 1187.49 -4.40082 -4.10623 0
M  V30 12569 H 1191.31 -2.77947 -1.22389 0
M  V30 12570 H 1188.9 -1.39247 -0.541345 0
M  V30 12571 H 1190.78 -2.18466 -3.60348 0
M  V30 12572 H 1189.46 -1.13429 -3.03176 0
M  V30 12573 H 1188.36 -3.18776 -1.95787 0
M  V30 12574 H 1189.7 -4.18377 -2.59271 0
M  V30 12575 N 1191.35 0.610423 -1.45298 0
M  V30 12576 C 1192.6 1.3668 -1.48872 0
M  V30 12577 C 1192.92 1.94562 -0.130686 0
M  V30 12578 O 1192.19 1.76996 0.839607 0
M  V30 12579 H 1190.77 0.507393 -0.548235 0
M  V30 12580 H 1193.43 0.716997 -1.81232 0
M  V30 12581 H 1192.53 2.18766 -2.22593 0
M  V30 12582 N 1192.83 1.32541 0.852676 0
M  V30 12583 C 1194.24 1.20863 1.42299 0
M  V30 12584 C 1194.59 -0.178051 1.9539 0
M  V30 12585 O 1193.71 -1.07689 1.87702 0
M  V30 12586 C 1194.31 2.18811 2.58664 0
M  V30 12587 C 1192.87 2.11015 3.11689 0
M  V30 12588 C 1192.01 2.07067 1.84441 0
M  V30 12589 H 1194.97 1.44341 0.659657 0
M  V30 12590 H 1194.99 1.78779 3.35884 0
M  V30 12591 H 1194.5 3.19726 2.19993 0
M  V30 12592 H 1192.6 1.13354 3.54939 0
M  V30 12593 H 1192.71 3.00929 3.72799 0
M  V30 12594 H 1191.08 1.52335 2.04123 0
M  V30 12595 H 1191.86 3.09767 1.47984 0
M  V30 12596 N 1194.3 -1.0692 1.15784 0
M  V30 12597 C 1195.53 -1.83849 0.959903 0
M  V30 12598 C 1195.95 -1.8169 -0.486873 0
M  V30 12599 O 1195.31 -1.21305 -1.34739 0
M  V30 12600 C 1195.36 -3.28642 1.48414 0
M  V30 12601 O 1194.46 -4.0665 0.686249 0
M  V30 12602 H 1193.81 -0.569115 0.342059 0
M  V30 12603 H 1196.34 -1.34851 1.53871 0
M  V30 12604 H 1196.35 -3.7947 1.49888 0
M  V30 12605 H 1195.02 -3.29529 2.53739 0
M  V30 12606 H 1193.6 -3.65453 0.741501 0
M  V30 12607 N 1195.78 -0.955326 -1.25345 0
M  V30 12608 C 1197.03 -0.609278 -1.92697 0
M  V30 12609 C 1197.35 0.856535 -1.75181 0
M  V30 12610 O 1196.62 1.61013 -1.11587 0
M  V30 12611 H 1195.2 -0.22235 -0.713141 0
M  V30 12612 H 1197.86 -1.21372 -1.52496 0
M  V30 12613 H 1196.96 -0.839198 -3.00606 0
M  V30 12614 N 1197.26 1.39987 -0.723979 0
M  V30 12615 C 1198.49 2.0474 -0.276618 0
M  V30 12616 C 1198.9 1.54675 1.0896 0
M  V30 12617 O 1198.24 0.701956 1.69759 0
M  V30 12618 C 1198.3 3.59009 -0.187912 0
M  V30 12619 C 1197.97 4.32 -1.49079 0
M  V30 12620 C 1198.97 4.59385 -2.43436 0
M  V30 12621 C 1196.65 4.70753 -1.75204 0
M  V30 12622 C 1198.64 5.24519 -3.62159 0
M  V30 12623 C 1196.33 5.35617 -2.94206 0
M  V30 12624 C 1197.33 5.62431 -3.87506 0
M  V30 12625 O 1197.02 6.25952 -5.0442 0
M  V30 12626 H 1196.75 0.665164 -0.120554 0
M  V30 12627 H 1199.3 1.80226 -0.98527 0
M  V30 12628 H 1197.53 3.82375 0.576753 0
M  V30 12629 H 1199.22 4.0527 0.225993 0
M  V30 12630 H 1199.99 4.29902 -2.24519 0
M  V30 12631 H 1195.87 4.49247 -1.03433 0
M  V30 12632 H 1199.41 5.45364 -4.34999 0
M  V30 12633 H 1195.31 5.64521 -3.13029 0
M  V30 12634 H 1196.08 6.44448 -5.04608 0
M  V30 12635 N 1198.74 0.470782 1.50404 0
M  V30 12636 C 1199.96 -0.084284 2.07229 0
M  V30 12637 C 1200.39 -1.32774 1.33239 0
M  V30 12638 O 1199.75 -1.77274 0.379971 0
M  V30 12639 C 1199.8 -0.351565 3.58882 0
M  V30 12640 O 1198.9 -1.43211 3.86736 0
M  V30 12641 H 1198.24 0.0128479 0.663876 0
M  V30 12642 H 1200.77 0.661735 1.93603 0
M  V30 12643 H 1200.78 -0.592151 4.0368 0
M  V30 12644 H 1199.46 0.557084 4.12152 0
M  V30 12645 H 1198.03 -1.17886 3.53776 0
M  V30 12646 N 1200.22 -1.56282 0.203376 0
M  V30 12647 C 1201.15 -2.16714 -0.74616 0
M  V30 12648 C 1202.16 -1.13121 -1.17079 0
M  V30 12649 O 1203.35 -1.40179 -1.10509 0
M  V30 12650 C 1200.45 -2.72115 -2.02007 0
M  V30 12651 C 1199.62 -4.00695 -1.75391 0
M  V30 12652 C 1198.68 -4.40839 -2.8731 0
M  V30 12653 O 1197.71 -5.081 -2.56561 0
M  V30 12654 N 1198.91 -4.05024 -4.15856 0
M  V30 12655 H 1201.68 -2.98821 -0.229326 0
M  V30 12656 H 1199.24 -1.61885 0.0217049 0
M  V30 12657 H 1201.23 -2.95951 -2.76035 0
M  V30 12658 H 1199.8 -1.94415 -2.44789 0
M  V30 12659 H 1199.02 -3.84905 -0.851 0
M  V30 12660 H 1200.31 -4.8461 -1.55017 0
M  V30 12661 H 1199.71 -3.50938 -4.43688 0
M  V30 12662 H 1198.26 -4.33792 -4.86485 0
M  V30 12663 N 1201.7 0.070167 -1.57444 0
M  V30 12664 C 1203.11 0.424991 -1.53838 0
M  V30 12665 C 1203.31 1.79076 -0.923793 0
M  V30 12666 O 1202.37 2.46939 -0.527002 0
M  V30 12667 C 1203.68 0.364562 -2.98482 0
M  V30 12668 C 1205.23 0.444631 -3.09826 0
M  V30 12669 C 1205.7 0.414093 -4.56124 0
M  V30 12670 N 1207.19 0.474119 -4.60767 0
M  V30 12671 C 1207.93 0.472729 -5.71448 0
M  V30 12672 N 1207.43 0.426059 -6.91489 0
M  V30 12673 N 1209.22 0.519408 -5.59695 0
M  V30 12674 H 1201.37 -0.824117 -1.9576 0
M  V30 12675 H 1203.63 -0.309401 -0.896089 0
M  V30 12676 H 1203.34 -0.572343 -3.47012 0
M  V30 12677 H 1203.21 1.17414 -3.5846 0
M  V30 12678 H 1205.6 1.37196 -2.61269 0
M  V30 12679 H 1205.68 -0.393547 -2.52755 0
M  V30 12680 H 1205.32 -0.509394 -5.05339 0
M  V30 12681 H 1205.25 1.26983 -5.11061 0
M  V30 12682 H 1207.75 0.514371 -3.74383 0
M  V30 12683 H 1208.06 0.428969 -7.71609 0
M  V30 12684 H 1206.4 0.392722 -6.9389 0
M  V30 12685 H 1209.59 0.553573 -4.64815 0
M  V30 12686 H 1209.77 0.514856 -6.45951 0
M  V30 12687 N 1203.17 1.53854 0.341593 0
M  V30 12688 C 1204.42 1.71194 1.08162 0
M  V30 12689 C 1204.75 0.47614 1.88582 0
M  V30 12690 O 1204 -0.542115 1.88041 0
M  V30 12691 C 1204.3 2.92844 2.04884 0
M  V30 12692 C 1203.97 4.28366 1.40759 0
M  V30 12693 C 1202.63 4.65214 1.23 0
M  V30 12694 C 1204.98 5.12546 0.945819 0
M  V30 12695 C 1202.31 5.83857 0.576852 0
M  V30 12696 C 1204.66 6.31857 0.306568 0
M  V30 12697 C 1203.33 6.67398 0.116677 0
M  V30 12698 H 1202.6 0.626442 0.395792 0
M  V30 12699 H 1205.24 1.88073 0.360688 0
M  V30 12700 H 1203.55 2.70576 2.83365 0
M  V30 12701 H 1205.25 3.03454 2.62139 0
M  V30 12702 H 1201.84 3.99366 1.5558 0
M  V30 12703 H 1206.02 4.84609 1.07087 0
M  V30 12704 H 1201.28 6.09967 0.418363 0
M  V30 12705 H 1205.45 6.96375 -0.0593285 0
M  V30 12706 H 1203.08 7.59191 -0.391477 0
M  V30 12707 N 1204.65 -0.602709 1.4562 0
M  V30 12708 C 1205.9 -1.35889 1.49595 0
M  V30 12709 C 1206.22 -1.9449 0.141002 0
M  V30 12710 O 1205.49 -1.77438 -0.830209 0
M  V30 12711 H 1204.07 -0.504478 0.550918 0
M  V30 12712 H 1206.73 -0.707376 1.8161 0
M  V30 12713 H 1205.83 -2.17583 2.2375 0
M  V30 12714 N 1206.13 -1.32992 -0.845635 0
M  V30 12715 C 1207.06 -1.25301 -1.97033 0
M  V30 12716 C 1208.04 -0.134966 -1.69564 0
M  V30 12717 O 1209.23 -0.323629 -1.91484 0
M  V30 12718 C 1206.36 -0.984551 -3.33052 0
M  V30 12719 C 1205.31 -2.06481 -3.749 0
M  V30 12720 C 1204.64 -1.6486 -5.08651 0
M  V30 12721 C 1205.94 -3.48083 -3.89404 0
M  V30 12722 H 1207.63 -2.194 -2.03725 0
M  V30 12723 H 1205.18 -1.05621 -0.978783 0
M  V30 12724 H 1207.13 -0.917269 -4.11296 0
M  V30 12725 H 1205.85 -0.00793116 -3.26599 0
M  V30 12726 H 1204.51 -2.1224 -2.98915 0
M  V30 12727 H 1204.16 -0.659183 -4.98662 0
M  V30 12728 H 1203.86 -2.37145 -5.37621 0
M  V30 12729 H 1205.38 -1.59585 -5.89377 0
M  V30 12730 H 1206.8 -3.44863 -4.57976 0
M  V30 12731 H 1205.19 -4.18796 -4.29802 0
M  V30 12732 H 1206.26 -3.87084 -2.92051 0
M  V30 12733 N 1207.61 1.06304 -1.1635 0
M  V30 12734 C 1208.56 2.12032 -0.83825 0
M  V30 12735 C 1209.54 1.59864 0.182254 0
M  V30 12736 O 1210.73 1.7699 -0.0185576 0
M  V30 12737 C 1207.86 3.41603 -0.340968 0
M  V30 12738 C 1206.95 4.00596 -1.39225 0
M  V30 12739 N 1207.34 4.33703 -2.6026 0
M  V30 12740 C 1205.64 4.28199 -1.24748 0
M  V30 12741 C 1206.34 4.80595 -3.27725 0
M  V30 12742 N 1205.31 4.80023 -2.55105 0
M  V30 12743 H 1209.12 2.35475 -1.75866 0
M  V30 12744 H 1206.63 1.23845 -1.05053 0
M  V30 12745 H 1208.63 4.16804 -0.0895629 0
M  V30 12746 H 1207.29 3.19598 0.57337 0
M  V30 12747 H 1208.3 4.24055 -2.97318 0
M  V30 12748 H 1204.98 4.15638 -0.393887 0
M  V30 12749 H 1206.37 5.15416 -4.31041 0
M  V30 12750 N 1209.09 0.96196 1.24836 0
M  V30 12751 C 1210.04 0.458643 2.23339 0
M  V30 12752 C 1211.02 -0.456178 1.54298 0
M  V30 12753 O 1212.21 -0.288036 1.74641 0
M  V30 12754 C 1209.34 -0.255381 3.42349 0
M  V30 12755 C 1208.43 0.677934 4.18646 0
M  V30 12756 N 1208.82 1.81273 4.72201 0
M  V30 12757 C 1207.12 0.487577 4.43327 0
M  V30 12758 C 1207.82 2.39604 5.30061 0
M  V30 12759 N 1206.79 1.68179 5.1693 0
M  V30 12760 H 1210.59 1.32459 2.62358 0
M  V30 12761 H 1208.11 0.820343 1.40158 0
M  V30 12762 H 1210.11 -0.633142 4.12064 0
M  V30 12763 H 1208.77 -1.11784 3.04852 0
M  V30 12764 H 1209.78 2.19441 4.69112 0
M  V30 12765 H 1206.45 -0.331392 4.16183 0
M  V30 12766 H 1207.84 3.35334 5.82237 0
M  V30 12767 N 1210.56 -1.39601 0.731392 0
M  V30 12768 C 1211.81 -2.00883 0.278168 0
M  V30 12769 C 1212.14 -1.57897 -1.13059 0
M  V30 12770 O 1211.42 -0.806203 -1.77005 0
M  V30 12771 C 1211.7 -3.58132 0.375969 0
M  V30 12772 C 1211.55 -4.11147 1.82423 0
M  V30 12773 C 1212.87 -4.39425 -0.243702 0
M  V30 12774 H 1209.99 -0.729831 0.102549 0
M  V30 12775 H 1212.63 -1.65859 0.926869 0
M  V30 12776 H 1210.78 -3.881 -0.176329 0
M  V30 12777 H 1212.46 -3.91914 2.43313 0
M  V30 12778 H 1210.7 -3.64842 2.34675 0
M  V30 12779 H 1211.37 -5.20291 1.84396 0
M  V30 12780 H 1213.85 -4.1548 0.227067 0
M  V30 12781 H 1212.72 -5.48709 -0.144907 0
M  V30 12782 H 1212.98 -4.21642 -1.32929 0
M  V30 12783 N 1212.04 -0.478751 -1.50152 0
M  V30 12784 C 1212.99 0.325375 -2.30313 0
M  V30 12785 C 1213.98 0.983372 -1.37935 0
M  V30 12786 O 1215.19 0.913601 -1.55091 0
M  V30 12787 H 1211.57 0.123775 -0.741744 0
M  V30 12788 H 1213.54 -0.371004 -2.96085 0
M  V30 12789 C 1212.29 1.39026 -3.18696 0
M  V30 12790 H 1211.61 0.893329 -3.89692 0
M  V30 12791 H 1213.05 1.92533 -3.77766 0
M  V30 12792 C 1211.51 2.39637 -2.36803 0
M  V30 12793 O 1212.04 3.45067 -2.05649 0
M  V30 12794 N 1210.24 2.11546 -1.9924 0
M  V30 12795 H 1209.79 1.25832 -2.24775 0
M  V30 12796 H 1209.75 2.79096 -1.44751 0
M  V30 12797 N 1213.52 1.56172 -0.211661 0
M  V30 12798 C 1214.77 1.98039 0.422706 0
M  V30 12799 C 1215.1 1.09904 1.60472 0
M  V30 12800 O 1214.35 0.141771 1.95186 0
M  V30 12801 C 1214.65 3.45636 0.909442 0
M  V30 12802 C 1214.32 4.50613 -0.160982 0
M  V30 12803 C 1212.98 4.79043 -0.455064 0
M  V30 12804 C 1215.33 5.13624 -0.885426 0
M  V30 12805 C 1212.66 5.67771 -1.47828 0
M  V30 12806 C 1215.01 6.03459 -1.8979 0
M  V30 12807 C 1213.67 6.30238 -2.19901 0
M  V30 12808 H 1212.94 0.724676 0.154679 0
M  V30 12809 H 1215.59 1.8894 -0.312106 0
M  V30 12810 H 1213.9 3.51889 1.72283 0
M  V30 12811 H 1215.59 3.75395 1.40995 0
M  V30 12812 H 1212.18 4.28528 0.0783864 0
M  V30 12813 H 1216.37 4.91737 -0.671463 0
M  V30 12814 H 1211.62 5.86787 -1.7173 0
M  V30 12815 H 1215.8 6.51338 -2.46438 0
M  V30 12816 H 1213.42 6.98788 -2.9933 0
M  V30 12817 N 1215 -0.0618163 1.57479 0
M  V30 12818 C 1216.22 -0.775513 1.92355 0
M  V30 12819 C 1216.65 -1.69816 0.808949 0
M  V30 12820 O 1216.01 -1.79736 -0.23761 0
M  V30 12821 C 1216.05 -1.5367 3.26218 0
M  V30 12822 O 1215.16 -2.64802 3.16155 0
M  V30 12823 H 1214.5 -0.210909 0.629614 0
M  V30 12824 H 1217.03 -0.0270752 2.04582 0
M  V30 12825 H 1217.04 -1.91379 3.6033 0
M  V30 12826 H 1215.71 -0.859798 4.06916 0
M  V30 12827 H 1214.29 -2.29876 2.93618 0
M  V30 12828 N 1216.48 -1.54033 -0.333429 0
M  V30 12829 C 1217.75 -1.62404 -1.09015 0
M  V30 12830 C 1218.13 -0.451653 -2.06212 0
M  V30 12831 O 1217.48 0.555086 -2.21655 0
M  V30 12832 C 1217.69 -2.98949 -1.80085 0
M  V30 12833 C 1219.04 -3.54655 -2.33464 0
M  V30 12834 O 1220.06 -3.0119 -1.90166 0
M  V30 12835 O 1218.92 -4.48195 -3.12703 0
M  V30 12836 H 1216.02 -0.65727 -0.501921 0
M  V30 12837 H 1218.56 -1.66378 -0.33411 0
M  V30 12838 H 1217.33 -3.75716 -1.09332 0
M  V30 12839 H 1216.96 -2.98609 -2.62523 0
M  V30 12840 N 1217.95 0.594978 -1.45938 0
M  V30 12841 C 1219.18 1.38482 -1.54394 0
M  V30 12842 C 1219.6 1.87222 -0.181563 0
M  V30 12843 O 1218.96 1.60869 0.836119 0
M  V30 12844 C 1219.01 2.55676 -2.54287 0
M  V30 12845 O 1218.11 3.5672 -2.06941 0
M  V30 12846 H 1217.46 0.412918 -0.519995 0
M  V30 12847 H 1219.99 0.722899 -1.91404 0
M  V30 12848 H 1220 3.02756 -2.73501 0
M  V30 12849 H 1218.67 2.19552 -3.53228 0
M  V30 12850 H 1217.25 3.16204 -1.97661 0
M  V30 12851 N 1219.43 1.33438 0.838571 0
M  V30 12852 C 1220.66 1.28097 1.63113 0
M  V30 12853 C 1221.08 -0.145197 1.87539 0
M  V30 12854 O 1220.44 -1.10191 1.43971 0
M  V30 12855 C 1220.49 2.06201 2.95827 0
M  V30 12856 O 1219.59 1.42082 3.87152 0
M  V30 12857 H 1218.93 0.440685 0.496681 0
M  V30 12858 H 1221.46 1.76004 1.04325 0
M  V30 12859 H 1221.47 2.16977 3.45521 0
M  V30 12860 H 1220.15 3.099 2.77371 0
M  V30 12861 H 1218.73 1.39953 3.45641 0
M  V30 12862 N 1220.91 -1.05686 1.16912 0
M  V30 12863 C 1221.86 -2.13312 0.88129 0
M  V30 12864 C 1222.83 -1.65199 -0.172783 0
M  V30 12865 O 1224.01 -1.90765 -0.0366542 0
M  V30 12866 C 1221.15 -3.42829 0.395264 0
M  V30 12867 C 1220.27 -4.04643 1.51288 0
M  V30 12868 C 1219.4 -5.22059 0.981238 0
M  V30 12869 C 1218.44 -5.75869 2.07464 0
M  V30 12870 N 1217.58 -6.84592 1.55813 0
M  V30 12871 H 1222.42 -2.37271 1.80295 0
M  V30 12872 H 1219.95 -1.16407 0.899322 0
M  V30 12873 H 1221.91 -4.17092 0.0950633 0
M  V30 12874 H 1220.54 -3.19068 -0.489445 0
M  V30 12875 H 1219.59 -3.27867 1.92891 0
M  V30 12876 H 1220.91 -4.40626 2.33774 0
M  V30 12877 H 1220.06 -6.03372 0.634586 0
M  V30 12878 H 1218.8 -4.87538 0.125754 0
M  V30 12879 H 1217.8 -4.93188 2.42992 0
M  V30 12880 H 1219.03 -6.12439 2.93419 0
M  V30 12881 H 1216.97 -6.51978 0.725283 0
M  V30 12882 H 1216.89 -7.19551 2.31911 0
M  V30 12883 H 1218.16 -7.6957 1.24025 0
M  V30 12884 N 1222.39 -0.968567 -1.24324 0
M  V30 12885 C 1223.61 -0.648166 -1.97012 0
M  V30 12886 C 1224.04 0.775842 -1.71354 0
M  V30 12887 O 1223.4 1.52672 -0.977804 0
M  V30 12888 C 1223.44 -0.929974 -3.48402 0
M  V30 12889 O 1222.55 -0.015854 -4.12397 0
M  V30 12890 H 1221.89 -0.244961 -0.617163 0
M  V30 12891 H 1224.42 -1.29895 -1.58077 0
M  V30 12892 H 1224.43 -0.861863 -3.98793 0
M  V30 12893 H 1223.1 -1.96776 -3.66404 0
M  V30 12894 H 1221.68 -0.137361 -3.72647 0
M  V30 12895 N 1223.87 1.39211 -0.738786 0
M  V30 12896 C 1225.28 1.54116 -0.414773 0
M  V30 12897 C 1225.48 1.70497 1.07392 0
M  V30 12898 O 1224.54 1.7076 1.86003 0
M  V30 12899 C 1225.85 2.7567 -1.2011 0
M  V30 12900 C 1227.4 2.89508 -1.1897 0
M  V30 12901 C 1227.87 4.14005 -1.95868 0
M  V30 12902 N 1229.37 4.21052 -1.93053 0
M  V30 12903 C 1230.1 5.16341 -2.49358 0
M  V30 12904 N 1229.6 6.17396 -3.14316 0
M  V30 12905 N 1231.39 5.08585 -2.3937 0
M  V30 12906 H 1223.54 1.26827 -1.70378 0
M  V30 12907 H 1225.8 0.614983 -0.721457 0
M  V30 12908 H 1225.51 2.69922 -2.25467 0
M  V30 12909 H 1225.38 3.68443 -0.808065 0
M  V30 12910 H 1227.77 2.94747 -0.144248 0
M  V30 12911 H 1227.85 1.97788 -1.62214 0
M  V30 12912 H 1227.5 4.09527 -3.00416 0
M  V30 12913 H 1227.43 5.04776 -1.50028 0
M  V30 12914 H 1229.92 3.48669 -1.45733 0
M  V30 12915 H 1230.23 6.86572 -3.54737 0
M  V30 12916 H 1228.57 6.17772 -3.18407 0
M  V30 12917 H 1231.77 4.28573 -1.88262 0
M  V30 12918 H 1231.94 5.8267 -2.83549 0
M  V30 12919 N 1225.34 0.486708 1.49896 0
M  V30 12920 C 1226.57 -0.0600816 2.06813 0
M  V30 12921 C 1226.99 -1.32112 1.34877 0
M  V30 12922 O 1226.34 -1.77537 0.422725 0
M  V30 12923 C 1226.4 -0.332266 3.5997 0
M  V30 12924 O 1226.12 0.878771 4.29196 0
M  V30 12925 C 1227.62 -0.924289 4.33557 0
M  V30 12926 H 1224.84 0.0140611 0.670853 0
M  V30 12927 H 1227.38 0.67997 1.92864 0
M  V30 12928 H 1225.54 -1.02227 3.73669 0
M  V30 12929 H 1225.95 0.632873 5.20668 0
M  V30 12930 H 1227.42 -1.06441 5.4164 0
M  V30 12931 H 1227.9 -1.91844 3.95085 0
M  V30 12932 H 1228.51 -0.272189 4.24428 0
M  V30 12933 N 1226.82 -1.56058 0.219941 0
M  V30 12934 C 1228.23 -1.84462 -0.288203 0
M  V30 12935 C 1228.59 -1.14128 -1.59591 0
M  V30 12936 O 1227.71 -0.410411 -2.12473 0
M  V30 12937 C 1228.31 -3.34634 -0.529689 0
M  V30 12938 C 1226.86 -3.63361 -0.982145 0
M  V30 12939 C 1226.01 -2.77265 -0.0443292 0
M  V30 12940 H 1228.96 -1.52387 0.44317 0
M  V30 12941 H 1228.98 -3.54752 -1.3759 0
M  V30 12942 H 1228.5 -3.85796 0.422243 0
M  V30 12943 H 1226.6 -3.17653 -1.94749 0
M  V30 12944 H 1226.71 -4.71361 -0.857668 0
M  V30 12945 H 1225.07 -2.48672 -0.550825 0
M  V30 12946 H 1225.86 -3.31225 0.902491 0
M  V30 12947 N 1228.3 0.053464 -1.57509 0
M  V30 12948 C 1229.72 0.408651 -1.5428 0
M  V30 12949 C 1229.92 1.78086 -0.942735 0
M  V30 12950 O 1228.97 2.46366 -0.553163 0
M  V30 12951 C 1230.29 0.332884 -2.98852 0
M  V30 12952 C 1231.83 0.411745 -3.1028 0
M  V30 12953 C 1232.31 0.365691 -4.56538 0
M  V30 12954 N 1233.8 0.425222 -4.61244 0
M  V30 12955 C 1234.54 0.412093 -5.71917 0
M  V30 12956 N 1234.03 0.352693 -6.91902 0
M  V30 12957 N 1235.82 0.460016 -5.60214 0
M  V30 12958 H 1227.98 -0.844834 -1.94875 0
M  V30 12959 H 1230.24 -0.318888 -0.892757 0
M  V30 12960 H 1229.94 -0.609116 -3.46385 0
M  V30 12961 H 1229.82 1.13605 -3.59686 0
M  V30 12962 H 1232.21 1.34417 -2.62709 0
M  V30 12963 H 1232.29 -0.420333 -2.52323 0
M  V30 12964 H 1231.93 -0.562963 -5.0477 0
M  V30 12965 H 1231.86 1.21555 -5.12379 0
M  V30 12966 H 1234.35 0.474634 -3.74908 0
M  V30 12967 H 1234.66 0.347105 -7.7202 0
M  V30 12968 H 1233.01 0.319104 -6.94267 0
M  V30 12969 H 1236.2 0.504242 -4.65376 0
M  V30 12970 H 1236.37 0.446315 -6.46461 0
M  V30 12971 N 1229.78 1.54207 0.325255 0
M  V30 12972 C 1230.73 1.83474 1.40021 0
M  V30 12973 C 1231.7 0.681719 1.51466 0
M  V30 12974 O 1232.88 0.92798 1.66713 0
M  V30 12975 C 1230.02 2.06624 2.76407 0
M  V30 12976 C 1229.13 3.3431 2.73607 0
M  V30 12977 C 1228.27 3.4743 4.01828 0
M  V30 12978 C 1227.31 4.68997 3.93329 0
M  V30 12979 N 1226.45 4.79052 5.13277 0
M  V30 12980 H 1231.29 2.75182 1.14363 0
M  V30 12981 H 1228.82 1.36284 0.553639 0
M  V30 12982 H 1230.78 2.18037 3.5569 0
M  V30 12983 H 1229.41 1.18209 3.00377 0
M  V30 12984 H 1228.46 3.31643 1.86324 0
M  V30 12985 H 1229.77 4.237 2.6321 0
M  V30 12986 H 1228.93 3.58376 4.89542 0
M  V30 12987 H 1227.67 2.56128 4.1503 0
M  V30 12988 H 1226.67 4.58109 3.04 0
M  V30 12989 H 1227.9 5.61681 3.81695 0
M  V30 12990 H 1225.84 3.90666 5.26988 0
M  V30 12991 H 1225.76 5.62406 5.05208 0
M  V30 12992 H 1227.03 4.94328 6.02711 0
M  V30 12993 N 1231.26 -0.58723 1.46251 0
M  V30 12994 C 1232.48 -1.37661 1.55126 0
M  V30 12995 C 1232.91 -1.87123 0.191489 0
M  V30 12996 O 1232.27 -1.6131 -0.827576 0
M  V30 12997 C 1232.31 -2.54324 2.5564 0
M  V30 12998 O 1231.42 -3.55617 2.0883 0
M  V30 12999 H 1230.76 -0.410154 0.522178 0
M  V30 13000 H 1233.29 -0.712738 1.91784 0
M  V30 13001 H 1233.3 -3.01301 2.75103 0
M  V30 13002 H 1231.97 -2.17675 3.54387 0
M  V30 13003 H 1230.55 -3.15151 1.99335 0
M  V30 13004 N 1232.74 -1.33881 -0.831482 0
M  V30 13005 C 1233.7 -1.24654 -1.92339 0
M  V30 13006 C 1234.7 -0.163788 -1.59964 0
M  V30 13007 O 1235.89 -0.415829 -1.69164 0
M  V30 13008 C 1233.02 -0.922537 -3.2818 0
M  V30 13009 H 1234.21 -2.21717 -2.01944 0
M  V30 13010 H 1231.77 -1.18046 -1.02445 0
M  V30 13011 H 1232.5 0.0452872 -3.24268 0
M  V30 13012 H 1232.29 -1.70562 -3.53059 0
M  V30 13013 H 1233.78 -0.88292 -4.0816 0
M  V30 13014 N 1234.21 1.05064 -1.1747 0
M  V30 13015 C 1235.44 1.81497 -0.987031 0
M  V30 13016 C 1235.85 1.83323 0.467921 0
M  V30 13017 O 1235.19 1.26006 1.33672 0
M  V30 13018 C 1235.26 3.28826 -1.45306 0
M  V30 13019 C 1234.92 3.50681 -2.93039 0
M  V30 13020 C 1235.92 3.42699 -3.90965 0
M  V30 13021 C 1233.6 3.77602 -3.31243 0
M  V30 13022 C 1235.6 3.61325 -5.25093 0
M  V30 13023 C 1233.28 3.95876 -4.65538 0
M  V30 13024 C 1234.28 3.87737 -5.62271 0
M  V30 13025 O 1233.97 4.055 -6.94136 0
M  V30 13026 H 1233.7 0.578734 -0.349347 0
M  V30 13027 H 1236.26 1.33373 -1.56208 0
M  V30 13028 H 1234.49 3.77872 -0.821581 0
M  V30 13029 H 1236.17 3.86788 -1.23085 0
M  V30 13030 H 1236.94 3.21877 -3.62795 0
M  V30 13031 H 1232.82 3.8304 -2.56517 0
M  V30 13032 H 1236.36 3.54888 -6.00583 0
M  V30 13033 H 1232.26 4.16191 -4.93412 0
M  V30 13034 H 1233.03 4.22718 -7.00894 0
M  V30 13035 N 1235.69 0.975146 1.23809 0
M  V30 13036 C 1236.94 0.641124 1.92083 0
M  V30 13037 C 1237.27 -0.824671 1.76152 0
M  V30 13038 O 1236.52 -1.6097 1.11298 0
M  V30 13039 C 1236.82 0.971016 3.43956 0
M  V30 13040 C 1236.49 2.42616 3.80063 0
M  V30 13041 C 1235.15 2.82386 3.8963 0
M  V30 13042 C 1237.5 3.37019 3.97577 0
M  V30 13043 C 1234.83 4.15585 4.14133 0
M  V30 13044 C 1237.18 4.69855 4.23579 0
M  V30 13045 C 1235.84 5.09391 4.31366 0
M  V30 13046 H 1235.11 0.234604 0.702881 0
M  V30 13047 H 1237.76 1.22803 1.46941 0
M  V30 13048 H 1236.07 0.301965 3.90635 0
M  V30 13049 H 1237.76 0.690858 3.95004 0
M  V30 13050 H 1234.35 2.10782 3.73187 0
M  V30 13051 H 1238.54 3.07474 3.89581 0
M  V30 13052 H 1233.79 4.45831 4.18383 0
M  V30 13053 H 1237.97 5.42966 4.36074 0
M  V30 13054 H 1235.59 6.12624 4.50106 0
M  V30 13055 N 1237.17 -1.38817 0.746158 0
M  V30 13056 C 1238.42 -2.0028 0.299016 0
M  V30 13057 C 1238.74 -1.59221 -1.11709 0
M  V30 13058 O 1238 -0.817595 -1.77803 0
M  V30 13059 C 1238.3 -3.55571 0.361086 0
M  V30 13060 C 1237.96 -4.16317 1.73179 0
M  V30 13061 C 1236.63 -4.32622 2.10693 0
M  V30 13062 C 1238.98 -4.49905 2.63126 0
M  V30 13063 C 1236.31 -4.79808 3.3764 0
M  V30 13064 C 1238.66 -4.98504 3.89457 0
M  V30 13065 C 1237.32 -5.13016 4.27049 0
M  V30 13066 H 1236.59 -0.732877 0.109418 0
M  V30 13067 H 1239.24 -1.65977 0.955186 0
M  V30 13068 H 1237.54 -3.89966 -0.378655 0
M  V30 13069 H 1239.24 -4.01 -0.00319228 0
M  V30 13070 H 1235.83 -4.04035 1.43015 0
M  V30 13071 H 1240.02 -4.36916 2.3541 0
M  V30 13072 H 1235.27 -4.89229 3.66695 0
M  V30 13073 H 1239.45 -5.23464 4.59302 0
M  V30 13074 H 1237.07 -5.4934 5.25481 0
M  V30 13075 N 1238.65 -0.49465 -1.49636 0
M  V30 13076 C 1239.88 0.0491129 -2.06842 0
M  V30 13077 C 1240.29 1.31395 -1.35576 0
M  V30 13078 O 1239.65 1.7731 -0.432135 0
M  V30 13079 C 1239.7 0.313171 -3.60141 0
M  V30 13080 O 1239.42 -0.90152 -4.28724 0
M  V30 13081 C 1240.92 0.901284 -4.34041 0
M  V30 13082 H 1238.14 -0.0176186 -0.670769 0
M  V30 13083 H 1240.68 -0.690188 -1.92501 0
M  V30 13084 H 1238.84 1.00244 -3.74206 0
M  V30 13085 H 1239.25 -0.660477 -5.20325 0
M  V30 13086 H 1240.73 1.03567 -5.42197 0
M  V30 13087 H 1241.2 1.89746 -3.96097 0
M  V30 13088 H 1241.81 0.249677 -4.24566 0
M  V30 13089 N 1240.13 1.55939 -0.228214 0
M  V30 13090 C 1241.35 2.0332 0.409364 0
M  V30 13091 C 1241.78 1.10683 1.52088 0
M  V30 13092 O 1241.13 0.0962484 1.81044 0
M  V30 13093 C 1241.18 3.48877 0.911981 0
M  V30 13094 O 1240.29 3.59378 2.02289 0
M  V30 13095 H 1239.63 0.657625 0.0917909 0
M  V30 13096 H 1242.16 2.01605 -0.348802 0
M  V30 13097 H 1242.17 3.89331 1.22007 0
M  V30 13098 H 1240.84 4.15783 0.0984902 0
M  V30 13099 H 1239.42 3.30815 1.72093 0
M  V30 13100 N 1241.6 -0.0451101 1.57535 0
M  V30 13101 C 1242.85 -0.738072 1.87711 0
M  V30 13102 C 1243.17 -1.7737 0.824579 0
M  V30 13103 O 1244.37 -2.51812 1.01503 0
M  V30 13104 C 1242.83 -1.36373 3.33062 0
M  V30 13105 C 1242.44 -0.365283 4.46508 0
M  V30 13106 C 1244.18 -2.0375 3.72406 0
M  V30 13107 C 1242.09 -0.998371 5.82912 0
M  V30 13108 H 1241.02 -0.279413 0.700317 0
M  V30 13109 H 1243.67 0.00802425 1.83498 0
M  V30 13110 H 1242.05 -2.15899 3.31969 0
M  V30 13111 H 1243.22 0.402102 4.59042 0
M  V30 13112 H 1241.54 0.205505 4.15893 0
M  V30 13113 H 1244.14 -2.51939 4.71625 0
M  V30 13114 H 1244.48 -2.84869 3.03571 0
M  V30 13115 H 1245.01 -1.3102 3.75604 0
M  V30 13116 H 1241.75 -0.226935 6.55107 0
M  V30 13117 H 1241.27 -1.73598 5.74129 0
M  V30 13118 H 1242.95 -1.51044 6.29122 0
M  V30 13119 N 1243.08 -1.54377 -0.317073 0
M  V30 13120 C 1244.33 -1.72105 -1.0518 0
M  V30 13121 C 1244.64 -0.505166 -1.88964 0
M  V30 13122 O 1245.85 -0.563912 -2.65579 0
M  V30 13123 C 1244.31 -3.04435 -1.91957 0
M  V30 13124 C 1243.91 -4.33449 -1.13253 0
M  V30 13125 C 1245.66 -3.31524 -2.65127 0
M  V30 13126 C 1243.57 -5.56837 -1.99214 0
M  V30 13127 H 1242.5 -0.641392 -0.396399 0
M  V30 13128 H 1245.15 -1.80868 -0.309673 0
M  V30 13129 H 1243.53 -2.89595 -2.70094 0
M  V30 13130 H 1244.7 -4.59074 -0.39842 0
M  V30 13131 H 1243.02 -4.13173 -0.517372 0
M  V30 13132 H 1245.61 -4.20906 -3.29761 0
M  V30 13133 H 1245.96 -2.49688 -3.33109 0
M  V30 13134 H 1246.49 -3.47261 -1.94048 0
M  V30 13135 H 1243.23 -6.41294 -1.35729 0
M  V30 13136 H 1242.75 -5.35421 -2.70341 0
M  V30 13137 H 1244.43 -5.93488 -2.57646 0
M  V30 13138 N 1244.56 0.579466 -1.4656 0
M  V30 13139 C 1245.47 1.71609 -1.59961 0
M  V30 13140 C 1246.49 1.67162 -0.483002 0
M  V30 13141 O 1247.66 1.87012 -0.747561 0
M  V30 13142 C 1244.73 3.08114 -1.58954 0
M  V30 13143 C 1243.79 3.238 -2.81872 0
M  V30 13144 C 1243.02 4.53794 -2.80904 0
M  V30 13145 O 1243.24 5.37884 -1.89835 0
M  V30 13146 O 1242.18 4.72796 -3.72488 0
M  V30 13147 H 1246 1.6325 -2.56092 0
M  V30 13148 H 1243.59 0.746891 -1.2939 0
M  V30 13149 H 1245.47 3.8939 -1.611 0
M  V30 13150 H 1244.15 3.16903 -0.65984 0
M  V30 13151 H 1243.05 2.42006 -2.85279 0
M  V30 13152 H 1244.39 3.19904 -3.74062 0
M  V30 13153 N 1246.04 1.3432 0.824371 0
M  V30 13154 C 1246.99 1.25776 1.93517 0
M  V30 13155 C 1247.96 0.133298 1.65564 0
M  V30 13156 O 1249.14 0.31403 1.88198 0
M  V30 13157 C 1246.28 1.01766 3.29754 0
M  V30 13158 C 1245.39 2.22973 3.7001 0
M  V30 13159 C 1244.53 1.92258 4.95187 0
M  V30 13160 C 1243.57 3.09616 5.2802 0
M  V30 13161 N 1242.7 2.78793 6.44375 0
M  V30 13162 H 1247.54 2.20774 2.00157 0
M  V30 13163 H 1245.08 1.09766 0.979274 0
M  V30 13164 H 1247.04 0.858831 4.08265 0
M  V30 13165 H 1245.67 0.10437 3.22631 0
M  V30 13166 H 1244.72 2.49781 2.86903 0
M  V30 13167 H 1246.03 3.10661 3.90245 0
M  V30 13168 H 1245.19 1.73102 5.81481 0
M  V30 13169 H 1243.93 1.01827 4.76951 0
M  V30 13170 H 1242.93 3.29368 4.40223 0
M  V30 13171 H 1244.16 4.00822 5.48196 0
M  V30 13172 H 1242.1 1.90938 6.27598 0
M  V30 13173 H 1242.02 3.60014 6.64775 0
M  V30 13174 H 1243.29 2.63139 7.33743 0
M  V30 13175 N 1247.52 -1.0444 1.18026 0
M  V30 13176 C 1248.46 -2.14474 0.900202 0
M  V30 13177 C 1249.46 -1.68836 -0.138086 0
M  V30 13178 O 1250.66 -1.79997 0.00971011 0
M  V30 13179 H 1247.04 -0.700457 0.273613 0
M  V30 13180 H 1249.01 -2.35295 1.83518 0
M  V30 13181 C 1247.76 -3.44926 0.438305 0
M  V30 13182 H 1247.08 -3.8045 1.22874 0
M  V30 13183 H 1248.52 -4.23066 0.281306 0
M  V30 13184 C 1246.98 -3.26124 -0.845268 0
M  V30 13185 O 1247.51 -3.53368 -1.91034 0
M  V30 13186 N 1245.72 -2.79474 -0.7964 0
M  V30 13187 H 1245.26 -2.57503 0.0705595 0
M  V30 13188 H 1245.22 -2.67274 -1.65566 0
M  V30 13189 N 1248.99 -0.981699 -1.2329 0
M  V30 13190 C 1250.24 -0.650015 -1.91361 0
M  V30 13191 C 1250.56 0.819184 -1.76959 0
M  V30 13192 O 1249.83 1.5861 -1.14977 0
M  V30 13193 H 1248.41 -0.237427 -0.708264 0
M  V30 13194 H 1251.08 -1.24579 -1.49887 0
M  V30 13195 H 1250.17 -0.902772 -2.98758 0
M  V30 13196 N 1250.47 1.3842 -0.753509 0
M  V30 13197 C 1251.72 2.00119 -0.309633 0
M  V30 13198 C 1252.05 1.59811 1.10863 0
M  V30 13199 O 1251.3 0.827013 1.77367 0
M  V30 13200 C 1251.6 3.55375 -0.379937 0
M  V30 13201 C 1251.27 4.15393 -1.75384 0
M  V30 13202 C 1249.93 4.31499 -2.12984 0
M  V30 13203 C 1252.28 4.48503 -2.65508 0
M  V30 13204 C 1249.61 4.78011 -3.4018 0
M  V30 13205 C 1251.96 4.96431 -3.92095 0
M  V30 13206 C 1250.63 5.10744 -4.29764 0
M  V30 13207 H 1249.9 0.732286 -0.113303 0
M  V30 13208 H 1252.54 1.65468 -0.963975 0
M  V30 13209 H 1250.85 3.90161 0.357969 0
M  V30 13210 H 1252.54 4.00996 -0.0180738 0
M  V30 13211 H 1249.13 4.03271 -1.45156 0
M  V30 13212 H 1253.32 4.35661 -2.37724 0
M  V30 13213 H 1248.57 4.87277 -3.69284 0
M  V30 13214 H 1252.75 5.21021 -4.62072 0
M  V30 13215 H 1250.38 5.46545 -5.28387 0
M  V30 13216 N 1251.95 0.502579 1.49372 0
M  V30 13217 C 1252.88 -0.264307 2.31999 0
M  V30 13218 C 1253.86 -0.96107 1.40348 0
M  V30 13219 O 1255.05 -0.952167 1.69255 0
M  V30 13220 C 1252.18 -1.32822 3.20898 0
M  V30 13221 C 1251.13 -0.751236 4.21355 0
M  V30 13222 C 1250.46 -1.91578 4.99201 0
M  V30 13223 C 1251.76 0.258764 5.21659 0
M  V30 13224 H 1253.45 0.425391 2.96363 0
M  V30 13225 H 1251 0.206022 1.42519 0
M  V30 13226 H 1252.95 -1.87245 3.77515 0
M  V30 13227 H 1251.67 -2.04712 2.54481 0
M  V30 13228 H 1250.33 -0.228743 3.65886 0
M  V30 13229 H 1249.98 -2.62241 4.2923 0
M  V30 13230 H 1249.68 -1.53578 5.67175 0
M  V30 13231 H 1251.2 -2.46432 5.58663 0
M  V30 13232 H 1252.62 -0.197385 5.7296 0
M  V30 13233 H 1251.02 0.554681 5.97531 0
M  V30 13234 H 1252.09 1.1741 4.70471 0
M  V30 13235 N 1253.43 -1.55816 0.23648 0
M  V30 13236 C 1254.66 -2.03083 -0.395584 0
M  V30 13237 C 1255.07 -1.11599 -1.52286 0
M  V30 13238 O 1254.43 -0.128403 -1.82048 0
M  V30 13239 C 1254.48 -3.49776 -0.913197 0
M  V30 13240 O 1254.2 -4.37773 0.169151 0
M  V30 13241 C 1255.7 -4.12756 -1.617 0
M  V30 13242 H 1252.92 -0.66421 -0.0952146 0
M  V30 13243 H 1255.47 -2.01354 0.357299 0
M  V30 13244 H 1253.62 -3.52072 -1.6163 0
M  V30 13245 H 1254.03 -5.24029 -0.222217 0
M  V30 13246 H 1255.51 -5.17123 -1.93101 0
M  V30 13247 H 1255.99 -3.58631 -2.53537 0
M  V30 13248 H 1256.59 -4.14353 -0.958736 0
M  V30 13249 N 1254.91 0.036755 -1.57557 0
M  V30 13250 C 1255.85 1.03975 -2.06053 0
M  V30 13251 C 1256.82 1.36384 -0.948089 0
M  V30 13252 O 1258.01 1.46853 -1.21815 0
M  V30 13253 C 1255.15 2.33796 -2.53837 0
M  V30 13254 C 1254.26 2.07614 -3.78841 0
M  V30 13255 C 1253.4 3.3125 -4.15267 0
M  V30 13256 C 1252.44 3.00587 -5.33211 0
M  V30 13257 N 1251.57 4.16653 -5.65106 0
M  V30 13258 H 1256.41 0.61924 -2.91495 0
M  V30 13259 H 1253.95 0.294151 -1.44129 0
M  V30 13260 H 1255.91 3.09639 -2.79606 0
M  V30 13261 H 1254.54 2.73584 -1.71323 0
M  V30 13262 H 1253.59 1.22302 -3.60203 0
M  V30 13263 H 1254.9 1.80989 -4.64806 0
M  V30 13264 H 1254.06 4.15466 -4.42123 0
M  V30 13265 H 1252.79 3.60981 -3.27939 0
M  V30 13266 H 1251.8 2.14772 -5.06115 0
M  V30 13267 H 1253.02 2.72142 -6.22186 0
M  V30 13268 H 1250.97 4.4635 -4.80737 0
M  V30 13269 H 1250.89 3.93425 -6.45564 0
M  V30 13270 H 1252.16 5.01764 -5.96534 0
M  V30 13271 N 1256.39 1.54543 0.308881 0
M  V30 13272 C 1257.63 1.73107 1.043 0
M  V30 13273 C 1257.95 0.515481 1.88063 0
M  V30 13274 O 1257.22 -0.47036 1.90169 0
M  V30 13275 H 1255.8 0.638289 0.388068 0
M  V30 13276 H 1258.47 1.9188 0.341769 0
M  V30 13277 H 1257.56 2.61697 1.70063 0
M  V30 13278 N 1257.86 -0.571685 1.46866 0
M  V30 13279 C 1258.83 -1.66198 1.57832 0
M  V30 13280 C 1259.83 -1.54242 0.454547 0
M  V30 13281 O 1261.02 -1.58661 0.719191 0
M  V30 13282 C 1258.15 -3.05678 1.5091 0
M  V30 13283 H 1259.34 -1.57829 2.5501 0
M  V30 13284 H 1256.89 -0.790433 1.3484 0
M  V30 13285 H 1257.63 -3.19593 0.550529 0
M  V30 13286 H 1257.41 -3.15765 2.32454 0
M  V30 13287 H 1258.9 -3.85027 1.61692 0
M  V30 13288 N 1259.34 -1.34755 -0.817236 0
M  V30 13289 C 1260.29 -1.26801 -1.92848 0
M  V30 13290 C 1261.26 -0.142077 -1.65491 0
M  V30 13291 O 1262.44 -0.324006 -1.88029 0
M  V30 13292 C 1259.58 -1.03513 -3.2921 0
M  V30 13293 C 1258.7 -2.24932 -3.68822 0
M  V30 13294 C 1257.83 -1.94881 -4.94161 0
M  V30 13295 C 1256.87 -3.12411 -5.2637 0
M  V30 13296 N 1256.01 -2.82207 -6.42887 0
M  V30 13297 H 1260.85 -2.21832 -1.98983 0
M  V30 13298 H 1258.38 -1.10284 -0.973439 0
M  V30 13299 H 1260.34 -0.88047 -4.07803 0
M  V30 13300 H 1258.97 -0.121478 -3.22571 0
M  V30 13301 H 1258.02 -2.51299 -2.85575 0
M  V30 13302 H 1259.34 -3.12726 -3.88592 0
M  V30 13303 H 1258.49 -1.76184 -5.80555 0
M  V30 13304 H 1257.23 -1.04355 -4.76405 0
M  V30 13305 H 1256.23 -3.31698 -4.3847 0
M  V30 13306 H 1257.46 -4.03724 -5.46062 0
M  V30 13307 H 1255.41 -1.94263 -6.26576 0
M  V30 13308 H 1255.32 -3.63534 -6.62857 0
M  V30 13309 H 1256.59 -2.67026 -7.32337 0
M  V30 13310 N 1260.82 1.03812 -1.18578 0
M  V30 13311 C 1262.24 1.29271 -0.936011 0
M  V30 13312 C 1262.44 1.97551 0.396965 0
M  V30 13313 O 1261.49 2.25769 1.13069 0
M  V30 13314 C 1262.8 2.1489 -2.1034 0
M  V30 13315 C 1264.35 2.28228 -2.14198 0
M  V30 13316 C 1264.83 3.17214 -3.30362 0
M  V30 13317 N 1266.32 3.24802 -3.30239 0
M  V30 13318 C 1267.05 3.9382 -4.16765 0
M  V30 13319 N 1266.55 4.65147 -5.1343 0
M  V30 13320 N 1268.34 3.90125 -4.04671 0
M  V30 13321 H 1260.49 0.579011 -2.04356 0
M  V30 13322 H 1262.76 0.318021 -0.893066 0
M  V30 13323 H 1262.46 1.72029 -3.06755 0
M  V30 13324 H 1262.34 3.15576 -2.06619 0
M  V30 13325 H 1264.72 2.70324 -1.18359 0
M  V30 13326 H 1264.8 1.27124 -2.21976 0
M  V30 13327 H 1264.45 2.75829 -4.26475 0
M  V30 13328 H 1264.38 4.18356 -3.19821 0
M  V30 13329 H 1266.87 2.73994 -2.60261 0
M  V30 13330 H 1267.18 5.15414 -5.7582 0
M  V30 13331 H 1265.53 4.64043 -5.17387 0
M  V30 13332 H 1268.72 3.33536 -3.28438 0
M  V30 13333 H 1268.89 4.43641 -4.7232 0
M  V30 13334 N 1262.3 0.988223 1.22768 0
M  V30 13335 C 1263.23 0.554478 2.26821 0
M  V30 13336 C 1264.21 -0.416293 1.64927 0
M  V30 13337 O 1265.39 -0.30795 1.91743 0
M  V30 13338 C 1262.52 -0.136266 3.47033 0
M  V30 13339 C 1261.48 0.752575 4.21332 0
M  V30 13340 C 1260.8 -0.0708236 5.34653 0
M  V30 13341 C 1262.1 2.04717 4.80508 0
M  V30 13342 H 1263.8 1.42423 2.63355 0
M  V30 13343 H 1261.34 0.686267 1.26595 0
M  V30 13344 H 1263.3 -0.451068 4.18979 0
M  V30 13345 H 1262.02 -1.04053 3.09581 0
M  V30 13346 H 1260.68 1.05095 3.51213 0
M  V30 13347 H 1260.33 -0.975859 4.93443 0
M  V30 13348 H 1260.03 0.520835 5.85287 0
M  V30 13349 H 1261.55 -0.379828 6.09417 0
M  V30 13350 H 1262.97 1.79663 5.44421 0
M  V30 13351 H 1261.36 2.58726 5.41462 0
M  V30 13352 H 1262.43 2.72896 4.00819 0
M  V30 13353 N 1263.78 -1.38018 0.760839 0
M  V30 13354 C 1264.71 -2.32995 0.153557 0
M  V30 13355 C 1265.69 -1.55234 -0.695448 0
M  V30 13356 O 1266.87 -1.8352 -0.635148 0
M  V30 13357 C 1264 -3.39437 -0.734811 0
M  V30 13358 C 1262.96 -4.27998 0.0120287 0
M  V30 13359 C 1262.28 -5.25359 -0.995067 0
M  V30 13360 C 1263.58 -5.08687 1.18468 0
M  V30 13361 H 1265.28 -2.8403 0.946956 0
M  V30 13362 H 1262.82 -1.36562 0.456816 0
M  V30 13363 H 1264.77 -4.0485 -1.16938 0
M  V30 13364 H 1263.5 -2.86901 -1.56061 0
M  V30 13365 H 1262.16 -3.64102 0.427254 0
M  V30 13366 H 1261.81 -4.69108 -1.81512 0
M  V30 13367 H 1261.51 -5.85469 -0.499969 0
M  V30 13368 H 1263.03 -5.93648 -1.4288 0
M  V30 13369 H 1264.44 -5.67299 0.8273 0
M  V30 13370 H 1262.84 -5.78068 1.61112 0
M  V30 13371 H 1263.91 -4.42 1.99409 0
M  V30 13372 N 1265.25 -0.510493 -1.49103 0
M  V30 13373 C 1266.66 -0.0650831 -1.86587 0
M  V30 13374 C 1267.02 1.35185 -1.42195 0
M  V30 13375 O 1266.14 2.0091 -0.804004 0
M  V30 13376 C 1266.74 -0.111333 -3.38617 0
M  V30 13377 C 1265.29 0.278782 -3.75366 0
M  V30 13378 C 1264.44 -0.479707 -2.73119 0
M  V30 13379 H 1267.39 -0.722784 -1.41285 0
M  V30 13380 H 1267.41 0.681706 -3.74343 0
M  V30 13381 H 1266.93 -1.14271 -3.70896 0
M  V30 13382 H 1265.03 1.31304 -3.48698 0
M  V30 13383 H 1265.14 -0.047271 -4.79077 0
M  V30 13384 H 1263.5 0.0716459 -2.54599 0
M  V30 13385 H 1264.29 -1.51135 -3.08242 0
M  V30 13386 N 1266.73 1.55688 -0.24474 0
M  V30 13387 C 1268.14 1.84897 0.25882 0
M  V30 13388 C 1268.49 1.16653 1.57755 0
M  V30 13389 O 1267.62 0.444162 2.11793 0
M  V30 13390 C 1268.21 3.35434 0.476385 0
M  V30 13391 C 1266.77 3.64877 0.924213 0
M  V30 13392 C 1265.92 2.773 0.00021322 0
M  V30 13393 H 1268.87 1.51662 -0.467358 0
M  V30 13394 H 1268.89 3.56896 1.31929 0
M  V30 13395 H 1268.4 3.85076 -0.483567 0
M  V30 13396 H 1266.5 3.20711 1.89671 0
M  V30 13397 H 1266.62 4.72665 0.78257 0
M  V30 13398 H 1264.98 2.49517 0.511194 0
M  V30 13399 H 1265.76 3.29747 -0.955072 0
M  V30 13400 N 1268.21 -0.0283989 1.57574 0
M  V30 13401 C 1269.16 -1.04723 2.07692 0
M  V30 13402 C 1270.15 -1.37399 0.990847 0
M  V30 13403 O 1271.36 -1.36297 1.17572 0
M  V30 13404 H 1267.73 -0.355251 0.662798 0
M  V30 13405 H 1269.7 -0.598737 2.92331 0
M  V30 13406 C 1268.45 -2.33941 2.57229 0
M  V30 13407 H 1267.78 -2.09659 3.40416 0
M  V30 13408 H 1269.22 -3.03574 2.96005 0
M  V30 13409 C 1267.67 -3.02953 1.47381 0
M  V30 13410 O 1268.2 -3.9281 0.840431 0
M  V30 13411 N 1266.41 -2.64294 1.20819 0
M  V30 13412 H 1265.96 -1.91307 1.72509 0
M  V30 13413 H 1265.92 -3.10786 0.475353 0
M  V30 13414 N 1269.69 -1.54705 -0.300681 0
M  V30 13415 C 1270.92 -1.77993 -1.0548 0
M  V30 13416 C 1271.33 -0.539574 -1.80926 0
M  V30 13417 O 1270.69 0.490597 -1.75782 0
M  V30 13418 C 1270.74 -2.98774 -2.0351 0
M  V30 13419 O 1270.46 -4.18016 -1.31126 0
M  V30 13420 C 1271.96 -3.34452 -2.90958 0
M  V30 13421 H 1269.18 -0.593628 -0.312805 0
M  V30 13422 H 1271.72 -2.01656 -0.339858 0
M  V30 13423 H 1269.88 -2.77318 -2.70506 0
M  V30 13424 H 1270.29 -4.86113 -1.96963 0
M  V30 13425 H 1271.77 -4.22206 -3.55593 0
M  V30 13426 H 1272.24 -2.52622 -3.59275 0
M  V30 13427 H 1272.85 -3.58069 -2.29493 0
M  V30 13428 N 1271.17 0.563888 -1.47167 0
M  V30 13429 C 1272.41 1.32331 -1.53676 0
M  V30 13430 C 1272.75 1.93213 -0.195593 0
M  V30 13431 O 1272.02 1.77508 0.795068 0
M  V30 13432 C 1272.3 2.43848 -2.64972 0
M  V30 13433 C 1272.16 1.8788 -4.08682 0
M  V30 13434 C 1273.48 3.45809 -2.72221 0
M  V30 13435 H 1270.59 0.479791 -0.559437 0
M  V30 13436 H 1273.24 0.631669 -1.79192 0
M  V30 13437 H 1271.39 3.02846 -2.43345 0
M  V30 13438 H 1273.06 1.33195 -4.41652 0
M  V30 13439 H 1271.3 1.18593 -4.17275 0
M  V30 13440 H 1271.97 2.68465 -4.82318 0
M  V30 13441 H 1274.45 2.9672 -2.91713 0
M  V30 13442 H 1273.32 4.21272 -3.51882 0
M  V30 13443 H 1273.59 4.04236 -1.79014 0
M  V30 13444 N 1272.64 1.35187 0.810078 0
M  V30 13445 C 1273.59 1.27848 1.94313 0
M  V30 13446 C 1274.59 0.174081 1.68503 0
M  V30 13447 O 1275.79 0.339848 1.76763 0
M  V30 13448 H 1272.17 0.397504 0.638353 0
M  V30 13449 H 1274.14 2.23579 1.97623 0
M  V30 13450 C 1272.89 1.06382 3.31026 0
M  V30 13451 H 1272.21 1.90601 3.51441 0
M  V30 13452 H 1273.65 1.05287 4.1072 0
M  V30 13453 C 1272.11 -0.232462 3.36097 0
M  V30 13454 O 1272.64 -1.22946 3.82423 0
M  V30 13455 N 1270.85 -0.270028 2.89343 0
M  V30 13456 H 1270.39 0.541891 2.51836 0
M  V30 13457 H 1270.35 -1.13708 2.93117 0
M  V30 13458 N 1274.12 -1.03182 1.19127 0
M  V30 13459 C 1275.05 -2.13301 0.94999 0
M  V30 13460 C 1276.03 -1.69707 -0.115577 0
M  V30 13461 O 1277.22 -1.94161 0.0388395 0
M  V30 13462 C 1274.35 -3.43902 0.484637 0
M  V30 13463 C 1273.3 -4.01164 1.4917 0
M  V30 13464 C 1272.63 -5.2735 0.883537 0
M  V30 13465 C 1273.93 -4.36311 2.87107 0
M  V30 13466 H 1275.62 -2.33743 1.87095 0
M  V30 13467 H 1273.17 -1.12332 0.900977 0
M  V30 13468 H 1275.12 -4.20308 0.30315 0
M  V30 13469 H 1273.85 -3.23173 -0.471909 0
M  V30 13470 H 1272.5 -3.26849 1.66028 0
M  V30 13471 H 1272.15 -5.02936 -0.0804712 0
M  V30 13472 H 1271.85 -5.66624 1.55599 0
M  V30 13473 H 1273.38 -6.06425 0.71278 0
M  V30 13474 H 1274.79 -5.03666 2.73848 0
M  V30 13475 H 1273.19 -4.86659 3.51117 0
M  V30 13476 H 1274.26 -3.45743 3.39985 0
M  V30 13477 N 1275.6 -0.99472 -1.22242 0
M  V30 13478 C 1277.01 -0.706456 -1.72818 0
M  V30 13479 C 1277.36 0.776566 -1.80177 0
M  V30 13480 O 1276.49 1.60698 -1.44931 0
M  V30 13481 C 1277.08 -1.27571 -3.13865 0
M  V30 13482 C 1275.64 -1.03679 -3.61839 0
M  V30 13483 C 1274.79 -1.3948 -2.39668 0
M  V30 13484 H 1277.74 -1.16687 -1.07564 0
M  V30 13485 H 1277.76 -0.655202 -3.74816 0
M  V30 13486 H 1277.27 -2.35508 -3.08476 0
M  V30 13487 H 1275.37 0.0258679 -3.72591 0
M  V30 13488 H 1275.49 -1.70145 -4.4787 0
M  V30 13489 H 1273.85 -0.813418 -2.41362 0
M  V30 13490 H 1274.63 -2.48425 -2.36939 0
M  V30 13491 N 1277.08 1.37613 -0.768148 0
M  V30 13492 C 1278.3 2.04579 -0.340892 0
M  V30 13493 C 1278.73 1.57556 1.02751 0
M  V30 13494 O 1278.09 0.734151 1.65771 0
M  V30 13495 C 1278.13 3.58495 -0.389099 0
M  V30 13496 O 1277.24 4.07838 0.611741 0
M  V30 13497 H 1276.58 0.647246 -0.148216 0
M  V30 13498 H 1279.11 1.75999 -1.04333 0
M  V30 13499 H 1279.12 4.07263 -0.245116 0
M  V30 13500 H 1277.79 3.92076 -1.38742 0
M  V30 13501 H 1276.37 3.70399 0.431173 0
M  V30 13502 N 1278.56 0.518393 1.4883 0
M  V30 13503 C 1279.5 -0.250684 2.29435 0
M  V30 13504 C 1280.47 -0.944481 1.36634 0
M  V30 13505 O 1281.66 -0.947766 1.65596 0
M  V30 13506 C 1278.8 -1.29871 3.1973 0
M  V30 13507 C 1277.91 -0.61493 4.27601 0
M  V30 13508 C 1277.05 -1.64489 5.05091 0
M  V30 13509 C 1276.09 -0.943932 6.04778 0
M  V30 13510 N 1275.22 -1.91889 6.75369 0
M  V30 13511 H 1280.06 0.44288 2.94691 0
M  V30 13512 H 1277.6 0.230246 1.45287 0
M  V30 13513 H 1279.56 -1.91851 3.70471 0
M  V30 13514 H 1278.19 -1.96081 2.56422 0
M  V30 13515 H 1277.24 0.118552 3.80215 0
M  V30 13516 H 1278.55 -0.063994 4.98759 0
M  V30 13517 H 1277.71 -2.33928 5.59788 0
M  V30 13518 H 1276.44 -2.2297 4.33746 0
M  V30 13519 H 1275.45 -0.235407 5.49296 0
M  V30 13520 H 1276.67 -0.365383 6.78116 0
M  V30 13521 H 1274.62 -2.493 6.06783 0
M  V30 13522 H 1274.54 -1.41909 7.42562 0
M  V30 13523 H 1275.81 -2.60563 7.34661 0
M  V30 13524 N 1280.03 -1.55556 0.252993 0
M  V30 13525 C 1281.28 -1.99385 -0.370599 0
M  V30 13526 C 1281.61 -1.14101 -1.57145 0
M  V30 13527 O 1280.89 -0.205828 -1.93408 0
M  V30 13528 C 1281.17 -3.51672 -0.774503 0
M  V30 13529 C 1281.02 -4.47719 0.432159 0
M  V30 13530 C 1282.34 -4.0923 -1.61923 0
M  V30 13531 H 1279.46 -0.724858 -0.133231 0
M  V30 13532 H 1282.1 -1.86644 0.355522 0
M  V30 13533 H 1280.25 -3.62661 -1.39318 0
M  V30 13534 H 1281.93 -4.48704 1.07063 0
M  V30 13535 H 1280.17 -4.2029 1.07419 0
M  V30 13536 H 1280.84 -5.51898 0.106123 0
M  V30 13537 H 1283.32 -4.01381 -1.09693 0
M  V30 13538 H 1282.19 -5.16039 -1.87068 0
M  V30 13539 H 1282.45 -3.58067 -2.59307 0
M  V30 13540 N 1281.51 0.0200419 -1.57587 0
M  V30 13541 C 1282.93 0.375834 -1.55112 0
M  V30 13542 C 1283.13 1.76047 -0.980297 0
M  V30 13543 O 1282.18 2.45138 -0.605297 0
M  V30 13544 C 1283.5 0.269418 -2.99491 0
M  V30 13545 C 1285.05 0.345838 -3.11084 0
M  V30 13546 C 1285.52 0.268771 -4.57211 0
M  V30 13547 N 1287.01 0.32729 -4.62042 0
M  V30 13548 C 1287.75 0.290688 -5.72663 0
M  V30 13549 N 1287.24 0.205851 -6.92494 0
M  V30 13550 N 1289.04 0.341082 -5.61064 0
M  V30 13551 H 1281.19 -0.885979 -1.93039 0
M  V30 13552 H 1283.45 -0.337753 -0.885792 0
M  V30 13553 H 1283.16 -0.682452 -3.45015 0
M  V30 13554 H 1283.03 1.0595 -3.62014 0
M  V30 13555 H 1285.42 1.28814 -2.65501 0
M  V30 13556 H 1285.5 -0.47376 -2.51375 0
M  V30 13557 H 1285.14 -0.669906 -5.03463 0
M  V30 13558 H 1285.07 1.10659 -5.14842 0
M  V30 13559 H 1287.56 0.395004 -3.7583 0
M  V30 13560 H 1287.88 0.18327 -7.72583 0
M  V30 13561 H 1286.22 0.171768 -6.94788 0
M  V30 13562 H 1289.41 0.405415 -4.66341 0
M  V30 13563 H 1289.58 0.309091 -6.47262 0
M  V30 13564 N 1282.99 1.54862 0.292472 0
M  V30 13565 C 1283.95 1.8565 1.34413 0
M  V30 13566 C 1284.95 0.729868 1.43281 0
M  V30 13567 O 1286.14 0.998128 1.42769 0
M  V30 13568 C 1283.28 2.0444 2.72795 0
M  V30 13569 H 1284.47 2.79642 1.08354 0
M  V30 13570 H 1282.02 1.47055 0.529574 0
M  V30 13571 H 1282.76 1.12765 3.04063 0
M  V30 13572 H 1282.54 2.86451 2.67747 0
M  V30 13573 H 1284.03 2.296 3.48817 0
M  V30 13574 N 1284.47 -0.556076 1.47464 0
M  V30 13575 C 1285.72 -1.3132 1.54147 0
M  V30 13576 C 1286.04 -1.93425 0.204221 0
M  V30 13577 O 1285.3 -1.78467 -0.803002 0
M  V30 13578 C 1285.6 -2.44298 2.6087 0
M  V30 13579 C 1285.26 -2.00016 4.04109 0
M  V30 13580 C 1283.93 -1.87656 4.43101 0
M  V30 13581 C 1286.28 -1.66228 4.93981 0
M  V30 13582 C 1283.61 -1.39805 5.698 0
M  V30 13583 C 1285.96 -1.19848 6.21144 0
M  V30 13584 C 1284.62 -1.06084 6.59016 0
M  V30 13585 H 1283.89 -0.480534 0.564064 0
M  V30 13586 H 1286.54 -0.623449 1.81067 0
M  V30 13587 H 1284.84 -3.18834 2.27711 0
M  V30 13588 H 1286.54 -3.02479 2.63263 0
M  V30 13589 H 1283.13 -2.1058 3.73302 0
M  V30 13590 H 1287.31 -1.7465 4.64555 0
M  V30 13591 H 1282.57 -1.27814 5.97891 0
M  V30 13592 H 1286.74 -0.927657 6.90194 0
M  V30 13593 H 1284.37 -0.687834 7.57082 0
M  V30 13594 N 1285.95 -1.35615 -0.802897 0
M  V30 13595 C 1287.18 -1.32217 -1.59142 0
M  V30 13596 C 1287.59 0.0995496 -1.88537 0
M  V30 13597 O 1286.95 1.05258 -1.49087 0
M  V30 13598 C 1287 -2.13048 -2.92049 0
M  V30 13599 O 1286.72 -3.49677 -2.63927 0
M  V30 13600 C 1288.22 -2.17278 -3.864 0
M  V30 13601 H 1285.44 -0.454054 -0.49404 0
M  V30 13602 H 1287.98 -1.78521 -0.997516 0
M  V30 13603 H 1286.14 -1.70334 -3.47944 0
M  V30 13604 H 1286.55 -3.917 -3.48814 0
M  V30 13605 H 1288.03 -2.7822 -4.76758 0
M  V30 13606 H 1288.5 -1.17253 -4.23259 0
M  V30 13607 H 1289.11 -2.6017 -3.3644 0
M  V30 13608 N 1287.43 1.02549 -1.19673 0
M  V30 13609 C 1288.67 1.76004 -1.00144 0
M  V30 13610 C 1289 1.888 0.467423 0
M  V30 13611 O 1288.26 1.404 1.36331 0
M  V30 13612 C 1288.55 3.18597 -1.61959 0
M  V30 13613 C 1288.22 3.258 -3.11713 0
M  V30 13614 C 1286.88 3.27473 -3.52583 0
M  V30 13615 C 1289.23 3.24675 -4.0772 0
M  V30 13616 C 1286.56 3.25681 -4.88005 0
M  V30 13617 C 1288.91 3.24424 -5.43076 0
M  V30 13618 C 1287.58 3.24396 -5.83372 0
M  V30 13619 H 1286.85 0.644044 -0.366453 0
M  V30 13620 H 1289.5 1.20338 -1.48966 0
M  V30 13621 H 1287.8 3.77364 -1.05375 0
M  V30 13622 H 1289.5 3.74109 -1.44374 0
M  V30 13623 H 1286.09 3.25228 -2.7915 0
M  V30 13624 H 1290.27 3.2256 -3.77185 0
M  V30 13625 H 1285.53 3.23986 -5.18501 0
M  V30 13626 H 1289.7 3.22504 -6.17223 0
M  V30 13627 H 1287.33 3.22762 -6.8828 0
M  V30 13628 N 1288.9 1.00119 1.21713 0
M  V30 13629 C 1290.31 0.715611 1.72441 0
M  V30 13630 C 1290.67 -0.767 1.80587 0
M  V30 13631 O 1289.79 -1.59928 1.45781 0
M  V30 13632 C 1290.39 1.29234 3.13184 0
M  V30 13633 C 1288.94 1.05597 3.61284 0
M  V30 13634 C 1288.09 1.40749 2.38925 0
M  V30 13635 H 1291.04 1.17255 1.06943 0
M  V30 13636 H 1291.06 0.67507 3.74464 0
M  V30 13637 H 1290.58 2.37141 3.07223 0
M  V30 13638 H 1288.68 -0.00610816 3.72599 0
M  V30 13639 H 1288.79 1.72517 4.46961 0
M  V30 13640 H 1287.15 0.826207 2.40927 0
M  V30 13641 H 1287.94 2.49678 2.35618 0
M  V30 13642 N 1290.38 -1.37203 0.775435 0
M  V30 13643 C 1291.61 -2.04396 0.351737 0
M  V30 13644 C 1292.03 -1.58099 -1.01913 0
M  V30 13645 O 1291.39 -0.742932 -1.65379 0
M  V30 13646 C 1291.44 -3.58283 0.408105 0
M  V30 13647 O 1290.54 -4.08156 -0.590104 0
M  V30 13648 H 1289.88 -0.646451 0.151647 0
M  V30 13649 H 1292.41 -1.75443 1.05265 0
M  V30 13650 H 1292.42 -4.07127 0.266711 0
M  V30 13651 H 1291.1 -3.91335 1.40819 0
M  V30 13652 H 1289.67 -3.70622 -0.411524 0
M  V30 13653 N 1291.86 -0.526279 -1.48553 0
M  V30 13654 C 1292.77 0.24244 -2.33344 0
M  V30 13655 C 1293.79 0.942658 -1.46253 0
M  V30 13656 O 1294.96 0.91844 -1.79239 0
M  V30 13657 C 1292.03 1.27801 -3.22285 0
M  V30 13658 C 1291.09 0.588543 -4.25247 0
M  V30 13659 C 1290.32 1.57478 -5.09938 0
M  V30 13660 O 1290.54 2.80707 -4.96548 0
M  V30 13661 O 1289.48 1.11621 -5.9146 0
M  V30 13662 H 1293.3 -0.452262 -3.00314 0
M  V30 13663 H 1290.89 -0.287249 -1.46613 0
M  V30 13664 H 1292.77 1.87656 -3.7731 0
M  V30 13665 H 1291.45 1.95519 -2.57981 0
M  V30 13666 H 1290.35 -0.0504022 -3.74066 0
M  V30 13667 H 1291.69 -0.046627 -4.92178 0
M  V30 13668 N 1293.34 1.5542 -0.261239 0
M  V30 13669 C 1294.58 1.99579 0.36002 0
M  V30 13670 C 1294.92 1.14933 1.56538 0
M  V30 13671 O 1294.19 0.216082 1.93296 0
M  V30 13672 C 1294.47 3.52078 0.755842 0
M  V30 13673 C 1294.33 4.47484 -0.455896 0
M  V30 13674 C 1295.65 4.10083 1.5975 0
M  V30 13675 H 1292.77 0.725554 0.129385 0
M  V30 13676 H 1295.41 1.86453 -0.365415 0
M  V30 13677 H 1293.56 3.63394 1.37393 0
M  V30 13678 H 1295.23 4.4813 -1.09441 0
M  V30 13679 H 1293.47 4.19714 -1.09646 0
M  V30 13680 H 1294.14 5.51834 -0.13539 0
M  V30 13681 H 1296.62 4.01957 1.07562 0
M  V30 13682 H 1295.5 5.17024 1.84329 0
M  V30 13683 H 1295.76 3.59438 2.57404 0
M  V30 13684 N 1294.82 -0.0116844 1.57596 0
M  V30 13685 C 1296.23 -0.55604 1.78228 0
M  V30 13686 C 1296.58 -1.74624 0.894474 0
M  V30 13687 O 1295.7 -2.16196 0.0938498 0
M  V30 13688 C 1296.3 -1.0155 3.23223 0
M  V30 13689 C 1294.86 -1.50525 3.44992 0
M  V30 13690 C 1294 -0.451133 2.73606 0
M  V30 13691 H 1296.95 0.214516 1.57243 0
M  V30 13692 H 1296.98 -1.88208 3.30693 0
M  V30 13693 H 1296.49 -0.149048 3.87814 0
M  V30 13694 H 1294.59 -2.39298 2.856 0
M  V30 13695 H 1294.7 -1.54076 4.53649 0
M  V30 13696 H 1293.07 -0.910135 2.37884 0
M  V30 13697 H 1293.85 0.406152 3.40889 0
M  V30 13698 N 1296.29 -1.55015 -0.284256 0
M  V30 13699 C 1297.52 -1.79431 -1.04016 0
M  V30 13700 C 1297.94 -0.560254 -1.79563 0
M  V30 13701 O 1297.3 0.489804 -1.74558 0
M  V30 13702 C 1297.35 -3.01162 -1.98328 0
M  V30 13703 O 1296.45 -2.75459 -3.06914 0
M  V30 13704 H 1295.79 -0.593391 -0.297965 0
M  V30 13705 H 1298.32 -2.02136 -0.316585 0
M  V30 13706 H 1298.33 -3.29589 -2.40489 0
M  V30 13707 H 1297.01 -3.90634 -1.42751 0
M  V30 13708 H 1295.59 -2.58096 -2.69148 0
M  V30 13709 N 1297.77 0.548248 -1.47757 0
M  V30 13710 C 1298.72 1.65453 -1.60916 0
M  V30 13711 C 1299.69 1.59836 -0.451831 0
M  V30 13712 O 1300.87 1.78536 -0.673023 0
M  V30 13713 C 1298.01 3.0376 -1.6378 0
M  V30 13714 C 1297.13 3.19747 -2.90492 0
M  V30 13715 C 1296.26 4.48505 -2.84635 0
M  V30 13716 C 1295.3 4.57956 -4.06132 0
M  V30 13717 N 1294.44 5.78079 -3.98458 0
M  V30 13718 H 1299.28 1.53545 -2.55398 0
M  V30 13719 H 1296.81 0.747826 -1.26673 0
M  V30 13720 H 1298.77 3.8386 -1.63424 0
M  V30 13721 H 1297.4 3.14483 -0.728036 0
M  V30 13722 H 1296.45 2.3302 -3.00676 0
M  V30 13723 H 1297.77 3.22594 -3.8044 0
M  V30 13724 H 1296.92 5.36875 -2.82577 0
M  V30 13725 H 1295.66 4.48151 -1.92385 0
M  V30 13726 H 1294.66 3.67995 -4.08484 0
M  V30 13727 H 1295.89 4.60062 -4.9952 0
M  V30 13728 H 1293.84 5.78657 -3.09017 0
M  V30 13729 H 1293.75 5.82342 -4.82093 0
M  V30 13730 H 1295.02 6.68786 -4.00431 0
M  V30 13731 N 1299.25 1.36039 0.795694 0
M  V30 13732 C 1300.21 1.29709 1.88966 0
M  V30 13733 C 1301.21 0.206142 1.59473 0
M  V30 13734 O 1302.4 0.460534 1.68002 0
M  V30 13735 C 1299.53 1.00922 3.25619 0
M  V30 13736 H 1300.73 2.26993 1.95995 0
M  V30 13737 H 1298.28 1.2072 0.992791 0
M  V30 13738 H 1299.02 0.0407027 3.24274 0
M  V30 13739 H 1298.8 1.79863 3.48413 0
M  V30 13740 H 1300.29 0.990826 4.05675 0
M  V30 13741 N 1300.73 -1.01913 1.20215 0
M  V30 13742 C 1301.68 -2.104 0.948708 0
M  V30 13743 C 1302.65 -1.65665 -0.120139 0
M  V30 13744 O 1303.83 -1.90785 0.0240547 0
M  V30 13745 C 1300.97 -3.41398 0.504132 0
M  V30 13746 C 1300.08 -3.99625 1.64085 0
M  V30 13747 C 1299.22 -5.18673 1.14683 0
M  V30 13748 C 1298.26 -5.68977 2.2568 0
M  V30 13749 N 1297.39 -6.79289 1.77514 0
M  V30 13750 H 1302.23 -2.31415 1.87753 0
M  V30 13751 H 1299.77 -1.13487 0.935901 0
M  V30 13752 H 1301.73 -4.16578 0.22771 0
M  V30 13753 H 1300.36 -3.20463 -0.387689 0
M  V30 13754 H 1299.41 -3.21565 2.03225 0
M  V30 13755 H 1300.72 -4.32965 2.47674 0
M  V30 13756 H 1299.88 -6.01048 0.826223 0
M  V30 13757 H 1298.62 -4.86891 0.280797 0
M  V30 13758 H 1297.62 -4.85208 2.5856 0
M  V30 13759 H 1298.85 -6.02794 3.12755 0
M  V30 13760 H 1296.79 -6.49341 0.932338 0
M  V30 13761 H 1296.71 -7.11808 2.54686 0
M  V30 13762 H 1297.98 -7.65235 1.48446 0
M  V30 13763 N 1302.21 -1.00763 -1.2118 0
M  V30 13764 C 1303.45 -0.692851 -1.90598 0
M  V30 13765 C 1303.79 0.774698 -1.78079 0
M  V30 13766 O 1303.06 1.56186 -1.15914 0
M  V30 13767 C 1303.34 -1.11792 -3.42308 0
M  V30 13768 C 1303.2 -2.64511 -3.63805 0
M  V30 13769 C 1304.52 -0.682314 -4.34779 0
M  V30 13770 H 1301.63 -0.253175 -0.69215 0
M  V30 13771 H 1304.28 -1.25378 -1.4276 0
M  V30 13772 H 1302.43 -0.640665 -3.83181 0
M  V30 13773 H 1304.1 -3.20021 -3.32242 0
M  V30 13774 H 1302.34 -3.05903 -3.0758 0
M  V30 13775 H 1303.01 -2.89306 -4.70113 0
M  V30 13776 H 1305.49 -1.09247 -4.01503 0
M  V30 13777 H 1304.36 -1.00787 -5.39568 0
M  V30 13778 H 1304.63 0.416441 -4.40134 0
M  V30 13779 N 1303.68 1.3679 -0.7827 0
M  V30 13780 C 1304.93 1.99712 -0.352533 0
M  V30 13781 C 1305.26 1.61984 1.0712 0
M  V30 13782 O 1304.54 0.871342 1.7389 0
M  V30 13783 C 1304.82 3.5649 -0.508628 0
M  V30 13784 C 1304.67 4.04093 -1.97557 0
M  V30 13785 C 1305.99 4.40026 0.0804447 0
M  V30 13786 H 1303.11 0.725522 -0.129566 0
M  V30 13787 H 1305.75 1.62305 -0.987788 0
M  V30 13788 H 1303.9 3.88487 0.0321664 0
M  V30 13789 H 1305.58 3.82613 -2.57691 0
M  V30 13790 H 1303.82 3.55881 -2.48055 0
M  V30 13791 H 1304.49 5.13088 -2.03579 0
M  V30 13792 H 1306.97 4.14351 -0.381113 0
M  V30 13793 H 1305.84 5.48868 -0.0588424 0
M  V30 13794 H 1306.1 4.26285 1.17189 0
M  V30 13795 N 1305.16 0.53415 1.48272 0
M  V30 13796 C 1306.41 0.00971554 2.03398 0
M  V30 13797 C 1306.76 -1.316 1.40353 0
M  V30 13798 O 1306.06 -1.83786 0.541589 0
M  V30 13799 C 1306.25 -0.165144 3.57018 0
M  V30 13800 C 1306.08 1.14208 4.34956 0
M  V30 13801 C 1304.85 1.70309 4.75734 0
M  V30 13802 C 1307.05 2.05371 4.71516 0
M  V30 13803 N 1305.03 2.95276 5.38224 0
M  V30 13804 C 1306.4 3.14915 5.34068 0
M  V30 13805 C 1308.46 2.05647 4.53447 0
M  V30 13806 C 1307.16 4.24804 5.8046 0
M  V30 13807 C 1309.18 3.14533 5.00823 0
M  V30 13808 C 1308.55 4.22795 5.63404 0
M  V30 13809 H 1304.65 0.0451562 0.780695 0
M  V30 13810 H 1307.23 0.71635 1.81043 0
M  V30 13811 H 1305.4 -0.840869 3.79189 0
M  V30 13812 H 1307.13 -0.68956 3.98782 0
M  V30 13813 H 1303.89 1.24395 4.56971 0
M  V30 13814 H 1304.31 3.58911 5.74031 0
M  V30 13815 H 1308.95 1.23239 4.0444 0
M  V30 13816 H 1306.67 5.07987 6.2847 0
M  V30 13817 H 1310.26 3.15806 4.88629 0
M  V30 13818 H 1309.14 5.05661 5.99397 0
M  V30 13819 N 1306.64 -1.55279 0.269478 0
M  V30 13820 C 1307.55 -2.25965 -0.63065 0
M  V30 13821 C 1308.57 -1.28357 -1.17476 0
M  V30 13822 O 1309.74 -1.61281 -1.20625 0
M  V30 13823 C 1306.81 -2.96263 -1.80081 0
M  V30 13824 C 1305.87 -4.09336 -1.29394 0
M  V30 13825 C 1305.1 -4.76272 -2.40833 0
M  V30 13826 O 1305.32 -4.42389 -3.60066 0
M  V30 13827 O 1304.26 -5.64334 -2.09309 0
M  V30 13828 H 1308.08 -3.03644 -0.0582069 0
M  V30 13829 H 1305.67 -1.49354 0.0370966 0
M  V30 13830 H 1307.55 -3.40461 -2.48322 0
M  V30 13831 H 1306.23 -2.21505 -2.36045 0
M  V30 13832 H 1305.13 -3.69605 -0.578154 0
M  V30 13833 H 1306.47 -4.85978 -0.780117 0
M  V30 13834 N 1308.12 0.00332656 -1.576 0
M  V30 13835 C 1309.07 0.99581 -2.08212 0
M  V30 13836 C 1310.04 1.34342 -0.976804 0
M  V30 13837 O 1311.22 1.44236 -1.24902 0
M  V30 13838 C 1308.36 2.2836 -2.58739 0
M  V30 13839 C 1307.47 1.99531 -3.8316 0
M  V30 13840 C 1306.61 3.22367 -4.222 0
M  V30 13841 C 1305.65 2.89209 -5.39467 0
M  V30 13842 N 1304.78 4.04572 -5.73817 0
M  V30 13843 H 1309.62 0.55727 -2.92743 0
M  V30 13844 H 1307.16 0.263513 -1.4472 0
M  V30 13845 H 1309.12 3.03639 -2.86111 0
M  V30 13846 H 1307.75 2.69889 -1.77087 0
M  V30 13847 H 1306.8 1.14634 -3.62716 0
M  V30 13848 H 1308.11 1.71089 -4.6854 0
M  V30 13849 H 1307.27 4.05994 -4.50837 0
M  V30 13850 H 1306.01 3.53944 -3.35522 0
M  V30 13851 H 1305.01 2.03989 -5.10557 0
M  V30 13852 H 1306.24 2.58883 -6.27819 0
M  V30 13853 H 1304.18 4.36052 -4.90096 0
M  V30 13854 H 1304.1 3.79643 -6.53764 0
M  V30 13855 H 1305.37 4.88998 -6.07043 0
M  V30 13856 N 1309.6 1.55164 0.276031 0
M  V30 13857 C 1310.84 1.75627 1.00803 0
M  V30 13858 C 1311.17 0.555696 1.86393 0
M  V30 13859 O 1310.43 -0.461872 1.90172 0
M  V30 13860 C 1310.73 3.0127 1.92279 0
M  V30 13861 C 1310.39 4.33951 1.22464 0
M  V30 13862 C 1309.05 4.70013 1.03158 0
M  V30 13863 C 1311.41 5.16097 0.72758 0
M  V30 13864 C 1308.73 5.85779 0.328699 0
M  V30 13865 C 1311.09 6.32588 0.0383001 0
M  V30 13866 C 1309.75 6.67292 -0.166494 0
M  V30 13867 H 1309.02 0.642665 0.368866 0
M  V30 13868 H 1311.67 1.89433 0.280595 0
M  V30 13869 H 1309.97 2.82351 2.71634 0
M  V30 13870 H 1311.67 3.14299 2.49032 0
M  V30 13871 H 1308.26 4.05605 1.38501 0
M  V30 13872 H 1312.44 4.88715 0.864365 0
M  V30 13873 H 1307.7 6.11192 0.159279 0
M  V30 13874 H 1311.87 6.95496 -0.354631 0
M  V30 13875 H 1309.5 7.56848 -0.713124 0
M  V30 13876 N 1311.07 -0.540404 1.48045 0
M  V30 13877 C 1312.3 -1.32656 1.59427 0
M  V30 13878 C 1312.72 -1.86419 0.250924 0
M  V30 13879 O 1312.08 -1.63861 -0.775838 0
M  V30 13880 C 1312.13 -2.46062 2.63602 0
M  V30 13881 O 1311.23 -3.48794 2.20038 0
M  V30 13882 H 1310.58 -0.393334 0.534962 0
M  V30 13883 H 1313.11 -0.651363 1.93955 0
M  V30 13884 H 1313.12 -2.92396 2.84549 0
M  V30 13885 H 1311.79 -2.06291 3.61133 0
M  V30 13886 H 1310.37 -3.0865 2.0926 0
M  V30 13887 N 1312.55 -1.36459 -0.788468 0
M  V30 13888 C 1313.78 -1.34063 -1.58246 0
M  V30 13889 C 1314.2 0.0754933 -1.87948 0
M  V30 13890 O 1313.56 1.04772 -1.47961 0
M  V30 13891 C 1313.61 -2.17038 -2.8797 0
M  V30 13892 O 1312.71 -1.56353 -3.81612 0
M  V30 13893 H 1312.05 -0.458816 -0.479983 0
M  V30 13894 H 1314.58 -1.79755 -0.977207 0
M  V30 13895 H 1314.59 -2.29651 -3.3723 0
M  V30 13896 H 1313.27 -3.19981 -2.65678 0
M  V30 13897 H 1311.85 -1.52685 -3.40208 0
M  V30 13898 N 1314.03 1.01274 -1.20754 0
M  V30 13899 C 1314.96 2.10029 -0.917628 0
M  V30 13900 C 1315.98 1.62516 0.0961411 0
M  V30 13901 O 1317.16 1.77986 -0.135371 0
M  V30 13902 C 1314.26 3.37037 -0.354891 0
M  V30 13903 C 1313.44 4.1367 -1.42113 0
M  V30 13904 C 1312.5 5.18974 -0.869023 0
M  V30 13905 O 1311.52 5.47671 -1.55063 0
M  V30 13906 N 1312.72 5.79619 0.319631 0
M  V30 13907 H 1315.49 2.35485 -1.85383 0
M  V30 13908 H 1313.05 1.17695 -1.11173 0
M  V30 13909 H 1315.04 4.0469 0.0286895 0
M  V30 13910 H 1313.61 3.088 0.485956 0
M  V30 13911 H 1312.83 3.40931 -1.97889 0
M  V30 13912 H 1314.12 4.61649 -2.13911 0
M  V30 13913 H 1313.52 5.58646 0.89059 0
M  V30 13914 H 1312.08 6.48603 0.644807 0
M  V30 13915 N 1315.51 1.01404 1.20644 0
M  V30 13916 C 1316.92 0.73386 1.71672 0
M  V30 13917 C 1317.27 -0.747803 1.8139 0
M  V30 13918 O 1316.4 -1.58372 1.47469 0
M  V30 13919 C 1316.99 1.32549 3.11795 0
M  V30 13920 C 1315.55 1.09423 3.60144 0
M  V30 13921 C 1314.7 1.43275 2.37419 0
M  V30 13922 H 1317.65 1.18383 1.05694 0
M  V30 13923 H 1317.67 0.714749 3.73727 0
M  V30 13924 H 1317.18 2.40386 3.0469 0
M  V30 13925 H 1315.28 0.0334113 3.72585 0
M  V30 13926 H 1315.4 1.77248 4.45107 0
M  V30 13927 H 1313.76 0.851714 2.40037 0
M  V30 13928 H 1314.54 2.52163 2.32957 0
M  V30 13929 N 1316.99 -1.36373 0.789944 0
M  V30 13930 C 1317.93 -2.30043 0.186798 0
M  V30 13931 C 1318.9 -1.52002 -0.669663 0
M  V30 13932 O 1320.09 -1.80506 -0.618232 0
M  V30 13933 C 1317.23 -3.38494 -0.671994 0
M  V30 13934 C 1316.34 -4.31522 0.203067 0
M  V30 13935 C 1315.48 -5.27057 -0.662148 0
M  V30 13936 C 1314.52 -6.11725 0.214335 0
M  V30 13937 N 1313.65 -6.99446 -0.609892 0
M  V30 13938 H 1318.49 -2.81038 0.991048 0
M  V30 13939 H 1316.03 -1.38331 0.500288 0
M  V30 13940 H 1317.99 -4.0002 -1.1849 0
M  V30 13941 H 1316.62 -2.88818 -1.44167 0
M  V30 13942 H 1315.67 -3.71146 0.833945 0
M  V30 13943 H 1316.98 -4.91005 0.878389 0
M  V30 13944 H 1316.14 -5.93875 -1.24084 0
M  V30 13945 H 1314.88 -4.6803 -1.37109 0
M  V30 13946 H 1313.88 -5.43868 0.805426 0
M  V30 13947 H 1315.11 -6.72827 0.92089 0
M  V30 13948 H 1313.05 -6.42927 -1.30312 0
M  V30 13949 H 1312.97 -7.56 0.00773786 0
M  V30 13950 H 1314.24 -7.70633 -1.1724 0
M  V30 13951 N 1318.47 -0.542005 -1.47987 0
M  V30 13952 C 1319.71 -0.0123116 -2.02496 0
M  V30 13953 C 1320.04 1.33136 -1.41793 0
M  V30 13954 O 1319.3 1.87591 -0.557501 0
M  V30 13955 C 1319.59 0.146208 -3.57101 0
M  V30 13956 C 1319.26 -1.12463 -4.3665 0
M  V30 13957 C 1317.92 -1.47289 -4.58104 0
M  V30 13958 C 1320.27 -1.96746 -4.82639 0
M  V30 13959 C 1317.6 -2.66273 -5.22796 0
M  V30 13960 C 1319.95 -3.14919 -5.48643 0
M  V30 13961 C 1318.62 -3.50077 -5.68333 0
M  V30 13962 H 1317.89 -0.00450514 -0.740986 0
M  V30 13963 H 1320.54 -0.710455 -1.77834 0
M  V30 13964 H 1318.84 0.927209 -3.80671 0
M  V30 13965 H 1320.54 0.571161 -3.96912 0
M  V30 13966 H 1317.13 -0.843429 -4.20219 0
M  V30 13967 H 1321.31 -1.71149 -4.65856 0
M  V30 13968 H 1316.57 -2.937 -5.36237 0
M  V30 13969 H 1320.74 -3.80525 -5.83244 0
M  V30 13970 H 1318.37 -4.42371 -6.18233 0
M  V30 13971 N 1319.94 1.55134 -0.277709 0
M  V30 13972 C 1320.85 2.26296 0.618658 0
M  V30 13973 C 1321.87 1.28978 1.16794 0
M  V30 13974 O 1323.05 1.61918 1.19768 0
M  V30 13975 C 1320.11 2.97214 1.78508 0
M  V30 13976 C 1319.17 4.10016 1.27221 0
M  V30 13977 C 1318.4 4.77543 2.38304 0
M  V30 13978 O 1318.63 4.44293 3.57715 0
M  V30 13979 O 1317.56 5.65437 2.06313 0
M  V30 13980 H 1321.39 3.03671 0.0421031 0
M  V30 13981 H 1318.97 1.49332 -0.0450166 0
M  V30 13982 H 1320.85 3.41773 2.46513 0
M  V30 13983 H 1319.53 2.22753 2.34867 0
M  V30 13984 H 1318.44 3.69907 0.558544 0
M  V30 13985 H 1319.77 4.86385 0.754333 0
M  V30 13986 N 1321.42 0.00503138 1.57599 0
M  V30 13987 C 1322.84 -0.351109 1.5569 0
M  V30 13988 C 1323.04 -1.74465 1.00818 0
M  V30 13989 O 1322.09 -2.44144 0.64422 0
M  V30 13990 C 1323.41 -0.221738 2.99881 0
M  V30 13991 C 1324.95 -0.296303 3.11594 0
M  V30 13992 C 1325.43 -0.195998 4.5758 0
M  V30 13993 N 1326.92 -0.253741 4.62504 0
M  V30 13994 C 1327.66 -0.199546 5.73053 0
M  V30 13995 N 1327.15 -0.0956553 6.92734 0
M  V30 13996 N 1328.94 -0.251779 5.61536 0
M  V30 13997 H 1321.1 0.916578 1.91605 0
M  V30 13998 H 1323.36 0.351802 0.880306 0
M  V30 13999 H 1323.06 0.737255 3.43886 0
M  V30 14000 H 1322.94 -1.00178 3.63654 0
M  V30 14001 H 1325.33 -1.24574 2.67517 0
M  V30 14002 H 1325.41 0.513692 2.50589 0
M  V30 14003 H 1325.05 0.749918 5.02333 0
M  V30 14004 H 1324.98 -1.02455 5.16537 0
M  V30 14005 H 1327.47 -0.335163 3.76411 0
M  V30 14006 H 1327.78 -0.0603357 7.72776 0
M  V30 14007 H 1326.13 -0.0612113 6.94973 0
M  V30 14008 H 1329.32 -0.331173 4.66927 0
M  V30 14009 H 1329.49 -0.206078 6.47672 0
M  V30 14010 N 1322.9 -1.55308 -0.267798 0
M  V30 14011 C 1324.18 -1.66881 -1.02029 0
M  V30 14012 C 1324.56 -0.538708 -2.04111 0
M  V30 14013 O 1323.9 0.460575 -2.2381 0
M  V30 14014 C 1324.11 -3.06318 -1.67243 0
M  V30 14015 C 1325.46 -3.64237 -2.18212 0
M  V30 14016 O 1326.49 -3.08984 -1.77221 0
M  V30 14017 O 1325.35 -4.61055 -2.93413 0
M  V30 14018 H 1322.44 -0.677967 -0.473593 0
M  V30 14019 H 1324.99 -1.67646 -0.263242 0
M  V30 14020 H 1323.76 -3.80015 -0.932985 0
M  V30 14021 H 1323.38 -3.09475 -2.49622 0
M  V30 14022 N 1324.38 0.532545 -1.4833 0
M  V30 14023 C 1325.31 1.64662 -1.65555 0
M  V30 14024 C 1326.29 1.62447 -0.50447 0
M  V30 14025 O 1327.47 1.79684 -0.736712 0
M  V30 14026 C 1324.6 3.03256 -1.69272 0
M  V30 14027 C 1323.56 3.20329 -2.83854 0
M  V30 14028 C 1322.88 4.59958 -2.72659 0
M  V30 14029 C 1324.18 3.03345 -4.25181 0
M  V30 14030 H 1325.88 1.50502 -2.58823 0
M  V30 14031 H 1323.42 0.722612 -1.24556 0
M  V30 14032 H 1325.38 3.81064 -1.79911 0
M  V30 14033 H 1324.1 3.18433 -0.725805 0
M  V30 14034 H 1322.76 2.44937 -2.72766 0
M  V30 14035 H 1322.41 4.71967 -1.73942 0
M  V30 14036 H 1322.11 4.72327 -3.49544 0
M  V30 14037 H 1323.63 5.39869 -2.85262 0
M  V30 14038 H 1325.05 3.70948 -4.37116 0
M  V30 14039 H 1323.44 3.27208 -5.03045 0
M  V30 14040 H 1324.51 1.998 -4.41824 0
M  V30 14041 N 1325.86 1.36875 0.78122 0
M  V30 14042 C 1327.1 1.31559 1.53943 0
M  V30 14043 C 1327.43 -0.10273 1.94229 0
M  V30 14044 O 1326.69 -1.07386 1.63605 0
M  V30 14045 C 1326.98 2.19173 2.82309 0
M  V30 14046 C 1326.65 3.67595 2.61121 0
M  V30 14047 C 1325.31 4.08047 2.55051 0
M  V30 14048 C 1327.66 4.61665 2.41898 0
M  V30 14049 C 1324.99 5.40697 2.27736 0
M  V30 14050 C 1327.34 5.94542 2.16108 0
M  V30 14051 C 1326.01 6.34109 2.08476 0
M  V30 14052 H 1325.28 0.48141 0.563317 0
M  V30 14053 H 1327.93 1.68999 0.900638 0
M  V30 14054 H 1326.23 1.74696 3.50697 0
M  V30 14055 H 1327.93 2.12379 3.40141 0
M  V30 14056 H 1324.52 3.35509 2.66705 0
M  V30 14057 H 1328.7 4.3128 2.45584 0
M  V30 14058 H 1323.96 5.70325 2.20315 0
M  V30 14059 H 1328.13 6.66994 2.0023 0
M  V30 14060 H 1325.76 7.36823 1.87073 0
M  V30 14061 N 1327.33 -1.00632 1.21289 0
M  V30 14062 C 1328.56 -1.77709 1.05371 0
M  V30 14063 C 1328.97 -1.84933 -0.39956 0
M  V30 14064 O 1328.31 -1.30881 -1.28903 0
M  V30 14065 C 1328.38 -3.23206 1.5741 0
M  V30 14066 C 1328.04 -3.39563 3.05852 0
M  V30 14067 C 1329.04 -3.27952 4.03415 0
M  V30 14068 C 1326.72 -3.65048 3.4503 0
M  V30 14069 C 1328.72 -3.41587 5.38142 0
M  V30 14070 C 1326.4 -3.78325 4.7991 0
M  V30 14071 C 1327.4 -3.66601 5.76275 0
M  V30 14072 O 1327.09 -3.79458 7.08708 0
M  V30 14073 H 1326.82 -0.565369 0.370585 0
M  V30 14074 H 1329.38 -1.27483 1.6105 0
M  V30 14075 H 1327.61 -3.74562 0.96126 0
M  V30 14076 H 1329.29 -3.81953 1.37356 0
M  V30 14077 H 1330.06 -3.0819 3.74492 0
M  V30 14078 H 1325.94 -3.73256 2.70557 0
M  V30 14079 H 1329.48 -3.32353 6.13341 0
M  V30 14080 H 1325.38 -3.97591 5.08519 0
M  V30 14081 H 1326.15 -3.96413 7.161 0
M  V30 14082 N 1328.81 -1.02043 -1.20104 0
M  V30 14083 C 1329.76 -0.564679 -2.20897 0
M  V30 14084 C 1330.75 0.382041 -1.56299 0
M  V30 14085 O 1331.94 0.204384 -1.75816 0
M  V30 14086 C 1329.07 0.0917516 -3.43177 0
M  V30 14087 C 1328.15 -0.876903 -4.14935 0
M  V30 14088 N 1328.54 -2.03596 -4.63014 0
M  V30 14089 C 1326.84 -0.698538 -4.40496 0
M  V30 14090 C 1327.54 -2.64621 -5.18026 0
M  V30 14091 N 1326.52 -1.92651 -5.08317 0
M  V30 14092 H 1330.32 -1.44825 -2.5574 0
M  V30 14093 H 1327.83 -0.88628 -1.36084 0
M  V30 14094 H 1329.83 0.43582 -4.14616 0
M  V30 14095 H 1328.49 0.971116 -3.09838 0
M  V30 14096 H 1329.5 -2.41573 -4.58108 0
M  V30 14097 H 1326.18 0.132449 -4.1729 0
M  V30 14098 H 1327.57 -3.62732 -5.65575 0
M  V30 14099 N 1330.29 1.35952 -0.797165 0
M  V30 14100 C 1331.54 1.98639 -0.372405 0
M  V30 14101 C 1331.86 1.63571 1.06158 0
M  V30 14102 O 1331.13 0.913516 1.73297 0
M  V30 14103 H 1329.71 0.734753 -0.13471 0
M  V30 14104 H 1332.37 1.66022 -1.02092 0
M  V30 14105 H 1331.47 3.08533 -0.47049 0
M  V30 14106 N 1331.77 0.549846 1.47697 0
M  V30 14107 C 1333 0.0276889 2.06881 0
M  V30 14108 C 1333.41 -1.26273 1.40359 0
M  V30 14109 O 1332.77 -1.75584 0.497644 0
M  V30 14110 C 1332.82 -0.179291 3.61055 0
M  V30 14111 O 1332.54 1.06002 4.25083 0
M  V30 14112 C 1334.04 -0.739571 4.37087 0
M  V30 14113 H 1331.26 0.0425016 0.669653 0
M  V30 14114 H 1333.81 0.761158 1.89807 0
M  V30 14115 H 1331.96 -0.862867 3.77668 0
M  V30 14116 H 1332.37 0.853137 5.17515 0
M  V30 14117 H 1333.85 -0.833722 5.45668 0
M  V30 14118 H 1334.33 -1.74915 4.02867 0
M  V30 14119 H 1334.93 -0.0919294 4.25201 0
M  V30 14120 N 1333.25 -1.54984 0.285932 0
M  V30 14121 C 1334.49 -1.9983 -0.327737 0
M  V30 14122 C 1334.82 -1.17435 -1.55046 0
M  V30 14123 O 1334.08 -0.234735 -1.94287 0
M  V30 14124 C 1334.38 -3.49581 -0.7435 0
M  V30 14125 C 1334.04 -4.49331 0.375792 0
M  V30 14126 C 1332.7 -4.76327 0.683103 0
M  V30 14127 C 1335.06 -5.08815 1.12947 0
M  V30 14128 C 1332.38 -5.60071 1.74748 0
M  V30 14129 C 1334.74 -5.93716 2.18366 0
M  V30 14130 C 1333.4 -6.19028 2.4972 0
M  V30 14131 H 1332.67 -0.731231 -0.119928 0
M  V30 14132 H 1335.32 -1.87235 0.401896 0
M  V30 14133 H 1333.62 -3.59708 -1.55298 0
M  V30 14134 H 1335.32 -3.81694 -1.22924 0
M  V30 14135 H 1331.91 -4.28414 0.126159 0
M  V30 14136 H 1336.09 -4.87973 0.905313 0
M  V30 14137 H 1331.35 -5.77925 1.9953 0
M  V30 14138 H 1335.52 -6.38838 2.77233 0
M  V30 14139 H 1333.15 -6.83711 3.3233 0
M  V30 14140 N 1334.72 -0.0133892 -1.57594 0
M  V30 14141 C 1336.14 0.342848 -1.55874 0
M  V30 14142 C 1336.34 1.73928 -1.01742 0
M  V30 14143 O 1335.4 2.43798 -0.657158 0
M  V30 14144 C 1336.71 0.205831 -2.99995 0
M  V30 14145 C 1338.26 0.279774 -3.11747 0
M  V30 14146 C 1338.73 0.171729 -4.57678 0
M  V30 14147 N 1340.22 0.22921 -4.62633 0
M  V30 14148 C 1340.96 0.169153 -5.7315 0
M  V30 14149 N 1340.45 0.0589166 -6.92775 0
M  V30 14150 N 1342.25 0.221995 -5.61661 0
M  V30 14151 H 1334.4 -0.926727 -1.91117 0
M  V30 14152 H 1336.66 -0.356466 -0.878428 0
M  V30 14153 H 1336.37 -0.755482 -3.4349 0
M  V30 14154 H 1336.24 0.982476 -3.6418 0
M  V30 14155 H 1338.63 1.23154 -2.68174 0
M  V30 14156 H 1338.71 -0.526974 -2.50313 0
M  V30 14157 H 1338.35 -0.776547 -5.01928 0
M  V30 14158 H 1338.28 0.997138 -5.17073 0
M  V30 14159 H 1340.77 0.315196 -3.76583 0
M  V30 14160 H 1341.09 0.0193526 -7.72798 0
M  V30 14161 H 1339.43 0.0243543 -6.94996 0
M  V30 14162 H 1342.62 0.306406 -4.67096 0
M  V30 14163 H 1342.8 0.171727 -6.47772 0
M  V30 14164 N 1336.2 1.55448 0.259558 0
M  V30 14165 C 1337.48 1.6742 1.01143 0
M  V30 14166 C 1337.86 0.549525 2.03822 0
M  V30 14167 O 1337.21 -0.448699 2.24051 0
M  V30 14168 C 1337.42 3.07201 1.65616 0
M  V30 14169 C 1338.77 3.6539 2.16277 0
M  V30 14170 O 1339.79 3.0992 1.7558 0
M  V30 14171 O 1338.65 4.62604 2.90963 0
M  V30 14172 H 1335.74 0.680469 0.469991 0
M  V30 14173 H 1338.29 1.67783 0.254348 0
M  V30 14174 H 1337.06 3.80504 0.912819 0
M  V30 14175 H 1336.68 3.10794 2.47977 0
M  V30 14176 N 1337.68 -0.524672 1.4861 0
M  V30 14177 C 1338.96 -1.28592 1.47389 0
M  V30 14178 C 1339.34 -2.10257 0.188482 0
M  V30 14179 O 1338.69 -2.12905 -0.829689 0
M  V30 14180 C 1338.9 -2.16284 2.73902 0
M  V30 14181 C 1340.24 -2.7625 3.22445 0
M  V30 14182 O 1341.27 -2.26567 2.74856 0
M  V30 14183 O 1340.13 -3.66635 4.05267 0
M  V30 14184 H 1337.22 -0.580666 0.58886 0
M  V30 14185 H 1339.77 -0.540888 1.60849 0
M  V30 14186 H 1338.54 -1.55757 3.58964 0
M  V30 14187 H 1338.16 -2.98024 2.63188 0
M  V30 14188 N 1339.16 -1.37287 -0.77395 0
M  V30 14189 C 1340.41 -1.32374 -1.53243 0
M  V30 14190 C 1340.73 0.0924284 -1.9428 0
M  V30 14191 O 1339.99 1.06517 -1.64173 0
M  V30 14192 C 1340.29 -2.20667 -2.81142 0
M  V30 14193 C 1339.95 -3.68975 -2.59168 0
M  V30 14194 C 1338.62 -4.09394 -2.52884 0
M  V30 14195 C 1340.97 -4.62941 -2.39447 0
M  V30 14196 C 1338.3 -5.41897 -2.24865 0
M  V30 14197 C 1340.65 -5.9568 -2.12952 0
M  V30 14198 C 1339.31 -6.35205 -2.05111 0
M  V30 14199 H 1338.58 -0.48439 -0.560756 0
M  V30 14200 H 1341.23 -1.69475 -0.891663 0
M  V30 14201 H 1339.53 -1.76553 -3.49766 0
M  V30 14202 H 1341.23 -2.1418 -3.3901 0
M  V30 14203 H 1337.82 -3.36919 -2.64922 0
M  V30 14204 H 1342 -4.32576 -2.43293 0
M  V30 14205 H 1337.26 -5.71486 -2.17288 0
M  V30 14206 H 1341.43 -6.68046 -1.9669 0
M  V30 14207 H 1339.06 -7.37804 -1.83163 0
M  V30 14208 N 1340.64 0.999871 -1.21821 0
M  V30 14209 C 1341.57 2.10708 -1.00621 0
M  V30 14210 C 1342.55 1.69954 0.0705417 0
M  V30 14211 O 1343.73 1.9399 -0.0903042 0
M  V30 14212 C 1340.86 3.42496 -0.575646 0
M  V30 14213 C 1339.82 3.97068 -1.59754 0
M  V30 14214 C 1339.14 5.24822 -1.02304 0
M  V30 14215 C 1340.44 4.28545 -2.98574 0
M  V30 14216 H 1342.14 2.28701 -1.93226 0
M  V30 14217 H 1339.68 1.09903 -0.930443 0
M  V30 14218 H 1341.64 4.19357 -0.414481 0
M  V30 14219 H 1340.36 3.2431 0.386059 0
M  V30 14220 H 1339.02 3.22332 -1.74636 0
M  V30 14221 H 1338.67 5.02972 -0.0529016 0
M  V30 14222 H 1338.37 5.62299 -1.70567 0
M  V30 14223 H 1339.89 6.04322 -0.873312 0
M  V30 14224 H 1341.3 4.96229 -2.87106 0
M  V30 14225 H 1339.7 4.77178 -3.63897 0
M  V30 14226 H 1340.77 3.36607 -3.49032 0
M  V30 14227 N 1342.11 1.02678 1.19562 0
M  V30 14228 C 1343.36 0.73282 1.8974 0
M  V30 14229 C 1343.72 -0.730461 1.77994 0
M  V30 14230 O 1343.01 -1.52487 1.1601 0
M  V30 14231 C 1343.2 1.11603 3.39529 0
M  V30 14232 C 1343.03 2.61501 3.65851 0
M  V30 14233 C 1341.8 3.28441 3.83998 0
M  V30 14234 C 1344 3.59707 3.6758 0
M  V30 14235 N 1341.98 4.67465 3.97932 0
M  V30 14236 C 1343.35 4.84339 3.8706 0
M  V30 14237 C 1345.41 3.53535 3.50595 0
M  V30 14238 C 1344.11 6.03544 3.91315 0
M  V30 14239 C 1346.14 4.72153 3.56126 0
M  V30 14240 C 1345.5 5.95598 3.76089 0
M  V30 14241 H 1341.6 0.319992 0.713533 0
M  V30 14242 H 1344.18 1.31366 1.43704 0
M  V30 14243 H 1342.35 0.563414 3.84292 0
M  V30 14244 H 1344.08 0.774538 3.97219 0
M  V30 14245 H 1340.84 2.78856 3.82801 0
M  V30 14246 H 1341.26 5.39676 4.08753 0
M  V30 14247 H 1345.91 2.59083 3.34119 0
M  V30 14248 H 1343.62 6.98366 4.06583 0
M  V30 14249 H 1347.21 4.69003 3.44278 0
M  V30 14250 H 1346.09 6.85847 3.80241 0
M  V30 14251 N 1343.59 -1.35528 0.804364 0
M  V30 14252 C 1344.84 -1.98439 0.382934 0
M  V30 14253 C 1345.16 -1.64132 -1.05289 0
M  V30 14254 O 1344.43 -0.922693 -1.7281 0
M  V30 14255 H 1343.01 -0.734028 0.138605 0
M  V30 14256 H 1345.67 -1.65478 1.02971 0
M  V30 14257 H 1344.77 -3.08279 0.486846 0
M  V30 14258 N 1345.07 -0.557671 -1.47404 0
M  V30 14259 C 1346.32 -0.0338384 -2.02772 0
M  V30 14260 C 1346.65 1.31278 -1.43107 0
M  V30 14261 O 1345.93 1.85436 -0.58682 0
M  V30 14262 C 1346.21 0.0587427 -3.60052 0
M  V30 14263 C 1346.06 -1.315 -4.30148 0
M  V30 14264 C 1347.38 0.771942 -4.33277 0
M  V30 14265 H 1344.5 -0.0137711 -0.736871 0
M  V30 14266 H 1347.14 -0.720049 -1.75827 0
M  V30 14267 H 1345.29 0.643154 -3.83139 0
M  V30 14268 H 1346.96 -1.94265 -4.184 0
M  V30 14269 H 1345.21 -1.88956 -3.90484 0
M  V30 14270 H 1345.88 -1.20294 -5.38733 0
M  V30 14271 H 1348.35 0.275729 -4.15185 0
M  V30 14272 H 1347.23 0.805683 -5.42955 0
M  V30 14273 H 1347.49 1.82816 -4.0253 0
M  V30 14274 N 1346.55 1.54831 -0.294147 0
M  V30 14275 C 1347.77 2.04873 0.32276 0
M  V30 14276 C 1348.2 1.17034 1.47257 0
M  V30 14277 O 1347.56 0.172949 1.80473 0
M  V30 14278 C 1347.61 3.52431 0.76319 0
M  V30 14279 O 1346.71 3.67635 1.86865 0
M  V30 14280 H 1346.05 0.660926 0.0638162 0
M  V30 14281 H 1348.58 1.99944 -0.433995 0
M  V30 14282 H 1348.59 3.94155 1.05385 0
M  V30 14283 H 1347.27 4.15827 -0.0779464 0
M  V30 14284 H 1345.84 3.37816 1.57907 0
M  V30 14285 N 1348.03 0.0217466 1.57585 0
M  V30 14286 C 1349.25 -0.67246 1.96196 0
M  V30 14287 C 1349.68 -1.6529 0.897827 0
M  V30 14288 O 1349.04 -1.80743 -0.142002 0
M  V30 14289 C 1349.08 -1.36162 3.33905 0
M  V30 14290 O 1348.19 -2.47671 3.29747 0
M  V30 14291 H 1347.53 -0.177238 0.639908 0
M  V30 14292 H 1350.06 0.0814073 2.04438 0
M  V30 14293 H 1350.07 -1.7201 3.69968 0
M  V30 14294 H 1348.74 -0.642893 4.10901 0
M  V30 14295 H 1347.32 -2.13989 3.0539 0
M  V30 14296 N 1349.51 -1.55583 -0.251311 0
M  V30 14297 C 1350.73 -1.81597 -1.00186 0
M  V30 14298 C 1351.16 -0.598216 -1.78334 0
M  V30 14299 O 1350.51 0.452667 -1.75558 0
M  V30 14300 C 1350.56 -3.05301 -1.91895 0
M  V30 14301 O 1349.67 -2.81907 -3.01002 0
M  V30 14302 H 1349.01 -0.599578 -0.285311 0
M  V30 14303 H 1351.54 -2.02762 -0.273638 0
M  V30 14304 H 1351.55 -3.34616 -2.33444 0
M  V30 14305 H 1350.22 -3.93574 -1.34433 0
M  V30 14306 H 1348.8 -2.63747 -2.63613 0
M  V30 14307 N 1350.98 0.516783 -1.48886 0
M  V30 14308 C 1351.95 1.60226 -1.63891 0
M  V30 14309 C 1352.95 1.52448 -0.511479 0
M  V30 14310 O 1354.14 1.55882 -0.777582 0
M  V30 14311 C 1351.27 2.99867 -1.62151 0
M  V30 14312 H 1352.46 1.48256 -2.60692 0
M  V30 14313 H 1350.01 0.739844 -1.37681 0
M  V30 14314 H 1350.75 3.1733 -0.668764 0
M  V30 14315 H 1350.53 3.0692 -2.44013 0
M  V30 14316 H 1352.02 3.7876 -1.7587 0
M  V30 14317 N 1352.46 1.37696 0.766659 0
M  V30 14318 C 1353.69 1.36192 1.55355 0
M  V30 14319 C 1354.1 -0.0534148 1.89125 0
M  V30 14320 O 1353.44 -1.02697 1.52312 0
M  V30 14321 C 1353.5 2.14047 2.88833 0
M  V30 14322 C 1353.17 3.6297 2.77672 0
M  V30 14323 C 1354.17 4.56745 2.48355 0
M  V30 14324 C 1351.85 4.06158 2.95534 0
M  V30 14325 C 1353.84 5.91687 2.37035 0
M  V30 14326 C 1351.53 5.41185 2.83835 0
M  V30 14327 C 1352.53 6.33762 2.54627 0
M  V30 14328 O 1352.22 7.66305 2.42963 0
M  V30 14329 H 1351.95 0.46804 0.487765 0
M  V30 14330 H 1354.5 1.81709 0.95765 0
M  V30 14331 H 1352.73 1.63227 3.50562 0
M  V30 14332 H 1354.42 2.05113 3.50262 0
M  V30 14333 H 1355.19 4.24687 2.34236 0
M  V30 14334 H 1351.07 3.34457 3.17269 0
M  V30 14335 H 1354.61 6.63914 2.14158 0
M  V30 14336 H 1350.51 5.72844 2.97524 0
M  V30 14337 H 1351.28 7.76683 2.58274 0
M  V30 14338 N 1353.94 -0.993397 1.22349 0
M  V30 14339 C 1354.87 -2.08543 0.950925 0
M  V30 14340 C 1355.88 -1.62648 -0.0702741 0
M  V30 14341 O 1357.07 -1.77748 0.16367 0
M  V30 14342 C 1354.17 -3.36429 0.408466 0
M  V30 14343 C 1353.35 -4.11356 1.48676 0
M  V30 14344 C 1352.41 -5.17526 0.951478 0
M  V30 14345 O 1351.43 -5.45135 1.63757 0
M  V30 14346 N 1352.63 -5.80055 -0.227378 0
M  V30 14347 H 1355.4 -2.32506 1.89106 0
M  V30 14348 H 1352.96 -1.15911 1.13032 0
M  V30 14349 H 1354.95 -4.04684 0.0356968 0
M  V30 14350 H 1353.52 -3.09534 -0.436767 0
M  V30 14351 H 1352.74 -3.37739 2.03288 0
M  V30 14352 H 1354.03 -4.58187 2.21228 0
M  V30 14353 H 1353.43 -5.59992 -0.801601 0
M  V30 14354 H 1351.98 -6.49546 -0.541538 0
M  V30 14355 N 1355.42 -1.03311 -1.19015 0
M  V30 14356 C 1356.67 -0.727266 -1.88132 0
M  V30 14357 C 1356.98 0.747488 -1.80754 0
M  V30 14358 O 1358.19 1.16654 -2.45161 0
M  V30 14359 C 1356.64 -1.25056 -3.37474 0
M  V30 14360 C 1356.25 -2.7534 -3.534 0
M  V30 14361 C 1357.99 -1.02091 -4.12041 0
M  V30 14362 C 1355.9 -3.21066 -4.96659 0
M  V30 14363 H 1354.83 -0.268349 -0.704631 0
M  V30 14364 H 1357.48 -1.24795 -1.3453 0
M  V30 14365 H 1355.86 -0.65777 -3.90499 0
M  V30 14366 H 1357.04 -3.40311 -3.10684 0
M  V30 14367 H 1355.35 -2.96633 -2.92229 0
M  V30 14368 H 1357.95 -1.33777 -5.17695 0
M  V30 14369 H 1358.29 0.0421413 -4.16279 0
M  V30 14370 H 1358.83 -1.57792 -3.65166 0
M  V30 14371 H 1355.56 -4.26719 -4.97586 0
M  V30 14372 H 1355.08 -2.60826 -5.4012 0
M  V30 14373 H 1356.76 -3.14651 -5.65335 0
M  V30 14374 N 1356.9 1.35099 -0.81154 0
M  V30 14375 C 1357.81 2.33499 -0.22705 0
M  V30 14376 C 1358.82 1.62095 0.632562 0
M  V30 14377 O 1360 1.93938 0.543147 0
M  V30 14378 C 1357.06 3.41279 0.610687 0
M  V30 14379 C 1356.12 4.2845 -0.269994 0
M  V30 14380 C 1355.36 5.31083 0.527854 0
M  V30 14381 O 1355.58 5.42499 1.76213 0
M  V30 14382 O 1354.51 6.01842 -0.083862 0
M  V30 14383 H 1358.34 2.85294 -1.04119 0
M  V30 14384 H 1355.92 1.37957 -0.573432 0
M  V30 14385 H 1357.81 4.07121 1.08768 0
M  V30 14386 H 1356.48 2.91746 1.40235 0
M  V30 14387 H 1355.39 3.65572 -0.794234 0
M  V30 14388 H 1356.72 4.81394 -1.02572 0
M  V30 14389 N 1358.37 0.56548 1.47106 0
M  V30 14390 C 1359.62 0.0444375 2.02051 0
M  V30 14391 C 1359.94 -1.31344 1.44131 0
M  V30 14392 O 1359.21 -1.85845 0.619556 0
M  V30 14393 H 1357.79 0.0134375 0.746879 0
M  V30 14394 H 1360.45 0.737362 1.80413 0
M  V30 14395 H 1359.55 -0.0374834 3.12077 0
M  V30 14396 N 1359.85 -1.54672 0.302354 0
M  V30 14397 C 1360.82 -2.22246 -0.560283 0
M  V30 14398 C 1361.82 -1.20895 -1.06023 0
M  V30 14399 O 1363.01 -1.45621 -0.956047 0
M  V30 14400 C 1360.14 -2.9099 -1.77589 0
M  V30 14401 H 1361.33 -2.99885 0.0301274 0
M  V30 14402 H 1358.88 -1.56209 0.0532036 0
M  V30 14403 H 1359.62 -2.17433 -2.4061 0
M  V30 14404 H 1359.4 -3.65288 -1.42503 0
M  V30 14405 H 1360.89 -3.42535 -2.38871 0
M  V30 14406 N 1361.33 -0.0301034 -1.57571 0
M  V30 14407 C 1362.58 0.643491 -1.92953 0
M  V30 14408 C 1362.93 1.69679 -0.907009 0
M  V30 14409 O 1362.22 1.91446 0.0768136 0
M  V30 14410 C 1362.42 1.30206 -3.32838 0
M  V30 14411 C 1362.25 0.314074 -4.48602 0
M  V30 14412 C 1361.02 -0.0864138 -5.05226 0
M  V30 14413 C 1363.22 -0.432028 -5.12482 0
M  V30 14414 N 1361.2 -1.06947 -6.04513 0
M  V30 14415 C 1362.57 -1.26881 -6.06878 0
M  V30 14416 C 1364.62 -0.492623 -4.95457 0
M  V30 14417 C 1363.33 -2.16071 -6.8608 0
M  V30 14418 C 1365.35 -1.37187 -5.75268 0
M  V30 14419 C 1364.71 -2.19642 -6.69281 0
M  V30 14420 H 1360.81 0.207753 -0.753898 0
M  V30 14421 H 1363.4 -0.0975084 -1.94456 0
M  V30 14422 H 1361.57 2.0132 -3.32152 0
M  V30 14423 H 1363.3 1.93276 -3.55565 0
M  V30 14424 H 1360.06 0.288233 -4.72722 0
M  V30 14425 H 1360.48 -1.55726 -6.58846 0
M  V30 14426 H 1365.12 0.130615 -4.22598 0
M  V30 14427 H 1362.84 -2.79449 -7.58244 0
M  V30 14428 H 1366.43 -1.42306 -5.64128 0
M  V30 14429 H 1365.31 -2.86576 -7.29962 0
M  V30 14430 N 1362.81 1.55714 0.243056 0
M  V30 14431 C 1364.09 1.68483 0.993614 0
M  V30 14432 C 1364.47 0.571112 2.03228 0
M  V30 14433 O 1363.81 -0.42491 2.24515 0
M  V30 14434 C 1364.02 3.0894 1.62349 0
M  V30 14435 C 1365.37 3.67663 2.12389 0
M  V30 14436 O 1366.4 3.11764 1.72283 0
M  V30 14437 O 1365.25 4.65664 2.8604 0
M  V30 14438 H 1362.35 0.685415 0.462747 0
M  V30 14439 H 1364.89 1.68043 0.236538 0
M  V30 14440 H 1363.67 3.81451 0.87241 0
M  V30 14441 H 1363.29 3.13407 2.44667 0
M  V30 14442 N 1364.29 -0.50888 1.49158 0
M  V30 14443 C 1365.25 -1.59354 1.64739 0
M  V30 14444 C 1366.25 -1.52175 0.519557 0
M  V30 14445 O 1367.44 -1.55468 0.785838 0
M  V30 14446 C 1364.57 -2.99002 1.63739 0
M  V30 14447 H 1365.76 -1.46871 2.61474 0
M  V30 14448 H 1363.32 -0.732532 1.38071 0
M  V30 14449 H 1364.05 -3.1697 0.685583 0
M  V30 14450 H 1363.84 -3.05622 2.45637 0
M  V30 14451 H 1365.33 -3.77822 1.77877 0
M  V30 14452 N 1365.76 -1.381 -0.759346 0
M  V30 14453 C 1367.04 -1.24517 -1.50847 0
M  V30 14454 C 1367.42 0.155929 -2.10523 0
M  V30 14455 O 1366.77 1.16485 -1.96579 0
M  V30 14456 C 1366.98 -2.35086 -2.57945 0
M  V30 14457 C 1368.33 -2.73232 -3.25007 0
M  V30 14458 O 1369.35 -2.34355 -2.68247 0
M  V30 14459 O 1368.21 -3.40254 -4.27656 0
M  V30 14460 H 1365.3 -0.486599 -0.668693 0
M  V30 14461 H 1367.85 -1.49913 -0.795249 0
M  V30 14462 H 1366.62 -3.28858 -2.12056 0
M  V30 14463 H 1366.25 -2.11222 -3.36854 0
M  V30 14464 N 1367.24 0.986894 -1.22875 0
M  V30 14465 C 1368.49 1.72388 -1.05484 0
M  V30 14466 C 1368.81 1.90639 0.410074 0
M  V30 14467 O 1368.08 1.47036 1.2945 0
M  V30 14468 H 1366.66 0.638732 -0.387337 0
M  V30 14469 H 1369.32 1.18829 -1.54485 0
M  V30 14470 H 1368.42 2.71599 -1.53754 0
M  V30 14471 N 1368.72 1.0394 1.18466 0
M  V30 14472 C 1369.67 0.629352 2.22054 0
M  V30 14473 C 1370.64 -0.362187 1.62103 0
M  V30 14474 O 1371.82 -0.256457 1.89069 0
M  V30 14475 C 1368.96 -0.00282888 3.451 0
M  V30 14476 C 1368.08 1.03602 4.19393 0
M  V30 14477 C 1367.21 0.372492 5.29892 0
M  V30 14478 C 1366.25 1.39652 5.95956 0
M  V30 14479 N 1365.39 0.758053 6.97996 0
M  V30 14480 H 1370.23 1.51722 2.56485 0
M  V30 14481 H 1367.76 0.759043 1.26004 0
M  V30 14482 H 1369.72 -0.386688 4.15404 0
M  V30 14483 H 1368.35 -0.854224 3.11292 0
M  V30 14484 H 1367.4 1.53784 3.47929 0
M  V30 14485 H 1368.72 1.81387 4.64651 0
M  V30 14486 H 1367.87 -0.065642 6.06664 0
M  V30 14487 H 1366.61 -0.437462 4.85734 0
M  V30 14488 H 1365.61 1.84481 5.17926 0
M  V30 14489 H 1366.84 2.20816 6.42197 0
M  V30 14490 H 1364.78 -0.0316173 6.55992 0
M  V30 14491 H 1364.7 1.47363 7.41499 0
M  V30 14492 H 1365.97 0.344273 7.78739 0
M  V30 14493 N 1370.2 -1.34667 0.818693 0
M  V30 14494 C 1371.45 -1.98022 0.40396 0
M  V30 14495 C 1371.77 -1.65239 -1.03542 0
M  V30 14496 O 1371.04 -0.94097 -1.71821 0
M  V30 14497 H 1369.62 -0.732517 0.146382 0
M  V30 14498 H 1372.28 -1.64377 1.0472 0
M  V30 14499 H 1371.38 -3.07746 0.519516 0
M  V30 14500 N 1371.68 -0.573274 -1.46804 0
M  V30 14501 C 1373.09 -0.144162 -1.86143 0
M  V30 14502 C 1373.44 1.29033 -1.47801 0
M  V30 14503 O 1372.56 1.97319 -0.888494 0
M  V30 14504 C 1373.16 -0.254851 -3.3784 0
M  V30 14505 C 1371.72 0.119325 -3.76211 0
M  V30 14506 C 1370.86 -0.595115 -2.70839 0
M  V30 14507 H 1373.82 -0.782057 -1.38093 0
M  V30 14508 H 1373.84 0.522321 -3.76898 0
M  V30 14509 H 1373.35 -1.29899 -3.65715 0
M  V30 14510 H 1371.45 1.16396 -3.53953 0
M  V30 14511 H 1371.56 -0.250421 -4.78445 0
M  V30 14512 H 1369.93 -0.0364028 -2.54674 0
M  V30 14513 H 1370.71 -1.64072 -3.01555 0
M  V30 14514 N 1373.15 1.5451 -0.310553 0
M  V30 14515 C 1374.38 2.05204 0.301013 0
M  V30 14516 C 1374.8 1.1859 1.46007 0
M  V30 14517 O 1374.16 0.192081 1.8028 0
M  V30 14518 C 1374.21 3.53221 0.725767 0
M  V30 14519 O 1373.31 3.69596 1.82955 0
M  V30 14520 H 1372.66 0.661566 0.0568026 0
M  V30 14521 H 1375.19 1.99473 -0.455178 0
M  V30 14522 H 1375.2 3.9525 1.01198 0
M  V30 14523 H 1373.87 4.15721 -0.122046 0
M  V30 14524 H 1372.45 3.39472 1.54315 0
M  V30 14525 N 1374.63 0.0384594 1.57553 0
M  V30 14526 C 1375.88 -0.637533 1.91359 0
M  V30 14527 C 1376.2 -1.7275 0.91744 0
M  V30 14528 O 1377.4 -2.46078 1.14709 0
M  V30 14529 C 1375.86 -1.18526 3.39823 0
M  V30 14530 C 1375.47 -0.128086 4.47817 0
M  V30 14531 C 1377.21 -1.83723 3.82683 0
M  V30 14532 C 1375.12 -0.687978 5.87385 0
M  V30 14533 H 1374.05 -0.241898 0.714144 0
M  V30 14534 H 1376.7 0.105281 1.83198 0
M  V30 14535 H 1375.08 -1.97999 3.42947 0
M  V30 14536 H 1376.25 0.644865 4.56265 0
M  V30 14537 H 1374.57 0.425672 4.14219 0
M  V30 14538 H 1377.17 -2.26585 4.84317 0
M  V30 14539 H 1377.51 -2.68377 3.18244 0
M  V30 14540 H 1378.04 -1.10926 3.82021 0
M  V30 14541 H 1374.78 0.120642 6.55389 0
M  V30 14542 H 1374.3 -1.4292 5.82524 0
M  V30 14543 H 1375.98 -1.17483 6.36244 0
M  V30 14544 N 1376.11 -1.55841 -0.234795 0
M  V30 14545 C 1377.36 -1.79415 -0.958219 0
M  V30 14546 C 1377.71 -0.609349 -1.82496 0
M  V30 14547 O 1377.01 0.397051 -1.87441 0
M  V30 14548 C 1377.2 -3.06262 -1.84223 0
M  V30 14549 C 1377.03 -4.36966 -1.06256 0
M  V30 14550 C 1375.8 -4.99509 -0.762795 0
M  V30 14551 C 1378 -5.12463 -0.434262 0
M  V30 14552 N 1375.98 -6.13887 0.0396694 0
M  V30 14553 C 1377.35 -6.19565 0.232209 0
M  V30 14554 C 1379.4 -4.96697 -0.345951 0
M  V30 14555 C 1378.11 -7.12613 0.978527 0
M  V30 14556 C 1380.13 -5.90133 0.386865 0
M  V30 14557 C 1379.5 -6.96651 1.04193 0
M  V30 14558 H 1375.59 -0.708334 -0.331342 0
M  V30 14559 H 1378.18 -1.93334 -0.230254 0
M  V30 14560 H 1376.35 -2.9365 -2.54213 0
M  V30 14561 H 1378.08 -3.18081 -2.50213 0
M  V30 14562 H 1374.84 -4.61178 -1.07757 0
M  V30 14563 H 1375.26 -6.75637 0.429349 0
M  V30 14564 H 1379.9 -4.14411 -0.83806 0
M  V30 14565 H 1377.62 -7.94391 1.4822 0
M  V30 14566 H 1381.21 -5.8001 0.456023 0
M  V30 14567 H 1380.09 -7.67706 1.59992 0
M  V30 14568 N 1377.59 0.500963 -1.49426 0
M  V30 14569 C 1378.87 1.26231 -1.49416 0
M  V30 14570 C 1379.25 2.0993 -0.221908 0
M  V30 14571 O 1378.59 2.14198 0.795712 0
M  V30 14572 C 1378.8 2.11899 -2.77308 0
M  V30 14573 C 1380.15 2.71086 -3.26799 0
M  V30 14574 O 1381.18 2.22166 -2.78425 0
M  V30 14575 O 1380.04 3.60141 -4.11049 0
M  V30 14576 H 1377.13 0.571224 -0.598024 0
M  V30 14577 H 1379.68 0.51523 -1.61689 0
M  V30 14578 H 1378.45 1.50027 -3.61397 0
M  V30 14579 H 1378.07 2.93799 -2.67896 0
M  V30 14580 N 1379.07 1.38501 0.752011 0
M  V30 14581 C 1380.02 1.35975 1.88716 0
M  V30 14582 C 1381.01 0.245392 1.67613 0
M  V30 14583 O 1382.22 0.414514 1.75162 0
M  V30 14584 H 1378.59 0.424221 0.620919 0
M  V30 14585 H 1380.56 2.3176 1.87962 0
M  V30 14586 C 1379.31 1.20326 3.26216 0
M  V30 14587 H 1378.63 2.05336 3.43041 0
M  V30 14588 H 1380.07 1.22613 4.05884 0
M  V30 14589 C 1378.53 -0.0897029 3.36781 0
M  V30 14590 O 1379.06 -1.06615 3.87293 0
M  V30 14591 N 1377.27 -0.147065 2.90228 0
M  V30 14592 H 1376.82 0.648216 2.49311 0
M  V30 14593 H 1376.77 -1.01174 2.97676 0
M  V30 14594 N 1380.55 -0.980364 1.23396 0
M  V30 14595 C 1381.79 -1.72166 1.06607 0
M  V30 14596 C 1382.12 -1.90405 -0.397029 0
M  V30 14597 O 1381.38 -1.45363 -1.31027 0
M  V30 14598 C 1381.67 -3.12367 1.73671 0
M  V30 14599 C 1381.34 -3.14007 3.2359 0
M  V30 14600 C 1380 -3.14162 3.64494 0
M  V30 14601 C 1382.35 -3.09319 4.19489 0
M  V30 14602 C 1379.68 -3.07345 4.99756 0
M  V30 14603 C 1382.03 -3.04044 5.54743 0
M  V30 14604 C 1380.7 -3.02521 5.9501 0
M  V30 14605 H 1379.97 -0.63 0.390104 0
M  V30 14606 H 1382.62 -1.14727 1.5333 0
M  V30 14607 H 1380.92 -3.73193 1.19308 0
M  V30 14608 H 1382.62 -3.68493 1.58159 0
M  V30 14609 H 1379.21 -3.14644 2.91028 0
M  V30 14610 H 1383.39 -3.08339 3.88897 0
M  V30 14611 H 1378.65 -3.04519 5.30168 0
M  V30 14612 H 1382.82 -2.99374 6.28767 0
M  V30 14613 H 1380.45 -2.96994 6.99785 0
M  V30 14614 N 1382.02 -1.04567 -1.17913 0
M  V30 14615 C 1383.25 -0.772204 -1.9195 0
M  V30 14616 C 1383.67 0.671303 -1.76462 0
M  V30 14617 O 1383.02 1.45805 -1.0976 0
M  V30 14618 C 1383.07 -1.13539 -3.43207 0
M  V30 14619 O 1382.8 -2.52223 -3.58211 0
M  V30 14620 C 1384.3 -0.887146 -4.34332 0
M  V30 14621 H 1381.52 -0.281234 -0.609219 0
M  V30 14622 H 1384.06 -1.39467 -1.49563 0
M  V30 14623 H 1382.22 -0.557784 -3.83363 0
M  V30 14624 H 1382.63 -2.66275 -4.51882 0
M  V30 14625 H 1384.1 -1.19107 -5.38997 0
M  V30 14626 H 1384.58 0.1779 -4.3884 0
M  V30 14627 H 1385.19 -1.44829 -3.99881 0
M  V30 14628 N 1383.5 1.34231 -0.825823 0
M  V30 14629 C 1384.45 2.26916 -0.222038 0
M  V30 14630 C 1385.44 1.48667 0.615382 0
M  V30 14631 O 1386.63 1.7066 0.469487 0
M  V30 14632 C 1383.76 3.37787 0.612785 0
M  V30 14633 C 1382.84 4.23446 -0.235423 0
M  V30 14634 N 1383.23 4.88599 -1.30784 0
M  V30 14635 C 1381.53 4.45995 -0.0202477 0
M  V30 14636 C 1382.23 5.52254 -1.82729 0
M  V30 14637 N 1381.21 5.3171 -1.13074 0
M  V30 14638 H 1385.01 2.74796 -1.04232 0
M  V30 14639 H 1382.52 1.47983 -0.668928 0
M  V30 14640 H 1384.52 4.03159 1.06153 0
M  V30 14641 H 1383.18 2.91457 1.43119 0
M  V30 14642 H 1384.19 4.89528 -1.69066 0
M  V30 14643 H 1380.87 4.10417 0.765761 0
M  V30 14644 H 1382.26 6.14177 -2.72464 0
M  V30 14645 N 1384.98 0.581051 1.46498 0
M  V30 14646 C 1386.21 0.0715652 2.06776 0
M  V30 14647 C 1386.62 -1.23267 1.43006 0
M  V30 14648 O 1385.98 -1.74489 0.534776 0
M  V30 14649 C 1386.03 -0.102666 3.61354 0
M  V30 14650 O 1385.75 1.14995 4.22739 0
M  V30 14651 C 1387.25 -0.646692 4.38558 0
M  V30 14652 H 1384.47 0.0566964 0.6686 0
M  V30 14653 H 1387.02 0.801248 1.8815 0
M  V30 14654 H 1385.17 -0.782564 3.79414 0
M  V30 14655 H 1385.59 0.962718 5.15589 0
M  V30 14656 H 1387.06 -0.717791 5.47313 0
M  V30 14657 H 1387.54 -1.6633 4.06486 0
M  V30 14658 H 1388.14 -0.00171739 4.253 0
M  V30 14659 N 1386.46 -1.54343 0.318742 0
M  V30 14660 C 1387.87 -1.85922 -0.170309 0
M  V30 14661 C 1388.22 -1.24047 -1.52009 0
M  V30 14662 O 1387.34 -0.544705 -2.09432 0
M  V30 14663 C 1387.94 -3.37325 -0.315802 0
M  V30 14664 C 1386.5 -3.68871 -0.749073 0
M  V30 14665 C 1385.65 -2.76985 0.13209 0
M  V30 14666 H 1388.6 -1.4926 0.539185 0
M  V30 14667 H 1388.62 -3.62784 -1.14751 0
M  V30 14668 H 1388.13 -3.8233 0.66674 0
M  V30 14669 H 1386.23 -3.29396 -1.74153 0
M  V30 14670 H 1386.34 -4.75861 -0.556164 0
M  V30 14671 H 1384.71 -2.51672 -0.391564 0
M  V30 14672 H 1385.49 -3.24815 1.11131 0
M  V30 14673 N 1387.94 -0.0468143 -1.5753 0
M  V30 14674 C 1389.18 0.626699 -1.92138 0
M  V30 14675 C 1389.5 1.7164 -0.925463 0
M  V30 14676 O 1388.77 1.95876 0.0303531 0
M  V30 14677 H 1387.35 0.234479 -0.709245 0
M  V30 14678 H 1390.02 -0.0987892 -1.94649 0
M  V30 14679 H 1389.11 1.06811 -2.93254 0
M  V30 14680 N 1389.41 1.55964 0.226527 0
M  V30 14681 C 1390.64 1.83168 0.972846 0
M  V30 14682 C 1391.06 0.626512 1.7736 0
M  V30 14683 O 1390.42 -0.42468 1.76256 0
M  V30 14684 C 1390.47 3.08315 1.87014 0
M  V30 14685 O 1389.57 2.8666 2.96479 0
M  V30 14686 H 1388.92 0.604041 0.275736 0
M  V30 14687 H 1391.45 2.03172 0.241345 0
M  V30 14688 H 1391.46 3.38288 2.28091 0
M  V30 14689 H 1390.13 3.95663 1.28154 0
M  V30 14690 H 1388.71 2.67907 2.59384 0
M  V30 14691 N 1390.89 -0.493031 1.4969 0
M  V30 14692 C 1391.84 -1.61449 1.67442 0
M  V30 14693 C 1392.83 -1.60553 0.540296 0
M  V30 14694 O 1394.04 -1.64965 0.720167 0
M  V30 14695 H 1390.42 -0.535337 0.528127 0
M  V30 14696 H 1392.39 -1.43631 2.61558 0
M  V30 14697 C 1391.14 -2.99537 1.76559 0
M  V30 14698 H 1390.46 -3.00936 2.63206 0
M  V30 14699 H 1391.9 -3.77521 1.93013 0
M  V30 14700 C 1390.36 -3.32984 0.512176 0
M  V30 14701 O 1390.89 -4.00096 -0.35857 0
M  V30 14702 N 1389.09 -2.882 0.372734 0
M  V30 14703 H 1388.64 -2.3376 1.08232 0
M  V30 14704 H 1388.6 -3.10945 -0.464804 0
M  V30 14705 N 1392.37 -1.38898 -0.744656 0
M  V30 14706 C 1393.62 -1.35795 -1.50623 0
M  V30 14707 C 1393.95 0.0491775 -1.94138 0
M  V30 14708 O 1393.22 1.01219 -1.66087 0
M  V30 14709 C 1393.51 -2.32168 -2.75263 0
M  V30 14710 C 1393.36 -3.81781 -2.3783 0
M  V30 14711 C 1394.68 -2.26526 -3.77325 0
M  V30 14712 H 1391.8 -0.494591 -0.546396 0
M  V30 14713 H 1394.44 -1.69816 -0.852211 0
M  V30 14714 H 1392.59 -2.03287 -3.31069 0
M  V30 14715 H 1394.26 -4.21373 -1.8773 0
M  V30 14716 H 1392.51 -3.99027 -1.70176 0
M  V30 14717 H 1393.18 -4.44687 -3.27044 0
M  V30 14718 H 1395.65 -2.52041 -3.31081 0
M  V30 14719 H 1394.53 -2.96053 -4.62216 0
M  V30 14720 H 1394.79 -1.26705 -4.23554 0
M  V30 14721 N 1393.85 0.973806 -1.23914 0
M  V30 14722 C 1394.8 2.06734 -1.02614 0
M  V30 14723 C 1395.77 1.65997 0.0585705 0
M  V30 14724 O 1396.95 1.90564 -0.0948467 0
M  V30 14725 C 1394.09 3.39292 -0.630493 0
M  V30 14726 C 1393.2 3.9326 -1.78803 0
M  V30 14727 C 1392.34 5.14059 -1.33854 0
M  V30 14728 C 1391.38 5.60209 -2.46642 0
M  V30 14729 N 1390.51 6.72232 -2.02603 0
M  V30 14730 H 1395.35 2.24287 -1.96212 0
M  V30 14731 H 1392.89 1.09935 -0.977376 0
M  V30 14732 H 1394.85 4.15446 -0.382163 0
M  V30 14733 H 1393.48 3.21682 0.268483 0
M  V30 14734 H 1392.53 3.13801 -2.15019 0
M  V30 14735 H 1393.84 4.23475 -2.63573 0
M  V30 14736 H 1393 5.97567 -1.04873 0
M  V30 14737 H 1391.74 4.85513 -0.46131 0
M  V30 14738 H 1390.74 4.75278 -2.7639 0
M  V30 14739 H 1391.97 5.90771 -3.34912 0
M  V30 14740 H 1389.91 6.45433 -1.17269 0
M  V30 14741 H 1389.83 7.01865 -2.80929 0
M  V30 14742 H 1391.1 7.59198 -1.76745 0
M  V30 14743 N 1395.33 1.05191 1.17357 0
M  V30 14744 C 1396.6 0.675826 1.83554 0
M  V30 14745 C 1396.98 -0.843812 1.93502 0
M  V30 14746 O 1396.33 -1.74975 1.46956 0
M  V30 14747 C 1396.54 1.36481 3.21207 0
M  V30 14748 C 1397.89 1.50285 3.97114 0
M  V30 14749 O 1398.91 1.32382 3.30686 0
M  V30 14750 O 1397.77 1.79562 5.16159 0
M  V30 14751 H 1394.87 0.237898 0.792044 0
M  V30 14752 H 1397.41 1.1515 1.24654 0
M  V30 14753 H 1396.18 2.40156 3.08935 0
M  V30 14754 H 1395.81 0.878491 3.87774 0
M  V30 14755 N 1396.8 -1.33791 0.83293 0
M  V30 14756 C 1397.75 -2.31249 0.250357 0
M  V30 14757 C 1398.75 -1.57865 -0.614403 0
M  V30 14758 O 1399.95 -1.72782 -0.504627 0
M  V30 14759 H 1396.33 -0.749421 0.0622268 0
M  V30 14760 H 1398.3 -2.77899 1.08697 0
M  V30 14761 C 1397.05 -3.43082 -0.564783 0
M  V30 14762 H 1396.37 -3.99696 0.0913189 0
M  V30 14763 H 1397.81 -4.13486 -0.938351 0
M  V30 14764 C 1396.27 -2.88414 -1.74124 0
M  V30 14765 O 1396.8 -2.84113 -2.83976 0
M  V30 14766 N 1395.01 -2.45101 -1.56121 0
M  V30 14767 H 1394.55 -2.48799 -0.667607 0
M  V30 14768 H 1394.51 -2.08875 -2.34986 0
M  V30 14769 N 1398.28 -0.588812 -1.46187 0
M  V30 14770 C 1399.25 0.130803 -2.28826 0
M  V30 14771 C 1400.25 0.813037 -1.38731 0
M  V30 14772 O 1401.44 0.664061 -1.61046 0
M  V30 14773 C 1398.57 1.19484 -3.19275 0
M  V30 14774 H 1399.76 -0.595514 -2.93928 0
M  V30 14775 H 1397.31 -0.347038 -1.52399 0
M  V30 14776 H 1398.05 1.95254 -2.58933 0
M  V30 14777 H 1397.83 0.710077 -3.85617 0
M  V30 14778 H 1399.32 1.69938 -3.81459 0
M  V30 14779 N 1399.76 1.54172 -0.326923 0
M  V30 14780 C 1400.99 2.05044 0.276508 0
M  V30 14781 C 1401.4 1.20288 1.45521 0
M  V30 14782 O 1400.76 0.234324 1.80989 0
M  V30 14783 C 1400.81 3.54505 0.707714 0
M  V30 14784 O 1400.53 4.36042 -0.424098 0
M  V30 14785 C 1402.03 4.21482 1.3736 0
M  V30 14786 H 1399.25 0.668632 0.0563273 0
M  V30 14787 H 1401.8 1.98929 -0.474087 0
M  V30 14788 H 1399.95 3.60896 1.40828 0
M  V30 14789 H 1400.37 5.24433 -0.0836846 0
M  V30 14790 H 1401.84 5.27501 1.62623 0
M  V30 14791 H 1402.32 3.72802 2.32196 0
M  V30 14792 H 1402.92 4.19238 0.715526 0
M  V30 14793 N 1401.24 0.0551678 1.57503 0
M  V30 14794 C 1402.49 -0.6165 1.92467 0
M  V30 14795 C 1402.81 -1.71147 0.934552 0
M  V30 14796 O 1402.08 -1.9589 -0.0199649 0
M  V30 14797 H 1400.66 -0.230714 0.710479 0
M  V30 14798 H 1403.32 0.109111 1.94594 0
M  V30 14799 H 1402.42 -1.05254 2.93816 0
M  V30 14800 N 1402.72 -1.56081 -0.218252 0
M  V30 14801 C 1403.99 -1.70043 -0.966684 0
M  V30 14802 C 1404.37 -0.603372 -2.02293 0
M  V30 14803 O 1403.72 0.389138 -2.25162 0
M  V30 14804 C 1403.93 -3.11484 -1.57413 0
M  V30 14805 C 1405.28 -3.70995 -2.06513 0
M  V30 14806 O 1406.3 -3.14466 -1.67301 0
M  V30 14807 O 1405.16 -4.70156 -2.78596 0
M  V30 14808 H 1402.26 -0.692691 -0.451784 0
M  V30 14809 H 1404.8 -1.68398 -0.209774 0
M  V30 14810 H 1403.57 -3.8279 -0.811614 0
M  V30 14811 H 1403.2 -3.1726 -2.3965 0
M  V30 14812 N 1404.2 0.485086 -1.49949 0
M  V30 14813 C 1405.44 1.23486 -1.5948 0
M  V30 14814 C 1405.76 1.93377 -0.294082 0
M  V30 14815 O 1406.96 2.70173 -0.268133 0
M  V30 14816 C 1405.42 2.24303 -2.81454 0
M  V30 14817 C 1405.03 1.60279 -4.18347 0
M  V30 14818 C 1406.77 3.0001 -3.00324 0
M  V30 14819 C 1404.68 2.593 -5.31524 0
M  V30 14820 H 1403.61 0.464595 -0.593858 0
M  V30 14821 H 1406.26 0.506893 -1.7636 0
M  V30 14822 H 1404.64 3.00332 -2.58102 0
M  V30 14823 H 1405.82 0.901352 -4.51899 0
M  V30 14824 H 1404.13 0.969053 -4.04967 0
M  V30 14825 H 1406.73 3.74091 -3.82048 0
M  V30 14826 H 1407.07 3.5857 -2.11502 0
M  V30 14827 H 1407.6 2.31095 -3.2379 0
M  V30 14828 H 1404.34 2.05498 -6.22455 0
M  V30 14829 H 1403.86 3.27638 -5.02408 0
M  V30 14830 H 1405.54 3.21411 -5.61519 0
M  V30 14831 N 1405.67 1.39291 0.737279 0
M  V30 14832 C 1406.64 1.37607 1.83294 0
M  V30 14833 C 1407.64 0.273594 1.58455 0
M  V30 14834 O 1408.83 0.531375 1.65898 0
M  V30 14835 C 1405.96 1.14642 3.21045 0
M  V30 14836 H 1407.15 2.35102 1.86191 0
M  V30 14837 H 1404.7 1.24822 0.940696 0
M  V30 14838 H 1405.44 0.178202 3.2381 0
M  V30 14839 H 1405.22 1.94479 3.40471 0
M  V30 14840 H 1406.71 1.162 4.01108 0
M  V30 14841 N 1407.15 -0.967221 1.24429 0
M  V30 14842 C 1408.39 -1.72521 1.09617 0
M  V30 14843 C 1408.76 -1.88618 -0.358774 0
M  V30 14844 O 1409.96 -2.61351 -0.628408 0
M  V30 14845 C 1408.23 -3.07818 1.81612 0
M  V30 14846 S 1409.79 -3.99031 1.82537 0
M  V30 14847 H 1406.6 -0.593148 0.392041 0
M  V30 14848 H 1409.21 -1.15456 1.57766 0
M  V30 14849 H 1407.91 -2.93762 2.86586 0
M  V30 14850 H 1407.44 -3.69948 1.33799 0
M  V30 14851 H 1409.46 -4.88091 0.893391 0
M  V30 14852 N 1408.63 -1.05812 -1.16797 0
M  V30 14853 C 1409.91 -0.685551 -1.83193 0
M  V30 14854 C 1410.29 0.833539 -1.93947 0
M  V30 14855 O 1409.63 1.74193 -1.47882 0
M  V30 14856 C 1409.84 -1.38183 -3.20479 0
M  V30 14857 C 1411.19 -1.52389 -3.96311 0
M  V30 14858 O 1412.22 -1.34134 -3.2998 0
M  V30 14859 O 1411.08 -1.82297 -5.15199 0
M  V30 14860 H 1408.17 -0.242095 -0.790771 0
M  V30 14861 H 1410.72 -1.15809 -1.24041 0
M  V30 14862 H 1409.49 -2.41791 -3.07657 0
M  V30 14863 H 1409.11 -0.899043 -3.87302 0
M  V30 14864 N 1410.11 1.33347 -0.840014 0
M  V30 14865 C 1411.33 2.02485 -0.448856 0
M  V30 14866 C 1411.76 1.62781 0.942543 0
M  V30 14867 O 1411.12 0.82099 1.61646 0
M  V30 14868 C 1411.16 3.55928 -0.578582 0
M  V30 14869 O 1410.27 4.10507 0.394695 0
M  V30 14870 H 1409.61 0.63848 -0.182317 0
M  V30 14871 H 1412.14 1.70221 -1.13516 0
M  V30 14872 H 1412.15 4.05391 -0.460653 0
M  V30 14873 H 1410.82 3.8417 -1.5933 0
M  V30 14874 H 1409.4 3.72164 0.234227 0
M  V30 14875 N 1411.59 0.596556 1.45873 0
M  V30 14876 C 1412.82 0.093357 2.06389 0
M  V30 14877 C 1413.22 -1.2229 1.44367 0
M  V30 14878 O 1412.57 -1.75332 0.548131 0
M  V30 14879 C 1412.63 -0.132256 3.59257 0
M  V30 14880 C 1412.29 1.10051 4.43551 0
M  V30 14881 C 1413.29 2.01598 4.79223 0
M  V30 14882 C 1410.97 1.32625 4.84475 0
M  V30 14883 C 1412.97 3.14054 5.54661 0
M  V30 14884 C 1410.66 2.45384 5.5967 0
M  V30 14885 C 1411.65 3.35927 5.94678 0
M  V30 14886 O 1411.34 4.46726 6.6835 0
M  V30 14887 H 1411.07 0.0608944 0.673252 0
M  V30 14888 H 1413.63 0.821009 1.88278 0
M  V30 14889 H 1411.86 -0.914678 3.75727 0
M  V30 14890 H 1413.55 -0.585681 4.01652 0
M  V30 14891 H 1414.31 1.85379 4.48174 0
M  V30 14892 H 1410.19 0.630522 4.56668 0
M  V30 14893 H 1413.74 3.8475 5.81904 0
M  V30 14894 H 1409.63 2.6156 5.90133 0
M  V30 14895 H 1410.4 4.45268 6.86789 0
M  V30 14896 N 1413.06 -1.53996 0.335095 0
M  V30 14897 C 1414.01 -2.21479 -0.541388 0
M  V30 14898 C 1415 -1.19926 -1.07268 0
M  V30 14899 O 1416.19 -1.45508 -1.00779 0
M  V30 14900 C 1413.32 -2.98477 -1.69607 0
M  V30 14901 C 1412.4 -4.07379 -1.17912 0
M  V30 14902 N 1412.8 -5.0435 -0.382732 0
M  V30 14903 C 1411.09 -4.21537 -1.45679 0
M  V30 14904 C 1411.79 -5.81608 -0.103194 0
M  V30 14905 N 1410.77 -5.39171 -0.692513 0
M  V30 14906 H 1414.57 -2.93806 0.0742285 0
M  V30 14907 H 1412.09 -1.61782 0.141529 0
M  V30 14908 H 1414.08 -3.45316 -2.33587 0
M  V30 14909 H 1412.74 -2.27674 -2.31505 0
M  V30 14910 H 1413.75 -5.17894 -0.0245533 0
M  V30 14911 H 1410.43 -3.61953 -2.08078 0
M  V30 14912 H 1411.82 -6.69737 0.538682 0
M  V30 14913 N 1414.54 -0.0635198 -1.57472 0
M  V30 14914 C 1415.47 0.93602 -2.09216 0
M  V30 14915 C 1416.49 1.2668 -1.02255 0
M  V30 14916 O 1417.68 1.22543 -1.2979 0
M  V30 14917 C 1414.78 2.25417 -2.53062 0
M  V30 14918 C 1413.95 2.10347 -3.83501 0
M  V30 14919 C 1413.01 3.25394 -4.13528 0
M  V30 14920 O 1412.03 3.00751 -4.83257 0
M  V30 14921 N 1413.24 4.50243 -3.66417 0
M  V30 14922 H 1416 0.494288 -2.95596 0
M  V30 14923 H 1413.56 0.122416 -1.61437 0
M  V30 14924 H 1415.55 3.01272 -2.70217 0
M  V30 14925 H 1414.12 2.61116 -1.71864 0
M  V30 14926 H 1413.34 1.19009 -3.75807 0
M  V30 14927 H 1414.63 1.97519 -4.68896 0
M  V30 14928 H 1414.03 4.73152 -3.1007 0
M  V30 14929 H 1412.59 5.23152 -3.88787 0
M  V30 14930 N 1416.02 1.56195 0.209972 0
M  V30 14931 C 1416.95 1.96378 1.26324 0
M  V30 14932 C 1417.93 0.833606 1.48273 0
M  V30 14933 O 1419.12 1.0968 1.60262 0
M  V30 14934 C 1416.25 2.29048 2.61064 0
M  V30 14935 C 1415.2 3.44665 2.53752 0
M  V30 14936 C 1414.53 3.6297 3.92628 0
M  V30 14937 C 1415.83 4.79297 2.07536 0
M  V30 14938 H 1417.52 2.8461 0.929379 0
M  V30 14939 H 1415.07 1.36931 0.445627 0
M  V30 14940 H 1417.02 2.55752 3.34916 0
M  V30 14941 H 1415.74 1.37682 2.96161 0
M  V30 14942 H 1414.4 3.18028 1.82356 0
M  V30 14943 H 1414.05 2.68961 4.25052 0
M  V30 14944 H 1413.75 4.40741 3.88614 0
M  V30 14945 H 1415.27 3.92035 4.68125 0
M  V30 14946 H 1416.69 5.05131 2.71138 0
M  V30 14947 H 1415.08 5.60433 2.14557 0
M  V30 14948 H 1416.15 4.73877 1.02802 0
M  V30 14949 N 1417.5 -0.477127 1.50204 0
M  V30 14950 C 1418.77 -1.23837 1.51406 0
M  V30 14951 C 1419.15 -2.09551 0.255278 0
M  V30 14952 O 1418.5 -2.15437 -0.761535 0
M  V30 14953 C 1418.71 -2.0746 2.80644 0
M  V30 14954 C 1420.06 -2.65852 3.31071 0
M  V30 14955 O 1421.08 -2.17708 2.81925 0
M  V30 14956 O 1419.94 -3.53556 4.16726 0
M  V30 14957 H 1417.04 -0.561638 0.607036 0
M  V30 14958 H 1419.58 -0.489442 1.62489 0
M  V30 14959 H 1418.36 -1.44258 3.63738 0
M  V30 14960 H 1417.98 -2.895 2.72536 0
M  V30 14961 N 1418.98 -1.3968 -0.729882 0
M  V30 14962 C 1419.94 -1.38577 -1.82562 0
M  V30 14963 C 1420.94 -0.281994 -1.58308 0
M  V30 14964 O 1422.13 -0.540165 -1.65614 0
M  V30 14965 C 1419.26 -1.16343 -3.20433 0
M  V30 14966 H 1420.45 -2.36086 -1.84942 0
M  V30 14967 H 1418.01 -1.25319 -0.934063 0
M  V30 14968 H 1418.74 -0.195372 -3.23711 0
M  V30 14969 H 1418.53 -1.96282 -3.39435 0
M  V30 14970 H 1420.02 -1.18325 -4.00486 0
M  V30 14971 N 1420.45 0.960609 -1.2494 0
M  V30 14972 C 1421.73 1.68035 -1.00118 0
M  V30 14973 C 1422.11 2.057 0.474399 0
M  V30 14974 O 1421.46 1.76569 1.45036 0
M  V30 14975 C 1421.67 2.90708 -1.93106 0
M  V30 14976 C 1423.02 3.62792 -2.20606 0
M  V30 14977 O 1424.04 3.00778 -1.90816 0
M  V30 14978 O 1422.9 4.74443 -2.71231 0
M  V30 14979 H 1419.99 0.734939 -0.379202 0
M  V30 14980 H 1422.54 1.01407 -1.36069 0
M  V30 14981 H 1421.31 2.59619 -2.92769 0
M  V30 14982 H 1420.94 3.65068 -1.57515 0
M  V30 14983 N 1421.93 1.0643 1.16234 0
M  V30 14984 C 1422.86 0.697605 2.22836 0
M  V30 14985 C 1423.84 -0.310563 1.67241 0
M  V30 14986 O 1425.03 -0.185385 1.93313 0
M  V30 14987 C 1422.16 0.0847097 3.47197 0
M  V30 14988 C 1421.11 1.019 4.15693 0
M  V30 14989 C 1420.44 0.269339 5.34021 0
M  V30 14990 C 1421.74 2.34861 4.66516 0
M  V30 14991 H 1423.43 1.58883 2.53765 0
M  V30 14992 H 1420.98 0.765388 1.21975 0
M  V30 14993 H 1422.93 -0.1837 4.20999 0
M  V30 14994 H 1421.66 -0.84154 3.15572 0
M  V30 14995 H 1420.31 1.27218 3.43818 0
M  V30 14996 H 1419.96 -0.660072 4.9865 0
M  V30 14997 H 1419.66 0.892001 5.8079 0
M  V30 14998 H 1421.19 0.00850775 6.10599 0
M  V30 14999 H 1422.6 2.13922 5.31893 0
M  V30 15000 H 1421 2.92637 5.23912 0
M  V30 15001 H 1422.07 2.97834 3.82653 0
M  V30 15002 N 1423.41 -1.329 0.847073 0
M  V30 15003 C 1424.36 -2.3097 0.27487 0
M  V30 15004 C 1425.35 -1.58508 -0.597625 0
M  V30 15005 O 1426.56 -1.73307 -0.486273 0
M  V30 15006 H 1422.93 -0.748719 0.0701719 0
M  V30 15007 H 1424.9 -2.7673 1.11638 0
M  V30 15008 C 1423.65 -3.43662 -0.528363 0
M  V30 15009 H 1422.98 -3.99576 0.133707 0
M  V30 15010 H 1424.42 -4.14458 -0.894443 0
M  V30 15011 C 1422.88 -2.90244 -1.71055 0
M  V30 15012 O 1423.41 -2.87109 -2.80947 0
M  V30 15013 N 1421.61 -2.46743 -1.53512 0
M  V30 15014 H 1421.16 -2.49493 -0.641181 0
M  V30 15015 H 1421.12 -2.11356 -2.32757 0
M  V30 15016 N 1424.89 -0.604284 -1.45555 0
M  V30 15017 C 1425.82 0.165286 -2.27601 0
M  V30 15018 C 1426.8 0.876749 -1.36937 0
M  V30 15019 O 1427.98 0.886288 -1.66365 0
M  V30 15020 C 1425.11 1.23897 -3.15226 0
M  V30 15021 C 1424.16 0.631002 -4.21806 0
M  V30 15022 S 1424.99 -0.558612 -5.32578 0
M  V30 15023 C 1426.15 0.515745 -6.23772 0
M  V30 15024 H 1426.38 -0.53081 -2.92523 0
M  V30 15025 H 1423.91 -0.391717 -1.49348 0
M  V30 15026 H 1425.87 1.85358 -3.66268 0
M  V30 15027 H 1424.53 1.90712 -2.49575 0
M  V30 15028 H 1423.72 1.43876 -4.83028 0
M  V30 15029 H 1423.33 0.0915984 -3.73888 0
M  V30 15030 H 1425.62 1.39571 -6.62968 0
M  V30 15031 H 1426.56 -0.0602302 -7.08074 0
M  V30 15032 H 1426.97 0.829588 -5.58371 0
M  V30 15033 N 1426.37 1.53816 -0.343257 0
M  V30 15034 C 1427.3 2.27951 0.506005 0
M  V30 15035 C 1428.28 1.29502 1.10287 0
M  V30 15036 O 1429.46 1.58344 1.12432 0
M  V30 15037 C 1426.59 3.0521 1.65723 0
M  V30 15038 C 1425.55 4.11161 1.18871 0
M  V30 15039 C 1424.87 4.76373 2.42843 0
M  V30 15040 C 1426.17 5.21498 0.289403 0
M  V30 15041 H 1427.87 2.99189 -0.112435 0
M  V30 15042 H 1425.41 1.43893 -0.055516 0
M  V30 15043 H 1427.37 3.55811 2.2578 0
M  V30 15044 H 1426.09 2.31624 2.30256 0
M  V30 15045 H 1424.75 3.61473 0.610962 0
M  V30 15046 H 1424.4 3.99381 3.05784 0
M  V30 15047 H 1424.1 5.47955 2.12177 0
M  V30 15048 H 1425.62 5.29758 3.03627 0
M  V30 15049 H 1427.03 5.67736 0.796808 0
M  V30 15050 H 1425.43 6.00054 0.0746366 0
M  V30 15051 H 1426.5 4.80185 -0.674543 0
M  V30 15052 N 1427.84 0.0718701 1.57436 0
M  V30 15053 C 1429.26 -0.28476 1.57039 0
M  V30 15054 C 1429.46 -1.70032 1.08127 0
M  V30 15055 O 1428.52 -2.41191 0.747189 0
M  V30 15056 C 1429.83 -0.0943482 3.00552 0
M  V30 15057 C 1431.38 -0.163879 3.12571 0
M  V30 15058 C 1431.85 -0.00174658 4.58 0
M  V30 15059 N 1433.34 -0.0573489 4.63164 0
M  V30 15060 C 1434.08 0.0436849 5.73383 0
M  V30 15061 N 1433.57 0.198243 6.92516 0
M  V30 15062 N 1435.37 -0.0133856 5.62098 0
M  V30 15063 H 1427.52 0.99702 1.87545 0
M  V30 15064 H 1429.78 0.388822 0.864593 0
M  V30 15065 H 1429.49 0.882445 3.40449 0
M  V30 15066 H 1429.36 -0.846636 3.67576 0
M  V30 15067 H 1431.75 -1.13116 2.7256 0
M  V30 15068 H 1431.83 0.619513 2.48185 0
M  V30 15069 H 1431.47 0.9623 4.98701 0
M  V30 15070 H 1431.4 -0.804543 5.20418 0
M  V30 15071 H 1433.89 -0.175212 3.77494 0
M  V30 15072 H 1434.21 0.267479 7.72337 0
M  V30 15073 H 1432.55 0.233606 6.94607 0
M  V30 15074 H 1435.74 -0.132835 4.67911 0
M  V30 15075 H 1435.92 0.0688076 6.47963 0
M  V30 15076 N 1429.32 -1.56304 -0.201686 0
M  V30 15077 C 1430.29 -1.93171 -1.2336 0
M  V30 15078 C 1431.29 -0.812164 -1.38782 0
M  V30 15079 O 1432.48 -1.07967 -1.36707 0
M  V30 15080 C 1429.61 -2.19997 -2.60411 0
M  V30 15081 H 1430.8 -2.85483 -0.918654 0
M  V30 15082 H 1428.35 -1.49893 -0.442935 0
M  V30 15083 H 1429.09 -1.30301 -2.96972 0
M  V30 15084 H 1428.87 -3.01574 -2.5059 0
M  V30 15085 H 1430.36 -2.49547 -3.34838 0
M  V30 15086 N 1430.8 0.469154 -1.50455 0
M  V30 15087 C 1431.73 1.57493 -1.7239 0
M  V30 15088 C 1432.71 1.60161 -0.572915 0
M  V30 15089 O 1433.9 1.76397 -0.812259 0
M  V30 15090 C 1431.03 2.95804 -1.81981 0
M  V30 15091 C 1429.98 3.08001 -2.97185 0
M  V30 15092 C 1429.31 4.4798 -2.91922 0
M  V30 15093 C 1430.61 2.85039 -4.37665 0
M  V30 15094 H 1432.3 1.39389 -2.64974 0
M  V30 15095 H 1429.85 0.669133 -1.27509 0
M  V30 15096 H 1431.8 3.73091 -1.95911 0
M  V30 15097 H 1430.52 3.15068 -0.86021 0
M  V30 15098 H 1429.18 2.33148 -2.82909 0
M  V30 15099 H 1428.83 4.64165 -1.93803 0
M  V30 15100 H 1428.53 4.57076 -3.69263 0
M  V30 15101 H 1430.05 5.27284 -3.07903 0
M  V30 15102 H 1431.47 3.52074 -4.52456 0
M  V30 15103 H 1429.87 3.05578 -5.16471 0
M  V30 15104 H 1430.94 1.8088 -4.499 0
M  V30 15105 N 1432.28 1.40065 0.722464 0
M  V30 15106 C 1433.23 1.39784 1.83655 0
M  V30 15107 C 1434.2 0.255743 1.64119 0
M  V30 15108 O 1435.38 0.452766 1.8535 0
M  V30 15109 C 1432.52 1.25946 3.21297 0
M  V30 15110 C 1431.63 2.49805 3.52451 0
M  V30 15111 C 1430.77 2.2846 4.79562 0
M  V30 15112 C 1429.81 3.4793 5.03598 0
M  V30 15113 N 1428.94 3.25823 6.21919 0
M  V30 15114 H 1433.78 2.35013 1.83229 0
M  V30 15115 H 1431.32 1.16728 0.895154 0
M  V30 15116 H 1433.28 1.15931 4.00769 0
M  V30 15117 H 1431.91 0.343402 3.20968 0
M  V30 15118 H 1430.96 2.70375 2.67585 0
M  V30 15119 H 1432.27 3.38753 3.66126 0
M  V30 15120 H 1431.43 2.15758 5.67039 0
M  V30 15121 H 1430.17 1.36926 4.68084 0
M  V30 15122 H 1429.17 3.61116 4.14579 0
M  V30 15123 H 1430.4 4.40382 5.16953 0
M  V30 15124 H 1428.34 2.36965 6.11705 0
M  V30 15125 H 1428.26 4.08333 6.36239 0
M  V30 15126 H 1429.53 3.16841 7.12202 0
M  V30 15127 N 1433.76 -0.95397 1.25448 0
M  V30 15128 C 1435 -1.70118 1.10399 0
M  V30 15129 C 1435.34 -1.90945 -0.354093 0
M  V30 15130 O 1434.61 -1.48088 -1.26096 0
M  V30 15131 C 1434.89 -3.08371 1.85955 0
M  V30 15132 C 1434.75 -2.9495 3.39595 0
M  V30 15133 C 1436.07 -4.08273 1.64321 0
M  V30 15134 H 1433.19 -0.617424 0.402438 0
M  V30 15135 H 1435.83 -1.10884 1.54288 0
M  V30 15136 H 1433.98 -3.58936 1.48651 0
M  V30 15137 H 1435.65 -2.51705 3.86578 0
M  V30 15138 H 1433.89 -2.30853 3.67273 0
M  V30 15139 H 1434.56 -3.92952 3.87676 0
M  V30 15140 H 1437.04 -3.6662 1.96796 0
M  V30 15141 H 1435.92 -5.03048 2.19622 0
M  V30 15142 H 1436.18 -4.38217 0.584685 0
M  V30 15143 N 1435.24 -1.07045 -1.15668 0
M  V30 15144 C 1436.18 -0.688004 -2.20307 0
M  V30 15145 C 1437.15 0.319081 -1.63006 0
M  V30 15146 O 1438.34 0.206239 -1.89682 0
M  V30 15147 C 1435.48 -0.0886692 -3.44986 0
M  V30 15148 C 1434.59 -1.14685 -4.16499 0
M  V30 15149 C 1433.73 -0.512852 -5.28719 0
M  V30 15150 C 1432.76 -1.55404 -5.92044 0
M  V30 15151 N 1431.9 -0.942848 -6.9574 0
M  V30 15152 H 1436.74 -1.58469 -2.52372 0
M  V30 15153 H 1434.28 -0.792184 -1.23947 0
M  V30 15154 H 1436.24 0.276415 -4.16283 0
M  V30 15155 H 1434.87 0.77139 -3.13448 0
M  V30 15156 H 1433.92 -1.62955 -3.43729 0
M  V30 15157 H 1435.23 -1.93643 -4.59678 0
M  V30 15158 H 1434.38 -0.0952274 -6.06625 0
M  V30 15159 H 1433.12 0.308524 -4.86723 0
M  V30 15160 H 1432.13 -1.98148 -5.12852 0
M  V30 15161 H 1433.35 -2.37765 -6.36117 0
M  V30 15162 H 1431.3 -0.142319 -6.55846 0
M  V30 15163 H 1431.22 -1.6697 -7.37331 0
M  V30 15164 H 1432.48 -0.550621 -7.77553 0
M  V30 15165 N 1436.71 1.32449 -0.85411 0
M  V30 15166 C 1437.68 2.27183 -0.303377 0
M  V30 15167 C 1438.68 1.51582 0.536622 0
M  V30 15168 O 1439.87 1.70684 0.348211 0
M  V30 15169 C 1437 3.36086 0.570852 0
M  V30 15170 H 1438.19 2.77408 -1.1395 0
M  V30 15171 H 1435.74 1.43111 -0.628402 0
M  V30 15172 H 1436.48 2.91128 1.42881 0
M  V30 15173 H 1436.26 3.92088 -0.030399 0
M  V30 15174 H 1437.75 4.06675 0.948972 0
M  V30 15175 N 1438.19 0.611994 1.45232 0
M  V30 15176 C 1439.42 0.115242 2.06278 0
M  V30 15177 C 1439.83 -1.20752 1.45656 0
M  V30 15178 O 1439.17 -1.7474 0.566697 0
M  V30 15179 C 1439.23 -0.0941449 3.59377 0
M  V30 15180 C 1438.9 1.1475 4.42359 0
M  V30 15181 C 1439.9 2.06669 4.77058 0
M  V30 15182 C 1437.58 1.37756 4.83041 0
M  V30 15183 C 1439.57 3.19919 5.51299 0
M  V30 15184 C 1437.26 2.51306 5.57035 0
M  V30 15185 C 1438.26 3.42216 5.91082 0
M  V30 15186 O 1437.95 4.5379 6.63574 0
M  V30 15187 H 1437.68 0.0680317 0.672568 0
M  V30 15188 H 1440.23 0.840932 1.87397 0
M  V30 15189 H 1438.46 -0.874775 3.76676 0
M  V30 15190 H 1440.15 -0.543047 4.02251 0
M  V30 15191 H 1440.92 1.90122 4.46182 0
M  V30 15192 H 1436.8 0.678922 4.55973 0
M  V30 15193 H 1440.34 3.90901 5.77791 0
M  V30 15194 H 1436.24 2.67804 5.87325 0
M  V30 15195 H 1437.01 4.52527 6.82027 0
M  V30 15196 N 1439.67 -1.53632 0.351409 0
M  V30 15197 C 1441.09 -1.596 -0.000214515 0
M  V30 15198 C 1441.29 -1.36709 -1.4803 0
M  V30 15199 O 1440.34 -1.16524 -2.24006 0
M  V30 15200 C 1441.65 -2.97419 0.443013 0
M  V30 15201 C 1443.2 -3.10485 0.396025 0
M  V30 15202 C 1443.68 -4.50693 0.814843 0
M  V30 15203 N 1445.17 -4.56766 0.76934 0
M  V30 15204 C 1445.9 -5.63418 1.06526 0
M  V30 15205 N 1445.4 -6.77887 1.42974 0
M  V30 15206 N 1447.19 -5.53331 0.988986 0
M  V30 15207 H 1439.34 -1.66765 1.31542 0
M  V30 15208 H 1441.61 -0.781418 0.53674 0
M  V30 15209 H 1441.31 -3.19262 1.47529 0
M  V30 15210 H 1441.19 -3.76781 -0.177725 0
M  V30 15211 H 1443.57 -2.8836 -0.627092 0
M  V30 15212 H 1443.65 -2.33163 1.05207 0
M  V30 15213 H 1443.3 -4.73554 1.83601 0
M  V30 15214 H 1443.23 -5.26424 0.136193 0
M  V30 15215 H 1445.72 -3.74569 0.500623 0
M  V30 15216 H 1446.03 -7.55194 1.64018 0
M  V30 15217 H 1444.38 -6.79314 1.46827 0
M  V30 15218 H 1447.57 -4.62783 0.703526 0
M  V30 15219 H 1447.74 -6.36355 1.22295 0
M  V30 15220 N 1441.15 -0.0802183 -1.57396 0
M  V30 15221 C 1442.39 0.586962 -1.93807 0
M  V30 15222 C 1442.72 1.69107 -0.960887 0
M  V30 15223 O 1441.98 1.95688 0.0220779 0
M  V30 15224 C 1442.28 1.19551 -3.36812 0
M  V30 15225 C 1441.94 0.216701 -4.50379 0
M  V30 15226 C 1440.6 -0.0525552 -4.81171 0
M  V30 15227 C 1442.96 -0.452467 -5.19232 0
M  V30 15228 C 1440.28 -0.997923 -5.78151 0
M  V30 15229 C 1442.64 -1.38621 -6.17225 0
M  V30 15230 C 1441.3 -1.66385 -6.4643 0
M  V30 15231 H 1440.57 0.214785 -0.709189 0
M  V30 15232 H 1443.22 -0.152888 -1.90889 0
M  V30 15233 H 1441.52 2.01129 -3.36236 0
M  V30 15234 H 1443.22 1.71918 -3.62278 0
M  V30 15235 H 1439.81 0.436747 -4.26369 0
M  V30 15236 H 1443.99 -0.257573 -4.95631 0
M  V30 15237 H 1439.25 -1.22019 -5.991 0
M  V30 15238 H 1443.42 -1.91063 -6.69677 0
M  V30 15239 H 1441.05 -2.39799 -7.21388 0
M  V30 15240 N 1442.63 1.56409 0.193394 0
M  V30 15241 C 1443.85 1.8519 0.933775 0
M  V30 15242 C 1444.28 0.663991 1.75991 0
M  V30 15243 O 1443.63 -0.387198 1.77117 0
M  V30 15244 C 1443.68 3.12212 1.80432 0
M  V30 15245 O 1442.79 2.92884 2.90332 0
M  V30 15246 H 1442.13 0.609754 0.262862 0
M  V30 15247 H 1444.66 2.03638 0.198195 0
M  V30 15248 H 1444.67 3.4305 2.20864 0
M  V30 15249 H 1443.34 3.98292 1.19733 0
M  V30 15250 H 1441.92 2.73349 2.53643 0
M  V30 15251 N 1444.1 -0.461169 1.50702 0
M  V30 15252 C 1445.35 -1.20934 1.61425 0
M  V30 15253 C 1445.67 -1.92884 0.32481 0
M  V30 15254 O 1446.87 -2.69712 0.311081 0
M  V30 15255 C 1445.33 -2.19797 2.84987 0
M  V30 15256 C 1444.94 -1.53604 4.20844 0
M  V30 15257 C 1446.68 -2.95194 3.05059 0
M  V30 15258 C 1444.59 -2.50811 5.35582 0
M  V30 15259 H 1443.52 -0.455088 0.601174 0
M  V30 15260 H 1446.17 -0.478771 1.77144 0
M  V30 15261 H 1444.55 -2.96187 2.62848 0
M  V30 15262 H 1445.72 -0.829345 4.53275 0
M  V30 15263 H 1444.04 -0.904504 4.06457 0
M  V30 15264 H 1446.64 -3.67965 3.87951 0
M  V30 15265 H 1446.98 -3.5516 2.1718 0
M  V30 15266 H 1447.51 -2.25915 3.27425 0
M  V30 15267 H 1444.25 -1.9557 6.25646 0
M  V30 15268 H 1443.77 -3.19604 5.07556 0
M  V30 15269 H 1445.45 -3.12437 5.66561 0
M  V30 15270 N 1445.58 -1.40446 -0.715026 0
M  V30 15271 C 1446.81 -1.42263 -1.50917 0
M  V30 15272 C 1447.23 -0.0242402 -1.88084 0
M  V30 15273 O 1446.59 0.967817 -1.53307 0
M  V30 15274 C 1446.64 -2.31998 -2.7606 0
M  V30 15275 O 1445.74 -1.76361 -3.72787 0
M  V30 15276 H 1445.08 -0.483614 -0.454988 0
M  V30 15277 H 1447.61 -1.84682 -0.880549 0
M  V30 15278 H 1447.62 -2.47204 -3.24583 0
M  V30 15279 H 1446.3 -3.33614 -2.48343 0
M  V30 15280 H 1444.87 -1.70504 -3.31636 0
M  V30 15281 N 1447.06 0.947303 -1.25952 0
M  V30 15282 C 1448.31 1.69583 -1.12308 0
M  V30 15283 C 1448.66 1.89526 0.331301 0
M  V30 15284 O 1447.95 1.46042 1.24026 0
M  V30 15285 C 1448.15 3.07652 -1.81892 0
M  V30 15286 C 1447.98 3.0118 -3.33947 0
M  V30 15287 C 1446.75 3.04533 -4.03222 0
M  V30 15288 C 1448.94 2.81785 -4.30234 0
M  V30 15289 N 1446.93 2.88296 -5.41995 0
M  V30 15290 C 1448.3 2.74054 -5.56142 0
M  V30 15291 C 1450.35 2.66522 -4.2056 0
M  V30 15292 C 1449.06 2.52618 -6.73481 0
M  V30 15293 C 1451.08 2.46458 -5.37599 0
M  V30 15294 C 1450.44 2.39454 -6.62451 0
M  V30 15295 H 1446.54 0.628198 -0.465716 0
M  V30 15296 H 1449.13 1.12151 -1.59155 0
M  V30 15297 H 1447.3 3.63236 -1.3753 0
M  V30 15298 H 1449.03 3.71329 -1.60925 0
M  V30 15299 H 1445.78 3.14009 -3.54536 0
M  V30 15300 H 1446.21 2.83361 -6.14846 0
M  V30 15301 H 1450.85 2.70707 -3.24773 0
M  V30 15302 H 1448.57 2.47174 -7.6937 0
M  V30 15303 H 1452.15 2.35562 -5.31979 0
M  V30 15304 H 1451.03 2.24133 -7.51488 0
M  V30 15305 N 1448.54 1.07657 1.15099 0
M  V30 15306 C 1449.76 0.82291 1.90376 0
M  V30 15307 C 1450.19 -0.618415 1.77644 0
M  V30 15308 O 1449.55 -1.43248 1.11129 0
M  V30 15309 C 1449.59 1.23988 3.38614 0
M  V30 15310 O 1448.7 0.387085 4.10579 0
M  V30 15311 H 1448.04 0.299532 0.592602 0
M  V30 15312 H 1450.57 1.436 1.4574 0
M  V30 15313 H 1450.58 1.21741 3.89414 0
M  V30 15314 H 1449.25 2.28966 3.472 0
M  V30 15315 H 1447.83 0.472311 3.69897 0
M  V30 15316 N 1450.02 -1.31994 0.861122 0
M  V30 15317 C 1451.43 -1.49756 0.551844 0
M  V30 15318 C 1451.63 -1.79473 -0.916056 0
M  V30 15319 O 1450.69 -1.86813 -1.69874 0
M  V30 15320 C 1452 -2.63737 1.44442 0
M  V30 15321 C 1453.55 -2.77621 1.44552 0
M  V30 15322 C 1454.02 -3.94689 2.32346 0
M  V30 15323 N 1455.52 -4.01961 2.30177 0
M  V30 15324 C 1456.25 -4.91794 2.94833 0
M  V30 15325 N 1455.75 -5.86589 3.68626 0
M  V30 15326 N 1457.54 -4.84968 2.84188 0
M  V30 15327 H 1449.69 -1.10972 1.81105 0
M  V30 15328 H 1451.95 -0.54753 0.773896 0
M  V30 15329 H 1451.66 -2.48526 2.48853 0
M  V30 15330 H 1451.53 -3.59671 1.13651 0
M  V30 15331 H 1453.92 -2.92251 0.409034 0
M  V30 15332 H 1454 -1.8238 1.79363 0
M  V30 15333 H 1453.65 -3.80817 3.36067 0
M  V30 15334 H 1453.58 -4.89219 1.94865 0
M  V30 15335 H 1456.07 -3.34132 1.76533 0
M  V30 15336 H 1456.38 -6.51846 4.15111 0
M  V30 15337 H 1454.72 -5.86596 3.72734 0
M  V30 15338 H 1457.92 -4.09883 2.26084 0
M  V30 15339 H 1458.09 -5.54774 3.34857 0
M  V30 15340 N 1451.49 -0.619688 -1.44906 0
M  V30 15341 C 1452.74 -0.117147 -2.0136 0
M  V30 15342 C 1453.06 1.2644 -1.49239 0
M  V30 15343 O 1454.26 1.86034 -1.97747 0
M  V30 15344 C 1452.72 -0.15871 -3.5955 0
M  V30 15345 C 1452.33 -1.54086 -4.20668 0
M  V30 15346 C 1454.07 0.287961 -4.23522 0
M  V30 15347 C 1451.98 -1.53816 -5.71047 0
M  V30 15348 H 1450.91 -0.040028 -0.752937 0
M  V30 15349 H 1453.56 -0.776802 -1.66247 0
M  V30 15350 H 1451.94 0.56783 -3.91908 0
M  V30 15351 H 1453.11 -2.29007 -3.99865 0
M  V30 15352 H 1451.43 -1.93065 -3.68938 0
M  V30 15353 H 1454.03 0.309351 -5.33804 0
M  V30 15354 H 1454.37 1.31305 -3.9505 0
M  V30 15355 H 1454.9 -0.385707 -3.95926 0
M  V30 15356 H 1451.64 -2.54124 -6.04236 0
M  V30 15357 H 1451.16 -0.831708 -5.94006 0
M  V30 15358 H 1452.84 -1.26708 -6.34472 0
M  V30 15359 N 1452.97 1.53444 -0.359552 0
M  V30 15360 C 1454.22 2.01166 0.232022 0
M  V30 15361 C 1454.55 1.24699 1.49266 0
M  V30 15362 O 1453.8 0.327164 1.92946 0
M  V30 15363 C 1454.1 3.5273 0.575863 0
M  V30 15364 C 1453.77 4.47027 -0.589746 0
M  V30 15365 C 1452.43 4.72525 -0.909587 0
M  V30 15366 C 1454.78 5.02846 -1.37095 0
M  V30 15367 C 1452.11 5.51096 -2.01271 0
M  V30 15368 C 1454.46 5.82622 -2.46444 0
M  V30 15369 C 1453.13 6.06409 -2.7897 0
M  V30 15370 H 1452.4 0.73612 0.084903 0
M  V30 15371 H 1455.04 1.85105 -0.490771 0
M  V30 15372 H 1453.35 3.66708 1.37959 0
M  V30 15373 H 1455.04 3.87125 1.04573 0
M  V30 15374 H 1451.63 4.27324 -0.330418 0
M  V30 15375 H 1455.82 4.83098 -1.1371 0
M  V30 15376 H 1451.07 5.67747 -2.26877 0
M  V30 15377 H 1455.25 6.24884 -3.07398 0
M  V30 15378 H 1452.88 6.67077 -3.64572 0
M  V30 15379 N 1454.45 0.0885642 1.57351 0
M  V30 15380 C 1455.86 -0.441569 1.81403 0
M  V30 15381 C 1456.21 -1.68582 1.00372 0
M  V30 15382 O 1455.34 -2.15162 0.231153 0
M  V30 15383 C 1455.93 -0.807886 3.29027 0
M  V30 15384 C 1454.49 -1.2828 3.53866 0
M  V30 15385 C 1453.64 -0.276217 2.75921 0
M  V30 15386 H 1456.59 0.314083 1.55561 0
M  V30 15387 H 1456.61 -1.66797 3.41993 0
M  V30 15388 H 1456.12 0.0978886 3.87977 0
M  V30 15389 H 1454.22 -2.2065 3.0024 0
M  V30 15390 H 1454.34 -1.24914 4.62529 0
M  V30 15391 H 1452.7 -0.757007 2.4319 0
M  V30 15392 H 1453.48 0.622123 3.37616 0
M  V30 15393 N 1455.93 -1.56509 -0.185096 0
M  V30 15394 C 1457.16 -1.85327 -0.91986 0
M  V30 15395 C 1457.57 -0.672294 -1.76425 0
M  V30 15396 O 1456.93 0.358854 -1.78937 0
M  V30 15397 C 1456.98 -3.13047 -1.80787 0
M  V30 15398 O 1456.7 -4.26591 -0.997569 0
M  V30 15399 C 1458.2 -3.55114 -2.65347 0
M  V30 15400 H 1455.42 -0.615196 -0.267909 0
M  V30 15401 H 1457.97 -2.03622 -0.189338 0
M  V30 15402 H 1456.12 -2.96619 -2.4919 0
M  V30 15403 H 1456.53 -4.99384 -1.60362 0
M  V30 15404 H 1458.01 -4.47419 -3.23295 0
M  V30 15405 H 1458.49 -2.78576 -3.39547 0
M  V30 15406 H 1459.09 -3.74105 -2.023 0
M  V30 15407 N 1457.41 0.45317 -1.50944 0
M  V30 15408 C 1458.65 1.20151 -1.62506 0
M  V30 15409 C 1458.98 1.92085 -0.335927 0
M  V30 15410 O 1458.25 1.84889 0.64751 0
M  V30 15411 H 1456.83 0.446502 -0.59887 0
M  V30 15412 H 1459.49 0.521103 -1.87804 0
M  V30 15413 H 1458.58 1.93972 -2.44502 0
M  V30 15414 N 1458.88 1.40823 0.707568 0
M  V30 15415 C 1460.3 1.23029 1.01666 0
M  V30 15416 C 1460.5 0.111152 2.01193 0
M  V30 15417 O 1459.56 -0.52836 2.4691 0
M  V30 15418 C 1460.87 2.57509 1.55272 0
M  V30 15419 C 1462.42 2.6459 1.67216 0
M  V30 15420 C 1462.89 3.99357 2.24227 0
M  V30 15421 N 1464.38 4.01141 2.31603 0
M  V30 15422 C 1465.12 5.02211 2.76715 0
M  V30 15423 N 1464.61 6.13674 3.21521 0
M  V30 15424 N 1466.41 4.89577 2.76172 0
M  V30 15425 H 1458.56 2.12346 0.0480107 0
M  V30 15426 H 1460.82 0.944281 0.0838885 0
M  V30 15427 H 1460.53 3.40095 0.896012 0
M  V30 15428 H 1460.4 2.79158 2.53674 0
M  V30 15429 H 1462.79 1.8237 2.32002 0
M  V30 15430 H 1462.87 2.46763 0.673927 0
M  V30 15431 H 1462.51 4.8202 1.6006 0
M  V30 15432 H 1462.44 4.14518 3.2478 0
M  V30 15433 H 1464.93 3.20657 1.99968 0
M  V30 15434 H 1465.25 6.86677 3.54534 0
M  V30 15435 H 1463.59 6.17228 3.1946 0
M  V30 15436 H 1466.78 4.01588 2.40509 0
M  V30 15437 H 1466.96 5.68485 3.11012 0
M  V30 15438 N 1460.36 -0.94061 1.26453 0
M  V30 15439 C 1461.31 -2.06073 1.07873 0
M  V30 15440 C 1462.3 -1.69399 0.0055001 0
M  V30 15441 O 1463.51 -1.79267 0.162224 0
M  V30 15442 H 1459.89 -0.674748 0.331993 0
M  V30 15443 H 1461.86 -2.18895 2.02799 0
M  V30 15444 C 1460.61 -3.39971 0.729054 0
M  V30 15445 H 1459.93 -3.68667 1.54675 0
M  V30 15446 H 1461.37 -4.1916 0.638844 0
M  V30 15447 C 1459.83 -3.32114 -0.565835 0
M  V30 15448 O 1460.36 -3.68287 -1.60399 0
M  V30 15449 N 1458.56 -2.85218 -0.556679 0
M  V30 15450 H 1458.11 -2.55979 0.288541 0
M  V30 15451 H 1458.07 -2.80344 -1.42318 0
M  V30 15452 N 1461.84 -1.08266 -1.14527 0
M  V30 15453 C 1463.07 -0.832994 -1.89937 0
M  V30 15454 C 1463.49 0.608985 -1.77969 0
M  V30 15455 O 1462.85 1.42657 -1.11887 0
M  V30 15456 C 1462.9 -1.25782 -3.37952 0
M  V30 15457 O 1462 -0.408853 -4.10368 0
M  V30 15458 H 1461.34 -0.30267 -0.591005 0
M  V30 15459 H 1463.87 -1.44371 -1.44977 0
M  V30 15460 H 1463.88 -1.23804 -3.88763 0
M  V30 15461 H 1462.56 -2.30804 -3.4598 0
M  V30 15462 H 1461.13 -0.49192 -3.69641 0
M  V30 15463 N 1463.32 1.31536 -0.86811 0
M  V30 15464 C 1464.54 2.01487 -0.491705 0
M  V30 15465 C 1464.97 1.64744 0.907803 0
M  V30 15466 O 1464.33 0.855093 1.59868 0
M  V30 15467 C 1464.38 3.54621 -0.65395 0
M  V30 15468 O 1463.48 4.11252 0.307532 0
M  V30 15469 H 1462.82 0.634469 -0.195819 0
M  V30 15470 H 1465.35 1.67775 -1.17101 0
M  V30 15471 H 1465.36 4.04323 -0.546539 0
M  V30 15472 H 1464.04 3.80704 -1.67443 0
M  V30 15473 H 1462.61 3.72577 0.155233 0
M  V30 15474 N 1464.8 0.627364 1.44575 0
M  V30 15475 C 1466.05 0.127824 2.01295 0
M  V30 15476 C 1466.36 -1.25647 1.49907 0
M  V30 15477 O 1467.57 -1.84982 1.9873 0
M  V30 15478 C 1466.02 0.177775 3.59461 0
M  V30 15479 C 1465.63 1.56315 4.19845 0
M  V30 15480 C 1467.37 -0.265497 4.23669 0
M  V30 15481 C 1465.28 1.56842 5.70223 0
M  V30 15482 H 1464.21 0.0440205 0.752714 0
M  V30 15483 H 1466.86 0.785607 1.65833 0
M  V30 15484 H 1465.24 -0.547038 3.92203 0
M  V30 15485 H 1466.42 2.31125 3.98645 0
M  V30 15486 H 1464.73 1.95019 3.67909 0
M  V30 15487 H 1467.33 -0.281038 5.33961 0
M  V30 15488 H 1467.67 -1.29208 3.95741 0
M  V30 15489 H 1468.21 0.406698 3.95716 0
M  V30 15490 H 1464.94 2.57325 6.0288 0
M  V30 15491 H 1464.46 0.863198 5.93556 0
M  V30 15492 H 1466.14 1.30071 6.33791 0
M  V30 15493 N 1466.28 -1.53251 0.367684 0
M  V30 15494 C 1467.22 -2.27318 -0.4929 0
M  V30 15495 C 1468.22 -1.30376 -1.08159 0
M  V30 15496 O 1469.42 -1.47996 -1.02455 0
M  V30 15497 H 1465.8 -0.730709 -0.177677 0
M  V30 15498 H 1467.77 -2.98005 0.153525 0
M  V30 15499 C 1466.52 -3.07678 -1.61955 0
M  V30 15500 H 1465.84 -3.82117 -1.17587 0
M  V30 15501 H 1467.28 -3.62678 -2.19638 0
M  V30 15502 C 1465.74 -2.18648 -2.5631 0
M  V30 15503 O 1466.27 -1.79869 -3.5918 0
M  V30 15504 N 1464.48 -1.83239 -2.25548 0
M  V30 15505 H 1464.02 -2.14973 -1.4193 0
M  V30 15506 H 1463.98 -1.23957 -2.88933 0
M  V30 15507 N 1467.75 -0.0969077 -1.57302 0
M  V30 15508 C 1468.98 0.578086 -1.99181 0
M  V30 15509 C 1469.4 1.60818 -0.975667 0
M  V30 15510 O 1468.76 1.81215 0.0556054 0
M  V30 15511 C 1468.81 1.20076 -3.40021 0
M  V30 15512 O 1467.91 2.31656 -3.41188 0
M  V30 15513 H 1467.25 0.146506 -0.647636 0
M  V30 15514 H 1469.78 -0.178855 -2.03817 0
M  V30 15515 H 1469.79 1.54162 -3.77754 0
M  V30 15516 H 1468.47 0.446114 -4.135 0
M  V30 15517 H 1467.05 1.99175 -3.15252 0
M  V30 15518 N 1469.23 1.56605 0.176793 0
M  V30 15519 C 1470.18 1.92393 1.22347 0
M  V30 15520 C 1471.17 0.791622 1.40079 0
M  V30 15521 O 1472.36 1.05474 1.42142 0
M  V30 15522 C 1469.49 2.28266 2.56417 0
M  V30 15523 C 1468.57 3.47997 2.42402 0
M  V30 15524 N 1468.96 4.65396 1.98092 0
M  V30 15525 C 1467.26 3.52496 2.73244 0
M  V30 15526 C 1467.96 5.47539 1.96409 0
M  V30 15527 N 1466.94 4.88434 2.38606 0
M  V30 15528 H 1470.74 2.8065 0.872507 0
M  V30 15529 H 1468.25 1.57768 0.385107 0
M  V30 15530 H 1470.25 2.52097 3.32043 0
M  V30 15531 H 1468.91 1.41345 2.92321 0
M  V30 15532 H 1469.92 4.89717 1.68515 0
M  V30 15533 H 1466.6 2.7604 3.13223 0
M  V30 15534 H 1467.99 6.51604 1.63896 0
M  V30 15535 N 1470.71 -0.445159 1.51182 0
M  V30 15536 C 1471.96 -1.19288 1.6314 0
M  V30 15537 C 1472.28 -1.91904 0.346109 0
M  V30 15538 O 1471.55 -1.8523 -0.637695 0
M  V30 15539 H 1470.13 -0.443319 0.601229 0
M  V30 15540 H 1472.79 -0.511136 1.88078 0
M  V30 15541 H 1471.89 -1.92672 2.45528 0
M  V30 15542 N 1472.19 -1.41197 -0.700089 0
M  V30 15543 C 1473.43 -1.40519 -1.46227 0
M  V30 15544 C 1473.77 -0.0126108 -1.94196 0
M  V30 15545 O 1473.04 0.958837 -1.69223 0
M  V30 15546 C 1473.32 -2.40808 -2.67738 0
M  V30 15547 C 1473.18 -3.89154 -2.25563 0
M  V30 15548 C 1474.5 -2.38415 -3.69927 0
M  V30 15549 H 1471.62 -0.511724 -0.530384 0
M  V30 15550 H 1474.26 -1.72441 -0.797754 0
M  V30 15551 H 1472.41 -2.13717 -3.24434 0
M  V30 15552 H 1474.08 -4.27132 -1.74229 0
M  V30 15553 H 1472.32 -4.04239 -1.57395 0
M  V30 15554 H 1472.99 -4.54866 -3.12731 0
M  V30 15555 H 1475.47 -2.62447 -3.22895 0
M  V30 15556 H 1474.35 -3.10609 -4.52563 0
M  V30 15557 H 1474.61 -1.40116 -4.19309 0
M  V30 15558 N 1473.67 0.933891 -1.2695 0
M  V30 15559 C 1474.94 1.65874 -1.0366 0
M  V30 15560 C 1475.32 2.0666 0.43066 0
M  V30 15561 O 1474.67 1.79606 1.41259 0
M  V30 15562 C 1474.88 2.86546 -1.99229 0
M  V30 15563 C 1476.23 3.58031 -2.28251 0
M  V30 15564 O 1477.25 2.96663 -1.97154 0
M  V30 15565 O 1476.11 4.68583 -2.81233 0
M  V30 15566 H 1473.21 0.72673 -0.394706 0
M  V30 15567 H 1475.75 0.984975 -1.38189 0
M  V30 15568 H 1474.52 2.53351 -2.9821 0
M  V30 15569 H 1474.15 3.61645 -1.65224 0
M  V30 15570 N 1475.14 1.08871 1.13951 0
M  V30 15571 C 1476.37 0.841691 1.88677 0
M  V30 15572 C 1476.78 -0.610213 1.79089 0
M  V30 15573 O 1476.12 -1.4314 1.15138 0
M  V30 15574 C 1476.19 1.19077 3.39206 0
M  V30 15575 C 1475.85 2.64642 3.72577 0
M  V30 15576 C 1476.85 3.62892 3.72297 0
M  V30 15577 C 1474.53 3.00618 4.0241 0
M  V30 15578 C 1476.53 4.95148 4.01382 0
M  V30 15579 C 1474.21 4.33066 4.31158 0
M  V30 15580 C 1475.21 5.3014 4.30628 0
M  V30 15581 O 1474.9 6.60207 4.58675 0
M  V30 15582 H 1474.63 0.302896 0.604343 0
M  V30 15583 H 1477.19 1.4527 1.45209 0
M  V30 15584 H 1475.42 0.522784 3.8315 0
M  V30 15585 H 1477.1 0.923805 3.95248 0
M  V30 15586 H 1477.87 3.36442 3.4933 0
M  V30 15587 H 1473.75 2.25696 4.01973 0
M  V30 15588 H 1477.29 5.7091 4.00884 0
M  V30 15589 H 1473.19 4.59262 4.53595 0
M  V30 15590 H 1473.96 6.65593 4.7637 0
M  V30 15591 N 1476.62 -1.31073 0.875073 0
M  V30 15592 C 1477.85 -2.00397 0.50245 0
M  V30 15593 C 1478.26 -1.65826 -0.910951 0
M  V30 15594 O 1477.6 -0.886276 -1.60906 0
M  V30 15595 C 1477.66 -3.54696 0.585744 0
M  V30 15596 C 1477.33 -4.12756 1.96167 0
M  V30 15597 C 1478.33 -4.29484 2.92984 0
M  V30 15598 C 1476.01 -4.48365 2.26437 0
M  V30 15599 C 1478 -4.81019 4.18209 0
M  V30 15600 C 1475.69 -4.99601 3.51912 0
M  V30 15601 C 1476.69 -5.1588 4.47613 0
M  V30 15602 O 1476.38 -5.66014 5.70862 0
M  V30 15603 H 1476.11 -0.647645 0.193733 0
M  V30 15604 H 1478.66 -1.6816 1.17947 0
M  V30 15605 H 1476.89 -3.86416 -0.148214 0
M  V30 15606 H 1478.58 -4.05271 0.225818 0
M  V30 15607 H 1479.35 -4.02286 2.70907 0
M  V30 15608 H 1475.23 -4.34968 1.52721 0
M  V30 15609 H 1478.77 -4.9364 4.92915 0
M  V30 15610 H 1474.67 -5.26234 3.73829 0
M  V30 15611 H 1475.44 -5.84374 5.73105 0
M  V30 15612 N 1478.1 -0.635022 -1.4424 0
M  V30 15613 C 1479.05 0.0797218 -2.32463 0
M  V30 15614 C 1480.04 0.831818 -1.47571 0
M  V30 15615 O 1481.25 0.744277 -1.63892 0
M  V30 15616 H 1477.62 0.0445532 -0.750679 0
M  V30 15617 H 1479.59 -0.682374 -2.90493 0
M  V30 15618 C 1478.34 1.04505 -3.31623 0
M  V30 15619 H 1477.67 0.475755 -3.96959 0
M  V30 15620 H 1479.11 1.51458 -3.96026 0
M  V30 15621 C 1477.57 2.13221 -2.60842 0
M  V30 15622 O 1478.1 3.21357 -2.41025 0
M  V30 15623 N 1476.3 1.89264 -2.20516 0
M  V30 15624 H 1475.85 1.01329 -2.36834 0
M  V30 15625 H 1475.81 2.62203 -1.73484 0
M  V30 15626 N 1479.58 1.53054 -0.375806 0
M  V30 15627 C 1480.99 1.5958 -0.0251765 0
M  V30 15628 C 1481.19 1.39047 1.45836 0
M  V30 15629 O 1480.25 1.20073 2.22123 0
M  V30 15630 C 1481.56 2.96676 -0.490274 0
M  V30 15631 C 1483.11 3.09815 -0.44537 0
M  V30 15632 C 1483.59 4.4934 -0.886442 0
M  V30 15633 N 1485.08 4.55484 -0.84191 0
M  V30 15634 C 1485.81 5.61652 -1.15476 0
M  V30 15635 N 1485.31 6.75526 -1.53741 0
M  V30 15636 N 1487.1 5.51688 -1.07689 0
M  V30 15637 H 1479.25 1.64651 -1.34178 0
M  V30 15638 H 1481.52 0.77278 -0.549104 0
M  V30 15639 H 1481.22 3.16874 -1.52589 0
M  V30 15640 H 1481.1 3.77016 0.11776 0
M  V30 15641 H 1483.48 2.89321 0.581138 0
M  V30 15642 H 1483.56 2.3146 -1.08903 0
M  V30 15643 H 1483.21 4.70573 -1.91111 0
M  V30 15644 H 1483.14 5.26141 -0.219925 0
M  V30 15645 H 1485.63 3.73725 -0.56015 0
M  V30 15646 H 1485.94 7.52489 -1.76012 0
M  V30 15647 H 1484.29 6.76892 -1.57616 0
M  V30 15648 H 1487.48 4.61605 -0.777062 0
M  V30 15649 H 1487.65 6.34329 -1.32403 0
M  V30 15650 N 1481.06 0.105248 1.57248 0
M  V30 15651 C 1481.99 -0.846915 2.176 0
M  V30 15652 C 1482.97 -1.28706 1.11216 0
M  V30 15653 O 1484.15 -1.35213 1.39396 0
M  V30 15654 C 1481.28 -2.10228 2.76445 0
M  V30 15655 C 1480.24 -1.80041 3.8829 0
M  V30 15656 C 1479.56 -3.12491 4.33882 0
M  V30 15657 C 1480.86 -1.07943 5.11024 0
M  V30 15658 H 1482.56 -0.344052 2.97417 0
M  V30 15659 H 1480.1 -0.164045 1.43063 0
M  V30 15660 H 1482.06 -2.77284 3.17319 0
M  V30 15661 H 1480.78 -2.62815 1.93897 0
M  V30 15662 H 1479.44 -1.15379 3.4797 0
M  V30 15663 H 1479.09 -3.62985 3.48211 0
M  V30 15664 H 1478.79 -2.93072 5.09296 0
M  V30 15665 H 1480.31 -3.80688 4.77398 0
M  V30 15666 H 1481.72 -1.65127 5.49004 0
M  V30 15667 H 1480.12 -0.986674 5.91933 0
M  V30 15668 H 1481.19 -0.0638511 4.84858 0
M  V30 15669 N 1482.53 -1.56697 -0.168486 0
M  V30 15670 C 1483.78 -1.81346 -0.882973 0
M  V30 15671 C 1484.1 -0.682975 -1.83289 0
M  V30 15672 O 1485.3 -0.814479 -2.58995 0
M  V30 15673 C 1483.76 -3.21345 -1.62066 0
M  V30 15674 C 1483.37 -4.4227 -0.714241 0
M  V30 15675 C 1485.11 -3.55285 -2.32321 0
M  V30 15676 C 1483.02 -5.7329 -1.45233 0
M  V30 15677 H 1481.95 -0.676254 -0.333461 0
M  V30 15678 H 1484.6 -1.82996 -0.135871 0
M  V30 15679 H 1482.98 -3.1402 -2.41262 0
M  V30 15680 H 1484.15 -4.60782 0.0409556 0
M  V30 15681 H 1482.47 -4.16224 -0.121205 0
M  V30 15682 H 1485.07 -4.50421 -2.88141 0
M  V30 15683 H 1485.41 -2.80301 -3.07793 0
M  V30 15684 H 1485.94 -3.64176 -1.60066 0
M  V30 15685 H 1482.68 -6.51311 -0.739869 0
M  V30 15686 H 1482.2 -5.58751 -2.18077 0
M  V30 15687 H 1483.88 -6.15343 -1.99905 0
M  V30 15688 N 1484.01 0.437135 -1.51416 0
M  V30 15689 C 1484.96 1.55124 -1.73319 0
M  V30 15690 C 1485.95 1.58437 -0.599511 0
M  V30 15691 O 1487.16 1.62179 -0.780896 0
M  V30 15692 H 1483.54 0.515368 -0.547632 0
M  V30 15693 H 1485.51 1.33824 -2.66709 0
M  V30 15694 C 1484.26 2.92778 -1.87554 0
M  V30 15695 H 1483.58 2.9096 -2.74194 0
M  V30 15696 H 1485.02 3.70097 -2.06891 0
M  V30 15697 C 1483.48 3.30854 -0.635408 0
M  V30 15698 O 1484.01 4.01152 0.20983 0
M  V30 15699 N 1482.21 2.86618 -0.47944 0
M  V30 15700 H 1481.76 2.29582 -1.16834 0
M  V30 15701 H 1481.72 3.12456 0.349078 0
M  V30 15702 N 1485.49 1.41566 0.692592 0
M  V30 15703 C 1486.74 1.40805 1.44978 0
M  V30 15704 C 1487.06 0.0191039 1.94991 0
M  V30 15705 O 1486.33 -0.939544 1.71899 0
M  V30 15706 H 1484.91 0.518293 0.537942 0
M  V30 15707 H 1487.57 1.76831 0.81956 0
M  V30 15708 H 1486.67 2.09706 2.31149 0
M  V30 15709 N 1486.97 -0.927146 1.27443 0
M  V30 15710 C 1487.9 -2.04483 1.12735 0
M  V30 15711 C 1488.88 -1.70076 0.0286662 0
M  V30 15712 O 1490.06 -1.93133 0.203252 0
M  V30 15713 C 1487.19 -3.38557 0.774352 0
M  V30 15714 C 1486.15 -3.87078 1.82632 0
M  V30 15715 C 1485.47 -5.17964 1.32729 0
M  V30 15716 C 1486.77 -4.10409 3.23051 0
M  V30 15717 H 1488.47 -2.17046 2.06231 0
M  V30 15718 H 1486.01 -1.04292 0.992937 0
M  V30 15719 H 1487.97 -4.16227 0.658273 0
M  V30 15720 H 1486.69 -3.26009 -0.196321 0
M  V30 15721 H 1485.35 -3.11602 1.93132 0
M  V30 15722 H 1485 -5.01808 0.346059 0
M  V30 15723 H 1484.7 -5.51398 2.03061 0
M  V30 15724 H 1486.22 -5.98203 1.22416 0
M  V30 15725 H 1487.64 -4.78646 3.15549 0
M  V30 15726 H 1486.03 -4.5515 3.91099 0
M  V30 15727 H 1487.1 -3.15685 3.68064 0
M  V30 15728 N 1488.45 -1.09474 -1.13372 0
M  V30 15729 C 1489.69 -0.832323 -1.84933 0
M  V30 15730 C 1490.03 0.640469 -1.83335 0
M  V30 15731 O 1489.3 1.47158 -1.2718 0
M  V30 15732 C 1489.58 -1.36876 -3.33072 0
M  V30 15733 C 1489.44 -2.90769 -3.43181 0
M  V30 15734 C 1490.76 -1.00294 -4.2852 0
M  V30 15735 H 1487.87 -0.30382 -0.671463 0
M  V30 15736 H 1490.52 -1.35622 -1.33066 0
M  V30 15737 H 1488.67 -0.923134 -3.77373 0
M  V30 15738 H 1490.34 -3.43784 -3.07588 0
M  V30 15739 H 1488.58 -3.27876 -2.84042 0
M  V30 15740 H 1489.25 -3.23381 -4.47358 0
M  V30 15741 H 1491.73 -1.38729 -3.92293 0
M  V30 15742 H 1490.6 -1.40533 -5.30605 0
M  V30 15743 H 1490.87 0.0888133 -4.42011 0
M  V30 15744 N 1489.92 1.30607 -0.882012 0
M  V30 15745 C 1490.89 2.26489 -0.351498 0
M  V30 15746 C 1491.89 1.52686 0.504348 0
M  V30 15747 O 1493.08 1.71385 0.311928 0
M  V30 15748 C 1490.21 3.37222 0.499435 0
M  V30 15749 H 1491.4 2.74929 -1.19809 0
M  V30 15750 H 1488.96 1.41746 -0.658616 0
M  V30 15751 H 1489.69 2.94093 1.36673 0
M  V30 15752 H 1489.48 3.91936 -0.11356 0
M  V30 15753 H 1490.97 4.08596 0.862497 0
M  V30 15754 N 1491.4 0.642663 1.43901 0
M  V30 15755 C 1492.63 0.157518 2.06801 0
M  V30 15756 C 1493.05 -1.16361 1.47789 0
M  V30 15757 O 1492.41 -1.71645 0.583747 0
M  V30 15758 C 1492.46 0.0685904 3.60535 0
M  V30 15759 O 1491.56 -0.972183 4.00777 0
M  V30 15760 H 1490.9 0.0900406 0.657867 0
M  V30 15761 H 1493.43 0.882604 1.84584 0
M  V30 15762 H 1493.44 -0.118212 4.07829 0
M  V30 15763 H 1492.12 1.03307 4.02865 0
M  V30 15764 H 1490.7 -0.75902 3.65094 0
M  V30 15765 N 1492.88 -1.52852 0.383918 0
M  V30 15766 C 1493.83 -2.27828 -0.468762 0
M  V30 15767 C 1494.82 -1.31516 -1.0677 0
M  V30 15768 O 1496.03 -1.49075 -1.0088 0
M  V30 15769 H 1492.4 -0.732552 -0.169917 0
M  V30 15770 H 1494.38 -2.97825 0.185124 0
M  V30 15771 C 1493.12 -3.09378 -1.58683 0
M  V30 15772 H 1492.45 -3.83343 -1.13527 0
M  V30 15773 H 1493.89 -3.64987 -2.15779 0
M  V30 15774 C 1492.35 -2.21354 -2.53976 0
M  V30 15775 O 1492.88 -1.83668 -3.57252 0
M  V30 15776 N 1491.08 -1.85621 -2.23591 0
M  V30 15777 H 1490.63 -2.16467 -1.39642 0
M  V30 15778 H 1490.59 -1.27015 -2.87602 0
M  V30 15779 N 1494.36 -0.113586 -1.5719 0
M  V30 15780 C 1495.61 0.545507 -1.94183 0
M  V30 15781 C 1495.92 1.68176 -0.998816 0
M  V30 15782 O 1497.13 2.40324 -1.26319 0
M  V30 15783 C 1495.58 1.02178 -3.45091 0
M  V30 15784 C 1495.19 -0.0857195 -4.47918 0
M  V30 15785 C 1496.94 1.65255 -3.91013 0
M  V30 15786 C 1494.84 0.406946 -5.89998 0
M  V30 15787 H 1493.77 0.20755 -0.724872 0
M  V30 15788 H 1496.42 -0.192567 -1.82487 0
M  V30 15789 H 1494.81 1.81411 -3.52003 0
M  V30 15790 H 1495.98 -0.861821 -4.52669 0
M  V30 15791 H 1494.29 -0.622816 -4.11716 0
M  V30 15792 H 1496.89 2.0322 -4.94576 0
M  V30 15793 H 1497.23 2.52888 -3.30687 0
M  V30 15794 H 1497.77 0.925727 -3.86879 0
M  V30 15795 H 1494.51 -0.433199 -6.54067 0
M  V30 15796 H 1494.03 1.14965 -5.88679 0
M  V30 15797 H 1495.71 0.869934 -6.41125 0
M  V30 15798 N 1495.84 1.56784 0.160173 0
M  V30 15799 C 1497.08 1.82621 0.874982 0
M  V30 15800 C 1497.41 0.692427 1.81757 0
M  V30 15801 O 1496.67 -0.319535 1.93074 0
M  V30 15802 C 1496.97 3.14703 1.69402 0
M  V30 15803 C 1496.63 4.41839 0.899373 0
M  V30 15804 C 1495.29 4.7637 0.680099 0
M  V30 15805 C 1497.65 5.20072 0.342747 0
M  V30 15806 C 1494.97 5.86603 -0.106723 0
M  V30 15807 C 1497.33 6.3113 -0.431044 0
M  V30 15808 C 1495.99 6.64219 -0.661017 0
M  V30 15809 H 1495.26 0.668256 0.320178 0
M  V30 15810 H 1497.91 1.90993 0.139305 0
M  V30 15811 H 1496.21 3.01723 2.49941 0
M  V30 15812 H 1497.91 3.31906 2.25032 0
M  V30 15813 H 1494.5 4.14761 1.08033 0
M  V30 15814 H 1498.68 4.9378 0.499467 0
M  V30 15815 H 1493.94 6.1069 -0.294528 0
M  V30 15816 H 1498.11 6.9095 -0.869557 0
M  V30 15817 H 1495.74 7.49473 -1.27257 0
M  V30 15818 N 1497.32 -0.429099 1.51646 0
M  V30 15819 C 1498.73 -1.00868 1.57107 0
M  V30 15820 C 1499.08 -1.9209 0.399483 0
M  V30 15821 O 1498.2 -2.10948 -0.482709 0
M  V30 15822 C 1498.8 -1.83612 2.84732 0
M  V30 15823 C 1497.36 -2.36605 2.92737 0
M  V30 15824 C 1496.5 -1.1604 2.51853 0
M  V30 15825 H 1499.45 -0.21006 1.57304 0
M  V30 15826 H 1499.48 -2.69149 2.68959 0
M  V30 15827 H 1498.99 -1.17192 3.69983 0
M  V30 15828 H 1497.09 -3.06455 2.11934 0
M  V30 15829 H 1497.2 -2.68838 3.96564 0
M  V30 15830 H 1495.57 -1.50826 2.0524 0
M  V30 15831 H 1496.35 -0.51218 3.39458 0
M  V30 15832 N 1498.79 -1.41931 -0.685074 0
M  V30 15833 C 1499.73 -1.39028 -1.8096 0
M  V30 15834 C 1500.7 -0.256001 -1.60572 0
M  V30 15835 O 1501.89 -0.44459 -1.83182 0
M  V30 15836 C 1499.02 -1.17125 -3.17804 0
M  V30 15837 C 1498.06 -2.33411 -3.56961 0
M  V30 15838 S 1498.89 -3.9592 -3.60565 0
M  V30 15839 C 1500.05 -3.7634 -5.00119 0
M  V30 15840 H 1500.28 -2.34189 -1.83146 0
M  V30 15841 H 1497.82 -1.2858 -0.854778 0
M  V30 15842 H 1499.77 -1.05175 -3.96798 0
M  V30 15843 H 1498.44 -0.235668 -3.13215 0
M  V30 15844 H 1497.63 -2.13807 -4.56402 0
M  V30 15845 H 1497.23 -2.41823 -2.85303 0
M  V30 15846 H 1499.52 -3.36695 -5.87914 0
M  V30 15847 H 1500.47 -4.7542 -5.24768 0
M  V30 15848 H 1500.87 -3.09407 -4.72152 0
M  V30 15849 N 1500.27 0.920374 -1.27933 0
M  V30 15850 C 1501.52 1.67131 -1.1487 0
M  V30 15851 C 1501.85 1.91816 0.303343 0
M  V30 15852 O 1501.13 1.51379 1.22125 0
M  V30 15853 C 1501.41 3.03332 -1.94066 0
M  V30 15854 C 1501.26 2.85842 -3.47296 0
M  V30 15855 C 1502.58 4.03773 -1.75087 0
M  V30 15856 H 1499.7 0.606537 -0.418666 0
M  V30 15857 H 1502.34 1.06755 -1.57173 0
M  V30 15858 H 1500.49 3.54869 -1.58116 0
M  V30 15859 H 1502.16 2.41367 -3.93115 0
M  V30 15860 H 1500.41 2.21035 -3.73264 0
M  V30 15861 H 1501.08 3.82535 -3.97958 0
M  V30 15862 H 1503.55 3.61274 -2.06447 0
M  V30 15863 H 1502.43 4.97048 -2.32882 0
M  V30 15864 H 1502.69 4.36512 -0.700665 0
M  V30 15865 N 1501.75 1.10074 1.1279 0
M  V30 15866 C 1502.98 0.862906 1.88047 0
M  V30 15867 C 1503.39 -0.586346 1.79464 0
M  V30 15868 O 1502.75 -1.40402 1.16591 0
M  V30 15869 C 1502.8 1.29784 3.37399 0
M  V30 15870 O 1502.52 2.69026 3.4577 0
M  V30 15871 C 1504.02 1.09336 4.29605 0
M  V30 15872 H 1501.24 0.309981 0.595108 0
M  V30 15873 H 1503.79 1.46444 1.42738 0
M  V30 15874 H 1501.94 0.740056 3.80266 0
M  V30 15875 H 1502.36 2.87532 4.38663 0
M  V30 15876 H 1503.83 1.44687 5.327 0
M  V30 15877 H 1504.31 0.031679 4.39189 0
M  V30 15878 H 1504.91 1.63743 3.92516 0
M  V30 15879 N 1503.23 -1.30138 0.888926 0
M  V30 15880 C 1504.16 -2.3047 0.374934 0
M  V30 15881 C 1505.14 -1.61156 -0.544322 0
M  V30 15882 O 1506.32 -1.88738 -0.457337 0
M  V30 15883 C 1503.45 -3.44896 -0.407935 0
M  V30 15884 C 1502.41 -4.25935 0.419916 0
M  V30 15885 C 1501.73 -5.32452 -0.489797 0
M  V30 15886 C 1503.03 -4.9508 1.66413 0
M  V30 15887 H 1504.73 -2.73711 1.21337 0
M  V30 15888 H 1502.27 -1.31586 0.584899 0
M  V30 15889 H 1504.23 -4.14153 -0.778177 0
M  V30 15890 H 1502.95 -3.0047 -1.28005 0
M  V30 15891 H 1501.61 -3.58372 0.772348 0
M  V30 15892 H 1501.26 -4.84273 -1.35974 0
M  V30 15893 H 1500.96 -5.87569 0.0603412 0
M  V30 15894 H 1502.48 -6.04563 -0.856468 0
M  V30 15895 H 1503.9 -5.56831 1.36425 0
M  V30 15896 H 1502.29 -5.6008 2.15477 0
M  V30 15897 H 1503.36 -4.20981 2.4063 0
M  V30 15898 N 1504.71 -0.650285 -1.43559 0
M  V30 15899 C 1505.95 -0.162484 -2.01847 0
M  V30 15900 C 1506.28 1.22251 -1.51278 0
M  V30 15901 O 1505.54 1.82939 -0.695115 0
M  V30 15902 C 1505.83 -0.119084 -3.57202 0
M  V30 15903 C 1505.5 -1.44543 -4.27104 0
M  V30 15904 C 1504.16 -1.80864 -4.45917 0
M  V30 15905 C 1506.51 -2.32005 -4.66715 0
M  V30 15906 C 1503.84 -3.04319 -5.01604 0
M  V30 15907 C 1506.19 -3.54748 -5.23771 0
M  V30 15908 C 1504.86 -3.9127 -5.408 0
M  V30 15909 H 1504.13 -0.0594573 -0.738611 0
M  V30 15910 H 1506.78 -0.84041 -1.72074 0
M  V30 15911 H 1505.08 0.642282 -3.865 0
M  V30 15912 H 1506.78 0.275168 -4.00055 0
M  V30 15913 H 1503.37 -1.15281 -4.12805 0
M  V30 15914 H 1507.55 -2.05234 -4.51877 0
M  V30 15915 H 1502.81 -3.32668 -5.12974 0
M  V30 15916 H 1506.98 -4.2274 -5.53411 0
M  V30 15917 H 1504.61 -4.87011 -5.83716 0
M  V30 15918 N 1506.18 1.52647 -0.392018 0
M  V30 15919 C 1507.13 2.23336 0.458815 0
M  V30 15920 C 1508.12 1.23825 1.02743 0
M  V30 15921 O 1509.31 1.49148 0.953089 0
M  V30 15922 C 1506.44 3.04566 1.58412 0
M  V30 15923 C 1505.52 4.11474 1.02711 0
M  V30 15924 N 1505.92 5.05423 0.195282 0
M  V30 15925 C 1504.21 4.26654 1.29934 0
M  V30 15926 C 1504.91 5.81591 -0.112738 0
M  V30 15927 N 1503.89 5.4137 0.491926 0
M  V30 15928 H 1507.69 2.93328 -0.183222 0
M  V30 15929 H 1505.21 1.61145 -0.201476 0
M  V30 15930 H 1507.2 3.53747 2.2061 0
M  V30 15931 H 1505.86 2.36109 2.22896 0
M  V30 15932 H 1506.87 5.17628 -0.167677 0
M  V30 15933 H 1503.55 3.69426 1.94501 0
M  V30 15934 H 1504.94 6.67276 -0.786879 0
M  V30 15935 N 1507.66 0.121921 1.57128 0
M  V30 15936 C 1508.91 -0.5299 1.96376 0
M  V30 15937 C 1509.26 -1.64103 1.00439 0
M  V30 15938 O 1508.56 -1.91568 0.0349355 0
M  V30 15939 C 1508.75 -1.10579 3.39863 0
M  V30 15940 C 1508.58 -0.051992 4.4967 0
M  V30 15941 C 1507.35 0.380828 5.03863 0
M  V30 15942 C 1509.55 0.730085 5.09092 0
M  V30 15943 N 1507.53 1.4201 5.97249 0
M  V30 15944 C 1508.9 1.62048 5.98448 0
M  V30 15945 C 1510.96 0.780651 4.91742 0
M  V30 15946 C 1509.66 2.55704 6.72315 0
M  V30 15947 C 1511.68 1.70493 5.66291 0
M  V30 15948 C 1511.05 2.5829 6.55336 0
M  V30 15949 H 1507.15 -0.163445 0.764728 0
M  V30 15950 H 1509.73 0.210716 1.93556 0
M  V30 15951 H 1507.9 -1.81612 3.43325 0
M  V30 15952 H 1509.63 -1.72217 3.66229 0
M  V30 15953 H 1506.39 -0.0121324 4.73598 0
M  V30 15954 H 1506.81 1.93874 6.48646 0
M  V30 15955 H 1511.45 0.115994 4.22641 0
M  V30 15956 H 1509.17 3.23182 7.40661 0
M  V30 15957 H 1512.76 1.74954 5.54872 0
M  V30 15958 H 1511.64 3.28647 7.12012 0
M  V30 15959 N 1509.14 -1.56867 -0.151857 0
M  V30 15960 C 1510.42 -1.7399 -0.893694 0
M  V30 15961 C 1510.8 -0.688628 -1.99552 0
M  V30 15962 O 1510.15 0.293289 -2.2661 0
M  V30 15963 C 1510.36 -3.1788 -1.44061 0
M  V30 15964 C 1511.7 -3.7942 -1.90592 0
M  V30 15965 O 1512.73 -3.21279 -1.53813 0
M  V30 15966 O 1511.59 -4.81549 -2.58404 0
M  V30 15967 H 1508.68 -0.711229 -0.421998 0
M  V30 15968 H 1511.23 -1.69137 -0.138162 0
M  V30 15969 H 1510 -3.85888 -0.648529 0
M  V30 15970 H 1509.62 -3.27139 -2.25978 0
M  V30 15971 N 1510.62 0.421051 -1.51871 0
M  V30 15972 C 1511.55 1.51928 -1.77313 0
M  V30 15973 C 1512.53 1.58258 -0.623579 0
M  V30 15974 O 1513.71 1.73724 -0.867967 0
M  V30 15975 C 1510.84 2.89865 -1.913 0
M  V30 15976 C 1509.8 2.98391 -3.06834 0
M  V30 15977 C 1509.12 4.38466 -3.06026 0
M  V30 15978 C 1510.42 2.7097 -4.46511 0
M  V30 15979 H 1512.12 1.30889 -2.69274 0
M  V30 15980 H 1509.66 0.628229 -1.29573 0
M  V30 15981 H 1511.62 3.66669 -2.07682 0
M  V30 15982 H 1510.34 3.12172 -0.960011 0
M  V30 15983 H 1509 2.24029 -2.90184 0
M  V30 15984 H 1508.65 4.57764 -2.08472 0
M  V30 15985 H 1508.35 4.45097 -3.83618 0
M  V30 15986 H 1509.87 5.17221 -3.24522 0
M  V30 15987 H 1511.29 3.37501 -4.63428 0
M  V30 15988 H 1509.68 2.88992 -5.25931 0
M  V30 15989 H 1510.75 1.66476 -4.55427 0
M  V30 15990 N 1512.1 1.42293 0.677538 0
M  V30 15991 C 1513.51 1.37948 1.25806 0
M  V30 15992 C 1513.86 0.071408 1.9607 0
M  V30 15993 O 1512.98 -0.829921 1.99853 0
M  V30 15994 C 1513.58 2.49875 2.28797 0
M  V30 15995 C 1512.14 2.48872 2.82382 0
M  V30 15996 C 1511.28 2.28804 1.56665 0
M  V30 15997 H 1514.24 1.51546 0.471102 0
M  V30 15998 H 1514.26 2.19969 3.10474 0
M  V30 15999 H 1513.77 3.45065 1.77629 0
M  V30 16000 H 1511.87 1.57492 3.37679 0
M  V30 16001 H 1511.98 3.45816 3.31585 0
M  V30 16002 H 1510.35 1.77014 1.83135 0
M  V30 16003 H 1511.13 3.26046 1.07467 0
M  V30 16004 N 1513.57 -0.913576 1.28419 0
M  V30 16005 C 1514.51 -2.02073 1.08163 0
M  V30 16006 C 1515.52 -1.62766 0.0333064 0
M  V30 16007 O 1516.71 -1.76347 0.27638 0
M  V30 16008 C 1513.81 -3.33151 0.621596 0
M  V30 16009 C 1512.98 -4.01068 1.74536 0
M  V30 16010 C 1512.04 -5.10428 1.27868 0
M  V30 16011 O 1511.07 -5.33617 1.98094 0
M  V30 16012 N 1512.27 -5.80326 0.141976 0
M  V30 16013 H 1515.03 -2.20009 2.0351 0
M  V30 16014 H 1512.59 -1.08488 1.20174 0
M  V30 16015 H 1514.59 -4.03638 0.292989 0
M  V30 16016 H 1513.16 -3.11685 -0.239031 0
M  V30 16017 H 1512.38 -3.24127 2.24355 0
M  V30 16018 H 1513.66 -4.4319 2.49919 0
M  V30 16019 H 1513.06 -5.63956 -0.443845 0
M  V30 16020 H 1511.62 -6.51676 -0.127354 0
M  V30 16021 N 1515.05 -1.1067 -1.12204 0
M  V30 16022 C 1516.02 -0.761145 -2.16193 0
M  V30 16023 C 1517.02 0.215599 -1.59348 0
M  V30 16024 O 1518.21 -0.00786723 -1.74198 0
M  V30 16025 C 1515.34 -0.127863 -3.4066 0
M  V30 16026 H 1516.53 -1.68225 -2.48275 0
M  V30 16027 H 1514.08 -0.907542 -1.27253 0
M  V30 16028 H 1514.82 0.803851 -3.14179 0
M  V30 16029 H 1514.6 -0.83085 -3.83196 0
M  V30 16030 H 1516.09 0.0980593 -4.17485 0
M  V30 16031 N 1516.53 1.29665 -0.895815 0
M  V30 16032 C 1517.46 2.30268 -0.387151 0
M  V30 16033 C 1518.44 1.61442 0.535768 0
M  V30 16034 O 1519.63 1.88978 0.447321 0
M  V30 16035 C 1516.76 3.45107 0.389639 0
M  V30 16036 C 1515.71 4.25706 -0.442498 0
M  V30 16037 C 1515.04 5.32704 0.461552 0
M  V30 16038 C 1516.34 4.9419 -1.69036 0
M  V30 16039 H 1518.03 2.73064 -1.22786 0
M  V30 16040 H 1515.58 1.31274 -0.591869 0
M  V30 16041 H 1517.53 4.14559 0.756203 0
M  V30 16042 H 1516.25 3.01145 1.2641 0
M  V30 16043 H 1514.91 3.57957 -0.791343 0
M  V30 16044 H 1514.56 4.84987 1.33403 0
M  V30 16045 H 1514.26 5.87529 -0.0915006 0
M  V30 16046 H 1515.78 6.05009 0.824395 0
M  V30 16047 H 1517.2 5.561 -1.39376 0
M  V30 16048 H 1515.6 5.5893 -2.18444 0
M  V30 16049 H 1516.67 4.19699 -2.42859 0
M  V30 16050 N 1518.01 0.657889 1.43212 0
M  V30 16051 C 1518.94 -0.0695999 2.29094 0
M  V30 16052 C 1519.95 -0.782463 1.42763 0
M  V30 16053 O 1521.14 -0.63944 1.66654 0
M  V30 16054 C 1518.24 -1.12178 3.19796 0
M  V30 16055 C 1517.42 -0.486131 4.3469 0
M  V30 16056 C 1516.47 -1.43582 5.06232 0
M  V30 16057 O 1515.5 -0.942622 5.61341 0
M  V30 16058 N 1516.7 -2.76966 5.10167 0
M  V30 16059 H 1519.47 0.667565 2.92171 0
M  V30 16060 H 1517.03 0.501022 1.53953 0
M  V30 16061 H 1519.02 -1.75801 3.64522 0
M  V30 16062 H 1517.59 -1.76087 2.58287 0
M  V30 16063 H 1516.81 0.329281 3.92822 0
M  V30 16064 H 1518.1 -0.0425918 5.08782 0
M  V30 16065 H 1517.5 -3.19592 4.66774 0
M  V30 16066 H 1516.05 -3.3588 5.58595 0
M  V30 16067 N 1519.49 -1.52437 0.400108 0
M  V30 16068 C 1520.76 -1.94162 -0.23671 0
M  V30 16069 C 1521.14 -1.33636 -1.63416 0
M  V30 16070 O 1520.49 -0.508643 -2.22767 0
M  V30 16071 C 1520.7 -3.48088 -0.252159 0
M  V30 16072 C 1522.05 -4.21925 -0.475887 0
M  V30 16073 O 1523.07 -3.5465 -0.331905 0
M  V30 16074 O 1521.93 -5.41205 -0.758895 0
M  V30 16075 H 1519.03 -0.813294 -0.14994 0
M  V30 16076 H 1521.57 -1.63475 0.455399 0
M  V30 16077 H 1520.34 -3.84501 0.726263 0
M  V30 16078 H 1519.97 -3.8511 -0.988742 0
M  V30 16079 N 1520.96 -0.130252 -1.57061 0
M  V30 16080 C 1522.21 0.52488 -1.94751 0
M  V30 16081 C 1522.53 1.67107 -1.0166 0
M  V30 16082 O 1523.73 2.38971 -1.28861 0
M  V30 16083 C 1522.19 0.985118 -3.46155 0
M  V30 16084 C 1521.8 -0.133222 -4.47802 0
M  V30 16085 C 1523.54 1.61099 -3.92743 0
M  V30 16086 C 1521.45 0.344346 -5.90397 0
M  V30 16087 H 1520.38 0.19985 -0.727032 0
M  V30 16088 H 1523.03 -0.211912 -1.82272 0
M  V30 16089 H 1521.41 1.77667 -3.53907 0
M  V30 16090 H 1522.58 -0.909784 -4.5173 0
M  V30 16091 H 1520.9 -0.666449 -4.11032 0
M  V30 16092 H 1523.5 1.97963 -4.96704 0
M  V30 16093 H 1523.84 2.49366 -3.3335 0
M  V30 16094 H 1524.37 0.884641 -3.87839 0
M  V30 16095 H 1521.11 -0.502547 -6.53571 0
M  V30 16096 H 1520.63 1.08714 -5.89865 0
M  V30 16097 H 1522.31 0.801885 -6.42012 0
M  V30 16098 N 1522.44 1.56945 0.143535 0
M  V30 16099 C 1523.69 1.83176 0.853873 0
M  V30 16100 C 1524.01 0.71168 1.81549 0
M  V30 16101 O 1523.28 -0.266391 1.9408 0
M  V30 16102 H 1521.86 0.675785 0.318313 0
M  V30 16103 H 1524.52 1.9442 0.136712 0
M  V30 16104 H 1523.62 2.7823 1.41402 0
M  V30 16105 N 1523.92 -0.412991 1.52093 0
M  V30 16106 C 1525.17 -1.15801 1.65634 0
M  V30 16107 C 1525.49 -1.91127 0.386737 0
M  V30 16108 O 1524.76 -1.86541 -0.598262 0
M  V30 16109 H 1523.34 -0.430467 0.610498 0
M  V30 16110 H 1526 -0.471127 1.8912 0
M  V30 16111 H 1525.1 -1.87421 2.49559 0
M  V30 16112 N 1525.4 -1.4265 -0.669982 0
M  V30 16113 C 1526.65 -1.44587 -1.4306 0
M  V30 16114 C 1527 -0.0629167 -1.92297 0
M  V30 16115 O 1526.29 0.915708 -1.68301 0
M  V30 16116 C 1526.49 -2.40913 -2.63999 0
M  V30 16117 C 1526.32 -3.88438 -2.26597 0
M  V30 16118 C 1525.09 -4.56936 -2.15725 0
M  V30 16119 C 1527.28 -4.78731 -1.87938 0
M  V30 16120 N 1525.27 -5.89465 -1.71477 0
M  V30 16121 C 1526.64 -6.00404 -1.54645 0
M  V30 16122 C 1528.69 -4.66143 -1.74973 0
M  V30 16123 C 1527.4 -7.10888 -1.09688 0
M  V30 16124 C 1529.42 -5.76613 -1.3142 0
M  V30 16125 C 1528.78 -6.97401 -0.99054 0
M  V30 16126 H 1524.88 -0.584242 -0.519794 0
M  V30 16127 H 1527.47 -1.78711 -0.772679 0
M  V30 16128 H 1525.64 -2.08843 -3.27474 0
M  V30 16129 H 1527.37 -2.33398 -3.30617 0
M  V30 16130 H 1524.12 -4.11213 -2.34948 0
M  V30 16131 H 1524.55 -6.59771 -1.51762 0
M  V30 16132 H 1529.19 -3.73231 -1.98641 0
M  V30 16133 H 1526.91 -8.03642 -0.847666 0
M  V30 16134 H 1530.49 -5.68886 -1.21902 0
M  V30 16135 H 1529.37 -7.81429 -0.658653 0
M  V30 16136 N 1526.88 0.906753 -1.28902 0
M  V30 16137 C 1527.79 2.04313 -1.15296 0
M  V30 16138 C 1528.8 1.73826 -0.0778619 0
M  V30 16139 O 1529.98 1.99322 -0.288543 0
M  V30 16140 C 1527.04 3.36782 -0.823317 0
M  V30 16141 C 1526.11 3.80834 -1.98152 0
M  V30 16142 C 1525.34 5.06981 -1.66751 0
M  V30 16143 O 1525.56 5.67391 -0.58513 0
M  V30 16144 O 1524.5 5.46915 -2.51332 0
M  V30 16145 H 1528.32 2.18713 -2.10709 0
M  V30 16146 H 1525.91 1.02928 -1.08287 0
M  V30 16147 H 1527.79 4.16298 -0.653735 0
M  V30 16148 H 1526.46 3.23542 0.101097 0
M  V30 16149 H 1525.37 3.02115 -2.2063 0
M  V30 16150 H 1526.7 3.98648 -2.88688 0
M  V30 16151 N 1528.36 1.11264 1.11616 0
M  V30 16152 C 1529.3 0.764321 2.19684 0
M  V30 16153 C 1530.3 -0.243396 1.67642 0
M  V30 16154 O 1531.5 -0.102869 1.79706 0
M  V30 16155 H 1527.88 0.229275 0.716196 0
M  V30 16156 H 1529.85 1.68445 2.46311 0
M  V30 16157 C 1528.6 0.22175 3.46992 0
M  V30 16158 H 1527.92 0.988422 3.87389 0
M  V30 16159 H 1529.36 0.0161946 4.23997 0
M  V30 16160 C 1527.82 -1.04755 3.202 0
M  V30 16161 O 1528.35 -2.12758 3.4073 0
M  V30 16162 N 1526.56 -0.969608 2.73947 0
M  V30 16163 H 1526.1 -0.0906063 2.57441 0
M  V30 16164 H 1526.06 -1.81955 2.56397 0
M  V30 16165 N 1529.83 -1.29188 0.902679 0
M  V30 16166 C 1531.24 -1.77521 0.578207 0
M  V30 16167 C 1531.6 -1.74017 -0.906227 0
M  V30 16168 O 1530.72 -1.32793 -1.70865 0
M  V30 16169 C 1531.32 -3.22352 1.04281 0
M  V30 16170 C 1529.87 -3.68451 0.769454 0
M  V30 16171 C 1529.02 -2.49225 1.21583 0
M  V30 16172 H 1531.97 -1.15807 1.0851 0
M  V30 16173 H 1531.99 -3.78604 0.379396 0
M  V30 16174 H 1531.51 -3.2487 2.12323 0
M  V30 16175 H 1529.61 -3.71405 -0.298223 0
M  V30 16176 H 1529.72 -4.59112 1.36943 0
M  V30 16177 H 1528.08 -2.46663 0.634766 0
M  V30 16178 H 1528.87 -2.54469 2.30436 0
M  V30 16179 N 1531.31 -0.665475 -1.42861 0
M  V30 16180 C 1532.27 0.00932351 -2.29198 0
M  V30 16181 C 1533.27 0.738356 -1.42846 0
M  V30 16182 O 1534.46 0.57776 -1.6434 0
M  V30 16183 C 1531.6 1.02392 -3.25159 0
M  V30 16184 H 1532.79 -0.750481 -2.90358 0
M  V30 16185 H 1530.34 -0.427334 -1.50345 0
M  V30 16186 H 1531.08 1.81254 -2.68919 0
M  V30 16187 H 1530.86 0.504671 -3.88839 0
M  V30 16188 H 1532.35 1.49479 -3.89931 0
M  V30 16189 N 1532.79 1.52222 -0.408187 0
M  V30 16190 C 1533.72 2.29892 0.408868 0
M  V30 16191 C 1534.7 1.34063 1.04695 0
M  V30 16192 O 1535.89 1.6297 1.05615 0
M  V30 16193 C 1533.02 3.11964 1.52629 0
M  V30 16194 C 1531.97 4.15833 1.01326 0
M  V30 16195 C 1531.3 4.86244 2.2242 0
M  V30 16196 C 1532.6 5.22256 0.0679573 0
M  V30 16197 H 1534.29 2.98443 -0.23923 0
M  V30 16198 H 1531.84 1.43528 -0.116496 0
M  V30 16199 H 1533.79 3.65067 2.10486 0
M  V30 16200 H 1532.51 2.41181 2.20225 0
M  V30 16201 H 1531.17 3.63739 0.4571 0
M  V30 16202 H 1530.82 4.11991 2.88569 0
M  V30 16203 H 1530.52 5.56461 1.88746 0
M  V30 16204 H 1532.04 5.42159 2.80885 0
M  V30 16205 H 1533.46 5.70604 0.555295 0
M  V30 16206 H 1531.85 5.9983 -0.179934 0
M  V30 16207 H 1532.92 4.76892 -0.877599 0
M  V30 16208 N 1534.27 0.138579 1.5699 0
M  V30 16209 C 1535.52 -0.514545 1.95026 0
M  V30 16210 C 1535.83 -1.66565 1.02544 0
M  V30 16211 O 1537.04 -2.38284 1.30126 0
M  V30 16212 C 1535.49 -0.966746 3.46673 0
M  V30 16213 C 1535.1 0.156969 4.47725 0
M  V30 16214 C 1536.84 -1.59014 3.93592 0
M  V30 16215 C 1534.75 -0.313031 5.90571 0
M  V30 16216 H 1533.68 -0.195991 0.728082 0
M  V30 16217 H 1536.33 0.221575 1.82157 0
M  V30 16218 H 1534.71 -1.75788 3.54845 0
M  V30 16219 H 1535.89 0.933728 4.51241 0
M  V30 16220 H 1534.2 0.688238 4.10673 0
M  V30 16221 H 1536.8 -1.95326 4.97747 0
M  V30 16222 H 1537.14 -2.47595 3.34668 0
M  V30 16223 H 1537.68 -0.864061 3.88302 0
M  V30 16224 H 1534.41 0.5372 6.53295 0
M  V30 16225 H 1533.93 -1.05585 5.90434 0
M  V30 16226 H 1535.61 -0.767826 6.42428 0
M  V30 16227 N 1535.75 -1.57019 -0.13521 0
M  V30 16228 C 1537.02 -1.74928 -0.875189 0
M  V30 16229 C 1537.4 -0.709755 -1.98811 0
M  V30 16230 O 1536.75 0.269237 -2.26908 0
M  V30 16231 C 1536.96 -3.1939 -1.40681 0
M  V30 16232 C 1538.31 -3.8142 -1.86557 0
M  V30 16233 O 1539.33 -3.22892 -1.50397 0
M  V30 16234 O 1538.19 -4.84263 -2.53282 0
M  V30 16235 H 1535.29 -0.715665 -0.414431 0
M  V30 16236 H 1537.83 -1.69274 -0.120215 0
M  V30 16237 H 1536.6 -3.86554 -0.607564 0
M  V30 16238 H 1536.23 -3.29517 -2.22496 0
M  V30 16239 N 1537.22 0.404919 -1.52309 0
M  V30 16240 C 1538.15 1.50039 -1.78915 0
M  V30 16241 C 1539.14 1.57587 -0.640329 0
M  V30 16242 O 1540.32 1.72793 -0.886344 0
M  V30 16243 C 1537.45 2.87819 -1.94364 0
M  V30 16244 C 1536.4 2.9512 -3.09981 0
M  V30 16245 C 1535.73 4.35195 -3.10659 0
M  V30 16246 C 1537.03 2.66219 -4.4936 0
M  V30 16247 H 1538.72 1.28025 -2.70647 0
M  V30 16248 H 1536.27 0.61445 -1.30233 0
M  V30 16249 H 1538.22 3.64446 -2.11559 0
M  V30 16250 H 1536.95 3.11136 -0.993067 0
M  V30 16251 H 1535.61 2.20939 -2.92543 0
M  V30 16252 H 1535.25 4.55528 -2.13316 0
M  V30 16253 H 1534.95 4.41003 -3.88317 0
M  V30 16254 H 1536.48 5.1375 -3.29989 0
M  V30 16255 H 1537.89 3.32567 -4.66982 0
M  V30 16256 H 1536.29 2.83398 -5.28967 0
M  V30 16257 H 1537.36 1.61636 -4.57167 0
M  V30 16258 N 1538.7 1.43003 0.662408 0
M  V30 16259 C 1539.95 1.44133 1.42239 0
M  V30 16260 C 1540.28 0.062249 1.944 0
M  V30 16261 O 1539.53 -0.931341 1.72118 0
M  V30 16262 C 1539.83 2.4231 2.62718 0
M  V30 16263 C 1539.5 3.88403 2.29028 0
M  V30 16264 C 1538.16 4.28194 2.19552 0
M  V30 16265 C 1540.51 4.80505 2.01902 0
M  V30 16266 C 1537.84 5.58052 1.81092 0
M  V30 16267 C 1540.19 6.10718 1.64943 0
M  V30 16268 C 1538.86 6.49496 1.53985 0
M  V30 16269 H 1538.13 0.527419 0.52049 0
M  V30 16270 H 1540.77 1.76024 0.75417 0
M  V30 16271 H 1539.08 2.03789 3.3463 0
M  V30 16272 H 1540.77 2.40442 3.20918 0
M  V30 16273 H 1537.36 3.56906 2.37311 0
M  V30 16274 H 1541.55 4.50542 2.08149 0
M  V30 16275 H 1536.8 5.86945 1.71187 0
M  V30 16276 H 1540.98 6.81564 1.42982 0
M  V30 16277 H 1538.61 7.50026 1.23954 0
M  V30 16278 N 1540.18 -0.899904 1.29381 0
M  V30 16279 C 1541.46 -1.63067 1.08021 0
M  V30 16280 C 1541.84 -2.0773 -0.375716 0
M  V30 16281 O 1541.19 -1.83288 -1.36447 0
M  V30 16282 C 1541.4 -2.81163 2.06757 0
M  V30 16283 C 1542.74 -3.51854 2.37664 0
M  V30 16284 O 1543.77 -2.91332 2.0495 0
M  V30 16285 O 1542.63 -4.60962 2.93558 0
M  V30 16286 H 1539.72 -0.71601 0.413835 0
M  V30 16287 H 1542.27 -0.947991 1.40752 0
M  V30 16288 H 1541.04 -2.45355 3.04822 0
M  V30 16289 H 1540.66 -3.57137 1.74754 0
M  V30 16290 N 1541.66 -1.11854 -1.11024 0
M  V30 16291 C 1542.88 -0.892999 -1.8719 0
M  V30 16292 C 1543.31 0.552058 -1.79816 0
M  V30 16293 O 1542.67 1.39025 -1.16369 0
M  V30 16294 C 1542.71 -1.3647 -3.33779 0
M  V30 16295 O 1541.82 -0.539202 -4.0886 0
M  V30 16296 H 1541.16 -0.321319 -0.581076 0
M  V30 16297 H 1543.69 -1.4891 -1.4031 0
M  V30 16298 H 1543.7 -1.3611 -3.84627 0
M  V30 16299 H 1542.37 -2.41694 -3.38462 0
M  V30 16300 H 1540.95 -0.60927 -3.67889 0
M  V30 16301 N 1543.14 1.28707 -0.909517 0
M  V30 16302 C 1544.37 1.98995 -0.555405 0
M  V30 16303 C 1544.77 1.68183 0.866665 0
M  V30 16304 O 1544.12 0.928626 1.585 0
M  V30 16305 C 1544.18 3.53018 -0.67958 0
M  V30 16306 C 1543.84 4.0741 -2.07042 0
M  V30 16307 C 1544.84 4.21565 -3.04268 0
M  V30 16308 C 1542.53 4.42204 -2.38245 0
M  V30 16309 C 1544.52 4.69762 -4.30816 0
M  V30 16310 C 1542.21 4.90095 -3.65034 0
M  V30 16311 C 1543.2 5.03831 -4.61133 0
M  V30 16312 O 1542.89 5.50679 -5.85668 0
M  V30 16313 H 1542.62 0.64228 -0.210836 0
M  V30 16314 H 1545.18 1.64974 -1.22364 0
M  V30 16315 H 1543.41 3.86673 0.0457104 0
M  V30 16316 H 1545.1 4.0453 -0.33319 0
M  V30 16317 H 1545.86 3.94962 -2.81478 0
M  V30 16318 H 1541.74 4.30766 -1.642 0
M  V30 16319 H 1545.29 4.80398 -5.0583 0
M  V30 16320 H 1541.18 5.16137 -3.8765 0
M  V30 16321 H 1541.95 5.68974 -5.88397 0
M  V30 16322 N 1544.61 0.673042 1.42506 0
M  V30 16323 C 1545.58 0.00283156 2.292 0
M  V30 16324 C 1546.58 -0.73077 1.43235 0
M  V30 16325 O 1547.77 -0.569037 1.64644 0
M  V30 16326 C 1544.9 -1.00666 3.25698 0
M  V30 16327 H 1546.09 0.765869 2.89956 0
M  V30 16328 H 1543.65 0.435301 1.50116 0
M  V30 16329 H 1544.38 -1.79825 2.69877 0
M  V30 16330 H 1544.17 -0.484043 3.89101 0
M  V30 16331 H 1545.66 -1.47409 3.90718 0
M  V30 16332 N 1546.09 -1.52004 0.416254 0
M  V30 16333 C 1547.37 -1.94403 -0.216103 0
M  V30 16334 C 1547.75 -1.35362 -1.61989 0
M  V30 16335 O 1547.1 -0.532242 -2.22215 0
M  V30 16336 C 1547.31 -3.48336 -0.215225 0
M  V30 16337 C 1548.66 -4.22406 -0.431109 0
M  V30 16338 O 1549.68 -3.54982 -0.294271 0
M  V30 16339 O 1548.54 -5.4198 -0.70145 0
M  V30 16340 H 1545.63 -0.814838 -0.141306 0
M  V30 16341 H 1548.18 -1.62983 0.472712 0
M  V30 16342 H 1546.95 -3.83709 0.767004 0
M  V30 16343 H 1546.57 -3.86137 -0.947841 0
M  V30 16344 N 1547.57 -0.146903 -1.56914 0
M  V30 16345 C 1548.82 0.504234 -1.96122 0
M  V30 16346 C 1549.15 1.64879 -1.03175 0
M  V30 16347 O 1548.4 1.95605 -0.0609397 0
M  V30 16348 C 1548.7 1.05159 -3.41579 0
M  V30 16349 C 1548.37 0.0254845 -4.50893 0
M  V30 16350 C 1547.03 -0.256589 -4.80515 0
M  V30 16351 C 1549.38 -0.672284 -5.16846 0
M  V30 16352 C 1546.71 -1.24224 -5.73398 0
M  V30 16353 C 1549.06 -1.64675 -6.1079 0
M  V30 16354 C 1547.72 -1.93652 -6.38792 0
M  V30 16355 H 1546.99 0.184512 -0.71766 0
M  V30 16356 H 1549.64 -0.233712 -1.90069 0
M  V30 16357 H 1547.95 1.86687 -3.44464 0
M  V30 16358 H 1549.64 1.56398 -3.69244 0
M  V30 16359 H 1546.23 0.255517 -4.27838 0
M  V30 16360 H 1550.42 -0.467555 -4.94093 0
M  V30 16361 H 1545.67 -1.47319 -5.93386 0
M  V30 16362 H 1549.85 -2.19294 -6.60971 0
M  V30 16363 H 1547.47 -2.70179 -7.10568 0
M  V30 16364 N 1549.05 1.57088 0.126881 0
M  V30 16365 C 1550.29 1.8625 0.842031 0
M  V30 16366 C 1550.65 0.733868 1.77421 0
M  V30 16367 O 1551.85 0.907051 2.53034 0
M  V30 16368 C 1550.12 3.2063 1.57897 0
M  V30 16369 S 1551.68 3.71403 2.33677 0
M  V30 16370 H 1548.5 0.653034 0.28119 0
M  V30 16371 H 1551.1 1.9524 0.100825 0
M  V30 16372 H 1549.81 4.00722 0.885982 0
M  V30 16373 H 1549.34 3.14698 2.3607 0
M  V30 16374 H 1551.35 3.42274 3.59253 0
M  V30 16375 N 1550.53 -0.396836 1.52522 0
M  V30 16376 C 1551.77 -1.14263 1.67183 0
M  V30 16377 C 1552.1 -1.90176 0.407845 0
M  V30 16378 O 1551.36 -1.85965 -0.609553 0
M  V30 16379 C 1551.66 -2.15308 2.85267 0
M  V30 16380 C 1551.32 -1.56111 4.23013 0
M  V30 16381 C 1549.98 -1.39692 4.60478 0
M  V30 16382 C 1552.34 -1.12998 5.08803 0
M  V30 16383 C 1549.66 -0.786963 5.81398 0
M  V30 16384 C 1552.02 -0.534159 6.30341 0
M  V30 16385 C 1550.68 -0.357204 6.66544 0
M  V30 16386 H 1549.95 -0.418118 0.611766 0
M  V30 16387 H 1552.6 -0.428255 1.8665 0
M  V30 16388 H 1550.9 -2.92935 2.60185 0
M  V30 16389 H 1552.6 -2.72908 2.93806 0
M  V30 16390 H 1549.19 -1.69876 3.93497 0
M  V30 16391 H 1553.37 -1.24488 4.80434 0
M  V30 16392 H 1548.63 -0.63799 6.08062 0
M  V30 16393 H 1552.8 -0.191759 6.96136 0
M  V30 16394 H 1550.43 0.117528 7.60109 0
M  V30 16395 N 1552.01 -1.43353 -0.654814 0
M  V30 16396 C 1552.94 -1.44353 -1.7803 0
M  V30 16397 C 1553.95 -0.339872 -1.59213 0
M  V30 16398 O 1555.14 -0.604207 -1.67963 0
M  V30 16399 C 1552.24 -1.23913 -3.15434 0
M  V30 16400 C 1551.41 -2.47088 -3.60924 0
M  V30 16401 C 1550.47 -2.21896 -4.77126 0
M  V30 16402 O 1549.5 -2.95236 -4.86646 0
M  V30 16403 N 1550.7 -1.23459 -5.6722 0
M  V30 16404 H 1553.46 -2.41372 -1.77651 0
M  V30 16405 H 1551.03 -1.38488 -0.838603 0
M  V30 16406 H 1553.02 -1.04945 -3.90856 0
M  V30 16407 H 1551.59 -0.35346 -3.10595 0
M  V30 16408 H 1550.81 -2.81492 -2.75964 0
M  V30 16409 H 1552.1 -3.29066 -3.88064 0
M  V30 16410 H 1551.49 -0.6284 -5.62199 0
M  V30 16411 H 1550.05 -1.10474 -6.4237 0
M  V30 16412 N 1553.48 0.89303 -1.29857 0
M  V30 16413 C 1554.71 1.67744 -1.21119 0
M  V30 16414 C 1555.13 1.87428 0.227198 0
M  V30 16415 O 1554.48 1.41605 1.15128 0
M  V30 16416 C 1554.53 3.05827 -1.92749 0
M  V30 16417 O 1554.26 2.87036 -3.30971 0
M  V30 16418 C 1555.76 4.00248 -1.9057 0
M  V30 16419 H 1552.98 0.523699 -0.4195 0
M  V30 16420 H 1555.52 1.1163 -1.71344 0
M  V30 16421 H 1553.68 3.58696 -1.46342 0
M  V30 16422 H 1554.09 3.74578 -3.6714 0
M  V30 16423 H 1555.56 4.9453 -2.45242 0
M  V30 16424 H 1556.04 4.30237 -0.882753 0
M  V30 16425 H 1556.65 3.53312 -2.36751 0
M  V30 16426 N 1554.96 1.12442 1.10429 0
M  V30 16427 C 1556.21 0.879758 1.82391 0
M  V30 16428 C 1556.54 -0.594402 1.85195 0
M  V30 16429 O 1555.79 -1.4554 1.3083 0
M  V30 16430 C 1556.09 1.39976 3.28849 0
M  V30 16431 C 1555.76 2.88897 3.46192 0
M  V30 16432 C 1554.42 3.2956 3.50633 0
M  V30 16433 C 1556.77 3.8476 3.51581 0
M  V30 16434 C 1554.1 4.64791 3.58031 0
M  V30 16435 C 1556.45 5.19821 3.60512 0
M  V30 16436 C 1555.11 5.60026 3.63217 0
M  V30 16437 H 1554.38 0.321926 0.667416 0
M  V30 16438 H 1557.03 1.40461 1.30165 0
M  V30 16439 H 1555.34 0.795374 3.83642 0
M  V30 16440 H 1557.03 1.18667 3.83039 0
M  V30 16441 H 1553.62 2.56448 3.43413 0
M  V30 16442 H 1557.81 3.54439 3.474 0
M  V30 16443 H 1553.06 4.95332 3.58408 0
M  V30 16444 H 1557.24 5.93927 3.63625 0
M  V30 16445 H 1554.86 6.64803 3.68702 0
M  V30 16446 N 1556.44 -1.28223 0.91633 0
M  V30 16447 C 1557.69 -1.9448 0.549734 0
M  V30 16448 C 1558.01 -1.72465 -0.909999 0
M  V30 16449 O 1557.28 -1.06583 -1.64368 0
M  V30 16450 H 1555.86 -0.719641 0.200315 0
M  V30 16451 H 1558.52 -1.56156 1.16625 0
M  V30 16452 H 1557.62 -3.03044 0.746363 0
M  V30 16453 N 1557.92 -0.68059 -1.42147 0
M  V30 16454 C 1559.19 -0.133957 -1.95141 0
M  V30 16455 C 1559.57 1.3526 -1.62074 0
M  V30 16456 O 1558.92 2.09165 -0.919898 0
M  V30 16457 C 1559.13 -0.409266 -3.46592 0
M  V30 16458 C 1560.48 -0.328899 -4.23324 0
M  V30 16459 O 1561.5 -0.343337 -3.54541 0
M  V30 16460 O 1560.36 -0.276076 -5.45802 0
M  V30 16461 H 1557.46 -0.00623443 -0.826977 0
M  V30 16462 H 1560 -0.755719 -1.51944 0
M  V30 16463 H 1558.78 -1.43883 -3.63887 0
M  V30 16464 H 1558.4 0.244216 -3.96849 0
M  V30 16465 N 1559.4 1.51781 -0.424309 0
M  V30 16466 C 1560.81 1.59419 -0.0759329 0
M  V30 16467 C 1561.01 1.43616 1.41339 0
M  V30 16468 O 1560.07 1.27078 2.18191 0
M  V30 16469 C 1561.38 2.94966 -0.584411 0
M  V30 16470 C 1562.93 3.08241 -0.54371 0
M  V30 16471 C 1563.4 4.46292 -1.02895 0
M  V30 16472 N 1564.89 4.52575 -0.986392 0
M  V30 16473 C 1565.63 5.57694 -1.33286 0
M  V30 16474 N 1565.13 6.70293 -1.75154 0
M  V30 16475 N 1566.92 5.47983 -1.25186 0
M  V30 16476 H 1559.07 1.60299 -1.39349 0
M  V30 16477 H 1561.33 0.75492 -0.573411 0
M  V30 16478 H 1561.04 3.11859 -1.62593 0
M  V30 16479 H 1560.91 3.772 -0.00224435 0
M  V30 16480 H 1563.3 2.91024 0.488798 0
M  V30 16481 H 1563.38 2.27878 -1.16212 0
M  V30 16482 H 1563.02 4.64255 -2.05986 0
M  V30 16483 H 1562.95 5.25175 -0.387202 0
M  V30 16484 H 1565.45 3.71754 -0.678765 0
M  V30 16485 H 1565.76 7.46508 -1.99863 0
M  V30 16486 H 1564.1 6.71535 -1.79071 0
M  V30 16487 H 1567.29 4.58899 -0.923525 0
M  V30 16488 H 1567.47 6.29796 -1.52517 0
M  V30 16489 N 1560.87 0.155222 1.56834 0
M  V30 16490 C 1562.12 -0.494557 1.96677 0
M  V30 16491 C 1562.45 -1.63973 1.04051 0
M  V30 16492 O 1561.73 -1.94316 0.0844791 0
M  V30 16493 C 1562.01 -0.992902 3.46141 0
M  V30 16494 C 1561.86 0.151335 4.49545 0
M  V30 16495 C 1563.18 -1.87197 3.98303 0
M  V30 16496 H 1560.3 -0.178298 0.715107 0
M  V30 16497 H 1562.94 0.23811 1.88502 0
M  V30 16498 H 1561.09 -1.61724 3.53239 0
M  V30 16499 H 1562.77 0.787945 4.54521 0
M  V30 16500 H 1561.01 0.809262 4.26185 0
M  V30 16501 H 1561.68 -0.23921 5.51481 0
M  V30 16502 H 1564.16 -1.34578 3.93736 0
M  V30 16503 H 1563.03 -2.18972 5.03331 0
M  V30 16504 H 1563.29 -2.81191 3.41151 0
M  V30 16505 N 1562.35 -1.57153 -0.118549 0
M  V30 16506 C 1563.3 -2.00374 -1.14538 0
M  V30 16507 C 1564.27 -0.875964 -1.41124 0
M  V30 16508 O 1565.45 -1.14022 -1.52982 0
M  V30 16509 C 1562.59 -2.4135 -2.46666 0
M  V30 16510 C 1561.71 -3.67545 -2.27012 0
M  V30 16511 C 1560.84 -3.975 -3.52374 0
M  V30 16512 C 1559.88 -5.16877 -3.27879 0
M  V30 16513 N 1559.02 -5.427 -4.45445 0
M  V30 16514 H 1563.86 -2.87885 -0.769821 0
M  V30 16515 H 1561.39 -1.42406 -0.368622 0
M  V30 16516 H 1563.35 -2.63144 -3.23745 0
M  V30 16517 H 1561.98 -1.5688 -2.82114 0
M  V30 16518 H 1561.03 -3.53364 -1.40848 0
M  V30 16519 H 1562.35 -4.54777 -2.04889 0
M  V30 16520 H 1561.5 -4.19945 -4.37871 0
M  V30 16521 H 1560.24 -3.08745 -3.77529 0
M  V30 16522 H 1559.24 -4.94276 -2.40773 0
M  V30 16523 H 1560.47 -6.0721 -3.04094 0
M  V30 16524 H 1558.42 -4.56902 -4.70719 0
M  V30 16525 H 1558.33 -6.24256 -4.26428 0
M  V30 16526 H 1559.6 -5.69664 -5.32074 0
M  V30 16527 N 1563.83 0.388742 -1.5273 0
M  V30 16528 C 1565.08 1.13375 -1.67787 0
M  V30 16529 C 1565.4 1.89957 -0.417925 0
M  V30 16530 O 1564.66 1.86286 0.599682 0
M  V30 16531 C 1564.96 2.13792 -2.86405 0
M  V30 16532 C 1564.62 1.53865 -4.23835 0
M  V30 16533 C 1563.29 1.37248 -4.61212 0
M  V30 16534 C 1565.64 1.10298 -5.09395 0
M  V30 16535 C 1562.97 0.756119 -5.81807 0
M  V30 16536 C 1565.32 0.500723 -6.30615 0
M  V30 16537 C 1563.98 0.321851 -6.66724 0
M  V30 16538 H 1563.25 0.414868 -0.613975 0
M  V30 16539 H 1565.9 0.418351 -1.86874 0
M  V30 16540 H 1564.2 2.91551 -2.61735 0
M  V30 16541 H 1565.9 2.71346 -2.95249 0
M  V30 16542 H 1562.49 1.67787 -3.94393 0
M  V30 16543 H 1566.68 1.21938 -4.81087 0
M  V30 16544 H 1561.93 0.605734 -6.08392 0
M  V30 16545 H 1566.11 0.154839 -6.96228 0
M  V30 16546 H 1563.73 -0.157836 -7.60036 0
M  V30 16547 N 1565.31 1.43698 0.647203 0
M  V30 16548 C 1566.55 1.46845 1.40742 0
M  V30 16549 C 1566.91 0.0935016 1.92173 0
M  V30 16550 O 1566.2 -0.888817 1.69737 0
M  V30 16551 C 1566.4 2.45083 2.60133 0
M  V30 16552 C 1566.22 3.91994 2.20388 0
M  V30 16553 C 1564.99 4.6031 2.08428 0
M  V30 16554 C 1567.19 4.81661 1.80298 0
M  V30 16555 N 1565.17 5.92118 1.62077 0
M  V30 16556 C 1566.55 6.02788 1.45074 0
M  V30 16557 C 1568.6 4.68867 1.67535 0
M  V30 16558 C 1567.3 7.12543 0.983642 0
M  V30 16559 C 1569.33 5.78631 1.2223 0
M  V30 16560 C 1568.69 6.98888 0.879465 0
M  V30 16561 H 1564.79 0.592437 0.510433 0
M  V30 16562 H 1567.37 1.79918 0.74415 0
M  V30 16563 H 1565.55 2.14026 3.2411 0
M  V30 16564 H 1567.28 2.38628 3.26862 0
M  V30 16565 H 1564.03 4.14899 2.28376 0
M  V30 16566 H 1564.46 6.62102 1.41246 0
M  V30 16567 H 1569.1 3.76344 1.92678 0
M  V30 16568 H 1566.82 8.04889 0.719706 0
M  V30 16569 H 1570.4 5.70753 1.12836 0
M  V30 16570 H 1569.28 7.82378 0.534251 0
M  V30 16571 N 1566.79 -0.886131 1.30328 0
M  V30 16572 C 1567.72 -1.99419 1.10938 0
M  V30 16573 C 1568.7 -1.62591 0.0173539 0
M  V30 16574 O 1569.88 -1.87726 0.170684 0
M  V30 16575 C 1567.01 -3.31561 0.691713 0
M  V30 16576 C 1566.05 -3.87376 1.78444 0
M  V30 16577 S 1566.89 -4.14812 3.38661 0
M  V30 16578 C 1568.04 -5.49976 2.98793 0
M  V30 16579 H 1568.28 -2.15561 2.04746 0
M  V30 16580 H 1565.81 -1.03438 1.14629 0
M  V30 16581 H 1567.77 -4.07943 0.457465 0
M  V30 16582 H 1566.43 -3.13279 -0.226981 0
M  V30 16583 H 1565.62 -4.82858 1.44445 0
M  V30 16584 H 1565.22 -3.1773 1.97291 0
M  V30 16585 H 1567.52 -6.30995 2.46682 0
M  V30 16586 H 1568.46 -5.88911 3.93178 0
M  V30 16587 H 1568.87 -5.1248 2.36694 0
M  V30 16588 N 1568.26 -1.13026 -1.09832 0
M  V30 16589 C 1569.49 -0.91246 -1.85693 0
M  V30 16590 C 1569.91 0.538558 -1.80956 0
M  V30 16591 O 1569.26 1.37262 -1.20273 0
M  V30 16592 C 1569.32 -1.38684 -3.3384 0
M  V30 16593 O 1569.04 -2.78099 -3.38515 0
M  V30 16594 C 1570.54 -1.20688 -4.26555 0
M  V30 16595 H 1567.76 -0.32565 -0.58668 0
M  V30 16596 H 1570.3 -1.50177 -1.38806 0
M  V30 16597 H 1568.46 -0.840617 -3.7817 0
M  V30 16598 H 1568.87 -2.99061 -4.30886 0
M  V30 16599 H 1570.34 -1.5876 -5.28677 0
M  V30 16600 H 1570.82 -0.148111 -4.3895 0
M  V30 16601 H 1571.43 -1.74092 -3.88036 0
M  V30 16602 N 1569.74 1.27735 -0.923117 0
M  V30 16603 C 1570.99 1.9457 -0.561149 0
M  V30 16604 C 1571.32 1.72591 0.896805 0
M  V30 16605 O 1570.57 1.04546 1.65434 0
M  V30 16606 C 1570.87 3.47677 -0.827959 0
M  V30 16607 C 1570.54 3.8977 -2.26693 0
M  V30 16608 C 1569.2 4.00973 -2.66033 0
M  V30 16609 C 1571.55 4.11173 -3.20291 0
M  V30 16610 C 1568.88 4.30963 -3.98105 0
M  V30 16611 C 1571.23 4.42645 -4.51938 0
M  V30 16612 C 1569.9 4.52061 -4.91119 0
M  V30 16613 H 1569.17 0.711981 -0.205339 0
M  V30 16614 H 1571.81 1.51894 -1.16621 0
M  V30 16615 H 1570.12 3.91549 -0.140178 0
M  V30 16616 H 1571.81 3.97523 -0.526932 0
M  V30 16617 H 1568.4 3.81584 -1.95171 0
M  V30 16618 H 1572.59 4.01962 -2.91102 0
M  V30 16619 H 1567.84 4.36461 -4.28149 0
M  V30 16620 H 1572.02 4.58153 -5.2447 0
M  V30 16621 H 1569.65 4.75053 -5.93488 0
M  V30 16622 N 1571.22 0.688118 1.41784 0
M  V30 16623 C 1572.17 0.00661035 2.32599 0
M  V30 16624 C 1573.16 -0.776475 1.50556 0
M  V30 16625 O 1574.37 -0.682937 1.66541 0
M  V30 16626 H 1570.74 -0.0166615 0.751815 0
M  V30 16627 H 1572.71 0.789718 2.8776 0
M  V30 16628 C 1571.46 -0.921251 3.35273 0
M  V30 16629 H 1570.79 -0.328099 3.98451 0
M  V30 16630 H 1572.23 -1.36655 4.01374 0
M  V30 16631 C 1570.69 -2.03393 2.68576 0
M  V30 16632 O 1571.22 -3.1219 2.52785 0
M  V30 16633 N 1569.42 -1.8095 2.27389 0
M  V30 16634 H 1568.97 -0.924692 2.40431 0
M  V30 16635 H 1568.93 -2.55584 1.83096 0
M  V30 16636 N 1572.7 -1.51554 0.432352 0
M  V30 16637 C 1573.61 -2.31371 -0.387885 0
M  V30 16638 C 1574.62 -1.40072 -1.03227 0
M  V30 16639 O 1575.8 -1.73145 -1.02873 0
M  V30 16640 C 1572.87 -3.13662 -1.47705 0
M  V30 16641 C 1571.93 -4.20734 -0.853315 0
M  V30 16642 C 1571.16 -4.99092 -1.89058 0
M  V30 16643 O 1571.38 -4.78022 -3.11209 0
M  V30 16644 O 1570.32 -5.83322 -1.48389 0
M  V30 16645 H 1574.14 -3.02554 0.263578 0
M  V30 16646 H 1571.73 -1.48122 0.195004 0
M  V30 16647 H 1573.61 -3.64837 -2.10884 0
M  V30 16648 H 1572.28 -2.45249 -2.11269 0
M  V30 16649 H 1571.19 -3.73649 -0.183616 0
M  V30 16650 H 1572.52 -4.91506 -0.261244 0
M  V30 16651 N 1574.18 -0.163538 -1.56749 0
M  V30 16652 C 1575.59 0.354516 -1.83303 0
M  V30 16653 C 1575.94 1.63601 -1.08301 0
M  V30 16654 O 1575.06 2.13814 -0.333546 0
M  V30 16655 C 1575.66 0.649983 -3.32507 0
M  V30 16656 C 1574.22 1.1125 -3.59584 0
M  V30 16657 C 1573.36 0.144257 -2.76925 0
M  V30 16658 H 1576.32 -0.387945 -1.53885 0
M  V30 16659 H 1576.34 1.5029 -3.49562 0
M  V30 16660 H 1575.85 -0.282886 -3.87068 0
M  V30 16661 H 1573.95 2.06074 -3.10426 0
M  V30 16662 H 1574.06 1.02704 -4.67962 0
M  V30 16663 H 1572.43 0.640116 -2.46525 0
M  V30 16664 H 1573.21 -0.782495 -3.34263 0
M  V30 16665 N 1575.65 1.57214 0.110213 0
M  V30 16666 C 1576.59 1.96198 1.1654 0
M  V30 16667 C 1577.57 0.832925 1.39646 0
M  V30 16668 O 1578.75 1.09188 1.53656 0
M  V30 16669 C 1575.88 2.26576 2.51756 0
M  V30 16670 C 1574.92 3.49093 2.45023 0
M  V30 16671 S 1575.76 5.01363 1.88136 0
M  V30 16672 C 1576.91 5.34903 3.25007 0
M  V30 16673 H 1577.14 2.85392 0.832996 0
M  V30 16674 H 1574.68 1.51104 0.317314 0
M  V30 16675 H 1576.64 2.44756 3.29552 0
M  V30 16676 H 1575.3 1.37981 2.8217 0
M  V30 16677 H 1574.49 3.67743 3.44647 0
M  V30 16678 H 1574.09 3.30346 1.7535 0
M  V30 16679 H 1576.38 5.30623 4.21243 0
M  V30 16680 H 1577.33 6.36062 3.11176 0
M  V30 16681 H 1577.73 4.62371 3.23841 0
M  V30 16682 N 1577.13 -0.380637 1.52934 0
M  V30 16683 C 1578.36 -1.14417 1.72024 0
M  V30 16684 C 1578.77 -1.83962 0.442128 0
M  V30 16685 O 1578.11 -1.73839 -0.593766 0
M  V30 16686 C 1578.18 -2.22944 2.82022 0
M  V30 16687 C 1577.84 -1.73295 4.22869 0
M  V30 16688 C 1578.84 -1.20515 5.05739 0
M  V30 16689 C 1576.52 -1.79264 4.69222 0
M  V30 16690 C 1578.52 -0.743632 6.33047 0
M  V30 16691 C 1576.2 -1.32724 5.96513 0
M  V30 16692 C 1577.2 -0.803615 6.78256 0
M  V30 16693 O 1576.89 -0.34503 8.03159 0
M  V30 16694 H 1576.62 -0.348676 0.579138 0
M  V30 16695 H 1579.17 -0.450113 2.00407 0
M  V30 16696 H 1577.4 -2.95798 2.49079 0
M  V30 16697 H 1579.09 -2.84575 2.89434 0
M  V30 16698 H 1579.86 -1.15254 4.71107 0
M  V30 16699 H 1575.74 -2.18962 4.0568 0
M  V30 16700 H 1579.28 -0.334251 6.96799 0
M  V30 16701 H 1575.18 -1.37673 6.30648 0
M  V30 16702 H 1575.95 -0.465743 8.17174 0
M  V30 16703 N 1578.61 -1.44039 -0.639573 0
M  V30 16704 C 1579.54 -1.53073 -1.76327 0
M  V30 16705 C 1580.52 -0.384344 -1.65701 0
M  V30 16706 O 1581.71 -0.603362 -1.84589 0
M  V30 16707 C 1578.84 -1.46646 -3.14821 0
M  V30 16708 C 1577.79 -2.59673 -3.40226 0
M  V30 16709 C 1577.12 -2.38298 -4.78663 0
M  V30 16710 C 1578.42 -4.01864 -3.33621 0
M  V30 16711 H 1580.11 -2.47126 -1.69023 0
M  V30 16712 H 1577.66 -1.1894 -0.811749 0
M  V30 16713 H 1579.61 -1.51567 -3.93199 0
M  V30 16714 H 1578.33 -0.491035 -3.22888 0
M  V30 16715 H 1576.99 -2.54127 -2.64225 0
M  V30 16716 H 1576.64 -1.38968 -4.83422 0
M  V30 16717 H 1576.34 -3.14074 -4.9662 0
M  V30 16718 H 1577.86 -2.45025 -5.59281 0
M  V30 16719 H 1579.28 -4.08824 -4.01915 0
M  V30 16720 H 1577.68 -4.77775 -3.63113 0
M  V30 16721 H 1578.75 -4.26033 -2.31569 0
M  V30 16722 N 1580.09 0.879207 -1.30796 0
M  V30 16723 C 1581.05 1.96707 -1.17639 0
M  V30 16724 C 1582.05 1.6045 -0.106013 0
M  V30 16725 O 1583.24 1.70553 -0.354573 0
M  V30 16726 C 1580.37 3.31292 -0.803625 0
M  V30 16727 H 1581.57 2.09806 -2.14293 0
M  V30 16728 H 1579.12 1.06634 -1.14276 0
M  V30 16729 H 1579.85 3.23894 0.162159 0
M  V30 16730 H 1579.64 3.58979 -1.57723 0
M  V30 16731 H 1581.13 4.11077 -0.735201 0
M  V30 16732 N 1581.57 1.13606 1.09231 0
M  V30 16733 C 1582.81 0.910333 1.81891 0
M  V30 16734 C 1583.17 -0.557482 1.84146 0
M  V30 16735 O 1582.46 -1.40735 1.30016 0
M  V30 16736 C 1582.66 1.43456 3.27345 0
M  V30 16737 C 1582.48 2.95182 3.39261 0
M  V30 16738 C 1581.25 3.63546 3.50945 0
M  V30 16739 C 1583.45 3.93105 3.31621 0
M  V30 16740 N 1581.43 5.03265 3.51564 0
M  V30 16741 C 1582.81 5.19026 3.39133 0
M  V30 16742 C 1584.86 3.85343 3.15302 0
M  V30 16743 C 1583.56 6.38094 3.32007 0
M  V30 16744 C 1585.59 5.03947 3.09502 0
M  V30 16745 C 1584.95 6.28733 3.17608 0
M  V30 16746 H 1581.05 0.386545 0.679785 0
M  V30 16747 H 1583.63 1.44465 1.30529 0
M  V30 16748 H 1581.81 0.927132 3.77172 0
M  V30 16749 H 1583.54 1.14962 3.88028 0
M  V30 16750 H 1580.29 3.14072 3.54479 0
M  V30 16751 H 1580.72 5.76179 3.55453 0
M  V30 16752 H 1585.36 2.8975 3.07904 0
M  V30 16753 H 1583.08 7.3394 3.38168 0
M  V30 16754 H 1586.66 4.99683 2.98008 0
M  V30 16755 H 1585.54 7.18967 3.13139 0
M  V30 16756 N 1583.05 -1.27244 0.929878 0
M  V30 16757 C 1583.98 -2.29161 0.448066 0
M  V30 16758 C 1584.96 -1.62806 -0.492776 0
M  V30 16759 O 1586.14 -1.90098 -0.39706 0
M  V30 16760 C 1583.27 -3.46019 -0.298002 0
M  V30 16761 C 1582.23 -4.24384 0.555211 0
M  V30 16762 C 1581.55 -5.33741 -0.320153 0
M  V30 16763 C 1582.85 -4.89535 1.8208 0
M  V30 16764 H 1584.55 -2.69712 1.29983 0
M  V30 16765 H 1582.09 -1.29659 0.626466 0
M  V30 16766 H 1584.04 -4.16419 -0.646024 0
M  V30 16767 H 1582.77 -3.0439 -1.18381 0
M  V30 16768 H 1581.43 -3.55733 0.885971 0
M  V30 16769 H 1581.08 -4.88354 -1.20498 0
M  V30 16770 H 1580.78 -5.8708 0.247241 0
M  V30 16771 H 1582.3 -6.06982 -0.663697 0
M  V30 16772 H 1583.71 -5.52209 1.54071 0
M  V30 16773 H 1582.11 -5.52941 2.33186 0
M  V30 16774 H 1583.18 -4.13113 2.53901 0
M  V30 16775 N 1584.52 -0.695628 -1.41417 0
M  V30 16776 C 1585.77 -0.226171 -2.0083 0
M  V30 16777 C 1586.09 1.17833 -1.55371 0
M  V30 16778 O 1585.36 1.79512 -0.784362 0
M  V30 16779 H 1583.94 -0.0806271 -0.742636 0
M  V30 16780 H 1586.6 -0.8968 -1.73042 0
M  V30 16781 H 1585.7 -0.243643 -3.11148 0
M  V30 16782 N 1586 1.51322 -0.440383 0
M  V30 16783 C 1587.23 2.06231 0.12347 0
M  V30 16784 C 1587.64 1.30754 1.36748 0
M  V30 16785 O 1586.98 0.36135 1.80111 0
M  V30 16786 C 1587.04 3.55892 0.508059 0
M  V30 16787 C 1586.71 4.52643 -0.629572 0
M  V30 16788 C 1587.71 4.97712 -1.50261 0
M  V30 16789 C 1585.39 4.95707 -0.81117 0
M  V30 16790 C 1587.38 5.84522 -2.54191 0
M  V30 16791 C 1585.07 5.82305 -1.85374 0
M  V30 16792 C 1586.07 6.26611 -2.7175 0
M  V30 16793 O 1585.76 7.11489 -3.74217 0
M  V30 16794 H 1585.49 0.675926 0.0100034 0
M  V30 16795 H 1588.04 1.95846 -0.619156 0
M  V30 16796 H 1586.27 3.64071 1.30343 0
M  V30 16797 H 1587.96 3.93302 1.00342 0
M  V30 16798 H 1588.73 4.65135 -1.37386 0
M  V30 16799 H 1584.61 4.60761 -0.148423 0
M  V30 16800 H 1588.15 6.19025 -3.21643 0
M  V30 16801 H 1584.05 6.14296 -1.98268 0
M  V30 16802 H 1584.82 7.29674 -3.70834 0
M  V30 16803 N 1587.48 0.171848 1.5666 0
M  V30 16804 C 1588.73 -0.472034 1.9651 0
M  V30 16805 C 1589.05 -1.63743 1.05893 0
M  V30 16806 O 1588.32 -1.95498 0.125396 0
M  V30 16807 H 1586.9 -0.177377 0.725635 0
M  V30 16808 H 1589.56 0.253155 1.93249 0
M  V30 16809 H 1588.66 -0.831693 3.00814 0
M  V30 16810 N 1588.96 -1.5727 -0.101874 0
M  V30 16811 C 1590.18 -1.90319 -0.824215 0
M  V30 16812 C 1590.61 -0.765469 -1.7182 0
M  V30 16813 O 1589.97 0.283275 -1.79073 0
M  V30 16814 C 1590.01 -3.22201 -1.61922 0
M  V30 16815 O 1589.12 -3.09313 -2.72762 0
M  V30 16816 H 1588.46 -0.624042 -0.226864 0
M  V30 16817 H 1590.99 -2.04447 -0.0791314 0
M  V30 16818 H 1591 -3.55343 -2.00487 0
M  V30 16819 H 1589.67 -4.04596 -0.963078 0
M  V30 16820 H 1588.25 -2.87672 -2.37274 0
M  V30 16821 N 1590.44 0.372521 -1.53134 0
M  V30 16822 C 1591.68 1.11368 -1.68646 0
M  V30 16823 C 1592 1.90034 -0.437275 0
M  V30 16824 O 1591.27 1.88062 0.548593 0
M  V30 16825 H 1589.85 0.414129 -0.621696 0
M  V30 16826 H 1592.52 0.42082 -1.90303 0
M  V30 16827 H 1591.61 1.80738 -2.54441 0
M  V30 16828 N 1591.91 1.44376 0.631925 0
M  V30 16829 C 1592.82 1.5367 1.77264 0
M  V30 16830 C 1593.84 0.422425 1.68794 0
M  V30 16831 O 1595.02 0.679656 1.89585 0
M  V30 16832 C 1592.08 1.47743 3.13644 0
M  V30 16833 C 1591.14 2.70015 3.33752 0
M  V30 16834 C 1590.37 2.64362 4.63626 0
M  V30 16835 O 1590.6 1.7032 5.44378 0
M  V30 16836 O 1589.53 3.55201 4.85918 0
M  V30 16837 H 1593.36 2.5004 1.72376 0
M  V30 16838 H 1590.94 1.26614 0.793052 0
M  V30 16839 H 1592.82 1.46958 3.94945 0
M  V30 16840 H 1591.5 0.545165 3.19076 0
M  V30 16841 H 1590.41 2.76369 2.52133 0
M  V30 16842 H 1591.74 3.62286 3.33181 0
M  V30 16843 N 1593.39 -0.872258 1.31261 0
M  V30 16844 C 1594.64 -1.62511 1.20815 0
M  V30 16845 C 1594.97 -1.93084 -0.234231 0
M  V30 16846 O 1594.22 -1.55945 -1.18236 0
M  V30 16847 C 1594.52 -2.96524 1.9952 0
M  V30 16848 C 1594.19 -2.85453 3.49038 0
M  V30 16849 C 1592.85 -2.8214 3.89808 0
M  V30 16850 C 1595.2 -2.72654 4.44195 0
M  V30 16851 C 1592.53 -2.63885 5.24005 0
M  V30 16852 C 1594.88 -2.55936 5.78515 0
M  V30 16853 C 1593.54 -2.51005 6.18508 0
M  V30 16854 H 1592.81 -0.594672 0.442093 0
M  V30 16855 H 1595.46 -1.01319 1.62501 0
M  V30 16856 H 1593.77 -3.61739 1.50507 0
M  V30 16857 H 1595.46 -3.53763 1.8882 0
M  V30 16858 H 1592.05 -2.88847 3.16647 0
M  V30 16859 H 1596.24 -2.7427 4.1363 0
M  V30 16860 H 1591.49 -2.58491 5.54069 0
M  V30 16861 H 1595.67 -2.45009 6.51877 0
M  V30 16862 H 1593.29 -2.36619 7.22437 0
M  V30 16863 N 1594.87 -1.14184 -1.08627 0
M  V30 16864 C 1596.28 -0.920108 -1.62453 0
M  V30 16865 C 1596.63 0.541577 -1.88577 0
M  V30 16866 O 1595.76 1.41002 -1.64157 0
M  V30 16867 C 1596.35 -1.6638 -2.95132 0
M  V30 16868 C 1594.91 -1.48771 -3.45752 0
M  V30 16869 C 1594.06 -1.68774 -2.20024 0
M  V30 16870 H 1597.01 -1.29396 -0.91882 0
M  V30 16871 H 1597.03 -1.12568 -3.63468 0
M  V30 16872 H 1596.54 -2.72759 -2.76087 0
M  V30 16873 H 1594.64 -0.44729 -3.69905 0
M  V30 16874 H 1594.76 -2.25619 -4.2265 0
M  V30 16875 H 1593.12 -1.11321 -2.29084 0
M  V30 16876 H 1593.9 -2.76491 -2.03489 0
M  V30 16877 N 1596.35 1.26749 -0.936613 0
M  V30 16878 C 1597.76 1.75925 -0.62507 0
M  V30 16879 C 1598.11 1.76359 0.859771 0
M  V30 16880 O 1597.24 1.37277 1.67284 0
M  V30 16881 C 1597.83 3.19474 -1.12791 0
M  V30 16882 C 1596.39 3.66282 -0.866872 0
M  V30 16883 C 1595.54 2.45913 -1.28148 0
M  V30 16884 H 1598.49 1.1289 -1.11542 0
M  V30 16885 H 1598.51 3.77465 -0.479643 0
M  V30 16886 H 1598.02 3.19126 -2.20862 0
M  V30 16887 H 1596.12 3.72065 0.199647 0
M  V30 16888 H 1596.23 4.55319 -1.49067 0
M  V30 16889 H 1594.6 2.44894 -0.699941 0
M  V30 16890 H 1595.38 2.4827 -2.37101 0
M  V30 16891 N 1597.83 0.703118 1.41046 0
M  V30 16892 C 1599.07 0.236818 2.00708 0
M  V30 16893 C 1599.4 -1.17008 1.55994 0
M  V30 16894 O 1598.67 -1.79094 0.793871 0
M  V30 16895 H 1597.25 0.0845643 0.742198 0
M  V30 16896 H 1599.91 0.905964 1.72564 0
M  V30 16897 H 1599 0.260141 3.11014 0
M  V30 16898 N 1599.3 -1.51086 0.448402 0
M  V30 16899 C 1600.55 -2.02476 -0.114511 0
M  V30 16900 C 1600.88 -1.33126 -1.4139 0
M  V30 16901 O 1600.16 -0.449665 -1.89231 0
M  V30 16902 C 1600.44 -3.58659 -0.321842 0
M  V30 16903 C 1600.29 -4.38612 0.996975 0
M  V30 16904 C 1601.61 -4.26473 -1.08667 0
M  V30 16905 H 1598.73 -0.735906 -0.0401431 0
M  V30 16906 H 1601.37 -1.80622 0.589563 0
M  V30 16907 H 1599.52 -3.77411 -0.92157 0
M  V30 16908 H 1601.2 -4.31484 1.63154 0
M  V30 16909 H 1599.44 -4.03255 1.599 0
M  V30 16910 H 1600.11 -5.46087 0.805817 0
M  V30 16911 H 1602.59 -4.12058 -0.578559 0
M  V30 16912 H 1601.46 -5.35611 -1.20051 0
M  V30 16913 H 1601.72 -3.88086 -2.11758 0
M  V30 16914 N 1600.78 -0.180154 -1.56567 0
M  V30 16915 C 1601.73 0.746666 -2.18389 0
M  V30 16916 C 1602.7 1.22058 -1.12655 0
M  V30 16917 O 1603.88 1.28716 -1.40843 0
M  V30 16918 C 1601.02 1.96688 -2.83563 0
M  V30 16919 C 1600.14 1.53572 -4.03782 0
M  V30 16920 C 1599.27 2.71028 -4.56856 0
M  V30 16921 C 1598.31 2.24445 -5.69465 0
M  V30 16922 N 1597.45 3.35026 -6.17011 0
M  V30 16923 H 1602.29 0.212707 -2.9724 0
M  V30 16924 H 1599.83 0.093256 -1.46804 0
M  V30 16925 H 1601.78 2.68269 -3.19511 0
M  V30 16926 H 1600.41 2.4744 -2.073 0
M  V30 16927 H 1599.47 0.716323 -3.73595 0
M  V30 16928 H 1600.78 1.15385 -4.85271 0
M  V30 16929 H 1599.93 3.50753 -4.95032 0
M  V30 16930 H 1598.67 3.1248 -3.74443 0
M  V30 16931 H 1597.68 1.43169 -5.30832 0
M  V30 16932 H 1598.9 1.84041 -6.53686 0
M  V30 16933 H 1596.85 3.76037 -5.37524 0
M  V30 16934 H 1596.76 3.0096 -6.93512 0
M  V30 16935 H 1598.03 4.15009 -6.59839 0
M  V30 16936 N 1602.26 1.57322 0.0935319 0
M  V30 16937 C 1603.54 1.77187 0.828503 0
M  V30 16938 C 1603.92 0.762216 1.96859 0
M  V30 16939 O 1603.27 -0.208982 2.27542 0
M  V30 16940 C 1603.48 3.23007 1.32163 0
M  V30 16941 C 1604.82 3.86233 1.76379 0
M  V30 16942 O 1605.85 3.26766 1.41783 0
M  V30 16943 O 1604.71 4.90808 2.40354 0
M  V30 16944 H 1601.8 0.726401 0.395311 0
M  V30 16945 H 1604.35 1.69533 0.0752924 0
M  V30 16946 H 1603.12 3.88029 0.504863 0
M  V30 16947 H 1602.74 3.353 2.13681 0
M  V30 16948 N 1603.74 -0.364395 1.53329 0
M  V30 16949 C 1605.15 -0.941133 1.61244 0
M  V30 16950 C 1605.5 -1.90223 0.480596 0
M  V30 16951 O 1604.63 -2.12805 -0.392805 0
M  V30 16952 C 1605.22 -1.7137 2.92263 0
M  V30 16953 C 1603.78 -2.23976 3.02509 0
M  V30 16954 C 1602.93 -1.05253 2.56548 0
M  V30 16955 H 1605.88 -0.143153 1.58053 0
M  V30 16956 H 1605.9 -2.575 2.80132 0
M  V30 16957 H 1605.41 -1.01395 3.74621 0
M  V30 16958 H 1603.51 -2.9719 2.24741 0
M  V30 16959 H 1603.62 -2.51777 4.07609 0
M  V30 16960 H 1601.99 -1.41986 2.11452 0
M  V30 16961 H 1602.77 -0.367744 3.41325 0
M  V30 16962 N 1605.22 -1.44709 -0.62426 0
M  V30 16963 C 1606.46 -1.47561 -1.38094 0
M  V30 16964 C 1606.79 -0.112115 -1.94677 0
M  V30 16965 O 1606.06 0.856458 -1.76186 0
M  V30 16966 H 1604.64 -0.543368 -0.512601 0
M  V30 16967 H 1607.3 -1.8054 -0.734258 0
M  V30 16968 H 1606.39 -2.20496 -2.2088 0
M  V30 16969 N 1606.69 0.865285 -1.31722 0
M  V30 16970 C 1607.94 1.62098 -1.22865 0
M  V30 16971 C 1608.3 1.91249 0.210099 0
M  V30 16972 O 1607.59 1.53634 1.14487 0
M  V30 16973 C 1607.78 2.95462 -2.0109 0
M  V30 16974 C 1607.61 2.79333 -3.52425 0
M  V30 16975 C 1606.38 2.78273 -4.21773 0
M  V30 16976 C 1608.58 2.53854 -4.47284 0
M  V30 16977 N 1606.56 2.53243 -5.59233 0
M  V30 16978 C 1607.93 2.38131 -5.72445 0
M  V30 16979 C 1609.99 2.39236 -4.36658 0
M  V30 16980 C 1608.69 2.09276 -6.88183 0
M  V30 16981 C 1610.72 2.1177 -5.52184 0
M  V30 16982 C 1610.08 1.96839 -6.76338 0
M  V30 16983 H 1606.18 0.597308 -0.504724 0
M  V30 16984 H 1608.76 1.01803 -1.65965 0
M  V30 16985 H 1606.93 3.53754 -1.60352 0
M  V30 16986 H 1608.66 3.60343 -1.84214 0
M  V30 16987 H 1605.42 2.90826 -3.73788 0
M  V30 16988 H 1605.84 2.43686 -6.31622 0
M  V30 16989 H 1610.49 2.49505 -3.41331 0
M  V30 16990 H 1608.2 1.97745 -7.83532 0
M  V30 16991 H 1611.79 2.01253 -5.45883 0
M  V30 16992 H 1610.67 1.75888 -7.64221 0
M  V30 16993 N 1608.17 1.14759 1.0802 0
M  V30 16994 C 1609.14 0.840859 2.13219 0
M  V30 16995 C 1610.14 -0.156309 1.60038 0
M  V30 16996 O 1611.33 0.0725143 1.74049 0
M  V30 16997 C 1608.46 0.254208 3.39951 0
M  V30 16998 H 1609.65 1.77323 2.4186 0
M  V30 16999 H 1607.2 0.954146 1.23797 0
M  V30 17000 H 1607.94 -0.686692 3.16946 0
M  V30 17001 H 1607.72 0.972499 3.79848 0
M  V30 17002 H 1609.21 0.0569551 4.17561 0
M  V30 17003 N 1609.65 -1.26251 0.943322 0
M  V30 17004 C 1611.06 -1.75591 0.634391 0
M  V30 17005 C 1611.41 -1.76812 -0.850406 0
M  V30 17006 O 1610.54 -1.38162 -1.66554 0
M  V30 17007 C 1611.13 -3.18871 1.14484 0
M  V30 17008 C 1609.69 -3.65817 0.886285 0
M  V30 17009 C 1608.84 -2.4523 1.2945 0
M  V30 17010 H 1611.79 -1.12297 1.12139 0
M  V30 17011 H 1611.81 -3.77205 0.499654 0
M  V30 17012 H 1611.32 -3.17951 2.22551 0
M  V30 17013 H 1609.42 -3.72165 -0.179913 0
M  V30 17014 H 1609.54 -4.54523 1.5148 0
M  V30 17015 H 1607.9 -2.44519 0.712919 0
M  V30 17016 H 1608.68 -2.47009 2.38415 0
M  V30 17017 N 1611.13 -0.710588 -1.40671 0
M  V30 17018 C 1612.36 -0.257069 -2.04994 0
M  V30 17019 C 1612.77 1.10431 -1.53628 0
M  V30 17020 O 1612.11 1.70422 -0.685726 0
M  V30 17021 C 1612.17 -0.153646 -3.59172 0
M  V30 17022 C 1611.84 -1.4495 -4.33403 0
M  V30 17023 C 1612.83 -2.39042 -4.61687 0
M  V30 17024 C 1610.52 -1.70704 -4.72404 0
M  V30 17025 C 1612.51 -3.57137 -5.27951 0
M  V30 17026 C 1610.2 -2.89082 -5.384 0
M  V30 17027 C 1611.2 -3.82121 -5.66103 0
M  V30 17028 O 1610.89 -4.98424 -6.30737 0
M  V30 17029 H 1610.62 -0.114202 -0.666284 0
M  V30 17030 H 1613.17 -0.968028 -1.81158 0
M  V30 17031 H 1611.4 0.613213 -3.81807 0
M  V30 17032 H 1613.09 0.264655 -4.05036 0
M  V30 17033 H 1613.86 -2.20407 -4.32025 0
M  V30 17034 H 1609.74 -0.99142 -4.50213 0
M  V30 17035 H 1613.28 -4.29775 -5.4949 0
M  V30 17036 H 1609.18 -3.07627 -5.67482 0
M  V30 17037 H 1609.94 -4.98436 -6.49233 0
M  V30 17038 N 1612.61 1.50847 -0.456408 0
M  V30 17039 C 1614.02 1.59222 -0.109731 0
M  V30 17040 C 1614.22 1.46582 1.3826 0
M  V30 17041 O 1613.28 1.31678 2.15446 0
M  V30 17042 C 1614.59 2.9366 -0.646846 0
M  V30 17043 C 1616.14 3.07019 -0.60897 0
M  V30 17044 C 1616.62 4.44009 -1.12338 0
M  V30 17045 N 1618.11 4.50381 -1.08217 0
M  V30 17046 C 1618.84 5.54741 -1.45086 0
M  V30 17047 N 1618.34 6.66427 -1.89333 0
M  V30 17048 N 1620.13 5.45204 -1.36782 0
M  V30 17049 H 1612.28 1.57307 -1.42717 0
M  V30 17050 H 1614.54 0.742587 -0.589295 0
M  V30 17051 H 1614.25 3.0834 -1.69172 0
M  V30 17052 H 1614.12 3.7711 -0.0822535 0
M  V30 17053 H 1616.51 2.91995 0.426958 0
M  V30 17054 H 1616.59 2.25362 -1.21019 0
M  V30 17055 H 1616.24 4.59781 -2.15787 0
M  V30 17056 H 1616.17 5.24235 -0.498512 0
M  V30 17057 H 1618.66 3.70231 -0.757467 0
M  V30 17058 H 1618.97 7.42101 -2.15652 0
M  V30 17059 H 1617.32 6.67585 -1.93275 0
M  V30 17060 H 1620.51 4.56837 -1.02066 0
M  V30 17061 H 1620.68 6.26419 -1.65842 0
M  V30 17062 N 1614.09 0.188454 1.56469 0
M  V30 17063 C 1615.33 -0.452238 1.96565 0
M  V30 17064 C 1615.65 -1.63219 1.07792 0
M  V30 17065 O 1616.85 -2.34024 1.37641 0
M  V30 17066 C 1615.31 -0.855966 3.49573 0
M  V30 17067 C 1614.92 0.299329 4.46999 0
M  V30 17068 C 1616.66 -1.46411 3.98452 0
M  V30 17069 C 1614.57 -0.124987 5.91268 0
M  V30 17070 H 1613.5 -0.172729 0.733949 0
M  V30 17071 H 1616.15 0.279415 1.8136 0
M  V30 17072 H 1614.53 -1.64409 3.60258 0
M  V30 17073 H 1615.71 1.07681 4.48042 0
M  V30 17074 H 1614.02 0.818542 4.08275 0
M  V30 17075 H 1616.62 -1.79392 5.03709 0
M  V30 17076 H 1616.96 -2.36822 3.42376 0
M  V30 17077 H 1617.49 -0.740088 3.90855 0
M  V30 17078 H 1614.23 0.744769 6.51255 0
M  V30 17079 H 1613.75 -0.86747 5.93494 0
M  V30 17080 H 1615.43 -0.563054 6.44545 0
M  V30 17081 N 1615.56 -1.5737 -0.0851874 0
M  V30 17082 C 1616.53 -2.01789 -1.08692 0
M  V30 17083 C 1617.53 -0.912872 -1.32376 0
M  V30 17084 O 1618.72 -1.1781 -1.28322 0
M  V30 17085 C 1615.85 -2.38708 -2.43375 0
M  V30 17086 H 1617.04 -2.91511 -0.704359 0
M  V30 17087 H 1614.59 -1.52765 -0.330528 0
M  V30 17088 H 1615.33 -1.5197 -2.86488 0
M  V30 17089 H 1615.11 -3.19331 -2.2753 0
M  V30 17090 H 1616.6 -2.73697 -3.15404 0
M  V30 17091 N 1617.04 0.356258 -1.53521 0
M  V30 17092 C 1617.99 1.43723 -1.76996 0
M  V30 17093 C 1618.98 1.48275 -0.624756 0
M  V30 17094 O 1620.17 1.53359 -0.883734 0
M  V30 17095 C 1617.3 2.81036 -1.97164 0
M  V30 17096 C 1616.38 2.80925 -3.17713 0
M  V30 17097 N 1616.77 2.50454 -4.39439 0
M  V30 17098 C 1615.07 3.12081 -3.18625 0
M  V30 17099 C 1615.77 2.58257 -5.21228 0
M  V30 17100 N 1614.75 2.93354 -4.57651 0
M  V30 17101 H 1618.55 1.19041 -2.68712 0
M  V30 17102 H 1616.06 0.564522 -1.52272 0
M  V30 17103 H 1618.06 3.58906 -2.12113 0
M  V30 17104 H 1616.72 3.06674 -1.06682 0
M  V30 17105 H 1617.73 2.23879 -4.6701 0
M  V30 17106 H 1614.41 3.42973 -2.38067 0
M  V30 17107 H 1615.8 2.37965 -6.28349 0
M  V30 17108 N 1618.52 1.45038 0.616577 0
M  V30 17109 C 1619.48 1.52647 1.70973 0
M  V30 17110 C 1620.48 0.406902 1.55567 0
M  V30 17111 O 1621.67 0.670062 1.60797 0
M  V30 17112 C 1618.8 1.41438 3.10174 0
M  V30 17113 H 1620 2.50036 1.65596 0
M  V30 17114 H 1617.55 1.32346 0.831524 0
M  V30 17115 H 1618.29 0.451991 3.21135 0
M  V30 17116 H 1618.07 2.22634 3.22764 0
M  V30 17117 H 1619.56 1.49776 3.89817 0
M  V30 17118 N 1620 -0.858287 1.32179 0
M  V30 17119 C 1621.24 -1.6146 1.22713 0
M  V30 17120 C 1621.58 -1.93045 -0.211479 0
M  V30 17121 O 1620.85 -1.57034 -1.14764 0
M  V30 17122 C 1621.13 -2.93728 2.08317 0
M  V30 17123 C 1620.99 -2.68947 3.60538 0
M  V30 17124 C 1622.31 -3.94959 1.94153 0
M  V30 17125 H 1619.43 -0.585872 0.447128 0
M  V30 17126 H 1622.07 -0.99134 1.62088 0
M  V30 17127 H 1620.22 -3.4692 1.74867 0
M  V30 17128 H 1621.89 -2.22336 4.04183 0
M  V30 17129 H 1620.13 -2.02974 3.83385 0
M  V30 17130 H 1620.8 -3.63112 4.15756 0
M  V30 17131 H 1623.28 -3.51013 2.23449 0
M  V30 17132 H 1622.16 -4.85371 2.56332 0
M  V30 17133 H 1622.42 -4.32672 0.908132 0
M  V30 17134 N 1621.48 -1.1533 -1.07409 0
M  V30 17135 C 1622.72 -0.922348 -1.79376 0
M  V30 17136 C 1623.04 0.551929 -1.87652 0
M  V30 17137 O 1624.24 0.900444 -2.56133 0
M  V30 17138 C 1622.7 -1.60081 -3.22339 0
M  V30 17139 C 1622.31 -3.11206 -3.22265 0
M  V30 17140 C 1624.05 -1.45138 -3.98917 0
M  V30 17141 C 1621.96 -3.71842 -4.59878 0
M  V30 17142 H 1620.89 -0.341438 -0.672262 0
M  V30 17143 H 1623.54 -1.38336 -1.20562 0
M  V30 17144 H 1621.92 -1.06748 -3.81341 0
M  V30 17145 H 1623.1 -3.7129 -2.72911 0
M  V30 17146 H 1621.41 -3.25903 -2.59183 0
M  V30 17147 H 1624.01 -1.87832 -5.00623 0
M  V30 17148 H 1624.35 -0.398796 -4.14385 0
M  V30 17149 H 1624.88 -1.95564 -3.46409 0
M  V30 17150 H 1621.62 -4.76998 -4.49614 0
M  V30 17151 H 1621.14 -3.16541 -5.09472 0
M  V30 17152 H 1622.82 -3.72733 -5.28847 0
M  V30 17153 N 1622.95 1.25748 -0.950004 0
M  V30 17154 C 1623.9 2.26061 -0.46531 0
M  V30 17155 C 1624.87 1.59021 0.479742 0
M  V30 17156 O 1626.06 1.86687 0.394011 0
M  V30 17157 C 1623.2 3.44156 0.255146 0
M  V30 17158 C 1622.31 4.25846 -0.726604 0
M  V30 17159 C 1621.44 5.31198 0.0159429 0
M  V30 17160 C 1620.48 6.04572 -0.957046 0
M  V30 17161 N 1619.62 7.0167 -0.245676 0
M  V30 17162 H 1624.46 2.66891 -1.32563 0
M  V30 17163 H 1622 1.31216 -0.664882 0
M  V30 17164 H 1623.95 4.11465 0.689381 0
M  V30 17165 H 1622.58 3.04213 1.07954 0
M  V30 17166 H 1621.64 3.58242 -1.27933 0
M  V30 17167 H 1622.95 4.76669 -1.46928 0
M  V30 17168 H 1622.1 6.04561 0.509037 0
M  V30 17169 H 1620.84 4.81235 0.791442 0
M  V30 17170 H 1619.85 5.30028 -1.46118 0
M  V30 17171 H 1621.07 6.56624 -1.7327 0
M  V30 17172 H 1619.02 6.54005 0.51117 0
M  V30 17173 H 1618.93 7.50289 -0.927527 0
M  V30 17174 H 1620.2 7.79172 0.226034 0
M  V30 17175 N 1624.43 0.718038 1.40292 0
M  V30 17176 C 1625.39 0.0757483 2.29075 0
M  V30 17177 C 1626.39 -0.684831 1.45488 0
M  V30 17178 O 1627.58 -0.516369 1.66371 0
M  V30 17179 C 1624.72 -0.902534 3.28736 0
M  V30 17180 H 1625.91 0.857729 2.87373 0
M  V30 17181 H 1623.46 0.482839 1.48655 0
M  V30 17182 H 1624.2 -1.71148 2.75461 0
M  V30 17183 H 1623.98 -0.360009 3.90444 0
M  V30 17184 H 1625.47 -1.34903 3.9521 0
M  V30 17185 N 1625.91 -1.50602 0.464402 0
M  V30 17186 C 1626.86 -2.25271 -0.351736 0
M  V30 17187 C 1627.84 -1.28586 -0.967185 0
M  V30 17188 O 1629.04 -1.53526 -0.880843 0
M  V30 17189 C 1626.17 -3.11777 -1.43701 0
M  V30 17190 C 1625.25 -4.15906 -0.82962 0
M  V30 17191 N 1625.64 -5.05779 0.0460845 0
M  V30 17192 C 1623.94 -4.32367 -1.0943 0
M  V30 17193 C 1624.64 -5.80391 0.390094 0
M  V30 17194 N 1623.62 -5.431 -0.233071 0
M  V30 17195 H 1627.42 -2.9212 0.322964 0
M  V30 17196 H 1624.93 -1.60001 0.278131 0
M  V30 17197 H 1626.93 -3.6387 -2.03481 0
M  V30 17198 H 1625.59 -2.46475 -2.11377 0
M  V30 17199 H 1626.6 -5.16239 0.414453 0
M  V30 17200 H 1623.28 -3.78285 -1.76654 0
M  V30 17201 H 1624.67 -6.62762 1.10435 0
M  V30 17202 N 1627.39 -0.19675 -1.56367 0
M  V30 17203 C 1628.35 0.709734 -2.17934 0
M  V30 17204 C 1629.35 1.13979 -1.13426 0
M  V30 17205 O 1630.54 1.05261 -1.38801 0
M  V30 17206 C 1627.67 1.96917 -2.78274 0
M  V30 17207 H 1628.87 0.173342 -2.99399 0
M  V30 17208 H 1626.42 0.0528698 -1.56211 0
M  V30 17209 H 1627.15 2.54804 -2.00613 0
M  V30 17210 H 1626.94 1.66951 -3.54781 0
M  V30 17211 H 1628.43 2.61554 -3.25545 0
M  V30 17212 N 1628.87 1.57413 0.0768405 0
M  V30 17213 C 1630.28 1.53656 0.431508 0
M  V30 17214 C 1630.48 0.916194 1.79466 0
M  V30 17215 O 1629.54 0.516529 2.4716 0
M  V30 17216 C 1630.85 2.98325 0.377212 0
M  V30 17217 C 1632.4 3.09635 0.457761 0
M  V30 17218 C 1632.87 4.55945 0.433425 0
M  V30 17219 N 1634.37 4.60562 0.493647 0
M  V30 17220 C 1635.1 5.71242 0.496949 0
M  V30 17221 N 1634.6 6.91302 0.455368 0
M  V30 17222 N 1636.39 5.5947 0.543129 0
M  V30 17223 H 1628.54 1.96108 -0.815811 0
M  V30 17224 H 1630.8 0.897392 -0.3056 0
M  V30 17225 H 1630.51 3.47251 -0.557628 0
M  V30 17226 H 1630.38 3.57959 1.18932 0
M  V30 17227 H 1632.77 2.60685 1.38302 0
M  V30 17228 H 1632.85 2.52919 -0.382829 0
M  V30 17229 H 1632.5 5.0555 -0.487968 0
M  V30 17230 H 1632.43 5.10518 1.29148 0
M  V30 17231 H 1634.92 3.74162 0.530237 0
M  V30 17232 H 1635.23 7.7142 0.461674 0
M  V30 17233 H 1633.57 6.93717 0.422133 0
M  V30 17234 H 1636.77 4.64576 0.573272 0
M  V30 17235 H 1636.94 6.45727 0.542234 0
M  V30 17236 N 1630.34 -0.348112 1.53707 0
M  V30 17237 C 1631.59 -1.09048 1.70987 0
M  V30 17238 C 1631.92 -1.88444 0.469305 0
M  V30 17239 O 1631.2 -1.87037 -0.533629 0
M  V30 17240 C 1631.48 -2.03542 2.97057 0
M  V30 17241 C 1631.33 -1.27638 4.3131 0
M  V30 17242 C 1632.65 -3.03424 3.18782 0
M  V30 17243 H 1629.77 -0.395049 0.622178 0
M  V30 17244 H 1632.41 -0.369498 1.86373 0
M  V30 17245 H 1630.56 -2.65021 2.8407 0
M  V30 17246 H 1632.24 -0.688079 4.56139 0
M  V30 17247 H 1630.48 -0.578349 4.29927 0
M  V30 17248 H 1631.15 -1.96891 5.15692 0
M  V30 17249 H 1633.63 -2.52056 3.31069 0
M  V30 17250 H 1632.5 -3.66748 4.08396 0
M  V30 17251 H 1632.76 -3.74553 2.34866 0
M  V30 17252 N 1631.82 -1.45363 -0.608876 0
M  V30 17253 C 1633.05 -1.52614 -1.39257 0
M  V30 17254 C 1633.46 -0.157106 -1.88547 0
M  V30 17255 O 1632.8 0.851329 -1.62782 0
M  V30 17256 C 1632.87 -2.44821 -2.63255 0
M  V30 17257 C 1632.53 -3.91582 -2.35612 0
M  V30 17258 C 1633.53 -4.81517 -1.96054 0
M  V30 17259 C 1631.21 -4.36488 -2.48564 0
M  V30 17260 C 1633.21 -6.14365 -1.69808 0
M  V30 17261 C 1630.89 -5.69377 -2.21931 0
M  V30 17262 C 1631.89 -6.58135 -1.82614 0
M  V30 17263 O 1631.58 -7.88561 -1.56292 0
M  V30 17264 H 1631.31 -0.51935 -0.432726 0
M  V30 17265 H 1633.86 -1.91227 -0.749768 0
M  V30 17266 H 1632.09 -2.01177 -3.30249 0
M  V30 17267 H 1633.78 -2.4277 -3.25296 0
M  V30 17268 H 1634.55 -4.48088 -1.85585 0
M  V30 17269 H 1630.43 -3.67646 -2.78133 0
M  V30 17270 H 1633.97 -6.83602 -1.39045 0
M  V30 17271 H 1629.87 -6.02361 -2.32016 0
M  V30 17272 H 1630.64 -8.00576 -1.70355 0
M  V30 17273 N 1633.3 0.851265 -1.32632 0
M  V30 17274 C 1634.25 1.94828 -1.18431 0
M  V30 17275 C 1635.23 1.60646 -0.090361 0
M  V30 17276 O 1636.43 1.74134 -0.317212 0
M  V30 17277 C 1633.56 3.30937 -0.913006 0
M  V30 17278 C 1632.64 3.71328 -2.04882 0
M  V30 17279 N 1633.03 3.83517 -3.2977 0
M  V30 17280 C 1631.33 4.00979 -1.95274 0
M  V30 17281 C 1632.03 4.18341 -4.04185 0
M  V30 17282 N 1631.01 4.30043 -3.32512 0
M  V30 17283 H 1634.81 2.0239 -2.13109 0
M  V30 17284 H 1632.32 1.04323 -1.2446 0
M  V30 17285 H 1634.32 4.09304 -0.792221 0
M  V30 17286 H 1632.98 3.2469 0.0253611 0
M  V30 17287 H 1633.99 3.67749 -3.64666 0
M  V30 17288 H 1630.67 4.03015 -1.0902 0
M  V30 17289 H 1632.06 4.35213 -5.11898 0
M  V30 17290 N 1634.78 1.15898 1.06796 0
M  V30 17291 C 1636.01 0.961372 1.83208 0
M  V30 17292 C 1636.42 -0.490392 1.8232 0
M  V30 17293 O 1635.78 -1.34025 1.2387 0
M  V30 17294 C 1635.83 1.47486 3.30045 0
M  V30 17295 O 1635.55 2.86976 3.31023 0
M  V30 17296 C 1637.05 1.31955 4.23205 0
M  V30 17297 H 1634.27 0.34109 0.57784 0
M  V30 17298 H 1636.82 1.53805 1.34775 0
M  V30 17299 H 1634.97 0.940586 3.75808 0
M  V30 17300 H 1635.38 3.1038 4.22805 0
M  V30 17301 H 1636.86 1.72721 5.24282 0
M  V30 17302 H 1637.34 0.264439 4.38403 0
M  V30 17303 H 1637.94 1.84319 3.83284 0
M  V30 17304 N 1636.26 -1.25243 0.956659 0
M  V30 17305 C 1637.49 -1.96796 0.628878 0
M  V30 17306 C 1637.89 -1.71284 -0.803648 0
M  V30 17307 O 1637.24 -0.986812 -1.54944 0
M  V30 17308 C 1637.3 -3.50253 0.810132 0
M  V30 17309 C 1636.96 -3.99445 2.2202 0
M  V30 17310 C 1637.96 -4.09982 3.19704 0
M  V30 17311 C 1635.65 -4.33057 2.54493 0
M  V30 17312 C 1637.64 -4.53449 4.47954 0
M  V30 17313 C 1635.33 -4.7621 3.82972 0
M  V30 17314 C 1636.32 -4.86369 4.79515 0
M  V30 17315 O 1636.01 -5.28563 6.05703 0
M  V30 17316 H 1635.74 -0.634013 0.234529 0
M  V30 17317 H 1638.3 -1.60318 1.28402 0
M  V30 17318 H 1636.53 -3.86576 0.0978322 0
M  V30 17319 H 1638.22 -4.03015 0.483099 0
M  V30 17320 H 1638.98 -3.84243 2.95943 0
M  V30 17321 H 1634.86 -4.24375 1.80075 0
M  V30 17322 H 1638.41 -4.61294 5.23311 0
M  V30 17323 H 1634.3 -5.01394 4.06539 0
M  V30 17324 H 1635.07 -5.46744 6.09109 0
M  V30 17325 N 1637.73 -0.725468 -1.3991 0
M  V30 17326 C 1639.01 -0.195971 -1.94616 0
M  V30 17327 C 1639.39 1.30035 -1.66295 0
M  V30 17328 O 1638.74 2.06133 -0.985977 0
M  V30 17329 C 1638.95 -0.519325 -3.45115 0
M  V30 17330 C 1640.3 -0.46341 -4.22064 0
M  V30 17331 O 1641.32 -0.455958 -3.5327 0
M  V30 17332 O 1640.18 -0.449579 -5.44648 0
M  V30 17333 H 1637.27 -0.0325409 -0.82636 0
M  V30 17334 H 1639.82 -0.803676 -1.49463 0
M  V30 17335 H 1638.59 -1.55386 -3.59125 0
M  V30 17336 H 1638.22 0.117838 -3.97425 0
M  V30 17337 N 1639.21 1.50354 -0.472382 0
M  V30 17338 C 1640.12 2.32318 0.326405 0
M  V30 17339 C 1641.14 1.4276 0.994771 0
M  V30 17340 O 1642.31 1.75811 0.98246 0
M  V30 17341 C 1639.38 3.17468 1.39337 0
M  V30 17342 C 1638.44 4.22848 0.741465 0
M  V30 17343 C 1637.67 5.03929 1.75759 0
M  V30 17344 O 1637.9 4.86105 2.98425 0
M  V30 17345 O 1636.83 5.87051 1.32871 0
M  V30 17346 H 1640.66 3.01749 -0.343702 0
M  V30 17347 H 1638.24 1.47553 -0.234207 0
M  V30 17348 H 1640.12 3.703 2.01136 0
M  V30 17349 H 1638.8 2.50764 2.04692 0
M  V30 17350 H 1637.71 3.74005 0.0844848 0
M  V30 17351 H 1639.04 4.92026 0.130838 0
M  V30 17352 N 1640.69 0.205039 1.56261 0
M  V30 17353 C 1641.64 -0.711828 2.19549 0
M  V30 17354 C 1642.61 -1.2025 1.14582 0
M  V30 17355 O 1643.79 -1.26459 1.42873 0
M  V30 17356 C 1640.93 -1.92152 2.86656 0
M  V30 17357 C 1640.05 -1.47129 4.06174 0
M  V30 17358 C 1639.18 -2.63726 4.6111 0
M  V30 17359 C 1638.22 -2.15357 5.72964 0
M  V30 17360 N 1637.36 -3.25167 6.22263 0
M  V30 17361 H 1642.2 -0.165392 2.97541 0
M  V30 17362 H 1639.73 -0.0698889 1.46934 0
M  V30 17363 H 1641.69 -2.63152 3.23739 0
M  V30 17364 H 1640.32 -2.4411 2.11211 0
M  V30 17365 H 1639.37 -0.656797 3.74687 0
M  V30 17366 H 1640.69 -1.0765 4.87045 0
M  V30 17367 H 1639.84 -3.42833 5.0055 0
M  V30 17368 H 1638.58 -3.06484 3.79367 0
M  V30 17369 H 1637.58 -1.34706 5.33043 0
M  V30 17370 H 1638.81 -1.73618 6.56532 0
M  V30 17371 H 1636.76 -3.67438 5.43439 0
M  V30 17372 H 1636.67 -2.89888 6.98213 0
M  V30 17373 H 1637.94 -4.0446 6.66358 0
M  V30 17374 N 1642.17 -1.57451 -0.0684915 0
M  V30 17375 C 1643.4 -1.91362 -0.778724 0
M  V30 17376 C 1643.81 -0.799579 -1.71474 0
M  V30 17377 O 1643.15 0.235727 -1.82181 0
M  V30 17378 C 1643.21 -3.20767 -1.62323 0
M  V30 17379 C 1642.88 -4.48907 -0.85623 0
M  V30 17380 C 1643.87 -5.19609 -0.173992 0
M  V30 17381 C 1641.56 -4.95521 -0.822427 0
M  V30 17382 C 1643.55 -6.35178 0.531784 0
M  V30 17383 C 1641.24 -6.10996 -0.11288 0
M  V30 17384 C 1642.24 -6.80675 0.563022 0
M  V30 17385 O 1641.93 -7.93946 1.26113 0
M  V30 17386 H 1641.66 -0.636969 -0.226376 0
M  V30 17387 H 1644.21 -2.05357 -0.0420481 0
M  V30 17388 H 1642.44 -3.0299 -2.40279 0
M  V30 17389 H 1644.13 -3.40303 -2.21244 0
M  V30 17390 H 1644.9 -4.84622 -0.191393 0
M  V30 17391 H 1640.78 -4.41156 -1.33798 0
M  V30 17392 H 1644.32 -6.89501 1.05991 0
M  V30 17393 H 1640.22 -6.45432 -0.0934182 0
M  V30 17394 H 1640.98 -8.10084 1.17074 0
M  V30 17395 N 1643.65 0.339955 -1.5389 0
M  V30 17396 C 1645.06 0.683287 -1.44234 0
M  V30 17397 C 1645.26 1.92298 -0.601976 0
M  V30 17398 O 1644.32 2.52324 -0.0943623 0
M  V30 17399 C 1645.63 0.872576 -2.87761 0
M  V30 17400 C 1647.18 0.970965 -2.97559 0
M  V30 17401 C 1647.66 1.19254 -4.42202 0
M  V30 17402 N 1649.15 1.25966 -4.45743 0
M  V30 17403 C 1649.88 1.44869 -5.54798 0
M  V30 17404 N 1649.38 1.6092 -6.73852 0
M  V30 17405 N 1651.17 1.47445 -5.42417 0
M  V30 17406 H 1643.32 -0.475086 -2.07019 0
M  V30 17407 H 1645.58 -0.150644 -0.935954 0
M  V30 17408 H 1645.29 0.033117 -3.51684 0
M  V30 17409 H 1645.16 1.77326 -3.32919 0
M  V30 17410 H 1647.55 1.80094 -2.33774 0
M  V30 17411 H 1647.63 0.0471065 -2.55757 0
M  V30 17412 H 1647.28 0.367482 -5.06569 0
M  V30 17413 H 1647.21 2.13002 -4.81599 0
M  V30 17414 H 1649.7 1.15072 -3.59954 0
M  V30 17415 H 1650.01 1.74989 -7.52727 0
M  V30 17416 H 1648.36 1.58049 -6.7679 0
M  V30 17417 H 1651.55 1.34489 -4.48364 0
M  V30 17418 H 1651.72 1.61834 -6.27466 0
M  V30 17419 N 1645.13 1.45684 0.601159 0
M  V30 17420 C 1646.06 1.50861 1.7255 0
M  V30 17421 C 1647.07 0.398728 1.57842 0
M  V30 17422 O 1648.26 0.66613 1.65605 0
M  V30 17423 C 1645.36 1.35535 3.10618 0
M  V30 17424 C 1644.53 2.60313 3.51505 0
M  V30 17425 C 1643.59 2.39451 4.68561 0
M  V30 17426 O 1642.62 3.13094 4.75353 0
M  V30 17427 N 1643.82 1.44426 5.62247 0
M  V30 17428 H 1646.58 2.47799 1.6857 0
M  V30 17429 H 1644.15 1.41505 0.786626 0
M  V30 17430 H 1646.14 1.19379 3.86692 0
M  V30 17431 H 1644.71 0.468492 3.09069 0
M  V30 17432 H 1643.93 2.9154 2.65327 0
M  V30 17433 H 1645.22 3.43242 3.75583 0
M  V30 17434 H 1644.61 0.836624 5.59479 0
M  V30 17435 H 1643.17 1.34239 6.37827 0
M  V30 17436 N 1646.6 -0.84422 1.33082 0
M  V30 17437 C 1647.51 -1.9858 1.24913 0
M  V30 17438 C 1648.53 -1.73256 0.160708 0
M  V30 17439 O 1649.71 -1.97719 0.383313 0
M  V30 17440 C 1646.77 -3.32471 0.983063 0
M  V30 17441 C 1645.83 -3.70946 2.16096 0
M  V30 17442 C 1645.06 -4.98448 1.90749 0
M  V30 17443 O 1645.29 -5.63953 0.855173 0
M  V30 17444 O 1644.22 -5.34301 2.7714 0
M  V30 17445 H 1648.05 -2.0841 2.20905 0
M  V30 17446 H 1645.63 -0.976447 1.13075 0
M  V30 17447 H 1647.51 -4.12705 0.851612 0
M  V30 17448 H 1646.19 -3.23656 0.053384 0
M  V30 17449 H 1645.1 -2.91244 2.34793 0
M  V30 17450 H 1646.43 -3.8442 3.07379 0
M  V30 17451 N 1648.08 -1.16463 -1.0618 0
M  V30 17452 C 1649.01 -0.829995 -2.13644 0
M  V30 17453 C 1650.03 0.16326 -1.61979 0
M  V30 17454 O 1651.22 -0.0616575 -1.78393 0
M  V30 17455 C 1648.32 -0.215222 -3.38216 0
M  V30 17456 C 1647.49 -1.24886 -4.19192 0
M  V30 17457 C 1646.55 -0.653683 -5.22124 0
M  V30 17458 O 1645.57 -1.32285 -5.53615 0
M  V30 17459 N 1646.78 0.559031 -5.77802 0
M  V30 17460 H 1649.54 -1.75487 -2.42949 0
M  V30 17461 H 1647.1 -1.06212 -1.22191 0
M  V30 17462 H 1649.09 0.196005 -4.04225 0
M  V30 17463 H 1647.66 0.613229 -3.06526 0
M  V30 17464 H 1646.88 -1.83622 -3.48822 0
M  V30 17465 H 1648.17 -1.94639 -4.70099 0
M  V30 17466 H 1647.57 1.12083 -5.54485 0
M  V30 17467 H 1646.13 0.912453 -6.45382 0
M  V30 17468 N 1649.56 1.24734 -0.963288 0
M  V30 17469 C 1650.51 2.25555 -0.48926 0
M  V30 17470 C 1651.48 1.59521 0.462848 0
M  V30 17471 O 1652.66 1.87095 0.374188 0
M  V30 17472 C 1649.8 3.44407 0.218629 0
M  V30 17473 C 1648.91 4.25051 -0.77173 0
M  V30 17474 C 1648.05 5.31185 -0.0403986 0
M  V30 17475 C 1647.09 6.03523 -1.02112 0
M  V30 17476 N 1646.23 7.0137 -0.320083 0
M  V30 17477 H 1651.07 2.6547 -1.35386 0
M  V30 17478 H 1648.6 1.30504 -0.678762 0
M  V30 17479 H 1650.56 4.12173 0.645701 0
M  V30 17480 H 1649.19 3.05341 1.04722 0
M  V30 17481 H 1648.24 3.56865 -1.31726 0
M  V30 17482 H 1649.55 4.75084 -1.51976 0
M  V30 17483 H 1648.71 6.05067 0.444886 0
M  V30 17484 H 1647.45 4.82048 0.740356 0
M  V30 17485 H 1646.45 5.28448 -1.51732 0
M  V30 17486 H 1647.68 6.54749 -1.80224 0
M  V30 17487 H 1645.62 6.54511 0.441775 0
M  V30 17488 H 1645.54 7.49263 -1.00705 0
M  V30 17489 H 1646.81 7.79368 0.143379 0
M  V30 17490 N 1651.04 0.732878 1.39523 0
M  V30 17491 C 1652.29 0.279338 2.0016 0
M  V30 17492 C 1652.61 -1.13673 1.58441 0
M  V30 17493 O 1651.88 -1.77369 0.831681 0
M  V30 17494 H 1650.46 0.100288 0.740237 0
M  V30 17495 H 1653.12 0.942363 1.70603 0
M  V30 17496 H 1652.21 0.326053 3.10392 0
M  V30 17497 N 1652.52 -1.50101 0.480349 0
M  V30 17498 C 1653.76 -2.02674 -0.0715373 0
M  V30 17499 C 1654.09 -1.36095 -1.38535 0
M  V30 17500 O 1653.37 -0.489703 -1.88234 0
M  V30 17501 C 1653.65 -3.59261 -0.245693 0
M  V30 17502 C 1653.51 -4.36399 1.08979 0
M  V30 17503 C 1654.82 -4.28682 -0.995966 0
M  V30 17504 H 1651.94 -0.736592 -0.0245244 0
M  V30 17505 H 1654.59 -1.7933 0.627743 0
M  V30 17506 H 1652.74 -3.79281 -0.841308 0
M  V30 17507 H 1654.41 -4.27926 1.72269 0
M  V30 17508 H 1652.65 -3.99773 1.68417 0
M  V30 17509 H 1653.32 -5.44254 0.921468 0
M  V30 17510 H 1655.8 -4.13193 -0.491025 0
M  V30 17511 H 1654.67 -5.38037 -1.08663 0
M  V30 17512 H 1654.93 -3.92491 -2.03479 0
M  V30 17513 N 1653.99 -0.213323 -1.5615 0
M  V30 17514 C 1655.24 0.420909 -1.97259 0
M  V30 17515 C 1655.56 1.61483 -1.10375 0
M  V30 17516 O 1656.76 2.31804 -1.41347 0
M  V30 17517 C 1655.22 0.800243 -3.5089 0
M  V30 17518 C 1654.83 -0.370405 -4.46466 0
M  V30 17519 C 1656.57 1.40054 -4.00731 0
M  V30 17520 C 1654.48 0.0309052 -5.91392 0
M  V30 17521 H 1653.41 0.16103 -0.736604 0
M  V30 17522 H 1656.06 -0.308232 -1.80893 0
M  V30 17523 H 1654.44 1.58657 -3.62828 0
M  V30 17524 H 1655.61 -1.14796 -4.46272 0
M  V30 17525 H 1653.93 -0.883391 -4.06922 0
M  V30 17526 H 1656.53 1.71355 -5.06499 0
M  V30 17527 H 1656.87 2.31345 -3.461 0
M  V30 17528 H 1657.4 0.677813 -3.91983 0
M  V30 17529 H 1654.14 -0.848284 -6.49988 0
M  V30 17530 H 1653.66 0.772941 -5.94799 0
M  V30 17531 H 1655.34 0.460441 -6.4536 0
M  V30 17532 N 1655.47 1.57485 0.0601405 0
M  V30 17533 C 1656.7 1.92438 0.773466 0
M  V30 17534 C 1657.12 0.810755 1.6973 0
M  V30 17535 O 1656.48 -0.235697 1.79761 0
M  V30 17536 C 1656.53 3.26381 1.53323 0
M  V30 17537 O 1655.63 3.16436 2.64465 0
M  V30 17538 H 1654.97 0.629838 0.210239 0
M  V30 17539 H 1657.5 2.04585 0.0248981 0
M  V30 17540 H 1657.51 3.60534 1.90996 0
M  V30 17541 H 1656.19 4.07007 0.855468 0
M  V30 17542 H 1654.77 2.93862 2.29564 0
M  V30 17543 N 1656.95 -0.331789 1.54068 0
M  V30 17544 C 1657.88 -1.41332 1.8587 0
M  V30 17545 C 1658.86 -1.54353 0.714787 0
M  V30 17546 O 1660.05 -1.68368 0.967777 0
M  V30 17547 C 1657.18 -2.78218 2.07875 0
M  V30 17548 C 1656.13 -2.79994 3.23709 0
M  V30 17549 C 1655.46 -4.19878 3.31069 0
M  V30 17550 C 1656.76 -2.44476 4.6155 0
M  V30 17551 H 1658.45 -1.14966 2.76447 0
M  V30 17552 H 1656 -0.551615 1.33016 0
M  V30 17553 H 1657.95 -3.53937 2.28706 0
M  V30 17554 H 1656.67 -3.06044 1.14038 0
M  V30 17555 H 1655.33 -2.0673 3.02751 0
M  V30 17556 H 1654.98 -4.44831 2.34807 0
M  V30 17557 H 1654.68 -4.21974 4.08915 0
M  V30 17558 H 1656.2 -4.97421 3.54125 0
M  V30 17559 H 1657.62 -3.09908 4.82317 0
M  V30 17560 H 1656.02 -2.57837 5.41886 0
M  V30 17561 H 1657.09 -1.3964 4.64358 0
M  V30 17562 N 1658.43 -1.46001 -0.593424 0
M  V30 17563 C 1659.65 -1.54541 -1.38318 0
M  V30 17564 C 1660.08 -0.183555 -1.87202 0
M  V30 17565 O 1659.44 0.834407 -1.60958 0
M  V30 17566 C 1659.48 -2.54559 -2.55405 0
M  V30 17567 O 1658.59 -2.07321 -3.56499 0
M  V30 17568 H 1657.93 -0.520434 -0.412364 0
M  V30 17569 H 1660.46 -1.9148 -0.720862 0
M  V30 17570 H 1660.47 -2.73823 -3.02465 0
M  V30 17571 H 1659.14 -3.53461 -2.19176 0
M  V30 17572 H 1657.72 -1.97997 -3.15993 0
M  V30 17573 N 1659.91 0.83715 -1.33527 0
M  V30 17574 C 1660.84 1.96231 -1.26553 0
M  V30 17575 C 1661.82 1.69474 -0.14576 0
M  V30 17576 O 1663 1.91274 -0.335815 0
M  V30 17577 C 1660.13 3.32419 -1.00574 0
M  V30 17578 C 1659.09 3.73577 -2.08864 0
M  V30 17579 C 1658.41 5.07591 -1.68095 0
M  V30 17580 C 1659.71 3.87179 -3.50556 0
M  V30 17581 H 1661.41 2.02324 -2.20693 0
M  V30 17582 H 1658.95 0.972038 -1.06242 0
M  V30 17583 H 1660.91 4.10703 -0.943439 0
M  V30 17584 H 1659.63 3.26587 -0.0287268 0
M  V30 17585 H 1658.29 2.97557 -2.14139 0
M  V30 17586 H 1657.94 4.98232 -0.690922 0
M  V30 17587 H 1657.64 5.361 -2.40563 0
M  V30 17588 H 1659.16 5.88349 -1.63334 0
M  V30 17589 H 1660.57 4.55771 -3.47772 0
M  V30 17590 H 1658.97 4.27127 -4.21524 0
M  V30 17591 H 1660.04 2.8958 -3.88936 0
M  V30 17592 N 1661.38 1.17024 1.05561 0
M  V30 17593 C 1662.61 0.981293 1.82717 0
M  V30 17594 C 1663.03 -0.465636 1.82246 0
M  V30 17595 O 1662.39 -1.33315 1.22869 0
M  V30 17596 C 1662.44 1.52239 3.26888 0
M  V30 17597 O 1661.54 0.73366 4.05822 0
M  V30 17598 H 1660.89 0.348677 0.565084 0
M  V30 17599 H 1663.42 1.55435 1.33046 0
M  V30 17600 H 1663.43 1.54306 3.77695 0
M  V30 17601 H 1662.1 2.57567 3.26545 0
M  V30 17602 H 1660.68 0.784101 3.64563 0
M  V30 17603 N 1662.86 -1.24221 0.969889 0
M  V30 17604 C 1664.09 -1.96403 0.650658 0
M  V30 17605 C 1664.51 -1.71919 -0.780339 0
M  V30 17606 O 1663.86 -1.00427 -1.52383 0
M  V30 17607 C 1663.91 -3.49636 0.918542 0
M  V30 17608 O 1663.63 -3.73283 2.29328 0
M  V30 17609 C 1665.14 -4.3903 0.613803 0
M  V30 17610 H 1662.36 -0.625614 0.242587 0
M  V30 17611 H 1664.9 -1.57992 1.29842 0
M  V30 17612 H 1663.05 -3.86101 0.316959 0
M  V30 17613 H 1663.47 -4.67649 2.37496 0
M  V30 17614 H 1664.94 -5.4539 0.851679 0
M  V30 17615 H 1665.42 -4.36868 -0.451976 0
M  V30 17616 H 1666.03 -4.08155 1.19539 0
M  V30 17617 N 1664.34 -0.740267 -1.39132 0
M  V30 17618 C 1665.29 -0.0797035 -2.27861 0
M  V30 17619 C 1666.27 0.707146 -1.44528 0
M  V30 17620 O 1667.47 0.575289 -1.6739 0
M  V30 17621 C 1664.6 0.822818 -3.33294 0
M  V30 17622 C 1663.68 0.029836 -4.2409 0
M  V30 17623 N 1664.07 -0.999737 -4.95821 0
M  V30 17624 C 1662.37 0.258692 -4.45249 0
M  V30 17625 C 1663.07 -1.47837 -5.626 0
M  V30 17626 N 1662.05 -0.796028 -5.3774 0
M  V30 17627 H 1665.85 -0.868435 -2.80776 0
M  V30 17628 H 1663.36 -0.575079 -1.51877 0
M  V30 17629 H 1665.36 1.31157 -3.95732 0
M  V30 17630 H 1664.02 1.61065 -2.81936 0
M  V30 17631 H 1665.03 -1.38123 -4.99142 0
M  V30 17632 H 1661.71 1.02091 -4.04825 0
M  V30 17633 H 1663.1 -2.33524 -6.30013 0
M  V30 17634 N 1665.82 1.49844 -0.488302 0
M  V30 17635 C 1667.06 2.03331 0.052835 0
M  V30 17636 C 1667.42 1.3624 1.35854 0
M  V30 17637 O 1666.71 0.484818 1.85365 0
M  V30 17638 C 1666.91 3.56342 0.274851 0
M  V30 17639 C 1666.74 4.38262 -1.00779 0
M  V30 17640 C 1665.51 4.80746 -1.55599 0
M  V30 17641 C 1667.7 4.77608 -1.90774 0
M  V30 17642 N 1665.69 5.4705 -2.78586 0
M  V30 17643 C 1667.06 5.43499 -2.98343 0
M  V30 17644 C 1669.11 4.59556 -1.91606 0
M  V30 17645 C 1667.81 5.93249 -4.06753 0
M  V30 17646 C 1669.84 5.10258 -2.98983 0
M  V30 17647 C 1669.2 5.76138 -4.0527 0
M  V30 17648 H 1665.3 0.781715 -0.021128 0
M  V30 17649 H 1667.89 1.8316 -0.66034 0
M  V30 17650 H 1666.06 3.76424 0.957074 0
M  V30 17651 H 1667.79 3.96473 0.811862 0
M  V30 17652 H 1664.54 4.6058 -1.10284 0
M  V30 17653 H 1664.97 5.84796 -3.4109 0
M  V30 17654 H 1669.61 4.08039 -1.10744 0
M  V30 17655 H 1667.33 6.43794 -4.88421 0
M  V30 17656 H 1670.91 4.98109 -3.00631 0
M  V30 17657 H 1669.79 6.14663 -4.8699 0
M  V30 17658 N 1667.3 0.221601 1.56034 0
M  V30 17659 C 1668.26 -0.674973 2.19036 0
M  V30 17660 C 1669.26 -1.1216 1.15225 0
M  V30 17661 O 1670.45 -1.0304 1.40458 0
M  V30 17662 C 1667.58 -1.92465 2.81372 0
M  V30 17663 H 1668.77 -0.125689 2.99637 0
M  V30 17664 H 1666.33 -0.0280114 1.56275 0
M  V30 17665 H 1667.06 -2.5158 2.04641 0
M  V30 17666 H 1666.85 -1.61286 3.57392 0
M  V30 17667 H 1668.34 -2.56342 3.29664 0
M  V30 17668 N 1668.77 -1.57515 -0.0517878 0
M  V30 17669 C 1669.68 -2.08427 -1.07681 0
M  V30 17670 C 1670.7 -1.01797 -1.41115 0
M  V30 17671 O 1671.88 -1.33394 -1.50891 0
M  V30 17672 C 1668.94 -2.53472 -2.36544 0
M  V30 17673 C 1668 -3.74488 -2.09899 0
M  V30 17674 C 1667.24 -4.17374 -3.32618 0
M  V30 17675 O 1667.46 -3.59962 -4.42475 0
M  V30 17676 O 1666.39 -5.10006 -3.19653 0
M  V30 17677 H 1670.22 -2.96122 -0.674217 0
M  V30 17678 H 1667.8 -1.4699 -0.267274 0
M  V30 17679 H 1669.69 -2.82876 -3.12345 0
M  V30 17680 H 1668.36 -1.68899 -2.76143 0
M  V30 17681 H 1667.27 -3.50137 -1.31739 0
M  V30 17682 H 1668.6 -4.59975 -1.75169 0
M  V30 17683 N 1670.25 0.323614 -1.54242 0
M  V30 17684 C 1671.66 0.898051 -1.63682 0
M  V30 17685 C 1672.02 1.88882 -0.530861 0
M  V30 17686 O 1671.14 2.13772 0.336245 0
M  V30 17687 C 1671.74 1.63561 -2.96704 0
M  V30 17688 C 1670.29 2.15877 -3.08341 0
M  V30 17689 C 1669.44 0.984145 -2.59249 0
M  V30 17690 H 1672.39 0.101198 -1.58377 0
M  V30 17691 H 1672.41 2.49982 -2.86861 0
M  V30 17692 H 1671.93 0.914265 -3.77177 0
M  V30 17693 H 1670.03 2.91127 -2.32542 0
M  V30 17694 H 1670.14 2.40881 -4.14141 0
M  V30 17695 H 1668.5 1.3633 -2.15143 0
M  V30 17696 H 1669.29 0.277118 -3.4218 0
M  V30 17697 N 1671.73 1.46313 0.585673 0
M  V30 17698 C 1672.68 1.56653 1.69495 0
M  V30 17699 C 1673.65 0.411007 1.60935 0
M  V30 17700 O 1674.83 0.627369 1.80191 0
M  V30 17701 C 1671.97 1.55996 3.0783 0
M  V30 17702 C 1671.09 2.82261 3.27036 0
M  V30 17703 C 1670.22 2.73129 4.55603 0
M  V30 17704 C 1669.26 3.94346 4.68143 0
M  V30 17705 N 1668.4 3.83617 5.88032 0
M  V30 17706 H 1673.24 2.51407 1.59995 0
M  V30 17707 H 1670.77 1.24729 0.779821 0
M  V30 17708 H 1672.73 1.53602 3.87895 0
M  V30 17709 H 1671.36 0.647766 3.16234 0
M  V30 17710 H 1670.41 2.94648 2.40596 0
M  V30 17711 H 1671.73 3.72107 3.32171 0
M  V30 17712 H 1670.88 2.68823 5.43893 0
M  V30 17713 H 1669.62 1.80917 4.52902 0
M  V30 17714 H 1668.62 3.98987 3.78272 0
M  V30 17715 H 1669.85 4.8765 4.72625 0
M  V30 17716 H 1667.8 2.9419 5.86334 0
M  V30 17717 H 1667.71 4.67117 5.94422 0
M  V30 17718 H 1668.98 3.83281 6.7876 0
M  V30 17719 N 1673.21 -0.830057 1.33969 0
M  V30 17720 C 1674.43 -1.62294 1.29133 0
M  V30 17721 C 1674.86 -1.87627 -0.133253 0
M  V30 17722 O 1674.22 -1.44669 -1.09272 0
M  V30 17723 C 1674.27 -2.94508 2.0808 0
M  V30 17724 O 1673.37 -3.86239 1.44544 0
M  V30 17725 H 1672.71 -0.493865 0.443839 0
M  V30 17726 H 1675.24 -1.03202 1.76665 0
M  V30 17727 H 1675.25 -3.44133 2.19173 0
M  V30 17728 H 1673.93 -2.75392 3.1166 0
M  V30 17729 H 1672.5 -3.44743 1.42151 0
M  V30 17730 N 1674.69 -1.17582 -1.04939 0
M  V30 17731 C 1676.1 -0.971326 -1.59443 0
M  V30 17732 C 1676.45 0.481308 -1.90205 0
M  V30 17733 O 1675.57 1.35708 -1.6856 0
M  V30 17734 C 1676.17 -1.75685 -2.8969 0
M  V30 17735 C 1674.73 -1.59695 -3.40844 0
M  V30 17736 C 1673.88 -1.75688 -2.14544 0
M  V30 17737 H 1676.83 -1.32254 -0.877188 0
M  V30 17738 H 1676.85 -1.24074 -3.59703 0
M  V30 17739 H 1676.36 -2.81405 -2.67269 0
M  V30 17740 H 1674.46 -0.564746 -3.68295 0
M  V30 17741 H 1674.57 -2.38951 -4.15258 0
M  V30 17742 H 1672.94 -1.18553 -2.25427 0
M  V30 17743 H 1673.72 -2.82825 -1.94589 0
M  V30 17744 N 1676.17 1.23705 -0.976463 0
M  V30 17745 C 1677.41 1.91635 -0.641897 0
M  V30 17746 C 1677.73 1.7661 0.826678 0
M  V30 17747 O 1677 1.14304 1.59096 0
M  V30 17748 H 1675.58 0.709264 -0.234422 0
M  V30 17749 H 1678.25 1.50414 -1.23943 0
M  V30 17750 H 1677.34 2.99138 -0.890099 0
M  V30 17751 N 1677.64 0.747635 1.38738 0
M  V30 17752 C 1678.89 0.301593 2.00545 0
M  V30 17753 C 1679.22 -1.11208 1.59205 0
M  V30 17754 O 1678.5 -1.76052 0.826806 0
M  V30 17755 C 1678.78 0.417739 3.57669 0
M  V30 17756 C 1678.63 1.87209 4.0899 0
M  V30 17757 C 1679.95 -0.192403 4.39679 0
M  V30 17758 H 1677.07 0.11106 0.728584 0
M  V30 17759 H 1679.71 0.946162 1.64766 0
M  V30 17760 H 1677.86 -0.131024 3.88279 0
M  V30 17761 H 1679.54 2.4787 3.89048 0
M  V30 17762 H 1677.78 2.38917 3.62079 0
M  V30 17763 H 1678.45 1.90455 5.18103 0
M  V30 17764 H 1680.93 0.27554 4.15187 0
M  V30 17765 H 1679.8 -0.0808605 5.4884 0
M  V30 17766 H 1680.06 -1.28 4.23165 0
M  V30 17767 N 1679.12 -1.49583 0.496242 0
M  V30 17768 C 1680.53 -1.8664 0.0472756 0
M  V30 17769 C 1680.88 -1.40898 -1.36536 0
M  V30 17770 O 1680.01 -0.784796 -2.01668 0
M  V30 17771 C 1680.6 -3.38708 0.079016 0
M  V30 17772 C 1679.16 -3.75083 -0.314587 0
M  V30 17773 C 1678.31 -2.73565 0.453624 0
M  V30 17774 H 1681.26 -1.41969 0.709269 0
M  V30 17775 H 1681.28 -3.73676 -0.717396 0
M  V30 17776 H 1680.79 -3.71969 1.10727 0
M  V30 17777 H 1678.89 -3.47429 -1.34625 0
M  V30 17778 H 1679.01 -4.791 0.00155427 0
M  V30 17779 H 1677.37 -2.54519 -0.095937 0
M  V30 17780 H 1678.15 -3.0967 1.48186 0
M  V30 17781 N 1680.6 -0.229873 -1.55915 0
M  V30 17782 C 1682.02 0.125347 -1.59107 0
M  V30 17783 C 1682.22 1.58293 -1.24682 0
M  V30 17784 O 1681.27 2.32452 -0.986018 0
M  V30 17785 C 1682.58 -0.208461 -2.99977 0
M  V30 17786 C 1684.13 -0.151373 -3.12634 0
M  V30 17787 C 1684.61 -0.458972 -4.55694 0
M  V30 17788 N 1686.1 -0.408847 -4.61392 0
M  V30 17789 C 1686.83 -0.620239 -5.70036 0
M  V30 17790 N 1686.33 -0.893851 -6.8701 0
M  V30 17791 N 1688.12 -0.552107 -5.59382 0
M  V30 17792 H 1680.27 -1.18062 -1.76565 0
M  V30 17793 H 1682.54 -0.473821 -0.821095 0
M  V30 17794 H 1682.24 -1.22043 -3.29846 0
M  V30 17795 H 1682.12 0.472591 -3.74228 0
M  V30 17796 H 1684.5 0.851249 -2.82556 0
M  V30 17797 H 1684.58 -0.866024 -2.40694 0
M  V30 17798 H 1684.23 -1.45907 -4.86491 0
M  V30 17799 H 1684.16 0.276965 -5.25871 0
M  V30 17800 H 1686.65 -0.205404 -3.77341 0
M  V30 17801 H 1686.96 -1.04303 -7.65729 0
M  V30 17802 H 1685.31 -0.931138 -6.88734 0
M  V30 17803 H 1688.5 -0.338518 -4.66874 0
M  V30 17804 H 1688.67 -0.720256 -6.43985 0
M  V30 17805 N 1682.08 1.5754 0.0434337 0
M  V30 17806 C 1683.35 1.79733 0.771713 0
M  V30 17807 C 1683.73 0.82446 1.94334 0
M  V30 17808 O 1683.08 -0.136485 2.28092 0
M  V30 17809 C 1683.29 3.27049 1.2182 0
M  V30 17810 C 1684.64 3.91648 1.64002 0
M  V30 17811 O 1685.66 3.31111 1.31315 0
M  V30 17812 O 1684.52 4.98206 2.24618 0
M  V30 17813 H 1681.62 0.73861 0.372001 0
M  V30 17814 H 1684.16 1.69687 0.0213187 0
M  V30 17815 H 1682.94 3.89439 0.381158 0
M  V30 17816 H 1682.56 3.41929 2.02905 0
M  V30 17817 N 1683.56 -0.31543 1.54411 0
M  V30 17818 C 1684.8 -1.05396 1.73261 0
M  V30 17819 C 1685.13 -1.87406 0.509171 0
M  V30 17820 O 1684.41 -1.88126 -0.493836 0
M  V30 17821 C 1684.69 -1.97195 3.01308 0
M  V30 17822 C 1684.55 -1.18461 4.33921 0
M  V30 17823 C 1685.86 -2.96594 3.25146 0
M  V30 17824 H 1682.98 -0.381763 0.630417 0
M  V30 17825 H 1685.63 -0.329882 1.87114 0
M  V30 17826 H 1683.78 -2.58936 2.89628 0
M  V30 17827 H 1685.45 -0.591171 4.57496 0
M  V30 17828 H 1683.69 -0.487025 4.31057 0
M  V30 17829 H 1684.36 -1.85909 5.19752 0
M  V30 17830 H 1686.84 -2.44977 3.36341 0
M  V30 17831 H 1685.71 -3.58002 4.16084 0
M  V30 17832 H 1685.97 -3.69487 2.42758 0
M  V30 17833 N 1685.03 -1.46622 -0.577906 0
M  V30 17834 C 1685.94 -1.60143 -1.71439 0
M  V30 17835 C 1686.96 -0.484781 -1.6711 0
M  V30 17836 O 1688.14 -0.749551 -1.86932 0
M  V30 17837 C 1685.2 -1.59282 -3.07945 0
M  V30 17838 C 1684.26 -2.82216 -3.235 0
M  V30 17839 C 1683.5 -2.81387 -4.53495 0
M  V30 17840 O 1683.72 -1.90407 -5.37681 0
M  V30 17841 O 1682.65 -3.72991 -4.724 0
M  V30 17842 H 1686.48 -2.56265 -1.62978 0
M  V30 17843 H 1684.06 -1.2947 -0.745514 0
M  V30 17844 H 1685.95 -1.61515 -3.89218 0
M  V30 17845 H 1684.62 -0.663212 -3.16833 0
M  V30 17846 H 1683.53 -2.85536 -2.41702 0
M  V30 17847 H 1684.86 -3.74402 -3.19506 0
M  V30 17848 N 1686.51 0.822941 -1.34408 0
M  V30 17849 C 1687.48 1.91541 -1.25876 0
M  V30 17850 C 1688.48 1.59856 -0.17397 0
M  V30 17851 O 1689.67 1.68896 -0.426592 0
M  V30 17852 C 1686.8 3.27586 -0.943415 0
M  V30 17853 H 1687.99 2.00529 -2.22998 0
M  V30 17854 H 1685.54 1.01691 -1.18695 0
M  V30 17855 H 1686.28 3.24291 0.0246389 0
M  V30 17856 H 1686.06 3.51966 -1.72807 0
M  V30 17857 H 1687.55 4.07589 -0.908891 0
M  V30 17858 N 1687.99 1.18137 1.04314 0
M  V30 17859 C 1688.95 0.908268 2.10436 0
M  V30 17860 C 1689.95 -0.105315 1.60455 0
M  V30 17861 O 1691.14 0.12785 1.7373 0
M  V30 17862 C 1688.28 0.362233 3.3897 0
M  V30 17863 H 1689.47 1.84928 2.36096 0
M  V30 17864 H 1687.02 0.993048 1.20699 0
M  V30 17865 H 1687.76 -0.58551 3.18971 0
M  V30 17866 H 1687.54 1.09285 3.76562 0
M  V30 17867 H 1689.03 0.18977 4.17169 0
M  V30 17868 N 1689.47 -1.23186 0.98301 0
M  V30 17869 C 1690.75 -1.87121 0.569651 0
M  V30 17870 C 1691.13 -1.88355 -0.95319 0
M  V30 17871 O 1690.47 -1.36699 -1.831 0
M  V30 17872 C 1690.68 -3.28493 1.17871 0
M  V30 17873 C 1692.03 -4.05065 1.27308 0
M  V30 17874 O 1693.06 -3.37722 1.13236 0
M  V30 17875 O 1691.91 -5.2559 1.49723 0
M  V30 17876 H 1689.01 -0.804363 0.192171 0
M  V30 17877 H 1691.55 -1.31041 1.07826 0
M  V30 17878 H 1690.33 -3.22175 2.22078 0
M  V30 17879 H 1689.95 -3.92166 0.655087 0
M  V30 17880 N 1690.95 -0.754982 -1.38339 0
M  V30 17881 C 1692.36 -0.43273 -1.53622 0
M  V30 17882 C 1692.56 1.05395 -1.71739 0
M  V30 17883 O 1691.62 1.83998 -1.72919 0
M  V30 17884 C 1692.93 -1.23319 -2.7425 0
M  V30 17885 C 1694.48 -1.22341 -2.881 0
M  V30 17886 C 1694.95 -2.00686 -4.11691 0
M  V30 17887 N 1696.45 -1.97953 -4.1877 0
M  V30 17888 C 1697.18 -2.55367 -5.13396 0
M  V30 17889 N 1696.68 -3.215 -6.13685 0
M  V30 17890 N 1698.47 -2.45289 -5.05757 0
M  V30 17891 H 1690.62 -1.71847 -1.2483 0
M  V30 17892 H 1692.88 -0.728585 -0.606521 0
M  V30 17893 H 1692.59 -2.28602 -2.67272 0
M  V30 17894 H 1692.46 -0.851009 -3.67475 0
M  V30 17895 H 1694.85 -0.178637 -2.94559 0
M  V30 17896 H 1694.93 -1.64511 -1.95882 0
M  V30 17897 H 1694.58 -3.05175 -4.05994 0
M  V30 17898 H 1694.51 -1.55908 -5.02991 0
M  V30 17899 H 1697 -1.49792 -3.46945 0
M  V30 17900 H 1697.31 -3.62725 -6.82386 0
M  V30 17901 H 1695.65 -3.25595 -6.14014 0
M  V30 17902 H 1698.85 -1.93251 -4.26347 0
M  V30 17903 H 1699.02 -2.9033 -5.79321 0
M  V30 17904 N 1692.42 1.49318 -0.504168 0
M  V30 17905 C 1693.36 2.25955 0.319279 0
M  V30 17906 C 1694.34 1.30675 0.967609 0
M  V30 17907 O 1695.52 1.5997 0.997086 0
M  V30 17908 C 1692.65 3.06096 1.44992 0
M  V30 17909 C 1691.69 4.16555 0.915644 0
M  V30 17910 S 1692.53 5.35141 -0.196097 0
M  V30 17911 C 1693.68 6.18837 0.937637 0
M  V30 17912 H 1693.91 2.9545 -0.33118 0
M  V30 17913 H 1691.45 1.51661 -0.289517 0
M  V30 17914 H 1693.41 3.52853 2.09774 0
M  V30 17915 H 1692.07 2.36065 2.07201 0
M  V30 17916 H 1691.26 4.72157 1.76306 0
M  V30 17917 H 1690.86 3.72406 0.344981 0
M  V30 17918 H 1693.15 6.51975 1.84216 0
M  V30 17919 H 1694.1 7.06852 0.420168 0
M  V30 17920 H 1694.5 5.51458 1.2064 0
M  V30 17921 N 1693.9 0.238138 1.5579 0
M  V30 17922 C 1694.83 -0.659451 2.23994 0
M  V30 17923 C 1695.81 -1.18817 1.21723 0
M  V30 17924 O 1697 -1.22913 1.50353 0
M  V30 17925 C 1694.13 -1.86043 2.93267 0
M  V30 17926 C 1693.08 -1.46485 4.02152 0
M  V30 17927 C 1692.41 -2.74595 4.58805 0
M  V30 17928 C 1693.71 -0.642448 5.18334 0
M  V30 17929 H 1695.4 -0.0907522 2.99262 0
M  V30 17930 H 1692.95 -0.042209 1.43938 0
M  V30 17931 H 1694.9 -2.49393 3.39678 0
M  V30 17932 H 1693.63 -2.45436 2.15473 0
M  V30 17933 H 1692.28 -0.854729 3.56497 0
M  V30 17934 H 1691.93 -3.32168 3.77721 0
M  V30 17935 H 1691.63 -2.48854 5.32302 0
M  V30 17936 H 1693.16 -3.38859 5.07944 0
M  V30 17937 H 1694.57 -1.18005 5.61024 0
M  V30 17938 H 1692.97 -0.481458 5.98166 0
M  V30 17939 H 1694.04 0.347298 4.83655 0
M  V30 17940 N 1695.38 -1.57561 -0.0350783 0
M  V30 17941 C 1696.31 -2.02953 -1.06502 0
M  V30 17942 C 1697.33 -0.941331 -1.32826 0
M  V30 17943 O 1698.51 -1.21873 -1.30419 0
M  V30 17944 C 1695.61 -2.38471 -2.40801 0
M  V30 17945 C 1694.79 -3.69596 -2.33917 0
M  V30 17946 C 1693.85 -3.9237 -3.50616 0
M  V30 17947 O 1692.87 -4.63504 -3.30382 0
M  V30 17948 N 1694.07 -3.37544 -4.72275 0
M  V30 17949 H 1696.84 -2.91926 -0.678169 0
M  V30 17950 H 1694.4 -1.60355 -0.22313 0
M  V30 17951 H 1696.39 -2.50849 -3.1758 0
M  V30 17952 H 1694.96 -1.55199 -2.71352 0
M  V30 17953 H 1694.18 -3.67629 -1.42277 0
M  V30 17954 H 1695.47 -4.55627 -2.26455 0
M  V30 17955 H 1694.87 -2.79875 -4.91616 0
M  V30 17956 H 1693.43 -3.55312 -5.4644 0
M  V30 17957 N 1696.86 0.307236 -1.54576 0
M  V30 17958 C 1698.11 1.04321 -1.73561 0
M  V30 17959 C 1698.43 1.87475 -0.51803 0
M  V30 17960 O 1697.69 1.89202 0.500093 0
M  V30 17961 C 1697.99 1.9831 -2.97335 0
M  V30 17962 C 1697.65 1.31182 -4.31395 0
M  V30 17963 C 1696.32 1.12607 -4.67839 0
M  V30 17964 C 1698.67 0.831413 -5.14526 0
M  V30 17965 C 1696 0.446652 -5.84997 0
M  V30 17966 C 1698.35 0.165743 -6.32383 0
M  V30 17967 C 1697.01 -0.0320176 -6.67492 0
M  V30 17968 H 1696.28 0.381739 -0.635103 0
M  V30 17969 H 1698.93 0.318705 -1.88829 0
M  V30 17970 H 1697.23 2.77267 -2.76821 0
M  V30 17971 H 1698.93 2.55314 -3.09218 0
M  V30 17972 H 1695.52 1.46645 -4.02732 0
M  V30 17973 H 1699.7 0.962653 -4.86874 0
M  V30 17974 H 1694.96 0.282387 -6.10748 0
M  V30 17975 H 1699.13 -0.214434 -6.9607 0
M  V30 17976 H 1696.76 -0.560493 -7.58131 0
M  V30 17977 N 1698.34 1.46926 0.570122 0
M  V30 17978 C 1699.56 1.56722 1.35841 0
M  V30 17979 C 1699.99 0.213314 1.86887 0
M  V30 17980 O 1699.34 -0.808694 1.62265 0
M  V30 17981 C 1699.39 2.5859 2.51323 0
M  V30 17982 O 1698.5 2.12966 3.53156 0
M  V30 17983 H 1697.84 0.526929 0.404032 0
M  V30 17984 H 1700.37 1.92603 0.690308 0
M  V30 17985 H 1700.38 2.78601 2.9807 0
M  V30 17986 H 1699.05 3.56903 2.13525 0
M  V30 17987 H 1697.63 2.02999 3.12803 0
M  V30 17988 N 1699.82 -0.815801 1.34842 0
M  V30 17989 C 1700.75 -1.94193 1.29659 0
M  V30 17990 C 1701.73 -1.69221 0.172703 0
M  V30 17991 O 1702.91 -1.90716 0.366203 0
M  V30 17992 C 1700.04 -3.30777 1.0585 0
M  V30 17993 C 1699 -3.70207 2.1478 0
M  V30 17994 C 1698.32 -5.04852 1.76149 0
M  V30 17995 C 1699.62 -3.81553 3.56671 0
M  V30 17996 H 1701.32 -1.98787 2.23884 0
M  V30 17997 H 1698.86 -0.955013 1.07775 0
M  V30 17998 H 1700.81 -4.0915 1.00866 0
M  V30 17999 H 1699.54 -3.265 0.0806804 0
M  V30 18000 H 1698.2 -2.94113 2.18845 0
M  V30 18001 H 1697.85 -4.9707 0.770099 0
M  V30 18002 H 1697.55 -5.32205 2.49062 0
M  V30 18003 H 1699.07 -5.85676 1.72674 0
M  V30 18004 H 1700.48 -4.50181 3.54979 0
M  V30 18005 H 1698.88 -4.20367 4.28266 0
M  V30 18006 H 1699.95 -2.83356 3.93494 0
M  V30 18007 N 1701.29 -1.18689 -1.03686 0
M  V30 18008 C 1702.54 -0.982656 -1.76602 0
M  V30 18009 C 1702.86 0.488553 -1.88781 0
M  V30 18010 O 1702.13 1.35419 -1.41558 0
M  V30 18011 H 1700.71 -0.360595 -0.654202 0
M  V30 18012 H 1703.37 -1.49439 -1.25115 0
M  V30 18013 H 1702.47 -1.42392 -2.77725 0
M  V30 18014 N 1702.77 1.22662 -0.989529 0
M  V30 18015 C 1704.02 1.91904 -0.674128 0
M  V30 18016 C 1704.37 1.75664 0.78485 0
M  V30 18017 O 1703.67 1.11266 1.55982 0
M  V30 18018 C 1703.86 3.428 -1.01109 0
M  V30 18019 C 1703.69 3.73719 -2.50128 0
M  V30 18020 C 1702.46 3.93916 -3.16477 0
M  V30 18021 C 1704.66 3.78467 -3.48234 0
M  V30 18022 N 1702.64 4.12119 -4.55007 0
M  V30 18023 C 1704.01 4.01771 -4.72208 0
M  V30 18024 C 1706.06 3.61301 -3.42587 0
M  V30 18025 C 1704.77 4.09689 -5.91225 0
M  V30 18026 C 1706.79 3.70477 -4.60978 0
M  V30 18027 C 1706.16 3.94226 -5.83751 0
M  V30 18028 H 1702.25 0.723035 -0.297899 0
M  V30 18029 H 1704.84 1.47676 -1.26885 0
M  V30 18030 H 1703.01 3.85843 -0.444975 0
M  V30 18031 H 1704.74 3.99413 -0.652024 0
M  V30 18032 H 1701.5 3.91195 -2.66953 0
M  V30 18033 H 1701.92 4.25155 -5.26852 0
M  V30 18034 H 1706.56 3.41928 -2.48687 0
M  V30 18035 H 1704.28 4.27866 -6.85533 0
M  V30 18036 H 1707.87 3.58537 -4.58195 0
M  V30 18037 H 1706.75 4.01151 -6.7383 0
M  V30 18038 N 1704.25 0.762308 1.37937 0
M  V30 18039 C 1705.5 0.322369 1.99918 0
M  V30 18040 C 1705.82 -1.09843 1.60514 0
M  V30 18041 O 1705.08 -1.76837 0.83829 0
M  V30 18042 C 1705.38 0.402558 3.55126 0
M  V30 18043 C 1705.04 1.78025 4.14268 0
M  V30 18044 C 1703.71 2.15727 4.30134 0
M  V30 18045 C 1706.06 2.68359 4.46803 0
M  V30 18046 C 1703.39 3.43217 4.75835 0
M  V30 18047 C 1705.74 3.95248 4.93925 0
M  V30 18048 C 1704.4 4.33007 5.07997 0
M  V30 18049 H 1703.67 0.117963 0.73155 0
M  V30 18050 H 1706.32 0.974491 1.64851 0
M  V30 18051 H 1704.62 -0.333119 3.90381 0
M  V30 18052 H 1706.32 0.0436064 4.00976 0
M  V30 18053 H 1702.91 1.4772 4.02339 0
M  V30 18054 H 1707.1 2.40493 4.34139 0
M  V30 18055 H 1702.35 3.72379 4.84916 0
M  V30 18056 H 1706.53 4.6538 5.18068 0
M  V30 18057 H 1704.15 5.31856 5.4317 0
M  V30 18058 N 1705.73 -1.49049 0.51208 0
M  V30 18059 C 1706.69 -2.27838 -0.249491 0
M  V30 18060 C 1707.69 -1.34321 -0.884004 0
M  V30 18061 O 1708.88 -1.57379 -0.74682 0
M  V30 18062 C 1706.01 -3.12637 -1.35908 0
M  V30 18063 H 1707.21 -2.96625 0.442029 0
M  V30 18064 H 1704.76 -1.53996 0.267406 0
M  V30 18065 H 1705.49 -2.48441 -2.0844 0
M  V30 18066 H 1705.28 -3.81408 -0.909427 0
M  V30 18067 H 1706.77 -3.72117 -1.89523 0
M  V30 18068 N 1707.21 -0.246397 -1.55662 0
M  V30 18069 C 1708.16 0.667276 -2.18017 0
M  V30 18070 C 1709.14 1.13957 -1.1359 0
M  V30 18071 O 1710.33 1.08942 -1.39501 0
M  V30 18072 C 1707.46 1.86414 -2.88279 0
M  V30 18073 C 1706.55 1.41037 -3.99962 0
M  V30 18074 N 1706.94 0.670796 -5.01332 0
M  V30 18075 C 1705.24 1.69569 -4.12507 0
M  V30 18076 C 1705.94 0.43594 -5.80064 0
M  V30 18077 N 1704.91 1 -5.34323 0
M  V30 18078 H 1708.71 0.0940693 -2.93749 0
M  V30 18079 H 1706.23 -0.048692 -1.62327 0
M  V30 18080 H 1708.23 2.5297 -3.31379 0
M  V30 18081 H 1706.89 2.44158 -2.14049 0
M  V30 18082 H 1707.9 0.320958 -5.16905 0
M  V30 18083 H 1704.57 2.28455 -3.49449 0
M  V30 18084 H 1705.96 -0.154438 -6.71722 0
M  V30 18085 N 1708.68 1.57577 0.026722 0
M  V30 18086 C 1710.09 1.77689 0.573022 0
M  V30 18087 C 1710.45 0.877771 1.7547 0
M  V30 18088 O 1709.57 0.0732156 2.16276 0
M  V30 18089 C 1710.17 3.22239 1.0463 0
M  V30 18090 C 1708.72 3.4354 1.5381 0
M  V30 18091 C 1707.87 2.73163 0.47722 0
M  V30 18092 H 1710.82 1.57441 -0.199502 0
M  V30 18093 H 1710.84 3.28882 1.91355 0
M  V30 18094 H 1710.36 3.87654 0.186047 0
M  V30 18095 H 1708.46 2.83304 2.42012 0
M  V30 18096 H 1708.57 4.52158 1.58398 0
M  V30 18097 H 1706.93 2.37004 0.932793 0
M  V30 18098 H 1707.72 3.41261 -0.373605 0
M  V30 18099 N 1710.16 -0.299034 1.54737 0
M  V30 18100 C 1711.41 -1.03164 1.7332 0
M  V30 18101 C 1711.72 -1.88362 0.527184 0
M  V30 18102 O 1712.93 -2.64903 0.594868 0
M  V30 18103 C 1711.39 -1.88391 3.06654 0
M  V30 18104 C 1710.99 -1.08187 4.34741 0
M  V30 18105 C 1712.74 -2.6124 3.34595 0
M  V30 18106 C 1710.64 -1.92702 5.59124 0
M  V30 18107 H 1709.57 -0.388887 0.645975 0
M  V30 18108 H 1712.23 -0.288544 1.81217 0
M  V30 18109 H 1710.61 -2.66696 2.92727 0
M  V30 18110 H 1711.78 -0.344817 4.59508 0
M  V30 18111 H 1710.1 -0.469118 4.13749 0
M  V30 18112 H 1712.69 -3.24826 4.24726 0
M  V30 18113 H 1713.04 -3.30172 2.53559 0
M  V30 18114 H 1713.57 -1.89982 3.49502 0
M  V30 18115 H 1710.31 -1.28236 6.42834 0
M  V30 18116 H 1709.83 -2.64074 5.38539 0
M  V30 18117 H 1711.51 -2.50702 5.96454 0
M  V30 18118 N 1711.64 -1.47227 -0.562322 0
M  V30 18119 C 1712.89 -1.53589 -1.31972 0
M  V30 18120 C 1713.21 -0.196019 -1.9351 0
M  V30 18121 O 1712.47 0.81056 -1.78125 0
M  V30 18122 C 1712.77 -2.59832 -2.45402 0
M  V30 18123 C 1712.43 -4.03258 -2.01728 0
M  V30 18124 C 1711.1 -4.42302 -1.89533 0
M  V30 18125 C 1713.45 -4.93272 -1.68321 0
M  V30 18126 C 1710.78 -5.69202 -1.42219 0
M  V30 18127 C 1713.13 -6.2063 -1.2248 0
M  V30 18128 C 1711.79 -6.58561 -1.08877 0
M  V30 18129 H 1711.06 -0.562022 -0.482921 0
M  V30 18130 H 1713.71 -1.80801 -0.631119 0
M  V30 18131 H 1712.01 -2.26357 -3.19796 0
M  V30 18132 H 1713.71 -2.61979 -3.03592 0
M  V30 18133 H 1710.3 -3.72406 -2.1216 0
M  V30 18134 H 1714.49 -4.6381 -1.76618 0
M  V30 18135 H 1709.74 -5.97344 -1.30347 0
M  V30 18136 H 1713.92 -6.89794 -0.956907 0
M  V30 18137 H 1711.54 -7.56783 -0.719922 0
M  V30 18138 N 1713.12 0.808639 -1.35273 0
M  V30 18139 C 1714.53 1.10389 -1.15267 0
M  V30 18140 C 1714.73 2.01467 0.0362501 0
M  V30 18141 O 1713.79 2.42386 0.707477 0
M  V30 18142 C 1715.1 1.73685 -2.45467 0
M  V30 18143 C 1716.65 1.86115 -2.51655 0
M  V30 18144 C 1717.13 2.52826 -3.81894 0
M  V30 18145 N 1718.62 2.60313 -3.83134 0
M  V30 18146 C 1719.35 3.12694 -4.80635 0
M  V30 18147 N 1718.85 3.6553 -5.88523 0
M  V30 18148 N 1720.64 3.11228 -4.68074 0
M  V30 18149 H 1712.79 0.203141 -2.11426 0
M  V30 18150 H 1715.05 0.152706 -0.93562 0
M  V30 18151 H 1714.76 1.14228 -3.32633 0
M  V30 18152 H 1714.63 2.73406 -2.59864 0
M  V30 18153 H 1717.02 2.44715 -1.64919 0
M  V30 18154 H 1717.1 0.852547 -2.41175 0
M  V30 18155 H 1716.75 1.94875 -4.69027 0
M  V30 18156 H 1716.68 3.54219 -3.89662 0
M  V30 18157 H 1719.17 2.22878 -3.05178 0
M  V30 18158 H 1719.48 4.03793 -6.58917 0
M  V30 18159 H 1717.83 3.63734 -5.92218 0
M  V30 18160 H 1721.02 2.69228 -3.82928 0
M  V30 18161 H 1721.19 3.51745 -5.44224 0
M  V30 18162 N 1714.6 1.19237 1.03055 0
M  V30 18163 C 1715.54 0.925171 2.13409 0
M  V30 18164 C 1716.54 -0.118373 1.68986 0
M  V30 18165 O 1717.74 0.0307159 1.79974 0
M  V30 18166 H 1714.12 0.281769 0.697216 0
M  V30 18167 H 1716.09 1.86252 2.33137 0
M  V30 18168 C 1714.84 0.478529 3.44391 0
M  V30 18169 H 1714.16 1.27305 3.7899 0
M  V30 18170 H 1715.6 0.330661 4.22709 0
M  V30 18171 C 1714.06 -0.80715 3.27088 0
M  V30 18172 O 1714.59 -1.86897 3.55573 0
M  V30 18173 N 1712.8 -0.76373 2.80385 0
M  V30 18174 H 1712.34 0.100606 2.57403 0
M  V30 18175 H 1712.3 -1.62435 2.69188 0
M  V30 18176 N 1716.07 -1.22136 0.99602 0
M  V30 18177 C 1717.32 -1.9059 0.672303 0
M  V30 18178 C 1717.64 -1.77903 -0.798476 0
M  V30 18179 O 1716.91 -1.1682 -1.57257 0
M  V30 18180 H 1715.49 -0.705445 0.245676 0
M  V30 18181 H 1718.16 -1.48423 1.2632 0
M  V30 18182 H 1717.25 -2.97684 0.937577 0
M  V30 18183 N 1717.55 -0.769612 -1.37531 0
M  V30 18184 C 1718.83 -0.257788 -1.93894 0
M  V30 18185 C 1719.21 1.24679 -1.70348 0
M  V30 18186 O 1718.56 2.02892 -1.05106 0
M  V30 18187 C 1718.77 -0.628857 -3.43288 0
M  V30 18188 C 1720.12 -0.597452 -4.20376 0
M  V30 18189 O 1721.14 -0.568117 -3.5164 0
M  V30 18190 O 1720 -0.622627 -5.42942 0
M  V30 18191 H 1717.09 -0.0588144 -0.824906 0
M  V30 18192 H 1719.64 -0.85082 -1.4683 0
M  V30 18193 H 1718.41 -1.66733 -3.54 0
M  V30 18194 H 1718.03 -0.00865929 -3.97599 0
M  V30 18195 N 1719.03 1.48775 -0.519977 0
M  V30 18196 C 1720.26 2.06595 0.013978 0
M  V30 18197 C 1720.67 1.37819 1.29624 0
M  V30 18198 O 1720.01 0.456315 1.77942 0
M  V30 18199 C 1720.07 3.58085 0.318694 0
M  V30 18200 C 1719.74 4.48669 -0.868623 0
M  V30 18201 C 1720.73 4.89048 -1.76432 0
M  V30 18202 C 1718.42 4.9071 -1.07279 0
M  V30 18203 C 1720.41 5.70226 -2.84818 0
M  V30 18204 C 1718.1 5.7166 -2.15981 0
M  V30 18205 C 1719.1 6.11325 -3.04583 0
M  V30 18206 O 1718.79 6.90653 -4.11405 0
M  V30 18207 H 1718.52 0.675506 -0.02584 0
M  V30 18208 H 1721.07 1.92289 -0.722099 0
M  V30 18209 H 1719.3 3.70468 1.10861 0
M  V30 18210 H 1720.99 3.98068 0.793529 0
M  V30 18211 H 1721.76 4.57198 -1.61848 0
M  V30 18212 H 1717.64 4.59326 -0.392454 0
M  V30 18213 H 1721.18 6.01105 -3.54004 0
M  V30 18214 H 1717.08 6.02923 -2.30552 0
M  V30 18215 H 1717.85 7.08991 -4.08992 0
M  V30 18216 N 1720.51 0.254649 1.55529 0
M  V30 18217 C 1721.92 -0.247042 1.85058 0
M  V30 18218 C 1722.27 -1.57009 1.17655 0
M  V30 18219 O 1721.4 -2.11506 0.457638 0
M  V30 18220 C 1721.99 -0.455017 3.35731 0
M  V30 18221 C 1720.55 -0.900961 3.65458 0
M  V30 18222 C 1719.7 0.0174436 2.77295 0
M  V30 18223 H 1722.65 0.477005 1.51362 0
M  V30 18224 H 1722.67 -1.29654 3.57729 0
M  V30 18225 H 1722.18 0.508076 3.8476 0
M  V30 18226 H 1720.28 -1.87625 3.21913 0
M  V30 18227 H 1720.39 -0.752458 4.73154 0
M  V30 18228 H 1718.76 -0.495296 2.49838 0
M  V30 18229 H 1719.54 0.976049 3.29132 0
M  V30 18230 N 1721.99 -1.57589 -0.0183649 0
M  V30 18231 C 1723.26 -1.80938 -0.743021 0
M  V30 18232 C 1723.64 -0.855272 -1.92998 0
M  V30 18233 O 1722.99 0.100181 -2.2828 0
M  V30 18234 C 1723.2 -3.28945 -1.16602 0
M  V30 18235 C 1724.55 -3.94208 -1.5775 0
M  V30 18236 O 1725.57 -3.33159 -1.26031 0
M  V30 18237 O 1724.43 -5.01716 -2.16663 0
M  V30 18238 H 1721.53 -0.744435 -0.360203 0
M  V30 18239 H 1724.07 -1.69699 0.00567963 0
M  V30 18240 H 1722.84 -3.89996 -0.319154 0
M  V30 18241 H 1722.47 -3.45113 -1.9744 0
M  V30 18242 N 1723.46 0.290824 -1.54893 0
M  V30 18243 C 1724.69 1.04344 -1.78661 0
M  V30 18244 C 1725.11 1.80578 -0.551083 0
M  V30 18245 O 1724.46 1.76091 0.479394 0
M  V30 18246 C 1724.52 2.01604 -3.00064 0
M  V30 18247 O 1724.24 1.28461 -4.18843 0
M  V30 18248 C 1725.74 2.88822 -3.36298 0
M  V30 18249 H 1722.96 0.309018 -0.595608 0
M  V30 18250 H 1725.5 0.327011 -2.01868 0
M  V30 18251 H 1723.66 2.68735 -2.79035 0
M  V30 18252 H 1724.07 1.93864 -4.87357 0
M  V30 18253 H 1725.54 3.52898 -4.24461 0
M  V30 18254 H 1726.02 3.5766 -2.54904 0
M  V30 18255 H 1726.63 2.27208 -3.59523 0
M  V30 18256 N 1724.94 1.47523 0.554506 0
M  V30 18257 C 1725.88 1.54756 1.67707 0
M  V30 18258 C 1726.85 0.39953 1.57615 0
M  V30 18259 O 1728.04 0.60771 1.78435 0
M  V30 18260 C 1725.16 1.45263 3.05968 0
M  V30 18261 C 1724.21 2.64602 3.34497 0
M  V30 18262 S 1725.04 4.26775 3.23455 0
M  V30 18263 C 1726.2 4.19839 4.64204 0
M  V30 18264 H 1726.43 2.49728 1.61318 0
M  V30 18265 H 1723.97 1.35754 0.735541 0
M  V30 18266 H 1725.92 1.40473 3.85717 0
M  V30 18267 H 1724.58 0.516709 3.09821 0
M  V30 18268 H 1723.78 2.5403 4.35298 0
M  V30 18269 H 1723.38 2.66528 2.62372 0
M  V30 18270 H 1725.67 3.8826 5.55212 0
M  V30 18271 H 1726.61 5.20736 4.79833 0
M  V30 18272 H 1727.02 3.5066 4.42378 0
M  V30 18273 N 1726.42 -0.801453 1.357 0
M  V30 18274 C 1727.37 -1.91355 1.29043 0
M  V30 18275 C 1728.34 -1.65314 0.161381 0
M  V30 18276 O 1729.52 -1.87638 0.345928 0
M  V30 18277 C 1726.66 -3.27979 1.07348 0
M  V30 18278 C 1725.78 -3.66172 2.29221 0
M  V30 18279 C 1724.91 -4.91853 2.00635 0
M  V30 18280 C 1723.95 -5.22688 3.18533 0
M  V30 18281 N 1723.09 -6.3955 2.8969 0
M  V30 18282 H 1727.93 -1.96381 2.24139 0
M  V30 18283 H 1725.46 -0.960502 1.11413 0
M  V30 18284 H 1727.42 -4.06748 0.928002 0
M  V30 18285 H 1726.05 -3.22408 0.159115 0
M  V30 18286 H 1725.1 -2.82623 2.54615 0
M  V30 18287 H 1726.42 -3.84916 3.1724 0
M  V30 18288 H 1725.57 -5.78459 1.82947 0
M  V30 18289 H 1724.31 -4.75154 1.09908 0
M  V30 18290 H 1723.31 -4.34569 3.36793 0
M  V30 18291 H 1724.54 -5.41313 4.10069 0
M  V30 18292 H 1722.48 -6.24266 2.01562 0
M  V30 18293 H 1722.4 -6.58569 3.71245 0
M  V30 18294 H 1723.67 -7.29171 2.75555 0
M  V30 18295 N 1727.9 -1.19782 -1.02421 0
M  V30 18296 C 1729.14 -1.01483 -1.76275 0
M  V30 18297 C 1729.5 0.449171 -1.87083 0
M  V30 18298 O 1728.79 1.32915 -1.38 0
M  V30 18299 C 1728.99 -1.62297 -3.18425 0
M  V30 18300 C 1728.82 -3.14459 -3.21474 0
M  V30 18301 C 1727.59 -3.83389 -3.29152 0
M  V30 18302 C 1729.78 -4.11771 -3.08138 0
M  V30 18303 N 1727.77 -5.22906 -3.21625 0
M  V30 18304 C 1729.14 -5.37916 -3.08296 0
M  V30 18305 C 1731.19 -4.0307 -2.92299 0
M  V30 18306 C 1729.89 -6.56365 -2.9424 0
M  V30 18307 C 1731.92 -5.21134 -2.79594 0
M  V30 18308 C 1731.28 -6.4618 -2.80411 0
M  V30 18309 H 1727.38 -0.425521 -0.656092 0
M  V30 18310 H 1729.97 -1.5183 -1.21884 0
M  V30 18311 H 1728.14 -1.14546 -3.71125 0
M  V30 18312 H 1729.87 -1.37389 -3.80666 0
M  V30 18313 H 1726.62 -3.34205 -3.35565 0
M  V30 18314 H 1727.05 -5.95923 -3.21256 0
M  V30 18315 H 1731.69 -3.07209 -2.90487 0
M  V30 18316 H 1729.41 -7.52408 -2.94802 0
M  V30 18317 H 1732.99 -5.16207 -2.68368 0
M  V30 18318 H 1731.87 -7.36001 -2.70688 0
M  V30 18319 N 1729.38 1.21606 -1.00248 0
M  V30 18320 C 1730.32 2.23884 -0.560771 0
M  V30 18321 C 1731.29 1.60913 0.411864 0
M  V30 18322 O 1732.48 1.88191 0.314476 0
M  V30 18323 C 1729.62 3.44928 0.108948 0
M  V30 18324 C 1728.73 4.22381 -0.906566 0
M  V30 18325 C 1727.87 5.30787 -0.20937 0
M  V30 18326 C 1726.91 5.99969 -1.2126 0
M  V30 18327 N 1726.04 6.99997 -0.543057 0
M  V30 18328 H 1730.88 2.61029 -1.43764 0
M  V30 18329 H 1728.42 1.28278 -0.719937 0
M  V30 18330 H 1730.38 4.14019 0.514244 0
M  V30 18331 H 1729.01 3.08518 0.949544 0
M  V30 18332 H 1728.06 3.52493 -1.43012 0
M  V30 18333 H 1729.37 4.70009 -1.67013 0
M  V30 18334 H 1728.53 6.06176 0.252164 0
M  V30 18335 H 1727.27 4.84159 0.586621 0
M  V30 18336 H 1726.27 5.23353 -1.68467 0
M  V30 18337 H 1727.5 6.48684 -2.00963 0
M  V30 18338 H 1725.44 6.55585 0.233324 0
M  V30 18339 H 1725.36 7.45679 -1.24492 0
M  V30 18340 H 1726.63 7.7943 -0.104643 0
M  V30 18341 N 1730.86 0.776895 1.37121 0
M  V30 18342 C 1732.1 0.344063 1.9986 0
M  V30 18343 C 1732.43 -1.07806 1.61529 0
M  V30 18344 O 1731.71 -1.74258 0.863963 0
M  V30 18345 C 1731.99 0.493512 3.56702 0
M  V30 18346 C 1731.85 1.95842 4.04927 0
M  V30 18347 C 1733.16 -0.099097 4.39988 0
M  V30 18348 H 1730.28 0.126489 0.726064 0
M  V30 18349 H 1732.93 0.980899 1.62722 0
M  V30 18350 H 1731.08 -0.0486344 3.8847 0
M  V30 18351 H 1732.75 2.56067 3.83702 0
M  V30 18352 H 1730.99 2.46544 3.56929 0
M  V30 18353 H 1731.66 2.01402 5.13947 0
M  V30 18354 H 1734.14 0.363545 4.14509 0
M  V30 18355 H 1733.01 0.0355748 5.48888 0
M  V30 18356 H 1733.27 -1.18995 4.25785 0
M  V30 18357 N 1732.33 -1.48497 0.527859 0
M  V30 18358 C 1733.58 -2.02099 -0.00699772 0
M  V30 18359 C 1733.9 -1.40742 -1.34969 0
M  V30 18360 O 1733.17 -0.572059 -1.87361 0
M  V30 18361 H 1731.75 -0.746979 -0.00557445 0
M  V30 18362 H 1734.41 -1.82231 0.691209 0
M  V30 18363 H 1733.51 -3.11881 -0.116893 0
M  V30 18364 N 1733.81 -0.262893 -1.55392 0
M  V30 18365 C 1734.76 0.645946 -2.23451 0
M  V30 18366 C 1735.75 1.16753 -1.2274 0
M  V30 18367 O 1736.96 1.12257 -1.40706 0
M  V30 18368 H 1733.33 0.226829 -0.716975 0
M  V30 18369 H 1735.31 0.0489539 -2.9836 0
M  V30 18370 C 1734.05 1.82451 -2.95985 0
M  V30 18371 H 1733.38 1.43233 -3.73262 0
M  V30 18372 H 1734.82 2.43731 -3.46945 0
M  V30 18373 C 1733.28 2.7055 -2.0076 0
M  V30 18374 O 1733.81 3.70552 -1.55093 0
M  V30 18375 N 1732.01 2.37457 -1.67519 0
M  V30 18376 H 1731.56 1.56184 -2.04852 0
M  V30 18377 H 1731.52 2.96675 -1.04074 0
M  V30 18378 N 1735.29 1.57597 0.0100073 0
M  V30 18379 C 1736.71 1.55348 0.365949 0
M  V30 18380 C 1736.91 0.991487 1.75419 0
M  V30 18381 O 1735.96 0.620894 2.44747 0
M  V30 18382 C 1737.27 2.99656 0.250343 0
M  V30 18383 C 1738.82 3.11297 0.326023 0
M  V30 18384 C 1739.3 4.57373 0.239653 0
M  V30 18385 N 1740.79 4.62241 0.297863 0
M  V30 18386 C 1741.52 5.72836 0.254219 0
M  V30 18387 N 1741.02 6.92611 0.161753 0
M  V30 18388 N 1742.81 5.6127 0.30535 0
M  V30 18389 H 1734.96 1.92471 -0.898253 0
M  V30 18390 H 1737.23 0.883623 -0.343386 0
M  V30 18391 H 1736.93 3.44574 -0.704407 0
M  V30 18392 H 1736.81 3.62682 1.03643 0
M  V30 18393 H 1739.19 2.66316 1.27121 0
M  V30 18394 H 1739.27 2.51068 -0.489756 0
M  V30 18395 H 1738.92 5.03026 -0.70195 0
M  V30 18396 H 1738.85 5.15536 1.07379 0
M  V30 18397 H 1741.34 3.76074 0.371065 0
M  V30 18398 H 1741.65 7.72684 0.134073 0
M  V30 18399 H 1740 6.94883 0.127524 0
M  V30 18400 H 1743.19 4.6659 0.375713 0
M  V30 18401 H 1743.36 6.47446 0.267871 0
M  V30 18402 N 1736.77 -0.282606 1.55045 0
M  V30 18403 C 1737.99 -1.03825 1.79542 0
M  V30 18404 C 1738.42 -1.79503 0.562165 0
M  V30 18405 O 1737.78 -1.7461 -0.487946 0
M  V30 18406 C 1737.82 -1.98007 3.01373 0
M  V30 18407 O 1736.93 -3.06621 2.75785 0
M  V30 18408 H 1736.27 -0.297333 0.593708 0
M  V30 18409 H 1738.8 -0.314434 2.02169 0
M  V30 18410 H 1738.81 -2.40138 3.29845 0
M  V30 18411 H 1737.48 -1.42335 3.90786 0
M  V30 18412 H 1736.06 -2.68874 2.58382 0
M  V30 18413 N 1738.25 -1.47815 -0.546675 0
M  V30 18414 C 1739.16 -1.63744 -1.68003 0
M  V30 18415 C 1740.17 -0.520118 -1.66044 0
M  V30 18416 O 1741.35 -0.789033 -1.853 0
M  V30 18417 C 1738.41 -1.65778 -3.04497 0
M  V30 18418 C 1737.47 -2.89015 -3.17441 0
M  V30 18419 C 1736.71 -2.90943 -4.47424 0
M  V30 18420 O 1736.93 -2.01769 -5.33522 0
M  V30 18421 O 1735.86 -3.82927 -4.64382 0
M  V30 18422 H 1739.69 -2.59665 -1.57505 0
M  V30 18423 H 1737.27 -1.31022 -0.717883 0
M  V30 18424 H 1739.16 -1.69734 -3.85705 0
M  V30 18425 H 1737.83 -0.730268 -3.15355 0
M  V30 18426 H 1736.74 -2.90599 -2.35591 0
M  V30 18427 H 1738.07 -3.81095 -3.11492 0
M  V30 18428 N 1739.72 0.794246 -1.36123 0
M  V30 18429 C 1740.65 1.92105 -1.32732 0
M  V30 18430 C 1741.63 1.68925 -0.199603 0
M  V30 18431 O 1742.82 1.90109 -0.396498 0
M  V30 18432 C 1739.95 3.29051 -1.11098 0
M  V30 18433 C 1738.9 3.66743 -2.20643 0
M  V30 18434 C 1738.23 5.01986 -1.84159 0
M  V30 18435 C 1739.53 3.75831 -3.62696 0
M  V30 18436 H 1741.22 1.952 -2.27018 0
M  V30 18437 H 1738.77 0.937746 -1.09281 0
M  V30 18438 H 1740.72 4.07494 -1.07362 0
M  V30 18439 H 1739.45 3.26331 -0.132614 0
M  V30 18440 H 1738.11 2.90594 -2.23497 0
M  V30 18441 H 1737.75 4.95782 -0.849081 0
M  V30 18442 H 1737.45 5.28175 -2.57497 0
M  V30 18443 H 1738.98 5.82855 -1.8197 0
M  V30 18444 H 1740.39 4.44476 -3.62096 0
M  V30 18445 H 1738.79 4.135 -4.34899 0
M  V30 18446 H 1739.86 2.7706 -3.97952 0
M  V30 18447 N 1741.2 1.20323 1.01785 0
M  V30 18448 C 1742.13 0.908716 2.10416 0
M  V30 18449 C 1743.15 -0.103029 1.62474 0
M  V30 18450 O 1744.34 0.127825 1.78042 0
M  V30 18451 C 1741.44 0.340601 3.37184 0
M  V30 18452 C 1740.61 1.40358 4.14268 0
M  V30 18453 C 1739.67 0.847016 5.19338 0
M  V30 18454 O 1738.69 1.5274 5.48324 0
M  V30 18455 N 1739.9 -0.344198 5.79479 0
M  V30 18456 H 1742.66 1.84383 2.36269 0
M  V30 18457 H 1740.22 1.10673 1.18165 0
M  V30 18458 H 1742.21 -0.0458443 4.04674 0
M  V30 18459 H 1740.78 -0.499042 3.08591 0
M  V30 18460 H 1740 1.96442 3.41766 0
M  V30 18461 H 1741.29 2.11952 4.62551 0
M  V30 18462 H 1740.69 -0.914263 5.58263 0
M  V30 18463 H 1739.25 -0.672296 6.48324 0
M  V30 18464 N 1742.68 -1.21073 1.00892 0
M  V30 18465 C 1743.63 -2.21426 0.543574 0
M  V30 18466 C 1744.61 -1.55927 -0.396938 0
M  V30 18467 O 1745.81 -1.75613 -0.221152 0
M  V30 18468 C 1742.93 -3.43074 -0.124494 0
M  V30 18469 C 1742.02 -4.15753 0.837269 0
M  V30 18470 N 1742.41 -4.64936 1.99168 0
M  V30 18471 C 1740.71 -4.41142 0.656473 0
M  V30 18472 C 1741.41 -5.20527 2.59666 0
M  V30 18473 N 1740.39 -5.10133 1.87792 0
M  V30 18474 H 1744.19 -2.5711 1.42378 0
M  V30 18475 H 1741.7 -1.36923 0.873254 0
M  V30 18476 H 1743.7 -4.14181 -0.475363 0
M  V30 18477 H 1742.36 -3.08897 -1.00064 0
M  V30 18478 H 1743.37 -4.60392 2.37191 0
M  V30 18479 H 1740.05 -4.17144 -0.172261 0
M  V30 18480 H 1741.44 -5.69011 3.57318 0
M  V30 18481 N 1744.16 -0.784156 -1.36707 0
M  V30 18482 C 1745.09 -0.193081 -2.327 0
M  V30 18483 C 1746.07 0.668999 -1.56392 0
M  V30 18484 O 1747.25 0.603908 -1.84571 0
M  V30 18485 C 1744.38 0.677092 -3.40636 0
M  V30 18486 C 1743.34 -0.0846718 -4.27916 0
M  V30 18487 C 1742.66 0.905754 -5.26973 0
M  V30 18488 C 1743.96 -1.27085 -5.06603 0
M  V30 18489 H 1745.66 -0.995029 -2.82382 0
M  V30 18490 H 1743.2 -0.479929 -1.35767 0
M  V30 18491 H 1745.16 1.1005 -4.06776 0
M  V30 18492 H 1743.88 1.51169 -2.89509 0
M  V30 18493 H 1742.54 -0.488992 -3.63324 0
M  V30 18494 H 1742.19 1.73524 -4.72121 0
M  V30 18495 H 1741.89 0.400524 -5.86233 0
M  V30 18496 H 1743.41 1.32784 -5.95987 0
M  V30 18497 H 1744.83 -0.923469 -5.65814 0
M  V30 18498 H 1743.22 -1.70901 -5.7525 0
M  V30 18499 H 1744.29 -2.06882 -4.38552 0
M  V30 18500 N 1745.64 1.48215 -0.535727 0
M  V30 18501 C 1746.6 2.28206 0.213212 0
M  V30 18502 C 1747.6 1.3571 0.862522 0
M  V30 18503 O 1748.79 1.58547 0.721688 0
M  V30 18504 C 1745.92 3.1476 1.30917 0
M  V30 18505 H 1747.11 2.95884 -0.489163 0
M  V30 18506 H 1744.67 1.53551 -0.291872 0
M  V30 18507 H 1745.4 2.51726 2.04462 0
M  V30 18508 H 1745.19 3.82806 0.848633 0
M  V30 18509 H 1746.68 3.75085 1.83579 0
M  V30 18510 N 1747.11 0.27113 1.5525 0
M  V30 18511 C 1748.34 -0.350248 2.03914 0
M  V30 18512 C 1748.76 -1.49763 1.14963 0
M  V30 18513 O 1748.11 -1.81717 0.168923 0
M  V30 18514 C 1748.17 -0.835056 3.51723 0
M  V30 18515 O 1747.89 0.266625 4.37288 0
M  V30 18516 C 1749.39 -1.52466 4.16256 0
M  V30 18517 H 1746.61 -0.0803955 0.666166 0
M  V30 18518 H 1749.15 0.402063 2.00509 0
M  V30 18519 H 1747.31 -1.53747 3.55585 0
M  V30 18520 H 1747.72 -0.105433 5.24394 0
M  V30 18521 H 1749.19 -1.81534 5.21296 0
M  V30 18522 H 1749.67 -2.45485 3.64189 0
M  V30 18523 H 1750.28 -0.8662 4.16386 0
M  V30 18524 N 1748.59 -1.576 -0.00164943 0
M  V30 18525 C 1749.82 -1.95176 -0.701511 0
M  V30 18526 C 1750.24 -0.873191 -1.66604 0
M  V30 18527 O 1749.6 0.168818 -1.80512 0
M  V30 18528 C 1749.65 -3.31847 -1.41104 0
M  V30 18529 O 1748.75 -3.26034 -2.52539 0
M  V30 18530 H 1748.09 -0.637207 -0.186718 0
M  V30 18531 H 1750.62 -2.04536 0.0510494 0
M  V30 18532 H 1750.63 -3.67374 -1.77483 0
M  V30 18533 H 1749.31 -4.09901 -0.70382 0
M  V30 18534 H 1747.89 -3.0218 -2.18499 0
M  V30 18535 N 1750.07 0.274379 -1.55193 0
M  V30 18536 C 1751.49 0.621497 -1.47002 0
M  V30 18537 C 1751.69 1.89572 -0.682995 0
M  V30 18538 O 1750.74 2.51696 -0.201296 0
M  V30 18539 C 1752.06 0.749741 -2.91203 0
M  V30 18540 C 1753.6 0.843886 -3.01409 0
M  V30 18541 C 1754.08 1.00392 -4.46862 0
M  V30 18542 N 1755.57 1.06947 -4.50684 0
M  V30 18543 C 1756.3 1.21207 -5.60443 0
M  V30 18544 N 1755.8 1.32195 -6.80071 0
M  V30 18545 N 1757.59 1.24307 -5.48183 0
M  V30 18546 H 1749.74 -0.562462 -2.04817 0
M  V30 18547 H 1752.01 -0.190205 -0.928723 0
M  V30 18548 H 1751.71 -0.116074 -3.51508 0
M  V30 18549 H 1751.59 1.63046 -3.40141 0
M  V30 18550 H 1753.97 1.70017 -2.41202 0
M  V30 18551 H 1754.06 -0.061411 -2.55726 0
M  V30 18552 H 1753.7 0.152298 -5.07672 0
M  V30 18553 H 1753.63 1.92384 -4.902 0
M  V30 18554 H 1756.12 0.997012 -3.64511 0
M  V30 18555 H 1756.43 1.42906 -7.59472 0
M  V30 18556 H 1754.78 1.29202 -6.82885 0
M  V30 18557 H 1757.97 1.15352 -4.53665 0
M  V30 18558 H 1758.14 1.35076 -6.33765 0
M  V30 18559 N 1751.55 1.48103 0.538828 0
M  V30 18560 C 1752.48 1.64856 1.65363 0
M  V30 18561 C 1753.46 0.497579 1.6266 0
M  V30 18562 O 1754.64 0.729088 1.79994 0
M  V30 18563 C 1751.77 1.67984 3.03971 0
M  V30 18564 C 1750.73 2.82494 3.21529 0
M  V30 18565 C 1750.05 2.70706 4.6111 0
M  V30 18566 C 1751.35 4.23892 3.05145 0
M  V30 18567 H 1753.05 2.58183 1.51598 0
M  V30 18568 H 1750.59 1.24249 0.727886 0
M  V30 18569 H 1752.55 1.78294 3.81824 0
M  V30 18570 H 1751.27 0.712299 3.18738 0
M  V30 18571 H 1749.93 2.71725 2.46091 0
M  V30 18572 H 1749.58 1.7194 4.727 0
M  V30 18573 H 1749.28 3.47539 4.73804 0
M  V30 18574 H 1750.8 2.82971 5.41073 0
M  V30 18575 H 1752.22 4.3554 3.72797 0
M  V30 18576 H 1750.61 5.01654 3.29338 0
M  V30 18577 H 1751.68 4.40973 2.01671 0
M  V30 18578 N 1753.03 -0.787016 1.36542 0
M  V30 18579 C 1754.44 -1.36234 1.2766 0
M  V30 18580 C 1754.79 -1.96026 -0.0825391 0
M  V30 18581 O 1753.91 -1.92731 -0.984059 0
M  V30 18582 C 1754.51 -2.47684 2.31167 0
M  V30 18583 C 1753.07 -3.01026 2.25966 0
M  V30 18584 C 1752.21 -1.74122 2.15816 0
M  V30 18585 H 1755.17 -0.58847 1.47386 0
M  V30 18586 H 1755.19 -3.26765 1.94949 0
M  V30 18587 H 1754.7 -2.04136 3.30076 0
M  V30 18588 H 1752.8 -3.48988 1.30531 0
M  V30 18589 H 1752.91 -3.57677 3.18754 0
M  V30 18590 H 1751.28 -1.9645 1.6211 0
M  V30 18591 H 1752.06 -1.32699 3.16616 0
M  V30 18592 N 1754.5 -1.20861 -1.01145 0
M  V30 18593 C 1755.73 -1.04843 -1.78949 0
M  V30 18594 C 1756.15 0.397676 -1.83848 0
M  V30 18595 O 1755.51 1.28663 -1.27733 0
M  V30 18596 C 1755.56 -1.64267 -3.21012 0
M  V30 18597 O 1754.66 -0.883773 -4.02819 0
M  V30 18598 H 1754.01 -0.36941 -0.551754 0
M  V30 18599 H 1756.54 -1.60266 -1.27185 0
M  V30 18600 H 1756.55 -1.68218 -3.71708 0
M  V30 18601 H 1755.22 -2.69509 -3.16761 0
M  V30 18602 H 1753.8 -0.918866 -3.61402 0
M  V30 18603 N 1755.98 1.20536 -1.01532 0
M  V30 18604 C 1757.23 1.89871 -0.70393 0
M  V30 18605 C 1757.56 1.78768 0.76631 0
M  V30 18606 O 1756.81 1.1653 1.57224 0
M  V30 18607 C 1757.11 3.40578 -1.08358 0
M  V30 18608 C 1756.78 3.71881 -2.54981 0
M  V30 18609 C 1755.44 3.80135 -2.95044 0
M  V30 18610 C 1757.79 3.86282 -3.49909 0
M  V30 18611 C 1755.12 4.00246 -4.28976 0
M  V30 18612 C 1757.47 4.07902 -4.83527 0
M  V30 18613 C 1756.14 4.14385 -5.23298 0
M  V30 18614 H 1755.41 0.694788 -0.257586 0
M  V30 18615 H 1758.05 1.42825 -1.27567 0
M  V30 18616 H 1756.36 3.89431 -0.430234 0
M  V30 18617 H 1758.05 3.92519 -0.820353 0
M  V30 18618 H 1754.64 3.66055 -2.22938 0
M  V30 18619 H 1758.83 3.79261 -3.20117 0
M  V30 18620 H 1754.08 4.03499 -4.59345 0
M  V30 18621 H 1758.26 4.17987 -5.5701 0
M  V30 18622 H 1755.89 4.29721 -6.27092 0
M  V30 18623 N 1757.46 0.791395 1.36289 0
M  V30 18624 C 1758.69 0.376696 2.03442 0
M  V30 18625 C 1759.1 -1.00753 1.59669 0
M  V30 18626 O 1758.46 -1.64657 0.787042 0
M  V30 18627 C 1758.51 0.433074 3.58897 0
M  V30 18628 O 1758.23 1.76272 4.01073 0
M  V30 18629 C 1759.73 0.00925475 4.43299 0
M  V30 18630 H 1756.95 0.154989 0.652855 0
M  V30 18631 H 1759.5 1.07079 1.74225 0
M  V30 18632 H 1757.65 -0.212623 3.86816 0
M  V30 18633 H 1758.07 1.71492 4.95672 0
M  V30 18634 H 1759.54 0.0998386 5.5191 0
M  V30 18635 H 1760.02 -1.04362 4.26621 0
M  V30 18636 H 1760.62 0.627518 4.20645 0
M  V30 18637 N 1758.94 -1.47929 0.54358 0
M  V30 18638 C 1759.85 -2.33611 -0.215191 0
M  V30 18639 C 1760.87 -1.47343 -0.925526 0
M  V30 18640 O 1762.04 -1.80299 -0.897459 0
M  V30 18641 C 1759.11 -3.23755 -1.24031 0
M  V30 18642 C 1758.17 -4.25904 -0.538874 0
M  V30 18643 C 1757.4 -5.11741 -1.51516 0
M  V30 18644 O 1757.62 -4.9979 -2.74893 0
M  V30 18645 O 1756.56 -5.92722 -1.0471 0
M  V30 18646 H 1760.38 -2.99765 0.487279 0
M  V30 18647 H 1757.97 -1.46267 0.30434 0
M  V30 18648 H 1759.85 -3.79475 -1.8324 0
M  V30 18649 H 1758.53 -2.60245 -1.92495 0
M  V30 18650 H 1757.43 -3.73982 0.0940539 0
M  V30 18651 H 1758.77 -4.9209 0.104063 0
M  V30 18652 N 1760.42 -0.27936 -1.55104 0
M  V30 18653 C 1761.33 0.616249 -2.26361 0
M  V30 18654 C 1762.34 1.16656 -1.29102 0
M  V30 18655 O 1763.52 1.19596 -1.62046 0
M  V30 18656 C 1760.58 1.78191 -2.97403 0
M  V30 18657 C 1759.65 1.26785 -4.10151 0
M  V30 18658 C 1758.88 2.37795 -4.77796 0
M  V30 18659 O 1759.1 3.57242 -4.44673 0
M  V30 18660 O 1758.04 2.05711 -5.65656 0
M  V30 18661 H 1761.86 0.0388715 -3.03675 0
M  V30 18662 H 1759.45 -0.0466058 -1.49327 0
M  V30 18663 H 1761.33 2.4615 -3.42036 0
M  V30 18664 H 1760 2.3463 -2.23003 0
M  V30 18665 H 1758.91 0.554608 -3.69966 0
M  V30 18666 H 1760.24 0.749157 -4.86465 0
M  V30 18667 N 1761.9 1.57599 -0.0067085 0
M  V30 18668 C 1762.81 2.1228 0.998709 0
M  V30 18669 C 1763.82 1.06964 1.37239 0
M  V30 18670 O 1765 1.38902 1.45836 0
M  V30 18671 C 1762.06 2.62076 2.26973 0
M  V30 18672 C 1761.12 3.8202 1.95855 0
M  V30 18673 C 1760.36 4.29431 3.16898 0
M  V30 18674 O 1760.58 3.76136 4.2881 0
M  V30 18675 O 1759.51 5.21518 3.00504 0
M  V30 18676 H 1763.34 2.9842 0.563849 0
M  V30 18677 H 1760.92 1.47881 0.212535 0
M  V30 18678 H 1762.81 2.94274 3.01631 0
M  V30 18679 H 1761.48 1.79031 2.69684 0
M  V30 18680 H 1760.39 3.54785 1.18653 0
M  V30 18681 H 1761.72 4.66159 1.57977 0
M  V30 18682 N 1763.37 -0.266145 1.55336 0
M  V30 18683 C 1764.32 -1.32914 1.88686 0
M  V30 18684 C 1765.29 -1.48752 0.739048 0
M  V30 18685 O 1766.48 -1.63048 0.990951 0
M  V30 18686 C 1763.62 -2.68317 2.17026 0
M  V30 18687 C 1762.73 -2.60644 3.44512 0
M  V30 18688 C 1761.86 -3.88271 3.62517 0
M  V30 18689 C 1760.9 -3.75137 4.83672 0
M  V30 18690 N 1760.04 -4.94614 4.98299 0
M  V30 18691 H 1764.88 -1.03774 2.79347 0
M  V30 18692 H 1762.42 -0.501205 1.38298 0
M  V30 18693 H 1764.37 -3.47107 2.31458 0
M  V30 18694 H 1763 -2.95645 1.29591 0
M  V30 18695 H 1762.06 -1.73527 3.38515 0
M  V30 18696 H 1763.37 -2.46842 4.3344 0
M  V30 18697 H 1762.52 -4.75503 3.76804 0
M  V30 18698 H 1761.26 -4.04949 2.71787 0
M  V30 18699 H 1760.27 -2.86289 4.69381 0
M  V30 18700 H 1761.49 -3.59973 5.75844 0
M  V30 18701 H 1759.44 -5.11689 4.10501 0
M  V30 18702 H 1759.35 -4.83369 5.81284 0
M  V30 18703 H 1760.62 -5.83399 5.16978 0
M  V30 18704 N 1764.85 -1.48386 -0.530967 0
M  V30 18705 C 1766.27 -1.34485 -0.859412 0
M  V30 18706 C 1766.47 -0.355124 -1.98346 0
M  V30 18707 O 1765.52 0.224012 -2.51504 0
M  V30 18708 C 1766.84 -2.74488 -1.22787 0
M  V30 18709 C 1768.38 -2.82969 -1.33781 0
M  V30 18710 C 1768.86 -4.23673 -1.7397 0
M  V30 18711 N 1770.35 -4.26341 -1.81074 0
M  V30 18712 C 1771.09 -5.32149 -2.13554 0
M  V30 18713 N 1770.58 -6.48235 -2.44464 0
M  V30 18714 N 1772.37 -5.19542 -2.14551 0
M  V30 18715 H 1764.53 -2.11352 0.210713 0
M  V30 18716 H 1766.79 -0.947472 0.0316283 0
M  V30 18717 H 1766.49 -3.4847 -0.475552 0
M  V30 18718 H 1766.37 -3.0795 -2.17823 0
M  V30 18719 H 1768.76 -2.09244 -2.08089 0
M  V30 18720 H 1768.84 -2.53129 -0.368677 0
M  V30 18721 H 1768.48 -4.97914 -1.00222 0
M  V30 18722 H 1768.41 -4.50956 -2.71931 0
M  V30 18723 H 1770.9 -3.42606 -1.59467 0
M  V30 18724 H 1771.21 -7.24712 -2.6835 0
M  V30 18725 H 1769.56 -6.51512 -2.41986 0
M  V30 18726 H 1772.75 -4.27868 -1.89859 0
M  V30 18727 H 1772.92 -6.02103 -2.39532 0
M  V30 18728 N 1766.33 0.779763 -1.36958 0
M  V30 18729 C 1767.58 1.53803 -1.31723 0
M  V30 18730 C 1767.9 1.94239 0.100663 0
M  V30 18731 O 1767.16 1.6372 1.07212 0
M  V30 18732 C 1767.46 2.82075 -2.19473 0
M  V30 18733 C 1767.12 2.6073 -3.67873 0
M  V30 18734 C 1765.79 2.54617 -4.08318 0
M  V30 18735 C 1768.14 2.41407 -4.61922 0
M  V30 18736 C 1765.47 2.2716 -5.40939 0
M  V30 18737 C 1767.82 2.15475 -5.94772 0
M  V30 18738 C 1766.48 2.07801 -6.3433 0
M  V30 18739 H 1765.75 0.562804 -0.482009 0
M  V30 18740 H 1768.4 0.898839 -1.69095 0
M  V30 18741 H 1766.7 3.50511 -1.75069 0
M  V30 18742 H 1768.4 3.39915 -2.12741 0
M  V30 18743 H 1764.99 2.66347 -3.35793 0
M  V30 18744 H 1769.18 2.45125 -4.31541 0
M  V30 18745 H 1764.43 2.19708 -5.7056 0
M  V30 18746 H 1768.61 1.9952 -6.67207 0
M  V30 18747 H 1766.23 1.86289 -7.37021 0
M  V30 18748 N 1767.81 1.21396 1.00503 0
M  V30 18749 C 1769.06 1.02536 1.73693 0
M  V30 18750 C 1769.37 -0.441584 1.9055 0
M  V30 18751 O 1770.58 -0.749579 2.60947 0
M  V30 18752 C 1769.03 1.78602 3.12457 0
M  V30 18753 C 1768.64 3.29466 3.03573 0
M  V30 18754 C 1770.38 1.68149 3.89777 0
M  V30 18755 C 1768.29 3.98021 4.37416 0
M  V30 18756 H 1767.22 0.380052 0.651212 0
M  V30 18757 H 1769.87 1.4513 1.12292 0
M  V30 18758 H 1768.25 1.288 3.74468 0
M  V30 18759 H 1769.43 3.8657 2.50799 0
M  V30 18760 H 1767.74 3.4046 2.39741 0
M  V30 18761 H 1770.34 2.167 4.8882 0
M  V30 18762 H 1770.68 0.639716 4.11355 0
M  V30 18763 H 1771.22 2.15428 3.34418 0
M  V30 18764 H 1767.95 5.02401 4.21039 0
M  V30 18765 H 1767.47 3.45706 4.9015 0
M  V30 18766 H 1769.15 4.02932 5.06216 0
M  V30 18767 N 1769.29 -1.19996 1.0217 0
M  V30 18768 C 1770.7 -1.4154 0.737473 0
M  V30 18769 C 1770.9 -1.89649 -0.680832 0
M  V30 18770 O 1769.96 -2.06865 -1.44787 0
M  V30 18771 C 1771.27 -2.43269 1.76751 0
M  V30 18772 C 1772.82 -2.57027 1.78623 0
M  V30 18773 C 1773.29 -3.62003 2.80567 0
M  V30 18774 N 1774.78 -3.69492 2.79339 0
M  V30 18775 C 1775.52 -4.50391 3.54874 0
M  V30 18776 N 1775.02 -5.35053 4.40103 0
M  V30 18777 N 1776.81 -4.44972 3.43448 0
M  V30 18778 H 1768.96 -0.870855 1.93726 0
M  V30 18779 H 1771.22 -0.444866 0.837137 0
M  V30 18780 H 1770.93 -2.14927 2.78387 0
M  V30 18781 H 1770.8 -3.42336 1.58386 0
M  V30 18782 H 1773.19 -2.84695 0.776695 0
M  V30 18783 H 1773.27 -1.58138 2.01062 0
M  V30 18784 H 1772.91 -3.35078 3.81687 0
M  V30 18785 H 1772.84 -4.60526 2.55388 0
M  V30 18786 H 1775.34 -3.09021 2.17518 0
M  V30 18787 H 1775.65 -5.93881 4.94495 0
M  V30 18788 H 1773.99 -5.34538 4.44178 0
M  V30 18789 H 1777.18 -3.77869 2.76283 0
M  V30 18790 H 1777.36 -5.07782 4.02569 0
M  V30 18791 N 1770.76 -0.798611 -1.35867 0
M  V30 18792 C 1771.73 -0.209177 -2.28243 0
M  V30 18793 C 1772.73 0.598842 -1.49233 0
M  V30 18794 O 1773.92 0.418491 -1.69098 0
M  V30 18795 C 1771.05 0.709336 -3.33438 0
M  V30 18796 H 1772.24 -1.02382 -2.81883 0
M  V30 18797 H 1769.79 -0.568687 -1.45587 0
M  V30 18798 H 1770.53 1.54797 -2.84971 0
M  V30 18799 H 1770.31 0.131756 -3.91879 0
M  V30 18800 H 1771.8 1.11632 -4.02403 0
M  V30 18801 N 1772.24 1.47639 -0.551417 0
M  V30 18802 C 1773.47 2.06878 -0.0298904 0
M  V30 18803 C 1773.88 1.40493 1.26123 0
M  V30 18804 O 1773.24 0.499513 1.75531 0
M  V30 18805 C 1773.29 3.61074 0.175449 0
M  V30 18806 O 1773.01 4.2497 -1.06454 0
M  V30 18807 C 1774.51 4.37166 0.734919 0
M  V30 18808 H 1771.73 0.669607 -0.0432142 0
M  V30 18809 H 1774.28 1.89726 -0.763178 0
M  V30 18810 H 1772.43 3.7776 0.858848 0
M  V30 18811 H 1772.85 5.17424 -0.858644 0
M  V30 18812 H 1774.32 5.45756 0.827915 0
M  V30 18813 H 1774.8 4.03052 1.74486 0
M  V30 18814 H 1775.4 4.2521 0.0874045 0
M  V30 18815 N 1773.72 0.287581 1.54954 0
M  V30 18816 C 1774.68 -0.581465 2.21702 0
M  V30 18817 C 1775.68 -1.07172 1.19878 0
M  V30 18818 O 1776.87 -0.969899 1.44702 0
M  V30 18819 C 1774.01 -1.80358 2.89282 0
M  V30 18820 H 1775.2 0.00151035 2.999 0
M  V30 18821 H 1772.75 0.0382953 1.56253 0
M  V30 18822 H 1773.49 -2.42674 2.15128 0
M  V30 18823 H 1773.27 -1.45983 3.63911 0
M  V30 18824 H 1774.76 -2.42129 3.4024 0
M  V30 18825 N 1775.2 -1.57593 0.0150662 0
M  V30 18826 C 1776.48 -1.82473 -0.704474 0
M  V30 18827 C 1776.86 -0.896018 -1.91141 0
M  V30 18828 O 1776.2 0.0517365 -2.28441 0
M  V30 18829 C 1776.41 -3.31345 -1.09598 0
M  V30 18830 C 1777.76 -3.97465 -1.49353 0
M  V30 18831 O 1778.79 -3.35757 -1.18936 0
M  V30 18832 O 1777.64 -5.06199 -2.05972 0
M  V30 18833 H 1774.74 -0.751908 -0.344331 0
M  V30 18834 H 1777.28 -1.69649 0.041674 0
M  V30 18835 H 1776.06 -3.90586 -0.236358 0
M  V30 18836 H 1775.68 -3.49224 -1.90075 0
M  V30 18837 N 1776.68 0.257904 -1.55475 0
M  V30 18838 C 1777.92 0.988933 -1.77054 0
M  V30 18839 C 1778.26 1.85387 -0.578375 0
M  V30 18840 O 1777.53 1.8983 0.423673 0
M  V30 18841 C 1777.81 1.85876 -3.08419 0
M  V30 18842 C 1777.67 1.02274 -4.38018 0
M  V30 18843 C 1778.99 2.84322 -3.3593 0
M  V30 18844 H 1776.1 0.358103 -0.644152 0
M  V30 18845 H 1778.75 0.260209 -1.8821 0
M  V30 18846 H 1776.9 2.48008 -2.99039 0
M  V30 18847 H 1778.57 0.420967 -4.59375 0
M  V30 18848 H 1776.81 0.326705 -4.32568 0
M  V30 18849 H 1777.48 1.6649 -5.26294 0
M  V30 18850 H 1779.96 2.32325 -3.45202 0
M  V30 18851 H 1778.83 3.42313 -4.29084 0
M  V30 18852 H 1779.1 3.60223 -2.56304 0
M  V30 18853 N 1778.15 1.48666 0.52309 0
M  V30 18854 C 1779.4 1.57034 1.27854 0
M  V30 18855 C 1779.73 0.247256 1.92922 0
M  V30 18856 O 1778.98 -0.763049 1.80211 0
M  V30 18857 C 1779.28 2.66247 2.38426 0
M  V30 18858 C 1778.95 4.08464 1.90965 0
M  V30 18859 C 1777.61 4.47171 1.77739 0
M  V30 18860 C 1779.96 4.97562 1.55184 0
M  V30 18861 C 1777.29 5.72772 1.27077 0
M  V30 18862 C 1779.64 6.23659 1.05982 0
M  V30 18863 C 1778.31 6.61216 0.913782 0
M  V30 18864 H 1777.58 0.574628 0.46785 0
M  V30 18865 H 1780.22 1.82411 0.582961 0
M  V30 18866 H 1778.53 2.34756 3.13682 0
M  V30 18867 H 1780.23 2.69936 2.9654 0
M  V30 18868 H 1776.82 3.779 2.02212 0
M  V30 18869 H 1781 4.6833 1.64259 0
M  V30 18870 H 1776.26 6.0059 1.14464 0
M  V30 18871 H 1780.43 6.92089 0.773684 0
M  V30 18872 H 1778.06 7.58426 0.519021 0
M  V30 18873 N 1779.63 -0.772489 1.37369 0
M  V30 18874 C 1780.87 -1.54405 1.33935 0
M  V30 18875 C 1781.24 -1.9185 -0.0757718 0
M  V30 18876 O 1782.44 -2.67772 -0.234832 0
M  V30 18877 C 1780.71 -2.77561 2.25154 0
M  V30 18878 S 1782.27 -3.67634 2.39564 0
M  V30 18879 H 1779.09 -0.52862 0.475481 0
M  V30 18880 H 1781.69 -0.908446 1.73111 0
M  V30 18881 H 1780.39 -2.4813 3.26894 0
M  V30 18882 H 1779.92 -3.46081 1.87059 0
M  V30 18883 H 1781.94 -4.69502 1.60567 0
M  V30 18884 N 1781.11 -1.21927 -0.998575 0
M  V30 18885 C 1782.04 -1.00845 -2.106 0
M  V30 18886 C 1783.02 0.068733 -1.69961 0
M  V30 18887 O 1784.21 -0.0923686 -1.9398 0
M  V30 18888 C 1781.34 -0.57929 -3.42435 0
M  V30 18889 C 1780.29 -1.60177 -3.96897 0
M  V30 18890 C 1779.62 -1.02863 -5.24713 0
M  V30 18891 C 1780.92 -2.9903 -4.28227 0
M  V30 18892 H 1782.61 -1.93469 -2.28495 0
M  V30 18893 H 1780.16 -0.931612 -1.09804 0
M  V30 18894 H 1782.11 -0.418944 -4.19312 0
M  V30 18895 H 1780.83 0.382608 -3.24351 0
M  V30 18896 H 1779.49 -1.74979 -3.22146 0
M  V30 18897 H 1779.14 -0.058254 -5.02966 0
M  V30 18898 H 1778.84 -1.71166 -5.62117 0
M  V30 18899 H 1780.36 -0.879743 -6.04229 0
M  V30 18900 H 1781.78 -2.87634 -4.95923 0
M  V30 18901 H 1780.18 -3.64404 -4.76791 0
M  V30 18902 H 1781.25 -3.4939 -3.36236 0
M  V30 18903 N 1782.59 1.19452 -1.02805 0
M  V30 18904 C 1783.54 2.24684 -0.60165 0
M  V30 18905 C 1784.53 1.65414 0.365319 0
M  V30 18906 O 1785.74 1.78473 0.233988 0
M  V30 18907 H 1782.11 0.731043 -0.176296 0
M  V30 18908 H 1784.08 2.57967 -1.49985 0
M  V30 18909 C 1782.83 3.47685 0.0325515 0
M  V30 18910 H 1782.15 3.93579 -0.702532 0
M  V30 18911 H 1783.59 4.2298 0.29386 0
M  V30 18912 C 1782.05 3.11684 1.27887 0
M  V30 18913 O 1782.58 3.24262 2.37101 0
M  V30 18914 N 1780.79 2.66124 1.16731 0
M  V30 18915 H 1780.34 2.56089 0.278595 0
M  V30 18916 H 1780.29 2.42407 2.00215 0
M  V30 18917 N 1784.07 0.805805 1.35442 0
M  V30 18918 C 1785.29 0.398252 2.03031 0
M  V30 18919 C 1785.71 -0.990542 1.60729 0
M  V30 18920 O 1785.07 -1.63813 0.804461 0
M  V30 18921 C 1785.12 0.471116 3.58417 0
M  V30 18922 O 1784.84 1.80516 3.99181 0
M  V30 18923 C 1786.34 0.056272 4.43264 0
M  V30 18924 H 1783.56 0.161905 0.651174 0
M  V30 18925 H 1786.1 1.08921 1.73079 0
M  V30 18926 H 1784.26 -0.171584 3.8702 0
M  V30 18927 H 1784.67 1.76739 4.93825 0
M  V30 18928 H 1786.15 0.15837 5.51773 0
M  V30 18929 H 1786.62 -0.998308 4.27704 0
M  V30 18930 H 1787.23 0.672097 4.19956 0
M  V30 18931 N 1785.54 -1.47344 0.559239 0
M  V30 18932 C 1786.77 -2.0656 0.040802 0
M  V30 18933 C 1787.18 -1.41208 -1.25925 0
M  V30 18934 O 1786.53 -0.503333 -1.7667 0
M  V30 18935 C 1786.59 -3.58804 -0.223642 0
M  V30 18936 C 1786.25 -4.46208 0.987275 0
M  V30 18937 C 1787.25 -4.84198 1.89336 0
M  V30 18938 C 1784.93 -4.87693 1.20252 0
M  V30 18939 C 1786.93 -5.62474 2.99837 0
M  V30 18940 C 1784.61 -5.65733 2.31061 0
M  V30 18941 C 1785.61 -6.03034 3.20684 0
M  V30 18942 O 1785.3 -6.79502 4.29572 0
M  V30 18943 H 1785.03 -0.674583 0.0437408 0
M  V30 18944 H 1787.59 -1.90306 0.772827 0
M  V30 18945 H 1785.82 -3.73277 -1.01 0
M  V30 18946 H 1787.51 -4.00032 -0.687709 0
M  V30 18947 H 1788.27 -4.52746 1.73913 0
M  V30 18948 H 1784.15 -4.58124 0.514098 0
M  V30 18949 H 1787.69 -5.91508 3.69817 0
M  V30 18950 H 1783.59 -5.96598 2.46456 0
M  V30 18951 H 1784.36 -6.97898 4.27645 0
M  V30 18952 N 1787.02 -0.295795 -1.54799 0
M  V30 18953 C 1788.25 0.317302 -2.04149 0
M  V30 18954 C 1788.66 1.48463 -1.17283 0
M  V30 18955 O 1788 1.82715 -0.189979 0
M  V30 18956 C 1788.07 0.841241 -3.49519 0
M  V30 18957 C 1787.73 -0.200133 -4.56562 0
M  V30 18958 C 1788.73 -1.0268 -5.09659 0
M  V30 18959 C 1786.41 -0.340333 -5.01146 0
M  V30 18960 C 1788.41 -1.97966 -6.05878 0
M  V30 18961 C 1786.09 -1.29664 -5.97185 0
M  V30 18962 C 1787.09 -2.11479 -6.49435 0
M  V30 18963 O 1786.78 -3.0549 -7.43593 0
M  V30 18964 H 1786.51 0.0736679 -0.671974 0
M  V30 18965 H 1789.06 -0.431806 -2.0081 0
M  V30 18966 H 1787.29 1.64078 -3.50165 0
M  V30 18967 H 1788.98 1.36966 -3.82093 0
M  V30 18968 H 1789.75 -0.92933 -4.76013 0
M  V30 18969 H 1785.63 0.286525 -4.60109 0
M  V30 18970 H 1789.17 -2.61865 -6.46585 0
M  V30 18971 H 1785.07 -1.39485 -6.30249 0
M  V30 18972 H 1785.84 -3.00409 -7.61378 0
M  V30 18973 N 1788.5 1.57583 -0.0234236 0
M  V30 18974 C 1789.73 1.96267 0.670371 0
M  V30 18975 C 1790.15 0.899586 1.65194 0
M  V30 18976 O 1789.51 -0.140079 1.80758 0
M  V30 18977 C 1789.56 3.34049 1.35806 0
M  V30 18978 O 1788.66 3.3001 2.4732 0
M  V30 18979 H 1788 0.640097 0.176557 0
M  V30 18980 H 1790.53 2.04429 -0.0835829 0
M  V30 18981 H 1790.54 3.70151 1.71616 0
M  V30 18982 H 1789.22 4.10969 0.63852 0
M  V30 18983 H 1787.79 3.05618 2.13664 0
M  V30 18984 N 1789.98 -0.249655 1.5561 0
M  V30 18985 C 1791.4 -0.598032 1.47972 0
M  V30 18986 C 1791.6 -1.88461 0.713067 0
M  V30 18987 O 1790.65 -2.51344 0.241314 0
M  V30 18988 C 1791.96 -0.703318 2.92359 0
M  V30 18989 C 1793.51 -0.795828 3.02714 0
M  V30 18990 C 1793.99 -0.932698 4.48402 0
M  V30 18991 N 1795.48 -0.997638 4.52329 0
M  V30 18992 C 1796.21 -1.12276 5.623 0
M  V30 18993 N 1795.71 -1.21359 6.82088 0
M  V30 18994 N 1797.5 -1.1557 5.50091 0
M  V30 18995 H 1789.65 0.594976 2.03897 0
M  V30 18996 H 1791.92 0.204956 0.925579 0
M  V30 18997 H 1791.62 0.171981 3.51279 0
M  V30 18998 H 1791.5 -1.57614 3.42692 0
M  V30 18999 H 1793.88 -1.66158 2.43876 0
M  V30 19000 H 1793.96 0.102087 2.55596 0
M  V30 19001 H 1793.61 -0.0715123 5.0785 0
M  V30 19002 H 1793.54 -1.84561 4.93198 0
M  V30 19003 H 1796.03 -0.938895 3.66051 0
M  V30 19004 H 1796.34 -1.30805 7.61649 0
M  V30 19005 H 1794.69 -1.18322 6.84854 0
M  V30 19006 H 1797.88 -1.0812 4.55442 0
M  V30 19007 H 1798.05 -1.24976 6.35834 0
M  V30 19008 N 1791.46 -1.48941 -0.515198 0
M  V30 19009 C 1792.71 -1.5696 -1.26674 0
M  V30 19010 C 1793.02 -0.255062 -1.9393 0
M  V30 19011 O 1794.23 -0.213645 -2.70658 0
M  V30 19012 C 1792.68 -2.76877 -2.29928 0
M  V30 19013 C 1792.29 -4.15033 -1.68676 0
M  V30 19014 C 1794.03 -2.94218 -3.06 0
M  V30 19015 C 1791.94 -5.26191 -2.69957 0
M  V30 19016 H 1790.87 -0.584377 -0.476465 0
M  V30 19017 H 1793.52 -1.75303 -0.542322 0
M  V30 19018 H 1791.9 -2.51999 -3.05471 0
M  V30 19019 H 1793.08 -4.49991 -0.992215 0
M  V30 19020 H 1791.39 -4.02932 -1.05045 0
M  V30 19021 H 1793.99 -3.74433 -3.81712 0
M  V30 19022 H 1794.33 -2.04235 -3.62759 0
M  V30 19023 H 1794.87 -3.19068 -2.37572 0
M  V30 19024 H 1791.6 -6.18189 -2.17998 0
M  V30 19025 H 1791.12 -4.95705 -3.37694 0
M  V30 19026 H 1792.8 -5.54929 -3.32659 0
M  V30 19027 N 1792.94 0.765193 -1.37777 0
M  V30 19028 C 1794.18 1.52623 -1.33545 0
M  V30 19029 C 1794.51 1.94043 0.077992 0
M  V30 19030 O 1793.79 1.64566 1.03673 0
M  V30 19031 C 1794.07 2.78679 -2.28057 0
M  V30 19032 C 1793.93 2.43471 -3.78209 0
M  V30 19033 C 1795.24 3.80646 -2.20899 0
M  V30 19034 H 1792.36 0.553678 -0.486425 0
M  V30 19035 H 1795.01 0.877326 -1.68532 0
M  V30 19036 H 1793.16 3.3405 -1.9835 0
M  V30 19037 H 1794.83 1.93965 -4.1854 0
M  V30 19038 H 1793.07 1.76081 -3.96457 0
M  V30 19039 H 1793.74 3.33609 -4.39783 0
M  V30 19040 H 1796.22 3.34786 -2.47099 0
M  V30 19041 H 1795.09 4.6656 -2.89159 0
M  V30 19042 H 1795.35 4.25389 -1.20403 0
M  V30 19043 N 1794.41 1.22455 0.992094 0
M  V30 19044 C 1795.35 0.953144 2.08441 0
M  V30 19045 C 1796.36 -0.0685432 1.62656 0
M  V30 19046 O 1797.55 0.165561 1.77731 0
M  V30 19047 C 1794.65 0.412046 3.36386 0
M  V30 19048 C 1793.82 1.49114 4.11198 0
M  V30 19049 C 1792.88 0.956984 5.17425 0
M  V30 19050 O 1791.91 1.64337 5.44961 0
M  V30 19051 N 1793.11 -0.221205 5.80078 0
M  V30 19052 H 1795.87 1.89353 2.32305 0
M  V30 19053 H 1793.43 1.13155 1.15791 0
M  V30 19054 H 1795.43 0.0400033 4.0468 0
M  V30 19055 H 1794 -0.433473 3.0958 0
M  V30 19056 H 1793.22 2.03647 3.37523 0
M  V30 19057 H 1794.5 2.21716 4.57951 0
M  V30 19058 H 1793.9 -0.795642 5.60077 0
M  V30 19059 H 1792.46 -0.534625 6.49604 0
M  V30 19060 N 1795.89 -1.18905 1.03437 0
M  V30 19061 C 1796.84 -2.20223 0.59042 0
M  V30 19062 C 1797.83 -1.56734 -0.363774 0
M  V30 19063 O 1799.02 -1.76043 -0.183852 0
M  V30 19064 C 1796.15 -3.43261 -0.051695 0
M  V30 19065 C 1795.23 -4.13884 0.925268 0
M  V30 19066 N 1795.62 -4.60607 2.08985 0
M  V30 19067 C 1793.92 -4.3965 0.749899 0
M  V30 19068 C 1794.62 -5.14902 2.70648 0
M  V30 19069 N 1793.6 -5.06034 1.9857 0
M  V30 19070 H 1797.4 -2.54032 1.478 0
M  V30 19071 H 1794.91 -1.3504 0.902101 0
M  V30 19072 H 1796.91 -4.15096 -0.387403 0
M  V30 19073 H 1795.57 -3.1095 -0.934891 0
M  V30 19074 H 1796.58 -4.55257 2.46903 0
M  V30 19075 H 1793.26 -4.17416 -0.08374 0
M  V30 19076 H 1794.65 -5.61303 3.69308 0
M  V30 19077 N 1797.37 -0.812977 -1.35013 0
M  V30 19078 C 1798.32 -0.225816 -2.29693 0
M  V30 19079 C 1799.29 0.643767 -1.53117 0
M  V30 19080 O 1800.47 0.587505 -1.8153 0
M  V30 19081 C 1797.61 0.614444 -3.39586 0
M  V30 19082 C 1796.72 -0.276281 -4.31116 0
M  V30 19083 C 1795.86 0.572595 -5.28105 0
M  V30 19084 C 1794.9 -0.318133 -6.11273 0
M  V30 19085 N 1794.04 0.491086 -7.0038 0
M  V30 19086 H 1798.88 -1.03861 -2.79315 0
M  V30 19087 H 1796.41 -0.523695 -1.37462 0
M  V30 19088 H 1798.37 1.11683 -4.01973 0
M  V30 19089 H 1797 1.39244 -2.91223 0
M  V30 19090 H 1796.05 -0.89682 -3.69677 0
M  V30 19091 H 1797.36 -0.961601 -4.89443 0
M  V30 19092 H 1796.52 1.13986 -5.95896 0
M  V30 19093 H 1795.26 1.29146 -4.7029 0
M  V30 19094 H 1794.26 -0.897622 -5.42423 0
M  V30 19095 H 1795.49 -1.03496 -6.71167 0
M  V30 19096 H 1793.43 1.19381 -6.45046 0
M  V30 19097 H 1793.35 -0.136054 -7.55878 0
M  V30 19098 H 1794.62 1.04143 -7.72512 0
M  V30 19099 N 1798.85 1.47045 -0.567045 0
M  V30 19100 C 1800.08 2.06835 -0.0518309 0
M  V30 19101 C 1800.49 1.41823 1.24626 0
M  V30 19102 O 1799.85 0.518102 1.74991 0
M  V30 19103 C 1799.9 3.6124 0.137142 0
M  V30 19104 O 1799.62 4.23817 -1.10955 0
M  V30 19105 C 1801.12 4.37921 0.688511 0
M  V30 19106 H 1798.34 0.669111 -0.0503138 0
M  V30 19107 H 1800.88 1.88906 -0.783258 0
M  V30 19108 H 1799.04 3.7865 0.818733 0
M  V30 19109 H 1799.45 5.16484 -0.913475 0
M  V30 19110 H 1800.93 5.46603 0.769984 0
M  V30 19111 H 1801.4 4.0488 1.70201 0
M  V30 19112 H 1802.01 4.25279 0.0423004 0
M  V30 19113 N 1800.33 0.304 1.5464 0
M  V30 19114 C 1801.74 -0.188042 1.85751 0
M  V30 19115 C 1802.09 -1.53186 1.22591 0
M  V30 19116 O 1801.21 -2.09943 0.524696 0
M  V30 19117 C 1801.81 -0.347976 3.37008 0
M  V30 19118 C 1800.37 -0.784238 3.68139 0
M  V30 19119 C 1799.51 0.105654 2.77099 0
M  V30 19120 H 1802.46 0.524918 1.49767 0
M  V30 19121 H 1802.49 -1.18207 3.61673 0
M  V30 19122 H 1802 0.630227 3.82949 0
M  V30 19123 H 1800.1 -1.77288 3.27719 0
M  V30 19124 H 1800.21 -0.601546 4.75309 0
M  V30 19125 H 1798.58 -0.415561 2.51287 0
M  V30 19126 H 1799.36 1.08027 3.25861 0
M  V30 19127 N 1801.8 -1.57568 0.0317802 0
M  V30 19128 C 1803.22 -1.56264 -0.324633 0
M  V30 19129 C 1803.42 -1.03765 -1.72728 0
M  V30 19130 O 1802.48 -0.685566 -2.43015 0
M  V30 19131 C 1803.79 -3.00214 -0.170806 0
M  V30 19132 C 1805.34 -3.12052 -0.243373 0
M  V30 19133 C 1805.81 -4.57847 -0.118304 0
M  V30 19134 N 1807.3 -4.62869 -0.175203 0
M  V30 19135 C 1808.04 -5.73309 -0.102252 0
M  V30 19136 N 1807.53 -6.92797 0.0219373 0
M  V30 19137 N 1809.33 -5.61882 -0.156432 0
M  V30 19138 H 1801.48 -1.90022 0.948968 0
M  V30 19139 H 1803.74 -0.874208 0.366693 0
M  V30 19140 H 1803.45 -3.42585 0.795517 0
M  V30 19141 H 1803.32 -3.65302 -0.939907 0
M  V30 19142 H 1805.71 -2.69593 -1.20016 0
M  V30 19143 H 1805.79 -2.49681 0.55615 0
M  V30 19144 H 1805.43 -5.00988 0.835072 0
M  V30 19145 H 1805.36 -5.18202 -0.936726 0
M  V30 19146 H 1807.85 -3.76925 -0.271225 0
M  V30 19147 H 1808.17 -7.72768 0.0708376 0
M  V30 19148 H 1806.51 -6.94977 0.0567564 0
M  V30 19149 H 1809.7 -4.67422 -0.251873 0
M  V30 19150 H 1809.88 -6.47929 -0.0961177 0
M  V30 19151 N 1803.28 0.241399 -1.5574 0
M  V30 19152 C 1804.21 1.30255 -1.93793 0
M  V30 19153 C 1805.19 1.49923 -0.803563 0
M  V30 19154 O 1806.38 1.62439 -1.06429 0
M  V30 19155 C 1803.51 2.65625 -2.23742 0
M  V30 19156 C 1802.46 2.60645 -3.39483 0
M  V30 19157 C 1801.79 3.99861 -3.54986 0
M  V30 19158 C 1803.09 2.17151 -4.75019 0
M  V30 19159 H 1804.78 0.986532 -2.8268 0
M  V30 19160 H 1802.33 0.473125 -1.36006 0
M  V30 19161 H 1804.28 3.40001 -2.48953 0
M  V30 19162 H 1803.01 2.98874 -1.31688 0
M  V30 19163 H 1801.66 1.88727 -3.14289 0
M  V30 19164 H 1801.31 4.30385 -2.60342 0
M  V30 19165 H 1801.01 3.97415 -4.32822 0
M  V30 19166 H 1802.54 4.75928 -3.82524 0
M  V30 19167 H 1803.95 2.8126 -4.99565 0
M  V30 19168 H 1802.35 2.25805 -5.55996 0
M  V30 19169 H 1803.42 1.12329 -4.7171 0
M  V30 19170 N 1804.76 1.49212 0.507292 0
M  V30 19171 C 1805.71 1.65894 1.6304 0
M  V30 19172 C 1806.7 0.524951 1.61061 0
M  V30 19173 O 1807.91 0.704392 1.65645 0
M  V30 19174 H 1804.28 0.522994 0.540353 0
M  V30 19175 H 1806.25 2.60176 1.4612 0
M  V30 19176 C 1805 1.73692 3.01208 0
M  V30 19177 H 1804.33 2.60323 3.03434 0
M  V30 19178 H 1805.77 1.89402 3.79346 0
M  V30 19179 C 1804.23 0.480378 3.33458 0
M  V30 19180 O 1804.76 -0.396732 3.99736 0
M  V30 19181 N 1802.96 0.345216 2.88542 0
M  V30 19182 H 1802.51 1.05997 2.34782 0
M  V30 19183 H 1802.47 -0.494453 3.10488 0
M  V30 19184 N 1806.24 -0.757876 1.38181 0
M  V30 19185 C 1807.65 -1.33496 1.30521 0
M  V30 19186 C 1808 -1.96157 -0.0409405 0
M  V30 19187 O 1807.13 -1.94775 -0.942957 0
M  V30 19188 C 1807.72 -2.42725 2.36369 0
M  V30 19189 C 1806.28 -2.96165 2.323 0
M  V30 19190 C 1805.43 -1.69505 2.19461 0
M  V30 19191 H 1808.38 -0.557075 1.48601 0
M  V30 19192 H 1808.4 -3.22556 2.01836 0
M  V30 19193 H 1807.91 -1.97089 3.34331 0
M  V30 19194 H 1806.01 -3.4614 1.37904 0
M  V30 19195 H 1806.12 -3.50836 3.26269 0
M  V30 19196 H 1804.49 -1.92967 1.66241 0
M  V30 19197 H 1805.27 -1.25954 3.1936 0
M  V30 19198 N 1807.72 -1.22979 -0.985586 0
M  V30 19199 C 1809.13 -1.05448 -1.5407 0
M  V30 19200 C 1809.48 0.379808 -1.92489 0
M  V30 19201 O 1808.6 1.26582 -1.75516 0
M  V30 19202 C 1809.2 -1.90794 -2.7997 0
M  V30 19203 C 1807.76 -1.77538 -3.31899 0
M  V30 19204 C 1806.9 -1.86814 -2.04929 0
M  V30 19205 H 1809.86 -1.36718 -0.80585 0
M  V30 19206 H 1809.88 -1.42967 -3.5262 0
M  V30 19207 H 1809.39 -2.95177 -2.51977 0
M  V30 19208 H 1807.49 -0.759177 -3.64784 0
M  V30 19209 H 1807.6 -2.60627 -4.02008 0
M  V30 19210 H 1805.97 -1.30336 -2.18826 0
M  V30 19211 H 1806.75 -2.92742 -1.79324 0
M  V30 19212 N 1809.19 1.18355 -1.04066 0
M  V30 19213 C 1810.42 1.92816 -0.763979 0
M  V30 19214 C 1810.84 1.75658 0.672749 0
M  V30 19215 O 1810.2 1.06671 1.46598 0
M  V30 19216 C 1810.25 3.42267 -1.13516 0
M  V30 19217 O 1809.35 4.11576 -0.260646 0
M  V30 19218 H 1808.7 0.601532 -0.281167 0
M  V30 19219 H 1811.23 1.50087 -1.3905 0
M  V30 19220 H 1811.24 3.92973 -1.09709 0
M  V30 19221 H 1809.91 3.54076 -2.18181 0
M  V30 19222 H 1808.49 3.71174 -0.358342 0
M  V30 19223 N 1810.67 0.820125 1.3458 0
M  V30 19224 C 1811.9 0.419155 2.02303 0
M  V30 19225 C 1812.31 -0.978742 1.61918 0
M  V30 19226 O 1811.65 -1.64433 0.818983 0
M  V30 19227 C 1811.72 0.438576 3.56815 0
M  V30 19228 C 1811.38 1.78932 4.20514 0
M  V30 19229 C 1812.38 2.74974 4.41232 0
M  V30 19230 C 1810.06 2.07704 4.57345 0
M  V30 19231 C 1812.06 3.97961 4.97901 0
M  V30 19232 C 1809.74 3.30952 5.13726 0
M  V30 19233 C 1810.74 4.25898 5.33947 0
M  V30 19234 O 1810.43 5.46969 5.89135 0
M  V30 19235 H 1810.16 0.166787 0.655102 0
M  V30 19236 H 1812.71 1.10892 1.72893 0
M  V30 19237 H 1810.94 -0.307871 3.85472 0
M  V30 19238 H 1812.63 0.0580448 4.05858 0
M  V30 19239 H 1813.4 2.54041 4.13144 0
M  V30 19240 H 1809.28 1.34605 4.40911 0
M  V30 19241 H 1812.82 4.72081 5.136 0
M  V30 19242 H 1808.72 3.5175 5.41242 0
M  V30 19243 H 1809.49 5.48451 6.07572 0
M  V30 19244 N 1812.15 -1.46743 0.574835 0
M  V30 19245 C 1813.06 -2.34015 -0.16559 0
M  V30 19246 C 1814.08 -1.49273 -0.894064 0
M  V30 19247 O 1815.25 -1.82162 -0.859013 0
M  V30 19248 C 1812.32 -3.26313 -1.17136 0
M  V30 19249 C 1811.38 -4.26952 -0.448413 0
M  V30 19250 C 1810.61 -5.1484 -1.40627 0
M  V30 19251 O 1810.83 -5.05508 -2.6423 0
M  V30 19252 O 1809.77 -5.9481 -0.921143 0
M  V30 19253 H 1813.59 -2.98664 0.550754 0
M  V30 19254 H 1811.18 -1.45589 0.335297 0
M  V30 19255 H 1813.06 -3.83276 -1.75149 0
M  V30 19256 H 1811.74 -2.64269 -1.86931 0
M  V30 19257 H 1810.64 -3.73698 0.17336 0
M  V30 19258 H 1811.98 -4.91759 0.208419 0
M  V30 19259 N 1813.63 -0.312197 -1.54477 0
M  V30 19260 C 1814.91 0.347462 -1.92489 0
M  V30 19261 C 1815.29 1.70797 -1.24063 0
M  V30 19262 O 1814.63 2.25313 -0.380296 0
M  V30 19263 C 1814.84 0.450992 -3.46074 0
M  V30 19264 C 1816.19 0.716618 -4.18509 0
M  V30 19265 O 1817.22 0.534364 -3.52169 0
M  V30 19266 O 1816.07 1.06744 -5.35974 0
M  V30 19267 H 1813.17 0.196248 -0.803378 0
M  V30 19268 H 1815.71 -0.361078 -1.65814 0
M  V30 19269 H 1814.49 -0.504982 -3.88028 0
M  V30 19270 H 1814.11 1.20756 -3.78819 0
M  V30 19271 N 1815.11 1.57549 -0.040136 0
M  V30 19272 C 1816.38 1.83571 0.675355 0
M  V30 19273 C 1816.76 0.926313 1.89691 0
M  V30 19274 O 1816.11 -0.0153869 2.28495 0
M  V30 19275 C 1816.32 3.33046 1.04313 0
M  V30 19276 C 1817.67 3.99791 1.43011 0
M  V30 19277 O 1818.69 3.37607 1.13579 0
M  V30 19278 O 1817.55 5.09412 1.97893 0
M  V30 19279 H 1814.65 0.75729 0.332325 0
M  V30 19280 H 1817.19 1.69561 -0.0686584 0
M  V30 19281 H 1815.96 3.90912 0.174189 0
M  V30 19282 H 1815.59 3.52203 1.84495 0
M  V30 19283 N 1816.58 -0.233136 1.55866 0
M  V30 19284 C 1817.52 -1.31202 1.87932 0
M  V30 19285 C 1818.53 -1.43619 0.766642 0
M  V30 19286 O 1819.72 -1.44723 1.04487 0
M  V30 19287 C 1816.82 -2.68904 2.06262 0
M  V30 19288 C 1815.99 -2.78581 3.37211 0
M  V30 19289 C 1815.05 -3.97219 3.45114 0
M  V30 19290 O 1814.08 -3.861 4.18229 0
M  V30 19291 N 1815.28 -5.11009 2.7541 0
M  V30 19292 H 1818.04 -1.04025 2.81067 0
M  V30 19293 H 1815.6 -0.423209 1.56271 0
M  V30 19294 H 1817.6 -3.46631 2.08876 0
M  V30 19295 H 1816.17 -2.8873 1.19807 0
M  V30 19296 H 1815.39 -1.87422 3.46795 0
M  V30 19297 H 1816.67 -2.82008 4.23496 0
M  V30 19298 H 1816.07 -5.22936 2.15764 0
M  V30 19299 H 1814.63 -5.8682 2.837 0
M  V30 19300 N 1818.06 -1.49479 -0.499372 0
M  V30 19301 C 1818.97 -1.69006 -1.62709 0
M  V30 19302 C 1819.99 -0.572681 -1.64306 0
M  V30 19303 O 1821.17 -0.847586 -1.82696 0
M  V30 19304 C 1818.23 -1.75382 -2.99069 0
M  V30 19305 C 1817.29 -2.98968 -3.08086 0
M  V30 19306 C 1816.52 -3.0503 -4.37941 0
M  V30 19307 O 1816.75 -2.18641 -5.26832 0
M  V30 19308 O 1815.68 -3.97507 -4.51964 0
M  V30 19309 H 1819.51 -2.64544 -1.49164 0
M  V30 19310 H 1817.09 -1.3324 -0.675836 0
M  V30 19311 H 1818.97 -1.81919 -3.8011 0
M  V30 19312 H 1817.65 -0.830226 -3.12872 0
M  V30 19313 H 1816.56 -2.97947 -2.26227 0
M  V30 19314 H 1817.89 -3.90812 -2.9921 0
M  V30 19315 N 1819.54 0.750537 -1.38581 0
M  V30 19316 C 1820.47 1.87248 -1.30435 0
M  V30 19317 C 1821.45 1.61591 -0.180819 0
M  V30 19318 O 1822.64 1.85057 -0.358655 0
M  V30 19319 C 1819.76 3.22922 -1.02173 0
M  V30 19320 C 1818.81 3.67461 -2.16505 0
M  V30 19321 S 1819.64 3.78642 -3.7867 0
M  V30 19322 C 1820.8 5.1713 -3.52601 0
M  V30 19323 H 1821.03 1.93872 -2.25391 0
M  V30 19324 H 1818.56 0.913828 -1.24453 0
M  V30 19325 H 1820.52 4.01272 -0.865502 0
M  V30 19326 H 1819.18 3.13973 -0.0893025 0
M  V30 19327 H 1818.38 4.65879 -1.92284 0
M  V30 19328 H 1817.98 2.96273 -2.28251 0
M  V30 19329 H 1820.27 6.0298 -3.08904 0
M  V30 19330 H 1821.21 5.46374 -4.50423 0
M  V30 19331 H 1821.62 4.86071 -2.87045 0
M  V30 19332 N 1821.02 1.235 0.979051 0
M  V30 19333 C 1821.98 1.01854 2.05325 0
M  V30 19334 C 1822.98 -0.0201133 1.60787 0
M  V30 19335 O 1824.17 0.219761 1.72808 0
M  V30 19336 C 1821.3 0.541404 3.36573 0
M  V30 19337 H 1822.5 1.97183 2.25962 0
M  V30 19338 H 1820.05 1.05563 1.15265 0
M  V30 19339 H 1820.79 -0.415607 3.21626 0
M  V30 19340 H 1820.57 1.29092 3.7024 0
M  V30 19341 H 1822.06 0.410635 4.15576 0
M  V30 19342 N 1822.5 -1.17802 1.04693 0
M  V30 19343 C 1823.41 -2.25298 0.654072 0
M  V30 19344 C 1824.42 -1.70984 -0.32255 0
M  V30 19345 O 1825.6 -2.0063 -0.175904 0
M  V30 19346 C 1822.66 -3.46687 0.0296345 0
M  V30 19347 C 1821.73 -4.16108 1.05606 0
M  V30 19348 C 1820.96 -5.31702 0.461329 0
M  V30 19349 O 1821.18 -5.65701 -0.730679 0
M  V30 19350 O 1820.12 -5.89956 1.19312 0
M  V30 19351 H 1823.94 -2.61179 1.54982 0
M  V30 19352 H 1821.53 -1.25005 0.818182 0
M  V30 19353 H 1823.41 -4.20201 -0.317654 0
M  V30 19354 H 1822.08 -3.12615 -0.839839 0
M  V30 19355 H 1820.99 -3.44635 1.45526 0
M  V30 19356 H 1822.32 -4.54195 1.89651 0
M  V30 19357 N 1823.98 -0.827251 -1.34143 0
M  V30 19358 C 1824.89 -0.254285 -2.33218 0
M  V30 19359 C 1825.9 0.613602 -1.62822 0
M  V30 19360 O 1827.08 0.520477 -1.94558 0
M  V30 19361 C 1824.14 0.570817 -3.41969 0
M  V30 19362 C 1823.2 -0.319978 -4.28106 0
M  V30 19363 C 1822.44 0.465839 -5.31663 0
M  V30 19364 O 1822.66 1.6987 -5.44518 0
M  V30 19365 O 1821.59 -0.154094 -6.01703 0
M  V30 19366 H 1825.42 -1.07441 -2.8406 0
M  V30 19367 H 1823 -0.589493 -1.37278 0
M  V30 19368 H 1824.89 1.04009 -4.08363 0
M  V30 19369 H 1823.56 1.3682 -2.93363 0
M  V30 19370 H 1822.47 -0.836843 -3.6462 0
M  V30 19371 H 1823.8 -1.08183 -4.80164 0
M  V30 19372 N 1825.45 1.46436 -0.582609 0
M  V30 19373 C 1826.36 2.34099 0.153178 0
M  V30 19374 C 1827.38 1.49745 0.886135 0
M  V30 19375 O 1828.56 1.82615 0.849341 0
M  V30 19376 C 1825.62 3.26929 1.15404 0
M  V30 19377 C 1824.68 4.27183 0.425764 0
M  V30 19378 C 1823.91 5.15578 1.37895 0
M  V30 19379 O 1824.14 5.06903 2.61545 0
M  V30 19380 O 1823.07 5.9529 0.889585 0
M  V30 19381 H 1826.9 2.98368 -0.566585 0
M  V30 19382 H 1824.48 1.45409 -0.343013 0
M  V30 19383 H 1826.36 3.842 1.73114 0
M  V30 19384 H 1825.04 2.65257 1.85527 0
M  V30 19385 H 1823.95 3.73601 -0.193175 0
M  V30 19386 H 1825.28 4.91641 -0.234496 0
M  V30 19387 N 1826.93 0.320385 1.54309 0
M  V30 19388 C 1828.21 -0.337248 1.92671 0
M  V30 19389 C 1828.59 -1.70137 1.24967 0
M  V30 19390 O 1827.94 -2.25108 0.39224 0
M  V30 19391 C 1828.15 -0.432633 3.46308 0
M  V30 19392 C 1829.49 -0.694413 4.18883 0
M  V30 19393 O 1830.52 -0.515681 3.52447 0
M  V30 19394 O 1829.38 -1.039 5.36532 0
M  V30 19395 H 1826.47 -0.191985 0.804407 0
M  V30 19396 H 1829.02 0.369866 1.6562 0
M  V30 19397 H 1827.79 0.525553 3.87755 0
M  V30 19398 H 1827.41 -1.18745 3.79454 0
M  V30 19399 N 1828.41 -1.57525 0.0484906 0
M  V30 19400 C 1829.82 -1.80221 -0.487592 0
M  V30 19401 C 1830.17 -0.96049 -1.71082 0
M  V30 19402 O 1829.3 -0.17632 -2.1568 0
M  V30 19403 C 1829.89 -3.26864 -0.89136 0
M  V30 19404 C 1828.45 -3.50487 -1.37244 0
M  V30 19405 C 1827.6 -2.75129 -0.346348 0
M  V30 19406 H 1830.55 -1.5631 0.274392 0
M  V30 19407 H 1830.57 -3.37637 -1.75446 0
M  V30 19408 H 1830.08 -3.881 -0.000880924 0
M  V30 19409 H 1828.18 -2.94528 -2.2822 0
M  V30 19410 H 1828.3 -4.592 -1.36645 0
M  V30 19411 H 1826.66 -2.41185 -0.818653 0
M  V30 19412 H 1827.44 -3.3909 0.536 0
M  V30 19413 N 1829.89 0.224867 -1.55988 0
M  V30 19414 C 1831.11 0.970897 -1.83271 0
M  V30 19415 C 1831.54 1.77293 -0.628399 0
M  V30 19416 O 1830.9 1.76301 0.422804 0
M  V30 19417 C 1830.94 1.86686 -3.08514 0
M  V30 19418 O 1830.05 2.96174 -2.86975 0
M  V30 19419 H 1829.39 0.275093 -0.604334 0
M  V30 19420 H 1831.92 0.239183 -2.03197 0
M  V30 19421 H 1831.93 2.27731 -3.3853 0
M  V30 19422 H 1830.6 1.27733 -3.95799 0
M  V30 19423 H 1829.18 2.59099 -2.68183 0
M  V30 19424 N 1831.37 1.49742 0.491438 0
M  V30 19425 C 1832.61 1.60919 1.24405 0
M  V30 19426 C 1832.97 0.296423 1.90103 0
M  V30 19427 O 1832.26 -0.704127 1.78193 0
M  V30 19428 C 1832.45 2.71245 2.32725 0
M  V30 19429 C 1832.28 4.13123 1.77651 0
M  V30 19430 C 1831.05 4.79789 1.58526 0
M  V30 19431 C 1833.25 4.98042 1.28293 0
M  V30 19432 N 1831.23 6.05949 0.984807 0
M  V30 19433 C 1832.6 6.14759 0.804435 0
M  V30 19434 C 1834.66 4.83969 1.16956 0
M  V30 19435 C 1833.36 7.18952 0.223769 0
M  V30 19436 C 1835.39 5.88319 0.602855 0
M  V30 19437 C 1834.75 7.04271 0.134633 0
M  V30 19438 H 1830.85 0.643146 0.444845 0
M  V30 19439 H 1833.43 1.86785 0.549495 0
M  V30 19440 H 1831.6 2.47136 2.99631 0
M  V30 19441 H 1833.34 2.71891 2.99762 0
M  V30 19442 H 1830.09 4.36745 1.83169 0
M  V30 19443 H 1830.51 6.73334 0.703581 0
M  V30 19444 H 1835.16 3.94628 1.51753 0
M  V30 19445 H 1832.87 8.07985 -0.136447 0
M  V30 19446 H 1836.46 5.79491 0.517781 0
M  V30 19447 H 1835.34 7.83637 -0.297028 0
M  V30 19448 N 1832.84 -0.743177 1.38977 0
M  V30 19449 C 1834.26 -1.32104 1.3193 0
M  V30 19450 C 1834.61 -1.9619 -0.0201331 0
M  V30 19451 O 1833.73 -1.95764 -0.922245 0
M  V30 19452 C 1834.33 -2.40204 2.3893 0
M  V30 19453 C 1832.89 -2.93684 2.35428 0
M  V30 19454 C 1832.03 -1.67168 2.21247 0
M  V30 19455 H 1834.98 -0.541283 1.49184 0
M  V30 19456 H 1835 -3.20397 2.05246 0
M  V30 19457 H 1834.52 -1.93532 3.36403 0
M  V30 19458 H 1832.62 -3.44658 1.41568 0
M  V30 19459 H 1832.73 -3.47355 3.29971 0
M  V30 19460 H 1831.09 -1.91193 1.68278 0
M  V30 19461 H 1831.88 -1.22559 3.20678 0
M  V30 19462 N 1834.32 -1.24018 -0.972487 0
M  V30 19463 C 1835.55 -1.10483 -1.75523 0
M  V30 19464 C 1835.97 0.338985 -1.8502 0
M  V30 19465 O 1835.33 1.24534 -1.31761 0
M  V30 19466 C 1835.38 -1.74396 -3.15624 0
M  V30 19467 O 1834.48 -1.01148 -3.99804 0
M  V30 19468 H 1833.82 -0.386777 -0.539722 0
M  V30 19469 H 1836.35 -1.64231 -1.22022 0
M  V30 19470 H 1836.36 -1.79958 -3.66168 0
M  V30 19471 H 1835.04 -2.7945 -3.08026 0
M  V30 19472 H 1833.62 -1.03338 -3.58296 0
M  V30 19473 N 1835.8 1.17245 -1.05316 0
M  V30 19474 C 1837.03 1.91454 -0.78441 0
M  V30 19475 C 1837.44 1.76886 0.660053 0
M  V30 19476 O 1836.8 1.10686 1.45103 0
M  V30 19477 C 1836.85 3.42477 -1.15722 0
M  V30 19478 O 1836.57 3.56598 -2.54498 0
M  V30 19479 C 1838.07 4.33759 -0.914783 0
M  V30 19480 H 1835.29 0.607416 -0.285108 0
M  V30 19481 H 1837.84 1.48672 -1.40417 0
M  V30 19482 H 1835.99 3.83001 -0.582183 0
M  V30 19483 H 1836.41 4.50178 -2.69147 0
M  V30 19484 H 1837.88 5.38227 -1.22536 0
M  V30 19485 H 1838.36 4.38944 0.149953 0
M  V30 19486 H 1838.96 3.98951 -1.47372 0
M  V30 19487 N 1837.28 0.834353 1.33702 0
M  V30 19488 C 1838.24 0.269618 2.27609 0
M  V30 19489 C 1839.24 -0.559065 1.50768 0
M  V30 19490 O 1840.43 -0.373511 1.70149 0
M  V30 19491 C 1837.56 -0.620682 3.35202 0
M  V30 19492 H 1838.76 1.09819 2.79069 0
M  V30 19493 H 1836.31 0.607087 1.44028 0
M  V30 19494 H 1837.04 -1.47187 2.88975 0
M  V30 19495 H 1836.83 -0.0278102 3.9209 0
M  V30 19496 H 1838.32 -1.00924 4.05221 0
M  V30 19497 N 1838.76 -1.46125 0.590367 0
M  V30 19498 C 1839.69 -2.27433 -0.186997 0
M  V30 19499 C 1840.67 -1.36095 -0.889776 0
M  V30 19500 O 1841.85 -1.65511 -0.902123 0
M  V30 19501 C 1838.98 -3.14029 -1.26899 0
M  V30 19502 C 1838.02 -4.21185 -0.671223 0
M  V30 19503 S 1838.86 -5.33087 0.507766 0
M  V30 19504 C 1840.01 -6.23251 -0.575243 0
M  V30 19505 H 1840.25 -2.93016 0.502873 0
M  V30 19506 H 1837.78 -1.49715 0.377448 0
M  V30 19507 H 1839.74 -3.64483 -1.88845 0
M  V30 19508 H 1838.4 -2.47744 -1.93085 0
M  V30 19509 H 1837.59 -4.81633 -1.48478 0
M  V30 19510 H 1837.19 -3.73783 -0.127271 0
M  V30 19511 H 1839.49 -6.61606 -1.4589 0
M  V30 19512 H 1840.43 -7.081 -0.00733853 0
M  V30 19513 H 1840.84 -5.57554 -0.882831 0
M  V30 19514 N 1840.23 -0.328564 -1.54137 0
M  V30 19515 C 1841.18 0.550592 -2.25989 0
M  V30 19516 C 1842.18 1.11442 -1.27581 0
M  V30 19517 O 1843.38 1.06189 -1.45341 0
M  V30 19518 H 1839.76 0.196215 -0.72595 0
M  V30 19519 H 1841.73 -0.0776348 -2.98299 0
M  V30 19520 C 1840.48 1.69733 -3.03457 0
M  V30 19521 H 1839.8 1.27273 -3.79001 0
M  V30 19522 H 1841.24 2.28797 -3.56971 0
M  V30 19523 C 1839.7 2.61791 -2.12054 0
M  V30 19524 O 1840.23 3.63641 -1.7067 0
M  V30 19525 N 1838.44 2.30138 -1.7744 0
M  V30 19526 H 1837.98 1.47355 -2.11292 0
M  V30 19527 H 1837.94 2.91994 -1.16564 0
M  V30 19528 N 1841.71 1.57497 -0.0568439 0
M  V30 19529 C 1843.13 1.5676 0.299732 0
M  V30 19530 C 1843.33 1.065 1.71056 0
M  V30 19531 O 1842.38 0.72414 2.41893 0
M  V30 19532 C 1843.7 3.00448 0.123023 0
M  V30 19533 C 1845.25 3.124 0.193697 0
M  V30 19534 C 1845.72 4.57977 0.0454499 0
M  V30 19535 N 1847.21 4.63089 0.101543 0
M  V30 19536 C 1847.95 5.73399 0.0110306 0
M  V30 19537 N 1847.44 6.92674 -0.132152 0
M  V30 19538 N 1849.24 5.6206 0.0670216 0
M  V30 19539 H 1841.39 1.88488 -0.979078 0
M  V30 19540 H 1843.65 0.868264 -0.380554 0
M  V30 19541 H 1843.36 3.41276 -0.849919 0
M  V30 19542 H 1843.23 3.66751 0.881672 0
M  V30 19543 H 1845.62 2.71468 1.15712 0
M  V30 19544 H 1845.7 2.48765 -0.595802 0
M  V30 19545 H 1845.34 4.99596 -0.914669 0
M  V30 19546 H 1845.27 5.19626 0.854166 0
M  V30 19547 H 1847.76 3.77309 0.211226 0
M  V30 19548 H 1848.08 7.72557 -0.193769 0
M  V30 19549 H 1846.42 6.94799 -0.167314 0
M  V30 19550 H 1849.61 4.67763 0.177478 0
M  V30 19551 H 1849.78 6.48 -0.00697432 0
M  V30 19552 N 1843.19 -0.216591 1.56105 0
M  V30 19553 C 1844.15 -1.25198 1.91985 0
M  V30 19554 C 1845.15 -1.39551 0.798884 0
M  V30 19555 O 1846.34 -1.37731 1.06657 0
M  V30 19556 C 1843.48 -2.62499 2.17502 0
M  V30 19557 H 1844.67 -0.945854 2.84594 0
M  V30 19558 H 1842.22 -0.457218 1.49463 0
M  V30 19559 H 1842.96 -2.98202 1.27461 0
M  V30 19560 H 1842.74 -2.53457 2.99169 0
M  V30 19561 H 1844.23 -3.37204 2.4634 0
M  V30 19562 N 1844.67 -1.5 -0.48349 0
M  V30 19563 C 1845.63 -1.6742 -1.56535 0
M  V30 19564 C 1846.63 -0.545311 -1.51271 0
M  V30 19565 O 1847.82 -0.812112 -1.54112 0
M  V30 19566 C 1844.95 -1.6879 -2.9618 0
M  V30 19567 H 1846.15 -2.6393 -1.42412 0
M  V30 19568 H 1843.7 -1.39295 -0.708991 0
M  V30 19569 H 1844.43 -0.739285 -3.15761 0
M  V30 19570 H 1844.22 -2.50789 -3.01408 0
M  V30 19571 H 1845.71 -1.84264 -3.74749 0
M  V30 19572 N 1846.15 0.735796 -1.39369 0
M  V30 19573 C 1847.56 1.31402 -1.32628 0
M  V30 19574 C 1847.91 1.96198 0.00972836 0
M  V30 19575 O 1847.03 1.9625 0.91185 0
M  V30 19576 C 1847.63 2.38934 -2.402 0
M  V30 19577 C 1846.19 2.92432 -2.36982 0
M  V30 19578 C 1845.33 1.65992 -2.2213 0
M  V30 19579 H 1848.29 0.533364 -1.49469 0
M  V30 19580 H 1848.31 3.19304 -2.06942 0
M  V30 19581 H 1847.82 1.91745 -3.37425 0
M  V30 19582 H 1845.92 3.43903 -1.43394 0
M  V30 19583 H 1846.03 3.456 -3.31809 0
M  V30 19584 H 1844.4 1.90298 -1.69289 0
M  V30 19585 H 1845.18 1.20857 -3.21323 0
M  V30 19586 N 1847.63 1.24532 0.965897 0
M  V30 19587 C 1848.87 1.09778 1.71232 0
M  V30 19588 C 1849.23 -0.3594 1.89013 0
M  V30 19589 O 1848.52 -1.2618 1.44185 0
M  V30 19590 C 1848.71 1.77305 3.10319 0
M  V30 19591 C 1848.54 3.29439 3.06104 0
M  V30 19592 C 1847.31 3.98656 3.10485 0
M  V30 19593 C 1849.51 4.26004 2.88141 0
M  V30 19594 N 1847.49 5.37656 2.9631 0
M  V30 19595 C 1848.86 5.52013 2.8228 0
M  V30 19596 C 1850.92 4.16557 2.72736 0
M  V30 19597 C 1849.62 6.69656 2.62588 0
M  V30 19598 C 1851.65 5.33881 2.54412 0
M  V30 19599 C 1851.01 6.58823 2.49261 0
M  V30 19600 H 1847.11 0.456339 0.635042 0
M  V30 19601 H 1849.69 1.57472 1.14502 0
M  V30 19602 H 1847.86 1.32122 3.65237 0
M  V30 19603 H 1849.6 1.55395 3.73677 0
M  V30 19604 H 1846.35 3.49835 3.19237 0
M  V30 19605 H 1846.77 6.10572 2.92457 0
M  V30 19606 H 1851.42 3.20719 2.75499 0
M  V30 19607 H 1849.13 7.65616 2.58568 0
M  V30 19608 H 1852.72 5.28424 2.43433 0
M  V30 19609 H 1851.6 7.48078 2.35264 0
M  V30 19610 N 1849.1 -1.16685 1.05936 0
M  V30 19611 C 1850.35 -1.86758 0.772386 0
M  V30 19612 C 1850.67 -1.81885 -0.703051 0
M  V30 19613 O 1849.94 -1.24992 -1.50844 0
M  V30 19614 H 1848.52 -0.69143 0.282725 0
M  V30 19615 H 1851.18 -1.41518 1.3401 0
M  V30 19616 H 1850.28 -2.92296 1.09405 0
M  V30 19617 N 1850.58 -0.841432 -1.33258 0
M  V30 19618 C 1851.81 -0.451942 -2.01904 0
M  V30 19619 C 1852.22 0.94758 -1.63298 0
M  V30 19620 O 1851.58 1.61622 -0.847611 0
M  V30 19621 C 1851.63 -0.565978 -3.57042 0
M  V30 19622 O 1851.35 -1.91036 -3.94255 0
M  V30 19623 C 1852.85 -0.173776 -4.42959 0
M  V30 19624 H 1850.07 -0.179113 -0.646653 0
M  V30 19625 H 1852.62 -1.13472 -1.70131 0
M  V30 19626 H 1850.77 0.0689126 -3.87339 0
M  V30 19627 H 1851.19 -1.8977 -4.88966 0
M  V30 19628 H 1852.66 -0.304608 -5.51159 0
M  V30 19629 H 1853.14 0.884559 -4.302 0
M  V30 19630 H 1853.74 -0.783205 -4.18026 0
M  V30 19631 N 1852.06 1.4581 -0.598108 0
M  V30 19632 C 1853.48 1.57452 -0.260993 0
M  V30 19633 C 1853.68 1.59093 1.2366 0
M  V30 19634 O 1852.73 1.51614 2.01915 0
M  V30 19635 C 1854.04 2.86158 -0.923801 0
M  V30 19636 C 1855.59 2.99817 -0.89883 0
M  V30 19637 C 1856.07 4.3128 -1.54147 0
M  V30 19638 N 1857.56 4.38016 -1.50652 0
M  V30 19639 C 1858.29 5.38387 -1.973 0
M  V30 19640 N 1857.79 6.45347 -2.51991 0
M  V30 19641 N 1859.58 5.29684 -1.88124 0
M  V30 19642 H 1851.73 1.42988 -1.57061 0
M  V30 19643 H 1854 0.683038 -0.657391 0
M  V30 19644 H 1853.7 2.90812 -1.97791 0
M  V30 19645 H 1853.58 3.74609 -0.441318 0
M  V30 19646 H 1855.96 2.94735 0.146702 0
M  V30 19647 H 1856.04 2.12801 -1.41949 0
M  V30 19648 H 1855.69 4.3712 -2.58628 0
M  V30 19649 H 1855.62 5.17097 -0.995911 0
M  V30 19650 H 1858.11 3.61326 -1.1069 0
M  V30 19651 H 1858.42 7.18168 -2.85403 0
M  V30 19652 H 1856.77 6.46124 -2.56025 0
M  V30 19653 H 1859.96 4.45029 -1.45144 0
M  V30 19654 H 1860.13 6.0776 -2.24793 0
M  V30 19655 N 1853.54 0.336733 1.53961 0
M  V30 19656 C 1854.95 -0.0154439 1.59593 0
M  V30 19657 C 1855.15 -1.49328 1.35291 0
M  V30 19658 O 1854.21 -2.25107 1.14381 0
M  V30 19659 C 1855.52 0.414613 2.97828 0
M  V30 19660 C 1857.07 0.36638 3.10848 0
M  V30 19661 C 1857.55 0.7718 4.5145 0
M  V30 19662 N 1859.04 0.725719 4.5748 0
M  V30 19663 C 1859.77 1.01145 5.64409 0
M  V30 19664 N 1859.27 1.36499 6.7922 0
M  V30 19665 N 1861.06 0.936141 5.5425 0
M  V30 19666 H 1853.21 1.29944 1.68012 0
M  V30 19667 H 1855.47 0.529259 0.786504 0
M  V30 19668 H 1855.18 1.44476 3.20655 0
M  V30 19669 H 1855.05 -0.21367 3.76594 0
M  V30 19670 H 1857.44 -0.65458 2.87749 0
M  V30 19671 H 1857.52 1.02978 2.34157 0
M  V30 19672 H 1857.17 1.79074 4.75284 0
M  V30 19673 H 1857.1 0.0859543 5.2653 0
M  V30 19674 H 1859.59 0.464858 3.7503 0
M  V30 19675 H 1859.9 1.56805 7.56725 0
M  V30 19676 H 1858.25 1.40338 6.80684 0
M  V30 19677 H 1861.44 0.659334 4.63433 0
M  V30 19678 H 1861.61 1.16217 6.37493 0
M  V30 19679 N 1855.02 -1.57465 0.0651956 0
M  V30 19680 C 1855.95 -2.15374 -0.902018 0
M  V30 19681 C 1856.93 -1.07904 -1.31494 0
M  V30 19682 O 1858.11 -1.35909 -1.38717 0
M  V30 19683 C 1855.24 -2.71005 -2.17195 0
M  V30 19684 C 1854.2 -3.83583 -1.89864 0
M  V30 19685 C 1853.52 -4.25789 -3.23432 0
M  V30 19686 C 1854.82 -5.08112 -1.20913 0
M  V30 19687 H 1856.52 -2.96445 -0.419631 0
M  V30 19688 H 1854.06 -1.42599 -0.200401 0
M  V30 19689 H 1856.01 -3.1016 -2.8527 0
M  V30 19690 H 1854.74 -1.87146 -2.67664 0
M  V30 19691 H 1853.4 -3.44921 -1.24197 0
M  V30 19692 H 1853.05 -3.38861 -3.71729 0
M  V30 19693 H 1852.75 -5.01673 -3.05938 0
M  V30 19694 H 1854.27 -4.67555 -3.92715 0
M  V30 19695 H 1855.68 -5.44624 -1.79046 0
M  V30 19696 H 1854.08 -5.8923 -1.137 0
M  V30 19697 H 1855.15 -4.84538 -0.187224 0
M  V30 19698 N 1856.49 0.20831 -1.56217 0
M  V30 19699 C 1857.42 1.26115 -1.96513 0
M  V30 19700 C 1858.4 1.48185 -0.835183 0
M  V30 19701 O 1859.59 1.60145 -1.09851 0
M  V30 19702 C 1856.72 2.6082 -2.29326 0
M  V30 19703 C 1855.67 2.53385 -3.44935 0
M  V30 19704 C 1855 3.92241 -3.63388 0
M  V30 19705 C 1856.3 2.07026 -4.79518 0
M  V30 19706 H 1857.99 0.92635 -2.84709 0
M  V30 19707 H 1855.54 0.444169 -1.36979 0
M  V30 19708 H 1857.49 3.34644 -2.56109 0
M  V30 19709 H 1856.22 2.96014 -1.37997 0
M  V30 19710 H 1854.88 1.82018 -3.18222 0
M  V30 19711 H 1854.52 4.24766 -2.69413 0
M  V30 19712 H 1854.22 3.88145 -4.41154 0
M  V30 19713 H 1855.75 4.67707 -3.92533 0
M  V30 19714 H 1857.16 2.70601 -5.05419 0
M  V30 19715 H 1855.56 2.13961 -5.60661 0
M  V30 19716 H 1856.63 1.02298 -4.73986 0
M  V30 19717 N 1857.97 1.50255 0.475528 0
M  V30 19718 C 1858.92 1.69315 1.59484 0
M  V30 19719 C 1859.91 0.558996 1.59911 0
M  V30 19720 O 1861.12 0.73937 1.64114 0
M  V30 19721 H 1857.49 0.534338 0.529138 0
M  V30 19722 H 1859.47 2.63217 1.40568 0
M  V30 19723 C 1858.21 1.80042 2.97456 0
M  V30 19724 H 1857.54 2.667 2.97844 0
M  V30 19725 H 1858.98 1.97405 3.75243 0
M  V30 19726 C 1857.44 0.551002 3.32364 0
M  V30 19727 O 1857.97 -0.311853 4.00488 0
M  V30 19728 N 1856.17 0.406343 2.87745 0
M  V30 19729 H 1855.72 1.10953 2.32481 0
M  V30 19730 H 1855.68 -0.428483 3.11467 0
M  V30 19731 N 1859.45 -0.728395 1.39758 0
M  V30 19732 C 1860.7 -1.48916 1.38548 0
M  V30 19733 C 1861.05 -1.92393 -0.0166523 0
M  V30 19734 O 1860.34 -1.64371 -0.984518 0
M  V30 19735 C 1860.54 -2.73735 2.29791 0
M  V30 19736 C 1860.37 -2.42465 3.78736 0
M  V30 19737 C 1859.14 -2.34435 4.47625 0
M  V30 19738 C 1861.33 -2.07573 4.70551 0
M  V30 19739 N 1859.32 -1.95705 5.8187 0
M  V30 19740 C 1860.69 -1.7934 5.93496 0
M  V30 19741 C 1862.74 -1.94098 4.58509 0
M  V30 19742 C 1861.45 -1.38989 7.05744 0
M  V30 19743 C 1863.47 -1.55151 5.70686 0
M  V30 19744 C 1862.83 -1.27807 6.92708 0
M  V30 19745 H 1858.93 -0.543508 0.562248 0
M  V30 19746 H 1861.52 -0.845916 1.75363 0
M  V30 19747 H 1859.69 -3.3583 1.95123 0
M  V30 19748 H 1861.42 -3.39985 2.19528 0
M  V30 19749 H 1858.17 -2.51751 4.01146 0
M  V30 19750 H 1858.6 -1.78914 6.52931 0
M  V30 19751 H 1863.24 -2.13904 3.64698 0
M  V30 19752 H 1860.96 -1.17925 7.99449 0
M  V30 19753 H 1864.54 -1.45321 5.63359 0
M  V30 19754 H 1863.42 -0.981212 7.78037 0
M  V30 19755 N 1860.93 -1.25042 -0.959279 0
M  V30 19756 C 1862.18 -1.08912 -1.69768 0
M  V30 19757 C 1862.49 0.370558 -1.92058 0
M  V30 19758 O 1863.7 0.652214 -2.6355 0
M  V30 19759 C 1862.15 -1.90075 -3.05613 0
M  V30 19760 C 1861.76 -3.40506 -2.91136 0
M  V30 19761 C 1863.5 -1.825 -3.83268 0
M  V30 19762 C 1861.41 -4.13982 -4.22343 0
M  V30 19763 H 1860.34 -0.403959 -0.636658 0
M  V30 19764 H 1862.99 -1.49198 -1.06828 0
M  V30 19765 H 1861.37 -1.42609 -3.6943 0
M  V30 19766 H 1862.55 -3.95612 -2.36279 0
M  V30 19767 H 1860.86 -3.49123 -2.2694 0
M  V30 19768 H 1863.46 -2.34693 -4.80441 0
M  V30 19769 H 1863.8 -0.791947 -4.08698 0
M  V30 19770 H 1864.34 -2.27691 -3.26192 0
M  V30 19771 H 1861.07 -5.17681 -4.02103 0
M  V30 19772 H 1860.59 -3.6366 -4.76982 0
M  V30 19773 H 1862.27 -4.21443 -4.90913 0
M  V30 19774 N 1862.41 1.16121 -1.06553 0
M  V30 19775 C 1863.35 2.20597 -0.678659 0
M  V30 19776 C 1864.32 1.6287 0.325988 0
M  V30 19777 O 1865.51 1.89593 0.214278 0
M  V30 19778 C 1862.65 3.45021 -0.0740442 0
M  V30 19779 C 1861.76 4.16981 -1.12919 0
M  V30 19780 C 1860.9 5.28931 -0.490435 0
M  V30 19781 C 1859.94 5.92697 -1.52893 0
M  V30 19782 N 1859.07 6.96134 -0.913346 0
M  V30 19783 H 1863.91 2.53041 -1.57398 0
M  V30 19784 H 1861.45 1.24282 -0.786923 0
M  V30 19785 H 1863.41 4.16162 0.294059 0
M  V30 19786 H 1862.04 3.13118 0.784671 0
M  V30 19787 H 1861.09 3.44417 -1.61496 0
M  V30 19788 H 1862.4 4.60495 -1.91693 0
M  V30 19789 H 1861.56 6.0666 -0.0695112 0
M  V30 19790 H 1860.29 4.86588 0.329154 0
M  V30 19791 H 1859.3 5.13688 -1.95972 0
M  V30 19792 H 1860.52 6.37119 -2.35066 0
M  V30 19793 H 1858.47 6.559 -0.114515 0
M  V30 19794 H 1858.39 7.38032 -1.63843 0
M  V30 19795 H 1859.66 7.77779 -0.517655 0
M  V30 19796 N 1863.88 0.848487 1.3281 0
M  V30 19797 C 1864.79 0.291355 2.32784 0
M  V30 19798 C 1865.81 -0.587621 1.63777 0
M  V30 19799 O 1866.99 -0.489458 1.95362 0
M  V30 19800 C 1864.05 -0.51634 3.42834 0
M  V30 19801 C 1863.11 0.388046 4.27543 0
M  V30 19802 C 1862.35 -0.381197 5.32337 0
M  V30 19803 O 1862.57 -1.61186 5.47152 0
M  V30 19804 O 1861.5 0.2498 6.01381 0
M  V30 19805 H 1865.33 1.11947 2.82315 0
M  V30 19806 H 1862.91 0.611259 1.36323 0
M  V30 19807 H 1864.8 -0.974995 4.09966 0
M  V30 19808 H 1863.47 -1.32136 2.95503 0
M  V30 19809 H 1862.38 0.894745 3.63243 0
M  V30 19810 H 1863.71 1.15808 4.78382 0
M  V30 19811 N 1865.36 -1.4549 0.605832 0
M  V30 19812 C 1866.27 -2.34313 -0.115915 0
M  V30 19813 C 1867.29 -1.51136 -0.862199 0
M  V30 19814 O 1868.46 -1.83943 -0.820181 0
M  V30 19815 C 1865.53 -3.28724 -1.10188 0
M  V30 19816 C 1864.59 -4.27807 -0.357749 0
M  V30 19817 C 1863.82 -5.17707 -1.29675 0
M  V30 19818 O 1864.05 -5.10999 -2.53448 0
M  V30 19819 O 1862.98 -5.9663 -0.794767 0
M  V30 19820 H 1866.81 -2.97429 0.613981 0
M  V30 19821 H 1864.39 -1.44845 0.366103 0
M  V30 19822 H 1866.27 -3.86905 -1.6698 0
M  V30 19823 H 1864.95 -2.68175 -1.81284 0
M  V30 19824 H 1863.86 -3.73246 0.252588 0
M  V30 19825 H 1865.19 -4.91206 0.312682 0
M  V30 19826 N 1866.84 -0.344893 -1.5378 0
M  V30 19827 C 1868.07 0.252193 -2.05055 0
M  V30 19828 C 1868.48 1.44657 -1.21947 0
M  V30 19829 O 1867.82 1.82018 -0.248012 0
M  V30 19830 C 1867.88 0.729619 -3.52018 0
M  V30 19831 C 1867.55 -0.345284 -4.55694 0
M  V30 19832 C 1868.54 -1.18843 -5.06135 0
M  V30 19833 C 1866.23 -0.499596 -4.99809 0
M  V30 19834 C 1868.22 -2.17141 -5.99273 0
M  V30 19835 C 1865.91 -1.48598 -5.92758 0
M  V30 19836 C 1866.91 -2.32033 -6.42378 0
M  V30 19837 O 1866.6 -3.28992 -7.33498 0
M  V30 19838 H 1866.33 0.0522523 -0.673978 0
M  V30 19839 H 1868.88 -0.495473 -1.99334 0
M  V30 19840 H 1867.11 1.52855 -3.55207 0
M  V30 19841 H 1868.8 1.2474 -3.86257 0
M  V30 19842 H 1869.57 -1.0803 -4.72816 0
M  V30 19843 H 1865.45 0.14 -4.60787 0
M  V30 19844 H 1868.99 -2.82303 -6.37927 0
M  V30 19845 H 1864.89 -1.59466 -6.25493 0
M  V30 19846 H 1865.66 -3.24479 -7.51436 0
M  V30 19847 N 1868.32 1.57428 -0.0735454 0
M  V30 19848 C 1869.57 1.93174 0.593996 0
M  V30 19849 C 1869.89 0.954462 1.70044 0
M  V30 19850 O 1869.16 0.00289765 1.959 0
M  V30 19851 H 1867.74 0.713123 0.222407 0
M  V30 19852 H 1870.4 1.94454 -0.131813 0
M  V30 19853 H 1869.5 2.95025 1.01818 0
M  V30 19854 N 1869.8 -0.200022 1.56326 0
M  V30 19855 C 1871.07 -0.946774 1.71159 0
M  V30 19856 C 1871.45 -2.01576 0.626939 0
M  V30 19857 O 1870.8 -2.25601 -0.362834 0
M  V30 19858 C 1871.01 -1.53767 3.13299 0
M  V30 19859 C 1872.36 -2.02169 3.7338 0
M  V30 19860 O 1873.38 -1.6362 3.16397 0
M  V30 19861 O 1872.24 -2.7309 4.73375 0
M  V30 19862 H 1869.34 -0.443669 0.697916 0
M  V30 19863 H 1871.88 -0.190107 1.68632 0
M  V30 19864 H 1870.65 -0.766886 3.83712 0
M  V30 19865 H 1870.28 -2.35931 3.20035 0
M  V30 19866 N 1871.27 -1.50505 -0.467553 0
M  V30 19867 C 1872.52 -1.60911 -1.21617 0
M  V30 19868 C 1872.84 -0.31663 -1.9302 0
M  V30 19869 O 1874.04 -0.299645 -2.69841 0
M  V30 19870 C 1872.5 -2.84052 -2.21003 0
M  V30 19871 C 1872.11 -4.20189 -1.55386 0
M  V30 19872 C 1873.85 -3.03805 -2.96484 0
M  V30 19873 C 1871.76 -5.34514 -2.5308 0
M  V30 19874 H 1870.69 -0.59924 -0.457633 0
M  V30 19875 H 1873.34 -1.7694 -0.486276 0
M  V30 19876 H 1871.72 -2.6159 -2.97299 0
M  V30 19877 H 1872.89 -4.5292 -0.848552 0
M  V30 19878 H 1871.21 -4.0607 -0.921725 0
M  V30 19879 H 1873.81 -3.86387 -3.69606 0
M  V30 19880 H 1874.15 -2.15672 -3.56078 0
M  V30 19881 H 1874.68 -3.26465 -2.27301 0
M  V30 19882 H 1871.42 -6.24811 -1.9822 0
M  V30 19883 H 1870.94 -5.06197 -3.21752 0
M  V30 19884 H 1872.62 -5.65232 -3.14836 0
M  V30 19885 N 1872.75 0.720973 -1.40142 0
M  V30 19886 C 1874.16 1.29988 -1.34015 0
M  V30 19887 C 1874.51 1.96197 -0.0110816 0
M  V30 19888 O 1873.64 1.97207 0.890984 0
M  V30 19889 C 1874.23 2.36373 -2.42721 0
M  V30 19890 C 1872.79 2.89902 -2.40071 0
M  V30 19891 C 1871.94 1.63627 -2.23878 0
M  V30 19892 H 1874.89 0.51748 -1.50026 0
M  V30 19893 H 1874.91 3.17091 -2.10317 0
M  V30 19894 H 1874.42 1.88156 -3.39439 0
M  V30 19895 H 1872.53 3.42362 -1.47033 0
M  V30 19896 H 1872.64 3.42062 -3.35456 0
M  V30 19897 H 1871 1.88491 -1.71298 0
M  V30 19898 H 1871.79 1.17442 -3.22587 0
M  V30 19899 N 1874.23 1.25549 0.952634 0
M  V30 19900 C 1875.48 1.09811 1.69188 0
M  V30 19901 C 1875.79 -0.360368 1.92252 0
M  V30 19902 O 1877 -0.638228 2.63892 0
M  V30 19903 C 1875.45 1.91693 3.04601 0
M  V30 19904 C 1875.06 3.42045 2.89326 0
M  V30 19905 C 1876.81 1.8453 3.82294 0
M  V30 19906 C 1874.71 4.16216 4.20141 0
M  V30 19907 H 1873.64 0.40733 0.634507 0
M  V30 19908 H 1876.29 1.49762 1.06035 0
M  V30 19909 H 1874.68 1.44566 3.68669 0
M  V30 19910 H 1875.85 3.96859 2.34178 0
M  V30 19911 H 1874.17 3.50322 2.25085 0
M  V30 19912 H 1876.76 2.37237 4.79189 0
M  V30 19913 H 1877.11 0.81361 4.08272 0
M  V30 19914 H 1877.64 2.29418 3.2498 0
M  V30 19915 H 1874.38 5.19806 3.99352 0
M  V30 19916 H 1873.9 3.66184 4.75047 0
M  V30 19917 H 1875.58 4.2404 4.88671 0
M  V30 19918 N 1875.71 -1.15554 1.07168 0
M  V30 19919 C 1876.94 -1.89906 0.813588 0
M  V30 19920 C 1877.35 -1.78164 -0.636732 0
M  V30 19921 O 1876.69 -1.13 -1.44833 0
M  V30 19922 C 1876.75 -3.40937 1.14028 0
M  V30 19923 C 1876.42 -3.76465 2.59082 0
M  V30 19924 C 1877.41 -3.77643 3.57326 0
M  V30 19925 C 1875.1 -4.06829 2.94611 0
M  V30 19926 C 1877.09 -4.08688 4.89134 0
M  V30 19927 C 1874.78 -4.37539 4.26618 0
M  V30 19928 C 1875.78 -4.3845 5.23689 0
M  V30 19929 O 1875.46 -4.68425 6.53325 0
M  V30 19930 H 1875.2 -0.608773 0.293891 0
M  V30 19931 H 1877.75 -1.4735 1.43098 0
M  V30 19932 H 1875.98 -3.83884 0.465848 0
M  V30 19933 H 1877.67 -3.96575 0.865029 0
M  V30 19934 H 1878.44 -3.54286 3.31219 0
M  V30 19935 H 1874.31 -4.05279 2.19704 0
M  V30 19936 H 1877.86 -4.09315 5.64896 0
M  V30 19937 H 1873.76 -4.60363 4.52478 0
M  V30 19938 H 1874.52 -4.86198 6.58448 0
M  V30 19939 N 1877.19 -0.855519 -1.32358 0
M  V30 19940 C 1878.44 -0.455543 -1.96488 0
M  V30 19941 C 1878.75 0.99419 -1.68449 0
M  V30 19942 O 1879.96 1.49964 -2.26325 0
M  V30 19943 C 1878.41 -0.763678 -3.51704 0
M  V30 19944 C 1878.02 -2.2292 -3.88601 0
M  V30 19945 C 1879.76 -0.431467 -4.22302 0
M  V30 19946 C 1877.67 -2.48051 -5.36866 0
M  V30 19947 H 1876.6 -0.166617 -0.73536 0
M  V30 19948 H 1879.25 -1.04642 -1.50739 0
M  V30 19949 H 1877.63 -0.102224 -3.95868 0
M  V30 19950 H 1878.81 -2.93251 -3.55444 0
M  V30 19951 H 1877.12 -2.52602 -3.31031 0
M  V30 19952 H 1879.72 -0.596641 -5.31361 0
M  V30 19953 H 1880.06 0.62698 -4.11552 0
M  V30 19954 H 1880.6 -1.04885 -3.83724 0
M  V30 19955 H 1877.33 -3.52523 -5.52637 0
M  V30 19956 H 1876.85 -1.82298 -5.71426 0
M  V30 19957 H 1878.53 -2.32044 -6.03957 0
M  V30 19958 N 1878.67 1.45167 -0.61354 0
M  V30 19959 C 1879.89 2.06565 -0.117608 0
M  V30 19960 C 1880.31 1.45716 1.20051 0
M  V30 19961 O 1879.67 0.573512 1.73254 0
M  V30 19962 C 1879.72 3.61493 0.0221474 0
M  V30 19963 O 1879.44 4.20072 -1.24383 0
M  V30 19964 C 1880.94 4.39889 0.548841 0
M  V30 19965 H 1878.16 0.667172 -0.0715756 0
M  V30 19966 H 1880.7 1.86318 -0.84296 0
M  V30 19967 H 1878.86 3.81063 0.697854 0
M  V30 19968 H 1879.27 5.13317 -1.07733 0
M  V30 19969 H 1880.75 5.48776 0.595696 0
M  V30 19970 H 1881.22 4.1009 1.57234 0
M  V30 19971 H 1881.83 4.25198 -0.0930203 0
M  V30 19972 N 1880.14 0.353044 1.53595 0
M  V30 19973 C 1881.05 -0.507548 2.29044 0
M  V30 19974 C 1882.07 -1.10364 1.34521 0
M  V30 19975 O 1883.25 -1.11728 1.67567 0
M  V30 19976 C 1880.31 -1.63799 3.05566 0
M  V30 19977 C 1879.37 -1.07071 4.15733 0
M  V30 19978 C 1878.6 -2.14728 4.88597 0
M  V30 19979 O 1878.83 -3.35619 4.61211 0
M  V30 19980 O 1877.76 -1.78489 5.74826 0
M  V30 19981 H 1881.59 0.10606 3.03515 0
M  V30 19982 H 1879.17 0.117799 1.48935 0
M  V30 19983 H 1881.05 -2.2955 3.5339 0
M  V30 19984 H 1879.73 -2.23723 2.33944 0
M  V30 19985 H 1878.64 -0.37746 3.72191 0
M  V30 19986 H 1879.97 -0.516205 4.89486 0
M  V30 19987 N 1881.62 -1.57387 0.0818932 0
M  V30 19988 C 1882.57 -2.14508 -0.899386 0
M  V30 19989 C 1883.56 -1.08453 -1.30132 0
M  V30 19990 O 1884.77 -1.26818 -1.27739 0
M  V30 19991 H 1881.14 -0.686024 -0.308018 0
M  V30 19992 H 1883.12 -2.95804 -0.392786 0
M  V30 19993 C 1881.86 -2.72963 -2.15375 0
M  V30 19994 H 1881.19 -3.54248 -1.85333 0
M  V30 19995 H 1882.63 -3.16515 -2.82125 0
M  V30 19996 C 1881.09 -1.68212 -2.91901 0
M  V30 19997 O 1881.62 -1.11314 -3.85969 0
M  V30 19998 N 1879.82 -1.3901 -2.55195 0
M  V30 19999 H 1879.37 -1.85468 -1.78771 0
M  V30 20000 H 1879.33 -0.691582 -3.06699 0
M  V30 20001 N 1883.1 0.191729 -1.56429 0
M  V30 20002 C 1884.35 0.909797 -1.80464 0
M  V30 20003 C 1884.67 1.83652 -0.655516 0
M  V30 20004 O 1883.94 1.93169 0.325946 0
M  V30 20005 H 1882.52 0.338944 -0.665677 0
M  V30 20006 H 1885.18 0.196432 -1.93908 0
M  V30 20007 H 1884.28 1.49891 -2.7375 0
M  V30 20008 N 1884.58 1.50751 0.459565 0
M  V30 20009 C 1885.82 1.62556 1.21258 0
M  V30 20010 C 1886.16 0.330265 1.91371 0
M  V30 20011 O 1885.43 -0.668955 1.82634 0
M  V30 20012 C 1885.71 2.8138 2.24716 0
M  V30 20013 C 1885.57 4.20823 1.58832 0
M  V30 20014 C 1886.89 2.95744 3.2592 0
M  V30 20015 H 1884.01 0.591628 0.439483 0
M  V30 20016 H 1886.65 1.83172 0.504777 0
M  V30 20017 H 1884.8 2.63933 2.85082 0
M  V30 20018 H 1886.47 4.49888 1.01975 0
M  V30 20019 H 1884.71 4.24548 0.891148 0
M  V30 20020 H 1885.38 4.99915 2.3407 0
M  V30 20021 H 1887.86 3.11754 2.75588 0
M  V30 20022 H 1886.74 3.80488 3.95626 0
M  V30 20023 H 1887 2.06852 3.90723 0
M  V30 20024 N 1886.06 -0.713531 1.40522 0
M  V30 20025 C 1887.3 -1.47052 1.38637 0
M  V30 20026 C 1887.62 -1.94998 -0.00984474 0
M  V30 20027 O 1886.89 -1.70486 -0.964959 0
M  V30 20028 H 1885.47 -0.545577 0.51025 0
M  V30 20029 H 1888.14 -0.84572 1.75595 0
M  V30 20030 H 1887.23 -2.34237 2.06251 0
M  V30 20031 N 1887.53 -1.26053 -0.945962 0
M  V30 20032 C 1888.46 -1.09687 -2.06134 0
M  V30 20033 C 1889.44 -0.00341513 -1.701 0
M  V30 20034 O 1890.63 -0.174559 -1.93414 0
M  V30 20035 C 1887.76 -0.724007 -3.3967 0
M  V30 20036 C 1886.71 -1.76866 -3.89747 0
M  V30 20037 C 1886.04 -1.25025 -5.19878 0
M  V30 20038 C 1887.34 -3.16923 -4.15159 0
M  V30 20039 H 1889.03 -2.02986 -2.20084 0
M  V30 20040 H 1886.58 -0.977346 -1.05754 0
M  V30 20041 H 1888.53 -0.596411 -4.17158 0
M  V30 20042 H 1887.26 0.244695 -3.25682 0
M  V30 20043 H 1885.92 -1.88485 -3.14435 0
M  V30 20044 H 1885.56 -0.271527 -5.02267 0
M  V30 20045 H 1885.26 -1.94853 -5.54352 0
M  V30 20046 H 1886.79 -1.13523 -5.99954 0
M  V30 20047 H 1888.2 -3.08409 -4.83277 0
M  V30 20048 H 1886.6 -3.84299 -4.60906 0
M  V30 20049 H 1887.67 -3.63337 -3.21114 0
M  V30 20050 N 1889.01 1.14984 -1.07779 0
M  V30 20051 C 1890.24 1.89747 -0.824844 0
M  V30 20052 C 1890.65 1.78246 0.622385 0
M  V30 20053 O 1890.01 1.13739 1.42723 0
M  V30 20054 C 1890.06 3.39946 -1.2296 0
M  V30 20055 O 1889.78 3.5112 -2.62005 0
M  V30 20056 C 1891.28 4.31721 -1.00658 0
M  V30 20057 H 1888.5 0.601232 -0.297928 0
M  V30 20058 H 1891.05 1.4566 -1.43539 0
M  V30 20059 H 1889.2 3.81679 -0.663292 0
M  V30 20060 H 1889.62 4.44367 -2.78636 0
M  V30 20061 H 1891.09 5.35507 -1.33925 0
M  V30 20062 H 1891.57 4.39163 0.0568131 0
M  V30 20063 H 1892.17 3.95735 -1.55801 0
M  V30 20064 N 1890.49 0.862526 1.31902 0
M  V30 20065 C 1891.44 0.301807 2.30634 0
M  V30 20066 C 1892.43 -0.579086 1.59195 0
M  V30 20067 O 1893.64 -0.466014 1.73863 0
M  V30 20068 H 1890.01 0.078905 0.747849 0
M  V30 20069 H 1891.98 1.1486 2.75408 0
M  V30 20070 C 1890.73 -0.48822 3.44255 0
M  V30 20071 H 1890.06 0.18033 3.99393 0
M  V30 20072 H 1891.5 -0.846013 4.15474 0
M  V30 20073 C 1889.95 -1.67656 2.92221 0
M  V30 20074 O 1890.48 -2.77577 2.90369 0
M  V30 20075 N 1888.69 -1.50622 2.48518 0
M  V30 20076 H 1888.24 -0.612021 2.50224 0
M  V30 20077 H 1888.2 -2.30275 2.14058 0
M  V30 20078 N 1891.97 -1.4484 0.62123 0
M  V30 20079 C 1893.38 -1.85568 0.205284 0
M  V30 20080 C 1893.73 -1.51963 -1.24104 0
M  V30 20081 O 1892.86 -0.952887 -1.94291 0
M  V30 20082 C 1893.45 -3.3682 0.365788 0
M  V30 20083 C 1892.01 -3.764 0.00442911 0
M  V30 20084 C 1891.16 -2.68736 0.683839 0
M  V30 20085 H 1894.11 -1.35447 0.827036 0
M  V30 20086 H 1894.13 -3.78411 -0.398123 0
M  V30 20087 H 1893.64 -3.61247 1.41853 0
M  V30 20088 H 1891.74 -3.57588 -1.04696 0
M  V30 20089 H 1891.85 -4.77363 0.407588 0
M  V30 20090 H 1890.22 -2.54417 0.120114 0
M  V30 20091 H 1891 -2.95997 1.73898 0
M  V30 20092 N 1893.45 -0.361184 -1.53405 0
M  V30 20093 C 1894.39 0.502532 -2.27107 0
M  V30 20094 C 1895.39 1.08711 -1.29916 0
M  V30 20095 O 1896.59 1.03082 -1.47561 0
M  V30 20096 H 1892.97 0.180773 -0.729949 0
M  V30 20097 H 1894.94 -0.140891 -2.98067 0
M  V30 20098 C 1893.69 1.63258 -3.06989 0
M  V30 20099 H 1893.01 1.19205 -3.81615 0
M  V30 20100 H 1894.45 2.21174 -3.61743 0
M  V30 20101 C 1892.91 2.57234 -2.17559 0
M  V30 20102 O 1893.44 3.59939 -1.78345 0
M  V30 20103 N 1891.65 2.26322 -1.82282 0
M  V30 20104 H 1891.19 1.4284 -2.1437 0
M  V30 20105 H 1891.15 2.89455 -1.22731 0
M  V30 20106 N 1894.92 1.57341 -0.0902386 0
M  V30 20107 C 1896.15 1.98513 0.583126 0
M  V30 20108 C 1896.57 0.969208 1.62024 0
M  V30 20109 O 1895.92 -0.041815 1.82452 0
M  V30 20110 C 1895.98 3.39743 1.2352 0
M  V30 20111 O 1895.7 4.37444 0.239568 0
M  V30 20112 C 1897.2 3.9589 1.99463 0
M  V30 20113 H 1894.42 0.652446 0.156701 0
M  V30 20114 H 1896.96 2.03808 -0.168092 0
M  V30 20115 H 1895.12 3.35477 1.93738 0
M  V30 20116 H 1895.53 5.19677 0.709619 0
M  V30 20117 H 1897 4.96876 2.40454 0
M  V30 20118 H 1897.48 3.33441 2.85856 0
M  V30 20119 H 1898.09 4.03615 1.34072 0
M  V30 20120 N 1896.4 -0.183431 1.56529 0
M  V30 20121 C 1897.31 -1.24746 1.98684 0
M  V30 20122 C 1898.33 -1.49139 0.8963 0
M  V30 20123 O 1899.5 -1.61525 1.20298 0
M  V30 20124 C 1896.57 -2.56927 2.32786 0
M  V30 20125 C 1895.63 -2.40503 3.55607 0
M  V30 20126 C 1894.86 -3.66381 3.88073 0
M  V30 20127 O 1895.09 -4.71048 3.21668 0
M  V30 20128 O 1894.02 -3.61214 4.81465 0
M  V30 20129 H 1897.85 -0.919676 2.8944 0
M  V30 20130 H 1895.43 -0.389352 1.44237 0
M  V30 20131 H 1897.31 -3.34923 2.55744 0
M  V30 20132 H 1895.99 -2.89309 1.45196 0
M  V30 20133 H 1894.9 -1.6058 3.37883 0
M  V30 20134 H 1896.23 -2.1305 4.43701 0
M  V30 20135 N 1897.88 -1.50992 -0.451564 0
M  V30 20136 C 1899.16 -1.53486 -1.2125 0
M  V30 20137 C 1899.54 -0.290809 -2.09087 0
M  V30 20138 O 1898.89 0.724859 -2.16698 0
M  V30 20139 C 1899.1 -2.84125 -2.02667 0
M  V30 20140 C 1900.44 -3.35535 -2.60195 0
M  V30 20141 O 1901.47 -2.85579 -2.12892 0
M  V30 20142 O 1900.33 -4.22667 -3.46432 0
M  V30 20143 H 1897.42 -0.616481 -0.551253 0
M  V30 20144 H 1899.97 -1.63296 -0.461792 0
M  V30 20145 H 1898.74 -3.66134 -1.38064 0
M  V30 20146 H 1898.36 -2.7741 -2.84832 0
M  V30 20147 N 1899.36 0.706069 -1.40899 0
M  V30 20148 C 1900.59 1.49504 -1.43025 0
M  V30 20149 C 1901 1.88772 -0.0325752 0
M  V30 20150 O 1900.36 1.56085 0.945716 0
M  V30 20151 C 1900.41 2.76431 -2.32955 0
M  V30 20152 O 1900.13 2.38821 -3.67282 0
M  V30 20153 C 1901.63 3.70255 -2.43774 0
M  V30 20154 H 1898.85 0.461069 -0.4875 0
M  V30 20155 H 1901.4 0.870198 -1.85062 0
M  V30 20156 H 1899.55 3.35177 -1.94255 0
M  V30 20157 H 1899.96 3.2056 -4.1514 0
M  V30 20158 H 1901.44 4.56129 -3.10887 0
M  V30 20159 H 1901.92 4.14021 -1.46573 0
M  V30 20160 H 1902.52 3.17417 -2.83066 0
M  V30 20161 N 1900.84 1.26553 0.939264 0
M  V30 20162 C 1902.11 1.02956 1.66312 0
M  V30 20163 C 1902.49 -0.439417 2.06476 0
M  V30 20164 O 1901.84 -1.42019 1.79005 0
M  V30 20165 C 1902.05 1.98013 2.87388 0
M  V30 20166 C 1903.4 2.26732 3.58996 0
M  V30 20167 O 1904.42 1.95894 2.97496 0
M  V30 20168 O 1903.28 2.79244 4.69771 0
M  V30 20169 H 1900.38 0.391621 0.728397 0
M  V30 20170 H 1902.92 1.37771 0.990824 0
M  V30 20171 H 1901.69 2.97133 2.54613 0
M  V30 20172 H 1901.32 1.63689 3.62342 0
M  V30 20173 N 1902.31 -1.14411 1.08387 0
M  V30 20174 C 1903.73 -1.37432 0.811464 0
M  V30 20175 C 1903.93 -1.92992 -0.579345 0
M  V30 20176 O 1902.99 -2.14249 -1.33618 0
M  V30 20177 C 1904.3 -2.33557 1.89398 0
M  V30 20178 C 1905.85 -2.47197 1.91996 0
M  V30 20179 C 1906.32 -3.46622 2.99361 0
M  V30 20180 N 1907.81 -3.54165 2.98532 0
M  V30 20181 C 1908.55 -4.30946 3.78249 0
M  V30 20182 N 1908.04 -5.10972 4.67846 0
M  V30 20183 N 1909.84 -4.26141 3.66552 0
M  V30 20184 H 1901.99 -0.76694 1.9807 0
M  V30 20185 H 1904.25 -0.399866 0.859541 0
M  V30 20186 H 1903.96 -1.99868 2.89388 0
M  V30 20187 H 1903.83 -3.33459 1.7631 0
M  V30 20188 H 1906.22 -2.80178 0.926513 0
M  V30 20189 H 1906.3 -1.47258 2.09162 0
M  V30 20190 H 1905.94 -3.14374 3.98913 0
M  V30 20191 H 1905.87 -4.46341 2.7944 0
M  V30 20192 H 1908.36 -2.97057 2.33593 0
M  V30 20193 H 1908.68 -5.66834 5.2528 0
M  V30 20194 H 1907.02 -5.10241 4.71889 0
M  V30 20195 H 1910.21 -3.62693 2.95925 0
M  V30 20196 H 1910.39 -4.85729 4.28919 0
M  V30 20197 N 1903.79 -0.869509 -1.31443 0
M  V30 20198 C 1905.04 -0.476357 -1.95994 0
M  V30 20199 C 1905.35 0.976268 -1.69494 0
M  V30 20200 O 1906.56 1.47555 -2.27903 0
M  V30 20201 C 1905.02 -0.800938 -3.50875 0
M  V30 20202 C 1904.62 -2.27029 -3.86215 0
M  V30 20203 C 1906.37 -0.476234 -4.2182 0
M  V30 20204 C 1904.28 -2.53731 -5.34205 0
M  V30 20205 H 1903.21 -0.174407 -0.733552 0
M  V30 20206 H 1905.86 -1.06235 -1.49621 0
M  V30 20207 H 1904.24 -0.144206 -3.95737 0
M  V30 20208 H 1905.41 -2.97005 -3.52313 0
M  V30 20209 H 1903.73 -2.56098 -3.28333 0
M  V30 20210 H 1906.32 -0.652965 -5.30698 0
M  V30 20211 H 1906.67 0.583294 -4.12193 0
M  V30 20212 H 1907.2 -1.08949 -3.8259 0
M  V30 20213 H 1903.94 -3.58365 -5.48867 0
M  V30 20214 H 1903.46 -1.88349 -5.6946 0
M  V30 20215 H 1905.14 -2.38437 -6.01462 0
M  V30 20216 N 1905.27 1.44508 -0.628902 0
M  V30 20217 C 1906.52 2.02066 -0.132502 0
M  V30 20218 C 1906.85 1.49446 1.24483 0
M  V30 20219 O 1906.1 0.667881 1.83951 0
M  V30 20220 C 1906.4 3.57339 -0.0660437 0
M  V30 20221 C 1906.07 4.29203 -1.38186 0
M  V30 20222 C 1904.73 4.48552 -1.74225 0
M  V30 20223 C 1907.08 4.70108 -2.25051 0
M  V30 20224 C 1904.41 5.06066 -2.96839 0
M  V30 20225 C 1906.76 5.2898 -3.46934 0
M  V30 20226 C 1905.42 5.46549 -3.83198 0
M  V30 20227 H 1904.69 0.739412 -0.048486 0
M  V30 20228 H 1907.34 1.73302 -0.814773 0
M  V30 20229 H 1905.65 3.85504 0.699588 0
M  V30 20230 H 1907.34 3.99602 0.334526 0
M  V30 20231 H 1903.93 4.14471 -1.09141 0
M  V30 20232 H 1908.12 4.54874 -1.98503 0
M  V30 20233 H 1903.37 5.17856 -3.25016 0
M  V30 20234 H 1907.55 5.59626 -4.14478 0
M  V30 20235 H 1905.17 5.90881 -4.78292 0
M  V30 20236 N 1906.75 0.369315 1.53212 0
M  V30 20237 C 1907.98 -0.219539 2.0543 0
M  V30 20238 C 1908.39 -1.42698 1.24233 0
M  V30 20239 O 1907.73 -1.81601 0.276938 0
M  V30 20240 C 1907.79 -0.673523 3.53134 0
M  V30 20241 C 1907.46 0.417737 4.55087 0
M  V30 20242 C 1908.45 1.2688 5.0418 0
M  V30 20243 C 1906.14 0.579049 4.98951 0
M  V30 20244 C 1908.13 2.26648 5.95743 0
M  V30 20245 C 1905.82 1.58009 5.90319 0
M  V30 20246 C 1906.82 2.42224 6.38605 0
M  V30 20247 O 1906.51 3.4062 7.28171 0
M  V30 20248 H 1906.24 -0.0415233 0.674724 0
M  V30 20249 H 1908.79 0.527123 1.98521 0
M  V30 20250 H 1907.02 -1.47185 3.57594 0
M  V30 20251 H 1908.71 -1.1858 3.88193 0
M  V30 20252 H 1909.48 1.15538 4.71037 0
M  V30 20253 H 1905.36 -0.0666753 4.60952 0
M  V30 20254 H 1908.9 2.92416 6.33355 0
M  V30 20255 H 1904.8 1.69397 6.22876 0
M  V30 20256 H 1905.56 3.36393 7.46178 0
M  V30 20257 N 1908.23 -1.57291 0.0985816 0
M  V30 20258 C 1909.18 -2.10757 -0.869797 0
M  V30 20259 C 1910.16 -1.02343 -1.24156 0
M  V30 20260 O 1911.35 -1.28612 -1.21606 0
M  V30 20261 C 1908.48 -2.69425 -2.12756 0
M  V30 20262 C 1907.57 -3.84888 -1.78107 0
M  V30 20263 N 1907.96 -4.92778 -1.14034 0
M  V30 20264 C 1906.26 -3.94688 -2.07695 0
M  V30 20265 C 1906.96 -5.73373 -0.980736 0
M  V30 20266 N 1905.93 -5.22519 -1.49917 0
M  V30 20267 H 1909.74 -2.91555 -0.370523 0
M  V30 20268 H 1907.25 -1.62063 -0.104525 0
M  V30 20269 H 1909.25 -3.0606 -2.83077 0
M  V30 20270 H 1907.91 -1.90083 -2.63246 0
M  V30 20271 H 1908.92 -5.11578 -0.806735 0
M  V30 20272 H 1905.6 -3.2636 -2.60375 0
M  V30 20273 H 1906.99 -6.70188 -0.479379 0
M  V30 20274 N 1909.71 0.175127 -1.56624 0
M  V30 20275 C 1910.65 1.21687 -1.96114 0
M  V30 20276 C 1911.62 1.44191 -0.824518 0
M  V30 20277 O 1912.81 1.56994 -1.08433 0
M  V30 20278 C 1909.95 2.55207 -2.323 0
M  V30 20279 C 1909.06 2.40115 -3.59122 0
M  V30 20280 C 1908.2 3.66475 -3.84538 0
M  V30 20281 C 1907.23 3.463 -5.04721 0
M  V30 20282 N 1906.37 4.6472 -5.26288 0
M  V30 20283 H 1911.21 0.873106 -2.84923 0
M  V30 20284 H 1908.75 0.419721 -1.40985 0
M  V30 20285 H 1910.71 3.33022 -2.51302 0
M  V30 20286 H 1909.34 2.87587 -1.46607 0
M  V30 20287 H 1908.39 1.53496 -3.48056 0
M  V30 20288 H 1909.7 2.21151 -4.47095 0
M  V30 20289 H 1908.85 4.52726 -4.03886 0
M  V30 20290 H 1907.59 3.88414 -2.94934 0
M  V30 20291 H 1906.6 2.58435 -4.85274 0
M  V30 20292 H 1907.82 3.25787 -5.95852 0
M  V30 20293 H 1905.77 4.86885 -4.39635 0
M  V30 20294 H 1905.69 4.48656 -6.08477 0
M  V30 20295 H 1906.95 5.52265 -5.50112 0
M  V30 20296 N 1911.18 1.5123 0.44355 0
M  V30 20297 C 1912.41 1.67389 1.21609 0
M  V30 20298 C 1912.83 0.368612 1.85167 0
M  V30 20299 O 1912.18 -0.652282 1.70445 0
M  V30 20300 C 1912.23 2.78507 2.30469 0
M  V30 20301 O 1911.96 4.03977 1.69512 0
M  V30 20302 C 1913.46 3.05881 3.20861 0
M  V30 20303 H 1910.68 0.561893 0.366766 0
M  V30 20304 H 1913.22 1.97611 0.526312 0
M  V30 20305 H 1911.38 2.50901 2.95173 0
M  V30 20306 H 1911.79 4.65641 2.41409 0
M  V30 20307 H 1913.26 3.87229 3.93393 0
M  V30 20308 H 1913.74 2.1804 3.81255 0
M  V30 20309 H 1914.35 3.35123 2.61864 0
M  V30 20310 N 1912.66 -0.698586 1.41271 0
M  V30 20311 C 1913.89 -1.48528 1.43608 0
M  V30 20312 C 1914.3 -1.8916 0.0388929 0
M  V30 20313 O 1913.64 -1.5714 -0.951457 0
M  V30 20314 C 1913.7 -2.78049 2.27879 0
M  V30 20315 C 1913.37 -2.59638 3.76081 0
M  V30 20316 C 1914.37 -2.25782 4.68315 0
M  V30 20317 C 1912.05 -2.75373 4.2009 0
M  V30 20318 C 1914.04 -2.07894 6.02544 0
M  V30 20319 C 1911.73 -2.57102 5.54384 0
M  V30 20320 C 1912.73 -2.23413 6.45427 0
M  V30 20321 O 1912.42 -2.05298 7.77244 0
M  V30 20322 H 1912.15 -0.464356 0.491273 0
M  V30 20323 H 1914.7 -0.867883 1.86164 0
M  V30 20324 H 1912.93 -3.42183 1.80132 0
M  V30 20325 H 1914.62 -3.39841 2.21953 0
M  V30 20326 H 1915.39 -2.13243 4.35606 0
M  V30 20327 H 1911.27 -3.00579 3.49533 0
M  V30 20328 H 1914.81 -1.81522 6.73569 0
M  V30 20329 H 1910.71 -2.6923 5.86673 0
M  V30 20330 H 1911.48 -2.20085 7.88356 0
M  V30 20331 N 1914.14 -1.27049 -0.93254 0
M  V30 20332 C 1915.39 -1.12488 -1.67419 0
M  V30 20333 C 1915.7 0.329736 -1.92801 0
M  V30 20334 O 1916.91 0.596164 -2.64874 0
M  V30 20335 C 1915.36 -1.96515 -3.01513 0
M  V30 20336 C 1914.97 -3.46604 -2.83847 0
M  V30 20337 C 1916.72 -1.90589 -3.7931 0
M  V30 20338 C 1914.62 -4.22847 -4.13466 0
M  V30 20339 H 1913.55 -0.417373 -0.627946 0
M  V30 20340 H 1916.2 -1.5143 -1.03639 0
M  V30 20341 H 1914.59 -1.50413 -3.66322 0
M  V30 20342 H 1915.76 -4.00535 -2.27835 0
M  V30 20343 H 1914.07 -3.53859 -2.19484 0
M  V30 20344 H 1916.67 -2.44831 -4.75355 0
M  V30 20345 H 1917.01 -0.87846 -4.06926 0
M  V30 20346 H 1917.55 -2.34559 -3.21289 0
M  V30 20347 H 1914.29 -5.26094 -3.91031 0
M  V30 20348 H 1913.81 -3.73695 -4.69161 0
M  V30 20349 H 1915.49 -4.31761 -4.81863 0
M  V30 20350 N 1915.62 1.13835 -1.08993 0
M  V30 20351 C 1916.57 2.21179 -0.719905 0
M  V30 20352 C 1917.56 1.67118 0.277123 0
M  V30 20353 O 1918.77 1.79462 0.139054 0
M  V30 20354 H 1915.14 0.72067 -0.214799 0
M  V30 20355 H 1917.11 2.49654 -1.63448 0
M  V30 20356 C 1915.86 3.47368 -0.151794 0
M  V30 20357 H 1915.18 3.89302 -0.910172 0
M  V30 20358 H 1916.62 4.23943 0.0692336 0
M  V30 20359 C 1915.08 3.18024 1.11185 0
M  V30 20360 O 1915.61 3.36374 2.1958 0
M  V30 20361 N 1913.82 2.71938 1.0246 0
M  V30 20362 H 1913.37 2.57206 0.142456 0
M  V30 20363 H 1913.32 2.52679 1.87084 0
M  V30 20364 N 1917.1 0.876467 1.3098 0
M  V30 20365 C 1918.01 0.340667 2.32113 0
M  V30 20366 C 1919.02 -0.552749 1.64987 0
M  V30 20367 O 1920.2 -0.447909 1.96356 0
M  V30 20368 C 1917.26 -0.443504 3.43852 0
M  V30 20369 C 1916.32 0.478646 4.26623 0
M  V30 20370 C 1915.56 -0.268194 5.33026 0
M  V30 20371 O 1915.78 -1.49543 5.50448 0
M  V30 20372 O 1914.71 0.377306 6.00716 0
M  V30 20373 H 1918.54 1.1791 2.79877 0
M  V30 20374 H 1916.12 0.640037 1.34996 0
M  V30 20375 H 1918.01 -0.887816 4.11941 0
M  V30 20376 H 1916.68 -1.25838 2.98239 0
M  V30 20377 H 1915.59 0.971593 3.61263 0
M  V30 20378 H 1916.92 1.25929 4.75818 0
M  V30 20379 N 1918.57 -1.44173 0.636557 0
M  V30 20380 C 1919.54 -2.29133 -0.0554994 0
M  V30 20381 C 1920.54 -1.41329 -0.766986 0
M  V30 20382 O 1921.73 -1.63142 -0.610753 0
M  V30 20383 C 1918.86 -3.23031 -1.08922 0
M  V30 20384 H 1920.05 -2.91811 0.691829 0
M  V30 20385 H 1917.6 -1.51175 0.396956 0
M  V30 20386 H 1918.34 -2.65213 -1.86635 0
M  V30 20387 H 1918.12 -3.87743 -0.58291 0
M  V30 20388 H 1919.61 -3.8684 -1.57304 0
M  V30 20389 N 1920.05 -0.377435 -1.53014 0
M  V30 20390 C 1920.98 0.455103 -2.29022 0
M  V30 20391 C 1921.96 1.07375 -1.31926 0
M  V30 20392 O 1923.15 1.08877 -1.60809 0
M  V30 20393 C 1920.28 1.58883 -3.08826 0
M  V30 20394 C 1919.23 1.09683 -4.13707 0
M  V30 20395 C 1918.56 2.32172 -4.81664 0
M  V30 20396 C 1919.86 0.173165 -5.22013 0
M  V30 20397 H 1921.55 -0.179053 -2.98864 0
M  V30 20398 H 1919.1 -0.0875549 -1.43734 0
M  V30 20399 H 1921.05 2.17798 -3.60752 0
M  V30 20400 H 1919.77 2.2504 -2.36695 0
M  V30 20401 H 1918.43 0.530291 -3.62744 0
M  V30 20402 H 1918.08 2.96811 -4.06094 0
M  V30 20403 H 1917.78 1.99919 -5.52545 0
M  V30 20404 H 1919.31 2.91751 -5.3639 0
M  V30 20405 H 1920.72 0.670145 -5.6937 0
M  V30 20406 H 1919.12 -0.0590463 -6.00071 0
M  V30 20407 H 1920.19 -0.781339 -4.78564 0
M  V30 20408 N 1921.53 1.57237 -0.106922 0
M  V30 20409 C 1922.48 2.14668 0.847728 0
M  V30 20410 C 1923.45 1.06838 1.2718 0
M  V30 20411 O 1924.63 1.34686 1.35146 0
M  V30 20412 C 1921.77 2.74079 2.09702 0
M  V30 20413 C 1920.89 3.96178 1.7224 0
M  V30 20414 C 1920.02 4.43715 2.92045 0
M  V30 20415 C 1919.06 5.58375 2.50766 0
M  V30 20416 N 1918.2 6.00711 3.63443 0
M  V30 20417 H 1923.04 2.95924 0.351133 0
M  V30 20418 H 1920.57 1.46209 0.161636 0
M  V30 20419 H 1922.53 3.06649 2.82882 0
M  V30 20420 H 1921.16 1.95532 2.56841 0
M  V30 20421 H 1920.21 3.69846 0.889819 0
M  V30 20422 H 1921.53 4.7936 1.37896 0
M  V30 20423 H 1920.68 4.78131 3.73464 0
M  V30 20424 H 1919.42 3.59458 3.29607 0
M  V30 20425 H 1918.42 5.23576 1.67776 0
M  V30 20426 H 1919.65 6.4439 2.14334 0
M  V30 20427 H 1917.59 5.19397 4.00702 0
M  V30 20428 H 1917.51 6.78718 3.32983 0
M  V30 20429 H 1918.78 6.39761 4.45338 0
M  V30 20430 N 1923.01 -0.166818 1.56715 0
M  V30 20431 C 1923.97 -1.19027 1.95871 0
M  V30 20432 C 1924.97 -1.36939 0.842877 0
M  V30 20433 O 1926.16 -1.34268 1.10985 0
M  V30 20434 C 1923.29 -2.55446 2.25743 0
M  V30 20435 H 1924.49 -0.854834 2.87459 0
M  V30 20436 H 1922.04 -0.409436 1.50842 0
M  V30 20437 H 1922.77 -2.93996 1.36884 0
M  V30 20438 H 1922.56 -2.4381 3.07081 0
M  V30 20439 H 1924.05 -3.29196 2.56943 0
M  V30 20440 N 1924.49 -1.51463 -0.435524 0
M  V30 20441 C 1925.72 -1.67787 -1.20544 0
M  V30 20442 C 1926.12 -0.375521 -1.85436 0
M  V30 20443 O 1925.47 0.656051 -1.71586 0
M  V30 20444 C 1925.53 -2.73801 -2.32966 0
M  V30 20445 C 1925.19 -4.16346 -1.88427 0
M  V30 20446 C 1926.19 -5.01066 -1.38669 0
M  V30 20447 C 1923.88 -4.62455 -1.96063 0
M  V30 20448 C 1925.87 -6.29955 -0.971368 0
M  V30 20449 C 1923.56 -5.9134 -1.54142 0
M  V30 20450 C 1924.55 -6.74918 -1.04761 0
M  V30 20451 O 1924.24 -8.01393 -0.634352 0
M  V30 20452 H 1923.97 -0.566192 -0.369328 0
M  V30 20453 H 1926.53 -1.98654 -0.522069 0
M  V30 20454 H 1924.76 -2.38253 -3.04586 0
M  V30 20455 H 1926.45 -2.78987 -2.94824 0
M  V30 20456 H 1927.21 -4.66645 -1.32163 0
M  V30 20457 H 1923.09 -3.97523 -2.33445 0
M  V30 20458 H 1926.64 -6.95141 -0.585236 0
M  V30 20459 H 1922.53 -6.25274 -1.60319 0
M  V30 20460 H 1923.3 -8.14964 -0.760039 0
M  V30 20461 N 1925.96 0.691085 -1.4164 0
M  V30 20462 C 1927.38 1.00223 -1.24207 0
M  V30 20463 C 1927.58 2.0105 -0.134625 0
M  V30 20464 O 1926.64 2.4751 0.499509 0
M  V30 20465 C 1927.95 1.52256 -2.59304 0
M  V30 20466 C 1929.5 1.64117 -2.66523 0
M  V30 20467 C 1929.97 2.19551 -4.01947 0
M  V30 20468 N 1931.46 2.26906 -4.03817 0
M  V30 20469 C 1932.2 2.70835 -5.05407 0
M  V30 20470 N 1931.69 3.14337 -6.17385 0
M  V30 20471 N 1933.49 2.70439 -4.92767 0
M  V30 20472 H 1925.64 0.0232257 -2.12387 0
M  V30 20473 H 1927.9 0.0728626 -0.945196 0
M  V30 20474 H 1927.61 0.856261 -3.41117 0
M  V30 20475 H 1927.48 2.50399 -2.821 0
M  V30 20476 H 1929.87 2.29858 -1.85066 0
M  V30 20477 H 1929.95 0.645083 -2.47532 0
M  V30 20478 H 1929.59 1.54424 -4.83855 0
M  V30 20479 H 1929.52 3.1992 -4.18281 0
M  V30 20480 H 1932.01 1.96212 -3.22969 0
M  V30 20481 H 1932.33 3.46496 -6.90768 0
M  V30 20482 H 1930.67 3.12235 -6.20914 0
M  V30 20483 H 1933.86 2.35806 -4.04368 0
M  V30 20484 H 1934.04 3.04357 -5.72076 0
M  V30 20485 N 1927.44 1.27542 0.925789 0
M  V30 20486 C 1928.37 1.12952 2.04363 0
M  V30 20487 C 1929.35 0.0304761 1.70073 0
M  V30 20488 O 1930.54 0.205307 1.93112 0
M  V30 20489 C 1927.67 0.777954 3.38475 0
M  V30 20490 C 1926.62 1.83044 3.86883 0
M  V30 20491 C 1925.95 1.3328 5.17823 0
M  V30 20492 C 1927.25 3.23488 4.10065 0
M  V30 20493 H 1928.94 2.06462 2.16827 0
M  V30 20494 H 1926.49 0.994046 1.04186 0
M  V30 20495 H 1928.44 0.662702 4.16156 0
M  V30 20496 H 1927.17 -0.192851 3.2603 0
M  V30 20497 H 1925.82 1.93463 3.11396 0
M  V30 20498 H 1925.47 0.351399 5.01771 0
M  V30 20499 H 1925.17 2.03648 5.51182 0
M  V30 20500 H 1926.7 1.23053 5.98072 0
M  V30 20501 H 1928.11 3.16058 4.7831 0
M  V30 20502 H 1926.51 3.91583 4.54734 0
M  V30 20503 H 1927.58 3.68399 3.15293 0
M  V30 20504 N 1928.92 -1.13255 1.09595 0
M  V30 20505 C 1930.2 -1.8084 0.74541 0
M  V30 20506 C 1930.58 -1.96582 -0.769323 0
M  V30 20507 O 1929.93 -1.53529 -1.69237 0
M  V30 20508 C 1930.14 -3.15762 1.48645 0
M  V30 20509 C 1931.48 -3.91087 1.65337 0
M  V30 20510 O 1932.51 -3.25391 1.4491 0
M  V30 20511 O 1931.37 -5.08927 1.99137 0
M  V30 20512 H 1928.46 -0.782384 0.267963 0
M  V30 20513 H 1931.01 -1.20167 1.19825 0
M  V30 20514 H 1929.78 -2.99541 2.51775 0
M  V30 20515 H 1929.4 -3.84137 1.02589 0
M  V30 20516 N 1930.4 -0.883401 -1.30514 0
M  V30 20517 C 1931.65 -0.500062 -1.95816 0
M  V30 20518 C 1931.97 0.953596 -1.70093 0
M  V30 20519 O 1931.24 1.67027 -1.02365 0
M  V30 20520 H 1929.82 -0.181936 -0.724506 0
M  V30 20521 H 1932.48 -1.12613 -1.59073 0
M  V30 20522 H 1931.58 -0.668998 -3.04846 0
M  V30 20523 N 1931.88 1.43833 -0.644194 0
M  V30 20524 C 1933.13 2.01132 -0.151307 0
M  V30 20525 C 1933.44 1.51363 1.23889 0
M  V30 20526 O 1934.64 2.00876 1.8265 0
M  V30 20527 C 1933.1 3.59229 -0.219714 0
M  V30 20528 C 1932.71 4.17992 -1.61204 0
M  V30 20529 C 1934.45 4.2395 0.216034 0
M  V30 20530 C 1932.36 5.68354 -1.63486 0
M  V30 20531 H 1931.29 0.752149 -0.052802 0
M  V30 20532 H 1933.94 1.64904 -0.804907 0
M  V30 20533 H 1932.32 3.92815 0.501229 0
M  V30 20534 H 1933.5 3.95921 -2.35761 0
M  V30 20535 H 1931.81 3.65608 -1.99299 0
M  V30 20536 H 1934.41 5.34253 0.218703 0
M  V30 20537 H 1934.75 3.97222 1.24581 0
M  V30 20538 H 1935.28 3.95214 -0.452852 0
M  V30 20539 H 1932.02 5.99836 -2.64343 0
M  V30 20540 H 1931.54 5.92508 -0.93241 0
M  V30 20541 H 1933.22 6.3223 -1.37458 0
M  V30 20542 N 1933.35 0.385544 1.52811 0
M  V30 20543 C 1934.63 -0.255227 1.93928 0
M  V30 20544 C 1935.01 -1.64683 1.32071 0
M  V30 20545 O 1934.36 -2.23242 0.487363 0
M  V30 20546 C 1934.57 -0.285363 3.47831 0
M  V30 20547 C 1935.92 -0.516126 4.21451 0
M  V30 20548 O 1936.94 -0.365732 3.54317 0
M  V30 20549 O 1935.8 -0.810503 5.40456 0
M  V30 20550 H 1932.89 -0.157694 0.811826 0
M  V30 20551 H 1935.44 0.439779 1.63903 0
M  V30 20552 H 1934.21 0.68954 3.85177 0
M  V30 20553 H 1933.84 -1.02545 3.84149 0
M  V30 20554 N 1934.83 -1.57178 0.115259 0
M  V30 20555 C 1935.76 -2.18134 -0.833042 0
M  V30 20556 C 1936.74 -1.12033 -1.27995 0
M  V30 20557 O 1937.93 -1.40254 -1.34323 0
M  V30 20558 C 1935.06 -2.77778 -2.08463 0
M  V30 20559 C 1934.01 -3.89429 -1.77565 0
M  V30 20560 C 1933.34 -4.35863 -3.09722 0
M  V30 20561 C 1934.64 -5.11701 -1.04687 0
M  V30 20562 H 1936.33 -2.9763 -0.325107 0
M  V30 20563 H 1933.88 -1.43164 -0.154933 0
M  V30 20564 H 1935.83 -3.19079 -2.75258 0
M  V30 20565 H 1934.56 -1.95566 -2.61575 0
M  V30 20566 H 1933.21 -3.48698 -1.13161 0
M  V30 20567 H 1932.86 -3.50515 -3.6076 0
M  V30 20568 H 1932.56 -5.11152 -2.89823 0
M  V30 20569 H 1934.09 -4.79812 -3.77641 0
M  V30 20570 H 1935.5 -5.50045 -1.61628 0
M  V30 20571 H 1933.9 -5.92549 -0.948964 0
M  V30 20572 H 1934.97 -4.84889 -0.032977 0
M  V30 20573 N 1936.31 0.158505 -1.56801 0
M  V30 20574 C 1937.73 0.510743 -1.51207 0
M  V30 20575 C 1937.93 1.83983 -0.821733 0
M  V30 20576 O 1936.98 2.4951 -0.387444 0
M  V30 20577 C 1938.3 0.531668 -2.95962 0
M  V30 20578 C 1939.84 0.617983 -3.06839 0
M  V30 20579 C 1940.32 0.66968 -4.53078 0
M  V30 20580 N 1941.81 0.73222 -4.57376 0
M  V30 20581 C 1942.55 0.793011 -5.6789 0
M  V30 20582 N 1942.04 0.81385 -6.88003 0
M  V30 20583 N 1943.83 0.833013 -5.55893 0
M  V30 20584 H 1935.99 -0.712841 -2.00081 0
M  V30 20585 H 1938.25 -0.258572 -0.912055 0
M  V30 20586 H 1937.95 -0.376495 -3.49679 0
M  V30 20587 H 1937.83 1.37366 -3.51298 0
M  V30 20588 H 1940.22 1.51657 -2.53149 0
M  V30 20589 H 1940.3 -0.250933 -2.54566 0
M  V30 20590 H 1939.94 -0.2247 -5.07403 0
M  V30 20591 H 1939.87 1.55492 -5.0312 0
M  V30 20592 H 1942.36 0.72388 -3.70902 0
M  V30 20593 H 1942.67 0.861766 -7.6798 0
M  V30 20594 H 1941.02 0.781915 -6.90587 0
M  V30 20595 H 1944.21 0.813822 -4.60971 0
M  V30 20596 H 1944.38 0.876926 -6.42039 0
M  V30 20597 N 1937.79 1.51692 0.427485 0
M  V30 20598 C 1939.04 1.64521 1.17376 0
M  V30 20599 C 1939.36 0.368482 1.91487 0
M  V30 20600 O 1938.63 -0.616035 1.85962 0
M  V30 20601 H 1937.21 0.606362 0.436273 0
M  V30 20602 H 1939.87 1.88662 0.489152 0
M  V30 20603 H 1938.97 2.47759 1.89794 0
M  V30 20604 N 1939.27 -0.683564 1.42004 0
M  V30 20605 C 1940.5 -1.46996 1.45175 0
M  V30 20606 C 1940.91 -1.89108 0.0589536 0
M  V30 20607 O 1940.25 -1.5814 -0.934737 0
M  V30 20608 C 1940.31 -2.75616 2.30816 0
M  V30 20609 C 1939.97 -2.55634 3.78814 0
M  V30 20610 C 1940.97 -2.20802 4.70683 0
M  V30 20611 C 1938.66 -2.70901 4.22987 0
M  V30 20612 C 1940.65 -2.01492 6.04715 0
M  V30 20613 C 1938.34 -2.51207 5.5708 0
M  V30 20614 C 1939.34 -2.16555 6.4776 0
M  V30 20615 O 1939.02 -1.97043 7.79378 0
M  V30 20616 H 1938.76 -0.459119 0.496171 0
M  V30 20617 H 1941.31 -0.848089 1.87074 0
M  V30 20618 H 1939.54 -3.40254 1.83751 0
M  V30 20619 H 1941.23 -3.37467 2.25545 0
M  V30 20620 H 1941.99 -2.08611 4.37843 0
M  V30 20621 H 1937.87 -2.96855 3.52702 0
M  V30 20622 H 1941.42 -1.74367 6.75457 0
M  V30 20623 H 1937.31 -2.62992 5.89496 0
M  V30 20624 H 1938.08 -2.11711 7.90646 0
M  V30 20625 N 1940.75 -1.28031 -0.919012 0
M  V30 20626 C 1941.99 -1.15048 -1.67008 0
M  V30 20627 C 1942.32 0.301301 -1.91848 0
M  V30 20628 O 1941.6 1.21964 -1.51509 0
M  V30 20629 C 1941.88 -1.94388 -3.03126 0
M  V30 20630 C 1941.74 -3.476 -2.85473 0
M  V30 20631 C 1943.05 -1.75517 -4.03586 0
M  V30 20632 H 1940.17 -0.419311 -0.606091 0
M  V30 20633 H 1942.82 -1.57287 -1.06587 0
M  V30 20634 H 1940.97 -1.58493 -3.547 0
M  V30 20635 H 1942.64 -3.93372 -2.40949 0
M  V30 20636 H 1940.88 -3.73499 -2.20637 0
M  V30 20637 H 1941.55 -3.98365 -3.82111 0
M  V30 20638 H 1944.03 -2.06832 -3.61054 0
M  V30 20639 H 1942.9 -2.33411 -4.968 0
M  V30 20640 H 1943.16 -0.705309 -4.36438 0
M  V30 20641 N 1942.22 1.12672 -1.10194 0
M  V30 20642 C 1943.19 2.16513 -0.751974 0
M  V30 20643 C 1944.19 1.59255 0.222352 0
M  V30 20644 O 1945.38 1.742 -0.000482744 0
M  V30 20645 C 1942.51 3.40711 -0.113421 0
M  V30 20646 H 1943.7 2.48986 -1.67171 0
M  V30 20647 H 1941.25 1.27637 -0.90214 0
M  V30 20648 H 1941.99 3.13836 0.817162 0
M  V30 20649 H 1941.77 3.83545 -0.814599 0
M  V30 20650 H 1943.26 4.1744 0.115756 0
M  V30 20651 N 1943.7 0.89031 1.30043 0
M  V30 20652 C 1944.95 0.521592 1.96599 0
M  V30 20653 C 1945.3 -0.920162 1.6897 0
M  V30 20654 O 1944.6 -1.64226 0.986941 0
M  V30 20655 C 1944.79 0.739209 3.49672 0
M  V30 20656 C 1944.62 2.20056 3.9218 0
M  V30 20657 C 1943.39 2.84618 4.17517 0
M  V30 20658 C 1945.59 3.17488 4.04605 0
M  V30 20659 N 1943.57 4.21295 4.46525 0
M  V30 20660 C 1944.94 4.39254 4.37557 0
M  V30 20661 C 1946.99 3.13205 3.87049 0
M  V30 20662 C 1945.7 5.57284 4.54782 0
M  V30 20663 C 1947.72 4.30512 4.05479 0
M  V30 20664 C 1947.09 5.51045 4.38781 0
M  V30 20665 H 1943.18 0.240293 0.744166 0
M  V30 20666 H 1945.77 1.14916 1.5717 0
M  V30 20667 H 1943.94 0.141088 3.88144 0
M  V30 20668 H 1945.67 0.33686 4.03296 0
M  V30 20669 H 1942.43 2.35459 4.10921 0
M  V30 20670 H 1942.85 4.91896 4.65153 0
M  V30 20671 H 1947.49 2.21112 3.60374 0
M  V30 20672 H 1945.21 6.49877 4.80298 0
M  V30 20673 H 1948.8 4.28674 3.93358 0
M  V30 20674 H 1947.68 6.40304 4.52747 0
M  V30 20675 N 1945.18 -1.43489 0.651812 0
M  V30 20676 C 1946.4 -2.06696 0.170683 0
M  V30 20677 C 1946.83 -1.48527 -1.15418 0
M  V30 20678 O 1946.19 -0.594665 -1.7127 0
M  V30 20679 C 1946.24 -3.60484 0.0915457 0
M  V30 20680 O 1945.34 -4.01388 -0.946644 0
M  V30 20681 H 1944.68 -0.65728 0.0942276 0
M  V30 20682 H 1947.21 -1.84018 0.89434 0
M  V30 20683 H 1947.22 -4.07896 -0.0922419 0
M  V30 20684 H 1945.9 -4.02199 1.0587 0
M  V30 20685 H 1944.47 -3.65569 -0.735758 0
M  V30 20686 N 1946.66 -0.393643 -1.52605 0
M  V30 20687 C 1947.59 0.430786 -2.29492 0
M  V30 20688 C 1948.57 1.0597 -1.33058 0
M  V30 20689 O 1949.75 1.07165 -1.61955 0
M  V30 20690 C 1946.88 1.55599 -3.10494 0
M  V30 20691 C 1945.84 1.05289 -4.14847 0
M  V30 20692 C 1945.16 2.2705 -4.841 0
M  V30 20693 C 1946.46 0.117789 -5.22167 0
M  V30 20694 H 1948.16 -0.210741 -2.98657 0
M  V30 20695 H 1945.7 -0.102795 -1.43633 0
M  V30 20696 H 1947.66 2.1396 -3.63042 0
M  V30 20697 H 1946.38 2.22517 -2.39069 0
M  V30 20698 H 1945.04 0.491788 -3.63286 0
M  V30 20699 H 1944.69 2.92487 -4.09219 0
M  V30 20700 H 1944.39 1.94047 -5.54635 0
M  V30 20701 H 1945.91 2.86045 -5.39454 0
M  V30 20702 H 1947.33 0.609718 -5.70049 0
M  V30 20703 H 1945.72 -0.122689 -5.99975 0
M  V30 20704 H 1946.79 -0.832053 -4.77708 0
M  V30 20705 N 1948.14 1.57115 -0.123593 0
M  V30 20706 C 1949.07 2.11281 0.862306 0
M  V30 20707 C 1950.05 1.03036 1.25787 0
M  V30 20708 O 1951.23 1.3072 1.35811 0
M  V30 20709 C 1948.36 2.61329 2.15464 0
M  V30 20710 C 1947.4 3.81502 1.90679 0
M  V30 20711 S 1948.24 5.2368 1.11891 0
M  V30 20712 C 1949.39 5.771 2.42294 0
M  V30 20713 H 1949.63 2.94575 0.401603 0
M  V30 20714 H 1947.16 1.54136 0.0902687 0
M  V30 20715 H 1949.12 2.90818 2.89715 0
M  V30 20716 H 1947.78 1.78208 2.58651 0
M  V30 20717 H 1946.97 4.14685 2.86448 0
M  V30 20718 H 1946.57 3.52653 1.24547 0
M  V30 20719 H 1948.86 5.87105 3.38104 0
M  V30 20720 H 1949.81 6.751 2.13649 0
M  V30 20721 H 1950.22 5.05194 2.51871 0
M  V30 20722 N 1949.61 -0.150187 1.56883 0
M  V30 20723 C 1950.89 -0.891842 1.74085 0
M  V30 20724 C 1951.27 -1.99479 0.690751 0
M  V30 20725 O 1950.62 -2.26641 -0.290877 0
M  V30 20726 C 1950.83 -1.43722 3.18033 0
M  V30 20727 C 1952.18 -1.90188 3.79623 0
M  V30 20728 O 1953.2 -1.53471 3.21442 0
M  V30 20729 O 1952.06 -2.57892 4.81824 0
M  V30 20730 H 1949.15 -0.421241 0.711678 0
M  V30 20731 H 1951.7 -0.136362 1.69151 0
M  V30 20732 H 1950.47 -0.644422 3.85957 0
M  V30 20733 H 1950.09 -2.2563 3.27379 0
M  V30 20734 N 1951.09 -1.51916 -0.419434 0
M  V30 20735 C 1952.04 -1.75117 -1.5309 0
M  V30 20736 C 1953.03 -0.617961 -1.57726 0
M  V30 20737 O 1954.24 -0.79977 -1.61257 0
M  V30 20738 H 1950.62 -0.553609 -0.508941 0
M  V30 20739 H 1952.59 -2.68253 -1.30702 0
M  V30 20740 C 1951.34 -1.90958 -2.90569 0
M  V30 20741 H 1950.66 -2.77571 -2.8774 0
M  V30 20742 H 1952.1 -2.11196 -3.67658 0
M  V30 20743 C 1950.56 -0.673977 -3.3009 0
M  V30 20744 O 1951.09 0.163 -4.01369 0
M  V30 20745 N 1949.29 -0.512857 -2.86039 0
M  V30 20746 H 1948.84 -1.19505 -2.28202 0
M  V30 20747 H 1948.8 0.312589 -3.12842 0
M  V30 20748 N 1952.57 0.676023 -1.42365 0
M  V30 20749 C 1953.82 1.43608 -1.42769 0
M  V30 20750 C 1954.15 1.94451 -0.0436961 0
M  V30 20751 O 1953.4 1.71221 0.947723 0
M  V30 20752 C 1953.7 2.65018 -2.39792 0
M  V30 20753 C 1953.37 2.32724 -3.862 0
M  V30 20754 C 1952.03 2.23628 -4.2608 0
M  V30 20755 C 1954.38 2.06477 -4.78557 0
M  V30 20756 C 1951.71 1.86409 -5.56299 0
M  V30 20757 C 1954.06 1.70763 -6.09116 0
M  V30 20758 C 1952.72 1.60176 -6.47997 0
M  V30 20759 H 1951.99 0.525499 -0.522428 0
M  V30 20760 H 1954.64 0.770932 -1.75297 0
M  V30 20761 H 1952.95 3.36559 -2.00587 0
M  V30 20762 H 1954.64 3.23198 -2.37369 0
M  V30 20763 H 1951.23 2.40705 -3.54625 0
M  V30 20764 H 1955.42 2.12439 -4.48535 0
M  V30 20765 H 1950.67 1.7678 -5.85285 0
M  V30 20766 H 1954.85 1.49479 -6.80168 0
M  V30 20767 H 1952.47 1.31106 -7.48809 0
M  V30 20768 N 1954.05 1.28517 0.912209 0
M  V30 20769 C 1954.96 1.14429 2.048 0
M  V30 20770 C 1955.97 0.0704926 1.73857 0
M  V30 20771 O 1957.15 0.280091 1.99443 0
M  V30 20772 C 1954.22 0.809034 3.37128 0
M  V30 20773 C 1953.28 1.96535 3.8167 0
M  V30 20774 C 1952.51 1.646 5.07684 0
M  V30 20775 O 1952.73 0.561072 5.67634 0
M  V30 20776 O 1951.67 2.49011 5.47975 0
M  V30 20777 H 1955.49 2.0978 2.19604 0
M  V30 20778 H 1953.08 1.0785 1.03387 0
M  V30 20779 H 1954.96 0.636082 4.16572 0
M  V30 20780 H 1953.63 -0.114812 3.23496 0
M  V30 20781 H 1952.54 2.19347 3.03047 0
M  V30 20782 H 1953.87 2.86996 3.99868 0
M  V30 20783 N 1955.53 -1.12086 1.1079 0
M  V30 20784 C 1956.77 -1.84149 0.863748 0
M  V30 20785 C 1957.13 -1.82668 -0.604166 0
M  V30 20786 O 1956.42 -1.26392 -1.43998 0
M  V30 20787 C 1956.61 -3.3089 1.35079 0
M  V30 20788 C 1956.44 -3.46663 2.86452 0
M  V30 20789 C 1955.21 -3.60083 3.54497 0
M  V30 20790 C 1957.41 -3.41518 3.84538 0
M  V30 20791 N 1955.39 -3.64258 4.94155 0
M  V30 20792 C 1956.76 -3.52233 5.10228 0
M  V30 20793 C 1958.82 -3.25007 3.77193 0
M  V30 20794 C 1957.52 -3.48139 6.29438 0
M  V30 20795 C 1959.55 -3.22227 4.95907 0
M  V30 20796 C 1958.91 -3.33506 6.20446 0
M  V30 20797 H 1955.01 -0.689402 0.369119 0
M  V30 20798 H 1957.59 -1.34163 1.41097 0
M  V30 20799 H 1955.76 -3.79409 0.830844 0
M  V30 20800 H 1957.5 -3.90828 1.05049 0
M  V30 20801 H 1954.25 -3.62357 3.04949 0
M  V30 20802 H 1954.68 -3.70001 5.66946 0
M  V30 20803 H 1959.32 -3.15178 2.8182 0
M  V30 20804 H 1957.04 -3.56737 7.25096 0
M  V30 20805 H 1960.62 -3.10628 4.91937 0
M  V30 20806 H 1959.5 -3.31335 7.10765 0
M  V30 20807 N 1957 -0.897194 -1.29569 0
M  V30 20808 C 1957.93 -0.389601 -2.30227 0
M  V30 20809 C 1958.92 0.53405 -1.61499 0
M  V30 20810 O 1960.1 0.44531 -1.89025 0
M  V30 20811 C 1957.23 0.385966 -3.45149 0
M  V30 20812 C 1956.18 -0.447028 -4.25659 0
M  V30 20813 C 1955.51 0.455883 -5.32753 0
M  V30 20814 C 1956.81 -1.69562 -4.9401 0
M  V30 20815 H 1958.5 -1.23077 -2.72933 0
M  V30 20816 H 1956.05 -0.593265 -1.31211 0
M  V30 20817 H 1958 0.751791 -4.1464 0
M  V30 20818 H 1956.73 1.26089 -3.01279 0
M  V30 20819 H 1955.39 -0.795152 -3.57873 0
M  V30 20820 H 1955.03 1.32887 -4.85129 0
M  V30 20821 H 1954.73 -0.0977528 -5.87519 0
M  V30 20822 H 1956.26 0.817956 -6.05097 0
M  V30 20823 H 1957.67 -1.39968 -5.55951 0
M  V30 20824 H 1956.07 -2.19039 -5.58697 0
M  V30 20825 H 1957.14 -2.43305 -4.19441 0
M  V30 20826 N 1958.48 1.43142 -0.659413 0
M  V30 20827 C 1959.43 2.32565 0.040254 0
M  V30 20828 C 1960.42 1.48961 0.806651 0
M  V30 20829 O 1961.63 1.65131 0.716353 0
M  V30 20830 H 1958.01 0.751327 0.0318053 0
M  V30 20831 H 1959.98 2.89293 -0.731581 0
M  V30 20832 C 1958.73 3.33349 0.988614 0
M  V30 20833 H 1958.05 3.9771 0.40831 0
M  V30 20834 H 1959.49 3.9854 1.44714 0
M  V30 20835 C 1957.95 2.64423 2.08763 0
M  V30 20836 O 1958.48 2.46444 3.17219 0
M  V30 20837 N 1956.68 2.23697 1.85494 0
M  V30 20838 H 1956.23 2.38519 0.972945 0
M  V30 20839 H 1956.19 1.7791 2.59221 0
M  V30 20840 N 1959.96 0.40173 1.52394 0
M  V30 20841 C 1961.21 -0.17611 2.01331 0
M  V30 20842 C 1961.53 -1.46274 1.28953 0
M  V30 20843 O 1960.8 -1.91492 0.413249 0
M  V30 20844 H 1959.38 -0.0680697 0.743892 0
M  V30 20845 H 1962.04 0.536274 1.87377 0
M  V30 20846 H 1961.14 -0.377497 3.09809 0
M  V30 20847 N 1961.44 -1.57047 0.131923 0
M  V30 20848 C 1962.67 -1.99699 -0.52952 0
M  V30 20849 C 1963.08 -1.01077 -1.59938 0
M  V30 20850 O 1962.42 0.00256808 -1.837 0
M  V30 20851 C 1962.48 -3.38777 -1.20293 0
M  V30 20852 C 1962.15 -4.56145 -0.279483 0
M  V30 20853 C 1963.14 -5.17614 0.486981 0
M  V30 20854 C 1960.83 -5.01953 -0.186784 0
M  V30 20855 C 1962.82 -6.2329 1.33375 0
M  V30 20856 C 1960.51 -6.07486 0.6636 0
M  V30 20857 C 1961.51 -6.68023 1.42248 0
M  V30 20858 O 1961.19 -7.71516 2.25873 0
M  V30 20859 H 1960.93 -0.660552 -0.143691 0
M  V30 20860 H 1963.48 -2.0423 0.218962 0
M  V30 20861 H 1961.71 -3.31039 -1.99875 0
M  V30 20862 H 1963.4 -3.65634 -1.76258 0
M  V30 20863 H 1964.17 -4.83132 0.425311 0
M  V30 20864 H 1960.04 -4.54572 -0.76718 0
M  V30 20865 H 1963.59 -6.7047 1.92655 0
M  V30 20866 H 1959.49 -6.41397 0.726617 0
M  V30 20867 H 1960.25 -7.8867 2.18955 0
M  V30 20868 N 1962.92 0.141865 -1.5696 0
M  V30 20869 C 1964.14 0.868403 -1.87793 0
M  V30 20870 C 1964.56 1.74504 -0.720691 0
M  V30 20871 O 1963.92 1.79859 0.309372 0
M  V30 20872 C 1963.97 1.72086 -3.17913 0
M  V30 20873 O 1963.69 0.879548 -4.2918 0
M  V30 20874 C 1965.19 2.55454 -3.62296 0
M  V30 20875 H 1962.41 0.250842 -0.62235 0
M  V30 20876 H 1964.95 0.133113 -2.04066 0
M  V30 20877 H 1963.11 2.40915 -3.03379 0
M  V30 20878 H 1963.52 1.4653 -5.03616 0
M  V30 20879 H 1965 3.10834 -4.56165 0
M  V30 20880 H 1965.47 3.31735 -2.87834 0
M  V30 20881 H 1966.08 1.91906 -3.79542 0
M  V30 20882 N 1964.39 1.52136 0.411372 0
M  V30 20883 C 1965.64 1.66331 1.16025 0
M  V30 20884 C 1965.97 0.390981 1.90223 0
M  V30 20885 O 1965.25 -0.610512 1.8467 0
M  V30 20886 C 1965.53 2.88386 2.15651 0
M  V30 20887 C 1965.38 4.25664 1.45364 0
M  V30 20888 C 1966.7 3.05963 3.16346 0
M  V30 20889 H 1963.82 0.60531 0.420439 0
M  V30 20890 H 1966.46 1.84685 0.446247 0
M  V30 20891 H 1964.61 2.72869 2.76541 0
M  V30 20892 H 1966.29 4.52904 0.876105 0
M  V30 20893 H 1964.53 4.27168 0.75563 0
M  V30 20894 H 1965.2 5.07109 2.18047 0
M  V30 20895 H 1967.68 3.20363 2.65531 0
M  V30 20896 H 1966.55 3.92882 3.83321 0
M  V30 20897 H 1966.81 2.19177 3.83945 0
M  V30 20898 N 1965.87 -0.668464 1.42721 0
M  V30 20899 C 1966.82 -1.78184 1.46694 0
M  V30 20900 C 1967.79 -1.63023 0.318213 0
M  V30 20901 O 1968.98 -1.83486 0.523198 0
M  V30 20902 C 1966.12 -3.16254 1.3812 0
M  V30 20903 C 1965.23 -3.42657 2.63078 0
M  V30 20904 C 1964.36 -4.7049 2.46602 0
M  V30 20905 C 1963.4 -4.89948 3.66902 0
M  V30 20906 N 1962.54 -6.09027 3.49329 0
M  V30 20907 H 1967.38 -1.74123 2.41837 0
M  V30 20908 H 1964.92 -0.849937 1.2006 0
M  V30 20909 H 1966.87 -3.96051 1.31146 0
M  V30 20910 H 1965.5 -3.19423 0.46569 0
M  V30 20911 H 1964.56 -2.57068 2.80393 0
M  V30 20912 H 1965.87 -3.52926 3.52484 0
M  V30 20913 H 1965.02 -5.58388 2.37249 0
M  V30 20914 H 1963.76 -4.62515 1.54696 0
M  V30 20915 H 1962.77 -4.0049 3.7668 0
M  V30 20916 H 1963.99 -4.99764 4.59797 0
M  V30 20917 H 1961.94 -6.02213 2.60146 0
M  V30 20918 H 1961.85 -6.20186 4.32326 0
M  V30 20919 H 1963.12 -6.99587 3.438 0
M  V30 20920 N 1967.35 -1.28999 -0.905381 0
M  V30 20921 C 1968.6 -1.1664 -1.65534 0
M  V30 20922 C 1968.93 0.283294 -1.92426 0
M  V30 20923 O 1968.18 1.22166 -1.52885 0
M  V30 20924 C 1968.48 -1.91909 -3.01506 0
M  V30 20925 C 1968.15 -3.4166 -2.94243 0
M  V30 20926 C 1966.81 -3.82501 -2.91969 0
M  V30 20927 C 1969.16 -4.37112 -2.8387 0
M  V30 20928 C 1966.49 -5.1712 -2.77135 0
M  V30 20929 C 1968.84 -5.71814 -2.70576 0
M  V30 20930 C 1967.5 -6.1192 -2.66665 0
M  V30 20931 H 1966.77 -0.426816 -0.60573 0
M  V30 20932 H 1969.42 -1.5987 -1.05422 0
M  V30 20933 H 1967.73 -1.41252 -3.65452 0
M  V30 20934 H 1969.42 -1.79756 -3.58453 0
M  V30 20935 H 1966.01 -3.09194 -2.96812 0
M  V30 20936 H 1970.2 -4.06516 -2.84708 0
M  V30 20937 H 1965.45 -5.47311 -2.72508 0
M  V30 20938 H 1969.63 -6.45431 -2.61519 0
M  V30 20939 H 1967.25 -7.16182 -2.54928 0
M  V30 20940 N 1968.83 1.11497 -1.11383 0
M  V30 20941 C 1970.08 1.8286 -0.860611 0
M  V30 20942 C 1970.4 1.85032 0.615471 0
M  V30 20943 O 1969.67 1.32047 1.44708 0
M  V30 20944 H 1968.25 0.677153 -0.315392 0
M  V30 20945 H 1970.91 1.34963 -1.40609 0
M  V30 20946 H 1970.01 2.86743 -1.23227 0
M  V30 20947 N 1970.31 0.904053 1.29092 0
M  V30 20948 C 1971.24 0.401805 2.30017 0
M  V30 20949 C 1972.22 -0.525477 1.6178 0
M  V30 20950 O 1973.4 -0.435279 1.89259 0
M  V30 20951 C 1970.53 -0.367656 3.45348 0
M  V30 20952 C 1969.49 0.469596 4.25416 0
M  V30 20953 C 1968.81 -0.427624 5.32987 0
M  V30 20954 C 1970.11 1.7218 4.93104 0
M  V30 20955 H 1971.81 1.24523 2.72276 0
M  V30 20956 H 1969.35 0.600215 1.30895 0
M  V30 20957 H 1971.31 -0.729791 4.15033 0
M  V30 20958 H 1970.03 -1.2449 3.01944 0
M  V30 20959 H 1968.69 0.814119 3.57446 0
M  V30 20960 H 1968.34 -1.30313 4.85827 0
M  V30 20961 H 1968.04 0.128909 5.87459 0
M  V30 20962 H 1969.56 -0.785855 6.05522 0
M  V30 20963 H 1970.98 1.42914 5.55201 0
M  V30 20964 H 1969.37 2.21999 5.57527 0
M  V30 20965 H 1970.44 2.45526 4.18145 0
M  V30 20966 N 1971.79 -1.4279 0.666995 0
M  V30 20967 C 1973.02 -2.05688 0.193911 0
M  V30 20968 C 1973.42 -1.50159 -1.15103 0
M  V30 20969 O 1972.77 -0.632996 -1.7245 0
M  V30 20970 C 1972.83 -3.59474 0.0431257 0
M  V30 20971 C 1972.49 -4.37656 1.31554 0
M  V30 20972 C 1973.49 -4.6882 2.24731 0
M  V30 20973 C 1971.17 -4.7743 1.56097 0
M  V30 20974 C 1973.17 -5.38683 3.40734 0
M  V30 20975 C 1970.86 -5.47035 2.72389 0
M  V30 20976 C 1971.85 -5.77586 3.64532 0
M  V30 20977 O 1971.54 -6.45765 4.78792 0
M  V30 20978 H 1971.27 -0.66948 0.0936592 0
M  V30 20979 H 1973.83 -1.8405 0.911863 0
M  V30 20980 H 1972.06 -3.79741 -0.730331 0
M  V30 20981 H 1973.75 -4.04031 -0.389081 0
M  V30 20982 H 1974.51 -4.38599 2.07018 0
M  V30 20983 H 1970.39 -4.53049 0.852508 0
M  V30 20984 H 1973.94 -5.62446 4.12674 0
M  V30 20985 H 1969.83 -5.76673 2.90032 0
M  V30 20986 H 1970.6 -6.64254 4.78236 0
M  V30 20987 N 1973.26 -0.409806 -1.52179 0
M  V30 20988 C 1974.21 0.432719 -2.23856 0
M  V30 20989 C 1975.2 1.01291 -1.25016 0
M  V30 20990 O 1976.39 0.935617 -1.5025 0
M  V30 20991 C 1973.52 1.54847 -3.06394 0
M  V30 20992 C 1972.6 0.979019 -4.12645 0
M  V30 20993 N 1973 0.136283 -5.05616 0
M  V30 20994 C 1971.29 1.24946 -4.28141 0
M  V30 20995 C 1971.99 -0.180604 -5.8142 0
M  V30 20996 N 1970.97 0.428712 -5.41907 0
M  V30 20997 H 1974.77 -0.217442 -2.93095 0
M  V30 20998 H 1972.29 -0.220268 -1.60899 0
M  V30 20999 H 1974.28 2.16466 -3.56298 0
M  V30 21000 H 1972.94 2.20125 -2.38695 0
M  V30 21001 H 1973.95 -0.228075 -5.17398 0
M  V30 21002 H 1970.63 1.90176 -3.71671 0
M  V30 21003 H 1972.02 -0.8647 -6.66313 0
M  V30 21004 N 1974.74 1.56975 -0.14025 0
M  V30 21005 C 1975.99 1.96196 0.513302 0
M  V30 21006 C 1976.32 1.02482 1.64958 0
M  V30 21007 O 1975.6 0.0659332 1.94388 0
M  V30 21008 C 1975.88 3.45178 1.02589 0
M  V30 21009 C 1975.73 4.49669 -0.108432 0
M  V30 21010 C 1977.05 3.96499 1.90989 0
M  V30 21011 H 1974.17 0.713374 0.185114 0
M  V30 21012 H 1976.81 1.88721 -0.220112 0
M  V30 21013 H 1974.96 3.51679 1.65088 0
M  V30 21014 H 1976.63 4.55252 -0.744538 0
M  V30 21015 H 1974.88 4.26937 -0.768558 0
M  V30 21016 H 1975.55 5.51228 0.291822 0
M  V30 21017 H 1978.02 3.92434 1.38329 0
M  V30 21018 H 1976.9 5.01219 2.23765 0
M  V30 21019 H 1977.16 3.38452 2.84433 0
M  V30 21020 N 1976.22 -0.133539 1.57033 0
M  V30 21021 C 1977.5 -0.873327 1.75021 0
M  V30 21022 C 1977.88 -1.98735 0.71187 0
M  V30 21023 O 1977.22 -2.26937 -0.266823 0
M  V30 21024 C 1977.43 -1.40341 3.19539 0
M  V30 21025 C 1978.78 -1.86151 3.81619 0
M  V30 21026 O 1979.81 -1.50053 3.23052 0
M  V30 21027 O 1978.67 -2.52767 4.84532 0
M  V30 21028 H 1975.76 -0.413669 0.716105 0
M  V30 21029 H 1978.31 -0.118413 1.69286 0
M  V30 21030 H 1977.08 -0.60345 3.86619 0
M  V30 21031 H 1976.7 -2.22145 3.29754 0
M  V30 21032 N 1977.7 -1.52352 -0.403298 0
M  V30 21033 C 1978.94 -1.66697 -1.14971 0
M  V30 21034 C 1979.27 -0.39978 -1.90347 0
M  V30 21035 O 1978.53 0.617431 -1.85705 0
M  V30 21036 C 1978.83 -2.84352 -2.16515 0
M  V30 21037 C 1978.49 -4.22348 -1.57903 0
M  V30 21038 C 1977.15 -4.59881 -1.41643 0
M  V30 21039 C 1979.51 -5.0832 -1.15154 0
M  V30 21040 C 1976.83 -5.81059 -0.811602 0
M  V30 21041 C 1979.19 -6.30109 -0.560875 0
M  V30 21042 C 1977.85 -6.66386 -0.385456 0
M  V30 21043 H 1977.12 -0.609988 -0.420708 0
M  V30 21044 H 1979.77 -1.86467 -0.436164 0
M  V30 21045 H 1978.07 -2.58941 -2.94036 0
M  V30 21046 H 1979.77 -2.92647 -2.74151 0
M  V30 21047 H 1976.36 -3.92774 -1.71543 0
M  V30 21048 H 1980.54 -4.79902 -1.26523 0
M  V30 21049 H 1975.8 -6.07786 -0.66376 0
M  V30 21050 H 1979.97 -6.96048 -0.221267 0
M  V30 21051 H 1977.6 -7.60152 0.0853049 0
M  V30 21052 N 1979.18 0.660885 -1.43074 0
M  V30 21053 C 1980.12 1.79529 -1.47892 0
M  V30 21054 C 1981.12 1.65676 -0.353254 0
M  V30 21055 O 1982.32 1.72115 -0.526903 0
M  V30 21056 H 1978.7 0.592191 -0.46348 0
M  V30 21057 H 1980.67 1.72584 -2.43428 0
M  V30 21058 C 1979.42 3.17753 -1.41167 0
M  V30 21059 H 1978.74 3.29047 -2.27087 0
M  V30 21060 H 1980.18 3.97107 -1.486 0
M  V30 21061 C 1978.64 3.36656 -0.128241 0
M  V30 21062 O 1979.17 3.93376 0.813504 0
M  V30 21063 N 1977.38 2.90571 -0.0408985 0
M  V30 21064 H 1976.92 2.44598 -0.808059 0
M  V30 21065 H 1976.88 3.03595 0.817147 0
M  V30 21066 N 1980.65 1.29477 0.898527 0
M  V30 21067 C 1981.6 1.1459 2.02415 0
M  V30 21068 C 1982.6 0.0611919 1.69289 0
M  V30 21069 O 1983.8 0.221075 1.78637 0
M  V30 21070 H 1980.18 0.353997 0.663468 0
M  V30 21071 H 1982.15 2.09886 2.12109 0
M  V30 21072 C 1980.9 0.840435 3.3739 0
M  V30 21073 H 1980.22 1.66712 3.63383 0
M  V30 21074 H 1981.66 0.77631 4.16833 0
M  V30 21075 C 1980.12 -0.456337 3.33795 0
M  V30 21076 O 1980.65 -1.48204 3.73361 0
M  V30 21077 N 1978.86 -0.462604 2.86894 0
M  V30 21078 H 1978.4 0.372545 2.54892 0
M  V30 21079 H 1978.36 -1.33024 2.84872 0
M  V30 21080 N 1982.13 -1.10905 1.11972 0
M  V30 21081 C 1983.36 -1.86555 0.894699 0
M  V30 21082 C 1983.78 -1.80434 -0.555801 0
M  V30 21083 O 1983.13 -1.18957 -1.38403 0
M  V30 21084 C 1983.18 -3.35148 1.35492 0
M  V30 21085 O 1982.9 -3.41154 2.74856 0
M  V30 21086 C 1984.41 -4.27687 1.16612 0
M  V30 21087 H 1981.63 -0.589761 0.320037 0
M  V30 21088 H 1984.17 -1.40232 1.48846 0
M  V30 21089 H 1982.32 -3.78955 0.804493 0
M  V30 21090 H 1982.74 -4.3372 2.94936 0
M  V30 21091 H 1984.21 -5.30168 1.53708 0
M  V30 21092 H 1984.69 -4.39072 0.106219 0
M  V30 21093 H 1985.3 -3.8968 1.70381 0
M  V30 21094 N 1983.61 -0.910886 -1.2861 0
M  V30 21095 C 1984.56 -0.387197 -2.29355 0
M  V30 21096 C 1985.55 0.519603 -1.61234 0
M  V30 21097 O 1986.76 0.401165 -1.75473 0
M  V30 21098 H 1983.13 -0.106607 -0.744405 0
M  V30 21099 H 1985.1 -1.25002 -2.70956 0
M  V30 21100 C 1983.85 0.360115 -3.4583 0
M  V30 21101 H 1983.18 -0.328438 -3.98449 0
M  V30 21102 H 1984.62 0.69123 -4.18328 0
M  V30 21103 C 1983.08 1.56695 -2.98242 0
M  V30 21104 O 1983.61 2.66609 -3.00471 0
M  V30 21105 N 1981.81 1.41295 -2.53937 0
M  V30 21106 H 1981.36 0.51873 -2.52323 0
M  V30 21107 H 1981.32 2.22172 -2.22457 0
M  V30 21108 N 1985.09 1.42434 -0.674558 0
M  V30 21109 C 1986.5 1.55847 -0.344087 0
M  V30 21110 C 1986.7 1.65424 1.15053 0
M  V30 21111 O 1985.76 1.62103 1.93594 0
M  V30 21112 C 1987.07 2.80859 -1.07419 0
M  V30 21113 C 1988.62 2.94631 -1.05649 0
M  V30 21114 C 1989.1 4.22503 -1.76791 0
M  V30 21115 N 1990.59 4.29415 -1.73658 0
M  V30 21116 C 1991.32 5.27171 -2.25561 0
M  V30 21117 N 1990.82 6.31082 -2.85845 0
M  V30 21118 N 1992.61 5.18968 -2.15937 0
M  V30 21119 H 1984.76 1.34461 -1.6442 0
M  V30 21120 H 1987.03 0.647231 -0.692673 0
M  V30 21121 H 1986.73 2.79919 -2.12928 0
M  V30 21122 H 1986.61 3.71743 -0.63927 0
M  V30 21123 H 1988.99 2.95098 -0.00973704 0
M  V30 21124 H 1989.07 2.04977 -1.53029 0
M  V30 21125 H 1988.72 4.22796 -2.81435 0
M  V30 21126 H 1988.65 5.11091 -1.26861 0
M  V30 21127 H 1991.14 3.5495 -1.29687 0
M  V30 21128 H 1991.45 7.02029 -3.2307 0
M  V30 21129 H 1989.8 6.31644 -2.89914 0
M  V30 21130 H 1992.99 4.3671 -1.6853 0
M  V30 21131 H 1993.16 5.9499 -2.56693 0
M  V30 21132 N 1986.57 0.417871 1.51959 0
M  V30 21133 C 1987.98 -0.0497386 1.86634 0
M  V30 21134 C 1988.33 -1.43671 1.33616 0
M  V30 21135 O 1987.45 -2.05472 0.67898 0
M  V30 21136 C 1988.05 -0.0970329 3.38661 0
M  V30 21137 C 1986.61 -0.509 3.72943 0
M  V30 21138 C 1985.75 0.310908 2.75552 0
M  V30 21139 H 1988.71 0.634566 1.45461 0
M  V30 21140 H 1988.73 -0.910534 3.69445 0
M  V30 21141 H 1988.24 0.912553 3.77219 0
M  V30 21142 H 1986.34 -1.52491 3.39967 0
M  V30 21143 H 1986.45 -0.247317 4.78461 0
M  V30 21144 H 1984.82 -0.228018 2.53677 0
M  V30 21145 H 1985.6 1.31901 3.1695 0
M  V30 21146 N 1988.04 -1.56898 0.148573 0
M  V30 21147 C 1989.46 -1.58241 -0.207826 0
M  V30 21148 C 1989.66 -1.16291 -1.64556 0
M  V30 21149 O 1988.72 -0.863939 -2.3726 0
M  V30 21150 C 1990.03 -3.00654 0.0523559 0
M  V30 21151 C 1991.58 -3.12998 -0.0112297 0
M  V30 21152 C 1992.05 -4.57463 0.221641 0
M  V30 21153 N 1993.54 -4.62893 0.168624 0
M  V30 21154 C 1994.28 -5.72488 0.323296 0
M  V30 21155 N 1993.77 -6.90725 0.535776 0
M  V30 21156 N 1995.57 -5.61495 0.26079 0
M  V30 21157 H 1987.72 -1.82459 1.08731 0
M  V30 21158 H 1989.98 -0.8446 0.430529 0
M  V30 21159 H 1989.69 -3.3574 1.04745 0
M  V30 21160 H 1989.56 -3.71268 -0.666346 0
M  V30 21161 H 1991.95 -2.77752 -0.996873 0
M  V30 21162 H 1992.03 -2.44868 0.739826 0
M  V30 21163 H 1991.67 -4.93413 1.20439 0
M  V30 21164 H 1991.6 -5.23722 -0.549756 0
M  V30 21165 H 1994.09 -3.77899 0.00911581 0
M  V30 21166 H 1994.41 -7.70113 0.643862 0
M  V30 21167 H 1992.75 -6.92641 0.572117 0
M  V30 21168 H 1995.94 -4.68002 0.095543 0
M  V30 21169 H 1996.12 -6.46857 0.384765 0
M  V30 21170 N 1989.52 0.125209 -1.57102 0
M  V30 21171 C 1990.75 0.848436 -1.88704 0
M  V30 21172 C 1991.17 1.73729 -0.739158 0
M  V30 21173 O 1990.52 1.80177 0.290278 0
M  V30 21174 C 1990.57 1.68704 -3.1972 0
M  V30 21175 O 1990.29 0.833978 -4.30089 0
M  V30 21176 C 1991.8 2.51596 -3.64985 0
M  V30 21177 H 1989.02 0.244227 -0.624975 0
M  V30 21178 H 1991.56 0.111462 -2.04196 0
M  V30 21179 H 1989.71 2.37684 -3.05917 0
M  V30 21180 H 1990.13 1.4118 -5.05142 0
M  V30 21181 H 1991.6 3.05978 -4.59436 0
M  V30 21182 H 1992.08 3.28664 -2.91336 0
M  V30 21183 H 1992.69 1.8787 -3.81556 0
M  V30 21184 N 1991 1.52564 0.395213 0
M  V30 21185 C 1991.96 1.76262 1.46508 0
M  V30 21186 C 1992.96 0.632579 1.47835 0
M  V30 21187 O 1994.15 0.900582 1.49115 0
M  V30 21188 C 1991.29 1.85771 2.85835 0
M  V30 21189 H 1992.48 2.71784 1.26782 0
M  V30 21190 H 1990.03 1.43191 0.626572 0
M  V30 21191 H 1990.77 0.922125 3.10914 0
M  V30 21192 H 1990.55 2.67936 2.86274 0
M  V30 21193 H 1992.04 2.05799 3.63368 0
M  V30 21194 N 1992.48 -0.653289 1.43422 0
M  V30 21195 C 1993.89 -0.968948 1.26821 0
M  V30 21196 C 1994.09 -2.00622 0.187882 0
M  V30 21197 O 1993.15 -2.48747 -0.43371 0
M  V30 21198 C 1994.46 -1.45328 2.63249 0
M  V30 21199 C 1996.01 -1.56993 2.70781 0
M  V30 21200 C 1996.49 -2.08817 4.07627 0
M  V30 21201 N 1997.98 -2.16119 4.09691 0
M  V30 21202 C 1998.71 -2.5734 5.1241 0
M  V30 21203 N 1998.21 -2.97858 6.25502 0
M  V30 21204 N 2000 -2.57279 4.99764 0
M  V30 21205 H 1992.15 0.0330932 2.12374 0
M  V30 21206 H 1994.42 -0.0477768 0.946795 0
M  V30 21207 H 1994.12 -0.765519 3.43268 0
M  V30 21208 H 1994 -2.42831 2.8864 0
M  V30 21209 H 1996.38 -2.24871 1.91095 0
M  V30 21210 H 1996.46 -0.579228 2.49156 0
M  V30 21211 H 1996.11 -1.41541 4.87779 0
M  V30 21212 H 1996.04 -3.08718 4.26616 0
M  V30 21213 H 1998.53 -1.8758 3.28058 0
M  V30 21214 H 1998.84 -3.2806 6.99712 0
M  V30 21215 H 1997.19 -2.95662 6.28974 0
M  V30 21216 H 2000.38 -2.25002 4.10478 0
M  V30 21217 H 2000.55 -2.89082 5.79944 0
M  V30 21218 N 1993.96 -1.29952 -0.891648 0
M  V30 21219 C 1994.92 -1.15756 -1.97821 0
M  V30 21220 C 1995.92 -0.0906975 -1.60544 0
M  V30 21221 O 1997.11 -0.338283 -1.70884 0
M  V30 21222 C 1994.24 -0.771976 -3.32044 0
M  V30 21223 H 1995.43 -2.12281 -2.11842 0
M  V30 21224 H 1992.99 -1.13253 -1.07719 0
M  V30 21225 H 1993.72 0.193059 -3.23725 0
M  V30 21226 H 1993.51 -1.54291 -3.60467 0
M  V30 21227 H 1995 -0.695941 -4.1176 0
M  V30 21228 N 1995.44 1.1031 -1.12559 0
M  V30 21229 C 1996.66 1.86618 -0.9049 0
M  V30 21230 C 1997.09 1.80164 0.540597 0
M  V30 21231 O 1996.44 1.17252 1.38281 0
M  V30 21232 C 1996.49 3.32903 -1.38592 0
M  V30 21233 O 1995.6 4.08508 -0.565225 0
M  V30 21234 H 1994.94 0.579019 -0.325013 0
M  V30 21235 H 1997.47 1.39359 -1.498 0
M  V30 21236 H 1997.48 3.83753 -1.38556 0
M  V30 21237 H 1996.15 3.36917 -2.43844 0
M  V30 21238 H 1994.73 3.67494 -0.632682 0
M  V30 21239 N 1996.91 0.917694 1.28125 0
M  V30 21240 C 1997.88 0.413823 2.25433 0
M  V30 21241 C 1998.88 -0.46205 1.54019 0
M  V30 21242 O 2000.07 -0.264546 1.7218 0
M  V30 21243 C 1997.2 -0.406249 3.38471 0
M  V30 21244 H 1998.39 1.27345 2.7152 0
M  V30 21245 H 1995.94 0.697455 1.39876 0
M  V30 21246 H 1996.68 -1.28511 2.97751 0
M  V30 21247 H 1996.46 0.221601 3.91473 0
M  V30 21248 H 1997.95 -0.749491 4.10819 0
M  V30 21249 N 1998.39 -1.42074 0.682102 0
M  V30 21250 C 1999.81 -1.55662 0.352347 0
M  V30 21251 C 2000.01 -1.66032 -1.14174 0
M  V30 21252 O 1999.06 -1.63128 -1.92732 0
M  V30 21253 C 2000.38 -2.80285 1.08907 0
M  V30 21254 C 2001.92 -2.94066 1.0721 0
M  V30 21255 C 2002.4 -4.2156 1.7903 0
M  V30 21256 N 2003.89 -4.28488 1.75933 0
M  V30 21257 C 2004.63 -5.25968 2.28354 0
M  V30 21258 N 2004.12 -6.29557 2.89188 0
M  V30 21259 N 2005.91 -5.17815 2.18686 0
M  V30 21260 H 1998.07 -1.33588 1.65131 0
M  V30 21261 H 2000.33 -0.643549 0.696096 0
M  V30 21262 H 2000.03 -2.78786 2.14409 0
M  V30 21263 H 1999.91 -3.71399 0.658975 0
M  V30 21264 H 2002.3 -2.95089 0.0253867 0
M  V30 21265 H 2002.38 -2.04163 1.54114 0
M  V30 21266 H 2002.02 -4.21298 2.83673 0
M  V30 21267 H 2001.95 -5.10411 1.2957 0
M  V30 21268 H 2004.44 -3.54257 1.31568 0
M  V30 21269 H 2004.75 -7.00306 3.26789 0
M  V30 21270 H 2003.1 -6.30098 2.9326 0
M  V30 21271 H 2006.29 -4.3581 1.70843 0
M  V30 21272 H 2006.46 -5.9362 2.59845 0
M  V30 21273 N 1999.87 -0.425924 -1.51735 0
M  V30 21274 C 2001.1 0.143143 -2.06104 0
M  V30 21275 C 2001.51 1.37989 -1.29444 0
M  V30 21276 O 2000.85 1.80448 -0.344147 0
M  V30 21277 C 2000.91 0.541996 -3.55391 0
M  V30 21278 C 2000.58 -0.586352 -4.53223 0
M  V30 21279 C 2001.57 -1.45505 -4.99124 0
M  V30 21280 C 1999.26 -0.763832 -4.96458 0
M  V30 21281 C 2001.25 -2.48602 -5.86921 0
M  V30 21282 C 1998.94 -1.79809 -5.84048 0
M  V30 21283 C 1999.94 -2.65758 -6.29175 0
M  V30 21284 O 1999.63 -3.67411 -7.15028 0
M  V30 21285 H 1999.36 0.0164528 -0.6758 0
M  V30 21286 H 2001.91 -0.60044 -1.96428 0
M  V30 21287 H 2000.14 1.33811 -3.6281 0
M  V30 21288 H 2001.83 1.0409 -3.92326 0
M  V30 21289 H 2002.6 -1.32941 -4.66424 0
M  V30 21290 H 1998.48 -0.10445 -4.60882 0
M  V30 21291 H 2002.02 -3.15721 -6.22066 0
M  V30 21292 H 1997.92 -1.92397 -6.1616 0
M  V30 21293 H 1998.68 -3.63855 -7.33179 0
M  V30 21294 N 2001.35 1.56817 -0.156891 0
M  V30 21295 C 2002.58 2.00516 0.497682 0
M  V30 21296 C 2002.99 1.03609 1.58309 0
M  V30 21297 O 2002.33 0.0266573 1.83681 0
M  V30 21298 C 2002.39 3.40648 1.14888 0
M  V30 21299 C 2002.05 4.56531 0.206879 0
M  V30 21300 C 2003.05 5.16774 -0.569267 0
M  V30 21301 C 2000.74 5.02186 0.106904 0
M  V30 21302 C 2002.73 6.21089 -1.43274 0
M  V30 21303 C 2000.42 6.06354 -0.760162 0
M  V30 21304 C 2001.42 6.65675 -1.52858 0
M  V30 21305 O 2001.1 7.67825 -2.38118 0
M  V30 21306 H 2000.84 0.662754 0.133164 0
M  V30 21307 H 2003.39 2.03855 -0.251425 0
M  V30 21308 H 2001.62 3.34177 1.94583 0
M  V30 21309 H 2003.31 3.68391 1.70419 0
M  V30 21310 H 2004.07 4.82394 -0.502119 0
M  V30 21311 H 1999.95 4.55735 0.694764 0
M  V30 21312 H 2003.5 6.6732 -2.03298 0
M  V30 21313 H 1999.39 6.4016 -0.828566 0
M  V30 21314 H 2000.16 7.85087 -2.31475 0
M  V30 21315 N 2002.83 -0.116876 1.57166 0
M  V30 21316 C 2004.05 -0.838417 1.89151 0
M  V30 21317 C 2004.47 -1.73335 0.748361 0
M  V30 21318 O 2003.83 -1.80328 -0.280719 0
M  V30 21319 C 2003.88 -1.67006 3.20611 0
M  V30 21320 O 2003.6 -0.811158 4.30525 0
M  V30 21321 C 2005.1 -2.49657 3.66314 0
M  V30 21322 H 2002.32 -0.240909 0.626262 0
M  V30 21323 H 2004.86 -0.100631 2.04252 0
M  V30 21324 H 2003.02 -2.36058 3.07173 0
M  V30 21325 H 2003.43 -1.38499 5.05884 0
M  V30 21326 H 2004.91 -3.03537 4.61052 0
M  V30 21327 H 2005.38 -3.27114 2.93075 0
M  V30 21328 H 2005.99 -1.85844 3.82547 0
M  V30 21329 N 2004.3 -1.52772 -0.387116 0
M  V30 21330 C 2005.21 -1.8061 -1.49724 0
M  V30 21331 C 2006.23 -0.692981 -1.59605 0
M  V30 21332 O 2007.41 -0.98077 -1.75906 0
M  V30 21333 C 2004.47 -1.97083 -2.85236 0
M  V30 21334 C 2003.53 -3.20997 -2.8506 0
M  V30 21335 C 2002.76 -3.36675 -4.14108 0
M  V30 21336 O 2002.99 -2.57118 -5.09163 0
M  V30 21337 O 2001.92 -4.29938 -4.21233 0
M  V30 21338 H 2005.75 -2.7488 -1.2913 0
M  V30 21339 H 2003.33 -1.37886 -0.57514 0
M  V30 21340 H 2005.21 -2.09614 -3.65568 0
M  V30 21341 H 2003.89 -1.06002 -3.05852 0
M  V30 21342 H 2002.8 -3.13907 -2.03503 0
M  V30 21343 H 2004.13 -4.1193 -2.69396 0
M  V30 21344 N 2005.78 0.645673 -1.43767 0
M  V30 21345 C 2007.03 1.40756 -1.45999 0
M  V30 21346 C 2007.36 1.94006 -0.0867413 0
M  V30 21347 O 2006.64 1.72761 0.893532 0
M  V30 21348 C 2006.92 2.58349 -2.50854 0
M  V30 21349 C 2006.77 2.10542 -3.97482 0
M  V30 21350 C 2008.09 3.60555 -2.52364 0
M  V30 21351 H 2005.21 0.510461 -0.5316 0
M  V30 21352 H 2007.85 0.731338 -1.75361 0
M  V30 21353 H 2006 3.16038 -2.25947 0
M  V30 21354 H 2007.67 1.57795 -4.33472 0
M  V30 21355 H 2005.92 1.41848 -4.09953 0
M  V30 21356 H 2006.59 2.95137 -4.66474 0
M  V30 21357 H 2009.06 3.12639 -2.74583 0
M  V30 21358 H 2007.94 4.40375 -3.2766 0
M  V30 21359 H 2008.2 4.13654 -1.56022 0
M  V30 21360 N 2007.26 1.30423 0.884744 0
M  V30 21361 C 2008.51 1.18625 1.63129 0
M  V30 21362 C 2008.82 -0.257953 1.93892 0
M  V30 21363 O 2010.03 -0.497448 2.66904 0
M  V30 21364 C 2008.48 2.0757 2.94011 0
M  V30 21365 C 2008.09 3.569 2.70788 0
M  V30 21366 C 2009.84 2.04535 3.71975 0
M  V30 21367 C 2007.74 4.37901 3.97488 0
M  V30 21368 H 2006.67 0.440391 0.612023 0
M  V30 21369 H 2009.32 1.55172 0.979478 0
M  V30 21370 H 2007.71 1.63905 3.60487 0
M  V30 21371 H 2008.88 4.08715 2.12812 0
M  V30 21372 H 2007.19 3.61761 2.06199 0
M  V30 21373 H 2009.79 2.62305 4.6594 0
M  V30 21374 H 2010.13 1.02888 4.03385 0
M  V30 21375 H 2010.67 2.46322 3.12362 0
M  V30 21376 H 2007.41 5.40244 3.71236 0
M  V30 21377 H 2006.93 3.9085 4.54968 0
M  V30 21378 H 2008.61 4.49347 4.65506 0
M  V30 21379 N 2008.74 -1.09711 1.13142 0
M  V30 21380 C 2009.97 -1.85595 0.914436 0
M  V30 21381 C 2010.38 -1.81013 -0.536632 0
M  V30 21382 O 2009.74 -1.20419 -1.37134 0
M  V30 21383 C 2009.79 -3.33692 1.39039 0
M  V30 21384 O 2009.51 -3.38219 2.78459 0
M  V30 21385 C 2011.01 -4.26427 1.21142 0
M  V30 21386 H 2008.23 -0.586333 0.326274 0
M  V30 21387 H 2010.77 -1.38646 1.50325 0
M  V30 21388 H 2008.93 -3.7808 0.844641 0
M  V30 21389 H 2009.34 -4.30567 2.9952 0
M  V30 21390 H 2010.82 -5.28508 1.59323 0
M  V30 21391 H 2011.29 -4.38934 0.152782 0
M  V30 21392 H 2011.9 -3.87851 1.74505 0
M  V30 21393 N 2010.22 -0.924476 -1.27637 0
M  V30 21394 C 2011.16 -0.411501 -2.28931 0
M  V30 21395 C 2012.16 0.502472 -1.61776 0
M  V30 21396 O 2013.36 0.382531 -1.75888 0
M  V30 21397 H 2009.74 -0.114496 -0.743233 0
M  V30 21398 H 2011.71 -1.27869 -2.69615 0
M  V30 21399 C 2010.46 0.323415 -3.46193 0
M  V30 21400 H 2009.78 -0.37068 -3.98078 0
M  V30 21401 H 2011.22 0.646821 -4.19037 0
M  V30 21402 C 2009.68 1.53523 -2.99887 0
M  V30 21403 O 2010.21 2.63407 -3.03281 0
M  V30 21404 N 2008.42 1.38594 -2.55421 0
M  V30 21405 H 2007.96 0.491939 -2.52859 0
M  V30 21406 H 2007.92 2.198 -2.24801 0
M  V30 21407 N 2011.69 1.41711 -0.689627 0
M  V30 21408 C 2012.64 2.32598 -0.0090856 0
M  V30 21409 C 2013.64 1.50639 0.774873 0
M  V30 21410 O 2014.84 1.66614 0.681165 0
M  V30 21411 H 2011.22 0.751833 0.0158614 0
M  V30 21412 H 2013.19 2.87676 -0.79278 0
M  V30 21413 C 2011.94 3.35371 0.917683 0
M  V30 21414 H 2011.26 3.98486 0.323858 0
M  V30 21415 H 2012.7 4.0152 1.36228 0
M  V30 21416 C 2011.16 2.68792 2.03107 0
M  V30 21417 O 2011.69 2.53118 3.1192 0
M  V30 21418 N 2009.9 2.27581 1.80708 0
M  V30 21419 H 2009.44 2.4053 0.922133 0
M  V30 21420 H 2009.4 1.83368 2.55389 0
M  V30 21421 N 2013.17 0.433965 1.51507 0
M  V30 21422 C 2014.42 -0.133365 2.01659 0
M  V30 21423 C 2014.74 -1.43506 1.32026 0
M  V30 21424 O 2014.01 -1.90572 0.453774 0
M  V30 21425 H 2012.59 -0.0522753 0.745169 0
M  V30 21426 H 2015.25 0.575899 1.86197 0
M  V30 21427 H 2014.35 -0.311697 3.1054 0
M  V30 21428 N 2014.65 -1.56732 0.165206 0
M  V30 21429 C 2015.58 -2.13493 -0.805985 0
M  V30 21430 C 2016.56 -1.06335 -1.23011 0
M  V30 21431 O 2017.75 -1.34275 -1.32297 0
M  V30 21432 C 2014.87 -2.6695 -2.08459 0
M  V30 21433 C 2013.92 -3.86423 -1.80497 0
M  V30 21434 S 2014.75 -5.26462 -0.979671 0
M  V30 21435 C 2015.91 -5.83321 -2.26908 0
M  V30 21436 H 2016.14 -2.95536 -0.32336 0
M  V30 21437 H 2013.67 -1.54321 -0.0493706 0
M  V30 21438 H 2015.63 -2.98398 -2.81903 0
M  V30 21439 H 2014.29 -1.85003 -2.53836 0
M  V30 21440 H 2013.49 -4.22134 -2.75352 0
M  V30 21441 H 2013.09 -3.55831 -1.15153 0
M  V30 21442 H 2015.38 -5.95863 -3.22419 0
M  V30 21443 H 2016.32 -6.80527 -1.95675 0
M  V30 21444 H 2016.73 -5.11694 -2.38388 0
M  V30 21445 N 2016.13 0.10854 -1.57226 0
M  V30 21446 C 2017.54 0.664549 -1.74472 0
M  V30 21447 C 2017.89 1.79792 -0.785438 0
M  V30 21448 O 2017.02 2.16364 0.0392281 0
M  V30 21449 C 2017.61 1.21227 -3.16369 0
M  V30 21450 C 2016.17 1.71447 -3.35086 0
M  V30 21451 C 2015.32 0.618471 -2.70315 0
M  V30 21452 H 2018.27 -0.11745 -1.58265 0
M  V30 21453 H 2018.29 2.08181 -3.18498 0
M  V30 21454 H 2017.8 0.387164 -3.86164 0
M  V30 21455 H 2015.9 2.56402 -2.7035 0
M  V30 21456 H 2016.01 1.81672 -4.4332 0
M  V30 21457 H 2014.38 1.05465 -2.31839 0
M  V30 21458 H 2015.16 -0.195832 -3.42741 0
M  V30 21459 N 2017.61 1.52975 0.379009 0
M  V30 21460 C 2018.54 1.81436 1.46981 0
M  V30 21461 C 2019.52 0.666985 1.56478 0
M  V30 21462 O 2020.7 0.915545 1.71264 0
M  V30 21463 C 2017.83 1.99221 2.84479 0
M  V30 21464 C 2016.79 3.14946 2.89816 0
M  V30 21465 C 2016.11 3.18001 4.2986 0
M  V30 21466 C 2017.41 4.53814 2.58554 0
M  V30 21467 H 2019.11 2.72781 1.23413 0
M  V30 21468 H 2016.65 1.31257 0.592257 0
M  V30 21469 H 2018.61 2.17714 3.60803 0
M  V30 21470 H 2017.33 1.04573 3.09406 0
M  V30 21471 H 2015.99 2.96251 2.15942 0
M  V30 21472 H 2015.64 2.21017 4.51841 0
M  V30 21473 H 2015.34 3.95746 4.34349 0
M  V30 21474 H 2016.86 3.38662 5.08075 0
M  V30 21475 H 2018.27 4.72559 3.24593 0
M  V30 21476 H 2016.67 5.33701 2.74379 0
M  V30 21477 H 2017.74 4.59845 1.53853 0
M  V30 21478 N 2019.08 -0.63804 1.44107 0
M  V30 21479 C 2020.05 -1.7322 1.50092 0
M  V30 21480 C 2021.05 -1.56153 0.383763 0
M  V30 21481 O 2022.24 -1.61774 0.646118 0
M  V30 21482 C 2019.37 -3.1224 1.36818 0
M  V30 21483 H 2020.56 -1.6929 2.4755 0
M  V30 21484 H 2018.12 -0.851079 1.31097 0
M  V30 21485 H 2018.85 -3.2177 0.404269 0
M  V30 21486 H 2018.64 -3.26033 2.17818 0
M  V30 21487 H 2020.13 -3.91997 1.43972 0
M  V30 21488 N 2020.56 -1.3089 -0.877815 0
M  V30 21489 C 2021.98 -1.09377 -1.16228 0
M  V30 21490 C 2022.18 0.140854 -2.01007 0
M  V30 21491 O 2021.23 0.83243 -2.38384 0
M  V30 21492 C 2022.55 -2.36114 -1.86201 0
M  V30 21493 C 2024.1 -2.41648 -1.98936 0
M  V30 21494 C 2024.57 -3.68245 -2.72322 0
M  V30 21495 N 2026.06 -3.69094 -2.79863 0
M  V30 21496 C 2026.8 -4.63743 -3.37239 0
M  V30 21497 N 2026.29 -5.68741 -3.95607 0
M  V30 21498 N 2028.09 -4.51275 -3.35122 0
M  V30 21499 H 2020.24 -2.10086 -0.312693 0
M  V30 21500 H 2022.5 -0.926425 -0.201101 0
M  V30 21501 H 2022.21 -3.26251 -1.31352 0
M  V30 21502 H 2022.08 -2.45311 -2.86535 0
M  V30 21503 H 2024.47 -1.51985 -2.52952 0
M  V30 21504 H 2024.55 -2.36421 -0.976675 0
M  V30 21505 H 2024.19 -4.58271 -2.18976 0
M  V30 21506 H 2024.12 -3.70736 -3.73982 0
M  V30 21507 H 2026.61 -2.93189 -2.3843 0
M  V30 21508 H 2026.93 -6.37052 -4.37475 0
M  V30 21509 H 2025.27 -5.72525 -3.94006 0
M  V30 21510 H 2028.46 -3.68426 -2.88755 0
M  V30 21511 H 2028.63 -5.25217 -3.7954 0
M  V30 21512 N 2022.04 1.0911 -1.13723 0
M  V30 21513 C 2022.95 2.19388 -0.831037 0
M  V30 21514 C 2023.97 1.73007 0.185658 0
M  V30 21515 O 2025.14 2.01394 0.015917 0
M  V30 21516 C 2022.21 3.45355 -0.305036 0
M  V30 21517 C 2021.27 4.064 -1.38338 0
M  V30 21518 C 2020.5 5.26355 -0.882388 0
M  V30 21519 O 2020.72 5.69718 0.278833 0
M  V30 21520 O 2019.66 5.78609 -1.65816 0
M  V30 21521 H 2023.48 2.48037 -1.75246 0
M  V30 21522 H 2021.07 1.18108 -0.91493 0
M  V30 21523 H 2022.95 4.21396 -0.0172636 0
M  V30 21524 H 2021.63 3.18301 0.588762 0
M  V30 21525 H 2020.53 3.31981 -1.72452 0
M  V30 21526 H 2021.87 4.37688 -2.25144 0
M  V30 21527 N 2023.52 0.931232 1.27145 0
M  V30 21528 C 2024.8 0.491789 1.89317 0
M  V30 21529 C 2025.18 -1.03026 1.84252 0
M  V30 21530 O 2024.52 -1.88596 1.29011 0
M  V30 21531 C 2024.73 1.04187 3.33086 0
M  V30 21532 C 2026.08 1.1045 4.09983 0
M  V30 21533 O 2027.11 0.991747 3.42115 0
M  V30 21534 O 2025.96 1.27861 5.31332 0
M  V30 21535 H 2023.06 0.158746 0.811621 0
M  V30 21536 H 2025.6 1.02315 1.35387 0
M  V30 21537 H 2024.38 2.08566 3.31083 0
M  V30 21538 H 2024 0.492365 3.9454 0
M  V30 21539 N 2025 -1.41343 0.697132 0
M  V30 21540 C 2025.91 -2.34576 0.0333341 0
M  V30 21541 C 2026.92 -1.56313 -0.764337 0
M  V30 21542 O 2028.1 -1.88787 -0.70154 0
M  V30 21543 C 2025.16 -3.35066 -0.890597 0
M  V30 21544 C 2024.23 -4.29216 -0.0849556 0
M  V30 21545 C 2023.46 -5.24905 -0.964881 0
M  V30 21546 O 2023.68 -5.26083 -2.20437 0
M  V30 21547 O 2022.62 -6.00476 -0.413724 0
M  V30 21548 H 2026.44 -2.92922 0.801892 0
M  V30 21549 H 2024.03 -1.42223 0.457478 0
M  V30 21550 H 2025.91 -3.96741 -1.42036 0
M  V30 21551 H 2024.58 -2.79161 -1.63862 0
M  V30 21552 H 2023.49 -3.70884 0.489447 0
M  V30 21553 H 2024.82 -4.88223 0.624437 0
M  V30 21554 N 2026.48 -0.441993 -1.51275 0
M  V30 21555 C 2027.72 0.122911 -2.02127 0
M  V30 21556 C 2028.05 1.42305 -1.32588 0
M  V30 21557 O 2027.31 1.90895 -0.431013 0
M  V30 21558 C 2027.6 0.384298 -3.55328 0
M  V30 21559 C 2027.27 -0.830593 -4.43184 0
M  V30 21560 C 2025.93 -1.16375 -4.66916 0
M  V30 21561 C 2028.28 -1.64084 -4.94698 0
M  V30 21562 C 2025.61 -2.30775 -5.39407 0
M  V30 21563 C 2027.96 -2.77587 -5.68444 0
M  V30 21564 C 2026.63 -3.11351 -5.90438 0
M  V30 21565 H 2025.9 0.0449764 -0.739634 0
M  V30 21566 H 2028.55 -0.59014 -1.8218 0
M  V30 21567 H 2026.85 1.17929 -3.73631 0
M  V30 21568 H 2028.55 0.834882 -3.92213 0
M  V30 21569 H 2025.14 -0.560991 -4.24913 0
M  V30 21570 H 2029.32 -1.39665 -4.76243 0
M  V30 21571 H 2024.58 -2.57243 -5.54649 0
M  V30 21572 H 2028.75 -3.40736 -6.07348 0
M  V30 21573 H 2026.38 -4.00108 -6.46388 0
M  V30 21574 N 2027.95 1.56642 -0.173515 0
M  V30 21575 C 2028.88 2.21076 0.751509 0
M  V30 21576 C 2029.86 1.16706 1.23749 0
M  V30 21577 O 2031.05 1.45142 1.29025 0
M  V30 21578 C 2028.18 2.85323 1.9801 0
M  V30 21579 C 2027.13 3.95751 1.62989 0
M  V30 21580 C 2026.46 4.47058 2.93332 0
M  V30 21581 C 2027.76 5.15234 0.856231 0
M  V30 21582 H 2029.45 2.98631 0.21442 0
M  V30 21583 H 2027 1.4364 0.101692 0
M  V30 21584 H 2028.95 3.29075 2.63226 0
M  V30 21585 H 2027.68 2.0514 2.54136 0
M  V30 21586 H 2026.34 3.52658 1.00141 0
M  V30 21587 H 2025.98 3.63663 3.47503 0
M  V30 21588 H 2025.68 5.21556 2.70652 0
M  V30 21589 H 2027.21 4.93497 3.59573 0
M  V30 21590 H 2028.62 5.55665 1.41102 0
M  V30 21591 H 2027.02 5.95663 0.728389 0
M  V30 21592 H 2028.09 4.84677 -0.147009 0
M  V30 21593 N 2029.43 -0.1002 1.57281 0
M  V30 21594 C 2030.66 -0.817121 1.89754 0
M  V30 21595 C 2031.07 -1.7305 0.764869 0
M  V30 21596 O 2030.41 -1.81669 -0.272384 0
M  V30 21597 C 2030.47 -1.68753 3.17432 0
M  V30 21598 C 2030.14 -0.9465 4.47091 0
M  V30 21599 C 2031.14 -0.278645 5.19153 0
M  V30 21600 C 2028.82 -0.922095 4.93764 0
M  V30 21601 C 2030.81 0.403703 6.3612 0
M  V30 21602 C 2028.5 -0.235958 6.10644 0
M  V30 21603 C 2029.5 0.425768 6.81672 0
M  V30 21604 O 2029.19 1.10091 7.96326 0
M  V30 21605 H 2028.92 -0.239163 0.632279 0
M  V30 21606 H 2031.47 -0.0834139 2.05231 0
M  V30 21607 H 2029.7 -2.46334 2.98088 0
M  V30 21608 H 2031.39 -2.28055 3.35776 0
M  V30 21609 H 2032.16 -0.288994 4.84138 0
M  V30 21610 H 2028.04 -1.4266 4.38371 0
M  V30 21611 H 2031.58 0.920777 6.91497 0
M  V30 21612 H 2027.48 -0.223438 6.45113 0
M  V30 21613 H 2028.25 1.00729 8.12278 0
M  V30 21614 N 2030.91 -1.53174 -0.370891 0
M  V30 21615 C 2032.16 -1.68764 -1.11189 0
M  V30 21616 C 2032.48 -0.439297 -1.89987 0
M  V30 21617 O 2031.75 0.546592 -1.8812 0
M  V30 21618 H 2030.33 -0.622136 -0.413467 0
M  V30 21619 H 2032.99 -1.90347 -0.418794 0
M  V30 21620 H 2032.09 -2.54633 -1.80468 0
M  V30 21621 N 2032.39 0.630389 -1.44443 0
M  V30 21622 C 2033.8 0.948649 -1.28346 0
M  V30 21623 C 2034 2.00298 -0.219776 0
M  V30 21624 O 2033.06 2.49406 0.394082 0
M  V30 21625 C 2034.37 1.41121 -2.65528 0
M  V30 21626 C 2035.92 1.52665 -2.73244 0
M  V30 21627 C 2036.4 2.02305 -4.10897 0
M  V30 21628 N 2037.89 2.09574 -4.13077 0
M  V30 21629 C 2038.62 2.49156 -5.16439 0
M  V30 21630 N 2038.12 2.87869 -6.30161 0
M  V30 21631 N 2039.91 2.49296 -5.03794 0
M  V30 21632 H 2032.06 -0.0668759 -2.12295 0
M  V30 21633 H 2034.32 0.032708 -0.947436 0
M  V30 21634 H 2034.03 0.710811 -3.44442 0
M  V30 21635 H 2033.9 2.38208 -2.92466 0
M  V30 21636 H 2036.29 2.21802 -1.94648 0
M  V30 21637 H 2036.37 0.539516 -2.50046 0
M  V30 21638 H 2036.02 1.33763 -4.89969 0
M  V30 21639 H 2035.95 3.01892 -4.31473 0
M  V30 21640 H 2038.44 1.82338 -3.31001 0
M  V30 21641 H 2038.75 3.16887 -7.04842 0
M  V30 21642 H 2037.1 2.85619 -6.33598 0
M  V30 21643 H 2040.29 2.18443 -4.14005 0
M  V30 21644 H 2040.46 2.79819 -5.8447 0
M  V30 21645 N 2033.87 1.31354 0.870861 0
M  V30 21646 C 2035.11 1.20988 1.62383 0
M  V30 21647 C 2035.44 -0.232177 1.93109 0
M  V30 21648 O 2034.7 -1.1807 1.56071 0
M  V30 21649 C 2034.99 1.99835 2.96312 0
M  V30 21650 C 2034.66 3.49342 2.85081 0
M  V30 21651 C 2033.32 3.90108 2.81725 0
M  V30 21652 C 2035.67 4.44485 2.72181 0
M  V30 21653 C 2033 5.24286 2.63327 0
M  V30 21654 C 2035.35 5.78787 2.5532 0
M  V30 21655 C 2034.02 6.18775 2.50347 0
M  V30 21656 H 2033.29 0.442726 0.594201 0
M  V30 21657 H 2035.94 1.62609 1.01146 0
M  V30 21658 H 2034.24 1.50892 3.61578 0
M  V30 21659 H 2035.94 1.89196 3.53562 0
M  V30 21660 H 2032.53 3.16954 2.8851 0
M  V30 21661 H 2036.71 4.13921 2.7383 0
M  V30 21662 H 2031.97 5.54344 2.57901 0
M  V30 21663 H 2036.14 6.52137 2.44315 0
M  V30 21664 H 2033.77 7.22689 2.3585 0
M  V30 21665 N 2035.34 -1.08505 1.143 0
M  V30 21666 C 2036.75 -1.62355 0.921836 0
M  V30 21667 C 2037.11 -1.88635 -0.539569 0
M  V30 21668 O 2036.23 -1.64307 -1.40827 0
M  V30 21669 C 2036.83 -2.94955 1.66694 0
M  V30 21670 C 2035.38 -3.45593 1.49139 0
M  V30 21671 C 2034.53 -2.19845 1.69008 0
M  V30 21672 H 2037.48 -0.917442 1.29494 0
M  V30 21673 H 2037.5 -3.63348 1.12954 0
M  V30 21674 H 2037.02 -2.75796 2.73053 0
M  V30 21675 H 2035.12 -3.69858 0.451226 0
M  V30 21676 H 2035.23 -4.2241 2.26068 0
M  V30 21677 H 2033.59 -2.28966 1.11565 0
M  V30 21678 H 2034.38 -2.03194 2.76707 0
M  V30 21679 N 2036.82 -0.937962 -1.26649 0
M  V30 21680 C 2037.73 -0.451023 -2.30224 0
M  V30 21681 C 2038.75 0.473402 -1.67436 0
M  V30 21682 O 2039.92 0.353715 -1.9827 0
M  V30 21683 C 2036.99 0.278943 -3.45576 0
M  V30 21684 C 2036.05 -0.681649 -4.23854 0
M  V30 21685 C 2035.28 0.0135756 -5.33698 0
M  V30 21686 O 2035.51 1.2311 -5.56956 0
M  V30 21687 O 2034.44 -0.663486 -5.98232 0
M  V30 21688 H 2038.27 -1.31129 -2.73932 0
M  V30 21689 H 2035.85 -0.703717 -1.31788 0
M  V30 21690 H 2037.73 0.690262 -4.15708 0
M  V30 21691 H 2036.41 1.11465 -3.03903 0
M  V30 21692 H 2035.31 -1.14285 -3.56216 0
M  V30 21693 H 2036.65 -1.48488 -4.69268 0
M  V30 21694 N 2038.3 1.40971 -0.704618 0
M  V30 21695 C 2039.55 2.00682 -0.238954 0
M  V30 21696 C 2039.87 1.56119 1.16842 0
M  V30 21697 O 2039.14 0.795777 1.79009 0
M  V30 21698 H 2037.72 0.742108 -0.0853541 0
M  V30 21699 H 2040.38 1.72467 -0.9078 0
M  V30 21700 H 2039.48 3.10986 -0.26345 0
M  V30 21701 N 2039.78 0.45001 1.51039 0
M  V30 21702 C 2041.03 -0.11219 2.02189 0
M  V30 21703 C 2041.35 -1.416 1.3334 0
M  V30 21704 O 2040.61 -1.90663 0.44113 0
M  V30 21705 C 2040.91 -0.365449 3.55527 0
M  V30 21706 C 2040.57 0.854084 4.42737 0
M  V30 21707 C 2039.24 1.1885 4.66292 0
M  V30 21708 C 2041.59 1.66705 4.93821 0
M  V30 21709 C 2038.92 2.33632 5.38176 0
M  V30 21710 C 2041.27 2.80597 5.66964 0
M  V30 21711 C 2039.93 3.14478 5.88778 0
M  V30 21712 H 2039.2 -0.0410534 0.739862 0
M  V30 21713 H 2041.85 0.599793 1.81865 0
M  V30 21714 H 2040.15 -1.15946 3.74251 0
M  V30 21715 H 2041.85 -0.81407 3.9265 0
M  V30 21716 H 2038.44 0.583517 4.24609 0
M  V30 21717 H 2042.62 1.42189 4.75496 0
M  V30 21718 H 2037.88 2.60181 5.53277 0
M  V30 21719 H 2042.05 3.43952 6.05533 0
M  V30 21720 H 2039.68 4.0353 6.44257 0
M  V30 21721 N 2041.26 -1.56548 0.18182 0
M  V30 21722 C 2042.51 -1.96371 -0.460566 0
M  V30 21723 C 2042.82 -1.07099 -1.63674 0
M  V30 21724 O 2044.02 -1.36648 -2.34605 0
M  V30 21725 C 2042.48 -3.49207 -0.870777 0
M  V30 21726 C 2042.09 -4.47122 0.280378 0
M  V30 21727 C 2043.83 -3.97828 -1.48099 0
M  V30 21728 C 2041.74 -5.9121 -0.15005 0
M  V30 21729 H 2040.67 -0.73321 -0.175838 0
M  V30 21730 H 2043.32 -1.81477 0.271724 0
M  V30 21731 H 2041.7 -3.59557 -1.65935 0
M  V30 21732 H 2042.88 -4.48494 1.05781 0
M  V30 21733 H 2041.19 -4.08619 0.801227 0
M  V30 21734 H 2043.79 -5.02944 -1.81525 0
M  V30 21735 H 2044.13 -3.41369 -2.38271 0
M  V30 21736 H 2044.66 -3.90538 -0.75665 0
M  V30 21737 H 2041.4 -6.51565 0.717155 0
M  V30 21738 H 2040.92 -5.93121 -0.892621 0
M  V30 21739 H 2042.6 -6.44301 -0.590372 0
M  V30 21740 N 2042.73 0.0918577 -1.57332 0
M  V30 21741 C 2043.98 0.7908 -1.87398 0
M  V30 21742 C 2044.34 1.76186 -0.773057 0
M  V30 21743 O 2043.63 1.90278 0.224654 0
M  V30 21744 C 2043.82 1.55559 -3.2177 0
M  V30 21745 C 2043.65 0.660097 -4.44829 0
M  V30 21746 C 2042.42 0.304604 -5.04381 0
M  V30 21747 C 2044.62 -0.0343634 -5.14289 0
M  V30 21748 N 2042.6 -0.598714 -6.10974 0
M  V30 21749 C 2043.97 -0.795626 -6.14874 0
M  V30 21750 C 2046.03 -0.107944 -4.97783 0
M  V30 21751 C 2044.73 -1.6236 -7.00737 0
M  V30 21752 C 2046.76 -0.922829 -5.84156 0
M  V30 21753 C 2046.12 -1.6722 -6.84264 0
M  V30 21754 H 2042.22 0.26544 -0.735572 0
M  V30 21755 H 2044.8 0.0531823 -1.94627 0
M  V30 21756 H 2042.97 2.26406 -3.15586 0
M  V30 21757 H 2044.7 2.20198 -3.39551 0
M  V30 21758 H 2041.46 0.652989 -4.69077 0
M  V30 21759 H 2041.88 -1.04302 -6.68917 0
M  V30 21760 H 2046.53 0.457075 -4.20322 0
M  V30 21761 H 2044.24 -2.19967 -7.77586 0
M  V30 21762 H 2047.83 -0.982477 -5.73445 0
M  V30 21763 H 2046.71 -2.2926 -7.4994 0
M  V30 21764 N 2044.21 1.53368 0.362763 0
M  V30 21765 C 2045.44 1.73906 1.13011 0
M  V30 21766 C 2045.86 0.468163 1.82181 0
M  V30 21767 O 2045.22 -0.577989 1.7184 0
M  V30 21768 C 2045.27 2.9068 2.13395 0
M  V30 21769 O 2044.37 2.59486 3.20532 0
M  V30 21770 H 2043.71 0.577461 0.327772 0
M  V30 21771 H 2046.24 2.00263 0.419026 0
M  V30 21772 H 2046.25 3.16926 2.56948 0
M  V30 21773 H 2044.93 3.82865 1.62442 0
M  V30 21774 H 2043.51 2.44067 2.81932 0
M  V30 21775 N 2045.69 -0.62272 1.44776 0
M  V30 21776 C 2046.65 -1.71618 1.5192 0
M  V30 21777 C 2047.65 -1.55738 0.400303 0
M  V30 21778 O 2048.84 -1.6108 0.66324 0
M  V30 21779 C 2045.98 -3.10771 1.40122 0
M  V30 21780 H 2047.17 -1.66655 2.49332 0
M  V30 21781 H 2044.72 -0.837126 1.31992 0
M  V30 21782 H 2045.46 -3.21323 0.438374 0
M  V30 21783 H 2045.24 -3.23705 2.21264 0
M  V30 21784 H 2046.73 -3.90448 1.48122 0
M  V30 21785 N 2047.17 -1.31814 -0.863883 0
M  V30 21786 C 2048.13 -1.19926 -1.95321 0
M  V30 21787 C 2049.13 -0.124731 -1.60316 0
M  V30 21788 O 2050.32 -0.374454 -1.70128 0
M  V30 21789 C 2047.45 -0.842234 -3.30332 0
M  V30 21790 H 2048.65 -2.16727 -2.07291 0
M  V30 21791 H 2046.2 -1.15512 -1.05293 0
M  V30 21792 H 2046.93 0.124348 -3.24062 0
M  V30 21793 H 2046.72 -1.61902 -3.57114 0
M  V30 21794 H 2048.21 -0.783125 -4.10191 0
M  V30 21795 N 2048.65 1.07897 -1.14873 0
M  V30 21796 C 2049.87 1.84657 -0.944281 0
M  V30 21797 C 2050.3 1.8127 0.50226 0
M  V30 21798 O 2049.65 1.20159 1.35763 0
M  V30 21799 C 2049.7 3.29889 -1.45622 0
M  V30 21800 O 2048.81 4.07217 -0.651748 0
M  V30 21801 H 2048.15 0.571994 -0.337222 0
M  V30 21802 H 2050.68 1.36151 -1.52723 0
M  V30 21803 H 2050.69 3.80727 -1.46665 0
M  V30 21804 H 2049.36 3.31668 -2.50936 0
M  V30 21805 H 2047.94 3.66069 -0.710491 0
M  V30 21806 N 2050.12 0.944665 1.2615 0
M  V30 21807 C 2051.09 0.461547 2.24505 0
M  V30 21808 C 2052.09 -0.429277 1.54964 0
M  V30 21809 O 2053.28 -0.227965 1.72702 0
M  V30 21810 C 2050.41 -0.334363 3.39256 0
M  V30 21811 H 2051.6 1.33075 2.68758 0
M  V30 21812 H 2049.16 0.726968 1.38365 0
M  V30 21813 H 2049.89 -1.22167 3.00409 0
M  V30 21814 H 2049.68 0.304588 3.90915 0
M  V30 21815 H 2051.17 -0.662181 4.12317 0
M  V30 21816 N 2051.6 -1.40596 0.712085 0
M  V30 21817 C 2052.57 -2.29105 0.0660369 0
M  V30 21818 C 2053.57 -1.45196 -0.690992 0
M  V30 21819 O 2054.76 -1.66151 -0.523417 0
M  V30 21820 C 2051.89 -3.2835 -0.916461 0
M  V30 21821 H 2053.08 -2.87734 0.845539 0
M  V30 21822 H 2050.63 -1.48859 0.476533 0
M  V30 21823 H 2051.37 -2.74733 -1.72314 0
M  V30 21824 H 2051.15 -3.90288 -0.376557 0
M  V30 21825 H 2052.64 -3.94634 -1.36578 0
M  V30 21826 N 2053.08 -0.458013 -1.50798 0
M  V30 21827 C 2054.31 0.0993936 -2.06361 0
M  V30 21828 C 2054.72 1.35212 -1.32341 0
M  V30 21829 O 2054.06 1.79677 -0.382345 0
M  V30 21830 C 2054.12 0.46649 -3.56461 0
M  V30 21831 C 2053.79 -0.682355 -4.51877 0
M  V30 21832 C 2054.78 -1.56059 -4.95925 0
M  V30 21833 C 2052.47 -0.868966 -4.94726 0
M  V30 21834 C 2054.46 -2.60996 -5.81515 0
M  V30 21835 C 2052.15 -1.92158 -5.80102 0
M  V30 21836 C 2053.15 -2.79044 -6.23397 0
M  V30 21837 O 2052.84 -3.82495 -7.07073 0
M  V30 21838 H 2052.57 0.00211436 -0.675997 0
M  V30 21839 H 2055.12 -0.64197 -1.9511 0
M  V30 21840 H 2053.35 1.26086 -3.65567 0
M  V30 21841 H 2055.04 0.957452 -3.94446 0
M  V30 21842 H 2055.81 -1.42805 -4.635 0
M  V30 21843 H 2051.69 -0.202186 -4.60556 0
M  V30 21844 H 2055.23 -3.28845 -6.15229 0
M  V30 21845 H 2051.13 -2.05424 -6.11941 0
M  V30 21846 H 2051.9 -3.79325 -7.25296 0
M  V30 21847 N 2054.56 1.56449 -0.190119 0
M  V30 21848 C 2055.49 2.16074 0.764507 0
M  V30 21849 C 2056.5 1.12124 1.18034 0
M  V30 21850 O 2057.69 1.39237 1.11693 0
M  V30 21851 C 2054.79 2.70392 2.04307 0
M  V30 21852 C 2053.97 3.99194 1.78782 0
M  V30 21853 C 2053.03 4.38388 2.91037 0
M  V30 21854 O 2052.05 5.05906 2.60859 0
M  V30 21855 N 2053.25 4.01483 4.19275 0
M  V30 21856 H 2056.02 2.98616 0.254652 0
M  V30 21857 H 2053.58 1.61898 -0.00797932 0
M  V30 21858 H 2055.57 2.936 2.78534 0
M  V30 21859 H 2054.14 1.92333 2.46428 0
M  V30 21860 H 2053.36 3.84169 0.883602 0
M  V30 21861 H 2054.65 4.83279 1.5912 0
M  V30 21862 H 2054.05 3.47164 4.46647 0
M  V30 21863 H 2052.6 4.29652 4.90145 0
M  V30 21864 N 2056.04 -0.0835127 1.57379 0
M  V30 21865 C 2057.29 -0.783627 1.85855 0
M  V30 21866 C 2057.6 -1.79328 0.781081 0
M  V30 21867 O 2058.81 -2.54212 0.953327 0
M  V30 21868 C 2057.26 -1.44454 3.29638 0
M  V30 21869 C 2056.87 -0.474058 4.45485 0
M  V30 21870 C 2058.61 -2.1277 3.67327 0
M  V30 21871 C 2056.52 -1.14022 5.80304 0
M  V30 21872 H 2055.45 -0.296407 0.693295 0
M  V30 21873 H 2058.1 -0.0367253 1.83463 0
M  V30 21874 H 2056.48 -2.2393 3.26606 0
M  V30 21875 H 2057.66 0.290043 4.59886 0
M  V30 21876 H 2055.97 0.104026 4.1627 0
M  V30 21877 H 2058.57 -2.63365 4.65342 0
M  V30 21878 H 2058.91 -2.92187 2.96534 0
M  V30 21879 H 2059.45 -1.4014 3.72298 0
M  V30 21880 H 2056.18 -0.386619 6.54359 0
M  V30 21881 H 2055.7 -1.87547 5.69725 0
M  V30 21882 H 2057.38 -1.66341 6.25252 0
M  V30 21883 N 2057.52 -1.53558 -0.354624 0
M  V30 21884 C 2058.43 -1.83745 -1.4586 0
M  V30 21885 C 2059.44 -0.72668 -1.58099 0
M  V30 21886 O 2060.62 -1.01786 -1.73786 0
M  V30 21887 C 2057.68 -2.03089 -2.80991 0
M  V30 21888 C 2056.74 -3.26971 -2.78187 0
M  V30 21889 C 2055.98 -3.45383 -4.06874 0
M  V30 21890 O 2056.2 -2.6786 -5.03594 0
M  V30 21891 O 2055.13 -4.38776 -4.12019 0
M  V30 21892 H 2058.96 -2.77557 -1.23271 0
M  V30 21893 H 2056.54 -1.39075 -0.545763 0
M  V30 21894 H 2058.43 -2.17321 -3.6104 0
M  V30 21895 H 2057.1 -1.12466 -3.03534 0
M  V30 21896 H 2056.01 -3.18153 -1.96798 0
M  V30 21897 H 2057.34 -4.17552 -2.60598 0
M  V30 21898 N 2058.99 0.615033 -1.45104 0
M  V30 21899 C 2060.24 1.37152 -1.48438 0
M  V30 21900 C 2060.56 1.94602 -0.124508 0
M  V30 21901 O 2059.83 1.76728 0.845222 0
M  V30 21902 H 2058.41 0.509131 -0.546621 0
M  V30 21903 H 2061.07 0.722747 -1.81004 0
M  V30 21904 H 2060.17 2.19472 -2.21898 0
M  V30 21905 N 2060.47 1.3227 0.85688 0
M  V30 21906 C 2061.43 1.2096 1.94682 0
M  V30 21907 C 2062.43 0.133231 1.60247 0
M  V30 21908 O 2063.62 0.383471 1.69927 0
M  V30 21909 C 2060.76 0.85974 3.29881 0
M  V30 21910 H 2061.95 2.17823 2.06139 0
M  V30 21911 H 2059.5 1.16069 1.04679 0
M  V30 21912 H 2060.24 -0.107161 3.24123 0
M  V30 21913 H 2060.02 1.63794 3.5625 0
M  V30 21914 H 2061.51 0.804868 4.0977 0
M  V30 21915 N 2061.95 -1.07287 1.15444 0
M  V30 21916 C 2063.2 -1.8032 0.941074 0
M  V30 21917 C 2063.55 -1.85066 -0.526147 0
M  V30 21918 O 2062.84 -1.32386 -1.38508 0
M  V30 21919 C 2063.04 -3.24863 1.48992 0
M  V30 21920 C 2062.87 -3.34202 3.00897 0
M  V30 21921 C 2061.64 -3.44724 3.6945 0
M  V30 21922 C 2063.83 -3.24901 3.98677 0
M  V30 21923 N 2061.82 -3.42972 5.0916 0
M  V30 21924 C 2063.19 -3.30275 5.24708 0
M  V30 21925 C 2065.24 -3.08716 3.90639 0
M  V30 21926 C 2063.95 -3.21129 6.43637 0
M  V30 21927 C 2065.97 -3.00904 5.09127 0
M  V30 21928 C 2065.33 -3.06891 6.34033 0
M  V30 21929 H 2061.43 -0.673126 0.398027 0
M  V30 21930 H 2064.02 -1.28058 1.4666 0
M  V30 21931 H 2062.19 -3.75544 0.991016 0
M  V30 21932 H 2063.92 -3.86021 1.21531 0
M  V30 21933 H 2060.67 -3.49097 3.20044 0
M  V30 21934 H 2061.1 -3.45622 5.82129 0
M  V30 21935 H 2065.74 -3.02941 2.94934 0
M  V30 21936 H 2063.46 -3.25662 7.39574 0
M  V30 21937 H 2067.04 -2.89484 5.04669 0
M  V30 21938 H 2065.92 -3.0089 7.24179 0
M  V30 21939 N 2063.43 -0.951342 -1.25647 0
M  V30 21940 C 2064.84 -0.655246 -1.45529 0
M  V30 21941 C 2065.04 0.788272 -1.85441 0
M  V30 21942 O 2064.1 1.5639 -1.98238 0
M  V30 21943 C 2065.41 -1.62536 -2.52987 0
M  V30 21944 C 2066.96 -1.63618 -2.6683 0
M  V30 21945 C 2067.44 -2.59385 -3.77469 0
M  V30 21946 N 2068.93 -2.57731 -3.84876 0
M  V30 21947 C 2069.66 -3.28512 -4.69966 0
M  V30 21948 N 2069.16 -4.08754 -5.59367 0
M  V30 21949 N 2070.95 -3.17415 -4.63901 0
M  V30 21950 H 2063.1 -1.88424 -0.980317 0
M  V30 21951 H 2065.36 -0.8103 -0.492055 0
M  V30 21952 H 2065.07 -2.65628 -2.3051 0
M  V30 21953 H 2064.94 -1.38531 -3.5084 0
M  V30 21954 H 2067.33 -0.61246 -2.88674 0
M  V30 21955 H 2067.41 -1.91681 -1.69387 0
M  V30 21956 H 2067.06 -3.61882 -3.56376 0
M  V30 21957 H 2066.99 -2.28608 -4.7439 0
M  V30 21958 H 2069.48 -1.99473 -3.20966 0
M  V30 21959 H 2069.79 -4.5969 -6.21212 0
M  V30 21960 H 2068.14 -4.12853 -5.59086 0
M  V30 21961 H 2071.33 -2.54201 -3.93064 0
M  V30 21962 H 2071.5 -3.72843 -5.29992 0
M  V30 21963 N 2064.91 1.40216 -0.719531 0
M  V30 21964 C 2065.87 2.29067 -0.078186 0
M  V30 21965 C 2066.87 1.45561 0.683282 0
M  V30 21966 O 2068.06 1.66426 0.514598 0
M  V30 21967 C 2065.19 3.28832 0.899035 0
M  V30 21968 H 2066.38 2.87281 -0.860786 0
M  V30 21969 H 2063.94 1.48604 -0.48442 0
M  V30 21970 H 2064.67 2.75643 1.70855 0
M  V30 21971 H 2064.46 3.90482 0.355853 0
M  V30 21972 H 2065.95 3.95353 1.34483 0
M  V30 21973 N 2066.38 0.466004 1.50553 0
M  V30 21974 C 2067.66 -0.152071 1.95008 0
M  V30 21975 C 2068.04 -1.57451 1.40614 0
M  V30 21976 O 2067.39 -2.20345 0.605014 0
M  V30 21977 C 2067.6 -0.100584 3.48855 0
M  V30 21978 C 2068.95 -0.291998 4.23595 0
M  V30 21979 O 2069.97 -0.177401 3.55758 0
M  V30 21980 O 2068.83 -0.52288 5.43993 0
M  V30 21981 H 2065.92 -0.114439 0.819044 0
M  V30 21982 H 2068.47 0.526042 1.61341 0
M  V30 21983 H 2067.24 0.892745 3.8098 0
M  V30 21984 H 2066.86 -0.820375 3.89044 0
M  V30 21985 N 2067.86 -1.56346 0.198413 0
M  V30 21986 C 2069.11 -1.97283 -0.438612 0
M  V30 21987 C 2069.43 -1.08657 -1.61922 0
M  V30 21988 O 2068.7 -0.158561 -1.95257 0
M  V30 21989 H 2067.28 -0.728541 -0.165035 0
M  V30 21990 H 2069.94 -1.92791 0.285919 0
M  V30 21991 H 2069.04 -3.02183 -0.780516 0
M  V30 21992 N 2069.34 0.0751653 -1.57421 0
M  V30 21993 C 2070.29 1.08969 -2.03456 0
M  V30 21994 C 2071.26 1.38655 -0.914549 0
M  V30 21995 O 2072.44 1.4978 -1.18197 0
M  V30 21996 C 2069.58 2.39917 -2.4806 0
M  V30 21997 C 2068.7 2.1679 -3.73666 0
M  V30 21998 C 2067.83 3.41278 -4.07066 0
M  V30 21999 C 2066.87 3.13501 -5.25722 0
M  V30 22000 N 2066.01 4.30309 -5.54778 0
M  V30 22001 H 2070.85 0.690138 -2.89898 0
M  V30 22002 H 2068.38 0.32921 -1.43369 0
M  V30 22003 H 2070.34 3.16366 -2.71972 0
M  V30 22004 H 2068.97 2.77681 -1.646 0
M  V30 22005 H 2068.02 1.3105 -3.57114 0
M  V30 22006 H 2069.34 1.9227 -4.60254 0
M  V30 22007 H 2068.49 4.26124 -4.31861 0
M  V30 22008 H 2067.23 3.68871 -3.19039 0
M  V30 22009 H 2066.23 2.2705 -5.00728 0
M  V30 22010 H 2067.46 2.87234 -6.15365 0
M  V30 22011 H 2065.4 4.5794 -4.69709 0
M  V30 22012 H 2065.32 4.09051 -6.35778 0
M  V30 22013 H 2066.59 5.16162 -5.84121 0
M  V30 22014 N 2070.82 1.53744 0.346476 0
M  V30 22015 C 2072.07 1.70512 1.0849 0
M  V30 22016 C 2072.39 0.469467 1.89264 0
M  V30 22017 O 2071.66 -0.516594 1.88966 0
M  V30 22018 H 2070.24 0.628636 0.403517 0
M  V30 22019 H 2072.9 1.9099 0.388459 0
M  V30 22020 H 2072 2.57472 1.76394 0
M  V30 22021 N 2072.3 -0.607329 1.45428 0
M  V30 22022 C 2073.23 -1.72873 1.56962 0
M  V30 22023 C 2074.21 -1.64804 0.421159 0
M  V30 22024 O 2075.39 -1.83199 0.64433 0
M  V30 22025 C 2072.52 -3.11476 1.53622 0
M  V30 22026 C 2071.48 -3.34357 2.67188 0
M  V30 22027 C 2070.8 -4.73236 2.48902 0
M  V30 22028 C 2072.1 -3.24586 4.09196 0
M  V30 22029 H 2073.8 -1.63477 2.5083 0
M  V30 22030 H 2071.34 -0.785054 1.20718 0
M  V30 22031 H 2073.3 -3.89725 1.60288 0
M  V30 22032 H 2072.02 -3.21714 0.562838 0
M  V30 22033 H 2070.68 -2.58499 2.5995 0
M  V30 22034 H 2070.33 -4.80206 1.49702 0
M  V30 22035 H 2070.03 -4.895 3.25059 0
M  V30 22036 H 2071.55 -5.53684 2.57422 0
M  V30 22037 H 2072.96 -3.92709 4.17676 0
M  V30 22038 H 2071.36 -3.52381 4.85745 0
M  V30 22039 H 2072.43 -2.22022 4.31085 0
M  V30 22040 N 2073.77 -1.32722 -0.849853 0
M  V30 22041 C 2075 -1.2671 -1.64193 0
M  V30 22042 C 2075.42 0.161092 -1.87409 0
M  V30 22043 O 2074.78 1.11408 -1.43031 0
M  V30 22044 C 2074.83 -2.03686 -2.97564 0
M  V30 22045 O 2073.93 -1.38794 -3.88343 0
M  V30 22046 H 2073.28 -0.436459 -0.5004 0
M  V30 22047 H 2075.81 -1.75113 -1.05813 0
M  V30 22048 H 2075.82 -2.1404 -3.47349 0
M  V30 22049 H 2074.49 -3.07537 -2.79989 0
M  V30 22050 H 2073.07 -1.37018 -3.46815 0
M  V30 22051 N 2075.25 1.06673 -1.16011 0
M  V30 22052 C 2076.5 1.78785 -0.933751 0
M  V30 22053 C 2076.81 1.87999 0.539969 0
M  V30 22054 O 2078.02 2.56701 0.884117 0
M  V30 22055 C 2076.48 3.21313 -1.6213 0
M  V30 22056 C 2076.08 3.20277 -3.13252 0
M  V30 22057 C 2077.83 3.97985 -1.47675 0
M  V30 22058 C 2075.74 4.57501 -3.74762 0
M  V30 22059 H 2074.67 0.670074 -0.345711 0
M  V30 22060 H 2077.32 1.19679 -1.39101 0
M  V30 22061 H 2075.7 3.80653 -1.09174 0
M  V30 22062 H 2076.87 2.70541 -3.7302 0
M  V30 22063 H 2075.19 2.57103 -3.27547 0
M  V30 22064 H 2077.78 4.99417 -1.91016 0
M  V30 22065 H 2078.13 4.14123 -0.425173 0
M  V30 22066 H 2078.66 3.45157 -1.97766 0
M  V30 22067 H 2075.4 4.46568 -4.79851 0
M  V30 22068 H 2074.92 5.07446 -3.19778 0
M  V30 22069 H 2076.6 5.26463 -3.76093 0
M  V30 22070 N 2076.73 0.957992 1.25141 0
M  V30 22071 C 2077.98 0.625071 1.93557 0
M  V30 22072 C 2078.33 -0.829302 1.7361 0
M  V30 22073 O 2077.62 -1.58763 1.07261 0
M  V30 22074 C 2077.82 0.923523 3.45262 0
M  V30 22075 C 2077.65 2.40536 3.79964 0
M  V30 22076 C 2076.42 3.0635 4.01843 0
M  V30 22077 C 2078.62 3.38489 3.87207 0
M  V30 22078 N 2076.6 4.44371 4.23565 0
M  V30 22079 C 2077.97 4.6183 4.13658 0
M  V30 22080 C 2080.02 3.33281 3.69903 0
M  V30 22081 C 2078.73 5.80608 4.24603 0
M  V30 22082 C 2080.75 4.514 3.82088 0
M  V30 22083 C 2080.11 5.73529 4.08954 0
M  V30 22084 H 2076.21 0.279402 0.730383 0
M  V30 22085 H 2078.8 1.23086 1.50857 0
M  V30 22086 H 2076.97 0.346636 3.8685 0
M  V30 22087 H 2078.7 0.550165 4.00943 0
M  V30 22088 H 2075.46 2.5691 3.97862 0
M  V30 22089 H 2075.88 5.15861 4.38425 0
M  V30 22090 H 2080.52 2.39904 3.48146 0
M  V30 22091 H 2078.24 6.74422 4.45174 0
M  V30 22092 H 2081.83 4.48922 3.70082 0
M  V30 22093 H 2080.71 6.63403 4.1817 0
M  V30 22094 N 2078.21 -1.39832 0.726957 0
M  V30 22095 C 2079.49 -1.94595 0.198042 0
M  V30 22096 C 2079.87 -1.66433 -1.29858 0
M  V30 22097 O 2079.21 -0.98817 -2.06028 0
M  V30 22098 C 2079.42 -3.45059 0.522997 0
M  V30 22099 C 2080.77 -4.22014 0.467902 0
M  V30 22100 O 2081.8 -3.53221 0.459717 0
M  V30 22101 O 2080.65 -5.44599 0.455375 0
M  V30 22102 H 2077.75 -0.826324 0.0334203 0
M  V30 22103 H 2080.29 -1.49377 0.805266 0
M  V30 22104 H 2079.07 -3.58959 1.55769 0
M  V30 22105 H 2078.69 -3.97438 -0.113609 0
M  V30 22106 N 2079.69 -0.473982 -1.50304 0
M  V30 22107 C 2080.91 0.0776132 -2.06754 0
M  V30 22108 C 2081.33 1.33251 -1.33752 0
M  V30 22109 O 2080.69 1.77889 -0.407659 0
M  V30 22110 C 2080.74 0.362773 -3.59675 0
M  V30 22111 O 2080.46 -0.842352 -4.29926 0
M  V30 22112 C 2081.96 0.961013 -4.32758 0
M  V30 22113 H 2079.18 -0.00837304 -0.670948 0
M  V30 22114 H 2081.72 -0.663594 -1.93434 0
M  V30 22115 H 2079.88 1.05392 -3.72789 0
M  V30 22116 H 2080.29 -0.588708 -5.21186 0
M  V30 22117 H 2081.77 1.11029 -5.40719 0
M  V30 22118 H 2082.24 1.95187 -3.93445 0
M  V30 22119 H 2082.85 0.308162 -4.24182 0
M  V30 22120 N 2081.16 1.56239 -0.206702 0
M  V30 22121 C 2082.41 1.97904 0.428991 0
M  V30 22122 C 2082.74 1.09394 1.6082 0
M  V30 22123 O 2081.99 0.135573 1.9523 0
M  V30 22124 C 2082.29 3.45345 0.920411 0
M  V30 22125 C 2081.96 4.50661 -0.146675 0
M  V30 22126 C 2080.62 4.79185 -0.439852 0
M  V30 22127 C 2082.97 5.13903 -0.869114 0
M  V30 22128 C 2080.3 5.68237 -1.46024 0
M  V30 22129 C 2082.65 6.04058 -1.87874 0
M  V30 22130 C 2081.32 6.30933 -2.17899 0
M  V30 22131 H 2080.59 0.724181 0.156979 0
M  V30 22132 H 2083.23 1.89038 -0.306106 0
M  V30 22133 H 2081.54 3.5134 1.734 0
M  V30 22134 H 2083.24 3.74945 1.42187 0
M  V30 22135 H 2079.83 4.28501 0.0919915 0
M  V30 22136 H 2084.01 4.91947 -0.655848 0
M  V30 22137 H 2079.27 5.87329 -1.69866 0
M  V30 22138 H 2083.44 6.52117 -2.44369 0
M  V30 22139 H 2081.07 6.99735 -2.9711 0
M  V30 22140 N 2082.64 -0.0668159 1.57458 0
M  V30 22141 C 2083.87 -0.781616 1.92108 0
M  V30 22142 C 2084.29 -1.70072 0.803553 0
M  V30 22143 O 2083.65 -1.7966 -0.243316 0
M  V30 22144 C 2083.7 -1.54705 3.25728 0
M  V30 22145 O 2082.8 -2.65804 3.15312 0
M  V30 22146 H 2082.14 -0.212907 0.628941 0
M  V30 22147 H 2084.67 -0.0335704 2.04572 0
M  V30 22148 H 2084.68 -1.92522 3.59721 0
M  V30 22149 H 2083.36 -0.872713 4.06641 0
M  V30 22150 H 2081.94 -2.30807 2.92886 0
M  V30 22151 N 2084.12 -1.53926 -0.338317 0
M  V30 22152 C 2085.07 -1.78661 -1.41648 0
M  V30 22153 C 2086.06 -0.642018 -1.47536 0
M  V30 22154 O 2087.25 -0.901572 -1.52318 0
M  V30 22155 C 2084.38 -2.0043 -2.78716 0
M  V30 22156 C 2083.46 -3.2097 -2.77198 0
M  V30 22157 N 2083.85 -4.42332 -2.45308 0
M  V30 22158 C 2082.15 -3.22245 -3.08341 0
M  V30 22159 C 2082.85 -5.24206 -2.52156 0
M  V30 22160 N 2081.83 -4.61043 -2.87994 0
M  V30 22161 H 2085.63 -2.70083 -1.15897 0
M  V30 22162 H 2083.14 -1.52921 -0.546712 0
M  V30 22163 H 2085.14 -2.16287 -3.56407 0
M  V30 22164 H 2083.8 -1.10254 -3.05408 0
M  V30 22165 H 2084.81 -4.69591 -2.18414 0
M  V30 22166 H 2081.49 -2.42053 -3.40171 0
M  V30 22167 H 2082.88 -6.31083 -2.30615 0
M  V30 22168 N 2085.6 0.599608 -1.45748 0
M  V30 22169 C 2086.83 1.38483 -1.53721 0
M  V30 22170 C 2087.24 1.8801 -0.172512 0
M  V30 22171 O 2086.6 1.6267 0.82733 0
M  V30 22172 C 2086.65 2.5839 -2.52818 0
M  V30 22173 O 2086.37 2.10918 -3.83986 0
M  V30 22174 C 2087.87 3.51153 -2.70567 0
M  V30 22175 H 2085.09 0.423637 -0.520358 0
M  V30 22176 H 2087.64 0.730527 -1.91007 0
M  V30 22177 H 2085.79 3.19844 -2.18583 0
M  V30 22178 H 2086.21 2.88883 -4.37775 0
M  V30 22179 H 2087.68 4.31811 -3.43865 0
M  V30 22180 H 2088.16 4.02008 -1.7688 0
M  V30 22181 H 2088.76 2.95546 -3.05831 0
M  V30 22182 N 2087.08 1.33171 0.842803 0
M  V30 22183 C 2088.49 1.21918 1.41397 0
M  V30 22184 C 2088.84 -0.163526 1.95517 0
M  V30 22185 O 2087.96 -1.06291 1.88497 0
M  V30 22186 C 2088.56 2.20727 2.57031 0
M  V30 22187 C 2087.12 2.13325 3.10112 0
M  V30 22188 C 2086.27 2.08432 1.82897 0
M  V30 22189 H 2089.22 1.44827 0.648912 0
M  V30 22190 H 2089.24 1.81271 3.34546 0
M  V30 22191 H 2088.75 3.21352 2.1761 0
M  V30 22192 H 2086.85 1.15989 3.54087 0
M  V30 22193 H 2086.96 3.03691 3.70552 0
M  V30 22194 H 2085.33 1.53848 2.02985 0
M  V30 22195 H 2086.11 3.10858 1.45678 0
M  V30 22196 N 2088.56 -1.06056 1.16576 0
M  V30 22197 C 2089.49 -2.15554 0.897693 0
M  V30 22198 C 2090.47 -1.69375 -0.156927 0
M  V30 22199 O 2091.65 -1.94198 -0.00851939 0
M  V30 22200 C 2088.78 -3.44982 0.40063 0
M  V30 22201 C 2087.74 -4.04682 1.39343 0
M  V30 22202 C 2087.06 -5.29347 0.754677 0
M  V30 22203 C 2088.36 -4.43182 2.76381 0
M  V30 22204 H 2090.06 -2.38236 1.81339 0
M  V30 22205 H 2087.6 -1.14495 0.873316 0
M  V30 22206 H 2089.55 -4.20922 0.200566 0
M  V30 22207 H 2088.28 -3.21926 -0.550576 0
M  V30 22208 H 2086.94 -3.308 1.58009 0
M  V30 22209 H 2086.59 -5.0259 -0.203091 0
M  V30 22210 H 2086.29 -5.7025 1.41735 0
M  V30 22211 H 2087.81 -6.07983 0.564687 0
M  V30 22212 H 2089.22 -5.10195 2.61485 0
M  V30 22213 H 2087.62 -4.95076 3.39146 0
M  V30 22214 H 2088.69 -3.53931 3.31453 0
M  V30 22215 N 2090.03 -0.964615 -1.24631 0
M  V30 22216 C 2091.45 -0.670645 -1.44826 0
M  V30 22217 C 2091.65 0.768559 -1.86267 0
M  V30 22218 O 2090.71 1.54279 -1.99886 0
M  V30 22219 C 2092.02 -1.6521 -2.51249 0
M  V30 22220 C 2093.57 -1.66439 -2.65079 0
M  V30 22221 C 2094.04 -2.63374 -3.74697 0
M  V30 22222 N 2095.53 -2.61798 -3.8212 0
M  V30 22223 C 2096.27 -3.33478 -4.66455 0
M  V30 22224 N 2095.76 -4.14664 -5.55 0
M  V30 22225 N 2097.56 -3.22317 -4.60508 0
M  V30 22226 H 2089.71 -1.89453 -0.960277 0
M  V30 22227 H 2091.97 -0.815473 -0.483433 0
M  V30 22228 H 2091.68 -2.68058 -2.2768 0
M  V30 22229 H 2091.55 -1.42244 -3.49351 0
M  V30 22230 H 2093.94 -0.643043 -2.88009 0
M  V30 22231 H 2094.02 -1.93467 -1.67345 0
M  V30 22232 H 2093.66 -3.65641 -3.52518 0
M  V30 22233 H 2093.59 -2.33627 -4.71939 0
M  V30 22234 H 2096.08 -2.02866 -3.18832 0
M  V30 22235 H 2096.4 -4.66253 -6.16302 0
M  V30 22236 H 2094.74 -4.18759 -5.54676 0
M  V30 22237 H 2097.93 -2.58355 -3.90346 0
M  V30 22238 H 2098.11 -3.78443 -5.26008 0
M  V30 22239 N 2091.51 1.39445 -0.734362 0
M  V30 22240 C 2092.76 2.00824 -0.282443 0
M  V30 22241 C 2093.09 1.58137 1.12722 0
M  V30 22242 O 2092.37 0.809969 1.76833 0
M  V30 22243 C 2092.65 3.58051 -0.38359 0
M  V30 22244 C 2092.5 4.10758 -1.83298 0
M  V30 22245 C 2093.82 4.39476 0.234349 0
M  V30 22246 H 2090.94 0.729611 -0.104103 0
M  V30 22247 H 2093.58 1.65661 -0.930397 0
M  V30 22248 H 2091.73 3.88136 0.168068 0
M  V30 22249 H 2093.4 3.91395 -2.44147 0
M  V30 22250 H 2091.65 3.64342 -2.35451 0
M  V30 22251 H 2092.32 5.19897 -1.85503 0
M  V30 22252 H 2094.79 4.15431 -0.235909 0
M  V30 22253 H 2093.67 5.48738 0.133228 0
M  V30 22254 H 2093.93 4.21924 1.32032 0
M  V30 22255 N 2092.99 0.481946 1.5005 0
M  V30 22256 C 2093.9 -0.311606 2.32521 0
M  V30 22257 C 2094.92 -0.985661 1.4339 0
M  V30 22258 O 2096.09 -0.971246 1.76433 0
M  V30 22259 C 2093.16 -1.37313 3.18349 0
M  V30 22260 C 2092.22 -0.714526 4.23312 0
M  V30 22261 C 2091.45 -1.72547 5.05038 0
M  V30 22262 O 2091.67 -2.95324 4.87996 0
M  V30 22263 O 2090.61 -1.2913 5.87885 0
M  V30 22264 H 2094.43 0.362909 3.01524 0
M  V30 22265 H 2092.02 0.243598 1.47401 0
M  V30 22266 H 2093.9 -1.98774 3.71573 0
M  V30 22267 H 2092.58 -2.03091 2.52063 0
M  V30 22268 H 2091.48 -0.0606687 3.74051 0
M  V30 22269 H 2092.82 -0.099506 4.92099 0
M  V30 22270 N 2094.47 -1.56127 0.214985 0
M  V30 22271 C 2095.42 -2.21359 -0.714353 0
M  V30 22272 C 2096.41 -1.19092 -1.20472 0
M  V30 22273 O 2097.62 -1.37188 -1.16531 0
M  V30 22274 H 2093.99 -0.70966 -0.248769 0
M  V30 22275 H 2095.96 -2.98068 -0.140678 0
M  V30 22276 C 2094.71 -2.90234 -1.91466 0
M  V30 22277 H 2094.03 -3.68681 -1.54644 0
M  V30 22278 H 2095.47 -3.39286 -2.54285 0
M  V30 22279 C 2093.93 -1.92345 -2.76595 0
M  V30 22280 O 2094.46 -1.43625 -3.75146 0
M  V30 22281 N 2092.67 -1.60138 -2.42496 0
M  V30 22282 H 2092.22 -1.99952 -1.6241 0
M  V30 22283 H 2092.17 -0.949023 -2.99735 0
M  V30 22284 N 2095.95 0.0584645 -1.57492 0
M  V30 22285 C 2097.22 0.788828 -1.78988 0
M  V30 22286 C 2097.6 1.95112 -0.805878 0
M  V30 22287 O 2096.95 2.27951 0.158244 0
M  V30 22288 C 2097.16 1.24936 -3.25871 0
M  V30 22289 C 2098.51 1.67732 -3.90066 0
M  V30 22290 O 2099.53 1.34469 -3.29843 0
M  V30 22291 O 2098.39 2.29361 -4.9604 0
M  V30 22292 H 2095.49 0.379032 -0.735027 0
M  V30 22293 H 2098.03 0.0375096 -1.69659 0
M  V30 22294 H 2096.8 0.418302 -3.89058 0
M  V30 22295 H 2096.43 2.06159 -3.39977 0
M  V30 22296 N 2097.42 1.54103 0.330149 0
M  V30 22297 C 2098.39 1.82317 1.389 0
M  V30 22298 C 2099.39 0.694711 1.45019 0
M  V30 22299 O 2100.58 0.963016 1.45161 0
M  V30 22300 C 2097.71 1.97727 2.77699 0
M  V30 22301 H 2098.9 2.76916 1.15141 0
M  V30 22302 H 2096.45 1.4572 0.565276 0
M  V30 22303 H 2097.19 1.05316 3.06723 0
M  V30 22304 H 2096.97 2.79837 2.74652 0
M  V30 22305 H 2098.46 2.21026 3.54313 0
M  V30 22306 N 2098.9 -0.59187 1.46064 0
M  V30 22307 C 2100.15 -1.34657 1.50168 0
M  V30 22308 C 2100.46 -1.94993 0.153981 0
M  V30 22309 O 2101.67 -2.71402 0.0727633 0
M  V30 22310 C 2100.13 -2.44 2.6456 0
M  V30 22311 C 2099.73 -1.90007 4.05711 0
M  V30 22312 C 2101.48 -3.2087 2.77926 0
M  V30 22313 C 2099.39 -2.96925 5.11458 0
M  V30 22314 H 2098.32 -0.506178 0.558838 0
M  V30 22315 H 2100.97 -0.632651 1.72249 0
M  V30 22316 H 2099.35 -3.18149 2.35791 0
M  V30 22317 H 2100.52 -1.22462 4.44229 0
M  V30 22318 H 2098.84 -1.25833 3.96932 0
M  V30 22319 H 2101.43 -4.00647 3.54099 0
M  V30 22320 H 2101.78 -3.72878 1.85115 0
M  V30 22321 H 2102.31 -2.53825 3.06296 0
M  V30 22322 H 2099.05 -2.49815 6.0603 0
M  V30 22323 H 2098.57 -3.62987 4.77494 0
M  V30 22324 H 2100.25 -3.61036 5.369 0
M  V30 22325 N 2100.38 -1.33616 -0.835729 0
M  V30 22326 C 2101.63 -1.25003 -1.58804 0
M  V30 22327 C 2101.95 0.183302 -1.94137 0
M  V30 22328 O 2101.22 1.11282 -1.61224 0
M  V30 22329 H 2099.8 -0.459684 -0.588812 0
M  V30 22330 H 2102.46 -1.67374 -0.998599 0
M  V30 22331 H 2101.56 -1.84593 -2.51658 0
M  V30 22332 N 2101.86 1.05436 -1.17136 0
M  V30 22333 C 2103.14 1.75275 -0.868216 0
M  V30 22334 C 2103.52 2.01415 0.632074 0
M  V30 22335 O 2102.86 1.64823 1.58258 0
M  V30 22336 C 2103.07 3.04772 -1.70044 0
M  V30 22337 C 2104.42 3.78768 -1.91885 0
M  V30 22338 O 2105.45 3.14636 -1.66982 0
M  V30 22339 O 2104.3 4.94 -2.33723 0
M  V30 22340 H 2101.4 0.762066 -0.321223 0
M  V30 22341 H 2103.94 1.11627 -1.27818 0
M  V30 22342 H 2102.72 2.81485 -2.71812 0
M  V30 22343 H 2102.34 3.76157 -1.28808 0
M  V30 22344 N 2103.34 0.971211 1.24118 0
M  V30 22345 C 2104.58 0.635963 1.9257 0
M  V30 22346 C 2104.92 -0.827222 1.75701 0
M  V30 22347 O 2104.19 -1.59559 1.11226 0
M  V30 22348 C 2104.47 1.01581 3.45476 0
M  V30 22349 C 2104.33 2.53595 3.71497 0
M  V30 22350 C 2105.65 0.552941 4.36613 0
M  V30 22351 H 2102.76 0.232516 0.699361 0
M  V30 22352 H 2105.41 1.21085 1.46419 0
M  V30 22353 H 2103.56 0.526628 3.84914 0
M  V30 22354 H 2105.23 3.10016 3.41596 0
M  V30 22355 H 2103.47 2.96637 3.16526 0
M  V30 22356 H 2104.14 2.75222 4.78494 0
M  V30 22357 H 2106.62 0.972795 4.04569 0
M  V30 22358 H 2105.49 0.847244 5.42322 0
M  V30 22359 H 2105.76 -0.54692 4.38704 0
M  V30 22360 N 2104.81 -1.39054 0.741747 0
M  V30 22361 C 2105.78 -2.28913 0.114619 0
M  V30 22362 C 2106.78 -1.46629 -0.660038 0
M  V30 22363 O 2107.97 -1.67223 -0.488056 0
M  V30 22364 C 2105.1 -3.3022 -0.846607 0
M  V30 22365 H 2106.29 -2.85875 0.906381 0
M  V30 22366 H 2103.85 -1.47814 0.508001 0
M  V30 22367 H 2104.58 -2.78326 -1.66448 0
M  V30 22368 H 2104.37 -3.90999 -0.293686 0
M  V30 22369 H 2105.86 -3.97443 -1.28176 0
M  V30 22370 N 2106.29 -0.489897 -1.49792 0
M  V30 22371 C 2107.53 0.0570502 -2.0432 0
M  V30 22372 C 2107.9 1.35291 -1.36237 0
M  V30 22373 O 2109.1 1.9834 -1.81424 0
M  V30 22374 C 2107.37 0.217574 -3.56737 0
M  V30 22375 S 2108.93 0.72037 -4.32847 0
M  V30 22376 H 2105.75 0.00704922 -0.710965 0
M  V30 22377 H 2108.35 -0.661331 -1.83975 0
M  V30 22378 H 2107.05 -0.731044 -4.03836 0
M  V30 22379 H 2106.58 0.961522 -3.81469 0
M  V30 22380 H 2108.6 1.99116 -4.54497 0
M  V30 22381 N 2107.77 1.56011 -0.223262 0
M  V30 22382 C 2109.05 1.90185 0.457074 0
M  V30 22383 C 2109.43 1.14083 1.77618 0
M  V30 22384 O 2108.78 0.250703 2.27121 0
M  V30 22385 C 2108.99 3.42925 0.648347 0
M  V30 22386 C 2110.33 4.13721 0.955 0
M  V30 22387 O 2111.36 3.48533 0.735072 0
M  V30 22388 O 2110.22 5.28985 1.37248 0
M  V30 22389 H 2107.31 0.790827 0.241912 0
M  V30 22390 H 2109.86 1.67609 -0.265573 0
M  V30 22391 H 2108.63 3.90282 -0.282045 0
M  V30 22392 H 2108.25 3.71286 1.42242 0
M  V30 22393 N 2109.25 -0.0501116 1.5752 0
M  V30 22394 C 2110.47 -0.761197 1.92926 0
M  V30 22395 C 2110.9 -1.69211 0.821546 0
M  V30 22396 O 2110.26 -1.79908 -0.224247 0
M  V30 22397 C 2110.3 -1.51241 3.27351 0
M  V30 22398 O 2109.41 -2.62445 3.18114 0
M  V30 22399 H 2108.75 -0.206224 0.631164 0
M  V30 22400 H 2111.28 -0.0118709 2.04597 0
M  V30 22401 H 2111.29 -1.88696 3.61743 0
M  V30 22402 H 2109.96 -0.829535 4.07543 0
M  V30 22403 H 2108.54 -2.27688 2.95318 0
M  V30 22404 N 2110.73 -1.54276 -0.321972 0
M  V30 22405 C 2111.96 -1.76267 -1.07766 0
M  V30 22406 C 2112.36 -0.512038 -1.8214 0
M  V30 22407 O 2111.71 0.526965 -1.75979 0
M  V30 22408 C 2111.77 -2.90328 -2.12014 0
M  V30 22409 C 2111.43 -4.29176 -1.57024 0
M  V30 22410 C 2112.43 -5.09971 -1.0112 0
M  V30 22411 C 2110.12 -4.75724 -1.6122 0
M  V30 22412 C 2112.11 -6.35425 -0.501407 0
M  V30 22413 C 2109.8 -6.01145 -1.09853 0
M  V30 22414 C 2110.79 -6.80829 -0.544086 0
M  V30 22415 O 2110.48 -8.03891 -0.0381506 0
M  V30 22416 H 2110.21 -0.592028 -0.326312 0
M  V30 22417 H 2112.77 -2.0198 -0.373274 0
M  V30 22418 H 2111 -2.6019 -2.86074 0
M  V30 22419 H 2112.69 -3.00087 -2.73317 0
M  V30 22420 H 2113.45 -4.75163 -0.971843 0
M  V30 22421 H 2109.33 -4.13744 -2.03315 0
M  V30 22422 H 2112.88 -6.97567 -0.067985 0
M  V30 22423 H 2108.77 -6.35444 -1.13496 0
M  V30 22424 H 2109.54 -8.18356 -0.153425 0
M  V30 22425 N 2112.2 0.584116 -1.46376 0
M  V30 22426 C 2113.15 1.68815 -1.5325 0
M  V30 22427 C 2114.14 1.56013 -0.393561 0
M  V30 22428 O 2115.33 1.64951 -0.641886 0
M  V30 22429 C 2112.46 3.07599 -1.5244 0
M  V30 22430 C 2111.55 3.25703 -2.71622 0
M  V30 22431 N 2111.94 3.13972 -3.96555 0
M  V30 22432 C 2110.23 3.56638 -2.67816 0
M  V30 22433 C 2110.94 3.34042 -4.76226 0
M  V30 22434 N 2109.91 3.59131 -4.08075 0
M  V30 22435 H 2113.71 1.58273 -2.47642 0
M  V30 22436 H 2111.23 0.788103 -1.41995 0
M  V30 22437 H 2113.22 3.86834 -1.55452 0
M  V30 22438 H 2111.88 3.19272 -0.591231 0
M  V30 22439 H 2112.9 2.91868 -4.27824 0
M  V30 22440 H 2109.57 3.75004 -1.83516 0
M  V30 22441 H 2110.96 3.30167 -5.85183 0
M  V30 22442 N 2113.68 1.34058 0.828631 0
M  V30 22443 C 2114.63 1.25161 1.93916 0
M  V30 22444 C 2115.6 0.128041 1.65606 0
M  V30 22445 O 2116.79 0.308053 1.88297 0
M  V30 22446 C 2113.93 1.00718 3.30075 0
M  V30 22447 C 2113.04 2.21797 3.70716 0
M  V30 22448 C 2112.17 1.90684 4.95795 0
M  V30 22449 C 2111.21 3.07938 5.29 0
M  V30 22450 N 2110.35 2.76746 6.45257 0
M  V30 22451 H 2115.19 2.20137 2.00857 0
M  V30 22452 H 2112.73 1.09455 0.982754 0
M  V30 22453 H 2114.68 0.845864 4.08535 0
M  V30 22454 H 2113.31 0.0941257 3.22663 0
M  V30 22455 H 2112.37 2.48869 2.87695 0
M  V30 22456 H 2113.68 3.09421 3.91229 0
M  V30 22457 H 2112.83 1.71255 5.82028 0
M  V30 22458 H 2111.57 1.00312 4.77272 0
M  V30 22459 H 2110.58 3.27969 4.41267 0
M  V30 22460 H 2111.8 3.9908 5.49465 0
M  V30 22461 H 2109.75 1.88944 6.28201 0
M  V30 22462 H 2109.66 3.57901 6.65915 0
M  V30 22463 H 2110.93 2.60808 7.34574 0
M  V30 22464 N 2115.16 -1.04814 1.17694 0
M  V30 22465 C 2116.41 -1.77277 0.962076 0
M  V30 22466 C 2116.72 -1.88834 -0.509992 0
M  V30 22467 O 2117.93 -2.58075 -0.843166 0
M  V30 22468 C 2116.39 -3.18693 1.67221 0
M  V30 22469 C 2115.99 -3.15253 3.18308 0
M  V30 22470 C 2117.74 -3.95585 1.53988 0
M  V30 22471 C 2115.64 -4.51481 3.81993 0
M  V30 22472 H 2114.57 -0.66449 0.356328 0
M  V30 22473 H 2117.23 -1.17451 1.40988 0
M  V30 22474 H 2115.61 -3.78868 1.15216 0
M  V30 22475 H 2116.78 -2.64573 3.77277 0
M  V30 22476 H 2115.1 -2.51859 3.31596 0
M  V30 22477 H 2117.69 -4.96315 1.98937 0
M  V30 22478 H 2118.04 -4.13394 0.491003 0
M  V30 22479 H 2118.57 -3.41967 2.03232 0
M  V30 22480 H 2115.31 -4.38877 4.86895 0
M  V30 22481 H 2114.83 -5.02295 3.27811 0
M  V30 22482 H 2116.51 -5.20413 3.84421 0
M  V30 22483 N 2116.64 -0.977779 -1.23601 0
M  V30 22484 C 2117.6 -0.520908 -2.23202 0
M  V30 22485 C 2118.6 0.38804 -1.56048 0
M  V30 22486 O 2119.79 0.182096 -1.73246 0
M  V30 22487 C 2116.92 0.244298 -3.40024 0
M  V30 22488 H 2118.12 -1.40154 -2.65135 0
M  V30 22489 H 2115.67 -0.763397 -1.36389 0
M  V30 22490 H 2116.41 1.14159 -3.03543 0
M  V30 22491 H 2116.19 -0.408125 -3.8997 0
M  V30 22492 H 2117.68 0.55263 -4.13927 0
M  V30 22493 N 2118.12 1.38658 -0.749111 0
M  V30 22494 C 2119.03 2.34291 -0.120373 0
M  V30 22495 C 2120.04 1.59043 0.705796 0
M  V30 22496 O 2121.22 1.9126 0.63099 0
M  V30 22497 C 2118.28 3.38141 0.765626 0
M  V30 22498 C 2117.35 4.29236 -0.0744037 0
M  V30 22499 C 2116.58 5.28125 0.769401 0
M  V30 22500 O 2116.8 5.33902 2.0076 0
M  V30 22501 O 2115.74 6.01598 0.190576 0
M  V30 22502 H 2119.56 2.89744 -0.910056 0
M  V30 22503 H 2117.15 1.40428 -0.509948 0
M  V30 22504 H 2119.03 4.0174 1.27214 0
M  V30 22505 H 2117.7 2.8505 1.53388 0
M  V30 22506 H 2116.61 3.68812 -0.626761 0
M  V30 22507 H 2117.94 4.85569 -0.805208 0
M  V30 22508 N 2119.6 0.497834 1.49531 0
M  V30 22509 C 2120.87 -0.110673 1.95287 0
M  V30 22510 C 2121.25 -1.54433 1.43923 0
M  V30 22511 O 2120.6 -2.19012 0.651616 0
M  V30 22512 C 2120.81 -0.0265636 3.4899 0
M  V30 22513 C 2122.16 -0.202082 4.24119 0
M  V30 22514 O 2123.18 -0.1019 3.56054 0
M  V30 22515 O 2122.04 -0.407373 5.4498 0
M  V30 22516 H 2119.14 -0.0970406 0.821287 0
M  V30 22517 H 2121.68 0.560146 1.60189 0
M  V30 22518 H 2120.45 0.973355 3.79001 0
M  V30 22519 H 2120.08 -0.737668 3.90697 0
M  V30 22520 N 2121.07 -1.5589 0.231532 0
M  V30 22521 C 2122 -2.23713 -0.66894 0
M  V30 22522 C 2122.98 -1.21219 -1.19332 0
M  V30 22523 O 2124.17 -1.49831 -1.23549 0
M  V30 22524 C 2121.3 -2.92476 -1.87284 0
M  V30 22525 C 2120.25 -4.01527 -1.48189 0
M  V30 22526 C 2119.58 -4.57637 -2.76537 0
M  V30 22527 C 2120.88 -5.18057 -0.664415 0
M  V30 22528 H 2122.57 -2.99221 -0.103437 0
M  V30 22529 H 2120.12 -1.43919 -0.0483103 0
M  V30 22530 H 2122.07 -3.38617 -2.50831 0
M  V30 22531 H 2120.8 -2.14431 -2.46347 0
M  V30 22532 H 2119.46 -3.56131 -0.869833 0
M  V30 22533 H 2119.1 -3.7631 -3.33766 0
M  V30 22534 H 2118.8 -5.31242 -2.51108 0
M  V30 22535 H 2120.33 -5.06503 -3.41009 0
M  V30 22536 H 2121.74 -5.60519 -1.20382 0
M  V30 22537 H 2120.14 -5.97956 -0.506811 0
M  V30 22538 H 2121.21 -4.83798 0.326792 0
M  V30 22539 N 2122.55 0.0417572 -1.57545 0
M  V30 22540 C 2123.8 0.736189 -1.88966 0
M  V30 22541 C 2124.13 1.75678 -0.827697 0
M  V30 22542 O 2123.41 1.93851 0.158734 0
M  V30 22543 C 2123.69 1.4172 -3.3104 0
M  V30 22544 C 2123.54 0.410987 -4.47918 0
M  V30 22545 C 2124.86 2.3545 -3.71822 0
M  V30 22546 H 2121.98 0.266166 -0.687259 0
M  V30 22547 H 2124.62 -0.000952352 -1.9 0
M  V30 22548 H 2122.77 2.04552 -3.30289 0
M  V30 22549 H 2124.44 -0.214433 -4.60801 0
M  V30 22550 H 2122.69 -0.270954 -4.32953 0
M  V30 22551 H 2123.36 0.925718 -5.44182 0
M  V30 22552 H 2125.83 1.82673 -3.73858 0
M  V30 22553 H 2124.71 2.80087 -4.72062 0
M  V30 22554 H 2124.97 3.21575 -3.03384 0
M  V30 22555 N 2124.03 1.54445 0.313786 0
M  V30 22556 C 2125.26 1.77093 1.06985 0
M  V30 22557 C 2125.67 0.524216 1.81376 0
M  V30 22558 O 2125.03 -0.505482 1.7536 0
M  V30 22559 C 2125.08 2.97038 2.06036 0
M  V30 22560 O 2124.8 4.1689 1.34665 0
M  V30 22561 C 2126.3 3.31974 2.93783 0
M  V30 22562 H 2123.52 0.590955 0.317826 0
M  V30 22563 H 2126.07 2.01361 0.356942 0
M  V30 22564 H 2124.22 2.75015 2.72847 0
M  V30 22565 H 2124.64 4.84425 2.01078 0
M  V30 22566 H 2126.11 4.19176 3.5916 0
M  V30 22567 H 2126.59 2.49567 3.61404 0
M  V30 22568 H 2127.19 3.5611 2.3252 0
M  V30 22569 N 2125.51 -0.576345 1.46683 0
M  V30 22570 C 2126.44 -1.69505 1.60594 0
M  V30 22571 C 2127.42 -1.63873 0.456022 0
M  V30 22572 O 2128.6 -1.81791 0.683045 0
M  V30 22573 C 2125.73 -3.08148 1.60194 0
M  V30 22574 C 2124.69 -3.28615 2.7422 0
M  V30 22575 C 2124.01 -4.6785 2.58884 0
M  V30 22576 C 2125.31 -3.15834 4.15989 0
M  V30 22577 H 2127.01 -1.58119 2.54241 0
M  V30 22578 H 2124.55 -0.759271 1.22356 0
M  V30 22579 H 2126.51 -3.86237 1.68519 0
M  V30 22580 H 2125.23 -3.20447 0.630952 0
M  V30 22581 H 2123.89 -2.52927 2.65375 0
M  V30 22582 H 2123.54 -4.76923 1.59854 0
M  V30 22583 H 2123.24 -4.82495 3.35368 0
M  V30 22584 H 2124.76 -5.48099 2.69109 0
M  V30 22585 H 2126.18 -3.83761 4.25911 0
M  V30 22586 H 2124.57 -3.41998 4.9311 0
M  V30 22587 H 2125.64 -2.12828 4.35698 0
M  V30 22588 N 2126.99 -1.34495 -0.82151 0
M  V30 22589 C 2127.92 -1.22033 -1.94012 0
M  V30 22590 C 2128.93 -0.147079 -1.62134 0
M  V30 22591 O 2130.12 -0.399057 -1.73982 0
M  V30 22592 C 2127.22 -0.85311 -3.27987 0
M  V30 22593 C 2126.39 -2.02163 -3.87877 0
M  V30 22594 C 2125.45 -1.63259 -5.00233 0
M  V30 22595 O 2124.48 -2.34935 -5.18454 0
M  V30 22596 N 2125.68 -0.547563 -5.77912 0
M  V30 22597 H 2128.44 -2.18401 -2.05235 0
M  V30 22598 H 2126.01 -1.27469 -0.998165 0
M  V30 22599 H 2128 -0.574614 -4.006 0
M  V30 22600 H 2126.57 0.0204234 -3.12593 0
M  V30 22601 H 2125.79 -2.46478 -3.0764 0
M  V30 22602 H 2127.08 -2.80308 -4.24623 0
M  V30 22603 H 2126.47 0.0482732 -5.65679 0
M  V30 22604 H 2125.03 -0.328801 -6.5097 0
M  V30 22605 N 2128.46 1.04188 -1.18248 0
M  V30 22606 C 2129.41 2.14282 -0.904765 0
M  V30 22607 C 2130.41 1.68865 0.134493 0
M  V30 22608 O 2131.61 1.79995 -0.013541 0
M  V30 22609 H 2127.99 0.699873 -0.275103 0
M  V30 22610 H 2129.96 2.34904 -1.84018 0
M  V30 22611 C 2128.71 3.44832 -0.445645 0
M  V30 22612 H 2128.03 3.80187 -1.23683 0
M  V30 22613 H 2129.47 4.23005 -0.29031 0
M  V30 22614 C 2127.93 3.26303 0.838325 0
M  V30 22615 O 2128.46 3.53774 1.90282 0
M  V30 22616 N 2126.67 2.79643 0.79045 0
M  V30 22617 H 2126.21 2.57488 -0.0760399 0
M  V30 22618 H 2126.17 2.67626 1.64996 0
M  V30 22619 N 2129.94 0.98432 1.23081 0
M  V30 22620 C 2130.87 0.547274 2.26996 0
M  V30 22621 C 2131.85 -0.421528 1.64794 0
M  V30 22622 O 2133.04 -0.314036 1.91644 0
M  V30 22623 C 2130.17 -0.147283 3.46988 0
M  V30 22624 C 2129.12 0.739194 4.21568 0
M  V30 22625 C 2128.45 -0.0877981 5.34628 0
M  V30 22626 C 2129.75 2.03191 4.81156 0
M  V30 22627 H 2131.44 1.41586 2.63806 0
M  V30 22628 H 2128.99 0.682245 1.26813 0
M  V30 22629 H 2130.94 -0.464368 4.18834 0
M  V30 22630 H 2129.67 -1.05035 3.09249 0
M  V30 22631 H 2128.32 1.03979 3.51545 0
M  V30 22632 H 2127.97 -0.99152 4.93131 0
M  V30 22633 H 2127.67 0.50225 5.8545 0
M  V30 22634 H 2129.2 -0.399175 6.09294 0
M  V30 22635 H 2130.61 1.77933 5.44989 0
M  V30 22636 H 2129.01 2.57006 5.4228 0
M  V30 22637 H 2130.08 2.71622 4.01684 0
M  V30 22638 N 2131.42 -1.38259 0.756453 0
M  V30 22639 C 2132.67 -1.99657 0.313271 0
M  V30 22640 C 2132.99 -1.60347 -1.10967 0
M  V30 22641 O 2132.26 -0.861667 -1.75932 0
M  V30 22642 H 2130.84 -0.738428 0.112838 0
M  V30 22643 H 2133.5 -1.68979 0.971184 0
M  V30 22644 H 2132.6 -3.09794 0.378689 0
M  V30 22645 N 2132.9 -0.505757 -1.49264 0
M  V30 22646 C 2134.14 0.0371268 -2.02766 0
M  V30 22647 C 2134.48 1.36205 -1.38427 0
M  V30 22648 O 2133.75 1.87376 -0.521582 0
M  V30 22649 C 2134.04 0.18468 -3.59626 0
M  V30 22650 C 2133.89 -1.1637 -4.34486 0
M  V30 22651 C 2135.21 0.923062 -4.30311 0
M  V30 22652 H 2132.33 0.0120186 -0.736902 0
M  V30 22653 H 2134.97 -0.658091 -1.78239 0
M  V30 22654 H 2133.12 0.776811 -3.80655 0
M  V30 22655 H 2134.79 -1.79508 -4.24941 0
M  V30 22656 H 2133.03 -1.75178 -3.96856 0
M  V30 22657 H 2133.7 -1.01371 -5.42612 0
M  V30 22658 H 2136.18 0.420822 -4.13967 0
M  V30 22659 H 2135.06 0.995155 -5.39804 0
M  V30 22660 H 2135.32 1.96788 -3.95888 0
M  V30 22661 N 2134.38 1.55765 -0.239796 0
M  V30 22662 C 2135.6 2.03618 0.394243 0
M  V30 22663 C 2136.03 1.1181 1.51261 0
M  V30 22664 O 2135.38 0.1097 1.80968 0
M  V30 22665 C 2135.43 3.49545 0.886029 0
M  V30 22666 O 2134.54 3.60872 1.99613 0
M  V30 22667 H 2133.88 0.658289 0.0869012 0
M  V30 22668 H 2136.41 2.0134 -0.363774 0
M  V30 22669 H 2136.42 3.90226 1.1911 0
M  V30 22670 H 2135.09 4.15845 0.0675883 0
M  V30 22671 H 2133.67 3.32085 1.6963 0
M  V30 22672 N 2135.85 -0.0334016 1.57565 0
M  V30 22673 C 2136.8 -1.04313 2.02738 0
M  V30 22674 C 2137.79 -1.32286 0.915933 0
M  V30 22675 O 2138.98 -1.31943 1.17983 0
M  V30 22676 C 2136.11 -2.34558 2.50674 0
M  V30 22677 C 2135.2 -2.09694 3.68632 0
M  V30 22678 N 2135.59 -1.54874 4.81506 0
M  V30 22679 C 2133.88 -2.39998 3.75922 0
M  V30 22680 C 2134.59 -1.45715 5.63154 0
M  V30 22681 N 2133.56 -1.93121 5.08139 0
M  V30 22682 H 2137.36 -0.613226 2.87431 0
M  V30 22683 H 2134.88 -0.23979 1.6062 0
M  V30 22684 H 2136.87 -3.07699 2.81296 0
M  V30 22685 H 2135.53 -2.7823 1.67386 0
M  V30 22686 H 2136.55 -1.23205 5.03032 0
M  V30 22687 H 2133.22 -2.86775 3.03424 0
M  V30 22688 H 2134.61 -1.03858 6.63825 0
M  V30 22689 N 2137.33 -1.54609 -0.305591 0
M  V30 22690 C 2138.56 -1.774 -1.05891 0
M  V30 22691 C 2138.97 -0.531327 -1.81586 0
M  V30 22692 O 2138.31 0.508271 -1.76528 0
M  V30 22693 C 2138.38 -2.9256 -2.08923 0
M  V30 22694 C 2138.04 -4.30818 -1.52464 0
M  V30 22695 C 2139.04 -5.11015 -0.957049 0
M  V30 22696 C 2136.72 -4.77407 -1.56165 0
M  V30 22697 C 2138.72 -6.35921 -0.433983 0
M  V30 22698 C 2136.4 -6.02276 -1.03471 0
M  V30 22699 C 2137.4 -6.81368 -0.471844 0
M  V30 22700 O 2137.09 -8.03886 0.047115 0
M  V30 22701 H 2136.82 -0.595455 -0.320014 0
M  V30 22702 H 2139.37 -2.02364 -0.35183 0
M  V30 22703 H 2137.6 -2.6321 -2.83298 0
M  V30 22704 H 2139.29 -3.02969 -2.70119 0
M  V30 22705 H 2140.06 -4.76167 -0.921391 0
M  V30 22706 H 2135.94 -4.15877 -1.98915 0
M  V30 22707 H 2139.48 -6.976 0.00600517 0
M  V30 22708 H 2135.38 -6.36612 -1.0675 0
M  V30 22709 H 2136.15 -8.18473 -0.0666184 0
M  V30 22710 N 2138.81 0.568558 -1.46987 0
M  V30 22711 C 2140.23 0.893359 -1.32254 0
M  V30 22712 C 2140.43 1.99185 -0.304531 0
M  V30 22713 O 2139.48 2.50853 0.287946 0
M  V30 22714 C 2140.8 1.29733 -2.71275 0
M  V30 22715 C 2142.34 1.40939 -2.79473 0
M  V30 22716 C 2142.82 1.84696 -4.19108 0
M  V30 22717 N 2144.31 1.91866 -4.21594 0
M  V30 22718 C 2145.04 2.27028 -5.26542 0
M  V30 22719 N 2144.54 2.60882 -6.41804 0
M  V30 22720 N 2146.33 2.27704 -5.13914 0
M  V30 22721 H 2138.48 -0.156857 -2.1182 0
M  V30 22722 H 2140.75 -0.00750539 -0.94797 0
M  V30 22723 H 2140.45 0.564082 -3.47147 0
M  V30 22724 H 2140.33 2.2559 -3.02306 0
M  V30 22725 H 2142.71 2.13347 -2.0388 0
M  V30 22726 H 2142.8 0.432977 -2.52109 0
M  V30 22727 H 2142.44 1.12862 -4.95202 0
M  V30 22728 H 2142.37 2.8332 -4.43889 0
M  V30 22729 H 2144.86 1.68135 -3.38436 0
M  V30 22730 H 2145.17 2.86707 -7.17648 0
M  V30 22731 H 2143.52 2.58488 -6.45142 0
M  V30 22732 H 2146.71 2.00687 -4.22898 0
M  V30 22733 H 2146.88 2.54778 -5.95812 0
M  V30 22734 N 2140.29 1.34929 0.814366 0
M  V30 22735 C 2141.54 1.27766 1.57105 0
M  V30 22736 C 2141.86 -0.150063 1.9392 0
M  V30 22737 O 2141.12 -1.11344 1.60938 0
M  V30 22738 C 2141.42 2.12223 2.87569 0
M  V30 22739 C 2141.08 3.61119 2.70008 0
M  V30 22740 C 2139.75 4.01706 2.64926 0
M  V30 22741 C 2142.1 4.55629 2.53084 0
M  V30 22742 C 2139.43 5.34983 2.40853 0
M  V30 22743 C 2141.78 5.89095 2.30542 0
M  V30 22744 C 2140.44 6.28836 2.23877 0
M  V30 22745 H 2139.71 0.46753 0.574889 0
M  V30 22746 H 2142.36 1.66753 0.941581 0
M  V30 22747 H 2140.66 1.66092 3.54853 0
M  V30 22748 H 2142.36 2.04022 3.45219 0
M  V30 22749 H 2138.95 3.28906 2.74807 0
M  V30 22750 H 2143.13 4.25163 2.56028 0
M  V30 22751 H 2138.39 5.64783 2.34158 0
M  V30 22752 H 2142.56 6.61913 2.16436 0
M  V30 22753 H 2140.19 7.32042 2.04986 0
M  V30 22754 N 2141.77 -1.0356 1.18799 0
M  V30 22755 C 2142.99 -1.81025 1.01216 0
M  V30 22756 C 2143.42 -1.8301 -0.434636 0
M  V30 22757 O 2142.77 -1.25115 -1.3121 0
M  V30 22758 C 2142.82 -3.24257 1.57766 0
M  V30 22759 O 2141.93 -4.04518 0.802435 0
M  V30 22760 H 2141.27 -0.559085 0.358218 0
M  V30 22761 H 2143.8 -1.30389 1.57671 0
M  V30 22762 H 2143.81 -3.75022 1.60694 0
M  V30 22763 H 2142.48 -3.22127 2.63073 0
M  V30 22764 H 2141.06 -3.6318 0.845866 0
M  V30 22765 N 2143.25 -0.990834 -1.22557 0
M  V30 22766 C 2144.49 -0.660998 -1.90562 0
M  V30 22767 C 2144.81 0.810271 -1.78028 0
M  V30 22768 O 2146.01 1.2516 -2.4093 0
M  V30 22769 C 2144.47 -1.13172 -3.41643 0
M  V30 22770 C 2144.08 -2.62807 -3.62817 0
M  V30 22771 C 2145.82 -0.876119 -4.15361 0
M  V30 22772 C 2143.73 -3.03493 -5.07588 0
M  V30 22773 H 2142.66 -0.243531 -0.713589 0
M  V30 22774 H 2145.31 -1.20012 -1.38814 0
M  V30 22775 H 2143.69 -0.520742 -3.92561 0
M  V30 22776 H 2144.87 -3.29233 -3.22401 0
M  V30 22777 H 2143.18 -2.86227 -3.02428 0
M  V30 22778 H 2145.78 -1.15582 -5.22058 0
M  V30 22779 H 2146.12 0.187761 -4.15876 0
M  V30 22780 H 2146.65 -1.44919 -3.70464 0
M  V30 22781 H 2143.39 -4.09048 -5.12211 0
M  V30 22782 H 2142.91 -2.41769 -5.48915 0
M  V30 22783 H 2144.59 -2.94679 -5.75998 0
M  V30 22784 N 2144.72 1.37856 -0.763775 0
M  V30 22785 C 2145.95 2.04686 -0.334395 0
M  V30 22786 C 2146.37 1.57229 1.0325 0
M  V30 22787 O 2145.73 0.728884 1.66003 0
M  V30 22788 C 2145.78 3.58616 -0.377715 0
M  V30 22789 O 2144.88 4.07641 0.624687 0
M  V30 22790 H 2144.22 0.647714 -0.146161 0
M  V30 22791 H 2146.75 1.76329 -1.03774 0
M  V30 22792 H 2146.76 4.07339 -0.232185 0
M  V30 22793 H 2145.44 3.92514 -1.37496 0
M  V30 22794 H 2144.02 3.7026 0.442931 0
M  V30 22795 N 2146.2 0.513665 1.48994 0
M  V30 22796 C 2147.45 -0.0183157 2.03392 0
M  V30 22797 C 2147.8 -1.33522 1.38527 0
M  V30 22798 O 2147.1 -1.84515 0.51621 0
M  V30 22799 C 2147.29 -0.214329 3.56757 0
M  V30 22800 C 2147.12 1.08203 4.36489 0
M  V30 22801 C 2145.89 1.63737 4.78036 0
M  V30 22802 C 2148.09 1.98854 4.74301 0
M  V30 22803 N 2146.07 2.87831 5.42242 0
M  V30 22804 C 2147.44 3.07525 5.38357 0
M  V30 22805 C 2149.49 1.99378 4.56238 0
M  V30 22806 C 2148.2 4.16764 5.8626 0
M  V30 22807 C 2150.22 3.07601 5.0511 0
M  V30 22808 C 2149.59 4.14991 5.69177 0
M  V30 22809 H 2145.68 0.0343931 0.781243 0
M  V30 22810 H 2148.27 0.691333 1.82013 0
M  V30 22811 H 2146.44 -0.893045 3.77994 0
M  V30 22812 H 2148.17 -0.744451 3.97794 0
M  V30 22813 H 2144.93 1.18086 4.58642 0
M  V30 22814 H 2145.35 3.50966 5.78923 0
M  V30 22815 H 2149.99 1.17654 4.061 0
M  V30 22816 H 2147.71 4.99278 6.35411 0
M  V30 22817 H 2151.3 3.09042 4.92935 0
M  V30 22818 H 2150.18 4.97353 6.06308 0
M  V30 22819 N 2147.68 -1.55636 0.248053 0
M  V30 22820 C 2148.9 -2.03825 -0.383439 0
M  V30 22821 C 2149.33 -1.12611 -1.50666 0
M  V30 22822 O 2148.69 -0.119296 -1.80907 0
M  V30 22823 C 2148.74 -3.5001 -0.86748 0
M  V30 22824 O 2147.84 -3.61925 -1.97696 0
M  V30 22825 H 2147.18 -0.65874 -0.0834089 0
M  V30 22826 H 2149.71 -2.01144 0.374447 0
M  V30 22827 H 2149.72 -3.90853 -1.17039 0
M  V30 22828 H 2148.4 -4.15875 -0.0455341 0
M  V30 22829 H 2146.97 -3.3298 -1.67866 0
M  V30 22830 N 2149.16 0.0250451 -1.5758 0
M  V30 22831 C 2150.57 0.380756 -1.54992 0
M  V30 22832 C 2150.77 1.76357 -0.974703 0
M  V30 22833 O 2149.83 2.45328 -0.597511 0
M  V30 22834 C 2151.14 0.278925 -2.99404 0
M  V30 22835 C 2152.69 0.355712 -3.10972 0
M  V30 22836 C 2153.17 0.283285 -4.57123 0
M  V30 22837 N 2154.66 0.341957 -4.61936 0
M  V30 22838 C 2155.39 0.308868 -5.72568 0
M  V30 22839 N 2154.89 0.227836 -6.92425 0
M  V30 22840 N 2156.68 0.358894 -5.60953 0
M  V30 22841 H 2148.83 -0.879846 -1.9332 0
M  V30 22842 H 2151.09 -0.334939 -0.88686 0
M  V30 22843 H 2150.8 -0.671495 -3.4523 0
M  V30 22844 H 2150.67 1.07099 -3.61676 0
M  V30 22845 H 2153.06 1.29657 -2.65091 0
M  V30 22846 H 2153.14 -0.465777 -2.51524 0
M  V30 22847 H 2152.79 -0.653918 -5.03673 0
M  V30 22848 H 2152.72 1.12293 -5.14488 0
M  V30 22849 H 2155.21 0.406934 -3.75703 0
M  V30 22850 H 2155.52 0.207798 -7.72521 0
M  V30 22851 H 2153.87 0.193826 -6.9473 0
M  V30 22852 H 2157.06 0.420219 -4.6621 0
M  V30 22853 H 2157.23 0.329639 -6.47161 0
M  V30 22854 N 2150.64 1.54769 0.297388 0
M  V30 22855 C 2151.88 1.7343 1.0298 0
M  V30 22856 C 2152.2 0.529189 1.88305 0
M  V30 22857 O 2153.4 0.597687 2.64839 0
M  V30 22858 C 2151.86 3.06854 1.88065 0
M  V30 22859 C 2151.47 4.34856 1.07724 0
M  V30 22860 C 2153.21 3.34873 2.60883 0
M  V30 22861 C 2151.12 5.59329 1.92107 0
M  V30 22862 H 2150.05 0.646388 0.388199 0
M  V30 22863 H 2152.7 1.81248 0.286615 0
M  V30 22864 H 2151.08 2.93011 2.66385 0
M  V30 22865 H 2152.26 4.59544 0.339927 0
M  V30 22866 H 2150.57 4.13799 0.464715 0
M  V30 22867 H 2153.17 4.25071 3.24374 0
M  V30 22868 H 2153.51 2.5391 3.29902 0
M  V30 22869 H 2154.04 3.49704 1.8961 0
M  V30 22870 H 2150.78 6.4297 1.27551 0
M  V30 22871 H 2150.3 5.3882 2.63501 0
M  V30 22872 H 2151.98 5.96721 2.50067 0
M  V30 22873 N 2152.11 -0.560755 1.47286 0
M  V30 22874 C 2153.04 -1.67792 1.62383 0
M  V30 22875 C 2154.02 -1.6338 0.473377 0
M  V30 22876 O 2155.21 -1.81057 0.702288 0
M  V30 22877 C 2152.34 -3.06431 1.63454 0
M  V30 22878 C 2151.29 -3.25688 2.7769 0
M  V30 22879 C 2150.62 -4.65078 2.63831 0
M  V30 22880 C 2151.92 -3.11404 4.19315 0
M  V30 22881 H 2153.61 -1.55414 2.55904 0
M  V30 22882 H 2151.16 -0.746251 1.23155 0
M  V30 22883 H 2153.11 -3.84428 1.72606 0
M  V30 22884 H 2151.84 -3.1976 0.664904 0
M  V30 22885 H 2150.5 -2.50098 2.68042 0
M  V30 22886 H 2150.14 -4.75201 1.64904 0
M  V30 22887 H 2149.84 -4.78911 3.40467 0
M  V30 22888 H 2151.37 -5.45214 2.74907 0
M  V30 22889 H 2152.78 -3.79222 4.29958 0
M  V30 22890 H 2151.18 -3.36749 4.9671 0
M  V30 22891 H 2152.25 -2.08195 4.3793 0
M  V30 22892 N 2153.59 -1.35359 -0.807199 0
M  V30 22893 C 2155 -1.25624 -1.38114 0
M  V30 22894 C 2155.35 0.11163 -1.95882 0
M  V30 22895 O 2154.48 1.01256 -1.91249 0
M  V30 22896 C 2155.07 -2.27464 -2.51088 0
M  V30 22897 C 2153.63 -2.21472 -3.04347 0
M  V30 22898 C 2152.78 -2.13208 -1.77307 0
M  V30 22899 H 2155.73 -1.46496 -0.610285 0
M  V30 22900 H 2155.75 -1.90077 -3.29623 0
M  V30 22901 H 2155.26 -3.27009 -2.09014 0
M  V30 22902 H 2153.36 -1.25336 -3.50887 0
M  V30 22903 H 2153.48 -3.13409 -3.6237 0
M  V30 22904 H 2151.84 -1.59176 -1.98834 0
M  V30 22905 H 2152.62 -3.14611 -1.37385 0
M  V30 22906 N 2155.07 1.02928 -1.19346 0
M  V30 22907 C 2156.35 1.73394 -0.905199 0
M  V30 22908 C 2156.73 2.02711 0.589208 0
M  V30 22909 O 2156.07 1.68142 1.54727 0
M  V30 22910 C 2156.28 3.01097 -1.7647 0
M  V30 22911 C 2157.63 3.74613 -1.99876 0
M  V30 22912 O 2158.66 3.11023 -1.73618 0
M  V30 22913 O 2157.52 4.88931 -2.44149 0
M  V30 22914 H 2154.61 0.755081 -0.337316 0
M  V30 22915 H 2157.16 1.08891 -1.30157 0
M  V30 22916 H 2155.93 2.75657 -2.77721 0
M  V30 22917 H 2155.55 3.7334 -1.36758 0
M  V30 22918 N 2156.55 0.997319 1.2203 0
M  V30 22919 C 2157.8 0.674331 1.90518 0
M  V30 22920 C 2158.12 -0.796582 1.77988 0
M  V30 22921 O 2157.39 -1.57133 1.16988 0
M  V30 22922 H 2155.97 0.246427 0.705183 0
M  V30 22923 H 2158.63 1.26478 1.48288 0
M  V30 22924 H 2157.72 0.940744 2.97584 0
M  V30 22925 N 2158.03 -1.37449 0.771075 0
M  V30 22926 C 2159.25 -2.03979 0.346453 0
M  V30 22927 C 2159.67 -1.58156 -1.03113 0
M  V30 22928 O 2159.03 -0.762511 -1.65807 0
M  V30 22929 C 2159.08 -3.595 0.379748 0
M  V30 22930 O 2158.8 -4.03646 1.70298 0
M  V30 22931 C 2160.3 -4.43264 -0.0565544 0
M  V30 22932 H 2157.52 -0.655084 0.145281 0
M  V30 22933 H 2160.06 -1.75795 1.04481 0
M  V30 22934 H 2158.22 -3.86458 -0.270023 0
M  V30 22935 H 2158.63 -4.98163 1.64115 0
M  V30 22936 H 2160.11 -5.51997 0.0178961 0
M  V30 22937 H 2160.58 -4.25025 -1.10683 0
M  V30 22938 H 2161.19 -4.2153 0.565003 0
M  V30 22939 N 2159.5 -0.52156 -1.4872 0
M  V30 22940 C 2160.73 0.0117966 -2.06897 0
M  V30 22941 C 2161.15 1.28928 -1.37924 0
M  V30 22942 O 2160.5 1.76502 -0.464046 0
M  V30 22943 C 2160.56 0.248161 -3.60647 0
M  V30 22944 O 2160.28 -0.978703 -4.27028 0
M  V30 22945 C 2161.78 0.822848 -4.35596 0
M  V30 22946 H 2159 -0.0297145 -0.670342 0
M  V30 22947 H 2161.54 -0.724798 -1.91225 0
M  V30 22948 H 2159.7 0.934783 -3.75953 0
M  V30 22949 H 2160.11 -0.754221 -5.19049 0
M  V30 22950 H 2161.58 0.937703 -5.43977 0
M  V30 22951 H 2162.06 1.82571 -3.99455 0
M  V30 22952 H 2162.67 0.173056 -4.24948 0
M  V30 22953 N 2160.98 1.55502 -0.256304 0
M  V30 22954 C 2162.4 1.59297 0.0983236 0
M  V30 22955 C 2162.6 1.27351 1.56154 0
M  V30 22956 O 2161.65 1.02533 2.30745 0
M  V30 22957 C 2162.97 2.9958 -0.259346 0
M  V30 22958 C 2164.52 3.12332 -0.204415 0
M  V30 22959 C 2164.99 4.5485 -0.536252 0
M  V30 22960 N 2166.48 4.60632 -0.487101 0
M  V30 22961 C 2167.22 5.68901 -0.716903 0
M  V30 22962 N 2166.71 6.85393 -1.01033 0
M  V30 22963 N 2168.51 5.58364 -0.646972 0
M  V30 22964 H 2160.66 1.74536 -1.21042 0
M  V30 22965 H 2162.92 0.812935 -0.487689 0
M  V30 22966 H 2162.63 3.27727 -1.27624 0
M  V30 22967 H 2162.5 3.74976 0.409004 0
M  V30 22968 H 2164.89 2.8396 0.803168 0
M  V30 22969 H 2164.97 2.3919 -0.906752 0
M  V30 22970 H 2164.61 4.83944 -1.54143 0
M  V30 22971 H 2164.54 5.26265 0.187668 0
M  V30 22972 H 2167.03 3.76938 -0.269421 0
M  V30 22973 H 2167.35 7.63848 -1.17285 0
M  V30 22974 H 2165.69 6.87055 -1.0479 0
M  V30 22975 H 2168.88 4.66233 -0.417713 0
M  V30 22976 H 2169.05 6.42669 -0.829457 0
M  V30 22977 N 2162.46 -0.0166879 1.57591 0
M  V30 22978 C 2163.69 -0.715388 1.93819 0
M  V30 22979 C 2164.1 -1.68753 0.855524 0
M  V30 22980 O 2163.44 -1.82858 -0.175702 0
M  V30 22981 C 2163.5 -1.51689 3.2593 0
M  V30 22982 C 2163.17 -0.708176 4.5148 0
M  V30 22983 C 2164.16 -0.00306199 5.199 0
M  V30 22984 C 2161.85 -0.659065 4.97957 0
M  V30 22985 C 2163.84 0.740329 6.33086 0
M  V30 22986 C 2161.53 0.0880628 6.11037 0
M  V30 22987 C 2162.53 0.786509 6.78456 0
M  V30 22988 O 2162.22 1.52148 7.89371 0
M  V30 22989 H 2161.95 -0.205311 0.644068 0
M  V30 22990 H 2164.5 0.0254916 2.05384 0
M  V30 22991 H 2162.73 -2.30187 3.10726 0
M  V30 22992 H 2164.42 -2.09936 3.47393 0
M  V30 22993 H 2165.19 -0.0319562 4.84989 0
M  V30 22994 H 2161.07 -1.19222 4.45317 0
M  V30 22995 H 2164.61 1.28603 6.85644 0
M  V30 22996 H 2160.51 0.118837 6.45391 0
M  V30 22997 H 2161.28 1.43645 8.05797 0
M  V30 22998 N 2163.94 -1.54924 -0.289176 0
M  V30 22999 C 2165.19 -1.73974 -1.02059 0
M  V30 23000 C 2165.5 -0.539167 -1.88022 0
M  V30 23001 O 2166.71 -0.611723 -2.64519 0
M  V30 23002 C 2165.16 -3.07847 -1.86435 0
M  V30 23003 C 2164.77 -4.35421 -1.05417 0
M  V30 23004 C 2166.51 -3.36252 -2.59104 0
M  V30 23005 C 2164.42 -5.6034 -1.89138 0
M  V30 23006 H 2163.35 -0.648438 -0.384766 0
M  V30 23007 H 2166 -1.81397 -0.276999 0
M  V30 23008 H 2164.38 -2.94419 -2.64827 0
M  V30 23009 H 2165.56 -4.59718 -0.315551 0
M  V30 23010 H 2163.87 -4.14039 -0.442763 0
M  V30 23011 H 2166.47 -4.26785 -3.22115 0
M  V30 23012 H 2166.81 -2.55656 -3.28551 0
M  V30 23013 H 2167.35 -3.50705 -1.87753 0
M  V30 23014 H 2164.09 -6.43638 -1.2414 0
M  V30 23015 H 2163.61 -5.4021 -2.6064 0
M  V30 23016 H 2165.28 -5.98038 -2.46899 0
M  V30 23017 N 2165.42 0.552936 -1.47582 0
M  V30 23018 C 2166.36 1.68064 -1.60802 0
M  V30 23019 C 2167.36 1.62599 -0.475175 0
M  V30 23020 O 2168.56 1.67733 -0.653122 0
M  V30 23021 H 2164.94 0.556179 -0.506131 0
M  V30 23022 H 2166.91 1.54051 -2.5556 0
M  V30 23023 C 2165.66 3.06407 -1.64348 0
M  V30 23024 H 2164.98 3.11295 -2.50869 0
M  V30 23025 H 2166.42 3.8499 -1.77647 0
M  V30 23026 C 2164.88 3.34777 -0.377611 0
M  V30 23027 O 2165.41 3.98327 0.519466 0
M  V30 23028 N 2163.62 2.89467 -0.256324 0
M  V30 23029 H 2163.16 2.3793 -0.98727 0
M  V30 23030 H 2163.12 3.0882 0.589696 0
M  V30 23031 N 2166.89 1.35785 0.800009 0
M  V30 23032 C 2167.8 1.31374 1.94366 0
M  V30 23033 C 2168.82 0.217584 1.72634 0
M  V30 23034 O 2170 0.448112 1.96352 0
M  V30 23035 C 2167.06 1.09184 3.29059 0
M  V30 23036 C 2166.12 2.28175 3.63641 0
M  V30 23037 C 2165.36 2.07034 4.91907 0
M  V30 23038 O 2165.58 1.04013 5.60836 0
M  V30 23039 O 2164.51 2.94557 5.249 0
M  V30 23040 H 2168.34 2.27637 2.01035 0
M  V30 23041 H 2165.92 1.16224 0.938743 0
M  V30 23042 H 2167.81 0.98684 4.09682 0
M  V30 23043 H 2166.48 0.159766 3.23305 0
M  V30 23044 H 2165.39 2.44241 2.83367 0
M  V30 23045 H 2166.72 3.19852 3.74106 0
M  V30 23046 N 2168.37 -1.02294 1.19891 0
M  V30 23047 C 2169.34 -2.08864 0.943854 0
M  V30 23048 C 2170.34 -1.6061 -0.0780656 0
M  V30 23049 O 2171.53 -1.73488 0.157319 0
M  V30 23050 C 2168.66 -3.38306 0.419714 0
M  V30 23051 H 2169.85 -2.32924 1.88909 0
M  V30 23052 H 2167.4 -1.18996 1.01339 0
M  V30 23053 H 2168.14 -3.19918 -0.531286 0
M  V30 23054 H 2167.92 -3.74653 1.15661 0
M  V30 23055 H 2169.41 -4.16786 0.26055 0
M  V30 23056 N 2169.85 -1.00378 -1.21499 0
M  V30 23057 C 2171.1 -0.684425 -1.90158 0
M  V30 23058 C 2171.42 0.787132 -1.78407 0
M  V30 23059 O 2170.69 1.5651 -1.17819 0
M  V30 23060 H 2169.27 -0.250163 -0.703866 0
M  V30 23061 H 2171.93 -1.27262 -1.47615 0
M  V30 23062 H 2171.03 -0.956513 -2.97081 0
M  V30 23063 N 2171.33 1.37038 -0.778354 0
M  V30 23064 C 2172.26 2.3278 -0.183215 0
M  V30 23065 C 2173.24 1.56107 0.675623 0
M  V30 23066 O 2174.42 1.84314 0.611726 0
M  V30 23067 C 2171.55 3.40346 0.691526 0
M  V30 23068 C 2170.51 4.27948 -0.0665313 0
M  V30 23069 C 2169.83 5.26584 0.928085 0
M  V30 23070 C 2171.13 5.07137 -1.24936 0
M  V30 23071 H 2172.83 2.82801 -0.983049 0
M  V30 23072 H 2170.37 1.35969 -0.474169 0
M  V30 23073 H 2172.33 4.06306 1.11773 0
M  V30 23074 H 2171.05 2.88866 1.52395 0
M  V30 23075 H 2169.71 3.63528 -0.473586 0
M  V30 23076 H 2169.36 4.71381 1.75524 0
M  V30 23077 H 2169.06 5.86058 0.425371 0
M  V30 23078 H 2170.58 5.95419 1.35309 0
M  V30 23079 H 2172 5.662 -0.899476 0
M  V30 23080 H 2170.39 5.7597 -1.68461 0
M  V30 23081 H 2171.46 4.39425 -2.05021 0
M  V30 23082 N 2172.81 0.529439 1.48441 0
M  V30 23083 C 2173.76 -0.247016 2.31285 0
M  V30 23084 C 2174.75 -0.935988 1.41194 0
M  V30 23085 O 2175.96 -0.860435 1.58103 0
M  V30 23086 H 2172.33 -0.0985275 0.745517 0
M  V30 23087 H 2174.3 0.471286 2.94655 0
M  V30 23088 C 2173.05 -1.28129 3.23231 0
M  V30 23089 H 2172.37 -0.760547 3.92499 0
M  V30 23090 H 2173.81 -1.796 3.84083 0
M  V30 23091 C 2172.27 -2.31462 2.448 0
M  V30 23092 O 2172.8 -3.37888 2.17243 0
M  V30 23093 N 2171.01 -2.04662 2.06305 0
M  V30 23094 H 2170.56 -1.18131 2.28917 0
M  V30 23095 H 2170.51 -2.74022 1.5414 0
M  V30 23096 N 2174.29 -1.55364 0.264547 0
M  V30 23097 C 2175.52 -2.03468 -0.358369 0
M  V30 23098 C 2175.92 -1.14268 -1.50796 0
M  V30 23099 O 2175.27 -0.153128 -1.83061 0
M  V30 23100 C 2175.33 -3.47753 -0.91149 0
M  V30 23101 C 2174.99 -4.56872 0.108107 0
M  V30 23102 C 2175.99 -5.11625 0.923909 0
M  V30 23103 C 2173.67 -5.0173 0.239295 0
M  V30 23104 C 2175.67 -6.09744 1.85719 0
M  V30 23105 C 2173.36 -5.99677 1.17606 0
M  V30 23106 C 2174.35 -6.53564 1.98352 0
M  V30 23107 O 2174.04 -7.49597 2.90446 0
M  V30 23108 H 2173.77 -0.670353 -0.0871916 0
M  V30 23109 H 2176.33 -2.01639 0.39126 0
M  V30 23110 H 2174.56 -3.46788 -1.711 0
M  V30 23111 H 2176.25 -3.79256 -1.44636 0
M  V30 23112 H 2177.01 -4.77789 0.833237 0
M  V30 23113 H 2172.89 -4.59438 -0.379168 0
M  V30 23114 H 2176.44 -6.5173 2.48785 0
M  V30 23115 H 2172.33 -6.32932 1.26759 0
M  V30 23116 H 2173.1 -7.67276 2.85008 0
M  V30 23117 N 2175.76 0.00833021 -1.57598 0
M  V30 23118 C 2176.99 0.705099 -1.94196 0
M  V30 23119 C 2177.4 1.68297 -0.864461 0
M  V30 23120 O 2176.74 1.82948 0.166002 0
M  V30 23121 C 2176.81 1.49958 -3.2673 0
M  V30 23122 C 2176.47 0.684223 -4.51849 0
M  V30 23123 C 2177.47 -0.0245096 -5.19894 0
M  V30 23124 C 2175.15 0.632648 -4.983 0
M  V30 23125 C 2177.15 -0.773893 -6.32684 0
M  V30 23126 C 2174.83 -0.120466 -6.10981 0
M  V30 23127 C 2175.83 -0.822478 -6.7803 0
M  V30 23128 O 2175.52 -1.56332 -7.88553 0
M  V30 23129 H 2175.25 0.201893 -0.645148 0
M  V30 23130 H 2177.81 -0.0363833 -2.05368 0
M  V30 23131 H 2176.04 2.28536 -3.11943 0
M  V30 23132 H 2177.72 2.08091 -3.48501 0
M  V30 23133 H 2178.49 0.0062356 -4.85 0
M  V30 23134 H 2174.37 1.16859 -4.45943 0
M  V30 23135 H 2177.91 -1.32237 -6.84952 0
M  V30 23136 H 2173.81 -0.153062 -6.45319 0
M  V30 23137 H 2174.58 -1.47916 -8.05024 0
M  V30 23138 N 2177.24 1.55075 0.280956 0
M  V30 23139 C 2178.49 1.75566 1.01511 0
M  V30 23140 C 2178.82 0.55079 1.86226 0
M  V30 23141 O 2178.1 -0.451807 1.8918 0
M  V30 23142 C 2178.38 3.05625 1.90434 0
M  V30 23143 C 2178.23 4.36452 1.08766 0
M  V30 23144 C 2179.55 3.31672 2.89277 0
M  V30 23145 H 2176.67 0.638765 0.367626 0
M  V30 23146 H 2179.31 1.87803 0.28812 0
M  V30 23147 H 2177.46 2.95324 2.5242 0
M  V30 23148 H 2179.13 4.587 0.489115 0
M  V30 23149 H 2177.38 4.32035 0.390884 0
M  V30 23150 H 2178.05 5.23764 1.74285 0
M  V30 23151 H 2180.52 3.41715 2.37424 0
M  V30 23152 H 2179.4 4.23955 3.48645 0
M  V30 23153 H 2179.66 2.50928 3.63988 0
M  V30 23154 N 2178.72 -0.545102 1.47873 0
M  V30 23155 C 2180.14 -0.872206 1.33659 0
M  V30 23156 C 2180.34 -1.98676 0.336181 0
M  V30 23157 O 2179.39 -2.51279 -0.248001 0
M  V30 23158 C 2180.7 -1.254 2.73304 0
M  V30 23159 C 2182.25 -1.36475 2.8168 0
M  V30 23160 C 2182.73 -1.78005 4.21993 0
M  V30 23161 N 2184.22 -1.85134 4.24593 0
M  V30 23162 C 2184.95 -2.18622 5.30087 0
M  V30 23163 N 2184.45 -2.50639 6.45873 0
M  V30 23164 N 2186.24 -2.19499 5.17471 0
M  V30 23165 H 2178.39 0.190536 2.11544 0
M  V30 23166 H 2180.66 0.0225858 0.947731 0
M  V30 23167 H 2180.36 -0.508782 3.48 0
M  V30 23168 H 2180.24 -2.20752 3.05857 0
M  V30 23169 H 2182.62 -2.10076 2.07249 0
M  V30 23170 H 2182.7 -0.392814 2.52766 0
M  V30 23171 H 2182.35 -1.04969 4.96935 0
M  V30 23172 H 2182.28 -2.76222 4.4834 0
M  V30 23173 H 2184.77 -1.62729 3.41068 0
M  V30 23174 H 2185.08 -2.75253 7.22119 0
M  V30 23175 H 2183.43 -2.48192 6.49173 0
M  V30 23176 H 2186.62 -1.93934 4.26037 0
M  V30 23177 H 2186.79 -2.45267 5.9979 0
M  V30 23178 N 2180.2 -1.36208 -0.792797 0
M  V30 23179 C 2181.13 -1.32936 -1.91964 0
M  V30 23180 C 2182.11 -0.2014 -1.68903 0
M  V30 23181 O 2183.29 -0.39852 -1.90067 0
M  V30 23182 C 2180.42 -1.11449 -3.28932 0
M  V30 23183 C 2179.38 -2.21033 -3.66508 0
M  V30 23184 C 2178.7 -1.84693 -5.01789 0
M  V30 23185 C 2180 -3.63096 -3.75444 0
M  V30 23186 H 2181.7 -2.27226 -1.94958 0
M  V30 23187 H 2179.24 -1.09381 -0.936582 0
M  V30 23188 H 2181.2 -1.07796 -4.07379 0
M  V30 23189 H 2179.92 -0.136086 -3.26316 0
M  V30 23190 H 2178.58 -2.23806 -2.90356 0
M  V30 23191 H 2178.23 -0.854356 -4.95691 0
M  V30 23192 H 2177.93 -2.58059 -5.27901 0
M  V30 23193 H 2179.45 -1.8259 -5.82661 0
M  V30 23194 H 2180.87 -3.62569 -4.44091 0
M  V30 23195 H 2179.26 -4.35339 -4.13037 0
M  V30 23196 H 2180.33 -3.98247 -2.76636 0
M  V30 23197 N 2181.68 1.01656 -1.20431 0
M  V30 23198 C 2182.92 1.74663 -1.00874 0
M  V30 23199 C 2183.24 1.9012 0.459746 0
M  V30 23200 O 2184.44 2.6022 0.774445 0
M  V30 23201 C 2182.9 3.14147 -1.75612 0
M  V30 23202 C 2182.51 3.06703 -3.26554 0
M  V30 23203 C 2184.25 3.91364 -1.64422 0
M  V30 23204 C 2182.16 4.41194 -3.93829 0
M  V30 23205 H 2181.09 0.654809 -0.37382 0
M  V30 23206 H 2183.74 1.13672 -1.44052 0
M  V30 23207 H 2182.12 3.7568 -1.25221 0
M  V30 23208 H 2183.3 2.54477 -3.84159 0
M  V30 23209 H 2181.61 2.42979 -3.38157 0
M  V30 23210 H 2184.21 4.90866 -2.12026 0
M  V30 23211 H 2184.55 4.11947 -0.600434 0
M  V30 23212 H 2185.08 3.36459 -2.12227 0
M  V30 23213 H 2181.82 4.25814 -4.9836 0
M  V30 23214 H 2181.34 4.93427 -3.41013 0
M  V30 23215 H 2183.02 5.10038 -3.98084 0
M  V30 23216 N 2183.15 1.01021 1.20965 0
M  V30 23217 C 2184.43 0.611192 1.85806 0
M  V30 23218 C 2184.81 -0.910997 1.90431 0
M  V30 23219 O 2184.16 -1.80009 1.40744 0
M  V30 23220 C 2184.37 1.25159 3.25785 0
M  V30 23221 C 2185.72 1.36299 4.02129 0
M  V30 23222 O 2186.74 1.20731 3.35116 0
M  V30 23223 O 2185.6 1.61393 5.22125 0
M  V30 23224 H 2182.69 0.210041 0.799882 0
M  V30 23225 H 2185.24 1.10718 1.28606 0
M  V30 23226 H 2184.01 2.292 3.17148 0
M  V30 23227 H 2183.63 0.742281 3.9061 0
M  V30 23228 N 2184.63 -1.36623 0.78561 0
M  V30 23229 C 2185.86 -2.036 0.368068 0
M  V30 23230 C 2186.27 -1.5924 -1.01429 0
M  V30 23231 O 2185.63 -0.780055 -1.64989 0
M  V30 23232 C 2185.68 -3.59077 0.417857 0
M  V30 23233 O 2185.4 -4.01817 1.7457 0
M  V30 23234 C 2186.9 -4.43299 -0.00953716 0
M  V30 23235 H 2184.12 -0.653506 0.152221 0
M  V30 23236 H 2186.67 -1.74677 1.0634 0
M  V30 23237 H 2184.82 -3.86722 -0.229019 0
M  V30 23238 H 2185.24 -4.96395 1.69389 0
M  V30 23239 H 2186.71 -5.51947 0.0764418 0
M  V30 23240 H 2187.19 -4.26175 -1.06169 0
M  V30 23241 H 2187.79 -4.20907 0.60968 0
M  V30 23242 N 2186.11 -0.537304 -1.48158 0
M  V30 23243 C 2187.04 0.210088 -2.32553 0
M  V30 23244 C 2188.02 0.928052 -1.42552 0
M  V30 23245 O 2189.21 0.912405 -1.71432 0
M  V30 23246 C 2186.34 1.25296 -3.23911 0
M  V30 23247 C 2185.29 0.65269 -4.22994 0
M  V30 23248 C 2184.62 1.79875 -5.03537 0
M  V30 23249 C 2185.92 -0.380445 -5.20913 0
M  V30 23250 H 2187.61 -0.494444 -2.95289 0
M  V30 23251 H 2185.16 -0.239229 -1.41999 0
M  V30 23252 H 2187.11 1.78383 -3.81782 0
M  V30 23253 H 2185.83 1.98717 -2.59189 0
M  V30 23254 H 2184.49 0.143286 -3.6632 0
M  V30 23255 H 2184.14 2.52152 -4.35234 0
M  V30 23256 H 2183.84 1.40299 -5.70605 0
M  V30 23257 H 2185.36 2.33326 -5.64262 0
M  V30 23258 H 2186.78 0.0636068 -5.73265 0
M  V30 23259 H 2185.17 -0.693989 -5.96074 0
M  V30 23260 H 2186.24 -1.28359 -4.67602 0
M  V30 23261 N 2187.59 1.55221 -0.272782 0
M  V30 23262 C 2188.52 2.25408 0.609392 0
M  V30 23263 C 2189.5 1.2434 1.16076 0
M  V30 23264 O 2190.68 1.53054 1.19533 0
M  V30 23265 C 2187.81 2.97338 1.79464 0
M  V30 23266 C 2186.77 4.05315 1.37491 0
M  V30 23267 C 2186.09 4.64808 2.64307 0
M  V30 23268 C 2187.39 5.19636 0.526828 0
M  V30 23269 H 2189.09 2.9939 0.0240678 0
M  V30 23270 H 2186.63 1.43996 0.0101357 0
M  V30 23271 H 2188.59 3.45149 2.41765 0
M  V30 23272 H 2187.31 2.20887 2.40576 0
M  V30 23273 H 2185.97 3.58312 0.775106 0
M  V30 23274 H 2185.62 3.85027 3.23672 0
M  V30 23275 H 2185.32 5.37713 2.36935 0
M  V30 23276 H 2186.84 5.15366 3.2746 0
M  V30 23277 H 2188.26 5.63513 1.05478 0
M  V30 23278 H 2186.65 5.9909 0.348095 0
M  V30 23279 H 2187.72 4.82761 -0.454948 0
M  V30 23280 N 2189.07 2.77022e-05 1.576 0
M  V30 23281 C 2190.03 -0.976217 2.07371 0
M  V30 23282 C 2191.03 -1.27246 0.983113 0
M  V30 23283 O 2192.22 -1.21764 1.24576 0
M  V30 23284 C 2189.35 -2.30112 2.51518 0
M  V30 23285 H 2190.54 -0.545707 2.94893 0
M  V30 23286 H 2188.1 -0.247444 1.54329 0
M  V30 23287 H 2188.83 -2.77852 1.67239 0
M  V30 23288 H 2188.62 -2.09931 3.31167 0
M  V30 23289 H 2190.11 -3.00144 2.9035 0
M  V30 23290 N 2190.54 -1.55222 -0.272728 0
M  V30 23291 C 2191.51 -1.87346 -1.32038 0
M  V30 23292 C 2192.51 -0.748055 -1.4234 0
M  V30 23293 O 2193.7 -1.01623 -1.41487 0
M  V30 23294 C 2190.83 -2.07898 -2.70169 0
M  V30 23295 H 2192.02 -2.80999 -1.04784 0
M  V30 23296 H 2189.58 -1.47718 -0.510804 0
M  V30 23297 H 2190.31 -1.16628 -3.02603 0
M  V30 23298 H 2190.1 -2.89837 -2.64077 0
M  V30 23299 H 2191.59 -2.34024 -3.45865 0
M  V30 23300 N 2192.02 0.537252 -1.4816 0
M  V30 23301 C 2193.25 1.32317 -1.59709 0
M  V30 23302 C 2193.67 1.86365 -0.254891 0
M  V30 23303 O 2193.03 1.64026 0.772349 0
M  V30 23304 C 2193.08 2.45501 -2.64125 0
M  V30 23305 O 2192.18 3.48325 -2.2078 0
M  V30 23306 H 2191.52 0.392195 -0.535798 0
M  V30 23307 H 2194.05 0.647233 -1.94093 0
M  V30 23308 H 2194.06 2.9179 -2.85171 0
M  V30 23309 H 2192.74 2.05522 -3.61571 0
M  V30 23310 H 2191.32 3.08204 -2.09917 0
M  V30 23311 N 2193.5 1.36626 0.785562 0
M  V30 23312 C 2194.75 1.30398 1.5388 0
M  V30 23313 C 2195.06 -0.113418 1.95271 0
M  V30 23314 O 2196.27 -0.298094 2.69859 0
M  V30 23315 C 2194.72 2.28807 2.77804 0
M  V30 23316 C 2194.33 3.76004 2.43568 0
M  V30 23317 C 2196.08 2.31564 3.55779 0
M  V30 23318 C 2193.98 4.66179 3.6391 0
M  V30 23319 H 2192.91 0.484576 0.57767 0
M  V30 23320 H 2195.56 1.6201 0.861677 0
M  V30 23321 H 2193.95 1.90194 3.47336 0
M  V30 23322 H 2195.12 4.23375 1.81908 0
M  V30 23323 H 2193.44 3.76059 1.78797 0
M  V30 23324 H 2196.03 2.96144 4.452 0
M  V30 23325 H 2196.38 1.32527 3.94642 0
M  V30 23326 H 2196.91 2.68814 2.9323 0
M  V30 23327 H 2193.65 5.66293 3.3014 0
M  V30 23328 H 2193.17 4.23522 4.24722 0
M  V30 23329 H 2194.85 4.82639 4.30892 0
M  V30 23330 N 2194.98 -1.01016 1.20969 0
M  V30 23331 C 2195.91 -2.09833 0.922096 0
M  V30 23332 C 2196.92 -1.62536 -0.092682 0
M  V30 23333 O 2198.11 -1.77957 0.139159 0
M  V30 23334 C 2195.21 -3.3696 0.362064 0
M  V30 23335 C 2194.39 -4.13366 1.42993 0
M  V30 23336 C 2193.44 -5.18788 0.880067 0
M  V30 23337 O 2192.47 -5.4734 1.56229 0
M  V30 23338 N 2193.67 -5.79686 -0.307294 0
M  V30 23339 H 2196.44 -2.3509 1.85884 0
M  V30 23340 H 2194 -1.17458 1.11424 0
M  V30 23341 H 2195.99 -4.04695 -0.0200762 0
M  V30 23342 H 2194.56 -3.08902 -0.479382 0
M  V30 23343 H 2193.78 -3.40509 1.98614 0
M  V30 23344 H 2195.07 -4.61192 2.14893 0
M  V30 23345 H 2194.47 -5.58834 -0.878698 0
M  V30 23346 H 2193.02 -6.48738 -0.631001 0
M  V30 23347 N 2196.46 -1.01661 -1.20428 0
M  V30 23348 C 2197.87 -0.737512 -1.71516 0
M  V30 23349 C 2198.22 0.743941 -1.81549 0
M  V30 23350 O 2197.34 1.58058 -1.47806 0
M  V30 23351 C 2197.94 -1.33212 -3.11513 0
M  V30 23352 C 2196.5 -1.10189 -3.5991 0
M  V30 23353 C 2195.64 -1.4378 -2.37113 0
M  V30 23354 H 2198.6 -1.18608 -1.05441 0
M  V30 23355 H 2198.62 -0.722701 -3.73574 0
M  V30 23356 H 2198.13 -2.41034 -3.04178 0
M  V30 23357 H 2196.23 -0.0413411 -3.72577 0
M  V30 23358 H 2196.34 -1.78195 -4.44728 0
M  V30 23359 H 2194.71 -0.856821 -2.39856 0
M  V30 23360 H 2195.49 -2.52658 -2.3242 0
M  V30 23361 N 2197.93 1.36205 -0.792844 0
M  V30 23362 C 2198.87 2.28699 -0.15151 0
M  V30 23363 C 2199.88 1.4964 0.641235 0
M  V30 23364 O 2201.07 1.7204 0.475854 0
M  V30 23365 C 2198.17 3.29118 0.808366 0
M  V30 23366 C 2197.34 4.37352 0.0649434 0
M  V30 23367 C 2196.4 5.17713 0.941267 0
M  V30 23368 O 2195.43 5.67812 0.397252 0
M  V30 23369 N 2196.63 5.34484 2.26511 0
M  V30 23370 H 2199.39 2.84377 -0.946032 0
M  V30 23371 H 2196.95 1.48407 -0.647058 0
M  V30 23372 H 2198.95 3.79767 1.39853 0
M  V30 23373 H 2197.52 2.74055 1.50375 0
M  V30 23374 H 2196.74 3.8782 -0.706324 0
M  V30 23375 H 2198.02 5.06824 -0.447936 0
M  V30 23376 H 2197.42 4.95401 2.73119 0
M  V30 23377 H 2195.98 5.88364 2.80483 0
M  V30 23378 N 2199.41 0.545154 1.47871 0
M  V30 23379 C 2200.66 0.016646 2.02793 0
M  V30 23380 C 2200.99 -1.32487 1.41989 0
M  V30 23381 O 2200.27 -1.85927 0.571078 0
M  V30 23382 C 2200.55 -0.0892662 3.59989 0
M  V30 23383 C 2200.4 1.27849 4.31248 0
M  V30 23384 C 2201.72 -0.808648 4.32607 0
M  V30 23385 H 2198.84 0.00752331 0.736962 0
M  V30 23386 H 2201.48 0.705116 1.76432 0
M  V30 23387 H 2199.63 -0.675614 3.8258 0
M  V30 23388 H 2201.3 1.90711 4.20032 0
M  V30 23389 H 2199.55 1.85639 3.92072 0
M  V30 23390 H 2200.22 1.15722 5.39734 0
M  V30 23391 H 2202.69 -0.310919 4.14937 0
M  V30 23392 H 2201.57 -0.851686 5.42252 0
M  V30 23393 H 2201.83 -1.86222 4.00966 0
M  V30 23394 N 2200.89 -1.55074 0.28101 0
M  V30 23395 C 2202.12 -2.04133 -0.337257 0
M  V30 23396 C 2202.53 -1.15915 -1.49028 0
M  V30 23397 O 2201.89 -0.180491 -1.81605 0
M  V30 23398 C 2201.94 -3.52248 -0.812644 0
M  V30 23399 O 2201.66 -4.37109 0.294464 0
M  V30 23400 C 2203.16 -4.17218 -1.49812 0
M  V30 23401 H 2200.38 -0.666665 -0.0761521 0
M  V30 23402 H 2202.93 -2.00249 0.414822 0
M  V30 23403 H 2201.08 -3.56557 -1.5148 0
M  V30 23404 H 2201.5 -5.24451 -0.0720403 0
M  V30 23405 H 2202.97 -5.22441 -1.78211 0
M  V30 23406 H 2203.45 -3.65745 -2.43161 0
M  V30 23407 H 2204.05 -4.16929 -0.839669 0
M  V30 23408 N 2202.37 -0.00838561 -1.57598 0
M  V30 23409 C 2203.62 0.673935 -1.90108 0
M  V30 23410 C 2203.93 1.74469 -0.884306 0
M  V30 23411 O 2205.14 2.48222 -1.09992 0
M  V30 23412 C 2203.59 1.24989 -3.37499 0
M  V30 23413 C 2203.2 0.213522 -4.47491 0
M  V30 23414 C 2204.95 1.90992 -3.79107 0
M  V30 23415 C 2202.85 0.799947 -5.85965 0
M  V30 23416 H 2201.78 0.255482 -0.709398 0
M  V30 23417 H 2204.43 -0.0703015 -1.83365 0
M  V30 23418 H 2202.82 2.04507 -3.39106 0
M  V30 23419 H 2203.99 -0.557676 -4.57413 0
M  V30 23420 H 2202.3 -0.346547 -4.14955 0
M  V30 23421 H 2204.9 2.35787 -4.79905 0
M  V30 23422 H 2205.24 2.74401 -3.13065 0
M  V30 23423 H 2205.78 1.18196 -3.79835 0
M  V30 23424 H 2202.52 0.00445186 -6.555 0
M  V30 23425 H 2202.04 1.54011 -5.7969 0
M  V30 23426 H 2203.72 1.29604 -6.33886 0
M  V30 23427 N 2203.85 1.55365 0.264492 0
M  V30 23428 C 2205.08 1.80145 1.0115 0
M  V30 23429 C 2205.49 0.579285 1.80114 0
M  V30 23430 O 2204.83 -0.461288 1.77814 0
M  V30 23431 C 2204.89 2.97997 2.01093 0
M  V30 23432 C 2204.55 4.34709 1.40988 0
M  V30 23433 C 2205.55 5.13373 0.821226 0
M  V30 23434 C 2203.24 4.8138 1.43452 0
M  V30 23435 C 2205.23 6.36848 0.265227 0
M  V30 23436 C 2202.92 6.04808 0.874665 0
M  V30 23437 C 2203.92 6.8238 0.291026 0
M  V30 23438 O 2203.6 8.03479 -0.260235 0
M  V30 23439 H 2203.34 0.603731 0.304114 0
M  V30 23440 H 2205.89 2.03226 0.298053 0
M  V30 23441 H 2204.12 2.70628 2.7622 0
M  V30 23442 H 2205.81 3.10025 2.61991 0
M  V30 23443 H 2206.57 4.78443 0.794819 0
M  V30 23444 H 2202.45 4.21005 1.87819 0
M  V30 23445 H 2206 6.97339 -0.190959 0
M  V30 23446 H 2201.89 6.39218 0.89834 0
M  V30 23447 H 2202.66 8.18362 -0.150409 0
M  V30 23448 N 2205.33 -0.529387 1.48443 0
M  V30 23449 C 2206.28 -1.63011 1.5941 0
M  V30 23450 C 2207.26 -1.54444 0.451193 0
M  V30 23451 O 2208.45 -1.62455 0.702664 0
M  V30 23452 C 2205.58 -3.01729 1.63752 0
M  V30 23453 C 2204.67 -3.15397 2.83523 0
M  V30 23454 N 2205.06 -2.99037 4.07934 0
M  V30 23455 C 2203.36 -3.46452 2.80868 0
M  V30 23456 C 2204.06 -3.16137 4.88295 0
M  V30 23457 N 2203.03 -3.43739 4.21123 0
M  V30 23458 H 2206.83 -1.48973 2.53346 0
M  V30 23459 H 2204.35 -0.73486 1.44823 0
M  V30 23460 H 2206.35 -3.80798 1.69702 0
M  V30 23461 H 2205.01 -3.16858 0.70932 0
M  V30 23462 H 2206.02 -2.75788 4.38362 0
M  V30 23463 H 2202.69 -3.67935 1.97307 0
M  V30 23464 H 2204.08 -3.08221 5.97034 0
M  V30 23465 N 2206.8 -1.37041 -0.778305 0
M  V30 23466 C 2208.05 -1.33089 -1.53814 0
M  V30 23467 C 2208.4 0.0860008 -1.92208 0
M  V30 23468 O 2207.7 1.04313 -1.60715 0
M  V30 23469 C 2207.89 -2.19773 -2.81842 0
M  V30 23470 C 2207.72 -3.69749 -2.55961 0
M  V30 23471 C 2206.49 -4.38883 -2.5042 0
M  V30 23472 C 2208.69 -4.62762 -2.24402 0
M  V30 23473 N 2206.67 -5.74437 -2.16554 0
M  V30 23474 C 2208.04 -5.86645 -2.00619 0
M  V30 23475 C 2210.1 -4.51213 -2.10502 0
M  V30 23476 C 2208.8 -7.00274 -1.64342 0
M  V30 23477 C 2210.83 -5.64721 -1.75624 0
M  V30 23478 C 2210.19 -6.8765 -1.52697 0
M  V30 23479 H 2206.29 -0.542289 -0.563424 0
M  V30 23480 H 2208.87 -1.722 -0.908586 0
M  V30 23481 H 2207.04 -1.82889 -3.42646 0
M  V30 23482 H 2208.77 -2.07128 -3.47678 0
M  V30 23483 H 2205.53 -3.9181 -2.66049 0
M  V30 23484 H 2205.95 -6.46057 -2.02336 0
M  V30 23485 H 2210.59 -3.5675 -2.26913 0
M  V30 23486 H 2208.31 -7.94678 -1.46669 0
M  V30 23487 H 2211.9 -5.57754 -1.65536 0
M  V30 23488 H 2210.78 -7.73994 -1.26106 0
M  V30 23489 N 2208.28 1.00373 -1.21503 0
M  V30 23490 C 2209.56 1.71435 -0.941775 0
M  V30 23491 C 2209.94 2.03915 0.546078 0
M  V30 23492 O 2209.29 1.71387 1.51125 0
M  V30 23493 C 2209.5 2.97286 -1.82817 0
M  V30 23494 C 2210.84 3.70289 -2.07777 0
M  V30 23495 O 2211.87 3.0727 -1.80176 0
M  V30 23496 O 2210.73 4.83642 -2.54465 0
M  V30 23497 H 2207.82 0.747756 -0.353256 0
M  V30 23498 H 2210.37 1.06105 -1.32438 0
M  V30 23499 H 2209.14 2.69704 -2.83506 0
M  V30 23500 H 2208.76 3.70356 -1.44646 0
M  V30 23501 N 2209.76 1.02298 1.19887 0
M  V30 23502 C 2210.69 0.619214 2.2514 0
M  V30 23503 C 2211.67 -0.368886 1.66052 0
M  V30 23504 O 2212.86 -0.252907 1.92546 0
M  V30 23505 C 2209.99 -0.0368173 3.4728 0
M  V30 23506 C 2208.94 0.872939 4.19003 0
M  V30 23507 C 2208.27 0.0823342 5.34637 0
M  V30 23508 C 2209.57 2.18395 4.74448 0
M  V30 23509 H 2211.26 1.49907 2.59168 0
M  V30 23510 H 2208.81 0.722244 1.24578 0
M  V30 23511 H 2210.76 -0.330884 4.20099 0
M  V30 23512 H 2209.48 -0.951435 3.12434 0
M  V30 23513 H 2208.14 1.15111 3.48059 0
M  V30 23514 H 2207.79 -0.834133 4.96036 0
M  V30 23515 H 2207.49 0.688252 5.83555 0
M  V30 23516 H 2209.01 -0.20513 6.10255 0
M  V30 23517 H 2210.43 1.95182 5.39052 0
M  V30 23518 H 2208.82 2.74128 5.33829 0
M  V30 23519 H 2209.89 2.84263 3.92839 0
M  V30 23520 N 2211.24 -1.35782 0.800057 0
M  V30 23521 C 2212.65 -1.81461 0.439174 0
M  V30 23522 C 2213 -1.66487 -1.0381 0
M  V30 23523 O 2212.12 -1.1918 -1.80624 0
M  V30 23524 C 2212.72 -3.29452 0.790372 0
M  V30 23525 C 2211.28 -3.73299 0.482177 0
M  V30 23526 C 2210.43 -2.57882 1.01943 0
M  V30 23527 H 2213.38 -1.23853 0.992276 0
M  V30 23528 H 2213.4 -3.80404 0.0854346 0
M  V30 23529 H 2212.91 -3.40319 1.8656 0
M  V30 23530 H 2211.01 -3.67986 -0.584587 0
M  V30 23531 H 2211.12 -4.68328 1.01023 0
M  V30 23532 H 2209.49 -2.50834 0.442087 0
M  V30 23533 H 2210.27 -2.71529 2.10064 0
M  V30 23534 N 2212.72 -0.552988 -1.4758 0
M  V30 23535 C 2213.65 0.234493 -2.27997 0
M  V30 23536 C 2214.66 0.883297 -1.36754 0
M  V30 23537 O 2215.85 0.75786 -1.61613 0
M  V30 23538 C 2212.95 1.3493 -3.10881 0
M  V30 23539 C 2212.12 0.798083 -4.30057 0
M  V30 23540 C 2211.18 1.79686 -4.9457 0
M  V30 23541 O 2210.21 1.34465 -5.53089 0
M  V30 23542 N 2211.41 3.13006 -4.88884 0
M  V30 23543 H 2214.17 -0.455307 -2.96221 0
M  V30 23544 H 2211.74 -0.388789 -1.57162 0
M  V30 23545 H 2213.73 2.0161 -3.50907 0
M  V30 23546 H 2212.3 1.9424 -2.44928 0
M  V30 23547 H 2211.52 -0.0453772 -3.94174 0
M  V30 23548 H 2212.81 0.409084 -5.07153 0
M  V30 23549 H 2212.2 3.52394 -4.42532 0
M  V30 23550 H 2210.76 3.75256 -5.32941 0
M  V30 23551 N 2214.19 1.54923 -0.28923 0
M  V30 23552 C 2215.42 2.04309 0.326427 0
M  V30 23553 C 2215.84 1.16703 1.48411 0
M  V30 23554 O 2215.19 0.190119 1.81507 0
M  V30 23555 C 2215.24 3.52674 0.793952 0
M  V30 23556 O 2214.97 4.36947 -0.317641 0
M  V30 23557 C 2216.47 4.18007 1.47598 0
M  V30 23558 H 2213.69 0.667059 0.0726155 0
M  V30 23559 H 2216.23 2.00026 -0.425436 0
M  V30 23560 H 2214.39 3.57355 1.49587 0
M  V30 23561 H 2214.8 5.24481 0.0442264 0
M  V30 23562 H 2216.27 5.23379 1.75438 0
M  V30 23563 H 2216.75 3.67029 2.41218 0
M  V30 23564 H 2217.36 4.17368 0.817547 0
M  V30 23565 N 2215.67 0.0167433 1.57591 0
M  V30 23566 C 2216.6 -0.96782 2.12498 0
M  V30 23567 C 2217.58 -1.3475 1.03809 0
M  V30 23568 O 2218.77 -1.4283 1.31579 0
M  V30 23569 C 2215.9 -2.25426 2.64198 0
M  V30 23570 C 2214.85 -2.0157 3.77563 0
M  V30 23571 C 2214.18 -3.36372 4.15642 0
M  V30 23572 C 2215.48 -1.36481 5.04153 0
M  V30 23573 H 2217.17 -0.510591 2.95014 0
M  V30 23574 H 2214.72 -0.244156 1.41915 0
M  V30 23575 H 2216.67 -2.94672 3.01241 0
M  V30 23576 H 2215.39 -2.73292 1.78826 0
M  V30 23577 H 2214.05 -1.34745 3.40939 0
M  V30 23578 H 2213.7 -3.81973 3.27269 0
M  V30 23579 H 2213.4 -3.2122 4.92028 0
M  V30 23580 H 2214.93 -4.06907 4.55258 0
M  V30 23581 H 2216.34 -1.95708 5.38861 0
M  V30 23582 H 2214.74 -1.31765 5.85455 0
M  V30 23583 H 2215.81 -0.336134 4.83734 0
M  V30 23584 N 2217.15 -1.55503 -0.256249 0
M  V30 23585 C 2218.08 -1.85964 -1.33978 0
M  V30 23586 C 2219.1 -0.745237 -1.44741 0
M  V30 23587 O 2220.28 -1.02327 -1.46258 0
M  V30 23588 C 2217.38 -2.02247 -2.71936 0
M  V30 23589 C 2216.56 -3.33038 -2.83556 0
M  V30 23590 C 2215.62 -3.39179 -4.02298 0
M  V30 23591 O 2214.64 -4.12451 -3.92266 0
M  V30 23592 N 2215.84 -2.67793 -5.15041 0
M  V30 23593 H 2218.61 -2.79492 -1.08186 0
M  V30 23594 H 2216.17 -1.55625 -0.446361 0
M  V30 23595 H 2218.16 -2.03708 -3.49693 0
M  V30 23596 H 2216.73 -1.15507 -2.90477 0
M  V30 23597 H 2215.95 -3.43974 -1.92549 0
M  V30 23598 H 2217.24 -4.19263 -2.88263 0
M  V30 23599 H 2216.64 -2.07977 -5.26082 0
M  V30 23600 H 2215.2 -2.74957 -5.90967 0
M  V30 23601 N 2218.63 0.521507 -1.48721 0
M  V30 23602 C 2219.91 1.28278 -1.47662 0
M  V30 23603 C 2220.29 2.10216 -0.192957 0
M  V30 23604 O 2219.63 2.13081 0.825155 0
M  V30 23605 C 2219.84 2.157 -2.74362 0
M  V30 23606 C 2221.19 2.75563 -3.23032 0
M  V30 23607 O 2222.22 2.25982 -2.75337 0
M  V30 23608 O 2221.07 3.65771 -4.06046 0
M  V30 23609 H 2218.17 0.579411 -0.590095 0
M  V30 23610 H 2220.71 0.537464 -1.60964 0
M  V30 23611 H 2219.49 1.54993 -3.59295 0
M  V30 23612 H 2219.11 2.97463 -2.63821 0
M  V30 23613 N 2220.11 1.37452 0.771027 0
M  V30 23614 C 2221.35 1.32896 1.53187 0
M  V30 23615 C 2221.69 -0.086217 1.94009 0
M  V30 23616 O 2220.96 -1.0437 1.64125 0
M  V30 23617 C 2221.24 2.26873 2.79644 0
M  V30 23618 C 2221.1 3.77173 2.45072 0
M  V30 23619 C 2222.42 2.19284 3.81579 0
M  V30 23620 H 2219.53 0.484074 0.555735 0
M  V30 23621 H 2222.18 1.68158 0.884463 0
M  V30 23622 H 2220.33 1.96932 3.34888 0
M  V30 23623 H 2222 4.17714 1.95737 0
M  V30 23624 H 2220.24 3.95707 1.7776 0
M  V30 23625 H 2220.91 4.38365 3.3547 0
M  V30 23626 H 2223.39 2.45677 3.3583 0
M  V30 23627 H 2222.26 2.87179 4.67782 0
M  V30 23628 H 2222.53 1.18599 4.25895 0
M  V30 23629 N 2221.58 -0.997276 1.22033 0
M  V30 23630 C 2222.83 -1.73276 1.04019 0
M  V30 23631 C 2223.15 -1.90285 -0.426222 0
M  V30 23632 O 2222.42 -1.45933 -1.30691 0
M  V30 23633 H 2221 -0.641993 0.381908 0
M  V30 23634 H 2223.67 -1.20135 1.53472 0
M  V30 23635 H 2222.76 -2.72893 1.51446 0
M  V30 23636 N 2223.06 -1.02932 -1.19343 0
M  V30 23637 C 2224.31 -0.724607 -1.88663 0
M  V30 23638 C 2224.63 0.749112 -1.80037 0
M  V30 23639 O 2223.9 1.53976 -1.21113 0
M  V30 23640 H 2222.48 -0.265037 -0.698401 0
M  V30 23641 H 2225.14 -1.30365 -1.44883 0
M  V30 23642 H 2224.24 -1.01931 -2.94985 0
M  V30 23643 N 2224.54 1.35356 -0.807246 0
M  V30 23644 C 2225.79 1.99475 -0.397629 0
M  V30 23645 C 2226.14 1.62885 1.02403 0
M  V30 23646 O 2225.43 0.882312 1.70076 0
M  V30 23647 C 2225.63 3.5361 -0.519098 0
M  V30 23648 C 2225.46 4.05174 -1.95101 0
M  V30 23649 C 2224.23 4.34498 -2.57952 0
M  V30 23650 C 2226.43 4.23667 -2.91565 0
M  V30 23651 N 2224.41 4.71996 -3.92547 0
M  V30 23652 C 2225.78 4.64169 -4.11032 0
M  V30 23653 C 2227.83 4.05878 -2.88388 0
M  V30 23654 C 2226.54 4.88742 -5.27754 0
M  V30 23655 C 2228.56 4.31607 -4.04313 0
M  V30 23656 C 2227.92 4.72381 -5.22528 0
M  V30 23657 H 2224.02 0.757736 -0.193287 0
M  V30 23658 H 2226.61 1.64048 -1.04863 0
M  V30 23659 H 2224.78 3.88266 0.101911 0
M  V30 23660 H 2226.51 4.04613 -0.0840032 0
M  V30 23661 H 2223.27 4.24841 -2.09302 0
M  V30 23662 H 2223.69 4.95003 -4.61845 0
M  V30 23663 H 2228.33 3.73495 -1.98144 0
M  V30 23664 H 2226.05 5.19997 -6.1857 0
M  V30 23665 H 2229.64 4.19395 -4.03236 0
M  V30 23666 H 2228.52 4.91902 -6.10739 0
M  V30 23667 N 2226.02 0.560807 1.47284 0
M  V30 23668 C 2226.93 -0.187913 2.33846 0
M  V30 23669 C 2227.94 -0.908267 1.48413 0
M  V30 23670 O 2229.12 -0.876357 1.81334 0
M  V30 23671 C 2226.19 -1.20245 3.2518 0
M  V30 23672 C 2225.25 -0.489133 4.26504 0
M  V30 23673 C 2224.48 -1.45533 5.13474 0
M  V30 23674 O 2224.7 -2.69041 5.02964 0
M  V30 23675 O 2223.64 -0.977859 5.93904 0
M  V30 23676 H 2227.46 0.52223 2.99176 0
M  V30 23677 H 2225.05 0.321389 1.45902 0
M  V30 23678 H 2226.93 -1.78799 3.81587 0
M  V30 23679 H 2225.6 -1.89445 2.62474 0
M  V30 23680 H 2224.51 0.137693 3.73847 0
M  V30 23681 H 2225.84 0.161485 4.91935 0
M  V30 23682 N 2227.5 -1.54768 0.297442 0
M  V30 23683 C 2228.44 -2.24834 -0.596011 0
M  V30 23684 C 2229.44 -1.2531 -1.1399 0
M  V30 23685 O 2230.64 -1.43172 -1.09095 0
M  V30 23686 H 2227.02 -0.721849 -0.210802 0
M  V30 23687 H 2228.99 -2.98395 0.0175191 0
M  V30 23688 C 2227.74 -2.99975 -1.75813 0
M  V30 23689 H 2227.06 -3.7636 -1.34883 0
M  V30 23690 H 2228.5 -3.52288 -2.35943 0
M  V30 23691 C 2226.96 -2.06737 -2.6601 0
M  V30 23692 O 2227.49 -1.63308 -3.67006 0
M  V30 23693 N 2225.7 -1.72767 -2.33666 0
M  V30 23694 H 2225.24 -2.0828 -1.51582 0
M  V30 23695 H 2225.2 -1.10657 -2.94283 0
M  V30 23696 N 2228.97 -0.0251005 -1.5758 0
M  V30 23697 C 2229.88 0.973867 -2.13431 0
M  V30 23698 C 2230.9 1.35982 -1.08559 0
M  V30 23699 O 2232.08 1.44205 -1.40595 0
M  V30 23700 C 2229.14 2.23899 -2.64707 0
M  V30 23701 C 2228.2 1.91384 -3.84279 0
M  V30 23702 C 2227.44 3.11865 -4.331 0
M  V30 23703 O 2227.66 4.24391 -3.81115 0
M  V30 23704 O 2226.59 2.94397 -5.24989 0
M  V30 23705 H 2230.42 0.528984 -2.99058 0
M  V30 23706 H 2228 0.195262 -1.48118 0
M  V30 23707 H 2229.89 2.98176 -2.97774 0
M  V30 23708 H 2228.56 2.67576 -1.82166 0
M  V30 23709 H 2227.47 1.14505 -3.56145 0
M  V30 23710 H 2228.8 1.52526 -4.67971 0
M  V30 23711 N 2230.45 1.55637 0.247999 0
M  V30 23712 C 2231.68 1.81471 0.993776 0
M  V30 23713 C 2232.1 0.600672 1.7899 0
M  V30 23714 O 2231.45 -0.430651 1.77346 0
M  V30 23715 C 2231.5 3.05509 1.93252 0
M  V30 23716 O 2231.22 4.22226 1.16862 0
M  V30 23717 C 2232.73 3.44135 2.79438 0
M  V30 23718 H 2229.95 0.603903 0.292476 0
M  V30 23719 H 2232.49 2.02694 0.271217 0
M  V30 23720 H 2230.64 2.8634 2.60938 0
M  V30 23721 H 2231.06 4.92518 1.80351 0
M  V30 23722 H 2232.53 4.34032 3.41058 0
M  V30 23723 H 2233.01 2.64671 3.50494 0
M  V30 23724 H 2233.62 3.65652 2.17207 0
M  V30 23725 N 2231.93 -0.513613 1.48996 0
M  V30 23726 C 2233.18 -1.26507 1.57095 0
M  V30 23727 C 2233.49 -1.93903 0.257126 0
M  V30 23728 O 2234.7 -2.70635 0.216526 0
M  V30 23729 C 2233.16 -2.29633 2.77122 0
M  V30 23730 C 2232.76 -1.68234 4.15212 0
M  V30 23731 C 2234.51 -3.05686 2.94544 0
M  V30 23732 C 2232.41 -2.69396 5.26478 0
M  V30 23733 H 2231.34 -0.475843 0.584884 0
M  V30 23734 H 2234 -0.540456 1.75361 0
M  V30 23735 H 2232.38 -3.05202 2.52324 0
M  V30 23736 H 2233.55 -0.987426 4.50096 0
M  V30 23737 H 2231.87 -1.04616 4.03044 0
M  V30 23738 H 2234.46 -3.81313 3.74839 0
M  V30 23739 H 2234.81 -3.62541 2.04621 0
M  V30 23740 H 2235.34 -2.37232 3.19321 0
M  V30 23741 H 2232.08 -2.1734 6.1842 0
M  V30 23742 H 2231.6 -3.37166 4.96064 0
M  V30 23743 H 2233.28 -3.32069 5.55283 0
M  V30 23744 N 2233.41 -1.37859 -0.763727 0
M  V30 23745 C 2234.66 -1.33707 -1.52481 0
M  V30 23746 C 2234.99 0.075927 -1.94052 0
M  V30 23747 O 2234.26 1.03498 -1.64677 0
M  V30 23748 C 2234.55 -2.28353 -2.78437 0
M  V30 23749 C 2234.4 -3.78468 -2.43069 0
M  V30 23750 C 2235.72 -2.21304 -3.80411 0
M  V30 23751 H 2232.84 -0.487014 -0.55316 0
M  V30 23752 H 2235.48 -1.68625 -0.875532 0
M  V30 23753 H 2233.63 -1.98705 -3.33839 0
M  V30 23754 H 2235.3 -4.18746 -1.93519 0
M  V30 23755 H 2233.54 -3.96644 -1.75659 0
M  V30 23756 H 2234.22 -4.40138 -3.33141 0
M  V30 23757 H 2236.69 -2.47455 -3.34523 0
M  V30 23758 H 2235.57 -2.89656 -4.66252 0
M  V30 23759 H 2235.83 -1.20856 -4.2526 0
M  V30 23760 N 2234.89 0.990791 -1.22561 0
M  V30 23761 C 2235.82 2.0834 -0.955362 0
M  V30 23762 C 2236.83 1.62663 0.0668122 0
M  V30 23763 O 2238.02 1.77713 -0.167452 0
M  V30 23764 C 2235.12 3.36342 -0.415625 0
M  V30 23765 C 2234.29 4.11039 -1.49552 0
M  V30 23766 C 2233.35 5.17322 -0.96249 0
M  V30 23767 O 2232.38 5.44785 -1.64917 0
M  V30 23768 N 2233.58 5.80102 0.215032 0
M  V30 23769 H 2236.35 2.32103 -1.896 0
M  V30 23770 H 2233.91 1.15671 -1.13278 0
M  V30 23771 H 2235.9 4.04676 -0.0443098 0
M  V30 23772 H 2234.47 3.09626 0.430178 0
M  V30 23773 H 2233.69 3.37306 -2.04006 0
M  V30 23774 H 2234.98 4.57715 -2.22203 0
M  V30 23775 H 2234.38 5.60161 0.789681 0
M  V30 23776 H 2232.93 6.4966 0.527712 0
M  V30 23777 N 2236.37 1.03564 1.18795 0
M  V30 23778 C 2237.78 0.753941 1.40669 0
M  V30 23779 C 2237.98 -0.658652 1.90431 0
M  V30 23780 O 2237.04 -1.42363 2.0854 0
M  V30 23781 C 2238.35 1.79578 2.41189 0
M  V30 23782 C 2239.9 1.81611 2.54925 0
M  V30 23783 C 2240.37 2.84772 3.58704 0
M  V30 23784 N 2241.86 2.83632 3.66207 0
M  V30 23785 C 2242.6 3.60106 4.46219 0
M  V30 23786 N 2242.1 4.46317 5.2988 0
M  V30 23787 N 2243.89 3.48618 4.40933 0
M  V30 23788 H 2236.04 1.94729 0.848187 0
M  V30 23789 H 2238.3 0.842272 0.435066 0
M  V30 23790 H 2238.01 2.80876 2.11664 0
M  V30 23791 H 2237.88 1.62371 3.40464 0
M  V30 23792 H 2240.27 0.809867 2.8377 0
M  V30 23793 H 2240.35 2.02894 1.55781 0
M  V30 23794 H 2239.99 3.85572 3.306 0
M  V30 23795 H 2239.92 2.60745 4.57515 0
M  V30 23796 H 2242.42 2.2111 3.06462 0
M  V30 23797 H 2242.73 5.01392 5.8807 0
M  V30 23798 H 2241.07 4.50386 5.29318 0
M  V30 23799 H 2244.26 2.80674 3.74619 0
M  V30 23800 H 2244.44 4.08467 5.03049 0
M  V30 23801 N 2237.84 -1.34926 0.814413 0
M  V30 23802 C 2239.09 -1.98541 0.398458 0
M  V30 23803 C 2239.42 -1.64591 -1.03635 0
M  V30 23804 O 2238.67 -0.905191 -1.73507 0
M  V30 23805 C 2238.97 -3.5333 0.537843 0
M  V30 23806 C 2238.64 -4.07169 1.93711 0
M  V30 23807 C 2237.3 -4.21584 2.31991 0
M  V30 23808 C 2239.65 -4.36232 2.85221 0
M  V30 23809 C 2236.98 -4.62385 3.61133 0
M  V30 23810 C 2239.33 -4.78475 4.13817 0
M  V30 23811 C 2238 -4.91096 4.52086 0
M  V30 23812 H 2237.27 -0.726513 0.145806 0
M  V30 23813 H 2239.91 -1.61011 1.03672 0
M  V30 23814 H 2238.22 -3.91368 -0.183837 0
M  V30 23815 H 2239.92 -4.00517 0.196658 0
M  V30 23816 H 2236.51 -3.96406 1.62973 0
M  V30 23817 H 2240.69 -4.24641 2.56893 0
M  V30 23818 H 2235.95 -4.70346 3.90621 0
M  V30 23819 H 2240.12 -4.99923 4.84819 0
M  V30 23820 H 2237.75 -5.22468 5.52205 0
M  V30 23821 N 2239.32 -0.56861 -1.46985 0
M  V30 23822 C 2240.27 0.172666 -2.30153 0
M  V30 23823 C 2241.24 0.897562 -1.39761 0
M  V30 23824 O 2242.42 0.891014 -1.68717 0
M  V30 23825 C 2239.56 1.18944 -3.23954 0
M  V30 23826 C 2238.68 0.469441 -4.29442 0
M  V30 23827 C 2237.81 1.4725 -5.10383 0
M  V30 23828 C 2236.85 0.738118 -6.07633 0
M  V30 23829 N 2235.99 1.68856 -6.81493 0
M  V30 23830 H 2240.83 -0.542647 -2.93018 0
M  V30 23831 H 2238.36 -0.279426 -1.44422 0
M  V30 23832 H 2240.32 1.79166 -3.7677 0
M  V30 23833 H 2238.95 1.87264 -2.62929 0
M  V30 23834 H 2238 -0.247534 -3.79594 0
M  V30 23835 H 2239.32 -0.105329 -4.98689 0
M  V30 23836 H 2238.47 2.14793 -5.67405 0
M  V30 23837 H 2237.21 2.0812 -4.41064 0
M  V30 23838 H 2236.21 0.0488326 -5.49778 0
M  V30 23839 H 2237.44 0.13501 -6.78966 0
M  V30 23840 H 2235.39 2.28562 -6.14895 0
M  V30 23841 H 2235.3 1.16623 -7.4695 0
M  V30 23842 H 2236.57 2.35477 -7.43082 0
M  V30 23843 N 2240.8 1.54608 -0.305646 0
M  V30 23844 C 2241.71 2.27375 0.57774 0
M  V30 23845 C 2242.73 1.31063 1.14448 0
M  V30 23846 O 2243.9 1.64052 1.16828 0
M  V30 23847 C 2240.97 3.00385 1.73118 0
M  V30 23848 C 2240.03 4.12244 1.19805 0
M  V30 23849 C 2239.26 4.81763 2.29651 0
M  V30 23850 O 2239.48 4.50673 3.49643 0
M  V30 23851 O 2238.42 5.69066 1.96081 0
M  V30 23852 H 2242.24 3.03697 -0.0126774 0
M  V30 23853 H 2239.83 1.49227 -0.0719446 0
M  V30 23854 H 2241.71 3.46164 2.40309 0
M  V30 23855 H 2240.39 2.26953 2.30811 0
M  V30 23856 H 2239.29 3.70854 0.491733 0
M  V30 23857 H 2240.63 4.87667 0.66648 0
M  V30 23858 N 2242.28 0.033457 1.57564 0
M  V30 23859 C 2243.51 -0.653363 1.95997 0
M  V30 23860 C 2243.92 -1.65945 0.908778 0
M  V30 23861 O 2243.26 -1.83324 -0.117438 0
M  V30 23862 C 2243.32 -1.41243 3.30591 0
M  V30 23863 C 2242.98 -0.564183 4.53504 0
M  V30 23864 C 2243.98 0.162342 5.19646 0
M  V30 23865 C 2241.67 -0.50031 4.99802 0
M  V30 23866 C 2243.66 0.941366 6.3041 0
M  V30 23867 C 2241.35 0.282415 6.10447 0
M  V30 23868 C 2242.35 1.00196 6.75611 0
M  V30 23869 O 2242.03 1.77184 7.84131 0
M  V30 23870 H 2241.77 -0.184717 0.650274 0
M  V30 23871 H 2244.32 0.0908201 2.05199 0
M  V30 23872 H 2242.55 -2.20185 3.17892 0
M  V30 23873 H 2244.24 -1.98778 3.53896 0
M  V30 23874 H 2245 0.122356 4.84846 0
M  V30 23875 H 2240.88 -1.04994 4.48884 0
M  V30 23876 H 2244.43 1.50351 6.81205 0
M  V30 23877 H 2240.32 0.324103 6.44686 0
M  V30 23878 H 2241.09 1.69208 8.00819 0
M  V30 23879 N 2243.76 -1.55766 -0.239741 0
M  V30 23880 C 2244.72 -1.90105 -1.28034 0
M  V30 23881 C 2245.72 -0.77808 -1.40722 0
M  V30 23882 O 2246.91 -1.04601 -1.39299 0
M  V30 23883 C 2244.04 -2.13581 -2.65699 0
M  V30 23884 H 2245.23 -2.83158 -0.987998 0
M  V30 23885 H 2242.79 -1.48768 -0.479356 0
M  V30 23886 H 2243.52 -1.2302 -3.00061 0
M  V30 23887 H 2243.31 -2.95374 -2.5787 0
M  V30 23888 H 2244.8 -2.41307 -3.40823 0
M  V30 23889 N 2245.23 0.505704 -1.49266 0
M  V30 23890 C 2246.51 1.26704 -1.49015 0
M  V30 23891 C 2246.89 2.1 -0.215242 0
M  V30 23892 O 2246.24 2.13944 0.802509 0
M  V30 23893 C 2246.45 2.12778 -2.76634 0
M  V30 23894 C 2247.8 2.72122 -3.25937 0
M  V30 23895 O 2248.82 2.23049 -2.77719 0
M  V30 23896 O 2247.68 3.61444 -4.09903 0
M  V30 23897 H 2244.77 0.57312 -0.596207 0
M  V30 23898 H 2247.32 0.520361 -1.61525 0
M  V30 23899 H 2246.09 1.51174 -3.60919 0
M  V30 23900 H 2245.71 2.94648 -2.66961 0
M  V30 23901 N 2246.71 1.38262 0.756405 0
M  V30 23902 C 2247.96 1.34514 1.51769 0
M  V30 23903 C 2248.29 -0.065635 1.94089 0
M  V30 23904 O 2247.57 -1.02623 1.65223 0
M  V30 23905 C 2247.85 2.29826 2.77222 0
M  V30 23906 C 2247.7 3.79751 2.41058 0
M  V30 23907 C 2249.02 2.23319 3.79232 0
M  V30 23908 H 2246.14 0.489941 0.55057 0
M  V30 23909 H 2248.78 1.69087 0.866577 0
M  V30 23910 H 2246.93 2.00473 3.3278 0
M  V30 23911 H 2248.6 4.19766 1.91296 0
M  V30 23912 H 2246.85 3.9757 1.73553 0
M  V30 23913 H 2247.52 4.41898 3.30802 0
M  V30 23914 H 2249.99 2.49225 3.33206 0
M  V30 23915 H 2248.87 2.92124 4.64709 0
M  V30 23916 H 2249.13 1.2311 4.24613 0
M  V30 23917 N 2248.19 -0.984277 1.23084 0
M  V30 23918 C 2249.12 -2.09409 1.03296 0
M  V30 23919 C 2250.1 -1.7003 -0.0488931 0
M  V30 23920 O 2251.29 -1.93859 0.115001 0
M  V30 23921 C 2248.42 -3.41735 0.619215 0
M  V30 23922 C 2247.37 -3.95001 1.64798 0
M  V30 23923 C 2246.7 -5.23476 1.08979 0
M  V30 23924 C 2248 -4.24708 3.04007 0
M  V30 23925 H 2249.69 -2.26222 1.96123 0
M  V30 23926 H 2247.24 -1.0871 0.944363 0
M  V30 23927 H 2249.19 -4.18795 0.467851 0
M  V30 23928 H 2247.91 -3.24776 -0.344729 0
M  V30 23929 H 2246.57 -3.20082 1.78726 0
M  V30 23930 H 2246.22 -5.02864 0.116948 0
M  V30 23931 H 2245.92 -5.60082 1.77714 0
M  V30 23932 H 2247.44 -6.03161 0.950199 0
M  V30 23933 H 2248.86 -4.92532 2.93402 0
M  V30 23934 H 2247.26 -4.72506 3.69944 0
M  V30 23935 H 2248.33 -3.32135 3.5329 0
M  V30 23936 N 2249.67 -1.04192 -1.18244 0
M  V30 23937 C 2250.92 -0.74605 -1.88256 0
M  V30 23938 C 2251.24 0.726299 -1.8043 0
M  V30 23939 O 2250.5 1.54589 -1.20003 0
M  V30 23940 C 2250.8 -1.15917 -3.3808 0
M  V30 23941 C 2250.46 -2.63202 -3.66109 0
M  V30 23942 C 2249.13 -3.03438 -3.73468 0
M  V30 23943 C 2251.48 -3.58426 -3.78391 0
M  V30 23944 C 2248.81 -4.37785 -3.90591 0
M  V30 23945 C 2251.16 -4.92493 -3.9703 0
M  V30 23946 C 2249.82 -5.32399 -4.02626 0
M  V30 23947 H 2249.09 -0.272999 -0.688878 0
M  V30 23948 H 2251.74 -1.30717 -1.39947 0
M  V30 23949 H 2250.04 -0.516874 -3.88376 0
M  V30 23950 H 2251.74 -0.907585 -3.90594 0
M  V30 23951 H 2248.33 -2.31037 -3.60999 0
M  V30 23952 H 2252.51 -3.28485 -3.72036 0
M  V30 23953 H 2247.77 -4.6822 -3.93167 0
M  V30 23954 H 2251.94 -5.66182 -4.05476 0
M  V30 23955 H 2249.57 -6.36508 -4.15646 0
M  V30 23956 N 2251.15 1.34492 -0.821557 0
M  V30 23957 C 2252.08 2.28326 -0.199986 0
M  V30 23958 C 2253.09 1.50966 0.60935 0
M  V30 23959 O 2254.28 1.73011 0.439255 0
M  V30 23960 C 2251.38 3.30759 0.738373 0
M  V30 23961 C 2250.55 4.37391 -0.02784 0
M  V30 23962 C 2249.61 5.19593 0.831241 0
M  V30 23963 O 2248.64 5.68527 0.276722 0
M  V30 23964 N 2249.84 5.39168 2.15123 0
M  V30 23965 H 2252.61 2.82306 -1.00614 0
M  V30 23966 H 2250.17 1.47002 -0.678392 0
M  V30 23967 H 2252.16 3.82648 1.31766 0
M  V30 23968 H 2250.73 2.77183 1.44528 0
M  V30 23969 H 2249.95 3.86235 -0.788427 0
M  V30 23970 H 2251.24 5.0576 -0.55534 0
M  V30 23971 H 2250.63 5.01083 2.6255 0
M  V30 23972 H 2249.19 5.94181 2.6794 0
M  V30 23973 N 2252.62 0.576397 1.46681 0
M  V30 23974 C 2254.04 0.23759 1.57822 0
M  V30 23975 C 2254.24 -1.26008 1.5724 0
M  V30 23976 O 2253.3 -2.04143 1.48599 0
M  V30 23977 C 2254.61 0.881218 2.87498 0
M  V30 23978 C 2256.16 0.854222 3.01118 0
M  V30 23979 C 2256.63 1.47727 4.33521 0
M  V30 23980 N 2258.12 1.44133 4.40204 0
M  V30 23981 C 2258.86 1.89286 5.41256 0
M  V30 23982 N 2258.35 2.42383 6.49017 0
M  V30 23983 N 2260.15 1.8024 5.32419 0
M  V30 23984 H 2252.3 1.54921 1.45304 0
M  V30 23985 H 2254.56 0.647179 0.692722 0
M  V30 23986 H 2254.27 1.93452 2.93716 0
M  V30 23987 H 2254.14 0.385658 3.75223 0
M  V30 23988 H 2256.53 -0.190439 2.94485 0
M  V30 23989 H 2256.61 1.38774 2.14885 0
M  V30 23990 H 2256.25 2.5211 4.40911 0
M  V30 23991 H 2256.18 0.919038 5.18518 0
M  V30 23992 H 2258.67 1.05314 3.62929 0
M  V30 23993 H 2258.99 2.7471 7.22325 0
M  V30 23994 H 2257.33 2.46405 6.49854 0
M  V30 23995 H 2260.52 1.38521 4.47135 0
M  V30 23996 H 2260.7 2.15746 6.1103 0
M  V30 23997 N 2254.1 -1.54444 0.313841 0
M  V30 23998 C 2255.03 -2.26944 -0.549415 0
M  V30 23999 C 2256.01 -1.27374 -1.12739 0
M  V30 24000 O 2257.2 -1.56169 -1.15433 0
M  V30 24001 C 2254.33 -3.01992 -1.71517 0
M  V30 24002 C 2253.28 -4.08818 -1.26696 0
M  V30 24003 C 2252.61 -4.71652 -2.5189 0
M  V30 24004 C 2253.91 -5.2085 -0.38887 0
M  V30 24005 H 2255.6 -2.99349 0.0553188 0
M  V30 24006 H 2253.15 -1.43973 0.028046 0
M  V30 24007 H 2255.1 -3.51437 -2.32529 0
M  V30 24008 H 2253.83 -2.27187 -2.34635 0
M  V30 24009 H 2252.48 -3.60241 -0.679833 0
M  V30 24010 H 2252.13 -3.93473 -3.13349 0
M  V30 24011 H 2251.83 -5.43806 -2.22595 0
M  V30 24012 H 2253.36 -5.23867 -3.13681 0
M  V30 24013 H 2254.77 -5.66112 -0.905007 0
M  V30 24014 H 2253.17 -5.99802 -0.189135 0
M  V30 24015 H 2254.24 -4.81385 0.582784 0
M  V30 24016 N 2255.58 -0.0418125 -1.57545 0
M  V30 24017 C 2256.83 0.632796 -1.91938 0
M  V30 24018 C 2257.15 1.71933 -0.920008 0
M  V30 24019 O 2256.42 1.95866 0.0365719 0
M  V30 24020 H 2255 0.236729 -0.708497 0
M  V30 24021 H 2257.66 -0.0926087 -1.9468 0
M  V30 24022 H 2256.76 1.07741 -2.92913 0
M  V30 24023 N 2257.06 1.55891 0.231477 0
M  V30 24024 C 2258.34 1.69217 0.981066 0
M  V30 24025 C 2258.72 0.586199 2.02798 0
M  V30 24026 O 2258.06 -0.408214 2.24824 0
M  V30 24027 C 2258.27 3.10138 1.60048 0
M  V30 24028 C 2259.62 3.69231 2.09651 0
M  V30 24029 O 2260.65 3.13036 1.69961 0
M  V30 24030 O 2259.5 4.67777 2.82572 0
M  V30 24031 H 2256.6 0.688835 0.45764 0
M  V30 24032 H 2259.14 1.68215 0.224043 0
M  V30 24033 H 2257.92 3.82089 0.844038 0
M  V30 24034 H 2257.54 3.15217 2.42331 0
M  V30 24035 N 2258.54 -0.497781 1.49532 0
M  V30 24036 C 2259.48 -1.59896 1.66439 0
M  V30 24037 C 2260.45 -1.58211 0.505821 0
M  V30 24038 O 2261.64 -1.76149 0.733233 0
M  V30 24039 C 2258.78 -2.98026 1.73996 0
M  V30 24040 C 2257.89 -3.09703 3.01178 0
M  V30 24041 C 2257.03 -4.38585 2.99694 0
M  V30 24042 C 2256.07 -4.43907 4.21442 0
M  V30 24043 N 2255.2 -5.64222 4.1785 0
M  V30 24044 H 2260.04 -1.44788 2.60462 0
M  V30 24045 H 2257.58 -0.7044 1.29138 0
M  V30 24046 H 2259.54 -3.78092 1.76358 0
M  V30 24047 H 2258.17 -3.11831 0.834356 0
M  V30 24048 H 2257.22 -2.2268 3.08412 0
M  V30 24049 H 2258.53 -3.09495 3.9117 0
M  V30 24050 H 2257.69 -5.26975 3.00637 0
M  V30 24051 H 2256.42 -4.41363 2.07485 0
M  V30 24052 H 2255.43 -3.53919 4.20739 0
M  V30 24053 H 2256.65 -4.42842 5.14847 0
M  V30 24054 H 2254.6 -5.67836 3.28479 0
M  V30 24055 H 2254.52 -5.65643 5.01581 0
M  V30 24056 H 2255.79 -6.5481 4.229 0
M  V30 24057 N 2260.01 -1.38661 -0.749062 0
M  V30 24058 C 2261.26 -1.35317 -1.51054 0
M  V30 24059 C 2261.59 0.055341 -1.94121 0
M  V30 24060 O 2260.87 1.01746 -1.65765 0
M  V30 24061 C 2261.15 -2.31293 -2.75999 0
M  V30 24062 C 2261 -3.81024 -2.39041 0
M  V30 24063 C 2262.32 -2.25327 -3.78042 0
M  V30 24064 H 2259.44 -0.492854 -0.547963 0
M  V30 24065 H 2262.08 -1.69544 -0.857598 0
M  V30 24066 H 2260.23 -2.02235 -3.31713 0
M  V30 24067 H 2261.91 -4.20775 -1.89067 0
M  V30 24068 H 2260.15 -3.98485 -1.71442 0
M  V30 24069 H 2260.82 -4.43646 -3.28454 0
M  V30 24070 H 2263.3 -2.50989 -3.31879 0
M  V30 24071 H 2262.17 -2.94584 -4.63154 0
M  V30 24072 H 2262.43 -1.2536 -4.23954 0
M  V30 24073 N 2261.49 0.977736 -1.23605 0
M  V30 24074 C 2262.44 2.07059 -1.01957 0
M  V30 24075 C 2263.41 1.65977 0.0638405 0
M  V30 24076 O 2264.6 1.90593 -0.0887959 0
M  V30 24077 C 2261.74 3.3949 -0.619717 0
M  V30 24078 C 2260.85 3.93826 -1.77554 0
M  V30 24079 C 2259.98 5.14481 -1.32221 0
M  V30 24080 C 2259.02 5.60989 -2.44862 0
M  V30 24081 N 2258.16 6.72872 -2.00468 0
M  V30 24082 H 2263 2.24909 -1.95499 0
M  V30 24083 H 2260.54 1.10245 -0.973881 0
M  V30 24084 H 2262.49 4.15565 -0.368971 0
M  V30 24085 H 2261.12 3.21595 0.278695 0
M  V30 24086 H 2260.18 3.14482 -2.14022 0
M  V30 24087 H 2261.49 4.2431 -2.62227 0
M  V30 24088 H 2260.64 5.97897 -1.02975 0
M  V30 24089 H 2259.38 4.85657 -0.445893 0
M  V30 24090 H 2258.39 4.76153 -2.74879 0
M  V30 24091 H 2259.61 5.91832 -3.33035 0
M  V30 24092 H 2257.56 6.45802 -1.1522 0
M  V30 24093 H 2257.47 7.02754 -2.78699 0
M  V30 24094 H 2258.74 7.59755 -1.74334 0
M  V30 24095 N 2262.97 1.04818 1.1769 0
M  V30 24096 C 2264.22 0.756023 1.87858 0
M  V30 24097 C 2264.55 -0.71672 1.80813 0
M  V30 24098 O 2263.8 -1.5395 1.20821 0
M  V30 24099 C 2264.1 1.17709 3.3746 0
M  V30 24100 C 2263.77 2.65139 3.64708 0
M  V30 24101 C 2262.43 3.05415 3.71854 0
M  V30 24102 C 2264.78 3.60428 3.76485 0
M  V30 24103 C 2262.11 4.3985 3.88264 0
M  V30 24104 C 2264.46 4.94592 3.94413 0
M  V30 24105 C 2263.12 5.34527 3.99797 0
M  V30 24106 H 2262.39 0.276648 0.68742 0
M  V30 24107 H 2265.04 1.31457 1.39252 0
M  V30 24108 H 2263.35 0.537463 3.88096 0
M  V30 24109 H 2265.04 0.928286 3.90107 0
M  V30 24110 H 2261.63 2.32948 3.59768 0
M  V30 24111 H 2265.82 3.30454 3.70289 0
M  V30 24112 H 2261.07 4.70298 3.90678 0
M  V30 24113 H 2265.25 5.68325 4.02467 0
M  V30 24114 H 2262.87 6.38704 4.12264 0
M  V30 24115 N 2264.45 -1.34055 0.828678 0
M  V30 24116 C 2265.7 -1.98818 0.429314 0
M  V30 24117 C 2266.05 -1.64493 -0.997982 0
M  V30 24118 O 2265.34 -0.909258 -1.68651 0
M  V30 24119 C 2265.54 -3.5274 0.575288 0
M  V30 24120 C 2265.37 -4.02018 2.01522 0
M  V30 24121 C 2264.14 -4.30339 2.64832 0
M  V30 24122 C 2266.33 -4.18975 2.98269 0
M  V30 24123 N 2264.32 -4.65691 4.00006 0
M  V30 24124 C 2265.69 -4.57571 4.18364 0
M  V30 24125 C 2267.74 -4.01238 2.94809 0
M  V30 24126 C 2266.45 -4.80284 5.35462 0
M  V30 24127 C 2268.47 -4.2512 4.11129 0
M  V30 24128 C 2267.83 -4.64009 5.29977 0
M  V30 24129 H 2263.93 -0.754565 0.205317 0
M  V30 24130 H 2266.52 -1.62359 1.07459 0
M  V30 24131 H 2264.69 -3.88379 -0.040128 0
M  V30 24132 H 2266.42 -4.04428 0.148363 0
M  V30 24133 H 2263.17 -4.21457 2.16034 0
M  V30 24134 H 2263.6 -4.87593 4.69662 0
M  V30 24135 H 2268.24 -3.70296 2.04061 0
M  V30 24136 H 2265.96 -5.10091 6.26764 0
M  V30 24137 H 2269.54 -4.12926 4.09857 0
M  V30 24138 H 2268.42 -4.82124 6.18487 0
M  V30 24139 N 2265.93 -0.584167 -1.46374 0
M  V30 24140 C 2267.18 -0.0680095 -2.01585 0
M  V30 24141 C 2267.49 1.30042 -1.46111 0
M  V30 24142 O 2268.7 1.908 -1.93151 0
M  V30 24143 C 2267.15 -0.070984 -3.5983 0
M  V30 24144 C 2266.76 -1.43782 -4.243 0
M  V30 24145 C 2268.5 0.391154 -4.22694 0
M  V30 24146 C 2266.41 -1.39845 -5.74628 0
M  V30 24147 H 2265.34 -0.0216553 -0.753689 0
M  V30 24148 H 2267.99 -0.736031 -1.68092 0
M  V30 24149 H 2266.37 0.66323 -3.90407 0
M  V30 24150 H 2267.55 -2.19188 -4.05331 0
M  V30 24151 H 2265.86 -1.8401 -3.73536 0
M  V30 24152 H 2268.46 0.439431 -5.32891 0
M  V30 24153 H 2268.8 1.40899 -3.91731 0
M  V30 24154 H 2269.34 -0.289043 -3.96749 0
M  V30 24155 H 2266.07 -2.39313 -6.10253 0
M  V30 24156 H 2265.59 -0.686609 -5.95857 0
M  V30 24157 H 2267.27 -1.11198 -6.37373 0
M  V30 24158 N 2267.41 1.54275 -0.322027 0
M  V30 24159 C 2268.63 2.04955 0.283016 0
M  V30 24160 C 2269.05 1.19825 1.45902 0
M  V30 24161 O 2268.41 0.228576 1.81063 0
M  V30 24162 C 2268.46 3.54278 0.718966 0
M  V30 24163 O 2268.18 4.36175 -0.410252 0
M  V30 24164 C 2269.68 4.21044 1.38698 0
M  V30 24165 H 2266.9 0.668449 0.0584499 0
M  V30 24166 H 2269.44 1.99078 -0.467769 0
M  V30 24167 H 2267.6 3.60448 1.41973 0
M  V30 24168 H 2268.01 5.24457 -0.0670338 0
M  V30 24169 H 2269.49 5.26982 1.64297 0
M  V30 24170 H 2269.96 3.72063 2.33379 0
M  V30 24171 H 2270.57 4.19008 0.728833 0
M  V30 24172 N 2268.88 0.0501669 1.5752 0
M  V30 24173 C 2269.81 -0.922529 2.14503 0
M  V30 24174 C 2270.79 -1.32518 1.06644 0
M  V30 24175 O 2271.98 -1.40007 1.34579 0
M  V30 24176 C 2269.11 -2.19771 2.6892 0
M  V30 24177 C 2268.06 -1.93516 3.81753 0
M  V30 24178 C 2267.39 -3.2748 4.22683 0
M  V30 24179 C 2268.69 -1.25756 5.06935 0
M  V30 24180 H 2270.38 -0.4479 2.96031 0
M  V30 24181 H 2267.93 -0.213999 1.42401 0
M  V30 24182 H 2269.88 -2.88216 3.07424 0
M  V30 24183 H 2268.61 -2.69438 1.84583 0
M  V30 24184 H 2267.27 -1.27483 3.4372 0
M  V30 24185 H 2266.91 -3.74946 3.35298 0
M  V30 24186 H 2266.61 -3.10711 4.98731 0
M  V30 24187 H 2268.14 -3.97158 4.63786 0
M  V30 24188 H 2269.55 -1.84234 5.42891 0
M  V30 24189 H 2267.95 -1.19317 5.88119 0
M  V30 24190 H 2269.02 -0.233451 4.84338 0
M  V30 24191 N 2270.36 -1.56011 -0.223207 0
M  V30 24192 C 2271.31 -1.93133 -1.29623 0
M  V30 24193 C 2272.3 -0.813172 -1.48606 0
M  V30 24194 O 2273.51 -0.997992 -1.498 0
M  V30 24195 H 2269.88 -0.613733 -0.434552 0
M  V30 24196 H 2271.86 -2.82673 -0.955946 0
M  V30 24197 C 2270.6 -2.26297 -2.63979 0
M  V30 24198 H 2269.93 -3.1185 -2.50179 0
M  V30 24199 H 2271.37 -2.56157 -3.37875 0
M  V30 24200 C 2269.83 -1.08752 -3.18864 0
M  V30 24201 O 2270.36 -0.347797 -4.00192 0
M  V30 24202 N 2268.56 -0.871792 -2.77215 0
M  V30 24203 H 2268.11 -1.47505 -2.11187 0
M  V30 24204 H 2268.07 -0.0870457 -3.14279 0
M  V30 24205 N 2271.84 0.489844 -1.49794 0
M  V30 24206 C 2272.75 1.6163 -1.70038 0
M  V30 24207 C 2273.77 1.63938 -0.583131 0
M  V30 24208 O 2274.94 1.82153 -0.859201 0
M  V30 24209 C 2272.01 2.97946 -1.77282 0
M  V30 24210 C 2271.07 3.06176 -3.00923 0
M  V30 24211 C 2270.3 4.3599 -3.07812 0
M  V30 24212 O 2270.52 5.2543 -2.21991 0
M  V30 24213 O 2269.46 4.49424 -4.00377 0
M  V30 24214 H 2273.28 1.47477 -2.65489 0
M  V30 24215 H 2270.87 0.667339 -1.33667 0
M  V30 24216 H 2272.75 3.78944 -1.84336 0
M  V30 24217 H 2271.43 3.12337 -0.850131 0
M  V30 24218 H 2270.33 2.24325 -2.99381 0
M  V30 24219 H 2271.67 2.96716 -3.92709 0
M  V30 24220 N 2273.32 1.39056 0.741698 0
M  V30 24221 C 2274.73 1.3207 1.31963 0
M  V30 24222 C 2275.08 -0.0180453 1.96192 0
M  V30 24223 O 2274.2 -0.920162 1.95862 0
M  V30 24224 C 2274.8 2.39185 2.3995 0
M  V30 24225 C 2273.36 2.35741 2.93434 0
M  V30 24226 C 2272.51 2.21425 1.66932 0
M  V30 24227 H 2275.46 1.49241 0.539695 0
M  V30 24228 H 2275.48 2.05587 3.20178 0
M  V30 24229 H 2274.99 3.36609 1.93174 0
M  V30 24230 H 2273.09 1.41935 3.44507 0
M  V30 24231 H 2273.2 3.30341 3.47004 0
M  V30 24232 H 2271.57 1.68481 1.91014 0
M  V30 24233 H 2272.35 3.20808 1.22218 0
M  V30 24234 N 2274.8 -0.971167 1.24121 0
M  V30 24235 C 2276.04 -1.71369 1.07884 0
M  V30 24236 C 2276.37 -1.90694 -0.382868 0
M  V30 24237 O 2275.63 -1.46333 -1.29943 0
M  V30 24238 C 2275.92 -3.11067 1.75988 0
M  V30 24239 C 2275.59 -3.11593 3.25915 0
M  V30 24240 C 2274.25 -3.11444 3.66819 0
M  V30 24241 C 2276.6 -3.06193 4.21776 0
M  V30 24242 C 2273.93 -3.03623 5.02026 0
M  V30 24243 C 2276.28 -2.99913 5.56987 0
M  V30 24244 C 2274.95 -2.98091 5.97242 0
M  V30 24245 H 2274.22 -0.627083 0.394775 0
M  V30 24246 H 2276.87 -1.13584 1.54178 0
M  V30 24247 H 2275.17 -3.72296 1.22078 0
M  V30 24248 H 2276.87 -3.67307 1.60893 0
M  V30 24249 H 2273.46 -3.12472 2.93358 0
M  V30 24250 H 2277.64 -3.0544 3.91178 0
M  V30 24251 H 2272.9 -3.0057 5.32417 0
M  V30 24252 H 2277.07 -2.94693 6.30975 0
M  V30 24253 H 2274.7 -2.91786 7.01972 0
M  V30 24254 N 2276.27 -1.05441 -1.17133 0
M  V30 24255 C 2277.52 -0.76711 -1.87732 0
M  V30 24256 C 2277.85 0.704221 -1.80982 0
M  V30 24257 O 2277.13 1.51517 -1.21954 0
M  V30 24258 C 2277.41 -1.25139 -3.37657 0
M  V30 24259 C 2277.26 -2.78584 -3.53145 0
M  V30 24260 C 2278.58 -0.8524 -4.31766 0
M  V30 24261 H 2275.7 -0.280141 -0.681682 0
M  V30 24262 H 2278.34 -1.30883 -1.3773 0
M  V30 24263 H 2276.49 -0.790536 -3.80372 0
M  V30 24264 H 2278.17 -3.32812 -3.19428 0
M  V30 24265 H 2276.41 -3.17737 -2.9534 0
M  V30 24266 H 2277.08 -3.07531 -4.58398 0
M  V30 24267 H 2279.56 -1.24918 -3.96906 0
M  V30 24268 H 2278.43 -1.21883 -5.35197 0
M  V30 24269 H 2278.69 0.243407 -4.41429 0
M  V30 24270 N 2277.75 1.33613 -0.835776 0
M  V30 24271 C 2279 1.97143 -0.426324 0
M  V30 24272 C 2279.31 1.66955 1.01909 0
M  V30 24273 O 2280.52 2.24074 1.53307 0
M  V30 24274 C 2278.98 3.52799 -0.711383 0
M  V30 24275 C 2278.58 3.91867 -2.17127 0
M  V30 24276 C 2280.33 4.22896 -0.368729 0
M  V30 24277 C 2278.24 5.40489 -2.40054 0
M  V30 24278 H 2277.17 0.737753 -0.155683 0
M  V30 24279 H 2279.82 1.52276 -1.02393 0
M  V30 24280 H 2278.2 3.95976 -0.0434462 0
M  V30 24281 H 2279.37 3.59758 -2.87942 0
M  V30 24282 H 2277.69 3.34744 -2.4766 0
M  V30 24283 H 2280.28 5.32188 -0.517694 0
M  V30 24284 H 2280.63 4.10575 0.688006 0
M  V30 24285 H 2281.16 3.85239 -0.99177 0
M  V30 24286 H 2277.9 5.57809 -3.44281 0
M  V30 24287 H 2277.42 5.74069 -1.73795 0
M  V30 24288 H 2279.1 6.07336 -2.23053 0
M  V30 24289 N 2279.23 0.591922 1.46062 0
M  V30 24290 C 2280.19 -0.125933 2.28854 0
M  V30 24291 C 2281.19 -0.810083 1.38904 0
M  V30 24292 O 2282.38 -0.660632 1.61187 0
M  V30 24293 C 2279.52 -1.18804 3.19528 0
M  V30 24294 H 2280.71 0.601768 2.93801 0
M  V30 24295 H 2278.26 0.350281 1.52324 0
M  V30 24296 H 2279 -1.94702 2.59348 0
M  V30 24297 H 2278.78 -0.701868 3.85767 0
M  V30 24298 H 2280.27 -1.69125 3.8182 0
M  V30 24299 N 2280.71 -1.54102 0.330204 0
M  V30 24300 C 2281.94 -2.04805 -0.271748 0
M  V30 24301 C 2282.35 -1.20561 -1.45814 0
M  V30 24302 O 2281.69 -0.230632 -1.82246 0
M  V30 24303 C 2281.75 -3.51306 -0.763176 0
M  V30 24304 C 2281.42 -4.56002 0.301785 0
M  V30 24305 C 2282.41 -5.07246 1.14008 0
M  V30 24306 C 2280.1 -5.00263 0.451881 0
M  V30 24307 C 2282.09 -6.01318 2.11413 0
M  V30 24308 C 2279.78 -5.94149 1.42935 0
M  V30 24309 C 2280.78 -6.44563 2.25893 0
M  V30 24310 O 2280.46 -7.36604 3.21978 0
M  V30 24311 H 2280.2 -0.673448 -0.0586812 0
M  V30 24312 H 2282.75 -1.99798 0.47643 0
M  V30 24313 H 2280.98 -3.53733 -1.56238 0
M  V30 24314 H 2282.67 -3.85049 -1.28421 0
M  V30 24315 H 2283.44 -4.73825 1.03513 0
M  V30 24316 H 2279.31 -4.60633 -0.183963 0
M  V30 24317 H 2282.86 -6.40592 2.76203 0
M  V30 24318 H 2278.76 -6.26986 1.5349 0
M  V30 24319 H 2279.52 -7.54498 3.17294 0
M  V30 24320 N 2282.19 -0.0585199 -1.57491 0
M  V30 24321 C 2283.12 0.942657 -2.08918 0
M  V30 24322 C 2284.13 1.27004 -1.01852 0
M  V30 24323 O 2285.32 1.22954 -1.294 0
M  V30 24324 C 2282.42 2.26219 -2.52345 0
M  V30 24325 C 2281.59 2.11564 -3.82831 0
M  V30 24326 C 2280.65 3.26705 -4.12493 0
M  V30 24327 O 2279.68 3.02283 -4.823 0
M  V30 24328 N 2280.88 4.51404 -3.64986 0
M  V30 24329 H 2283.65 0.503671 -2.95437 0
M  V30 24330 H 2281.21 0.127541 -1.61397 0
M  V30 24331 H 2283.2 3.02128 -2.69259 0
M  V30 24332 H 2281.77 2.6166 -1.71034 0
M  V30 24333 H 2280.99 1.20201 -3.75427 0
M  V30 24334 H 2282.28 1.99007 -4.68267 0
M  V30 24335 H 2281.67 4.74134 -3.08566 0
M  V30 24336 H 2280.23 5.24383 -3.87125 0
M  V30 24337 N 2283.66 1.56128 0.21493 0
M  V30 24338 C 2284.91 1.79093 0.936487 0
M  V30 24339 C 2285.23 0.62818 1.84605 0
M  V30 24340 O 2284.5 -0.354586 1.92664 0
M  V30 24341 H 2283.08 0.660572 0.348788 0
M  V30 24342 H 2285.75 1.93595 0.225196 0
M  V30 24343 H 2284.84 2.71495 1.53938 0
M  V30 24344 N 2285.14 -0.481893 1.50052 0
M  V30 24345 C 2286.37 -1.25647 1.64001 0
M  V30 24346 C 2286.78 -1.86503 0.31832 0
M  V30 24347 O 2286.12 -1.69487 -0.708504 0
M  V30 24348 C 2286.19 -2.41275 2.66508 0
M  V30 24349 C 2285.85 -2.01141 4.10355 0
M  V30 24350 C 2286.85 -1.54012 4.96565 0
M  V30 24351 C 2284.53 -2.10191 4.56207 0
M  V30 24352 C 2286.53 -1.16462 6.2667 0
M  V30 24353 C 2284.21 -1.72253 5.86321 0
M  V30 24354 C 2285.21 -1.25466 6.71377 0
M  V30 24355 O 2284.9 -0.880485 7.99064 0
M  V30 24356 H 2284.63 -0.386564 0.554567 0
M  V30 24357 H 2287.18 -0.58291 1.96955 0
M  V30 24358 H 2285.41 -3.11768 2.28774 0
M  V30 24359 H 2287.1 -3.03264 2.69789 0
M  V30 24360 H 2287.87 -1.4645 4.62361 0
M  V30 24361 H 2283.75 -2.45559 3.90156 0
M  V30 24362 H 2287.29 -0.798719 6.93012 0
M  V30 24363 H 2283.19 -1.79471 6.20049 0
M  V30 24364 H 2283.96 -1.01029 8.12241 0
M  V30 24365 N 2286.62 -1.39448 -0.734313 0
M  V30 24366 C 2287.87 -1.36439 -1.49094 0
M  V30 24367 C 2288.19 0.0387912 -1.94961 0
M  V30 24368 O 2287.46 0.990161 -1.69034 0
M  V30 24369 H 2286.04 -0.502094 -0.553092 0
M  V30 24370 H 2288.7 -1.7432 -0.871694 0
M  V30 24371 H 2287.8 -2.02751 -2.37273 0
M  V30 24372 N 2288.1 0.964571 -1.24635 0
M  V30 24373 C 2289.33 1.7403 -1.11342 0
M  V30 24374 C 2289.74 1.86182 0.336561 0
M  V30 24375 O 2289.08 1.3518 1.24386 0
M  V30 24376 C 2289.14 3.17678 -1.68289 0
M  V30 24377 C 2288.81 3.28987 -3.17201 0
M  V30 24378 C 2289.8 3.14071 -4.14313 0
M  V30 24379 C 2287.49 3.53127 -3.57221 0
M  V30 24380 C 2289.48 3.23125 -5.49426 0
M  V30 24381 C 2287.17 3.61819 -4.92474 0
M  V30 24382 C 2288.17 3.4683 -5.88386 0
M  V30 24383 O 2287.85 3.55185 -7.21179 0
M  V30 24384 H 2287.59 0.552465 -0.389561 0
M  V30 24385 H 2290.14 1.21944 -1.65284 0
M  V30 24386 H 2288.37 3.71084 -1.08784 0
M  V30 24387 H 2290.06 3.77071 -1.50241 0
M  V30 24388 H 2290.83 2.95302 -3.84736 0
M  V30 24389 H 2286.7 3.63858 -2.8307 0
M  V30 24390 H 2290.25 3.11344 -6.24268 0
M  V30 24391 H 2286.15 3.80102 -5.21721 0
M  V30 24392 H 2286.91 3.7188 -7.29142 0
M  V30 24393 N 2289.58 1.0606 1.16572 0
M  V30 24394 C 2290.82 0.774373 1.86676 0
M  V30 24395 C 2291.15 -0.701115 1.8196 0
M  V30 24396 O 2290.42 -1.5071 1.25153 0
M  V30 24397 H 2289 0.283461 0.691129 0
M  V30 24398 H 2291.66 1.3416 1.41375 0
M  V30 24399 H 2290.75 1.09716 2.92179 0
M  V30 24400 N 2291.06 -1.33168 0.84285 0
M  V30 24401 C 2292.28 -2.01855 0.454091 0
M  V30 24402 C 2292.7 -1.63399 -0.945841 0
M  V30 24403 O 2292.06 -0.84933 -1.61532 0
M  V30 24404 C 2292.11 -3.56981 0.569777 0
M  V30 24405 O 2291.83 -3.94051 1.91455 0
M  V30 24406 C 2293.33 -4.42941 0.17849 0
M  V30 24407 H 2290.55 -0.646462 0.179801 0
M  V30 24408 H 2293.09 -1.7001 1.13653 0
M  V30 24409 H 2291.25 -3.87346 -0.0647906 0
M  V30 24410 H 2291.66 -4.88764 1.9029 0
M  V30 24411 H 2293.14 -5.51126 0.310473 0
M  V30 24412 H 2293.61 -4.30294 -0.879981 0
M  V30 24413 H 2294.22 -4.17943 0.787653 0
M  V30 24414 N 2292.53 -0.599659 -1.45746 0
M  V30 24415 C 2293.5 0.113794 -2.28917 0
M  V30 24416 C 2294.5 0.802705 -1.39332 0
M  V30 24417 O 2295.69 0.652074 -1.61535 0
M  V30 24418 C 2292.82 1.17108 -3.20154 0
M  V30 24419 H 2294.01 -0.617341 -2.93477 0
M  V30 24420 H 2291.56 -0.358354 -1.52136 0
M  V30 24421 H 2292.3 1.93324 -2.60377 0
M  V30 24422 H 2292.08 0.6814 -3.86134 0
M  V30 24423 H 2293.57 1.67098 -3.82711 0
M  V30 24424 N 2294.01 1.53925 -0.338371 0
M  V30 24425 C 2294.97 2.23494 0.50826 0
M  V30 24426 C 2295.97 1.23337 1.03173 0
M  V30 24427 O 2297.16 1.47812 0.9218 0
M  V30 24428 C 2294.3 2.95055 1.70749 0
M  V30 24429 H 2295.49 2.99733 -0.10011 0
M  V30 24430 H 2293.04 1.56043 -0.0896473 0
M  V30 24431 H 2293.78 2.2299 2.3547 0
M  V30 24432 H 2293.56 3.68514 1.33939 0
M  V30 24433 H 2295.05 3.48017 2.30812 0
M  V30 24434 N 2295.49 0.0668712 1.57458 0
M  V30 24435 C 2296.9 -0.466526 1.80777 0
M  V30 24436 C 2297.25 -1.69949 0.98039 0
M  V30 24437 O 2296.38 -2.1546 0.201479 0
M  V30 24438 C 2296.97 -0.853153 3.27882 0
M  V30 24439 C 2295.53 -1.33144 3.52065 0
M  V30 24440 C 2294.68 -0.314215 2.75514 0
M  V30 24441 H 2297.63 0.292615 1.55979 0
M  V30 24442 H 2297.65 -1.71494 3.39662 0
M  V30 24443 H 2297.16 0.0444121 3.88075 0
M  V30 24444 H 2295.26 -2.24767 2.97171 0
M  V30 24445 H 2295.38 -1.31276 4.60764 0
M  V30 24446 H 2293.74 -0.79045 2.42124 0
M  V30 24447 H 2294.52 0.575537 3.38441 0
M  V30 24448 N 2296.97 -1.56239 -0.206647 0
M  V30 24449 C 2298.22 -1.79587 -0.926976 0
M  V30 24450 C 2298.54 -0.637962 -1.84269 0
M  V30 24451 O 2297.81 0.344364 -1.9285 0
M  V30 24452 H 2296.39 -0.662413 -0.34528 0
M  V30 24453 H 2299.05 -1.93711 -0.214926 0
M  V30 24454 H 2298.14 -2.72307 -1.52496 0
M  V30 24455 N 2298.45 0.473929 -1.50305 0
M  V30 24456 C 2299.69 1.22803 -1.61391 0
M  V30 24457 C 2300.02 1.91678 -0.311989 0
M  V30 24458 O 2299.3 1.81988 0.686352 0
M  V30 24459 C 2299.58 2.27391 -2.79223 0
M  V30 24460 C 2299.44 1.62841 -4.19289 0
M  V30 24461 C 2300.75 3.28727 -2.9262 0
M  V30 24462 H 2297.87 0.445109 -0.587407 0
M  V30 24463 H 2300.52 0.522233 -1.82682 0
M  V30 24464 H 2298.67 2.87588 -2.612 0
M  V30 24465 H 2300.34 1.06263 -4.48894 0
M  V30 24466 H 2298.58 0.931618 -4.23678 0
M  V30 24467 H 2299.25 2.3883 -4.97659 0
M  V30 24468 H 2301.73 2.78551 -3.0911 0
M  V30 24469 H 2300.6 3.99239 -3.76695 0
M  V30 24470 H 2300.86 3.9268 -2.03114 0
M  V30 24471 N 2299.92 1.39835 0.726907 0
M  V30 24472 C 2301.15 1.40978 1.52118 0
M  V30 24473 C 2301.57 0.00829336 1.88098 0
M  V30 24474 O 2300.93 -0.98078 1.52481 0
M  V30 24475 C 2300.98 2.29649 2.78017 0
M  V30 24476 O 2300.08 1.73194 3.74269 0
M  V30 24477 H 2299.42 0.479739 0.459071 0
M  V30 24478 H 2301.95 1.83929 0.896175 0
M  V30 24479 H 2301.96 2.44443 3.26667 0
M  V30 24480 H 2300.64 3.31497 2.51163 0
M  V30 24481 H 2299.22 1.67686 3.3307 0
M  V30 24482 N 2301.4 -0.957948 1.25144 0
M  V30 24483 C 2302.35 -2.0754 1.05023 0
M  V30 24484 C 2303.34 -1.69391 -0.0178454 0
M  V30 24485 O 2304.55 -1.79474 0.137504 0
M  V30 24486 H 2300.92 -0.679259 0.322662 0
M  V30 24487 H 2302.9 -2.21669 1.99763 0
M  V30 24488 C 2301.64 -3.40943 0.682134 0
M  V30 24489 H 2300.97 -3.70764 1.4958 0
M  V30 24490 H 2302.41 -4.2 0.581019 0
M  V30 24491 C 2300.87 -3.31303 -0.61155 0
M  V30 24492 O 2301.4 -3.66041 -1.65459 0
M  V30 24493 N 2299.6 -2.84424 -0.595932 0
M  V30 24494 H 2299.15 -2.56352 0.253237 0
M  V30 24495 H 2299.11 -2.78356 -1.46168 0
M  V30 24496 N 2302.88 -1.06677 -1.16008 0
M  V30 24497 C 2304.3 -0.790972 -1.38621 0
M  V30 24498 C 2304.5 0.607931 -1.9211 0
M  V30 24499 O 2303.55 1.36784 -2.12242 0
M  V30 24500 C 2304.86 -1.8591 -2.36343 0
M  V30 24501 C 2306.41 -1.88306 -2.5002 0
M  V30 24502 C 2306.89 -2.94183 -3.51028 0
M  V30 24503 N 2308.38 -2.93241 -3.58558 0
M  V30 24504 C 2309.11 -3.7181 -4.36514 0
M  V30 24505 N 2308.61 -4.60209 -5.17861 0
M  V30 24506 N 2310.4 -3.60186 -4.31535 0
M  V30 24507 H 2302.55 -1.9691 -0.79626 0
M  V30 24508 H 2304.82 -0.853511 -0.412582 0
M  V30 24509 H 2304.52 -2.86389 -2.04142 0
M  V30 24510 H 2304.4 -1.7134 -3.36039 0
M  V30 24511 H 2306.78 -0.884819 -2.81523 0
M  V30 24512 H 2306.86 -2.06953 -1.50346 0
M  V30 24513 H 2306.51 -3.94202 -3.20261 0
M  V30 24514 H 2306.44 -2.72784 -4.50441 0
M  V30 24515 H 2308.93 -2.29157 -3.00492 0
M  V30 24516 H 2309.24 -5.16807 -5.74569 0
M  V30 24517 H 2307.59 -4.64262 -5.1719 0
M  V30 24518 H 2310.78 -2.90508 -3.67046 0
M  V30 24519 H 2310.95 -4.21661 -4.92042 0
M  V30 24520 N 2304.36 1.32719 -0.8499 0
M  V30 24521 C 2305.77 1.79706 -0.50622 0
M  V30 24522 C 2306.12 1.70225 0.975597 0
M  V30 24523 O 2305.24 1.25802 1.76076 0
M  V30 24524 C 2305.84 3.26292 -0.912101 0
M  V30 24525 C 2304.4 3.71252 -0.620392 0
M  V30 24526 C 2303.55 2.5392 -1.11444 0
M  V30 24527 H 2306.5 1.20085 -1.03756 0
M  V30 24528 H 2306.52 3.79825 -0.22656 0
M  V30 24529 H 2306.03 3.3316 -1.99063 0
M  V30 24530 H 2304.13 3.69902 0.447609 0
M  V30 24531 H 2304.24 4.64256 -1.18335 0
M  V30 24532 H 2302.61 2.4902 -0.534878 0
M  V30 24533 H 2303.39 2.63546 -2.19997 0
M  V30 24534 N 2305.84 0.60738 1.45426 0
M  V30 24535 C 2307.08 0.102288 2.01841 0
M  V30 24536 C 2307.41 -1.27162 1.47834 0
M  V30 24537 O 2306.68 -1.83994 0.672529 0
M  V30 24538 H 2305.26 0.0348232 0.746188 0
M  V30 24539 H 2307.92 0.788731 1.78228 0
M  V30 24540 H 2307.01 0.0519134 3.12057 0
M  V30 24541 N 2307.31 -1.53743 0.34653 0
M  V30 24542 C 2308.54 -2.0538 -0.250374 0
M  V30 24543 C 2308.96 -1.22131 -1.43977 0
M  V30 24544 O 2308.31 -0.257353 -1.80676 0
M  V30 24545 C 2308.37 -3.55377 -0.662512 0
M  V30 24546 O 2308.09 -4.35467 0.479592 0
M  V30 24547 C 2309.59 -4.23197 -1.31982 0
M  V30 24548 H 2306.81 -0.669295 -0.047808 0
M  V30 24549 H 2309.35 -1.98309 0.499381 0
M  V30 24550 H 2307.51 -3.62661 -1.36221 0
M  V30 24551 H 2307.92 -5.24284 0.150462 0
M  V30 24552 H 2309.39 -5.2953 -1.55892 0
M  V30 24553 H 2309.87 -3.75729 -2.2743 0
M  V30 24554 H 2310.48 -4.20115 -0.66208 0
M  V30 24555 N 2308.79 -0.0752207 -1.5742 0
M  V30 24556 C 2309.76 0.876166 -2.11792 0
M  V30 24557 C 2310.76 1.22411 -1.0427 0
M  V30 24558 O 2311.95 1.15681 -1.30244 0
M  V30 24559 C 2309.08 2.1785 -2.6221 0
M  V30 24560 H 2310.27 0.404388 -2.97161 0
M  V30 24561 H 2307.82 0.17353 -1.55334 0
M  V30 24562 H 2308.56 2.69556 -1.80305 0
M  V30 24563 H 2308.34 1.93891 -3.40806 0
M  V30 24564 H 2309.83 2.85949 -3.0434 0
M  V30 24565 N 2310.27 1.56347 0.198358 0
M  V30 24566 C 2311.68 1.70382 0.763328 0
M  V30 24567 C 2312.03 0.681236 1.83994 0
M  V30 24568 O 2311.16 -0.163012 2.15785 0
M  V30 24569 C 2311.75 3.08911 1.39137 0
M  V30 24570 C 2310.31 3.24723 1.90347 0
M  V30 24571 C 2309.46 2.66332 0.772187 0
M  V30 24572 H 2312.41 1.58678 -0.0266656 0
M  V30 24573 H 2312.43 3.06059 2.2607 0
M  V30 24574 H 2311.94 3.83315 0.607571 0
M  V30 24575 H 2310.04 2.5523 2.71456 0
M  V30 24576 H 2310.16 4.32194 2.0675 0
M  V30 24577 H 2308.52 2.25422 1.18562 0
M  V30 24578 H 2309.3 3.433 0.000675217 0
M  V30 24579 N 2311.75 -0.465951 1.50554 0
M  V30 24580 C 2312.98 -1.239 1.65325 0
M  V30 24581 C 2313.39 -1.86155 0.338084 0
M  V30 24582 O 2312.73 -1.70229 -0.690488 0
M  V30 24583 C 2312.79 -2.38435 2.69052 0
M  V30 24584 C 2312.46 -1.96777 4.12465 0
M  V30 24585 C 2313.45 -1.48736 4.9817 0
M  V30 24586 C 2311.14 -2.05341 4.58411 0
M  V30 24587 C 2313.13 -1.09809 6.2787 0
M  V30 24588 C 2310.82 -1.66025 5.88115 0
M  V30 24589 C 2311.82 -1.18338 6.7267 0
M  V30 24590 O 2311.5 -0.795684 7.99953 0
M  V30 24591 H 2311.24 -0.38066 0.558636 0
M  V30 24592 H 2313.79 -0.561987 1.97562 0
M  V30 24593 H 2312.02 -3.09324 2.32068 0
M  V30 24594 H 2313.71 -3.00385 2.7299 0
M  V30 24595 H 2314.48 -1.41538 4.63888 0
M  V30 24596 H 2310.35 -2.41407 3.92739 0
M  V30 24597 H 2313.9 -0.725171 6.93821 0
M  V30 24598 H 2309.8 -1.72884 6.21917 0
M  V30 24599 H 2310.56 -0.924079 8.13267 0
M  V30 24600 N 2313.23 -1.40218 -0.719481 0
M  V30 24601 C 2314.48 -1.37592 -1.47484 0
M  V30 24602 C 2314.79 0.0201224 -1.9559 0
M  V30 24603 O 2315.99 0.169002 -2.70973 0
M  V30 24604 C 2314.45 -2.41801 -2.66571 0
M  V30 24605 C 2314.06 -3.87196 -2.25351 0
M  V30 24606 C 2315.8 -2.48275 -3.44325 0
M  V30 24607 C 2313.71 -4.83011 -3.41254 0
M  V30 24608 H 2312.64 -0.511585 -0.553892 0
M  V30 24609 H 2315.29 -1.65937 -0.783398 0
M  V30 24610 H 2313.67 -2.06549 -3.37866 0
M  V30 24611 H 2314.85 -4.31571 -1.61501 0
M  V30 24612 H 2313.16 -3.84162 -1.60651 0
M  V30 24613 H 2315.76 -3.17048 -4.30563 0
M  V30 24614 H 2316.1 -1.51205 -3.8787 0
M  V30 24615 H 2316.63 -2.82498 -2.80071 0
M  V30 24616 H 2313.37 -5.814 -3.02745 0
M  V30 24617 H 2312.89 -4.43304 -4.04032 0
M  V30 24618 H 2314.57 -5.02648 -4.07374 0
M  V30 24619 N 2314.7 0.951297 -1.25651 0
M  V30 24620 C 2315.95 1.69882 -1.1076 0
M  V30 24621 C 2316.28 1.91019 0.350028 0
M  V30 24622 O 2315.56 1.48356 1.2578 0
M  V30 24623 C 2315.84 3.07975 -1.86611 0
M  V30 24624 C 2315.69 2.94226 -3.40222 0
M  V30 24625 C 2317.01 4.07922 -1.65189 0
M  V30 24626 H 2314.13 0.616566 -0.403751 0
M  V30 24627 H 2316.77 1.10556 -1.54523 0
M  V30 24628 H 2314.92 3.58619 -1.49415 0
M  V30 24629 H 2316.6 2.50882 -3.87112 0
M  V30 24630 H 2314.84 2.30071 -3.67763 0
M  V30 24631 H 2315.51 3.92126 -3.88512 0
M  V30 24632 H 2317.99 3.66201 -1.97576 0
M  V30 24633 H 2316.86 5.02579 -2.20692 0
M  V30 24634 H 2317.12 4.38091 -0.59401 0
M  V30 24635 N 2316.18 1.07291 1.1544 0
M  V30 24636 C 2317.43 0.794129 1.85844 0
M  V30 24637 C 2317.75 -0.681776 1.82693 0
M  V30 24638 O 2317.02 -1.49375 1.26744 0
M  V30 24639 H 2315.6 0.290775 0.688083 0
M  V30 24640 H 2318.26 1.35652 1.39945 0
M  V30 24641 H 2317.36 1.12809 2.90999 0
M  V30 24642 N 2317.66 -1.32267 0.856927 0
M  V30 24643 C 2318.61 -2.26336 0.274939 0
M  V30 24644 C 2319.59 -1.50063 -0.580517 0
M  V30 24645 O 2320.79 -1.71709 -0.429529 0
M  V30 24646 C 2317.92 -3.39125 -0.533781 0
M  V30 24647 C 2317 -4.22781 0.334189 0
M  V30 24648 N 2317.39 -4.85414 1.42152 0
M  V30 24649 C 2315.69 -4.45827 0.124334 0
M  V30 24650 C 2316.39 -5.47839 1.95569 0
M  V30 24651 N 2315.37 -5.28926 1.25453 0
M  V30 24652 H 2319.17 -2.72289 1.10617 0
M  V30 24653 H 2316.68 -1.46382 0.703284 0
M  V30 24654 H 2318.68 -4.05527 -0.967149 0
M  V30 24655 H 2317.34 -2.94718 -1.36278 0
M  V30 24656 H 2318.35 -4.85448 1.80445 0
M  V30 24657 H 2315.03 -4.12093 -0.669764 0
M  V30 24658 H 2316.42 -6.0765 2.86724 0
M  V30 24659 N 2319.14 -0.615084 -1.45102 0
M  V30 24660 C 2320.09 0.11175 -2.32331 0
M  V30 24661 C 2321.08 0.852076 -1.4641 0
M  V30 24662 O 2322.29 0.766793 -1.62851 0
M  V30 24663 H 2318.66 0.0548941 -0.749994 0
M  V30 24664 H 2320.63 -0.642276 -2.91406 0
M  V30 24665 C 2319.38 1.09065 -3.30152 0
M  V30 24666 H 2318.7 0.530415 -3.96266 0
M  V30 24667 H 2320.14 1.56901 -3.93901 0
M  V30 24668 C 2318.6 2.16795 -2.57879 0
M  V30 24669 O 2319.13 3.24648 -2.36573 0
M  V30 24670 N 2317.34 1.92285 -2.17887 0
M  V30 24671 H 2316.89 1.04583 -2.35415 0
M  V30 24672 H 2316.84 2.64569 -1.69855 0
M  V30 24673 N 2320.62 1.53557 -0.354678 0
M  V30 24674 C 2321.55 2.28321 0.489051 0
M  V30 24675 C 2322.53 1.30318 1.09322 0
M  V30 24676 O 2323.71 1.59175 1.11252 0
M  V30 24677 C 2320.84 3.06433 1.6345 0
M  V30 24678 C 2319.8 4.12033 1.15813 0
M  V30 24679 C 2319.12 4.78164 2.39297 0
M  V30 24680 C 2320.42 5.21698 0.250639 0
M  V30 24681 H 2322.12 2.99097 -0.134666 0
M  V30 24682 H 2319.66 1.43848 -0.0662079 0
M  V30 24683 H 2321.62 3.57479 2.2313 0
M  V30 24684 H 2320.34 2.33329 2.28529 0
M  V30 24685 H 2319 3.61917 0.584083 0
M  V30 24686 H 2318.65 4.01643 3.02807 0
M  V30 24687 H 2318.35 5.49517 2.08099 0
M  V30 24688 H 2319.87 5.31999 2.99682 0
M  V30 24689 H 2321.29 5.68312 0.754595 0
M  V30 24690 H 2319.68 6.00092 0.0300413 0
M  V30 24691 H 2320.75 4.79671 -0.710209 0
M  V30 24692 N 2322.1 0.083568 1.57378 0
M  V30 24693 C 2323.34 -0.582464 1.93107 0
M  V30 24694 C 2323.66 -1.70051 0.96654 0
M  V30 24695 O 2324.86 -2.42691 1.2171 0
M  V30 24696 C 2323.32 -1.08745 3.43078 0
M  V30 24697 C 2322.93 0.000225151 4.48 0
M  V30 24698 C 2324.67 -1.72687 3.87788 0
M  V30 24699 C 2322.58 -0.519464 5.89114 0
M  V30 24700 H 2321.51 -0.221345 0.720779 0
M  V30 24701 H 2324.16 0.157707 1.82821 0
M  V30 24702 H 2322.54 -1.88095 3.48477 0
M  V30 24703 H 2323.72 0.775279 4.54231 0
M  V30 24704 H 2322.03 0.544133 4.12829 0
M  V30 24705 H 2324.63 -2.12621 4.90608 0
M  V30 24706 H 2324.97 -2.59152 3.258 0
M  V30 24707 H 2325.5 -0.999389 3.85042 0
M  V30 24708 H 2322.24 0.308301 6.54775 0
M  V30 24709 H 2321.76 -1.26178 5.86378 0
M  V30 24710 H 2323.44 -0.992125 6.39348 0
M  V30 24711 N 2323.57 -1.5645 -0.190064 0
M  V30 24712 C 2324.52 -1.94944 -1.23553 0
M  V30 24713 C 2325.49 -0.810722 -1.44971 0
M  V30 24714 O 2326.68 -1.0693 -1.58021 0
M  V30 24715 C 2323.82 -2.29854 -2.57412 0
M  V30 24716 C 2322.93 -3.56815 -2.43531 0
M  V30 24717 C 2322.06 -3.81024 -3.70128 0
M  V30 24718 C 2321.1 -5.01393 -3.511 0
M  V30 24719 N 2320.24 -5.2183 -4.69721 0
M  V30 24720 H 2325.08 -2.84076 -0.900254 0
M  V30 24721 H 2322.62 -1.40578 -0.433155 0
M  V30 24722 H 2324.57 -2.48112 -3.35404 0
M  V30 24723 H 2323.2 -1.43857 -2.88973 0
M  V30 24724 H 2322.26 -3.46576 -1.5681 0
M  V30 24725 H 2323.57 -4.44964 -2.25407 0
M  V30 24726 H 2322.72 -3.99548 -4.56559 0
M  V30 24727 H 2321.46 -2.91214 -3.9121 0
M  V30 24728 H 2320.47 -4.82786 -2.63054 0
M  V30 24729 H 2321.69 -5.92716 -3.31458 0
M  V30 24730 H 2319.64 -4.34969 -4.91058 0
M  V30 24731 H 2319.55 -6.04168 -4.54442 0
M  V30 24732 H 2320.82 -5.44817 -5.57489 0
M  V30 24733 N 2325.05 0.45796 -1.50799 0
M  V30 24734 C 2326.01 1.53671 -1.70053 0
M  V30 24735 C 2327.01 1.50324 -0.570908 0
M  V30 24736 O 2328.2 1.52711 -0.838153 0
M  V30 24737 C 2325.34 2.93273 -1.73793 0
M  V30 24738 H 2326.53 1.37912 -2.66309 0
M  V30 24739 H 2324.08 0.685246 -1.40478 0
M  V30 24740 H 2324.82 3.14461 -0.792773 0
M  V30 24741 H 2324.6 2.97108 -2.55869 0
M  V30 24742 H 2326.09 3.71567 -1.90598 0
M  V30 24743 N 2326.53 1.40598 0.712035 0
M  V30 24744 C 2327.48 1.37622 1.81781 0
M  V30 24745 C 2328.46 0.25319 1.58895 0
M  V30 24746 O 2329.66 0.492577 1.70008 0
M  V30 24747 C 2326.78 1.24468 3.19942 0
M  V30 24748 C 2325.87 2.41566 3.48578 0
M  V30 24749 N 2326.26 3.67047 3.48009 0
M  V30 24750 C 2324.56 2.35023 3.79052 0
M  V30 24751 C 2325.26 4.44616 3.75089 0
M  V30 24752 N 2324.24 3.74504 3.94015 0
M  V30 24753 H 2328.04 2.32578 1.79679 0
M  V30 24754 H 2325.55 1.3442 0.911316 0
M  V30 24755 H 2327.55 1.20418 3.99131 0
M  V30 24756 H 2326.21 0.304819 3.23266 0
M  V30 24757 H 2327.22 4.00159 3.28775 0
M  V30 24758 H 2323.9 1.49422 3.89845 0
M  V30 24759 H 2325.29 5.53486 3.80924 0
M  V30 24760 N 2328.01 -0.94462 1.26153 0
M  V30 24761 C 2328.97 -2.02438 1.07477 0
M  V30 24762 C 2329.97 -1.60782 0.0242347 0
M  V30 24763 O 2331.16 -1.72136 0.267333 0
M  V30 24764 C 2328.29 -3.34952 0.634015 0
M  V30 24765 H 2329.49 -2.20438 2.0334 0
M  V30 24766 H 2327.04 -1.1231 1.08702 0
M  V30 24767 H 2327.77 -3.2265 -0.326754 0
M  V30 24768 H 2327.56 -3.66539 1.39253 0
M  V30 24769 H 2329.05 -4.14286 0.525083 0
M  V30 24770 N 2329.49 -1.07901 -1.1487 0
M  V30 24771 C 2330.4 -0.715954 -2.23408 0
M  V30 24772 C 2331.41 0.275275 -1.71809 0
M  V30 24773 O 2332.59 0.12051 -2.01039 0
M  V30 24774 C 2329.65 -0.125229 -3.46474 0
M  V30 24775 C 2328.71 -1.17041 -4.13037 0
M  V30 24776 C 2327.95 -0.607781 -5.30228 0
M  V30 24777 O 2328.17 0.574397 -5.67501 0
M  V30 24778 O 2327.1 -1.35536 -5.86441 0
M  V30 24779 H 2330.93 -1.62125 -2.56805 0
M  V30 24780 H 2328.51 -0.852344 -1.22701 0
M  V30 24781 H 2330.4 0.201655 -4.20917 0
M  V30 24782 H 2329.07 0.753309 -3.14813 0
M  V30 24783 H 2327.98 -1.54974 -3.40491 0
M  V30 24784 H 2329.31 -2.02105 -4.48792 0
M  V30 24785 N 2330.96 1.31811 -0.863929 0
M  V30 24786 C 2331.93 2.26952 -0.320252 0
M  V30 24787 C 2332.93 1.51976 0.525342 0
M  V30 24788 O 2334.12 1.70938 0.335517 0
M  V30 24789 C 2331.25 3.36501 0.54586 0
M  V30 24790 H 2332.44 2.76554 -1.16008 0
M  V30 24791 H 2329.99 1.4264 -0.63902 0
M  V30 24792 H 2330.73 2.92182 1.40713 0
M  V30 24793 H 2330.51 3.92055 -0.0595363 0
M  V30 24794 H 2332 4.07369 0.918724 0
M  V30 24795 N 2332.44 0.62277 1.44773 0
M  V30 24796 C 2333.69 0.132606 2.02967 0
M  V30 24797 C 2334.04 -1.22879 1.48049 0
M  V30 24798 O 2333.34 -1.80178 0.651657 0
M  V30 24799 C 2333.53 0.0508952 3.57364 0
M  V30 24800 C 2333.36 1.40282 4.2726 0
M  V30 24801 C 2332.13 1.98745 4.64573 0
M  V30 24802 C 2334.33 2.33488 4.58244 0
M  V30 24803 N 2332.31 3.2726 5.19398 0
M  V30 24804 C 2333.68 3.46612 5.14063 0
M  V30 24805 C 2335.73 2.32672 4.40191 0
M  V30 24806 C 2334.44 4.59103 5.5373 0
M  V30 24807 C 2336.46 3.44221 4.80901 0
M  V30 24808 C 2335.83 4.56068 5.36826 0
M  V30 24809 H 2331.92 0.0922491 0.77654 0
M  V30 24810 H 2334.51 0.824441 1.76383 0
M  V30 24811 H 2332.68 -0.610198 3.83577 0
M  V30 24812 H 2334.41 -0.447326 4.0222 0
M  V30 24813 H 2331.17 1.51781 4.48619 0
M  V30 24814 H 2331.59 3.92942 5.51294 0
M  V30 24815 H 2336.23 1.47453 3.96254 0
M  V30 24816 H 2333.95 5.45036 5.96625 0
M  V30 24817 H 2337.54 3.44755 4.68653 0
M  V30 24818 H 2336.42 5.40957 5.67746 0
M  V30 24819 N 2333.92 -1.53367 0.362817 0
M  V30 24820 C 2334.87 -2.2242 -0.501352 0
M  V30 24821 C 2335.85 -1.21842 -1.05088 0
M  V30 24822 O 2337.05 -1.47302 -0.981378 0
M  V30 24823 C 2334.17 -3.01487 -1.64196 0
M  V30 24824 C 2333.26 -4.09439 -1.10545 0
M  V30 24825 N 2333.65 -5.04958 -0.291699 0
M  V30 24826 C 2331.95 -4.24096 -1.38052 0
M  V30 24827 C 2332.65 -5.817 0.0017288 0
M  V30 24828 N 2331.63 -5.40332 -0.595149 0
M  V30 24829 H 2335.43 -2.93625 0.127211 0
M  V30 24830 H 2332.94 -1.61501 0.170687 0
M  V30 24831 H 2334.94 -3.49473 -2.2732 0
M  V30 24832 H 2333.6 -2.31813 -2.27361 0
M  V30 24833 H 2334.61 -5.17854 0.0688642 0
M  V30 24834 H 2331.29 -3.65647 -2.01515 0
M  V30 24835 H 2332.68 -6.68657 0.659396 0
M  V30 24836 N 2335.4 -0.091913 -1.57332 0
M  V30 24837 C 2336.33 0.865333 -2.16874 0
M  V30 24838 C 2337.31 1.29644 -1.1012 0
M  V30 24839 O 2338.49 1.3639 -1.38244 0
M  V30 24840 C 2335.62 2.12564 -2.74652 0
M  V30 24841 C 2334.58 1.83326 -3.8675 0
M  V30 24842 C 2333.9 3.16158 -4.31217 0
M  V30 24843 C 2335.2 1.12271 -5.10091 0
M  V30 24844 H 2336.9 0.369255 -2.97114 0
M  V30 24845 H 2334.44 0.176168 -1.42918 0
M  V30 24846 H 2336.4 2.79964 -3.14957 0
M  V30 24847 H 2335.12 2.64449 -1.91662 0
M  V30 24848 H 2333.78 1.18325 -3.4698 0
M  V30 24849 H 2333.43 3.65924 -3.45121 0
M  V30 24850 H 2333.13 2.97379 -5.06793 0
M  V30 24851 H 2334.65 3.84722 -4.74153 0
M  V30 24852 H 2336.07 1.69776 -5.47585 0
M  V30 24853 H 2334.46 1.03682 -5.91075 0
M  V30 24854 H 2335.53 0.104956 -4.84786 0
M  V30 24855 N 2336.88 1.56548 0.181765 0
M  V30 24856 C 2338.11 1.85254 0.914586 0
M  V30 24857 C 2338.51 0.673945 1.7679 0
M  V30 24858 O 2337.86 -0.366385 1.80009 0
M  V30 24859 C 2337.92 3.08237 1.85014 0
M  V30 24860 C 2337.58 4.41571 1.17746 0
M  V30 24861 C 2338.58 5.17004 0.547944 0
M  V30 24862 C 2336.27 4.88307 1.17734 0
M  V30 24863 C 2338.26 6.37359 -0.0727248 0
M  V30 24864 C 2335.95 6.08594 0.55284 0
M  V30 24865 C 2336.94 6.82963 -0.071098 0
M  V30 24866 O 2336.63 8.0097 -0.685775 0
M  V30 24867 H 2336.36 0.619002 0.271684 0
M  V30 24868 H 2338.92 2.0452 0.189909 0
M  V30 24869 H 2337.15 2.84889 2.61486 0
M  V30 24870 H 2338.84 3.23476 2.45189 0
M  V30 24871 H 2339.6 4.81983 0.54009 0
M  V30 24872 H 2335.48 4.30369 1.65238 0
M  V30 24873 H 2339.03 6.95346 -0.560335 0
M  V30 24874 H 2334.92 6.43082 0.558241 0
M  V30 24875 H 2335.69 8.16414 -0.583993 0
M  V30 24876 N 2338.35 -0.449957 1.5104 0
M  V30 24877 C 2339.3 -1.56587 1.71998 0
M  V30 24878 C 2340.3 -1.58939 0.586057 0
M  V30 24879 O 2341.5 -1.62835 0.767119 0
M  V30 24880 H 2337.88 -0.519992 0.543243 0
M  V30 24881 H 2339.85 -1.36081 2.65565 0
M  V30 24882 C 2338.6 -2.94357 1.85065 0
M  V30 24883 H 2337.92 -2.93274 2.71717 0
M  V30 24884 H 2339.36 -3.71838 2.03746 0
M  V30 24885 C 2337.82 -3.31381 0.607335 0
M  V30 24886 O 2338.35 -4.00959 -0.243833 0
M  V30 24887 N 2336.56 -2.87014 0.455123 0
M  V30 24888 H 2336.1 -2.30564 1.14883 0
M  V30 24889 H 2336.06 -3.12149 -0.375556 0
M  V30 24890 N 2339.83 -1.40974 -0.704569 0
M  V30 24891 C 2341.11 -1.3034 -1.45845 0
M  V30 24892 C 2341.49 0.0731973 -2.10973 0
M  V30 24893 O 2340.84 1.08682 -2.00999 0
M  V30 24894 C 2341.05 -2.45027 -2.48521 0
M  V30 24895 C 2342.4 -2.85775 -3.14035 0
M  V30 24896 O 2343.42 -2.44701 -2.58844 0
M  V30 24897 O 2342.28 -3.56773 -4.13975 0
M  V30 24898 H 2339.37 -0.512465 -0.649083 0
M  V30 24899 H 2341.92 -1.52918 -0.735809 0
M  V30 24900 H 2340.69 -3.36926 -1.98988 0
M  V30 24901 H 2340.31 -2.24278 -3.28306 0
M  V30 24902 N 2341.31 0.937917 -1.26653 0
M  V30 24903 C 2342.56 1.68698 -1.12556 0
M  V30 24904 C 2342.89 1.9138 0.329748 0
M  V30 24905 O 2342.16 1.49682 1.242 0
M  V30 24906 C 2342.45 3.05978 -1.89867 0
M  V30 24907 C 2342.3 2.90601 -3.43323 0
M  V30 24908 C 2343.62 4.06147 -1.69506 0
M  V30 24909 H 2340.74 0.612249 -0.410268 0
M  V30 24910 H 2343.38 1.0891 -1.55687 0
M  V30 24911 H 2341.53 3.57014 -1.5321 0
M  V30 24912 H 2343.2 2.46762 -3.89752 0
M  V30 24913 H 2341.45 2.26158 -3.70183 0
M  V30 24914 H 2342.12 3.87983 -3.92649 0
M  V30 24915 H 2344.59 3.64085 -2.01449 0
M  V30 24916 H 2343.47 5.0021 -2.2601 0
M  V30 24917 H 2343.73 4.37437 -0.640442 0
M  V30 24918 N 2342.79 1.08509 1.14296 0
M  V30 24919 C 2344.02 0.835696 1.88944 0
M  V30 24920 C 2344.43 -0.615896 1.78895 0
M  V30 24921 O 2343.77 -1.43504 1.14683 0
M  V30 24922 C 2343.83 1.17999 3.39583 0
M  V30 24923 C 2343.5 2.63458 3.73415 0
M  V30 24924 C 2344.49 3.61708 3.73447 0
M  V30 24925 C 2342.18 2.99339 4.03363 0
M  V30 24926 C 2344.17 4.93871 4.02952 0
M  V30 24927 C 2341.86 4.31695 4.3253 0
M  V30 24928 C 2342.86 5.28771 4.32309 0
M  V30 24929 O 2342.54 6.58747 4.60769 0
M  V30 24930 H 2342.28 0.300976 0.605301 0
M  V30 24931 H 2344.83 1.44808 1.4567 0
M  V30 24932 H 2343.06 0.510617 3.83314 0
M  V30 24933 H 2344.75 0.911252 3.95539 0
M  V30 24934 H 2345.52 3.35331 3.50397 0
M  V30 24935 H 2341.39 2.24418 4.02688 0
M  V30 24936 H 2344.94 5.69634 4.02694 0
M  V30 24937 H 2340.84 4.5782 4.55051 0
M  V30 24938 H 2341.6 6.64077 4.7848 0
M  V30 24939 N 2344.27 -1.31351 0.870907 0
M  V30 24940 C 2345.68 -1.49342 0.562958 0
M  V30 24941 C 2345.88 -1.80149 -0.902693 0
M  V30 24942 O 2344.94 -1.8807 -1.68481 0
M  V30 24943 C 2346.25 -2.62656 1.46398 0
M  V30 24944 C 2347.8 -2.76539 1.46612 0
M  V30 24945 C 2348.27 -3.92951 2.35273 0
M  V30 24946 N 2349.77 -4.00239 2.33158 0
M  V30 24947 C 2350.5 -4.89589 2.9848 0
M  V30 24948 N 2350 -5.83834 3.72975 0
M  V30 24949 N 2351.79 -4.82843 2.87784 0
M  V30 24950 H 2343.94 -1.09623 1.81925 0
M  V30 24951 H 2346.2 -0.541763 0.777944 0
M  V30 24952 H 2345.91 -2.4667 2.50693 0
M  V30 24953 H 2345.78 -3.58817 1.1632 0
M  V30 24954 H 2348.17 -2.91939 0.430741 0
M  V30 24955 H 2348.25 -1.81043 1.80713 0
M  V30 24956 H 2347.9 -3.78309 3.38888 0
M  V30 24957 H 2347.83 -4.87757 1.98495 0
M  V30 24958 H 2350.32 -3.32811 1.79011 0
M  V30 24959 H 2350.63 -6.48743 4.19943 0
M  V30 24960 H 2348.97 -5.8381 3.77083 0
M  V30 24961 H 2352.17 -4.08191 2.29123 0
M  V30 24962 H 2352.34 -5.52271 3.38971 0
M  V30 24963 N 2345.74 -0.630439 -1.44441 0
M  V30 24964 C 2346.71 0.065212 -2.29107 0
M  V30 24965 C 2347.71 0.77297 -1.41003 0
M  V30 24966 O 2348.9 0.617664 -1.62882 0
M  V30 24967 C 2346.03 1.10291 -3.22566 0
M  V30 24968 H 2347.22 -0.679453 -2.92102 0
M  V30 24969 H 2344.78 -0.390544 -1.51342 0
M  V30 24970 H 2345.51 1.87758 -2.64419 0
M  V30 24971 H 2345.3 0.599342 -3.87492 0
M  V30 24972 H 2346.79 1.58943 -3.8617 0
M  V30 24973 N 2347.22 1.53172 -0.370945 0
M  V30 24974 C 2348.45 2.06227 0.220257 0
M  V30 24975 C 2348.87 1.24228 1.41241 0
M  V30 24976 O 2348.23 0.262677 1.79387 0
M  V30 24977 C 2348.28 3.55797 0.5866 0
M  V30 24978 O 2347.38 3.76491 1.68311 0
M  V30 24979 H 2346.72 0.663285 0.0307982 0
M  V30 24980 H 2349.25 1.97533 -0.533102 0
M  V30 24981 H 2349.26 3.98917 0.8561 0
M  V30 24982 H 2347.94 4.14922 -0.285086 0
M  V30 24983 H 2346.52 3.45266 1.40875 0
M  V30 24984 N 2348.7 0.100255 1.57281 0
M  V30 24985 C 2349.63 -0.886935 2.11344 0
M  V30 24986 C 2350.65 -1.24259 1.05184 0
M  V30 24987 O 2351.83 -1.1948 1.32615 0
M  V30 24988 C 2348.93 -2.19449 2.58254 0
M  V30 24989 C 2348.11 -2.01339 3.88306 0
M  V30 24990 C 2347.17 -3.15654 4.2101 0
M  V30 24991 O 2346.19 -2.8939 4.90145 0
M  V30 24992 N 2347.39 -4.41568 3.76826 0
M  V30 24993 H 2350.16 -0.425163 2.96669 0
M  V30 24994 H 2347.72 -0.084705 1.61678 0
M  V30 24995 H 2349.71 -2.94883 2.77175 0
M  V30 24996 H 2348.28 -2.57034 1.77912 0
M  V30 24997 H 2347.5 -1.10205 3.78482 0
M  V30 24998 H 2348.79 -1.86522 4.73378 0
M  V30 24999 H 2348.19 -4.65787 3.21029 0
M  V30 25000 H 2346.75 -5.13935 4.00892 0
M  V30 25001 N 2350.18 -1.56643 -0.17346 0
M  V30 25002 C 2351.43 -1.81513 -0.888674 0
M  V30 25003 C 2351.75 -0.676904 -1.82874 0
M  V30 25004 O 2351.02 0.30338 -1.93537 0
M  V30 25005 H 2349.6 -0.669588 -0.331152 0
M  V30 25006 H 2352.26 -1.94124 -0.173789 0
M  V30 25007 H 2351.36 -2.75481 -1.46686 0
M  V30 25008 N 2351.66 0.44194 -1.51277 0
M  V30 25009 C 2352.91 1.1894 -1.63394 0
M  V30 25010 C 2353.23 1.9183 -0.350193 0
M  V30 25011 O 2352.5 1.85366 0.633752 0
M  V30 25012 H 2351.08 0.442039 -0.602172 0
M  V30 25013 H 2353.74 0.507132 -1.88187 0
M  V30 25014 H 2352.83 1.92149 -2.45937 0
M  V30 25015 N 2353.14 1.41345 0.697083 0
M  V30 25016 C 2354.38 1.4083 1.45928 0
M  V30 25017 C 2354.71 0.0167439 1.94193 0
M  V30 25018 O 2353.99 -0.955233 1.69427 0
M  V30 25019 C 2354.27 2.41377 2.67224 0
M  V30 25020 C 2354.13 3.89634 2.24735 0
M  V30 25021 C 2355.44 2.39202 3.69419 0
M  V30 25022 H 2352.56 0.512852 0.529294 0
M  V30 25023 H 2355.21 1.7261 0.794082 0
M  V30 25024 H 2353.36 2.14407 3.23978 0
M  V30 25025 H 2355.03 4.27502 1.7332 0
M  V30 25026 H 2353.27 4.04573 1.56535 0
M  V30 25027 H 2353.94 4.55531 3.11762 0
M  V30 25028 H 2356.42 2.63133 3.22335 0
M  V30 25029 H 2355.29 3.11571 4.51901 0
M  V30 25030 H 2355.55 1.41008 4.1901 0
M  V30 25031 N 2354.61 -0.931187 1.27148 0
M  V30 25032 C 2355.86 -1.673 1.12667 0
M  V30 25033 C 2356.18 -1.92836 -0.327685 0
M  V30 25034 O 2357.38 -2.64937 -0.593345 0
M  V30 25035 C 2355.84 -3.01303 1.96836 0
M  V30 25036 C 2355.45 -2.83478 3.46906 0
M  V30 25037 C 2357.19 -3.79107 1.90992 0
M  V30 25038 C 2355.1 -4.13016 4.23287 0
M  V30 25039 H 2354.03 -0.627501 0.418041 0
M  V30 25040 H 2356.68 -1.03478 1.5154 0
M  V30 25041 H 2355.06 -3.66162 1.50803 0
M  V30 25042 H 2356.23 -2.27408 4.00777 0
M  V30 25043 H 2354.55 -2.19107 3.54092 0
M  V30 25044 H 2357.15 -4.75094 2.45337 0
M  V30 25045 H 2357.49 -4.06832 0.88279 0
M  V30 25046 H 2358.02 -3.2104 2.34901 0
M  V30 25047 H 2354.76 -3.90471 5.2651 0
M  V30 25048 H 2354.28 -4.68763 3.74194 0
M  V30 25049 H 2355.96 -4.81403 4.32273 0
M  V30 25050 N 2356.09 -1.09114 -1.13719 0
M  V30 25051 C 2357.32 -0.847086 -1.89312 0
M  V30 25052 C 2357.74 0.595743 -1.78417 0
M  V30 25053 O 2357.1 1.41821 -1.12944 0
M  V30 25054 C 2357.15 -1.2829 -3.37008 0
M  V30 25055 O 2356.25 -0.439339 -4.10053 0
M  V30 25056 H 2355.59 -0.307054 -0.588739 0
M  V30 25057 H 2358.12 -1.45444 -1.439 0
M  V30 25058 H 2358.13 -1.2669 -3.87832 0
M  V30 25059 H 2356.81 -2.33369 -3.44256 0
M  V30 25060 H 2355.38 -0.519377 -3.69265 0
M  V30 25061 N 2357.57 1.30887 -0.877861 0
M  V30 25062 C 2358.82 1.95687 -0.488827 0
M  V30 25063 C 2359.13 1.70113 0.965455 0
M  V30 25064 O 2360.34 2.28838 1.461 0
M  V30 25065 C 2358.79 3.50358 -0.823263 0
M  V30 25066 C 2358.4 3.84761 -2.29484 0
M  V30 25067 C 2360.15 4.21508 -0.503083 0
M  V30 25068 C 2358.05 5.32578 -2.57127 0
M  V30 25069 H 2356.98 0.732426 -0.179075 0
M  V30 25070 H 2359.63 1.48941 -1.07185 0
M  V30 25071 H 2358.02 3.95638 -0.169401 0
M  V30 25072 H 2359.19 3.50415 -2.99242 0
M  V30 25073 H 2357.5 3.26696 -2.58184 0
M  V30 25074 H 2360.1 5.30272 -0.686744 0
M  V30 25075 H 2360.44 4.12556 0.557036 0
M  V30 25076 H 2360.98 3.81888 -1.11383 0
M  V30 25077 H 2357.72 5.46574 -3.61853 0
M  V30 25078 H 2357.24 5.68249 -1.91971 0
M  V30 25079 H 2358.92 5.99932 -2.42262 0
M  V30 25080 N 2359.05 0.638091 1.44105 0
M  V30 25081 C 2360.28 0.152651 2.06336 0
M  V30 25082 C 2360.69 -1.1756 1.47733 0
M  V30 25083 O 2360.05 -1.72256 0.602836 0
M  V30 25084 C 2360.1 0.0392126 3.61479 0
M  V30 25085 O 2359.82 1.31495 4.179 0
M  V30 25086 C 2361.32 -0.474099 4.40758 0
M  V30 25087 H 2358.54 0.0828893 0.665861 0
M  V30 25088 H 2361.08 0.874463 1.8486 0
M  V30 25089 H 2359.24 -0.633075 3.82192 0
M  V30 25090 H 2359.65 1.1643 5.11414 0
M  V30 25091 H 2361.13 -0.502466 5.49708 0
M  V30 25092 H 2361.6 -1.50251 4.127 0
M  V30 25093 H 2362.21 0.165176 4.24979 0
M  V30 25094 N 2360.53 -1.52973 0.379063 0
M  V30 25095 C 2361.77 -2.00629 -0.207577 0
M  V30 25096 C 2362.09 -1.27008 -1.48756 0
M  V30 25097 O 2363.29 -1.65322 -2.15362 0
M  V30 25098 C 2361.75 -3.57435 -0.420467 0
M  V30 25099 C 2361.36 -4.39946 0.845664 0
M  V30 25100 C 2363.1 -4.13409 -0.964029 0
M  V30 25101 C 2361.01 -5.88332 0.601616 0
M  V30 25102 H 2359.94 -0.749599 -0.0813459 0
M  V30 25103 H 2362.59 -1.7656 0.499884 0
M  V30 25104 H 2360.97 -3.77712 -1.18952 0
M  V30 25105 H 2362.15 -4.31439 1.61855 0
M  V30 25106 H 2360.46 -3.95143 1.31343 0
M  V30 25107 H 2363.06 -5.21918 -1.16216 0
M  V30 25108 H 2363.4 -3.68852 -1.93012 0
M  V30 25109 H 2363.93 -3.96983 -0.2548 0
M  V30 25110 H 2360.67 -6.37191 1.53842 0
M  V30 25111 H 2360.19 -5.99654 -0.132523 0
M  V30 25112 H 2361.87 -6.46583 0.232247 0
M  V30 25113 N 2362 -0.108595 -1.57225 0
M  V30 25114 C 2363.23 0.563268 -1.99605 0
M  V30 25115 C 2363.65 1.60088 -0.987591 0
M  V30 25116 O 2363.01 1.81251 0.0421369 0
M  V30 25117 C 2363.06 1.17546 -3.40904 0
M  V30 25118 O 2362.16 2.29114 -3.429 0
M  V30 25119 H 2361.5 0.141689 -0.648707 0
M  V30 25120 H 2364.03 -0.193996 -2.03678 0
M  V30 25121 H 2364.04 1.51351 -3.78889 0
M  V30 25122 H 2362.72 0.415372 -4.13821 0
M  V30 25123 H 2361.3 1.96827 -3.16723 0
M  V30 25124 N 2363.48 1.56732 0.16515 0
M  V30 25125 C 2364.71 1.86844 0.90022 0
M  V30 25126 C 2365.13 0.695627 1.74765 0
M  V30 25127 O 2364.49 -0.355188 1.77787 0
M  V30 25128 C 2364.54 3.15416 1.74771 0
M  V30 25129 O 2363.64 2.98073 2.85002 0
M  V30 25130 H 2362.98 0.614396 0.251821 0
M  V30 25131 H 2365.51 2.03962 0.161433 0
M  V30 25132 H 2365.52 3.46978 2.1464 0
M  V30 25133 H 2364.2 4.00387 1.12529 0
M  V30 25134 H 2362.77 2.7788 2.48671 0
M  V30 25135 N 2364.96 -0.433911 1.51509 0
M  V30 25136 C 2366.24 -1.1945 1.5489 0
M  V30 25137 C 2366.62 -2.08734 0.315191 0
M  V30 25138 O 2365.97 -2.17529 -0.69952 0
M  V30 25139 C 2366.18 -1.99337 2.86471 0
M  V30 25140 C 2367.52 -2.56261 3.38549 0
M  V30 25141 O 2368.55 -2.09544 2.88044 0
M  V30 25142 O 2367.41 -3.41475 4.26681 0
M  V30 25143 H 2364.5 -0.544021 0.622872 0
M  V30 25144 H 2367.05 -0.442703 1.63824 0
M  V30 25145 H 2365.82 -1.33782 3.6772 0
M  V30 25146 H 2365.44 -2.81575 2.80715 0
M  V30 25147 N 2366.44 -1.41713 -0.689577 0
M  V30 25148 C 2367.68 -1.42602 -1.45039 0
M  V30 25149 C 2368.04 -0.0364102 -1.92366 0
M  V30 25150 O 2367.33 0.938815 -1.67023 0
M  V30 25151 C 2367.53 -2.37252 -2.67294 0
M  V30 25152 C 2367.36 -3.85278 -2.31928 0
M  V30 25153 C 2366.13 -4.5392 -2.22002 0
M  V30 25154 C 2368.32 -4.76096 -1.94518 0
M  V30 25155 N 2366.31 -5.87046 -1.79584 0
M  V30 25156 C 2367.68 -5.98216 -1.62905 0
M  V30 25157 C 2369.73 -4.63687 -1.8138 0
M  V30 25158 C 2368.43 -7.09308 -1.19474 0
M  V30 25159 C 2370.46 -5.74747 -1.39354 0
M  V30 25160 C 2369.82 -6.95969 -1.08656 0
M  V30 25161 H 2365.92 -0.577023 -0.527796 0
M  V30 25162 H 2368.51 -1.7763 -0.797234 0
M  V30 25163 H 2366.68 -2.0431 -3.30321 0
M  V30 25164 H 2368.41 -2.2882 -3.33802 0
M  V30 25165 H 2365.16 -4.07936 -2.40593 0
M  V30 25166 H 2365.59 -6.57617 -1.6084 0
M  V30 25167 H 2370.23 -3.70458 -2.03766 0
M  V30 25168 H 2367.95 -8.02397 -0.958336 0
M  V30 25169 H 2371.53 -5.67152 -1.2973 0
M  V30 25170 H 2370.41 -7.80447 -0.766279 0
M  V30 25171 N 2367.92 0.924431 -1.2764 0
M  V30 25172 C 2368.88 2.00703 -1.10684 0
M  V30 25173 C 2369.88 1.60723 -0.0498106 0
M  V30 25174 O 2371.07 1.71689 -0.294684 0
M  V30 25175 C 2368.2 3.33901 -0.687223 0
M  V30 25176 H 2369.39 2.17175 -2.06821 0
M  V30 25177 H 2366.95 1.10567 -1.10475 0
M  V30 25178 H 2367.68 3.23129 0.275382 0
M  V30 25179 H 2367.47 3.64277 -1.45067 0
M  V30 25180 H 2368.96 4.13398 -0.590925 0
M  V30 25181 N 2369.39 1.09715 1.13139 0
M  V30 25182 C 2370.3 0.751406 2.22241 0
M  V30 25183 C 2371.32 -0.247907 1.72225 0
M  V30 25184 O 2372.5 -0.0885109 2.01205 0
M  V30 25185 C 2369.56 0.180334 3.46231 0
M  V30 25186 C 2368.62 1.23597 4.11123 0
M  V30 25187 C 2367.86 0.692059 5.29194 0
M  V30 25188 O 2368.08 -0.48404 5.68343 0
M  V30 25189 O 2367.01 1.44849 5.84211 0
M  V30 25190 H 2370.84 1.6619 2.54194 0
M  V30 25191 H 2368.42 0.871757 1.21329 0
M  V30 25192 H 2370.31 -0.134665 4.21185 0
M  V30 25193 H 2368.98 -0.70313 3.15971 0
M  V30 25194 H 2367.89 1.60371 3.37982 0
M  V30 25195 H 2369.22 2.09219 4.4552 0
M  V30 25196 N 2370.87 -1.30419 0.88479 0
M  V30 25197 C 2372.28 -1.78301 0.553688 0
M  V30 25198 C 2372.63 -1.72752 -0.930122 0
M  V30 25199 O 2371.76 -1.30426 -1.72679 0
M  V30 25200 C 2372.35 -3.23759 0.998291 0
M  V30 25201 C 2370.91 -3.69477 0.718605 0
M  V30 25202 C 2370.06 -2.50876 1.18137 0
M  V30 25203 H 2373.01 -1.17292 1.06903 0
M  V30 25204 H 2373.03 -3.79091 0.327184 0
M  V30 25205 H 2372.54 -3.27765 2.07826 0
M  V30 25206 H 2370.65 -3.70958 -0.349378 0
M  V30 25207 H 2370.76 -4.60955 1.30603 0
M  V30 25208 H 2369.12 -2.47515 0.600713 0
M  V30 25209 H 2369.91 -2.5762 2.26907 0
M  V30 25210 N 2372.35 -0.645724 -1.43764 0
M  V30 25211 C 2373.77 -0.312618 -1.56508 0
M  V30 25212 C 2373.97 1.18362 -1.63072 0
M  V30 25213 O 2373.02 1.96821 -1.5817 0
M  V30 25214 C 2374.34 -1.01738 -2.82966 0
M  V30 25215 C 2375.88 -0.996917 -2.96699 0
M  V30 25216 C 2376.36 -1.68243 -4.25979 0
M  V30 25217 N 2377.85 -1.64971 -4.32826 0
M  V30 25218 C 2378.58 -2.14894 -5.31609 0
M  V30 25219 N 2378.08 -2.73072 -6.36713 0
M  V30 25220 N 2379.87 -2.05437 -5.23213 0
M  V30 25221 H 2372.02 -1.61677 -1.37747 0
M  V30 25222 H 2374.29 -0.679492 -0.661055 0
M  V30 25223 H 2373.99 -2.07245 -2.84152 0
M  V30 25224 H 2373.87 -0.564243 -3.72956 0
M  V30 25225 H 2376.25 0.04972 -2.95058 0
M  V30 25226 H 2376.34 -1.48868 -2.08019 0
M  V30 25227 H 2375.98 -2.7286 -4.28381 0
M  V30 25228 H 2375.91 -1.16538 -5.13543 0
M  V30 25229 H 2378.4 -1.2251 -3.57491 0
M  V30 25230 H 2378.71 -3.08861 -7.08396 0
M  V30 25231 H 2377.06 -2.7713 -6.37357 0
M  V30 25232 H 2380.25 -1.59697 -4.40016 0
M  V30 25233 H 2380.42 -2.44653 -6.00041 0
M  V30 25234 N 2373.83 1.5277 -0.38717 0
M  V30 25235 C 2375.11 1.93955 0.253163 0
M  V30 25236 C 2375.49 1.32246 1.64543 0
M  V30 25237 O 2374.83 0.489738 2.2319 0
M  V30 25238 C 2375.04 3.47862 0.281661 0
M  V30 25239 C 2376.39 4.21506 0.511641 0
M  V30 25240 O 2377.42 3.54356 0.361961 0
M  V30 25241 O 2376.27 5.40542 0.804752 0
M  V30 25242 H 2373.37 0.811993 0.15683 0
M  V30 25243 H 2375.91 1.63856 -0.441523 0
M  V30 25244 H 2374.69 3.85103 -0.693639 0
M  V30 25245 H 2374.31 3.84258 1.02136 0
M  V30 25246 N 2375.31 0.116931 1.57166 0
M  V30 25247 C 2376.72 -0.408777 1.8217 0
M  V30 25248 C 2377.07 -1.66744 1.03396 0
M  V30 25249 O 2376.19 -2.1471 0.269924 0
M  V30 25250 C 2376.79 -0.748408 3.3043 0
M  V30 25251 C 2375.35 -1.21876 3.56122 0
M  V30 25252 C 2374.49 -0.226403 2.76374 0
M  V30 25253 H 2377.45 0.342091 1.54969 0
M  V30 25254 H 2377.47 -1.60601 3.44946 0
M  V30 25255 H 2376.98 0.167853 3.87737 0
M  V30 25256 H 2375.08 -2.15199 3.04171 0
M  V30 25257 H 2375.19 -1.16551 4.64707 0
M  V30 25258 H 2373.56 -0.71302 2.44516 0
M  V30 25259 H 2374.34 0.682918 3.36439 0
M  V30 25260 N 2376.78 -1.56818 -0.156836 0
M  V30 25261 C 2378.01 -1.87319 -0.890298 0
M  V30 25262 C 2378.43 -0.704885 -1.74393 0
M  V30 25263 O 2377.79 0.345755 -1.77973 0
M  V30 25264 C 2377.84 -3.16339 -1.73096 0
M  V30 25265 O 2376.94 -2.99581 -2.83417 0
M  V30 25266 H 2376.29 -0.615723 -0.248559 0
M  V30 25267 H 2378.82 -2.04045 -0.150614 0
M  V30 25268 H 2378.83 -3.48111 -2.12797 0
M  V30 25269 H 2377.5 -4.00978 -1.10405 0
M  V30 25270 H 2376.08 -2.79194 -2.47194 0
M  V30 25271 N 2378.26 0.425871 -1.51737 0
M  V30 25272 C 2379.21 1.53831 -1.74467 0
M  V30 25273 C 2380.2 1.57987 -0.611269 0
M  V30 25274 O 2381.41 1.61594 -0.792927 0
M  V30 25275 H 2377.79 0.511284 -0.551446 0
M  V30 25276 H 2379.76 1.31838 -2.67696 0
M  V30 25277 C 2378.51 2.91376 -1.89725 0
M  V30 25278 H 2377.83 2.88914 -2.76349 0
M  V30 25279 H 2379.27 3.6855 -2.09636 0
M  V30 25280 C 2377.73 3.30372 -0.659978 0
M  V30 25281 O 2378.26 4.01296 0.180013 0
M  V30 25282 N 2376.46 2.86254 -0.500727 0
M  V30 25283 H 2376.01 2.28707 -1.18537 0
M  V30 25284 H 2375.97 3.12707 0.325848 0
M  V30 25285 N 2379.74 1.42077 0.682052 0
M  V30 25286 C 2380.67 1.4093 1.80753 0
M  V30 25287 C 2381.69 0.309426 1.59832 0
M  V30 25288 O 2382.87 0.572044 1.69085 0
M  V30 25289 C 2379.97 1.17871 3.17741 0
M  V30 25290 C 2379.15 2.40155 3.65574 0
M  V30 25291 C 2378.21 2.1275 4.81273 0
M  V30 25292 O 2377.23 2.85895 4.92191 0
M  V30 25293 N 2378.43 1.12612 5.69472 0
M  V30 25294 H 2381.2 2.37938 1.82224 0
M  V30 25295 H 2378.76 1.36863 0.864879 0
M  V30 25296 H 2380.75 0.974669 3.92788 0
M  V30 25297 H 2379.32 0.294123 3.11213 0
M  V30 25298 H 2378.54 2.76174 2.81286 0
M  V30 25299 H 2379.83 3.216 3.94273 0
M  V30 25300 H 2379.23 0.520998 5.63296 0
M  V30 25301 H 2377.79 0.981955 6.44361 0
M  V30 25302 N 2381.22 -0.917649 1.28129 0
M  V30 25303 C 2382.13 -2.05284 1.1356 0
M  V30 25304 C 2383.15 -1.73885 0.063122 0
M  V30 25305 O 2384.32 -1.9956 0.271634 0
M  V30 25306 C 2381.39 -3.37468 0.794735 0
M  V30 25307 C 2380.45 -3.825 1.94916 0
M  V30 25308 C 2379.68 -5.08377 1.62446 0
M  V30 25309 O 2379.9 -5.67867 0.537005 0
M  V30 25310 O 2378.84 -5.49026 2.46686 0
M  V30 25311 H 2382.66 -2.20491 2.08848 0
M  V30 25312 H 2380.25 -1.03843 1.07411 0
M  V30 25313 H 2382.13 -4.16838 0.618417 0
M  V30 25314 H 2380.81 -3.23445 -0.128524 0
M  V30 25315 H 2379.71 -3.03974 2.1806 0
M  V30 25316 H 2381.05 -4.01081 2.85298 0
M  V30 25317 N 2382.7 -1.10314 -1.12555 0
M  V30 25318 C 2383.97 -0.75691 -1.80361 0
M  V30 25319 C 2384.35 0.75679 -1.97068 0
M  V30 25320 O 2383.7 1.68256 -1.54603 0
M  V30 25321 C 2383.91 -1.50652 -3.14809 0
M  V30 25322 C 2385.26 -1.67824 -3.90026 0
M  V30 25323 O 2386.28 -1.46979 -3.24462 0
M  V30 25324 O 2385.14 -2.02374 -5.07649 0
M  V30 25325 H 2382.24 -0.272939 -0.780662 0
M  V30 25326 H 2384.78 -1.20588 -1.19401 0
M  V30 25327 H 2383.56 -2.53677 -2.97932 0
M  V30 25328 H 2383.18 -1.05033 -3.83476 0
M  V30 25329 N 2384.18 1.29948 -0.891694 0
M  V30 25330 C 2385.42 1.9617 -0.514296 0
M  V30 25331 C 2385.75 1.70184 0.935476 0
M  V30 25332 O 2385.03 1.01031 1.66202 0
M  V30 25333 C 2385.31 3.51152 -0.79778 0
M  V30 25334 C 2385.17 3.86628 -2.29867 0
M  V30 25335 C 2386.48 4.39216 -0.278826 0
M  V30 25336 H 2383.6 0.712532 -0.188327 0
M  V30 25337 H 2386.25 1.53704 -1.11691 0
M  V30 25338 H 2384.4 3.87454 -0.284894 0
M  V30 25339 H 2386.07 3.60314 -2.88048 0
M  V30 25340 H 2384.31 3.34457 -2.76263 0
M  V30 25341 H 2384.98 4.94769 -2.44761 0
M  V30 25342 H 2387.46 4.0986 -0.717897 0
M  V30 25343 H 2386.33 5.46559 -0.506449 0
M  V30 25344 H 2386.59 4.34425 0.82019 0
M  V30 25345 N 2385.65 0.653339 1.4342 0
M  V30 25346 C 2386.56 -0.0388153 2.34568 0
M  V30 25347 C 2387.58 -0.812043 1.53889 0
M  V30 25348 O 2388.76 -0.759261 1.8654 0
M  V30 25349 C 2385.82 -0.99321 3.32169 0
M  V30 25350 C 2384.88 -0.216902 4.28752 0
M  V30 25351 C 2384.11 -1.12584 5.2169 0
M  V30 25352 O 2384.34 -2.3651 5.19056 0
M  V30 25353 O 2383.27 -0.598179 5.9892 0
M  V30 25354 H 2387.1 0.711438 2.95249 0
M  V30 25355 H 2384.68 0.413527 1.43563 0
M  V30 25356 H 2386.56 -1.54169 3.92186 0
M  V30 25357 H 2385.24 -1.72369 2.7399 0
M  V30 25358 H 2384.15 0.375166 3.72214 0
M  V30 25359 H 2385.48 0.474011 4.89912 0
M  V30 25360 N 2387.13 -1.52563 0.395266 0
M  V30 25361 C 2388.09 -2.25226 -0.424961 0
M  V30 25362 C 2389.09 -1.27081 -0.985244 0
M  V30 25363 O 2390.28 -1.51132 -0.866305 0
M  V30 25364 C 2387.42 -3.01189 -1.59681 0
M  V30 25365 H 2388.61 -2.99155 0.211285 0
M  V30 25366 H 2386.16 -1.55602 0.1475 0
M  V30 25367 H 2386.9 -2.31576 -2.27031 0
M  V30 25368 H 2386.68 -3.73231 -1.2017 0
M  V30 25369 H 2388.17 -3.56343 -2.17736 0
M  V30 25370 N 2388.61 -0.125265 -1.57101 0
M  V30 25371 C 2389.57 0.808342 -2.14473 0
M  V30 25372 C 2390.57 1.19031 -1.08112 0
M  V30 25373 O 2391.76 1.11479 -1.33858 0
M  V30 25374 C 2388.89 2.09397 -2.69008 0
M  V30 25375 H 2390.09 0.309644 -2.98297 0
M  V30 25376 H 2387.64 0.124024 -1.55807 0
M  V30 25377 H 2388.38 2.63684 -1.88789 0
M  V30 25378 H 2388.16 1.82951 -3.46802 0
M  V30 25379 H 2389.65 2.76122 -3.13283 0
M  V30 25380 N 2390.09 1.56899 0.148518 0
M  V30 25381 C 2391.5 1.51529 0.501104 0
M  V30 25382 C 2391.7 0.833431 1.83456 0
M  V30 25383 O 2390.76 0.403324 2.49258 0
M  V30 25384 C 2392.07 2.96295 0.512812 0
M  V30 25385 C 2393.62 3.07226 0.598433 0
M  V30 25386 C 2394.1 4.53495 0.640818 0
M  V30 25387 N 2395.59 4.57833 0.703082 0
M  V30 25388 C 2396.32 5.68383 0.756835 0
M  V30 25389 N 2395.82 6.88507 0.770026 0
M  V30 25390 N 2397.61 5.56412 0.7976 0
M  V30 25391 H 2389.76 1.99623 -0.725567 0
M  V30 25392 H 2392.02 0.91039 -0.264374 0
M  V30 25393 H 2391.73 3.49432 -0.398753 0
M  V30 25394 H 2391.6 3.52166 1.35126 0
M  V30 25395 H 2393.99 2.54109 1.50042 0
M  V30 25396 H 2394.07 2.54401 -0.267137 0
M  V30 25397 H 2393.72 5.07249 -0.257004 0
M  V30 25398 H 2393.65 5.041 1.52286 0
M  V30 25399 H 2396.14 3.71356 0.700248 0
M  V30 25400 H 2396.45 7.68513 0.812848 0
M  V30 25401 H 2394.8 6.91071 0.737927 0
M  V30 25402 H 2397.99 4.6148 0.784454 0
M  V30 25403 H 2398.16 6.42584 0.836027 0
M  V30 25404 N 2391.57 -0.417818 1.51961 0
M  V30 25405 C 2392.98 -0.755791 1.4057 0
M  V30 25406 C 2393.18 -1.95112 0.503351 0
M  V30 25407 O 2392.24 -2.52477 -0.0341481 0
M  V30 25408 C 2393.55 -1.01787 2.82949 0
M  V30 25409 C 2395.1 -1.12111 2.92233 0
M  V30 25410 C 2395.57 -1.416 4.35561 0
M  V30 25411 N 2397.06 -1.48483 4.38756 0
M  V30 25412 C 2397.8 -1.7291 5.46708 0
M  V30 25413 N 2397.3 -1.94999 6.64791 0
M  V30 25414 N 2399.09 -1.74854 5.34212 0
M  V30 25415 H 2391.24 0.369135 2.09168 0
M  V30 25416 H 2393.5 0.102825 0.942407 0
M  V30 25417 H 2393.21 -0.212019 3.5106 0
M  V30 25418 H 2393.08 -1.94036 3.23465 0
M  V30 25419 H 2395.47 -1.91756 2.24307 0
M  V30 25420 H 2395.55 -0.17718 2.55186 0
M  V30 25421 H 2395.19 -0.62476 5.04043 0
M  V30 25422 H 2395.12 -2.37231 4.70137 0
M  V30 25423 H 2397.62 -1.33238 3.53633 0
M  V30 25424 H 2397.93 -2.13063 7.42849 0
M  V30 25425 H 2396.27 -1.92281 6.67872 0
M  V30 25426 H 2399.46 -1.57129 4.4094 0
M  V30 25427 H 2399.64 -1.93552 6.18419 0
M  V30 25428 N 2393.04 -1.42436 -0.674508 0
M  V30 25429 C 2394.27 -1.46108 -1.46069 0
M  V30 25430 C 2394.68 -0.0709937 -1.89067 0
M  V30 25431 O 2394.02 0.924649 -1.58732 0
M  V30 25432 C 2394.09 -2.32566 -2.74141 0
M  V30 25433 C 2393.75 -3.80434 -2.53217 0
M  V30 25434 C 2394.75 -4.72079 -2.17801 0
M  V30 25435 C 2392.43 -4.24703 -2.68203 0
M  V30 25436 C 2394.43 -6.05985 -1.97637 0
M  V30 25437 C 2392.11 -5.58668 -2.47655 0
M  V30 25438 C 2393.11 -6.49126 -2.12426 0
M  V30 25439 O 2392.8 -7.80616 -1.92076 0
M  V30 25440 H 2392.53 -0.499084 -0.455951 0
M  V30 25441 H 2395.09 -1.8761 -0.83616 0
M  V30 25442 H 2393.32 -1.85914 -3.39077 0
M  V30 25443 H 2395 -2.27689 -3.36024 0
M  V30 25444 H 2395.77 -4.39162 -2.05819 0
M  V30 25445 H 2391.65 -3.54585 -2.94603 0
M  V30 25446 H 2395.19 -6.76553 -1.70063 0
M  V30 25447 H 2391.09 -5.91158 -2.59233 0
M  V30 25448 H 2391.86 -7.91978 -2.06672 0
M  V30 25449 N 2394.52 0.910841 -1.28614 0
M  V30 25450 C 2395.77 1.66272 -1.16109 0
M  V30 25451 C 2396.1 1.92036 0.289079 0
M  V30 25452 O 2395.38 1.52283 1.20997 0
M  V30 25453 C 2395.66 3.01882 -1.96315 0
M  V30 25454 C 2395.51 2.83253 -3.4941 0
M  V30 25455 C 2396.83 4.0246 -1.78083 0
M  V30 25456 H 2393.95 0.603409 -0.423162 0
M  V30 25457 H 2396.59 1.05584 -1.57962 0
M  V30 25458 H 2394.74 3.53684 -1.60749 0
M  V30 25459 H 2396.41 2.38439 -3.94898 0
M  V30 25460 H 2394.66 2.18255 -3.74897 0
M  V30 25461 H 2395.33 3.79567 -4.0079 0
M  V30 25462 H 2397.8 3.5973 -2.09126 0
M  V30 25463 H 2396.68 4.95304 -2.3657 0
M  V30 25464 H 2396.94 4.3598 -0.733085 0
M  V30 25465 N 2396 1.10909 1.11969 0
M  V30 25466 C 2396.93 0.720213 2.1759 0
M  V30 25467 C 2397.95 -0.245467 1.60939 0
M  V30 25468 O 2399.13 -0.0291932 1.78476 0
M  V30 25469 C 2396.23 0.0428513 3.38873 0
M  V30 25470 C 2395.41 1.03395 4.25004 0
M  V30 25471 C 2394.47 0.387167 5.24774 0
M  V30 25472 O 2393.49 1.03944 5.59629 0
M  V30 25473 N 2394.69 -0.852306 5.74209 0
M  V30 25474 H 2397.46 1.62898 2.51564 0
M  V30 25475 H 2395.02 0.998566 1.27437 0
M  V30 25476 H 2397.01 -0.40143 4.02704 0
M  V30 25477 H 2395.58 -0.768403 3.03009 0
M  V30 25478 H 2394.8 1.65635 3.57713 0
M  V30 25479 H 2396.09 1.70467 4.79394 0
M  V30 25480 H 2395.49 -1.40151 5.48064 0
M  V30 25481 H 2394.05 -1.23966 6.39903 0
M  V30 25482 N 2397.48 -1.29474 0.898573 0
M  V30 25483 C 2398.73 -1.95605 0.523916 0
M  V30 25484 C 2399.05 -1.70848 -0.929578 0
M  V30 25485 O 2398.31 -1.0137 -1.67399 0
M  V30 25486 C 2398.61 -3.49194 0.761459 0
M  V30 25487 C 2398.27 -3.94026 2.19214 0
M  V30 25488 C 2396.94 -4.05977 2.58333 0
M  V30 25489 C 2399.29 -4.1721 3.12386 0
M  V30 25490 C 2396.62 -4.38482 3.89808 0
M  V30 25491 C 2398.97 -4.51189 4.43408 0
M  V30 25492 C 2397.63 -4.61351 4.82402 0
M  V30 25493 H 2396.9 -0.71577 0.191714 0
M  V30 25494 H 2399.55 -1.54092 1.13702 0
M  V30 25495 H 2397.85 -3.91745 0.065431 0
M  V30 25496 H 2399.55 -3.98456 0.450974 0
M  V30 25497 H 2396.14 -3.85239 1.87853 0
M  V30 25498 H 2400.32 -4.07444 2.83378 0
M  V30 25499 H 2395.58 -4.44552 4.19742 0
M  V30 25500 H 2399.75 -4.68078 5.15631 0
M  V30 25501 H 2397.38 -4.86293 5.84315 0
M  V30 25502 N 2398.96 -0.660936 -1.43071 0
M  V30 25503 C 2399.89 0.0758461 -2.28074 0
M  V30 25504 C 2400.87 0.822338 -1.40272 0
M  V30 25505 O 2402.05 0.820322 -1.69714 0
M  V30 25506 C 2399.18 1.11432 -3.19845 0
M  V30 25507 C 2398.22 0.464994 -4.23958 0
M  V30 25508 S 2399.06 -0.767171 -5.29976 0
M  V30 25509 C 2400.21 0.270572 -6.25315 0
M  V30 25510 H 2400.45 -0.64519 -2.90215 0
M  V30 25511 H 2397.98 -0.450021 -1.47696 0
M  V30 25512 H 2399.94 1.70843 -3.7326 0
M  V30 25513 H 2398.6 1.80772 -2.56867 0
M  V30 25514 H 2397.79 1.2481 -4.88302 0
M  V30 25515 H 2397.39 -0.05519 -3.73959 0
M  V30 25516 H 2399.69 1.13448 -6.67934 0
M  V30 25517 H 2400.63 -0.33804 -7.07293 0
M  V30 25518 H 2401.04 0.609838 -5.61196 0
M  V30 25519 N 2400.43 1.52351 -0.403352 0
M  V30 25520 C 2401.68 2.0135 0.173967 0
M  V30 25521 C 2402 1.29108 1.46137 0
M  V30 25522 O 2401.27 0.415287 1.91448 0
M  V30 25523 H 2399.85 0.743964 0.067278 0
M  V30 25524 H 2402.52 1.8732 -0.538268 0
M  V30 25525 H 2401.61 3.09849 0.3742 0
M  V30 25526 N 2401.91 0.133594 1.57033 0
M  V30 25527 C 2403.16 -0.519814 1.95301 0
M  V30 25528 C 2403.48 -1.66276 1.01869 0
M  V30 25529 O 2402.75 -1.95746 0.0776857 0
M  V30 25530 H 2401.33 -0.195019 0.721094 0
M  V30 25531 H 2403.99 0.205955 1.93809 0
M  V30 25532 H 2403.09 -0.904801 2.98697 0
M  V30 25533 N 2403.39 -1.56975 -0.140195 0
M  V30 25534 C 2404.64 -1.84877 -0.848052 0
M  V30 25535 C 2404.99 -0.718513 -1.7848 0
M  V30 25536 O 2404.28 0.28306 -1.89498 0
M  V30 25537 C 2404.48 -3.16835 -1.6538 0
M  V30 25538 C 2404.31 -4.42589 -0.796572 0
M  V30 25539 C 2403.08 -5.03206 -0.45956 0
M  V30 25540 C 2405.28 -5.14151 -0.1238 0
M  V30 25541 N 2403.26 -6.12526 0.410553 0
M  V30 25542 C 2404.63 -6.1703 0.606172 0
M  V30 25543 C 2406.68 -4.9788 -0.0451779 0
M  V30 25544 C 2405.39 -7.05398 1.40735 0
M  V30 25545 C 2407.41 -5.86717 0.742761 0
M  V30 25546 C 2406.77 -6.89082 1.46099 0
M  V30 25547 H 2402.87 -0.727061 -0.287934 0
M  V30 25548 H 2405.46 -1.94372 -0.113006 0
M  V30 25549 H 2403.63 -3.08475 -2.36004 0
M  V30 25550 H 2405.36 -3.32619 -2.30535 0
M  V30 25551 H 2402.12 -4.66847 -0.796924 0
M  V30 25552 H 2402.54 -6.71808 0.836834 0
M  V30 25553 H 2407.18 -4.18718 -0.58611 0
M  V30 25554 H 2404.9 -7.83982 1.95952 0
M  V30 25555 H 2408.49 -5.76195 0.805675 0
M  V30 25556 H 2407.37 -7.56635 2.0609 0
M  V30 25557 N 2404.87 0.409753 -1.5218 0
M  V30 25558 C 2406.12 1.15676 -1.66208 0
M  V30 25559 C 2406.44 1.90515 -0.391707 0
M  V30 25560 O 2405.7 1.85441 0.625297 0
M  V30 25561 C 2406 2.17718 -2.83432 0
M  V30 25562 C 2405.66 1.59691 -4.21675 0
M  V30 25563 C 2404.33 1.43591 -4.59277 0
M  V30 25564 C 2406.68 1.17308 -5.07827 0
M  V30 25565 C 2404.01 0.836226 -5.8071 0
M  V30 25566 C 2406.36 0.58758 -6.29865 0
M  V30 25567 C 2405.02 0.413701 -6.66217 0
M  V30 25568 H 2404.29 0.42329 -0.6082 0
M  V30 25569 H 2406.94 0.444064 -1.8628 0
M  V30 25570 H 2405.24 2.95131 -2.57692 0
M  V30 25571 H 2406.94 2.75389 -2.91482 0
M  V30 25572 H 2403.53 1.73206 -3.92043 0
M  V30 25573 H 2407.71 1.28556 -4.79361 0
M  V30 25574 H 2402.97 0.689519 -6.07499 0
M  V30 25575 H 2407.14 0.250772 -6.95948 0
M  V30 25576 H 2404.77 -0.0530807 -7.60181 0
M  V30 25577 N 2406.35 1.42792 0.666944 0
M  V30 25578 C 2407.31 1.46571 1.76209 0
M  V30 25579 C 2408.31 0.352224 1.56895 0
M  V30 25580 O 2409.5 0.613393 1.63043 0
M  V30 25581 C 2406.63 1.305 3.14933 0
M  V30 25582 H 2407.82 2.44089 1.74243 0
M  V30 25583 H 2405.38 1.29355 0.877319 0
M  V30 25584 H 2406.11 0.339358 3.2252 0
M  V30 25585 H 2405.9 2.11205 3.30356 0
M  V30 25586 H 2407.39 1.36045 3.94818 0
M  V30 25587 N 2407.82 -0.904008 1.29095 0
M  V30 25588 C 2408.77 -1.99441 1.10486 0
M  V30 25589 C 2409.76 -1.6088 0.0255683 0
M  V30 25590 O 2410.95 -1.75271 0.246801 0
M  V30 25591 C 2408.08 -3.34346 0.778941 0
M  V30 25592 C 2407.17 -3.7928 1.89756 0
M  V30 25593 N 2407.56 -3.96491 3.14052 0
M  V30 25594 C 2405.85 -4.0852 1.78962 0
M  V30 25595 C 2406.56 -4.34285 3.87003 0
M  V30 25596 N 2405.53 -4.43089 3.14917 0
M  V30 25597 H 2409.33 -2.10811 2.04782 0
M  V30 25598 H 2406.85 -1.09253 1.20156 0
M  V30 25599 H 2408.84 -4.12163 0.626682 0
M  V30 25600 H 2407.5 -3.24324 -0.156148 0
M  V30 25601 H 2408.52 -3.82141 3.49555 0
M  V30 25602 H 2405.19 -4.0708 0.926957 0
M  V30 25603 H 2406.58 -4.55482 4.93949 0
M  V30 25604 N 2409.3 -1.11501 -1.11379 0
M  V30 25605 C 2410.71 -0.88022 -1.64648 0
M  V30 25606 C 2411.06 0.587401 -1.87201 0
M  V30 25607 O 2410.19 1.44963 -1.6067 0
M  V30 25608 C 2410.78 -1.59133 -2.99102 0
M  V30 25609 C 2409.34 -1.40295 -3.49277 0
M  V30 25610 C 2408.49 -1.63358 -2.24075 0
M  V30 25611 H 2411.44 -1.27117 -0.950101 0
M  V30 25612 H 2411.46 -1.03671 -3.66105 0
M  V30 25613 H 2410.97 -2.65946 -2.82656 0
M  V30 25614 H 2409.08 -0.356953 -3.70886 0
M  V30 25615 H 2409.19 -2.15245 -4.28026 0
M  V30 25616 H 2407.55 -1.05702 -2.31731 0
M  V30 25617 H 2408.34 -2.71447 -2.10171 0
M  V30 25618 N 2410.78 1.28995 -0.905426 0
M  V30 25619 C 2412.03 1.94606 -0.530225 0
M  V30 25620 C 2412.34 1.72122 0.929155 0
M  V30 25621 O 2413.55 2.31886 1.41214 0
M  V30 25622 C 2412.01 3.48532 -0.897394 0
M  V30 25623 C 2411.61 3.79807 -2.37593 0
M  V30 25624 C 2413.36 4.20346 -0.592378 0
M  V30 25625 C 2411.26 5.27004 -2.68366 0
M  V30 25626 H 2410.19 0.728463 -0.19457 0
M  V30 25627 H 2412.85 1.46634 -1.10321 0
M  V30 25628 H 2411.23 3.95189 -0.253283 0
M  V30 25629 H 2412.4 3.43989 -3.06608 0
M  V30 25630 H 2410.72 3.21146 -2.65055 0
M  V30 25631 H 2413.31 5.28696 -0.799068 0
M  V30 25632 H 2413.66 4.13645 0.469401 0
M  V30 25633 H 2414.19 3.7944 -1.19458 0
M  V30 25634 H 2410.93 5.38775 -3.73365 0
M  V30 25635 H 2410.45 5.64049 -2.03981 0
M  V30 25636 H 2412.13 5.94658 -2.54933 0
M  V30 25637 N 2412.26 0.668514 1.42719 0
M  V30 25638 C 2413.51 0.188176 2.01624 0
M  V30 25639 C 2413.83 -1.20315 1.52822 0
M  V30 25640 O 2413.09 -1.82039 0.718355 0
M  V30 25641 C 2413.39 0.164562 3.57021 0
M  V30 25642 C 2413.05 1.4997 4.25229 0
M  V30 25643 C 2411.72 1.86528 4.43577 0
M  V30 25644 C 2414.07 2.37929 4.63723 0
M  V30 25645 C 2411.4 3.10682 4.97688 0
M  V30 25646 C 2413.75 3.6139 5.19211 0
M  V30 25647 C 2412.41 3.98125 5.35773 0
M  V30 25648 H 2411.68 0.0688583 0.737794 0
M  V30 25649 H 2414.33 0.862255 1.7099 0
M  V30 25650 H 2412.63 -0.593011 3.87286 0
M  V30 25651 H 2414.33 -0.224201 4.00373 0
M  V30 25652 H 2410.92 1.20529 4.11304 0
M  V30 25653 H 2415.11 2.10972 4.49227 0
M  V30 25654 H 2410.36 3.39173 5.08696 0
M  V30 25655 H 2414.54 4.29753 5.47983 0
M  V30 25656 H 2412.16 4.94405 5.77467 0
M  V30 25657 N 2413.74 -1.52135 0.411426 0
M  V30 25658 C 2414.68 -2.27076 -0.412935 0
M  V30 25659 C 2415.65 -1.29584 -1.0391 0
M  V30 25660 O 2416.84 -1.5845 -1.06294 0
M  V30 25661 C 2413.98 -3.09704 -1.52242 0
M  V30 25662 C 2413.09 -4.22156 -0.916947 0
M  V30 25663 C 2412.23 -4.92139 -1.99932 0
M  V30 25664 C 2411.27 -5.96551 -1.3709 0
M  V30 25665 N 2410.4 -6.60042 -2.39352 0
M  V30 25666 H 2415.24 -2.97091 0.232551 0
M  V30 25667 H 2412.78 -1.46555 0.126521 0
M  V30 25668 H 2414.74 -3.55917 -2.17668 0
M  V30 25669 H 2413.37 -2.41855 -2.1379 0
M  V30 25670 H 2412.42 -3.80097 -0.151675 0
M  V30 25671 H 2413.73 -4.97046 -0.417919 0
M  V30 25672 H 2412.89 -5.41768 -2.73079 0
M  V30 25673 H 2411.63 -4.16822 -2.53201 0
M  V30 25674 H 2410.63 -5.46239 -0.624777 0
M  V30 25675 H 2411.86 -6.73811 -0.845879 0
M  V30 25676 H 2409.8 -5.87553 -2.91749 0
M  V30 25677 H 2409.72 -7.30614 -1.94268 0
M  V30 25678 H 2410.99 -7.14309 -3.12062 0
M  V30 25679 N 2415.22 -0.14192 -1.5696 0
M  V30 25680 C 2416.16 0.816836 -2.17786 0
M  V30 25681 C 2417.16 1.25897 -1.13342 0
M  V30 25682 O 2418.36 1.22804 -1.31602 0
M  V30 25683 H 2414.74 0.281603 -0.697283 0
M  V30 25684 H 2416.71 0.279569 -2.97087 0
M  V30 25685 C 2415.46 2.04797 -2.80987 0
M  V30 25686 H 2414.78 1.71674 -3.61065 0
M  V30 25687 H 2416.22 2.69835 -3.27055 0
M  V30 25688 C 2414.68 2.85267 -1.79233 0
M  V30 25689 O 2415.21 3.81438 -1.25968 0
M  V30 25690 N 2413.42 2.49702 -1.48652 0
M  V30 25691 H 2412.96 1.7156 -1.92158 0
M  V30 25692 H 2412.92 3.03835 -0.808168 0
M  V30 25693 N 2416.69 1.57047 0.131868 0
M  V30 25694 C 2417.94 1.83805 0.840237 0
M  V30 25695 C 2418.26 0.725152 1.81015 0
M  V30 25696 O 2417.53 -0.251961 1.94273 0
M  V30 25697 H 2416.11 0.678132 0.313282 0
M  V30 25698 H 2418.77 1.94516 0.122259 0
M  V30 25699 H 2417.87 2.79273 1.3933 0
M  V30 25700 N 2418.17 -0.401677 1.52395 0
M  V30 25701 C 2419.45 -1.16138 1.57389 0
M  V30 25702 C 2419.83 -2.08018 0.359395 0
M  V30 25703 O 2419.18 -2.18964 -0.653221 0
M  V30 25704 C 2419.39 -1.93216 2.90635 0
M  V30 25705 C 2420.73 -2.49022 3.43909 0
M  V30 25706 O 2421.76 -2.03388 2.92424 0
M  V30 25707 O 2420.62 -3.32348 4.33828 0
M  V30 25708 H 2417.71 -0.530687 0.634272 0
M  V30 25709 H 2420.26 -0.407854 1.64726 0
M  V30 25710 H 2419.03 -1.25952 3.70475 0
M  V30 25711 H 2418.65 -2.75557 2.86625 0
M  V30 25712 N 2419.65 -1.43144 -0.659362 0
M  V30 25713 C 2420.88 -1.47649 -1.44511 0
M  V30 25714 C 2421.29 -0.0910428 -1.88981 0
M  V30 25715 O 2420.63 0.907761 -1.59704 0
M  V30 25716 C 2420.69 -2.3546 -2.71659 0
M  V30 25717 C 2420.36 -3.83098 -2.49168 0
M  V30 25718 C 2421.35 -4.74363 -2.12781 0
M  V30 25719 C 2419.04 -4.27524 -2.63683 0
M  V30 25720 C 2421.03 -6.08047 -1.91199 0
M  V30 25721 C 2418.72 -5.61264 -2.41716 0
M  V30 25722 C 2419.72 -6.51342 -2.05529 0
M  V30 25723 O 2419.41 -7.8261 -1.83786 0
M  V30 25724 H 2419.14 -0.503892 -0.450632 0
M  V30 25725 H 2421.69 -1.88486 -0.816215 0
M  V30 25726 H 2419.92 -1.89499 -3.37086 0
M  V30 25727 H 2421.61 -2.3124 -3.33591 0
M  V30 25728 H 2422.38 -4.41321 -2.01149 0
M  V30 25729 H 2418.26 -3.57689 -2.90825 0
M  V30 25730 H 2421.8 -6.78319 -1.62878 0
M  V30 25731 H 2417.7 -5.93875 -2.52949 0
M  V30 25732 H 2418.46 -7.94125 -1.98261 0
M  V30 25733 N 2421.13 0.897149 -1.29572 0
M  V30 25734 C 2422.08 2.02293 -1.14805 0
M  V30 25735 C 2423.07 1.69283 -0.0629934 0
M  V30 25736 O 2424.28 1.78614 -0.222976 0
M  V30 25737 H 2420.65 0.663091 -0.354703 0
M  V30 25738 H 2422.62 2.11886 -2.10112 0
M  V30 25739 C 2421.37 3.373 -0.844025 0
M  V30 25740 H 2420.69 3.63205 -1.67099 0
M  V30 25741 H 2422.13 4.1675 -0.780745 0
M  V30 25742 C 2420.59 3.33843 0.452785 0
M  V30 25743 O 2421.12 3.73519 1.47806 0
M  V30 25744 N 2419.33 2.86943 0.459551 0
M  V30 25745 H 2418.88 2.54852 -0.375258 0
M  V30 25746 H 2418.83 2.85013 1.32721 0
M  V30 25747 N 2422.61 1.1209 1.10786 0
M  V30 25748 C 2423.52 0.798377 2.20597 0
M  V30 25749 C 2424.53 -0.21132 1.72712 0
M  V30 25750 O 2425.71 -0.0458123 2.01348 0
M  V30 25751 C 2422.77 0.253734 3.4577 0
M  V30 25752 C 2421.83 1.3229 4.08409 0
M  V30 25753 C 2421.07 0.804153 5.27607 0
M  V30 25754 O 2421.29 -0.363378 5.69241 0
M  V30 25755 O 2420.22 1.57208 5.81007 0
M  V30 25756 H 2424.05 1.71545 2.50611 0
M  V30 25757 H 2421.63 0.897296 1.19453 0
M  V30 25758 H 2423.52 -0.045295 4.21376 0
M  V30 25759 H 2422.19 -0.635949 3.17392 0
M  V30 25760 H 2421.1 1.67505 3.34504 0
M  V30 25761 H 2422.43 2.18622 4.40982 0
M  V30 25762 N 2424.08 -1.28513 0.912254 0
M  V30 25763 C 2425.33 -1.95327 0.54544 0
M  V30 25764 C 2425.66 -1.7165 -0.908283 0
M  V30 25765 O 2424.94 -1.03662 -1.64573 0
M  V30 25766 C 2425.22 -3.49838 0.853544 0
M  V30 25767 C 2425.07 -3.82922 2.35989 0
M  V30 25768 C 2426.39 -4.38717 0.348666 0
M  V30 25769 H 2423.51 -0.709446 0.199639 0
M  V30 25770 H 2426.15 -1.51908 1.14123 0
M  V30 25771 H 2424.3 -3.86952 0.346498 0
M  V30 25772 H 2425.98 -3.55686 2.93744 0
M  V30 25773 H 2424.22 -3.30019 2.81549 0
M  V30 25774 H 2424.89 -4.90812 2.52602 0
M  V30 25775 H 2427.37 -4.08666 0.783012 0
M  V30 25776 H 2426.24 -5.45684 0.593338 0
M  V30 25777 H 2426.5 -4.35675 -0.750973 0
M  V30 25778 N 2425.56 -0.676073 -1.42362 0
M  V30 25779 C 2426.5 0.0516515 -2.28142 0
M  V30 25780 C 2427.47 0.807414 -1.41137 0
M  V30 25781 O 2428.66 0.802275 -1.70575 0
M  V30 25782 C 2425.78 1.08033 -3.21009 0
M  V30 25783 C 2424.83 0.420002 -4.24427 0
M  V30 25784 S 2425.66 -0.823339 -5.29133 0
M  V30 25785 C 2426.82 0.204234 -6.25567 0
M  V30 25786 H 2427.05 -0.675935 -2.89514 0
M  V30 25787 H 2424.59 -0.465661 -1.47211 0
M  V30 25788 H 2426.54 1.66874 -3.75051 0
M  V30 25789 H 2425.2 1.78037 -2.58769 0
M  V30 25790 H 2424.4 1.19624 -4.89598 0
M  V30 25791 H 2424 -0.0948502 -3.7388 0
M  V30 25792 H 2426.29 1.06357 -6.691 0
M  V30 25793 H 2427.23 -0.413039 -7.06894 0
M  V30 25794 H 2427.64 0.550281 -5.61811 0
M  V30 25795 N 2427.04 1.51915 -0.419488 0
M  V30 25796 C 2427.99 2.27292 0.400887 0
M  V30 25797 C 2428.96 1.30133 1.03221 0
M  V30 25798 O 2430.14 1.59011 1.05452 0
M  V30 25799 C 2427.28 3.10507 1.50597 0
M  V30 25800 C 2426.4 4.22637 0.894546 0
M  V30 25801 C 2425.53 4.93192 1.97319 0
M  V30 25802 C 2424.57 5.97269 1.33925 0
M  V30 25803 N 2423.71 6.61302 2.35848 0
M  V30 25804 H 2428.55 2.96964 -0.248304 0
M  V30 25805 H 2426.08 1.46486 -0.134292 0
M  V30 25806 H 2428.04 3.57066 2.15777 0
M  V30 25807 H 2426.67 2.42985 2.12505 0
M  V30 25808 H 2425.72 3.80173 0.131516 0
M  V30 25809 H 2427.04 4.97261 0.391553 0
M  V30 25810 H 2426.19 5.43209 2.70202 0
M  V30 25811 H 2424.93 4.18159 2.50987 0
M  V30 25812 H 2423.93 5.46562 0.5958 0
M  V30 25813 H 2425.16 6.7425 0.810133 0
M  V30 25814 H 2423.1 5.89092 2.88629 0
M  V30 25815 H 2423.02 7.31633 1.9039 0
M  V30 25816 H 2424.29 7.15954 3.08269 0
M  V30 25817 N 2428.52 0.150242 1.56882 0
M  V30 25818 C 2429.75 -0.506913 2.00594 0
M  V30 25819 C 2430.16 -1.58206 1.03036 0
M  V30 25820 O 2429.52 -1.82479 0.0278716 0
M  V30 25821 C 2429.57 -1.10459 3.44211 0
M  V30 25822 O 2429.29 -0.0723866 4.3804 0
M  V30 25823 C 2430.79 -1.84204 4.03217 0
M  V30 25824 H 2428.01 -0.131678 0.657953 0
M  V30 25825 H 2430.56 0.245779 2.03018 0
M  V30 25826 H 2428.71 -1.80789 3.42628 0
M  V30 25827 H 2429.12 -0.510701 5.22008 0
M  V30 25828 H 2430.6 -2.21309 5.05694 0
M  V30 25829 H 2431.08 -2.72917 3.44112 0
M  V30 25830 H 2431.68 -1.18565 4.08439 0
M  V30 25831 N 2430 -1.57115 -0.123538 0
M  V30 25832 C 2431.41 -1.52307 -0.476934 0
M  V30 25833 C 2431.61 -0.862512 -1.82107 0
M  V30 25834 O 2430.67 -0.442927 -2.48585 0
M  V30 25835 C 2431.98 -2.97073 -0.465609 0
M  V30 25836 C 2433.53 -3.08139 -0.54948 0
M  V30 25837 C 2434 -4.54457 -0.568589 0
M  V30 25838 N 2435.5 -4.58894 -0.630156 0
M  V30 25839 C 2436.23 -5.69515 -0.666315 0
M  V30 25840 N 2435.73 -6.89645 -0.660393 0
M  V30 25841 N 2437.52 -5.57611 -0.708979 0
M  V30 25842 H 2429.67 -1.98443 0.757233 0
M  V30 25843 H 2431.93 -0.906069 0.278824 0
M  V30 25844 H 2431.64 -3.48754 0.454294 0
M  V30 25845 H 2431.51 -3.54271 -1.29507 0
M  V30 25846 H 2433.9 -2.56464 -1.4598 0
M  V30 25847 H 2433.98 -2.53944 0.307577 0
M  V30 25848 H 2433.63 -5.06776 0.33767 0
M  V30 25849 H 2433.56 -5.06459 -1.44247 0
M  V30 25850 H 2436.05 -3.72423 -0.64108 0
M  V30 25851 H 2436.36 -7.69709 -0.690481 0
M  V30 25852 H 2434.7 -6.92158 -0.62789 0
M  V30 25853 H 2437.9 -4.6267 -0.710937 0
M  V30 25854 H 2438.07 -6.43833 -0.733691 0
M  V30 25855 N 2431.47 0.393589 -1.52606 0
M  V30 25856 C 2432.72 1.13624 -1.66651 0
M  V30 25857 C 2433.04 1.91246 -0.410397 0
M  V30 25858 O 2434.24 2.68059 -0.430901 0
M  V30 25859 C 2432.7 2.06886 -2.94493 0
M  V30 25860 C 2432.31 1.34707 -4.27268 0
M  V30 25861 C 2434.05 2.81314 -3.17904 0
M  V30 25862 C 2431.96 2.26708 -5.46221 0
M  V30 25863 H 2430.89 0.427861 -0.620847 0
M  V30 25864 H 2433.54 0.399396 -1.79101 0
M  V30 25865 H 2431.92 2.84186 -2.75779 0
M  V30 25866 H 2433.09 0.626634 -4.56519 0
M  V30 25867 H 2431.41 0.722571 -4.10083 0
M  V30 25868 H 2434.01 3.50321 -4.03955 0
M  V30 25869 H 2434.35 3.45135 -2.32783 0
M  V30 25870 H 2434.88 2.11107 -3.37162 0
M  V30 25871 H 2431.62 1.67509 -6.33736 0
M  V30 25872 H 2431.14 2.9668 -5.21288 0
M  V30 25873 H 2432.82 2.86893 -5.79915 0
M  V30 25874 N 2432.95 1.43492 0.651762 0
M  V30 25875 C 2434.37 1.26924 0.967598 0
M  V30 25876 C 2434.57 0.190017 2.00602 0
M  V30 25877 O 2433.62 -0.431063 2.48793 0
M  V30 25878 C 2434.94 2.63404 1.45048 0
M  V30 25879 C 2436.49 2.70948 1.56705 0
M  V30 25880 C 2436.96 4.07849 2.08383 0
M  V30 25881 N 2438.45 4.09921 2.15683 0
M  V30 25882 C 2439.19 5.12683 2.56795 0
M  V30 25883 N 2438.68 6.25819 2.97192 0
M  V30 25884 N 2440.48 5.00037 2.56747 0
M  V30 25885 H 2432.63 2.12371 -0.0353532 0
M  V30 25886 H 2434.89 0.946846 0.0467692 0
M  V30 25887 H 2434.6 3.43349 0.761865 0
M  V30 25888 H 2434.47 2.88898 2.42524 0
M  V30 25889 H 2436.86 1.91334 2.24667 0
M  V30 25890 H 2436.94 2.49217 0.576576 0
M  V30 25891 H 2436.58 4.87929 1.41022 0
M  V30 25892 H 2436.51 4.26944 3.08264 0
M  V30 25893 H 2439 3.28257 1.87231 0
M  V30 25894 H 2439.32 7.0006 3.27315 0
M  V30 25895 H 2437.66 6.29289 2.94993 0
M  V30 25896 H 2440.85 4.10717 2.24565 0
M  V30 25897 H 2441.02 5.80252 2.88465 0
M  V30 25898 N 2434.43 -0.890264 1.30046 0
M  V30 25899 C 2435.71 -1.6226 1.0923 0
M  V30 25900 C 2436.09 -2.08003 -0.360268 0
M  V30 25901 O 2435.44 -1.84297 -1.35081 0
M  V30 25902 C 2435.65 -2.79619 2.0884 0
M  V30 25903 C 2436.99 -3.50078 2.40272 0
M  V30 25904 O 2438.02 -2.898 2.07109 0
M  V30 25905 O 2436.88 -4.58768 2.96975 0
M  V30 25906 H 2433.97 -0.712914 0.419145 0
M  V30 25907 H 2436.52 -0.937504 1.41453 0
M  V30 25908 H 2435.29 -2.43083 3.06637 0
M  V30 25909 H 2434.91 -3.55828 1.77403 0
M  V30 25910 N 2435.91 -1.12676 -1.1019 0
M  V30 25911 C 2437.32 -0.86334 -1.34233 0
M  V30 25912 C 2437.52 0.505243 -1.95063 0
M  V30 25913 O 2436.58 1.25341 -2.19194 0
M  V30 25914 C 2437.89 -1.98176 -2.26156 0
M  V30 25915 C 2439.44 -2.01294 -2.39687 0
M  V30 25916 C 2439.92 -3.12376 -3.3494 0
M  V30 25917 N 2441.41 -3.11835 -3.4251 0
M  V30 25918 C 2442.14 -3.94426 -4.16192 0
M  V30 25919 N 2441.64 -4.87012 -4.92738 0
M  V30 25920 N 2443.43 -3.82554 -4.11836 0
M  V30 25921 H 2435.58 -2.00854 -0.690762 0
M  V30 25922 H 2437.85 -0.874181 -0.366759 0
M  V30 25923 H 2437.55 -2.96808 -1.88675 0
M  V30 25924 H 2437.43 -1.88912 -3.26484 0
M  V30 25925 H 2439.81 -1.0328 -2.76437 0
M  V30 25926 H 2439.89 -2.14632 -1.39165 0
M  V30 25927 H 2439.54 -4.10624 -2.98915 0
M  V30 25928 H 2439.47 -2.96277 -4.35348 0
M  V30 25929 H 2441.96 -2.44764 -2.87922 0
M  V30 25930 H 2442.27 -5.46537 -5.46367 0
M  V30 25931 H 2440.62 -4.91024 -4.91854 0
M  V30 25932 H 2443.81 -3.09556 -3.51131 0
M  V30 25933 H 2443.98 -4.47151 -4.68999 0
M  V30 25934 N 2437.39 1.28028 -0.919057 0
M  V30 25935 C 2438.61 1.99402 -0.570392 0
M  V30 25936 C 2439.04 1.68179 0.842456 0
M  V30 25937 O 2438.39 0.917169 1.5639 0
M  V30 25938 C 2438.44 3.51781 -0.792603 0
M  V30 25939 O 2437.55 4.12142 0.145915 0
M  V30 25940 H 2436.89 0.626296 -0.220566 0
M  V30 25941 H 2439.42 1.63051 -1.23595 0
M  V30 25942 H 2439.43 4.01867 -0.704779 0
M  V30 25943 H 2438.1 3.7384 -1.82253 0
M  V30 25944 H 2436.68 3.72899 0.00890974 0
M  V30 25945 N 2438.86 0.683613 1.42002 0
M  V30 25946 C 2439.79 0.024907 2.33487 0
M  V30 25947 C 2440.78 -0.779948 1.51165 0
M  V30 25948 O 2441.96 -0.735331 1.7974 0
M  V30 25949 C 2439.09 -0.920777 3.34872 0
M  V30 25950 C 2438.04 -0.223883 4.27414 0
M  V30 25951 C 2437.37 -1.28311 5.19076 0
M  V30 25952 C 2438.67 0.90251 5.14443 0
M  V30 25953 H 2440.36 0.788972 2.88818 0
M  V30 25954 H 2437.91 0.380854 1.38872 0
M  V30 25955 H 2439.86 -1.39074 3.97789 0
M  V30 25956 H 2438.59 -1.71637 2.77864 0
M  V30 25957 H 2437.25 0.225928 3.65903 0
M  V30 25958 H 2436.89 -2.07092 4.58391 0
M  V30 25959 H 2436.59 -0.821893 5.81824 0
M  V30 25960 H 2438.12 -1.75382 5.8487 0
M  V30 25961 H 2439.53 0.513372 5.70997 0
M  V30 25962 H 2437.93 1.29007 5.86069 0
M  V30 25963 H 2439 1.74745 4.52319 0
M  V30 25964 N 2440.34 -1.5169 0.427538 0
M  V30 25965 C 2441.31 -2.26077 -0.377092 0
M  V30 25966 C 2442.31 -1.29142 -0.958066 0
M  V30 25967 O 2443.5 -1.52935 -0.834053 0
M  V30 25968 C 2440.63 -3.04508 -1.53256 0
M  V30 25969 H 2441.82 -2.98639 0.274693 0
M  V30 25970 H 2439.37 -1.55255 0.180472 0
M  V30 25971 H 2440.11 -2.36339 -2.22068 0
M  V30 25972 H 2439.89 -3.75696 -1.12226 0
M  V30 25973 H 2441.38 -3.60882 -2.10129 0
M  V30 25974 N 2441.82 -0.15856 -1.568 0
M  V30 25975 C 2442.78 0.762667 -2.16139 0
M  V30 25976 C 2443.78 1.16711 -1.10612 0
M  V30 25977 O 2444.97 1.08615 -1.36193 0
M  V30 25978 C 2442.11 2.03644 -2.7339 0
M  V30 25979 H 2443.3 0.246301 -2.98887 0
M  V30 25980 H 2440.85 0.090947 -1.56035 0
M  V30 25981 H 2441.59 2.5962 -1.9434 0
M  V30 25982 H 2441.37 1.75553 -3.50604 0
M  V30 25983 H 2442.86 2.69415 -3.1907 0
M  V30 25984 N 2443.3 1.57178 0.115204 0
M  V30 25985 C 2444.55 1.84686 0.820694 0
M  V30 25986 C 2444.87 0.74431 1.80236 0
M  V30 25987 O 2444.14 -0.231341 1.94529 0
M  V30 25988 H 2442.72 0.681417 0.306072 0
M  V30 25989 H 2445.38 1.94635 0.101622 0
M  V30 25990 H 2444.48 2.80735 1.36361 0
M  V30 25991 N 2444.78 -0.38549 1.52813 0
M  V30 25992 C 2445.71 -1.47749 1.80811 0
M  V30 25993 C 2446.69 -1.56759 0.660346 0
M  V30 25994 O 2447.87 -1.71651 0.908277 0
M  V30 25995 C 2445 -2.85321 1.98013 0
M  V30 25996 C 2443.96 -2.91148 3.13714 0
M  V30 25997 C 2443.28 -4.31204 3.16176 0
M  V30 25998 C 2444.58 -2.60475 4.52714 0
M  V30 25999 H 2446.28 -1.24568 2.72256 0
M  V30 26000 H 2443.82 -0.597816 1.31004 0
M  V30 26001 H 2445.78 -3.61722 2.16183 0
M  V30 26002 H 2444.5 -3.09846 1.03261 0
M  V30 26003 H 2443.16 -2.17195 2.95333 0
M  V30 26004 H 2442.81 -4.52774 2.191 0
M  V30 26005 H 2442.51 -4.36022 3.93901 0
M  V30 26006 H 2444.03 -5.09506 3.36505 0
M  V30 26007 H 2445.45 -3.26593 4.71179 0
M  V30 26008 H 2443.84 -2.76639 5.32533 0
M  V30 26009 H 2444.91 -1.55801 4.59188 0
M  V30 26010 N 2446.26 -1.43835 -0.644143 0
M  V30 26011 C 2447.2 -1.49978 -1.77791 0
M  V30 26012 C 2448.2 -0.372565 -1.65252 0
M  V30 26013 O 2449.4 -0.546954 -1.71489 0
M  V30 26014 H 2445.78 -0.47036 -0.586741 0
M  V30 26015 H 2447.75 -2.45426 -1.69731 0
M  V30 26016 C 2446.5 -1.44865 -3.16084 0
M  V30 26017 H 2445.82 -2.30911 -3.26374 0
M  V30 26018 H 2447.26 -1.53224 -3.95346 0
M  V30 26019 C 2445.72 -0.167522 -3.36483 0
M  V30 26020 O 2446.25 0.76754 -3.94299 0
M  V30 26021 N 2444.46 -0.0748066 -2.90504 0
M  V30 26022 H 2444 -0.83655 -2.43638 0
M  V30 26023 H 2443.96 0.781661 -3.04528 0
M  V30 26024 N 2447.73 0.883355 -1.30517 0
M  V30 26025 C 2448.68 1.98925 -1.17036 0
M  V30 26026 C 2449.65 1.65994 -0.0594533 0
M  V30 26027 O 2450.84 1.8941 -0.229929 0
M  V30 26028 C 2447.98 3.33958 -0.869835 0
M  V30 26029 C 2447.09 3.7957 -2.06278 0
M  V30 26030 C 2446.22 5.03256 -1.7002 0
M  V30 26031 C 2445.26 5.41281 -2.858 0
M  V30 26032 N 2444.4 6.56148 -2.49828 0
M  V30 26033 H 2449.24 2.09788 -2.11644 0
M  V30 26034 H 2446.78 1.02717 -1.05297 0
M  V30 26035 H 2448.73 4.11683 -0.676211 0
M  V30 26036 H 2447.36 3.22776 0.0393764 0
M  V30 26037 H 2446.42 2.9774 -2.3676 0
M  V30 26038 H 2447.73 4.03689 -2.92979 0
M  V30 26039 H 2446.88 5.88612 -1.47042 0
M  V30 26040 H 2445.62 4.81012 -0.804913 0
M  V30 26041 H 2444.63 4.54451 -3.09442 0
M  V30 26042 H 2445.85 5.65497 -3.76018 0
M  V30 26043 H 2443.8 6.35476 -1.62806 0
M  V30 26044 H 2443.71 6.80145 -3.3006 0
M  V30 26045 H 2444.98 7.44731 -2.3021 0
M  V30 26046 N 2449.21 1.13259 1.09591 0
M  V30 26047 C 2450.44 0.916765 1.86038 0
M  V30 26048 C 2450.86 -0.529114 1.80505 0
M  V30 26049 O 2450.22 -1.37532 1.1813 0
M  V30 26050 C 2450.27 1.40709 3.32014 0
M  V30 26051 O 2449.37 0.591225 4.0814 0
M  V30 26052 H 2448.71 0.328693 0.576937 0
M  V30 26053 H 2451.24 1.50685 1.38403 0
M  V30 26054 H 2451.25 1.40997 3.82863 0
M  V30 26055 H 2449.93 2.45985 3.35357 0
M  V30 26056 H 2448.5 0.656069 3.67083 0
M  V30 26057 N 2450.69 -1.27539 0.925834 0
M  V30 26058 C 2452.11 -1.4682 0.625793 0
M  V30 26059 C 2452.31 -1.83816 -0.825474 0
M  V30 26060 O 2451.36 -1.95047 -1.60353 0
M  V30 26061 C 2452.67 -2.5621 1.57406 0
M  V30 26062 C 2454.22 -2.70072 1.58209 0
M  V30 26063 C 2454.7 -3.82619 2.51728 0
M  V30 26064 N 2456.19 -3.8999 2.49924 0
M  V30 26065 C 2456.92 -4.76489 3.18976 0
M  V30 26066 N 2456.42 -5.67489 3.97401 0
M  V30 26067 N 2458.21 -4.70202 3.08004 0
M  V30 26068 H 2450.36 -1.01808 1.86411 0
M  V30 26069 H 2452.63 -0.50828 0.800222 0
M  V30 26070 H 2452.33 -2.35815 2.6093 0
M  V30 26071 H 2452.21 -3.5356 1.31434 0
M  V30 26072 H 2454.59 -2.8985 0.554175 0
M  V30 26073 H 2454.67 -1.73215 1.88229 0
M  V30 26074 H 2454.32 -3.63595 3.54628 0
M  V30 26075 H 2454.25 -4.78899 2.19004 0
M  V30 26076 H 2456.74 -3.24919 1.92966 0
M  V30 26077 H 2457.05 -6.30348 4.47081 0
M  V30 26078 H 2455.4 -5.67291 4.01505 0
M  V30 26079 H 2458.59 -3.98106 2.4623 0
M  V30 26080 H 2458.76 -5.37397 3.62089 0
M  V30 26081 N 2452.17 -0.691135 -1.41637 0
M  V30 26082 C 2453.1 -0.037289 -2.3347 0
M  V30 26083 C 2454.08 0.771921 -1.51576 0
M  V30 26084 O 2455.26 0.725788 -1.80128 0
M  V30 26085 C 2452.39 0.903005 -3.35355 0
M  V30 26086 C 2451.35 0.201213 -4.27527 0
M  V30 26087 C 2450.67 1.25556 -5.1975 0
M  V30 26088 C 2451.97 -0.92978 -5.13958 0
M  V30 26089 H 2453.67 -0.804278 -2.88395 0
M  V30 26090 H 2451.21 -0.388214 -1.38668 0
M  V30 26091 H 2453.17 1.36962 -3.98521 0
M  V30 26092 H 2451.89 1.70161 -2.7877 0
M  V30 26093 H 2450.55 -0.24533 -3.65778 0
M  V30 26094 H 2450.2 2.04658 -4.59483 0
M  V30 26095 H 2449.9 0.791026 -5.82251 0
M  V30 26096 H 2451.42 1.72278 -5.85792 0
M  V30 26097 H 2452.84 -0.543647 -5.70717 0
M  V30 26098 H 2451.23 -1.32113 -5.85377 0
M  V30 26099 H 2452.3 -1.77141 -4.51386 0
M  V30 26100 N 2453.65 1.51461 -0.435577 0
M  V30 26101 C 2455.06 1.86679 0.0279543 0
M  V30 26102 C 2455.41 1.35283 1.42102 0
M  V30 26103 O 2454.53 0.702914 2.04666 0
M  V30 26104 C 2455.13 3.38751 0.0575031 0
M  V30 26105 C 2453.69 3.73511 0.465441 0
M  V30 26106 C 2452.83 2.7517 -0.343045 0
M  V30 26107 H 2455.78 1.44711 -0.651499 0
M  V30 26108 H 2455.81 3.70482 0.867356 0
M  V30 26109 H 2455.32 3.76128 -0.956514 0
M  V30 26110 H 2453.42 3.41723 1.48513 0
M  V30 26111 H 2453.53 4.78717 0.191462 0
M  V30 26112 H 2451.9 2.53926 0.198397 0
M  V30 26113 H 2452.68 3.15389 -1.3559 0
M  V30 26114 N 2455.12 0.166873 1.56714 0
M  V30 26115 C 2456.03 -0.777752 2.21333 0
M  V30 26116 C 2457.05 -1.25656 1.20361 0
M  V30 26117 O 2458.23 -1.30961 1.53007 0
M  V30 26118 C 2455.29 -1.99158 2.83791 0
M  V30 26119 C 2454.35 -1.56009 3.9995 0
M  V30 26120 C 2453.59 -2.71605 4.5942 0
M  V30 26121 O 2453.81 -3.88355 4.17776 0
M  V30 26122 O 2452.74 -2.45935 5.49363 0
M  V30 26123 H 2456.57 -0.257583 3.02606 0
M  V30 26124 H 2454.15 -0.061113 1.49275 0
M  V30 26125 H 2456.04 -2.70155 3.2341 0
M  V30 26126 H 2454.71 -2.50089 2.05517 0
M  V30 26127 H 2453.62 -0.819745 3.65008 0
M  V30 26128 H 2454.95 -1.09773 4.79803 0
M  V30 26129 N 2456.6 -1.57237 -0.106866 0
M  V30 26130 C 2457.85 -1.85485 -0.812493 0
M  V30 26131 C 2458.18 -0.753719 -1.79302 0
M  V30 26132 O 2457.43 0.253819 -1.94047 0
M  V30 26133 C 2457.73 -3.20271 -1.58622 0
M  V30 26134 C 2457.4 -4.44637 -0.748889 0
M  V30 26135 C 2456.06 -4.78404 -0.51802 0
M  V30 26136 C 2458.41 -5.20935 -0.16603 0
M  V30 26137 C 2455.74 -5.85903 0.305762 0
M  V30 26138 C 2458.09 -6.29303 0.64501 0
M  V30 26139 C 2456.76 -6.61593 0.886081 0
M  V30 26140 H 2456.03 -0.678739 -0.297312 0
M  V30 26141 H 2458.67 -1.91355 -0.0743996 0
M  V30 26142 H 2456.98 -3.10032 -2.39556 0
M  V30 26143 H 2458.67 -3.39352 -2.13637 0
M  V30 26144 H 2455.26 -4.18189 -0.938932 0
M  V30 26145 H 2459.45 -4.95191 -0.331583 0
M  V30 26146 H 2454.7 -6.09339 0.501635 0
M  V30 26147 H 2458.88 -6.876 1.10357 0
M  V30 26148 H 2456.51 -7.44722 1.52622 0
M  V30 26149 N 2458.08 0.377381 -1.53015 0
M  V30 26150 C 2459.31 1.14216 -1.72517 0
M  V30 26151 C 2459.72 1.83389 -0.448768 0
M  V30 26152 O 2459.08 1.7312 0.577562 0
M  V30 26153 C 2459.13 2.18143 -2.88264 0
M  V30 26154 O 2458.85 1.51788 -4.10965 0
M  V30 26155 C 2460.35 3.07259 -3.19542 0
M  V30 26156 H 2457.57 0.34199 -0.577307 0
M  V30 26157 H 2460.12 0.4399 -1.99713 0
M  V30 26158 H 2458.27 2.83986 -2.63497 0
M  V30 26159 H 2458.69 2.20937 -4.75697 0
M  V30 26160 H 2460.16 3.76186 -4.03966 0
M  V30 26161 H 2460.64 3.71415 -2.34409 0
M  V30 26162 H 2461.24 2.47047 -3.46191 0
M  V30 26163 N 2459.56 1.44175 0.636506 0
M  V30 26164 C 2460.47 1.53107 1.77751 0
M  V30 26165 C 2461.48 0.417063 1.68928 0
M  V30 26166 O 2462.66 0.673633 1.898 0
M  V30 26167 C 2459.73 1.46747 3.14112 0
M  V30 26168 C 2458.79 2.68954 3.34607 0
M  V30 26169 C 2458.02 2.62888 4.64463 0
M  V30 26170 O 2458.24 1.68591 5.44916 0
M  V30 26171 O 2457.18 3.53656 4.87043 0
M  V30 26172 H 2461 2.49492 1.73169 0
M  V30 26173 H 2458.59 1.26361 0.797068 0
M  V30 26174 H 2460.47 1.45703 3.95409 0
M  V30 26175 H 2459.14 0.535032 3.19248 0
M  V30 26176 H 2458.05 2.75567 2.53009 0
M  V30 26177 H 2459.38 3.61226 3.3433 0
M  V30 26178 N 2461.04 -0.876421 1.30983 0
M  V30 26179 C 2462.26 -1.66713 1.23376 0
M  V30 26180 C 2462.69 -1.87046 -0.198817 0
M  V30 26181 O 2462.04 -1.40758 -1.14267 0
M  V30 26182 C 2462.09 -3.01608 1.97649 0
M  V30 26183 O 2461.2 -3.9106 1.30942 0
M  V30 26184 H 2460.54 -0.509092 0.426288 0
M  V30 26185 H 2463.07 -1.0932 1.72946 0
M  V30 26186 H 2463.08 -3.5159 2.06998 0
M  V30 26187 H 2461.75 -2.86128 3.01834 0
M  V30 26188 H 2460.33 -3.49505 1.30003 0
M  V30 26189 N 2462.51 -1.13839 -1.08989 0
M  V30 26190 C 2463.42 -0.833371 -2.19299 0
M  V30 26191 C 2464.44 0.183816 -1.73026 0
M  V30 26192 O 2465.62 0.0137738 -2.01395 0
M  V30 26193 C 2462.68 -0.308711 -3.45323 0
M  V30 26194 C 2461.74 -1.38771 -4.06253 0
M  V30 26195 C 2460.98 -0.887989 -5.26261 0
M  V30 26196 O 2461.2 0.27277 -5.69747 0
M  V30 26197 O 2460.13 -1.66432 -5.78432 0
M  V30 26198 H 2463.96 -1.7551 -2.47851 0
M  V30 26199 H 2461.54 -0.916186 -1.1801 0
M  V30 26200 H 2463.43 -0.0217479 -4.21394 0
M  V30 26201 H 2462.1 0.585375 -3.18363 0
M  V30 26202 H 2461.01 -1.72805 -3.31797 0
M  V30 26203 H 2462.34 -2.2561 -4.37448 0
M  V30 26204 N 2463.99 1.27046 -0.932584 0
M  V30 26205 C 2464.94 2.26681 -0.434112 0
M  V30 26206 C 2465.91 1.58345 0.501611 0
M  V30 26207 O 2467.09 1.86127 0.419701 0
M  V30 26208 C 2464.23 3.43771 0.302549 0
M  V30 26209 C 2463.35 4.26806 -0.667849 0
M  V30 26210 C 2462.48 5.31125 0.0891459 0
M  V30 26211 C 2461.52 6.05833 -0.873639 0
M  V30 26212 N 2460.66 7.01942 -0.148955 0
M  V30 26213 H 2465.5 2.68693 -1.28873 0
M  V30 26214 H 2463.04 1.3212 -0.646736 0
M  V30 26215 H 2464.99 4.10476 0.74602 0
M  V30 26216 H 2463.62 3.02697 1.12136 0
M  V30 26217 H 2462.68 3.59971 -1.22984 0
M  V30 26218 H 2463.99 4.78649 -1.40345 0
M  V30 26219 H 2463.14 6.03802 0.592303 0
M  V30 26220 H 2461.88 4.80099 0.857686 0
M  V30 26221 H 2460.89 5.31991 -1.388 0
M  V30 26222 H 2462.11 6.58949 -1.64204 0
M  V30 26223 H 2460.06 6.53239 0.60125 0
M  V30 26224 H 2459.97 7.51496 -0.824042 0
M  V30 26225 H 2461.24 7.78787 0.33339 0
M  V30 26226 N 2465.47 0.698636 1.41269 0
M  V30 26227 C 2466.89 0.37049 1.5524 0
M  V30 26228 C 2467.09 -1.12228 1.67353 0
M  V30 26229 O 2466.14 -1.90815 1.65366 0
M  V30 26230 C 2467.46 1.1217 2.78995 0
M  V30 26231 C 2469 1.10635 2.92795 0
M  V30 26232 C 2469.48 1.83937 4.19441 0
M  V30 26233 N 2470.97 1.80922 4.26405 0
M  V30 26234 C 2471.7 2.34476 5.23267 0
M  V30 26235 N 2471.2 2.96515 6.26139 0
M  V30 26236 N 2472.99 2.24715 5.15228 0
M  V30 26237 H 2465.14 1.66678 1.31651 0
M  V30 26238 H 2467.41 0.703559 0.635381 0
M  V30 26239 H 2467.11 2.17648 2.76265 0
M  V30 26240 H 2466.99 0.702274 3.70605 0
M  V30 26241 H 2469.37 0.0598232 2.95039 0
M  V30 26242 H 2469.46 1.56486 2.0235 0
M  V30 26243 H 2469.1 2.88571 4.17959 0
M  V30 26244 H 2469.03 1.35518 5.08864 0
M  V30 26245 H 2471.52 1.35693 3.52698 0
M  V30 26246 H 2471.83 3.34939 6.96445 0
M  V30 26247 H 2470.18 3.00594 6.26633 0
M  V30 26248 H 2473.37 1.75918 4.33786 0
M  V30 26249 H 2473.54 2.66755 5.90547 0
M  V30 26250 N 2466.95 -1.51228 0.443603 0
M  V30 26251 C 2468.36 -1.5931 0.0962281 0
M  V30 26252 C 2468.56 -1.45405 -1.39498 0
M  V30 26253 O 2467.62 -1.29847 -2.16555 0
M  V30 26254 C 2468.93 -2.94198 0.621926 0
M  V30 26255 C 2470.48 -3.07524 0.582919 0
M  V30 26256 C 2470.96 -4.44946 1.0857 0
M  V30 26257 N 2472.45 -4.51283 1.04395 0
M  V30 26258 C 2473.18 -5.55951 1.40377 0
M  V30 26259 N 2472.68 -6.68008 1.83676 0
M  V30 26260 N 2474.47 -5.46344 1.32154 0
M  V30 26261 H 2466.62 -1.58511 1.41379 0
M  V30 26262 H 2468.89 -0.747556 0.582978 0
M  V30 26263 H 2468.59 -3.09764 1.66552 0
M  V30 26264 H 2468.47 -3.77166 0.0502788 0
M  V30 26265 H 2470.85 -2.91623 -0.451698 0
M  V30 26266 H 2470.93 -2.2638 1.19104 0
M  V30 26267 H 2470.58 -4.61594 2.11881 0
M  V30 26268 H 2470.51 -5.24639 0.454049 0
M  V30 26269 H 2473 -3.7086 0.726051 0
M  V30 26270 H 2473.31 -7.43903 2.09353 0
M  V30 26271 H 2471.66 -6.692 1.87608 0
M  V30 26272 H 2474.85 -4.57686 0.981888 0
M  V30 26273 H 2475.02 -6.27802 1.60525 0
M  V30 26274 N 2468.43 -0.175182 -1.56623 0
M  V30 26275 C 2469.68 0.468887 -1.96174 0
M  V30 26276 C 2469.99 1.64127 -1.06404 0
M  V30 26277 O 2471.19 2.35182 -1.35652 0
M  V30 26278 C 2469.65 0.885572 -3.48835 0
M  V30 26279 C 2469.26 -0.261422 -4.47237 0
M  V30 26280 C 2471 1.49784 -3.97196 0
M  V30 26281 C 2468.91 0.17511 -5.91141 0
M  V30 26282 H 2467.84 0.178945 -0.732458 0
M  V30 26283 H 2470.49 -0.264029 -1.81591 0
M  V30 26284 H 2468.87 1.67458 -3.58851 0
M  V30 26285 H 2470.05 -1.03879 -4.48939 0
M  V30 26286 H 2468.36 -0.783898 -4.08955 0
M  V30 26287 H 2470.96 1.83656 -5.0217 0
M  V30 26288 H 2471.3 2.39716 -3.40355 0
M  V30 26289 H 2471.83 0.773199 -3.90213 0
M  V30 26290 H 2468.57 -0.689529 -6.51863 0
M  V30 26291 H 2468.09 0.917756 -5.92737 0
M  V30 26292 H 2469.77 0.617679 -6.44045 0
M  V30 26293 N 2469.91 1.57292 0.0985263 0
M  V30 26294 C 2470.85 2.02823 1.13866 0
M  V30 26295 C 2471.85 0.928691 1.41675 0
M  V30 26296 O 2473.05 1.11387 1.41396 0
M  V30 26297 H 2469.43 0.646324 0.384408 0
M  V30 26298 H 2471.4 2.89376 0.728296 0
M  V30 26299 C 2470.15 2.46558 2.45162 0
M  V30 26300 H 2469.47 3.30744 2.24607 0
M  V30 26301 H 2470.91 2.82196 3.16451 0
M  V30 26302 C 2469.37 1.33747 3.09214 0
M  V30 26303 O 2469.9 0.66471 3.96162 0
M  V30 26304 N 2468.11 1.08932 2.69411 0
M  V30 26305 H 2467.65 1.63821 1.98798 0
M  V30 26306 H 2467.61 0.336513 3.12594 0
M  V30 26307 N 2471.38 -0.369261 1.53213 0
M  V30 26308 C 2472.63 -1.11009 1.68883 0
M  V30 26309 C 2472.95 -1.8994 0.441319 0
M  V30 26310 O 2472.22 -1.88178 -0.54459 0
M  V30 26311 H 2470.8 -0.412805 0.622576 0
M  V30 26312 H 2473.46 -0.416768 1.90392 0
M  V30 26313 H 2472.56 -1.80196 2.54825 0
M  V30 26314 N 2472.86 -1.4451 -0.628851 0
M  V30 26315 C 2474.09 -1.509 -1.41552 0
M  V30 26316 C 2474.5 -0.134597 -1.8832 0
M  V30 26317 O 2473.86 0.859936 -1.6097 0
M  V30 26318 C 2473.91 -2.47561 -2.63431 0
M  V30 26319 O 2473.63 -3.79658 -2.18612 0
M  V30 26320 C 2475.13 -2.63438 -3.56533 0
M  V30 26321 H 2472.35 -0.511717 -0.434035 0
M  V30 26322 H 2474.9 -1.89496 -0.768861 0
M  V30 26323 H 2473.05 -2.12094 -3.24183 0
M  V30 26324 H 2473.47 -4.31866 -2.97644 0
M  V30 26325 H 2474.94 -3.35095 -4.38651 0
M  V30 26326 H 2475.42 -1.68745 -4.0549 0
M  V30 26327 H 2476.02 -2.99815 -3.01647 0
M  V30 26328 N 2474.34 0.869463 -1.31446 0
M  V30 26329 C 2475.57 1.65292 -1.23945 0
M  V30 26330 C 2475.98 1.88166 0.197528 0
M  V30 26331 O 2475.32 1.44035 1.14016 0
M  V30 26332 C 2475.38 3.04319 -1.9139 0
M  V30 26333 C 2475.05 3.04551 -3.40731 0
M  V30 26334 C 2476.04 2.82473 -4.36469 0
M  V30 26335 C 2473.73 3.25656 -3.82431 0
M  V30 26336 C 2475.72 2.8148 -5.71881 0
M  V30 26337 C 2473.41 3.24291 -5.17956 0
M  V30 26338 C 2474.41 3.0223 -6.12492 0
M  V30 26339 O 2474.1 3.00711 -7.45539 0
M  V30 26340 H 2473.83 0.522047 -0.429468 0
M  V30 26341 H 2476.38 1.09347 -1.73875 0
M  V30 26342 H 2474.61 3.61992 -1.3601 0
M  V30 26343 H 2476.3 3.64888 -1.77797 0
M  V30 26344 H 2477.07 2.65949 -4.05581 0
M  V30 26345 H 2472.95 3.41858 -3.0928 0
M  V30 26346 H 2476.49 2.64179 -6.45643 0
M  V30 26347 H 2472.39 3.40355 -5.48479 0
M  V30 26348 H 2473.15 3.16769 -7.54718 0
M  V30 26349 N 2475.82 1.14415 1.08383 0
M  V30 26350 C 2477.09 0.823328 1.77428 0
M  V30 26351 C 2477.47 -0.683128 1.99741 0
M  V30 26352 O 2476.82 -1.62402 1.60742 0
M  V30 26353 C 2477.03 1.62232 3.09001 0
M  V30 26354 C 2478.38 1.82184 3.83529 0
M  V30 26355 O 2479.4 1.5892 3.18783 0
M  V30 26356 O 2478.26 2.21075 4.99788 0
M  V30 26357 H 2475.36 0.301725 0.769994 0
M  V30 26358 H 2477.9 1.24936 1.14844 0
M  V30 26359 H 2476.68 2.6456 2.88312 0
M  V30 26360 H 2476.3 1.19193 3.79313 0
M  V30 26361 N 2477.3 -1.26549 0.939309 0
M  V30 26362 C 2478.54 -1.93839 0.585881 0
M  V30 26363 C 2478.87 -1.73719 -0.874753 0
M  V30 26364 O 2478.13 -1.06645 -1.6409 0
M  V30 26365 C 2478.42 -3.46595 0.872167 0
M  V30 26366 C 2478.09 -3.86852 2.31638 0
M  V30 26367 C 2476.75 -3.97553 2.71118 0
M  V30 26368 C 2479.1 -4.07061 3.25501 0
M  V30 26369 C 2476.43 -4.25859 4.03561 0
M  V30 26370 C 2478.78 -4.36854 4.57538 0
M  V30 26371 C 2477.45 -4.4577 4.96836 0
M  V30 26372 H 2476.72 -0.709308 0.214389 0
M  V30 26373 H 2479.37 -1.50396 1.18546 0
M  V30 26374 H 2477.67 -3.91339 0.190029 0
M  V30 26375 H 2479.37 -3.9682 0.577512 0
M  V30 26376 H 2475.96 -3.79068 2.00014 0
M  V30 26377 H 2480.14 -3.98222 2.96197 0
M  V30 26378 H 2475.4 -4.30973 4.33673 0
M  V30 26379 H 2479.57 -4.51437 5.30262 0
M  V30 26380 H 2477.2 -4.67457 5.9949 0
M  V30 26381 N 2478.77 -0.706118 -1.40896 0
M  V30 26382 C 2480.02 -0.241566 -2.01054 0
M  V30 26383 C 2480.35 1.16221 -1.55958 0
M  V30 26384 O 2479.6 1.8007 -0.766367 0
M  V30 26385 C 2479.9 -0.259162 -3.56459 0
M  V30 26386 C 2479.57 -1.61191 -4.21103 0
M  V30 26387 C 2478.23 -1.98223 -4.38476 0
M  V30 26388 C 2480.58 -2.5014 -4.57252 0
M  V30 26389 C 2477.91 -3.23768 -4.89276 0
M  V30 26390 C 2480.26 -3.75029 -5.09447 0
M  V30 26391 C 2478.93 -4.1219 -5.25029 0
M  V30 26392 H 2478.2 -0.0883954 -0.735709 0
M  V30 26393 H 2480.84 -0.907286 -1.68643 0
M  V30 26394 H 2479.15 0.490121 -3.88722 0
M  V30 26395 H 2480.85 0.11797 -4.00826 0
M  V30 26396 H 2477.44 -1.31392 -4.07963 0
M  V30 26397 H 2481.62 -2.22808 -4.43475 0
M  V30 26398 H 2476.88 -3.52541 -4.99525 0
M  V30 26399 H 2481.05 -4.44131 -5.36396 0
M  V30 26400 H 2478.68 -5.09542 -5.64155 0
M  V30 26401 N 2480.25 1.50991 -0.451617 0
M  V30 26402 C 2481.5 2.01801 0.109821 0
M  V30 26403 C 2481.82 1.33692 1.41956 0
M  V30 26404 O 2481.09 0.475984 1.90029 0
M  V30 26405 H 2479.67 0.745728 0.0435753 0
M  V30 26406 H 2482.33 1.85512 -0.59759 0
M  V30 26407 H 2481.43 3.10882 0.275434 0
M  V30 26408 N 2481.73 0.183486 1.56528 0
M  V30 26409 C 2482.98 -0.458323 1.97245 0
M  V30 26410 C 2483.3 -1.62427 1.06995 0
M  V30 26411 O 2482.56 -1.9541 0.106576 0
M  V30 26412 C 2482.86 -0.971577 3.43941 0
M  V30 26413 C 2482.52 0.0797577 4.50829 0
M  V30 26414 C 2481.19 0.368668 4.79786 0
M  V30 26415 C 2483.54 0.792729 5.15136 0
M  V30 26416 C 2480.87 1.37573 5.70343 0
M  V30 26417 C 2483.22 1.78886 6.06781 0
M  V30 26418 C 2481.88 2.08509 6.34098 0
M  V30 26419 H 2481.15 -0.167712 0.721771 0
M  V30 26420 H 2483.8 0.278009 1.89471 0
M  V30 26421 H 2482.1 -1.78596 3.48727 0
M  V30 26422 H 2483.8 -1.47737 3.72793 0
M  V30 26423 H 2480.39 -0.155593 4.28317 0
M  V30 26424 H 2484.58 0.582745 4.92867 0
M  V30 26425 H 2479.83 1.61128 5.89786 0
M  V30 26426 H 2484.01 2.34661 6.55673 0
M  V30 26427 H 2481.63 2.8669 7.04069 0
M  V30 26428 N 2483.21 -1.57342 -0.0901833 0
M  V30 26429 C 2484.16 -2.03424 -1.12789 0
M  V30 26430 C 2485.15 -0.936191 -1.4118 0
M  V30 26431 O 2486.36 -1.12136 -1.40803 0
M  V30 26432 H 2482.73 -0.648354 -0.380975 0
M  V30 26433 H 2484.7 -2.89758 -0.712939 0
M  V30 26434 C 2483.45 -2.47855 -2.43851 0
M  V30 26435 H 2482.77 -3.31931 -2.2285 0
M  V30 26436 H 2484.21 -2.8387 -3.1495 0
M  V30 26437 C 2482.67 -1.35385 -3.085 0
M  V30 26438 O 2483.2 -0.68571 -3.95804 0
M  V30 26439 N 2481.41 -1.1036 -2.68829 0
M  V30 26440 H 2480.96 -1.64873 -1.97926 0
M  V30 26441 H 2480.91 -0.353086 -3.12411 0
M  V30 26442 N 2484.69 0.36113 -1.53407 0
M  V30 26443 C 2485.64 1.44284 -1.76539 0
M  V30 26444 C 2486.62 1.48473 -0.620045 0
M  V30 26445 O 2487.81 1.53639 -0.878861 0
M  V30 26446 C 2484.94 2.81661 -1.96271 0
M  V30 26447 C 2484.03 2.81933 -3.1682 0
M  V30 26448 N 2484.42 2.51848 -4.38642 0
M  V30 26449 C 2482.72 3.13091 -3.17632 0
M  V30 26450 C 2483.42 2.5991 -5.20405 0
M  V30 26451 N 2482.39 2.94806 -4.56717 0
M  V30 26452 H 2486.2 1.19894 -2.68333 0
M  V30 26453 H 2483.71 0.569353 -1.52092 0
M  V30 26454 H 2485.71 3.59578 -2.10972 0
M  V30 26455 H 2484.37 3.07011 -1.05708 0
M  V30 26456 H 2485.38 2.25361 -4.66297 0
M  V30 26457 H 2482.05 3.43727 -2.36977 0
M  V30 26458 H 2483.44 2.39958 -6.2759 0
M  V30 26459 N 2486.16 1.44842 0.621179 0
M  V30 26460 C 2487.39 1.51428 1.40545 0
M  V30 26461 C 2487.8 0.141116 1.88673 0
M  V30 26462 O 2487.15 -0.865099 1.62055 0
M  V30 26463 C 2487.21 2.4258 2.65321 0
M  V30 26464 C 2486.87 3.8957 2.38923 0
M  V30 26465 C 2487.87 4.79838 2.0013 0
M  V30 26466 C 2485.55 4.34365 2.52255 0
M  V30 26467 C 2487.55 6.12903 1.7501 0
M  V30 26468 C 2485.23 5.67475 2.2675 0
M  V30 26469 C 2486.23 6.56563 1.88187 0
M  V30 26470 O 2485.92 7.87207 1.62972 0
M  V30 26471 H 2485.65 0.515663 0.437113 0
M  V30 26472 H 2488.21 1.90584 0.765954 0
M  V30 26473 H 2486.44 1.9837 3.31943 0
M  V30 26474 H 2488.13 2.40004 3.27342 0
M  V30 26475 H 2488.89 4.46499 1.89378 0
M  V30 26476 H 2484.77 3.65274 2.8124 0
M  V30 26477 H 2488.31 6.82399 1.44836 0
M  V30 26478 H 2484.21 6.00372 2.37114 0
M  V30 26479 H 2484.98 7.99103 1.77136 0
M  V30 26480 N 2487.64 -0.862479 1.31905 0
M  V30 26481 C 2488.87 -1.64871 1.25001 0
M  V30 26482 C 2489.29 -1.87907 -0.183392 0
M  V30 26483 O 2488.64 -1.44253 -1.11791 0
M  V30 26484 C 2488.69 -3.01245 1.99834 0
M  V30 26485 O 2488.41 -2.79233 3.3758 0
M  V30 26486 C 2489.92 -3.95691 1.99859 0
M  V30 26487 H 2487.14 -0.513766 0.431608 0
M  V30 26488 H 2489.68 -1.07601 1.73903 0
M  V30 26489 H 2487.83 -3.55183 1.54674 0
M  V30 26490 H 2488.25 -3.65907 3.75782 0
M  V30 26491 H 2489.72 -4.88672 2.56717 0
M  V30 26492 H 2490.2 -4.2806 0.982927 0
M  V30 26493 H 2490.81 -3.4769 2.44933 0
M  V30 26494 N 2489.12 -1.14988 -1.07775 0
M  V30 26495 C 2490.35 -0.945805 -1.84017 0
M  V30 26496 C 2490.76 0.505831 -1.81898 0
M  V30 26497 O 2490.12 1.3507 -1.22729 0
M  V30 26498 C 2490.17 -1.44683 -3.31284 0
M  V30 26499 O 2489.89 -2.8416 -3.33444 0
M  V30 26500 C 2491.39 -1.28362 -4.24309 0
M  V30 26501 H 2488.61 -0.336179 -0.580711 0
M  V30 26502 H 2491.16 -1.52657 -1.36074 0
M  V30 26503 H 2489.31 -0.908691 -3.76592 0
M  V30 26504 H 2489.73 -3.06785 -4.25422 0
M  V30 26505 H 2491.2 -1.6827 -5.25727 0
M  V30 26506 H 2491.68 -0.227261 -4.38612 0
M  V30 26507 H 2492.28 -1.81063 -3.84833 0
M  V30 26508 N 2490.6 1.26049 -0.946007 0
M  V30 26509 C 2491.84 1.93813 -0.597036 0
M  V30 26510 C 2492.18 1.73998 0.862454 0
M  V30 26511 O 2491.45 1.07989 1.61767 0
M  V30 26512 C 2491.74 3.47452 -0.945998 0
M  V30 26513 C 2491.59 3.76531 -2.46058 0
M  V30 26514 C 2492.91 4.37638 -0.464862 0
M  V30 26515 H 2490.03 0.703903 -0.218378 0
M  V30 26516 H 2492.67 1.48829 -1.1811 0
M  V30 26517 H 2490.82 3.85897 -0.44897 0
M  V30 26518 H 2492.49 3.47772 -3.03071 0
M  V30 26519 H 2490.73 3.22438 -2.902 0
M  V30 26520 H 2491.4 4.83942 -2.65526 0
M  V30 26521 H 2493.88 4.06447 -0.891087 0
M  V30 26522 H 2492.76 5.43919 -0.737808 0
M  V30 26523 H 2493.02 4.37513 0.635197 0
M  V30 26524 N 2492.08 0.71358 1.4052 0
M  V30 26525 C 2493.01 0.0744274 2.33381 0
M  V30 26526 C 2493.99 -0.747709 1.52785 0
M  V30 26527 O 2495.17 -0.69704 1.81259 0
M  V30 26528 C 2492.3 -0.849539 3.36749 0
M  V30 26529 C 2491.26 -0.133172 4.27793 0
M  V30 26530 C 2490.58 -1.17272 5.21681 0
M  V30 26531 C 2491.88 1.01143 5.12413 0
M  V30 26532 H 2493.58 0.850057 2.87079 0
M  V30 26533 H 2491.12 0.410226 1.38033 0
M  V30 26534 H 2493.08 -1.30605 4.0065 0
M  V30 26535 H 2491.8 -1.65704 2.81442 0
M  V30 26536 H 2490.46 0.303491 3.65342 0
M  V30 26537 H 2490.11 -1.97322 4.6268 0
M  V30 26538 H 2489.81 -0.698294 5.83436 0
M  V30 26539 H 2491.33 -1.62937 5.88459 0
M  V30 26540 H 2492.74 0.634374 5.69779 0
M  V30 26541 H 2491.14 1.41409 5.83201 0
M  V30 26542 H 2492.21 1.843 4.48511 0
M  V30 26543 N 2493.55 -1.50749 0.459618 0
M  V30 26544 C 2494.52 -2.26826 -0.329053 0
M  V30 26545 C 2495.52 -1.31145 -0.930458 0
M  V30 26546 O 2496.71 -1.5467 -0.801426 0
M  V30 26547 C 2493.84 -3.07691 -1.46763 0
M  V30 26548 H 2495.03 -2.97989 0.337977 0
M  V30 26549 H 2492.59 -1.54837 0.213363 0
M  V30 26550 H 2493.32 -2.40996 -2.17005 0
M  V30 26551 H 2493.11 -3.77992 -1.04231 0
M  V30 26552 H 2494.6 -3.65258 -2.02427 0
M  V30 26553 N 2495.03 -0.191784 -1.56429 0
M  V30 26554 C 2496.26 0.452893 -2.01575 0
M  V30 26555 C 2496.67 1.55962 -1.0711 0
M  V30 26556 O 2496.01 1.83576 -0.0675663 0
M  V30 26557 C 2496.08 1.07272 -3.43122 0
M  V30 26558 C 2495.74 0.105134 -4.56879 0
M  V30 26559 C 2496.74 -0.684239 -5.15378 0
M  V30 26560 C 2494.42 -0.00498653 -5.023 0
M  V30 26561 C 2496.42 -1.57073 -6.17743 0
M  V30 26562 C 2494.1 -0.895041 -6.0451 0
M  V30 26563 C 2495.1 -1.67648 -6.62105 0
M  V30 26564 O 2494.79 -2.55163 -7.6233 0
M  V30 26565 H 2494.52 0.118368 -0.665556 0
M  V30 26566 H 2497.07 -0.296773 -2.03245 0
M  V30 26567 H 2495.3 1.87091 -3.38429 0
M  V30 26568 H 2496.99 1.6217 -3.72096 0
M  V30 26569 H 2497.76 -0.609449 -4.81156 0
M  V30 26570 H 2493.64 0.593075 -4.57169 0
M  V30 26571 H 2497.18 -2.18112 -6.62626 0
M  V30 26572 H 2493.08 -0.970959 -6.38156 0
M  V30 26573 H 2493.85 -2.48905 -7.79736 0
M  V30 26574 N 2496.51 1.57387 0.0818378 0
M  V30 26575 C 2497.46 2.0402 1.11708 0
M  V30 26576 C 2498.45 0.943665 1.40682 0
M  V30 26577 O 2499.66 1.12881 1.40207 0
M  V30 26578 H 2496.03 0.650365 0.377531 0
M  V30 26579 H 2498 2.90132 0.697563 0
M  V30 26580 C 2496.75 2.49145 2.42533 0
M  V30 26581 H 2496.08 3.33108 2.21086 0
M  V30 26582 H 2497.52 2.85536 3.13441 0
M  V30 26583 C 2495.98 1.37019 3.07778 0
M  V30 26584 O 2496.51 0.706691 3.95435 0
M  V30 26585 N 2494.71 1.11784 2.6824 0
M  V30 26586 H 2494.26 1.6592 1.97049 0
M  V30 26587 H 2494.22 0.369649 3.12219 0
M  V30 26588 N 2497.99 -0.35299 1.53596 0
M  V30 26589 C 2498.92 -1.4388 1.83904 0
M  V30 26590 C 2499.9 -1.55323 0.693448 0
M  V30 26591 O 2501.08 -1.69686 0.944482 0
M  V30 26592 C 2498.21 -2.81057 2.04021 0
M  V30 26593 C 2497.17 -2.84428 3.19819 0
M  V30 26594 C 2496.49 -4.244 3.25252 0
M  V30 26595 C 2497.79 -2.50814 4.58137 0
M  V30 26596 H 2499.49 -1.18765 2.74837 0
M  V30 26597 H 2497.03 -0.569894 1.32243 0
M  V30 26598 H 2498.99 -3.57055 2.23807 0
M  V30 26599 H 2497.71 -3.07586 1.0981 0
M  V30 26600 H 2496.37 -2.10882 2.99874 0
M  V30 26601 H 2496.02 -4.48025 2.28654 0
M  V30 26602 H 2495.72 -4.27569 4.03061 0
M  V30 26603 H 2497.24 -5.02254 3.47237 0
M  V30 26604 H 2498.66 -3.16526 4.78001 0
M  V30 26605 H 2497.05 -2.65281 5.38281 0
M  V30 26606 H 2498.12 -1.46026 4.6239 0
M  V30 26607 N 2499.47 -1.45169 -0.613489 0
M  V30 26608 C 2500.42 -1.53715 -1.74569 0
M  V30 26609 C 2501.41 -0.407534 -1.64425 0
M  V30 26610 O 2502.62 -0.583206 -1.7029 0
M  V30 26611 H 2498.99 -0.4827 -0.576632 0
M  V30 26612 H 2500.96 -2.48971 -1.64487 0
M  V30 26613 C 2499.71 -1.51537 -3.1294 0
M  V30 26614 H 2499.03 -2.37782 -3.21403 0
M  V30 26615 H 2500.47 -1.61576 -3.92007 0
M  V30 26616 C 2498.93 -0.238857 -3.36052 0
M  V30 26617 O 2499.46 0.68373 -3.95838 0
M  V30 26618 N 2497.67 -0.13641 -2.9028 0
M  V30 26619 H 2497.22 -0.888041 -2.41809 0
M  V30 26620 H 2497.17 0.71689 -3.06118 0
M  V30 26621 N 2500.95 0.855472 -1.32361 0
M  V30 26622 C 2502.18 1.63968 -1.25691 0
M  V30 26623 C 2502.58 1.88365 0.177559 0
M  V30 26624 O 2501.93 1.45236 1.12482 0
M  V30 26625 C 2501.99 3.02272 -1.94607 0
M  V30 26626 C 2501.65 3.0092 -3.43942 0
M  V30 26627 C 2502.65 2.77828 -4.3944 0
M  V30 26628 C 2500.33 3.21581 -3.85864 0
M  V30 26629 C 2502.33 2.75399 -5.74834 0
M  V30 26630 C 2500.02 3.18779 -5.21366 0
M  V30 26631 C 2501.01 2.95717 -6.15663 0
M  V30 26632 O 2500.7 2.92787 -7.48686 0
M  V30 26633 H 2500.43 0.517462 -0.434981 0
M  V30 26634 H 2502.99 1.07497 -1.75025 0
M  V30 26635 H 2501.22 3.60529 -1.39842 0
M  V30 26636 H 2502.91 3.62981 -1.81657 0
M  V30 26637 H 2503.67 2.61633 -4.08379 0
M  V30 26638 H 2499.55 3.38558 -3.12889 0
M  V30 26639 H 2503.1 2.57317 -6.48409 0
M  V30 26640 H 2498.99 3.34519 -5.52058 0
M  V30 26641 H 2499.76 3.08746 -7.58036 0
M  V30 26642 N 2502.42 1.15558 1.07164 0
M  V30 26643 C 2503.39 0.856682 2.12588 0
M  V30 26644 C 2504.39 -0.144411 1.6015 0
M  V30 26645 O 2505.58 0.0854469 1.7399 0
M  V30 26646 C 2502.71 0.279465 3.39753 0
M  V30 26647 H 2503.9 1.79116 2.40536 0
M  V30 26648 H 2501.45 0.96332 1.23085 0
M  V30 26649 H 2502.19 -0.663119 3.17448 0
M  V30 26650 H 2501.97 1.0007 3.79115 0
M  V30 26651 H 2503.46 0.0879847 4.17507 0
M  V30 26652 N 2503.9 -1.25546 0.952678 0
M  V30 26653 C 2505.13 -1.97281 0.62353 0
M  V30 26654 C 2505.54 -1.70827 -0.803957 0
M  V30 26655 O 2504.9 -0.983174 -1.53753 0
M  V30 26656 C 2504.95 -3.50868 0.870271 0
M  V30 26657 O 2504.67 -3.76408 2.24162 0
M  V30 26658 C 2506.17 -4.39834 0.553242 0
M  V30 26659 H 2503.39 -0.628898 0.233942 0
M  V30 26660 H 2505.94 -1.59766 1.27652 0
M  V30 26661 H 2504.09 -3.86501 0.26372 0
M  V30 26662 H 2504.51 -4.70878 2.31029 0
M  V30 26663 H 2505.98 -5.46512 0.776438 0
M  V30 26664 H 2506.46 -4.36204 -0.512138 0
M  V30 26665 H 2507.06 -4.09764 1.13903 0
M  V30 26666 N 2505.38 -0.721022 -1.40139 0
M  V30 26667 C 2506.34 -0.0806236 -2.29058 0
M  V30 26668 C 2507.34 0.681733 -1.45633 0
M  V30 26669 O 2508.53 0.512827 -1.6648 0
M  V30 26670 C 2505.66 0.895535 -3.28927 0
M  V30 26671 H 2506.86 -0.863843 -2.87189 0
M  V30 26672 H 2504.41 -0.486001 -1.48552 0
M  V30 26673 H 2505.15 1.70561 -2.75825 0
M  V30 26674 H 2504.93 0.351698 -3.9052 0
M  V30 26675 H 2506.42 1.34062 -3.95496 0
M  V30 26676 N 2506.86 1.50503 -0.467606 0
M  V30 26677 C 2508.11 2.01498 0.0902514 0
M  V30 26678 C 2508.42 1.35465 1.41098 0
M  V30 26679 O 2509.63 1.77597 2.05357 0
M  V30 26680 C 2508.08 3.59279 0.211357 0
M  V30 26681 C 2507.69 4.34267 -1.10073 0
M  V30 26682 C 2509.43 4.18326 0.72136 0
M  V30 26683 C 2507.34 5.83824 -0.943607 0
M  V30 26684 H 2506.27 0.753067 0.0375038 0
M  V30 26685 H 2508.92 1.73345 -0.601974 0
M  V30 26686 H 2507.3 3.84005 0.967284 0
M  V30 26687 H 2508.48 4.21268 -1.86734 0
M  V30 26688 H 2506.79 3.86813 -1.54157 0
M  V30 26689 H 2509.39 5.27806 0.855888 0
M  V30 26690 H 2509.73 3.79478 1.71179 0
M  V30 26691 H 2510.27 3.97793 0.0229144 0
M  V30 26692 H 2507 6.27138 -1.9073 0
M  V30 26693 H 2506.52 5.99406 -0.217318 0
M  V30 26694 H 2508.2 6.44129 -0.608829 0
M  V30 26695 N 2508.34 0.200077 1.56325 0
M  V30 26696 C 2509.56 -0.445935 2.02549 0
M  V30 26697 C 2509.99 -1.54058 1.07925 0
M  V30 26698 O 2509.34 -1.81188 0.0636093 0
M  V30 26699 C 2509.39 -0.9747 3.47177 0
M  V30 26700 O 2508.5 -2.08732 3.55675 0
M  V30 26701 H 2507.84 -0.103626 0.655864 0
M  V30 26702 H 2510.37 0.312417 2.02201 0
M  V30 26703 H 2510.38 -1.29003 3.87069 0
M  V30 26704 H 2509.05 -0.173397 4.15538 0
M  V30 26705 H 2507.63 -1.78026 3.2766 0
M  V30 26706 N 2509.81 -1.57429 -0.0734901 0
M  V30 26707 C 2511.04 -1.91775 -0.789753 0
M  V30 26708 C 2511.46 -0.796336 -1.70412 0
M  V30 26709 O 2510.82 0.250929 -1.79555 0
M  V30 26710 C 2510.87 -3.25069 -1.56084 0
M  V30 26711 O 2509.97 -3.14183 -2.67138 0
M  V30 26712 H 2509.31 -0.628033 -0.215571 0
M  V30 26713 H 2511.84 -2.04556 -0.0422421 0
M  V30 26714 H 2511.85 -3.58902 -1.94045 0
M  V30 26715 H 2510.53 -4.06267 -0.889943 0
M  V30 26716 H 2509.11 -2.91905 -2.32047 0
M  V30 26717 N 2511.29 0.344839 -1.53781 0
M  V30 26718 C 2512.54 1.08523 -1.70965 0
M  V30 26719 C 2512.87 1.88682 -0.472159 0
M  V30 26720 O 2512.12 1.87927 0.546083 0
M  V30 26721 C 2512.42 2.05501 -2.92411 0
M  V30 26722 C 2512.09 1.41663 -4.28068 0
M  V30 26723 C 2510.75 1.23982 -4.64954 0
M  V30 26724 C 2513.1 0.956636 -5.12346 0
M  V30 26725 C 2510.43 0.589175 -5.83734 0
M  V30 26726 C 2512.78 0.319904 -6.31791 0
M  V30 26727 C 2511.44 0.130764 -6.67372 0
M  V30 26728 H 2510.71 0.397113 -0.625605 0
M  V30 26729 H 2513.36 0.364657 -1.87996 0
M  V30 26730 H 2511.67 2.83935 -2.69978 0
M  V30 26731 H 2513.36 2.62779 -3.029 0
M  V30 26732 H 2509.95 1.56422 -3.99036 0
M  V30 26733 H 2514.14 1.08109 -4.84382 0
M  V30 26734 H 2509.39 0.431237 -6.09877 0
M  V30 26735 H 2513.57 -0.0446296 -6.96386 0
M  V30 26736 H 2511.19 -0.375452 -7.59272 0
M  V30 26737 N 2512.77 1.45492 0.605781 0
M  V30 26738 C 2514.05 1.40078 1.3652 0
M  V30 26739 C 2514.43 0.0723115 2.10976 0
M  V30 26740 O 2513.77 -0.945771 2.08008 0
M  V30 26741 C 2513.98 2.61565 2.31051 0
M  V30 26742 C 2515.33 3.06729 2.93602 0
M  V30 26743 O 2516.36 2.61951 2.41372 0
M  V30 26744 O 2515.22 3.84444 3.88414 0
M  V30 26745 H 2512.31 0.555961 0.612238 0
M  V30 26746 H 2514.86 1.57624 0.628719 0
M  V30 26747 H 2513.63 3.49834 1.75305 0
M  V30 26748 H 2513.25 2.46362 3.12076 0
M  V30 26749 N 2514.25 -0.848441 1.32813 0
M  V30 26750 C 2515.21 -1.93908 1.22198 0
M  V30 26751 C 2516.21 -1.60159 0.143432 0
M  V30 26752 O 2517.4 -1.69679 0.394283 0
M  V30 26753 C 2514.53 -3.29327 0.880728 0
M  V30 26754 H 2515.73 -2.04748 2.19131 0
M  V30 26755 H 2513.28 -1.03938 1.16733 0
M  V30 26756 H 2514.01 -3.24185 -0.0865206 0
M  V30 26757 H 2513.8 -3.552 1.66059 0
M  V30 26758 H 2515.29 -4.09249 0.830943 0
M  V30 26759 N 2515.73 -1.16125 -1.06549 0
M  V30 26760 C 2517 -0.851451 -1.76096 0
M  V30 26761 C 2517.38 0.651264 -2.00803 0
M  V30 26762 O 2516.73 1.59824 -1.63305 0
M  V30 26763 C 2516.94 -1.67128 -3.06381 0
M  V30 26764 C 2518.29 -1.88262 -3.80582 0
M  V30 26765 O 2519.31 -1.63972 -3.16215 0
M  V30 26766 O 2518.17 -2.28999 -4.96208 0
M  V30 26767 H 2515.27 -0.313937 -0.765096 0
M  V30 26768 H 2517.81 -1.26747 -1.12841 0
M  V30 26769 H 2516.58 -2.69113 -2.84066 0
M  V30 26770 H 2516.21 -1.25213 -3.77369 0
M  V30 26771 N 2517.2 1.25039 -0.959323 0
M  V30 26772 C 2518.62 1.45109 -0.664499 0
M  V30 26773 C 2518.82 1.8594 0.776448 0
M  V30 26774 O 2517.88 1.9923 1.55125 0
M  V30 26775 C 2519.19 2.51947 -1.64144 0
M  V30 26776 C 2520.74 2.65783 -1.65314 0
M  V30 26777 C 2521.21 3.7581 -2.61784 0
M  V30 26778 N 2522.7 3.83227 -2.60176 0
M  V30 26779 C 2523.44 4.67864 -3.31498 0
M  V30 26780 N 2522.93 5.56753 -4.12308 0
M  V30 26781 N 2524.73 4.61871 -3.20362 0
M  V30 26782 H 2516.88 0.968299 -1.89044 0
M  V30 26783 H 2519.14 0.486885 -0.813417 0
M  V30 26784 H 2518.85 2.28814 -2.6709 0
M  V30 26785 H 2518.72 3.49951 -1.40762 0
M  V30 26786 H 2521.11 2.88279 -0.630829 0
M  V30 26787 H 2521.19 1.68163 -1.92756 0
M  V30 26788 H 2520.83 3.54065 -3.64144 0
M  V30 26789 H 2520.76 4.72925 -2.31624 0
M  V30 26790 H 2523.25 3.19689 -2.01513 0
M  V30 26791 H 2523.57 6.18273 -4.63636 0
M  V30 26792 H 2521.91 5.56446 -4.16404 0
M  V30 26793 H 2525.1 3.91438 -2.56698 0
M  V30 26794 H 2525.28 5.27608 -3.7621 0
M  V30 26795 N 2518.68 0.728444 1.39755 0
M  V30 26796 C 2519.93 0.272982 2.00248 0
M  V30 26797 C 2520.25 -1.14175 1.58079 0
M  V30 26798 O 2519.52 -1.77632 0.826046 0
M  V30 26799 H 2518.1 0.0979377 0.740552 0
M  V30 26800 H 2520.76 0.936942 1.70902 0
M  V30 26801 H 2519.86 0.316196 3.10494 0
M  V30 26802 N 2520.16 -1.50253 0.475581 0
M  V30 26803 C 2521.41 -2.0265 -0.0779717 0
M  V30 26804 C 2521.74 -1.35654 -1.38966 0
M  V30 26805 O 2521.01 -0.483724 -1.88389 0
M  V30 26806 C 2521.3 -3.59181 -0.257098 0
M  V30 26807 C 2521.15 -4.36742 1.07593 0
M  V30 26808 C 2522.47 -4.28364 -1.00957 0
M  V30 26809 H 2519.59 -0.73651 -0.0268629 0
M  V30 26810 H 2522.23 -1.79529 0.622046 0
M  V30 26811 H 2520.38 -3.79012 -0.853345 0
M  V30 26812 H 2522.05 -4.28471 1.7091 0
M  V30 26813 H 2520.3 -4.00305 1.67147 0
M  V30 26814 H 2520.97 -5.44544 0.904184 0
M  V30 26815 H 2523.44 -4.13035 -0.504141 0
M  V30 26816 H 2522.32 -5.37689 -1.10371 0
M  V30 26817 H 2522.58 -3.91843 -2.04724 0
M  V30 26818 N 2521.64 -0.208365 -1.56217 0
M  V30 26819 C 2522.6 0.693518 -2.18456 0
M  V30 26820 C 2523.6 1.13133 -1.1427 0
M  V30 26821 O 2524.79 1.04227 -1.39579 0
M  V30 26822 C 2521.92 1.94843 -2.7973 0
M  V30 26823 H 2523.12 0.151088 -2.99519 0
M  V30 26824 H 2520.67 0.0412595 -1.56246 0
M  V30 26825 H 2521.4 2.53306 -2.02501 0
M  V30 26826 H 2521.19 1.6431 -3.56012 0
M  V30 26827 H 2522.68 2.59128 -3.27479 0
M  V30 26828 N 2523.12 1.57465 0.0651402 0
M  V30 26829 C 2524.34 1.92191 0.779572 0
M  V30 26830 C 2524.77 0.805363 1.69987 0
M  V30 26831 O 2524.12 -0.241404 1.79686 0
M  V30 26832 C 2524.17 3.25892 1.54358 0
M  V30 26833 O 2523.28 3.15595 2.65469 0
M  V30 26834 H 2522.62 0.629167 0.212238 0
M  V30 26835 H 2525.15 2.04576 0.0313934 0
M  V30 26836 H 2525.16 3.59926 1.92139 0
M  V30 26837 H 2523.83 4.06733 0.868386 0
M  V30 26838 H 2522.41 2.93132 2.30496 0
M  V30 26839 N 2524.59 -0.336679 1.53962 0
M  V30 26840 C 2525.84 -1.0736 1.70753 0
M  V30 26841 C 2526.16 -1.89591 0.481094 0
M  V30 26842 O 2527.36 -2.66275 0.530093 0
M  V30 26843 C 2525.82 -1.95813 3.01969 0
M  V30 26844 C 2525.43 -1.18756 4.31973 0
M  V30 26845 C 2527.17 -2.69321 3.28126 0
M  V30 26846 C 2525.08 -2.06279 5.54259 0
M  V30 26847 H 2524.01 -0.404523 0.636299 0
M  V30 26848 H 2526.66 -0.332649 1.8046 0
M  V30 26849 H 2525.04 -2.73755 2.86136 0
M  V30 26850 H 2526.21 -0.456768 4.58531 0
M  V30 26851 H 2524.53 -0.569873 4.12482 0
M  V30 26852 H 2527.13 -3.35087 4.16678 0
M  V30 26853 H 2527.47 -3.36257 2.45432 0
M  V30 26854 H 2528 -1.98448 3.44765 0
M  V30 26855 H 2524.74 -1.43873 6.39516 0
M  V30 26856 H 2524.26 -2.77128 5.3194 0
M  V30 26857 H 2525.94 -2.65172 5.90163 0
M  V30 26858 N 2526.07 -1.45812 -0.598057 0
M  V30 26859 C 2527.04 -1.54811 -1.69015 0
M  V30 26860 C 2528.04 -0.426679 -1.55036 0
M  V30 26861 O 2529.23 -0.690485 -1.59931 0
M  V30 26862 C 2526.36 -1.45377 -3.08348 0
M  V30 26863 H 2527.55 -2.52124 -1.62399 0
M  V30 26864 H 2525.1 -1.33394 -0.814603 0
M  V30 26865 H 2525.84 -0.49285 -3.20533 0
M  V30 26866 H 2525.62 -2.26726 -3.19903 0
M  V30 26867 H 2527.11 -1.54728 -3.87878 0
M  V30 26868 N 2527.55 0.841385 -1.33261 0
M  V30 26869 C 2528.83 1.58094 -1.15177 0
M  V30 26870 C 2529.21 2.09197 0.282821 0
M  V30 26871 O 2528.56 1.89183 1.28148 0
M  V30 26872 C 2528.77 2.71675 -2.19074 0
M  V30 26873 C 2530.11 3.40919 -2.53099 0
M  V30 26874 O 2531.14 2.81914 -2.17722 0
M  V30 26875 O 2530 4.4743 -3.13798 0
M  V30 26876 H 2527.09 0.696867 -0.445315 0
M  V30 26877 H 2529.64 0.884359 -1.44835 0
M  V30 26878 H 2528.41 2.31535 -3.15448 0
M  V30 26879 H 2528.03 3.48999 -1.90487 0
M  V30 26880 N 2529.03 1.16688 1.05932 0
M  V30 26881 C 2530.45 0.912565 1.30937 0
M  V30 26882 C 2530.65 -0.432499 1.96804 0
M  V30 26883 O 2529.7 -1.17119 2.23695 0
M  V30 26884 C 2531.01 2.06433 2.18645 0
M  V30 26885 C 2532.56 2.10051 2.32051 0
M  V30 26886 C 2533.04 3.24592 3.23116 0
M  V30 26887 N 2534.53 3.24333 3.307 0
M  V30 26888 C 2535.26 4.09601 4.01266 0
M  V30 26889 N 2534.76 5.04965 4.74323 0
M  V30 26890 N 2536.55 3.97576 3.97354 0
M  V30 26891 H 2528.7 2.03279 0.615741 0
M  V30 26892 H 2530.97 0.88719 0.334062 0
M  V30 26893 H 2530.67 3.03606 1.77529 0
M  V30 26894 H 2530.55 2.00899 3.19248 0
M  V30 26895 H 2532.93 1.13469 2.72413 0
M  V30 26896 H 2533.01 2.19649 1.31103 0
M  V30 26897 H 2532.66 4.21435 2.83469 0
M  V30 26898 H 2532.59 3.1223 4.24052 0
M  V30 26899 H 2535.08 2.55281 2.78639 0
M  V30 26900 H 2535.39 5.66439 5.25706 0
M  V30 26901 H 2533.74 5.08941 4.73291 0
M  V30 26902 H 2536.93 3.22375 3.394 0
M  V30 26903 H 2537.1 4.64249 4.5208 0
M  V30 26904 N 2530.51 -1.24529 0.96594 0
M  V30 26905 C 2531.73 -1.97148 0.644006 0
M  V30 26906 C 2532.16 -1.7119 -0.779457 0
M  V30 26907 O 2531.52 -0.97458 -1.52878 0
M  V30 26908 C 2531.56 -3.48597 0.922618 0
M  V30 26909 O 2530.67 -4.12399 0.00714921 0
M  V30 26910 H 2530.01 -0.617678 0.243658 0
M  V30 26911 H 2532.54 -1.58351 1.29561 0
M  V30 26912 H 2532.55 -3.98974 0.853443 0
M  V30 26913 H 2531.22 -3.66819 1.96002 0
M  V30 26914 H 2529.8 -3.72675 0.129495 0
M  V30 26915 N 2531.99 -0.735845 -1.39367 0
M  V30 26916 C 2533.23 -0.293475 -2.01272 0
M  V30 26917 C 2533.59 1.10725 -1.57346 0
M  V30 26918 O 2532.88 1.74429 -0.792774 0
M  V30 26919 C 2533.07 -0.334714 -3.55829 0
M  V30 26920 C 2532.9 -1.73791 -4.14761 0
M  V30 26921 C 2531.67 -2.35034 -4.47311 0
M  V30 26922 C 2533.87 -2.69164 -4.38241 0
M  V30 26923 N 2531.85 -3.67499 -4.9175 0
M  V30 26924 C 2533.22 -3.86366 -4.84893 0
M  V30 26925 C 2535.28 -2.66916 -4.2031 0
M  V30 26926 C 2533.98 -5.01654 -5.15496 0
M  V30 26927 C 2536.01 -3.81348 -4.52027 0
M  V30 26928 C 2535.37 -4.97284 -4.98886 0
M  V30 26929 H 2531.47 -0.153665 -0.766754 0
M  V30 26930 H 2534.05 -0.961997 -1.69274 0
M  V30 26931 H 2532.22 0.303458 -3.87213 0
M  V30 26932 H 2533.96 0.126287 -4.04503 0
M  V30 26933 H 2530.71 -1.86951 -4.35139 0
M  V30 26934 H 2531.13 -4.35508 -5.18326 0
M  V30 26935 H 2535.78 -1.78475 -3.83284 0
M  V30 26936 H 2533.49 -5.90723 -5.51427 0
M  V30 26937 H 2537.08 -3.80906 -4.39775 0
M  V30 26938 H 2535.96 -5.84362 -5.22963 0
M  V30 26939 N 2533.46 1.49999 -0.483543 0
M  V30 26940 C 2534.87 1.86674 -0.0314504 0
M  V30 26941 C 2535.23 1.39736 1.37726 0
M  V30 26942 O 2534.35 0.767671 2.02326 0
M  V30 26943 C 2534.95 3.38763 -0.0502971 0
M  V30 26944 C 2533.5 3.74803 0.346376 0
M  V30 26945 C 2532.65 2.73939 -0.430414 0
M  V30 26946 H 2535.6 1.42565 -0.697207 0
M  V30 26947 H 2535.62 3.73054 0.749051 0
M  V30 26948 H 2535.14 3.72895 -1.07569 0
M  V30 26949 H 2533.24 3.46275 1.37566 0
M  V30 26950 H 2533.35 4.79084 0.0390643 0
M  V30 26951 H 2531.71 2.54429 0.117512 0
M  V30 26952 H 2532.5 3.10915 -1.45556 0
M  V30 26953 N 2534.94 0.216646 1.56104 0
M  V30 26954 C 2536.22 -0.465131 1.89989 0
M  V30 26955 C 2536.6 -1.781 1.13329 0
M  V30 26956 O 2535.95 -2.27225 0.241072 0
M  V30 26957 C 2536.16 -0.662878 3.42647 0
M  V30 26958 C 2537.5 -0.972529 4.13312 0
M  V30 26959 O 2538.53 -0.74984 3.48218 0
M  V30 26960 O 2537.39 -1.39489 5.28398 0
M  V30 26961 H 2534.48 -0.245262 0.789795 0
M  V30 26962 H 2537.03 0.258466 1.6772 0
M  V30 26963 H 2535.8 0.265499 3.90398 0
M  V30 26964 H 2535.42 -1.43814 3.70679 0
M  V30 26965 N 2536.42 -1.57498 -0.0567885 0
M  V30 26966 C 2537.64 -1.92602 -0.769368 0
M  V30 26967 C 2538.07 -0.814366 -1.69557 0
M  V30 26968 O 2537.43 0.231871 -1.79811 0
M  V30 26969 C 2537.48 -3.26706 -1.52628 0
M  V30 26970 O 2536.58 -3.16998 -2.63791 0
M  V30 26971 H 2535.92 -0.630284 -0.208898 0
M  V30 26972 H 2538.45 -2.0459 -0.0205438 0
M  V30 26973 H 2538.46 -3.6094 -1.90228 0
M  V30 26974 H 2537.14 -4.07188 -0.846803 0
M  V30 26975 H 2535.71 -2.9435 -2.28938 0
M  V30 26976 N 2537.9 0.328509 -1.54138 0
M  V30 26977 C 2539.15 1.06493 -1.71766 0
M  V30 26978 C 2539.47 1.88704 -0.491523 0
M  V30 26979 O 2538.74 1.89556 0.494506 0
M  V30 26980 H 2537.32 0.396153 -0.633302 0
M  V30 26981 H 2539.98 0.366143 -1.9143 0
M  V30 26982 H 2539.07 1.73377 -2.59513 0
M  V30 26983 N 2539.38 1.46127 0.590316 0
M  V30 26984 C 2540.6 1.54835 1.37988 0
M  V30 26985 C 2541.03 0.187539 1.87163 0
M  V30 26986 O 2540.38 -0.830979 1.61135 0
M  V30 26987 C 2540.43 2.55102 2.54863 0
M  V30 26988 O 2539.54 2.08079 3.56057 0
M  V30 26989 H 2538.88 0.521311 0.411256 0
M  V30 26990 H 2541.41 1.91633 0.716785 0
M  V30 26991 H 2541.42 2.74466 3.01881 0
M  V30 26992 H 2540.09 3.53927 2.18423 0
M  V30 26993 H 2538.67 1.98669 3.15571 0
M  V30 26994 N 2540.85 -0.834306 1.33705 0
M  V30 26995 C 2542.1 -1.58985 1.2542 0
M  V30 26996 C 2542.43 -1.93676 -0.178835 0
M  V30 26997 O 2541.68 -1.59267 -1.13721 0
M  V30 26998 C 2541.98 -2.90688 2.07931 0
M  V30 26999 C 2541.65 -2.75339 3.5707 0
M  V30 27000 C 2540.31 -2.7086 3.97729 0
M  V30 27001 C 2542.66 -2.5982 4.51822 0
M  V30 27002 C 2539.99 -2.48769 5.31348 0
M  V30 27003 C 2542.34 -2.39262 5.85608 0
M  V30 27004 C 2541.01 -2.33188 6.25444 0
M  V30 27005 H 2540.28 -0.581766 0.458944 0
M  V30 27006 H 2542.92 -0.966232 1.65337 0
M  V30 27007 H 2541.23 -3.5728 1.60806 0
M  V30 27008 H 2542.93 -3.4821 1.98874 0
M  V30 27009 H 2539.52 -2.79659 3.2479 0
M  V30 27010 H 2543.7 -2.62311 4.21315 0
M  V30 27011 H 2538.96 -2.42516 5.61245 0
M  V30 27012 H 2543.13 -2.26238 6.58627 0
M  V30 27013 H 2540.76 -2.1583 7.28918 0
M  V30 27014 N 2542.33 -1.17248 -1.05312 0
M  V30 27015 C 2543.58 -0.971545 -1.78697 0
M  V30 27016 C 2543.93 0.494659 -1.85932 0
M  V30 27017 O 2543.23 1.36241 -1.34718 0
M  V30 27018 C 2543.42 -1.54484 -3.22288 0
M  V30 27019 C 2543.25 -3.06527 -3.29046 0
M  V30 27020 C 2542.02 -3.75248 -3.38404 0
M  V30 27021 C 2544.22 -4.04134 -3.18088 0
M  V30 27022 N 2542.2 -5.14908 -3.3428 0
M  V30 27023 C 2543.57 -5.30238 -3.21322 0
M  V30 27024 C 2545.62 -3.95822 -3.02042 0
M  V30 27025 C 2544.33 -6.48995 -3.10158 0
M  V30 27026 C 2546.35 -5.14161 -2.92219 0
M  V30 27027 C 2545.72 -6.3915 -2.96085 0
M  V30 27028 H 2541.81 -0.409395 -0.666273 0
M  V30 27029 H 2544.4 -1.48812 -1.25551 0
M  V30 27030 H 2542.57 -1.05462 -3.73808 0
M  V30 27031 H 2544.3 -1.28066 -3.83903 0
M  V30 27032 H 2541.06 -3.25923 -3.43615 0
M  V30 27033 H 2541.48 -5.87912 -3.35692 0
M  V30 27034 H 2546.12 -3.00034 -2.97892 0
M  V30 27035 H 2543.84 -7.44995 -3.13063 0
M  V30 27036 H 2547.43 -5.09509 -2.80876 0
M  V30 27037 H 2546.31 -7.29181 -2.88555 0
M  V30 27038 N 2543.81 1.24015 -0.972531 0
M  V30 27039 C 2544.74 2.27508 -0.525588 0
M  V30 27040 C 2545.72 1.64385 0.437233 0
M  V30 27041 O 2546.91 1.91336 0.332309 0
M  V30 27042 C 2544.04 3.46831 0.180387 0
M  V30 27043 C 2542.99 4.22255 -0.698933 0
M  V30 27044 C 2542.32 5.3452 0.138809 0
M  V30 27045 C 2543.62 4.83073 -1.9859 0
M  V30 27046 H 2545.31 2.65145 -1.39063 0
M  V30 27047 H 2542.86 1.27458 -0.670113 0
M  V30 27048 H 2544.81 4.18371 0.504313 0
M  V30 27049 H 2543.53 3.08233 1.07981 0
M  V30 27050 H 2542.19 3.52521 -1.0062 0
M  V30 27051 H 2541.84 4.92162 1.03853 0
M  V30 27052 H 2541.54 5.85902 -0.446362 0
M  V30 27053 H 2543.06 6.08885 0.457297 0
M  V30 27054 H 2544.48 5.46662 -1.72725 0
M  V30 27055 H 2542.88 5.44708 -2.5182 0
M  V30 27056 H 2543.95 4.04257 -2.67776 0
M  V30 27057 N 2545.29 0.743226 1.38974 0
M  V30 27058 C 2546.24 0.108651 2.30544 0
M  V30 27059 C 2547.21 -0.720842 1.49643 0
M  V30 27060 O 2548.39 -0.679111 1.78305 0
M  V30 27061 C 2545.53 -0.786437 3.3602 0
M  V30 27062 C 2544.64 0.0565608 4.31963 0
M  V30 27063 C 2543.78 -0.840565 5.24507 0
M  V30 27064 C 2542.82 0.00669122 6.121 0
M  V30 27065 N 2541.95 -0.84682 6.96974 0
M  V30 27066 H 2546.79 0.895138 2.84238 0
M  V30 27067 H 2544.33 0.453072 1.39949 0
M  V30 27068 H 2546.29 -1.31992 3.9577 0
M  V30 27069 H 2544.92 -1.53882 2.83761 0
M  V30 27070 H 2543.97 0.707558 3.73762 0
M  V30 27071 H 2545.28 0.711315 4.93702 0
M  V30 27072 H 2544.44 -1.44159 5.89324 0
M  V30 27073 H 2543.18 -1.52908 4.6311 0
M  V30 27074 H 2542.18 0.620462 5.46288 0
M  V30 27075 H 2543.41 0.692111 6.75564 0
M  V30 27076 H 2541.35 -1.52048 6.38136 0
M  V30 27077 H 2541.27 -0.248731 7.55591 0
M  V30 27078 H 2542.54 -1.43315 7.66212 0
M  V30 27079 N 2546.77 -1.4974 0.491491 0
M  V30 27080 C 2547.7 -2.25677 -0.338424 0
M  V30 27081 C 2548.68 -1.2985 -0.978653 0
M  V30 27082 O 2549.86 -1.59119 -1.01061 0
M  V30 27083 C 2546.99 -3.04856 -1.47582 0
M  V30 27084 C 2546.03 -4.15764 -0.950927 0
M  V30 27085 S 2546.87 -5.35288 0.150721 0
M  V30 27086 C 2548.02 -6.1802 -0.990069 0
M  V30 27087 H 2548.26 -2.9572 0.30612 0
M  V30 27088 H 2545.79 -1.51901 0.276649 0
M  V30 27089 H 2547.75 -3.51062 -2.12758 0
M  V30 27090 H 2546.41 -2.343 -2.09195 0
M  V30 27091 H 2545.6 -4.70645 -1.80303 0
M  V30 27092 H 2545.2 -3.721 -0.376542 0
M  V30 27093 H 2547.5 -6.50389 -1.89737 0
M  V30 27094 H 2548.44 -7.06471 -0.480081 0
M  V30 27095 H 2548.85 -5.50416 -1.25311 0
M  V30 27096 N 2548.24 -0.224922 -1.55987 0
M  V30 27097 C 2549.47 0.410629 -2.02784 0
M  V30 27098 C 2549.89 1.5311 -1.10467 0
M  V30 27099 O 2549.24 1.82138 -0.114903 0
M  V30 27100 C 2549.3 0.939104 -3.49089 0
M  V30 27101 O 2549.02 -0.13669 -4.37887 0
M  V30 27102 C 2550.52 1.64756 -4.11546 0
M  V30 27103 H 2547.74 0.100136 -0.663486 0
M  V30 27104 H 2550.28 -0.342361 -2.01614 0
M  V30 27105 H 2548.44 1.64235 -3.50864 0
M  V30 27106 H 2548.85 0.261063 -5.2385 0
M  V30 27107 H 2550.32 1.9693 -5.15677 0
M  V30 27108 H 2550.8 2.56188 -3.56741 0
M  V30 27109 H 2551.41 0.98943 -4.13631 0
M  V30 27110 N 2549.72 1.57526 0.0484352 0
M  V30 27111 C 2551.13 1.76882 0.597455 0
M  V30 27112 C 2551.48 0.853506 1.76663 0
M  V30 27113 O 2550.61 0.0434036 2.16356 0
M  V30 27114 C 2551.2 3.20767 1.0906 0
M  V30 27115 C 2549.76 3.41387 1.58529 0
M  V30 27116 C 2548.91 2.72479 0.51482 0
M  V30 27117 H 2551.86 1.57701 -0.177786 0
M  V30 27118 H 2551.88 3.26214 1.95869 0
M  V30 27119 H 2551.39 3.87361 0.239452 0
M  V30 27120 H 2549.5 2.79941 2.45893 0
M  V30 27121 H 2549.61 4.49932 1.64614 0
M  V30 27122 H 2547.97 2.35696 0.965366 0
M  V30 27123 H 2548.76 3.41743 -0.326541 0
M  V30 27124 N 2551.2 -0.32033 1.5431 0
M  V30 27125 C 2552.45 -1.05789 1.7267 0
M  V30 27126 C 2552.78 -1.87907 0.502117 0
M  V30 27127 O 2552.03 -1.88772 -0.516116 0
M  V30 27128 C 2552.33 -2.00823 2.95643 0
M  V30 27129 C 2552 -1.34835 4.30268 0
M  V30 27130 C 2550.66 -1.16569 4.66867 0
M  V30 27131 C 2553.01 -0.875005 5.13803 0
M  V30 27132 C 2550.34 -0.496233 5.84598 0
M  V30 27133 C 2552.69 -0.219351 6.3222 0
M  V30 27134 C 2551.35 -0.0245742 6.67495 0
M  V30 27135 H 2550.62 -0.38711 0.631844 0
M  V30 27136 H 2553.27 -0.334702 1.88552 0
M  V30 27137 H 2551.58 -2.79604 2.74461 0
M  V30 27138 H 2553.27 -2.57927 3.07042 0
M  V30 27139 H 2549.86 -1.50054 4.01474 0
M  V30 27140 H 2554.05 -1.0039 4.86041 0
M  V30 27141 H 2549.3 -0.334156 6.10486 0
M  V30 27142 H 2553.48 0.155413 6.96227 0
M  V30 27143 H 2551.1 0.496198 7.58579 0
M  V30 27144 N 2552.68 -1.46438 -0.582558 0
M  V30 27145 C 2553.93 -1.51456 -1.33812 0
M  V30 27146 C 2554.25 -0.167826 -1.94276 0
M  V30 27147 O 2553.52 0.805646 -1.78567 0
M  V30 27148 H 2552.1 -0.557827 -0.496828 0
M  V30 27149 H 2554.76 -1.82569 -0.682249 0
M  V30 27150 H 2553.86 -2.26731 -2.14475 0
M  V30 27151 N 2554.16 0.827204 -1.34146 0
M  V30 27152 C 2555.4 1.58317 -1.26261 0
M  V30 27153 C 2555.73 1.93768 0.168561 0
M  V30 27154 O 2554.99 1.59868 1.12874 0
M  V30 27155 C 2555.29 2.89581 -2.09469 0
M  V30 27156 C 2554.95 2.73441 -3.58526 0
M  V30 27157 C 2553.61 2.68747 -3.9916 0
M  V30 27158 C 2555.97 2.5742 -4.53193 0
M  V30 27159 C 2553.29 2.45947 -5.3266 0
M  V30 27160 C 2555.65 2.36153 -5.86869 0
M  V30 27161 C 2554.31 2.29868 -6.26671 0
M  V30 27162 H 2553.58 0.579324 -0.462023 0
M  V30 27163 H 2556.23 0.95745 -1.65847 0
M  V30 27164 H 2554.53 3.56422 -1.62698 0
M  V30 27165 H 2556.23 3.4715 -2.00718 0
M  V30 27166 H 2552.82 2.77933 -3.26269 0
M  V30 27167 H 2557 2.60073 -4.227 0
M  V30 27168 H 2552.26 2.39536 -5.62523 0
M  V30 27169 H 2556.43 2.22742 -6.59817 0
M  V30 27170 H 2554.06 2.11962 -7.30052 0
M  V30 27171 N 2555.63 1.17805 1.04688 0
M  V30 27172 C 2557.05 0.926402 1.29961 0
M  V30 27173 C 2557.25 -0.411601 1.97251 0
M  V30 27174 O 2556.31 -1.1474 2.24924 0
M  V30 27175 C 2557.62 2.08741 2.16444 0
M  V30 27176 C 2559.17 2.125 2.2981 0
M  V30 27177 C 2559.64 3.28001 3.19655 0
M  V30 27178 N 2561.13 3.27822 3.27242 0
M  V30 27179 C 2561.87 4.13834 3.96899 0
M  V30 27180 N 2561.36 5.09967 4.68941 0
M  V30 27181 N 2563.16 4.01768 3.93115 0
M  V30 27182 H 2555.31 2.03921 0.594146 0
M  V30 27183 H 2557.57 0.890684 0.324633 0
M  V30 27184 H 2557.28 3.05472 1.74299 0
M  V30 27185 H 2557.15 2.04274 3.17099 0
M  V30 27186 H 2559.54 1.16352 2.71194 0
M  V30 27187 H 2559.62 2.21027 1.28766 0
M  V30 27188 H 2559.26 4.24418 2.78984 0
M  V30 27189 H 2559.19 3.1671 4.20716 0
M  V30 27190 H 2561.68 2.58222 2.75916 0
M  V30 27191 H 2562 5.71983 5.19669 0
M  V30 27192 H 2560.34 5.13932 4.67866 0
M  V30 27193 H 2563.53 3.25956 3.35962 0
M  V30 27194 H 2563.71 4.69018 4.47131 0
M  V30 27195 N 2557.11 -1.23497 0.979094 0
M  V30 27196 C 2558.53 -1.44033 0.687501 0
M  V30 27197 C 2558.73 -1.87151 -0.746768 0
M  V30 27198 O 2557.78 -2.01672 -1.51936 0
M  V30 27199 C 2559.1 -2.49304 1.68131 0
M  V30 27200 C 2560.65 -2.63119 1.69521 0
M  V30 27201 C 2561.12 -3.71598 2.67729 0
M  V30 27202 N 2562.61 -3.79039 2.6624 0
M  V30 27203 C 2563.35 -4.62531 3.38899 0
M  V30 27204 N 2562.84 -5.50123 4.21113 0
M  V30 27205 N 2564.64 -4.56716 3.2767 0
M  V30 27206 H 2556.79 -0.938101 1.90561 0
M  V30 27207 H 2559.05 -0.473883 0.82106 0
M  V30 27208 H 2558.76 -2.24536 2.70697 0
M  V30 27209 H 2558.63 -3.47668 1.46312 0
M  V30 27210 H 2561.02 -2.87239 0.676612 0
M  V30 27211 H 2561.1 -1.65076 1.95406 0
M  V30 27212 H 2560.74 -3.48227 3.6973 0
M  V30 27213 H 2560.67 -4.6918 2.39119 0
M  V30 27214 H 2563.16 -3.16443 2.06573 0
M  V30 27215 H 2563.48 -6.10819 4.73414 0
M  V30 27216 H 2561.82 -5.49751 4.25204 0
M  V30 27217 H 2565.01 -3.87304 2.62893 0
M  V30 27218 H 2565.18 -5.21556 3.84556 0
M  V30 27219 N 2558.59 -0.750586 -1.38578 0
M  V30 27220 C 2559.84 -0.302207 -1.99423 0
M  V30 27221 C 2560.15 1.1215 -1.60255 0
M  V30 27222 O 2561.36 1.67019 -2.14049 0
M  V30 27223 C 2559.82 -0.48937 -3.56557 0
M  V30 27224 C 2559.42 -1.92196 -4.04678 0
M  V30 27225 C 2561.17 -0.103553 -4.24374 0
M  V30 27226 C 2559.07 -2.05785 -5.54443 0
M  V30 27227 H 2558 -0.109243 -0.746044 0
M  V30 27228 H 2560.66 -0.926698 -1.58381 0
M  V30 27229 H 2559.04 0.204259 -3.95473 0
M  V30 27230 H 2560.21 -2.64882 -3.7706 0
M  V30 27231 H 2558.53 -2.26242 -3.49576 0
M  V30 27232 H 2561.12 -0.183881 -5.34384 0
M  V30 27233 H 2561.47 0.943409 -4.05469 0
M  V30 27234 H 2562 -0.748923 -3.90687 0
M  V30 27235 H 2558.74 -3.08725 -5.78247 0
M  V30 27236 H 2558.26 -1.37556 -5.83814 0
M  V30 27237 H 2559.94 -1.84637 -6.20095 0
M  V30 27238 N 2560.07 1.49477 -0.499425 0
M  V30 27239 C 2561 2.31943 0.269203 0
M  V30 27240 C 2561.98 1.40144 0.96403 0
M  V30 27241 O 2563.17 1.69054 0.955737 0
M  V30 27242 C 2560.3 3.20617 1.33499 0
M  V30 27243 C 2559.25 4.21196 0.760128 0
M  V30 27244 C 2558.58 4.98796 1.92631 0
M  V30 27245 C 2559.88 5.21712 -0.247753 0
M  V30 27246 H 2561.57 2.96452 -0.419134 0
M  V30 27247 H 2559.12 1.42562 -0.203013 0
M  V30 27248 H 2561.07 3.77119 1.88041 0
M  V30 27249 H 2559.79 2.54048 2.05249 0
M  V30 27250 H 2558.45 3.65837 0.236466 0
M  V30 27251 H 2558.1 4.28676 2.63146 0
M  V30 27252 H 2557.8 5.6685 1.54775 0
M  V30 27253 H 2559.32 5.58141 2.4761 0
M  V30 27254 H 2560.74 5.72917 0.209479 0
M  V30 27255 H 2559.13 5.97647 -0.542067 0
M  V30 27256 H 2560.2 4.70718 -1.16417 0
M  V30 27257 N 2561.55 0.233191 1.55865 0
M  V30 27258 C 2562.5 -0.688471 2.22177 0
M  V30 27259 C 2563.49 -1.19074 1.20489 0
M  V30 27260 O 2564.7 -1.14922 1.38538 0
M  V30 27261 H 2561.07 -0.24047 0.712515 0
M  V30 27262 H 2563.04 -0.105883 2.98212 0
M  V30 27263 C 2561.79 -1.88066 2.92449 0
M  V30 27264 H 2561.11 -1.5033 3.7046 0
M  V30 27265 H 2562.55 -2.50308 3.42231 0
M  V30 27266 C 2561.01 -2.74332 1.9556 0
M  V30 27267 O 2561.54 -3.73445 1.47993 0
M  V30 27268 N 2559.75 -2.4061 1.62957 0
M  V30 27269 H 2559.3 -1.60065 2.01834 0
M  V30 27270 H 2559.25 -2.98607 0.983939 0
M  V30 27271 N 2563.03 -1.57549 -0.0400806 0
M  V30 27272 C 2564.27 -1.89896 -0.72876 0
M  V30 27273 C 2564.63 -0.830565 -1.73549 0
M  V30 27274 O 2563.92 0.161973 -1.90914 0
M  V30 27275 C 2564.11 -3.26711 -1.44896 0
M  V30 27276 C 2563.94 -4.46759 -0.51349 0
M  V30 27277 C 2562.71 -5.0511 -0.13861 0
M  V30 27278 C 2564.91 -5.13898 0.203432 0
M  V30 27279 N 2562.89 -6.08675 0.799266 0
M  V30 27280 C 2564.26 -6.11926 0.997353 0
M  V30 27281 C 2566.32 -4.97159 0.271546 0
M  V30 27282 C 2565.02 -6.9502 1.85311 0
M  V30 27283 C 2567.05 -5.80806 1.11439 0
M  V30 27284 C 2566.41 -6.78396 1.89627 0
M  V30 27285 H 2562.51 -0.743901 -0.241112 0
M  V30 27286 H 2565.09 -1.94697 0.0108358 0
M  V30 27287 H 2563.26 -3.22859 -2.15908 0
M  V30 27288 H 2565 -3.46607 -2.08915 0
M  V30 27289 H 2561.75 -4.7097 -0.498414 0
M  V30 27290 H 2562.17 -6.65126 1.26239 0
M  V30 27291 H 2566.82 -4.21598 -0.318635 0
M  V30 27292 H 2564.53 -7.69934 2.45414 0
M  V30 27293 H 2568.12 -5.69904 1.17048 0
M  V30 27294 H 2567 -7.41997 2.53792 0
M  V30 27295 N 2564.5 0.312142 -1.54478 0
M  V30 27296 C 2565.43 1.38954 -1.87654 0
M  V30 27297 C 2566.41 1.5343 -0.734385 0
M  V30 27298 O 2567.6 1.67122 -0.989139 0
M  V30 27299 C 2564.73 2.75549 -2.11401 0
M  V30 27300 C 2563.68 2.75849 -3.27248 0
M  V30 27301 C 2563.01 4.15628 -3.36389 0
M  V30 27302 C 2564.31 2.38579 -4.64626 0
M  V30 27303 H 2566 1.11437 -2.77889 0
M  V30 27304 H 2563.55 0.534631 -1.33707 0
M  V30 27305 H 2565.5 3.50996 -2.33195 0
M  V30 27306 H 2564.23 3.04567 -1.17926 0
M  V30 27307 H 2562.89 2.02857 -3.0536 0
M  V30 27308 H 2562.53 4.41805 -2.40452 0
M  V30 27309 H 2562.23 4.16732 -4.14256 0
M  V30 27310 H 2563.76 4.92871 -3.60431 0
M  V30 27311 H 2565.17 3.03741 -4.86225 0
M  V30 27312 H 2563.57 2.50916 -5.45125 0
M  V30 27313 H 2564.64 1.33715 -4.66099 0
M  V30 27314 N 2565.98 1.46745 0.574784 0
M  V30 27315 C 2566.93 1.57908 1.68326 0
M  V30 27316 C 2567.9 0.422955 1.60625 0
M  V30 27317 O 2569.08 0.640742 1.7972 0
M  V30 27318 C 2566.22 1.5828 3.06662 0
M  V30 27319 C 2565.34 2.84683 3.2493 0
M  V30 27320 C 2564.47 2.76507 4.53561 0
M  V30 27321 C 2563.51 3.97814 4.652 0
M  V30 27322 N 2562.65 3.87977 5.85165 0
M  V30 27323 H 2567.49 2.52589 1.58122 0
M  V30 27324 H 2565.02 1.25305 0.77053 0
M  V30 27325 H 2566.98 1.5648 3.86743 0
M  V30 27326 H 2565.61 0.671249 3.15744 0
M  V30 27327 H 2564.66 2.96428 2.384 0
M  V30 27328 H 2565.98 3.74566 3.29397 0
M  V30 27329 H 2565.13 2.72857 5.4188 0
M  V30 27330 H 2563.87 1.84278 4.51545 0
M  V30 27331 H 2562.87 4.01787 3.75296 0
M  V30 27332 H 2564.1 4.91148 4.68988 0
M  V30 27333 H 2562.05 2.9854 5.84132 0
M  V30 27334 H 2561.96 4.71521 5.90935 0
M  V30 27335 H 2563.23 3.88315 6.75893 0
M  V30 27336 N 2567.46 -0.820078 1.34583 0
M  V30 27337 C 2568.37 -1.96294 1.28474 0
M  V30 27338 C 2569.39 -1.72938 0.191932 0
M  V30 27339 O 2570.56 -1.96995 0.418914 0
M  V30 27340 C 2567.63 -3.30643 1.04287 0
M  V30 27341 C 2566.69 -3.66988 2.22752 0
M  V30 27342 C 2565.92 -4.94926 1.99709 0
M  V30 27343 O 2566.14 -5.62319 0.956755 0
M  V30 27344 O 2565.08 -5.29215 2.86732 0
M  V30 27345 H 2568.9 -2.04392 2.24628 0
M  V30 27346 H 2566.49 -0.955893 1.14817 0
M  V30 27347 H 2568.37 -4.11102 0.925914 0
M  V30 27348 H 2567.05 -3.23507 0.111754 0
M  V30 27349 H 2565.95 -2.86962 2.40008 0
M  V30 27350 H 2567.29 -3.78813 3.14263 0
M  V30 27351 N 2568.94 -1.18359 -1.04062 0
M  V30 27352 C 2569.85 -0.925634 -2.15567 0
M  V30 27353 C 2570.86 0.110265 -1.7365 0
M  V30 27354 O 2572.04 -0.0716572 -2.01272 0
M  V30 27355 C 2569.1 -0.454897 -3.43703 0
M  V30 27356 C 2568.17 -1.55877 -4.00001 0
M  V30 27357 C 2567.4 -1.11039 -5.22021 0
M  V30 27358 O 2567.62 0.0308754 -5.70392 0
M  V30 27359 O 2566.56 -1.90815 -5.70853 0
M  V30 27360 H 2570.38 -1.85864 -2.40183 0
M  V30 27361 H 2567.97 -0.965414 -1.14018 0
M  V30 27362 H 2569.85 -0.200456 -4.20923 0
M  V30 27363 H 2568.52 0.449819 -3.20559 0
M  V30 27364 H 2567.43 -1.86722 -3.24169 0
M  V30 27365 H 2568.76 -2.43961 -4.27486 0
M  V30 27366 N 2570.42 1.22976 -0.98563 0
M  V30 27367 C 2571.65 1.95275 -0.674637 0
M  V30 27368 C 2572.05 1.73113 0.763453 0
M  V30 27369 O 2571.4 1.02271 1.52599 0
M  V30 27370 C 2571.46 3.48267 -0.891658 0
M  V30 27371 C 2571.12 3.94154 -2.31282 0
M  V30 27372 C 2572.12 4.02409 -3.29186 0
M  V30 27373 C 2569.8 4.26999 -2.64531 0
M  V30 27374 C 2571.8 4.42871 -4.58415 0
M  V30 27375 C 2569.49 4.67142 -3.93982 0
M  V30 27376 C 2570.48 4.75045 -4.90736 0
M  V30 27377 O 2570.17 5.14283 -6.17874 0
M  V30 27378 H 2569.9 0.628366 -0.249262 0
M  V30 27379 H 2572.46 1.57278 -1.32109 0
M  V30 27380 H 2570.69 3.86243 -0.18803 0
M  V30 27381 H 2572.38 4.01778 -0.577028 0
M  V30 27382 H 2573.14 3.77232 -3.0483 0
M  V30 27383 H 2569.02 4.20057 -1.8993 0
M  V30 27384 H 2572.57 4.48954 -5.33934 0
M  V30 27385 H 2568.46 4.91769 -4.1813 0
M  V30 27386 H 2569.23 5.32379 -6.21704 0
M  V30 27387 N 2571.89 0.757924 1.38178 0
M  V30 27388 C 2572.84 0.122523 2.32277 0
M  V30 27389 C 2573.84 -0.700478 1.54239 0
M  V30 27390 O 2575.04 -0.599089 1.69738 0
M  V30 27391 H 2571.42 0.0208275 0.751712 0
M  V30 27392 H 2573.39 0.932148 2.83467 0
M  V30 27393 C 2572.14 -0.753016 3.39448 0
M  V30 27394 H 2571.46 -0.129114 3.99591 0
M  V30 27395 H 2572.9 -1.16482 4.07686 0
M  V30 27396 C 2571.36 -1.89755 2.78378 0
M  V30 27397 O 2571.89 -2.99204 2.6803 0
M  V30 27398 N 2570.09 -1.69392 2.36124 0
M  V30 27399 H 2569.64 -0.803719 2.44741 0
M  V30 27400 H 2569.6 -2.46141 1.95606 0
M  V30 27401 N 2573.37 -1.4921 0.507345 0
M  V30 27402 C 2574.65 -1.95353 -0.0982359 0
M  V30 27403 C 2575.03 -1.44903 -1.53513 0
M  V30 27404 O 2574.38 -0.665548 -2.18593 0
M  V30 27405 C 2574.59 -3.49 -0.00434148 0
M  V30 27406 C 2575.94 -4.24239 -0.175072 0
M  V30 27407 O 2576.96 -3.56112 -0.0792265 0
M  V30 27408 O 2575.82 -5.45228 -0.372664 0
M  V30 27409 H 2572.91 -0.821888 -0.0918091 0
M  V30 27410 H 2575.46 -1.59829 0.570335 0
M  V30 27411 H 2574.23 -3.78373 0.997468 0
M  V30 27412 H 2573.85 -3.91159 -0.712776 0
M  V30 27413 N 2574.85 -0.241454 -1.55739 0
M  V30 27414 C 2576.26 0.262722 -1.84842 0
M  V30 27415 C 2576.61 1.58001 -1.1632 0
M  V30 27416 O 2575.74 2.11886 -0.43969 0
M  V30 27417 C 2576.33 0.483464 -3.35333 0
M  V30 27418 C 2574.89 0.931913 -3.64681 0
M  V30 27419 C 2574.04 0.00606635 -2.77299 0
M  V30 27420 H 2576.99 -0.464155 -1.51761 0
M  V30 27421 H 2577.01 1.32682 -3.56617 0
M  V30 27422 H 2576.52 -0.475437 -3.85177 0
M  V30 27423 H 2574.62 1.90347 -3.2031 0
M  V30 27424 H 2574.74 0.792545 -4.72499 0
M  V30 27425 H 2573.1 0.51646 -2.49409 0
M  V30 27426 H 2573.88 -0.94811 -3.29948 0
M  V30 27427 N 2576.33 1.57568 0.0317248 0
M  V30 27428 C 2577.74 1.77506 0.57866 0
M  V30 27429 C 2578.09 0.872195 1.75748 0
M  V30 27430 O 2577.22 0.0663487 2.16298 0
M  V30 27431 C 2577.81 3.21905 1.05652 0
M  V30 27432 C 2576.37 3.4305 1.549 0
M  V30 27433 C 2575.52 2.7301 0.485891 0
M  V30 27434 H 2578.47 1.57504 -0.194502 0
M  V30 27435 H 2578.49 3.28273 1.92399 0
M  V30 27436 H 2578 3.87593 0.198354 0
M  V30 27437 H 2576.1 2.82534 2.4291 0
M  V30 27438 H 2576.21 4.51653 1.59833 0
M  V30 27439 H 2574.58 2.36707 0.940313 0
M  V30 27440 H 2575.36 3.41378 -0.362769 0
M  V30 27441 N 2577.81 -0.303946 1.54641 0
M  V30 27442 C 2579.06 -1.03714 1.72992 0
M  V30 27443 C 2579.37 -1.88528 0.521201 0
M  V30 27444 O 2580.57 -2.6509 0.586454 0
M  V30 27445 C 2579.03 -1.89364 3.06054 0
M  V30 27446 C 2578.64 -1.09567 4.34395 0
M  V30 27447 C 2580.38 -2.62301 3.33764 0
M  V30 27448 C 2578.29 -1.94476 5.5851 0
M  V30 27449 H 2577.22 -0.390936 0.644737 0
M  V30 27450 H 2579.87 -0.294296 1.81125 0
M  V30 27451 H 2578.25 -2.67624 2.91879 0
M  V30 27452 H 2579.43 -0.359404 4.59396 0
M  V30 27453 H 2577.74 -0.482252 4.13598 0
M  V30 27454 H 2580.34 -3.26173 4.23692 0
M  V30 27455 H 2580.68 -3.30976 2.52509 0
M  V30 27456 H 2581.21 -1.91091 3.48897 0
M  V30 27457 H 2577.95 -1.30276 6.42424 0
M  V30 27458 H 2577.47 -2.65783 5.37698 0
M  V30 27459 H 2579.15 -2.52594 5.95655 0
M  V30 27460 N 2579.28 -1.47047 -0.566994 0
M  V30 27461 C 2580.51 -1.5654 -1.34828 0
M  V30 27462 C 2580.92 -0.211043 -1.88019 0
M  V30 27463 O 2580.27 0.804358 -1.65154 0
M  V30 27464 C 2580.33 -2.5226 -2.56135 0
M  V30 27465 C 2579.99 -3.98169 -2.243 0
M  V30 27466 C 2580.99 -4.86935 -1.82183 0
M  V30 27467 C 2578.67 -4.43428 -2.3596 0
M  V30 27468 C 2580.67 -6.18976 -1.52142 0
M  V30 27469 C 2578.35 -5.755 -2.05532 0
M  V30 27470 C 2579.35 -6.63095 -1.6369 0
M  V30 27471 O 2579.04 -7.92714 -1.33643 0
M  V30 27472 H 2578.77 -0.531531 -0.417674 0
M  V30 27473 H 2581.33 -1.93296 -0.694692 0
M  V30 27474 H 2579.56 -2.10553 -3.24352 0
M  V30 27475 H 2581.25 -2.51987 -3.18209 0
M  V30 27476 H 2582.01 -4.5322 -1.72676 0
M  V30 27477 H 2577.89 -3.75461 -2.67489 0
M  V30 27478 H 2581.43 -6.87304 -1.19409 0
M  V30 27479 H 2577.33 -6.08759 -2.14669 0
M  V30 27480 H 2578.1 -8.05126 -1.47356 0
M  V30 27481 N 2580.76 0.812929 -1.35016 0
M  V30 27482 C 2582.01 1.57202 -1.28123 0
M  V30 27483 C 2582.34 1.93652 0.145835 0
M  V30 27484 O 2581.62 1.60838 1.09368 0
M  V30 27485 C 2581.9 2.86488 -2.18167 0
M  V30 27486 C 2581.75 2.56555 -3.69459 0
M  V30 27487 C 2583.07 3.88142 -2.07446 0
M  V30 27488 H 2580.19 0.570358 -0.466756 0
M  V30 27489 H 2582.83 0.935754 -1.65359 0
M  V30 27490 H 2580.98 3.40785 -1.86541 0
M  V30 27491 H 2582.65 2.0849 -4.11497 0
M  V30 27492 H 2580.9 1.89844 -3.90053 0
M  V30 27493 H 2581.57 3.48792 -4.27841 0
M  V30 27494 H 2584.04 3.43226 -2.35234 0
M  V30 27495 H 2582.92 4.76391 -2.72658 0
M  V30 27496 H 2583.18 4.29341 -1.05446 0
M  V30 27497 N 2582.24 1.18909 1.03433 0
M  V30 27498 C 2583.47 1.01345 1.8038 0
M  V30 27499 C 2583.88 -0.437973 1.8365 0
M  V30 27500 O 2583.24 -1.30422 1.27657 0
M  V30 27501 C 2583.29 1.56879 3.25686 0
M  V30 27502 O 2583.01 2.96339 3.22668 0
M  V30 27503 C 2584.51 1.44022 4.19253 0
M  V30 27504 H 2581.73 0.3575 0.567833 0
M  V30 27505 H 2584.28 1.57602 1.30315 0
M  V30 27506 H 2582.43 1.04783 3.7296 0
M  V30 27507 H 2582.85 3.22362 4.13742 0
M  V30 27508 H 2584.32 1.87666 5.1912 0
M  V30 27509 H 2584.8 0.389892 4.37466 0
M  V30 27510 H 2585.4 1.95221 3.77848 0
M  V30 27511 N 2583.72 -1.22452 0.992137 0
M  V30 27512 C 2584.63 -2.28045 0.55069 0
M  V30 27513 C 2585.64 -1.69336 -0.400159 0
M  V30 27514 O 2586.82 -1.9962 -0.26718 0
M  V30 27515 C 2583.89 -3.46462 -0.128435 0
M  V30 27516 C 2582.95 -4.20489 0.865281 0
M  V30 27517 C 2582.18 -5.33253 0.218471 0
M  V30 27518 O 2582.4 -5.61782 -0.987795 0
M  V30 27519 O 2581.34 -5.94782 0.922949 0
M  V30 27520 H 2585.16 -2.67972 1.42915 0
M  V30 27521 H 2582.75 -1.28604 0.760348 0
M  V30 27522 H 2584.63 -4.18316 -0.508874 0
M  V30 27523 H 2583.3 -3.08462 -0.981472 0
M  V30 27524 H 2582.21 -3.5091 1.29664 0
M  V30 27525 H 2583.54 -4.62368 1.6875 0
M  V30 27526 N 2585.2 -0.765242 -1.37774 0
M  V30 27527 C 2586.14 -0.134839 -2.32209 0
M  V30 27528 C 2587.14 0.692288 -1.54608 0
M  V30 27529 O 2588.34 0.590079 -1.70053 0
M  V30 27530 H 2584.72 -0.0248137 -0.75159 0
M  V30 27531 H 2586.69 -0.947168 -2.82969 0
M  V30 27532 C 2585.44 0.735004 -3.39843 0
M  V30 27533 H 2584.76 0.107921 -3.99654 0
M  V30 27534 H 2586.2 1.14318 -4.08298 0
M  V30 27535 C 2584.66 1.88276 -2.79381 0
M  V30 27536 O 2585.19 2.97778 -2.69613 0
M  V30 27537 N 2583.4 1.68138 -2.37019 0
M  V30 27538 H 2582.94 0.790729 -2.45164 0
M  V30 27539 H 2582.9 2.451 -1.96909 0
M  V30 27540 N 2586.67 1.48939 -0.515251 0
M  V30 27541 C 2587.92 2.02086 0.0241316 0
M  V30 27542 C 2588.24 1.39593 1.36157 0
M  V30 27543 O 2587.51 0.556154 1.8784 0
M  V30 27544 H 2586.09 0.746905 0.0119072 0
M  V30 27545 H 2588.76 1.82811 -0.675734 0
M  V30 27546 H 2587.85 3.11771 0.143331 0
M  V30 27547 N 2588.15 0.249709 1.55609 0
M  V30 27548 C 2589.4 -0.374806 1.99306 0
M  V30 27549 C 2589.73 -1.57385 1.13769 0
M  V30 27550 O 2589.01 -1.93451 0.201745 0
M  V30 27551 C 2589.29 -0.781924 3.51508 0
M  V30 27552 C 2589.14 0.422707 4.47809 0
M  V30 27553 C 2590.46 -1.62786 4.08887 0
M  V30 27554 H 2587.58 -0.13476 0.724575 0
M  V30 27555 H 2590.22 0.351582 1.86719 0
M  V30 27556 H 2588.37 -1.40083 3.62366 0
M  V30 27557 H 2590.05 1.06116 4.48929 0
M  V30 27558 H 2588.29 1.06532 4.20516 0
M  V30 27559 H 2588.96 0.0944736 5.51919 0
M  V30 27560 H 2591.44 -1.10539 4.01149 0
M  V30 27561 H 2590.31 -1.88157 5.15643 0
M  V30 27562 H 2590.57 -2.60062 3.57519 0
M  V30 27563 N 2589.63 -1.57583 -0.0233682 0
M  V30 27564 C 2590.86 -1.9419 -0.728341 0
M  V30 27565 C 2591.28 -0.850148 -1.67792 0
M  V30 27566 O 2590.64 0.193678 -1.80263 0
M  V30 27567 C 2590.69 -3.2987 -1.45663 0
M  V30 27568 O 2589.79 -3.22523 -2.57008 0
M  V30 27569 H 2589.13 -0.634573 -0.195482 0
M  V30 27570 H 2591.66 -2.04587 0.0228573 0
M  V30 27571 H 2591.67 -3.64893 -1.82529 0
M  V30 27572 H 2590.35 -4.08893 -0.760242 0
M  V30 27573 H 2588.92 -2.9914 -2.22643 0
M  V30 27574 N 2591.11 0.29574 -1.548 0
M  V30 27575 C 2592.04 1.38667 -1.82494 0
M  V30 27576 C 2593.05 1.46591 -0.70816 0
M  V30 27577 O 2594.24 1.48815 -0.985713 0
M  V30 27578 C 2591.34 2.76995 -1.95261 0
M  V30 27579 C 2590.52 2.9194 -3.25714 0
M  V30 27580 C 2589.58 4.108 -3.28831 0
M  V30 27581 O 2588.6 4.02636 -4.02335 0
M  V30 27582 N 2589.8 5.21689 -2.54599 0
M  V30 27583 H 2592.57 1.15264 -2.76648 0
M  V30 27584 H 2590.13 0.485822 -1.54439 0
M  V30 27585 H 2592.12 3.54764 -1.94742 0
M  V30 27586 H 2590.69 2.93322 -1.08078 0
M  V30 27587 H 2589.91 2.01241 -3.38963 0
M  V30 27588 H 2591.2 2.9884 -4.11791 0
M  V30 27589 H 2590.6 5.31204 -1.94522 0
M  V30 27590 H 2589.15 5.97773 -2.59828 0
M  V30 27591 N 2592.59 1.47346 0.559187 0
M  V30 27592 C 2594 1.32821 0.88492 0
M  V30 27593 C 2594.2 0.317208 1.98988 0
M  V30 27594 O 2593.26 -0.271967 2.51031 0
M  V30 27595 C 2594.57 2.72095 1.28003 0
M  V30 27596 C 2596.12 2.80365 1.39156 0
M  V30 27597 C 2596.6 4.20276 1.82023 0
M  V30 27598 N 2598.09 4.22808 1.89177 0
M  V30 27599 C 2598.82 5.27976 2.2367 0
M  V30 27600 N 2598.32 6.43452 2.56791 0
M  V30 27601 N 2600.11 5.15353 2.24427 0
M  V30 27602 H 2592.26 2.11716 -0.170341 0
M  V30 27603 H 2594.52 0.947903 -0.0135413 0
M  V30 27604 H 2594.23 3.47499 0.541966 0
M  V30 27605 H 2594.1 3.03737 2.2366 0
M  V30 27606 H 2596.49 2.05235 2.12044 0
M  V30 27607 H 2596.57 2.5238 0.416916 0
M  V30 27608 H 2596.22 4.9591 1.09706 0
M  V30 27609 H 2596.15 4.45684 2.80488 0
M  V30 27610 H 2598.64 3.395 1.65976 0
M  V30 27611 H 2598.95 7.19459 2.82131 0
M  V30 27612 H 2597.3 6.46775 2.54375 0
M  V30 27613 H 2600.49 4.24167 1.9799 0
M  V30 27614 H 2600.66 5.97422 2.50979 0
M  V30 27615 N 2594.07 -0.805758 1.35445 0
M  V30 27616 C 2594.98 -1.94921 1.30549 0
M  V30 27617 C 2595.99 -1.72725 0.210264 0
M  V30 27618 O 2597.17 -1.9654 0.439784 0
M  V30 27619 C 2594.23 -3.29519 1.07788 0
M  V30 27620 C 2593.29 -3.64605 2.26632 0
M  V30 27621 C 2592.53 -4.9278 2.04947 0
M  V30 27622 O 2592.75 -5.61272 1.01634 0
M  V30 27623 O 2591.68 -5.26144 2.92329 0
M  V30 27624 H 2595.51 -2.01998 2.26783 0
M  V30 27625 H 2593.09 -0.943661 1.15825 0
M  V30 27626 H 2594.98 -4.10097 0.969464 0
M  V30 27627 H 2593.65 -3.2337 0.14606 0
M  V30 27628 H 2592.56 -2.844 2.43038 0
M  V30 27629 H 2593.89 -3.75459 3.18263 0
M  V30 27630 N 2595.54 -1.19456 -1.02801 0
M  V30 27631 C 2596.45 -0.948445 -2.14573 0
M  V30 27632 C 2597.47 0.0918405 -1.73757 0
M  V30 27633 O 2598.65 -0.0930008 -2.01185 0
M  V30 27634 C 2595.71 -0.491326 -3.43201 0
M  V30 27635 C 2594.77 -1.6011 -3.98325 0
M  V30 27636 C 2594 -1.1657 -5.20814 0
M  V30 27637 O 2594.23 -0.029624 -5.70392 0
M  V30 27638 O 2593.16 -1.96859 -5.68797 0
M  V30 27639 H 2596.99 -1.88401 -2.38199 0
M  V30 27640 H 2594.57 -0.977453 -1.12988 0
M  V30 27641 H 2596.45 -0.245089 -4.20687 0
M  V30 27642 H 2595.13 0.415794 -3.21018 0
M  V30 27643 H 2594.04 -1.9015 -3.22171 0
M  V30 27644 H 2595.37 -2.48481 -4.24874 0
M  V30 27645 N 2597.02 1.21924 -0.998617 0
M  V30 27646 C 2598.25 1.94831 -0.69632 0
M  V30 27647 C 2598.66 1.73693 0.740001 0
M  V30 27648 O 2598.02 1.03956 1.49998 0
M  V30 27649 C 2598.07 3.47397 -0.999894 0
M  V30 27650 O 2597.79 3.67829 -2.37978 0
M  V30 27651 C 2599.29 4.37478 -0.716102 0
M  V30 27652 H 2596.51 0.619782 -0.257122 0
M  V30 27653 H 2599.06 1.54918 -1.33494 0
M  V30 27654 H 2597.21 3.85256 -0.406986 0
M  V30 27655 H 2597.63 4.61979 -2.48346 0
M  V30 27656 H 2599.1 5.43254 -0.978737 0
M  V30 27657 H 2599.58 4.37804 0.349891 0
M  V30 27658 H 2600.18 4.05254 -1.29032 0
M  V30 27659 N 2598.5 0.772537 1.37367 0
M  V30 27660 C 2599.78 0.261914 1.93839 0
M  V30 27661 C 2600.16 -1.24316 1.70613 0
M  V30 27662 O 2599.5 -2.02668 1.05537 0
M  V30 27663 C 2599.71 0.636162 3.43153 0
M  V30 27664 C 2601.06 0.606398 4.20248 0
M  V30 27665 O 2602.09 0.5756 3.51519 0
M  V30 27666 O 2600.95 0.634182 5.42808 0
M  V30 27667 H 2598.04 0.06057 0.824779 0
M  V30 27668 H 2600.59 0.853943 1.46649 0
M  V30 27669 H 2599.36 1.67486 3.53644 0
M  V30 27670 H 2598.98 0.0171215 3.97596 0
M  V30 27671 N 2599.98 -1.48664 0.523142 0
M  V30 27672 C 2600.91 -2.32342 -0.232269 0
M  V30 27673 C 2601.89 -1.4166 -0.941612 0
M  V30 27674 O 2603.07 -1.70553 -0.928721 0
M  V30 27675 C 2600.2 -3.227 -1.28381 0
M  V30 27676 C 2599.16 -4.22352 -0.693024 0
M  V30 27677 C 2598.48 -5.01797 -1.84672 0
M  V30 27678 C 2599.78 -5.21252 0.330721 0
M  V30 27679 H 2601.48 -2.95747 0.466244 0
M  V30 27680 H 2599.02 -1.42221 0.225668 0
M  V30 27681 H 2600.98 -3.80063 -1.82018 0
M  V30 27682 H 2599.7 -2.57281 -2.01181 0
M  V30 27683 H 2598.36 -3.66166 -0.178235 0
M  V30 27684 H 2598.01 -4.32808 -2.56293 0
M  V30 27685 H 2597.71 -5.6924 -1.45737 0
M  V30 27686 H 2599.23 -5.6201 -2.38699 0
M  V30 27687 H 2600.65 -5.73178 -0.118306 0
M  V30 27688 H 2599.04 -5.96709 0.637079 0
M  V30 27689 H 2600.11 -4.68806 1.23891 0
M  V30 27690 N 2601.46 -0.257958 -1.55475 0
M  V30 27691 C 2602.4 0.653037 -2.23245 0
M  V30 27692 C 2603.4 1.17142 -1.22369 0
M  V30 27693 O 2604.6 1.12704 -1.40349 0
M  V30 27694 H 2600.98 0.229104 -0.716251 0
M  V30 27695 H 2602.95 0.0584263 -2.98343 0
M  V30 27696 C 2601.7 1.8339 -2.95404 0
M  V30 27697 H 2601.02 1.44418 -3.72805 0
M  V30 27698 H 2602.46 2.44832 -3.4617 0
M  V30 27699 C 2600.92 2.71186 -1.999 0
M  V30 27700 O 2601.45 3.71043 -1.53915 0
M  V30 27701 N 2599.66 2.37987 -1.66765 0
M  V30 27702 H 2599.2 1.56834 -2.04355 0
M  V30 27703 H 2599.16 2.97004 -1.03132 0
M  V30 27704 N 2602.93 1.57593 0.0150108 0
M  V30 27705 C 2604.21 1.81096 0.739168 0
M  V30 27706 C 2604.59 0.859378 1.92816 0
M  V30 27707 O 2603.94 -0.0953219 2.28301 0
M  V30 27708 C 2604.15 3.29193 1.15901 0
M  V30 27709 C 2605.5 3.94543 1.56911 0
M  V30 27710 O 2606.52 3.33426 1.25322 0
M  V30 27711 O 2605.38 5.02176 2.15595 0
M  V30 27712 H 2602.47 0.7452 0.358618 0
M  V30 27713 H 2605.02 1.69697 -0.00929139 0
M  V30 27714 H 2603.79 3.90063 0.310853 0
M  V30 27715 H 2603.42 3.45533 1.96705 0
M  V30 27716 N 2604.41 -0.287527 1.54955 0
M  V30 27717 C 2605.64 -1.03964 1.78883 0
M  V30 27718 C 2606.06 -1.80461 0.554925 0
M  V30 27719 O 2605.41 -1.76193 -0.475645 0
M  V30 27720 C 2605.46 -2.00965 3.00492 0
M  V30 27721 O 2605.18 -1.27569 4.19115 0
M  V30 27722 C 2606.69 -2.88106 3.36912 0
M  V30 27723 H 2603.91 -0.30775 0.596264 0
M  V30 27724 H 2606.45 -0.322713 2.01938 0
M  V30 27725 H 2604.6 -2.6814 2.79606 0
M  V30 27726 H 2605.02 -1.92826 4.87769 0
M  V30 27727 H 2606.49 -3.51993 4.25211 0
M  V30 27728 H 2606.97 -3.57116 2.55665 0
M  V30 27729 H 2607.58 -2.26442 3.60005 0
M  V30 27730 N 2605.89 -1.47641 -0.551365 0
M  V30 27731 C 2606.85 -1.6011 -1.64004 0
M  V30 27732 C 2607.85 -0.475787 -1.536 0
M  V30 27733 O 2609.04 -0.741016 -1.57653 0
M  V30 27734 C 2606.18 -1.55113 -3.03567 0
M  V30 27735 H 2607.37 -2.57163 -1.54295 0
M  V30 27736 H 2604.92 -1.35918 -0.771752 0
M  V30 27737 H 2605.66 -0.594576 -3.18803 0
M  V30 27738 H 2605.44 -2.36789 -3.12527 0
M  V30 27739 H 2606.93 -1.66989 -3.82759 0
M  V30 27740 N 2607.37 0.798563 -1.3587 0
M  V30 27741 C 2608.78 1.0953 -1.16084 0
M  V30 27742 C 2608.98 2.01489 0.021277 0
M  V30 27743 O 2608.04 2.42905 0.689445 0
M  V30 27744 C 2609.35 1.71856 -2.46751 0
M  V30 27745 C 2610.9 1.84239 -2.53031 0
M  V30 27746 C 2611.38 2.49981 -3.83762 0
M  V30 27747 N 2612.87 2.57458 -3.85058 0
M  V30 27748 C 2613.6 3.09114 -4.82945 0
M  V30 27749 N 2613.1 3.61146 -5.91224 0
M  V30 27750 N 2614.89 3.07741 -4.70374 0
M  V30 27751 H 2607.04 0.187424 -2.11571 0
M  V30 27752 H 2609.31 0.145749 -0.936729 0
M  V30 27753 H 2609.01 1.11753 -3.33473 0
M  V30 27754 H 2608.89 2.71467 -2.61888 0
M  V30 27755 H 2611.27 2.43483 -1.66733 0
M  V30 27756 H 2611.35 0.834601 -2.41802 0
M  V30 27757 H 2611 1.91385 -4.70462 0
M  V30 27758 H 2610.93 3.51313 -3.92284 0
M  V30 27759 H 2613.42 2.20604 -3.06826 0
M  V30 27760 H 2613.73 3.98885 -6.61899 0
M  V30 27761 H 2612.08 3.59323 -5.94905 0
M  V30 27762 H 2615.27 2.66375 -3.84918 0
M  V30 27763 H 2615.44 3.47691 -5.46823 0
M  V30 27764 N 2608.85 1.19999 1.02166 0
M  V30 27765 C 2610.1 1.00133 1.7509 0
M  V30 27766 C 2610.41 -0.467802 1.89924 0
M  V30 27767 O 2611.61 -0.785469 2.5989 0
M  V30 27768 C 2610.07 1.74279 3.14889 0
M  V30 27769 C 2609.68 3.25251 3.08084 0
M  V30 27770 C 2611.42 1.62762 3.92057 0
M  V30 27771 C 2609.33 3.91956 4.4286 0
M  V30 27772 H 2608.26 0.371041 0.656387 0
M  V30 27773 H 2610.91 1.43569 1.14281 0
M  V30 27774 H 2609.29 1.23627 3.76208 0
M  V30 27775 H 2610.47 3.83077 2.56103 0
M  V30 27776 H 2608.78 3.37124 2.4441 0
M  V30 27777 H 2611.38 2.09943 4.9176 0
M  V30 27778 H 2611.72 0.582966 4.12198 0
M  V30 27779 H 2612.25 2.10799 3.37355 0
M  V30 27780 H 2608.99 4.96551 4.27923 0
M  V30 27781 H 2608.51 3.38918 4.94868 0
M  V30 27782 H 2610.19 3.95918 5.11721 0
M  V30 27783 N 2610.32 -1.21392 1.00507 0
M  V30 27784 C 2611.55 -1.94177 0.705618 0
M  V30 27785 C 2611.96 -1.74305 -0.735815 0
M  V30 27786 O 2611.31 -1.04685 -1.50953 0
M  V30 27787 C 2611.37 -3.46804 0.946951 0
M  V30 27788 C 2611.03 -3.90425 2.37524 0
M  V30 27789 C 2612.03 -3.97121 3.35546 0
M  V30 27790 C 2609.71 -4.22737 2.71291 0
M  V30 27791 C 2611.71 -4.35522 4.65403 0
M  V30 27792 C 2609.39 -4.60815 4.01364 0
M  V30 27793 C 2610.39 -4.67178 4.98231 0
M  V30 27794 O 2610.08 -5.04388 6.25978 0
M  V30 27795 H 2609.81 -0.624321 0.259227 0
M  V30 27796 H 2612.37 -1.55156 1.34595 0
M  V30 27797 H 2610.6 -3.85895 0.249454 0
M  V30 27798 H 2612.29 -4.00809 0.640874 0
M  V30 27799 H 2613.05 -3.72334 3.10793 0
M  V30 27800 H 2608.93 -4.16982 1.96589 0
M  V30 27801 H 2612.47 -4.40403 5.41009 0
M  V30 27802 H 2608.37 -4.85055 4.25901 0
M  V30 27803 H 2609.14 -5.2242 6.30095 0
M  V30 27804 N 2611.8 -0.779811 -1.36955 0
M  V30 27805 C 2613.03 -0.358913 -2.03459 0
M  V30 27806 C 2613.44 1.02638 -1.58941 0
M  V30 27807 O 2612.78 1.66792 -0.769807 0
M  V30 27808 C 2612.85 -0.332455 -3.57959 0
M  V30 27809 C 2612.51 -1.6637 -4.25641 0
M  V30 27810 C 2613.51 -2.61754 -4.492 0
M  V30 27811 C 2611.19 -1.94035 -4.63309 0
M  V30 27812 C 2613.19 -3.83005 -5.09496 0
M  V30 27813 C 2610.87 -3.15555 -5.23324 0
M  V30 27814 C 2611.87 -4.09859 -5.46356 0
M  V30 27815 O 2611.56 -5.29238 -6.05113 0
M  V30 27816 H 2611.29 -0.147266 -0.659764 0
M  V30 27817 H 2613.84 -1.05711 -1.76109 0
M  V30 27818 H 2612.07 0.42217 -3.84389 0
M  V30 27819 H 2613.76 0.0624676 -4.05852 0
M  V30 27820 H 2614.53 -2.41664 -4.20504 0
M  V30 27821 H 2610.41 -1.21456 -4.44713 0
M  V30 27822 H 2613.95 -4.56626 -5.27388 0
M  V30 27823 H 2609.85 -3.35527 -5.51445 0
M  V30 27824 H 2610.62 -5.30172 -6.23586 0
M  V30 27825 N 2613.28 1.48384 -0.531019 0
M  V30 27826 C 2614.21 2.32462 0.219944 0
M  V30 27827 C 2615.19 1.42158 0.934086 0
M  V30 27828 O 2616.38 1.71043 0.919663 0
M  V30 27829 C 2613.51 3.23377 1.26668 0
M  V30 27830 C 2612.46 4.22714 0.670616 0
M  V30 27831 C 2611.79 5.0277 1.82008 0
M  V30 27832 C 2613.09 5.21069 -0.35836 0
M  V30 27833 H 2614.78 2.95496 -0.481922 0
M  V30 27834 H 2612.33 1.42099 -0.233207 0
M  V30 27835 H 2614.28 3.81023 1.79999 0
M  V30 27836 H 2613 2.58345 1.99814 0
M  V30 27837 H 2611.66 3.66256 0.158813 0
M  V30 27838 H 2611.31 4.34161 2.53994 0
M  V30 27839 H 2611.01 5.70005 1.42717 0
M  V30 27840 H 2612.53 5.63268 2.35716 0
M  V30 27841 H 2613.95 5.73233 0.0879074 0
M  V30 27842 H 2612.35 5.96362 -0.668715 0
M  V30 27843 H 2613.42 4.68142 -1.26375 0
M  V30 27844 N 2614.76 0.2662 1.55336 0
M  V30 27845 C 2616.17 -0.0881785 1.59356 0
M  V30 27846 C 2616.37 -1.5534 1.28343 0
M  V30 27847 O 2615.43 -2.30087 1.04 0
M  V30 27848 C 2616.74 0.278416 2.99408 0
M  V30 27849 C 2618.29 0.224298 3.12195 0
M  V30 27850 C 2618.77 0.565203 4.54499 0
M  V30 27851 N 2620.26 0.516421 4.60312 0
M  V30 27852 C 2620.99 0.753113 5.68433 0
M  V30 27853 N 2620.49 1.05395 6.84736 0
M  V30 27854 N 2622.28 0.682512 5.57941 0
M  V30 27855 H 2614.43 1.22151 1.73761 0
M  V30 27856 H 2616.7 0.492856 0.809813 0
M  V30 27857 H 2616.4 1.29708 3.26908 0
M  V30 27858 H 2616.28 -0.38512 3.75229 0
M  V30 27859 H 2618.66 -0.78507 2.84466 0
M  V30 27860 H 2618.74 0.921964 2.38607 0
M  V30 27861 H 2618.39 1.57222 4.82953 0
M  V30 27862 H 2618.32 -0.154155 5.26374 0
M  V30 27863 H 2620.81 0.293416 3.76759 0
M  V30 27864 H 2621.12 1.22146 7.63086 0
M  V30 27865 H 2619.47 1.09163 6.86373 0
M  V30 27866 H 2622.66 0.447391 4.65957 0
M  V30 27867 H 2622.83 0.870361 6.42128 0
M  V30 27868 N 2616.24 -1.57599 -0.0066531 0
M  V30 27869 C 2617.46 -1.94553 -0.704053 0
M  V30 27870 C 2617.88 -0.867775 -1.67676 0
M  V30 27871 O 2617.24 0.153893 -1.8185 0
M  V30 27872 C 2617.29 -3.31507 -1.44171 0
M  V30 27873 O 2617.01 -4.35145 -0.508021 0
M  V30 27874 C 2618.51 -3.8288 -2.23422 0
M  V30 27875 H 2615.73 -0.641579 -0.196512 0
M  V30 27876 H 2618.27 -2.04456 0.0424889 0
M  V30 27877 H 2616.43 -3.22933 -2.13994 0
M  V30 27878 H 2616.84 -5.14332 -1.02773 0
M  V30 27879 H 2618.32 -4.81155 -2.70543 0
M  V30 27880 H 2618.79 -3.15239 -3.05812 0
M  V30 27881 H 2619.4 -3.9461 -1.5863 0
M  V30 27882 N 2617.72 0.279305 -1.55105 0
M  V30 27883 C 2618.95 1.02864 -1.79172 0
M  V30 27884 C 2619.35 1.80658 -0.562072 0
M  V30 27885 O 2618.7 1.77366 0.478235 0
M  V30 27886 C 2618.76 2.03927 -2.96064 0
M  V30 27887 C 2618.42 1.45129 -4.33343 0
M  V30 27888 C 2619.42 0.870176 -5.12566 0
M  V30 27889 C 2617.1 1.48039 -4.79989 0
M  V30 27890 C 2619.1 0.325985 -6.36566 0
M  V30 27891 C 2616.79 0.932337 -6.03946 0
M  V30 27892 C 2617.78 0.356127 -6.82071 0
M  V30 27893 O 2617.47 -0.183553 -8.0369 0
M  V30 27894 H 2617.2 0.309861 -0.600801 0
M  V30 27895 H 2619.76 0.317432 -2.02932 0
M  V30 27896 H 2617.99 2.78789 -2.6798 0
M  V30 27897 H 2619.68 2.64938 -3.07511 0
M  V30 27898 H 2620.44 0.840437 -4.77663 0
M  V30 27899 H 2616.32 1.91828 -4.19193 0
M  V30 27900 H 2619.87 -0.124409 -6.97489 0
M  V30 27901 H 2615.76 0.959295 -6.38332 0
M  V30 27902 H 2616.53 -0.0723119 -8.18468 0
M  V30 27903 N 2619.19 1.47931 0.543528 0
M  V30 27904 C 2620.44 1.54514 1.29647 0
M  V30 27905 C 2620.76 0.218007 1.94381 0
M  V30 27906 O 2621.96 0.161955 2.71017 0
M  V30 27907 C 2620.42 2.72439 2.3517 0
M  V30 27908 C 2620.03 4.11739 1.76565 0
M  V30 27909 C 2621.77 2.88325 3.11559 0
M  V30 27910 C 2619.68 5.20944 2.79949 0
M  V30 27911 H 2618.61 0.575178 0.487531 0
M  V30 27912 H 2621.26 1.74236 0.575677 0
M  V30 27913 H 2619.64 2.46124 3.10224 0
M  V30 27914 H 2620.81 4.48015 1.07791 0
M  V30 27915 H 2619.13 4.00854 1.12715 0
M  V30 27916 H 2621.73 3.6708 3.88788 0
M  V30 27917 H 2622.07 1.97275 3.6659 0
M  V30 27918 H 2622.6 3.14476 2.43618 0
M  V30 27919 H 2619.34 6.13916 2.29755 0
M  V30 27920 H 2618.86 4.8917 3.47092 0
M  V30 27921 H 2620.54 5.4848 3.43189 0
M  V30 27922 N 2620.67 -0.791347 1.36292 0
M  V30 27923 C 2621.62 -1.9253 1.30518 0
M  V30 27924 C 2622.61 -1.68247 0.197315 0
M  V30 27925 O 2623.82 -1.76277 0.364207 0
M  V30 27926 H 2620.19 -0.632808 0.406274 0
M  V30 27927 H 2622.17 -1.94519 2.26285 0
M  V30 27928 C 2620.91 -3.29527 1.10939 0
M  V30 27929 H 2620.24 -3.48778 1.95433 0
M  V30 27930 H 2621.68 -4.09228 1.10945 0
M  V30 27931 C 2620.14 -3.36386 -0.186063 0
M  V30 27932 O 2620.67 -3.84083 -1.17657 0
M  V30 27933 N 2618.87 -2.89688 -0.230078 0
M  V30 27934 H 2618.42 -2.51064 0.57659 0
M  V30 27935 H 2618.38 -2.94659 -1.09653 0
M  V30 27936 N 2622.15 -1.2054 -1.01528 0
M  V30 27937 C 2623.06 -0.97115 -2.13555 0
M  V30 27938 C 2624.08 0.073406 -1.73845 0
M  V30 27939 O 2625.25 -0.114334 -2.01075 0
M  V30 27940 C 2622.32 -0.527699 -3.42661 0
M  V30 27941 C 2621.38 -1.64326 -3.96605 0
M  V30 27942 C 2620.61 -1.22087 -5.19548 0
M  V30 27943 O 2620.83 -0.0901201 -5.70329 0
M  V30 27944 O 2619.77 -2.02881 -5.66677 0
M  V30 27945 H 2623.59 -1.90917 -2.36187 0
M  V30 27946 H 2621.18 -0.989382 -1.11945 0
M  V30 27947 H 2623.06 -0.289695 -4.20403 0
M  V30 27948 H 2621.74 0.381723 -3.21441 0
M  V30 27949 H 2620.64 -1.93556 -3.20136 0
M  V30 27950 H 2621.98 -2.52973 -4.22215 0
M  V30 27951 N 2623.63 1.20858 -1.01149 0
M  V30 27952 C 2624.59 2.21681 -0.582263 0
M  V30 27953 C 2625.59 1.57058 0.344859 0
M  V30 27954 O 2626.78 1.73682 0.134251 0
M  V30 27955 C 2623.91 3.40568 0.150437 0
M  V30 27956 H 2625.11 2.6117 -1.47413 0
M  V30 27957 H 2622.66 1.34232 -0.800719 0
M  V30 27958 H 2623.39 3.06576 1.05745 0
M  V30 27959 H 2623.18 3.88696 -0.515512 0
M  V30 27960 H 2624.67 4.15294 0.438271 0
M  V30 27961 N 2625.11 0.787064 1.3654 0
M  V30 27962 C 2626.04 0.198033 2.32659 0
M  V30 27963 C 2627.02 -0.665669 1.56534 0
M  V30 27964 O 2628.2 -0.599978 1.84699 0
M  V30 27965 C 2625.33 -0.669841 3.40779 0
M  V30 27966 C 2624.29 0.0937791 4.27897 0
M  V30 27967 C 2623.61 -0.894536 5.27164 0
M  V30 27968 C 2624.91 1.28163 5.06332 0
M  V30 27969 H 2626.61 1.00104 2.82169 0
M  V30 27970 H 2624.15 0.482817 1.35665 0
M  V30 27971 H 2626.1 -1.09184 4.0701 0
M  V30 27972 H 2624.83 -1.50553 2.8983 0
M  V30 27973 H 2623.49 0.496724 3.63219 0
M  V30 27974 H 2623.14 -1.72519 4.72489 0
M  V30 27975 H 2622.84 -0.388046 5.86317 0
M  V30 27976 H 2624.36 -1.31515 5.96269 0
M  V30 27977 H 2625.77 0.93551 5.65616 0
M  V30 27978 H 2624.17 1.72125 5.74885 0
M  V30 27979 H 2625.24 2.07815 4.38111 0
M  V30 27980 N 2626.58 -1.48101 0.53888 0
M  V30 27981 C 2627.53 -2.29759 -0.219001 0
M  V30 27982 C 2628.5 -1.37924 -0.925538 0
M  V30 27983 O 2629.69 -1.66888 -0.924826 0
M  V30 27984 C 2626.83 -3.21492 -1.25447 0
M  V30 27985 C 2625.94 -4.28409 -0.555868 0
M  V30 27986 C 2625.07 -5.07313 -1.57503 0
M  V30 27987 C 2624.11 -6.06023 -0.860391 0
M  V30 27988 N 2623.25 -6.77952 -1.82552 0
M  V30 27989 H 2628.09 -2.94051 0.483501 0
M  V30 27990 H 2625.63 -1.44955 0.250272 0
M  V30 27991 H 2627.58 -3.73083 -1.86721 0
M  V30 27992 H 2626.21 -2.59103 -1.92524 0
M  V30 27993 H 2625.27 -3.80015 0.171005 0
M  V30 27994 H 2626.58 -4.988 0.00483384 0
M  V30 27995 H 2625.73 -5.62963 -2.26181 0
M  V30 27996 H 2624.47 -4.36781 -2.16964 0
M  V30 27997 H 2623.48 -5.49568 -0.15959 0
M  V30 27998 H 2624.7 -6.78556 -0.271777 0
M  V30 27999 H 2622.65 -6.10165 -2.40904 0
M  V30 28000 H 2622.56 -7.44449 -1.31649 0
M  V30 28001 H 2623.83 -7.38187 -2.50401 0
M  V30 28002 N 2628.06 -0.274434 -1.55192 0
M  V30 28003 C 2629.02 0.60024 -2.21201 0
M  V30 28004 C 2630.02 1.08185 -1.18965 0
M  V30 28005 O 2631.21 0.982132 -1.43874 0
M  V30 28006 C 2628.35 1.82804 -2.87742 0
M  V30 28007 H 2629.54 0.0239155 -2.9989 0
M  V30 28008 H 2627.09 -0.0250467 -1.5628 0
M  V30 28009 H 2627.83 2.44489 -2.13062 0
M  V30 28010 H 2627.61 1.49063 -3.62661 0
M  V30 28011 H 2629.1 2.45005 -3.38175 0
M  V30 28012 N 2629.54 1.576 -0.00170483 0
M  V30 28013 C 2630.79 1.90924 0.683798 0
M  V30 28014 C 2631.12 0.875829 1.73329 0
M  V30 28015 O 2630.39 -0.105216 1.94215 0
M  V30 28016 C 2630.68 3.34822 1.32537 0
M  V30 28017 C 2630.53 4.48881 0.287309 0
M  V30 28018 C 2631.85 3.78173 2.25107 0
M  V30 28019 H 2628.97 0.694337 0.247112 0
M  V30 28020 H 2631.61 1.89925 -0.0533483 0
M  V30 28021 H 2629.76 3.35804 1.95366 0
M  V30 28022 H 2631.43 4.60035 -0.341427 0
M  V30 28023 H 2629.67 4.32041 -0.390246 0
M  V30 28024 H 2630.35 5.46528 0.775297 0
M  V30 28025 H 2632.82 3.78753 1.72294 0
M  V30 28026 H 2631.7 4.79606 2.66963 0
M  V30 28027 H 2631.96 3.12136 3.13087 0
M  V30 28028 N 2631.02 -0.271076 1.55251 0
M  V30 28029 C 2631.95 -1.35746 1.84677 0
M  V30 28030 C 2632.96 -1.45446 0.731392 0
M  V30 28031 O 2634.15 -1.47228 1.00926 0
M  V30 28032 C 2631.25 -2.73854 1.99643 0
M  V30 28033 C 2630.42 -2.86721 3.30317 0
M  V30 28034 C 2629.48 -4.05517 3.35325 0
M  V30 28035 O 2628.51 -3.96184 4.08689 0
M  V30 28036 N 2629.71 -5.17573 2.62867 0
M  V30 28037 H 2632.48 -1.10848 2.78447 0
M  V30 28038 H 2630.04 -0.461191 1.55192 0
M  V30 28039 H 2632.03 -3.51621 2.00362 0
M  V30 28040 H 2630.6 -2.91566 1.1273 0
M  V30 28041 H 2629.82 -1.95823 3.42121 0
M  V30 28042 H 2631.11 -2.92251 4.16493 0
M  V30 28043 H 2630.51 -5.28042 2.02948 0
M  V30 28044 H 2629.06 -5.93564 2.69305 0
M  V30 28045 N 2632.5 -1.48217 -0.535675 0
M  V30 28046 C 2633.77 -1.46432 -1.29681 0
M  V30 28047 C 2634.15 -0.172889 -2.10391 0
M  V30 28048 O 2633.5 0.845451 -2.12284 0
M  V30 28049 C 2633.71 -2.72291 -2.18309 0
M  V30 28050 C 2635.06 -3.20388 -2.78633 0
M  V30 28051 O 2636.08 -2.73168 -2.28599 0
M  V30 28052 O 2634.94 -4.02538 -3.69629 0
M  V30 28053 H 2632.04 -0.584539 -0.585016 0
M  V30 28054 H 2634.58 -1.60444 -0.552799 0
M  V30 28055 H 2633.35 -3.578 -1.58415 0
M  V30 28056 H 2632.98 -2.60971 -2.99967 0
M  V30 28057 N 2633.97 0.784108 -1.3671 0
M  V30 28058 C 2634.92 1.89696 -1.31469 0
M  V30 28059 C 2635.89 1.65095 -0.182419 0
M  V30 28060 O 2637.08 1.87182 -0.369795 0
M  V30 28061 C 2634.22 3.26586 -1.11516 0
M  V30 28062 C 2633.33 3.63223 -2.33865 0
M  V30 28063 C 2632.46 4.89258 -2.06882 0
M  V30 28064 C 2631.5 5.1859 -3.25163 0
M  V30 28065 N 2630.64 6.35809 -2.97811 0
M  V30 28066 H 2635.48 1.93511 -2.26622 0
M  V30 28067 H 2633.02 0.946236 -1.12627 0
M  V30 28068 H 2634.98 4.05533 -0.979724 0
M  V30 28069 H 2633.61 3.22179 -0.200159 0
M  V30 28070 H 2632.66 2.79357 -2.58193 0
M  V30 28071 H 2633.97 3.80845 -3.22116 0
M  V30 28072 H 2633.12 5.76083 -1.90299 0
M  V30 28073 H 2631.86 4.73716 -1.1595 0
M  V30 28074 H 2630.87 4.30245 -3.423 0
M  V30 28075 H 2632.09 5.36047 -4.16929 0
M  V30 28076 H 2630.04 6.21649 -2.09496 0
M  V30 28077 H 2629.96 6.53788 -3.79602 0
M  V30 28078 H 2631.22 7.25602 -2.84818 0
M  V30 28079 N 2635.45 1.21076 1.00888 0
M  V30 28080 C 2636.7 1.02715 1.74864 0
M  V30 28081 C 2637.03 -0.438754 1.89179 0
M  V30 28082 O 2636.31 -1.32564 1.42327 0
M  V30 28083 C 2636.59 1.72041 3.16344 0
M  V30 28084 C 2636.44 3.26126 3.09777 0
M  V30 28085 C 2637.76 1.4598 4.15184 0
M  V30 28086 H 2634.88 0.37455 0.634729 0
M  V30 28087 H 2637.52 1.49198 1.17643 0
M  V30 28088 H 2635.67 1.32523 3.65198 0
M  V30 28089 H 2637.34 3.74988 2.68667 0
M  V30 28090 H 2635.59 3.5663 2.46976 0
M  V30 28091 H 2636.26 3.69797 4.09822 0
M  V30 28092 H 2638.73 1.80278 3.75019 0
M  V30 28093 H 2637.61 1.97008 5.12327 0
M  V30 28094 H 2637.87 0.389001 4.40385 0
M  V30 28095 N 2636.93 -1.2032 1.01789 0
M  V30 28096 C 2638.21 -1.85413 0.62301 0
M  V30 28097 C 2638.59 -1.91007 -0.898853 0
M  V30 28098 O 2637.94 -1.41887 -1.79109 0
M  V30 28099 C 2638.15 -3.24982 1.27231 0
M  V30 28100 C 2639.49 -4.01253 1.38857 0
M  V30 28101 O 2640.52 -3.3434 1.22863 0
M  V30 28102 O 2639.38 -5.21087 1.64715 0
M  V30 28103 H 2636.47 -0.798529 0.21513 0
M  V30 28104 H 2639.02 -1.27899 1.11535 0
M  V30 28105 H 2637.79 -3.15683 2.31215 0
M  V30 28106 H 2637.41 -3.90129 0.767138 0
M  V30 28107 N 2638.41 -0.794293 -1.3612 0
M  V30 28108 C 2639.34 -0.210369 -2.3255 0
M  V30 28109 C 2640.32 0.657359 -1.56885 0
M  V30 28110 O 2641.5 0.590174 -1.85015 0
M  V30 28111 C 2638.63 0.651759 -3.4113 0
M  V30 28112 C 2637.59 -0.11647 -4.27841 0
M  V30 28113 C 2636.91 0.866567 -5.27631 0
M  V30 28114 C 2638.21 -1.30846 -5.05645 0
M  V30 28115 H 2639.91 -1.01599 -2.81635 0
M  V30 28116 H 2637.45 -0.490005 -1.35407 0
M  V30 28117 H 2639.41 1.07023 -4.07583 0
M  V30 28118 H 2638.13 1.49013 -2.90624 0
M  V30 28119 H 2636.79 -0.515979 -3.62951 0
M  V30 28120 H 2636.44 1.70011 -4.73398 0
M  V30 28121 H 2636.14 0.356947 -5.86515 0
M  V30 28122 H 2637.66 1.28351 -5.96958 0
M  V30 28123 H 2639.08 -0.965492 -5.65112 0
M  V30 28124 H 2637.47 -1.75171 -5.73964 0
M  V30 28125 H 2638.54 -2.10136 -4.37002 0
M  V30 28126 N 2639.89 1.47813 -0.546727 0
M  V30 28127 C 2641.3 1.58268 -0.205745 0
M  V30 28128 C 2641.5 1.54669 1.2915 0
M  V30 28129 O 2640.56 1.44456 2.07096 0
M  V30 28130 C 2641.87 2.89215 -0.823116 0
M  V30 28131 C 2643.42 3.02778 -0.793381 0
M  V30 28132 C 2643.89 4.3641 -1.38963 0
M  V30 28133 N 2645.39 4.43019 -1.35234 0
M  V30 28134 C 2646.12 5.4496 -1.78342 0
M  V30 28135 N 2645.62 6.53768 -2.29257 0
M  V30 28136 N 2647.41 5.35942 -1.69477 0
M  V30 28137 H 2639.56 1.48396 -1.51962 0
M  V30 28138 H 2641.82 0.70562 -0.633091 0
M  V30 28139 H 2641.53 2.97554 -1.87495 0
M  V30 28140 H 2641.4 3.75924 -0.309981 0
M  V30 28141 H 2643.79 2.94041 0.249732 0
M  V30 28142 H 2643.87 2.17637 -1.34416 0
M  V30 28143 H 2643.52 4.45901 -2.43176 0
M  V30 28144 H 2643.45 5.20265 -0.814383 0
M  V30 28145 H 2645.94 3.64977 -0.979804 0
M  V30 28146 H 2646.25 7.27714 -2.60102 0
M  V30 28147 H 2644.59 6.54686 -2.33262 0
M  V30 28148 H 2647.79 4.49835 -1.29485 0
M  V30 28149 H 2647.96 6.15253 -2.03392 0
M  V30 28150 N 2641.36 0.28266 1.55044 0
M  V30 28151 C 2642.61 -0.331299 1.99366 0
M  V30 28152 C 2642.93 -1.5581 1.17253 0
M  V30 28153 O 2642.2 -1.94114 0.263905 0
M  V30 28154 H 2640.78 -0.125401 0.736399 0
M  V30 28155 H 2643.45 0.389744 1.90963 0
M  V30 28156 H 2642.54 -0.615982 3.05961 0
M  V30 28157 N 2642.84 -1.57597 0.0100627 0
M  V30 28158 C 2644.07 -1.95005 -0.682387 0
M  V30 28159 C 2644.48 -0.884043 -1.67276 0
M  V30 28160 O 2643.82 0.14464 -1.8313 0
M  V30 28161 C 2643.89 -3.28458 -1.46135 0
M  V30 28162 C 2643.55 -4.52617 -0.631444 0
M  V30 28163 C 2644.55 -5.1983 0.0851819 0
M  V30 28164 C 2642.23 -4.99004 -0.574451 0
M  V30 28165 C 2644.23 -6.31738 0.847677 0
M  V30 28166 C 2641.91 -6.10799 0.191762 0
M  V30 28167 C 2642.91 -6.77024 0.901551 0
M  V30 28168 O 2642.6 -7.86675 1.65524 0
M  V30 28169 H 2642.33 -0.64746 -0.19435 0
M  V30 28170 H 2644.88 -2.05311 0.0603481 0
M  V30 28171 H 2643.11 -3.14589 -2.2488 0
M  V30 28172 H 2644.8 -3.50906 -2.04009 0
M  V30 28173 H 2645.57 -4.84974 0.0503664 0
M  V30 28174 H 2641.45 -4.47276 -1.11646 0
M  V30 28175 H 2644.99 -6.83362 1.40222 0
M  V30 28176 H 2640.89 -6.45096 0.228363 0
M  V30 28177 H 2641.66 -8.03243 1.57301 0
M  V30 28178 N 2644.32 0.262839 -1.55393 0
M  V30 28179 C 2645.55 1.01105 -1.80514 0
M  V30 28180 C 2645.96 1.79555 -0.583565 0
M  V30 28181 O 2645.32 1.76927 0.447554 0
M  V30 28182 C 2645.37 1.96159 -3.03651 0
M  V30 28183 O 2645.09 1.20886 -4.21092 0
M  V30 28184 C 2646.59 2.82709 -3.41453 0
M  V30 28185 H 2643.81 0.298225 -0.601085 0
M  V30 28186 H 2646.36 0.290546 -2.02425 0
M  V30 28187 H 2644.51 2.63658 -2.83837 0
M  V30 28188 H 2644.93 1.85042 -4.90775 0
M  V30 28189 H 2646.4 3.45184 -4.30757 0
M  V30 28190 H 2646.88 3.53004 -2.61314 0
M  V30 28191 H 2647.48 2.20686 -3.63562 0
M  V30 28192 N 2645.8 1.48499 0.527807 0
M  V30 28193 C 2647.04 1.56859 1.28542 0
M  V30 28194 C 2647.38 0.242685 1.92678 0
M  V30 28195 O 2646.65 -0.751514 1.79395 0
M  V30 28196 C 2646.94 2.70843 2.3731 0
M  V30 28197 C 2646.79 4.13146 1.77851 0
M  V30 28198 C 2648.11 2.80579 3.39063 0
M  V30 28199 H 2645.23 0.570979 0.465996 0
M  V30 28200 H 2647.87 1.80681 0.587752 0
M  V30 28201 H 2646.02 2.50663 2.96817 0
M  V30 28202 H 2647.69 4.44771 1.22377 0
M  V30 28203 H 2645.93 4.20044 1.08375 0
M  V30 28204 H 2646.6 4.88725 2.56615 0
M  V30 28205 H 2649.08 2.98867 2.89513 0
M  V30 28206 H 2647.96 3.62058 4.1256 0
M  V30 28207 H 2648.22 1.88825 3.99747 0
M  V30 28208 N 2647.28 -0.776847 1.37123 0
M  V30 28209 C 2648.52 -1.53673 1.33253 0
M  V30 28210 C 2648.88 -1.92217 -0.0839553 0
M  V30 28211 O 2648.17 -1.60826 -1.04142 0
M  V30 28212 C 2648.37 -2.81607 2.20073 0
M  V30 28213 C 2648.19 -2.55567 3.70021 0
M  V30 28214 C 2646.96 -2.49953 4.39149 0
M  V30 28215 C 2649.16 -2.23909 4.63 0
M  V30 28216 N 2647.14 -2.15943 5.74667 0
M  V30 28217 C 2648.52 -1.99995 5.86858 0
M  V30 28218 C 2650.57 -2.10022 4.51437 0
M  V30 28219 C 2649.27 -1.63596 7.00449 0
M  V30 28220 C 2651.3 -1.75023 5.64908 0
M  V30 28221 C 2650.66 -1.51965 6.87813 0
M  V30 28222 H 2646.76 -0.562847 0.542888 0
M  V30 28223 H 2649.34 -0.906753 1.72296 0
M  V30 28224 H 2647.52 -3.42451 1.83254 0
M  V30 28225 H 2649.25 -3.47457 2.07498 0
M  V30 28226 H 2646 -2.65632 3.92093 0
M  V30 28227 H 2646.43 -2.01649 6.46272 0
M  V30 28228 H 2651.07 -2.26533 3.56991 0
M  V30 28229 H 2648.79 -1.45823 7.94834 0
M  V30 28230 H 2652.37 -1.64943 5.57929 0
M  V30 28231 H 2651.25 -1.25283 7.74128 0
M  V30 28232 N 2648.76 -1.2161 -1.00244 0
M  V30 28233 C 2649.98 -1.0617 -1.78165 0
M  V30 28234 C 2650.41 0.384002 -1.84139 0
M  V30 28235 O 2649.76 1.2771 -1.28685 0
M  V30 28236 C 2649.81 -1.66648 -3.19783 0
M  V30 28237 O 2648.92 -0.913684 -4.02151 0
M  V30 28238 H 2648.26 -0.3735 -0.548993 0
M  V30 28239 H 2650.79 -1.61206 -1.25991 0
M  V30 28240 H 2650.8 -1.70975 -3.70448 0
M  V30 28241 H 2649.47 -2.71856 -3.14749 0
M  V30 28242 H 2648.05 -0.945698 -3.60709 0
M  V30 28243 N 2650.23 1.19778 -1.02425 0
M  V30 28244 C 2651.2 2.21051 -0.605742 0
M  V30 28245 C 2652.2 1.57415 0.328181 0
M  V30 28246 O 2653.39 1.73815 0.115822 0
M  V30 28247 C 2650.52 3.40708 0.114306 0
M  V30 28248 H 2651.71 2.59591 -1.50174 0
M  V30 28249 H 2649.26 1.33375 -0.814911 0
M  V30 28250 H 2650 3.0768 1.02487 0
M  V30 28251 H 2649.78 3.88128 -0.55671 0
M  V30 28252 H 2651.27 4.15735 0.394199 0
M  V30 28253 N 2651.71 0.801501 1.35697 0
M  V30 28254 C 2652.64 0.153962 2.2768 0
M  V30 28255 C 2653.62 -0.677064 1.47833 0
M  V30 28256 O 2654.81 -0.645443 1.77105 0
M  V30 28257 C 2651.93 -0.786929 3.29432 0
M  V30 28258 C 2650.98 -0.0361697 4.26485 0
M  V30 28259 S 2651.81 1.29639 5.19571 0
M  V30 28260 C 2652.97 0.359815 6.24865 0
M  V30 28261 H 2653.2 0.93385 2.82253 0
M  V30 28262 H 2650.73 0.596308 1.4242 0
M  V30 28263 H 2652.69 -1.32429 3.88552 0
M  V30 28264 H 2651.35 -1.54016 2.73748 0
M  V30 28265 H 2650.55 -0.75058 4.9838 0
M  V30 28266 H 2650.15 0.431082 3.71507 0
M  V30 28267 H 2652.44 -0.456835 6.75958 0
M  V30 28268 H 2653.38 1.0478 7.00305 0
M  V30 28269 H 2653.79 -0.0422281 5.64484 0
M  V30 28270 N 2653.19 -1.47521 0.554558 0
M  V30 28271 C 2654.47 -1.95567 -0.036036 0
M  V30 28272 C 2654.85 -1.49713 -1.48826 0
M  V30 28273 O 2654.19 -0.734755 -2.16365 0
M  V30 28274 C 2654.4 -3.48837 0.106692 0
M  V30 28275 C 2655.75 -4.24581 -0.0400153 0
M  V30 28276 O 2656.78 -3.56184 0.0341079 0
M  V30 28277 O 2655.64 -5.46138 -0.199015 0
M  V30 28278 H 2652.73 -0.824393 -0.0656149 0
M  V30 28279 H 2655.28 -1.57934 0.620894 0
M  V30 28280 H 2654.05 -3.75008 1.11734 0
M  V30 28281 H 2653.67 -3.93229 -0.587971 0
M  V30 28282 N 2654.67 -0.290879 -1.54892 0
M  V30 28283 C 2655.62 0.605537 -2.2458 0
M  V30 28284 C 2656.61 1.1452 -1.24826 0
M  V30 28285 O 2657.82 1.09701 -1.42708 0
M  V30 28286 H 2654.19 0.21386 -0.720949 0
M  V30 28287 H 2656.16 -0.00486975 -2.984 0
M  V30 28288 C 2654.91 1.77083 -2.99227 0
M  V30 28289 H 2654.23 1.36477 -3.75784 0
M  V30 28290 H 2655.67 2.37434 -3.51285 0
M  V30 28291 C 2654.13 2.66884 -2.05607 0
M  V30 28292 O 2654.66 3.67695 -1.61751 0
M  V30 28293 N 2652.87 2.34396 -1.71775 0
M  V30 28294 H 2652.42 1.52464 -2.07636 0
M  V30 28295 H 2652.37 2.94749 -1.09409 0
M  V30 28296 N 2656.15 1.57589 -0.0184203 0
M  V30 28297 C 2657.39 1.91355 0.662528 0
M  V30 28298 C 2657.72 0.893818 1.72746 0
M  V30 28299 O 2656.98 -0.0988166 1.9545 0
M  V30 28300 C 2657.27 3.31863 1.3267 0
M  V30 28301 C 2656.94 4.49182 0.393189 0
M  V30 28302 C 2655.6 4.81007 0.136218 0
M  V30 28303 C 2657.95 5.20607 -0.248457 0
M  V30 28304 C 2655.28 5.8162 -0.770384 0
M  V30 28305 C 2657.63 6.22187 -1.14305 0
M  V30 28306 C 2656.3 6.52459 -1.40901 0
M  V30 28307 H 2655.57 0.700218 0.242436 0
M  V30 28308 H 2658.22 1.91342 -0.0778966 0
M  V30 28309 H 2656.52 3.28088 2.14162 0
M  V30 28310 H 2658.22 3.55256 1.85995 0
M  V30 28311 H 2654.81 4.24328 0.603648 0
M  V30 28312 H 2658.99 4.9626 -0.0629703 0
M  V30 28313 H 2654.25 6.03425 -0.98426 0
M  V30 28314 H 2658.42 6.76656 -1.64649 0
M  V30 28315 H 2656.05 7.30239 -2.11319 0
M  V30 28316 N 2657.62 -0.254594 1.5553 0
M  V30 28317 C 2658.53 -1.33674 1.92791 0
M  V30 28318 C 2659.55 -1.5307 0.827383 0
M  V30 28319 O 2660.73 -1.66841 1.1281 0
M  V30 28320 C 2657.79 -2.67272 2.20832 0
M  V30 28321 C 2656.85 -2.56464 3.44274 0
M  V30 28322 C 2656.08 -3.83691 3.70968 0
M  V30 28323 O 2656.31 -4.85221 2.99861 0
M  V30 28324 O 2655.24 -3.82786 4.64498 0
M  V30 28325 H 2659.07 -1.05066 2.84947 0
M  V30 28326 H 2656.65 -0.454698 1.42313 0
M  V30 28327 H 2658.53 -3.46233 2.4021 0
M  V30 28328 H 2657.21 -2.95627 1.31856 0
M  V30 28329 H 2656.12 -1.75815 3.30212 0
M  V30 28330 H 2657.45 -2.33055 4.33528 0
M  V30 28331 N 2659.1 -1.48777 -0.519925 0
M  V30 28332 C 2660.35 -1.58516 -1.27453 0
M  V30 28333 C 2660.7 -0.26009 -1.90634 0
M  V30 28334 O 2660 0.738005 -1.76816 0
M  V30 28335 C 2660.19 -2.66754 -2.37859 0
M  V30 28336 C 2660.02 -4.09657 -1.85502 0
M  V30 28337 C 2658.79 -4.76677 -1.67653 0
M  V30 28338 C 2660.99 -4.95503 -1.37774 0
M  V30 28339 N 2658.97 -6.0396 -1.10026 0
M  V30 28340 C 2660.34 -6.13112 -0.921606 0
M  V30 28341 C 2662.39 -4.81649 -1.26171 0
M  V30 28342 C 2661.1 -7.18394 -0.36093 0
M  V30 28343 C 2663.12 -5.87062 -0.715018 0
M  V30 28344 C 2662.49 -7.03886 -0.269009 0
M  V30 28345 H 2658.58 -0.634539 -0.457038 0
M  V30 28346 H 2661.17 -1.85702 -0.58504 0
M  V30 28347 H 2659.34 -2.41373 -3.04292 0
M  V30 28348 H 2661.07 -2.66121 -3.04896 0
M  V30 28349 H 2657.83 -4.3317 -1.9147 0
M  V30 28350 H 2658.25 -6.71869 -0.831949 0
M  V30 28351 H 2662.89 -3.9166 -1.59256 0
M  V30 28352 H 2660.61 -8.08098 -0.0177706 0
M  V30 28353 H 2664.2 -5.78398 -0.628275 0
M  V30 28354 H 2663.08 -7.84061 0.147428 0
M  V30 28355 N 2660.58 0.769564 -1.37534 0
M  V30 28356 C 2661.54 1.86454 -1.33295 0
M  V30 28357 C 2662.54 1.5905 -0.236565 0
M  V30 28358 O 2663.73 1.67092 -0.49254 0
M  V30 28359 C 2660.86 3.23631 -1.07124 0
M  V30 28360 H 2662.06 1.91623 -2.30696 0
M  V30 28361 H 2659.61 0.96955 -1.22594 0
M  V30 28362 H 2660.35 3.24138 -0.102635 0
M  V30 28363 H 2660.13 3.44914 -1.86485 0
M  V30 28364 H 2661.62 4.03709 -1.06813 0
M  V30 28365 N 2662.06 1.22139 0.995977 0
M  V30 28366 C 2663.29 1.07032 1.77064 0
M  V30 28367 C 2663.7 -0.379324 1.8495 0
M  V30 28368 O 2663.06 -1.26295 1.31742 0
M  V30 28369 C 2663.11 1.67161 3.2053 0
M  V30 28370 O 2662.83 3.06455 3.13077 0
M  V30 28371 C 2664.33 1.57287 4.14458 0
M  V30 28372 H 2661.55 0.375384 0.556172 0
M  V30 28373 H 2664.1 1.61668 1.25235 0
M  V30 28374 H 2662.25 1.16596 3.69438 0
M  V30 28375 H 2662.66 3.35362 4.03277 0
M  V30 28376 H 2664.14 2.04087 5.12887 0
M  V30 28377 H 2664.62 0.528871 4.36004 0
M  V30 28378 H 2665.22 2.07143 3.71446 0
M  V30 28379 N 2663.54 -1.19233 1.03059 0
M  V30 28380 C 2664.78 -1.88586 0.726614 0
M  V30 28381 C 2665.11 -1.80117 -0.747196 0
M  V30 28382 O 2664.38 -1.21277 -1.53847 0
M  V30 28383 H 2662.96 -0.698119 0.26578 0
M  V30 28384 H 2665.62 -1.44744 1.30519 0
M  V30 28385 H 2664.71 -2.94877 1.02245 0
M  V30 28386 N 2665.01 -0.808686 -1.3527 0
M  V30 28387 C 2666.26 -0.390038 -1.98708 0
M  V30 28388 C 2666.59 1.04332 -1.6415 0
M  V30 28389 O 2665.84 1.73889 -0.897828 0
M  V30 28390 C 2666.14 -0.522861 -3.53555 0
M  V30 28391 C 2665.81 -1.91984 -4.07987 0
M  V30 28392 C 2664.47 -2.30202 -4.22564 0
M  V30 28393 C 2666.82 -2.83369 -4.37437 0
M  V30 28394 C 2664.15 -3.5917 -4.63912 0
M  V30 28395 C 2666.5 -4.11785 -4.80225 0
M  V30 28396 C 2665.17 -4.5 -4.93008 0
M  V30 28397 H 2664.44 -0.142725 -0.727125 0
M  V30 28398 H 2667.08 -1.02988 -1.61449 0
M  V30 28399 H 2665.39 0.200426 -3.91287 0
M  V30 28400 H 2667.09 -0.179678 -4.00597 0
M  V30 28401 H 2663.68 -1.61291 -3.97093 0
M  V30 28402 H 2667.86 -2.5509 -4.25726 0
M  V30 28403 H 2663.12 -3.88623 -4.71998 0
M  V30 28404 H 2667.29 -4.82696 -5.01974 0
M  V30 28405 H 2664.92 -5.49986 -5.24805 0
M  V30 28406 N 2666.49 1.47225 -0.562374 0
M  V30 28407 C 2667.72 2.07355 -0.0432997 0
M  V30 28408 C 2668.14 1.41151 1.2433 0
M  V30 28409 O 2667.5 0.488257 1.74602 0
M  V30 28410 C 2667.55 3.60365 0.130224 0
M  V30 28411 O 2666.65 3.9481 1.1916 0
M  V30 28412 H 2665.99 0.661829 -0.0536451 0
M  V30 28413 H 2668.52 1.89168 -0.779528 0
M  V30 28414 H 2668.53 4.06557 0.342809 0
M  V30 28415 H 2667.21 4.07947 -0.809461 0
M  V30 28416 H 2665.79 3.60355 0.95909 0
M  V30 28417 N 2667.97 0.299089 1.54736 0
M  V30 28418 C 2668.88 -0.587373 2.27128 0
M  V30 28419 C 2669.9 -1.15003 1.30577 0
M  V30 28420 O 2671.07 -1.17522 1.63556 0
M  V30 28421 C 2668.14 -1.7439 2.99648 0
M  V30 28422 C 2667.2 -1.21551 4.11733 0
M  V30 28423 C 2666.43 -2.31692 4.80786 0
M  V30 28424 O 2666.65 -3.51551 4.49186 0
M  V30 28425 O 2665.59 -1.98491 5.6823 0
M  V30 28426 H 2669.41 -0.000196726 3.037 0
M  V30 28427 H 2667 0.0656181 1.49256 0
M  V30 28428 H 2668.88 -2.41774 3.45142 0
M  V30 28429 H 2667.56 -2.31771 2.25973 0
M  V30 28430 H 2666.46 -0.507449 3.70642 0
M  V30 28431 H 2667.8 -0.687147 4.8738 0
M  V30 28432 N 2669.45 -1.57577 0.0267774 0
M  V30 28433 C 2670.86 -1.5616 -0.329593 0
M  V30 28434 C 2671.06 -1.03216 -1.73057 0
M  V30 28435 O 2670.12 -0.677847 -2.43231 0
M  V30 28436 C 2671.43 -3.00159 -0.180337 0
M  V30 28437 C 2672.98 -3.11974 -0.253279 0
M  V30 28438 C 2673.46 -4.57807 -0.13284 0
M  V30 28439 N 2674.95 -4.62811 -0.189898 0
M  V30 28440 C 2675.68 -5.73273 -0.120454 0
M  V30 28441 N 2675.18 -6.928 -5.85384e-05 0
M  V30 28442 N 2676.97 -5.6183 -0.174271 0
M  V30 28443 H 2669.12 -1.90322 0.94293 0
M  V30 28444 H 2671.39 -0.875368 0.363916 0
M  V30 28445 H 2671.09 -3.42836 0.784636 0
M  V30 28446 H 2670.97 -3.65002 -0.951501 0
M  V30 28447 H 2673.35 -2.6921 -1.20871 0
M  V30 28448 H 2673.43 -2.49856 0.54822 0
M  V30 28449 H 2673.08 -5.01251 0.819161 0
M  V30 28450 H 2673.01 -5.17902 -0.953173 0
M  V30 28451 H 2675.5 -3.76837 -0.283191 0
M  V30 28452 H 2675.81 -7.72786 0.0463024 0
M  V30 28453 H 2674.16 -6.94991 0.0346911 0
M  V30 28454 H 2677.35 -4.6734 -0.266712 0
M  V30 28455 H 2677.52 -6.47895 -0.116688 0
M  V30 28456 N 2670.93 0.246342 -1.55663 0
M  V30 28457 C 2672.17 0.974304 -1.77521 0
M  V30 28458 C 2672.5 1.85297 -0.591198 0
M  V30 28459 O 2671.76 1.91019 0.425463 0
M  V30 28460 C 2672.06 1.86489 -3.04888 0
M  V30 28461 C 2671.72 1.14153 -4.36211 0
M  V30 28462 C 2670.38 0.941618 -4.71897 0
M  V30 28463 C 2672.74 0.628867 -5.17392 0
M  V30 28464 C 2670.06 0.216749 -5.86299 0
M  V30 28465 C 2672.42 -0.0825385 -6.32546 0
M  V30 28466 C 2671.08 -0.293925 -6.66853 0
M  V30 28467 H 2670.35 0.356523 -0.649594 0
M  V30 28468 H 2673 0.24436 -1.89935 0
M  V30 28469 H 2671.3 2.66191 -2.87488 0
M  V30 28470 H 2673 2.42984 -3.18998 0
M  V30 28471 H 2669.59 1.30729 -4.08176 0
M  V30 28472 H 2673.77 0.770857 -4.90277 0
M  V30 28473 H 2669.03 0.0425049 -6.11385 0
M  V30 28474 H 2673.2 -0.487415 -6.94692 0
M  V30 28475 H 2670.83 -0.857561 -7.55348 0
M  V30 28476 N 2672.4 1.4905 0.512027 0
M  V30 28477 C 2673.65 1.57668 1.26433 0
M  V30 28478 C 2673.97 0.260326 1.93254 0
M  V30 28479 O 2673.24 -0.719532 1.82207 0
M  V30 28480 H 2671.82 0.580896 0.469648 0
M  V30 28481 H 2674.49 1.85616 0.594366 0
M  V30 28482 H 2673.58 2.36706 2.03413 0
M  V30 28483 N 2673.88 -0.762259 1.3794 0
M  V30 28484 C 2674.81 -1.88955 1.3718 0
M  V30 28485 C 2675.79 -1.68413 0.238974 0
M  V30 28486 O 2676.98 -1.89132 0.44076 0
M  V30 28487 C 2674.11 -3.26368 1.18748 0
M  V30 28488 C 2673.06 -3.61494 2.29142 0
M  V30 28489 C 2672.39 -4.97551 1.95824 0
M  V30 28490 C 2673.69 -3.67263 3.71369 0
M  V30 28491 H 2675.38 -1.89848 2.31512 0
M  V30 28492 H 2672.93 -0.911985 1.1144 0
M  V30 28493 H 2674.88 -4.04877 1.16844 0
M  V30 28494 H 2673.61 -3.25932 0.208741 0
M  V30 28495 H 2672.26 -2.85298 2.30218 0
M  V30 28496 H 2671.91 -4.93665 0.964561 0
M  V30 28497 H 2671.61 -5.22022 2.69754 0
M  V30 28498 H 2673.14 -5.78449 1.95524 0
M  V30 28499 H 2674.55 -4.35904 3.72372 0
M  V30 28500 H 2672.95 -4.03238 4.44432 0
M  V30 28501 H 2674.02 -2.67697 4.0431 0
M  V30 28502 N 2675.36 -1.22666 -0.989486 0
M  V30 28503 C 2676.31 -0.967042 -2.06476 0
M  V30 28504 C 2677.29 0.0836091 -1.60683 0
M  V30 28505 O 2678.49 -0.127353 -1.76541 0
M  V30 28506 C 2675.62 -0.550373 -3.3886 0
M  V30 28507 C 2674.7 -1.63594 -3.91277 0
M  V30 28508 N 2675.09 -2.86436 -4.16879 0
M  V30 28509 C 2673.39 -1.50841 -4.19718 0
M  V30 28510 C 2674.09 -3.56656 -4.59534 0
M  V30 28511 N 2673.07 -2.84139 -4.63429 0
M  V30 28512 H 2676.87 -1.90012 -2.24216 0
M  V30 28513 H 2674.38 -1.1247 -1.17151 0
M  V30 28514 H 2676.38 -0.345685 -4.15464 0
M  V30 28515 H 2675.04 0.375765 -3.22518 0
M  V30 28516 H 2676.05 -3.2283 -4.0497 0
M  V30 28517 H 2672.73 -0.648716 -4.12429 0
M  V30 28518 H 2674.12 -4.61918 -4.87936 0
M  V30 28519 N 2676.84 1.18685 -1.0369 0
M  V30 28520 C 2678.09 1.88571 -0.738063 0
M  V30 28521 C 2678.41 1.80121 0.733941 0
M  V30 28522 O 2677.67 1.19347 1.55096 0
M  V30 28523 C 2677.97 3.38568 -1.14483 0
M  V30 28524 C 2677.63 3.67221 -2.61647 0
M  V30 28525 C 2676.3 3.74751 -3.01852 0
M  V30 28526 C 2678.65 3.79907 -3.56819 0
M  V30 28527 C 2675.98 3.92443 -4.36125 0
M  V30 28528 C 2678.33 3.99114 -4.90806 0
M  V30 28529 C 2676.99 4.04879 -5.30688 0
M  V30 28530 H 2676.26 0.690029 -0.270076 0
M  V30 28531 H 2678.91 1.405 -1.30123 0
M  V30 28532 H 2677.21 3.88591 -0.500406 0
M  V30 28533 H 2678.91 3.90976 -0.891019 0
M  V30 28534 H 2675.5 3.61975 -2.29504 0
M  V30 28535 H 2679.69 3.73426 -3.26905 0
M  V30 28536 H 2674.94 3.95148 -4.66549 0
M  V30 28537 H 2679.12 4.07872 -5.64458 0
M  V30 28538 H 2676.74 4.1834 -6.34741 0
M  V30 28539 N 2678.32 0.815849 1.34839 0
M  V30 28540 C 2679.56 0.401164 1.98793 0
M  V30 28541 C 2679.9 -1.03136 1.6455 0
M  V30 28542 O 2679.17 -1.71712 0.913517 0
M  V30 28543 C 2679.45 0.595471 3.55142 0
M  V30 28544 C 2679.31 2.07359 3.99152 0
M  V30 28545 C 2680.63 0.0269596 4.40092 0
M  V30 28546 H 2677.75 0.147232 0.722144 0
M  V30 28547 H 2680.39 1.0271 1.59846 0
M  V30 28548 H 2678.54 0.0626462 3.88449 0
M  V30 28549 H 2680.21 2.66951 3.76211 0
M  V30 28550 H 2678.45 2.56665 3.49722 0
M  V30 28551 H 2679.12 2.16039 5.07968 0
M  V30 28552 H 2681.6 0.482114 4.13298 0
M  V30 28553 H 2680.48 0.192766 5.48561 0
M  V30 28554 H 2680.74 -1.06751 4.29018 0
M  V30 28555 N 2679.8 -1.46924 0.570174 0
M  V30 28556 C 2680.74 -2.31878 -0.183141 0
M  V30 28557 C 2681.74 -1.43721 -0.896695 0
M  V30 28558 O 2682.94 -1.60416 -0.816508 0
M  V30 28559 H 2679.32 -0.747951 -0.0779308 0
M  V30 28560 H 2681.29 -2.93243 0.552363 0
M  V30 28561 C 2680.04 -3.26642 -1.19166 0
M  V30 28562 H 2679.36 -3.94447 -0.652018 0
M  V30 28563 H 2680.8 -3.8889 -1.6894 0
M  V30 28564 C 2679.26 -2.5109 -2.24623 0
M  V30 28565 O 2679.79 -2.26478 -3.31769 0
M  V30 28566 N 2678 -2.11871 -1.98895 0
M  V30 28567 H 2677.54 -2.32087 -1.11773 0
M  V30 28568 H 2677.5 -1.61639 -2.69667 0
M  V30 28569 N 2681.27 -0.307291 -1.54575 0
M  V30 28570 C 2682.5 0.302122 -2.04379 0
M  V30 28571 C 2682.91 1.47587 -1.18383 0
M  V30 28572 O 2682.25 1.82569 -0.203552 0
M  V30 28573 C 2682.32 0.815243 -3.50134 0
M  V30 28574 C 2681.98 -0.234057 -4.564 0
M  V30 28575 C 2682.98 -1.06465 -5.08882 0
M  V30 28576 C 2680.66 -0.377566 -5.00879 0
M  V30 28577 C 2682.66 -2.02463 -6.0439 0
M  V30 28578 C 2680.34 -1.34099 -5.96205 0
M  V30 28579 C 2681.34 -2.163 -6.47845 0
M  V30 28580 O 2681.03 -3.11007 -7.41303 0
M  V30 28581 H 2680.76 0.0686721 -0.672503 0
M  V30 28582 H 2683.32 -0.446717 -2.00483 0
M  V30 28583 H 2681.55 1.61472 -3.51374 0
M  V30 28584 H 2683.23 1.34122 -3.831 0
M  V30 28585 H 2684 -0.96468 -4.75309 0
M  V30 28586 H 2679.88 0.252324 -4.60309 0
M  V30 28587 H 2683.42 -2.66663 -6.44621 0
M  V30 28588 H 2679.32 -1.44165 -6.29195 0
M  V30 28589 H 2680.09 -3.06058 -7.59125 0
M  V30 28590 N 2682.75 1.57561 -0.0351337 0
M  V30 28591 C 2683.98 1.9676 0.655767 0
M  V30 28592 C 2684.4 0.911837 1.64521 0
M  V30 28593 O 2683.76 -0.126642 1.80857 0
M  V30 28594 C 2683.81 3.35049 1.3332 0
M  V30 28595 O 2682.91 3.31839 2.4486 0
M  V30 28596 H 2682.25 0.641391 0.171795 0
M  V30 28597 H 2684.78 2.04361 -0.0987728 0
M  V30 28598 H 2684.79 3.71416 1.6886 0
M  V30 28599 H 2683.47 4.11432 0.607961 0
M  V30 28600 H 2682.04 3.07197 2.11387 0
M  V30 28601 N 2684.23 -0.238084 1.55791 0
M  V30 28602 C 2685.51 -0.988231 1.688 0
M  V30 28603 C 2685.89 -2.03044 0.577597 0
M  V30 28604 O 2685.23 -2.24649 -0.41774 0
M  V30 28605 C 2685.44 -1.61362 3.09457 0
M  V30 28606 C 2686.79 -2.11214 3.68339 0
M  V30 28607 O 2687.82 -1.71287 3.12313 0
M  V30 28608 O 2686.68 -2.84552 4.66575 0
M  V30 28609 H 2683.77 -0.460556 0.686889 0
M  V30 28610 H 2686.32 -0.231172 1.68118 0
M  V30 28611 H 2685.09 -0.860228 3.81727 0
M  V30 28612 H 2684.71 -2.43665 3.14186 0
M  V30 28613 N 2685.71 -1.4932 -0.504115 0
M  V30 28614 C 2687.12 -1.51887 -1.08569 0
M  V30 28615 C 2687.47 -0.303289 -1.93842 0
M  V30 28616 O 2686.59 0.587203 -2.08281 0
M  V30 28617 C 2687.19 -2.75231 -1.97569 0
M  V30 28618 C 2685.75 -2.80586 -2.50895 0
M  V30 28619 C 2684.9 -2.45759 -1.28443 0
M  V30 28620 H 2687.85 -1.56062 -0.288167 0
M  V30 28621 H 2687.87 -2.55216 -2.82215 0
M  V30 28622 H 2687.38 -3.63685 -1.35479 0
M  V30 28623 H 2685.48 -1.96404 -3.16633 0
M  V30 28624 H 2685.59 -3.82678 -2.88261 0
M  V30 28625 H 2683.96 -1.97471 -1.60864 0
M  V30 28626 H 2684.74 -3.36485 -0.680661 0
M  V30 28627 N 2687.19 0.754933 -1.38342 0
M  V30 28628 C 2688.41 1.54928 -1.37885 0
M  V30 28629 C 2688.84 1.88077 0.0296055 0
M  V30 28630 O 2688.19 1.50474 1.0113 0
M  V30 28631 C 2688.24 2.82588 -2.24001 0
M  V30 28632 O 2687.35 3.77683 -1.65619 0
M  V30 28633 H 2686.69 0.468644 -0.470392 0
M  V30 28634 H 2689.22 0.93305 -1.82086 0
M  V30 28635 H 2689.23 3.31526 -2.37812 0
M  V30 28636 H 2687.9 2.57791 -3.26369 0
M  V30 28637 H 2686.48 3.36381 -1.60942 0
M  V30 28638 N 2688.66 1.23189 0.982967 0
M  V30 28639 C 2689.59 1.03519 2.09299 0
M  V30 28640 C 2690.57 -0.0470837 1.70035 0
M  V30 28641 O 2691.76 0.117064 1.93847 0
M  V30 28642 C 2688.89 0.622851 3.41669 0
M  V30 28643 C 2687.84 1.65218 3.94825 0
M  V30 28644 C 2687.17 1.09536 5.2336 0
M  V30 28645 C 2688.47 3.04459 4.24385 0
M  V30 28646 H 2690.16 1.96363 2.26013 0
M  V30 28647 H 2687.71 0.94552 1.08609 0
M  V30 28648 H 2689.66 0.472307 4.18745 0
M  V30 28649 H 2688.39 -0.341272 3.24812 0
M  V30 28650 H 2687.05 1.79067 3.19891 0
M  V30 28651 H 2686.69 0.1223 5.02851 0
M  V30 28652 H 2686.39 1.7831 5.59892 0
M  V30 28653 H 2687.92 0.956617 6.0306 0
M  V30 28654 H 2689.33 2.93926 4.9222 0
M  V30 28655 H 2687.73 3.70447 4.72112 0
M  V30 28656 H 2688.8 3.53644 3.31759 0
M  V30 28657 N 2690.14 -1.18133 1.04318 0
M  V30 28658 C 2691.55 -1.6983 0.775535 0
M  V30 28659 C 2691.9 -1.83161 -0.703316 0
M  V30 28660 O 2691.03 -1.5129 -1.54726 0
M  V30 28661 C 2691.62 -3.08468 1.40118 0
M  V30 28662 C 2690.18 -3.57366 1.18179 0
M  V30 28663 C 2689.33 -2.33851 1.49026 0
M  V30 28664 H 2692.28 -1.02773 1.20927 0
M  V30 28665 H 2692.3 -3.71871 0.805737 0
M  V30 28666 H 2691.81 -2.98734 2.4775 0
M  V30 28667 H 2689.91 -3.72393 0.124324 0
M  V30 28668 H 2690.03 -4.40649 1.88058 0
M  V30 28669 H 2688.39 -2.37887 0.910037 0
M  V30 28670 H 2689.17 -2.26734 2.57772 0
M  V30 28671 N 2691.62 -0.822988 -1.34405 0
M  V30 28672 C 2693.04 -0.508753 -1.51274 0
M  V30 28673 C 2693.24 0.967052 -1.76778 0
M  V30 28674 O 2692.29 1.75152 -1.81874 0
M  V30 28675 C 2693.61 -1.36834 -2.67763 0
M  V30 28676 C 2695.15 -1.36547 -2.81645 0
M  V30 28677 C 2695.63 -2.20954 -4.01177 0
M  V30 28678 N 2697.12 -2.18578 -4.08385 0
M  V30 28679 C 2697.85 -2.80636 -5.00031 0
M  V30 28680 N 2697.35 -3.51684 -5.969 0
M  V30 28681 N 2699.14 -2.7019 -4.92904 0
M  V30 28682 H 2691.29 -1.77854 -1.1611 0
M  V30 28683 H 2693.56 -0.757907 -0.569457 0
M  V30 28684 H 2693.26 -2.41637 -2.55547 0
M  V30 28685 H 2693.14 -1.03309 -3.62777 0
M  V30 28686 H 2695.52 -0.325214 -2.93303 0
M  V30 28687 H 2695.61 -1.74069 -1.8744 0
M  V30 28688 H 2695.25 -3.25029 -3.9028 0
M  V30 28689 H 2695.18 -1.80782 -4.94596 0
M  V30 28690 H 2697.67 -1.66897 -3.39048 0
M  V30 28691 H 2697.98 -3.96283 -6.63461 0
M  V30 28692 H 2696.33 -3.55791 -5.97024 0
M  V30 28693 H 2699.52 -2.14259 -4.16186 0
M  V30 28694 H 2699.69 -3.18841 -5.64132 0
M  V30 28695 N 2693.1 1.4662 -0.577957 0
M  V30 28696 C 2694.35 2.01612 -0.0594635 0
M  V30 28697 C 2694.66 1.45558 1.3066 0
M  V30 28698 O 2695.87 1.92341 1.91618 0
M  V30 28699 C 2694.32 3.59857 -0.0557298 0
M  V30 28700 C 2693.93 4.24906 -1.41982 0
M  V30 28701 C 2695.67 4.22524 0.409069 0
M  V30 28702 C 2693.58 5.75216 -1.37407 0
M  V30 28703 H 2692.51 0.753774 -0.0184602 0
M  V30 28704 H 2695.16 1.68402 -0.728898 0
M  V30 28705 H 2693.54 3.90122 0.679774 0
M  V30 28706 H 2694.72 4.06256 -2.17468 0
M  V30 28707 H 2693.03 3.74313 -1.82425 0
M  V30 28708 H 2695.63 5.327 0.462017 0
M  V30 28709 H 2695.97 3.9113 1.42559 0
M  V30 28710 H 2696.51 3.96867 -0.272222 0
M  V30 28711 H 2693.25 6.11262 -2.36724 0
M  V30 28712 H 2692.77 5.96143 -0.661344 0
M  V30 28713 H 2694.44 6.37838 -1.08495 0
M  V30 28714 N 2694.58 0.315484 1.5441 0
M  V30 28715 C 2695.99 -0.174233 1.85885 0
M  V30 28716 C 2696.34 -1.52271 1.23726 0
M  V30 28717 O 2695.46 -2.09547 0.540283 0
M  V30 28718 C 2696.06 -0.322922 3.37258 0
M  V30 28719 C 2694.62 -0.756857 3.68712 0
M  V30 28720 C 2693.76 0.126244 2.77012 0
M  V30 28721 H 2696.72 0.536034 1.49373 0
M  V30 28722 H 2696.74 -1.15516 3.62541 0
M  V30 28723 H 2696.25 0.658669 3.8247 0
M  V30 28724 H 2694.35 -1.74848 3.29027 0
M  V30 28725 H 2694.46 -0.566207 4.75742 0
M  V30 28726 H 2692.83 -0.396875 2.51589 0
M  V30 28727 H 2693.61 1.10445 3.25049 0
M  V30 28728 N 2696.05 -1.5754 0.0434891 0
M  V30 28729 C 2697 -2.11078 -0.933522 0
M  V30 28730 C 2697.97 -1.01628 -1.31381 0
M  V30 28731 O 2699.16 -1.29132 -1.40462 0
M  V30 28732 C 2696.3 -2.65408 -2.20573 0
M  V30 28733 C 2695.41 -3.88918 -1.88061 0
M  V30 28734 C 2694.54 -4.3159 -3.09683 0
M  V30 28735 C 2693.58 -5.47819 -2.73057 0
M  V30 28736 N 2692.72 -5.85581 -3.87349 0
M  V30 28737 H 2697.56 -2.94269 -0.470066 0
M  V30 28738 H 2695.1 -1.45439 -0.220408 0
M  V30 28739 H 2697.06 -2.95004 -2.95006 0
M  V30 28740 H 2695.69 -1.85026 -2.64509 0
M  V30 28741 H 2694.74 -3.65961 -1.0381 0
M  V30 28742 H 2696.05 -4.73416 -1.57096 0
M  V30 28743 H 2695.2 -4.62697 -3.92423 0
M  V30 28744 H 2693.94 -3.45888 -3.43821 0
M  V30 28745 H 2692.95 -5.16391 -1.88733 0
M  V30 28746 H 2694.17 -6.35232 -2.4012 0
M  V30 28747 H 2692.12 -5.02833 -4.21302 0
M  V30 28748 H 2692.04 -6.64752 -3.60056 0
M  V30 28749 H 2693.3 -6.213 -4.70751 0
M  V30 28750 N 2697.53 0.229818 -1.55915 0
M  V30 28751 C 2698.5 1.26821 -1.90916 0
M  V30 28752 C 2699.5 1.40223 -0.787024 0
M  V30 28753 O 2700.69 1.3863 -1.05486 0
M  V30 28754 C 2697.82 2.64333 -2.15269 0
M  V30 28755 H 2699.01 0.969948 -2.83782 0
M  V30 28756 H 2696.56 0.469873 -1.4907 0
M  V30 28757 H 2697.3 2.99272 -1.24928 0
M  V30 28758 H 2697.08 2.55984 -2.9701 0
M  V30 28759 H 2698.57 3.3928 -2.43473 0
M  V30 28760 N 2699.01 1.49585 0.49619 0
M  V30 28761 C 2700.24 1.63297 1.27862 0
M  V30 28762 C 2700.66 0.306188 1.85591 0
M  V30 28763 O 2700.02 -0.726822 1.66093 0
M  V30 28764 C 2700.07 2.70794 2.38123 0
M  V30 28765 O 2699.17 2.30302 3.42104 0
M  V30 28766 H 2698.51 0.54641 0.37727 0
M  V30 28767 H 2701.04 1.95804 0.593462 0
M  V30 28768 H 2701.05 2.93109 2.83815 0
M  V30 28769 H 2699.73 3.67101 1.95472 0
M  V30 28770 H 2698.3 2.18336 3.02297 0
M  V30 28771 N 2700.49 -0.747586 1.3874 0
M  V30 28772 C 2701.45 -1.8431 1.36245 0
M  V30 28773 C 2702.45 -1.58654 0.261839 0
M  V30 28774 O 2703.64 -1.66287 0.51906 0
M  V30 28775 C 2700.77 -3.21886 1.12259 0
M  V30 28776 H 2701.97 -1.87929 2.33715 0
M  V30 28777 H 2699.52 -0.949924 1.24121 0
M  V30 28778 H 2700.25 -3.23933 0.15419 0
M  V30 28779 H 2700.04 -3.41903 1.91949 0
M  V30 28780 H 2701.53 -4.01958 1.13223 0
M  V30 28781 N 2701.97 -1.23709 -0.97642 0
M  V30 28782 C 2702.91 -1.02178 -2.0695 0
M  V30 28783 C 2703.88 0.0620742 -1.65984 0
M  V30 28784 O 2705.07 -0.0908241 -1.90584 0
M  V30 28785 C 2702.21 -0.62333 -3.39424 0
M  V30 28786 C 2701.32 -1.77973 -3.93636 0
M  V30 28787 C 2700.46 -1.32769 -5.1434 0
M  V30 28788 C 2699.5 -2.45459 -5.60729 0
M  V30 28789 N 2698.63 -2.01184 -6.72658 0
M  V30 28790 H 2703.47 -1.95738 -2.24701 0
M  V30 28791 H 2701.01 -0.975053 -1.10141 0
M  V30 28792 H 2702.97 -0.373393 -4.15526 0
M  V30 28793 H 2701.6 0.275273 -3.21624 0
M  V30 28794 H 2700.65 -2.14356 -3.14254 0
M  V30 28795 H 2701.96 -2.62678 -4.2403 0
M  V30 28796 H 2701.12 -1.03611 -5.97787 0
M  V30 28797 H 2699.85 -0.451061 -4.8561 0
M  V30 28798 H 2698.86 -2.75386 -4.7586 0
M  V30 28799 H 2700.08 -3.33664 -5.91477 0
M  V30 28800 H 2698.03 -1.15907 -6.45679 0
M  V30 28801 H 2697.95 -2.79447 -7.02457 0
M  V30 28802 H 2699.22 -1.75142 -7.59569 0
M  V30 28803 N 2703.44 1.17579 -1.04943 0
M  V30 28804 C 2704.69 1.87777 -0.758022 0
M  V30 28805 C 2705.02 1.80889 0.714796 0
M  V30 28806 O 2704.27 1.20985 1.53822 0
M  V30 28807 C 2704.57 3.37335 -1.18068 0
M  V30 28808 C 2704.24 3.64426 -2.65527 0
M  V30 28809 C 2702.9 3.71529 -3.0581 0
M  V30 28810 C 2705.25 3.76101 -3.60828 0
M  V30 28811 C 2702.58 3.87795 -4.40263 0
M  V30 28812 C 2704.93 3.93886 -4.95012 0
M  V30 28813 C 2703.6 3.99228 -5.34952 0
M  V30 28814 H 2702.87 0.687125 -0.27738 0
M  V30 28815 H 2705.51 1.39112 -1.31606 0
M  V30 28816 H 2703.82 3.88039 -0.541593 0
M  V30 28817 H 2705.52 3.90008 -0.932437 0
M  V30 28818 H 2702.11 3.5952 -2.33331 0
M  V30 28819 H 2706.29 3.69937 -3.30848 0
M  V30 28820 H 2701.55 3.90178 -4.70714 0
M  V30 28821 H 2705.72 4.01862 -5.68753 0
M  V30 28822 H 2703.35 4.11584 -6.39142 0
M  V30 28823 N 2704.92 0.830104 1.33967 0
M  V30 28824 C 2706.15 0.434178 2.01986 0
M  V30 28825 C 2706.56 -0.966682 1.6264 0
M  V30 28826 O 2705.9 -1.6382 0.83118 0
M  V30 28827 C 2705.97 0.465081 3.56479 0
M  V30 28828 C 2705.63 1.82052 4.19173 0
M  V30 28829 C 2706.63 2.78245 4.39176 0
M  V30 28830 C 2704.31 2.11097 4.55789 0
M  V30 28831 C 2706.31 4.01651 4.9493 0
M  V30 28832 C 2703.99 3.34761 5.11252 0
M  V30 28833 C 2704.99 4.29854 5.30767 0
M  V30 28834 O 2704.68 5.51332 5.85054 0
M  V30 28835 H 2704.41 0.171651 0.653844 0
M  V30 28836 H 2706.96 1.12174 1.72064 0
M  V30 28837 H 2705.19 -0.279216 3.85691 0
M  V30 28838 H 2706.88 0.0882048 4.05804 0
M  V30 28839 H 2707.65 2.57104 4.11245 0
M  V30 28840 H 2703.53 1.37878 4.39899 0
M  V30 28841 H 2707.07 4.75885 5.10078 0
M  V30 28842 H 2702.97 3.55762 5.38613 0
M  V30 28843 H 2703.74 5.52951 6.0348 0
M  V30 28844 N 2706.4 -1.46311 0.585725 0
M  V30 28845 C 2707.36 -2.28798 -0.135633 0
M  V30 28846 C 2708.36 -1.38559 -0.815964 0
M  V30 28847 O 2709.55 -1.60906 -0.667459 0
M  V30 28848 C 2706.69 -3.19022 -1.20158 0
M  V30 28849 H 2707.88 -2.94053 0.589308 0
M  V30 28850 H 2705.43 -1.52472 0.343821 0
M  V30 28851 H 2706.17 -2.58521 -1.958 0
M  V30 28852 H 2705.95 -3.85466 -0.718214 0
M  V30 28853 H 2707.44 -3.81099 -1.70743 0
M  V30 28854 N 2707.88 -0.323668 -1.54241 0
M  V30 28855 C 2709.1 0.283568 -2.05452 0
M  V30 28856 C 2709.53 1.44995 -1.19826 0
M  V30 28857 O 2708.89 1.8011 -0.20739 0
M  V30 28858 C 2708.94 0.695732 -3.53825 0
M  V30 28859 O 2708.04 1.79809 -3.71137 0
M  V30 28860 H 2707.38 0.0511801 -0.662025 0
M  V30 28861 H 2709.91 -0.472108 -1.99079 0
M  V30 28862 H 2709.92 0.978365 -3.96096 0
M  V30 28863 H 2708.6 -0.15736 -4.15602 0
M  V30 28864 H 2707.17 1.51425 -3.40771 0
M  V30 28865 N 2709.36 1.57515 -0.0518432 0
M  V30 28866 C 2710.6 1.93003 0.622711 0
M  V30 28867 C 2710.94 0.930529 1.70455 0
M  V30 28868 O 2710.21 -0.0433744 1.94452 0
M  V30 28869 C 2710.49 3.38869 1.21818 0
M  V30 28870 C 2710.35 4.49568 0.144355 0
M  V30 28871 C 2711.67 3.85143 2.12962 0
M  V30 28872 H 2708.79 0.701848 0.224897 0
M  V30 28873 H 2711.43 1.89659 -0.113745 0
M  V30 28874 H 2709.58 3.4185 1.84584 0
M  V30 28875 H 2711.25 4.58716 -0.48761 0
M  V30 28876 H 2709.49 4.30581 -0.527499 0
M  V30 28877 H 2710.16 5.48718 0.601031 0
M  V30 28878 H 2712.64 3.84043 1.60157 0
M  V30 28879 H 2711.52 4.87857 2.51569 0
M  V30 28880 H 2711.78 3.21939 3.02998 0
M  V30 28881 N 2710.84 -0.221546 1.56035 0
M  V30 28882 C 2712.08 -0.94734 1.79313 0
M  V30 28883 C 2712.41 -1.83987 0.621485 0
M  V30 28884 O 2711.69 -1.90767 -0.379253 0
M  V30 28885 C 2711.97 -1.78627 3.12673 0
M  V30 28886 C 2711.83 -0.920235 4.40286 0
M  V30 28887 C 2713.14 -2.76404 3.42475 0
M  V30 28888 H 2710.26 -0.342971 0.652334 0
M  V30 28889 H 2712.91 -0.216211 1.88766 0
M  V30 28890 H 2711.06 -2.40961 3.04746 0
M  V30 28891 H 2712.73 -0.313637 4.60233 0
M  V30 28892 H 2710.97 -0.225658 4.33213 0
M  V30 28893 H 2711.64 -1.54162 5.30036 0
M  V30 28894 H 2714.12 -2.24205 3.5053 0
M  V30 28895 H 2712.99 -3.32205 4.36956 0
M  V30 28896 H 2713.25 -3.54143 2.64642 0
M  V30 28897 N 2712.31 -1.49846 -0.48825 0
M  V30 28898 C 2713.73 -1.36891 -0.820542 0
M  V30 28899 C 2713.93 -0.411786 -1.97247 0
M  V30 28900 O 2712.99 0.151887 -2.52043 0
M  V30 28901 C 2714.3 -2.77893 -1.14875 0
M  V30 28902 C 2715.85 -2.86685 -1.25621 0
M  V30 28903 C 2716.32 -4.28481 -1.61764 0
M  V30 28904 N 2717.81 -4.31352 -1.68789 0
M  V30 28905 C 2718.55 -5.38047 -1.98225 0
M  V30 28906 N 2718.04 -6.54971 -2.25798 0
M  V30 28907 N 2719.84 -5.25474 -1.99583 0
M  V30 28908 H 2711.99 -2.10662 0.27116 0
M  V30 28909 H 2714.25 -0.946178 0.0587516 0
M  V30 28910 H 2713.96 -3.49689 -0.375552 0
M  V30 28911 H 2713.83 -3.14062 -2.08914 0
M  V30 28912 H 2716.22 -2.15118 -2.02011 0
M  V30 28913 H 2716.3 -2.54081 -0.296027 0
M  V30 28914 H 2715.94 -5.0058 -0.859207 0
M  V30 28915 H 2715.87 -4.58559 -2.58904 0
M  V30 28916 H 2718.36 -3.47032 -1.49589 0
M  V30 28917 H 2718.68 -7.32101 -2.47484 0
M  V30 28918 H 2717.02 -6.58175 -2.23227 0
M  V30 28919 H 2720.21 -4.3313 -1.77527 0
M  V30 28920 H 2720.39 -6.08717 -2.22189 0
M  V30 28921 N 2713.79 0.740218 -1.39135 0
M  V30 28922 C 2715.03 1.51237 -1.37502 0
M  V30 28923 C 2715.4 1.91975 0.0309747 0
M  V30 28924 O 2716.6 2.68247 0.172272 0
M  V30 28925 C 2714.87 2.72231 -2.31571 0
M  V30 28926 S 2716.43 3.61942 -2.48079 0
M  V30 28927 H 2713.24 0.517379 -0.487689 0
M  V30 28928 H 2715.85 0.867795 -1.75184 0
M  V30 28929 H 2714.55 2.40433 -3.32596 0
M  V30 28930 H 2714.08 3.41621 -1.95086 0
M  V30 28931 H 2716.1 4.65627 -1.71481 0
M  V30 28932 N 2715.27 1.24225 0.969846 0
M  V30 28933 C 2716.22 1.03038 2.08533 0
M  V30 28934 C 2717.21 -0.0340082 1.69366 0
M  V30 28935 O 2718.42 0.120371 1.79597 0
M  V30 28936 H 2714.79 0.316166 0.682307 0
M  V30 28937 H 2716.76 1.97639 2.23565 0
M  V30 28938 C 2715.51 0.649569 3.41579 0
M  V30 28939 H 2714.84 1.46035 3.72174 0
M  V30 28940 H 2716.28 0.540915 4.20535 0
M  V30 28941 C 2714.73 -0.643136 3.30704 0
M  V30 28942 O 2715.26 -1.68944 3.64446 0
M  V30 28943 N 2713.47 -0.623045 2.83842 0
M  V30 28944 H 2713.02 0.228764 2.56582 0
M  V30 28945 H 2712.98 -1.48818 2.76949 0
M  V30 28946 N 2716.75 -1.1702 1.05565 0
M  V30 28947 C 2718 -1.87002 0.766452 0
M  V30 28948 C 2718.32 -1.81661 -0.708822 0
M  V30 28949 O 2717.59 -1.24513 -1.5124 0
M  V30 28950 H 2716.17 -0.692324 0.280528 0
M  V30 28951 H 2718.83 -1.41943 1.3356 0
M  V30 28952 H 2717.92 -2.92642 1.08477 0
M  V30 28953 N 2718.23 -0.837197 -1.33524 0
M  V30 28954 C 2719.47 -0.432099 -1.97836 0
M  V30 28955 C 2719.8 1.00826 -1.66326 0
M  V30 28956 O 2719.06 1.71946 -0.93451 0
M  V30 28957 C 2719.35 -0.597737 -3.52366 0
M  V30 28958 C 2719.02 -2.00595 -4.03823 0
M  V30 28959 C 2717.68 -2.39114 -4.17586 0
M  V30 28960 C 2720.03 -2.92584 -4.31328 0
M  V30 28961 C 2717.36 -3.68929 -4.56189 0
M  V30 28962 C 2719.71 -4.21879 -4.71382 0
M  V30 28963 C 2718.38 -4.60356 -4.83352 0
M  V30 28964 H 2717.65 -0.158116 -0.723934 0
M  V30 28965 H 2720.3 -1.0639 -1.59228 0
M  V30 28966 H 2718.6 0.117383 -3.91624 0
M  V30 28967 H 2720.3 -0.264611 -4.00126 0
M  V30 28968 H 2716.89 -1.69678 -3.93583 0
M  V30 28969 H 2721.07 -2.64063 -4.20219 0
M  V30 28970 H 2716.33 -3.98548 -4.63648 0
M  V30 28971 H 2720.5 -4.93235 -4.91622 0
M  V30 28972 H 2718.13 -5.60994 -5.13021 0
M  V30 28973 N 2719.7 1.45999 -0.593476 0
M  V30 28974 C 2721.11 1.85926 -0.169834 0
M  V30 28975 C 2721.47 1.49567 1.26981 0
M  V30 28976 O 2720.59 0.915636 1.96074 0
M  V30 28977 C 2721.19 3.37456 -0.301444 0
M  V30 28978 C 2719.74 3.7634 0.0674022 0
M  V30 28979 C 2718.89 2.69992 -0.63243 0
M  V30 28980 H 2721.84 1.37 -0.801038 0
M  V30 28981 H 2721.86 3.77583 0.470265 0
M  V30 28982 H 2721.38 3.63888 -1.34933 0
M  V30 28983 H 2719.48 3.55525 1.11501 0
M  V30 28984 H 2719.59 4.78054 -0.316416 0
M  V30 28985 H 2717.95 2.546 -0.0715408 0
M  V30 28986 H 2718.74 2.99262 -1.68218 0
M  V30 28987 N 2721.18 0.331843 1.54067 0
M  V30 28988 C 2722.46 -0.322921 1.92916 0
M  V30 28989 C 2722.84 -1.69203 1.26228 0
M  V30 28990 O 2722.19 -2.24811 0.408958 0
M  V30 28991 C 2722.4 -0.406885 3.4662 0
M  V30 28992 C 2723.75 -0.663265 4.19388 0
M  V30 28993 O 2724.77 -0.489474 3.52821 0
M  V30 28994 O 2723.63 -0.999099 5.3729 0
M  V30 28995 H 2720.72 -0.186001 0.805812 0
M  V30 28996 H 2723.27 0.382164 1.65341 0
M  V30 28997 H 2722.04 0.554355 3.87353 0
M  V30 28998 H 2721.66 -1.15922 3.80326 0
M  V30 28999 N 2722.66 -1.57485 0.0601958 0
M  V30 29000 C 2724.07 -1.80578 -0.474185 0
M  V30 29001 C 2724.42 -0.973177 -1.70363 0
M  V30 29002 O 2723.55 -0.192344 -2.15543 0
M  V30 29003 C 2724.14 -3.27518 -0.867044 0
M  V30 29004 C 2722.7 -3.51497 -1.34635 0
M  V30 29005 C 2721.85 -2.75378 -0.325892 0
M  V30 29006 H 2724.8 -1.56102 0.286001 0
M  V30 29007 H 2724.82 -3.38932 -1.72932 0
M  V30 29008 H 2724.33 -3.8809 0.0279609 0
M  V30 29009 H 2722.43 -2.96216 -2.26025 0
M  V30 29010 H 2722.55 -4.60203 -1.33228 0
M  V30 29011 H 2720.91 -2.41787 -0.800706 0
M  V30 29012 H 2721.69 -3.38682 0.561185 0
M  V30 29013 N 2724.14 0.213268 -1.5615 0
M  V30 29014 C 2725.1 1.24789 -1.92251 0
M  V30 29015 C 2726.1 1.39381 -0.801852 0
M  V30 29016 O 2727.29 1.37504 -1.0695 0
M  V30 29017 C 2724.42 2.62035 -2.1806 0
M  V30 29018 H 2725.62 0.939795 -2.84794 0
M  V30 29019 H 2723.17 0.454036 -1.4956 0
M  V30 29020 H 2723.9 2.9793 -1.28095 0
M  V30 29021 H 2723.69 2.52819 -2.99708 0
M  V30 29022 H 2725.18 3.36679 -2.47057 0
M  V30 29023 N 2725.62 1.50103 0.480296 0
M  V30 29024 C 2726.84 1.64373 1.25654 0
M  V30 29025 C 2727.26 0.323349 1.8601 0
M  V30 29026 O 2726.62 -0.693652 1.68804 0
M  V30 29027 C 2726.67 2.72804 2.37192 0
M  V30 29028 O 2726.39 3.99723 1.79313 0
M  V30 29029 C 2727.89 2.97966 3.28225 0
M  V30 29030 H 2725.11 0.552782 0.380359 0
M  V30 29031 H 2727.65 1.96269 0.574344 0
M  V30 29032 H 2725.81 2.43629 3.01204 0
M  V30 29033 H 2726.22 4.59616 2.52693 0
M  V30 29034 H 2727.7 3.7752 4.02719 0
M  V30 29035 H 2728.17 2.08678 3.86459 0
M  V30 29036 H 2728.78 3.28637 2.69958 0
M  V30 29037 N 2727.09 -0.732829 1.39526 0
M  V30 29038 C 2728.34 -1.48948 1.36597 0
M  V30 29039 C 2728.66 -1.94965 -0.0367165 0
M  V30 29040 O 2727.93 -1.6914 -0.988362 0
M  V30 29041 H 2726.51 -0.552557 0.502683 0
M  V30 29042 H 2729.18 -0.869839 1.74413 0
M  V30 29043 H 2728.27 -2.37057 2.03004 0
M  V30 29044 N 2728.57 -1.24737 -0.963244 0
M  V30 29045 C 2729.98 -1.0821 -1.52143 0
M  V30 29046 C 2730.33 0.345027 -1.93142 0
M  V30 29047 O 2729.46 1.23396 -1.77771 0
M  V30 29048 C 2730.05 -1.95813 -2.76483 0
M  V30 29049 C 2728.61 -1.83496 -3.28643 0
M  V30 29050 C 2727.76 -1.9048 -2.01526 0
M  V30 29051 H 2730.71 -1.38149 -0.781059 0
M  V30 29052 H 2730.73 -1.49304 -3.49984 0
M  V30 29053 H 2730.24 -2.99674 -2.46612 0
M  V30 29054 H 2728.35 -0.824851 -3.63355 0
M  V30 29055 H 2728.46 -2.67836 -3.97242 0
M  V30 29056 H 2726.82 -1.34261 -2.16439 0
M  V30 29057 H 2727.61 -2.95929 -1.74014 0
M  V30 29058 N 2730.05 1.16459 -1.06184 0
M  V30 29059 C 2731 2.18785 -0.641657 0
M  V30 29060 C 2731.98 1.5754 0.327094 0
M  V30 29061 O 2733.18 1.76424 0.142715 0
M  V30 29062 C 2730.31 3.43288 -0.0284338 0
M  V30 29063 C 2729.39 4.11611 -1.02161 0
M  V30 29064 N 2729.78 4.55604 -2.19679 0
M  V30 29065 C 2728.08 4.3778 -0.852306 0
M  V30 29066 C 2728.78 5.08445 -2.82592 0
M  V30 29067 N 2727.76 5.01262 -2.10326 0
M  V30 29068 H 2731.56 2.50514 -1.53689 0
M  V30 29069 H 2729.07 1.32898 -0.933373 0
M  V30 29070 H 2731.07 4.15887 0.290417 0
M  V30 29071 H 2729.73 3.13047 0.862063 0
M  V30 29072 H 2730.74 4.49371 -2.57461 0
M  V30 29073 H 2727.42 4.17498 -0.0137048 0
M  V30 29074 H 2728.81 5.52531 -3.82307 0
M  V30 29075 N 2731.53 0.844266 1.33079 0
M  V30 29076 C 2732.49 0.286525 2.27402 0
M  V30 29077 C 2733.49 -0.547845 1.5118 0
M  V30 29078 O 2734.68 -0.360856 1.70421 0
M  V30 29079 C 2731.81 -0.595754 3.35654 0
M  V30 29080 H 2733.01 1.1189 2.78246 0
M  V30 29081 H 2730.56 0.617774 1.43573 0
M  V30 29082 H 2731.29 -1.45035 2.90061 0
M  V30 29083 H 2731.08 0.00132887 3.921 0
M  V30 29084 H 2732.57 -0.979097 4.0596 0
M  V30 29085 N 2733.01 -1.45682 0.60121 0
M  V30 29086 C 2734.25 -2.0417 0.0968396 0
M  V30 29087 C 2734.61 -1.4603 -1.24657 0
M  V30 29088 O 2735.81 -1.95832 -1.84128 0
M  V30 29089 C 2734.08 -3.57363 0.0514468 0
M  V30 29090 S 2735.64 -4.3704 -0.39266 0
M  V30 29091 H 2732.46 -0.70948 0.0464629 0
M  V30 29092 H 2735.06 -1.78477 0.797877 0
M  V30 29093 H 2733.77 -3.97192 1.03281 0
M  V30 29094 H 2733.3 -3.87622 -0.671785 0
M  V30 29095 H 2735.31 -4.6819 -1.64355 0
M  V30 29096 N 2734.48 -0.340009 -1.53889 0
M  V30 29097 C 2735.41 0.510816 -2.27844 0
M  V30 29098 C 2736.4 1.1056 -1.29269 0
M  V30 29099 O 2737.58 1.12766 -1.58106 0
M  V30 29100 C 2734.71 1.66367 -3.0486 0
M  V30 29101 C 2733.66 1.19739 -4.10909 0
M  V30 29102 C 2732.99 2.43848 -4.75859 0
M  V30 29103 C 2734.29 0.30041 -5.21435 0
M  V30 29104 H 2735.98 -0.10612 -2.99212 0
M  V30 29105 H 2733.53 -0.0524786 -1.43904 0
M  V30 29106 H 2735.48 2.26531 -3.55333 0
M  V30 29107 H 2734.21 2.30745 -2.31137 0
M  V30 29108 H 2732.87 0.618591 -3.61343 0
M  V30 29109 H 2732.51 3.06626 -3.98735 0
M  V30 29110 H 2732.21 2.13333 -5.47506 0
M  V30 29111 H 2733.74 3.04744 -5.29115 0
M  V30 29112 H 2735.15 0.80879 -5.67566 0
M  V30 29113 H 2733.55 0.0873021 -6.00036 0
M  V30 29114 H 2734.62 -0.664406 -4.80327 0
M  V30 29115 N 2735.96 1.57451 -0.0685468 0
M  V30 29116 C 2736.91 2.09059 0.909858 0
M  V30 29117 C 2737.9 0.99955 1.26087 0
M  V30 29118 O 2739.09 1.26268 1.24038 0
M  V30 29119 C 2736.22 2.65316 2.17859 0
M  V30 29120 C 2735.3 3.81419 1.8542 0
M  V30 29121 N 2735.7 4.90512 1.23417 0
M  V30 29122 C 2733.99 3.90653 2.15189 0
M  V30 29123 C 2734.69 5.71397 1.08998 0
M  V30 29124 N 2733.67 5.19563 1.59862 0
M  V30 29125 H 2737.47 2.90795 0.426094 0
M  V30 29126 H 2734.99 1.61834 0.135434 0
M  V30 29127 H 2736.98 3.00602 2.88867 0
M  V30 29128 H 2735.64 1.85025 2.66825 0
M  V30 29129 H 2736.65 5.09945 0.904216 0
M  V30 29130 H 2733.33 3.21332 2.66556 0
M  V30 29131 H 2734.72 6.69151 0.607187 0
M  V30 29132 N 2737.44 -0.204984 1.56261 0
M  V30 29133 C 2738.37 -1.27791 1.90268 0
M  V30 29134 C 2739.39 -1.42213 0.792422 0
M  V30 29135 O 2740.58 -1.42815 1.0708 0
M  V30 29136 C 2737.68 -2.6514 2.11079 0
M  V30 29137 C 2736.85 -2.72454 3.42181 0
M  V30 29138 C 2735.91 -3.90929 3.52223 0
M  V30 29139 O 2734.93 -3.78493 4.25125 0
M  V30 29140 N 2736.14 -5.05958 2.84582 0
M  V30 29141 H 2738.9 -0.989384 2.82898 0
M  V30 29142 H 2736.46 -0.394953 1.57009 0
M  V30 29143 H 2738.45 -3.42807 2.15095 0
M  V30 29144 H 2737.02 -2.86522 1.24995 0
M  V30 29145 H 2736.24 -1.81136 3.50119 0
M  V30 29146 H 2737.53 -2.74323 4.28514 0
M  V30 29147 H 2736.93 -5.18959 2.25161 0
M  V30 29148 H 2735.49 -5.81607 2.94238 0
M  V30 29149 N 2738.92 -1.50356 -0.472329 0
M  V30 29150 C 2740.33 -1.54156 -1.05323 0
M  V30 29151 C 2740.68 -0.344337 -1.93155 0
M  V30 29152 O 2739.81 0.542892 -2.09479 0
M  V30 29153 C 2740.4 -2.7936 -1.91686 0
M  V30 29154 C 2738.96 -2.85845 -2.44887 0
M  V30 29155 C 2738.11 -2.48429 -1.23201 0
M  V30 29156 H 2741.06 -1.56638 -0.254999 0
M  V30 29157 H 2741.08 -2.61145 -2.76738 0
M  V30 29158 H 2740.59 -3.66477 -1.27734 0
M  V30 29159 H 2738.69 -2.03076 -3.12396 0
M  V30 29160 H 2738.81 -3.88706 -2.80079 0
M  V30 29161 H 2737.17 -2.00839 -1.56639 0
M  V30 29162 H 2737.95 -3.37853 -0.609134 0
M  V30 29163 N 2740.4 0.725419 -1.39912 0
M  V30 29164 C 2741.67 1.47764 -1.28161 0
M  V30 29165 C 2742.05 2.10841 0.104508 0
M  V30 29166 O 2741.4 1.99363 1.11654 0
M  V30 29167 C 2741.61 2.52131 -2.41311 0
M  V30 29168 C 2742.96 3.18242 -2.81082 0
M  V30 29169 O 2743.98 2.62448 -2.40831 0
M  V30 29170 O 2742.84 4.19225 -3.50589 0
M  V30 29171 H 2739.94 0.656619 -0.502773 0
M  V30 29172 H 2742.48 0.758429 -1.51809 0
M  V30 29173 H 2741.26 2.03968 -3.33935 0
M  V30 29174 H 2740.88 3.316 -2.1938 0
M  V30 29175 N 2741.88 1.25246 0.956615 0
M  V30 29176 C 2742.84 1.05541 2.03455 0
M  V30 29177 C 2743.84 0.00889143 1.60798 0
M  V30 29178 O 2745.03 0.250895 1.72384 0
M  V30 29179 C 2742.16 0.602024 3.35542 0
M  V30 29180 H 2743.35 2.01227 2.22369 0
M  V30 29181 H 2740.91 1.07625 1.13343 0
M  V30 29182 H 2741.64 -0.357528 3.22323 0
M  V30 29183 H 2741.43 1.35749 3.67851 0
M  V30 29184 H 2742.92 0.485527 4.14768 0
M  V30 29185 N 2743.35 -1.15894 1.068 0
M  V30 29186 C 2744.6 -1.86179 0.786243 0
M  V30 29187 C 2744.92 -1.82403 -0.689515 0
M  V30 29188 O 2744.19 -1.2611 -1.49911 0
M  V30 29189 H 2742.77 -0.68931 0.287856 0
M  V30 29190 H 2745.43 -1.40518 1.35058 0
M  V30 29191 H 2744.53 -2.91475 1.11575 0
M  V30 29192 N 2744.83 -0.851312 -1.32629 0
M  V30 29193 C 2746.24 -0.508132 -1.79652 0
M  V30 29194 C 2746.59 0.973785 -1.70329 0
M  V30 29195 O 2745.72 1.75942 -1.25989 0
M  V30 29196 C 2746.31 -0.915573 -3.26194 0
M  V30 29197 C 2744.87 -0.624342 -3.71186 0
M  V30 29198 C 2744.02 -1.11714 -2.53802 0
M  V30 29199 H 2746.97 -1.03884 -1.19974 0
M  V30 29200 H 2746.99 -0.230602 -3.79801 0
M  V30 29201 H 2746.5 -1.99417 -3.32948 0
M  V30 29202 H 2744.6 0.443672 -3.69949 0
M  V30 29203 H 2744.72 -1.18829 -4.6413 0
M  V30 29204 H 2743.08 -0.537527 -2.48963 0
M  V30 29205 H 2743.86 -2.20277 -2.63311 0
M  V30 29206 N 2746.31 1.45361 -0.608928 0
M  V30 29207 C 2747.54 2.06602 -0.111049 0
M  V30 29208 C 2747.95 1.45334 1.20513 0
M  V30 29209 O 2747.31 0.568008 1.73436 0
M  V30 29210 C 2747.36 3.61484 0.0336244 0
M  V30 29211 O 2747.08 4.20465 -1.23048 0
M  V30 29212 C 2748.58 4.39713 0.562805 0
M  V30 29213 H 2745.8 0.667395 -0.0694571 0
M  V30 29214 H 2748.35 1.86585 -0.83704 0
M  V30 29215 H 2746.5 3.80839 0.709949 0
M  V30 29216 H 2746.92 5.13656 -1.06103 0
M  V30 29217 H 2748.39 5.48584 0.613117 0
M  V30 29218 H 2748.87 4.09589 1.58535 0
M  V30 29219 H 2749.47 4.25226 -0.0795201 0
M  V30 29220 N 2747.79 0.348166 1.53706 0
M  V30 29221 C 2749.04 -0.247957 2.0017 0
M  V30 29222 C 2749.35 -1.51284 1.23986 0
M  V30 29223 O 2750.56 -2.18649 1.6095 0
M  V30 29224 C 2749.01 -0.492396 3.56516 0
M  V30 29225 C 2748.62 0.756854 4.41561 0
M  V30 29226 C 2750.36 -1.04712 4.11382 0
M  V30 29227 C 2748.27 0.48296 5.89425 0
M  V30 29228 H 2747.2 -0.096432 0.747808 0
M  V30 29229 H 2749.85 0.464211 1.77531 0
M  V30 29230 H 2748.23 -1.26538 3.75239 0
M  V30 29231 H 2749.41 1.5313 4.34612 0
M  V30 29232 H 2747.72 1.23355 3.97709 0
M  V30 29233 H 2750.32 -1.26708 5.1947 0
M  V30 29234 H 2750.66 -2.00405 3.64889 0
M  V30 29235 H 2751.2 -0.334731 3.96389 0
M  V30 29236 H 2747.93 1.40973 6.40162 0
M  V30 29237 H 2747.45 -0.253311 5.99265 0
M  V30 29238 H 2749.13 0.10193 6.4692 0
M  V30 29239 N 2749.27 -1.57412 0.0768958 0
M  V30 29240 C 2750.49 -1.98429 -0.603369 0
M  V30 29241 C 2750.92 -0.955137 -1.62046 0
M  V30 29242 O 2750.27 0.0786459 -1.81129 0
M  V30 29243 C 2750.32 -3.38466 -1.2439 0
M  V30 29244 O 2749.43 -3.38214 -2.35976 0
M  V30 29245 H 2748.77 -0.64572 -0.15473 0
M  V30 29246 H 2751.3 -2.04028 0.152921 0
M  V30 29247 H 2751.31 -3.75763 -1.58954 0
M  V30 29248 H 2749.98 -4.129 -0.498663 0
M  V30 29249 H 2748.56 -3.12693 -2.03168 0
M  V30 29250 N 2750.74 0.196695 -1.56368 0
M  V30 29251 C 2752.16 0.761515 -1.70464 0
M  V30 29252 C 2752.51 1.83921 -0.683193 0
M  V30 29253 O 2751.63 2.15802 0.160715 0
M  V30 29254 C 2752.23 1.38809 -3.09059 0
M  V30 29255 C 2750.79 1.90001 -3.24926 0
M  V30 29256 C 2749.93 0.769352 -2.66414 0
M  V30 29257 H 2752.88 -0.0283542 -1.58675 0
M  V30 29258 H 2752.9 2.25745 -3.063 0
M  V30 29259 H 2752.42 0.603491 -3.83379 0
M  V30 29260 H 2750.52 2.71184 -2.55519 0
M  V30 29261 H 2750.63 2.0629 -4.32413 0
M  V30 29262 H 2748.99 1.18322 -2.25548 0
M  V30 29263 H 2749.78 -0.00297808 -3.433 0
M  V30 29264 N 2752.22 1.50604 0.464349 0
M  V30 29265 C 2753.47 1.6217 1.21773 0
M  V30 29266 C 2753.8 0.324188 1.91475 0
M  V30 29267 O 2753.08 -0.67475 1.82421 0
M  V30 29268 C 2753.36 2.80665 2.25609 0
M  V30 29269 C 2753.21 4.20317 1.60168 0
M  V30 29270 C 2754.53 2.94707 3.26857 0
M  V30 29271 H 2751.65 0.59023 0.441359 0
M  V30 29272 H 2754.29 1.83011 0.51059 0
M  V30 29273 H 2752.44 2.63026 2.85919 0
M  V30 29274 H 2754.11 4.49562 1.03403 0
M  V30 29275 H 2752.36 4.24263 0.904622 0
M  V30 29276 H 2753.03 4.9917 2.35656 0
M  V30 29277 H 2755.5 3.10877 2.76577 0
M  V30 29278 H 2754.38 3.7923 3.96832 0
M  V30 29279 H 2754.64 2.0561 3.91378 0
M  V30 29280 N 2753.7 -0.717989 1.40295 0
M  V30 29281 C 2755.12 -1.02575 1.22272 0
M  V30 29282 C 2755.32 -2.0127 0.096233 0
M  V30 29283 O 2754.37 -2.46512 -0.546651 0
M  V30 29284 C 2755.69 -1.57177 2.56351 0
M  V30 29285 C 2757.23 -1.69173 2.63343 0
M  V30 29286 C 2757.71 -2.27181 3.97684 0
M  V30 29287 N 2759.2 -2.34571 3.99413 0
M  V30 29288 C 2759.93 -2.80431 5.00146 0
M  V30 29289 N 2759.43 -3.26062 6.11274 0
M  V30 29290 N 2761.22 -2.79794 4.87516 0
M  V30 29291 H 2753.37 -0.0637526 2.12304 0
M  V30 29292 H 2755.64 -0.090887 0.943633 0
M  V30 29293 H 2755.34 -0.921202 3.39421 0
M  V30 29294 H 2755.22 -2.55736 2.7727 0
M  V30 29295 H 2757.6 -2.33348 1.80645 0
M  V30 29296 H 2757.69 -0.692204 2.46256 0
M  V30 29297 H 2757.33 -1.6363 4.8082 0
M  V30 29298 H 2757.26 -3.27844 4.12099 0
M  V30 29299 H 2759.75 -2.0234 3.19166 0
M  V30 29300 H 2760.06 -3.59616 6.8403 0
M  V30 29301 H 2758.41 -3.24027 6.14843 0
M  V30 29302 H 2761.6 -2.4348 3.99794 0
M  V30 29303 H 2761.77 -3.15218 5.66164 0
M  V30 29304 N 2755.18 -1.25752 -0.94996 0
M  V30 29305 C 2756.11 -1.02334 -2.05086 0
M  V30 29306 C 2757.12 0.0132961 -1.62795 0
M  V30 29307 O 2758.31 -0.22579 -1.77066 0
M  V30 29308 C 2755.41 -0.525982 -3.34793 0
M  V30 29309 C 2754.59 -1.62985 -4.059 0
M  V30 29310 C 2753.64 -1.13205 -5.13878 0
M  V30 29311 O 2752.67 -1.82739 -5.39069 0
M  V30 29312 N 2753.87 0.0241906 -5.80495 0
M  V30 29313 H 2756.64 -1.97129 -2.25744 0
M  V30 29314 H 2754.2 -1.1702 -1.11884 0
M  V30 29315 H 2756.19 -0.177335 -4.04311 0
M  V30 29316 H 2754.76 0.328147 -3.10873 0
M  V30 29317 H 2753.98 -2.14986 -3.30416 0
M  V30 29318 H 2755.27 -2.37132 -4.50162 0
M  V30 29319 H 2754.67 0.605085 -5.62455 0
M  V30 29320 H 2753.22 0.313832 -6.51044 0
M  V30 29321 N 2756.66 1.15326 -1.07413 0
M  V30 29322 C 2757.57 2.2371 -0.706477 0
M  V30 29323 C 2758.58 1.7169 0.282556 0
M  V30 29324 O 2759.76 2.00986 0.129031 0
M  V30 29325 C 2756.82 3.46524 -0.110541 0
M  V30 29326 C 2755.88 4.1353 -1.15289 0
M  V30 29327 C 2755.12 5.30481 -0.585299 0
M  V30 29328 O 2755.34 5.67252 0.598449 0
M  V30 29329 O 2754.27 5.87011 -1.33049 0
M  V30 29330 H 2758.1 2.5749 -1.61035 0
M  V30 29331 H 2755.69 1.23061 -0.847135 0
M  V30 29332 H 2757.57 4.20828 0.219496 0
M  V30 29333 H 2756.24 3.1449 0.766648 0
M  V30 29334 H 2755.15 3.41144 -1.53529 0
M  V30 29335 H 2756.48 4.49645 -2.002 0
M  V30 29336 N 2758.13 0.858334 1.32176 0
M  V30 29337 C 2759.04 0.308647 2.32561 0
M  V30 29338 C 2760.06 -0.575433 1.6421 0
M  V30 29339 O 2761.24 -0.474926 1.9572 0
M  V30 29340 C 2758.3 -0.490848 3.43208 0
M  V30 29341 C 2757.36 0.419808 4.27242 0
M  V30 29342 C 2756.6 -0.341625 5.32605 0
M  V30 29343 O 2756.82 -1.57115 5.48335 0
M  V30 29344 O 2755.75 0.294485 6.01179 0
M  V30 29345 H 2759.58 1.14042 2.81475 0
M  V30 29346 H 2757.16 0.621373 1.35865 0
M  V30 29347 H 2759.05 -0.944502 4.10679 0
M  V30 29348 H 2757.72 -1.29936 2.96476 0
M  V30 29349 H 2756.63 0.921715 3.62568 0
M  V30 29350 H 2757.96 1.1936 4.77508 0
M  V30 29351 N 2759.61 -1.45036 0.616628 0
M  V30 29352 C 2760.86 -2.02471 0.115537 0
M  V30 29353 C 2761.19 -1.48282 -1.25404 0
M  V30 29354 O 2760.47 -0.661083 -1.82921 0
M  V30 29355 C 2760.75 -3.59996 0.0864221 0
M  V30 29356 C 2760.6 -4.24499 1.4873 0
M  V30 29357 C 2761.92 -4.36036 -0.596685 0
M  V30 29358 H 2759.04 -0.735718 0.0434591 0
M  V30 29359 H 2761.68 -1.72782 0.79033 0
M  V30 29360 H 2759.83 -3.8542 -0.488209 0
M  V30 29361 H 2761.5 -4.1023 2.10971 0
M  V30 29362 H 2759.75 -3.82551 2.04541 0
M  V30 29363 H 2760.42 -5.33447 1.41909 0
M  V30 29364 H 2762.89 -4.15959 -0.108166 0
M  V30 29365 H 2761.77 -5.45761 -0.586193 0
M  V30 29366 H 2762.03 -4.09572 -1.66444 0
M  V30 29367 N 2761.09 -0.356312 -1.53519 0
M  V30 29368 C 2762.02 0.529087 -2.2301 0
M  V30 29369 C 2763.04 1.05369 -1.24102 0
M  V30 29370 O 2764.22 0.961653 -1.50381 0
M  V30 29371 C 2761.32 1.74224 -2.90688 0
M  V30 29372 C 2760.5 1.35074 -4.16021 0
M  V30 29373 C 2759.56 2.42494 -4.66994 0
M  V30 29374 O 2758.58 2.0527 -5.30898 0
M  V30 29375 N 2759.78 3.73943 -4.44013 0
M  V30 29376 H 2762.55 -0.0661028 -2.99627 0
M  V30 29377 H 2760.11 -0.181043 -1.60885 0
M  V30 29378 H 2762.1 2.45544 -3.21699 0
M  V30 29379 H 2760.67 2.24451 -2.17579 0
M  V30 29380 H 2759.89 0.467764 -3.91415 0
M  V30 29381 H 2761.18 1.06533 -4.97522 0
M  V30 29382 H 2760.58 4.06966 -3.92931 0
M  V30 29383 H 2759.14 4.41395 -4.79598 0
M  V30 29384 N 2762.57 1.57369 -0.0852427 0
M  V30 29385 C 2763.82 1.93993 0.580771 0
M  V30 29386 C 2764.14 0.966281 1.68799 0
M  V30 29387 O 2763.4 -0.0158305 1.95694 0
M  V30 29388 C 2763.7 3.37192 1.18476 0
M  V30 29389 C 2763.36 4.50446 0.202321 0
M  V30 29390 C 2762.03 4.81152 -0.0679164 0
M  V30 29391 C 2764.38 5.19085 -0.469041 0
M  V30 29392 C 2761.71 5.77829 -1.01638 0
M  V30 29393 C 2764.06 6.16779 -1.40591 0
M  V30 29394 C 2762.72 6.45896 -1.68448 0
M  V30 29395 H 2761.99 0.709871 0.212519 0
M  V30 29396 H 2764.64 1.90839 -0.158981 0
M  V30 29397 H 2762.94 3.36876 2.00054 0
M  V30 29398 H 2764.64 3.62825 1.7076 0
M  V30 29399 H 2761.23 4.26506 0.423133 0
M  V30 29400 H 2765.41 4.95546 -0.273394 0
M  V30 29401 H 2760.67 5.98708 -1.23931 0
M  V30 29402 H 2764.84 6.69064 -1.932 0
M  V30 29403 H 2762.47 7.20619 -2.421 0
M  V30 29404 N 2764.05 -0.188399 1.5647 0
M  V30 29405 C 2764.98 -1.23602 1.98103 0
M  V30 29406 C 2765.96 -1.47109 0.853986 0
M  V30 29407 O 2767.14 -1.58733 1.11881 0
M  V30 29408 C 2764.27 -2.57878 2.32629 0
M  V30 29409 C 2763.23 -2.48972 3.48134 0
M  V30 29410 C 2762.55 -3.87582 3.68354 0
M  V30 29411 C 2763.85 -2.00903 4.82115 0
M  V30 29412 H 2765.55 -0.890018 2.85865 0
M  V30 29413 H 2763.09 -0.42669 1.37533 0
M  V30 29414 H 2765.05 -3.31355 2.60349 0
M  V30 29415 H 2763.77 -2.94233 1.41756 0
M  V30 29416 H 2762.43 -1.7795 3.20514 0
M  V30 29417 H 2762.08 -4.213 2.748 0
M  V30 29418 H 2761.78 -3.82496 4.46062 0
M  V30 29419 H 2763.3 -4.62671 3.98457 0
M  V30 29420 H 2764.71 -2.64142 5.08824 0
M  V30 29421 H 2763.11 -2.06804 5.6334 0
M  V30 29422 H 2764.18 -0.962536 4.75251 0
M  V30 29423 N 2765.53 -1.50848 -0.456355 0
M  V30 29424 C 2766.77 -1.62252 -1.20494 0
M  V30 29425 C 2767.09 -0.331872 -1.92155 0
M  V30 29426 O 2766.36 0.651411 -1.84752 0
M  V30 29427 H 2764.94 -0.597926 -0.447765 0
M  V30 29428 H 2767.61 -1.87694 -0.525066 0
M  V30 29429 H 2766.7 -2.44092 -1.94487 0
M  V30 29430 N 2767 0.710538 -1.40674 0
M  V30 29431 C 2767.93 1.83734 -1.44098 0
M  V30 29432 C 2768.91 1.6741 -0.301315 0
M  V30 29433 O 2770.1 1.87366 -0.510651 0
M  V30 29434 C 2767.23 3.21736 -1.30779 0
M  V30 29435 C 2766.18 3.5274 -2.42401 0
M  V30 29436 C 2765.51 4.8994 -2.14156 0
M  V30 29437 C 2766.81 3.53227 -3.84744 0
M  V30 29438 H 2768.5 1.81125 -2.38399 0
M  V30 29439 H 2766.05 0.869996 -1.14748 0
M  V30 29440 H 2768 4.00262 -1.3179 0
M  V30 29441 H 2766.73 3.24933 -0.329565 0
M  V30 29442 H 2765.39 2.76558 -2.40648 0
M  V30 29443 H 2765.03 4.89745 -1.14712 0
M  V30 29444 H 2764.73 5.1165 -2.88943 0
M  V30 29445 H 2766.26 5.70793 -2.16858 0
M  V30 29446 H 2767.67 4.21783 -3.88293 0
M  V30 29447 H 2766.07 3.86465 -4.59091 0
M  V30 29448 H 2767.14 2.52506 -4.13967 0
M  V30 29449 N 2768.48 1.26254 0.943277 0
M  V30 29450 C 2769.41 1.0195 2.0416 0
M  V30 29451 C 2770.39 -0.0550522 1.62507 0
M  V30 29452 O 2771.58 0.0869356 1.88299 0
M  V30 29453 C 2768.7 0.543409 3.34312 0
M  V30 29454 C 2767.75 1.6102 3.94936 0
M  V30 29455 S 2768.58 3.19857 4.29479 0
M  V30 29456 C 2769.74 2.74011 5.62733 0
M  V30 29457 H 2769.97 1.94946 2.24463 0
M  V30 29458 H 2767.5 1.0991 1.08439 0
M  V30 29459 H 2769.46 0.275387 4.09575 0
M  V30 29460 H 2768.12 -0.366235 3.11958 0
M  V30 29461 H 2767.32 1.22804 4.8881 0
M  V30 29462 H 2766.92 1.82949 3.26199 0
M  V30 29463 H 2769.21 2.18344 6.41352 0
M  V30 29464 H 2770.15 3.66569 6.05833 0
M  V30 29465 H 2770.56 2.13643 5.2251 0
M  V30 29466 N 2769.96 -1.14755 1.08024 0
M  V30 29467 C 2770.89 -2.21852 0.728287 0
M  V30 29468 C 2771.87 -1.67654 -0.287457 0
M  V30 29469 O 2773.06 -1.93551 -0.158693 0
M  V30 29470 C 2770.19 -3.47047 0.13261 0
M  V30 29471 C 2769.14 -4.14247 1.07627 0
M  V30 29472 C 2768.47 -5.33599 0.343001 0
M  V30 29473 C 2769.77 -4.63231 2.41276 0
M  V30 29474 H 2771.46 -2.51548 1.6237 0
M  V30 29475 H 2769.01 -1.20907 0.782146 0
M  V30 29476 H 2770.96 -4.21213 -0.125591 0
M  V30 29477 H 2769.68 -3.16703 -0.797915 0
M  V30 29478 H 2768.34 -3.4203 1.3195 0
M  V30 29479 H 2767.99 -4.99514 -0.591203 0
M  V30 29480 H 2767.69 -5.79504 0.972057 0
M  V30 29481 H 2769.21 -6.1053 0.0927611 0
M  V30 29482 H 2770.63 -5.28891 2.21241 0
M  V30 29483 H 2769.02 -5.19824 2.99839 0
M  V30 29484 H 2770.09 -3.78506 3.03086 0
M  V30 29485 N 2771.44 -0.865331 -1.31719 0
M  V30 29486 C 2772.69 -0.47303 -1.96486 0
M  V30 29487 C 2773.01 0.976946 -1.68762 0
M  V30 29488 O 2772.28 1.68422 -1.00054 0
M  V30 29489 H 2770.86 -0.171934 -0.726944 0
M  V30 29490 H 2773.52 -1.1041 -1.6061 0
M  V30 29491 H 2772.61 -0.626924 -3.05739 0
M  V30 29492 N 2772.92 1.44707 -0.624311 0
M  V30 29493 C 2774.14 2.06472 -0.132955 0
M  V30 29494 C 2774.56 1.46604 1.18965 0
M  V30 29495 O 2773.92 0.586371 1.72823 0
M  V30 29496 C 2773.97 3.615 -0.00471772 0
M  V30 29497 O 2773.69 4.19136 -1.27501 0
M  V30 29498 C 2775.19 4.40285 0.516135 0
M  V30 29499 H 2772.41 0.666621 -0.0765318 0
M  V30 29500 H 2774.95 1.85686 -0.856783 0
M  V30 29501 H 2773.11 3.81571 0.669516 0
M  V30 29502 H 2773.52 5.12502 -1.11545 0
M  V30 29503 H 2775 5.49204 0.554897 0
M  V30 29504 H 2775.47 4.11247 1.54182 0
M  V30 29505 H 2776.08 4.25117 -0.124616 0
M  V30 29506 N 2774.39 0.364449 1.53328 0
M  V30 29507 C 2775.62 -0.226388 2.05658 0
M  V30 29508 C 2776.04 -1.42542 1.23803 0
M  V30 29509 O 2775.39 -1.80364 0.278421 0
M  V30 29510 C 2775.44 -0.620993 3.56126 0
M  V30 29511 O 2775.17 0.53038 4.34878 0
M  V30 29512 C 2776.67 -1.27034 4.24708 0
M  V30 29513 H 2773.89 -0.0399938 0.669807 0
M  V30 29514 H 2776.43 0.522491 1.97713 0
M  V30 29515 H 2774.59 -1.31979 3.64226 0
M  V30 29516 H 2775 0.211638 5.24073 0
M  V30 29517 H 2776.47 -1.49702 5.31313 0
M  V30 29518 H 2776.95 -2.23029 3.78358 0
M  V30 29519 H 2777.56 -0.613005 4.20859 0
M  V30 29520 N 2775.87 -1.57322 0.0935872 0
M  V30 29521 C 2776.78 -2.17464 -0.880153 0
M  V30 29522 C 2777.8 -1.14368 -1.31133 0
M  V30 29523 O 2778.97 -1.46732 -1.37956 0
M  V30 29524 C 2776.04 -2.74191 -2.12179 0
M  V30 29525 C 2775.1 -3.92237 -1.74496 0
M  V30 29526 C 2774.33 -4.4625 -2.9274 0
M  V30 29527 O 2774.56 -3.99205 -4.0742 0
M  V30 29528 O 2773.49 -5.37292 -2.71294 0
M  V30 29529 H 2777.32 -3.01075 -0.398463 0
M  V30 29530 H 2774.9 -1.48827 -0.130681 0
M  V30 29531 H 2776.78 -3.10456 -2.84948 0
M  V30 29532 H 2775.46 -1.93627 -2.59404 0
M  V30 29533 H 2774.36 -3.60787 -0.989122 0
M  V30 29534 H 2775.7 -4.7416 -1.32036 0
M  V30 29535 N 2777.35 0.180099 -1.56568 0
M  V30 29536 C 2778.31 1.20683 -1.94854 0
M  V30 29537 C 2779.31 1.37648 -0.831237 0
M  V30 29538 O 2780.5 1.35204 -1.09843 0
M  V30 29539 C 2777.63 2.57351 -2.2357 0
M  V30 29540 H 2778.83 0.879174 -2.86724 0
M  V30 29541 H 2776.38 0.42221 -1.50489 0
M  V30 29542 H 2777.12 2.95146 -1.34386 0
M  V30 29543 H 2776.9 2.46405 -3.05003 0
M  V30 29544 H 2778.39 3.31362 -2.54143 0
M  V30 29545 N 2778.83 1.51088 0.448349 0
M  V30 29546 C 2779.76 1.67786 1.56143 0
M  V30 29547 C 2780.77 0.558737 1.52912 0
M  V30 29548 O 2781.96 0.832698 1.57887 0
M  V30 29549 C 2779.06 1.66721 2.95055 0
M  V30 29550 C 2778.23 2.95039 3.2291 0
M  V30 29551 C 2777.29 2.8631 4.41489 0
M  V30 29552 O 2776.32 3.60261 4.40682 0
M  V30 29553 N 2777.52 2.0141 5.4444 0
M  V30 29554 H 2780.29 2.63802 1.42227 0
M  V30 29555 H 2777.85 1.48836 0.637127 0
M  V30 29556 H 2779.84 1.58464 3.72386 0
M  V30 29557 H 2778.41 0.783456 3.02623 0
M  V30 29558 H 2777.63 3.17249 2.3398 0
M  V30 29559 H 2778.92 3.80002 3.38343 0
M  V30 29560 H 2778.32 1.40683 5.47928 0
M  V30 29561 H 2776.87 1.9904 6.20666 0
M  V30 29562 N 2780.31 -0.703068 1.41049 0
M  V30 29563 C 2781.53 -1.49199 1.43343 0
M  V30 29564 C 2781.95 -1.88765 0.0365928 0
M  V30 29565 O 2781.31 -1.56286 -0.942391 0
M  V30 29566 C 2781.36 -2.75935 2.33543 0
M  V30 29567 O 2781.08 -2.38038 3.6779 0
M  V30 29568 C 2782.58 -3.69736 2.44562 0
M  V30 29569 H 2779.8 -0.460031 0.48848 0
M  V30 29570 H 2782.34 -0.866257 1.85246 0
M  V30 29571 H 2780.5 -3.34763 1.94968 0
M  V30 29572 H 2780.91 -3.19676 4.15822 0
M  V30 29573 H 2782.39 -4.55466 3.11857 0
M  V30 29574 H 2782.86 -4.13708 1.47454 0
M  V30 29575 H 2783.47 -3.16814 2.83741 0
M  V30 29576 N 2781.78 -1.26752 -0.936569 0
M  V30 29577 C 2782.75 -1.08764 -2.0175 0
M  V30 29578 C 2783.75 -0.0344718 -1.60763 0
M  V30 29579 O 2784.94 -0.278288 -1.71963 0
M  V30 29580 C 2782.07 -0.65533 -3.34542 0
M  V30 29581 H 2783.26 -2.04739 -2.19139 0
M  V30 29582 H 2780.82 -1.09415 -1.11616 0
M  V30 29583 H 2781.55 0.306203 -3.22851 0
M  V30 29584 H 2781.34 -1.41584 -3.65645 0
M  V30 29585 H 2782.83 -0.551451 -4.13943 0
M  V30 29586 N 2783.26 1.1418 -1.08631 0
M  V30 29587 C 2784.19 2.21462 -0.740042 0
M  V30 29588 C 2785.17 1.67804 0.278562 0
M  V30 29589 O 2786.36 1.93632 0.148427 0
M  V30 29590 C 2783.49 3.46972 -0.151013 0
M  V30 29591 C 2782.44 4.1367 -1.09822 0
M  V30 29592 C 2781.77 5.33409 -0.371294 0
M  V30 29593 C 2783.07 4.61945 -2.4373 0
M  V30 29594 H 2784.76 2.50683 -1.63701 0
M  V30 29595 H 2782.31 1.2049 -0.788547 0
M  V30 29596 H 2784.26 4.21273 0.103251 0
M  V30 29597 H 2782.99 3.17122 0.781108 0
M  V30 29598 H 2781.64 3.41326 -1.33762 0
M  V30 29599 H 2781.29 4.9982 0.564704 0
M  V30 29600 H 2780.99 5.7898 -1.00278 0
M  V30 29601 H 2782.52 6.10472 -0.125138 0
M  V30 29602 H 2783.93 5.2771 -2.24043 0
M  V30 29603 H 2782.33 5.18226 -3.02591 0
M  V30 29604 H 2783.4 3.76894 -3.05089 0
M  V30 29605 N 2784.74 0.872304 1.31258 0
M  V30 29606 C 2785.97 0.498219 2.00503 0
M  V30 29607 C 2786.38 -0.91445 1.65634 0
M  V30 29608 O 2785.72 -1.61093 0.882878 0
M  V30 29609 C 2785.78 0.578256 3.54819 0
M  V30 29610 C 2785.45 1.95296 4.13169 0
M  V30 29611 C 2786.44 2.92076 4.30102 0
M  V30 29612 C 2784.13 2.25491 4.48842 0
M  V30 29613 C 2786.12 4.17193 4.81901 0
M  V30 29614 C 2783.81 3.50856 5.00343 0
M  V30 29615 C 2784.81 4.46523 5.16823 0
M  V30 29616 O 2784.5 5.69666 5.67218 0
M  V30 29617 H 2784.23 0.192366 0.648052 0
M  V30 29618 H 2786.78 1.17592 1.68408 0
M  V30 29619 H 2785.01 -0.15637 3.86384 0
M  V30 29620 H 2786.7 0.217264 4.05318 0
M  V30 29621 H 2787.47 2.70058 4.02857 0
M  V30 29622 H 2783.35 1.51803 4.35289 0
M  V30 29623 H 2786.89 4.91872 4.9468 0
M  V30 29624 H 2782.79 3.72718 5.27022 0
M  V30 29625 H 2783.56 5.7187 5.85582 0
M  V30 29626 N 2786.22 -1.44374 0.631976 0
M  V30 29627 C 2787.46 -2.02337 0.137005 0
M  V30 29628 C 2787.8 -1.49604 -1.23824 0
M  V30 29629 O 2787.07 -0.680447 -1.82209 0
M  V30 29630 C 2787.36 -3.59884 0.1246 0
M  V30 29631 C 2787.21 -4.22898 1.53224 0
M  V30 29632 C 2788.53 -4.36645 -0.550404 0
M  V30 29633 H 2785.65 -0.735215 0.0512599 0
M  V30 29634 H 2788.29 -1.71935 0.808612 0
M  V30 29635 H 2786.44 -3.85916 -0.447303 0
M  V30 29636 H 2788.11 -4.0797 2.1531 0
M  V30 29637 H 2786.35 -3.8036 2.08587 0
M  V30 29638 H 2787.02 -5.31912 1.47559 0
M  V30 29639 H 2789.5 -4.16051 -0.0640423 0
M  V30 29640 H 2788.38 -5.46352 -0.528275 0
M  V30 29641 H 2788.64 -4.11314 -1.6209 0
M  V30 29642 N 2787.7 -0.372575 -1.53133 0
M  V30 29643 C 2788.63 0.462372 -2.28876 0
M  V30 29644 C 2789.61 1.07793 -1.31585 0
M  V30 29645 O 2790.79 1.09387 -1.60462 0
M  V30 29646 C 2787.92 1.59863 -3.0832 0
M  V30 29647 C 2786.88 1.10996 -4.13357 0
M  V30 29648 C 2786.2 2.337 -4.80925 0
M  V30 29649 C 2787.5 0.189738 -5.21955 0
M  V30 29650 H 2789.2 -0.169563 -2.98919 0
M  V30 29651 H 2786.74 -0.0829911 -1.43761 0
M  V30 29652 H 2788.7 2.18942 -3.60059 0
M  V30 29653 H 2787.42 2.2579 -2.3598 0
M  V30 29654 H 2786.08 0.541805 -3.62574 0
M  V30 29655 H 2785.73 2.98099 -4.05149 0
M  V30 29656 H 2785.43 2.01672 -5.51908 0
M  V30 29657 H 2786.95 2.93453 -5.35461 0
M  V30 29658 H 2788.36 0.688219 -5.69154 0
M  V30 29659 H 2786.76 -0.0399942 -6.00087 0
M  V30 29660 H 2787.83 -0.766141 -4.78809 0
M  V30 29661 N 2789.17 1.5727 -0.101929 0
M  V30 29662 C 2790.42 1.94598 0.560163 0
M  V30 29663 C 2790.75 0.98413 1.67765 0
M  V30 29664 O 2790 0.00492633 1.95699 0
M  V30 29665 C 2790.3 3.38429 1.14893 0
M  V30 29666 C 2789.97 4.50635 0.154534 0
M  V30 29667 C 2788.63 4.81053 -0.118945 0
M  V30 29668 C 2790.98 5.18559 -0.524071 0
M  V30 29669 C 2788.31 5.76719 -1.07761 0
M  V30 29670 C 2790.66 6.15254 -1.47125 0
M  V30 29671 C 2789.33 6.44073 -1.75289 0
M  V30 29672 H 2788.6 0.712085 0.204978 0
M  V30 29673 H 2791.24 1.9066 -0.179213 0
M  V30 29674 H 2789.55 3.38979 1.9647 0
M  V30 29675 H 2791.25 3.64616 1.66902 0
M  V30 29676 H 2787.84 4.26931 0.377873 0
M  V30 29677 H 2792.02 4.95229 -0.325938 0
M  V30 29678 H 2787.28 5.9736 -1.30274 0
M  V30 29679 H 2791.45 6.66977 -2.00285 0
M  V30 29680 H 2789.08 7.1801 -2.4973 0
M  V30 29681 N 2790.65 -0.171793 1.56661 0
M  V30 29682 C 2791.88 -0.908132 1.86461 0
M  V30 29683 C 2792.3 -1.75058 0.688212 0
M  V30 29684 O 2791.66 -1.77635 -0.362722 0
M  V30 29685 C 2791.71 -1.76107 3.14672 0
M  V30 29686 O 2790.81 -2.86263 2.96863 0
M  V30 29687 H 2790.15 -0.254423 0.613323 0
M  V30 29688 H 2792.68 -0.170077 2.03892 0
M  V30 29689 H 2792.69 -2.16109 3.46065 0
M  V30 29690 H 2791.37 -1.14226 3.99907 0
M  V30 29691 H 2789.95 -2.49847 2.76823 0
M  V30 29692 N 2792.13 -1.51324 -0.44033 0
M  V30 29693 C 2793.06 -1.75367 -1.54171 0
M  V30 29694 C 2794.04 -0.603403 -1.59038 0
M  V30 29695 O 2795.23 -0.845804 -1.74814 0
M  V30 29696 C 2792.36 -1.87598 -2.92274 0
M  V30 29697 C 2791.31 -3.03014 -3.02269 0
M  V30 29698 C 2790.64 -3.00425 -4.42322 0
M  V30 29699 C 2791.94 -4.43029 -2.76627 0
M  V30 29700 H 2793.63 -2.67588 -1.34302 0
M  V30 29701 H 2791.18 -1.28764 -0.644656 0
M  V30 29702 H 2793.13 -2.03002 -3.69281 0
M  V30 29703 H 2791.85 -0.920234 -3.13368 0
M  V30 29704 H 2790.51 -2.87311 -2.27701 0
M  V30 29705 H 2790.16 -2.02634 -4.60379 0
M  V30 29706 H 2789.86 -3.77926 -4.49939 0
M  V30 29707 H 2791.38 -3.17918 -5.21306 0
M  V30 29708 H 2792.8 -4.59099 -3.43368 0
M  V30 29709 H 2791.2 -5.22213 -2.95657 0
M  V30 29710 H 2792.27 -4.53273 -1.72254 0
M  V30 29711 N 2793.61 0.695578 -1.41419 0
M  V30 29712 C 2794.85 1.45778 -1.40985 0
M  V30 29713 C 2795.19 1.94191 -0.0188104 0
M  V30 29714 O 2794.46 1.69529 0.95343 0
M  V30 29715 C 2794.75 2.66967 -2.41662 0
M  V30 29716 C 2794.6 2.2432 -3.89873 0
M  V30 29717 C 2795.92 3.69164 -2.39595 0
M  V30 29718 H 2793.04 0.528748 -0.513415 0
M  V30 29719 H 2795.68 0.792245 -1.72695 0
M  V30 29720 H 2793.83 3.2375 -2.14752 0
M  V30 29721 H 2795.5 1.72865 -4.27686 0
M  V30 29722 H 2793.74 1.56104 -4.04739 0
M  V30 29723 H 2794.41 3.11277 -4.55862 0
M  V30 29724 H 2796.89 3.22055 -2.63476 0
M  V30 29725 H 2795.77 4.51569 -3.12052 0
M  V30 29726 H 2796.03 4.18859 -1.41454 0
M  V30 29727 N 2795.09 1.27247 0.929833 0
M  V30 29728 C 2796.02 1.12303 2.0472 0
M  V30 29729 C 2797 0.0250762 1.70082 0
M  V30 29730 O 2798.18 0.199175 1.93176 0
M  V30 29731 C 2795.31 0.767204 3.3872 0
M  V30 29732 C 2794.27 1.81815 3.87463 0
M  V30 29733 C 2793.59 1.31635 5.18243 0
M  V30 29734 C 2794.89 3.22184 4.1109 0
M  V30 29735 H 2796.59 2.05773 2.17481 0
M  V30 29736 H 2794.13 0.990734 1.04501 0
M  V30 29737 H 2796.09 0.649486 4.16365 0
M  V30 29738 H 2794.81 -0.203201 3.25967 0
M  V30 29739 H 2793.47 1.92474 3.12009 0
M  V30 29740 H 2793.12 0.335466 5.0188 0
M  V30 29741 H 2792.82 2.01897 5.51826 0
M  V30 29742 H 2794.34 1.21153 5.9846 0
M  V30 29743 H 2795.76 3.14538 4.79311 0
M  V30 29744 H 2794.15 3.90137 4.55975 0
M  V30 29745 H 2795.22 3.67396 3.16462 0
M  V30 29746 N 2796.57 -1.13603 1.09235 0
M  V30 29747 C 2797.5 -2.21067 0.751776 0
M  V30 29748 C 2798.48 -1.67949 -0.269659 0
M  V30 29749 O 2799.66 -1.93708 -0.138156 0
M  V30 29750 C 2796.79 -3.46887 0.169411 0
M  V30 29751 C 2795.75 -4.13082 1.12014 0
M  V30 29752 C 2795.07 -5.33205 0.399577 0
M  V30 29753 C 2796.37 -4.60646 2.46176 0
M  V30 29754 H 2798.07 -2.49812 1.65029 0
M  V30 29755 H 2795.61 -1.20071 0.794926 0
M  V30 29756 H 2797.56 -4.21322 -0.0809084 0
M  V30 29757 H 2796.29 -3.17532 -0.76428 0
M  V30 29758 H 2794.95 -3.40612 1.3557 0
M  V30 29759 H 2794.6 -5.00113 -0.538189 0
M  V30 29760 H 2794.3 -5.7844 1.03347 0
M  V30 29761 H 2795.82 -6.10397 0.157511 0
M  V30 29762 H 2797.23 -5.26514 2.26838 0
M  V30 29763 H 2795.63 -5.16614 3.05335 0
M  V30 29764 H 2796.7 -3.75271 3.07083 0
M  V30 29765 N 2798.04 -0.879253 -1.30793 0
M  V30 29766 C 2799.29 -0.493843 -1.95973 0
M  V30 29767 C 2799.61 0.958991 -1.69789 0
M  V30 29768 O 2798.88 1.67351 -1.01835 0
M  V30 29769 H 2797.46 -0.179635 -0.72508 0
M  V30 29770 H 2800.12 -1.12108 -1.5943 0
M  V30 29771 H 2799.22 -0.659316 -3.05056 0
M  V30 29772 N 2799.52 1.44037 -0.639624 0
M  V30 29773 C 2800.77 2.02261 -0.147734 0
M  V30 29774 C 2801.1 1.50258 1.23029 0
M  V30 29775 O 2800.38 0.6901 1.81846 0
M  V30 29776 C 2800.66 3.59813 -0.143683 0
M  V30 29777 C 2800.51 4.22079 -1.55465 0
M  V30 29778 C 2801.83 4.3693 0.52724 0
M  V30 29779 H 2798.95 0.734933 -0.0551582 0
M  V30 29780 H 2801.59 1.71503 -0.817718 0
M  V30 29781 H 2799.74 3.86148 0.42683 0
M  V30 29782 H 2801.41 4.06822 -2.17471 0
M  V30 29783 H 2799.66 3.79249 -2.10601 0
M  V30 29784 H 2800.33 5.31122 -1.50378 0
M  V30 29785 H 2802.8 4.16079 0.0419772 0
M  V30 29786 H 2801.68 5.46624 0.499293 0
M  V30 29787 H 2801.94 4.12168 1.59907 0
M  V30 29788 N 2801 0.380691 1.52933 0
M  V30 29789 C 2802.24 -0.204125 2.03378 0
M  V30 29790 C 2802.6 -1.44756 1.26134 0
M  V30 29791 O 2803.8 -2.10897 1.66661 0
M  V30 29792 C 2802.08 -0.474056 3.54242 0
M  V30 29793 S 2803.63 -1.03038 4.26531 0
M  V30 29794 H 2800.45 -0.0582594 0.708609 0
M  V30 29795 H 2803.05 0.52705 1.88262 0
M  V30 29796 H 2801.76 0.43816 4.08054 0
M  V30 29797 H 2801.29 -1.23389 3.73549 0
M  V30 29798 H 2803.3 -2.31347 4.38968 0
M  V30 29799 N 2802.48 -1.57214 0.110268 0
M  V30 29800 C 2803.73 -1.94507 -0.548749 0
M  V30 29801 C 2804.05 -0.993889 -1.6777 0
M  V30 29802 O 2803.32 -0.0486185 -1.9584 0
M  V30 29803 H 2801.9 -0.718119 -0.205702 0
M  V30 29804 H 2804.56 -1.94093 0.177161 0
M  V30 29805 H 2803.65 -2.97321 -0.949043 0
M  V30 29806 N 2803.96 0.163482 -1.5675 0
M  V30 29807 C 2804.89 1.20435 -2.00044 0
M  V30 29808 C 2805.87 1.45732 -0.877282 0
M  V30 29809 O 2807.05 1.56933 -1.14393 0
M  V30 29810 C 2804.18 2.54145 -2.36702 0
M  V30 29811 C 2803.14 2.43402 -3.52051 0
M  V30 29812 C 2802.46 3.81673 -3.74473 0
M  V30 29813 C 2803.76 1.93208 -4.85251 0
M  V30 29814 H 2805.46 0.844427 -2.87245 0
M  V30 29815 H 2803 0.404755 -1.38195 0
M  V30 29816 H 2804.95 3.27171 -2.65588 0
M  V30 29817 H 2803.68 2.9194 -1.46419 0
M  V30 29818 H 2802.34 1.72829 -3.23304 0
M  V30 29819 H 2801.99 4.16875 -2.81468 0
M  V30 29820 H 2801.69 3.75351 -4.5209 0
M  V30 29821 H 2803.21 4.56273 -4.05768 0
M  V30 29822 H 2804.62 2.56014 -5.12962 0
M  V30 29823 H 2803.02 1.97815 -5.66559 0
M  V30 29824 H 2804.09 0.886806 -4.76722 0
M  V30 29825 N 2805.43 1.51555 0.432299 0
M  V30 29826 C 2806.4 1.72636 1.50762 0
M  V30 29827 C 2807.4 0.59634 1.49333 0
M  V30 29828 O 2808.59 0.863952 1.51266 0
M  V30 29829 C 2805.72 1.78746 2.90281 0
M  V30 29830 H 2806.91 2.68611 1.33372 0
M  V30 29831 H 2804.46 1.41621 0.661304 0
M  V30 29832 H 2805.2 0.846032 3.1307 0
M  V30 29833 H 2804.98 2.60875 2.92723 0
M  V30 29834 H 2806.47 1.96877 3.68279 0
M  V30 29835 N 2806.91 -0.688069 1.41786 0
M  V30 29836 C 2808.16 -1.44813 1.41546 0
M  V30 29837 C 2808.49 -1.94481 0.0272088 0
M  V30 29838 O 2807.74 -1.70412 -0.962205 0
M  V30 29839 C 2808.04 -2.67042 2.37536 0
M  V30 29840 C 2807.71 -2.3599 3.84213 0
M  V30 29841 C 2806.37 -2.27232 4.24169 0
M  V30 29842 C 2808.72 -2.10527 4.76789 0
M  V30 29843 C 2806.05 -1.91119 5.54699 0
M  V30 29844 C 2808.4 -1.75921 6.07647 0
M  V30 29845 C 2807.06 -1.65664 6.46616 0
M  V30 29846 H 2806.33 -0.52991 0.517954 0
M  V30 29847 H 2808.98 -0.785766 1.74637 0
M  V30 29848 H 2807.29 -3.38248 1.97726 0
M  V30 29849 H 2808.98 -3.25199 2.34621 0
M  V30 29850 H 2805.57 -2.43703 3.52571 0
M  V30 29851 H 2809.76 -2.16234 4.46718 0
M  V30 29852 H 2805.01 -1.81736 5.83765 0
M  V30 29853 H 2809.19 -1.5524 6.78877 0
M  V30 29854 H 2806.81 -1.37449 7.47671 0
M  V30 29855 N 2808.39 -1.27739 -0.923072 0
M  V30 29856 C 2809.32 -1.13387 -2.04122 0
M  V30 29857 C 2810.3 -0.0340957 -1.70066 0
M  V30 29858 O 2811.49 -0.209417 -1.93068 0
M  V30 29859 C 2808.62 -0.785156 -3.38308 0
M  V30 29860 C 2807.57 -1.83867 -3.86493 0
M  V30 29861 C 2806.9 -1.34382 -5.17538 0
M  V30 29862 C 2808.2 -3.2436 -4.09375 0
M  V30 29863 H 2809.89 -2.06923 -2.16387 0
M  V30 29864 H 2807.44 -0.996262 -1.03974 0
M  V30 29865 H 2809.39 -0.671558 -4.16014 0
M  V30 29866 H 2808.11 0.185912 -3.2607 0
M  V30 29867 H 2806.77 -1.94126 -3.10984 0
M  V30 29868 H 2806.42 -0.362077 -5.01695 0
M  V30 29869 H 2806.12 -2.0482 -5.50747 0
M  V30 29870 H 2807.64 -1.24326 -5.97809 0
M  V30 29871 H 2809.06 -3.17076 -4.77636 0
M  V30 29872 H 2807.45 -3.9255 -4.53899 0
M  V30 29873 H 2808.52 -3.6907 -3.14509 0
M  V30 29874 N 2809.87 1.13022 -1.09836 0
M  V30 29875 C 2811.09 1.88769 -0.859123 0
M  V30 29876 C 2811.52 1.78792 0.58437 0
M  V30 29877 O 2810.88 1.13845 1.41099 0
M  V30 29878 C 2810.92 3.36184 -1.30433 0
M  V30 29879 O 2810.03 4.09765 -0.46544 0
M  V30 29880 H 2809.37 0.586772 -0.310797 0
M  V30 29881 H 2811.9 1.42971 -1.46357 0
M  V30 29882 H 2811.91 3.87017 -1.29157 0
M  V30 29883 H 2810.58 3.42763 -2.35556 0
M  V30 29884 H 2809.16 3.68927 -0.542879 0
M  V30 29885 N 2811.35 0.886177 1.30325 0
M  V30 29886 C 2812.58 0.519457 1.99963 0
M  V30 29887 C 2812.98 -0.89683 1.66594 0
M  V30 29888 O 2812.33 -1.60148 0.899914 0
M  V30 29889 C 2812.39 0.615857 3.54186 0
M  V30 29890 C 2812.05 1.99667 4.11074 0
M  V30 29891 C 2813.05 2.96622 4.2698 0
M  V30 29892 C 2810.74 2.30238 4.46425 0
M  V30 29893 C 2812.73 4.22281 4.77449 0
M  V30 29894 C 2810.42 3.56143 4.96594 0
M  V30 29895 C 2811.41 4.51979 5.12058 0
M  V30 29896 O 2811.1 5.7565 5.61144 0
M  V30 29897 H 2810.83 0.199228 0.645975 0
M  V30 29898 H 2813.39 1.19371 1.67152 0
M  V30 29899 H 2811.62 -0.11538 3.86528 0
M  V30 29900 H 2813.31 0.260241 4.05065 0
M  V30 29901 H 2814.07 2.74315 3.9997 0
M  V30 29902 H 2809.95 1.56411 4.33655 0
M  V30 29903 H 2813.5 4.97091 4.89435 0
M  V30 29904 H 2809.39 3.78286 5.23039 0
M  V30 29905 H 2810.16 5.78049 5.79484 0
M  V30 29906 N 2812.82 -1.43695 0.647253 0
M  V30 29907 C 2813.77 -2.3075 -0.0479687 0
M  V30 29908 C 2814.74 -1.44409 -0.82068 0
M  V30 29909 O 2815.93 -1.73288 -0.798484 0
M  V30 29910 C 2813.07 -3.29912 -1.01254 0
M  V30 29911 C 2812.18 -4.31352 -0.236553 0
M  V30 29912 C 2811.31 -5.17598 -1.19438 0
M  V30 29913 C 2810.35 -6.10735 -0.408488 0
M  V30 29914 N 2809.49 -6.89626 -1.3176 0
M  V30 29915 H 2814.33 -2.89655 0.700289 0
M  V30 29916 H 2811.87 -1.427 0.357107 0
M  V30 29917 H 2813.83 -3.85906 -1.58532 0
M  V30 29918 H 2812.46 -2.7267 -1.72774 0
M  V30 29919 H 2811.51 -3.777 0.45242 0
M  V30 29920 H 2812.82 -4.9739 0.374818 0
M  V30 29921 H 2811.97 -5.78189 -1.83799 0
M  V30 29922 H 2810.71 -4.51672 -1.83967 0
M  V30 29923 H 2809.72 -5.49238 0.248507 0
M  V30 29924 H 2810.94 -6.78703 0.232308 0
M  V30 29925 H 2808.89 -6.26354 -1.9498 0
M  V30 29926 H 2808.81 -7.52164 -0.760647 0
M  V30 29927 H 2810.07 -7.54727 -1.94954 0
M  V30 29928 N 2814.3 -0.388796 -1.52729 0
M  V30 29929 C 2815.53 0.19336 -2.05693 0
M  V30 29930 C 2815.94 1.41105 -1.2604 0
M  V30 29931 O 2815.28 1.81233 -0.300042 0
M  V30 29932 C 2815.35 0.628499 -3.53963 0
M  V30 29933 C 2815.01 -0.475656 -4.54518 0
M  V30 29934 C 2816.01 -1.3329 -5.02523 0
M  V30 29935 C 2813.69 -0.642541 -4.98173 0
M  V30 29936 C 2815.69 -2.34216 -5.92808 0
M  V30 29937 C 2813.37 -1.65514 -5.88259 0
M  V30 29938 C 2814.37 -2.50336 -6.35469 0
M  V30 29939 O 2814.06 -3.49865 -7.23775 0
M  V30 29940 H 2813.79 0.0329277 -0.675198 0
M  V30 29941 H 2816.34 -0.552361 -1.97834 0
M  V30 29942 H 2814.57 1.42619 -3.59439 0
M  V30 29943 H 2816.26 1.13627 -3.89671 0
M  V30 29944 H 2817.03 -1.21527 -4.69528 0
M  V30 29945 H 2812.91 0.0079699 -4.60999 0
M  V30 29946 H 2816.45 -3.00458 -6.2958 0
M  V30 29947 H 2812.35 -1.77315 -6.20669 0
M  V30 29948 H 2813.12 -3.45868 -7.41834 0
M  V30 29949 N 2815.78 1.57153 -0.118604 0
M  V30 29950 C 2817.02 1.97067 0.542583 0
M  V30 29951 C 2817.38 1.00049 1.63873 0
M  V30 29952 O 2818.59 1.28899 2.35878 0
M  V30 29953 C 2816.86 3.4126 1.0619 0
M  V30 29954 S 2818.42 4.03186 1.73167 0
M  V30 29955 H 2815.23 0.688778 0.176367 0
M  V30 29956 H 2817.84 1.94437 -0.20359 0
M  V30 29957 H 2816.54 4.0962 0.252944 0
M  V30 29958 H 2816.07 3.4754 1.84336 0
M  V30 29959 H 2818.09 3.93911 3.01742 0
M  V30 29960 N 2817.26 -0.155167 1.56834 0
M  V30 29961 C 2818.21 -1.1918 1.97648 0
M  V30 29962 C 2819.18 -1.43129 0.842813 0
M  V30 29963 O 2820.36 -1.556 1.10423 0
M  V30 29964 C 2817.5 -2.52228 2.35531 0
M  V30 29965 C 2816.61 -2.35522 3.62151 0
M  V30 29966 C 2815.75 -3.61548 3.89174 0
M  V30 29967 C 2814.79 -3.39844 5.0909 0
M  V30 29968 N 2813.92 -4.5798 5.32164 0
M  V30 29969 H 2818.76 -0.836751 2.86011 0
M  V30 29970 H 2816.3 -0.401733 1.41508 0
M  V30 29971 H 2818.26 -3.29794 2.55522 0
M  V30 29972 H 2816.89 -2.85696 1.50258 0
M  V30 29973 H 2815.94 -1.49051 3.49983 0
M  V30 29974 H 2817.25 -2.1544 4.49875 0
M  V30 29975 H 2816.41 -4.47546 4.09619 0
M  V30 29976 H 2815.15 -3.84626 2.99856 0
M  V30 29977 H 2814.15 -2.52235 4.88526 0
M  V30 29978 H 2815.38 -3.18173 5.99952 0
M  V30 29979 H 2813.32 -4.81247 4.458 0
M  V30 29980 H 2813.24 -4.40871 6.14141 0
M  V30 29981 H 2814.51 -5.45215 5.57101 0
M  V30 29982 N 2818.74 -1.51782 -0.424256 0
M  V30 29983 C 2820.15 -1.40248 -0.761743 0
M  V30 29984 C 2820.35 -0.495075 -1.95323 0
M  V30 29985 O 2819.41 0.0448505 -2.5246 0
M  V30 29986 C 2820.72 -2.82515 -1.02985 0
M  V30 29987 C 2822.27 -2.91755 -1.13349 0
M  V30 29988 C 2822.74 -4.34957 -1.43445 0
M  V30 29989 N 2824.24 -4.38123 -1.50342 0
M  V30 29990 C 2824.97 -5.4597 -1.75226 0
M  V30 29991 N 2824.47 -6.63958 -1.97815 0
M  V30 29992 N 2826.26 -5.33466 -1.77117 0
M  V30 29993 H 2818.41 -2.09322 0.360265 0
M  V30 29994 H 2820.67 -0.942834 0.0988294 0
M  V30 29995 H 2820.38 -3.50967 -0.226899 0
M  V30 29996 H 2820.25 -3.2264 -1.95405 0
M  V30 29997 H 2822.64 -2.23492 -1.92705 0
M  V30 29998 H 2822.72 -2.55108 -0.187996 0
M  V30 29999 H 2822.37 -5.03773 -0.646121 0
M  V30 30000 H 2822.3 -4.69127 -2.39222 0
M  V30 30001 H 2824.79 -3.53065 -1.34736 0
M  V30 30002 H 2825.1 -7.41939 -2.1621 0
M  V30 30003 H 2823.44 -6.67051 -1.95111 0
M  V30 30004 H 2826.64 -4.4027 -1.58997 0
M  V30 30005 H 2826.81 -6.17593 -1.96172 0
M  V30 30006 N 2820.21 0.68054 -1.42149 0
M  V30 30007 C 2821.44 1.47401 -1.45903 0
M  V30 30008 C 2821.86 1.87969 -0.0701315 0
M  V30 30009 O 2821.22 1.55623 0.930117 0
M  V30 30010 C 2821.27 2.70317 -2.38666 0
M  V30 30011 O 2820.37 3.68373 -1.85406 0
M  V30 30012 H 2819.72 0.443051 -0.494573 0
M  V30 30013 H 2822.25 0.835218 -1.86776 0
M  V30 30014 H 2822.26 3.18454 -2.55051 0
M  V30 30015 H 2820.93 2.40128 -3.39575 0
M  V30 30016 H 2819.51 3.27377 -1.78546 0
M  V30 30017 N 2821.69 1.28226 0.916285 0
M  V30 30018 C 2822.64 1.11935 2.01839 0
M  V30 30019 C 2823.61 0.0171896 1.66091 0
M  V30 30020 O 2824.79 0.181651 1.89933 0
M  V30 30021 C 2821.93 0.784563 3.36063 0
M  V30 30022 C 2821.05 1.96551 3.84697 0
M  V30 30023 C 2820.18 1.57157 5.0742 0
M  V30 30024 C 2819.22 2.71932 5.48379 0
M  V30 30025 N 2818.36 2.33048 6.62294 0
M  V30 30026 H 2823.2 2.06236 2.15106 0
M  V30 30027 H 2820.74 1.02649 1.05364 0
M  V30 30028 H 2822.69 0.571221 4.13271 0
M  V30 30029 H 2821.32 -0.121508 3.22571 0
M  V30 30030 H 2820.38 2.29106 3.03669 0
M  V30 30031 H 2821.69 2.8261 4.11015 0
M  V30 30032 H 2820.84 1.32015 5.92163 0
M  V30 30033 H 2819.58 0.682238 4.82905 0
M  V30 30034 H 2818.59 2.97776 4.62179 0
M  V30 30035 H 2819.81 3.61504 5.74884 0
M  V30 30036 H 2817.76 1.46581 6.39414 0
M  V30 30037 H 2817.67 3.12643 6.88324 0
M  V30 30038 H 2818.94 2.11183 7.50348 0
M  V30 30039 N 2823.17 -1.12438 1.10433 0
M  V30 30040 C 2824.1 -2.17894 0.710983 0
M  V30 30041 C 2825.12 -1.60833 -0.252287 0
M  V30 30042 O 2826.3 -1.78462 -0.0367587 0
M  V30 30043 C 2823.4 -3.38888 0.0284858 0
M  V30 30044 C 2822.58 -4.25438 1.01593 0
M  V30 30045 C 2821.64 -5.24933 0.364918 0
M  V30 30046 O 2820.66 -5.60064 1.01571 0
M  V30 30047 N 2821.86 -5.73843 -0.87664 0
M  V30 30048 H 2824.63 -2.52252 1.6183 0
M  V30 30049 H 2822.19 -1.27859 0.993155 0
M  V30 30050 H 2824.18 -4.0253 -0.418498 0
M  V30 30051 H 2822.75 -3.0268 -0.781241 0
M  V30 30052 H 2821.97 -3.58412 1.64117 0
M  V30 30053 H 2823.26 -4.80112 1.68433 0
M  V30 30054 H 2822.66 -5.47465 -1.42473 0
M  V30 30055 H 2821.22 -6.39372 -1.26677 0
M  V30 30056 N 2824.65 -0.893076 -1.29853 0
M  V30 30057 C 2825.9 -0.514601 -1.95439 0
M  V30 30058 C 2826.22 0.940929 -1.70797 0
M  V30 30059 O 2825.49 1.66262 -1.03604 0
M  V30 30060 H 2824.07 -0.187315 -0.723133 0
M  V30 30061 H 2826.73 -1.13792 -1.58232 0
M  V30 30062 H 2825.83 -0.691634 -3.0434 0
M  V30 30063 N 2826.13 1.4335 -0.654865 0
M  V30 30064 C 2827.07 2.30772 0.0357308 0
M  V30 30065 C 2828.04 1.44843 0.81301 0
M  V30 30066 O 2829.23 1.73709 0.789283 0
M  V30 30067 C 2826.37 3.30444 0.995025 0
M  V30 30068 C 2825.48 4.31471 0.213675 0
M  V30 30069 C 2824.62 5.18224 1.16692 0
M  V30 30070 C 2823.66 6.10943 0.376094 0
M  V30 30071 N 2822.79 6.90315 1.28101 0
M  V30 30072 H 2827.63 2.89279 -0.71564 0
M  V30 30073 H 2825.17 1.42508 -0.36467 0
M  V30 30074 H 2827.13 3.86741 1.56483 0
M  V30 30075 H 2825.76 2.73583 1.71325 0
M  V30 30076 H 2824.81 3.77455 -0.472444 0
M  V30 30077 H 2826.12 4.97184 -0.401191 0
M  V30 30078 H 2825.28 5.79156 1.8073 0
M  V30 30079 H 2824.02 4.52641 1.81569 0
M  V30 30080 H 2823.02 5.49099 -0.27763 0
M  V30 30081 H 2824.25 6.7857 -0.268298 0
M  V30 30082 H 2822.19 6.27379 1.91655 0
M  V30 30083 H 2822.11 7.52556 0.720747 0
M  V30 30084 H 2823.38 7.5575 1.90949 0
M  V30 30085 N 2827.61 0.39689 1.52521 0
M  V30 30086 C 2828.83 -0.182714 2.06092 0
M  V30 30087 C 2829.25 -1.39884 1.26799 0
M  V30 30088 O 2828.61 -1.79733 0.316616 0
M  V30 30089 C 2828.66 -0.545314 3.57363 0
M  V30 30090 O 2828.38 0.622505 4.33655 0
M  V30 30091 C 2829.88 -1.17997 4.27307 0
M  V30 30092 H 2827.1 -0.0257772 0.670505 0
M  V30 30093 H 2829.64 0.564311 1.9656 0
M  V30 30094 H 2827.8 -1.24223 3.66943 0
M  V30 30095 H 2828.21 0.322754 5.23506 0
M  V30 30096 H 2829.69 -1.38398 5.34369 0
M  V30 30097 H 2830.16 -2.14954 3.83003 0
M  V30 30098 H 2830.77 -0.523597 4.22065 0
M  V30 30099 N 2829.08 -1.57088 0.126936 0
M  V30 30100 C 2830.02 -2.12819 -0.850936 0
M  V30 30101 C 2831.03 -1.07278 -1.22455 0
M  V30 30102 O 2832.22 -1.34624 -1.17212 0
M  V30 30103 C 2829.32 -2.61942 -2.15034 0
M  V30 30104 C 2828.49 -3.91667 -1.94719 0
M  V30 30105 C 2827.55 -4.26307 -3.08462 0
M  V30 30106 O 2826.58 -4.94986 -2.81029 0
M  V30 30107 N 2827.78 -3.84266 -4.35109 0
M  V30 30108 H 2830.54 -2.97348 -0.374748 0
M  V30 30109 H 2828.1 -1.61799 -0.0572509 0
M  V30 30110 H 2830.1 -2.8214 -2.90136 0
M  V30 30111 H 2828.67 -1.82249 -2.53977 0
M  V30 30112 H 2827.89 -3.80298 -1.03765 0
M  V30 30113 H 2829.17 -4.76476 -1.7846 0
M  V30 30114 H 2828.57 -3.28888 -4.60271 0
M  V30 30115 H 2827.13 -4.09557 -5.07057 0
M  V30 30116 N 2830.56 0.146848 -1.56914 0
M  V30 30117 C 2831.98 0.499492 -1.51582 0
M  V30 30118 C 2832.18 1.83367 -0.835383 0
M  V30 30119 O 2831.23 2.49215 -0.405976 0
M  V30 30120 C 2832.55 0.509659 -2.96349 0
M  V30 30121 C 2834.09 0.595163 -3.07289 0
M  V30 30122 C 2834.57 0.635991 -4.53563 0
M  V30 30123 N 2836.06 0.69821 -4.57907 0
M  V30 30124 C 2836.8 0.750786 -5.68464 0
M  V30 30125 N 2836.29 0.762699 -6.88589 0
M  V30 30126 N 2838.08 0.791679 -5.56497 0
M  V30 30127 H 2830.24 -0.727691 -1.99546 0
M  V30 30128 H 2832.5 -0.265343 -0.910108 0
M  V30 30129 H 2832.2 -0.402471 -3.4939 0
M  V30 30130 H 2832.08 1.34752 -3.52309 0
M  V30 30131 H 2834.47 1.49771 -2.54269 0
M  V30 30132 H 2834.55 -0.269845 -2.54373 0
M  V30 30133 H 2834.19 -0.262402 -5.07222 0
M  V30 30134 H 2834.12 1.51749 -5.04262 0
M  V30 30135 H 2836.61 0.696296 -3.7143 0
M  V30 30136 H 2836.92 0.804669 -7.68599 0
M  V30 30137 H 2835.27 0.730573 -6.9115 0
M  V30 30138 H 2838.46 0.779543 -4.61563 0
M  V30 30139 H 2838.63 0.829188 -6.42673 0
M  V30 30140 N 2832.04 1.52005 0.4162 0
M  V30 30141 C 2833.26 1.69846 1.19026 0
M  V30 30142 C 2833.69 0.404136 1.83707 0
M  V30 30143 O 2833.05 -0.637757 1.69713 0
M  V30 30144 C 2833.1 2.83036 2.23434 0
M  V30 30145 O 2832.2 2.48112 3.29415 0
M  V30 30146 H 2831.54 0.56564 0.347775 0
M  V30 30147 H 2834.07 1.98674 0.488836 0
M  V30 30148 H 2834.08 3.07742 2.67879 0
M  V30 30149 H 2832.76 3.76947 1.75738 0
M  V30 30150 H 2831.33 2.34053 2.90299 0
M  V30 30151 N 2833.52 -0.672992 1.42508 0
M  V30 30152 C 2834.45 -1.79852 1.42078 0
M  V30 30153 C 2835.46 -1.59632 0.319597 0
M  V30 30154 O 2836.65 -1.68718 0.582799 0
M  V30 30155 C 2833.75 -3.16984 1.19892 0
M  V30 30156 C 2832.92 -3.64037 2.42478 0
M  V30 30157 C 2831.98 -4.79909 2.1581 0
M  V30 30158 O 2831.01 -4.90361 2.89024 0
M  V30 30159 N 2832.21 -5.68744 1.16235 0
M  V30 30160 H 2834.98 -1.80706 2.39093 0
M  V30 30161 H 2832.54 -0.856147 1.37411 0
M  V30 30162 H 2834.53 -3.92159 0.99966 0
M  V30 30163 H 2833.1 -3.1102 0.313933 0
M  V30 30164 H 2832.32 -2.79521 2.77959 0
M  V30 30165 H 2833.61 -3.92217 3.24104 0
M  V30 30166 H 2833.01 -5.62953 0.556855 0
M  V30 30167 H 2831.56 -6.43723 1.02296 0
M  V30 30168 N 2835 -1.2871 -0.909472 0
M  V30 30169 C 2835.93 -1.08807 -2.01727 0
M  V30 30170 C 2836.94 -0.0385025 -1.62754 0
M  V30 30171 O 2838.13 -0.282008 -1.76258 0
M  V30 30172 C 2835.23 -0.632228 -3.32951 0
M  V30 30173 C 2834.4 -1.75816 -4.00509 0
M  V30 30174 C 2833.46 -1.29497 -5.10017 0
M  V30 30175 O 2832.49 -1.99796 -5.32982 0
M  V30 30176 N 2833.69 -0.160502 -5.80278 0
M  V30 30177 H 2836.45 -2.04211 -2.19358 0
M  V30 30178 H 2834.02 -1.2052 -1.08104 0
M  V30 30179 H 2836.01 -0.305873 -4.03542 0
M  V30 30180 H 2834.58 0.229079 -3.1176 0
M  V30 30181 H 2833.8 -2.25389 -3.23409 0
M  V30 30182 H 2835.09 -2.51333 -4.4239 0
M  V30 30183 H 2834.48 0.425838 -5.64095 0
M  V30 30184 H 2833.04 0.106549 -6.51713 0
M  V30 30185 N 2836.47 1.1185 -1.11028 0
M  V30 30186 C 2837.38 2.21349 -0.777291 0
M  V30 30187 C 2838.4 1.72502 0.227791 0
M  V30 30188 O 2839.58 2.01295 0.0650233 0
M  V30 30189 C 2836.64 3.45997 -0.220729 0
M  V30 30190 C 2835.7 4.09653 -1.28387 0
M  V30 30191 C 2834.93 5.2835 -0.753771 0
M  V30 30192 O 2835.16 5.68869 0.417679 0
M  V30 30193 O 2834.09 5.82481 -1.51657 0
M  V30 30194 H 2837.92 2.52237 -1.69146 0
M  V30 30195 H 2835.5 1.20304 -0.885857 0
M  V30 30196 H 2837.38 4.21313 0.0855016 0
M  V30 30197 H 2836.06 3.1677 0.666207 0
M  V30 30198 H 2834.97 3.36087 -1.64305 0
M  V30 30199 H 2836.3 4.43048 -2.14404 0
M  V30 30200 N 2837.95 0.89995 1.29378 0
M  V30 30201 C 2838.88 0.3945 2.30143 0
M  V30 30202 C 2839.86 -0.530611 1.61612 0
M  V30 30203 O 2841.05 -0.441286 1.8912 0
M  V30 30204 C 2838.18 -0.378619 3.4523 0
M  V30 30205 C 2837.13 0.456087 4.25563 0
M  V30 30206 C 2836.46 -0.444544 5.32849 0
M  V30 30207 C 2837.76 1.70613 4.93648 0
M  V30 30208 H 2839.45 1.23657 2.7267 0
M  V30 30209 H 2837 0.596057 1.31085 0
M  V30 30210 H 2838.95 -0.742964 4.14799 0
M  V30 30211 H 2837.67 -1.25448 3.01547 0
M  V30 30212 H 2836.33 0.802767 3.57703 0
M  V30 30213 H 2835.98 -1.31854 4.85411 0
M  V30 30214 H 2835.68 0.110257 5.87497 0
M  V30 30215 H 2837.21 -0.805076 6.05269 0
M  V30 30216 H 2838.62 1.41151 5.55652 0
M  V30 30217 H 2837.02 2.20227 5.58229 0
M  V30 30218 H 2838.09 2.44197 4.18922 0
M  V30 30219 N 2839.43 -1.43001 0.662458 0
M  V30 30220 C 2840.66 -2.06564 0.186039 0
M  V30 30221 C 2841.08 -1.49381 -1.14311 0
M  V30 30222 O 2840.44 -0.607376 -1.70823 0
M  V30 30223 C 2840.49 -3.60406 0.118333 0
M  V30 30224 O 2839.59 -4.02081 -0.916788 0
M  V30 30225 H 2838.93 -0.656562 0.0991096 0
M  V30 30226 H 2841.46 -1.83349 0.90799 0
M  V30 30227 H 2841.47 -4.07953 -0.0619264 0
M  V30 30228 H 2840.15 -4.01401 1.08856 0
M  V30 30229 H 2838.72 -3.66106 -0.70857 0
M  V30 30230 N 2840.91 -0.404973 -1.52308 0
M  V30 30231 C 2842.32 0.0655598 -1.86585 0
M  V30 30232 C 2842.67 1.44798 -1.32393 0
M  V30 30233 O 2841.8 2.0604 -0.661536 0
M  V30 30234 C 2842.39 0.125741 -3.38567 0
M  V30 30235 C 2840.95 0.5406 -3.72498 0
M  V30 30236 C 2840.1 -0.287535 -2.75805 0
M  V30 30237 H 2843.05 -0.622211 -1.45994 0
M  V30 30238 H 2843.07 0.941823 -3.6866 0
M  V30 30239 H 2842.58 -0.880539 -3.77979 0
M  V30 30240 H 2840.68 1.55367 -3.38662 0
M  V30 30241 H 2840.79 0.287872 -4.78234 0
M  V30 30242 H 2839.16 0.249517 -2.53475 0
M  V30 30243 H 2839.94 -1.29209 -3.18057 0
M  V30 30244 N 2842.39 1.57018 -0.135265 0
M  V30 30245 C 2843.63 1.96032 0.519529 0
M  V30 30246 C 2843.97 1.01958 1.65282 0
M  V30 30247 O 2843.24 0.0597611 1.94408 0
M  V30 30248 C 2843.52 3.4485 1.03684 0
M  V30 30249 C 2843.38 4.49701 -0.0941544 0
M  V30 30250 C 2844.7 3.9589 1.92247 0
M  V30 30251 H 2841.81 0.712782 0.187378 0
M  V30 30252 H 2844.46 1.8879 -0.214119 0
M  V30 30253 H 2842.61 3.51153 1.66203 0
M  V30 30254 H 2844.28 4.55486 -0.73008 0
M  V30 30255 H 2842.52 4.27179 -0.754999 0
M  V30 30256 H 2843.19 5.51133 0.309322 0
M  V30 30257 H 2845.67 3.91993 1.39574 0
M  V30 30258 H 2844.54 5.00506 2.25355 0
M  V30 30259 H 2844.81 3.37548 2.85507 0
M  V30 30260 N 2843.86 -0.138524 1.5699 0
M  V30 30261 C 2845.09 -0.868377 1.88345 0
M  V30 30262 C 2845.51 -1.73559 0.72519 0
M  V30 30263 O 2844.87 -1.78364 -0.324961 0
M  V30 30264 C 2844.92 -1.69393 3.18337 0
M  V30 30265 O 2844.02 -2.79902 3.02868 0
M  V30 30266 H 2843.37 -0.241356 0.618582 0
M  V30 30267 H 2845.9 -0.12679 2.04207 0
M  V30 30268 H 2845.91 -2.0872 3.50571 0
M  V30 30269 H 2844.58 -1.05717 4.0224 0
M  V30 30270 H 2843.16 -2.43919 2.8206 0
M  V30 30271 N 2845.34 -1.52224 -0.408133 0
M  V30 30272 C 2846.57 -1.70474 -1.18124 0
M  V30 30273 C 2846.99 -0.413872 -1.8349 0
M  V30 30274 O 2846.35 0.628748 -1.70048 0
M  V30 30275 C 2846.4 -2.84217 -2.2193 0
M  V30 30276 O 2845.5 -2.49856 -3.28094 0
M  V30 30277 H 2844.84 -0.567476 -0.344771 0
M  V30 30278 H 2847.37 -1.98931 -0.478293 0
M  V30 30279 H 2847.38 -3.09158 -2.66243 0
M  V30 30280 H 2846.06 -3.77873 -1.73737 0
M  V30 30281 H 2844.64 -2.35589 -2.89054 0
M  V30 30282 N 2846.82 0.665425 -1.42863 0
M  V30 30283 C 2848.07 1.42543 -1.43832 0
M  V30 30284 C 2848.4 1.94413 -0.0581456 0
M  V30 30285 O 2847.65 1.71921 0.934972 0
M  V30 30286 C 2847.95 2.63229 -2.41755 0
M  V30 30287 C 2847.62 2.29847 -3.87919 0
M  V30 30288 C 2846.28 2.20455 -4.2773 0
M  V30 30289 C 2848.63 2.02915 -4.80078 0
M  V30 30290 C 2845.96 1.8227 -5.57669 0
M  V30 30291 C 2848.31 1.66231 -6.10369 0
M  V30 30292 C 2846.97 1.55356 -6.49169 0
M  V30 30293 H 2846.24 0.521602 -0.526319 0
M  V30 30294 H 2848.89 0.757883 -1.75865 0
M  V30 30295 H 2847.2 3.35059 -2.03082 0
M  V30 30296 H 2848.89 3.21425 -2.39765 0
M  V30 30297 H 2845.48 2.38063 -3.56404 0
M  V30 30298 H 2849.67 2.091 -4.50101 0
M  V30 30299 H 2844.92 1.72426 -5.86583 0
M  V30 30300 H 2849.1 1.4442 -6.8126 0
M  V30 30301 H 2846.72 1.25537 -7.49763 0
M  V30 30302 O 2848.34 1.39823 0.808202 0
M  V30 30303 H 2849.03 1.28115 1.4528 0
M  V30 END ATOM
M  V30 BEGIN BOND
M  V30 END BOND
M  V30 END CTAB
M  END
$$$$
