drugbank_target|P07173 Photosynthetic reaction center cytochrome c subunit (DB04147; DB04464; DB07392; DB07551; DB07552; DB08215; DB08689; DB08690)
 OpenBabel12092120423D

  0  0  0     0  0            999 V3000
M  V30 BEGIN CTAB
M  V30 COUNTS 5535 5602 0 0 0
M  V30 BEGIN ATOM
M  V30 1 H -0.908 1.98254 -0.117106 0
M  V30 2 N 0 1.576 0 0
M  V30 3 C 0.933 2.03868 1.02534 0
M  V30 4 C 1.911 0.928543 1.3348 0
M  V30 5 O 3.095 1.19667 1.45644 0
M  V30 6 C 0.222 2.43627 2.35294 0
M  V30 7 C -0.732 3.65373 2.2001 0
M  V30 8 S 0.101 5.13292 1.52614 0
M  V30 9 C 1.257 5.56322 2.86805 0
M  V30 10 H 1.49 2.90518 0.631377 0
M  V30 11 H -0.977 1.52953 0.210867 0
M  V30 12 H 0.981 2.67203 3.11629 0
M  V30 13 H -0.358 1.57376 2.7183 0
M  V30 14 H -1.165 3.90944 3.18086 0
M  V30 15 H -1.563 3.418 1.51819 0
M  V30 16 H 0.729 5.58782 3.83104 0
M  V30 17 H 1.672 6.56266 2.65933 0
M  V30 18 H 2.08 4.83886 2.90714 0
M  V30 19 N 1.4781 -0.272755 1.55222 0
M  V30 20 C 2.4251 -1.33716 1.88119 0
M  V30 21 C 3.3951 -1.49066 0.73271 0
M  V30 22 O 4.5801 -1.63469 0.984002 0
M  V30 23 C 1.7201 -2.69238 2.15882 0
M  V30 24 C 0.8331 -2.62108 3.43399 0
M  V30 25 C -0.0319 -3.89811 3.60861 0
M  V30 26 C -0.9929 -3.77193 4.8207 0
M  V30 27 N -1.8559 -4.9673 4.96189 0
M  V30 28 H 2.9841 -1.04962 2.78903 0
M  V30 29 H 0.5211 -0.507088 1.38083 0
M  V30 30 H 2.4791 -3.48089 2.29978 0
M  V30 31 H 1.1091 -2.96194 1.28331 0
M  V30 32 H 0.1611 -1.74967 3.37773 0
M  V30 33 H 1.4731 -2.48685 4.32386 0
M  V30 34 H 0.6271 -4.77103 3.74777 0
M  V30 35 H -0.6339 -4.06102 2.7006 0
M  V30 36 H -1.6289 -2.88284 4.68159 0
M  V30 37 H -0.4039 -3.62421 5.74307 0
M  V30 38 H -2.4579 -5.13431 4.08319 0
M  V30 39 H -2.5409 -4.85839 5.79221 0
M  V30 40 H -1.2729 -5.85594 5.1449 0
M  V30 41 N 2.9562 -1.48159 -0.537278 0
M  V30 42 C 3.8882 -1.58218 -1.65831 0
M  V30 43 C 4.9012 -0.466948 -1.5596 0
M  V30 44 O 6.0902 -0.73747 -1.62553 0
M  V30 45 C 3.1902 -1.48906 -3.04434 0
M  V30 46 C 2.3632 -2.75343 -3.3986 0
M  V30 47 C 1.4222 -2.59588 -4.57712 0
M  V30 48 O 0.4482 -3.33457 -4.61297 0
M  V30 49 N 1.6502 -1.68724 -5.55439 0
M  V30 50 H 4.4152 -2.54891 -1.57641 0
M  V30 51 H 1.9762 -1.4479 -0.724386 0
M  V30 52 H 3.9682 -1.36072 -3.81139 0
M  V30 53 H 2.5382 -0.602368 -3.06741 0
M  V30 54 H 1.7582 -3.02795 -2.52406 0
M  V30 55 H 3.0462 -3.5924 -3.60311 0
M  V30 56 H 2.4442 -1.07898 -5.55315 0
M  V30 57 H 1.0012 -1.61832 -6.3139 0
M  V30 58 N 4.4343 0.785586 -1.36625 0
M  V30 59 C 5.3643 1.91259 -1.33949 0
M  V30 60 C 6.3453 1.68795 -0.210325 0
M  V30 61 O 7.5303 1.89854 -0.408561 0
M  V30 62 C 4.6603 3.28339 -1.13186 0
M  V30 63 C 3.6143 3.65335 -2.22967 0
M  V30 64 C 2.9403 5.00806 -1.87342 0
M  V30 65 C 4.2403 3.7352 -3.65075 0
M  V30 66 H 5.9343 1.93755 -2.28253 0
M  V30 67 H 3.4803 0.930788 -1.09874 0
M  V30 68 H 5.4333 4.06804 -1.09948 0
M  V30 69 H 4.1573 3.2624 -0.153332 0
M  V30 70 H 2.8163 2.89169 -2.25337 0
M  V30 71 H 2.4643 4.95233 -0.880545 0
M  V30 72 H 2.1643 5.26529 -2.60846 0
M  V30 73 H 3.6883 5.81687 -1.85667 0
M  V30 74 H 5.1023 4.42168 -3.64911 0
M  V30 75 H 3.4993 4.10731 -4.37516 0
M  V30 76 H 4.5693 2.74527 -3.99703 0
M  V30 77 N 5.9124 1.20967 1.01018 0
M  V30 78 C 7.1614 1.01796 1.74128 0
M  V30 79 C 7.4744 -0.449691 1.90361 0
M  V30 80 O 8.6804 -0.76068 2.60626 0
M  V30 81 C 7.1364 1.7727 3.13215 0
M  V30 82 C 6.7444 3.28171 3.04972 0
M  V30 83 C 8.4884 1.66489 3.90489 0
M  V30 84 C 6.3954 3.96156 4.39107 0
M  V30 85 H 5.3254 0.377276 0.652824 0
M  V30 86 H 7.9764 1.44651 1.12909 0
M  V30 87 H 6.3584 1.27205 3.75013 0
M  V30 88 H 7.5324 3.85499 2.52443 0
M  V30 89 H 5.8474 3.39437 2.41188 0
M  V30 90 H 8.4444 2.14617 4.89738 0
M  V30 91 H 8.7874 0.6222 4.11624 0
M  V30 92 H 9.3204 2.14003 3.35332 0
M  V30 93 H 6.0594 5.00604 4.23174 0
M  V30 94 H 5.5794 3.43617 4.91617 0
M  V30 95 H 7.2584 4.00774 5.07926 0
M  V30 96 N 7.3905 -1.2043 1.01659 0
M  V30 97 C 8.6365 -1.90079 0.706963 0
M  V30 98 C 8.9695 -1.78648 -0.761474 0
M  V30 99 O 8.2445 -1.17069 -1.55323 0
M  V30 100 C 8.5275 -3.41469 1.14327 0
M  V30 101 C 8.3805 -3.61833 2.67201 0
M  V30 102 C 9.6995 -4.34261 0.714529 0
M  V30 103 H 6.8185 -0.690254 0.2583 0
M  V30 104 H 9.4605 -1.41826 1.26433 0
M  V30 105 H 7.6105 -3.82696 0.669056 0
M  V30 106 H 9.2825 -3.2986 3.22475 0
M  V30 107 H 7.5255 -3.05304 3.08175 0
M  V30 108 H 8.1965 -4.67955 2.92783 0
M  V30 109 H 10.6725 -4.00682 1.12221 0
M  V30 110 H 9.5485 -5.38806 1.04784 0
M  V30 111 H 9.8095 -4.40431 -0.383799 0
M  V30 112 N 8.8686 -0.792821 -1.36206 0
M  V30 113 C 9.8166 -0.181555 -2.3189 0
M  V30 114 C 10.8106 0.661025 -1.55971 0
M  V30 115 O 12.0166 0.555728 -1.71206 0
M  V30 116 H 8.3916 -0.0399382 -0.750939 0
M  V30 117 H 10.3626 -1.00394 -2.81005 0
M  V30 118 C 9.1116 0.666444 -3.41253 0
M  V30 119 H 8.4346 0.0274489 -3.99791 0
M  V30 120 H 9.8746 1.06076 -4.10517 0
M  V30 121 C 8.3336 1.82614 -2.83114 0
M  V30 122 O 8.8636 2.9229 -2.75553 0
M  V30 123 N 7.0696 1.63333 -2.40356 0
M  V30 124 H 6.6166 0.741217 -2.46706 0
M  V30 125 H 6.5746 2.41087 -2.01803 0
M  V30 126 N 10.3467 1.47872 -0.545128 0
M  V30 127 C 11.5717 2.07391 -0.0190611 0
M  V30 128 C 11.9967 1.39688 1.25971 0
M  V30 129 O 11.3547 0.467816 1.7516 0
M  V30 130 C 11.4027 3.60188 0.172335 0
M  V30 131 O 10.5067 3.9339 1.23766 0
M  V30 132 H 9.8477 0.662411 -0.0459059 0
M  V30 133 H 12.3777 1.90066 -0.757365 0
M  V30 134 H 12.3877 4.06129 0.390305 0
M  V30 135 H 11.0627 4.08865 -0.761725 0
M  V30 136 H 9.6397 3.5921 1.00114 0
M  V30 137 N 11.8248 0.280983 1.55075 0
M  V30 138 C 13.0708 -0.33461 2.00021 0
M  V30 139 C 13.4038 -1.55063 1.16915 0
M  V30 140 O 12.6788 -1.93006 0.240646 0
M  V30 141 C 12.9618 -0.711007 3.53011 0
M  V30 142 C 12.8148 0.512766 4.46868 0
M  V30 143 C 14.1338 -1.54522 4.12081 0
M  V30 144 H 11.2528 -0.120147 0.727141 0
M  V30 145 H 13.8948 0.389097 1.85973 0
M  V30 146 H 12.0448 -1.32761 3.65112 0
M  V30 147 H 13.7168 1.15131 4.46702 0
M  V30 148 H 11.9598 1.14975 4.18286 0
M  V30 149 H 12.6308 0.205556 5.51617 0
M  V30 150 H 15.1068 -1.02442 4.03293 0
M  V30 151 H 13.9828 -1.77739 5.19327 0
M  V30 152 H 14.2438 -2.52813 3.62682 0
M  V30 153 N 13.3029 -1.57598 0.00835791 0
M  V30 154 C 14.2659 -2.07884 -0.965242 0
M  V30 155 C 15.2659 -0.989825 -1.26725 0
M  V30 156 O 16.4559 -1.25218 -1.21104 0
M  V30 157 C 13.5879 -2.52731 -2.28779 0
M  V30 158 H 14.7809 -2.95178 -0.530112 0
M  V30 159 H 12.3339 -1.54458 -0.239283 0
M  V30 160 H 13.0689 -1.68705 -2.76964 0
M  V30 161 H 12.8539 -3.32272 -2.08177 0
M  V30 162 H 14.3439 -2.91933 -2.98605 0
M  V30 163 N 14.781 0.264519 -1.55364 0
M  V30 164 C 16.009 1.013 -1.80405 0
M  V30 165 C 16.424 1.79618 -0.581622 0
M  V30 166 O 15.781 1.76879 0.449468 0
M  V30 167 C 15.832 1.96487 -3.03439 0
M  V30 168 O 15.553 1.21341 -4.20961 0
M  V30 169 C 17.054 2.83079 -3.41147 0
M  V30 170 H 14.274 0.298875 -0.600762 0
M  V30 171 H 16.818 0.292736 -2.02394 0
M  V30 172 H 14.973 2.63965 -2.83551 0
M  V30 173 H 15.387 1.85573 -4.90574 0
M  V30 174 H 16.861 3.4565 -4.30384 0
M  V30 175 H 17.338 3.53286 -2.60932 0
M  V30 176 H 17.944 2.2108 -3.63323 0
M  V30 177 N 16.2591 1.48442 0.529413 0
M  V30 178 C 17.5051 1.5672 1.28711 0
M  V30 179 C 17.8381 0.2406 1.92704 0
M  V30 180 O 17.1131 -0.753454 1.79313 0
M  V30 181 C 17.3961 2.70587 2.37603 0
M  V30 182 C 17.2491 4.12953 1.78297 0
M  V30 183 C 18.5681 2.80212 3.39366 0
M  V30 184 H 15.6871 0.570474 0.466613 0
M  V30 185 H 18.3291 1.80617 0.589706 0
M  V30 186 H 16.4791 2.50342 2.97088 0
M  V30 187 H 18.1511 4.44639 1.22858 0
M  V30 188 H 16.3941 4.19927 1.0883 0
M  V30 189 H 17.0651 4.88448 2.57144 0
M  V30 190 H 19.5411 2.98553 2.89836 0
M  V30 191 H 18.4171 3.61611 4.12951 0
M  V30 192 H 18.6781 1.88393 3.99951 0
M  V30 193 N 17.7372 -0.778329 1.37039 0
M  V30 194 C 18.7002 -1.87301 1.32102 0
M  V30 195 C 19.7002 -1.59198 0.226405 0
M  V30 196 O 20.8902 -1.67403 0.481861 0
M  V30 197 C 18.0222 -3.24309 1.05055 0
M  V30 198 H 19.2152 -1.93093 2.29467 0
M  V30 199 H 16.7682 -0.977358 1.21973 0
M  V30 200 H 17.5032 -3.24196 0.0819373 0
M  V30 201 H 17.2882 -3.46098 1.84279 0
M  V30 202 H 18.7782 -4.04382 1.04234 0
M  V30 203 N 19.2153 -1.21501 -1.00376 0
M  V30 204 C 20.1453 -0.999478 -2.11028 0
M  V30 205 C 21.1263 0.0759671 -1.6993 0
M  V30 206 O 22.3113 -0.0841106 -1.94018 0
M  V30 207 C 19.4413 -0.564709 -3.42678 0
M  V30 208 C 18.3953 -1.58486 -3.97576 0
M  V30 209 C 17.7213 -1.00628 -5.25146 0
M  V30 210 C 19.0213 -2.97204 -4.29496 0
M  V30 211 H 20.7153 -1.92495 -2.29317 0
M  V30 212 H 18.2613 -0.92693 -1.102 0
M  V30 213 H 20.2143 -0.401091 -4.19487 0
M  V30 214 H 18.9383 0.396411 -3.24185 0
M  V30 215 H 17.5973 -1.73606 -3.22888 0
M  V30 216 H 17.2453 -0.0368439 -5.02987 0
M  V30 217 H 16.9453 -1.68771 -5.62841 0
M  V30 218 H 18.4693 -0.854015 -6.04598 0
M  V30 219 H 19.8833 -2.8552 -4.97143 0
M  V30 220 H 18.2803 -3.62372 -4.78338 0
M  V30 221 H 19.3503 -3.47956 -3.3772 0
M  V30 222 N 20.6934 1.19889 -1.02296 0
M  V30 223 C 21.6564 2.21116 -0.603351 0
M  V30 224 C 22.6564 1.5738 0.329884 0
M  V30 225 O 23.8464 1.73802 0.117702 0
M  V30 226 C 20.9784 3.40696 0.117992 0
M  V30 227 H 22.1714 2.59754 -1.49893 0
M  V30 228 H 19.7244 1.33463 -0.813468 0
M  V30 229 H 20.4594 3.07569 1.0282 0
M  V30 230 H 20.2444 3.88188 -0.552511 0
M  V30 231 H 21.7344 4.15692 0.398696 0
M  V30 232 N 22.1715 0.800033 1.35784 0
M  V30 233 C 23.3965 0.388511 2.03729 0
M  V30 234 C 23.8215 -0.990481 1.5991 0
M  V30 235 O 23.1795 -1.64013 0.772612 0
M  V30 236 C 23.2275 0.4726 3.5749 0
M  V30 237 O 22.3315 -0.51646 4.09153 0
M  V30 238 H 21.6725 0.163271 0.643614 0
M  V30 239 H 24.2025 1.0841 1.73518 0
M  V30 240 H 24.2125 0.34003 4.06581 0
M  V30 241 H 22.8875 1.47848 3.88734 0
M  V30 242 H 21.4645 -0.344673 3.71304 0
M  V30 243 N 23.6496 -1.47581 0.552962 0
M  V30 244 C 24.5796 -2.32762 -0.185451 0
M  V30 245 C 25.5606 -1.43527 -0.912905 0
M  V30 246 O 26.7456 -1.72388 -0.894201 0
M  V30 247 C 23.8756 -3.25219 -1.21859 0
M  V30 248 C 22.8296 -4.23661 -0.607864 0
M  V30 249 C 22.1556 -5.05413 -1.74533 0
M  V30 250 C 23.4556 -5.20481 0.435582 0
M  V30 251 H 25.1496 -2.94749 0.525684 0
M  V30 252 H 22.6956 -1.41738 0.254251 0
M  V30 253 H 24.6486 -3.8365 -1.7433 0
M  V30 254 H 23.3726 -2.61279 -1.95961 0
M  V30 255 H 22.0316 -3.66451 -0.104489 0
M  V30 256 H 21.6796 -4.3788 -2.47529 0
M  V30 257 H 21.3796 -5.72059 -1.34249 0
M  V30 258 H 22.9036 -5.66701 -2.27338 0
M  V30 259 H 24.3176 -5.733 -0.00290157 0
M  V30 260 H 22.7146 -5.95305 0.757067 0
M  V30 261 H 23.7846 -4.66217 1.33303 0
M  V30 262 N 25.1277 -0.289203 -1.54924 0
M  V30 263 C 26.3737 0.323998 -2.00195 0
M  V30 264 C 26.7067 1.54441 -1.17735 0
M  V30 265 O 25.9817 1.92875 -0.250878 0
M  V30 266 C 26.2647 0.692276 -3.53383 0
M  V30 267 C 26.1177 -0.536457 -4.46589 0
M  V30 268 C 27.4367 1.52335 -4.12895 0
M  V30 269 H 24.5557 0.116289 -0.727768 0
M  V30 270 H 27.1977 -0.398954 -1.85764 0
M  V30 271 H 25.3477 1.30822 -3.65811 0
M  V30 272 H 27.0197 -1.17499 -4.46085 0
M  V30 273 H 25.2627 -1.17192 -4.1767 0
M  V30 274 H 25.9337 -0.234806 -5.515 0
M  V30 275 H 28.4097 1.00302 -4.0383 0
M  V30 276 H 27.2857 1.74982 -5.20262 0
M  V30 277 H 27.5467 2.50886 -3.64018 0
M  V30 278 N 26.6058 1.57591 -0.0167156 0
M  V30 279 C 27.5688 2.08393 0.954204 0
M  V30 280 C 28.5688 0.996531 1.26198 0
M  V30 281 O 29.7588 1.25858 1.20438 0
M  V30 282 C 26.8908 2.5394 2.27436 0
M  V30 283 H 28.0838 2.95455 0.514451 0
M  V30 284 H 25.6368 1.54582 0.231089 0
M  V30 285 H 26.3718 1.70171 2.76066 0
M  V30 286 H 26.1568 3.33371 2.06412 0
M  V30 287 H 27.6468 2.93512 2.97053 0
M  V30 288 N 28.0839 -0.256276 1.55502 0
M  V30 289 C 29.3319 -0.983672 1.76545 0
M  V30 290 C 29.6529 -1.86206 0.578982 0
M  V30 291 O 28.9229 -1.91656 -0.405577 0
M  V30 292 H 27.5029 -0.366191 0.651086 0
M  V30 293 H 30.1649 -0.276479 1.92929 0
M  V30 294 H 29.2609 -1.61087 2.67315 0
M  V30 295 N 29.562 -1.4872 -0.521534 0
M  V30 296 C 30.802 -1.58771 -1.28729 0
M  V30 297 C 31.166 -0.259394 -1.9024 0
M  V30 298 O 32.367 -0.234942 -2.67771 0
M  V30 299 C 30.638 -2.70039 -2.34124 0
M  V30 300 S 32.197 -2.9991 -3.20312 0
M  V30 301 H 29.015 -0.560251 -0.437767 0
M  V30 302 H 31.617 -1.86283 -0.593188 0
M  V30 303 H 30.321 -3.65101 -1.87429 0
M  V30 304 H 29.852 -2.44455 -3.08229 0
M  V30 305 H 31.867 -2.39855 -4.34378 0
M  V30 306 N 31.0401 0.771051 -1.3745 0
M  V30 307 C 32.2871 1.52963 -1.32697 0
M  V30 308 C 32.6151 1.94299 0.0883274 0
M  V30 309 O 31.8701 1.64397 1.0617 0
M  V30 310 C 32.1691 2.80676 -2.2126 0
M  V30 311 C 31.8351 2.58389 -3.69521 0
M  V30 312 C 30.4971 2.52019 -4.09927 0
M  V30 313 C 32.8491 2.38469 -4.63446 0
M  V30 314 C 30.1771 2.23721 -5.42371 0
M  V30 315 C 32.5291 2.11694 -5.96128 0
M  V30 316 C 31.1931 2.03769 -6.35637 0
M  V30 317 H 30.4631 0.559732 -0.485573 0
M  V30 318 H 33.1101 0.888083 -1.69662 0
M  V30 319 H 31.4151 3.49392 -1.77291 0
M  V30 320 H 33.1121 3.38557 -2.14895 0
M  V30 321 H 29.7021 2.6421 -3.37478 0
M  V30 322 H 33.8861 2.4238 -4.33089 0
M  V30 323 H 29.1421 2.16081 -5.71943 0
M  V30 324 H 33.3161 1.9528 -6.6846 0
M  V30 325 H 30.9431 1.81606 -7.38189 0
M  V30 326 N 32.5182 1.22032 0.997298 0
M  V30 327 C 33.4282 1.00271 2.12092 0
M  V30 328 C 34.4442 -0.047621 1.73935 0
M  V30 329 O 35.6202 0.144136 2.00884 0
M  V30 330 C 32.6852 0.578449 3.4184 0
M  V30 331 C 31.7462 1.70189 3.94125 0
M  V30 332 C 30.9792 1.29778 5.17681 0
M  V30 333 O 31.2022 0.174676 5.70132 0
M  V30 334 O 30.1362 2.11261 5.63607 0
M  V30 335 H 33.9622 1.94398 2.3333 0
M  V30 336 H 31.5472 1.00587 1.10465 0
M  V30 337 H 33.4292 0.351998 4.19927 0
M  V30 338 H 32.1042 -0.334019 3.21972 0
M  V30 339 H 31.0112 1.98282 3.1723 0
M  V30 340 H 32.3442 2.59206 4.18417 0
M  V30 341 N 33.9963 -1.19345 1.0293 0
M  V30 342 C 35.4073 -1.70725 0.755633 0
M  V30 343 C 35.7583 -1.82326 -0.724676 0
M  V30 344 O 34.8833 -1.49471 -1.56484 0
M  V30 345 C 35.4783 -3.10084 1.36503 0
M  V30 346 C 34.0373 -3.58723 1.13994 0
M  V30 347 C 33.1843 -2.35577 1.46283 0
M  V30 348 H 36.1353 -1.0418 1.19718 0
M  V30 349 H 36.1563 -3.72787 0.762217 0
M  V30 350 H 35.6683 -3.01609 2.44241 0
M  V30 351 H 33.7693 -3.72512 0.0807901 0
M  V30 352 H 33.8823 -4.42816 1.82894 0
M  V30 353 H 32.2463 -2.38935 0.88217 0
M  V30 354 H 33.0293 -2.29731 2.55105 0
M  V30 355 N 35.4744 -0.807222 -1.35358 0
M  V30 356 C 36.8854 -0.44876 -1.81226 0
M  V30 357 C 37.2364 1.02929 -1.67033 0
M  V30 358 O 36.3614 1.79991 -1.20133 0
M  V30 359 C 36.9564 -0.807774 -3.2903 0
M  V30 360 C 35.5154 -0.501901 -3.73039 0
M  V30 361 C 34.6624 -1.03304 -2.57339 0
M  V30 362 H 37.6134 -0.998808 -1.23327 0
M  V30 363 H 37.6344 -0.10554 -3.80354 0
M  V30 364 H 37.1464 -1.88357 -3.39328 0
M  V30 365 H 35.2474 0.565128 -3.68289 0
M  V30 366 H 35.3604 -1.03497 -4.67787 0
M  V30 367 H 33.7244 -0.455339 -2.50597 0
M  V30 368 H 34.5074 -2.11496 -2.70415 0
M  V30 369 N 36.9525 1.47285 -0.560781 0
M  V30 370 C 38.3635 1.86258 -0.128343 0
M  V30 371 C 38.7145 1.46699 1.30284 0
M  V30 372 O 37.8395 0.871698 1.98067 0
M  V30 373 C 38.4345 3.38044 -0.22614 0
M  V30 374 C 36.9935 3.76096 0.151283 0
M  V30 375 C 36.1405 2.71335 -0.572084 0
M  V30 376 H 39.0915 1.38752 -0.770297 0
M  V30 377 H 39.1125 3.76441 0.554322 0
M  V30 378 H 38.6245 3.66806 -1.26788 0
M  V30 379 H 36.7255 3.52951 1.19399 0
M  V30 380 H 36.8385 4.78641 -0.209765 0
M  V30 381 H 35.2025 2.54696 -0.0147653 0
M  V30 382 H 35.9855 3.02938 -1.61504 0
M  V30 383 N 38.4306 0.297415 1.54768 0
M  V30 384 C 39.3936 -0.567375 2.22066 0
M  V30 385 C 40.3936 -1.06409 1.20556 0
M  V30 386 O 41.5836 -0.960691 1.45315 0
M  V30 387 C 38.7156 -1.78517 2.90421 0
M  V30 388 H 39.9086 0.0205534 2.99893 0
M  V30 389 H 37.4616 0.0482163 1.56226 0
M  V30 390 H 38.1966 -2.41303 2.16664 0
M  V30 391 H 37.9816 -1.43669 3.64831 0
M  V30 392 H 39.4716 -2.39964 3.41771 0
M  V30 393 N 39.9087 -1.5758 0.0250728 0
M  V30 394 C 41.1367 -1.9593 -0.664747 0
M  V30 395 C 41.5517 -0.901352 -1.65895 0
M  V30 396 O 40.9087 0.117255 -1.82123 0
M  V30 397 C 40.9597 -3.34342 -1.37468 0
M  V30 398 O 40.6807 -4.36079 -0.420324 0
M  V30 399 C 42.1817 -3.873 -2.1567 0
M  V30 400 H 39.4017 -0.645405 -0.183557 0
M  V30 401 H 41.9457 -2.04329 0.0836372 0
M  V30 402 H 40.1007 -3.27175 -2.0745 0
M  V30 403 H 40.5147 -5.16297 -0.923991 0
M  V30 404 H 41.9887 -4.86504 -2.60803 0
M  V30 405 H 42.4657 -3.21331 -2.99405 0
M  V30 406 H 43.0717 -3.97723 -1.50654 0
M  V30 407 N 41.3868 0.248026 -1.55636 0
M  V30 408 C 42.6148 0.993808 -1.81469 0
M  V30 409 C 43.0298 1.78991 -0.60064 0
M  V30 410 O 42.3868 1.77345 0.430682 0
M  V30 411 C 42.4378 1.93258 -3.05506 0
M  V30 412 O 42.1588 1.16869 -4.22224 0
M  V30 413 C 43.6598 2.79444 -3.4413 0
M  V30 414 H 40.8798 0.292486 -0.603898 0
M  V30 415 H 43.4238 0.271253 -2.02693 0
M  V30 416 H 41.5788 2.60943 -2.86335 0
M  V30 417 H 41.9928 1.80359 -4.92515 0
M  V30 418 H 43.4668 3.41066 -4.34026 0
M  V30 419 H 43.9438 3.50499 -2.64665 0
M  V30 420 H 44.5498 2.17214 -3.65648 0
M  V30 421 N 42.8649 1.48995 0.513639 0
M  V30 422 C 44.0929 1.61531 1.29288 0
M  V30 423 C 44.5079 0.281801 1.86685 0
M  V30 424 O 43.8649 -0.731111 1.67215 0
M  V30 425 C 43.9159 2.67449 2.43215 0
M  V30 426 O 43.6369 3.95626 1.88179 0
M  V30 427 C 45.1379 2.90575 3.34785 0
M  V30 428 H 42.3579 0.544165 0.392588 0
M  V30 429 H 44.9019 1.9494 0.617956 0
M  V30 430 H 43.0569 2.36853 3.0656 0
M  V30 431 H 43.4709 4.53868 2.62876 0
M  V30 432 H 44.9449 3.68449 4.11035 0
M  V30 433 H 45.4219 2.00011 3.91015 0
M  V30 434 H 46.0279 3.22538 2.77218 0
M  V30 435 N 44.343 -0.763751 1.37857 0
M  V30 436 C 45.275 -1.88664 1.30148 0
M  V30 437 C 46.288 -1.61365 0.215685 0
M  V30 438 O 47.477 -1.72134 0.472459 0
M  V30 439 C 44.577 -3.24075 0.991396 0
M  V30 440 C 43.75 -3.78958 2.18426 0
M  V30 441 C 42.809 -4.92862 1.8432 0
M  V30 442 O 41.835 -5.08027 2.56704 0
M  V30 443 N 43.037 -5.75071 0.792081 0
M  V30 444 H 45.802 -1.95791 2.26905 0
M  V30 445 H 43.363 -0.943226 1.31586 0
M  V30 446 H 45.355 -3.97804 0.743935 0
M  V30 447 H 43.925 -3.12399 0.112122 0
M  V30 448 H 43.145 -2.96913 2.59299 0
M  V30 449 H 44.433 -4.12357 2.98058 0
M  V30 450 H 43.831 -5.65375 0.191595 0
M  V30 451 H 42.388 -6.48991 0.60449 0
M  V30 452 N 45.8211 -1.22559 -0.990812 0
M  V30 453 C 47.0491 -1.07779 -1.76611 0
M  V30 454 C 47.4641 0.371513 -1.85109 0
M  V30 455 O 46.8211 1.25737 -1.32274 0
M  V30 456 C 46.8721 -1.68512 -3.19822 0
M  V30 457 O 46.5931 -3.07774 -3.1178 0
M  V30 458 C 48.0941 -1.59035 -4.13791 0
M  V30 459 H 45.3141 -0.377729 -0.554583 0
M  V30 460 H 47.8581 -1.62195 -1.24551 0
M  V30 461 H 46.0131 -1.18154 -3.68942 0
M  V30 462 H 46.4271 -3.37062 -4.01858 0
M  V30 463 H 47.9011 -2.0625 -5.1202 0
M  V30 464 H 48.3781 -0.547273 -4.35777 0
M  V30 465 H 48.9841 -2.08709 -3.70568 0
M  V30 466 N 47.2992 1.18797 -1.03562 0
M  V30 467 C 48.5472 1.88278 -0.734569 0
M  V30 468 C 48.8682 1.8043 0.739586 0
M  V30 469 O 48.1382 1.21925 1.53333 0
M  V30 470 H 46.7182 0.696991 -0.268725 0
M  V30 471 H 49.3802 1.44192 -1.31129 0
M  V30 472 H 48.4762 2.94443 -1.03489 0
M  V30 473 N 48.7773 0.814389 1.34928 0
M  V30 474 C 50.0243 0.398423 1.98542 0
M  V30 475 C 50.3523 -1.03638 1.64589 0
M  V30 476 O 49.6073 -1.73509 0.90516 0
M  V30 477 C 49.9063 0.537781 3.53331 0
M  V30 478 C 49.5723 1.93704 4.07172 0
M  V30 479 C 48.2343 2.31984 4.21589 0
M  V30 480 C 50.5863 2.85213 4.36237 0
M  V30 481 C 47.9143 3.61125 4.62391 0
M  V30 482 C 50.2663 4.13809 4.78482 0
M  V30 483 C 48.9303 4.52077 4.91104 0
M  V30 484 H 48.2003 0.145793 0.726516 0
M  V30 485 H 50.8473 1.03669 1.61012 0
M  V30 486 H 49.1523 -0.183906 3.91368 0
M  V30 487 H 50.8493 0.196588 4.00518 0
M  V30 488 H 47.4393 1.62966 3.96409 0
M  V30 489 H 51.6233 2.56885 4.24645 0
M  V30 490 H 46.8793 3.90612 4.70353 0
M  V30 491 H 51.0533 4.84811 4.99932 0
M  V30 492 H 48.6803 5.52196 5.22478 0
M  V30 493 N 50.2554 -1.46986 0.568584 0
M  V30 494 C 51.6714 -1.57946 0.229189 0
M  V30 495 C 51.8714 -1.56567 -1.26843 0
M  V30 496 O 50.9274 -1.47511 -2.04931 0
M  V30 497 C 52.2404 -2.87963 0.865909 0
M  V30 498 C 53.7884 -3.01568 0.838188 0
M  V30 499 C 54.2634 -4.34301 1.45419 0
M  V30 500 N 55.7544 -4.40965 1.41788 0
M  V30 501 C 56.4894 -5.42256 1.86403 0
M  V30 502 N 55.9854 -6.50297 2.38926 0
M  V30 503 N 57.7784 -5.3337 1.77405 0
M  V30 504 H 49.9294 -1.46126 1.54146 0
M  V30 505 H 52.1924 -0.696156 0.643484 0
M  V30 506 H 51.8984 -2.94742 1.91886 0
M  V30 507 H 51.7724 -3.75423 0.365687 0
M  V30 508 H 54.1594 -2.94379 -0.206106 0
M  V30 509 H 54.2404 -2.1562 1.37629 0
M  V30 510 H 53.8844 -4.42247 2.49761 0
M  V30 511 H 53.8144 -5.19 0.891435 0
M  V30 512 H 56.3054 -3.63484 1.03381 0
M  V30 513 H 56.6184 -7.23777 2.70863 0
M  V30 514 H 54.9634 -6.51155 2.42944 0
M  V30 515 H 58.1544 -4.47865 1.3614 0
M  V30 516 H 58.3274 -6.12169 2.12492 0
M  V30 517 N 51.7335 -0.305618 -1.54608 0
M  V30 518 C 52.9815 0.301701 -1.99835 0
M  V30 519 C 53.3025 1.54054 -1.19551 0
M  V30 520 O 52.5725 1.93702 -0.292658 0
M  V30 521 H 51.1525 0.114468 -0.738178 0
M  V30 522 H 53.8145 -0.418016 -1.90364 0
M  V30 523 H 52.9105 0.570548 -3.06841 0
M  V30 524 N 53.2116 1.57565 -0.0334293 0
M  V30 525 C 54.1416 2.13511 0.945265 0
M  V30 526 C 55.1226 1.05231 1.33643 0
M  V30 527 O 56.3076 1.33084 1.41429 0
M  V30 528 C 53.4376 2.6657 2.22616 0
M  V30 529 C 52.3916 3.79676 1.97561 0
M  V30 530 C 51.7176 4.1918 3.31952 0
M  V30 531 C 53.0176 5.0557 1.31135 0
M  V30 532 H 54.7116 2.95538 0.479325 0
M  V30 533 H 52.2576 1.42166 0.229115 0
M  V30 534 H 54.2106 3.04344 2.91466 0
M  V30 535 H 52.9346 1.8171 2.71384 0
M  V30 536 H 51.5936 3.42347 1.31127 0
M  V30 537 H 51.2416 3.31296 3.78487 0
M  V30 538 H 50.9416 4.95402 3.15992 0
M  V30 539 H 52.4656 4.59541 4.02063 0
M  V30 540 H 53.8796 5.40903 1.89992 0
M  V30 541 H 52.2766 5.86818 1.25559 0
M  V30 542 H 53.3466 4.84062 0.284894 0
M  V30 543 N 54.6897 -0.239769 1.55765 0
M  V30 544 C 55.9147 -0.988373 1.82335 0
M  V30 545 C 56.3397 -1.77886 0.611421 0
M  V30 546 O 55.6977 -1.75889 -0.439639 0
M  V30 547 C 55.7457 -1.89627 3.06715 0
M  V30 548 O 54.8497 -2.98904 2.84131 0
M  V30 549 H 54.1907 -0.280858 0.601677 0
M  V30 550 H 56.7207 -0.258597 2.02959 0
M  V30 551 H 56.7307 -2.30957 3.36338 0
M  V30 552 H 55.4057 -1.31511 3.9456 0
M  V30 553 H 53.9827 -2.61651 2.65694 0
M  V30 554 N 56.1678 -1.49265 -0.50573 0
M  V30 555 C 57.1008 -1.60183 -1.62532 0
M  V30 556 C 58.0788 -0.451107 -1.56217 0
M  V30 557 O 59.2628 -0.666016 -1.76342 0
M  V30 558 C 56.3898 -1.55238 -3.01029 0
M  V30 559 C 55.4358 -2.7545 -3.25621 0
M  V30 560 S 56.2688 -4.37174 -3.09256 0
M  V30 561 C 57.4248 -4.34866 -4.50158 0
M  V30 562 H 57.6578 -2.54894 -1.53025 0
M  V30 563 H 55.1908 -1.38098 -0.690535 0
M  V30 564 H 57.1488 -1.53071 -3.80893 0
M  V30 565 H 55.8098 -0.618238 -3.07956 0
M  V30 566 H 55.0028 -2.68197 -4.26716 0
M  V30 567 H 54.6048 -2.75005 -2.53472 0
M  V30 568 H 56.8968 -4.06295 -5.42154 0
M  V30 569 H 57.8398 -5.36223 -4.62462 0
M  V30 570 H 58.2478 -3.65007 -4.30616 0
M  V30 571 N 57.6459 0.756429 -1.3826 0
M  V30 572 C 58.8939 1.51248 -1.34047 0
M  V30 573 C 59.2149 1.94875 0.0698372 0
M  V30 574 O 58.4849 1.67436 1.01696 0
M  V30 575 H 57.0649 0.561018 -0.493222 0
M  V30 576 H 59.7269 0.899347 -1.7291 0
M  V30 577 H 58.8229 2.40472 -1.98947 0
M  V30 578 N 59.124 1.23083 0.984299 0
M  V30 579 C 60.034 1.02515 2.11016 0
M  V30 580 C 61.05 -0.0291702 1.73976 0
M  V30 581 O 62.226 0.165434 2.00719 0
M  V30 582 C 59.291 0.614673 3.41208 0
M  V30 583 C 58.352 1.74359 3.92297 0
M  V30 584 C 57.585 1.35261 5.16275 0
M  V30 585 O 57.808 0.235136 5.69915 0
M  V30 586 O 56.742 2.17227 5.61334 0
M  V30 587 H 60.568 1.96862 2.31255 0
M  V30 588 H 58.153 1.01753 1.09392 0
M  V30 589 H 60.035 0.396518 4.1953 0
M  V30 590 H 58.71 -0.299851 3.22308 0
M  V30 591 H 57.617 2.01635 3.1511 0
M  V30 592 H 58.95 2.63629 4.15645 0
M  V30 593 N 60.6021 -1.18246 1.0419 0
M  V30 594 C 61.8481 -1.88536 0.747122 0
M  V30 595 C 62.1811 -1.80223 -0.723409 0
M  V30 596 O 61.4561 -1.20337 -1.52804 0
M  V30 597 C 61.7391 -3.38968 1.21544 0
M  V30 598 C 61.5921 -3.56084 2.74816 0
M  V30 599 C 62.9111 -4.32648 0.806482 0
M  V30 600 H 60.0301 -0.684619 0.272883 0
M  V30 601 H 62.6721 -1.39113 1.29413 0
M  V30 602 H 60.8221 -3.8119 0.750081 0
M  V30 603 H 62.4941 -3.22946 3.29399 0
M  V30 604 H 60.7371 -2.98699 3.14582 0
M  V30 605 H 61.4081 -4.61639 3.02644 0
M  V30 606 H 63.8841 -3.98211 1.20695 0
M  V30 607 H 62.7601 -5.36462 1.1619 0
M  V30 608 H 63.0211 -4.41146 -0.29029 0
M  V30 609 N 62.0802 -0.821533 -1.34494 0
M  V30 610 C 63.0102 -0.257138 -2.3208 0
M  V30 611 C 63.9912 0.625645 -1.58176 0
M  V30 612 O 65.1762 0.552811 -1.86166 0
M  V30 613 C 62.3062 0.582958 -3.42372 0
M  V30 614 C 61.2602 -0.202571 -4.2752 0
M  V30 615 C 60.5862 0.760179 -5.29269 0
M  V30 616 C 61.8862 -1.40998 -5.02908 0
M  V30 617 H 63.5802 -1.07247 -2.79532 0
M  V30 618 H 61.1262 -0.517163 -1.34393 0
M  V30 619 H 63.0792 0.987972 -4.09655 0
M  V30 620 H 61.8032 1.43133 -2.93565 0
M  V30 621 H 60.4622 -0.588936 -3.61838 0
M  V30 622 H 60.1102 1.60447 -4.76724 0
M  V30 623 H 59.8102 0.238809 -5.87115 0
M  V30 624 H 61.3342 1.16308 -5.9942 0
M  V30 625 H 62.7482 -1.07905 -5.63054 0
M  V30 626 H 61.1452 -1.86689 -5.70322 0
M  V30 627 H 62.2152 -2.1889 -4.32684 0
M  V30 628 N 63.5583 1.46682 -0.576371 0
M  V30 629 C 64.5083 2.27278 0.181288 0
M  V30 630 C 65.4923 1.35497 0.867721 0
M  V30 631 O 66.6843 1.59717 0.762863 0
M  V30 632 C 63.8133 3.21703 1.19841 0
M  V30 633 C 62.8993 4.20969 0.51442 0
M  V30 634 N 63.2903 5.03999 -0.426407 0
M  V30 635 C 61.5883 4.39373 0.765963 0
M  V30 636 C 62.2893 5.75812 -0.825565 0
M  V30 637 N 61.2653 5.43315 -0.176116 0
M  V30 638 H 65.0673 2.88863 -0.541785 0
M  V30 639 H 62.5813 1.57455 -0.397697 0
M  V30 640 H 64.5783 3.78145 1.75533 0
M  V30 641 H 63.2383 2.61677 1.92238 0
M  V30 642 H 64.2493 5.11659 -0.8016 0
M  V30 643 H 60.9263 3.90502 1.47698 0
M  V30 644 H 62.3163 6.52577 -1.59976 0
M  V30 645 N 65.0364 0.313813 1.54444 0
M  V30 646 C 66.4474 -0.176243 1.85866 0
M  V30 647 C 66.7984 -1.52405 1.23561 0
M  V30 648 O 65.9234 -2.09605 0.538016 0
M  V30 649 C 66.5184 -0.32657 3.37222 0
M  V30 650 C 65.0774 -0.760846 3.6863 0
M  V30 651 C 64.2244 0.123247 2.77026 0
M  V30 652 H 67.1754 0.534418 1.49431 0
M  V30 653 H 67.1964 -1.15908 3.62416 0
M  V30 654 H 66.7084 0.654531 3.82541 0
M  V30 655 H 64.8094 -1.75204 3.28838 0
M  V30 656 H 64.9224 -0.571353 4.75681 0
M  V30 657 H 63.2864 -0.399597 2.51546 0
M  V30 658 H 64.0694 1.10094 3.25168 0
M  V30 659 N 66.5145 -1.57545 0.0417849 0
M  V30 660 C 67.4775 -2.09885 -0.92093 0
M  V30 661 C 68.4775 -1.01648 -1.24596 0
M  V30 662 O 69.6675 -1.27759 -1.1842 0
M  V30 663 C 66.7995 -2.57527 -2.23367 0
M  V30 664 H 67.9925 -2.96236 -0.467382 0
M  V30 665 H 65.5455 -1.5493 -0.206467 0
M  V30 666 H 66.2805 -1.74542 -2.73323 0
M  V30 667 H 66.0655 -3.36613 -2.01083 0
M  V30 668 H 67.5555 -2.98201 -2.92346 0
M  V30 669 N 67.9926 0.231505 -1.5589 0
M  V30 670 C 69.2206 0.974505 -1.82513 0
M  V30 671 C 69.6356 1.78344 -0.619591 0
M  V30 672 O 68.9926 1.77792 0.411848 0
M  V30 673 C 69.0436 1.90007 -3.07538 0
M  V30 674 O 68.7646 1.12385 -4.2344 0
M  V30 675 C 70.2656 2.75779 -3.47075 0
M  V30 676 H 67.4856 0.286065 -0.606966 0
M  V30 677 H 70.0296 0.249739 -2.02969 0
M  V30 678 H 68.1846 2.57891 -2.89086 0
M  V30 679 H 68.5986 1.75125 -4.944 0
M  V30 680 H 70.0726 3.36443 -4.37619 0
M  V30 681 H 70.5496 3.47672 -2.68367 0
M  V30 682 H 71.1556 2.13323 -3.67931 0
M  V30 683 N 69.4707 1.49531 0.497807 0
M  V30 684 C 70.7167 1.59415 1.25358 0
M  V30 685 C 71.0497 0.281422 1.9215 0
M  V30 686 O 70.3247 -0.715249 1.80871 0
M  V30 687 C 70.6077 2.75566 2.3181 0
M  V30 688 C 70.4607 4.16642 1.69498 0
M  V30 689 C 71.7797 2.87347 3.33346 0
M  V30 690 H 68.8987 0.580244 0.454408 0
M  V30 691 H 71.5407 1.81827 0.551262 0
M  V30 692 H 69.6907 2.56587 2.91711 0
M  V30 693 H 71.3627 4.47145 1.13399 0
M  V30 694 H 69.6057 4.22141 0.998978 0
M  V30 695 H 70.2767 4.93792 2.46725 0
M  V30 696 H 72.7527 3.04634 2.83438 0
M  V30 697 H 71.6287 3.70289 4.05188 0
M  V30 698 H 71.8897 1.96834 3.95865 0
M  V30 699 N 70.9488 -0.749086 1.3866 0
M  V30 700 C 71.8958 -1.86291 1.36251 0
M  V30 701 C 72.8658 -1.64578 0.224347 0
M  V30 702 O 74.0508 -1.86181 0.417279 0
M  V30 703 C 71.1908 -3.23644 1.19786 0
M  V30 704 C 70.3038 -3.57158 2.43027 0
M  V30 705 C 69.4388 -4.83838 2.19258 0
M  V30 706 C 68.4778 -5.10152 3.38247 0
M  V30 707 N 67.6148 -6.28029 3.13884 0
M  V30 708 H 72.4548 -1.87685 2.3147 0
M  V30 709 H 69.9918 -0.917287 1.14997 0
M  V30 710 H 71.9498 -4.0291 1.08254 0
M  V30 711 H 70.5798 -3.21566 0.282031 0
M  V30 712 H 69.6318 -2.72701 2.65214 0
M  V30 713 H 70.9438 -3.7253 3.31697 0
M  V30 714 H 70.0978 -5.71057 2.04888 0
M  V30 715 H 68.8368 -4.70614 1.2796 0
M  V30 716 H 67.8418 -4.21401 3.53131 0
M  V30 717 H 69.0668 -5.25271 4.30427 0
M  V30 718 H 67.0128 -6.1612 2.25238 0
M  V30 719 H 66.9298 -6.43922 3.96106 0
M  V30 720 H 68.1978 -7.18124 3.03179 0
M  V30 721 N 72.4269 -1.23603 -0.977757 0
M  V30 722 C 73.3899 -1.02069 -2.05218 0
M  V30 723 C 74.3899 0.0184305 -1.60789 0
M  V30 724 O 75.5799 -0.221569 -1.72785 0
M  V30 725 C 72.7119 -0.544926 -3.36517 0
M  V30 726 H 73.9049 -1.9742 -2.25755 0
M  V30 727 H 71.4579 -1.05684 -1.15155 0
M  V30 728 H 72.1929 0.412241 -3.21669 0
M  V30 729 H 71.9779 -1.2948 -3.70105 0
M  V30 730 H 73.4679 -0.414985 -4.15533 0
M  V30 731 N 73.905 1.17692 -1.04816 0
M  V30 732 C 74.852 2.21581 -0.645797 0
M  V30 733 C 75.822 1.62367 0.350159 0
M  V30 734 O 77.007 1.89254 0.242433 0
M  V30 735 C 74.147 3.45092 -0.0227568 0
M  V30 736 C 73.26 4.18613 -1.06709 0
M  V30 737 C 72.395 5.29602 -0.411767 0
M  V30 738 C 71.434 5.94904 -1.44067 0
M  V30 739 N 70.571 6.97414 -0.809781 0
M  V30 740 H 75.411 2.55353 -1.5362 0
M  V30 741 H 72.948 1.25438 -0.768364 0
M  V30 742 H 74.906 4.15679 0.35588 0
M  V30 743 H 73.536 3.11917 0.831122 0
M  V30 744 H 72.588 3.46779 -1.5636 0
M  V30 745 H 73.9 4.63293 -1.84827 0
M  V30 746 H 73.054 6.06696 0.0206623 0
M  V30 747 H 71.793 4.86045 0.401438 0
M  V30 748 H 70.798 5.16544 -1.88316 0
M  V30 749 H 72.023 6.40542 -2.25571 0
M  V30 750 H 69.969 6.55998 -0.0170186 0
M  V30 751 H 69.886 7.40386 -1.52856 0
M  V30 752 H 71.154 7.78463 -0.401999 0
M  V30 753 N 75.3831 0.828654 1.34056 0
M  V30 754 C 76.3301 0.252567 2.29414 0
M  V30 755 C 77.3001 -0.62588 1.53857 0
M  V30 756 O 78.4851 -0.566312 1.82202 0
M  V30 757 C 75.6251 -0.574831 3.40279 0
M  V30 758 C 74.7381 0.326499 4.30764 0
M  V30 759 C 73.8731 -0.511016 5.28736 0
M  V30 760 C 72.9121 0.389342 6.1086 0
M  V30 761 N 72.0491 -0.409439 7.00905 0
M  V30 762 H 76.8891 1.07108 2.78086 0
M  V30 763 H 74.4261 0.539677 1.36843 0
M  V30 764 H 76.3841 -1.06992 4.03248 0
M  V30 765 H 75.0141 -1.35841 2.92826 0
M  V30 766 H 74.0661 0.939837 3.68607 0
M  V30 767 H 75.3781 1.01857 4.88289 0
M  V30 768 H 74.5321 -1.07035 5.97184 0
M  V30 769 H 73.2711 -1.23657 4.71763 0
M  V30 770 H 72.2761 0.960769 5.4134 0
M  V30 771 H 73.5011 1.1131 6.69916 0
M  V30 772 H 71.4471 -1.11856 6.46393 0
M  V30 773 H 71.3641 0.224126 7.55668 0
M  V30 774 H 72.6321 -0.951336 7.73673 0
M  V30 775 N 76.8612 -1.46375 0.584142 0
M  V30 776 C 77.7712 -2.34115 -0.150728 0
M  V30 777 C 78.7872 -1.49838 -0.884567 0
M  V30 778 O 79.9632 -1.82704 -0.847429 0
M  V30 779 C 77.0282 -3.2705 -1.15062 0
M  V30 780 C 76.0892 -4.27228 -0.421293 0
M  V30 781 C 75.3222 -5.15722 -1.37355 0
M  V30 782 O 75.5452 -5.07176 -2.61014 0
M  V30 783 O 74.4792 -5.95383 -0.883355 0
M  V30 784 H 78.3052 -2.98309 0.569708 0
M  V30 785 H 75.8902 -1.45373 0.344535 0
M  V30 786 H 77.7722 -3.84381 -1.72712 0
M  V30 787 H 76.4472 -2.65451 -1.8525 0
M  V30 788 H 75.3542 -3.7358 0.197085 0
M  V30 789 H 76.6872 -4.91616 0.239641 0
M  V30 790 N 78.3393 -0.321999 -1.54275 0
M  V30 791 C 79.7553 0.0306999 -1.5957 0
M  V30 792 C 79.9553 1.50614 -1.33857 0
M  V30 793 O 79.0113 2.2619 -1.12223 0
M  V30 794 C 80.3243 -0.386122 -2.98211 0
M  V30 795 C 81.8723 -0.336647 -3.11184 0
M  V30 796 C 82.3473 -0.728607 -4.52167 0
M  V30 797 N 83.8383 -0.681952 -4.58152 0
M  V30 798 C 84.5733 -0.957449 -5.6535 0
M  V30 799 N 84.0693 -1.3 -6.80494 0
M  V30 800 N 85.8623 -0.883113 -5.55119 0
M  V30 801 H 78.0133 -1.28332 -1.69247 0
M  V30 802 H 80.2763 -0.521716 -0.791528 0
M  V30 803 H 79.9823 -1.41404 -3.22022 0
M  V30 804 H 79.8563 0.249662 -3.76373 0
M  V30 805 H 82.2433 0.682058 -2.8711 0
M  V30 806 H 82.3243 -1.00734 -2.3513 0
M  V30 807 H 81.9683 -1.74522 -4.76974 0
M  V30 808 H 81.8983 -0.0356152 -5.26588 0
M  V30 809 H 84.3893 -0.428985 -3.75457 0
M  V30 810 H 84.7023 -1.49563 -7.58189 0
M  V30 811 H 83.0473 -1.33824 -6.81994 0
M  V30 812 H 86.2383 -0.615001 -4.64042 0
M  V30 813 H 86.4113 -1.10118 -6.38575 0
M  V30 814 N 79.8174 1.5752 -0.0501392 0
M  V30 815 C 81.0944 1.83996 0.663685 0
M  V30 816 C 81.4744 0.938339 1.89099 0
M  V30 817 O 80.8224 -0.00087759 2.285 0
M  V30 818 C 81.0324 3.33702 1.02196 0
M  V30 819 C 82.3804 4.00691 1.40469 0
M  V30 820 O 83.4044 3.38321 1.11433 0
M  V30 821 O 82.2634 5.10658 1.94654 0
M  V30 822 H 79.3574 0.759385 0.32751 0
M  V30 823 H 81.9034 1.69514 -0.0794238 0
M  V30 824 H 80.6754 3.91015 0.149364 0
M  V30 825 H 80.2984 3.53368 1.82255 0
M  V30 826 N 81.2955 -0.223234 1.56011 0
M  V30 827 C 82.2585 -1.26014 1.9145 0
M  V30 828 C 83.2585 -1.3989 0.792937 0
M  V30 829 O 84.4485 -1.38184 1.0607 0
M  V30 830 C 81.5805 -2.63422 2.16383 0
M  V30 831 H 82.7735 -0.95796 2.84189 0
M  V30 832 H 80.3265 -0.463576 1.49267 0
M  V30 833 H 81.0615 -2.98741 1.2619 0
M  V30 834 H 80.8465 -2.54728 2.98088 0
M  V30 835 H 82.3365 -3.38249 2.44903 0
M  V30 836 N 82.7736 -1.49793 -0.48987 0
M  V30 837 C 83.7056 -1.63413 -1.60713 0
M  V30 838 C 84.7186 -0.516329 -1.54395 0
M  V30 839 O 85.9076 -0.788812 -1.60125 0
M  V30 840 C 83.0076 -1.58516 -2.99543 0
M  V30 841 C 82.1806 -2.86016 -3.30928 0
M  V30 842 C 81.2396 -2.74018 -4.49222 0
M  V30 843 O 80.2656 -3.47964 -4.50455 0
M  V30 844 N 81.4676 -1.86309 -5.4979 0
M  V30 845 H 84.2326 -2.59777 -1.49452 0
M  V30 846 H 81.7936 -1.47022 -0.677955 0
M  V30 847 H 83.7856 -1.48128 -3.76617 0
M  V30 848 H 82.3556 -0.69965 -3.0467 0
M  V30 849 H 81.5756 -3.10672 -2.42645 0
M  V30 850 H 82.8636 -3.70521 -3.487 0
M  V30 851 H 82.2616 -1.2551 -5.51601 0
M  V30 852 H 80.8186 -1.81837 -6.25922 0
M  V30 853 N 84.2517 0.741722 -1.39055 0
M  V30 854 C 85.4817 1.52876 -1.3897 0
M  V30 855 C 85.8897 1.8919 0.0193266 0
M  V30 856 O 85.2327 1.54138 0.999356 0
M  V30 857 C 85.2947 2.84929 -2.19216 0
M  V30 858 C 84.9587 2.71086 -3.67915 0
M  V30 859 C 85.9557 2.40084 -4.61146 0
M  V30 860 C 83.6407 2.88168 -4.11418 0
M  V30 861 C 85.6347 2.26335 -5.95862 0
M  V30 862 C 83.3217 2.74037 -5.46211 0
M  V30 863 C 84.3197 2.43166 -6.38247 0
M  V30 864 O 84.0077 2.29115 -7.70559 0
M  V30 865 H 83.7397 0.479252 -0.476753 0
M  V30 866 H 86.2937 0.924751 -1.83405 0
M  V30 867 H 84.5237 3.47564 -1.69518 0
M  V30 868 H 86.2127 3.46509 -2.11392 0
M  V30 869 H 86.9787 2.26545 -4.28838 0
M  V30 870 H 82.8577 3.11191 -3.40119 0
M  V30 871 H 86.4017 2.0216 -6.67665 0
M  V30 872 H 82.2987 2.87153 -5.78112 0
M  V30 873 H 83.0667 2.44237 -7.81211 0
M  V30 874 N 85.7298 1.2412 0.971189 0
M  V30 875 C 87.1408 1.07236 1.52831 0
M  V30 876 C 87.4918 -0.357352 1.92918 0
M  V30 877 O 86.6168 -1.24528 1.76979 0
M  V30 878 C 87.2118 1.94043 2.77728 0
M  V30 879 C 85.7708 1.81394 3.29808 0
M  V30 880 C 84.9178 1.89189 2.02738 0
M  V30 881 H 87.8688 1.37648 0.789864 0
M  V30 882 H 87.8898 1.47066 3.5093 0
M  V30 883 H 87.4018 2.98093 2.4852 0
M  V30 884 H 85.5028 0.801634 3.63874 0
M  V30 885 H 85.6158 2.65294 3.98944 0
M  V30 886 H 83.9798 1.32877 2.17292 0
M  V30 887 H 84.7628 2.94812 1.759 0
M  V30 888 N 87.2079 -1.17134 1.05439 0
M  V30 889 C 88.6189 -1.69084 0.791676 0
M  V30 890 C 88.9699 -1.83822 -0.685839 0
M  V30 891 O 88.0949 -1.52757 -1.53278 0
M  V30 892 C 88.6899 -3.07119 1.4305 0
M  V30 893 C 87.2489 -3.56225 1.21577 0
M  V30 894 C 86.3959 -2.32421 1.51247 0
M  V30 895 H 89.3469 -1.01617 1.219 0
M  V30 896 H 89.3679 -3.71087 0.84112 0
M  V30 897 H 88.8799 -2.9636 2.50584 0
M  V30 898 H 86.9809 -3.72257 0.159787 0
M  V30 899 H 87.0939 -4.38837 1.92246 0
M  V30 900 H 85.4579 -2.3701 0.932653 0
M  V30 901 H 86.2409 -2.24268 2.5992 0
M  V30 902 N 88.686 -0.835752 -1.33615 0
M  V30 903 C 89.649 -0.272 -2.2758 0
M  V30 904 C 90.649 0.557487 -1.50827 0
M  V30 905 O 91.839 0.37173 -1.70188 0
M  V30 906 C 88.971 0.617173 -3.35267 0
M  V30 907 H 90.164 -1.10111 -2.78954 0
M  V30 908 H 87.717 -0.608594 -1.43965 0
M  V30 909 H 88.452 1.46884 -2.89129 0
M  V30 910 H 88.237 0.0237066 -3.92093 0
M  V30 911 H 89.727 1.005 -4.05326 0
M  V30 912 N 90.1641 1.46063 -0.591896 0
M  V30 913 C 91.0941 2.33172 0.123673 0
M  V30 914 C 92.0751 1.45897 0.87453 0
M  V30 915 O 93.2601 1.74698 0.848181 0
M  V30 916 C 90.3901 3.28336 1.13194 0
M  V30 917 C 89.3441 4.25124 0.495324 0
M  V30 918 C 88.6701 5.09863 1.61071 0
M  V30 919 C 89.9701 5.19143 -0.573425 0
M  V30 920 H 91.6641 2.93252 -0.603646 0
M  V30 921 H 89.2101 1.41014 -0.291741 0
M  V30 922 H 91.1631 3.88137 1.64097 0
M  V30 923 H 89.8871 2.66383 1.88965 0
M  V30 924 H 88.5461 3.66599 0.00729452 0
M  V30 925 H 88.1941 4.44288 2.35832 0
M  V30 926 H 87.8941 5.75417 1.19035 0
M  V30 927 H 89.4181 5.72529 2.12233 0
M  V30 928 H 90.8321 5.73106 -0.1491 0
M  V30 929 H 89.2291 5.93089 -0.914636 0
M  V30 930 H 90.2991 4.62519 -1.45617 0
M  V30 931 N 91.6422 0.330177 1.54103 0
M  V30 932 C 92.6052 -0.520144 2.2322 0
M  V30 933 C 93.6052 -1.03828 1.22786 0
M  V30 934 O 94.7952 -0.929652 1.4732 0
M  V30 935 C 91.9272 -1.72317 2.94142 0
M  V30 936 H 93.1202 0.0841605 2.99782 0
M  V30 937 H 90.6732 0.0813433 1.56088 0
M  V30 938 H 91.4082 -2.36653 2.21734 0
M  V30 939 H 91.1932 -1.35898 3.67796 0
M  V30 940 H 92.6832 -2.3266 3.46784 0
M  V30 941 N 93.1203 -1.57491 0.0584922 0
M  V30 942 C 94.0833 -2.1085 -0.898617 0
M  V30 943 C 95.0833 -1.02964 -1.23511 0
M  V30 944 O 96.2733 -1.29007 -1.17059 0
M  V30 945 C 93.4053 -2.59881 -2.20623 0
M  V30 946 H 94.5983 -2.96715 -0.435936 0
M  V30 947 H 92.1513 -1.55141 -0.190023 0
M  V30 948 H 92.8863 -1.77431 -2.71457 0
M  V30 949 H 92.6713 -3.38727 -1.97501 0
M  V30 950 H 94.1613 -3.01285 -2.89166 0
M  V30 951 N 94.5984 0.214957 -1.56127 0
M  V30 952 C 95.8444 0.939762 -1.79712 0
M  V30 953 C 96.1774 1.83723 -0.629247 0
M  V30 954 O 95.4524 1.90925 0.371197 0
M  V30 955 C 95.7354 1.77306 -3.13424 0
M  V30 956 C 95.5884 0.90164 -4.40671 0
M  V30 957 C 96.9074 2.74956 -3.43638 0
M  V30 958 H 94.0264 0.340214 -0.653776 0
M  V30 959 H 96.6684 0.20824 -1.88855 0
M  V30 960 H 94.8184 2.39673 -3.0576 0
M  V30 961 H 96.4904 0.294206 -4.60361 0
M  V30 962 H 94.7334 0.207368 -4.33304 0
M  V30 963 H 95.4044 1.51923 -5.30682 0
M  V30 964 H 97.8804 2.22724 -3.51473 0
M  V30 965 H 96.7564 3.30358 -4.38355 0
M  V30 966 H 97.0174 3.53023 -2.66134 0
M  V30 967 N 96.0765 1.50051 0.48192 0
M  V30 968 C 97.0235 1.68122 1.58125 0
M  V30 969 C 97.9935 0.522545 1.57666 0
M  V30 970 O 99.1785 0.751844 1.75362 0
M  V30 971 C 96.3185 1.77142 2.96167 0
M  V30 972 C 95.4315 3.0444 3.06497 0
M  V30 973 C 94.5665 3.04321 4.35387 0
M  V30 974 C 93.6055 4.26118 4.3942 0
M  V30 975 N 92.7425 4.238 5.59766 0
M  V30 976 H 97.5825 2.6198 1.42022 0
M  V30 977 H 95.1195 1.29877 0.690687 0
M  V30 978 H 97.0775 1.80352 3.76203 0
M  V30 979 H 95.7075 0.867329 3.1093 0
M  V30 980 H 94.7595 3.10752 2.19402 0
M  V30 981 H 96.0715 3.94426 3.05336 0
M  V30 982 H 95.2255 3.062 5.23762 0
M  V30 983 H 93.9645 2.12147 4.39141 0
M  V30 984 H 92.9695 4.24463 3.49444 0
M  V30 985 H 94.1945 5.19507 4.37366 0
M  V30 986 H 92.1405 3.34474 5.64326 0
M  V30 987 H 92.0575 5.07542 5.60301 0
M  V30 988 H 93.3255 4.2981 6.50295 0
M  V30 989 N 97.5546 -0.734337 1.39446 0
M  V30 990 C 98.5176 -1.83004 1.37994 0
M  V30 991 C 99.5176 -1.58397 0.276938 0
M  V30 992 O 100.708 -1.65785 0.534875 0
M  V30 993 C 97.8396 -3.20802 1.1532 0
M  V30 994 H 99.0326 -1.85694 2.35494 0
M  V30 995 H 96.5856 -0.938059 1.25021 0
M  V30 996 H 97.3206 -3.23772 0.185036 0
M  V30 997 H 97.1056 -3.4006 1.95197 0
M  V30 998 H 98.5956 -4.00862 1.17046 0
M  V30 999 N 99.0327 -1.24633 -0.964593 0
M  V30 1000 C 99.9427 -1.05859 -2.09359 0
M  V30 1001 C 100.959 0.00148855 -1.74 0
M  V30 1002 O 102.135 -0.197346 -2.00431 0
M  V30 1003 C 99.1997 -0.668879 -3.40187 0
M  V30 1004 C 98.2607 -1.80578 -3.89474 0
M  V30 1005 C 97.4937 -1.43457 -5.14058 0
M  V30 1006 O 97.7167 -0.325775 -5.69469 0
M  V30 1007 O 96.6507 -2.2613 -5.57807 0
M  V30 1008 H 100.477 -2.00516 -2.28094 0
M  V30 1009 H 98.0617 -1.03481 -1.0776 0
M  V30 1010 H 99.9437 -0.463211 -4.18846 0
M  V30 1011 H 98.6187 0.248536 -3.22744 0
M  V30 1012 H 97.5257 -2.06623 -3.11862 0
M  V30 1013 H 98.8587 -2.70208 -4.11398 0
M  V30 1014 N 100.511 1.16574 -1.06058 0
M  V30 1015 C 101.759 1.86677 -0.77434 0
M  V30 1016 C 102.08 1.81959 0.701147 0
M  V30 1017 O 101.35 1.2515 1.50713 0
M  V30 1018 H 99.9298 0.691134 -0.283449 0
M  V30 1019 H 102.592 1.41378 -1.34158 0
M  V30 1020 H 101.688 2.92181 -1.09711 0
M  V30 1021 N 101.989 0.842826 1.3317 0
M  V30 1022 C 103.4 0.496651 1.79973 0
M  V30 1023 C 103.751 -0.984641 1.69703 0
M  V30 1024 O 102.876 -1.76743 1.24863 0
M  V30 1025 C 103.471 0.894727 3.26772 0
M  V30 1026 C 102.03 0.600629 3.71577 0
M  V30 1027 C 101.177 1.10091 2.5451 0
M  V30 1028 H 104.128 1.03116 1.20635 0
M  V30 1029 H 104.149 0.206347 3.7994 0
M  V30 1030 H 103.661 1.97287 3.34215 0
M  V30 1031 H 101.762 -0.467284 3.69658 0
M  V30 1032 H 101.875 1.15863 4.64879 0
M  V30 1033 H 100.239 0.52162 2.49301 0
M  V30 1034 H 101.022 2.18591 2.64713 0
M  V30 1035 N 103.467 -1.45747 0.599634 0
M  V30 1036 C 104.878 -1.85853 0.177681 0
M  V30 1037 C 105.229 -1.50102 -1.26348 0
M  V30 1038 O 104.354 -0.923905 -1.95686 0
M  V30 1039 C 104.949 -3.37326 0.315688 0
M  V30 1040 C 103.508 -3.76365 -0.0515144 0
M  V30 1041 C 102.655 -2.69722 0.643822 0
M  V30 1042 H 105.606 -1.36661 0.806814 0
M  V30 1043 H 105.627 -3.77778 -0.454321 0
M  V30 1044 H 105.139 -3.63315 1.36468 0
M  V30 1045 H 103.24 -3.55993 -1.09999 0
M  V30 1046 H 103.353 -4.77916 0.336594 0
M  V30 1047 H 101.717 -2.54567 0.0822881 0
M  V30 1048 H 102.5 -2.98549 1.6948 0
M  V30 1049 N 104.945 -0.338344 -1.53925 0
M  V30 1050 C 106.191 0.260143 -2.01125 0
M  V30 1051 C 106.524 1.50617 -1.22589 0
M  V30 1052 O 105.799 1.91979 -0.312113 0
M  V30 1053 C 106.082 0.579499 -3.55407 0
M  V30 1054 C 105.935 -0.678264 -4.44657 0
M  V30 1055 C 107.254 1.39122 -4.17532 0
M  V30 1056 H 104.373 0.0930772 -0.731099 0
M  V30 1057 H 107.015 -0.457852 -1.84401 0
M  V30 1058 H 105.165 1.19118 -3.69788 0
M  V30 1059 H 106.837 -1.31631 -4.42121 0
M  V30 1060 H 105.08 -1.3042 -4.13731 0
M  V30 1061 H 105.751 -0.410143 -5.50474 0
M  V30 1062 H 108.227 0.874035 -4.06817 0
M  V30 1063 H 107.103 1.58342 -5.25565 0
M  V30 1064 H 107.364 2.39178 -3.71815 0
M  V30 1065 N 106.423 1.57458 -0.0668435 0
M  V30 1066 C 107.648 1.9804 0.616027 0
M  V30 1067 C 108.073 0.944771 1.62652 0
M  V30 1068 O 107.431 -0.0902094 1.81075 0
M  V30 1069 C 107.479 3.37665 1.26549 0
M  V30 1070 O 106.583 3.36701 2.38131 0
M  V30 1071 H 105.924 0.644719 0.158849 0
M  V30 1072 H 108.454 2.04121 -0.139891 0
M  V30 1073 H 108.464 3.7474 1.6135 0
M  V30 1074 H 107.139 4.12573 0.525016 0
M  V30 1075 H 105.716 3.1139 2.0516 0
M  V30 1076 N 107.901 -0.206675 1.56239 0
M  V30 1077 C 108.833 -1.27997 1.9013 0
M  V30 1078 C 109.846 -1.42299 0.790883 0
M  V30 1079 O 111.035 -1.42931 1.06925 0
M  V30 1080 C 108.135 -2.65368 2.10792 0
M  V30 1081 C 107.308 -2.72824 3.41886 0
M  V30 1082 C 106.367 -3.9131 3.51799 0
M  V30 1083 O 105.393 -3.78953 4.24716 0
M  V30 1084 N 106.595 -5.06265 2.84035 0
M  V30 1085 H 109.36 -0.992444 2.82791 0
M  V30 1086 H 106.921 -0.396652 1.56966 0
M  V30 1087 H 108.913 -3.43039 2.14724 0
M  V30 1088 H 107.483 -2.86657 1.24685 0
M  V30 1089 H 106.703 -1.81515 3.49923 0
M  V30 1090 H 107.991 -2.74786 4.28217 0
M  V30 1091 H 107.389 -5.19203 2.246 0
M  V30 1092 H 105.946 -5.81925 2.93609 0
M  V30 1093 N 109.379 -1.50304 -0.473955 0
M  V30 1094 C 110.625 -1.61389 -1.22806 0
M  V30 1095 C 110.958 -0.311955 -1.91678 0
M  V30 1096 O 110.233 0.686384 -1.81986 0
M  V30 1097 C 110.516 -2.79219 -2.27396 0
M  V30 1098 C 110.369 -4.19286 -1.62848 0
M  V30 1099 C 111.688 -2.92614 -3.28732 0
M  V30 1100 H 108.807 -0.587399 -0.445119 0
M  V30 1101 H 111.449 -1.82681 -0.522265 0
M  V30 1102 H 109.599 -2.61195 -2.87592 0
M  V30 1103 H 111.271 -4.48892 -1.06271 0
M  V30 1104 H 109.514 -4.23677 -0.931693 0
M  V30 1105 H 110.185 -4.97655 -2.38838 0
M  V30 1106 H 112.661 -3.09105 -2.78556 0
M  V30 1107 H 111.537 -3.76688 -3.99246 0
M  V30 1108 H 111.798 -2.03107 -3.92683 0
M  V30 1109 N 110.857 0.726932 -1.39834 0
M  V30 1110 C 112.087 1.51393 -1.40583 0
M  V30 1111 C 112.495 1.892 -0.000740625 0
M  V30 1112 O 111.838 1.55189 0.982951 0
M  V30 1113 C 111.9 2.82588 -2.22226 0
M  V30 1114 C 111.564 2.67169 -3.70769 0
M  V30 1115 C 112.561 2.3518 -4.63666 0
M  V30 1116 C 110.246 2.83788 -4.14451 0
M  V30 1117 C 112.24 2.20002 -5.98229 0
M  V30 1118 C 109.927 2.68229 -5.49087 0
M  V30 1119 C 110.925 2.36382 -6.4079 0
M  V30 1120 O 110.613 2.2093 -7.72946 0
M  V30 1121 H 110.345 0.474168 -0.48181 0
M  V30 1122 H 112.899 0.905247 -1.84376 0
M  V30 1123 H 111.129 3.45746 -1.73195 0
M  V30 1124 H 112.818 3.44247 -2.15055 0
M  V30 1125 H 113.584 2.21984 -4.31217 0
M  V30 1126 H 109.463 3.07566 -3.43401 0
M  V30 1127 H 113.007 1.95067 -6.69772 0
M  V30 1128 H 108.904 2.81006 -5.81125 0
M  V30 1129 H 109.672 2.35937 -7.83757 0
M  V30 1130 N 112.336 1.25143 0.95797 0
M  V30 1131 C 113.283 1.05235 2.05412 0
M  V30 1132 C 114.253 -0.0374561 1.66058 0
M  V30 1133 O 115.438 0.119073 1.90428 0
M  V30 1134 C 112.578 0.673589 3.38462 0
M  V30 1135 C 111.691 1.8379 3.90954 0
M  V30 1136 C 110.826 1.40381 5.12315 0
M  V30 1137 C 109.865 2.53746 5.57027 0
M  V30 1138 N 109.002 2.11136 6.69601 0
M  V30 1139 H 113.842 1.99048 2.21774 0
M  V30 1140 H 111.379 0.991277 1.08683 0
M  V30 1141 H 113.337 0.434964 4.14926 0
M  V30 1142 H 111.967 -0.227554 3.21997 0
M  V30 1143 H 111.019 2.18992 3.11041 0
M  V30 1144 H 112.331 2.68937 4.20089 0
M  V30 1145 H 111.485 1.12464 5.96185 0
M  V30 1146 H 110.224 0.523015 4.84887 0
M  V30 1147 H 109.229 2.82412 4.71724 0
M  V30 1148 H 110.454 3.42398 5.86464 0
M  V30 1149 H 108.4 1.25468 6.4389 0
M  V30 1150 H 108.317 2.89832 6.98236 0
M  V30 1151 H 109.585 1.86385 7.56889 0
M  V30 1152 N 113.814 -1.1601 1.06675 0
M  V30 1153 C 114.762 -2.22586 0.675157 0
M  V30 1154 C 115.756 -1.66525 -0.310766 0
M  V30 1155 O 116.962 -1.79145 -0.175215 0
M  V30 1156 H 113.337 -0.724855 0.200223 0
M  V30 1157 H 115.308 -2.52899 1.58381 0
M  V30 1158 C 114.057 -3.47604 0.0817162 0
M  V30 1159 H 113.38 -3.91058 0.831484 0
M  V30 1160 H 114.82 -4.23718 -0.154708 0
M  V30 1161 C 113.279 -3.15718 -1.17576 0
M  V30 1162 O 113.809 -3.31878 -2.26318 0
M  V30 1163 N 112.015 -2.69816 -1.07923 0
M  V30 1164 H 111.562 -2.56866 -0.194293 0
M  V30 1165 H 111.52 -2.48855 -1.92141 0
M  V30 1166 N 115.292 -0.849877 -1.32721 0
M  V30 1167 C 116.538 -0.451591 -1.97708 0
M  V30 1168 C 116.871 0.989175 -1.6712 0
M  V30 1169 O 116.146 1.69334 -0.956891 0
M  V30 1170 C 116.429 -0.685598 -3.53513 0
M  V30 1171 C 116.282 -2.17444 -3.93749 0
M  V30 1172 C 117.601 -0.138874 -4.39881 0
M  V30 1173 H 114.72 -0.16555 -0.718166 0
M  V30 1174 H 117.362 -1.06742 -1.57182 0
M  V30 1175 H 115.512 -0.161416 -3.88165 0
M  V30 1176 H 117.184 -2.76433 -3.693 0
M  V30 1177 H 115.427 -2.65476 -3.43081 0
M  V30 1178 H 116.098 -2.28888 -5.02309 0
M  V30 1179 H 118.574 -0.587068 -4.11938 0
M  V30 1180 H 117.45 -0.332213 -5.47894 0
M  V30 1181 H 117.711 0.95806 -4.31594 0
M  V30 1182 N 116.77 1.45427 -0.607355 0
M  V30 1183 C 117.717 2.3053 0.111625 0
M  V30 1184 C 118.687 1.4209 0.860216 0
M  V30 1185 O 119.872 1.71019 0.845998 0
M  V30 1186 C 117.012 3.26992 1.10319 0
M  V30 1187 C 116.125 4.30535 0.355493 0
M  V30 1188 C 115.26 5.14105 1.33676 0
M  V30 1189 C 114.299 6.09376 0.576862 0
M  V30 1190 N 113.436 6.85727 1.5074 0
M  V30 1191 H 118.276 2.91477 -0.620093 0
M  V30 1192 H 115.813 1.43631 -0.317594 0
M  V30 1193 H 117.771 3.81385 1.6912 0
M  V30 1194 H 116.401 2.67799 1.80232 0
M  V30 1195 H 115.453 3.78805 -0.348023 0
M  V30 1196 H 116.765 4.98235 -0.237423 0
M  V30 1197 H 115.919 5.72897 1.99684 0
M  V30 1198 H 114.658 4.46423 1.9636 0
M  V30 1199 H 113.663 5.49715 -0.0968519 0
M  V30 1200 H 114.888 6.79085 -0.0449341 0
M  V30 1201 H 112.834 6.20735 2.12189 0
M  V30 1202 H 112.751 7.49778 0.967913 0
M  V30 1203 H 114.019 7.4906 2.15706 0
M  V30 1204 N 118.248 0.346503 1.53744 0
M  V30 1205 C 119.494 -0.249473 2.0126 0
M  V30 1206 C 119.827 -1.49965 1.23386 0
M  V30 1207 O 119.102 -1.91811 0.32229 0
M  V30 1208 C 119.385 -0.560643 3.55709 0
M  V30 1209 C 119.238 0.701836 4.44291 0
M  V30 1210 C 120.557 -1.36905 4.18264 0
M  V30 1211 H 117.676 -0.0891987 0.731582 0
M  V30 1212 H 120.318 0.467624 1.84156 0
M  V30 1213 H 118.468 -1.17156 3.70414 0
M  V30 1214 H 120.14 1.33974 4.41417 0
M  V30 1215 H 118.383 1.32612 4.13033 0
M  V30 1216 H 119.054 0.43933 5.50249 0
M  V30 1217 H 121.53 -0.852448 4.07275 0
M  V30 1218 H 120.406 -1.55553 5.26398 0
M  V30 1219 H 120.667 -2.37203 3.73078 0
M  V30 1220 N 119.726 -1.57421 0.075193 0
M  V30 1221 C 120.656 -2.15942 -0.888324 0
M  V30 1222 C 121.637 -1.08737 -1.30806 0
M  V30 1223 O 122.822 -1.36787 -1.37851 0
M  V30 1224 C 119.952 -2.72379 -2.1547 0
M  V30 1225 C 118.906 -3.8478 -1.87425 0
M  V30 1226 C 118.232 -4.27834 -3.20721 0
M  V30 1227 C 119.532 -5.08869 -1.17684 0
M  V30 1228 H 121.226 -2.96705 -0.400799 0
M  V30 1229 H 118.772 -1.42723 -0.191342 0
M  V30 1230 H 120.725 -3.11965 -2.83295 0
M  V30 1231 H 119.449 -1.88841 -2.6647 0
M  V30 1232 H 118.108 -3.45703 -1.22004 0
M  V30 1233 H 117.756 -3.41214 -3.6957 0
M  V30 1234 H 117.456 -5.03605 -3.02746 0
M  V30 1235 H 118.98 -4.70039 -3.89738 0
M  V30 1236 H 120.394 -5.4575 -1.75584 0
M  V30 1237 H 118.791 -5.8994 -1.09956 0
M  V30 1238 H 119.861 -4.84648 -0.156453 0
M  V30 1239 N 121.204 0.198386 -1.56346 0
M  V30 1240 C 122.452 0.91747 -1.80075 0
M  V30 1241 C 122.773 1.83929 -0.647692 0
M  V30 1242 O 122.043 1.93029 0.334166 0
M  V30 1243 H 120.623 0.341774 -0.664228 0
M  V30 1244 H 123.285 0.204684 -1.93822 0
M  V30 1245 H 122.381 1.51055 -2.7311 0
M  V30 1246 N 122.682 1.50554 0.465978 0
M  V30 1247 C 123.63 1.70324 1.58406 0
M  V30 1248 C 124.624 0.569139 1.59553 0
M  V30 1249 O 125.83 0.749776 1.63641 0
M  V30 1250 H 122.205 0.537688 0.525734 0
M  V30 1251 H 124.176 2.64104 1.38894 0
M  V30 1252 C 122.925 1.81928 2.96307 0
M  V30 1253 H 122.248 2.68586 2.96144 0
M  V30 1254 H 123.688 1.99784 3.73982 0
M  V30 1255 C 122.147 0.572095 3.32007 0
M  V30 1256 O 122.677 -0.286416 4.00678 0
M  V30 1257 N 120.883 0.424606 2.87481 0
M  V30 1258 H 120.43 1.12427 2.31771 0
M  V30 1259 H 120.388 -0.408697 3.11732 0
M  V30 1260 N 124.16 -0.719506 1.40217 0
M  V30 1261 C 125.09 -1.8465 1.42922 0
M  V30 1262 C 126.071 -1.67599 0.29062 0
M  V30 1263 O 127.256 -1.87688 0.498677 0
M  V30 1264 C 124.386 -3.22565 1.28722 0
M  V30 1265 C 123.34 -3.54281 2.40144 0
M  V30 1266 C 122.666 -4.91298 2.11023 0
M  V30 1267 C 123.966 -3.55676 3.82481 0
M  V30 1268 H 125.66 -1.82644 2.37237 0
M  V30 1269 H 123.206 -0.877305 1.1419 0
M  V30 1270 H 125.159 -4.01095 1.29232 0
M  V30 1271 H 123.883 -3.25137 0.308811 0
M  V30 1272 H 122.542 -2.78088 2.38877 0
M  V30 1273 H 122.19 -4.90468 1.11582 0
M  V30 1274 H 121.89 -5.13485 2.8567 0
M  V30 1275 H 123.414 -5.72166 2.13209 0
M  V30 1276 H 124.828 -4.24254 3.85592 0
M  V30 1277 H 123.225 -3.89388 4.56614 0
M  V30 1278 H 124.295 -2.55144 4.12346 0
M  V30 1279 N 125.638 -1.25649 -0.95132 0
M  V30 1280 C 126.866 -1.13343 -1.73092 0
M  V30 1281 C 127.281 0.312434 -1.86197 0
M  V30 1282 O 126.638 1.21465 -1.36207 0
M  V30 1283 C 126.689 -1.78602 -3.14299 0
M  V30 1284 O 126.41 -3.17537 -3.01831 0
M  V30 1285 C 127.911 -1.72119 -4.08522 0
M  V30 1286 H 125.131 -0.395181 -0.542285 0
M  V30 1287 H 127.675 -1.66076 -1.19328 0
M  V30 1288 H 125.83 -1.29832 -3.64996 0
M  V30 1289 H 126.244 -3.49676 -3.90931 0
M  V30 1290 H 127.718 -2.22435 -5.052 0
M  V30 1291 H 128.195 -0.685635 -4.33815 0
M  V30 1292 H 128.801 -2.20393 -3.63741 0
M  V30 1293 N 127.117 1.15442 -1.07289 0
M  V30 1294 C 128.027 2.23786 -0.704057 0
M  V30 1295 C 129.043 1.7166 0.284413 0
M  V30 1296 O 130.219 2.00972 0.131205 0
M  V30 1297 C 127.284 3.46535 -0.106792 0
M  V30 1298 C 126.345 4.13654 -1.14842 0
M  V30 1299 C 125.578 5.30544 -0.57956 0
M  V30 1300 O 125.801 5.67187 0.604585 0
M  V30 1301 O 124.735 5.87154 -1.32414 0
M  V30 1302 H 128.561 2.57664 -1.60757 0
M  V30 1303 H 126.146 1.23152 -0.845803 0
M  V30 1304 H 128.028 4.20804 0.224048 0
M  V30 1305 H 126.703 3.14407 0.770049 0
M  V30 1306 H 125.61 3.4131 -1.5316 0
M  V30 1307 H 126.943 4.49861 -1.99714 0
M  V30 1308 N 128.595 0.856903 1.32268 0
M  V30 1309 C 129.558 0.308171 2.27119 0
M  V30 1310 C 130.558 -0.533421 1.51695 0
M  V30 1311 O 131.748 -0.344607 1.70757 0
M  V30 1312 C 128.88 -0.563757 3.36206 0
M  V30 1313 H 130.073 1.14535 2.77167 0
M  V30 1314 H 127.626 0.631421 1.42978 0
M  V30 1315 H 128.361 -1.42266 2.91429 0
M  V30 1316 H 128.146 0.0386749 3.92081 0
M  V30 1317 H 129.636 -0.940386 4.06874 0
M  V30 1318 N 130.073 -1.45103 0.615059 0
M  V30 1319 C 130.983 -2.34382 -0.101034 0
M  V30 1320 C 131.999 -1.51681 -0.852585 0
M  V30 1321 O 133.175 -1.8446 -0.808484 0
M  V30 1322 C 130.24 -3.29417 -1.08099 0
M  V30 1323 C 129.301 -4.28025 -0.330577 0
M  V30 1324 C 128.534 -5.1852 -1.26385 0
M  V30 1325 O 128.757 -5.12598 -2.50198 0
M  V30 1326 O 127.691 -5.97122 -0.756866 0
M  V30 1327 H 131.517 -2.97033 0.632855 0
M  V30 1328 H 129.102 -1.4461 0.375293 0
M  V30 1329 H 130.984 -3.87958 -1.6452 0
M  V30 1330 H 129.659 -2.69321 -1.79577 0
M  V30 1331 H 128.566 -3.73078 0.276283 0
M  V30 1332 H 129.899 -4.90997 0.343866 0
M  V30 1333 N 131.551 -0.354651 -1.53558 0
M  V30 1334 C 132.798 0.238443 -2.01091 0
M  V30 1335 C 133.126 1.49663 -1.24222 0
M  V30 1336 O 132.381 1.93049 -0.321003 0
M  V30 1337 C 132.68 0.587121 -3.52545 0
M  V30 1338 C 132.346 -0.575472 -4.47213 0
M  V30 1339 C 131.008 -0.894497 -4.72813 0
M  V30 1340 C 133.36 -1.35489 -5.03281 0
M  V30 1341 C 130.688 -1.99511 -5.51736 0
M  V30 1342 C 133.04 -2.44583 -5.83405 0
M  V30 1343 C 131.704 -2.77033 -6.07296 0
M  V30 1344 H 130.974 0.0872526 -0.735845 0
M  V30 1345 H 133.621 -0.484859 -1.8526 0
M  V30 1346 H 131.926 1.39129 -3.66265 0
M  V30 1347 H 133.623 1.05809 -3.86789 0
M  V30 1348 H 130.213 -0.316774 -4.27428 0
M  V30 1349 H 134.397 -1.12167 -4.83459 0
M  V30 1350 H 129.653 -2.25063 -5.68469 0
M  V30 1351 H 133.827 -3.05401 -6.25862 0
M  V30 1352 H 131.454 -3.6244 -6.68237 0
M  V30 1353 N 133.029 1.57378 -0.0835403 0
M  V30 1354 C 133.959 2.1641 0.87686 0
M  V30 1355 C 134.94 1.09429 1.30228 0
M  V30 1356 O 136.125 1.37516 1.37124 0
M  V30 1357 C 133.255 2.73517 2.14022 0
M  V30 1358 C 132.209 3.85769 1.85381 0
M  V30 1359 C 131.535 4.29529 3.18448 0
M  V30 1360 C 132.835 5.09486 1.14984 0
M  V30 1361 H 134.529 2.96914 0.385059 0
M  V30 1362 H 132.075 1.42823 0.18377 0
M  V30 1363 H 134.028 3.13463 2.81636 0
M  V30 1364 H 132.752 1.90252 2.65465 0
M  V30 1365 H 131.411 3.46345 1.20169 0
M  V30 1366 H 131.059 3.43169 3.67755 0
M  V30 1367 H 130.759 5.05204 3.00071 0
M  V30 1368 H 132.283 4.72099 3.8724 0
M  V30 1369 H 133.697 5.46674 1.72687 0
M  V30 1370 H 132.094 5.90515 1.06826 0
M  V30 1371 H 133.164 4.84724 0.130749 0
M  V30 1372 N 134.507 -0.190092 1.56449 0
M  V30 1373 C 135.923 -0.54113 1.50146 0
M  V30 1374 C 136.123 -1.85603 0.784465 0
M  V30 1375 O 135.179 -2.5024 0.337051 0
M  V30 1376 C 136.492 -0.591241 2.9483 0
M  V30 1377 C 138.04 -0.679732 3.0553 0
M  V30 1378 C 138.515 -0.760908 4.51635 0
M  V30 1379 N 140.006 -0.824302 4.55806 0
M  V30 1380 C 140.741 -0.907365 5.66175 0
M  V30 1381 N 140.237 -0.952422 6.86222 0
M  V30 1382 N 142.03 -0.94494 5.541 0
M  V30 1383 H 134.181 0.67235 2.01478 0
M  V30 1384 H 136.444 0.240127 0.917084 0
M  V30 1385 H 136.15 0.305905 3.50367 0
M  V30 1386 H 136.024 -1.44422 3.48457 0
M  V30 1387 H 138.411 -1.56731 2.50039 0
M  V30 1388 H 138.492 0.199549 2.5502 0
M  V30 1389 H 138.136 0.122336 5.07753 0
M  V30 1390 H 138.066 -1.65606 4.99882 0
M  V30 1391 H 140.557 -0.798526 3.69367 0
M  V30 1392 H 140.87 -1.01645 7.66086 0
M  V30 1393 H 139.215 -0.921014 6.8887 0
M  V30 1394 H 142.406 -0.906612 4.59236 0
M  V30 1395 H 142.579 -1.00622 6.4014 0
M  V30 1396 N 135.985 -1.50799 -0.457987 0
M  V30 1397 C 137.213 -1.66218 -1.23203 0
M  V30 1398 C 137.628 -0.350894 -1.85511 0
M  V30 1399 O 136.985 0.668546 -1.69814 0
M  V30 1400 C 137.036 -2.76291 -2.33121 0
M  V30 1401 O 136.757 -4.02338 -1.73366 0
M  V30 1402 C 138.258 -3.028 -3.2377 0
M  V30 1403 H 135.478 -0.558361 -0.372121 0
M  V30 1404 H 138.022 -1.97099 -0.545179 0
M  V30 1405 H 136.177 -2.48068 -2.97558 0
M  V30 1406 H 136.591 -4.63312 -2.4585 0
M  V30 1407 H 138.065 -3.8345 -3.97077 0
M  V30 1408 H 138.542 -2.14385 -3.83322 0
M  V30 1409 H 139.148 -3.32604 -2.65056 0
M  V30 1410 N 137.463 0.71206 -1.40597 0
M  V30 1411 C 138.396 1.83582 -1.35546 0
M  V30 1412 C 139.374 1.61032 -0.225284 0
M  V30 1413 O 140.558 1.83998 -0.409519 0
M  V30 1414 C 137.685 3.19983 -1.11034 0
M  V30 1415 C 136.731 3.61355 -2.2655 0
M  V30 1416 S 137.564 3.68062 -3.88961 0
M  V30 1417 C 138.72 5.07216 -3.66719 0
M  V30 1418 H 138.953 1.87586 -2.30648 0
M  V30 1419 H 136.486 0.879182 -1.26924 0
M  V30 1420 H 138.444 3.98734 -0.975761 0
M  V30 1421 H 137.105 3.13608 -0.175798 0
M  V30 1422 H 136.298 4.60403 -2.0505 0
M  V30 1423 H 135.9 2.8987 -2.36329 0
M  V30 1424 H 138.192 5.94238 -3.25404 0
M  V30 1425 H 139.135 5.33753 -4.6531 0
M  V30 1426 H 139.543 4.77976 -3.00332 0
M  V30 1427 N 138.941 1.26152 0.944643 0
M  V30 1428 C 140.169 1.14259 1.72489 0
M  V30 1429 C 140.584 -0.302555 1.8636 0
M  V30 1430 O 139.941 -1.20741 1.36849 0
M  V30 1431 C 139.992 1.80266 3.13347 0
M  V30 1432 O 139.713 3.19133 3.00143 0
M  V30 1433 C 141.214 1.74283 4.07603 0
M  V30 1434 H 138.434 0.398051 0.540181 0
M  V30 1435 H 140.978 1.66706 1.18446 0
M  V30 1436 H 139.133 1.31766 3.64303 0
M  V30 1437 H 139.547 3.51744 3.89071 0
M  V30 1438 H 141.021 2.25111 5.04013 0
M  V30 1439 H 141.498 0.708631 4.33446 0
M  V30 1440 H 142.104 2.22319 3.62567 0
M  V30 1441 N 140.419 -1.14872 1.07899 0
M  V30 1442 C 141.382 -2.17986 0.708161 0
M  V30 1443 C 142.382 -1.58775 -0.25442 0
M  V30 1444 O 143.572 -1.74166 -0.034645 0
M  V30 1445 C 140.704 -3.40871 0.0446929 0
M  V30 1446 H 141.897 -2.52306 1.62116 0
M  V30 1447 H 139.45 -1.2943 0.876218 0
M  V30 1448 H 140.185 -3.12124 -0.880281 0
M  V30 1449 H 139.97 -3.8511 0.737091 0
M  V30 1450 H 141.46 -4.17121 -0.19991 0
M  V30 1451 N 141.898 -0.863906 -1.31812 0
M  V30 1452 C 143.147 -0.46801 -1.96195 0
M  V30 1453 C 143.46 0.983474 -1.69077 0
M  V30 1454 O 144.666 1.48523 -2.27273 0
M  V30 1455 C 143.122 -0.785995 -3.51212 0
M  V30 1456 C 142.73 -2.25383 -3.87178 0
M  V30 1457 C 144.474 -0.458274 -4.22019 0
M  V30 1458 C 142.381 -2.51455 -5.3528 0
M  V30 1459 H 141.311 -0.171283 -0.734287 0
M  V30 1460 H 143.962 -1.05597 -1.50072 0
M  V30 1461 H 142.344 -0.127359 -3.95795 0
M  V30 1462 H 143.518 -2.95502 -3.53575 0
M  V30 1463 H 141.833 -2.54698 -3.2942 0
M  V30 1464 H 144.43 -0.630369 -5.30971 0
M  V30 1465 H 144.773 0.600834 -4.11941 0
M  V30 1466 H 145.306 -1.07319 -3.8305 0
M  V30 1467 H 142.045 -3.56025 -5.50387 0
M  V30 1468 H 141.565 -1.85923 -5.70257 0
M  V30 1469 H 143.244 -2.35874 -6.02472 0
M  V30 1470 N 143.376 1.44774 -0.622745 0
M  V30 1471 C 144.604 2.06487 -0.130722 0
M  V30 1472 C 145.019 1.46476 1.19123 0
M  V30 1473 O 144.376 0.584502 1.72887 0
M  V30 1474 C 144.427 3.615 -0.000807207 0
M  V30 1475 O 144.148 4.19274 -1.27048 0
M  V30 1476 C 145.649 4.40229 0.520898 0
M  V30 1477 H 142.869 0.666704 -0.0758106 0
M  V30 1478 H 145.413 1.85779 -0.854774 0
M  V30 1479 H 143.568 3.81498 0.673643 0
M  V30 1480 H 143.982 5.12622 -1.1099 0
M  V30 1481 H 145.456 5.49144 0.560838 0
M  V30 1482 H 145.933 4.1108 1.54627 0
M  V30 1483 H 146.539 4.25131 -0.120018 0
M  V30 1484 N 144.854 0.36279 1.53368 0
M  V30 1485 C 145.764 -0.492994 2.29362 0
M  V30 1486 C 146.78 -1.09507 1.35219 0
M  V30 1487 O 147.956 -1.10662 1.68273 0
M  V30 1488 C 145.021 -1.61855 3.066 0
M  V30 1489 C 144.082 -1.04429 4.16405 0
M  V30 1490 C 143.315 -2.11621 4.89951 0
M  V30 1491 O 143.538 -3.32684 4.63333 0
M  V30 1492 O 142.472 -1.74835 5.75948 0
M  V30 1493 H 146.298 0.125331 3.03441 0
M  V30 1494 H 143.883 0.127253 1.48857 0
M  V30 1495 H 145.765 -2.27302 3.54841 0
M  V30 1496 H 144.44 -2.22233 2.3536 0
M  V30 1497 H 143.347 -0.353819 3.72423 0
M  V30 1498 H 144.68 -0.485113 4.89804 0
M  V30 1499 N 146.332 -1.57332 0.0918853 0
M  V30 1500 C 147.578 -1.95328 -0.567313 0
M  V30 1501 C 147.933 -0.972866 -1.65991 0
M  V30 1502 O 147.226 0.00166256 -1.916 0
M  V30 1503 C 147.42 -3.37689 -1.17051 0
M  V30 1504 C 147.249 -4.49489 -0.137875 0
M  V30 1505 C 146.019 -5.04498 0.284515 0
M  V30 1506 C 148.217 -5.10393 0.63271 0
M  V30 1507 N 146.199 -5.99853 1.30576 0
M  V30 1508 C 147.57 -6.01435 1.50587 0
M  V30 1509 C 149.625 -4.93143 0.68658 0
M  V30 1510 C 148.328 -6.77077 2.42815 0
M  V30 1511 C 150.354 -5.69445 1.59645 0
M  V30 1512 C 149.716 -6.60151 2.45725 0
M  V30 1513 H 145.815 -0.761467 -0.178023 0
M  V30 1514 H 148.399 -1.93924 0.173706 0
M  V30 1515 H 146.57 -3.39793 -1.88136 0
M  V30 1516 H 148.302 -3.62872 -1.79181 0
M  V30 1517 H 145.057 -4.73489 -0.102593 0
M  V30 1518 H 145.481 -6.52231 1.81449 0
M  V30 1519 H 150.123 -4.22785 0.035244 0
M  V30 1520 H 147.841 -7.46699 3.08975 0
M  V30 1521 H 151.427 -5.58112 1.64323 0
M  V30 1522 H 150.307 -7.18159 3.14987 0
M  V30 1523 N 147.81 0.181792 -1.56548 0
M  V30 1524 C 149.056 0.901431 -1.81665 0
M  V30 1525 C 149.389 1.82347 -0.668075 0
M  V30 1526 O 148.664 1.91669 0.330615 0
M  V30 1527 C 148.947 1.70618 -3.17115 0
M  V30 1528 C 148.8 0.807964 -4.42484 0
M  V30 1529 C 150.119 2.67605 -3.49393 0
M  V30 1530 H 147.238 0.32627 -0.660846 0
M  V30 1531 H 149.88 0.168134 -1.89255 0
M  V30 1532 H 148.03 2.33133 -3.10775 0
M  V30 1533 H 149.702 0.19649 -4.60881 0
M  V30 1534 H 147.945 0.115411 -4.33646 0
M  V30 1535 H 148.616 1.40632 -5.33785 0
M  V30 1536 H 151.092 2.15218 -3.56118 0
M  V30 1537 H 149.968 3.20985 -4.45264 0
M  V30 1538 H 150.229 3.47298 -2.73563 0
M  V30 1539 N 149.288 1.51039 0.449983 0
M  V30 1540 C 150.513 1.6715 1.22783 0
M  V30 1541 C 150.938 0.363081 1.84563 0
M  V30 1542 O 150.296 -0.675433 1.68249 0
M  V30 1543 C 150.344 2.77985 2.29689 0
M  V30 1544 O 149.448 2.40707 3.34864 0
M  V30 1545 H 148.789 0.557746 0.360299 0
M  V30 1546 H 151.319 1.97535 0.533005 0
M  V30 1547 H 151.329 3.01693 2.74673 0
M  V30 1548 H 150.004 3.72935 1.84098 0
M  V30 1549 H 148.581 2.27523 2.95445 0
M  V30 1550 N 150.766 -0.704594 1.40972 0
M  V30 1551 C 152.177 -1.28418 1.3552 0
M  V30 1552 C 152.528 -1.96171 0.0339434 0
M  V30 1553 O 151.653 -1.98231 -0.867944 0
M  V30 1554 C 152.248 -2.33528 2.45459 0
M  V30 1555 C 150.807 -2.87085 2.43433 0
M  V30 1556 C 149.954 -1.61007 2.2577 0
M  V30 1557 H 152.905 -0.499963 1.50619 0
M  V30 1558 H 152.926 -3.14619 2.13998 0
M  V30 1559 H 152.438 -1.84187 3.41609 0
M  V30 1560 H 150.539 -3.40626 1.51013 0
M  V30 1561 H 150.652 -3.3813 3.39419 0
M  V30 1562 H 149.016 -1.86482 1.73483 0
M  V30 1563 H 149.799 -1.13675 3.23933 0
M  V30 1564 N 152.244 -1.26651 -0.937939 0
M  V30 1565 C 153.176 -1.04283 -2.04102 0
M  V30 1566 C 154.189 -0.00221014 -1.628 0
M  V30 1567 O 155.378 -0.242645 -1.76843 0
M  V30 1568 C 152.478 -0.557846 -3.34277 0
M  V30 1569 C 151.651 -1.66843 -4.04329 0
M  V30 1570 C 150.71 -1.18095 -5.12777 0
M  V30 1571 O 149.736 -1.87865 -5.37304 0
M  V30 1572 N 150.938 -0.0311006 -5.80492 0
M  V30 1573 H 153.703 -1.9927 -2.23856 0
M  V30 1574 H 151.264 -1.1808 -1.10764 0
M  V30 1575 H 153.256 -0.215836 -4.04124 0
M  V30 1576 H 151.826 0.298523 -3.11171 0
M  V30 1577 H 151.046 -2.18123 -3.28353 0
M  V30 1578 H 152.334 -2.41408 -4.47883 0
M  V30 1579 H 151.732 0.551486 -5.63005 0
M  V30 1580 H 150.289 0.251809 -6.51313 0
M  V30 1581 N 153.722 1.14298 -1.08507 0
M  V30 1582 C 154.632 2.23027 -0.727753 0
M  V30 1583 C 155.648 1.71952 0.26619 0
M  V30 1584 O 156.824 2.011 0.109882 0
M  V30 1585 C 153.889 3.46403 -0.143541 0
M  V30 1586 C 152.95 4.12413 -1.19223 0
M  V30 1587 C 152.183 5.29899 -0.635798 0
M  V30 1588 O 152.406 5.67796 0.544393 0
M  V30 1589 O 151.34 5.85717 -1.38634 0
M  V30 1590 H 155.166 2.55945 -1.63481 0
M  V30 1591 H 152.751 1.22248 -0.858817 0
M  V30 1592 H 154.633 4.21018 0.179404 0
M  V30 1593 H 153.308 3.15206 0.736659 0
M  V30 1594 H 152.215 3.39667 -1.56772 0
M  V30 1595 H 153.548 4.47718 -2.04474 0
M  V30 1596 N 155.201 0.870884 1.31352 0
M  V30 1597 C 156.449 0.48132 1.96285 0
M  V30 1598 C 156.77 -0.969813 1.69173 0
M  V30 1599 O 156.04 -1.67998 1.00764 0
M  V30 1600 H 154.62 0.175002 0.726212 0
M  V30 1601 H 157.282 1.11087 1.60143 0
M  V30 1602 H 156.378 0.639825 3.05471 0
M  V30 1603 N 156.679 -1.44442 0.630414 0
M  V30 1604 C 157.919 -2.03934 0.137919 0
M  V30 1605 C 158.283 -1.48509 -1.21692 0
M  V30 1606 O 159.484 -1.99499 -1.80149 0
M  V30 1607 C 157.755 -3.57187 0.123373 0
M  V30 1608 S 159.314 -4.37741 -0.304604 0
M  V30 1609 H 156.132 -0.708401 0.0607353 0
M  V30 1610 H 158.734 -1.76835 0.833643 0
M  V30 1611 H 157.438 -3.95032 1.11256 0
M  V30 1612 H 156.969 -3.88895 -0.59362 0
M  V30 1613 H 158.984 -4.71403 -1.54897 0
M  V30 1614 N 158.157 -0.370918 -1.53173 0
M  V30 1615 C 159.385 0.217704 -2.05751 0
M  V30 1616 C 159.8 1.42018 -1.24404 0
M  V30 1617 O 159.157 1.80245 -0.286033 0
M  V30 1618 C 159.208 0.605954 -3.56385 0
M  V30 1619 O 158.929 -0.548734 -4.3465 0
M  V30 1620 C 160.43 1.2524 -4.25241 0
M  V30 1621 H 157.65 0.0371659 -0.66997 0
M  V30 1622 H 160.194 -0.530832 -1.9749 0
M  V30 1623 H 158.349 1.3044 -3.6478 0
M  V30 1624 H 158.763 -0.23376 -5.23979 0
M  V30 1625 H 160.237 1.47458 -5.3194 0
M  V30 1626 H 160.714 2.2143 -3.79296 0
M  V30 1627 H 161.32 0.595233 -4.21114 0
M  V30 1628 N 159.635 1.57281 -0.100228 0
M  V30 1629 C 160.865 1.98591 0.569681 0
M  V30 1630 C 161.273 0.978315 1.61943 0
M  V30 1631 O 160.616 -0.0396108 1.83657 0
M  V30 1632 C 160.678 3.36282 1.271 0
M  V30 1633 C 160.342 4.55488 0.371409 0
M  V30 1634 C 161.339 5.18491 -0.382504 0
M  V30 1635 C 159.024 5.01474 0.287965 0
M  V30 1636 C 161.018 6.25852 -1.20779 0
M  V30 1637 C 158.705 6.08701 -0.540965 0
M  V30 1638 C 159.703 6.70755 -1.28749 0
M  V30 1639 O 159.391 7.75914 -2.10269 0
M  V30 1640 H 159.123 0.65752 0.156982 0
M  V30 1641 H 161.677 2.0463 -0.177734 0
M  V30 1642 H 159.907 3.26941 2.0651 0
M  V30 1643 H 161.596 3.62005 1.83595 0
M  V30 1644 H 162.362 4.83891 -0.3278 0
M  V30 1645 H 158.241 4.52932 0.858689 0
M  V30 1646 H 161.785 6.74218 -1.79096 0
M  V30 1647 H 157.682 6.42732 -0.597131 0
M  V30 1648 H 158.45 7.92925 -2.03007 0
M  V30 1649 N 161.113 -0.173488 1.56642 0
M  V30 1650 C 162.353 -0.896984 1.83667 0
M  V30 1651 C 162.717 -1.79523 0.680842 0
M  V30 1652 O 163.918 -2.55616 0.831488 0
M  V30 1653 C 162.189 -1.67351 3.15798 0
M  V30 1654 S 163.748 -2.44607 3.64298 0
M  V30 1655 H 160.566 -0.300464 0.644393 0
M  V30 1656 H 163.168 -0.158775 1.94854 0
M  V30 1657 H 161.872 -1.00462 3.97914 0
M  V30 1658 H 161.403 -2.45313 3.07546 0
M  V30 1659 H 163.418 -3.69261 3.31452 0
M  V30 1660 N 162.591 -1.51276 -0.441967 0
M  V30 1661 C 163.541 -1.6864 -1.53442 0
M  V30 1662 C 164.525 -0.540444 -1.51552 0
M  V30 1663 O 165.717 -0.796157 -1.58083 0
M  V30 1664 C 162.846 -1.8106 -2.91672 0
M  V30 1665 C 161.932 -3.01424 -2.98336 0
M  V30 1666 N 162.323 -4.2467 -2.74752 0
M  V30 1667 C 160.621 -3.00584 -3.29493 0
M  V30 1668 C 161.322 -5.05891 -2.87139 0
M  V30 1669 N 160.298 -4.40442 -3.18609 0
M  V30 1670 H 164.1 -2.61598 -1.33954 0
M  V30 1671 H 161.614 -1.4886 -0.6492 0
M  V30 1672 H 163.611 -1.91609 -3.70259 0
M  V30 1673 H 162.271 -0.892795 -3.12185 0
M  V30 1674 H 163.282 -4.53691 -2.49769 0
M  V30 1675 H 159.959 -2.18417 -3.55809 0
M  V30 1676 H 161.349 -6.13983 -2.72899 0
M  V30 1677 N 164.069 0.697108 -1.41344 0
M  V30 1678 C 165.346 1.45154 -1.31109 0
M  V30 1679 C 165.726 2.11009 0.0620449 0
M  V30 1680 O 165.074 2.01571 1.07618 0
M  V30 1681 C 165.284 2.47223 -2.46337 0
M  V30 1682 C 166.632 3.1252 -2.87431 0
M  V30 1683 O 167.656 2.57547 -2.46065 0
M  V30 1684 O 166.515 4.12083 -3.58957 0
M  V30 1685 H 163.609 0.646365 -0.515889 0
M  V30 1686 H 166.155 0.727716 -1.53305 0
M  V30 1687 H 164.927 1.97204 -3.37974 0
M  V30 1688 H 164.55 3.27116 -2.2601 0
M  V30 1689 N 165.547 1.27147 0.931209 0
M  V30 1690 C 166.457 1.11372 2.06478 0
M  V30 1691 C 167.473 0.044645 1.73943 0
M  V30 1692 O 168.649 0.250417 1.99837 0
M  V30 1693 C 165.714 0.758838 3.38294 0
M  V30 1694 C 164.775 1.90841 3.84549 0
M  V30 1695 C 164.008 1.57036 5.10074 0
M  V30 1696 O 164.231 0.476645 5.68405 0
M  V30 1697 O 163.165 2.40839 5.51616 0
M  V30 1698 H 166.991 2.06493 2.22698 0
M  V30 1699 H 164.576 1.06301 1.04978 0
M  V30 1700 H 166.458 0.574098 4.17471 0
M  V30 1701 H 165.133 -0.162879 3.2329 0
M  V30 1702 H 164.04 2.14819 3.06274 0
M  V30 1703 H 165.373 2.81021 4.04089 0
M  V30 1704 N 167.025 -1.13721 1.09112 0
M  V30 1705 C 167.973 -2.21103 0.722219 0
M  V30 1706 C 168.967 -1.67147 -0.275374 0
M  V30 1707 O 170.173 -1.79477 -0.137176 0
M  V30 1708 H 166.548 -0.720445 0.215553 0
M  V30 1709 H 168.519 -2.49483 1.63709 0
M  V30 1710 C 167.268 -3.47352 0.15543 0
M  V30 1711 H 166.591 -3.89206 0.914246 0
M  V30 1712 H 168.031 -4.2395 -0.0647967 0
M  V30 1713 C 166.49 -3.1814 -1.10852 0
M  V30 1714 O 167.02 -3.36604 -2.19227 0
M  V30 1715 N 165.226 -2.72045 -1.02176 0
M  V30 1716 H 164.773 -2.57221 -0.139764 0
M  V30 1717 H 164.731 -2.52875 -1.8682 0
M  V30 1718 N 168.503 -0.877838 -1.30888 0
M  V30 1719 C 169.451 -0.328662 -2.30266 0
M  V30 1720 C 170.445 0.560496 -1.59859 0
M  V30 1721 O 171.651 0.445722 -1.74394 0
M  V30 1722 H 168.026 -0.0876142 -0.746879 0
M  V30 1723 H 169.997 -1.18061 -2.74051 0
M  V30 1724 C 168.746 0.448071 -3.44801 0
M  V30 1725 H 168.069 -0.226859 -3.99156 0
M  V30 1726 H 169.509 0.797541 -4.16432 0
M  V30 1727 C 167.968 1.64239 -2.94155 0
M  V30 1728 O 168.498 2.74175 -2.93583 0
M  V30 1729 N 166.704 1.47716 -2.50256 0
M  V30 1730 H 166.251 0.582821 -2.5092 0
M  V30 1731 H 166.209 2.27765 -2.16727 0
M  V30 1732 N 169.982 1.44106 -0.638065 0
M  V30 1733 C 170.912 2.33448 0.0494287 0
M  V30 1734 C 171.893 1.48606 0.827672 0
M  V30 1735 O 173.078 1.77308 0.792173 0
M  V30 1736 C 170.208 3.31771 1.02691 0
M  V30 1737 C 169.162 4.26485 0.359823 0
M  V30 1738 C 168.488 5.14729 1.44769 0
M  V30 1739 C 169.788 5.17056 -0.738296 0
M  V30 1740 H 171.482 2.91183 -0.696636 0
M  V30 1741 H 169.028 1.40014 -0.336456 0
M  V30 1742 H 170.981 3.93161 1.51666 0
M  V30 1743 H 169.705 2.7226 1.80395 0
M  V30 1744 H 168.364 3.66437 -0.10934 0
M  V30 1745 H 168.012 4.51566 2.21578 0
M  V30 1746 H 167.712 5.78913 1.00668 0
M  V30 1747 H 169.236 5.78991 1.93911 0
M  V30 1748 H 170.65 5.72342 -0.331354 0
M  V30 1749 H 169.047 5.89879 -1.10286 0
M  V30 1750 H 170.117 4.57652 -1.60258 0
M  V30 1751 N 171.46 0.379036 1.52974 0
M  V30 1752 C 172.423 -0.448865 2.24762 0
M  V30 1753 C 173.423 -0.998689 1.26027 0
M  V30 1754 O 174.613 -0.882313 1.50203 0
M  V30 1755 C 171.745 -1.62872 2.99476 0
M  V30 1756 H 172.938 0.179491 2.99362 0
M  V30 1757 H 170.491 0.13096 1.5575 0
M  V30 1758 H 171.226 -2.29479 2.29151 0
M  V30 1759 H 171.011 -1.24128 3.71934 0
M  V30 1760 H 172.501 -2.2151 3.5401 0
M  V30 1761 N 172.938 -1.57226 0.108567 0
M  V30 1762 C 174.163 -1.99604 -0.563303 0
M  V30 1763 C 174.588 -0.987563 -1.6009 0
M  V30 1764 O 173.946 0.0421687 -1.81251 0
M  V30 1765 C 173.994 -3.40902 -1.17552 0
M  V30 1766 O 173.098 -3.42896 -2.2912 0
M  V30 1767 H 172.439 -0.648704 -0.1417 0
M  V30 1768 H 174.969 -2.03679 0.193961 0
M  V30 1769 H 174.979 -3.78886 -1.51357 0
M  V30 1770 H 173.654 -4.1382 -0.415445 0
M  V30 1771 H 172.231 -3.1672 -1.96832 0
M  V30 1772 N 174.416 0.165178 -1.56732 0
M  V30 1773 C 175.326 1.22423 -2.00125 0
M  V30 1774 C 176.342 1.48084 -0.913619 0
M  V30 1775 O 177.518 1.60112 -1.22172 0
M  V30 1776 C 174.583 2.54197 -2.35764 0
M  V30 1777 C 173.644 2.36343 -3.58386 0
M  V30 1778 C 172.877 3.61834 -3.92316 0
M  V30 1779 O 173.1 4.67267 -3.27135 0
M  V30 1780 O 172.034 3.55579 -4.85641 0
M  V30 1781 H 175.86 0.885886 -2.90492 0
M  V30 1782 H 173.445 0.372518 -1.44681 0
M  V30 1783 H 175.327 3.3192 -2.59629 0
M  V30 1784 H 174.002 2.87598 -1.48557 0
M  V30 1785 H 172.909 1.56632 -3.39731 0
M  V30 1786 H 174.242 2.07865 -4.46154 0
M  V30 1787 N 175.894 1.51508 0.433938 0
M  V30 1788 C 176.857 1.72473 1.50949 0
M  V30 1789 C 177.857 0.594725 1.49398 0
M  V30 1790 O 179.047 0.862315 1.5136 0
M  V30 1791 C 176.179 1.78431 2.90474 0
M  V30 1792 H 177.372 2.68467 1.33662 0
M  V30 1793 H 174.925 1.41549 0.662836 0
M  V30 1794 H 175.66 0.842645 3.13161 0
M  V30 1795 H 175.445 2.60558 2.93005 0
M  V30 1796 H 176.935 1.96479 3.68491 0
M  V30 1797 N 177.372 -0.689602 1.41712 0
M  V30 1798 C 178.319 -1.80345 1.44029 0
M  V30 1799 C 179.289 -1.63478 0.293948 0
M  V30 1800 O 180.474 -1.84244 0.495869 0
M  V30 1801 C 177.614 -3.18272 1.33405 0
M  V30 1802 C 176.727 -3.46529 2.57956 0
M  V30 1803 C 175.862 -4.74103 2.39582 0
M  V30 1804 C 174.901 -4.95347 3.5958 0
M  V30 1805 N 174.038 -6.14151 3.40239 0
M  V30 1806 H 178.878 -1.77698 2.39222 0
M  V30 1807 H 176.415 -0.867688 1.18784 0
M  V30 1808 H 178.373 -3.97956 1.25246 0
M  V30 1809 H 177.003 -3.2008 0.418164 0
M  V30 1810 H 176.055 -2.61207 2.76542 0
M  V30 1811 H 177.367 -3.58126 3.47199 0
M  V30 1812 H 176.521 -5.61853 2.28924 0
M  V30 1813 H 175.26 -4.64763 1.47805 0
M  V30 1814 H 174.265 -4.06044 3.70686 0
M  V30 1815 H 175.49 -5.06542 4.52318 0
M  V30 1816 H 173.436 -6.06013 2.51167 0
M  V30 1817 H 173.353 -6.26543 4.23061 0
M  V30 1818 H 174.621 -7.04619 3.33365 0
M  V30 1819 N 178.85 -1.27639 -0.924453 0
M  V30 1820 C 180.08 -1.16819 -1.70402 0
M  V30 1821 C 180.488 0.277191 -1.87158 0
M  V30 1822 O 179.831 1.20025 -1.39067 0
M  V30 1823 C 179.893 -1.78305 -3.12166 0
M  V30 1824 C 179.557 -3.27502 -3.18734 0
M  V30 1825 C 180.554 -4.2409 -3.00738 0
M  V30 1826 C 178.239 -3.68269 -3.4159 0
M  V30 1827 C 180.233 -5.59422 -3.05492 0
M  V30 1828 C 177.92 -5.0373 -3.45977 0
M  V30 1829 C 178.918 -5.99116 -3.27946 0
M  V30 1830 O 178.606 -7.32108 -3.32074 0
M  V30 1831 H 178.338 -0.406931 -0.539799 0
M  V30 1832 H 180.892 -1.69078 -1.16626 0
M  V30 1833 H 179.122 -1.20528 -3.67437 0
M  V30 1834 H 180.811 -1.62154 -3.72103 0
M  V30 1835 H 181.577 -3.93931 -2.82919 0
M  V30 1836 H 177.456 -2.94496 -3.54673 0
M  V30 1837 H 181 -6.33852 -2.91337 0
M  V30 1838 H 176.897 -5.33543 -3.63321 0
M  V30 1839 H 177.665 -7.40598 -3.48507 0
M  V30 1840 N 180.328 1.1314 -1.09713 0
M  V30 1841 C 181.739 1.66029 -0.853885 0
M  V30 1842 C 182.09 1.86241 0.617142 0
M  V30 1843 O 181.215 1.5834 1.47503 0
M  V30 1844 C 181.81 3.01599 -1.5435 0
M  V30 1845 C 180.369 3.51467 -1.34714 0
M  V30 1846 C 179.516 2.26648 -1.59769 0
M  V30 1847 H 182.467 0.970226 -1.25588 0
M  V30 1848 H 182.488 3.67709 -0.978267 0
M  V30 1849 H 182 2.86856 -2.6141 0
M  V30 1850 H 180.101 3.71408 -0.297838 0
M  V30 1851 H 180.214 4.314 -2.08401 0
M  V30 1852 H 178.578 2.33385 -1.01998 0
M  V30 1853 H 179.361 2.14467 -2.68065 0
M  V30 1854 N 181.806 0.884767 1.30421 0
M  V30 1855 C 183.036 0.517293 2.00019 0
M  V30 1856 C 183.444 -0.898632 1.66497 0
M  V30 1857 O 182.787 -1.60245 0.898181 0
M  V30 1858 C 182.849 0.612025 3.54252 0
M  V30 1859 C 182.513 1.99222 4.1129 0
M  V30 1860 C 183.51 2.9616 4.273 0
M  V30 1861 C 181.195 2.29755 4.46674 0
M  V30 1862 C 183.189 4.21764 4.77906 0
M  V30 1863 C 180.876 3.55606 4.96979 0
M  V30 1864 C 181.874 4.51425 5.12547 0
M  V30 1865 O 181.562 5.75043 5.61766 0
M  V30 1866 H 181.294 0.198529 0.64619 0
M  V30 1867 H 183.848 1.1919 1.67281 0
M  V30 1868 H 182.078 -0.119561 3.86515 0
M  V30 1869 H 183.767 0.255859 4.05093 0
M  V30 1870 H 184.533 2.73882 4.00267 0
M  V30 1871 H 180.412 1.55942 4.33824 0
M  V30 1872 H 183.956 4.96561 4.89972 0
M  V30 1873 H 179.853 3.7772 5.23448 0
M  V30 1874 H 180.621 5.77422 5.80109 0
M  V30 1875 N 183.284 -1.43765 0.645699 0
M  V30 1876 C 184.53 -2.02197 0.156271 0
M  V30 1877 C 184.863 -1.50776 -1.22393 0
M  V30 1878 O 184.138 -0.697771 -1.81553 0
M  V30 1879 C 184.421 -3.59749 0.158872 0
M  V30 1880 C 184.274 -4.21419 1.57245 0
M  V30 1881 C 185.593 -4.37149 -0.50879 0
M  V30 1882 H 182.712 -0.734694 0.0582602 0
M  V30 1883 H 185.354 -1.71157 0.824951 0
M  V30 1884 H 183.504 -3.86325 -0.410525 0
M  V30 1885 H 185.176 -4.059 2.19186 0
M  V30 1886 H 183.419 -3.78356 2.122 0
M  V30 1887 H 184.09 -5.30482 1.52619 0
M  V30 1888 H 186.566 -4.16093 -0.024412 0
M  V30 1889 H 185.442 -5.4683 -0.476213 0
M  V30 1890 H 185.703 -4.12839 -1.58165 0
M  V30 1891 N 184.763 -0.387143 -1.52771 0
M  V30 1892 C 186.009 0.196025 -2.0185 0
M  V30 1893 C 186.342 1.46641 -1.27319 0
M  V30 1894 O 185.617 1.90889 -0.373032 0
M  V30 1895 C 185.9 0.466136 -3.5707 0
M  V30 1896 C 185.753 -0.819385 -4.42274 0
M  V30 1897 C 187.072 1.25768 -4.21747 0
M  V30 1898 H 184.191 0.0697708 -0.73369 0
M  V30 1899 H 186.833 -0.516286 -1.82851 0
M  V30 1900 H 184.983 1.07293 -3.7339 0
M  V30 1901 H 186.655 -1.4563 -4.37709 0
M  V30 1902 H 184.898 -1.43517 -4.09372 0
M  V30 1903 H 185.569 -0.585065 -5.48891 0
M  V30 1904 H 188.045 0.744167 -4.09391 0
M  V30 1905 H 186.921 1.41541 -5.30337 0
M  V30 1906 H 187.182 2.27228 -3.79236 0
M  V30 1907 N 186.241 1.57166 -0.116904 0
M  V30 1908 C 187.204 2.14039 0.819742 0
M  V30 1909 C 188.204 1.07477 1.19605 0
M  V30 1910 O 189.394 1.33263 1.1219 0
M  V30 1911 C 186.526 2.67891 2.10826 0
M  V30 1912 H 187.719 2.98128 0.325511 0
M  V30 1913 H 185.272 1.55739 0.132312 0
M  V30 1914 H 186.007 1.87384 2.64685 0
M  V30 1915 H 185.792 3.45823 1.84793 0
M  V30 1916 H 187.282 3.11809 2.77785 0
M  V30 1917 N 187.719 -0.156864 1.56817 0
M  V30 1918 C 189.135 -0.50916 1.5126 0
M  V30 1919 C 189.335 -1.83897 0.823658 0
M  V30 1920 O 188.391 -2.49469 0.390055 0
M  V30 1921 C 189.704 -0.52857 2.96018 0
M  V30 1922 C 191.252 -0.614771 3.06903 0
M  V30 1923 C 191.727 -0.664938 4.53147 0
M  V30 1924 N 193.218 -0.727433 4.57452 0
M  V30 1925 C 193.953 -0.787067 5.67973 0
M  V30 1926 N 193.449 -0.806649 6.88088 0
M  V30 1927 N 195.242 -0.827195 5.5598 0
M  V30 1928 H 187.393 0.714935 2.00006 0
M  V30 1929 H 189.656 0.259526 0.911784 0
M  V30 1930 H 189.362 0.380154 3.49639 0
M  V30 1931 H 189.236 -1.36998 3.51442 0
M  V30 1932 H 191.623 -1.51392 2.53307 0
M  V30 1933 H 191.704 0.253597 2.5454 0
M  V30 1934 H 191.348 0.230011 5.07379 0
M  V30 1935 H 191.278 -1.54966 5.03282 0
M  V30 1936 H 193.769 -0.719998 3.70978 0
M  V30 1937 H 194.082 -0.853727 7.6807 0
M  V30 1938 H 192.427 -0.774687 6.90669 0
M  V30 1939 H 195.618 -0.808998 4.61056 0
M  V30 1940 H 195.791 -0.870206 6.4213 0
M  V30 1941 N 189.197 -1.51736 -0.425897 0
M  V30 1942 C 190.613 -1.40166 -0.76326 0
M  V30 1943 C 190.813 -0.492962 -1.95377 0
M  V30 1944 O 189.869 0.0475815 -2.52455 0
M  V30 1945 C 191.182 -2.82403 -1.03291 0
M  V30 1946 C 192.73 -2.91632 -1.13665 0
M  V30 1947 C 193.205 -4.34801 -1.43916 0
M  V30 1948 N 194.696 -4.3796 -1.50816 0
M  V30 1949 C 195.431 -5.4578 -1.75817 0
M  V30 1950 N 194.927 -6.63744 -1.98534 0
M  V30 1951 N 196.72 -5.33274 -1.77694 0
M  V30 1952 H 188.871 -2.09361 0.358 0
M  V30 1953 H 191.134 -0.942941 0.0978094 0
M  V30 1954 H 190.84 -3.50943 -0.230696 0
M  V30 1955 H 190.714 -3.22428 -1.95754 0
M  V30 1956 H 193.101 -2.23284 -1.92947 0
M  V30 1957 H 193.182 -2.55088 -0.190756 0
M  V30 1958 H 192.826 -5.03703 -0.65157 0
M  V30 1959 H 192.756 -4.68868 -2.39729 0
M  V30 1960 H 195.247 -3.52919 -1.35118 0
M  V30 1961 H 195.56 -7.41704 -2.17013 0
M  V30 1962 H 193.905 -6.66839 -1.95832 0
M  V30 1963 H 197.096 -4.40098 -1.59473 0
M  V30 1964 H 197.269 -6.1738 -1.9684 0
M  V30 1965 N 190.675 0.682077 -1.42076 0
M  V30 1966 C 191.608 1.80666 -1.3941 0
M  V30 1967 C 192.586 1.60518 -0.25939 0
M  V30 1968 O 193.77 1.83088 -0.448456 0
M  V30 1969 C 190.897 3.17556 -1.17796 0
M  V30 1970 C 189.943 3.56468 -2.34164 0
M  V30 1971 S 190.776 3.59729 -3.96681 0
M  V30 1972 C 191.932 4.99323 -3.77395 0
M  V30 1973 H 192.165 1.82652 -2.34575 0
M  V30 1974 H 189.698 0.852062 -1.2876 0
M  V30 1975 H 191.656 3.96575 -1.06012 0
M  V30 1976 H 190.317 3.13164 -0.242279 0
M  V30 1977 H 189.51 4.5595 -2.1477 0
M  V30 1978 H 189.112 2.84792 -2.42425 0
M  V30 1979 H 191.404 5.87202 -3.37935 0
M  V30 1980 H 192.347 5.23763 -4.76527 0
M  V30 1981 H 192.755 4.71498 -3.10403 0
M  V30 1982 N 192.153 1.28127 0.917671 0
M  V30 1983 C 193.083 1.14248 2.03641 0
M  V30 1984 C 194.064 0.0412748 1.7005 0
M  V30 1985 O 195.249 0.217566 1.92977 0
M  V30 1986 C 192.379 0.799431 3.37974 0
M  V30 1987 C 191.333 1.85497 3.85713 0
M  V30 1988 C 190.659 1.36565 5.16966 0
M  V30 1989 C 191.959 3.26085 4.08002 0
M  V30 1990 H 193.653 2.07835 2.15511 0
M  V30 1991 H 191.199 1.00064 1.03553 0
M  V30 1992 H 193.152 0.689114 4.15727 0
M  V30 1993 H 191.876 -0.172145 3.26146 0
M  V30 1994 H 190.535 1.95437 3.10161 0
M  V30 1995 H 190.183 0.383253 5.01538 0
M  V30 1996 H 189.883 2.07143 5.49878 0
M  V30 1997 H 191.407 1.26848 5.97279 0
M  V30 1998 H 192.821 3.19089 4.76293 0
M  V30 1999 H 191.218 3.94462 4.52238 0
M  V30 2000 H 192.288 3.70394 3.12948 0
M  V30 2001 N 193.631 -1.12557 1.10312 0
M  V30 2002 C 194.541 -2.21841 0.763142 0
M  V30 2003 C 195.557 -1.72354 -0.238801 0
M  V30 2004 O 196.733 -2.01249 -0.0778746 0
M  V30 2005 C 193.798 -3.46131 0.198632 0
M  V30 2006 C 192.859 -4.10464 1.25769 0
M  V30 2007 C 192.092 -5.28821 0.72002 0
M  V30 2008 O 192.315 -5.6859 -0.453993 0
M  V30 2009 O 191.249 -5.83437 1.47935 0
M  V30 2010 H 195.075 -2.53312 1.67532 0
M  V30 2011 H 192.66 -1.20867 0.878157 0
M  V30 2012 H 194.542 -4.2125 -0.112401 0
M  V30 2013 H 193.217 -3.16338 -0.686419 0
M  V30 2014 H 192.124 -3.3713 1.62156 0
M  V30 2015 H 193.457 -4.44408 2.11571 0
M  V30 2016 N 195.109 -0.891671 -1.2995 0
M  V30 2017 C 196.042 -0.307994 -2.26112 0
M  V30 2018 C 197.02 0.575262 -1.52084 0
M  V30 2019 O 198.204 0.523864 -1.81074 0
M  V30 2020 C 195.331 0.561734 -3.34009 0
M  V30 2021 C 194.377 -0.253107 -4.25748 0
M  V30 2022 S 195.21 -1.64572 -5.09584 0
M  V30 2023 C 196.366 -0.782699 -6.20987 0
M  V30 2024 H 196.599 -1.12309 -2.75271 0
M  V30 2025 H 194.132 -0.691509 -1.38049 0
M  V30 2026 H 196.09 1.05777 -3.96638 0
M  V30 2027 H 194.751 1.35099 -2.83561 0
M  V30 2028 H 193.944 0.410908 -5.02322 0
M  V30 2029 H 193.546 -0.682004 -3.67729 0
M  V30 2030 H 195.838 -0.00257476 -6.775 0
M  V30 2031 H 196.781 -1.52026 -6.91588 0
M  V30 2032 H 197.189 -0.340638 -5.63471 0
M  V30 2033 N 196.587 1.43421 -0.653314 0
M  V30 2034 C 197.815 2.06163 -0.174491 0
M  V30 2035 C 198.23 1.48969 1.1599 0
M  V30 2036 O 197.587 0.621042 1.71608 0
M  V30 2037 C 197.638 3.61417 -0.0774865 0
M  V30 2038 O 197.359 4.16485 -1.35912 0
M  V30 2039 C 198.86 4.41235 0.427402 0
M  V30 2040 H 196.08 0.664946 -0.0899353 0
M  V30 2041 H 198.624 1.83924 -0.893988 0
M  V30 2042 H 196.779 3.82841 0.59257 0
M  V30 2043 H 197.193 5.10153 -1.21839 0
M  V30 2044 H 198.667 5.5021 0.44423 0
M  V30 2045 H 199.144 4.14268 1.45873 0
M  V30 2046 H 199.75 4.2478 -0.210167 0
M  V30 2047 N 198.065 0.39524 1.52563 0
M  V30 2048 C 199.481 0.0454682 1.59535 0
M  V30 2049 C 199.681 -1.44056 1.4089 0
M  V30 2050 O 198.737 -2.20579 1.22888 0
M  V30 2051 C 200.05 0.527963 2.96029 0
M  V30 2052 C 201.598 0.484733 3.09224 0
M  V30 2053 C 202.073 0.943512 4.48176 0
M  V30 2054 N 203.564 0.899765 4.54377 0
M  V30 2055 C 204.299 1.22609 5.60138 0
M  V30 2056 N 203.795 1.62319 6.73516 0
M  V30 2057 N 205.588 1.14696 5.50274 0
M  V30 2058 H 197.739 1.36261 1.62931 0
M  V30 2059 H 200.002 0.558887 0.765735 0
M  V30 2060 H 199.708 1.56607 3.14908 0
M  V30 2061 H 199.582 -0.0698056 3.77135 0
M  V30 2062 H 201.969 -0.544298 2.90037 0
M  V30 2063 H 202.05 1.11838 2.30056 0
M  V30 2064 H 201.694 1.9708 4.68104 0
M  V30 2065 H 201.624 0.286817 5.25818 0
M  V30 2066 H 204.115 0.607632 3.72983 0
M  V30 2067 H 204.428 1.85567 7.5019 0
M  V30 2068 H 202.773 1.66211 6.74833 0
M  V30 2069 H 205.964 0.835701 4.6058 0
M  V30 2070 H 206.137 1.40459 6.32594 0
M  V30 2071 N 199.544 -1.57102 0.125237 0
M  V30 2072 C 200.507 -2.14471 -0.80838 0
M  V30 2073 C 201.507 -1.0811 -1.19033 0
M  V30 2074 O 202.697 -1.33856 -1.11482 0
M  V30 2075 C 199.829 -2.69005 -2.09402 0
M  V30 2076 H 201.022 -2.98297 -0.309696 0
M  V30 2077 H 198.575 -1.55807 -0.124051 0
M  V30 2078 H 199.31 -1.88785 -2.63687 0
M  V30 2079 H 199.095 -3.46799 -1.82957 0
M  V30 2080 H 200.585 -3.13278 -2.76128 0
M  V30 2081 N 201.022 0.148545 -1.56898 0
M  V30 2082 C 202.271 0.85984 -1.82454 0
M  V30 2083 C 202.584 1.82406 -0.706229 0
M  V30 2084 O 203.79 2.57938 -0.847349 0
M  V30 2085 C 202.246 1.57967 -3.2338 0
M  V30 2086 C 201.854 0.65794 -4.43142 0
M  V30 2087 C 203.598 2.27784 -3.58211 0
M  V30 2088 C 201.505 1.3793 -5.75091 0
M  V30 2089 H 200.435 0.324834 -0.68044 0
M  V30 2090 H 203.086 0.112588 -1.83154 0
M  V30 2091 H 201.468 2.37249 -3.17063 0
M  V30 2092 H 202.642 -0.0995497 -4.60692 0
M  V30 2093 H 200.957 0.0682643 -4.16344 0
M  V30 2094 H 203.554 2.8239 -4.54048 0
M  V30 2095 H 203.897 3.04204 -2.84193 0
M  V30 2096 H 204.43 1.55421 -3.66182 0
M  V30 2097 H 201.169 0.656982 -6.52199 0
M  V30 2098 H 200.689 2.10954 -5.61479 0
M  V30 2099 H 202.368 1.92063 -6.17835 0
M  V30 2100 N 202.5 1.5196 0.417844 0
M  V30 2101 C 203.448 1.75278 1.52907 0
M  V30 2102 C 204.442 0.619611 1.57662 0
M  V30 2103 O 205.648 0.801457 1.61173 0
M  V30 2104 H 202.023 0.554141 0.508362 0
M  V30 2105 H 203.994 2.68389 1.30422 0
M  V30 2106 C 202.743 1.91262 2.90369 0
M  V30 2107 H 202.066 2.77872 2.8745 0
M  V30 2108 H 203.506 2.11581 3.67436 0
M  V30 2109 C 201.965 0.677431 3.30019 0
M  V30 2110 O 202.495 -0.158799 4.01386 0
M  V30 2111 N 200.701 0.515851 2.85985 0
M  V30 2112 H 200.248 1.19744 2.28077 0
M  V30 2113 H 200.206 -0.309315 3.12875 0
M  V30 2114 N 203.978 -0.674533 1.42435 0
M  V30 2115 C 205.206 -1.46283 1.46317 0
M  V30 2116 C 205.621 -1.88653 0.0745836 0
M  V30 2117 O 204.978 -1.58151 -0.91074 0
M  V30 2118 C 205.029 -2.71178 2.3905 0
M  V30 2119 O 204.75 -2.30586 3.72507 0
M  V30 2120 C 206.251 -3.64738 2.51955 0
M  V30 2121 H 203.471 -0.450104 0.497642 0
M  V30 2122 H 206.015 -0.828792 1.86953 0
M  V30 2123 H 204.17 -3.3077 2.01667 0
M  V30 2124 H 204.584 -3.11241 4.22172 0
M  V30 2125 H 206.058 -4.49096 3.20962 0
M  V30 2126 H 206.535 -4.10656 1.55752 0
M  V30 2127 H 207.141 -3.11038 2.90061 0
M  V30 2128 N 205.456 -1.28612 -0.910864 0
M  V30 2129 C 206.404 -1.1265 -2.03501 0
M  V30 2130 C 207.398 -0.0450054 -1.6934 0
M  V30 2131 O 208.604 -0.203988 -1.7884 0
M  V30 2132 H 204.979 -0.347639 -0.666822 0
M  V30 2133 H 206.95 -2.07849 -2.14106 0
M  V30 2134 C 205.699 -0.808143 -3.38178 0
M  V30 2135 H 205.022 -1.63231 -3.6496 0
M  V30 2136 H 206.462 -0.736426 -4.17556 0
M  V30 2137 C 204.921 0.488226 -3.33344 0
M  V30 2138 O 205.451 1.51766 -3.71927 0
M  V30 2139 N 203.657 0.490009 -2.86439 0
M  V30 2140 H 203.204 -0.348161 -2.55236 0
M  V30 2141 H 203.162 1.35741 -2.83587 0
M  V30 2142 N 206.934 1.1197 -1.10907 0
M  V30 2143 C 208.18 1.84059 -0.865674 0
M  V30 2144 C 208.535 1.82731 0.602254 0
M  V30 2145 O 207.828 1.26543 1.43866 0
M  V30 2146 C 208.022 3.30749 -1.35425 0
M  V30 2147 C 207.851 3.46363 -2.86815 0
M  V30 2148 C 206.621 3.59712 -3.54874 0
M  V30 2149 C 208.819 3.41116 -3.84895 0
M  V30 2150 N 206.801 3.63741 -4.94536 0
M  V30 2151 C 208.172 3.51698 -5.10596 0
M  V30 2152 C 210.227 3.24612 -3.77533 0
M  V30 2153 C 208.93 3.4748 -6.29802 0
M  V30 2154 C 210.956 3.21708 -4.96244 0
M  V30 2155 C 210.318 3.32856 -6.20795 0
M  V30 2156 H 206.417 0.689015 -0.369841 0
M  V30 2157 H 209.001 1.34016 -1.41237 0
M  V30 2158 H 207.172 3.79322 -0.834814 0
M  V30 2159 H 208.904 3.90718 -1.05458 0
M  V30 2160 H 205.659 3.62038 -3.05329 0
M  V30 2161 H 206.083 3.69408 -5.67333 0
M  V30 2162 H 210.725 3.14883 -2.8215 0
M  V30 2163 H 208.443 3.55978 -7.25469 0
M  V30 2164 H 212.029 3.10113 -4.92261 0
M  V30 2165 H 210.909 3.3059 -7.11112 0
M  V30 2166 N 208.412 0.89855 1.29475 0
M  V30 2167 C 209.64 0.539261 1.99749 0
M  V30 2168 C 210.055 -0.875716 1.67262 0
M  V30 2169 O 209.412 -1.57786 0.917049 0
M  V30 2170 C 209.463 0.72061 3.54245 0
M  V30 2171 O 209.184 2.07989 3.8558 0
M  V30 2172 C 210.685 0.366118 4.41786 0
M  V30 2173 H 207.905 0.207047 0.638258 0
M  V30 2174 H 210.449 1.20758 1.65039 0
M  V30 2175 H 208.604 0.0994862 3.87272 0
M  V30 2176 H 209.018 2.10841 4.80257 0
M  V30 2177 H 210.492 0.543848 5.49314 0
M  V30 2178 H 210.969 -0.696763 4.33638 0
M  V30 2179 H 211.575 0.964135 4.14228 0
M  V30 2180 N 209.89 -1.43072 0.660911 0
M  V30 2181 C 210.822 -2.29108 -0.0647641 0
M  V30 2182 C 211.835 -1.42928 -0.779448 0
M  V30 2183 O 213.024 -1.66788 -0.635921 0
M  V30 2184 C 210.124 -3.20032 -1.11503 0
M  V30 2185 C 209.297 -4.34792 -0.476955 0
M  V30 2186 C 208.356 -5.06534 -1.42513 0
M  V30 2187 O 207.382 -5.61538 -0.930771 0
M  V30 2188 N 208.584 -5.1075 -2.75889 0
M  V30 2189 H 211.349 -2.92029 0.673731 0
M  V30 2190 H 208.91 -1.53846 0.50427 0
M  V30 2191 H 210.902 -3.64892 -1.75032 0
M  V30 2192 H 209.472 -2.58658 -1.75541 0
M  V30 2193 H 208.692 -3.92752 0.337572 0
M  V30 2194 H 209.98 -5.0879 -0.0318525 0
M  V30 2195 H 209.378 -4.67447 -3.18606 0
M  V30 2196 H 207.935 -5.59302 -3.347 0
M  V30 2197 N 211.368 -0.403325 -1.52352 0
M  V30 2198 C 212.318 0.442244 -2.2367 0
M  V30 2199 C 213.302 1.01823 -1.24583 0
M  V30 2200 O 214.494 0.942005 -1.49851 0
M  V30 2201 C 211.623 1.5615 -3.05732 0
M  V30 2202 C 210.709 0.996575 -4.12225 0
M  V30 2203 N 211.1 0.157804 -5.05554 0
M  V30 2204 C 209.398 1.26767 -4.27605 0
M  V30 2205 C 210.099 -0.155853 -5.81491 0
M  V30 2206 N 209.075 0.451775 -5.41719 0
M  V30 2207 H 212.877 -0.204964 -2.93184 0
M  V30 2208 H 210.391 -0.213418 -1.60992 0
M  V30 2209 H 212.388 2.17981 -3.55373 0
M  V30 2210 H 211.048 2.21139 -2.37755 0
M  V30 2211 H 212.059 -0.206049 -5.1749 0
M  V30 2212 H 208.736 1.91757 -3.70858 0
M  V30 2213 H 210.126 -0.836329 -6.66675 0
M  V30 2214 N 212.846 1.57033 -0.133567 0
M  V30 2215 C 214.092 1.95976 0.521649 0
M  V30 2216 C 214.425 1.01779 1.65393 0
M  V30 2217 O 213.7 0.0576581 1.94415 0
M  V30 2218 C 213.983 3.44738 1.04057 0
M  V30 2219 C 213.836 4.49711 -0.0892897 0
M  V30 2220 C 215.155 3.95682 1.92675 0
M  V30 2221 H 212.274 0.712579 0.188149 0
M  V30 2222 H 214.916 1.88813 -0.212076 0
M  V30 2223 H 213.066 3.50973 1.66583 0
M  V30 2224 H 214.738 4.55565 -0.725152 0
M  V30 2225 H 212.981 4.27261 -0.750378 0
M  V30 2226 H 213.652 5.51099 0.315284 0
M  V30 2227 H 216.128 3.91841 1.39998 0
M  V30 2228 H 215.004 5.00262 2.25897 0
M  V30 2229 H 215.265 3.37239 2.85872 0
M  V30 2230 N 214.325 -0.140222 1.56975 0
M  V30 2231 C 215.288 -1.15689 1.97861 0
M  V30 2232 C 216.288 -1.3549 0.865974 0
M  V30 2233 O 217.478 -1.32367 1.13246 0
M  V30 2234 C 214.61 -2.51582 2.30042 0
M  V30 2235 H 215.803 -0.805971 2.88867 0
M  V30 2236 H 213.356 -0.383801 1.51515 0
M  V30 2237 H 214.091 -2.91632 1.41849 0
M  V30 2238 H 213.876 -2.38569 3.11171 0
M  V30 2239 H 215.366 -3.24792 2.62488 0
M  V30 2240 N 215.803 -1.52179 -0.40978 0
M  V30 2241 C 216.735 -1.71703 -1.51825 0
M  V30 2242 C 217.748 -0.597445 -1.51441 0
M  V30 2243 O 218.937 -0.872582 -1.55719 0
M  V30 2244 C 216.037 -1.74171 -2.90719 0
M  V30 2245 C 215.21 -3.03156 -3.15302 0
M  V30 2246 C 214.269 -2.97445 -4.34065 0
M  V30 2247 O 213.295 -3.71352 -4.31377 0
M  V30 2248 N 214.497 -2.15191 -5.39141 0
M  V30 2249 H 217.262 -2.67334 -1.35472 0
M  V30 2250 H 214.823 -1.50409 -0.599069 0
M  V30 2251 H 216.815 -1.67884 -3.68235 0
M  V30 2252 H 215.385 -0.860166 -3.00533 0
M  V30 2253 H 214.605 -3.23097 -2.25836 0
M  V30 2254 H 215.893 -3.88484 -3.28569 0
M  V30 2255 H 215.291 -1.54573 -5.44173 0
M  V30 2256 H 213.848 -2.1476 -6.15403 0
M  V30 2257 N 217.281 0.66697 -1.42791 0
M  V30 2258 C 218.509 1.45505 -1.47091 0
M  V30 2259 C 218.924 1.8861 -0.0845873 0
M  V30 2260 O 218.281 1.58632 0.90234 0
M  V30 2261 C 218.332 2.69906 -2.40485 0
M  V30 2262 O 218.053 2.28608 -3.73725 0
M  V30 2263 C 219.554 3.63396 -2.53886 0
M  V30 2264 H 216.774 0.447459 -0.500022 0
M  V30 2265 H 219.318 0.818866 -1.8739 0
M  V30 2266 H 217.473 3.29696 -2.03419 0
M  V30 2267 H 217.887 3.08997 -4.23817 0
M  V30 2268 H 219.361 4.47387 -3.2334 0
M  V30 2269 H 219.838 4.09824 -1.57927 0
M  V30 2270 H 220.444 3.09495 -2.91706 0
M  V30 2271 N 218.759 1.29093 0.90403 0
M  V30 2272 C 220.007 1.16583 1.65085 0
M  V30 2273 C 220.328 -0.283933 1.92922 0
M  V30 2274 O 219.598 -1.19509 1.55224 0
M  V30 2275 H 218.178 0.428467 0.611903 0
M  V30 2276 H 220.84 1.61959 1.08422 0
M  V30 2277 H 219.936 1.71266 2.6091 0
M  V30 2278 N 220.237 -1.11381 1.11499 0
M  V30 2279 C 221.483 -1.83403 0.865512 0
M  V30 2280 C 221.816 -1.84459 -0.607329 0
M  V30 2281 O 221.091 -1.29811 -1.44842 0
M  V30 2282 C 221.374 -3.30552 1.42855 0
M  V30 2283 C 221.227 -3.37886 2.96906 0
M  V30 2284 C 222.546 -4.26643 1.08 0
M  V30 2285 H 219.665 -0.665879 0.31587 0
M  V30 2286 H 222.307 -1.30601 1.37998 0
M  V30 2287 H 220.457 -3.75648 0.990985 0
M  V30 2288 H 222.129 -3.01343 3.49271 0
M  V30 2289 H 220.372 -2.78088 3.32941 0
M  V30 2290 H 221.043 -4.41458 3.31389 0
M  V30 2291 H 223.519 -3.89729 1.45775 0
M  V30 2292 H 222.395 -5.27986 1.50072 0
M  V30 2293 H 222.656 -4.42099 -0.00915037 0
M  V30 2294 N 221.715 -0.905404 -1.28997 0
M  V30 2295 C 222.943 -0.549846 -1.9946 0
M  V30 2296 C 223.358 0.866834 -1.67724 0
M  V30 2297 O 222.715 1.57298 -0.925404 0
M  V30 2298 C 222.766 -0.739387 -3.53858 0
M  V30 2299 O 222.487 -2.10031 -3.84472 0
M  V30 2300 C 223.988 -0.389541 -4.41585 0
M  V30 2301 H 221.208 -0.210429 -0.637151 0
M  V30 2302 H 223.752 -1.21632 -1.64396 0
M  V30 2303 H 221.907 -0.120023 -3.87214 0
M  V30 2304 H 222.321 -2.13385 -4.79132 0
M  V30 2305 H 223.795 -0.572972 -5.49018 0
M  V30 2306 H 224.272 0.673756 -4.34001 0
M  V30 2307 H 224.878 -0.986089 -4.1371 0
M  V30 2308 N 223.193 1.4272 -0.668489 0
M  V30 2309 C 224.433 2.03497 -0.19194 0
M  V30 2310 C 224.797 1.51684 1.17712 0
M  V30 2311 O 225.998 2.04205 1.74796 0
M  V30 2312 C 224.269 3.56734 -0.218032 0
M  V30 2313 S 225.828 4.38395 0.188438 0
M  V30 2314 H 222.646 0.706542 -0.0794959 0
M  V30 2315 H 225.248 1.74563 -0.880235 0
M  V30 2316 H 223.952 3.91943 -1.2169 0
M  V30 2317 H 223.483 3.90333 0.490303 0
M  V30 2318 H 225.498 4.75345 1.42345 0
M  V30 2319 N 224.671 0.411399 1.52136 0
M  V30 2320 C 225.901 -0.16284 2.05957 0
M  V30 2321 C 226.309 -1.3922 1.28119 0
M  V30 2322 O 225.652 -1.80768 0.326881 0
M  V30 2323 C 225.714 -0.575946 3.54856 0
M  V30 2324 C 225.378 0.542998 4.53763 0
M  V30 2325 C 226.375 1.40726 5.00492 0
M  V30 2326 C 224.06 0.716337 4.97166 0
M  V30 2327 C 226.054 2.4298 5.8927 0
M  V30 2328 C 223.741 1.74218 5.8574 0
M  V30 2329 C 224.739 2.59731 6.31687 0
M  V30 2330 O 224.427 3.60558 7.18507 0
M  V30 2331 H 224.159 -0.0229125 0.675612 0
M  V30 2332 H 226.713 0.581634 1.96993 0
M  V30 2333 H 224.943 -1.37274 3.61515 0
M  V30 2334 H 226.632 -1.07836 3.91313 0
M  V30 2335 H 227.398 1.28476 4.67674 0
M  V30 2336 H 223.277 0.0603857 4.6096 0
M  V30 2337 H 226.821 3.0976 6.25055 0
M  V30 2338 H 222.718 1.86498 6.17971 0
M  V30 2339 H 223.486 3.56829 7.36624 0
M  V30 2340 N 226.149 -1.5696 0.141893 0
M  V30 2341 C 227.377 -2.00322 -0.517579 0
M  V30 2342 C 227.792 -1.02193 -1.58752 0
M  V30 2343 O 227.149 -0.0181619 -1.82491 0
M  V30 2344 C 227.2 -3.43618 -1.12289 0
M  V30 2345 O 226.921 -4.37995 -0.0956929 0
M  V30 2346 C 228.422 -4.02231 -1.86347 0
M  V30 2347 H 225.642 -0.657243 -0.135177 0
M  V30 2348 H 228.186 -2.03146 0.234973 0
M  V30 2349 H 226.341 -3.41662 -1.82609 0
M  V30 2350 H 226.755 -5.21729 -0.538469 0
M  V30 2351 H 228.229 -5.04509 -2.23997 0
M  V30 2352 H 228.706 -3.42655 -2.74744 0
M  V30 2353 H 229.312 -4.07802 -1.20737 0
M  V30 2354 N 227.627 0.131896 -1.57047 0
M  V30 2355 C 228.867 0.847972 -1.85981 0
M  V30 2356 C 229.231 1.77655 -0.7282 0
M  V30 2357 O 230.432 2.53322 -0.898968 0
M  V30 2358 C 228.703 1.58919 -3.20124 0
M  V30 2359 S 230.262 2.34862 -3.70655 0
M  V30 2360 H 227.08 0.283273 -0.652133 0
M  V30 2361 H 229.682 0.107057 -1.95207 0
M  V30 2362 H 228.386 0.898771 -4.00438 0
M  V30 2363 H 227.917 2.37073 -3.13942 0
M  V30 2364 H 229.932 3.60344 -3.41126 0
M  V30 2365 N 229.106 1.52395 0.401703 0
M  V30 2366 C 230.056 1.72649 1.48917 0
M  V30 2367 C 231.04 0.580436 1.50066 0
M  V30 2368 O 232.232 0.83779 1.55917 0
M  V30 2369 C 229.361 1.88729 2.86769 0
M  V30 2370 C 228.447 3.09228 2.90239 0
M  V30 2371 N 228.838 4.31805 2.63396 0
M  V30 2372 C 227.136 3.09214 3.21408 0
M  V30 2373 C 227.837 5.13326 2.73625 0
M  V30 2374 N 226.813 4.48735 3.06819 0
M  V30 2375 H 230.615 2.65058 1.26971 0
M  V30 2376 H 228.129 1.50528 0.609504 0
M  V30 2377 H 230.126 2.01358 3.65049 0
M  V30 2378 H 228.786 0.975252 3.09708 0
M  V30 2379 H 229.797 4.60154 2.37653 0
M  V30 2380 H 226.474 2.27774 3.49893 0
M  V30 2381 H 227.864 6.21003 2.56524 0
M  V30 2382 N 230.584 -0.659388 1.43143 0
M  V30 2383 C 232 -0.974337 1.26407 0
M  V30 2384 C 232.2 -2.007 0.179341 0
M  V30 2385 O 231.256 -2.4856 -0.444295 0
M  V30 2386 C 232.569 -1.46447 2.62628 0
M  V30 2387 C 234.117 -1.58144 2.7011 0
M  V30 2388 C 234.592 -2.1055 4.06734 0
M  V30 2389 N 236.083 -2.17861 4.08767 0
M  V30 2390 C 236.818 -2.59519 5.1131 0
M  V30 2391 N 236.314 -3.00518 6.24228 0
M  V30 2392 N 238.107 -2.59404 4.98664 0
M  V30 2393 H 230.258 0.0240528 2.12386 0
M  V30 2394 H 232.521 -0.0518065 0.946583 0
M  V30 2395 H 232.227 -0.780123 3.42939 0
M  V30 2396 H 232.101 -2.44058 2.87603 0
M  V30 2397 H 234.488 -2.25682 1.90136 0
M  V30 2398 H 234.569 -0.589828 2.48907 0
M  V30 2399 H 234.213 -1.43616 4.87172 0
M  V30 2400 H 234.143 -3.10531 4.25298 0
M  V30 2401 H 236.634 -1.88975 3.27257 0
M  V30 2402 H 236.947 -3.31036 6.98309 0
M  V30 2403 H 235.292 -2.98337 6.2771 0
M  V30 2404 H 238.483 -2.26747 4.09516 0
M  V30 2405 H 238.656 -2.91548 5.78709 0
M  V30 2406 N 232.062 -1.29571 -0.897171 0
M  V30 2407 C 233.31 -1.17456 -1.64464 0
M  V30 2408 C 233.631 0.273698 -1.9307 0
M  V30 2409 O 232.901 1.18684 -1.55855 0
M  V30 2410 H 231.481 -0.431706 -0.609622 0
M  V30 2411 H 234.143 -1.62531 -1.07562 0
M  V30 2412 H 233.239 -1.72648 -2.59998 0
M  V30 2413 N 233.54 1.10788 -1.12088 0
M  V30 2414 C 234.768 1.86461 -0.896651 0
M  V30 2415 C 235.183 1.80492 0.553912 0
M  V30 2416 O 234.54 1.19102 1.38278 0
M  V30 2417 C 234.591 3.35006 -1.35843 0
M  V30 2418 O 234.312 3.40866 -2.75213 0
M  V30 2419 C 235.813 4.27565 -1.1706 0
M  V30 2420 H 233.033 0.589425 -0.320654 0
M  V30 2421 H 235.577 1.40076 -1.48993 0
M  V30 2422 H 233.732 3.7887 -0.808458 0
M  V30 2423 H 234.146 4.33411 -2.9539 0
M  V30 2424 H 235.62 5.30007 -1.54263 0
M  V30 2425 H 236.097 4.3906 -0.110814 0
M  V30 2426 H 236.703 3.89501 -1.70789 0
M  V30 2427 N 235.018 0.912232 1.28515 0
M  V30 2428 C 236.429 0.591352 1.77087 0
M  V30 2429 C 236.78 -0.8933 1.74684 0
M  V30 2430 O 235.905 -1.69876 1.34056 0
M  V30 2431 C 236.5 1.06668 3.2157 0
M  V30 2432 C 235.059 0.79675 3.67871 0
M  V30 2433 C 234.206 1.23427 2.48316 0
M  V30 2434 H 237.157 1.09365 1.15 0
M  V30 2435 H 237.178 0.407455 3.78312 0
M  V30 2436 H 236.69 2.14726 3.23287 0
M  V30 2437 H 234.791 -0.270679 3.71616 0
M  V30 2438 H 234.904 1.40343 4.58084 0
M  V30 2439 H 233.268 0.653036 2.46186 0
M  V30 2440 H 234.051 2.32316 2.52753 0
M  V30 2441 N 236.496 -1.42363 0.676048 0
M  V30 2442 C 237.426 -2.33497 0.0124832 0
M  V30 2443 C 238.407 -1.50748 -0.787981 0
M  V30 2444 O 239.592 -1.79346 -0.744884 0
M  V30 2445 C 236.722 -3.34377 -0.938582 0
M  V30 2446 C 235.676 -4.27289 -0.246622 0
M  V30 2447 C 235.002 -5.18386 -1.31071 0
M  V30 2448 C 236.302 -5.14916 0.875125 0
M  V30 2449 H 237.996 -2.89233 0.773593 0
M  V30 2450 H 235.542 -1.39073 0.37346 0
M  V30 2451 H 237.495 -3.97044 -1.41188 0
M  V30 2452 H 236.219 -2.76947 -1.73113 0
M  V30 2453 H 234.878 -3.66018 0.206456 0
M  V30 2454 H 234.526 -4.57282 -2.09528 0
M  V30 2455 H 234.226 -5.81378 -0.852839 0
M  V30 2456 H 235.75 -5.83929 -1.78492 0
M  V30 2457 H 237.164 -5.71262 0.482983 0
M  V30 2458 H 235.561 -5.86747 1.25887 0
M  V30 2459 H 236.631 -4.53242 1.72335 0
M  V30 2460 N 237.974 -0.419461 -1.51915 0
M  V30 2461 C 239.385 0.0477853 -1.86639 0
M  V30 2462 C 239.736 1.43531 -1.33766 0
M  V30 2463 O 238.861 2.05401 -0.68113 0
M  V30 2464 C 239.456 0.0934885 -3.38671 0
M  V30 2465 C 238.015 0.505097 -3.72996 0
M  V30 2466 C 237.162 -0.313792 -2.75519 0
M  V30 2467 H 240.113 -0.636088 -1.45395 0
M  V30 2468 H 240.134 0.906667 -3.6954 0
M  V30 2469 H 239.646 -0.916501 -3.77123 0
M  V30 2470 H 237.747 1.52135 -3.40126 0
M  V30 2471 H 237.86 0.242309 -4.78487 0
M  V30 2472 H 236.224 0.225363 -2.53701 0
M  V30 2473 H 237.007 -1.32232 -3.16812 0
M  V30 2474 N 239.452 1.56882 -0.150215 0
M  V30 2475 C 240.863 1.82995 0.370076 0
M  V30 2476 C 241.214 1.06907 1.64515 0
M  V30 2477 O 240.339 0.315369 2.1409 0
M  V30 2478 C 240.934 3.31942 0.678208 0
M  V30 2479 C 239.493 3.58625 1.14301 0
M  V30 2480 C 238.64 2.76792 0.167778 0
M  V30 2481 H 241.591 1.54209 -0.374858 0
M  V30 2482 H 241.612 3.48272 1.53254 0
M  V30 2483 H 241.124 3.87294 -0.249991 0
M  V30 2484 H 239.225 3.08664 2.08704 0
M  V30 2485 H 239.338 4.67073 1.06676 0
M  V30 2486 H 237.702 2.45972 0.661037 0
M  V30 2487 H 238.485 3.34916 -0.754069 0
M  V30 2488 N 240.93 -0.123565 1.57115 0
M  V30 2489 C 242.16 -0.845233 1.88519 0
M  V30 2490 C 242.568 -1.74168 0.739064 0
M  V30 2491 O 241.911 -1.81244 -0.299355 0
M  V30 2492 C 241.973 -1.73452 3.14888 0
M  V30 2493 C 241.637 -1.01285 4.45635 0
M  V30 2494 C 242.634 -0.355774 5.18681 0
M  V30 2495 C 240.319 -0.99538 4.92339 0
M  V30 2496 C 242.313 0.309114 6.3665 0
M  V30 2497 C 240 -0.32669 6.10226 0
M  V30 2498 C 240.998 0.324406 6.82229 0
M  V30 2499 O 240.686 0.982437 7.97874 0
M  V30 2500 H 240.418 -0.248534 0.628655 0
M  V30 2501 H 242.972 -0.113907 2.05084 0
M  V30 2502 H 241.202 -2.50737 2.94394 0
M  V30 2503 H 242.891 -2.33021 3.32349 0
M  V30 2504 H 243.657 -0.360918 4.83655 0
M  V30 2505 H 239.536 -1.49159 4.36202 0
M  V30 2506 H 243.08 0.8179 6.92789 0
M  V30 2507 H 238.977 -0.319294 6.4471 0
M  V30 2508 H 239.745 0.886454 8.13686 0
M  V30 2509 N 242.408 -1.52605 -0.393616 0
M  V30 2510 C 243.654 -1.67672 -1.14079 0
M  V30 2511 C 243.987 -0.413121 -1.89755 0
M  V30 2512 O 243.262 0.588952 -1.85369 0
M  V30 2513 C 243.545 -2.9088 -2.12276 0
M  V30 2514 C 243.398 -4.27329 -1.40394 0
M  V30 2515 C 244.717 -3.09628 -3.12759 0
M  V30 2516 H 241.836 -0.610168 -0.413356 0
M  V30 2517 H 244.478 -1.85193 -0.424696 0
M  V30 2518 H 242.628 -2.76073 -2.73342 0
M  V30 2519 H 244.3 -4.53894 -0.82327 0
M  V30 2520 H 242.543 -4.2802 -0.705801 0
M  V30 2521 H 243.214 -5.09615 -2.12123 0
M  V30 2522 H 245.69 -3.23436 -2.61779 0
M  V30 2523 H 244.566 -3.97322 -3.78717 0
M  V30 2524 H 244.827 -2.23637 -3.81365 0
M  V30 2525 N 243.887 0.651787 -1.4349 0
M  V30 2526 C 245.303 0.96762 -1.26922 0
M  V30 2527 C 245.503 2.00602 -0.189982 0
M  V30 2528 O 244.559 2.48793 0.431107 0
M  V30 2529 C 245.872 1.45052 -2.63401 0
M  V30 2530 C 247.42 1.5671 -2.70945 0
M  V30 2531 C 247.895 2.0839 -4.07845 0
M  V30 2532 N 249.386 2.1569 -4.09917 0
M  V30 2533 C 250.121 2.56804 -5.12679 0
M  V30 2534 N 249.617 2.97203 -6.25813 0
M  V30 2535 N 251.41 2.56756 -5.00033 0
M  V30 2536 H 243.561 -0.0353158 -2.12371 0
M  V30 2537 H 245.824 0.0467858 -0.946845 0
M  V30 2538 H 245.53 0.761926 -3.43348 0
M  V30 2539 H 245.404 2.42529 -2.88894 0
M  V30 2540 H 247.791 2.2467 -1.9133 0
M  V30 2541 H 247.872 0.57662 -2.49216 0
M  V30 2542 H 247.516 1.41031 -4.87927 0
M  V30 2543 H 247.446 3.08271 -4.26938 0
M  V30 2544 H 249.937 1.87237 -3.28254 0
M  V30 2545 H 250.25 3.27328 -7.00055 0
M  V30 2546 H 248.595 2.95004 -6.29283 0
M  V30 2547 H 251.786 2.24572 -4.10713 0
M  V30 2548 H 251.959 2.88475 -5.80247 0
M  V30 2549 N 245.365 1.30045 0.890287 0
M  V30 2550 C 246.595 1.21296 1.67245 0
M  V30 2551 C 247.003 -0.227471 1.87828 0
M  V30 2552 O 246.346 -1.16296 1.422 0
M  V30 2553 C 246.408 1.86519 3.07329 0
M  V30 2554 C 246.072 3.35837 3.09939 0
M  V30 2555 C 247.069 4.31915 2.89389 0
M  V30 2556 C 244.754 3.77196 3.31706 0
M  V30 2557 C 246.748 5.67325 2.90552 0
M  V30 2558 C 244.435 5.12725 3.32499 0
M  V30 2559 C 245.433 6.076 3.11947 0
M  V30 2560 O 245.121 7.40655 3.12547 0
M  V30 2561 H 244.853 0.4211 0.528821 0
M  V30 2562 H 247.407 1.72111 1.12103 0
M  V30 2563 H 245.637 1.30228 3.64112 0
M  V30 2564 H 247.326 1.71963 3.67673 0
M  V30 2565 H 248.092 4.01294 2.72375 0
M  V30 2566 H 243.971 3.03796 3.4674 0
M  V30 2567 H 247.515 6.41354 2.74429 0
M  V30 2568 H 243.412 5.42988 3.49047 0
M  V30 2569 H 244.18 7.49577 3.28749 0
M  V30 2570 N 246.843 -1.10192 1.12674 0
M  V30 2571 C 247.773 -2.18652 0.819362 0
M  V30 2572 C 248.754 -1.68698 -0.217915 0
M  V30 2573 O 249.939 -1.94041 -0.0785581 0
M  V30 2574 C 247.069 -3.46202 0.27594 0
M  V30 2575 C 246.023 -4.09444 1.24656 0
M  V30 2576 C 245.349 -5.31725 0.563258 0
M  V30 2577 C 246.649 -4.52863 2.60217 0
M  V30 2578 H 248.343 -2.44622 1.72628 0
M  V30 2579 H 245.889 -1.17571 0.831451 0
M  V30 2580 H 247.842 -4.21372 0.0486149 0
M  V30 2581 H 246.566 -3.1973 -0.666331 0
M  V30 2582 H 245.225 -3.36284 1.45974 0
M  V30 2583 H 244.873 -5.0153 -0.384235 0
M  V30 2584 H 244.573 -5.74991 1.21075 0
M  V30 2585 H 246.097 -6.09624 0.34503 0
M  V30 2586 H 247.511 -5.19294 2.42913 0
M  V30 2587 H 245.908 -5.06986 3.21068 0
M  V30 2588 H 246.978 -3.65656 3.18471 0
M  V30 2589 N 248.321 -0.919034 -1.28029 0
M  V30 2590 C 249.231 -0.416756 -2.30869 0
M  V30 2591 C 250.247 0.498235 -1.66714 0
M  V30 2592 O 251.423 0.383144 -1.97722 0
M  V30 2593 C 248.488 0.330274 -3.45123 0
M  V30 2594 C 247.549 -0.618578 -4.2482 0
M  V30 2595 C 246.782 0.0928959 -5.33619 0
M  V30 2596 O 247.005 1.31375 -5.55065 0
M  V30 2597 O 245.939 -0.574499 -5.99152 0
M  V30 2598 H 249.765 -1.27043 -2.75851 0
M  V30 2599 H 247.35 -0.684052 -1.3282 0
M  V30 2600 H 249.232 0.751972 -4.14636 0
M  V30 2601 H 247.907 1.1597 -3.02213 0
M  V30 2602 H 246.814 -1.08978 -3.57875 0
M  V30 2603 H 248.147 -1.41497 -4.71423 0
M  V30 2604 N 249.799 1.42003 -0.683588 0
M  V30 2605 C 251.21 1.84501 -0.285736 0
M  V30 2606 C 251.561 1.57213 1.17382 0
M  V30 2607 O 250.686 1.03642 1.89966 0
M  V30 2608 C 251.281 3.34912 -0.511821 0
M  V30 2609 C 249.84 3.76025 -0.168005 0
M  V30 2610 C 248.987 2.6551 -0.799983 0
M  V30 2611 H 251.938 1.31724 -0.885119 0
M  V30 2612 H 251.959 3.79784 0.233292 0
M  V30 2613 H 251.471 3.54741 -1.57418 0
M  V30 2614 H 249.572 3.61801 0.890567 0
M  V30 2615 H 249.685 4.75141 -0.614661 0
M  V30 2616 H 248.049 2.53654 -0.230568 0
M  V30 2617 H 248.832 2.8816 -1.86597 0
M  V30 2618 N 251.277 0.427512 1.51691 0
M  V30 2619 C 252.505 -0.141191 2.06418 0
M  V30 2620 C 252.92 -1.37303 1.29589 0
M  V30 2621 O 252.277 -1.79059 0.352732 0
M  V30 2622 C 252.328 -0.473266 3.58389 0
M  V30 2623 O 252.049 0.709673 4.32314 0
M  V30 2624 C 253.55 -1.09371 4.29596 0
M  V30 2625 H 250.77 -0.0122747 0.670888 0
M  V30 2626 H 253.314 0.603764 1.95384 0
M  V30 2627 H 251.469 -1.16812 3.69369 0
M  V30 2628 H 251.883 0.42807 5.2275 0
M  V30 2629 H 253.357 -1.27613 5.37046 0
M  V30 2630 H 253.834 -2.072 3.87253 0
M  V30 2631 H 254.44 -0.43853 4.23033 0
M  V30 2632 N 252.755 -1.56801 0.158532 0
M  V30 2633 C 253.685 -2.20347 -0.772609 0
M  V30 2634 C 254.666 -1.15518 -1.24859 0
M  V30 2635 O 255.851 -1.43902 -1.30406 0
M  V30 2636 C 252.981 -2.83417 -2.00729 0
M  V30 2637 C 251.935 -3.94174 -1.66765 0
M  V30 2638 C 251.261 -4.44233 -2.97592 0
M  V30 2639 C 252.561 -5.14392 -0.905447 0
M  V30 2640 H 254.255 -2.98413 -0.242959 0
M  V30 2641 H 251.801 -1.43537 -0.115419 0
M  V30 2642 H 253.754 -3.26543 -2.6636 0
M  V30 2643 H 252.478 -2.02701 -2.56086 0
M  V30 2644 H 251.137 -3.51684 -1.03508 0
M  V30 2645 H 250.785 -3.60325 -3.50963 0
M  V30 2646 H 250.485 -5.18945 -2.75626 0
M  V30 2647 H 252.009 -4.90037 -3.64274 0
M  V30 2648 H 253.423 -5.5429 -1.46408 0
M  V30 2649 H 251.82 -5.9494 -0.7853 0
M  V30 2650 H 252.89 -4.84795 0.100668 0
M  V30 2651 N 254.233 0.115231 -1.57178 0
M  V30 2652 C 255.644 0.67197 -1.74188 0
M  V30 2653 C 255.995 1.80125 -0.777777 0
M  V30 2654 O 255.12 2.16346 0.0484376 0
M  V30 2655 C 255.715 1.22573 -3.1585 0
M  V30 2656 C 254.274 1.72872 -3.34353 0
M  V30 2657 C 253.421 0.629972 -2.70049 0
M  V30 2658 H 256.372 -0.110712 -1.58313 0
M  V30 2659 H 256.393 2.09535 -3.17609 0
M  V30 2660 H 255.905 0.403598 -3.85996 0
M  V30 2661 H 254.006 2.5755 -2.69256 0
M  V30 2662 H 254.119 1.83557 -4.42542 0
M  V30 2663 H 252.483 1.0645 -2.31388 0
M  V30 2664 H 253.266 -0.181241 -3.42821 0
M  V30 2665 N 255.711 1.52812 0.385517 0
M  V30 2666 C 256.641 1.80808 1.47752 0
M  V30 2667 C 257.622 0.660318 1.5676 0
M  V30 2668 O 258.807 0.908246 1.71652 0
M  V30 2669 C 255.937 1.98008 2.85324 0
M  V30 2670 C 254.891 3.13709 2.91154 0
M  V30 2671 C 254.217 3.16169 4.31209 0
M  V30 2672 C 255.517 4.52709 2.60483 0
M  V30 2673 H 257.211 2.72253 1.24573 0
M  V30 2674 H 254.757 1.31003 0.597839 0
M  V30 2675 H 256.71 2.16176 3.61726 0
M  V30 2676 H 255.434 1.03255 3.09848 0
M  V30 2677 H 254.093 2.95329 2.17201 0
M  V30 2678 H 253.741 2.19092 4.52778 0
M  V30 2679 H 253.441 3.93894 4.36029 0
M  V30 2680 H 254.965 3.36496 5.09512 0
M  V30 2681 H 256.379 4.71173 3.26602 0
M  V30 2682 H 254.776 5.32528 2.76648 0
M  V30 2683 H 255.846 4.59186 1.55809 0
M  V30 2684 N 257.189 -0.644168 1.43834 0
M  V30 2685 C 258.137 -1.77793 1.49974 0
M  V30 2686 C 259.131 -1.65253 0.372536 0
M  V30 2687 O 260.337 -1.7149 0.546924 0
M  V30 2688 H 256.712 -0.58675 0.47035 0
M  V30 2689 H 258.683 -1.69736 2.45423 0
M  V30 2690 C 257.432 -3.16087 1.4486 0
M  V30 2691 H 256.755 -3.26378 2.30905 0
M  V30 2692 H 258.195 -3.95349 1.53217 0
M  V30 2693 C 256.654 -3.36484 0.167463 0
M  V30 2694 O 257.184 -3.94298 -0.767609 0
M  V30 2695 N 255.39 -2.90504 0.0747556 0
M  V30 2696 H 254.937 -2.4364 0.836507 0
M  V30 2697 H 254.895 -3.04527 -0.781714 0
M  V30 2698 N 258.668 -1.30515 -0.883378 0
M  V30 2699 C 259.616 -1.16941 -2.01066 0
M  V30 2700 C 260.61 -0.0809148 -1.69207 0
M  V30 2701 O 261.816 -0.241877 -1.78367 0
M  V30 2702 H 258.191 -0.361705 -0.659298 0
M  V30 2703 H 260.162 -2.12344 -2.09649 0
M  V30 2704 C 258.911 -0.879694 -3.36388 0
M  V30 2705 H 258.234 -1.70936 -3.61415 0
M  V30 2706 H 259.674 -0.82483 -4.159 0
M  V30 2707 C 258.133 0.417409 -3.34304 0
M  V30 2708 O 258.663 1.43843 -3.75063 0
M  V30 2709 N 256.869 0.429141 -2.87414 0
M  V30 2710 H 256.416 -0.402222 -2.5444 0
M  V30 2711 H 256.374 1.29696 -2.86403 0
M  V30 2712 N 260.146 1.09593 -1.13257 0
M  V30 2713 C 261.562 1.33775 -0.870423 0
M  V30 2714 C 261.762 1.95327 0.494926 0
M  V30 2715 O 260.818 2.19853 1.2418 0
M  V30 2716 C 262.131 2.25106 -1.99369 0
M  V30 2717 C 263.679 2.3862 -2.02558 0
M  V30 2718 C 264.154 3.33285 -3.14142 0
M  V30 2719 N 265.645 3.40857 -3.13641 0
M  V30 2720 C 266.38 4.14101 -3.96621 0
M  V30 2721 N 265.876 4.90157 -4.8961 0
M  V30 2722 N 267.669 4.09808 -3.84726 0
M  V30 2723 H 259.82 0.680136 -2.01216 0
M  V30 2724 H 262.083 0.362133 -0.876107 0
M  V30 2725 H 261.789 1.87103 -2.97801 0
M  V30 2726 H 261.663 3.25481 -1.90635 0
M  V30 2727 H 264.05 2.75887 -1.0474 0
M  V30 2728 H 264.131 1.38028 -2.15364 0
M  V30 2729 H 263.775 2.96741 -4.12198 0
M  V30 2730 H 263.705 4.33776 -2.98574 0
M  V30 2731 H 266.196 2.86624 -2.46282 0
M  V30 2732 H 266.509 5.4347 -5.49418 0
M  V30 2733 H 264.854 4.89251 -4.93617 0
M  V30 2734 H 268.045 3.4949 -3.11408 0
M  V30 2735 H 268.218 4.66629 -4.49623 0
M  V30 2736 N 261.624 0.925811 1.2754 0
M  V30 2737 C 262.534 0.428993 2.30644 0
M  V30 2738 C 263.55 -0.489387 1.66976 0
M  V30 2739 O 264.726 -0.372653 1.97922 0
M  V30 2740 C 261.791 -0.311967 3.45294 0
M  V30 2741 C 260.852 0.641098 4.24486 0
M  V30 2742 C 260.085 -0.0645955 5.33661 0
M  V30 2743 O 260.308 -1.28429 5.55754 0
M  V30 2744 O 259.242 0.606265 5.98839 0
M  V30 2745 H 263.068 1.28504 2.75173 0
M  V30 2746 H 260.653 0.691086 1.32455 0
M  V30 2747 H 262.535 -0.729972 4.15029 0
M  V30 2748 H 261.21 -1.14365 3.02824 0
M  V30 2749 H 260.117 1.10874 3.57292 0
M  V30 2750 H 261.45 1.43995 4.70666 0
M  V30 2751 N 263.102 -1.41638 0.69111 0
M  V30 2752 C 264.33 -2.05628 0.22909 0
M  V30 2753 C 264.745 -1.51992 -1.11999 0
M  V30 2754 O 264.102 -0.666322 -1.69901 0
M  V30 2755 C 264.153 -3.61084 0.173283 0
M  V30 2756 O 263.874 -4.12735 1.46907 0
M  V30 2757 C 265.375 -4.42213 -0.310266 0
M  V30 2758 H 262.595 -0.662327 0.107534 0
M  V30 2759 H 265.139 -1.81489 0.942438 0
M  V30 2760 H 263.294 -3.84278 -0.490858 0
M  V30 2761 H 263.708 -5.06743 1.35322 0
M  V30 2762 H 265.182 -5.51194 -0.298196 0
M  V30 2763 H 265.659 -4.1799 -1.34838 0
M  V30 2764 H 266.265 -4.24074 0.322716 0
M  V30 2765 N 264.58 -0.43555 -1.51462 0
M  V30 2766 C 265.991 0.0279871 -1.86679 0
M  V30 2767 C 266.342 1.42104 -1.35281 0
M  V30 2768 O 265.467 2.04667 -0.702878 0
M  V30 2769 C 266.062 0.0575626 -3.38751 0
M  V30 2770 C 264.621 0.465507 -3.7351 0
M  V30 2771 C 263.768 -0.342996 -2.75171 0
M  V30 2772 H 266.719 -0.651473 -1.44712 0
M  V30 2773 H 266.74 0.867421 -3.70481 0
M  V30 2774 H 266.252 -0.956448 -3.7613 0
M  V30 2775 H 264.353 1.48519 -3.41721 0
M  V30 2776 H 264.466 0.191546 -4.78717 0
M  V30 2777 H 262.83 0.198442 -2.53926 0
M  V30 2778 H 263.613 -1.35585 -3.15391 0
M  V30 2779 N 266.058 1.56714 -0.166846 0
M  V30 2780 C 267.286 2.0112 0.485644 0
M  V30 2781 C 267.701 1.04705 1.57106 0
M  V30 2782 O 267.058 0.0471923 1.82439 0
M  V30 2783 C 267.109 3.45361 1.06808 0
M  V30 2784 O 266.83 4.38092 0.0259995 0
M  V30 2785 C 268.331 4.05145 1.79924 0
M  V30 2786 H 265.551 0.65931 0.124704 0
M  V30 2787 H 268.095 2.02746 -0.267262 0
M  V30 2788 H 266.25 3.44524 1.7715 0
M  V30 2789 H 266.664 5.22519 0.455398 0
M  V30 2790 H 268.138 5.08009 2.15942 0
M  V30 2791 H 268.615 3.46982 2.69258 0
M  V30 2792 H 269.221 4.09672 1.14234 0
M  V30 2793 N 267.536 -0.106894 1.57237 0
M  V30 2794 C 268.486 -1.1366 1.9765 0
M  V30 2795 C 269.47 -1.36416 0.853203 0
M  V30 2796 O 270.662 -1.37305 1.11697 0
M  V30 2797 C 267.791 -2.46 2.39455 0
M  V30 2798 C 266.877 -2.26668 3.58445 0
M  V30 2799 N 267.268 -1.77176 4.73754 0
M  V30 2800 C 265.566 -2.57279 3.64312 0
M  V30 2801 C 266.267 -1.71836 5.5574 0
M  V30 2802 N 265.243 -2.16623 4.98573 0
M  V30 2803 H 269.045 -0.74669 2.84256 0
M  V30 2804 H 266.559 -0.314483 1.59326 0
M  V30 2805 H 268.556 -3.2049 2.6663 0
M  V30 2806 H 267.216 -2.85738 1.54219 0
M  V30 2807 H 268.227 -1.46545 4.96734 0
M  V30 2808 H 264.904 -3.00622 2.89711 0
M  V30 2809 H 266.294 -1.34723 6.58255 0
M  V30 2810 N 269.014 -1.53014 -0.377408 0
M  V30 2811 C 270.26 -1.68872 -1.12294 0
M  V30 2812 C 270.593 -0.433224 -1.89306 0
M  V30 2813 O 269.868 0.569258 -1.85983 0
M  V30 2814 C 270.151 -2.93115 -2.09179 0
M  V30 2815 C 270.004 -4.28794 -1.35853 0
M  V30 2816 C 271.323 -3.12928 -3.09458 0
M  V30 2817 H 268.442 -0.614518 -0.406862 0
M  V30 2818 H 271.084 -1.85633 -0.40503 0
M  V30 2819 H 269.234 -2.78956 -2.70399 0
M  V30 2820 H 270.906 -4.54742 -0.775082 0
M  V30 2821 H 269.149 -4.28744 -0.660364 0
M  V30 2822 H 269.82 -5.11837 -2.06706 0
M  V30 2823 H 272.296 -3.26194 -2.58334 0
M  V30 2824 H 271.172 -4.01316 -3.74482 0
M  V30 2825 H 271.433 -2.27669 -3.78971 0
M  V30 2826 N 270.492 0.636531 -1.44174 0
M  V30 2827 C 271.402 1.77754 -1.53103 0
M  V30 2828 C 272.418 1.68928 -0.417034 0
M  V30 2829 O 273.594 1.89801 -0.6736 0
M  V30 2830 C 270.659 3.14115 -1.46741 0
M  V30 2831 C 269.72 3.34612 -2.68948 0
M  V30 2832 C 268.953 4.64467 -2.6288 0
M  V30 2833 O 269.176 5.44919 -1.68581 0
M  V30 2834 O 268.11 4.87049 -3.53648 0
M  V30 2835 H 271.936 1.73174 -2.49489 0
M  V30 2836 H 269.521 0.79709 -1.2636 0
M  V30 2837 H 271.403 3.95412 -1.45696 0
M  V30 2838 H 270.078 3.19249 -0.534975 0
M  V30 2839 H 268.985 2.53014 -2.75562 0
M  V30 2840 H 270.318 3.34336 -3.61221 0
M  V30 2841 N 271.97 1.30982 0.876444 0
M  V30 2842 C 273.386 1.09498 1.16113 0
M  V30 2843 C 273.586 -0.13875 2.01022 0
M  V30 2844 O 272.642 -0.829935 2.38471 0
M  V30 2845 C 273.955 2.36308 1.85954 0
M  V30 2846 C 275.503 2.41856 1.98683 0
M  V30 2847 C 275.978 3.6853 2.71937 0
M  V30 2848 N 277.469 3.69387 2.79477 0
M  V30 2849 C 278.204 4.64096 3.36753 0
M  V30 2850 N 277.7 5.69155 3.95012 0
M  V30 2851 N 279.493 4.51626 3.3465 0
M  V30 2852 H 271.644 2.10118 0.310494 0
M  V30 2853 H 273.907 0.926634 0.200131 0
M  V30 2854 H 273.613 3.26388 1.31011 0
M  V30 2855 H 273.487 2.4561 2.86278 0
M  V30 2856 H 275.874 1.52249 2.52793 0
M  V30 2857 H 275.955 2.36523 0.9742 0
M  V30 2858 H 275.599 4.58499 2.18496 0
M  V30 2859 H 275.529 3.71127 3.73593 0
M  V30 2860 H 278.02 2.93438 2.38123 0
M  V30 2861 H 278.333 6.3751 4.36808 0
M  V30 2862 H 276.678 5.72937 3.93406 0
M  V30 2863 H 279.869 3.68728 2.8837 0
M  V30 2864 H 280.042 5.25614 3.7899 0
M  V30 2865 N 273.449 -1.08991 1.13837 0
M  V30 2866 C 274.695 -1.81526 0.90422 0
M  V30 2867 C 275.028 -1.85706 -0.568066 0
M  V30 2868 O 274.303 -1.32855 -1.42056 0
M  V30 2869 C 274.586 -3.27447 1.49835 0
M  V30 2870 C 274.439 -3.31512 3.04006 0
M  V30 2871 C 275.758 -4.24256 1.17025 0
M  V30 2872 H 272.877 -0.659029 0.329923 0
M  V30 2873 H 275.519 -1.27644 1.40737 0
M  V30 2874 H 273.669 -3.73462 1.07044 0
M  V30 2875 H 275.341 -2.93867 3.55584 0
M  V30 2876 H 273.584 -2.70963 3.38765 0
M  V30 2877 H 274.255 -4.34329 3.40679 0
M  V30 2878 H 276.731 -3.86549 1.54009 0
M  V30 2879 H 275.607 -5.24684 1.61237 0
M  V30 2880 H 275.868 -4.42019 0.0846274 0
M  V30 2881 N 274.927 -0.932562 -1.27047 0
M  V30 2882 C 275.837 -0.441219 -2.30414 0
M  V30 2883 C 276.853 0.480525 -1.67233 0
M  V30 2884 O 278.029 0.362151 -1.98117 0
M  V30 2885 C 275.094 0.293651 -3.45454 0
M  V30 2886 C 274.155 -0.663601 -4.2414 0
M  V30 2887 C 273.388 0.0362932 -5.33688 0
M  V30 2888 O 273.611 1.2548 -5.56427 0
M  V30 2889 O 272.545 -0.638015 -5.98509 0
M  V30 2890 H 276.371 -1.29962 -2.74488 0
M  V30 2891 H 273.956 -0.6981 -1.32087 0
M  V30 2892 H 275.838 0.707951 -4.15411 0
M  V30 2893 H 274.513 1.12758 -3.03426 0
M  V30 2894 H 273.42 -1.12768 -3.56699 0
M  V30 2895 H 274.753 -1.46489 -4.69896 0
M  V30 2896 N 276.405 1.4127 -0.698611 0
M  V30 2897 C 277.633 2.05503 -0.239992 0
M  V30 2898 C 278.048 1.52584 1.11191 0
M  V30 2899 O 277.405 0.675323 1.69545 0
M  V30 2900 C 277.456 3.60987 -0.192429 0
M  V30 2901 O 277.177 4.1195 -1.49094 0
M  V30 2902 C 278.678 4.42371 0.28681 0
M  V30 2903 H 275.898 0.661748 -0.111045 0
M  V30 2904 H 278.442 1.80987 -0.95205 0
M  V30 2905 H 276.597 3.84533 0.470472 0
M  V30 2906 H 277.011 5.06018 -1.38007 0
M  V30 2907 H 278.485 5.51344 0.26896 0
M  V30 2908 H 278.962 4.18699 1.32619 0
M  V30 2909 H 279.568 4.23897 -0.345201 0
M  V30 2910 N 277.883 0.443576 1.51229 0
M  V30 2911 C 279.299 0.0962001 1.5931 0
M  V30 2912 C 279.499 -1.39501 1.45402 0
M  V30 2913 O 278.555 -2.16557 1.29843 0
M  V30 2914 C 279.868 0.621875 2.94199 0
M  V30 2915 C 281.416 0.582865 3.07525 0
M  V30 2916 C 281.891 1.08562 4.44948 0
M  V30 2917 N 283.382 1.04387 4.51284 0
M  V30 2918 C 284.117 1.40368 5.55954 0
M  V30 2919 N 283.613 1.83664 6.68011 0
M  V30 2920 N 285.406 1.32145 5.46346 0
M  V30 2921 H 277.557 1.41376 1.58514 0
M  V30 2922 H 279.82 0.582965 0.747567 0
M  V30 2923 H 279.526 1.66546 3.09767 0
M  V30 2924 H 279.4 0.0502125 3.77167 0
M  V30 2925 H 281.787 -0.451749 2.91622 0
M  V30 2926 H 281.868 1.191 2.26382 0
M  V30 2927 H 281.512 2.11873 4.61598 0
M  V30 2928 H 281.442 0.453956 5.2464 0
M  V30 2929 H 283.933 0.725986 3.70861 0
M  V30 2930 H 284.246 2.0934 7.43906 0
M  V30 2931 H 282.591 1.87596 6.69203 0
M  V30 2932 H 285.782 0.981808 4.57688 0
M  V30 2933 H 285.955 1.60514 6.27805 0
M  V30 2934 N 279.361 -1.56624 0.175154 0
M  V30 2935 C 280.586 -2.01813 -0.478137 0
M  V30 2936 C 281.011 -1.05457 -1.55757 0
M  V30 2937 O 280.369 -0.0347439 -1.81267 0
M  V30 2938 C 280.417 -3.45581 -1.02987 0
M  V30 2939 O 279.521 -3.52305 -2.14371 0
M  V30 2940 H 278.862 -0.65413 -0.114059 0
M  V30 2941 H 281.392 -2.02673 0.280173 0
M  V30 2942 H 281.402 -3.84965 -1.35151 0
M  V30 2943 H 280.077 -4.1521 -0.239556 0
M  V30 2944 H 278.654 -3.24783 -1.83222 0
M  V30 2945 N 280.839 0.0985539 -1.57292 0
M  V30 2946 C 282.087 0.801092 -1.85545 0
M  V30 2947 C 282.408 1.79438 -0.763353 0
M  V30 2948 O 281.678 1.94763 0.21073 0
M  V30 2949 H 280.258 0.29884 -0.684619 0
M  V30 2950 H 282.92 0.0810064 -1.94732 0
M  V30 2951 H 282.016 1.3338 -2.82163 0
M  V30 2952 N 282.317 1.53212 0.369288 0
M  V30 2953 C 283.547 1.72868 1.13139 0
M  V30 2954 C 283.955 0.455754 1.83629 0
M  V30 2955 O 283.298 -0.580861 1.74275 0
M  V30 2956 C 283.36 2.83667 2.20847 0
M  V30 2957 C 283.024 4.24142 1.70155 0
M  V30 2958 C 284.021 5.06619 1.16763 0
M  V30 2959 C 281.706 4.70539 1.7578 0
M  V30 2960 C 283.7 6.33581 0.696678 0
M  V30 2961 C 281.387 5.97481 1.28297 0
M  V30 2962 C 282.385 6.78833 0.753307 0
M  V30 2963 O 282.073 8.03393 0.285475 0
M  V30 2964 H 281.805 0.581707 0.344373 0
M  V30 2965 H 284.359 2.00736 0.435243 0
M  V30 2966 H 282.589 2.51265 2.93944 0
M  V30 2967 H 284.278 2.91536 2.82421 0
M  V30 2968 H 285.044 4.71948 1.11758 0
M  V30 2969 H 280.923 4.07293 2.15949 0
M  V30 2970 H 284.467 6.97027 0.282581 0
M  V30 2971 H 280.364 6.31651 1.32994 0
M  V30 2972 H 281.132 8.17497 0.405145 0
M  V30 2973 N 283.795 -0.628877 1.44509 0
M  V30 2974 C 285.041 -1.39045 1.47629 0
M  V30 2975 C 285.374 -1.93892 0.109343 0
M  V30 2976 O 284.649 -1.7379 -0.87334 0
M  V30 2977 C 284.932 -2.55408 2.53848 0
M  V30 2978 C 284.785 -2.05896 3.99909 0
M  V30 2979 C 286.104 -3.5759 2.56549 0
M  V30 2980 H 283.223 -0.504232 0.537512 0
M  V30 2981 H 285.865 -0.710854 1.76201 0
M  V30 2982 H 284.015 -3.13384 2.29615 0
M  V30 2983 H 285.687 -1.52734 4.35282 0
M  V30 2984 H 283.93 -1.37061 4.11578 0
M  V30 2985 H 284.601 -2.89681 4.69882 0
M  V30 2986 H 287.077 -3.09419 2.78207 0
M  V30 2987 H 285.953 -4.36527 3.32769 0
M  V30 2988 H 286.214 -4.11808 1.60832 0
M  V30 2989 N 285.273 -1.31445 -0.869486 0
M  V30 2990 C 286.519 -1.21337 -1.62496 0
M  V30 2991 C 286.852 0.227872 -1.92858 0
M  V30 2992 O 286.127 1.16094 -1.56053 0
M  V30 2993 C 286.41 -2.05814 -2.95487 0
M  V30 2994 C 286.263 -3.5824 -2.72 0
M  V30 2995 C 287.582 -1.9079 -3.96594 0
M  V30 2996 H 284.701 -0.442135 -0.589649 0
M  V30 2997 H 287.343 -1.6124 -1.00507 0
M  V30 2998 H 285.493 -1.71913 -3.48394 0
M  V30 2999 H 287.165 -4.0228 -2.25762 0
M  V30 3000 H 285.408 -3.81647 -2.06224 0
M  V30 3001 H 286.079 -4.12657 -3.66631 0
M  V30 3002 H 288.555 -2.20459 -3.52898 0
M  V30 3003 H 287.431 -2.52199 -4.87531 0
M  V30 3004 H 287.692 -0.871341 -4.33428 0
M  V30 3005 N 286.751 1.08385 -1.14413 0
M  V30 3006 C 288.167 1.32844 -0.884563 0
M  V30 3007 C 288.367 1.95841 0.474181 0
M  V30 3008 O 287.423 2.21158 1.21842 0
M  V30 3009 C 288.736 2.22978 -2.01745 0
M  V30 3010 C 290.284 2.36458 -2.05077 0
M  V30 3011 C 290.759 3.29934 -3.1766 0
M  V30 3012 N 292.25 3.37511 -3.17239 0
M  V30 3013 C 292.985 4.09871 -4.0099 0
M  V30 3014 N 292.481 4.84936 -4.94781 0
M  V30 3015 N 294.274 4.05704 -3.89051 0
M  V30 3016 H 286.425 0.658756 -2.01926 0
M  V30 3017 H 288.688 0.352821 -0.879899 0
M  V30 3018 H 288.394 1.83934 -2.99769 0
M  V30 3019 H 288.268 3.23441 -1.94077 0
M  V30 3020 H 290.655 2.7476 -1.0766 0
M  V30 3021 H 290.736 1.35736 -2.16816 0
M  V30 3022 H 290.38 2.92352 -4.15322 0
M  V30 3023 H 290.31 4.30584 -3.03158 0
M  V30 3024 H 292.801 2.83996 -2.49308 0
M  V30 3025 H 293.114 5.37612 -5.55151 0
M  V30 3026 H 291.459 4.83988 -4.98779 0
M  V30 3027 H 294.65 3.46167 -3.15097 0
M  V30 3028 H 294.823 4.61834 -4.54547 0
M  V30 3029 N 288.23 0.939286 1.26551 0
M  V30 3030 C 289.16 0.465044 2.28822 0
M  V30 3031 C 290.141 -0.480692 1.63167 0
M  V30 3032 O 291.326 -0.382955 1.90387 0
M  V30 3033 C 288.456 -0.27234 3.46231 0
M  V30 3034 C 287.41 0.58666 4.2396 0
M  V30 3035 C 286.736 -0.280573 5.33963 0
M  V30 3036 C 288.036 1.85704 4.88171 0
M  V30 3037 H 289.73 1.31979 2.68741 0
M  V30 3038 H 287.276 0.636061 1.29191 0
M  V30 3039 H 289.229 -0.615133 4.16886 0
M  V30 3040 H 287.953 -1.16121 3.0526 0
M  V30 3041 H 286.612 0.91232 3.55067 0
M  V30 3042 H 286.26 -1.16874 4.89234 0
M  V30 3043 H 285.96 0.29076 5.8688 0
M  V30 3044 H 287.484 -0.618678 6.07458 0
M  V30 3045 H 288.898 1.58161 5.51052 0
M  V30 3046 H 287.295 2.37279 5.51197 0
M  V30 3047 H 288.365 2.56957 4.11219 0
M  V30 3048 N 289.708 -1.40897 0.706093 0
M  V30 3049 C 290.671 -2.29131 0.0562841 0
M  V30 3050 C 291.671 -1.44901 -0.697166 0
M  V30 3051 O 292.861 -1.65926 -0.530484 0
M  V30 3052 C 289.993 -3.27957 -0.93043 0
M  V30 3053 H 291.186 -2.88091 0.833284 0
M  V30 3054 H 288.739 -1.4906 0.470192 0
M  V30 3055 H 289.474 -2.73997 -1.73482 0
M  V30 3056 H 289.259 -3.90124 -0.393166 0
M  V30 3057 H 290.749 -3.94049 -1.38256 0
M  V30 3058 N 291.186 -0.45159 -1.50991 0
M  V30 3059 C 292.133 0.352625 -2.2809 0
M  V30 3060 C 293.103 1.0044 -1.32291 0
M  V30 3061 O 294.288 1.02058 -1.6121 0
M  V30 3062 C 291.428 1.43983 -3.13629 0
M  V30 3063 C 290.541 0.804772 -4.24438 0
M  V30 3064 C 289.676 1.86822 -4.97263 0
M  V30 3065 C 288.715 1.21236 -5.99973 0
M  V30 3066 N 287.852 2.2178 -6.66152 0
M  V30 3067 H 292.692 -0.311186 -2.96371 0
M  V30 3068 H 290.229 -0.165308 -1.46168 0
M  V30 3069 H 292.187 2.08161 -3.61559 0
M  V30 3070 H 290.817 2.07307 -2.47434 0
M  V30 3071 H 289.869 0.0509129 -3.80366 0
M  V30 3072 H 291.181 0.286076 -4.97979 0
M  V30 3073 H 290.335 2.58628 -5.48813 0
M  V30 3074 H 289.074 2.42068 -4.23385 0
M  V30 3075 H 288.079 0.479828 -5.47702 0
M  V30 3076 H 289.304 0.667051 -6.75816 0
M  V30 3077 H 287.25 2.76079 -5.95077 0
M  V30 3078 H 287.167 1.74841 -7.35504 0
M  V30 3079 H 288.435 2.93026 -7.22327 0
M  V30 3080 N 292.664 1.56529 -0.183458 0
M  V30 3081 C 293.894 2.01331 0.463612 0
M  V30 3082 C 294.302 1.06278 1.5653 0
M  V30 3083 O 293.645 0.0577976 1.83609 0
M  V30 3084 C 293.707 3.42547 1.09096 0
M  V30 3085 C 293.371 4.56817 0.129442 0
M  V30 3086 C 294.368 5.15734 -0.656807 0
M  V30 3087 C 292.053 5.02295 0.02174 0
M  V30 3088 C 294.047 6.1857 -1.53784 0
M  V30 3089 C 291.734 6.04978 -0.862864 0
M  V30 3090 C 292.732 6.62988 -1.64123 0
M  V30 3091 O 292.42 7.63677 -2.51103 0
M  V30 3092 H 292.152 0.664917 0.121907 0
M  V30 3093 H 294.706 2.034 -0.285954 0
M  V30 3094 H 292.936 3.37428 1.88889 0
M  V30 3095 H 294.625 3.71228 1.64148 0
M  V30 3096 H 295.391 4.81473 -0.583839 0
M  V30 3097 H 291.27 4.56847 0.617392 0
M  V30 3098 H 294.814 6.63777 -2.14583 0
M  V30 3099 H 290.711 6.38663 -0.93699 0
M  V30 3100 H 291.479 7.81049 -2.44753 0
M  V30 3101 N 294.142 -0.090211 1.57342 0
M  V30 3102 C 295.37 -0.806224 1.90546 0
M  V30 3103 C 295.785 -1.72041 0.777644 0
M  V30 3104 O 295.142 -1.80778 -0.250103 0
M  V30 3105 C 295.193 -1.61546 3.23396 0
M  V30 3106 O 294.914 -0.738043 4.31839 0
M  V30 3107 C 296.415 -2.4341 3.70495 0
M  V30 3108 H 293.635 -0.230256 0.630257 0
M  V30 3109 H 296.179 -0.0659843 2.04394 0
M  V30 3110 H 294.334 -2.30816 3.11131 0
M  V30 3111 H 294.748 -1.29901 5.08159 0
M  V30 3112 H 296.222 -2.95676 4.66133 0
M  V30 3113 H 296.699 -3.22098 2.98579 0
M  V30 3114 H 297.305 -1.79331 3.85643 0
M  V30 3115 N 295.62 -1.53406 -0.361157 0
M  V30 3116 C 296.583 -1.79479 -1.42548 0
M  V30 3117 C 297.583 -0.665327 -1.4639 0
M  V30 3118 O 298.773 -0.933549 -1.47073 0
M  V30 3119 C 295.905 -1.92087 -2.8163 0
M  V30 3120 H 297.098 -2.74538 -1.20701 0
M  V30 3121 H 294.651 -1.4455 -0.594546 0
M  V30 3122 H 295.386 -0.991099 -3.08784 0
M  V30 3123 H 295.171 -2.74241 -2.80239 0
M  V30 3124 H 296.661 -2.13836 -3.58697 0
M  V30 3125 N 297.098 0.621204 -1.44841 0
M  V30 3126 C 298.328 1.40548 -1.51426 0
M  V30 3127 C 298.736 1.88673 -0.141083 0
M  V30 3128 O 298.079 1.62053 0.865128 0
M  V30 3129 C 298.141 2.65325 -2.42576 0
M  V30 3130 C 297.805 2.3893 -3.89566 0
M  V30 3131 C 298.802 2.00138 -4.79834 0
M  V30 3132 C 296.487 2.52263 -4.3436 0
M  V30 3133 C 298.481 1.75021 -6.129 0
M  V30 3134 C 296.168 2.2676 -5.67471 0
M  V30 3135 C 297.166 1.88199 -6.56559 0
M  V30 3136 O 296.854 1.62986 -7.87204 0
M  V30 3137 H 296.586 0.437122 -0.515655 0
M  V30 3138 H 299.14 0.765987 -1.90583 0
M  V30 3139 H 297.37 3.31947 -1.98364 0
M  V30 3140 H 299.059 3.27347 -2.39998 0
M  V30 3141 H 299.825 1.89386 -4.46495 0
M  V30 3142 H 295.704 2.81246 -3.65269 0
M  V30 3143 H 299.248 1.44848 -6.82396 0
M  V30 3144 H 295.145 2.37125 -6.00368 0
M  V30 3145 H 295.913 1.7715 -7.991 0
M  V30 3146 N 298.576 1.31904 0.862503 0
M  V30 3147 C 299.801 1.25135 1.65397 0
M  V30 3148 C 300.226 -0.179 1.87246 0
M  V30 3149 O 299.584 -1.1277 1.4196 0
M  V30 3150 C 299.632 2.00832 2.99498 0
M  V30 3151 O 298.736 1.35075 3.89652 0
M  V30 3152 H 298.077 0.431655 0.504549 0
M  V30 3153 H 300.607 1.74094 1.07483 0
M  V30 3154 H 300.617 2.10709 3.49379 0
M  V30 3155 H 299.292 3.04847 2.82916 0
M  V30 3156 H 297.869 1.33696 3.48109 0
M  V30 3157 N 300.054 -1.07777 1.14986 0
M  V30 3158 C 301.017 -2.13041 0.845358 0
M  V30 3159 C 302.017 -1.60071 -0.152931 0
M  V30 3160 O 303.207 -1.74033 0.0761879 0
M  V30 3161 C 300.339 -3.39896 0.261383 0
M  V30 3162 H 301.532 -2.41485 1.77834 0
M  V30 3163 H 299.085 -1.23595 0.956757 0
M  V30 3164 H 299.82 -3.17091 -0.68 0
M  V30 3165 H 299.605 -3.79642 0.980514 0
M  V30 3166 H 301.095 -4.17548 0.0657687 0
M  V30 3167 N 301.532 -0.945985 -1.26051 0
M  V30 3168 C 302.462 -0.477172 -2.28572 0
M  V30 3169 C 303.443 0.472032 -1.63419 0
M  V30 3170 O 304.628 0.372853 -1.90587 0
M  V30 3171 C 301.758 0.253975 -3.4637 0
M  V30 3172 C 300.712 -0.609135 -4.23643 0
M  V30 3173 C 300.038 0.252252 -5.34105 0
M  V30 3174 C 301.338 -1.8829 -4.8718 0
M  V30 3175 H 303.032 -1.33402 -2.68038 0
M  V30 3176 H 300.578 -0.642904 -1.28852 0
M  V30 3177 H 302.531 0.593016 -4.17207 0
M  V30 3178 H 301.255 1.145 -3.05871 0
M  V30 3179 H 299.914 -0.931138 -3.54578 0
M  V30 3180 H 299.562 1.14278 -4.89846 0
M  V30 3181 H 299.262 -0.32188 -5.86718 0
M  V30 3182 H 300.786 0.586454 -6.07777 0
M  V30 3183 H 302.2 -1.61081 -5.50205 0
M  V30 3184 H 300.597 -2.40199 -5.49931 0
M  V30 3185 H 301.667 -2.59134 -4.09851 0
M  V30 3186 N 303.011 1.40521 -0.713556 0
M  V30 3187 C 303.959 2.32549 -0.0485227 0
M  V30 3188 C 304.953 1.51931 0.74922 0
M  V30 3189 O 306.159 1.67745 0.652816 0
M  V30 3190 H 302.534 0.751994 0.00311138 0
M  V30 3191 H 304.505 2.86291 -0.841443 0
M  V30 3192 C 303.254 3.36879 0.860687 0
M  V30 3193 H 302.577 3.98978 0.256246 0
M  V30 3194 H 304.017 4.03772 1.294 0
M  V30 3195 C 302.476 2.72197 1.9852 0
M  V30 3196 O 303.006 2.5837 3.07584 0
M  V30 3197 N 301.212 2.30612 1.76823 0
M  V30 3198 H 300.759 2.42059 0.881217 0
M  V30 3199 H 300.717 1.87672 2.52243 0
M  V30 3200 N 304.489 0.459591 1.5075 0
M  V30 3201 C 305.719 -0.0972338 2.06371 0
M  V30 3202 C 306.127 -1.35074 1.32483 0
M  V30 3203 O 305.47 -1.79637 0.384226 0
M  V30 3204 C 305.532 -0.462759 3.56509 0
M  V30 3205 C 305.196 0.687084 4.51805 0
M  V30 3206 C 306.193 1.56578 4.95761 0
M  V30 3207 C 303.878 0.874144 4.94635 0
M  V30 3208 C 305.872 2.61604 5.81242 0
M  V30 3209 C 303.559 1.92765 5.79901 0
M  V30 3210 C 304.557 2.79697 6.23104 0
M  V30 3211 O 304.245 3.83235 7.06673 0
M  V30 3212 H 303.977 -0.00140687 0.675999 0
M  V30 3213 H 306.531 0.644011 1.95043 0
M  V30 3214 H 304.761 -1.25703 3.65699 0
M  V30 3215 H 306.45 -0.953323 3.94546 0
M  V30 3216 H 307.216 1.4329 4.6335 0
M  V30 3217 H 303.095 0.207006 4.60535 0
M  V30 3218 H 306.639 3.29489 6.14884 0
M  V30 3219 H 302.536 2.06064 6.11725 0
M  V30 3220 H 303.304 3.80084 7.24899 0
M  V30 3221 N 305.967 -1.56429 0.191757 0
M  V30 3222 C 307.244 -1.89224 -0.495332 0
M  V30 3223 C 307.624 -1.10478 -1.79883 0
M  V30 3224 O 306.972 -0.204852 -2.2758 0
M  V30 3225 C 307.182 -3.41548 -0.717367 0
M  V30 3226 C 308.53 -4.11711 -1.03823 0
M  V30 3227 O 309.554 -3.4698 -0.805204 0
M  V30 3228 O 308.413 -5.2611 -1.47887 0
M  V30 3229 H 305.507 -0.785788 -0.25781 0
M  V30 3230 H 308.053 -1.68111 0.231721 0
M  V30 3231 H 306.825 -3.90772 0.203287 0
M  V30 3232 H 306.448 -3.68342 -1.497 0
M  V30 3233 N 307.445 0.0818655 -1.57387 0
M  V30 3234 C 308.856 0.634871 -1.75574 0
M  V30 3235 C 309.207 1.78435 -0.815809 0
M  V30 3236 O 308.332 2.164 0.0025366 0
M  V30 3237 C 308.927 1.15845 -3.18379 0
M  V30 3238 C 307.486 1.65741 -3.37945 0
M  V30 3239 C 306.633 0.572549 -2.71325 0
M  V30 3240 H 309.584 -0.144268 -1.58043 0
M  V30 3241 H 309.605 2.02751 -3.21982 0
M  V30 3242 H 309.117 0.321631 -3.86765 0
M  V30 3243 H 307.218 2.51781 -2.74658 0
M  V30 3244 H 307.331 1.74129 -4.46336 0
M  V30 3245 H 305.695 1.01518 -2.33594 0
M  V30 3246 H 306.478 -0.253918 -3.4236 0
M  V30 3247 N 308.923 1.53595 0.353017 0
M  V30 3248 C 310.17 1.70385 1.09431 0
M  V30 3249 C 310.498 0.462113 1.88931 0
M  V30 3250 O 309.753 -0.556074 1.87633 0
M  V30 3251 C 310.052 2.91313 2.07054 0
M  V30 3252 C 309.718 4.27308 1.43939 0
M  V30 3253 C 308.38 4.64287 1.26454 0
M  V30 3254 C 310.732 5.11829 0.983883 0
M  V30 3255 C 308.06 5.83412 0.620226 0
M  V30 3256 C 310.412 6.31611 0.353516 0
M  V30 3257 C 309.076 6.67293 0.166272 0
M  V30 3258 H 308.346 0.623484 0.400436 0
M  V30 3259 H 310.993 1.87799 0.374655 0
M  V30 3260 H 309.298 2.68463 2.85368 0
M  V30 3261 H 310.995 3.01497 2.64387 0
M  V30 3262 H 307.585 3.98198 1.58543 0
M  V30 3263 H 311.769 4.838 1.10685 0
M  V30 3264 H 307.025 6.09639 0.463681 0
M  V30 3265 H 311.199 6.964 -0.00757555 0
M  V30 3266 H 308.826 7.59461 -0.335047 0
M  V30 3267 N 310.401 -0.613514 1.45168 0
M  V30 3268 C 311.629 -1.39946 1.5239 0
M  V30 3269 C 312.044 -1.88167 0.154531 0
M  V30 3270 O 311.401 -1.61872 -0.842843 0
M  V30 3271 C 311.452 -2.60795 2.50337 0
M  V30 3272 O 311.173 -2.1458 3.81952 0
M  V30 3273 C 312.674 -3.53723 2.67198 0
M  V30 3274 H 309.894 -0.428593 0.516284 0
M  V30 3275 H 312.438 -0.748753 1.903 0
M  V30 3276 H 310.593 -3.21919 2.15515 0
M  V30 3277 H 311.007 -2.93055 4.34993 0
M  V30 3278 H 312.481 -4.35079 3.39721 0
M  V30 3279 H 312.958 -4.0368 1.73029 0
M  V30 3280 H 313.564 -2.98456 3.02992 0
M  V30 3281 N 311.879 -1.3236 -0.855495 0
M  V30 3282 C 312.812 -1.15559 -1.96777 0
M  V30 3283 C 313.79 -0.0552681 -1.62506 0
M  V30 3284 O 314.974 -0.214419 -1.87277 0
M  V30 3285 C 312.101 -0.768851 -3.29858 0
M  V30 3286 C 311.147 -1.87429 -3.83109 0
M  V30 3287 S 311.98 -3.48243 -4.06801 0
M  V30 3288 C 313.136 -3.11539 -5.42858 0
M  V30 3289 H 313.369 -2.09717 -2.10727 0
M  V30 3290 H 310.902 -1.17011 -1.00737 0
M  V30 3291 H 312.86 -0.55248 -4.06765 0
M  V30 3292 H 311.521 0.153857 -3.13723 0
M  V30 3293 H 310.714 -1.55667 -4.79358 0
M  V30 3294 H 310.316 -2.04647 -3.13042 0
M  V30 3295 H 312.608 -2.61331 -6.2507 0
M  V30 3296 H 313.551 -4.06806 -5.79582 0
M  V30 3297 H 313.959 -2.48582 -5.06821 0
M  V30 3298 N 313.357 1.07166 -1.15556 0
M  V30 3299 C 314.604 1.79798 -0.931604 0
M  V30 3300 C 314.932 1.8682 0.54115 0
M  V30 3301 O 314.187 1.34942 1.41736 0
M  V30 3302 C 314.486 3.24707 -1.49332 0
M  V30 3303 C 314.152 3.37781 -2.98688 0
M  V30 3304 C 312.814 3.41057 -3.39461 0
M  V30 3305 C 315.166 3.40424 -3.94665 0
M  V30 3306 C 312.494 3.4458 -4.74849 0
M  V30 3307 C 314.846 3.45485 -5.29927 0
M  V30 3308 C 313.51 3.47039 -5.70193 0
M  V30 3309 H 312.78 0.657928 -0.340898 0
M  V30 3310 H 315.427 1.26091 -1.44129 0
M  V30 3311 H 313.732 3.81208 -0.904859 0
M  V30 3312 H 315.429 3.79486 -1.29582 0
M  V30 3313 H 312.019 3.35932 -2.66172 0
M  V30 3314 H 316.203 3.37113 -3.64237 0
M  V30 3315 H 311.459 3.44083 -5.05388 0
M  V30 3316 H 315.633 3.46476 -6.04092 0
M  V30 3317 H 313.26 3.49522 -6.75084 0
M  V30 3318 N 314.835 0.952656 1.25548 0
M  V30 3319 C 315.765 0.489287 2.28316 0
M  V30 3320 C 316.746 -0.463359 1.63667 0
M  V30 3321 O 317.931 -0.36274 1.90782 0
M  V30 3322 C 315.061 -0.235603 3.465 0
M  V30 3323 C 314.015 0.631593 4.23314 0
M  V30 3324 C 313.341 -0.223923 5.34231 0
M  V30 3325 C 314.641 1.90871 4.86174 0
M  V30 3326 H 316.335 1.34822 2.67326 0
M  V30 3327 H 313.881 0.649728 1.28509 0
M  V30 3328 H 315.834 -0.570882 4.17515 0
M  V30 3329 H 314.558 -1.12877 3.06474 0
M  V30 3330 H 313.217 0.949929 3.54079 0
M  V30 3331 H 312.865 -1.11678 4.90446 0
M  V30 3332 H 312.565 0.35299 5.86539 0
M  V30 3333 H 314.089 -0.554214 6.0808 0
M  V30 3334 H 315.503 1.63997 5.49343 0
M  V30 3335 H 313.9 2.43112 5.4865 0
M  V30 3336 H 314.97 2.61304 4.08471 0
M  V30 3337 N 316.313 -1.40141 0.720998 0
M  V30 3338 C 317.276 -2.29058 0.0805834 0
M  V30 3339 C 318.276 -1.45632 -0.681758 0
M  V30 3340 O 319.466 -1.6648 -0.512856 0
M  V30 3341 C 316.598 -3.28925 -0.895593 0
M  V30 3342 H 317.791 -2.87191 0.863793 0
M  V30 3343 H 315.344 -1.48553 0.485975 0
M  V30 3344 H 316.079 -2.75822 -1.70566 0
M  V30 3345 H 315.864 -3.90519 -0.351766 0
M  V30 3346 H 317.354 -3.95494 -1.34069 0
M  V30 3347 N 317.792 -0.46758 -1.50504 0
M  V30 3348 C 318.74 0.342482 -2.30065 0
M  V30 3349 C 319.734 0.993596 -1.37201 0
M  V30 3350 O 320.94 0.925102 -1.54408 0
M  V30 3351 H 317.315 0.129283 -0.740803 0
M  V30 3352 H 319.286 -0.34899 -2.96352 0
M  V30 3353 C 318.035 1.4139 -3.17654 0
M  V30 3354 H 317.358 0.922264 -3.89017 0
M  V30 3355 H 318.798 1.95335 -3.76325 0
M  V30 3356 C 317.257 2.4139 -2.35016 0
M  V30 3357 O 317.787 3.46586 -2.03079 0
M  V30 3358 N 315.993 2.13021 -1.97662 0
M  V30 3359 H 315.54 1.27499 -2.23834 0
M  V30 3360 H 315.498 2.80164 -1.42673 0
M  V30 3361 N 319.27 1.56325 -0.20005 0
M  V30 3362 C 320.547 1.89484 0.48529 0
M  V30 3363 C 320.927 1.1143 1.79294 0
M  V30 3364 O 320.275 0.216919 2.27468 0
M  V30 3365 C 320.485 3.41923 0.699243 0
M  V30 3366 C 321.833 4.12256 1.01638 0
M  V30 3367 O 322.857 3.47402 0.786792 0
M  V30 3368 O 321.716 5.26887 1.45095 0
M  V30 3369 H 318.81 0.787144 0.253639 0
M  V30 3370 H 321.356 1.67985 -0.240633 0
M  V30 3371 H 320.128 3.90658 -0.224008 0
M  V30 3372 H 319.751 3.69131 1.47744 0
M  V30 3373 N 320.748 -0.0735177 1.57428 0
M  V30 3374 C 321.695 -1.08756 2.0357 0
M  V30 3375 C 322.665 -1.38559 0.916 0
M  V30 3376 O 323.85 -1.49656 1.18354 0
M  V30 3377 C 320.99 -2.39657 2.48311 0
M  V30 3378 C 320.103 -2.16399 3.73892 0
M  V30 3379 C 319.238 -3.40852 4.07423 0
M  V30 3380 C 318.277 -3.1295 5.2605 0
M  V30 3381 N 317.414 -4.29729 5.55228 0
M  V30 3382 H 322.254 -0.687104 2.8997 0
M  V30 3383 H 319.791 -0.327709 1.43403 0
M  V30 3384 H 321.749 -3.16081 2.72303 0
M  V30 3385 H 320.379 -2.77508 1.64891 0
M  V30 3386 H 319.431 -1.30676 3.57251 0
M  V30 3387 H 320.743 -1.91788 4.60455 0
M  V30 3388 H 319.897 -4.25671 4.32306 0
M  V30 3389 H 318.636 -3.68537 3.19425 0
M  V30 3390 H 317.641 -2.26526 5.00965 0
M  V30 3391 H 318.866 -2.86589 6.15665 0
M  V30 3392 H 316.812 -4.57448 4.70188 0
M  V30 3393 H 316.729 -4.08385 6.36206 0
M  V30 3394 H 317.997 -5.1555 5.84661 0
M  V30 3395 N 322.226 -1.5378 -0.344866 0
M  V30 3396 C 323.642 -1.44015 -0.687888 0
M  V30 3397 C 323.842 -0.595834 -1.92489 0
M  V30 3398 O 322.898 -0.0863064 -2.52352 0
M  V30 3399 C 324.211 -2.87481 -0.881758 0
M  V30 3400 C 325.759 -2.97247 -0.980459 0
M  V30 3401 C 326.234 -4.41819 -1.20665 0
M  V30 3402 N 327.725 -4.45339 -1.27389 0
M  V30 3403 C 328.46 -5.54333 -1.46639 0
M  V30 3404 N 327.956 -6.73335 -1.63071 0
M  V30 3405 N 329.749 -5.41944 -1.49176 0
M  V30 3406 H 321.9 -2.07169 0.468475 0
M  V30 3407 H 324.163 -0.93643 0.147655 0
M  V30 3408 H 323.869 -3.51672 -0.0443444 0
M  V30 3409 H 323.743 -3.32352 -1.78388 0
M  V30 3410 H 326.13 -2.33197 -1.8084 0
M  V30 3411 H 326.211 -2.5574 -0.0552713 0
M  V30 3412 H 325.855 -5.06449 -0.383652 0
M  V30 3413 H 325.785 -4.80917 -2.14539 0
M  V30 3414 H 328.276 -3.59585 -1.1622 0
M  V30 3415 H 328.589 -7.52165 -1.77391 0
M  V30 3416 H 326.934 -6.76282 -1.60209 0
M  V30 3417 H 330.125 -4.47932 -1.3592 0
M  V30 3418 H 330.298 -6.26946 -1.63837 0
M  V30 3419 N 323.704 0.605807 -1.45491 0
M  V30 3420 C 324.636 1.73031 -1.5031 0
M  V30 3421 C 325.649 1.57968 -0.393687 0
M  V30 3422 O 326.838 1.65817 -0.660839 0
M  V30 3423 C 323.938 3.11049 -1.34543 0
M  V30 3424 C 323.111 3.52334 -2.59189 0
M  V30 3425 C 322.17 4.69323 -2.37954 0
M  V30 3426 O 321.196 4.7635 -3.11575 0
M  V30 3427 N 322.398 5.62705 -1.4263 0
M  V30 3428 H 325.163 1.6936 -2.4726 0
M  V30 3429 H 322.724 0.79114 -1.41254 0
M  V30 3430 H 324.716 3.87071 -1.18144 0
M  V30 3431 H 323.286 3.09217 -0.458623 0
M  V30 3432 H 322.506 2.66256 -2.90691 0
M  V30 3433 H 323.794 3.76677 -3.42041 0
M  V30 3434 H 323.192 5.59744 -0.818758 0
M  V30 3435 H 321.749 6.38252 -1.32202 0
M  V30 3436 N 325.182 1.32811 0.848464 0
M  V30 3437 C 326.428 1.23907 1.60546 0
M  V30 3438 C 326.761 -0.197161 1.93197 0
M  V30 3439 O 326.036 -1.13596 1.5788 0
M  V30 3440 C 326.319 2.10489 2.92175 0
M  V30 3441 C 326.172 3.62522 2.66266 0
M  V30 3442 C 327.491 1.97075 3.93509 0
M  V30 3443 H 324.61 0.451459 0.58254 0
M  V30 3444 H 327.252 1.62818 0.979296 0
M  V30 3445 H 325.402 1.77434 3.45614 0
M  V30 3446 H 327.074 4.05821 2.19334 0
M  V30 3447 H 325.317 3.84879 2.00126 0
M  V30 3448 H 325.988 4.18437 3.6002 0
M  V30 3449 H 328.464 2.26045 3.49346 0
M  V30 3450 H 327.34 2.59923 4.83457 0
M  V30 3451 H 327.601 0.940186 4.31987 0
M  V30 3452 N 326.66 -1.06551 1.16123 0
M  V30 3453 C 328.076 -1.3142 0.905585 0
M  V30 3454 C 328.276 -1.96571 -0.442964 0
M  V30 3455 O 327.332 -2.23068 -1.18308 0
M  V30 3456 C 328.645 -2.19741 2.05267 0
M  V30 3457 C 330.193 -2.33165 2.08813 0
M  V30 3458 C 330.668 -3.24838 3.22868 0
M  V30 3459 N 332.159 -3.32421 3.22568 0
M  V30 3460 C 332.894 -4.0344 4.0746 0
M  V30 3461 N 332.39 -4.77003 5.02434 0
M  V30 3462 N 334.183 -3.99464 3.95456 0
M  V30 3463 H 326.334 -0.626548 2.02949 0
M  V30 3464 H 328.597 -0.338777 0.8854 0
M  V30 3465 H 328.303 -1.79142 3.02657 0
M  V30 3466 H 328.177 -3.20313 1.99198 0
M  V30 3467 H 330.564 -2.73013 1.12018 0
M  V30 3468 H 330.645 -1.3227 2.18948 0
M  V30 3469 H 330.289 -2.85708 4.19921 0
M  V30 3470 H 330.219 -4.25707 3.0997 0
M  V30 3471 H 332.71 -2.79994 2.53795 0
M  V30 3472 H 333.023 -5.28712 5.63634 0
M  V30 3473 H 331.368 -4.75992 5.06415 0
M  V30 3474 H 334.559 -3.4111 3.20564 0
M  V30 3475 H 334.732 -4.54544 4.61837 0
M  V30 3476 N 328.138 -0.959301 -1.25041 0
M  V30 3477 C 329.384 -0.617525 -1.9317 0
M  V30 3478 C 329.717 0.843981 -1.74902 0
M  V30 3479 O 328.992 1.60615 -1.09696 0
M  V30 3480 C 329.275 -0.982736 -3.46431 0
M  V30 3481 C 329.128 -2.50032 -3.73904 0
M  V30 3482 C 330.447 -0.511176 -4.37121 0
M  V30 3483 H 327.566 -0.22582 -0.701552 0
M  V30 3484 H 330.208 -1.19679 -1.4757 0
M  V30 3485 H 328.358 -0.489806 -3.854 0
M  V30 3486 H 330.03 -3.06737 -3.44544 0
M  V30 3487 H 328.273 -2.93598 -3.19348 0
M  V30 3488 H 328.944 -2.70635 -4.81103 0
M  V30 3489 H 331.42 -0.934075 -4.0548 0
M  V30 3490 H 330.296 -0.795361 -5.43107 0
M  V30 3491 H 330.557 0.588834 -4.38161 0
M  V30 3492 N 329.616 1.39756 -0.72842 0
M  V30 3493 C 330.862 2.00942 -0.273892 0
M  V30 3494 C 331.195 1.57656 1.13394 0
M  V30 3495 O 330.47 0.802434 1.77176 0
M  V30 3496 C 330.753 3.58211 -0.368346 0
M  V30 3497 C 330.606 4.11534 -1.81548 0
M  V30 3498 C 331.925 4.39372 0.253054 0
M  V30 3499 H 329.044 0.730047 -0.100996 0
M  V30 3500 H 331.686 1.66056 -0.923337 0
M  V30 3501 H 329.836 3.88061 0.184588 0
M  V30 3502 H 331.508 3.92431 -2.42478 0
M  V30 3503 H 329.751 3.65341 -2.33898 0
M  V30 3504 H 330.422 5.20682 -1.83288 0
M  V30 3505 H 332.898 4.15527 -0.218224 0
M  V30 3506 H 331.774 5.48677 0.156585 0
M  V30 3507 H 332.035 4.21358 1.33826 0
M  V30 3508 N 331.094 0.475555 1.50254 0
M  V30 3509 C 332.505 0.0215174 1.86688 0
M  V30 3510 C 332.856 -1.38467 1.39001 0
M  V30 3511 O 331.981 -2.02732 0.756894 0
M  V30 3512 C 332.576 0.0322715 3.38785 0
M  V30 3513 C 331.135 -0.366314 3.74613 0
M  V30 3514 C 330.282 0.415832 2.74164 0
M  V30 3515 H 333.233 0.689612 1.42934 0
M  V30 3516 H 333.254 -0.76889 3.7265 0
M  V30 3517 H 332.766 1.05584 3.73462 0
M  V30 3518 H 330.867 -1.39406 3.45538 0
M  V30 3519 H 330.98 -0.064555 4.79057 0
M  V30 3520 H 329.344 -0.131048 2.54363 0
M  V30 3521 H 330.127 1.43899 3.11686 0
M  V30 3522 N 332.573 -1.56217 0.208337 0
M  V30 3523 C 333.505 -2.1695 -0.739276 0
M  V30 3524 C 334.518 -1.13492 -1.1672 0
M  V30 3525 O 335.707 -1.40529 -1.10063 0
M  V30 3526 C 332.807 -2.72755 -2.01142 0
M  V30 3527 C 331.98 -4.0125 -1.74118 0
M  V30 3528 C 331.039 -4.41749 -2.85909 0
M  V30 3529 O 330.065 -5.08912 -2.54946 0
M  V30 3530 N 331.267 -4.06342 -4.14568 0
M  V30 3531 H 334.032 -2.98893 -0.219837 0
M  V30 3532 H 331.593 -1.61878 0.0268445 0
M  V30 3533 H 333.585 -2.96826 -2.75094 0
M  V30 3534 H 332.155 -1.95191 -2.4417 0
M  V30 3535 H 331.375 -3.85173 -0.838775 0
M  V30 3536 H 332.663 -4.851 -1.53477 0
M  V30 3537 H 332.061 -3.52345 -4.42571 0
M  V30 3538 H 330.618 -4.35335 -4.85105 0
M  V30 3539 N 334.051 0.0651679 -1.57465 0
M  V30 3540 C 335.279 0.775808 -1.91804 0
M  V30 3541 C 335.694 1.70782 -0.804916 0
M  V30 3542 O 335.051 1.81153 0.221311 0
M  V30 3543 C 335.102 1.56381 -3.25925 0
M  V30 3544 O 334.823 0.669248 -4.32958 0
M  V30 3545 C 336.324 2.37485 -3.7432 0
M  V30 3546 H 333.544 0.2202 -0.63384 0
M  V30 3547 H 336.088 0.0334587 -2.04473 0
M  V30 3548 H 334.243 2.25837 -3.14764 0
M  V30 3549 H 334.657 1.21801 -5.10162 0
M  V30 3550 H 336.131 2.88223 -4.70778 0
M  V30 3551 H 336.608 3.17307 -3.03666 0
M  V30 3552 H 337.214 1.73173 -3.88447 0
M  V30 3553 N 335.529 1.53961 0.336706 0
M  V30 3554 C 336.492 1.81724 1.39675 0
M  V30 3555 C 337.492 0.688532 1.45313 0
M  V30 3556 O 338.682 0.956829 1.45569 0
M  V30 3557 C 335.814 1.96543 2.78538 0
M  V30 3558 H 337.007 2.76424 1.16318 0
M  V30 3559 H 334.56 1.45478 0.571474 0
M  V30 3560 H 335.295 1.0401 3.07168 0
M  V30 3561 H 335.08 2.78665 2.75841 0
M  V30 3562 H 336.57 2.19516 3.5525 0
M  V30 3563 N 337.007 -0.598083 1.45811 0
M  V30 3564 C 337.937 -1.71873 1.58057 0
M  V30 3565 C 338.918 -1.64533 0.431615 0
M  V30 3566 O 340.103 -1.82787 0.65595 0
M  V30 3567 C 337.233 -3.10495 1.55597 0
M  V30 3568 C 336.187 -3.32654 2.69305 0
M  V30 3569 C 335.513 -4.71646 2.51902 0
M  V30 3570 C 336.813 -3.21981 4.11248 0
M  V30 3571 H 338.507 -1.61881 2.51863 0
M  V30 3572 H 336.053 -0.777372 1.21214 0
M  V30 3573 H 338.006 -3.88699 1.6276 0
M  V30 3574 H 336.73 -3.2135 0.583255 0
M  V30 3575 H 335.389 -2.56843 2.61586 0
M  V30 3576 H 335.037 -4.79246 1.52748 0
M  V30 3577 H 334.737 -4.87426 3.2816 0
M  V30 3578 H 336.261 -5.52038 2.60933 0
M  V30 3579 H 337.675 -3.90049 4.20161 0
M  V30 3580 H 336.072 -3.49289 4.87972 0
M  V30 3581 H 337.142 -2.1928 4.32486 0
M  V30 3582 N 338.485 -1.33259 -0.841409 0
M  V30 3583 C 339.896 -1.22066 -1.41269 0
M  V30 3584 C 340.247 0.161479 -1.95534 0
M  V30 3585 O 339.372 1.06094 -1.88608 0
M  V30 3586 C 339.967 -2.20996 -2.568 0
M  V30 3587 C 338.526 -2.13649 -3.09888 0
M  V30 3588 C 337.673 -2.08623 -1.82679 0
M  V30 3589 H 340.624 -1.44895 -0.647395 0
M  V30 3590 H 340.645 -1.81621 -3.34356 0
M  V30 3591 H 340.157 -3.2158 -2.17274 0
M  V30 3592 H 338.258 -1.16359 -3.53965 0
M  V30 3593 H 338.371 -3.04079 -3.70234 0
M  V30 3594 H 336.735 -1.54061 -2.02824 0
M  V30 3595 H 337.518 -3.1101 -1.45353 0
M  V30 3596 N 339.963 1.05934 -1.16686 0
M  V30 3597 C 340.893 2.1546 -0.899949 0
M  V30 3598 C 341.874 1.69391 0.155154 0
M  V30 3599 O 343.059 1.94199 0.00648693 0
M  V30 3600 C 340.189 3.44939 -0.404241 0
M  V30 3601 C 339.143 4.04536 -1.39767 0
M  V30 3602 C 338.469 5.29268 -0.760216 0
M  V30 3603 C 339.769 4.42893 -2.76845 0
M  V30 3604 H 341.463 2.38046 -1.81588 0
M  V30 3605 H 339.009 1.14404 -0.874514 0
M  V30 3606 H 340.962 4.20901 -0.204971 0
M  V30 3607 H 339.686 3.21983 0.547206 0
M  V30 3608 H 338.345 3.30635 -1.58355 0
M  V30 3609 H 337.993 5.02611 0.197831 0
M  V30 3610 H 337.693 5.70101 -1.42332 0
M  V30 3611 H 339.217 6.07924 -0.57105 0
M  V30 3612 H 340.631 5.09921 -2.62019 0
M  V30 3613 H 339.028 4.94721 -3.39663 0
M  V30 3614 H 340.098 3.53584 -3.31823 0
M  V30 3615 N 341.441 0.965919 1.2453 0
M  V30 3616 C 342.687 0.62776 1.92839 0
M  V30 3617 C 343.02 -0.834694 1.75347 0
M  V30 3618 O 342.295 -1.60031 1.10546 0
M  V30 3619 C 342.578 1.00109 3.45905 0
M  V30 3620 C 342.431 2.52011 3.72573 0
M  V30 3621 C 343.75 0.53435 4.36844 0
M  V30 3622 H 340.869 0.229537 0.700344 0
M  V30 3623 H 343.511 1.2046 1.46933 0
M  V30 3624 H 341.661 0.510238 3.85135 0
M  V30 3625 H 343.333 3.08559 3.42912 0
M  V30 3626 H 341.576 2.95287 3.17786 0
M  V30 3627 H 342.247 2.73183 4.79661 0
M  V30 3628 H 344.723 0.955565 4.04979 0
M  V30 3629 H 343.599 0.824152 5.42678 0
M  V30 3630 H 343.86 -0.565589 4.38467 0
M  V30 3631 N 342.919 -1.39368 0.735821 0
M  V30 3632 C 344.167 -2.00101 0.283562 0
M  V30 3633 C 344.488 -1.5868 -1.13338 0
M  V30 3634 O 343.758 -0.835423 -1.77193 0
M  V30 3635 H 342.338 -0.740024 0.101851 0
M  V30 3636 H 345 -1.70404 0.945962 0
M  V30 3637 H 344.096 -3.10323 0.332604 0
M  V30 3638 N 344.397 -0.483516 -1.5 0
M  V30 3639 C 345.643 0.0672592 -2.02688 0
M  V30 3640 C 345.976 1.38247 -1.36387 0
M  V30 3641 O 345.251 1.88131 -0.493675 0
M  V30 3642 C 345.534 0.238109 -3.59312 0
M  V30 3643 C 345.387 -1.099 -4.36168 0
M  V30 3644 C 346.706 0.986916 -4.28892 0
M  V30 3645 H 343.825 0.0229696 -0.736642 0
M  V30 3646 H 346.467 -0.631527 -1.79197 0
M  V30 3647 H 344.617 0.8333 -3.79458 0
M  V30 3648 H 346.289 -1.73172 -4.27562 0
M  V30 3649 H 344.532 -1.69261 -3.99416 0
M  V30 3650 H 345.203 -0.932954 -5.44059 0
M  V30 3651 H 347.679 0.482302 -4.13295 0
M  V30 3652 H 346.555 1.07527 -5.38265 0
M  V30 3653 H 346.816 2.0265 -3.92919 0
M  V30 3654 N 345.875 1.56104 -0.216619 0
M  V30 3655 C 347.1 2.0301 0.424462 0
M  V30 3656 C 347.525 1.0955 1.52907 0
M  V30 3657 O 346.883 0.0827914 1.81111 0
M  V30 3658 C 346.931 3.4819 0.937883 0
M  V30 3659 O 346.035 3.57865 2.04955 0
M  V30 3660 H 345.376 0.656925 0.0966755 0
M  V30 3661 H 347.906 2.01859 -0.33381 0
M  V30 3662 H 347.916 3.88413 1.24897 0
M  V30 3663 H 346.591 4.15699 0.129387 0
M  V30 3664 H 345.168 3.29527 1.74546 0
M  V30 3665 N 347.353 -0.0568162 1.57498 0
M  V30 3666 C 348.769 -0.411933 1.54192 0
M  V30 3667 C 348.969 -1.78287 0.938942 0
M  V30 3668 O 348.025 -2.46483 0.547919 0
M  V30 3669 C 349.338 -0.339244 2.9878 0
M  V30 3670 C 350.886 -0.418348 3.10192 0
M  V30 3671 C 351.361 -0.375407 4.56459 0
M  V30 3672 N 352.852 -0.435038 4.61153 0
M  V30 3673 C 353.587 -0.424265 5.71828 0
M  V30 3674 N 353.083 -0.367418 6.91825 0
M  V30 3675 N 354.876 -0.471938 5.60115 0
M  V30 3676 H 347.027 0.840684 1.95055 0
M  V30 3677 H 349.29 0.316987 0.893433 0
M  V30 3678 H 348.996 0.601742 3.46514 0
M  V30 3679 H 348.87 -1.14371 3.59443 0
M  V30 3680 H 351.257 -1.34976 2.62422 0
M  V30 3681 H 351.338 0.414962 2.52412 0
M  V30 3682 H 350.982 0.552219 5.04889 0
M  V30 3683 H 350.912 -1.22645 5.12119 0
M  V30 3684 H 353.403 -0.482612 3.74806 0
M  V30 3685 H 353.716 -0.363535 7.71944 0
M  V30 3686 H 352.061 -0.333879 6.94198 0
M  V30 3687 H 355.252 -0.514145 4.65268 0
M  V30 3688 H 355.425 -0.460073 6.46365 0
M  V30 3689 N 348.832 -1.54138 -0.328536 0
M  V30 3690 C 350.08 -1.71765 -1.06496 0
M  V30 3691 C 350.401 -0.49149 -1.88704 0
M  V30 3692 O 349.671 0.494539 -1.89555 0
M  V30 3693 H 348.251 -0.633295 -0.396164 0
M  V30 3694 H 350.913 -1.91429 -0.366176 0
M  V30 3695 H 350.009 -2.5951 -1.73381 0
M  V30 3696 N 350.31 0.590341 -1.46126 0
M  V30 3697 C 351.257 1.69994 -1.56111 0
M  V30 3698 C 352.227 1.61065 -0.405867 0
M  V30 3699 O 353.412 1.8039 -0.621613 0
M  V30 3700 C 350.552 3.08326 -1.55013 0
M  V30 3701 C 349.665 3.27936 -2.81215 0
M  V30 3702 C 348.8 4.56473 -2.71673 0
M  V30 3703 C 347.839 4.694 -3.92849 0
M  V30 3704 N 346.976 5.89254 -3.81738 0
M  V30 3705 H 351.816 1.60797 -2.50895 0
M  V30 3706 H 349.353 0.783799 -1.24479 0
M  V30 3707 H 351.311 3.88383 -1.52362 0
M  V30 3708 H 349.941 3.16439 -0.637667 0
M  V30 3709 H 348.993 2.41536 -2.93879 0
M  V30 3710 H 350.305 3.33357 -3.71045 0
M  V30 3711 H 349.459 5.44748 -2.67085 0
M  V30 3712 H 348.198 4.53477 -1.7947 0
M  V30 3713 H 347.203 3.79544 -3.97777 0
M  V30 3714 H 348.428 4.7418 -4.86138 0
M  V30 3715 H 346.374 5.87271 -2.92317 0
M  V30 3716 H 346.291 5.95911 -4.65217 0
M  V30 3717 H 347.559 6.79981 -3.81112 0
M  V30 3718 N 351.788 1.33704 0.83433 0
M  V30 3719 C 352.698 1.26382 1.97648 0
M  V30 3720 C 353.714 0.173548 1.73132 0
M  V30 3721 O 354.89 0.397962 1.97429 0
M  V30 3722 C 351.955 1.00769 3.31733 0
M  V30 3723 C 351.016 2.1884 3.69334 0
M  V30 3724 C 350.249 1.9444 4.9702 0
M  V30 3725 O 350.472 0.896961 5.63303 0
M  V30 3726 O 349.406 2.81093 5.32231 0
M  V30 3727 H 353.232 2.22444 2.06767 0
M  V30 3728 H 350.817 1.13795 0.968037 0
M  V30 3729 H 352.699 0.882186 4.12062 0
M  V30 3730 H 351.374 0.0773783 3.23608 0
M  V30 3731 H 350.281 2.36946 2.89495 0
M  V30 3732 H 351.614 3.10221 3.82131 0
M  V30 3733 N 353.266 -1.05314 1.17247 0
M  V30 3734 C 354.682 -1.30452 0.919473 0
M  V30 3735 C 354.882 -1.9703 -0.42209 0
M  V30 3736 O 353.938 -2.24311 -1.15935 0
M  V30 3737 C 355.251 -2.17551 2.07586 0
M  V30 3738 C 356.799 -2.30937 2.11275 0
M  V30 3739 C 357.274 -3.21396 3.26296 0
M  V30 3740 N 358.765 -3.28981 3.26076 0
M  V30 3741 C 359.5 -3.99095 4.11716 0
M  V30 3742 N 358.996 -4.71648 5.07465 0
M  V30 3743 N 360.789 -3.95247 3.9967 0
M  V30 3744 H 352.94 -0.604988 2.03602 0
M  V30 3745 H 355.203 -0.329368 0.888944 0
M  V30 3746 H 354.909 -1.75921 3.0454 0
M  V30 3747 H 354.783 -3.18182 2.02584 0
M  V30 3748 H 357.17 -2.71809 1.14907 0
M  V30 3749 H 357.251 -1.2994 2.20339 0
M  V30 3750 H 356.895 -2.81238 4.22927 0
M  V30 3751 H 356.825 -4.22395 3.14467 0
M  V30 3752 H 359.316 -2.77286 2.5675 0
M  V30 3753 H 359.629 -5.22705 5.6921 0
M  V30 3754 H 357.974 -4.70594 5.11435 0
M  V30 3755 H 361.165 -3.37691 3.24164 0
M  V30 3756 H 361.338 -4.4962 4.66632 0
M  V30 3757 N 354.744 -0.972509 -1.24016 0
M  V30 3758 C 356.16 -0.679827 -1.44397 0
M  V30 3759 C 356.36 0.756716 -1.86751 0
M  V30 3760 O 355.416 1.53007 -2.00861 0
M  V30 3761 C 356.729 -1.66803 -2.50195 0
M  V30 3762 C 358.277 -1.68119 -2.64017 0
M  V30 3763 C 358.752 -2.65748 -3.73017 0
M  V30 3764 N 360.243 -2.64219 -3.8045 0
M  V30 3765 C 360.978 -3.36433 -4.64328 0
M  V30 3766 N 360.474 -4.1818 -5.52356 0
M  V30 3767 N 362.267 -3.25235 -4.58453 0
M  V30 3768 H 354.418 -1.90059 -0.948228 0
M  V30 3769 H 356.681 -0.818527 -0.478245 0
M  V30 3770 H 356.387 -2.69498 -2.25973 0
M  V30 3771 H 356.261 -1.4446 -3.48441 0
M  V30 3772 H 358.648 -0.661319 -2.87594 0
M  V30 3773 H 358.729 -1.94525 -1.66113 0
M  V30 3774 H 358.373 -3.67872 -3.50189 0
M  V30 3775 H 358.303 -2.36619 -4.70446 0
M  V30 3776 H 360.794 -2.04887 -3.17537 0
M  V30 3777 H 361.107 -4.70157 -6.13329 0
M  V30 3778 H 359.452 -4.22273 -5.52006 0
M  V30 3779 H 362.643 -2.60829 -3.88698 0
M  V30 3780 H 362.816 -3.81776 -5.23594 0
M  V30 3781 N 356.222 1.38976 -0.743202 0
M  V30 3782 C 357.633 1.83123 -0.363732 0
M  V30 3783 C 357.984 1.6205 1.10609 0
M  V30 3784 O 357.109 1.11606 1.854 0
M  V30 3785 C 357.704 3.32439 -0.653408 0
M  V30 3786 C 356.263 3.74974 -0.327338 0
M  V30 3787 C 355.41 2.61878 -0.911875 0
M  V30 3788 H 358.361 1.27852 -0.940191 0
M  V30 3789 H 358.382 3.80432 0.0720031 0
M  V30 3790 H 357.894 3.47745 -1.72323 0
M  V30 3791 H 355.995 3.65252 0.736314 0
M  V30 3792 H 356.108 4.72106 -0.815631 0
M  V30 3793 H 354.472 2.52448 -0.337944 0
M  V30 3794 H 355.255 2.79987 -1.98651 0
M  V30 3795 N 357.7 0.491464 1.49741 0
M  V30 3796 C 358.63 -0.28154 2.31796 0
M  V30 3797 C 359.611 -0.971473 1.3963 0
M  V30 3798 O 360.796 -0.964719 1.68543 0
M  V30 3799 C 357.926 -1.35203 3.19902 0
M  V30 3800 C 356.88 -0.782529 4.20786 0
M  V30 3801 C 356.206 -1.95283 4.97764 0
M  V30 3802 C 357.506 0.21999 5.21837 0
M  V30 3803 H 359.2 0.403355 2.96671 0
M  V30 3804 H 356.746 0.195425 1.42668 0
M  V30 3805 H 358.699 -1.90045 3.76113 0
M  V30 3806 H 357.423 -2.06598 2.52953 0
M  V30 3807 H 356.082 -0.255928 3.65706 0
M  V30 3808 H 355.73 -2.65423 4.2727 0
M  V30 3809 H 355.43 -1.57789 5.66018 0
M  V30 3810 H 356.954 -2.50577 5.56816 0
M  V30 3811 H 358.368 -0.23996 5.72798 0
M  V30 3812 H 356.765 0.51026 5.97927 0
M  V30 3813 H 357.835 1.13911 4.7133 0
M  V30 3814 N 359.178 -1.55987 0.224894 0
M  V30 3815 C 360.403 -2.03232 -0.41369 0
M  V30 3816 C 360.828 -1.10359 -1.52323 0
M  V30 3817 O 360.186 -0.092395 -1.81064 0
M  V30 3818 C 360.234 -3.48682 -0.919405 0
M  V30 3819 O 359.338 -3.58947 -2.03054 0
M  V30 3820 H 358.679 -0.657428 -0.0931903 0
M  V30 3821 H 361.209 -2.01679 0.34451 0
M  V30 3822 H 361.219 -3.8907 -1.22835 0
M  V30 3823 H 359.894 -4.15761 -0.107339 0
M  V30 3824 H 358.471 -3.30448 -1.72796 0
M  V30 3825 N 360.656 0.0484629 -1.57525 0
M  V30 3826 C 361.933 0.777447 -1.79486 0
M  V30 3827 C 362.313 1.94597 -0.818251 0
M  V30 3828 O 361.661 2.28047 0.143767 0
M  V30 3829 C 361.871 1.22864 -3.26658 0
M  V30 3830 C 363.219 1.65251 -3.91123 0
M  V30 3831 O 364.243 1.32372 -3.3069 0
M  V30 3832 O 363.102 2.26207 -4.97486 0
M  V30 3833 H 360.196 0.374357 -0.737419 0
M  V30 3834 H 362.742 0.0267359 -1.69679 0
M  V30 3835 H 361.514 0.393589 -3.89316 0
M  V30 3836 H 361.137 2.03996 -3.41279 0
M  V30 3837 N 362.134 1.5431 0.320358 0
M  V30 3838 C 363.097 1.83195 1.3774 0
M  V30 3839 C 364.097 0.703906 1.44575 0
M  V30 3840 O 365.287 0.972214 1.44546 0
M  V30 3841 C 362.419 1.99487 2.76438 0
M  V30 3842 H 363.612 2.77642 1.1338 0
M  V30 3843 H 361.165 1.46076 0.556012 0
M  V30 3844 H 361.9 1.07262 3.06048 0
M  V30 3845 H 361.685 2.81575 2.7287 0
M  V30 3846 H 363.175 2.23271 3.52902 0
M  V30 3847 N 363.613 -0.582584 1.46437 0
M  V30 3848 C 364.843 -1.36484 1.55099 0
M  V30 3849 C 365.251 -1.88233 0.191056 0
M  V30 3850 O 364.594 -1.6429 -0.821858 0
M  V30 3851 C 364.656 -2.588 2.49525 0
M  V30 3852 C 364.32 -2.28517 3.95764 0
M  V30 3853 C 365.317 -1.87346 4.84972 0
M  V30 3854 C 363.002 -2.40658 4.40896 0
M  V30 3855 C 364.996 -1.5871 6.17325 0
M  V30 3856 C 362.683 -2.11635 5.73284 0
M  V30 3857 C 363.681 -1.70725 6.61318 0
M  V30 3858 O 363.369 -1.42057 7.91249 0
M  V30 3859 H 363.101 -0.423297 0.527063 0
M  V30 3860 H 365.655 -0.715188 1.92547 0
M  V30 3861 H 363.885 -3.26571 2.07095 0
M  V30 3862 H 365.574 -3.20868 2.48593 0
M  V30 3863 H 366.34 -1.77481 4.5136 0
M  V30 3864 H 362.219 -2.71463 3.72598 0
M  V30 3865 H 365.763 -1.26704 6.85997 0
M  V30 3866 H 361.66 -2.21124 6.06444 0
M  V30 3867 H 362.428 -1.55901 8.03515 0
M  V30 3868 N 365.091 -1.34144 -0.827227 0
M  V30 3869 C 366.054 -1.25264 -1.91942 0
M  V30 3870 C 367.054 -0.168866 -1.59911 0
M  V30 3871 O 368.244 -0.421198 -1.69031 0
M  V30 3872 C 365.376 -0.932952 -3.27885 0
M  V30 3873 H 366.569 -2.22357 -2.0124 0
M  V30 3874 H 364.122 -1.1837 -1.0207 0
M  V30 3875 H 364.857 0.0349917 -3.24281 0
M  V30 3876 H 364.642 -1.71682 -3.52516 0
M  V30 3877 H 366.132 -0.895874 -4.07877 0
M  V30 3878 N 366.569 1.04691 -1.17803 0
M  V30 3879 C 367.797 1.81446 -0.99423 0
M  V30 3880 C 368.212 1.83174 0.457459 0
M  V30 3881 O 367.569 1.26265 1.31771 0
M  V30 3882 C 367.62 3.27334 -1.5341 0
M  V30 3883 O 367.341 3.25798 -2.92895 0
M  V30 3884 C 368.842 4.20759 -1.39559 0
M  V30 3885 H 366.062 0.571599 -0.351447 0
M  V30 3886 H 368.606 1.31982 -1.56208 0
M  V30 3887 H 366.761 3.74052 -1.00815 0
M  V30 3888 H 367.175 4.17144 -3.17949 0
M  V30 3889 H 368.649 5.21084 -1.82141 0
M  V30 3890 H 369.126 4.37856 -0.343394 0
M  V30 3891 H 369.732 3.79901 -1.91195 0
M  V30 3892 N 368.047 0.979072 1.23499 0
M  V30 3893 C 369.294 0.647219 1.91878 0
M  V30 3894 C 369.622 -0.819074 1.76413 0
M  V30 3895 O 368.877 -1.60616 1.11808 0
M  V30 3896 C 369.176 0.981932 3.43646 0
M  V30 3897 C 368.842 2.43822 3.79291 0
M  V30 3898 C 367.504 2.83622 3.88731 0
M  V30 3899 C 369.856 3.3828 3.96505 0
M  V30 3900 C 367.184 4.16897 4.12812 0
M  V30 3901 C 369.536 4.71197 4.22085 0
M  V30 3902 C 368.2 5.10758 4.29747 0
M  V30 3903 H 367.47 0.236834 0.702133 0
M  V30 3904 H 370.117 1.23268 1.46551 0
M  V30 3905 H 368.422 0.314365 3.90537 0
M  V30 3906 H 370.119 0.703395 3.94783 0
M  V30 3907 H 366.709 2.11966 3.72516 0
M  V30 3908 H 370.893 3.0871 3.88603 0
M  V30 3909 H 366.149 4.47157 4.16966 0
M  V30 3910 H 370.323 5.44348 4.34348 0
M  V30 3911 H 367.95 6.1405 4.48159 0
M  V30 3912 N 369.525 -1.3858 0.750561 0
M  V30 3913 C 370.488 -2.28836 0.129152 0
M  V30 3914 C 371.488 -1.47045 -0.650714 0
M  V30 3915 O 372.678 -1.6753 -0.477428 0
M  V30 3916 C 369.81 -3.30751 -0.825622 0
M  V30 3917 H 371.003 -2.85294 0.924516 0
M  V30 3918 H 368.556 -1.47489 0.517376 0
M  V30 3919 H 369.291 -2.79378 -1.64677 0
M  V30 3920 H 369.076 -3.91177 -0.268852 0
M  V30 3921 H 370.566 -3.98249 -1.2565 0
M  V30 3922 N 371.003 -0.499398 -1.49478 0
M  V30 3923 C 371.933 0.269244 -2.31943 0
M  V30 3924 C 372.914 0.964054 -1.40143 0
M  V30 3925 O 374.099 0.955767 -1.69052 0
M  V30 3926 C 371.229 1.33504 -3.20615 0
M  V30 3927 C 370.183 0.760202 -4.21195 0
M  V30 3928 C 369.509 1.9264 -4.98792 0
M  V30 3929 C 370.809 -0.247661 -5.21712 0
M  V30 3930 H 372.503 -0.419082 -2.96452 0
M  V30 3931 H 370.049 -0.202988 -1.42562 0
M  V30 3932 H 372.002 1.88048 -3.77115 0
M  V30 3933 H 370.726 2.05253 -2.54045 0
M  V30 3934 H 369.385 0.23653 -3.65836 0
M  V30 3935 H 369.033 2.63154 -4.28671 0
M  V30 3936 H 368.733 1.54785 -5.66847 0
M  V30 3937 H 370.257 2.4762 -5.58137 0
M  V30 3938 H 371.671 0.209579 -5.72917 0
M  V30 3939 H 370.068 -0.541962 -5.97648 0
M  V30 3940 H 371.138 -1.16409 -4.7072 0
M  V30 3941 N 372.481 1.55866 -0.233164 0
M  V30 3942 C 373.414 2.16794 0.712442 0
M  V30 3943 C 374.392 1.1158 1.18273 0
M  V30 3944 O 375.576 1.39897 1.26337 0
M  V30 3945 C 372.703 2.75757 1.96661 0
M  V30 3946 C 371.749 3.93902 1.63533 0
M  V30 3947 S 372.582 5.30223 0.74995 0
M  V30 3948 C 373.738 5.92631 2.01343 0
M  V30 3949 H 373.971 2.96662 0.194617 0
M  V30 3950 H 371.504 1.5439 -0.0177425 0
M  V30 3951 H 373.462 3.10367 2.68668 0
M  V30 3952 H 372.123 1.9586 2.45556 0
M  V30 3953 H 371.316 4.33702 2.56747 0
M  V30 3954 H 370.918 3.60499 0.995804 0
M  V30 3955 H 373.21 6.09312 2.96219 0
M  V30 3956 H 374.153 6.88388 1.65915 0
M  V30 3957 H 374.561 5.21571 2.15925 0
M  V30 3958 N 373.959 -0.0401083 1.57549 0
M  V30 3959 C 374.892 -1.07689 2.01192 0
M  V30 3960 C 375.87 -1.358 0.894273 0
M  V30 3961 O 377.054 -1.48642 1.15921 0
M  V30 3962 C 374.181 -2.41418 2.3756 0
M  V30 3963 C 373.227 -2.29237 3.59656 0
M  V30 3964 S 374.06 -1.65628 5.09242 0
M  V30 3965 C 375.216 -3.0087 5.48843 0
M  V30 3966 H 375.449 -0.705108 2.88817 0
M  V30 3967 H 372.982 -0.249724 1.52367 0
M  V30 3968 H 374.94 -3.18329 2.59186 0
M  V30 3969 H 373.601 -2.75747 1.50407 0
M  V30 3970 H 372.794 -3.27932 3.82722 0
M  V30 3971 H 372.396 -1.60469 3.37825 0
M  V30 3972 H 374.688 -3.97201 5.48851 0
M  V30 3973 H 375.631 -2.82549 6.49286 0
M  V30 3974 H 376.039 -3.02934 4.76331 0
M  V30 3975 N 375.437 -1.54477 -0.31217 0
M  V30 3976 C 376.662 -1.77526 -1.07235 0
M  V30 3977 C 377.087 -0.527775 -1.80544 0
M  V30 3978 O 376.445 0.52121 -1.73646 0
M  V30 3979 C 376.493 -2.97535 -2.03728 0
M  V30 3980 O 375.597 -2.69878 -3.11833 0
M  V30 3981 H 374.938 -0.58792 -0.30862 0
M  V30 3982 H 377.468 -2.01532 -0.352993 0
M  V30 3983 H 377.478 -3.25198 -2.46395 0
M  V30 3984 H 376.153 -3.87996 -1.49774 0
M  V30 3985 H 374.73 -2.53199 -2.7376 0
M  V30 3986 N 376.915 0.57481 -1.46744 0
M  V30 3987 C 378.164 1.32898 -1.51727 0
M  V30 3988 C 378.477 1.948 -0.176692 0
M  V30 3989 O 379.683 2.71299 -0.104385 0
M  V30 3990 C 378.139 2.40901 -2.67385 0
M  V30 3991 C 377.747 1.85266 -4.07898 0
M  V30 3992 C 379.491 3.17609 -2.81646 0
M  V30 3993 C 377.398 2.90945 -5.14883 0
M  V30 3994 H 376.328 0.499631 -0.564699 0
M  V30 3995 H 378.979 0.612536 -1.72975 0
M  V30 3996 H 377.361 3.15379 -2.39483 0
M  V30 3997 H 378.535 1.17278 -4.45626 0
M  V30 3998 H 376.85 1.21199 -3.98371 0
M  V30 3999 H 379.447 3.96493 -3.58744 0
M  V30 4000 H 379.79 3.70696 -1.89448 0
M  V30 4001 H 380.323 2.50239 -3.09233 0
M  V30 4002 H 377.062 2.42736 -6.089 0
M  V30 4003 H 376.582 3.57398 -4.81691 0
M  V30 4004 H 378.261 3.54755 -5.41071 0
M  V30 4005 N 378.394 1.34581 0.820102 0
M  V30 4006 C 379.619 1.30333 1.61332 0
M  V30 4007 C 380.044 -0.119339 1.87721 0
M  V30 4008 O 379.402 -1.08197 1.45475 0
M  V30 4009 C 379.45 2.10258 2.92957 0
M  V30 4010 O 378.554 1.47404 3.85157 0
M  V30 4011 H 377.895 0.447488 0.490561 0
M  V30 4012 H 380.425 1.77425 1.01889 0
M  V30 4013 H 380.435 2.21718 3.42498 0
M  V30 4014 H 379.11 3.13693 2.73074 0
M  V30 4015 H 377.687 1.44703 3.43679 0
M  V30 4016 N 379.872 -1.04064 1.18357 0
M  V30 4017 C 381.149 -1.74252 0.888581 0
M  V30 4018 C 381.529 -2.02138 -0.60856 0
M  V30 4019 O 380.877 -1.66656 -1.56327 0
M  V30 4020 C 381.087 -3.0277 1.73584 0
M  V30 4021 C 382.435 -3.76506 1.96286 0
M  V30 4022 O 383.459 -3.12668 1.70637 0
M  V30 4023 O 382.318 -4.91243 2.39464 0
M  V30 4024 H 379.412 -0.758271 0.330082 0
M  V30 4025 H 381.958 -1.1013 1.2911 0
M  V30 4026 H 380.73 -2.78299 2.75073 0
M  V30 4027 H 380.353 -3.74631 1.33183 0
M  V30 4028 N 381.35 -0.985608 -1.22978 0
M  V30 4029 C 382.575 -0.675254 -1.961 0
M  V30 4030 C 383 0.752154 -1.72407 0
M  V30 4031 O 382.358 1.5131 -0.998751 0
M  V30 4032 C 382.406 -0.977899 -3.47087 0
M  V30 4033 O 381.51 -0.072685 -4.12336 0
M  V30 4034 H 380.851 -0.253443 -0.613728 0
M  V30 4035 H 383.381 -1.32061 -1.56272 0
M  V30 4036 H 383.391 -0.916739 -3.97567 0
M  V30 4037 H 382.066 -2.01807 -3.63657 0
M  V30 4038 H 380.643 -0.188703 -3.72422 0
M  V30 4039 N 382.828 1.3818 -0.7579 0
M  V30 4040 C 383.758 2.33027 -0.148597 0
M  V30 4041 C 384.739 1.55085 0.69875 0
M  V30 4042 O 385.924 1.83384 0.639053 0
M  V30 4043 C 383.054 3.3928 0.742034 0
M  V30 4044 C 382.008 4.28 -0.00291946 0
M  V30 4045 C 381.334 5.25146 1.00625 0
M  V30 4046 C 382.634 5.08938 -1.17385 0
M  V30 4047 H 384.328 2.84231 -0.940909 0
M  V30 4048 H 381.874 1.36659 -0.453908 0
M  V30 4049 H 383.827 4.046 1.17799 0
M  V30 4050 H 382.551 2.86569 1.56671 0
M  V30 4051 H 381.21 3.64192 -0.419504 0
M  V30 4052 H 380.858 4.68721 1.8251 0
M  V30 4053 H 380.558 5.85361 0.512428 0
M  V30 4054 H 382.082 5.93342 1.44143 0
M  V30 4055 H 383.496 5.67474 -0.815224 0
M  V30 4056 H 381.893 5.7841 -1.59882 0
M  V30 4057 H 382.963 4.42424 -1.98468 0
M  V30 4058 N 384.306 0.507319 1.49211 0
M  V30 4059 C 385.554 -0.0348839 2.0207 0
M  V30 4060 C 385.875 -1.36898 1.38866 0
M  V30 4061 O 385.145 -1.88133 0.546151 0
M  V30 4062 H 383.725 -0.0158812 0.746831 0
M  V30 4063 H 386.387 0.665998 1.83168 0
M  V30 4064 H 385.483 -0.159917 3.1169 0
M  V30 4065 N 385.784 -1.5574 0.241426 0
M  V30 4066 C 387.012 -2.03208 -0.389134 0
M  V30 4067 C 387.427 -1.12082 -1.51931 0
M  V30 4068 O 386.784 -0.134183 -1.82006 0
M  V30 4069 C 386.835 -3.50064 -0.902087 0
M  V30 4070 O 386.556 -4.37717 0.18305 0
M  V30 4071 C 388.057 -4.13268 -1.60389 0
M  V30 4072 H 385.277 -0.664509 -0.0931053 0
M  V30 4073 H 387.821 -2.0124 0.36369 0
M  V30 4074 H 385.976 -3.52583 -1.60511 0
M  V30 4075 H 386.39 -5.24097 -0.205579 0
M  V30 4076 H 387.864 -5.17733 -1.91458 0
M  V30 4077 H 388.341 -3.59434 -2.52397 0
M  V30 4078 H 388.947 -4.14655 -0.945576 0
M  V30 4079 N 387.262 0.0317525 -1.57568 0
M  V30 4080 C 388.21 1.05165 -2.07468 0
M  V30 4081 C 389.204 1.3761 -0.98792 0
M  V30 4082 O 390.41 1.36546 -1.17282 0
M  V30 4083 H 386.785 0.35666 -0.66204 0
M  V30 4084 H 388.756 0.604958 -2.92203 0
M  V30 4085 C 387.505 2.34488 -2.56731 0
M  V30 4086 H 386.828 2.10383 -3.39969 0
M  V30 4087 H 388.268 3.04203 -2.95358 0
M  V30 4088 C 386.727 3.03266 -1.46736 0
M  V30 4089 O 387.257 3.92988 -0.832069 0
M  V30 4090 N 385.463 2.6455 -1.20256 0
M  V30 4091 H 385.01 1.91674 -1.72102 0
M  V30 4092 H 384.968 3.10886 -0.468737 0
M  V30 4093 N 388.74 1.54641 0.303973 0
M  V30 4094 C 389.98 1.75516 1.04755 0
M  V30 4095 C 390.344 0.528211 1.84591 0
M  V30 4096 O 391.545 0.614645 2.61678 0
M  V30 4097 C 389.816 3.00685 1.93193 0
M  V30 4098 S 391.375 3.42549 2.74237 0
M  V30 4099 H 388.193 0.616987 0.353339 0
M  V30 4100 H 390.795 1.92842 0.321292 0
M  V30 4101 H 389.499 3.8811 1.33411 0
M  V30 4102 H 389.03 2.85937 2.70191 0
M  V30 4103 H 391.045 2.99386 3.95705 0
M  V30 4104 N 390.218 -0.567019 1.47046 0
M  V30 4105 C 391.446 -1.35027 1.56765 0
M  V30 4106 C 391.861 -1.8758 0.214316 0
M  V30 4107 O 391.218 -1.64471 -0.790919 0
M  V30 4108 C 391.269 -2.52698 2.58507 0
M  V30 4109 O 390.99 -2.0232 3.88585 0
M  V30 4110 C 392.491 -3.45043 2.78316 0
M  V30 4111 H 389.711 -0.41195 0.529658 0
M  V30 4112 H 392.255 -0.687832 1.92585 0
M  V30 4113 H 390.41 -3.149 2.25648 0
M  V30 4114 H 390.824 -2.79068 4.44096 0
M  V30 4115 H 392.298 -4.2405 3.53391 0
M  V30 4116 H 392.775 -3.97971 1.85784 0
M  V30 4117 H 393.381 -2.88665 3.12334 0
M  V30 4118 N 391.696 -1.35014 -0.812953 0
M  V30 4119 C 392.943 -1.27931 -1.56971 0
M  V30 4120 C 393.271 0.148034 -1.93936 0
M  V30 4121 O 392.526 1.11175 -1.61054 0
M  V30 4122 C 392.825 -2.12524 -2.87347 0
M  V30 4123 C 392.491 -3.61401 -2.6963 0
M  V30 4124 C 391.153 -4.01983 -2.64506 0
M  V30 4125 C 393.505 -4.55894 -2.52607 0
M  V30 4126 C 390.833 -5.35235 -2.40293 0
M  V30 4127 C 393.185 -5.89336 -2.29925 0
M  V30 4128 C 391.849 -6.2907 -2.23219 0
M  V30 4129 H 391.119 -0.468131 -0.574399 0
M  V30 4130 H 393.766 -1.66851 -0.939836 0
M  V30 4131 H 392.071 -1.66463 -3.54679 0
M  V30 4132 H 393.768 -2.04383 -3.45005 0
M  V30 4133 H 390.358 -3.29193 -2.74463 0
M  V30 4134 H 394.542 -4.25431 -2.55583 0
M  V30 4135 H 389.798 -5.65028 -2.33566 0
M  V30 4136 H 393.972 -6.62139 -2.15743 0
M  V30 4137 H 391.599 -7.32256 -2.04219 0
M  V30 4138 N 393.175 1.03435 -1.18907 0
M  V30 4139 C 394.415 1.78302 -0.999391 0
M  V30 4140 C 394.779 1.86353 0.462219 0
M  V30 4141 O 395.98 2.57489 0.771543 0
M  V30 4142 C 394.251 3.17362 -1.64365 0
M  V30 4143 S 395.81 4.08488 -1.6026 0
M  V30 4144 H 392.628 0.613861 -0.358742 0
M  V30 4145 H 395.23 1.23979 -1.51161 0
M  V30 4146 H 393.934 3.09116 -2.69955 0
M  V30 4147 H 393.465 3.76762 -1.13199 0
M  V30 4148 H 395.48 4.92274 -0.622932 0
M  V30 4149 N 394.653 0.992116 1.22453 0
M  V30 4150 C 395.603 0.512969 2.22155 0
M  V30 4151 C 396.587 -0.418416 1.55364 0
M  V30 4152 O 397.779 -0.245363 1.75291 0
M  V30 4153 C 394.908 -0.171822 3.4287 0
M  V30 4154 C 393.994 0.779822 4.16869 0
M  V30 4155 N 394.385 1.92734 4.6764 0
M  V30 4156 C 392.683 0.59554 4.42006 0
M  V30 4157 C 393.384 2.52458 5.24061 0
M  V30 4158 N 392.36 1.80735 5.12675 0
M  V30 4159 H 396.162 1.38817 2.5905 0
M  V30 4160 H 393.676 0.854277 1.38115 0
M  V30 4161 H 395.673 -0.532469 4.13486 0
M  V30 4162 H 394.333 -1.04317 3.07487 0
M  V30 4163 H 395.344 2.30816 4.63621 0
M  V30 4164 H 392.021 -0.229805 4.16867 0
M  V30 4165 H 393.411 3.49433 5.73887 0
M  V30 4166 N 396.131 -1.37776 0.765217 0
M  V30 4167 C 397.079 -2.32209 0.134798 0
M  V30 4168 C 398.073 -1.54607 -0.692315 0
M  V30 4169 O 399.279 -1.70052 -0.590109 0
M  V30 4170 H 395.654 -0.751591 0.0248005 0
M  V30 4171 H 397.625 -2.8297 0.947119 0
M  V30 4172 C 396.374 -3.39841 -0.735063 0
M  V30 4173 H 395.697 -3.99654 -0.107991 0
M  V30 4174 H 397.137 -4.08296 -1.14326 0
M  V30 4175 C 395.596 -2.79378 -1.88281 0
M  V30 4176 O 396.126 -2.69608 -2.97783 0
M  V30 4177 N 394.332 -2.37016 -1.68142 0
M  V30 4178 H 393.879 -2.45162 -0.790772 0
M  V30 4179 H 393.837 -1.96905 -2.45104 0
M  V30 4180 N 397.609 -0.515225 -1.4894 0
M  V30 4181 C 398.572 0.244681 -2.2789 0
M  V30 4182 C 399.572 0.881166 -1.34507 0
M  V30 4183 O 400.762 0.743497 -1.57537 0
M  V30 4184 C 397.894 1.35247 -3.12923 0
M  V30 4185 H 399.087 -0.448289 -2.96531 0
M  V30 4186 H 396.64 -0.270656 -1.53939 0
M  V30 4187 H 397.375 2.07916 -2.48881 0
M  V30 4188 H 397.16 0.901374 -3.81599 0
M  V30 4189 H 398.65 1.88737 -3.72516 0
M  V30 4190 N 399.087 1.5561 -0.249682 0
M  V30 4191 C 400.019 2.18834 0.681496 0
M  V30 4192 C 401.032 1.16546 1.1367 0
M  V30 4193 O 402.221 1.43397 1.06299 0
M  V30 4194 C 399.321 2.77992 1.9384 0
M  V30 4195 C 398.494 4.05725 1.63419 0
M  V30 4196 C 397.553 4.49174 2.74096 0
M  V30 4197 O 396.579 5.15492 2.41364 0
M  V30 4198 N 397.781 4.17191 4.03649 0
M  V30 4199 H 400.546 2.9937 0.140514 0
M  V30 4200 H 398.107 1.6175 -0.0697541 0
M  V30 4201 H 400.099 3.04015 2.67127 0
M  V30 4202 H 398.669 2.01596 2.38909 0
M  V30 4203 H 397.889 3.87261 0.736358 0
M  V30 4204 H 399.177 4.88999 1.40562 0
M  V30 4205 H 398.575 3.63955 4.33074 0
M  V30 4206 H 397.132 4.48043 4.73393 0
M  V30 4207 N 400.565 -0.0233959 1.57583 0
M  V30 4208 C 401.793 -0.724682 1.93794 0
M  V30 4209 C 402.208 -1.68588 0.849912 0
M  V30 4210 O 401.565 -1.81676 -0.173204 0
M  V30 4211 C 401.616 -1.47684 3.29957 0
M  V30 4212 O 401.337 -0.554222 4.3458 0
M  V30 4213 C 402.838 -2.27477 3.80485 0
M  V30 4214 H 400.058 -0.203317 0.639455 0
M  V30 4215 H 402.602 0.0207653 2.04489 0
M  V30 4216 H 400.757 -2.17412 3.20641 0
M  V30 4217 H 401.171 -1.08232 5.13212 0
M  V30 4218 H 402.645 -2.7564 4.78254 0
M  V30 4219 H 403.122 -3.09144 3.11972 0
M  V30 4220 H 403.728 -1.62813 3.92902 0
M  V30 4221 N 402.043 -1.548 -0.295768 0
M  V30 4222 C 403.29 -1.74329 -1.03032 0
M  V30 4223 C 403.618 -0.531915 -1.87085 0
M  V30 4224 O 402.873 0.486052 -1.89568 0
M  V30 4225 C 403.172 -2.98797 -1.961 0
M  V30 4226 C 402.838 -4.32356 -1.2798 0
M  V30 4227 C 401.5 -4.68661 -1.09135 0
M  V30 4228 C 403.852 -5.15128 -0.793243 0
M  V30 4229 C 401.18 -5.85312 -0.403269 0
M  V30 4230 C 403.532 -6.32488 -0.118854 0
M  V30 4231 C 402.196 -6.6745 0.0815043 0
M  V30 4232 H 401.466 -0.637916 -0.37702 0
M  V30 4233 H 404.113 -1.8906 -0.304696 0
M  V30 4234 H 402.418 -2.78869 -2.75207 0
M  V30 4235 H 404.115 -3.11102 -2.53015 0
M  V30 4236 H 400.705 -4.03808 -1.43655 0
M  V30 4237 H 404.889 -4.87575 -0.92653 0
M  V30 4238 H 400.145 -6.1094 -0.237098 0
M  V30 4239 H 404.319 -6.95892 0.266035 0
M  V30 4240 H 401.946 -7.57695 0.616685 0
M  V30 4241 N 403.521 0.559213 -1.47345 0
M  V30 4242 C 404.431 1.69388 -1.62311 0
M  V30 4243 C 405.447 1.6648 -0.505993 0
M  V30 4244 O 406.623 1.85964 -0.773262 0
M  V30 4245 C 403.688 3.05894 -1.63185 0
M  V30 4246 C 402.749 3.19885 -2.86307 0
M  V30 4247 C 401.982 4.49879 -2.87131 0
M  V30 4248 O 402.205 5.35217 -1.97229 0
M  V30 4249 O 401.139 4.67618 -3.78968 0
M  V30 4250 H 404.965 1.59706 -2.58317 0
M  V30 4251 H 402.55 0.728989 -1.30407 0
M  V30 4252 H 404.432 3.87133 -1.66451 0
M  V30 4253 H 403.107 3.15964 -0.70345 0
M  V30 4254 H 402.014 2.38052 -2.88587 0
M  V30 4255 H 403.347 3.14718 -3.78435 0
M  V30 4256 N 404.999 1.35443 0.805782 0
M  V30 4257 C 406.224 1.32037 1.59941 0
M  V30 4258 C 406.649 -0.0994215 1.87837 0
M  V30 4259 O 406.007 -1.06648 1.46615 0
M  V30 4260 C 406.055 2.13354 2.90711 0
M  V30 4261 O 405.159 1.5148 3.83572 0
M  V30 4262 H 404.5 0.452666 0.485787 0
M  V30 4263 H 407.03 1.78496 1.00002 0
M  V30 4264 H 407.04 2.25338 3.40128 0
M  V30 4265 H 405.715 3.16572 2.69732 0
M  V30 4266 H 404.292 1.4834 3.42125 0
M  V30 4267 N 406.477 -1.02803 1.19454 0
M  V30 4268 C 407.723 -1.76598 1.0092 0
M  V30 4269 C 408.078 -1.86939 -0.455142 0
M  V30 4270 O 407.371 -1.37575 -1.33355 0
M  V30 4271 C 407.565 -3.18941 1.6128 0
M  V30 4272 C 407.394 -3.22476 3.13431 0
M  V30 4273 C 406.164 -3.30375 3.82336 0
M  V30 4274 C 408.362 -3.09451 4.10785 0
M  V30 4275 N 406.344 -3.23292 5.21877 0
M  V30 4276 C 407.715 -3.10012 5.36929 0
M  V30 4277 C 409.77 -2.93585 4.02135 0
M  V30 4278 C 408.473 -2.96334 6.55423 0
M  V30 4279 C 410.499 -2.81256 5.20239 0
M  V30 4280 C 409.861 -2.82472 6.45282 0
M  V30 4281 H 405.96 -0.657447 0.423424 0
M  V30 4282 H 408.544 -1.22369 1.5144 0
M  V30 4283 H 406.715 -3.71489 1.1336 0
M  V30 4284 H 408.447 -3.81102 1.36173 0
M  V30 4285 H 405.202 -3.3663 3.33132 0
M  V30 4286 H 405.626 -3.23156 5.94894 0
M  V30 4287 H 410.268 -2.91466 3.0628 0
M  V30 4288 H 407.986 -2.97203 7.51463 0
M  V30 4289 H 411.572 -2.70014 5.15348 0
M  V30 4290 H 410.452 -2.73036 7.35133 0
M  V30 4291 N 407.956 -0.998596 -1.21925 0
M  V30 4292 C 409.204 -0.676325 -1.90448 0
M  V30 4293 C 409.525 0.794719 -1.78071 0
M  V30 4294 O 408.795 1.5701 -1.17152 0
M  V30 4295 H 407.375 -0.247165 -0.704925 0
M  V30 4296 H 410.037 -1.26633 -1.48156 0
M  V30 4297 H 409.133 -0.943858 -2.97486 0
M  V30 4298 N 409.434 1.37368 -0.772513 0
M  V30 4299 C 410.381 2.30262 -0.157488 0
M  V30 4300 C 411.351 1.51137 0.688965 0
M  V30 4301 O 412.536 1.79704 0.641168 0
M  V30 4302 C 409.676 3.37611 0.715045 0
M  V30 4303 C 408.789 4.31746 -0.148098 0
M  V30 4304 C 407.924 5.26171 0.729213 0
M  V30 4305 C 406.963 6.11948 -0.136418 0
M  V30 4306 N 406.1 6.98613 0.698914 0
M  V30 4307 H 410.94 2.82277 -0.955179 0
M  V30 4308 H 408.477 1.38957 -0.482631 0
M  V30 4309 H 410.435 3.98479 1.23575 0
M  V30 4310 H 409.065 2.86959 1.47833 0
M  V30 4311 H 408.117 3.72178 -0.786613 0
M  V30 4312 H 409.429 4.92084 -0.81579 0
M  V30 4313 H 408.583 5.92247 1.31637 0
M  V30 4314 H 407.322 4.66246 1.43059 0
M  V30 4315 H 406.327 5.4485 -0.736102 0
M  V30 4316 H 407.552 6.73945 -0.835134 0
M  V30 4317 H 405.498 6.41215 1.38489 0
M  V30 4318 H 405.415 7.55948 0.0885358 0
M  V30 4319 H 406.683 7.69077 1.27044 0
M  V30 4320 N 410.912 0.523116 1.48665 0
M  V30 4321 C 411.859 -0.243398 2.29513 0
M  V30 4322 C 412.829 -0.940139 1.36933 0
M  V30 4323 O 414.014 -0.942503 1.65896 0
M  V30 4324 C 411.154 -1.28855 3.20141 0
M  V30 4325 C 410.267 -0.60135 4.27794 0
M  V30 4326 C 409.402 -1.62884 5.05611 0
M  V30 4327 C 408.441 -0.924726 6.05075 0
M  V30 4328 N 407.578 -1.89744 6.75975 0
M  V30 4329 H 412.418 0.452234 2.94549 0
M  V30 4330 H 409.955 0.234858 1.45213 0
M  V30 4331 H 411.913 -1.90674 3.71079 0
M  V30 4332 H 410.543 -1.95266 2.57043 0
M  V30 4333 H 409.595 0.130623 3.80176 0
M  V30 4334 H 410.907 -0.0481585 4.98777 0
M  V30 4335 H 410.061 -2.32149 5.60528 0
M  V30 4336 H 408.8 -2.21592 4.34452 0
M  V30 4337 H 407.805 -0.217966 5.49368 0
M  V30 4338 H 409.03 -0.343851 6.78229 0
M  V30 4339 H 406.976 -2.47373 6.07571 0
M  V30 4340 H 406.893 -1.3955 7.43009 0
M  V30 4341 H 408.161 -2.58229 7.35485 0
M  V30 4342 N 412.39 -1.55475 0.257931 0
M  V30 4343 C 413.615 -2.04064 -0.370488 0
M  V30 4344 C 414.04 -1.13565 -1.49948 0
M  V30 4345 O 413.398 -0.130781 -1.80828 0
M  V30 4346 C 413.446 -3.50554 -0.845237 0
M  V30 4347 O 412.55 -3.63173 -1.95394 0
M  V30 4348 H 411.891 -0.659257 -0.0792243 0
M  V30 4349 H 414.421 -2.00903 0.387212 0
M  V30 4350 H 414.431 -3.91588 -1.14555 0
M  V30 4351 H 413.106 -4.15896 -0.0191259 0
M  V30 4352 H 411.683 -3.34039 -1.65748 0
M  V30 4353 N 413.868 0.0150385 -1.57593 0
M  V30 4354 C 415.096 0.714395 -1.94175 0
M  V30 4355 C 415.511 1.68135 -0.858841 0
M  V30 4356 O 414.868 1.81766 0.163567 0
M  V30 4357 C 414.919 1.45933 -3.30735 0
M  V30 4358 O 414.64 0.531167 -4.34868 0
M  V30 4359 C 416.141 2.25456 -3.81686 0
M  V30 4360 H 413.361 0.199923 -0.640525 0
M  V30 4361 H 415.905 -0.0316096 -2.04476 0
M  V30 4362 H 414.06 2.15709 -3.21789 0
M  V30 4363 H 414.474 1.05509 -5.13778 0
M  V30 4364 H 415.948 2.731 -4.79709 0
M  V30 4365 H 416.425 3.07485 -3.13607 0
M  V30 4366 H 417.031 1.60727 -3.9376 0
M  V30 4367 N 415.346 1.54954 0.287554 0
M  V30 4368 C 416.757 1.65732 0.859634 0
M  V30 4369 C 417.108 0.574767 1.87592 0
M  V30 4370 O 416.233 -0.286299 2.14498 0
M  V30 4371 C 416.828 3.00438 1.56597 0
M  V30 4372 C 415.387 3.13292 2.08627 0
M  V30 4373 C 414.534 2.61473 0.923416 0
M  V30 4374 H 417.485 1.5857 0.0642338 0
M  V30 4375 H 417.506 2.92613 2.43224 0
M  V30 4376 H 417.018 3.79207 0.826053 0
M  V30 4377 H 415.119 2.39268 2.85625 0
M  V30 4378 H 415.232 4.19647 2.31157 0
M  V30 4379 H 413.596 2.18264 1.31275 0
M  V30 4380 H 414.379 3.42733 0.197241 0
M  V30 4381 N 416.824 -0.551391 1.4764 0
M  V30 4382 C 417.756 -1.67333 1.56628 0
M  V30 4383 C 418.769 -1.56398 0.452045 0
M  V30 4384 O 419.958 -1.6325 0.721926 0
M  V30 4385 C 417.058 -3.05841 1.45994 0
M  V30 4386 C 416.231 -3.42472 2.72088 0
M  V30 4387 C 415.29 -4.60168 2.55209 0
M  V30 4388 O 414.316 -4.64458 3.2904 0
M  V30 4389 N 415.518 -5.57024 1.63416 0
M  V30 4390 H 418.283 -1.60066 2.53375 0
M  V30 4391 H 415.844 -0.738169 1.44093 0
M  V30 4392 H 417.836 -3.8242 1.32428 0
M  V30 4393 H 416.406 -3.07302 0.573071 0
M  V30 4394 H 415.626 -2.55284 3.00373 0
M  V30 4395 H 416.914 -3.63723 3.55785 0
M  V30 4396 H 416.312 -5.56319 1.02594 0
M  V30 4397 H 414.869 -6.32906 1.558 0
M  V30 4398 N 418.302 -1.35869 -0.798587 0
M  V30 4399 C 419.718 -1.16082 -1.09532 0
M  V30 4400 C 419.918 0.0213124 -2.01489 0
M  V30 4401 O 418.974 0.689488 -2.42904 0
M  V30 4402 C 420.287 -2.46748 -1.7186 0
M  V30 4403 C 421.835 -2.53028 -1.84244 0
M  V30 4404 C 422.31 -3.83758 -2.49988 0
M  V30 4405 N 423.801 -3.85053 -2.57465 0
M  V30 4406 C 424.536 -4.8294 -3.09122 0
M  V30 4407 N 424.032 -5.91217 -3.61157 0
M  V30 4408 N 425.825 -4.70369 -3.0775 0
M  V30 4409 H 417.976 -2.11571 -0.187461 0
M  V30 4410 H 420.239 -0.936726 -0.145765 0
M  V30 4411 H 419.945 -3.33471 -1.11759 0
M  V30 4412 H 419.819 -2.61883 -2.71472 0
M  V30 4413 H 422.206 -1.66729 -2.43486 0
M  V30 4414 H 422.287 -2.418 -0.834643 0
M  V30 4415 H 421.931 -4.70459 -1.91393 0
M  V30 4416 H 421.861 -3.92278 -3.5132 0
M  V30 4417 H 424.352 -3.06822 -2.20609 0
M  V30 4418 H 424.665 -6.61892 -3.98896 0
M  V30 4419 H 423.01 -5.94899 -3.59333 0
M  V30 4420 H 426.201 -3.84914 -2.66381 0
M  V30 4421 H 426.374 -5.46816 -3.47701 0
M  V30 4422 N 419.78 1.02168 -1.19998 0
M  V30 4423 C 420.743 2.08765 -0.94604 0
M  V30 4424 C 421.743 1.60618 0.0763846 0
M  V30 4425 O 422.933 1.73472 -0.159135 0
M  V30 4426 C 420.065 3.38262 -0.423255 0
M  V30 4427 H 421.258 2.32726 -1.89153 0
M  V30 4428 H 418.811 1.1889 -1.01464 0
M  V30 4429 H 419.546 3.19974 0.527938 0
M  V30 4430 H 419.331 3.74532 -1.16053 0
M  V30 4431 H 420.821 4.16759 -0.264911 0
M  V30 4432 N 421.258 1.00505 1.21394 0
M  V30 4433 C 422.507 0.683159 1.89778 0
M  V30 4434 C 422.82 -0.789471 1.7896 0
M  V30 4435 O 424.026 -1.22344 2.42372 0
M  V30 4436 C 422.482 1.17146 3.40301 0
M  V30 4437 C 422.09 2.67017 3.5973 0
M  V30 4438 C 423.834 0.924461 4.14311 0
M  V30 4439 C 421.741 3.09387 5.04017 0
M  V30 4440 H 420.671 0.25183 0.710702 0
M  V30 4441 H 423.322 1.21622 1.37406 0
M  V30 4442 H 421.704 0.566451 3.91928 0
M  V30 4443 H 422.878 3.32968 3.18542 0
M  V30 4444 H 421.193 2.89732 2.99073 0
M  V30 4445 H 423.79 1.21658 5.20676 0
M  V30 4446 H 424.133 -0.139286 4.16067 0
M  V30 4447 H 424.666 1.49226 3.6875 0
M  V30 4448 H 421.405 4.14989 5.07409 0
M  V30 4449 H 420.925 2.48149 5.46061 0
M  V30 4450 H 422.604 3.01371 5.72525 0
M  V30 4451 N 422.737 -1.36956 0.779787 0
M  V30 4452 C 423.7 -2.2851 0.177662 0
M  V30 4453 C 424.7 -1.48393 -0.619377 0
M  V30 4454 O 425.89 -1.68505 -0.441785 0
M  V30 4455 C 423.022 -3.32428 -0.755279 0
M  V30 4456 H 424.215 -2.83269 0.984823 0
M  V30 4457 H 421.768 -1.46358 0.548544 0
M  V30 4458 H 422.503 -2.82808 -1.58714 0
M  V30 4459 H 422.288 -3.91659 -0.185817 0
M  V30 4460 H 423.778 -4.00824 -1.17174 0
M  V30 4461 N 424.215 -0.530993 -1.48385 0
M  V30 4462 C 425.461 -0.00538653 -2.03399 0
M  V30 4463 C 425.816 1.31899 -1.40073 0
M  V30 4464 O 425.109 1.83901 -0.537676 0
M  V30 4465 C 425.303 0.172742 -3.56982 0
M  V30 4466 C 425.132 -1.13282 -4.35198 0
M  V30 4467 C 423.902 -1.69296 -4.76096 0
M  V30 4468 C 426.1 -2.04367 -4.71952 0
M  V30 4469 N 424.082 -2.9413 -5.38851 0
M  V30 4470 C 425.453 -3.13777 -5.34737 0
M  V30 4471 C 427.508 -2.04681 -4.53883 0
M  V30 4472 C 426.211 -4.23567 -5.81363 0
M  V30 4473 C 428.237 -3.13466 -5.01491 0
M  V30 4474 C 427.599 -4.21595 -5.64302 0
M  V30 4475 H 423.698 -0.0434945 -0.780789 0
M  V30 4476 H 426.282 -0.712495 -1.81195 0
M  V30 4477 H 424.453 0.848937 -3.79009 0
M  V30 4478 H 426.185 0.698046 -3.98634 0
M  V30 4479 H 422.94 -1.23422 -4.57235 0
M  V30 4480 H 423.364 -3.57689 -5.74794 0
M  V30 4481 H 428.006 -1.22378 -4.04702 0
M  V30 4482 H 425.724 -5.06648 -6.2955 0
M  V30 4483 H 429.31 -3.14765 -4.893 0
M  V30 4484 H 428.19 -5.04384 -6.00472 0
M  V30 4485 N 425.693 1.55336 -0.266172 0
M  V30 4486 C 426.939 2.00423 0.346714 0
M  V30 4487 C 427.294 1.15132 1.54151 0
M  V30 4488 O 426.587 0.211289 1.90431 0
M  V30 4489 C 426.781 3.48606 0.787957 0
M  V30 4490 C 426.61 4.48236 -0.362535 0
M  V30 4491 C 425.38 4.98211 -0.843445 0
M  V30 4492 C 427.578 5.00199 -1.19603 0
M  V30 4493 N 425.56 5.81625 -1.96434 0
M  V30 4494 C 426.931 5.80973 -2.16497 0
M  V30 4495 C 428.986 4.82458 -1.2304 0
M  V30 4496 C 427.689 6.45896 -3.1656 0
M  V30 4497 C 429.715 5.48174 -2.21944 0
M  V30 4498 C 429.077 6.28751 -3.17571 0
M  V30 4499 H 425.176 0.776535 0.0922914 0
M  V30 4500 H 427.76 1.90792 -0.388154 0
M  V30 4501 H 425.931 3.58597 1.49207 0
M  V30 4502 H 427.663 3.80538 1.37742 0
M  V30 4503 H 424.418 4.71696 -0.424271 0
M  V30 4504 H 424.842 6.28025 -2.52813 0
M  V30 4505 H 429.484 4.19774 -0.504903 0
M  V30 4506 H 427.202 7.07734 -3.90048 0
M  V30 4507 H 430.788 5.36392 -2.25333 0
M  V30 4508 H 429.668 6.78703 -3.92851 0
M  V30 4509 N 427.171 -0.0066808 1.57599 0
M  V30 4510 C 428.419 -0.691552 1.899 0
M  V30 4511 C 428.74 -1.74682 0.866672 0
M  V30 4512 O 428.01 -1.95661 -0.0968189 0
M  V30 4513 H 426.59 -0.258416 0.700878 0
M  V30 4514 H 429.252 0.0326655 1.94873 0
M  V30 4515 H 428.348 -1.16702 2.8946 0
M  V30 4516 N 428.649 -1.55105 -0.279332 0
M  V30 4517 C 429.898 -1.74618 -1.00952 0
M  V30 4518 C 430.211 -0.551096 -1.87676 0
M  V30 4519 O 431.417 -0.628507 -2.64125 0
M  V30 4520 C 429.873 -3.09025 -1.84476 0
M  V30 4521 C 429.481 -4.36081 -1.0265 0
M  V30 4522 C 431.225 -3.37891 -2.56963 0
M  V30 4523 C 429.132 -5.6153 -1.85576 0
M  V30 4524 H 428.062 -0.650868 -0.38064 0
M  V30 4525 H 430.713 -1.81569 -0.265475 0
M  V30 4526 H 429.095 -2.96095 -2.62952 0
M  V30 4527 H 430.269 -4.59909 -0.286354 0
M  V30 4528 H 428.584 -4.14312 -0.416464 0
M  V30 4529 H 431.181 -4.28822 -3.19399 0
M  V30 4530 H 431.524 -2.57737 -3.26921 0
M  V30 4531 H 432.057 -3.5189 -1.85522 0
M  V30 4532 H 428.796 -6.44413 -1.2005 0
M  V30 4533 H 428.316 -5.41854 -2.57204 0
M  V30 4534 H 429.995 -5.99594 -2.43096 0
M  V30 4535 N 430.127 0.543554 -1.4793 0
M  V30 4536 C 431.543 0.870806 -1.3375 0
M  V30 4537 C 431.743 1.9864 -0.338261 0
M  V30 4538 O 430.799 2.51305 0.245371 0
M  V30 4539 C 432.112 1.25114 -2.73435 0
M  V30 4540 C 433.66 1.3618 -2.81823 0
M  V30 4541 C 434.135 1.77563 -4.22179 0
M  V30 4542 N 435.626 1.8469 -4.24787 0
M  V30 4543 C 436.361 2.18067 -5.30315 0
M  V30 4544 N 435.857 2.49963 -6.46135 0
M  V30 4545 N 437.65 2.18958 -5.17701 0
M  V30 4546 H 429.801 -0.19275 -2.11524 0
M  V30 4547 H 432.064 -0.0235777 -0.947707 0
M  V30 4548 H 431.77 0.50514 -3.48053 0
M  V30 4549 H 431.644 2.20431 -3.06088 0
M  V30 4550 H 434.031 2.09859 -2.07468 0
M  V30 4551 H 434.112 0.390169 -2.52807 0
M  V30 4552 H 433.756 1.04449 -4.97044 0
M  V30 4553 H 433.686 2.75753 -4.48629 0
M  V30 4554 H 436.177 1.62372 -3.41239 0
M  V30 4555 H 436.49 2.74497 -7.22406 0
M  V30 4556 H 434.835 2.47513 -6.49432 0
M  V30 4557 H 438.026 1.93488 -4.2624 0
M  V30 4558 H 438.199 2.44639 -6.00047 0
M  V30 4559 N 431.605 1.3629 0.791371 0
M  V30 4560 C 432.538 1.24816 1.9104 0
M  V30 4561 C 433.516 0.132739 1.62057 0
M  V30 4562 O 434.7 0.303527 1.8604 0
M  V30 4563 C 431.827 0.925355 3.25814 0
M  V30 4564 C 430.873 2.05495 3.7373 0
M  V30 4565 S 431.706 3.67255 3.89723 0
M  V30 4566 C 432.862 3.37084 5.27376 0
M  V30 4567 H 433.095 2.19533 2.00481 0
M  V30 4568 H 430.628 1.21684 0.950393 0
M  V30 4569 H 432.586 0.745924 4.03666 0
M  V30 4570 H 431.247 -0.00400098 3.141 0
M  V30 4571 H 430.44 1.7836 4.71385 0
M  V30 4572 H 430.042 2.1935 3.02922 0
M  V30 4573 H 432.334 2.90856 6.1189 0
M  V30 4574 H 433.277 4.33995 5.59512 0
M  V30 4575 H 433.685 2.7248 4.94383 0
M  V30 4576 N 433.083 -1.0153 1.20538 0
M  V30 4577 C 434.329 -1.75408 1.01783 0
M  V30 4578 C 434.662 -1.88943 -0.448814 0
M  V30 4579 O 433.937 -1.4162 -1.33319 0
M  V30 4580 C 434.22 -3.17255 1.70356 0
M  V30 4581 C 434.073 -3.11508 3.24473 0
M  V30 4582 C 435.392 -4.15955 1.43769 0
M  V30 4583 H 432.511 -0.636713 0.371167 0
M  V30 4584 H 435.153 -1.18436 1.4857 0
M  V30 4585 H 433.303 -3.65898 1.30578 0
M  V30 4586 H 434.975 -2.70658 3.73553 0
M  V30 4587 H 433.218 -2.4887 3.55311 0
M  V30 4588 H 433.889 -4.11784 3.67611 0
M  V30 4589 H 436.365 -3.75973 1.7828 0
M  V30 4590 H 435.241 -5.13368 1.94279 0
M  V30 4591 H 435.502 -4.40586 0.365564 0
M  V30 4592 N 434.561 -1.01147 -1.20859 0
M  V30 4593 C 435.977 -0.725422 -1.42161 0
M  V30 4594 C 436.177 0.696919 -1.89064 0
M  V30 4595 O 435.233 1.46539 -2.05627 0
M  V30 4596 C 436.546 -1.74678 -2.44761 0
M  V30 4597 C 438.094 -1.76433 -2.58535 0
M  V30 4598 C 438.569 -2.77481 -3.64374 0
M  V30 4599 N 440.06 -2.76189 -3.71852 0
M  V30 4600 C 440.795 -3.51035 -4.53389 0
M  V30 4601 N 440.291 -4.35541 -5.38773 0
M  V30 4602 N 442.084 -3.39655 -4.47873 0
M  V30 4603 H 434.235 -1.92979 -0.887282 0
M  V30 4604 H 436.498 -0.833327 -0.451962 0
M  V30 4605 H 436.204 -2.76551 -2.17285 0
M  V30 4606 H 436.078 -1.55472 -3.43669 0
M  V30 4607 H 438.465 -0.75248 -2.85345 0
M  V30 4608 H 438.546 -1.99712 -1.5984 0
M  V30 4609 H 438.19 -3.78827 -3.38308 0
M  V30 4610 H 438.12 -2.51466 -4.6268 0
M  V30 4611 H 440.611 -2.14885 -3.10858 0
M  V30 4612 H 440.924 -4.89432 -5.98061 0
M  V30 4613 H 439.269 -4.39621 -5.38292 0
M  V30 4614 H 442.46 -2.73063 -3.80203 0
M  V30 4615 H 442.633 -3.9824 -5.11184 0
M  V30 4616 N 436.039 1.36541 -0.78704 0
M  V30 4617 C 437.316 1.9355 -0.282424 0
M  V30 4618 C 437.696 1.71919 1.22503 0
M  V30 4619 O 437.044 1.07677 2.01539 0
M  V30 4620 C 437.254 3.4246 -0.672462 0
M  V30 4621 C 438.602 4.19582 -0.650863 0
M  V30 4622 O 439.626 3.50889 -0.612789 0
M  V30 4623 O 438.485 5.42106 -0.691623 0
M  V30 4624 H 435.579 0.824091 -0.0693 0
M  V30 4625 H 438.125 1.45736 -0.869423 0
M  V30 4626 H 436.897 3.51851 -1.71221 0
M  V30 4627 H 436.52 3.97556 -0.0592211 0
M  V30 4628 N 437.518 0.538854 1.48102 0
M  V30 4629 C 438.448 -0.207654 2.32575 0
M  V30 4630 C 439.429 -0.926559 1.4265 0
M  V30 4631 O 440.614 -0.91061 1.71527 0
M  V30 4632 C 437.744 -1.24957 3.24042 0
M  V30 4633 C 436.698 -0.648263 4.23062 0
M  V30 4634 C 436.024 -1.79348 5.03725 0
M  V30 4635 C 437.324 0.385897 5.20872 0
M  V30 4636 H 439.018 0.497534 2.95237 0
M  V30 4637 H 436.564 0.240715 1.41974 0
M  V30 4638 H 438.517 -1.77983 3.81969 0
M  V30 4639 H 437.241 -1.98446 2.59397 0
M  V30 4640 H 435.9 -0.139452 3.66335 0
M  V30 4641 H 435.548 -2.51696 4.35498 0
M  V30 4642 H 435.248 -1.39702 5.70751 0
M  V30 4643 H 436.772 -2.32735 5.64506 0
M  V30 4644 H 438.186 -0.057607 5.73271 0
M  V30 4645 H 436.583 0.700227 5.96001 0
M  V30 4646 H 437.653 1.28848 4.67468 0
M  V30 4647 N 438.996 -1.55193 0.274407 0
M  V30 4648 C 439.944 -2.23924 -0.629362 0
M  V30 4649 C 440.938 -1.23602 -1.1584 0
M  V30 4650 O 442.144 -1.41535 -1.11211 0
M  V30 4651 H 438.519 -0.718637 -0.221507 0
M  V30 4652 H 440.49 -2.98388 -0.0268322 0
M  V30 4653 C 439.239 -2.97329 -1.80252 0
M  V30 4654 H 438.562 -3.74313 -1.40462 0
M  V30 4655 H 440.002 -3.48743 -2.41152 0
M  V30 4656 C 438.461 -2.0276 -2.69054 0
M  V30 4657 O 438.991 -1.57836 -3.69392 0
M  V30 4658 N 437.197 -1.69275 -2.36208 0
M  V30 4659 H 436.744 -2.06004 -1.54661 0
M  V30 4660 H 436.702 -1.06271 -2.95895 0
M  V30 4661 N 440.474 -0.00167713 -1.576 0
M  V30 4662 C 441.407 1.02317 -2.03977 0
M  V30 4663 C 442.385 1.33381 -0.929963 0
M  V30 4664 O 443.569 1.45517 -1.19822 0
M  V30 4665 C 440.696 2.35035 -2.43878 0
M  V30 4666 C 439.742 2.19621 -3.65607 0
M  V30 4667 S 440.575 1.52068 -5.13455 0
M  V30 4668 C 441.731 2.86212 -5.56627 0
M  V30 4669 H 441.964 0.628285 -2.90585 0
M  V30 4670 H 439.497 0.209239 -1.52976 0
M  V30 4671 H 441.455 3.11345 -2.67534 0
M  V30 4672 H 440.116 2.71663 -1.57665 0
M  V30 4673 H 439.309 3.1767 -3.91282 0
M  V30 4674 H 438.911 1.51455 -3.41961 0
M  V30 4675 H 441.203 3.82509 -5.59189 0
M  V30 4676 H 442.146 2.65235 -6.56549 0
M  V30 4677 H 442.554 2.90199 -4.84195 0
M  V30 4678 N 441.952 1.55251 0.271103 0
M  V30 4679 C 442.9 1.89054 1.35504 0
M  V30 4680 C 443.894 0.767064 1.51038 0
M  V30 4681 O 445.1 0.951429 1.528 0
M  V30 4682 H 441.475 0.600072 0.45323 0
M  V30 4683 H 443.446 2.79598 1.04247 0
M  V30 4684 C 442.195 2.18068 2.70817 0
M  V30 4685 H 441.518 3.04005 2.59656 0
M  V30 4686 H 442.958 2.4564 3.45597 0
M  V30 4687 C 441.417 0.988901 3.2206 0
M  V30 4688 O 441.947 0.224501 4.01072 0
M  V30 4689 N 440.153 0.786085 2.79766 0
M  V30 4690 H 439.7 1.40937 2.15626 0
M  V30 4691 H 439.658 -0.00969349 3.14399 0
M  V30 4692 N 443.43 -0.535701 1.48216 0
M  V30 4693 C 444.66 -1.3148 1.59363 0
M  V30 4694 C 445.068 -1.8753 0.250844 0
M  V30 4695 O 444.411 -1.66821 -0.769174 0
M  V30 4696 C 444.473 -2.50731 2.57632 0
M  V30 4697 C 444.137 -2.15811 4.02833 0
M  V30 4698 C 445.134 -1.71822 4.90686 0
M  V30 4699 C 442.819 -2.26509 4.48329 0
M  V30 4700 C 444.813 -1.3899 6.22062 0
M  V30 4701 C 442.5 -1.93289 5.79726 0
M  V30 4702 C 443.498 -1.49599 6.66415 0
M  V30 4703 O 443.186 -1.16812 7.95368 0
M  V30 4704 H 442.918 -0.406315 0.540263 0
M  V30 4705 H 445.472 -0.653569 1.94725 0
M  V30 4706 H 443.702 -3.19817 2.1738 0
M  V30 4707 H 445.391 -3.12797 2.58675 0
M  V30 4708 H 446.157 -1.63031 4.56778 0
M  V30 4709 H 442.036 -2.59471 3.81045 0
M  V30 4710 H 445.58 -1.04816 6.89681 0
M  V30 4711 H 441.477 -2.01718 6.13172 0
M  V30 4712 H 442.245 -1.30259 8.08069 0
M  V30 4713 N 444.908 -1.36708 -0.784132 0
M  V30 4714 C 445.838 -1.34153 -1.91116 0
M  V30 4715 C 446.819 -0.212121 -1.68772 0
M  V30 4716 O 448.004 -0.410581 -1.8981 0
M  V30 4717 C 445.134 -1.13535 -3.28218 0
M  V30 4718 C 444.088 -2.23356 -3.65097 0
M  V30 4719 C 443.414 -1.87875 -5.00607 0
M  V30 4720 C 444.714 -3.65473 -3.73131 0
M  V30 4721 H 446.408 -2.28459 -1.93512 0
M  V30 4722 H 443.954 -1.09973 -0.929618 0
M  V30 4723 H 445.907 -1.10381 -4.06687 0
M  V30 4724 H 444.631 -0.156804 -3.26223 0
M  V30 4725 H 443.29 -2.25645 -2.88929 0
M  V30 4726 H 442.938 -0.885814 -4.95139 0
M  V30 4727 H 442.638 -2.61406 -5.26252 0
M  V30 4728 H 444.162 -1.86286 -5.81489 0
M  V30 4729 H 445.576 -3.65382 -4.41779 0
M  V30 4730 H 443.973 -4.37953 -4.10265 0
M  V30 4731 H 445.043 -3.99995 -2.74102 0
M  V30 4732 N 446.386 1.0089 -1.21074 0
M  V30 4733 C 447.349 2.0775 -0.968129 0
M  V30 4734 C 448.349 1.6069 0.0593445 0
M  V30 4735 O 449.539 1.73293 -0.177525 0
M  V30 4736 C 446.671 3.37794 -0.459108 0
M  V30 4737 H 447.864 2.30707 -1.9161 0
M  V30 4738 H 445.417 1.17807 -1.02719 0
M  V30 4739 H 446.152 3.20516 0.49397 0
M  V30 4740 H 445.937 3.7328 -1.20019 0
M  V30 4741 H 447.427 4.16454 -0.309099 0
M  V30 4742 N 447.864 1.01787 1.20321 0
M  V30 4743 C 449.275 0.739307 1.71438 0
M  V30 4744 C 449.626 -0.742041 1.81627 0
M  V30 4745 O 448.751 -1.57903 1.47971 0
M  V30 4746 C 449.346 1.33538 3.11373 0
M  V30 4747 C 447.905 1.10566 3.59795 0
M  V30 4748 C 447.052 1.44028 2.36962 0
M  V30 4749 H 450.003 1.18718 1.05317 0
M  V30 4750 H 450.024 0.726611 3.73498 0
M  V30 4751 H 449.536 2.41352 3.03926 0
M  V30 4752 H 447.637 0.0452405 3.72573 0
M  V30 4753 H 447.75 1.78661 4.44542 0
M  V30 4754 H 446.114 0.85933 2.39766 0
M  V30 4755 H 446.897 2.52901 2.32155 0
M  V30 4756 N 449.342 -1.36122 0.79427 0
M  V30 4757 C 450.272 -2.32551 0.210328 0
M  V30 4758 C 451.253 -1.56884 -0.657386 0
M  V30 4759 O 452.438 -1.85014 -0.590207 0
M  V30 4760 C 449.568 -3.41128 -0.651819 0
M  V30 4761 C 448.522 -4.27842 0.116395 0
M  V30 4762 C 447.848 -5.2763 -0.86666 0
M  V30 4763 C 449.148 -5.05647 1.30837 0
M  V30 4764 H 450.842 -2.81636 1.01594 0
M  V30 4765 H 448.388 -1.35407 0.489981 0
M  V30 4766 H 450.341 -4.07581 -1.07031 0
M  V30 4767 H 449.065 -2.90622 -1.49019 0
M  V30 4768 H 447.724 -3.62952 0.515915 0
M  V30 4769 H 447.372 -4.73395 -1.70019 0
M  V30 4770 H 447.072 -5.86514 -0.35705 0
M  V30 4771 H 448.596 -5.96955 -1.28361 0
M  V30 4772 H 450.01 -5.65113 0.965393 0
M  V30 4773 H 448.407 -5.73967 1.75161 0
M  V30 4774 H 449.477 -4.37006 2.10128 0
M  V30 4775 N 450.82 -0.546701 -1.47814 0
M  V30 4776 C 451.768 0.220048 -2.31557 0
M  V30 4777 C 452.762 0.919472 -1.42275 0
M  V30 4778 O 453.968 0.841953 -1.59095 0
M  V30 4779 H 450.343 0.0898334 -0.746615 0
M  V30 4780 H 452.314 -0.505589 -2.94086 0
M  V30 4781 C 451.063 1.24353 -3.24702 0
M  V30 4782 H 450.386 0.714758 -3.93359 0
M  V30 4783 H 451.826 1.75112 -3.8615 0
M  V30 4784 C 450.285 2.28593 -2.47481 0
M  V30 4785 O 450.815 3.35334 -2.21165 0
M  V30 4786 N 449.021 2.02244 -2.08676 0
M  V30 4787 H 448.568 1.15455 -2.30278 0
M  V30 4788 H 448.526 2.72207 -1.57323 0
M  V30 4789 N 452.299 1.55045 -0.282633 0
M  V30 4790 C 453.262 2.21515 0.588539 0
M  V30 4791 C 454.262 1.19535 1.07554 0
M  V30 4792 O 455.452 1.44391 0.974514 0
M  V30 4793 C 452.584 2.88704 1.8128 0
M  V30 4794 H 453.777 2.99899 0.00806397 0
M  V30 4795 H 451.33 1.56265 -0.0333067 0
M  V30 4796 H 452.065 2.14352 2.43359 0
M  V30 4797 H 451.85 3.63443 1.47144 0
M  V30 4798 H 453.34 3.39465 2.43214 0
M  V30 4799 N 453.777 0.010035 1.57597 0
M  V30 4800 C 455.002 -0.687021 1.95691 0
M  V30 4801 C 455.427 -1.65952 0.885519 0
M  V30 4802 O 454.785 -1.80633 -0.15543 0
M  V30 4803 C 454.833 -1.3864 3.32884 0
M  V30 4804 O 453.937 -2.50115 3.27897 0
M  V30 4805 H 453.278 -0.181989 0.638573 0
M  V30 4806 H 455.808 0.0662122 2.04493 0
M  V30 4807 H 455.818 -1.74754 3.6868 0
M  V30 4808 H 454.493 -0.673411 4.10412 0
M  V30 4809 H 453.07 -2.16253 3.03791 0
M  V30 4810 N 455.255 -1.55392 -0.262866 0
M  V30 4811 C 456.185 -1.91978 -1.32917 0
M  V30 4812 C 457.166 -0.7828 -1.51017 0
M  V30 4813 O 458.351 -1.04178 -1.63892 0
M  V30 4814 C 455.481 -2.20055 -2.68687 0
M  V30 4815 C 454.435 -3.35854 -2.65304 0
M  V30 4816 C 453.761 -3.49435 -4.04721 0
M  V30 4817 C 455.061 -4.71977 -2.23685 0
M  V30 4818 H 456.755 -2.81292 -1.02544 0
M  V30 4819 H 454.301 -1.3534 -0.491846 0
M  V30 4820 H 456.254 -2.44237 -3.43404 0
M  V30 4821 H 454.978 -1.27551 -3.00663 0
M  V30 4822 H 453.637 -3.11655 -1.93045 0
M  V30 4823 H 453.285 -2.54379 -4.33936 0
M  V30 4824 H 452.985 -4.27297 -4.0335 0
M  V30 4825 H 454.509 -3.7592 -4.81161 0
M  V30 4826 H 455.923 -4.95637 -2.88127 0
M  V30 4827 H 454.32 -5.52828 -2.33456 0
M  V30 4828 H 455.39 -4.70115 -1.18827 0
M  V30 4829 N 456.733 0.527833 -1.48498 0
M  V30 4830 C 458.144 1.10975 -1.50138 0
M  V30 4831 C 458.495 1.943 -0.272378 0
M  V30 4832 O 457.62 2.07319 0.620301 0
M  V30 4833 C 458.215 2.01927 -2.72049 0
M  V30 4834 C 456.774 2.55332 -2.76554 0
M  V30 4835 C 455.921 1.32341 -2.43683 0
M  V30 4836 H 458.872 0.312986 -1.55583 0
M  V30 4837 H 458.893 2.86244 -2.50689 0
M  V30 4838 H 458.405 1.41254 -3.61481 0
M  V30 4839 H 456.506 3.19721 -1.91336 0
M  V30 4840 H 456.619 2.94319 -3.78038 0
M  V30 4841 H 454.983 1.63989 -1.94884 0
M  V30 4842 H 455.766 0.734165 -3.35358 0
M  V30 4843 N 458.211 1.37122 0.776871 0
M  V30 4844 C 459.174 1.32301 1.8716 0
M  V30 4845 C 460.174 0.228099 1.59174 0
M  V30 4846 O 461.364 0.483642 1.67352 0
M  V30 4847 C 458.496 1.054 3.24197 0
M  V30 4848 H 459.689 2.29673 1.92848 0
M  V30 4849 H 457.242 1.22077 0.97606 0
M  V30 4850 H 457.977 0.0853872 3.24188 0
M  V30 4851 H 457.762 1.84648 3.45901 0
M  V30 4852 H 459.252 1.04664 4.04271 0
M  V30 4853 N 459.689 -1.00246 1.21608 0
M  V30 4854 C 460.914 -1.78167 1.06167 0
M  V30 4855 C 461.339 -1.84138 -0.384035 0
M  V30 4856 O 460.697 -1.28683 -1.27712 0
M  V30 4857 C 460.745 -3.19786 1.66642 0
M  V30 4858 O 459.849 -4.02153 0.913613 0
M  V30 4859 H 459.19 -0.549 0.37349 0
M  V30 4860 H 461.72 -1.25994 1.61204 0
M  V30 4861 H 461.73 -3.70451 1.70969 0
M  V30 4862 H 460.405 -3.14754 2.7185 0
M  V30 4863 H 458.982 -3.60711 0.945635 0
M  V30 4864 N 461.167 -1.02423 -1.1978 0
M  V30 4865 C 462.583 -0.740459 -1.41384 0
M  V30 4866 C 462.783 0.676827 -1.89793 0
M  V30 4867 O 461.839 1.4435 -2.0717 0
M  V30 4868 C 463.152 -1.77264 -2.42895 0
M  V30 4869 C 464.7 -1.79165 -2.56649 0
M  V30 4870 C 465.175 -2.8133 -3.6141 0
M  V30 4871 N 466.666 -2.80118 -3.68901 0
M  V30 4872 C 467.401 -3.55824 -4.49641 0
M  V30 4873 N 466.897 -4.41231 -5.34123 0
M  V30 4874 N 468.69 -3.44387 -4.44246 0
M  V30 4875 H 460.841 -1.9391 -0.866764 0
M  V30 4876 H 463.104 -0.838074 -0.443098 0
M  V30 4877 H 462.81 -2.7884 -2.14339 0
M  V30 4878 H 462.684 -1.59108 -3.42001 0
M  V30 4879 H 465.071 -0.782702 -2.84531 0
M  V30 4880 H 465.152 -2.01396 -1.57713 0
M  V30 4881 H 464.796 -3.82394 -3.34271 0
M  V30 4882 H 464.726 -2.56359 -4.59986 0
M  V30 4883 H 467.217 -2.1817 -3.08562 0
M  V30 4884 H 467.53 -4.95747 -5.92836 0
M  V30 4885 H 465.875 -4.45306 -5.33599 0
M  V30 4886 H 469.066 -2.7708 -3.77285 0
M  V30 4887 H 469.239 -4.0364 -5.06931 0
M  V30 4888 N 462.645 1.35699 -0.801477 0
M  V30 4889 C 463.575 2.32436 -0.222658 0
M  V30 4890 C 464.556 1.5723 0.649057 0
M  V30 4891 O 465.741 1.85324 0.580387 0
M  V30 4892 C 462.871 3.41469 0.633719 0
M  V30 4893 C 461.825 4.27774 -0.139083 0
M  V30 4894 C 461.151 5.28082 0.838666 0
M  V30 4895 C 462.451 5.04946 -1.33517 0
M  V30 4896 H 464.145 2.81094 -1.03086 0
M  V30 4897 H 461.691 1.35146 -0.497155 0
M  V30 4898 H 463.644 4.08143 1.04868 0
M  V30 4899 H 462.368 2.91408 1.47475 0
M  V30 4900 H 461.027 3.62673 -0.535156 0
M  V30 4901 H 460.675 4.7429 1.67506 0
M  V30 4902 H 460.375 5.86695 0.32594 0
M  V30 4903 H 461.899 5.97628 1.25194 0
M  V30 4904 H 463.313 5.64593 -0.995349 0
M  V30 4905 H 461.71 5.7303 -1.78202 0
M  V30 4906 H 462.78 4.35886 -2.12442 0
M  V30 4907 N 464.123 0.554532 1.47522 0
M  V30 4908 C 465.371 0.0294208 2.02079 0
M  V30 4909 C 465.692 -1.32411 1.43151 0
M  V30 4910 O 464.962 -1.863 0.605728 0
M  V30 4911 H 463.542 0.00788672 0.746958 0
M  V30 4912 H 466.204 0.723934 1.80956 0
M  V30 4913 H 465.3 -0.0606745 3.12041 0
M  V30 4914 N 465.601 -1.54893 0.290851 0
M  V30 4915 C 467.017 -1.59476 -0.0628432 0
M  V30 4916 C 467.217 -1.30795 -1.5328 0
M  V30 4917 O 466.273 -1.07644 -2.28406 0
M  V30 4918 C 467.586 -2.98928 0.325962 0
M  V30 4919 C 469.134 -3.11799 0.273882 0
M  V30 4920 C 469.609 -4.53544 0.637359 0
M  V30 4921 N 471.1 -4.59433 0.589507 0
M  V30 4922 C 471.835 -5.67164 0.84335 0
M  V30 4923 N 471.331 -6.82975 1.16263 0
M  V30 4924 N 473.124 -5.56786 0.771091 0
M  V30 4925 H 465.275 -1.71798 1.24896 0
M  V30 4926 H 467.538 -0.801879 0.505663 0
M  V30 4927 H 467.244 -3.24805 1.34887 0
M  V30 4928 H 467.118 -3.75793 -0.325441 0
M  V30 4929 H 469.505 -2.85677 -0.739765 0
M  V30 4930 H 469.586 -2.37112 0.959766 0
M  V30 4931 H 469.23 -4.80394 1.64877 0
M  V30 4932 H 469.16 -5.26553 -0.0704866 0
M  V30 4933 H 471.651 -3.76245 0.353252 0
M  V30 4934 H 471.964 -7.61048 1.34257 0
M  V30 4935 H 470.309 -6.84552 1.20057 0
M  V30 4936 H 473.5 -4.65187 0.521383 0
M  V30 4937 H 473.673 -6.40664 0.972295 0
M  V30 4938 N 467.08 -0.0183926 -1.57589 0
M  V30 4939 C 468.012 0.995557 -2.06449 0
M  V30 4940 C 469.025 1.29556 -0.985849 0
M  V30 4941 O 470.214 1.2621 -1.26227 0
M  V30 4942 C 467.314 2.32572 -2.46502 0
M  V30 4943 C 466.487 2.21245 -3.77319 0
M  V30 4944 C 465.546 3.37104 -4.04039 0
M  V30 4945 O 464.572 3.14468 -4.74445 0
M  V30 4946 N 465.774 4.60553 -3.53372 0
M  V30 4947 H 468.539 0.578746 -2.94059 0
M  V30 4948 H 466.1 0.168603 -1.6102 0
M  V30 4949 H 468.092 3.08887 -2.61478 0
M  V30 4950 H 466.662 2.65931 -1.64315 0
M  V30 4951 H 465.882 1.29723 -3.72244 0
M  V30 4952 H 467.17 2.10868 -4.63047 0
M  V30 4953 H 466.568 4.81839 -2.96391 0
M  V30 4954 H 465.125 5.34072 -3.73644 0
M  V30 4955 N 468.558 1.5553 0.254621 0
M  V30 4956 C 469.806 1.7665 0.981793 0
M  V30 4957 C 470.127 0.580963 1.86145 0
M  V30 4958 O 469.397 -0.403537 1.91699 0
M  V30 4959 H 467.977 0.651475 0.365498 0
M  V30 4960 H 470.639 1.92958 0.274426 0
M  V30 4961 H 469.735 2.67486 1.60802 0
M  V30 4962 N 470.036 -0.519951 1.48776 0
M  V30 4963 C 470.946 -1.65025 1.66745 0
M  V30 4964 C 471.962 -1.6508 0.549954 0
M  V30 4965 O 473.138 -1.83848 0.822295 0
M  V30 4966 C 470.203 -3.0146 1.71238 0
M  V30 4967 C 469.264 -3.12182 2.94688 0
M  V30 4968 C 468.497 -4.42109 2.98958 0
M  V30 4969 O 468.72 -5.29799 2.1135 0
M  V30 4970 O 467.654 -4.57406 3.91233 0
M  V30 4971 H 471.48 -1.52801 2.62461 0
M  V30 4972 H 469.065 -0.694157 1.32294 0
M  V30 4973 H 470.947 -3.82584 1.76657 0
M  V30 4974 H 469.622 -3.13988 0.786975 0
M  V30 4975 H 468.529 -2.30316 2.94797 0
M  V30 4976 H 469.862 -3.04574 3.86646 0
M  V30 4977 N 471.514 -1.37532 -0.769588 0
M  V30 4978 C 472.477 -1.33292 -1.86456 0
M  V30 4979 C 473.477 -0.236537 -1.59051 0
M  V30 4980 O 474.667 -0.492511 -1.67093 0
M  V30 4981 C 471.799 -1.07118 -3.23633 0
M  V30 4982 H 472.992 -2.30692 -1.91628 0
M  V30 4983 H 470.545 -1.22593 -0.969572 0
M  V30 4984 H 471.28 -0.102578 -3.24138 0
M  V30 4985 H 471.065 -1.86479 -3.44917 0
M  V30 4986 H 472.555 -1.06806 -4.03711 0
M  V30 4987 N 472.992 0.995999 -1.22138 0
M  V30 4988 C 474.403 1.54961 -1.04135 0
M  V30 4989 C 474.754 1.92159 0.396147 0
M  V30 4990 O 473.879 1.74435 1.28069 0
M  V30 4991 C 474.474 2.81581 -1.88408 0
M  V30 4992 C 473.033 3.33396 -1.74712 0
M  V30 4993 C 472.18 2.06509 -1.85066 0
M  V30 4994 H 475.131 0.817436 -1.36028 0
M  V30 4995 H 475.152 3.53822 -1.39966 0
M  V30 4996 H 474.664 2.54476 -2.93025 0
M  V30 4997 H 472.765 3.65416 -0.728159 0
M  V30 4998 H 472.878 4.04208 -2.57202 0
M  V30 4999 H 471.242 2.19925 -1.28472 0
M  V30 5000 H 472.025 1.81804 -2.91208 0
M  V30 5001 N 474.47 1.03057 1.19235 0
M  V30 5002 C 475.402 0.570932 2.21975 0
M  V30 5003 C 476.415 -0.354088 1.58903 0
M  V30 5004 O 477.604 -0.150211 1.77867 0
M  V30 5005 C 474.704 -0.187152 3.38383 0
M  V30 5006 C 473.877 0.743231 4.31039 0
M  V30 5007 C 472.936 0.0302493 5.26191 0
M  V30 5008 O 471.962 0.657371 5.65391 0
M  V30 5009 N 473.164 -1.23991 5.67104 0
M  V30 5010 H 475.929 1.45456 2.62036 0
M  V30 5011 H 473.49 0.909807 1.33918 0
M  V30 5012 H 475.482 -0.673715 3.99053 0
M  V30 5013 H 474.052 -0.972205 2.97098 0
M  V30 5014 H 473.272 1.40985 3.68126 0
M  V30 5015 H 474.56 1.3755 4.89854 0
M  V30 5016 H 473.958 -1.77011 5.37293 0
M  V30 5017 H 472.515 -1.67093 6.30018 0
M  V30 5018 N 475.948 -1.35272 0.808662 0
M  V30 5019 C 476.911 -2.28082 0.226093 0
M  V30 5020 C 477.911 -1.49673 -0.587762 0
M  V30 5021 O 479.101 -1.69404 -0.405943 0
M  V30 5022 C 476.233 -3.33955 -0.684596 0
M  V30 5023 H 477.426 -2.81116 1.04469 0
M  V30 5024 H 474.979 -1.45162 0.579466 0
M  V30 5025 H 475.714 -2.86111 -1.5268 0
M  V30 5026 H 475.499 -3.91965 -0.102699 0
M  V30 5027 H 476.989 -4.03219 -1.08646 0
M  V30 5028 N 477.426 -0.562348 -1.47226 0
M  V30 5029 C 478.703 0.0256985 -1.95583 0
M  V30 5030 C 479.083 1.48032 -1.50498 0
M  V30 5031 O 478.431 2.15973 -0.746181 0
M  V30 5032 C 478.641 -0.125129 -3.48776 0
M  V30 5033 C 479.989 0.0175728 -4.24596 0
M  V30 5034 O 481.013 -0.0529341 -3.56161 0
M  V30 5035 O 479.872 0.170145 -5.46235 0
M  V30 5036 H 476.966 0.0612565 -0.824728 0
M  V30 5037 H 479.512 -0.629233 -1.57603 0
M  V30 5038 H 478.284 -1.13715 -3.74412 0
M  V30 5039 H 477.907 0.567178 -3.93534 0
M  V30 5040 N 478.904 1.54736 -0.299062 0
M  V30 5041 C 480.144 2.0201 0.31168 0
M  V30 5042 C 480.508 1.18281 1.5124 0
M  V30 5043 O 481.709 1.55243 2.19438 0
M  V30 5044 C 479.98 3.5123 0.661227 0
M  V30 5045 S 481.539 4.20467 1.2551 0
M  V30 5046 H 478.357 0.704523 0.0957517 0
M  V30 5047 H 480.959 1.90791 -0.426482 0
M  V30 5048 H 479.663 4.09804 -0.221171 0
M  V30 5049 H 479.194 3.66481 1.43023 0
M  V30 5050 H 481.209 4.26083 2.54298 0
M  V30 5051 N 480.382 0.0267497 1.57577 0
M  V30 5052 C 481.798 -0.32962 1.56159 0
M  V30 5053 C 481.998 -1.73059 1.03213 0
M  V30 5054 O 481.054 -2.43233 0.677804 0
M  V30 5055 C 482.367 -0.18039 3.00158 0
M  V30 5056 C 483.915 -0.253334 3.11973 0
M  V30 5057 C 484.39 -0.132921 4.57807 0
M  V30 5058 N 485.881 -0.189979 4.6281 0
M  V30 5059 C 486.616 -0.120554 5.73273 0
M  V30 5060 N 486.112 -0.000180315 6.928 0
M  V30 5061 N 487.905 -0.174369 5.61829 0
M  V30 5062 H 480.056 0.942896 1.90324 0
M  V30 5063 H 482.319 0.3639 0.875375 0
M  V30 5064 H 482.025 0.784576 3.42837 0
M  V30 5065 H 481.899 -0.951565 3.65 0
M  V30 5066 H 484.286 -1.20876 2.69208 0
M  V30 5067 H 484.367 0.548177 2.49857 0
M  V30 5068 H 484.011 0.819073 5.01252 0
M  V30 5069 H 483.941 -0.953264 5.179 0
M  V30 5070 H 486.432 -0.283257 3.76837 0
M  V30 5071 H 486.745 0.0461666 7.72786 0
M  V30 5072 H 485.09 0.034569 6.94991 0
M  V30 5073 H 488.281 -0.266794 4.67339 0
M  V30 5074 H 488.454 -0.116802 6.47895 0
M  V30 5075 N 481.861 -1.55662 -0.24637 0
M  V30 5076 C 483.089 -1.81575 -0.991876 0
M  V30 5077 C 483.504 -0.602545 -1.78927 0
M  V30 5078 O 482.861 0.428795 -1.77391 0
M  V30 5079 C 482.912 -3.05711 -1.92933 0
M  V30 5080 O 482.633 -4.22348 -1.1642 0
M  V30 5081 C 484.134 -3.44428 -2.79078 0
M  V30 5082 H 481.354 -0.604209 -0.291844 0
M  V30 5083 H 483.898 -2.02722 -0.269095 0
M  V30 5084 H 482.053 -2.86612 -2.60638 0
M  V30 5085 H 482.467 -4.92706 -1.79835 0
M  V30 5086 H 483.941 -4.34388 -3.40603 0
M  V30 5087 H 484.418 -2.65037 -3.50217 0
M  V30 5088 H 485.024 -3.65879 -2.16824 0
M  V30 5089 N 483.339 0.512053 -1.4905 0
M  V30 5090 C 484.579 1.27715 -1.59588 0
M  V30 5091 C 484.943 1.90071 -0.271502 0
M  V30 5092 O 486.144 2.67616 -0.251987 0
M  V30 5093 C 484.415 2.32399 -2.71524 0
M  V30 5094 S 485.974 3.18396 -3.01943 0
M  V30 5095 H 482.792 0.43419 -0.563027 0
M  V30 5096 H 485.394 0.581315 -1.86657 0
M  V30 5097 H 484.098 1.85101 -3.66287 0
M  V30 5098 H 483.629 3.06667 -2.46412 0
M  V30 5099 H 485.644 4.32842 -2.42616 0
M  V30 5100 N 484.817 1.37938 0.762283 0
M  V30 5101 C 485.767 1.30976 1.86626 0
M  V30 5102 C 486.751 0.195714 1.59705 0
M  V30 5103 O 487.943 0.430937 1.71674 0
M  V30 5104 C 485.072 1.12847 3.24223 0
M  V30 5105 C 484.158 2.28836 3.57064 0
M  V30 5106 N 484.549 3.54256 3.61022 0
M  V30 5107 C 482.847 2.21198 3.87282 0
M  V30 5108 C 483.548 4.30798 3.90881 0
M  V30 5109 N 482.524 3.60049 4.07266 0
M  V30 5110 H 486.326 2.25946 1.87951 0
M  V30 5111 H 483.84 1.31046 0.959206 0
M  V30 5112 H 485.837 1.05943 4.03214 0
M  V30 5113 H 484.497 0.188024 3.24155 0
M  V30 5114 H 485.508 3.8804 3.42995 0
M  V30 5115 H 482.185 1.35264 3.94981 0
M  V30 5116 H 483.575 5.39386 4.00639 0
M  V30 5117 N 486.295 -0.989507 1.22664 0
M  V30 5118 C 487.227 -2.0824 0.957542 0
M  V30 5119 C 488.24 -1.6267 -0.0651098 0
M  V30 5120 O 489.429 -1.77695 0.169312 0
M  V30 5121 C 486.529 -3.36298 0.419145 0
M  V30 5122 C 485.702 -4.10882 1.49982 0
M  V30 5123 C 484.761 -5.17221 0.967904 0
M  V30 5124 O 483.787 -5.44613 1.65487 0
M  V30 5125 N 484.989 -5.80124 -0.20896 0
M  V30 5126 H 487.754 -2.31904 1.89843 0
M  V30 5127 H 485.315 -1.15552 1.13399 0
M  V30 5128 H 487.307 -4.04671 0.0485451 0
M  V30 5129 H 485.877 -3.09671 -0.426937 0
M  V30 5130 H 485.097 -3.37092 2.04359 0
M  V30 5131 H 486.385 -4.57482 2.22682 0
M  V30 5132 H 485.783 -5.60244 -0.783818 0
M  V30 5133 H 484.34 -6.49715 -0.520913 0
M  V30 5134 N 487.773 -1.03688 -1.18687 0
M  V30 5135 C 489.021 -0.736572 -1.88199 0
M  V30 5136 C 489.342 0.737665 -1.80509 0
M  V30 5137 O 488.612 1.53204 -1.22088 0
M  V30 5138 H 487.192 -0.269466 -0.696704 0
M  V30 5139 H 489.854 -1.31282 -1.44052 0
M  V30 5140 H 488.95 -1.03802 -2.94332 0
M  V30 5141 N 489.251 1.34841 -0.815825 0
M  V30 5142 C 490.497 1.98793 -0.401129 0
M  V30 5143 C 490.83 1.64548 1.03139 0
M  V30 5144 O 490.105 0.913487 1.71714 0
M  V30 5145 C 490.388 3.55143 -0.595409 0
M  V30 5146 C 490.241 3.99155 -2.07352 0
M  V30 5147 C 491.56 4.40092 -0.0268823 0
M  V30 5148 H 488.679 0.722146 -0.14722 0
M  V30 5149 H 491.321 1.59847 -1.02707 0
M  V30 5150 H 489.471 3.8845 -0.0625779 0
M  V30 5151 H 491.143 3.76216 -2.66945 0
M  V30 5152 H 489.386 3.49726 -2.56659 0
M  V30 5153 H 490.057 5.07971 -2.1603 0
M  V30 5154 H 492.533 4.13298 -0.482042 0
M  V30 5155 H 491.409 5.48562 -0.19267 0
M  V30 5156 H 491.67 4.29016 1.06759 0
M  V30 5157 N 490.729 0.570148 1.46925 0
M  V30 5158 C 491.957 0.0561966 2.06824 0
M  V30 5159 C 492.372 -1.24326 1.42086 0
M  V30 5160 O 491.729 -1.74882 0.521794 0
M  V30 5161 C 491.78 -0.129517 3.61268 0
M  V30 5162 O 491.501 1.1185 4.23581 0
M  V30 5163 C 493.002 -0.679266 4.38065 0
M  V30 5164 H 490.222 0.0517261 0.669003 0
M  V30 5165 H 492.766 0.787243 1.8874 0
M  V30 5166 H 490.921 -0.810739 3.78822 0
M  V30 5167 H 491.335 0.924375 5.1629 0
M  V30 5168 H 492.809 -0.758445 5.46765 0
M  V30 5169 H 493.286 -1.69346 4.05239 0
M  V30 5170 H 493.892 -0.0333237 4.25287 0
M  V30 5171 N 492.207 -1.54576 0.307264 0
M  V30 5172 C 493.154 -2.23751 -0.56604 0
M  V30 5173 C 494.124 -1.22235 -1.12462 0
M  V30 5174 O 495.309 -1.50873 -1.16799 0
M  V30 5175 C 492.449 -2.98661 -1.72903 0
M  V30 5176 C 491.562 -4.14963 -1.20124 0
M  V30 5177 C 490.697 -4.77441 -2.3286 0
M  V30 5178 C 489.736 -5.85875 -1.77247 0
M  V30 5179 N 488.873 -6.42282 -2.8358 0
M  V30 5180 H 493.713 -2.97984 0.0304578 0
M  V30 5181 H 491.25 -1.47076 0.0268015 0
M  V30 5182 H 493.208 -3.40329 -2.41313 0
M  V30 5183 H 491.838 -2.26793 -2.29706 0
M  V30 5184 H 490.89 -3.78193 -0.409198 0
M  V30 5185 H 492.202 -4.93066 -0.754171 0
M  V30 5186 H 491.356 -5.21993 -3.09205 0
M  V30 5187 H 490.095 -3.98684 -2.80896 0
M  V30 5188 H 489.1 -5.40741 -0.993926 0
M  V30 5189 H 490.325 -6.6652 -1.30107 0
M  V30 5190 H 488.271 -5.66406 -3.30939 0
M  V30 5191 H 488.188 -7.1575 -2.43388 0
M  V30 5192 H 489.456 -6.91492 -3.59804 0
M  V30 5193 N 493.685 -0.035106 -1.57561 0
M  V30 5194 C 495.096 0.502885 -1.798 0
M  V30 5195 C 495.447 1.71892 -0.945921 0
M  V30 5196 O 494.572 2.15822 -0.157991 0
M  V30 5197 C 495.167 0.919097 -3.26095 0
M  V30 5198 C 493.726 1.40216 -3.49308 0
M  V30 5199 C 492.873 0.369709 -2.74824 0
M  V30 5200 H 495.824 -0.261102 -1.56537 0
M  V30 5201 H 495.845 1.78308 -3.36135 0
M  V30 5202 H 495.357 0.0338526 -3.88085 0
M  V30 5203 H 493.458 2.30714 -2.92578 0
M  V30 5204 H 493.571 1.40541 -4.58023 0
M  V30 5205 H 491.935 0.839113 -2.40481 0
M  V30 5206 H 492.718 -0.507173 -3.39533 0
M  V30 5207 N 495.163 1.55791 0.238111 0
M  V30 5208 C 496.093 1.94068 1.29846 0
M  V30 5209 C 497.074 0.806726 1.49753 0
M  V30 5210 O 498.259 1.06772 1.62214 0
M  V30 5211 C 495.389 2.24302 2.65153 0
M  V30 5212 C 494.343 3.40032 2.59927 0
M  V30 5213 C 493.669 3.55829 3.99111 0
M  V30 5214 C 494.969 4.75476 2.16148 0
M  V30 5215 H 496.663 2.82887 0.980563 0
M  V30 5216 H 494.209 1.36105 0.470253 0
M  V30 5217 H 496.162 2.4967 3.39475 0
M  V30 5218 H 494.886 1.32318 2.98596 0
M  V30 5219 H 493.545 3.14687 1.88063 0
M  V30 5220 H 493.193 2.6125 4.29834 0
M  V30 5221 H 492.893 4.3366 3.96501 0
M  V30 5222 H 494.417 3.83528 4.7512 0
M  V30 5223 H 495.831 5.00158 2.80205 0
M  V30 5224 H 494.228 5.56472 2.24631 0
M  V30 5225 H 495.298 4.71946 1.11333 0
M  V30 5226 N 496.642 -0.504142 1.49319 0
M  V30 5227 C 497.889 -1.25846 1.58647 0
M  V30 5228 C 498.217 -1.92592 0.27177 0
M  V30 5229 O 497.472 -1.81167 -0.74007 0
M  V30 5230 C 497.771 -2.35021 2.69258 0
M  V30 5231 C 497.437 -1.85755 4.1086 0
M  V30 5232 C 496.099 -1.72038 4.49395 0
M  V30 5233 C 498.451 -1.48844 4.99495 0
M  V30 5234 C 495.779 -1.19783 5.74342 0
M  V30 5235 C 498.131 -0.980422 6.24956 0
M  V30 5236 C 496.795 -0.829622 6.62324 0
M  V30 5237 H 496.065 -0.460505 0.580531 0
M  V30 5238 H 498.712 -0.559716 1.83138 0
M  V30 5239 H 497.017 -3.10672 2.38726 0
M  V30 5240 H 498.714 -2.93083 2.73685 0
M  V30 5241 H 495.304 -1.9739 3.80441 0
M  V30 5242 H 499.488 -1.5829 4.70381 0
M  V30 5243 H 494.744 -1.06817 6.01997 0
M  V30 5244 H 498.918 -0.685608 6.93017 0
M  V30 5245 H 496.545 -0.42253 7.59025 0
M  V30 5246 N 498.12 -1.38341 -0.754957 0
M  V30 5247 C 499.368 -1.34208 -1.51105 0
M  V30 5248 C 499.689 0.0677634 -1.94882 0
M  V30 5249 O 498.959 1.01517 -1.67544 0
M  V30 5250 H 497.539 -0.493819 -0.560493 0
M  V30 5251 H 500.201 -1.73005 -0.897507 0
M  V30 5252 H 499.297 -1.99203 -2.4026 0
M  V30 5253 N 499.598 0.982988 -1.23187 0
M  V30 5254 C 500.561 2.05649 -1.01198 0
M  V30 5255 C 501.561 1.6078 0.0252464 0
M  V30 5256 O 502.751 1.72878 -0.214243 0
M  V30 5257 C 499.883 3.36744 -0.530656 0
M  V30 5258 H 501.076 2.2659 -1.96461 0
M  V30 5259 H 498.629 1.15602 -1.05195 0
M  V30 5260 H 499.364 3.21492 0.425873 0
M  V30 5261 H 499.149 3.7065 -1.2791 0
M  V30 5262 H 500.639 4.15705 -0.397366 0
M  V30 5263 N 501.076 1.04316 1.18135 0
M  V30 5264 C 502.301 0.768047 1.92655 0
M  V30 5265 C 502.726 -0.66904 1.758 0
M  V30 5266 O 502.084 -1.46372 1.06981 0
M  V30 5267 C 502.132 1.14239 3.42026 0
M  V30 5268 O 501.236 0.269333 4.1152 0
M  V30 5269 H 500.577 0.282436 0.600937 0
M  V30 5270 H 503.107 1.39367 1.49793 0
M  V30 5271 H 503.117 1.10538 3.92741 0
M  V30 5272 H 501.792 2.18928 3.53615 0
M  V30 5273 H 500.369 0.366175 3.71098 0
M  V30 5274 N 502.554 -1.34406 0.822964 0
M  V30 5275 C 503.97 -1.51275 0.508727 0
M  V30 5276 C 504.17 -1.76776 -0.967083 0
M  V30 5277 O 503.226 -1.81871 -1.75155 0
M  V30 5278 C 504.539 -2.67765 1.36829 0
M  V30 5279 C 506.087 -2.81647 1.36542 0
M  V30 5280 C 506.562 -4.01181 2.20947 0
M  V30 5281 N 508.053 -4.08388 2.18571 0
M  V30 5282 C 508.788 -5.00036 2.80627 0
M  V30 5283 N 508.284 -5.96906 3.51674 0
M  V30 5284 N 510.077 -4.92908 2.70181 0
M  V30 5285 H 502.228 -1.16113 1.77852 0
M  V30 5286 H 504.491 -0.56947 0.757897 0
M  V30 5287 H 504.197 -2.55551 2.41633 0
M  V30 5288 H 504.071 -3.62779 1.03303 0
M  V30 5289 H 506.458 -2.93303 0.325163 0
M  V30 5290 H 506.539 -1.87443 1.74066 0
M  V30 5291 H 506.183 -3.90286 3.25022 0
M  V30 5292 H 506.113 -4.94599 1.80774 0
M  V30 5293 H 508.604 -3.39051 1.66891 0
M  V30 5294 H 508.917 -6.63468 3.96271 0
M  V30 5295 H 507.262 -5.9703 3.5578 0
M  V30 5296 H 510.453 -4.1619 2.14251 0
M  V30 5297 H 510.626 -5.64137 3.18831 0
M  V30 5298 N 504.032 -0.577932 -1.46621 0
M  V30 5299 C 504.962 0.145917 -2.33044 0
M  V30 5300 C 505.943 0.888412 -1.45056 0
M  V30 5301 O 507.128 0.864812 -1.73881 0
M  V30 5302 C 504.258 1.16322 -3.27241 0
M  V30 5303 C 503.212 0.535868 -4.24632 0
M  V30 5304 C 502.538 1.65929 -5.08303 0
M  V30 5305 C 503.838 -0.523861 -5.19666 0
M  V30 5306 H 505.532 -0.575636 -2.93814 0
M  V30 5307 H 503.078 -0.278272 -1.41286 0
M  V30 5308 H 505.031 1.67793 -3.86553 0
M  V30 5309 H 503.755 1.91498 -2.64567 0
M  V30 5310 H 502.414 0.0422759 -3.66576 0
M  V30 5311 H 502.062 2.40061 -4.42018 0
M  V30 5312 H 501.762 1.2452 -5.74255 0
M  V30 5313 H 503.286 2.17686 -5.70478 0
M  V30 5314 H 504.7 -0.0944059 -5.73222 0
M  V30 5315 H 503.097 -0.858 -5.93935 0
M  V30 5316 H 504.167 -1.41197 -4.63887 0
M  V30 5317 N 505.51 1.54411 -0.315457 0
M  V30 5318 C 506.457 2.24048 0.554166 0
M  V30 5319 C 507.427 1.2283 1.11812 0
M  V30 5320 O 508.612 1.51491 1.15997 0
M  V30 5321 C 505.752 2.99574 1.71316 0
M  V30 5322 C 504.865 4.15594 1.17922 0
M  V30 5323 C 504 4.78669 2.30324 0
M  V30 5324 C 503.039 5.86807 1.74137 0
M  V30 5325 N 502.176 6.43777 2.8017 0
M  V30 5326 H 507.016 2.97964 -0.0462602 0
M  V30 5327 H 504.553 1.47059 -0.0346009 0
M  V30 5328 H 506.511 3.41604 2.39505 0
M  V30 5329 H 505.141 2.28008 2.285 0
M  V30 5330 H 504.193 3.78404 0.389136 0
M  V30 5331 H 505.505 4.93459 0.728012 0
M  V30 5332 H 504.659 5.23626 3.06433 0
M  V30 5333 H 503.398 4.00168 2.78778 0
M  V30 5334 H 502.403 5.41261 0.965236 0
M  V30 5335 H 503.628 6.67201 1.2657 0
M  V30 5336 H 501.574 5.68153 3.2793 0
M  V30 5337 H 501.491 7.17031 2.39588 0
M  V30 5338 H 502.759 6.9339 3.56132 0
M  V30 5339 N 506.988 0.0434614 1.5754 0
M  V30 5340 C 508.265 -0.671479 1.83713 0
M  V30 5341 C 508.645 -1.89495 0.930315 0
M  V30 5342 O 507.993 -2.28498 -0.0105639 0
M  V30 5343 C 508.203 -1.0361 3.33266 0
M  V30 5344 C 509.551 -1.42167 4.00092 0
M  V30 5345 O 510.575 -1.12866 3.37846 0
M  V30 5346 O 509.434 -1.96817 5.09829 0
M  V30 5347 H 506.528 -0.330726 0.75799 0
M  V30 5348 H 509.074 0.0722373 1.69546 0
M  V30 5349 H 507.846 -0.165938 3.90948 0
M  V30 5350 H 507.469 -1.83751 3.52592 0
M  V30 5351 N 508.466 -1.55915 -0.229846 0
M  V30 5352 C 509.696 -1.82352 -0.971152 0
M  V30 5353 C 510.104 -0.619231 -1.7878 0
M  V30 5354 O 509.447 0.421597 -1.78797 0
M  V30 5355 C 509.509 -3.02399 -1.9441 0
M  V30 5356 C 509.173 -4.37739 -1.31277 0
M  V30 5357 C 510.17 -5.15074 -0.706757 0
M  V30 5358 C 507.855 -4.84454 -1.32702 0
M  V30 5359 C 509.849 -6.37281 -0.123413 0
M  V30 5360 C 507.536 -6.06605 -0.739831 0
M  V30 5361 C 508.534 -6.82858 -0.139071 0
M  V30 5362 O 508.222 -8.027 0.439007 0
M  V30 5363 H 507.954 -0.61035 -0.290601 0
M  V30 5364 H 510.508 -2.03839 -0.252746 0
M  V30 5365 H 508.738 -2.76709 -2.70128 0
M  V30 5366 H 510.427 -3.15779 -2.55026 0
M  V30 5367 H 511.193 -4.80093 -0.688131 0
M  V30 5368 H 507.072 -4.25081 -1.78402 0
M  V30 5369 H 510.616 -6.96741 0.346124 0
M  V30 5370 H 506.513 -6.4106 -0.755841 0
M  V30 5371 H 507.281 -8.17824 0.332521 0
M  V30 5372 N 509.944 0.496216 -1.49584 0
M  V30 5373 C 511.355 1.07765 -1.52459 0
M  V30 5374 C 511.706 1.93679 -0.31353 0
M  V30 5375 O 510.831 2.08588 0.576186 0
M  V30 5376 C 511.426 1.96111 -2.76271 0
M  V30 5377 C 509.985 2.49409 -2.81908 0
M  V30 5378 C 509.132 1.27142 -2.46435 0
M  V30 5379 H 512.083 0.279914 -1.56212 0
M  V30 5380 H 512.104 2.80862 -2.56704 0
M  V30 5381 H 511.616 1.33555 -3.64396 0
M  V30 5382 H 509.717 3.1559 -1.98074 0
M  V30 5383 H 509.83 2.86234 -3.84196 0
M  V30 5384 H 508.194 1.59818 -1.98319 0
M  V30 5385 H 508.977 0.662866 -3.3684 0
M  V30 5386 N 511.423 1.38739 0.74761 0
M  V30 5387 C 512.333 1.38696 1.89211 0
M  V30 5388 C 513.349 0.283303 1.71678 0
M  V30 5389 O 514.525 0.522713 1.94498 0
M  V30 5390 C 511.59 1.21662 3.24653 0
M  V30 5391 C 510.651 2.41886 3.54669 0
M  V30 5392 C 509.884 2.25655 4.83648 0
M  V30 5393 O 510.107 1.25339 5.56459 0
M  V30 5394 O 509.041 3.14372 5.13277 0
M  V30 5395 H 512.867 2.35143 1.92202 0
M  V30 5396 H 510.452 1.19721 0.893708 0
M  V30 5397 H 512.334 1.14246 4.05618 0
M  V30 5398 H 511.009 0.283024 3.2246 0
M  V30 5399 H 509.916 2.54877 2.73841 0
M  V30 5400 H 511.249 3.33895 3.61628 0
M  V30 5401 N 512.901 -0.976442 1.23707 0
M  V30 5402 C 513.831 -2.08749 1.04624 0
M  V30 5403 C 514.812 -1.70057 -0.0380956 0
M  V30 5404 O 515.997 -1.93782 0.127308 0
M  V30 5405 C 513.127 -3.41335 0.640902 0
M  V30 5406 C 512.081 -3.93947 1.67302 0
M  V30 5407 C 511.407 -5.22774 1.12301 0
M  V30 5408 C 512.707 -4.22769 3.06697 0
M  V30 5409 H 514.401 -2.24972 1.97555 0
M  V30 5410 H 511.947 -1.08108 0.951247 0
M  V30 5411 H 513.9 -4.18489 0.494434 0
M  V30 5412 H 512.624 -3.24988 -0.324099 0
M  V30 5413 H 511.283 -3.18941 1.80755 0
M  V30 5414 H 510.931 -5.0278 0.148877 0
M  V30 5415 H 510.631 -5.58942 1.81267 0
M  V30 5416 H 512.155 -6.02546 0.988479 0
M  V30 5417 H 513.569 -4.90659 2.96524 0
M  V30 5418 H 511.966 -4.70147 3.72937 0
M  V30 5419 H 513.036 -3.29885 3.55392 0
M  V30 5420 N 514.379 -1.04941 -1.1758 0
M  V30 5421 C 515.627 -0.756492 -1.87408 0
M  V30 5422 C 515.948 0.718478 -1.81281 0
M  V30 5423 O 515.218 1.519 -1.23706 0
M  V30 5424 H 513.798 -0.276841 -0.693807 0
M  V30 5425 H 516.46 -1.32803 -1.42652 0
M  V30 5426 H 515.556 -1.06918 -2.93215 0
M  V30 5427 N 515.857 1.33968 -0.830081 0
M  V30 5428 C 517.268 1.80439 -0.479455 0
M  V30 5429 C 517.619 1.68756 1.00079 0
M  V30 5430 O 516.744 1.23171 1.77927 0
M  V30 5431 C 517.339 3.27611 -0.863505 0
M  V30 5432 C 515.898 3.72133 -0.565145 0
M  V30 5433 C 515.045 2.55549 -1.07657 0
M  V30 5434 H 517.996 1.21614 -1.0196 0
M  V30 5435 H 518.017 3.8012 -0.170083 0
M  V30 5436 H 517.529 3.36082 -1.94089 0
M  V30 5437 H 515.63 3.69196 0.502536 0
M  V30 5438 H 515.743 4.65963 -1.11422 0
M  V30 5439 H 514.107 2.49788 -0.497807 0
M  V30 5440 H 514.89 2.66786 -2.16055 0
M  V30 5441 N 517.335 0.585699 1.46312 0
M  V30 5442 C 518.584 0.0701192 2.01578 0
M  V30 5443 C 518.897 -1.29889 1.46247 0
M  V30 5444 O 520.103 -1.90598 1.93351 0
M  V30 5445 C 518.559 0.0747499 3.59822 0
M  V30 5446 C 518.167 1.44226 4.24149 0
M  V30 5447 C 519.911 -0.38673 4.22735 0
M  V30 5448 C 517.818 1.40446 5.74481 0
M  V30 5449 H 516.748 0.0224441 0.753666 0
M  V30 5450 H 519.399 0.737789 1.68015 0
M  V30 5451 H 517.781 -0.659144 3.90476 0
M  V30 5452 H 518.955 2.19612 4.05101 0
M  V30 5453 H 517.27 1.84401 3.73343 0
M  V30 5454 H 519.867 -0.433853 5.32937 0
M  V30 5455 H 520.21 -1.40489 3.91878 0
M  V30 5456 H 520.743 0.293195 3.96718 0
M  V30 5457 H 517.482 2.39952 6.10003 0
M  V30 5458 H 517.002 0.692845 5.95785 0
M  V30 5459 H 518.681 1.11865 6.37256 0
M  V30 5460 N 518.813 -1.54241 0.323641 0
M  V30 5461 C 519.76 -2.24339 -0.542277 0
M  V30 5462 C 520.73 -1.23421 -1.11159 0
M  V30 5463 O 521.915 -1.52104 -1.15192 0
M  V30 5464 C 519.055 -3.00479 -1.69725 0
M  V30 5465 C 518.168 -4.16214 -1.15716 0
M  V30 5466 C 517.303 -4.79884 -2.27783 0
M  V30 5467 C 516.342 -5.87722 -1.71023 0
M  V30 5468 N 515.479 -6.45254 -2.76752 0
M  V30 5469 H 520.319 -2.97935 0.0620613 0
M  V30 5470 H 517.856 -1.47039 0.0423993 0
M  V30 5471 H 519.814 -3.42869 -2.3769 0
M  V30 5472 H 518.444 -2.29217 -2.27288 0
M  V30 5473 H 517.496 -3.78605 -0.369063 0
M  V30 5474 H 518.808 -4.93838 -0.701832 0
M  V30 5475 H 517.962 -5.25243 -3.03651 0
M  V30 5476 H 516.701 -4.01641 -2.76652 0
M  V30 5477 H 515.706 -5.41765 -0.936518 0
M  V30 5478 H 516.931 -6.67863 -1.2303 0
M  V30 5479 H 514.877 -5.69884 -3.24912 0
M  V30 5480 H 514.794 -7.18292 -2.35782 0
M  V30 5481 H 516.062 -6.95269 -3.5245 0
M  V30 5482 N 520.291 -0.0518155 -1.57515 0
M  V30 5483 C 521.254 0.907547 -2.10467 0
M  V30 5484 C 522.254 1.23947 -1.02439 0
M  V30 5485 O 523.444 1.17604 -1.2851 0
M  V30 5486 C 520.576 2.21723 -2.58944 0
M  V30 5487 H 521.769 0.44851 -2.96527 0
M  V30 5488 H 519.322 0.196598 -1.55059 0
M  V30 5489 H 520.057 2.72206 -1.76279 0
M  V30 5490 H 519.842 1.98935 -3.37886 0
M  V30 5491 H 521.332 2.90441 -3.00056 0
M  V30 5492 N 521.769 1.56035 0.221574 0
M  V30 5493 C 522.732 1.91584 1.2581 0
M  V30 5494 C 523.732 0.794425 1.39805 0
M  V30 5495 O 524.922 1.06217 1.38071 0
M  V30 5496 C 522.054 2.16663 2.63192 0
M  V30 5497 H 523.247 2.8429 0.954935 0
M  V30 5498 H 520.8 1.49316 0.461988 0
M  V30 5499 H 521.535 1.26508 2.98607 0
M  V30 5500 H 521.32 2.98358 2.5441 0
M  V30 5501 H 522.81 2.45262 3.37988 0
M  V30 5502 N 523.247 -0.488276 1.49845 0
M  V30 5503 C 524.21 -1.57069 1.66919 0
M  V30 5504 C 525.21 -1.51445 0.540479 0
M  V30 5505 O 526.4 -1.5437 0.807188 0
M  V30 5506 C 523.532 -2.96718 1.67844 0
M  V30 5507 H 524.725 -1.43254 2.63474 0
M  V30 5508 H 522.278 -0.713435 1.39068 0
M  V30 5509 H 523.013 -3.15996 0.7292 0
M  V30 5510 H 522.798 -3.02208 2.49826 0
M  V30 5511 H 524.288 -3.75335 1.83066 0
M  V30 5512 N 524.725 -1.39134 -0.740242 0
M  V30 5513 C 525.672 -1.37434 -1.8542 0
M  V30 5514 C 526.642 -0.234822 -1.64432 0
M  V30 5515 O 527.827 -0.429125 -1.85912 0
M  V30 5516 C 524.967 -1.21844 -3.22875 0
M  V30 5517 C 524.08 -2.45296 -3.55603 0
M  V30 5518 C 523.215 -2.22334 -4.82432 0
M  V30 5519 C 522.254 -3.41488 -5.07988 0
M  V30 5520 N 521.391 -3.17877 -6.26018 0
M  V30 5521 H 526.231 -2.3266 -1.86207 0
M  V30 5522 H 523.768 -1.15578 -0.909946 0
M  V30 5523 H 525.726 -1.10818 -4.02213 0
M  V30 5524 H 524.356 -0.3025 -3.21379 0
M  V30 5525 H 523.408 -2.66945 -2.71006 0
M  V30 5526 H 524.72 -3.34063 -3.7041 0
M  V30 5527 H 523.874 -2.0852 -5.69741 0
M  V30 5528 H 522.613 -1.30954 -4.6979 0
M  V30 5529 H 521.618 -3.55807 -4.19144 0
M  V30 5530 H 522.843 -4.33763 -5.22519 0
M  V30 5531 H 520.789 -2.29156 -6.14673 0
M  V30 5532 H 520.706 -4.00198 -6.41387 0
M  V30 5533 H 521.974 -3.07746 -7.16179 0
M  V30 5534 O 526.242 0.881206 -1.3534 0
M  V30 5535 H 526.933 1.51869 -1.20231 0
M  V30 END ATOM
M  V30 BEGIN BOND
M  V30 END BOND
M  V30 END CTAB
M  END
$$$$
