drugbank_target|P08172 Muscarinic acetylcholine receptor M2 (DB00202; DB00246; DB00280; DB00332; DB00334; DB00342; DB00363; DB00376; DB00383; DB00387; DB00392; DB00408; DB00411; DB00424; DB00434; DB00458; DB00462; DB00483; DB00496; DB00505; DB00508; DB00517; DB00572; DB00622; DB00725; DB00728; DB00747; DB00767; DB00785; DB00804; DB00809; DB00835; DB00907; DB00934; DB00940; DB00986; DB01019; DB01036; DB01062; DB01069; DB01075; DB01085; DB01135; DB01142; DB01148; DB01151; DB01224; DB01226; DB01231; DB01238; DB01239; DB01336; DB01337; DB01338; DB01403; DB01409; DB01591; DB03128; DB04834; DB05752; DB06153; DB06702; DB06787; DB08801; DB08897; DB09076; DB09089; DB09167; DB09262; DB09300; DB11181; DB11235; DB12278; DB13581; DB14185)
 OpenBabel12092119343D

  0  0  0     0  0            999 V3000
M  V30 BEGIN CTAB
M  V30 COUNTS 7324 7405 0 0 0
M  V30 BEGIN ATOM
M  V30 1 H -0.908 1.98254 -0.117106 0
M  V30 2 N 0 1.576 0 0
M  V30 3 C 0.933 2.03868 1.02534 0
M  V30 4 C 1.911 0.928543 1.3348 0
M  V30 5 O 3.095 1.19667 1.45644 0
M  V30 6 C 0.222 2.43627 2.35294 0
M  V30 7 C -0.732 3.65373 2.2001 0
M  V30 8 S 0.101 5.13292 1.52614 0
M  V30 9 C 1.257 5.56322 2.86805 0
M  V30 10 H 1.49 2.90518 0.631377 0
M  V30 11 H -0.977 1.52953 0.210867 0
M  V30 12 H 0.981 2.67203 3.11629 0
M  V30 13 H -0.358 1.57376 2.7183 0
M  V30 14 H -1.165 3.90944 3.18086 0
M  V30 15 H -1.563 3.418 1.51819 0
M  V30 16 H 0.729 5.58782 3.83104 0
M  V30 17 H 1.672 6.56266 2.65933 0
M  V30 18 H 2.08 4.83886 2.90714 0
M  V30 19 N 1.4781 -0.272755 1.55222 0
M  V30 20 C 2.4261 -1.35705 1.88909 0
M  V30 21 C 3.4201 -1.5112 0.765456 0
M  V30 22 O 4.6261 -1.52901 0.949802 0
M  V30 23 H 1.0011 -0.453868 0.59959 0
M  V30 24 H 2.9721 -1.04544 2.79487 0
M  V30 25 C 1.7211 -2.71049 2.17779 0
M  V30 26 H 1.0441 -2.59979 3.03728 0
M  V30 27 H 2.4841 -3.45858 2.45272 0
M  V30 28 C 0.9431 -3.22165 0.985473 0
M  V30 29 O 1.4731 -4.01096 0.220233 0
M  V30 30 N -0.3209 -2.7985 0.783108 0
M  V30 31 H -0.7739 -2.15775 1.40708 0
M  V30 32 H -0.8159 -3.14397 -0.0130392 0
M  V30 33 N 2.9562 -1.48159 -0.537278 0
M  V30 34 C 3.9042 -1.62573 -1.66352 0
M  V30 35 C 4.8982 -0.492366 -1.62087 0
M  V30 36 O 6.1042 -0.670847 -1.67032 0
M  V30 37 H 2.4792 -0.511992 -0.550789 0
M  V30 38 H 4.4502 -2.57176 -1.51337 0
M  V30 39 C 3.1992 -1.67583 -3.04649 0
M  V30 40 H 2.5222 -2.54151 -3.08622 0
M  V30 41 H 3.9622 -1.81713 -3.83088 0
M  V30 42 C 2.4212 -0.413039 -3.34358 0
M  V30 43 O 2.9512 0.477259 -3.98855 0
M  V30 44 N 1.1572 -0.286961 -2.8918 0
M  V30 45 H 0.7042 -1.01241 -2.36871 0
M  V30 46 H 0.6622 0.556963 -3.09427 0
M  V30 47 N 4.4343 0.785586 -1.36625 0
M  V30 48 C 5.6593 1.57963 -1.34397 0
M  V30 49 C 6.0843 1.87964 0.071526 0
M  V30 50 O 5.4423 1.48182 1.0446 0
M  V30 51 C 5.4903 2.87511 -2.17646 0
M  V30 52 O 4.5943 3.81281 -1.57158 0
M  V30 53 H 3.9353 0.479014 -0.459828 0
M  V30 54 H 6.4653 0.973411 -1.79961 0
M  V30 55 H 6.4753 3.36745 -2.30362 0
M  V30 56 H 5.1503 2.65002 -3.20541 0
M  V30 57 H 3.7273 3.39885 -1.53403 0
M  V30 58 N 5.9124 1.20967 1.01018 0
M  V30 59 C 7.1404 1.04956 1.78303 0
M  V30 60 C 7.5554 -0.400915 1.84494 0
M  V30 61 O 6.9124 -1.27826 1.30257 0
M  V30 62 C 6.9634 1.63403 3.22462 0
M  V30 63 O 6.6844 3.02775 3.16637 0
M  V30 64 C 8.1854 1.52432 4.16268 0
M  V30 65 H 5.4054 0.368858 0.560522 0
M  V30 66 H 7.9494 1.60193 1.27116 0
M  V30 67 H 6.1044 1.1227 3.70775 0
M  V30 68 H 6.5184 3.30626 4.07169 0
M  V30 69 H 7.9924 1.98078 5.15237 0
M  V30 70 H 8.4694 0.477875 4.36592 0
M  V30 71 H 9.0754 2.02787 3.73841 0
M  V30 72 N 7.3905 -1.2043 1.01659 0
M  V30 73 C 8.3385 -2.25249 0.580143 0
M  V30 74 C 9.3325 -1.65057 -0.381115 0
M  V30 75 O 10.5385 -1.78241 -0.251039 0
M  V30 76 H 6.9135 -0.732695 0.169299 0
M  V30 77 H 8.8845 -2.59389 1.47512 0
M  V30 78 C 7.6335 -3.47638 -0.065788 0
M  V30 79 H 6.9565 -3.94233 0.664874 0
M  V30 80 H 8.3965 -4.2268 -0.334282 0
M  V30 81 C 6.8555 -3.10447 -1.3086 0
M  V30 82 O 7.3855 -3.21981 -2.4019 0
M  V30 83 N 5.5915 -2.64996 -1.1927 0
M  V30 84 H 5.1385 -2.55811 -0.303064 0
M  V30 85 H 5.0965 -2.40482 -2.02523 0
M  V30 86 N 8.8686 -0.792821 -1.36206 0
M  V30 87 C 10.0936 -0.377701 -2.03932 0
M  V30 88 C 10.5186 0.998947 -1.59382 0
M  V30 89 O 9.8766 1.64421 -0.763903 0
M  V30 90 C 9.9246 -0.453635 -3.57735 0
M  V30 91 O 9.0286 0.538151 -4.08874 0
M  V30 92 H 8.3696 -0.159855 -0.644471 0
M  V30 93 H 10.8996 -1.07488 -1.7409 0
M  V30 94 H 10.9096 -0.318464 -4.06755 0
M  V30 95 H 9.5846 -1.45784 -3.89512 0
M  V30 96 H 8.1616 0.364359 -3.71116 0
M  V30 97 N 10.3467 1.47872 -0.545128 0
M  V30 98 C 11.5717 2.07391 -0.0190611 0
M  V30 99 C 11.9967 1.39688 1.25971 0
M  V30 100 O 11.3547 0.467816 1.7516 0
M  V30 101 C 11.4027 3.60188 0.172335 0
M  V30 102 O 10.5067 3.9339 1.23766 0
M  V30 103 H 9.8477 0.662411 -0.0459059 0
M  V30 104 H 12.3777 1.90066 -0.757365 0
M  V30 105 H 12.3877 4.06129 0.390305 0
M  V30 106 H 11.0627 4.08865 -0.761725 0
M  V30 107 H 9.6397 3.5921 1.00114 0
M  V30 108 N 11.8248 0.280983 1.55075 0
M  V30 109 C 12.7728 -0.619864 2.24188 0
M  V30 110 C 13.7668 -1.15315 1.24092 0
M  V30 111 O 14.9728 -1.1061 1.42005 0
M  V30 112 H 11.3478 -0.218459 0.719569 0
M  V30 113 H 13.3188 -0.0141831 2.98397 0
M  V30 114 C 12.0678 -1.7899 2.98091 0
M  V30 115 H 11.3908 -1.38874 3.74905 0
M  V30 116 H 12.8308 -2.39672 3.49762 0
M  V30 117 C 11.2898 -2.68192 2.03899 0
M  V30 118 O 11.8198 -3.6872 1.594 0
M  V30 119 N 10.0258 -2.35488 1.70275 0
M  V30 120 H 9.5728 -1.53787 2.06658 0
M  V30 121 H 9.5308 -2.95442 1.07524 0
M  V30 122 N 13.3029 -1.57598 0.00835791 0
M  V30 123 C 14.2509 -2.10078 -0.998508 0
M  V30 124 C 15.2449 -1.02262 -1.35051 0
M  V30 125 O 16.4509 -1.20719 -1.33518 0
M  V30 126 H 12.8259 -0.670903 -0.339696 0
M  V30 127 H 14.7969 -2.93648 -0.530398 0
M  V30 128 C 13.5459 -2.62615 -2.27879 0
M  V30 129 H 12.8689 -3.45213 -2.01662 0
M  V30 130 H 14.3089 -3.03004 -2.96588 0
M  V30 131 C 12.7679 -1.54407 -2.99433 0
M  V30 132 O 13.2979 -0.931812 -3.90743 0
M  V30 133 N 11.5039 -1.2695 -2.61404 0
M  V30 134 H 11.0509 -1.76924 -1.87232 0
M  V30 135 H 11.0089 -0.547704 -3.09593 0
M  V30 136 N 14.781 0.264519 -1.55364 0
M  V30 137 C 16.006 1.01726 -1.80739 0
M  V30 138 C 16.431 1.78836 -0.583044 0
M  V30 139 O 15.789 1.75167 0.467566 0
M  V30 140 C 15.837 1.94482 -3.03659 0
M  V30 141 O 14.941 3.03386 -2.7934 0
M  V30 142 H 14.282 0.290395 -0.597132 0
M  V30 143 H 16.812 0.290854 -2.02522 0
M  V30 144 H 16.822 2.36278 -3.32621 0
M  V30 145 H 15.497 1.37772 -3.92418 0
M  V30 146 H 14.074 2.65844 -2.61498 0
M  V30 147 N 16.2591 1.48442 0.529413 0
M  V30 148 C 17.1891 1.65902 1.64313 0
M  V30 149 C 18.1701 0.507897 1.6234 0
M  V30 150 O 19.3551 0.740503 1.79528 0
M  V30 151 C 16.4851 1.69911 3.02898 0
M  V30 152 C 15.4391 2.8453 3.19729 0
M  V30 153 C 14.7651 2.73629 4.59381 0
M  V30 154 C 16.0651 4.25821 3.02447 0
M  V30 155 H 17.7591 2.5914 1.49955 0
M  V30 156 H 15.3051 1.24709 0.719982 0
M  V30 157 H 17.2581 1.80715 3.80684 0
M  V30 158 H 15.9821 0.732524 3.18279 0
M  V30 159 H 14.6411 2.73283 2.44361 0
M  V30 160 H 14.2891 1.74938 4.71599 0
M  V30 161 H 13.9891 3.50541 4.71588 0
M  V30 162 H 15.5131 2.86401 5.39265 0
M  V30 163 H 16.9271 4.37898 3.70024 0
M  V30 164 H 15.3241 5.03735 3.26146 0
M  V30 165 H 16.3941 4.42244 1.98867 0
M  V30 166 N 17.7372 -0.778329 1.37039 0
M  V30 167 C 18.7002 -1.87301 1.32102 0
M  V30 168 C 19.7002 -1.59198 0.226405 0
M  V30 169 O 20.8902 -1.67403 0.481861 0
M  V30 170 C 18.0222 -3.24309 1.05055 0
M  V30 171 H 19.2152 -1.93093 2.29467 0
M  V30 172 H 16.7682 -0.977358 1.21973 0
M  V30 173 H 17.5032 -3.24196 0.0819373 0
M  V30 174 H 17.2882 -3.46098 1.84279 0
M  V30 175 H 18.7782 -4.04382 1.04234 0
M  V30 176 N 19.2153 -1.21501 -1.00376 0
M  V30 177 C 20.1453 -0.999478 -2.11028 0
M  V30 178 C 21.1263 0.0759671 -1.6993 0
M  V30 179 O 22.3113 -0.0841106 -1.94018 0
M  V30 180 C 19.4413 -0.564709 -3.42678 0
M  V30 181 C 18.3953 -1.58486 -3.97576 0
M  V30 182 C 17.7213 -1.00628 -5.25146 0
M  V30 183 C 19.0213 -2.97204 -4.29496 0
M  V30 184 H 20.7153 -1.92495 -2.29317 0
M  V30 185 H 18.2613 -0.92693 -1.102 0
M  V30 186 H 20.2143 -0.401091 -4.19487 0
M  V30 187 H 18.9383 0.396411 -3.24185 0
M  V30 188 H 17.5973 -1.73606 -3.22888 0
M  V30 189 H 17.2453 -0.0368439 -5.02987 0
M  V30 190 H 16.9453 -1.68771 -5.62841 0
M  V30 191 H 18.4693 -0.854015 -6.04598 0
M  V30 192 H 19.8833 -2.8552 -4.97143 0
M  V30 193 H 18.2803 -3.62372 -4.78338 0
M  V30 194 H 19.3503 -3.47956 -3.3772 0
M  V30 195 N 20.6934 1.19889 -1.02296 0
M  V30 196 C 21.9214 1.9339 -0.735399 0
M  V30 197 C 22.3364 1.75148 0.704887 0
M  V30 198 O 21.6934 1.06954 1.47875 0
M  V30 199 C 21.7444 3.45313 -1.06962 0
M  V30 200 O 21.4654 3.62964 -2.45334 0
M  V30 201 C 22.9664 4.35948 -0.804021 0
M  V30 202 H 20.1864 0.61448 -0.269546 0
M  V30 203 H 22.7304 1.522 -1.36585 0
M  V30 204 H 20.8854 3.84359 -0.484455 0
M  V30 205 H 21.2994 4.56886 -2.57595 0
M  V30 206 H 22.7734 5.41174 -1.0879 0
M  V30 207 H 23.2504 4.3842 0.261691 0
M  V30 208 H 23.8564 4.02574 -1.37164 0
M  V30 209 N 22.1715 0.800033 1.35784 0
M  V30 210 C 23.3965 0.388511 2.03729 0
M  V30 211 C 23.8215 -0.990481 1.5991 0
M  V30 212 O 23.1795 -1.64013 0.772612 0
M  V30 213 C 23.2275 0.4726 3.5749 0
M  V30 214 O 22.3315 -0.51646 4.09153 0
M  V30 215 H 21.6725 0.163271 0.643614 0
M  V30 216 H 24.2025 1.0841 1.73518 0
M  V30 217 H 24.2125 0.34003 4.06581 0
M  V30 218 H 22.8875 1.47848 3.88734 0
M  V30 219 H 21.4645 -0.344673 3.71304 0
M  V30 220 N 23.6496 -1.47581 0.552962 0
M  V30 221 C 25.0606 -1.86324 0.118463 0
M  V30 222 C 25.4116 -1.46006 -1.3106 0
M  V30 223 O 24.5366 -0.861182 -1.98526 0
M  V30 224 C 25.1316 -3.3816 0.20821 0
M  V30 225 C 23.6906 -3.7601 -0.171226 0
M  V30 226 C 22.8376 -2.71634 0.557686 0
M  V30 227 H 25.7886 -1.39159 0.762928 0
M  V30 228 H 25.8096 -3.76141 -0.574278 0
M  V30 229 H 25.3216 -3.67473 1.24841 0
M  V30 230 H 23.4226 -3.52313 -1.21269 0
M  V30 231 H 23.5356 -4.78745 0.184379 0
M  V30 232 H 21.8996 -2.547 0.00125792 0
M  V30 233 H 22.6826 -3.0379 1.59896 0
M  V30 234 N 25.1277 -0.289203 -1.54924 0
M  V30 235 C 26.3577 0.325989 -2.04012 0
M  V30 236 C 26.7657 1.48961 -1.1665 0
M  V30 237 O 26.1087 1.82794 -0.1822 0
M  V30 238 C 26.1707 0.856112 -3.49158 0
M  V30 239 C 25.8347 -0.180697 -4.56643 0
M  V30 240 C 26.8317 -1.0051 -5.10092 0
M  V30 241 C 24.5167 -0.318998 -5.01286 0
M  V30 242 C 26.5107 -1.95385 -6.06715 0
M  V30 243 C 24.1977 -1.27121 -5.97732 0
M  V30 244 C 25.1957 -2.08713 -6.50329 0
M  V30 245 O 24.8837 -3.02322 -7.44887 0
M  V30 246 H 24.6157 0.0765276 -0.671654 0
M  V30 247 H 27.1697 -0.423254 -2.00992 0
M  V30 248 H 25.3997 1.65567 -3.49463 0
M  V30 249 H 27.0887 1.38591 -3.81507 0
M  V30 250 H 27.8547 -0.90906 -4.76404 0
M  V30 251 H 23.7337 0.306108 -4.59983 0
M  V30 252 H 27.2777 -2.59111 -6.47694 0
M  V30 253 H 23.1747 -1.36801 -6.30837 0
M  V30 254 H 23.9427 -2.97165 -7.6265 0
M  V30 255 N 26.6058 1.57591 -0.0167156 0
M  V30 256 C 27.5528 2.09462 0.969251 0
M  V30 257 C 28.5228 0.99381 1.33089 0
M  V30 258 O 29.7078 1.26726 1.42636 0
M  V30 259 C 26.8478 2.61622 2.25051 0
M  V30 260 C 25.9608 3.85666 1.94642 0
M  V30 261 C 25.0958 4.26266 3.16972 0
M  V30 262 C 24.1348 5.43101 2.82326 0
M  V30 263 N 23.2718 5.78915 3.97243 0
M  V30 264 H 28.1118 2.93428 0.519997 0
M  V30 265 H 25.6488 1.45044 0.245087 0
M  V30 266 H 27.6068 2.89949 2.99976 0
M  V30 267 H 26.2368 1.80505 2.67615 0
M  V30 268 H 25.2888 3.64145 1.10013 0
M  V30 269 H 26.6008 4.70678 1.65117 0
M  V30 270 H 25.7548 4.55963 4.00228 0
M  V30 271 H 24.4938 3.39996 3.49648 0
M  V30 272 H 23.4988 5.1311 1.97479 0
M  V30 273 H 24.7238 6.3106 2.50879 0
M  V30 274 H 22.6698 4.95602 4.29785 0
M  V30 275 H 22.5868 6.58539 3.71299 0
M  V30 276 H 23.8548 6.13212 4.81239 0
M  V30 277 N 28.0839 -0.256276 1.55502 0
M  V30 278 C 29.3119 -1.00342 1.8094 0
M  V30 279 C 29.7269 -1.79307 0.59114 0
M  V30 280 O 29.0839 -1.77114 -0.440081 0
M  V30 281 C 29.1349 -1.94875 3.04476 0
M  V30 282 O 28.8559 -1.19107 4.21598 0
M  V30 283 C 30.3569 -2.81266 3.42644 0
M  V30 284 H 27.5769 -0.295685 0.602338 0
M  V30 285 H 30.1209 -0.281998 2.02546 0
M  V30 286 H 28.2759 -2.62457 2.84947 0
M  V30 287 H 28.6899 -1.82969 4.91551 0
M  V30 288 H 30.1639 -3.43362 4.32211 0
M  V30 289 H 30.6409 -3.51897 2.62802 0
M  V30 290 H 31.2469 -2.1915 3.64491 0
M  V30 291 N 29.562 -1.4872 -0.521534 0
M  V30 292 C 30.809 -1.57168 -1.27689 0
M  V30 293 C 31.137 -0.249275 -1.92896 0
M  V30 294 O 30.392 0.761162 -1.80291 0
M  V30 295 C 30.691 -2.66497 -2.38148 0
M  V30 296 C 30.357 -4.08664 -1.90538 0
M  V30 297 C 29.019 -4.47357 -1.77271 0
M  V30 298 C 31.371 -4.97724 -1.54663 0
M  V30 299 C 28.699 -5.72905 -1.26478 0
M  V30 300 C 31.051 -6.2377 -1.05329 0
M  V30 301 C 29.715 -6.61311 -0.906861 0
M  V30 302 H 28.985 -0.575117 -0.467249 0
M  V30 303 H 31.632 -1.82472 -0.581051 0
M  V30 304 H 29.937 -2.35085 -3.13437 0
M  V30 305 H 31.634 -2.70246 -2.96257 0
M  V30 306 H 28.224 -3.78111 -2.01816 0
M  V30 307 H 32.408 -4.68501 -1.63768 0
M  V30 308 H 27.664 -6.00709 -1.13835 0
M  V30 309 H 31.838 -6.9217 -0.76644 0
M  V30 310 H 29.465 -7.5848 -0.511083 0
M  V30 311 N 31.0401 0.771051 -1.3745 0
M  V30 312 C 31.9501 1.91538 -1.35464 0
M  V30 313 C 32.9661 1.72134 -0.254123 0
M  V30 314 O 34.1421 1.95358 -0.489626 0
M  V30 315 C 31.2071 3.26671 -1.16134 0
M  V30 316 C 30.2681 3.58723 -2.35831 0
M  V30 317 C 29.5011 4.87409 -2.17413 0
M  V30 318 O 29.7241 5.58506 -1.15876 0
M  V30 319 O 28.6581 5.18539 -3.05615 0
M  V30 320 H 32.4841 1.96165 -2.31847 0
M  V30 321 H 30.0691 0.9139 -1.18187 0
M  V30 322 H 31.9511 4.07499 -1.07345 0
M  V30 323 H 30.6261 3.22894 -0.228251 0
M  V30 324 H 29.5331 2.78127 -2.50192 0
M  V30 325 H 30.8661 3.67243 -3.27709 0
M  V30 326 N 32.5182 1.22032 0.997298 0
M  V30 327 C 33.7642 1.04376 1.73878 0
M  V30 328 C 34.0972 -0.420716 1.89588 0
M  V30 329 O 33.3722 -1.31202 1.43583 0
M  V30 330 C 33.6552 1.75047 3.14691 0
M  V30 331 C 33.5082 3.29062 3.06656 0
M  V30 332 C 34.8272 1.49928 4.13775 0
M  V30 333 H 31.9462 0.380578 0.631133 0
M  V30 334 H 34.5882 1.50312 1.16217 0
M  V30 335 H 32.7382 1.35996 3.63919 0
M  V30 336 H 34.4102 3.7753 2.65083 0
M  V30 337 H 32.6532 3.58967 2.43568 0
M  V30 338 H 33.3242 3.73683 4.06282 0
M  V30 339 H 35.8002 1.83842 3.73285 0
M  V30 340 H 34.6762 2.01878 5.10428 0
M  V30 341 H 34.9372 0.430929 4.39995 0
M  V30 342 N 33.9963 -1.19345 1.0293 0
M  V30 343 C 35.2423 -1.89318 0.727083 0
M  V30 344 C 35.5753 -1.79446 -0.742483 0
M  V30 345 O 34.8503 -1.1871 -1.54072 0
M  V30 346 C 35.1333 -3.40238 1.17942 0
M  V30 347 C 34.9863 -3.58979 2.71024 0
M  V30 348 C 36.3053 -4.33479 0.760548 0
M  V30 349 H 33.4243 -0.687475 0.265606 0
M  V30 350 H 36.0663 -1.40477 1.2793 0
M  V30 351 H 34.2163 -3.81964 0.709608 0
M  V30 352 H 35.8883 -3.26421 3.25955 0
M  V30 353 H 34.1313 -3.02018 3.11396 0
M  V30 354 H 34.8023 -4.64823 2.9773 0
M  V30 355 H 37.2783 -3.99469 1.16464 0
M  V30 356 H 36.1543 -5.37664 1.10493 0
M  V30 357 H 36.4153 -4.40813 -0.337063 0
M  V30 358 N 35.4744 -0.807222 -1.35358 0
M  V30 359 C 36.7214 -0.387888 -1.9875 0
M  V30 360 C 37.0494 1.04509 -1.64037 0
M  V30 361 O 36.3044 1.73986 -0.895946 0
M  V30 362 C 36.6034 -0.519036 -3.53611 0
M  V30 363 C 36.2694 -1.91542 -4.08194 0
M  V30 364 C 34.9314 -2.29745 -4.22813 0
M  V30 365 C 37.2834 -2.82896 -4.37744 0
M  V30 366 C 34.6114 -3.58668 -4.643 0
M  V30 367 C 36.9634 -4.11265 -4.8067 0
M  V30 368 C 35.6274 -4.49466 -4.93494 0
M  V30 369 H 34.8974 -0.141938 -0.727279 0
M  V30 370 H 37.5444 -1.02814 -1.6156 0
M  V30 371 H 35.8494 0.204658 -3.91265 0
M  V30 372 H 37.5464 -0.175345 -4.00616 0
M  V30 373 H 34.1364 -1.60862 -3.97268 0
M  V30 374 H 38.3204 -2.54629 -4.26002 0
M  V30 375 H 33.5764 -3.88113 -4.72418 0
M  V30 376 H 37.7504 -4.82153 -5.02496 0
M  V30 377 H 35.3774 -5.49418 -5.25399 0
M  V30 378 N 36.9525 1.47285 -0.560781 0
M  V30 379 C 38.2015 2.01668 -0.035895 0
M  V30 380 C 38.5145 1.44021 1.32353 0
M  V30 381 O 39.7205 1.90088 1.93853 0
M  V30 382 C 38.1765 3.59897 -0.0136659 0
M  V30 383 C 37.7845 4.26536 -1.37006 0
M  V30 384 C 39.5285 4.22017 0.458425 0
M  V30 385 C 37.4355 5.76782 -1.30675 0
M  V30 386 H 36.3655 0.753938 -0.00964879 0
M  V30 387 H 39.0165 1.69243 -0.709166 0
M  V30 388 H 37.3985 3.89301 0.725325 0
M  V30 389 H 38.5725 4.0877 -2.12705 0
M  V30 390 H 36.8875 3.76419 -1.78038 0
M  V30 391 H 39.4845 5.32124 0.524247 0
M  V30 392 H 39.8275 3.89437 1.4712 0
M  V30 393 H 40.3605 3.97159 -0.225818 0
M  V30 394 H 37.0995 6.13988 -2.29564 0
M  V30 395 H 36.6195 5.96875 -0.591622 0
M  V30 396 H 38.2985 6.39063 -1.01033 0
M  V30 397 N 38.4306 0.297415 1.54768 0
M  V30 398 C 39.6766 -0.313376 2.00364 0
M  V30 399 C 40.0096 -1.53815 1.18553 0
M  V30 400 O 39.2846 -1.92739 0.261103 0
M  V30 401 C 39.5676 -0.673525 3.53745 0
M  V30 402 C 39.4206 0.560133 4.46299 0
M  V30 403 C 40.7396 -1.50143 4.13697 0
M  V30 404 H 37.8586 -0.112428 0.728374 0
M  V30 405 H 40.5006 0.4088 1.8555 0
M  V30 406 H 38.6506 -1.28881 3.665 0
M  V30 407 H 40.3226 1.19863 4.45455 0
M  V30 408 H 38.5656 1.19405 4.17043 0
M  V30 409 H 39.2366 0.26405 5.51368 0
M  V30 410 H 41.7126 -0.981588 4.04356 0
M  V30 411 H 40.5886 -1.72221 5.21182 0
M  V30 412 H 40.8496 -2.48952 3.65343 0
M  V30 413 N 39.9087 -1.5758 0.0250728 0
M  V30 414 C 40.8387 -2.13007 -0.956575 0
M  V30 415 C 41.8197 -1.0452 -1.342 0
M  V30 416 O 43.0047 -1.32332 -1.42133 0
M  V30 417 C 40.1347 -2.65386 -2.24026 0
M  V30 418 C 39.0887 -3.78623 -1.99571 0
M  V30 419 C 38.4147 -4.17414 -3.3417 0
M  V30 420 C 39.7147 -5.04867 -1.33814 0
M  V30 421 H 41.4087 -2.9528 -0.494991 0
M  V30 422 H 38.9547 -1.42042 -0.236651 0
M  V30 423 H 40.9077 -3.02794 -2.93076 0
M  V30 424 H 39.6317 -1.80268 -2.72343 0
M  V30 425 H 38.2907 -3.41646 -1.32941 0
M  V30 426 H 37.9387 -3.29284 -3.80238 0
M  V30 427 H 37.6387 -4.93719 -3.18615 0
M  V30 428 H 39.1627 -4.57402 -4.04495 0
M  V30 429 H 40.5767 -5.39888 -1.92857 0
M  V30 430 H 38.9737 -5.86144 -1.28669 0
M  V30 431 H 40.0437 -4.83904 -0.310561 0
M  V30 432 N 41.3868 0.248026 -1.55636 0
M  V30 433 C 42.6328 0.97767 -1.77678 0
M  V30 434 C 42.9658 1.85016 -0.590135 0
M  V30 435 O 42.2408 1.90095 0.411611 0
M  V30 436 C 42.5238 1.83914 -3.09593 0
M  V30 437 C 42.3768 0.99491 -4.38659 0
M  V30 438 C 43.6958 2.82183 -3.37729 0
M  V30 439 H 40.8148 0.354005 -0.646413 0
M  V30 440 H 43.4568 0.248253 -1.88371 0
M  V30 441 H 41.6068 2.46104 -3.00608 0
M  V30 442 H 43.2788 0.391789 -4.59633 0
M  V30 443 H 41.5218 0.299231 -4.32767 0
M  V30 444 H 42.1928 1.63145 -5.2734 0
M  V30 445 H 44.6688 2.30129 -3.4667 0
M  V30 446 H 43.5448 3.39582 -4.31249 0
M  V30 447 H 43.8058 3.58588 -2.58586 0
M  V30 448 N 42.8649 1.48995 0.513639 0
M  V30 449 C 43.8279 1.64229 1.59879 0
M  V30 450 C 44.8279 0.514696 1.5234 0
M  V30 451 O 46.0179 0.78087 1.55718 0
M  V30 452 C 43.1499 1.62783 2.99524 0
M  V30 453 H 44.3429 2.61004 1.47705 0
M  V30 454 H 41.8959 1.37837 0.736936 0
M  V30 455 H 42.6309 0.675461 3.17188 0
M  V30 456 H 42.4159 2.4466 3.06404 0
M  V30 457 H 43.9059 1.76669 3.78388 0
M  V30 458 N 44.343 -0.763751 1.37857 0
M  V30 459 C 45.591 -1.51957 1.33243 0
M  V30 460 C 45.912 -1.94835 -0.0801709 0
M  V30 461 O 45.182 -1.66894 -1.02582 0
M  V30 462 H 43.762 -0.563626 0.49024 0
M  V30 463 H 46.424 -0.908504 1.7243 0
M  V30 464 H 45.52 -2.41523 1.97669 0
M  V30 465 N 45.8211 -1.22559 -0.990812 0
M  V30 466 C 47.0461 -1.07862 -1.77145 0
M  V30 467 C 47.4711 0.366447 -1.84496 0
M  V30 468 O 46.8291 1.26478 -1.29896 0
M  V30 469 C 46.8771 -1.69686 -3.18181 0
M  V30 470 O 45.9811 -0.951946 -4.01263 0
M  V30 471 H 45.3221 -0.378712 -0.545411 0
M  V30 472 H 47.8521 -1.62399 -1.2445 0
M  V30 473 H 47.8621 -1.74496 -3.68802 0
M  V30 474 H 46.5371 -2.74841 -3.12146 0
M  V30 475 H 45.1141 -0.980011 -3.59792 0
M  V30 476 N 47.2992 1.18797 -1.03562 0
M  V30 477 C 48.2292 2.24472 -0.643019 0
M  V30 478 C 49.2102 1.66433 0.351283 0
M  V30 479 O 50.3952 1.92803 0.232505 0
M  V30 480 C 47.5252 3.473 4.24935e-05 0
M  V30 481 C 46.4792 4.18055 -0.917257 0
M  V30 482 C 45.8052 5.34519 -0.138941 0
M  V30 483 C 47.1052 4.72109 -2.23407 0
M  V30 484 H 48.7992 2.57566 -1.52643 0
M  V30 485 H 46.3452 1.23806 -0.735394 0
M  V30 486 H 48.2982 4.20426 0.286383 0
M  V30 487 H 47.0222 3.13424 0.918299 0
M  V30 488 H 45.6812 3.46821 -1.1879 0
M  V30 489 H 45.3292 4.96891 0.781562 0
M  V30 490 H 45.0292 5.82794 -0.750005 0
M  V30 491 H 46.5532 6.10438 0.1405 0
M  V30 492 H 47.9672 5.36955 -2.00879 0
M  V30 493 H 46.3642 5.30897 -2.79765 0
M  V30 494 H 47.4342 3.89807 -2.88407 0
M  V30 495 N 48.7773 0.814389 1.34928 0
M  V30 496 C 50.0023 0.410097 2.03305 0
M  V30 497 C 50.4273 -0.973464 1.60951 0
M  V30 498 O 49.7853 -1.63185 0.789964 0
M  V30 499 C 49.8333 0.51049 3.56968 0
M  V30 500 O 48.9373 -0.473035 4.09678 0
M  V30 501 H 48.2783 0.170088 0.641846 0
M  V30 502 H 50.8083 1.10244 1.72358 0
M  V30 503 H 50.8183 0.383135 4.06197 0
M  V30 504 H 49.4933 1.51963 3.87144 0
M  V30 505 H 48.0703 -0.305272 3.71648 0
M  V30 506 N 50.2554 -1.46986 0.568584 0
M  V30 507 C 51.1854 -2.32946 -0.160753 0
M  V30 508 C 52.1664 -1.44487 -0.897631 0
M  V30 509 O 53.3514 -1.73327 -0.875867 0
M  V30 510 C 50.4814 -3.26494 -1.18403 0
M  V30 511 C 49.4354 -4.24282 -0.562895 0
M  V30 512 C 48.7614 -5.07236 -1.69163 0
M  V30 513 C 50.0614 -5.19989 0.490761 0
M  V30 514 H 51.7554 -2.94175 0.556916 0
M  V30 515 H 49.3014 -1.4146 0.26927 0
M  V30 516 H 51.2544 -3.85477 -1.70251 0
M  V30 517 H 49.9784 -2.63343 -1.93179 0
M  V30 518 H 48.6374 -3.66541 -0.0656164 0
M  V30 519 H 48.2854 -4.4048 -2.42871 0
M  V30 520 H 47.9854 -5.7345 -1.28174 0
M  V30 521 H 49.5094 -5.6908 -2.21314 0
M  V30 522 H 50.9234 -5.73271 0.0579047 0
M  V30 523 H 49.3204 -5.94469 0.820165 0
M  V30 524 H 50.3904 -4.64777 1.3824 0
M  V30 525 N 51.7335 -0.305618 -1.54608 0
M  V30 526 C 52.9795 0.302746 -2.00528 0
M  V30 527 C 53.3125 1.53184 -1.19367 0
M  V30 528 O 52.5875 1.92598 -0.271321 0
M  V30 529 C 52.8705 0.654756 -3.54097 0
M  V30 530 C 52.7235 -0.583793 -4.45995 0
M  V30 531 C 54.0425 1.47947 -4.14487 0
M  V30 532 H 51.1615 0.108564 -0.72896 0
M  V30 533 H 53.8035 -0.418634 -1.85331 0
M  V30 534 H 51.9535 1.26935 -3.67178 0
M  V30 535 H 53.6255 -1.22224 -4.44814 0
M  V30 536 H 51.8685 -1.21615 -4.16404 0
M  V30 537 H 52.5395 -0.293287 -5.5122 0
M  V30 538 H 55.0155 0.96013 -4.04871 0
M  V30 539 H 53.8915 1.69454 -5.22088 0
M  V30 540 H 54.1525 2.47011 -3.66658 0
M  V30 541 N 53.2116 1.57565 -0.0334293 0
M  V30 542 C 54.4396 1.9628 0.654347 0
M  V30 543 C 54.8546 0.910138 1.65414 0
M  V30 544 O 54.2116 -0.107595 1.82183 0
M  V30 545 C 54.2626 3.35067 1.35693 0
M  V30 546 O 53.9836 4.36296 0.397191 0
M  V30 547 C 55.4846 3.88439 2.13613 0
M  V30 548 H 52.7046 0.646369 0.180132 0
M  V30 549 H 55.2486 2.04282 -0.0944721 0
M  V30 550 H 53.4036 3.2827 2.05712 0
M  V30 551 H 53.8176 5.1678 0.896597 0
M  V30 552 H 55.2916 4.8788 2.58219 0
M  V30 553 H 55.7686 3.22914 2.97696 0
M  V30 554 H 56.3746 3.98516 1.48543 0
M  V30 555 N 54.6897 -0.239769 1.55765 0
M  V30 556 C 55.9387 -0.964754 1.77131 0
M  V30 557 C 56.2517 -1.86213 0.59868 0
M  V30 558 O 57.4577 -2.6244 0.695522 0
M  V30 559 C 55.9137 -1.76552 3.1362 0
M  V30 560 C 55.5217 -0.915185 4.38553 0
M  V30 561 C 57.2657 -2.48281 3.44321 0
M  V30 562 C 55.1727 -1.71225 5.66071 0
M  V30 563 H 54.1027 -0.363953 0.660344 0
M  V30 564 H 56.7537 -0.219181 1.82186 0
M  V30 565 H 55.1357 -2.55331 3.02691 0
M  V30 566 H 56.3097 -0.169217 4.60489 0
M  V30 567 H 54.6247 -0.310889 4.15238 0
M  V30 568 H 57.2217 -3.08382 4.36812 0
M  V30 569 H 57.5647 -3.20256 2.65973 0
M  V30 570 H 58.0977 -1.76507 3.56497 0
M  V30 571 H 54.8367 -1.03612 6.4726 0
M  V30 572 H 54.3567 -2.43331 5.48224 0
M  V30 573 H 56.0357 -2.27758 6.05587 0
M  V30 574 N 56.1678 -1.49265 -0.50573 0
M  V30 575 C 57.4168 -1.57761 -1.25675 0
M  V30 576 C 57.7298 -0.267371 -1.93764 0
M  V30 577 O 58.9358 -0.230827 -2.70517 0
M  V30 578 C 57.3918 -2.78332 -2.28165 0
M  V30 579 C 56.9998 -4.16096 -1.66037 0
M  V30 580 C 58.7438 -2.96155 -3.04125 0
M  V30 581 C 56.6508 -5.27895 -2.6661 0
M  V30 582 H 55.5808 -0.587391 -0.472745 0
M  V30 583 H 58.2318 -1.75644 -0.53118 0
M  V30 584 H 56.6138 -2.53934 -3.03865 0
M  V30 585 H 57.7878 -4.50612 -0.963622 0
M  V30 586 H 56.1028 -4.03591 -1.02484 0
M  V30 587 H 58.6998 -3.76849 -3.79327 0
M  V30 588 H 59.0428 -2.06534 -3.61455 0
M  V30 589 H 59.5758 -3.2057 -2.35541 0
M  V30 590 H 56.3148 -6.1956 -2.14068 0
M  V30 591 H 55.8348 -4.97839 -3.34539 0
M  V30 592 H 57.5138 -5.57031 -3.29129 0
M  V30 593 N 57.6459 0.756429 -1.3826 0
M  V30 594 C 58.8939 1.51248 -1.34047 0
M  V30 595 C 59.2149 1.94875 0.0698372 0
M  V30 596 O 58.4849 1.67436 1.01696 0
M  V30 597 H 57.0649 0.561018 -0.493222 0
M  V30 598 H 59.7269 0.899347 -1.7291 0
M  V30 599 H 58.8229 2.40472 -1.98947 0
M  V30 600 N 59.124 1.23083 0.984299 0
M  V30 601 C 60.072 1.00593 2.09723 0
M  V30 602 C 61.066 -0.0538014 1.69315 0
M  V30 603 O 62.272 0.0993719 1.79725 0
M  V30 604 H 58.647 0.30817 0.685956 0
M  V30 605 H 60.618 1.95012 2.2586 0
M  V30 606 C 59.367 0.609601 3.42314 0
M  V30 607 H 58.69 1.41675 3.73856 0
M  V30 608 H 60.13 0.491726 4.21139 0
M  V30 609 C 58.589 -0.681745 3.2993 0
M  V30 610 O 59.119 -1.73192 3.62446 0
M  V30 611 N 57.325 -0.656178 2.83095 0
M  V30 612 H 56.872 0.198759 2.56832 0
M  V30 613 H 56.83 -1.52044 2.75191 0
M  V30 614 N 60.6021 -1.18246 1.0419 0
M  V30 615 C 61.8511 -1.87588 0.741194 0
M  V30 616 C 62.1641 -1.81303 -0.734066 0
M  V30 617 O 63.3701 -2.46019 -1.14834 0
M  V30 618 C 61.8261 -3.36538 1.27555 0
M  V30 619 C 61.4341 -3.51349 2.77953 0
M  V30 620 C 63.1781 -4.11273 1.05143 0
M  V30 621 C 61.0851 -4.94265 3.2474 0
M  V30 622 H 60.0151 -0.702622 0.273565 0
M  V30 623 H 62.6661 -1.33601 1.25789 0
M  V30 624 H 61.0481 -3.9 0.686703 0
M  V30 625 H 62.2221 -3.08153 3.42605 0
M  V30 626 H 60.5371 -2.90022 2.98791 0
M  V30 627 H 63.1341 -5.16689 1.37611 0
M  V30 628 H 63.4771 -4.16298 -0.0112774 0
M  V30 629 H 64.0101 -3.63987 1.60495 0
M  V30 630 H 60.7491 -4.94408 4.30396 0
M  V30 631 H 60.2691 -5.38172 2.64823 0
M  V30 632 H 61.9481 -5.62987 3.18834 0
M  V30 633 N 62.0802 -0.821533 -1.34494 0
M  V30 634 C 63.0102 -0.257138 -2.3208 0
M  V30 635 C 63.9912 0.625645 -1.58176 0
M  V30 636 O 65.1762 0.552811 -1.86166 0
M  V30 637 C 62.3062 0.582958 -3.42372 0
M  V30 638 C 61.2602 -0.202571 -4.2752 0
M  V30 639 C 60.5862 0.760179 -5.29269 0
M  V30 640 C 61.8862 -1.40998 -5.02908 0
M  V30 641 H 63.5802 -1.07247 -2.79532 0
M  V30 642 H 61.1262 -0.517163 -1.34393 0
M  V30 643 H 63.0792 0.987972 -4.09655 0
M  V30 644 H 61.8032 1.43133 -2.93565 0
M  V30 645 H 60.4622 -0.588936 -3.61838 0
M  V30 646 H 60.1102 1.60447 -4.76724 0
M  V30 647 H 59.8102 0.238809 -5.87115 0
M  V30 648 H 61.3342 1.16308 -5.9942 0
M  V30 649 H 62.7482 -1.07905 -5.63054 0
M  V30 650 H 61.1452 -1.86689 -5.70322 0
M  V30 651 H 62.2152 -2.1889 -4.32684 0
M  V30 652 N 63.5583 1.46682 -0.576371 0
M  V30 653 C 64.8043 2.02712 -0.0596221 0
M  V30 654 C 65.1373 1.44765 1.29448 0
M  V30 655 O 64.4123 0.610355 1.84675 0
M  V30 656 C 64.6953 3.60098 0.0129503 0
M  V30 657 C 64.5483 4.28441 -1.3696 0
M  V30 658 C 65.8673 4.34224 0.71678 0
M  V30 659 H 62.9863 0.736637 -0.0231407 0
M  V30 660 H 65.6283 1.74898 -0.742351 0
M  V30 661 H 63.7783 3.83926 0.594378 0
M  V30 662 H 65.4503 4.15896 -1.9957 0
M  V30 663 H 63.6933 3.8805 -1.93907 0
M  V30 664 H 64.3643 5.3716 -1.27135 0
M  V30 665 H 66.8403 4.15503 0.222908 0
M  V30 666 H 65.7163 5.43936 0.73657 0
M  V30 667 H 65.9773 4.04823 1.77682 0
M  V30 668 N 65.0364 0.313813 1.54444 0
M  V30 669 C 65.9694 -0.598866 2.20202 0
M  V30 670 C 66.9474 -1.12318 1.17573 0
M  V30 671 O 68.1314 -1.18899 1.46271 0
M  V30 672 C 65.2584 -1.82071 2.85601 0
M  V30 673 C 64.3044 -1.42851 4.01865 0
M  V30 674 S 65.1374 -0.473512 5.33402 0
M  V30 675 C 66.2934 -1.70286 6.0229 0
M  V30 676 H 66.5264 -0.0402532 2.97273 0
M  V30 677 H 64.0594 0.0979165 1.54089 0
M  V30 678 H 66.0174 -2.52184 3.23904 0
M  V30 679 H 64.6784 -2.3505 2.08351 0
M  V30 680 H 63.8714 -2.33871 4.46453 0
M  V30 681 H 63.4734 -0.807198 3.65185 0
M  V30 682 H 65.7654 -2.64168 6.23876 0
M  V30 683 H 66.7084 -1.29932 6.96077 0
M  V30 684 H 67.1164 -1.88541 5.32083 0
M  V30 685 N 66.5145 -1.57545 0.0417849 0
M  V30 686 C 67.7605 -1.92601 -0.635021 0
M  V30 687 C 68.0935 -0.919627 -1.71045 0
M  V30 688 O 67.3685 0.0557892 -1.9442 0
M  V30 689 C 67.6515 -3.38085 -1.23979 0
M  V30 690 C 67.5045 -4.49467 -0.173057 0
M  V30 691 C 68.8235 -3.83776 -2.15416 0
M  V30 692 H 65.9425 -0.700397 -0.229374 0
M  V30 693 H 68.5845 -1.89728 0.101633 0
M  V30 694 H 66.7345 -3.40664 -1.86762 0
M  V30 695 H 68.4065 -4.59018 0.458312 0
M  V30 696 H 66.6495 -4.30909 0.499996 0
M  V30 697 H 67.3205 -5.48323 -0.636054 0
M  V30 698 H 69.7965 -3.83013 -1.62605 0
M  V30 699 H 68.6725 -4.8624 -2.54679 0
M  V30 700 H 68.9335 -3.19998 -3.05047 0
M  V30 701 N 67.9926 0.231505 -1.5589 0
M  V30 702 C 69.2176 0.978689 -1.82856 0
M  V30 703 C 69.6426 1.77559 -0.620846 0
M  V30 704 O 69.0006 1.76119 0.430305 0
M  V30 705 C 69.0486 1.87997 -3.07716 0
M  V30 706 O 68.1526 2.97393 -2.85712 0
M  V30 707 H 67.4936 0.277663 -0.603158 0
M  V30 708 H 70.0236 0.24783 -2.03093 0
M  V30 709 H 70.0336 2.2917 -3.37558 0
M  V30 710 H 68.7086 1.29417 -3.95252 0
M  V30 711 H 67.2856 2.60238 -2.67078 0
M  V30 712 N 69.4707 1.49531 0.497807 0
M  V30 713 C 70.7197 1.58426 1.24837 0
M  V30 714 C 71.0327 0.277643 1.93619 0
M  V30 715 O 72.2387 0.24517 2.70391 0
M  V30 716 C 70.6947 2.79538 2.26686 0
M  V30 717 C 70.3027 4.16971 1.63828 0
M  V30 718 C 72.0467 2.97764 3.0255 0
M  V30 719 C 69.9537 5.29301 2.63807 0
M  V30 720 H 68.8837 0.58989 0.469623 0
M  V30 721 H 71.5347 1.75923 0.521857 0
M  V30 722 H 69.9167 2.55542 3.02514 0
M  V30 723 H 71.0907 4.51116 0.939711 0
M  V30 724 H 69.4057 4.04129 1.00342 0
M  V30 725 H 72.0027 3.78856 3.77323 0
M  V30 726 H 72.3457 2.08448 3.60354 0
M  V30 727 H 72.8787 3.21815 2.33838 0
M  V30 728 H 69.6177 6.20687 2.10779 0
M  V30 729 H 69.1377 4.99606 3.31894 0
M  V30 730 H 70.8167 5.58768 3.2617 0
M  V30 731 N 70.9488 -0.749086 1.3866 0
M  V30 732 C 71.8958 -1.86291 1.36251 0
M  V30 733 C 72.8658 -1.64578 0.224347 0
M  V30 734 O 74.0508 -1.86181 0.417279 0
M  V30 735 C 71.1908 -3.23644 1.19786 0
M  V30 736 C 70.3038 -3.57158 2.43027 0
M  V30 737 C 69.4388 -4.83838 2.19258 0
M  V30 738 C 68.4778 -5.10152 3.38247 0
M  V30 739 N 67.6148 -6.28029 3.13884 0
M  V30 740 H 72.4548 -1.87685 2.3147 0
M  V30 741 H 69.9918 -0.917287 1.14997 0
M  V30 742 H 71.9498 -4.0291 1.08254 0
M  V30 743 H 70.5798 -3.21566 0.282031 0
M  V30 744 H 69.6318 -2.72701 2.65214 0
M  V30 745 H 70.9438 -3.7253 3.31697 0
M  V30 746 H 70.0978 -5.71057 2.04888 0
M  V30 747 H 68.8368 -4.70614 1.2796 0
M  V30 748 H 67.8418 -4.21401 3.53131 0
M  V30 749 H 69.0668 -5.25271 4.30427 0
M  V30 750 H 67.0128 -6.1612 2.25238 0
M  V30 751 H 66.9298 -6.43922 3.96106 0
M  V30 752 H 68.1978 -7.18124 3.03179 0
M  V30 753 N 72.4269 -1.23603 -0.977757 0
M  V30 754 C 73.6729 -1.07129 -1.72195 0
M  V30 755 C 74.0059 0.390501 -1.90233 0
M  V30 756 O 73.2809 1.28902 -1.45653 0
M  V30 757 C 73.5639 -1.80031 -3.11867 0
M  V30 758 C 73.4169 -3.33899 -3.01383 0
M  V30 759 C 74.7359 -1.56492 -4.11337 0
M  V30 760 H 71.8549 -0.390571 -0.624999 0
M  V30 761 H 74.4969 -1.52142 -1.13811 0
M  V30 762 H 72.6469 -1.41768 -3.6171 0
M  V30 763 H 74.3189 -3.81699 -2.59043 0
M  V30 764 H 72.5619 -3.62796 -2.37827 0
M  V30 765 H 73.2329 -3.801 -4.00285 0
M  V30 766 H 75.7089 -1.89757 -3.70313 0
M  V30 767 H 74.5849 -2.09973 -5.07151 0
M  V30 768 H 74.8459 -0.500874 -4.39254 0
M  V30 769 N 73.905 1.17692 -1.04816 0
M  V30 770 C 74.853 2.23632 -0.63966 0
M  V30 771 C 75.847 1.6601 0.337219 0
M  V30 772 O 77.053 1.78844 0.203693 0
M  V30 773 H 73.428 0.727949 -0.188665 0
M  V30 774 H 75.399 2.55387 -1.54337 0
M  V30 775 C 74.148 3.4769 -0.0264051 0
M  V30 776 H 73.471 3.92331 -0.769164 0
M  V30 777 H 74.911 4.23418 0.222098 0
M  V30 778 C 73.37 3.13807 1.22584 0
M  V30 779 O 73.9 3.28236 2.31569 0
M  V30 780 N 72.106 2.68065 1.12202 0
M  V30 781 H 71.653 2.56525 0.235133 0
M  V30 782 H 71.611 2.45767 1.96076 0
M  V30 783 N 75.3831 0.828654 1.34056 0
M  V30 784 C 76.7991 0.515135 1.51058 0
M  V30 785 C 76.9991 -0.959581 1.77184 0
M  V30 786 O 76.0551 -1.74382 1.82612 0
M  V30 787 C 77.3681 1.37963 2.67183 0
M  V30 788 C 78.9161 1.37735 2.81066 0
M  V30 789 C 79.3911 2.22645 4.00241 0
M  V30 790 N 80.8821 2.203 4.07458 0
M  V30 791 C 81.6171 2.82744 4.98842 0
M  V30 792 N 81.1131 3.54201 5.9541 0
M  V30 793 N 82.9061 2.72268 4.91759 0
M  V30 794 H 75.0571 1.78343 1.15358 0
M  V30 795 H 77.3201 0.760304 0.566252 0
M  V30 796 H 77.0261 2.42714 2.54525 0
M  V30 797 H 76.9001 1.0484 3.62338 0
M  V30 798 H 79.2871 0.337593 2.93163 0
M  V30 799 H 79.3681 1.74859 1.86703 0
M  V30 800 H 79.0121 3.26674 3.88905 0
M  V30 801 H 78.9421 1.82869 4.93829 0
M  V30 802 H 81.4331 1.68327 3.38341 0
M  V30 803 H 81.7461 3.9908 6.61782 0
M  V30 804 H 80.0911 3.58308 5.95517 0
M  V30 805 H 83.2821 2.16014 4.15278 0
M  V30 806 H 83.4551 3.21219 5.62781 0
M  V30 807 N 76.8612 -1.46375 0.584142 0
M  V30 808 C 77.8112 -2.27371 -0.169232 0
M  V30 809 C 78.7952 -1.35955 -0.860523 0
M  V30 810 O 79.9872 -1.60119 -0.754382 0
M  V30 811 C 77.1162 -3.22334 -1.18134 0
M  V30 812 C 76.2022 -4.21235 -0.492088 0
M  V30 813 N 76.5932 -5.03766 0.453129 0
M  V30 814 C 74.8912 -4.39773 -0.742652 0
M  V30 815 C 75.5922 -5.75366 0.85609 0
M  V30 816 N 74.5682 -5.43214 0.204926 0
M  V30 817 H 78.3702 -2.88572 0.557097 0
M  V30 818 H 75.8842 -1.57242 0.406042 0
M  V30 819 H 77.8812 -3.79071 -1.73525 0
M  V30 820 H 76.5412 -2.62693 -1.90847 0
M  V30 821 H 77.5522 -5.11227 0.828723 0
M  V30 822 H 74.2292 -3.91279 -1.45625 0
M  V30 823 H 75.6192 -6.5172 1.63434 0
M  V30 824 N 78.3393 -0.321999 -1.54275 0
M  V30 825 C 79.2693 0.537411 -2.27231 0
M  V30 826 C 80.2503 1.12064 -1.27968 0
M  V30 827 O 81.4353 1.14606 -1.56777 0
M  V30 828 C 78.5653 1.69919 -3.02894 0
M  V30 829 C 77.5193 1.24534 -4.09482 0
M  V30 830 C 76.8453 2.49394 -4.72977 0
M  V30 831 C 78.1453 0.361335 -5.21049 0
M  V30 832 H 79.8393 -0.0711406 -2.99315 0
M  V30 833 H 77.3853 -0.0356555 -1.43956 0
M  V30 834 H 79.3383 2.30668 -3.52662 0
M  V30 835 H 78.0623 2.33431 -2.28424 0
M  V30 836 H 76.7213 0.660782 -3.60596 0
M  V30 837 H 76.3693 3.11265 -3.95124 0
M  V30 838 H 76.0693 2.19718 -5.44975 0
M  V30 839 H 77.5933 3.10908 -5.25517 0
M  V30 840 H 79.0073 0.875072 -5.66582 0
M  V30 841 H 77.4043 0.157428 -5.99893 0
M  V30 842 H 78.4743 -0.60822 -4.8107 0
M  V30 843 N 79.8174 1.5752 -0.0501392 0
M  V30 844 C 80.7494 2.08413 0.95376 0
M  V30 845 C 81.7624 1.01175 1.27544 0
M  V30 846 O 82.9514 1.28744 1.23641 0
M  V30 847 C 80.0514 2.51138 2.27559 0
M  V30 848 C 79.2244 3.817 2.13598 0
M  V30 849 C 78.2834 4.10749 3.28895 0
M  V30 850 O 77.3094 4.80685 3.04845 0
M  V30 851 N 78.5114 3.62579 4.5334 0
M  V30 852 H 81.2764 2.95165 0.519383 0
M  V30 853 H 78.8374 1.61327 0.136127 0
M  V30 854 H 80.8294 2.67648 3.03557 0
M  V30 855 H 79.3994 1.6964 2.62567 0
M  V30 856 H 78.6194 3.74782 1.22197 0
M  V30 857 H 79.9074 4.67201 2.01496 0
M  V30 858 H 79.3054 3.06039 4.75769 0
M  V30 859 H 77.8624 3.84329 5.26436 0
M  V30 860 N 81.2955 -0.223234 1.56011 0
M  V30 861 C 82.5235 -0.964812 1.83027 0
M  V30 862 C 82.9385 -1.78013 0.62904 0
M  V30 863 O 82.2955 -1.78008 -0.402414 0
M  V30 864 C 82.3465 -1.88373 3.08542 0
M  V30 865 O 82.0675 -1.10137 4.2403 0
M  V30 866 C 83.5685 -2.73934 3.48533 0
M  V30 867 H 80.7885 -0.282842 0.608475 0
M  V30 868 H 83.3325 -0.238971 2.03099 0
M  V30 869 H 81.4875 -2.56354 2.9045 0
M  V30 870 H 81.9015 -1.72501 4.95322 0
M  V30 871 H 83.3755 -3.34117 4.39397 0
M  V30 872 H 83.8525 -3.46244 2.70207 0
M  V30 873 H 84.4585 -2.11369 3.69057 0
M  V30 874 N 82.7736 -1.49793 -0.48987 0
M  V30 875 C 84.0196 -1.60078 -1.24511 0
M  V30 876 C 84.3526 -0.291608 -1.91998 0
M  V30 877 O 83.6276 0.705647 -1.81248 0
M  V30 878 C 83.9106 -2.76791 -2.30345 0
M  V30 879 C 83.7636 -4.17535 -1.67286 0
M  V30 880 C 85.0826 -2.89111 -3.31817 0
M  V30 881 H 82.2016 -0.582645 -0.451324 0
M  V30 882 H 84.8436 -1.82117 -0.541612 0
M  V30 883 H 82.9936 -2.5813 -2.90346 0
M  V30 884 H 84.6656 -4.4774 -1.11026 0
M  V30 885 H 82.9086 -4.22665 -0.976577 0
M  V30 886 H 83.5796 -4.95094 -2.44103 0
M  V30 887 H 86.0556 -3.06133 -2.81819 0
M  V30 888 H 84.9316 -3.72433 -4.03219 0
M  V30 889 H 85.1926 -1.9893 -3.94815 0
M  V30 890 N 84.2517 0.741722 -1.39055 0
M  V30 891 C 85.1997 1.87702 -1.3737 0
M  V30 892 C 86.1937 1.67427 -0.257812 0
M  V30 893 O 87.3997 1.7485 -0.427489 0
M  V30 894 H 83.7747 0.617757 -0.428812 0
M  V30 895 H 85.7457 1.86239 -2.33147 0
M  V30 896 C 84.4947 3.25315 -1.22741 0
M  V30 897 H 83.8177 3.41509 -2.07873 0
M  V30 898 H 85.2577 4.04964 -1.25618 0
M  V30 899 C 83.7167 3.36838 0.0647316 0
M  V30 900 O 84.2467 3.88073 1.03741 0
M  V30 901 N 82.4527 2.90329 0.125544 0
M  V30 902 H 81.9997 2.48823 -0.666682 0
M  V30 903 H 81.9577 2.98418 0.989639 0
M  V30 904 N 85.7298 1.2412 0.971189 0
M  V30 905 C 86.6778 1.02812 2.08644 0
M  V30 906 C 87.6718 -0.0358403 1.69362 0
M  V30 907 O 88.8778 0.118429 1.7961 0
M  V30 908 H 85.2528 0.315428 0.682649 0
M  V30 909 H 87.2238 1.97397 2.23779 0
M  V30 910 C 85.9728 0.645874 3.41649 0
M  V30 911 H 85.2958 1.45632 3.72332 0
M  V30 912 H 86.7358 0.536366 4.20594 0
M  V30 913 C 85.1948 -0.646713 3.30635 0
M  V30 914 O 85.7248 -1.69338 3.64263 0
M  V30 915 N 83.9308 -0.626115 2.83775 0
M  V30 916 H 83.4778 0.225988 2.56607 0
M  V30 917 H 83.4358 -1.49117 2.76788 0
M  V30 918 N 87.2079 -1.17134 1.05439 0
M  V30 919 C 88.4379 -1.91094 0.785274 0
M  V30 920 C 88.8459 -1.77198 -0.663142 0
M  V30 921 O 88.1889 -1.10835 -1.46497 0
M  V30 922 C 88.2509 -3.42594 1.08949 0
M  V30 923 C 87.9149 -3.80274 2.53458 0
M  V30 924 C 88.9119 -3.82912 3.51673 0
M  V30 925 C 86.5969 -4.11162 2.88532 0
M  V30 926 C 88.5909 -4.15913 4.83006 0
M  V30 927 C 86.2779 -4.43831 4.20068 0
M  V30 928 C 87.2759 -4.46185 5.17115 0
M  V30 929 O 86.9639 -4.78083 6.46291 0
M  V30 930 H 86.6959 -0.613073 0.284811 0
M  V30 931 H 89.2499 -1.49461 1.40893 0
M  V30 932 H 87.4799 -3.84534 0.408741 0
M  V30 933 H 89.1689 -3.97817 0.805991 0
M  V30 934 H 89.9349 -3.5917 3.25917 0
M  V30 935 H 85.8139 -4.085 2.13656 0
M  V30 936 H 89.3579 -4.17665 5.5875 0
M  V30 937 H 85.2549 -4.67037 4.45586 0
M  V30 938 H 86.0229 -4.9593 6.51149 0
M  V30 939 N 88.686 -0.835752 -1.33615 0
M  V30 940 C 89.933 -0.429959 -1.97883 0
M  V30 941 C 90.261 1.01006 -1.66217 0
M  V30 942 O 89.516 1.72047 -0.93265 0
M  V30 943 C 89.815 -0.593925 -3.52431 0
M  V30 944 C 89.481 -2.00158 -4.04039 0
M  V30 945 C 88.143 -2.38662 -4.17844 0
M  V30 946 C 90.495 -2.92117 -4.31644 0
M  V30 947 C 87.823 -3.68435 -4.56588 0
M  V30 948 C 90.175 -4.21368 -4.71838 0
M  V30 949 C 88.839 -4.59833 -4.83849 0
M  V30 950 H 88.109 -0.157333 -0.724104 0
M  V30 951 H 90.756 -1.06217 -1.59343 0
M  V30 952 H 89.061 0.121619 -3.91611 0
M  V30 953 H 90.758 -0.260282 -4.00154 0
M  V30 954 H 87.348 -1.69252 -3.93766 0
M  V30 955 H 91.532 -2.63608 -4.20505 0
M  V30 956 H 86.788 -3.98046 -4.64079 0
M  V30 957 H 90.962 -4.92703 -4.92155 0
M  V30 958 H 88.589 -5.60438 -5.13627 0
M  V30 959 N 90.1641 1.46063 -0.591896 0
M  V30 960 C 91.0941 2.33172 0.123673 0
M  V30 961 C 92.0751 1.45897 0.87453 0
M  V30 962 O 93.2601 1.74698 0.848181 0
M  V30 963 C 90.3901 3.28336 1.13194 0
M  V30 964 C 89.3441 4.25124 0.495324 0
M  V30 965 C 88.6701 5.09863 1.61071 0
M  V30 966 C 89.9701 5.19143 -0.573425 0
M  V30 967 H 91.6641 2.93252 -0.603646 0
M  V30 968 H 89.2101 1.41014 -0.291741 0
M  V30 969 H 91.1631 3.88137 1.64097 0
M  V30 970 H 89.8871 2.66383 1.88965 0
M  V30 971 H 88.5461 3.66599 0.00729452 0
M  V30 972 H 88.1941 4.44288 2.35832 0
M  V30 973 H 87.8941 5.75417 1.19035 0
M  V30 974 H 89.4181 5.72529 2.12233 0
M  V30 975 H 90.8321 5.73106 -0.1491 0
M  V30 976 H 89.2291 5.93089 -0.914636 0
M  V30 977 H 90.2991 4.62519 -1.45617 0
M  V30 978 N 91.6422 0.330177 1.54103 0
M  V30 979 C 92.8892 -0.270405 2.00686 0
M  V30 980 C 93.2172 -1.51621 1.21825 0
M  V30 981 O 92.4722 -1.93536 0.29025 0
M  V30 982 C 92.7712 -0.643134 3.51566 0
M  V30 983 C 92.4372 0.504251 4.48072 0
M  V30 984 C 91.0992 0.819163 4.74176 0
M  V30 985 C 93.4512 1.27465 5.05373 0
M  V30 986 C 90.7792 1.90708 5.5484 0
M  V30 987 C 93.1312 2.35271 5.87223 0
M  V30 988 C 91.7952 2.67336 6.11627 0
M  V30 989 H 91.0652 -0.0989482 0.734364 0
M  V30 990 H 93.7122 0.455324 1.86008 0
M  V30 991 H 92.0172 -1.44938 3.64006 0
M  V30 992 H 93.7142 -1.11949 3.85056 0
M  V30 993 H 90.3042 0.248733 4.27878 0
M  V30 994 H 94.4882 1.04462 4.85182 0
M  V30 995 H 89.7442 2.15991 5.71977 0
M  V30 996 H 93.9182 2.95405 6.30641 0
M  V30 997 H 91.5452 3.51763 6.73919 0
M  V30 998 N 93.1203 -1.57491 0.0584922 0
M  V30 999 C 94.3453 -1.97711 -0.62652 0
M  V30 1000 C 94.7703 -0.936132 -1.63151 0
M  V30 1001 O 94.1283 0.099811 -1.81025 0
M  V30 1002 C 94.1763 -3.36989 -1.28338 0
M  V30 1003 O 93.2803 -3.35433 -2.39913 0
M  V30 1004 H 92.6213 -0.643868 -0.162266 0
M  V30 1005 H 95.1513 -2.04193 0.129064 0
M  V30 1006 H 95.1613 -3.73879 -1.63335 0
M  V30 1007 H 93.8363 -4.12289 -0.546889 0
M  V30 1008 H 92.4133 -3.10298 -2.06809 0
M  V30 1009 N 94.5984 0.214957 -1.56127 0
M  V30 1010 C 95.5284 1.2695 -1.95974 0
M  V30 1011 C 96.5094 1.48539 -0.828868 0
M  V30 1012 O 97.6944 1.60611 -1.09168 0
M  V30 1013 C 94.8244 2.61794 -2.28214 0
M  V30 1014 C 93.7784 2.54851 -3.43853 0
M  V30 1015 C 93.1044 3.93785 -3.61715 0
M  V30 1016 C 94.4044 2.09065 -4.78632 0
M  V30 1017 H 96.0984 0.93846 -2.84312 0
M  V30 1018 H 93.6444 0.449996 -1.36788 0
M  V30 1019 H 95.5974 3.35731 -2.54682 0
M  V30 1020 H 94.3214 2.96599 -1.36736 0
M  V30 1021 H 92.9804 1.8337 -3.17444 0
M  V30 1022 H 92.6284 4.25908 -2.67602 0
M  V30 1023 H 92.3284 3.90019 -4.39498 0
M  V30 1024 H 93.8524 4.69374 -3.90539 0
M  V30 1025 H 95.2664 2.7275 -5.04262 0
M  V30 1026 H 93.6634 2.16346 -5.59745 0
M  V30 1027 H 94.7334 1.04315 -4.73547 0
M  V30 1028 N 96.0765 1.50051 0.48192 0
M  V30 1029 C 97.0395 1.67584 1.5636 0
M  V30 1030 C 98.0395 0.546894 1.51214 0
M  V30 1031 O 99.2295 0.813725 1.54026 0
M  V30 1032 C 96.3615 1.691 2.96003 0
M  V30 1033 H 97.5545 2.64078 1.42136 0
M  V30 1034 H 95.1075 1.39369 0.707533 0
M  V30 1035 H 95.8425 0.742589 3.15684 0
M  V30 1036 H 95.6275 2.51105 3.01146 0
M  V30 1037 H 97.1175 1.84656 3.74556 0
M  V30 1038 N 97.5546 -0.734337 1.39446 0
M  V30 1039 C 98.7946 -1.50655 1.38139 0
M  V30 1040 C 99.1586 -1.91986 -0.0228701 0
M  V30 1041 O 100.36 -2.68318 -0.160947 0
M  V30 1042 C 98.6306 -2.71251 2.32718 0
M  V30 1043 S 100.19 -3.60892 2.49605 0
M  V30 1044 H 97.0076 -0.515315 0.489869 0
M  V30 1045 H 99.6096 -0.860392 1.75549 0
M  V30 1046 H 98.3136 -2.39027 3.33608 0
M  V30 1047 H 97.8446 -3.40795 1.96526 0
M  V30 1048 H 99.8596 -4.64899 1.73446 0
M  V30 1049 N 99.0327 -1.24633 -0.964593 0
M  V30 1050 C 99.9957 -1.0424 -2.04124 0
M  V30 1051 C 100.996 0.00137563 -1.608 0
M  V30 1052 O 102.186 -0.239883 -1.7254 0
M  V30 1053 C 99.3177 -0.580588 -3.3592 0
M  V30 1054 H 100.511 -1.99803 -2.23649 0
M  V30 1055 H 98.0637 -1.06899 -1.14027 0
M  V30 1056 H 98.7987 0.3781 -3.22088 0
M  V30 1057 H 98.5837 -1.33398 -3.6871 0
M  V30 1058 H 100.074 -0.459034 -4.15069 0
M  V30 1059 N 100.511 1.16574 -1.06058 0
M  V30 1060 C 101.788 1.83048 -0.689416 0
M  V30 1061 C 102.168 1.94122 0.829443 0
M  V30 1062 O 101.516 1.48249 1.7388 0
M  V30 1063 C 101.726 3.20186 -1.38859 0
M  V30 1064 C 103.074 3.95989 -1.53226 0
M  V30 1065 O 104.098 3.29696 -1.3483 0
M  V30 1066 O 102.957 5.14813 -1.83384 0
M  V30 1067 H 100.051 0.790258 -0.243764 0
M  V30 1068 H 102.597 1.23797 -1.16071 0
M  V30 1069 H 101.369 3.07146 -2.4244 0
M  V30 1070 H 100.992 3.87112 -0.907216 0
M  V30 1071 N 101.989 0.842826 1.3317 0
M  V30 1072 C 102.919 0.294028 2.31641 0
M  V30 1073 C 103.9 -0.600401 1.59151 0
M  V30 1074 O 105.085 -0.523124 1.87022 0
M  V30 1075 C 102.215 -0.528416 3.43257 0
M  V30 1076 C 101.169 0.27056 4.27144 0
M  V30 1077 C 100.495 -0.675881 5.30411 0
M  V30 1078 C 101.795 1.48981 5.00602 0
M  V30 1079 H 103.489 1.11681 2.77791 0
M  V30 1080 H 101.035 0.538478 1.33553 0
M  V30 1081 H 102.988 -0.922674 4.11175 0
M  V30 1082 H 101.712 -1.38445 2.95805 0
M  V30 1083 H 100.371 0.646427 3.60856 0
M  V30 1084 H 100.019 -1.52842 4.79216 0
M  V30 1085 H 99.7189 -0.145374 5.8742 0
M  V30 1086 H 101.243 -1.06757 6.01195 0
M  V30 1087 H 102.657 1.16849 5.61266 0
M  V30 1088 H 101.054 1.95739 5.6728 0
M  V30 1089 H 102.124 2.25746 4.29147 0
M  V30 1090 N 103.467 -1.45747 0.599634 0
M  V30 1091 C 104.716 -2.01502 0.0893511 0
M  V30 1092 C 105.029 -1.4748 -1.28488 0
M  V30 1093 O 106.235 -1.95161 -1.88745 0
M  V30 1094 C 104.691 -3.59735 0.109082 0
M  V30 1095 C 104.299 -4.22754 1.48267 0
M  V30 1096 C 106.043 -4.23085 -0.346374 0
M  V30 1097 C 103.95 -5.73115 1.45921 0
M  V30 1098 H 102.88 -0.753417 0.0296347 0
M  V30 1099 H 105.531 -1.67303 0.753788 0
M  V30 1100 H 103.913 -3.91087 -0.621854 0
M  V30 1101 H 105.087 -4.02987 2.23468 0
M  V30 1102 H 103.402 -3.71567 1.87955 0
M  V30 1103 H 105.999 -5.33327 -0.38298 0
M  V30 1104 H 106.342 -3.93201 -1.36743 0
M  V30 1105 H 106.875 -3.9642 0.331038 0
M  V30 1106 H 103.614 -6.07685 2.45762 0
M  V30 1107 H 103.134 -5.95097 0.749665 0
M  V30 1108 H 104.813 -6.3616 1.17941 0
M  V30 1109 N 104.945 -0.338344 -1.53925 0
M  V30 1110 C 106.194 0.260732 -2.00008 0
M  V30 1111 C 106.507 1.52073 -1.23017 0
M  V30 1112 O 107.713 2.19672 -1.5955 0
M  V30 1113 C 106.169 0.51515 -3.56194 0
M  V30 1114 C 105.777 -0.728645 -4.42035 0
M  V30 1115 C 107.521 1.07337 -4.10706 0
M  V30 1116 C 105.428 -0.445315 -5.89721 0
M  V30 1117 H 104.358 0.101205 -0.747177 0
M  V30 1118 H 107.009 -0.452866 -1.77824 0
M  V30 1119 H 105.391 1.28932 -3.74423 0
M  V30 1120 H 106.565 -1.50352 -4.35581 0
M  V30 1121 H 104.88 -1.20813 -3.98489 0
M  V30 1122 H 107.477 1.30022 -5.18651 0
M  V30 1123 H 107.82 2.0273 -3.63602 0
M  V30 1124 H 108.353 0.360034 -3.96167 0
M  V30 1125 H 105.092 -1.36883 -6.41049 0
M  V30 1126 H 104.612 0.291569 -5.99091 0
M  V30 1127 H 106.291 -0.0606218 -6.46972 0
M  V30 1128 N 106.423 1.57458 -0.0668435 0
M  V30 1129 C 107.671 1.92919 0.602214 0
M  V30 1130 C 107.992 0.947215 1.70449 0
M  V30 1131 O 107.262 -0.00544117 1.95899 0
M  V30 1132 H 105.842 0.71217 0.22544 0
M  V30 1133 H 108.504 1.94508 -0.123535 0
M  V30 1134 H 107.6 2.94589 1.03073 0
M  V30 1135 N 107.901 -0.206675 1.56239 0
M  V30 1136 C 109.147 -0.930218 1.80208 0
M  V30 1137 C 109.48 -1.83387 0.638981 0
M  V30 1138 O 108.755 -1.91119 -0.361066 0
M  V30 1139 C 109.038 -1.75641 3.1436 0
M  V30 1140 C 108.891 -0.878257 4.41142 0
M  V30 1141 C 110.21 -2.73129 3.45092 0
M  V30 1142 H 107.329 -0.336742 0.655571 0
M  V30 1143 H 109.971 -0.198222 1.88963 0
M  V30 1144 H 108.121 -2.38048 3.07027 0
M  V30 1145 H 109.793 -0.269787 4.6051 0
M  V30 1146 H 108.036 -0.184385 4.33408 0
M  V30 1147 H 108.707 -1.49106 5.3148 0
M  V30 1148 H 111.183 -2.20856 3.52649 0
M  V30 1149 H 110.059 -3.28028 4.40101 0
M  V30 1150 H 110.32 -3.51606 2.68003 0
M  V30 1151 N 109.379 -1.50304 -0.473955 0
M  V30 1152 C 110.626 -1.6115 -1.22625 0
M  V30 1153 C 110.954 -0.310517 -1.92005 0
M  V30 1154 O 110.209 0.703419 -1.82621 0
M  V30 1155 C 110.508 -2.73938 -2.29549 0
M  V30 1156 C 110.174 -4.14519 -1.7744 0
M  V30 1157 C 108.836 -4.5277 -1.62949 0
M  V30 1158 C 111.188 -5.02392 -1.3875 0
M  V30 1159 C 108.516 -5.76639 -1.08187 0
M  V30 1160 C 110.868 -6.26805 -0.854309 0
M  V30 1161 C 109.532 -6.63861 -0.696011 0
M  V30 1162 H 108.802 -0.589691 -0.448715 0
M  V30 1163 H 111.449 -1.84228 -0.522705 0
M  V30 1164 H 109.754 -2.44937 -3.05799 0
M  V30 1165 H 111.451 -2.79534 -2.87509 0
M  V30 1166 H 108.041 -3.8434 -1.89685 0
M  V30 1167 H 112.225 -4.73474 -1.4878 0
M  V30 1168 H 107.481 -6.04027 -0.946666 0
M  V30 1169 H 111.655 -6.94258 -0.545843 0
M  V30 1170 H 109.282 -7.59722 -0.26952 0
M  V30 1171 N 110.857 0.726932 -1.39834 0
M  V30 1172 C 112.082 1.52121 -1.40976 0
M  V30 1173 C 112.507 1.88098 -0.00826029 0
M  V30 1174 O 111.865 1.52479 0.980807 0
M  V30 1175 C 111.913 2.78021 -2.29644 0
M  V30 1176 O 111.017 3.74272 -1.73188 0
M  V30 1177 H 110.358 0.45908 -0.479731 0
M  V30 1178 H 112.888 0.896207 -1.83927 0
M  V30 1179 H 112.898 3.26671 -2.44438 0
M  V30 1180 H 111.573 2.51169 -3.31492 0
M  V30 1181 H 110.15 3.33073 -1.6768 0
M  V30 1182 N 112.336 1.25143 0.95797 0
M  V30 1183 C 113.269 0.995565 2.05338 0
M  V30 1184 C 114.247 -0.0740423 1.62431 0
M  V30 1185 O 115.431 0.0649212 1.88388 0
M  V30 1186 C 112.558 0.504298 3.34925 0
M  V30 1187 C 111.604 1.56393 3.96792 0
M  V30 1188 S 112.437 3.14815 4.33188 0
M  V30 1189 C 113.593 2.67415 5.65898 0
M  V30 1190 H 113.826 1.92309 2.26726 0
M  V30 1191 H 111.359 1.08635 1.09716 0
M  V30 1192 H 113.317 0.227497 4.09869 0
M  V30 1193 H 111.978 -0.402671 3.11508 0
M  V30 1194 H 111.171 1.17082 4.90212 0
M  V30 1195 H 110.773 1.79124 3.28315 0
M  V30 1196 H 113.065 2.10833 6.4386 0
M  V30 1197 H 114.008 3.59463 6.10076 0
M  V30 1198 H 114.416 2.07521 5.24972 0
M  V30 1199 N 113.814 -1.1601 1.06675 0
M  V30 1200 C 114.762 -2.22586 0.675157 0
M  V30 1201 C 115.756 -1.66525 -0.310766 0
M  V30 1202 O 116.962 -1.79145 -0.175215 0
M  V30 1203 H 113.337 -0.724855 0.200223 0
M  V30 1204 H 115.308 -2.52899 1.58381 0
M  V30 1205 C 114.057 -3.47604 0.0817162 0
M  V30 1206 H 113.38 -3.91058 0.831484 0
M  V30 1207 H 114.82 -4.23718 -0.154708 0
M  V30 1208 C 113.279 -3.15718 -1.17576 0
M  V30 1209 O 113.809 -3.31878 -2.26318 0
M  V30 1210 N 112.015 -2.69816 -1.07923 0
M  V30 1211 H 111.562 -2.56866 -0.194293 0
M  V30 1212 H 111.52 -2.48855 -1.92141 0
M  V30 1213 N 115.292 -0.849877 -1.32721 0
M  V30 1214 C 116.222 -0.306308 -2.31482 0
M  V30 1215 C 117.203 0.591952 -1.59468 0
M  V30 1216 O 118.388 0.513199 -1.87296 0
M  V30 1217 C 115.518 0.510204 -3.43532 0
M  V30 1218 C 114.472 -0.293209 -4.26994 0
M  V30 1219 C 113.798 0.647743 -5.30762 0
M  V30 1220 C 115.098 -1.51634 -4.99804 0
M  V30 1221 H 116.792 -1.13153 -2.77195 0
M  V30 1222 H 114.338 -0.545553 -1.33266 0
M  V30 1223 H 116.291 0.900856 -4.11658 0
M  V30 1224 H 115.015 1.36874 -2.96535 0
M  V30 1225 H 113.674 -0.665555 -3.60508 0
M  V30 1226 H 113.322 1.50299 -4.8002 0
M  V30 1227 H 113.022 0.11422 -5.87489 0
M  V30 1228 H 114.546 1.03567 -6.01753 0
M  V30 1229 H 115.96 -1.19824 -5.60638 0
M  V30 1230 H 114.357 -1.98745 -5.66234 0
M  V30 1231 H 115.427 -2.28018 -4.27943 0
M  V30 1232 N 116.77 1.45427 -0.607355 0
M  V30 1233 C 118 2.06314 -0.108656 0
M  V30 1234 C 118.408 1.45269 1.21217 0
M  V30 1235 O 117.751 0.561115 1.74921 0
M  V30 1236 C 117.813 3.59345 0.105618 0
M  V30 1237 C 117.477 4.42723 -1.13337 0
M  V30 1238 C 118.474 4.77715 -2.05145 0
M  V30 1239 C 116.159 4.83478 -1.36213 0
M  V30 1240 C 118.153 5.52317 -3.18158 0
M  V30 1241 C 115.84 5.57835 -2.49527 0
M  V30 1242 C 116.838 5.92171 -3.40327 0
M  V30 1243 O 116.526 6.65019 -4.51669 0
M  V30 1244 H 116.258 0.672782 -0.0658842 0
M  V30 1245 H 118.812 1.87664 -0.834945 0
M  V30 1246 H 117.042 3.76394 0.886796 0
M  V30 1247 H 118.731 4.02076 0.555886 0
M  V30 1248 H 119.497 4.46787 -1.88697 0
M  V30 1249 H 115.376 4.56188 -0.664362 0
M  V30 1250 H 118.92 5.79036 -3.89054 0
M  V30 1251 H 114.817 5.88177 -2.65928 0
M  V30 1252 H 115.585 6.83469 -4.50348 0
M  V30 1253 N 118.248 0.346503 1.53744 0
M  V30 1254 C 119.476 -0.25041 2.05379 0
M  V30 1255 C 119.891 -1.43979 1.22129 0
M  V30 1256 O 119.248 -1.80677 0.257321 0
M  V30 1257 C 119.299 -0.662575 3.55376 0
M  V30 1258 O 119.02 0.479515 4.35468 0
M  V30 1259 C 120.521 -1.31989 4.23195 0
M  V30 1260 H 117.741 -0.0478198 0.669294 0
M  V30 1261 H 120.285 0.499346 1.9831 0
M  V30 1262 H 118.44 -1.36227 3.62658 0
M  V30 1263 H 118.854 0.15037 5.24284 0
M  V30 1264 H 120.328 -1.55902 5.29527 0
M  V30 1265 H 120.805 -2.27436 3.75725 0
M  V30 1266 H 121.411 -0.662154 4.20114 0
M  V30 1267 N 119.726 -1.57421 0.075193 0
M  V30 1268 C 120.656 -2.15942 -0.888324 0
M  V30 1269 C 121.637 -1.08737 -1.30806 0
M  V30 1270 O 122.822 -1.36787 -1.37851 0
M  V30 1271 C 119.952 -2.72379 -2.1547 0
M  V30 1272 C 118.906 -3.8478 -1.87425 0
M  V30 1273 C 118.232 -4.27834 -3.20721 0
M  V30 1274 C 119.532 -5.08869 -1.17684 0
M  V30 1275 H 121.226 -2.96705 -0.400799 0
M  V30 1276 H 118.772 -1.42723 -0.191342 0
M  V30 1277 H 120.725 -3.11965 -2.83295 0
M  V30 1278 H 119.449 -1.88841 -2.6647 0
M  V30 1279 H 118.108 -3.45703 -1.22004 0
M  V30 1280 H 117.756 -3.41214 -3.6957 0
M  V30 1281 H 117.456 -5.03605 -3.02746 0
M  V30 1282 H 118.98 -4.70039 -3.89738 0
M  V30 1283 H 120.394 -5.4575 -1.75584 0
M  V30 1284 H 118.791 -5.8994 -1.09956 0
M  V30 1285 H 119.861 -4.84648 -0.156453 0
M  V30 1286 N 121.204 0.198386 -1.56346 0
M  V30 1287 C 122.434 0.934215 -1.84271 0
M  V30 1288 C 122.842 1.77496 -0.655125 0
M  V30 1289 O 122.185 1.7961 0.385488 0
M  V30 1290 C 122.247 1.88278 -3.06254 0
M  V30 1291 C 121.911 1.22431 -4.40295 0
M  V30 1292 C 122.908 0.602839 -5.16393 0
M  V30 1293 C 120.593 1.22915 -4.87029 0
M  V30 1294 C 122.587 -0.0050083 -6.374 0
M  V30 1295 C 120.274 0.617465 -6.07973 0
M  V30 1296 C 121.272 0.00146341 -6.83 0
M  V30 1297 O 120.96 -0.600642 -8.01653 0
M  V30 1298 H 120.692 0.278245 -0.616081 0
M  V30 1299 H 123.246 0.211626 -2.04307 0
M  V30 1300 H 121.476 2.64498 -2.82095 0
M  V30 1301 H 123.165 2.48612 -3.20853 0
M  V30 1302 H 123.931 0.591265 -4.81382 0
M  V30 1303 H 119.81 1.69801 -4.28589 0
M  V30 1304 H 123.354 -0.48643 -6.95902 0
M  V30 1305 H 119.251 0.62653 -6.42452 0
M  V30 1306 H 120.019 -0.497225 -8.16988 0
M  V30 1307 N 122.682 1.50554 0.465978 0
M  V30 1308 C 123.91 1.65563 1.24083 0
M  V30 1309 C 124.325 0.341051 1.85694 0
M  V30 1310 O 123.682 -0.677543 1.69457 0
M  V30 1311 C 123.733 2.75051 2.34583 0
M  V30 1312 O 123.454 4.01413 1.75497 0
M  V30 1313 C 124.955 3.01078 3.25372 0
M  V30 1314 H 122.175 0.55638 0.375077 0
M  V30 1315 H 124.719 1.96807 0.555624 0
M  V30 1316 H 122.874 2.46486 2.9887 0
M  V30 1317 H 123.288 4.62002 2.48303 0
M  V30 1318 H 124.762 3.81339 3.99105 0
M  V30 1319 H 125.239 2.12349 3.84453 0
M  V30 1320 H 125.845 3.31194 2.66816 0
M  V30 1321 N 124.16 -0.719506 1.40217 0
M  V30 1322 C 125.406 -1.48152 1.38488 0
M  V30 1323 C 125.739 -1.94195 -0.0141867 0
M  V30 1324 O 125.014 -1.67884 -0.982096 0
M  V30 1325 C 125.297 -2.71035 2.37091 0
M  V30 1326 C 125.15 -2.30912 3.86005 0
M  V30 1327 C 126.469 -3.73182 2.33288 0
M  V30 1328 H 123.588 -0.537395 0.504357 0
M  V30 1329 H 126.23 -0.821472 1.71324 0
M  V30 1330 H 124.38 -3.27352 2.0922 0
M  V30 1331 H 126.052 -1.80107 4.24687 0
M  V30 1332 H 124.295 -1.62958 4.02029 0
M  V30 1333 H 124.966 -3.18978 4.50508 0
M  V30 1334 H 127.442 -3.26485 2.57966 0
M  V30 1335 H 126.318 -4.56806 3.04334 0
M  V30 1336 H 126.579 -4.21202 1.34317 0
M  V30 1337 N 125.638 -1.25649 -0.95132 0
M  V30 1338 C 126.887 -1.09988 -1.69073 0
M  V30 1339 C 127.2 0.358355 -1.92289 0
M  V30 1340 O 128.406 0.635466 -2.63958 0
M  V30 1341 C 126.862 -1.92012 -3.044 0
M  V30 1342 C 126.47 -3.42347 -2.88968 0
M  V30 1343 C 128.214 -1.8493 -3.82101 0
M  V30 1344 C 126.121 -4.16655 -4.19705 0
M  V30 1345 H 125.051 -0.407993 -0.63408 0
M  V30 1346 H 127.702 -1.49873 -1.05879 0
M  V30 1347 H 126.084 -1.44952 -3.68517 0
M  V30 1348 H 127.258 -3.97104 -2.33762 0
M  V30 1349 H 125.573 -3.50557 -2.24719 0
M  V30 1350 H 128.17 -2.37739 -4.78941 0
M  V30 1351 H 128.513 -0.817883 -4.08187 0
M  V30 1352 H 129.046 -2.29758 -3.2474 0
M  V30 1353 H 125.785 -5.20224 -3.98807 0
M  V30 1354 H 125.305 -3.66681 -4.74663 0
M  V30 1355 H 126.984 -4.24551 -4.88227 0
M  V30 1356 N 127.117 1.15442 -1.07289 0
M  V30 1357 C 128.365 1.85845 -0.794096 0
M  V30 1358 C 128.686 1.82692 0.681809 0
M  V30 1359 O 127.956 1.26741 1.49377 0
M  V30 1360 H 126.536 0.688089 -0.290763 0
M  V30 1361 H 129.198 1.39947 -1.3565 0
M  V30 1362 H 128.294 2.91001 -1.12804 0
M  V30 1363 N 128.595 0.856903 1.32268 0
M  V30 1364 C 129.825 0.47475 2.01071 0
M  V30 1365 C 130.233 -0.933746 1.64553 0
M  V30 1366 O 129.576 -1.62114 0.863989 0
M  V30 1367 C 129.638 0.536746 3.55471 0
M  V30 1368 C 129.302 1.90453 4.15423 0
M  V30 1369 C 130.299 2.87029 4.33486 0
M  V30 1370 C 127.984 2.20229 4.51447 0
M  V30 1371 C 129.978 4.11532 4.86744 0
M  V30 1372 C 127.665 3.44984 5.0441 0
M  V30 1373 C 128.663 4.40452 5.22007 0
M  V30 1374 O 128.351 5.62998 5.73837 0
M  V30 1375 H 128.083 0.184778 0.650256 0
M  V30 1376 H 130.637 1.15615 1.69771 0
M  V30 1377 H 128.867 -0.20152 3.86175 0
M  V30 1378 H 130.556 0.169875 4.05544 0
M  V30 1379 H 131.322 2.6533 4.05986 0
M  V30 1380 H 127.201 1.46705 4.37034 0
M  V30 1381 H 130.745 4.86056 5.00395 0
M  V30 1382 H 126.642 3.66532 5.31342 0
M  V30 1383 H 127.41 5.64987 5.92226 0
M  V30 1384 N 130.073 -1.45103 0.615059 0
M  V30 1385 C 131.319 -2.03035 0.121804 0
M  V30 1386 C 131.674 -1.47393 -1.23665 0
M  V30 1387 O 130.967 -0.642061 -1.80522 0
M  V30 1388 C 131.161 -3.57386 0.0318797 0
M  V30 1389 C 130.99 -4.28 1.38007 0
M  V30 1390 C 129.76 -4.65624 1.9627 0
M  V30 1391 C 131.958 -4.5948 2.31047 0
M  V30 1392 N 129.94 -5.21132 3.24492 0
M  V30 1393 C 131.311 -5.159 3.43872 0
M  V30 1394 C 133.366 -4.41423 2.30326 0
M  V30 1395 C 132.069 -5.56165 4.5615 0
M  V30 1396 C 134.095 -4.82726 3.41658 0
M  V30 1397 C 133.457 -5.39245 4.53205 0
M  V30 1398 H 129.556 -0.77702 0.0881159 0
M  V30 1399 H 132.14 -1.76819 0.815044 0
M  V30 1400 H 130.311 -3.83247 -0.630599 0
M  V30 1401 H 132.043 -4.01976 -0.468721 0
M  V30 1402 H 128.798 -4.49421 1.49392 0
M  V30 1403 H 129.222 -5.53377 3.90004 0
M  V30 1404 H 133.864 -3.97033 1.45343 0
M  V30 1405 H 131.582 -5.99517 5.41854 0
M  V30 1406 H 135.168 -4.7048 3.42257 0
M  V30 1407 H 134.048 -5.70616 5.37929 0
M  V30 1408 N 131.551 -0.354651 -1.53558 0
M  V30 1409 C 132.962 0.126902 -1.86268 0
M  V30 1410 C 133.313 1.49075 -1.27558 0
M  V30 1411 O 132.438 2.08105 -0.5934 0
M  V30 1412 C 133.033 0.237046 -3.3797 0
M  V30 1413 C 131.592 0.662842 -3.70518 0
M  V30 1414 C 130.739 -0.196652 -2.76602 0
M  V30 1415 H 133.69 -0.573849 -1.47962 0
M  V30 1416 H 133.711 1.06259 -3.65362 0
M  V30 1417 H 133.223 -0.755725 -3.80671 0
M  V30 1418 H 131.324 1.66424 -3.33367 0
M  V30 1419 H 131.437 0.445034 -4.77029 0
M  V30 1420 H 129.801 0.332763 -2.52517 0
M  V30 1421 H 130.584 -1.18676 -3.22135 0
M  V30 1422 N 133.029 1.57378 -0.0835403 0
M  V30 1423 C 133.959 2.1641 0.87686 0
M  V30 1424 C 134.94 1.09429 1.30228 0
M  V30 1425 O 136.125 1.37516 1.37124 0
M  V30 1426 C 133.255 2.73517 2.14022 0
M  V30 1427 C 132.209 3.85769 1.85381 0
M  V30 1428 C 131.535 4.29529 3.18448 0
M  V30 1429 C 132.835 5.09486 1.14984 0
M  V30 1430 H 134.529 2.96914 0.385059 0
M  V30 1431 H 132.075 1.42823 0.18377 0
M  V30 1432 H 134.028 3.13463 2.81636 0
M  V30 1433 H 132.752 1.90252 2.65465 0
M  V30 1434 H 131.411 3.46345 1.20169 0
M  V30 1435 H 131.059 3.43169 3.67755 0
M  V30 1436 H 130.759 5.05204 3.00071 0
M  V30 1437 H 132.283 4.72099 3.8724 0
M  V30 1438 H 133.697 5.46674 1.72687 0
M  V30 1439 H 132.094 5.90515 1.06826 0
M  V30 1440 H 133.164 4.84724 0.130749 0
M  V30 1441 N 134.507 -0.190092 1.56449 0
M  V30 1442 C 135.755 -0.907908 1.80559 0
M  V30 1443 C 136.076 -1.83583 0.657438 0
M  V30 1444 O 135.346 -1.93203 -0.323924 0
M  V30 1445 H 133.926 -0.338247 0.666032 0
M  V30 1446 H 136.588 -0.194403 1.93928 0
M  V30 1447 H 135.684 -1.49604 2.73907 0
M  V30 1448 N 135.985 -1.50799 -0.457987 0
M  V30 1449 C 137.396 -1.55152 -1.0385 0
M  V30 1450 C 137.747 -0.362719 -1.92818 0
M  V30 1451 O 136.872 0.522915 -2.09987 0
M  V30 1452 C 137.467 -2.81173 -1.89017 0
M  V30 1453 C 136.026 -2.88164 -2.42154 0
M  V30 1454 C 135.173 -2.49591 -1.20829 0
M  V30 1455 H 138.124 -1.56874 -0.240068 0
M  V30 1456 H 138.145 -2.63769 -2.74238 0
M  V30 1457 H 137.657 -3.67677 -1.24238 0
M  V30 1458 H 135.758 -2.06042 -3.10447 0
M  V30 1459 H 135.871 -3.91356 -2.76364 0
M  V30 1460 H 134.235 -2.02322 -1.54719 0
M  V30 1461 H 135.018 -3.38418 -0.576927 0
M  V30 1462 N 137.463 0.71206 -1.40597 0
M  V30 1463 C 138.709 1.47416 -1.39271 0
M  V30 1464 C 139.042 1.942 0.00388791 0
M  V30 1465 O 138.317 1.68403 0.973179 0
M  V30 1466 C 138.6 2.69774 -2.38525 0
M  V30 1467 C 138.453 2.28861 -3.87224 0
M  V30 1468 C 139.772 3.71939 -2.35264 0
M  V30 1469 H 136.891 0.534713 -0.5072 0
M  V30 1470 H 139.533 0.812375 -1.71757 0
M  V30 1471 H 137.683 3.26238 -2.10953 0
M  V30 1472 H 139.355 1.77852 -4.25636 0
M  V30 1473 H 137.598 1.60824 -4.02887 0
M  V30 1474 H 138.269 3.16584 -4.52193 0
M  V30 1475 H 140.745 3.25113 -2.59694 0
M  V30 1476 H 139.621 4.55186 -3.06753 0
M  V30 1477 H 139.882 4.20484 -1.36549 0
M  V30 1478 N 138.941 1.26152 0.944643 0
M  V30 1479 C 140.187 1.11657 1.69294 0
M  V30 1480 C 140.52 -0.339926 1.91202 0
M  V30 1481 O 139.795 -1.24994 1.49019 0
M  V30 1482 C 140.078 1.88236 3.06984 0
M  V30 1483 C 139.931 3.41772 2.92424 0
M  V30 1484 C 141.25 1.67343 4.07043 0
M  V30 1485 H 138.369 0.407004 0.614424 0
M  V30 1486 H 141.011 1.55106 1.09737 0
M  V30 1487 H 139.161 1.51308 3.57824 0
M  V30 1488 H 140.833 3.88433 2.48832 0
M  V30 1489 H 139.076 3.68974 2.28124 0
M  V30 1490 H 139.747 3.90579 3.90067 0
M  V30 1491 H 142.223 1.99509 3.65151 0
M  V30 1492 H 141.099 2.23346 5.01406 0
M  V30 1493 H 141.36 0.617158 4.37771 0
M  V30 1494 N 140.419 -1.14872 1.07899 0
M  V30 1495 C 141.659 -1.8745 0.814965 0
M  V30 1496 C 142.023 -1.80758 -0.64733 0
M  V30 1497 O 143.224 -2.48422 -1.02664 0
M  V30 1498 C 141.495 -3.32286 1.31607 0
M  V30 1499 S 143.054 -4.22537 1.18357 0
M  V30 1500 H 139.872 -0.646833 0.295174 0
M  V30 1501 H 142.474 -1.38555 1.37923 0
M  V30 1502 H 141.178 -3.34703 2.37491 0
M  V30 1503 H 140.709 -3.86238 0.747261 0
M  V30 1504 H 142.724 -4.96044 0.124586 0
M  V30 1505 N 141.898 -0.863906 -1.31812 0
M  V30 1506 C 143.175 -0.39275 -1.91616 0
M  V30 1507 C 143.555 1.12461 -1.7865 0
M  V30 1508 O 142.903 1.95045 -1.19037 0
M  V30 1509 C 143.113 -0.867385 -3.38049 0
M  V30 1510 C 144.461 -0.889966 -4.15168 0
M  V30 1511 O 145.485 -0.812635 -3.46806 0
M  V30 1512 O 144.344 -1.00079 -5.37258 0
M  V30 1513 H 141.438 -0.116358 -0.818773 0
M  V30 1514 H 143.984 -0.951418 -1.40521 0
M  V30 1515 H 142.756 -1.91081 -3.41473 0
M  V30 1516 H 142.379 -0.286687 -3.96565 0
M  V30 1517 N 143.376 1.44774 -0.622745 0
M  V30 1518 C 144.306 2.33382 0.0741861 0
M  V30 1519 C 145.287 1.47719 0.843387 0
M  V30 1520 O 146.472 1.76458 0.810934 0
M  V30 1521 C 143.602 3.30663 1.06204 0
M  V30 1522 C 142.556 4.26079 0.405037 0
M  V30 1523 C 141.882 5.13165 1.5022 0
M  V30 1524 C 143.182 5.1781 -0.683414 0
M  V30 1525 H 144.876 2.91905 -0.665713 0
M  V30 1526 H 142.422 1.40363 -0.321587 0
M  V30 1527 H 144.375 3.9153 1.55827 0
M  V30 1528 H 143.099 2.70331 1.83272 0
M  V30 1529 H 141.758 3.66532 -0.0704683 0
M  V30 1530 H 141.406 4.49191 2.26355 0
M  V30 1531 H 141.106 5.77812 1.06803 0
M  V30 1532 H 142.63 5.76902 2.00041 0
M  V30 1533 H 144.044 5.72661 -0.270631 0
M  V30 1534 H 142.441 5.91015 -1.04023 0
M  V30 1535 H 143.511 4.59326 -1.55395 0
M  V30 1536 N 144.854 0.36279 1.53368 0
M  V30 1537 C 146.1 -0.220702 2.02199 0
M  V30 1538 C 146.455 -1.46649 1.24546 0
M  V30 1539 O 145.748 -1.88737 0.32996 0
M  V30 1540 C 145.942 -0.568417 3.52851 0
M  V30 1541 C 145.771 0.642126 4.45092 0
M  V30 1542 C 144.541 1.15335 4.91961 0
M  V30 1543 C 146.739 1.50649 4.91741 0
M  V30 1544 N 144.721 2.3242 5.68202 0
M  V30 1545 C 146.092 2.52404 5.66297 0
M  V30 1546 C 148.147 1.52969 4.73819 0
M  V30 1547 C 146.85 3.56331 6.24836 0
M  V30 1548 C 148.876 2.55789 5.33222 0
M  V30 1549 C 148.238 3.56268 6.07662 0
M  V30 1550 H 144.337 -0.0435508 0.780786 0
M  V30 1551 H 146.921 0.506704 1.87991 0
M  V30 1552 H 145.092 -1.2649 3.67226 0
M  V30 1553 H 146.824 -1.13676 3.88407 0
M  V30 1554 H 143.579 0.718412 4.68119 0
M  V30 1555 H 144.003 2.91591 6.10986 0
M  V30 1556 H 148.645 0.766418 4.15795 0
M  V30 1557 H 146.363 4.33543 6.81958 0
M  V30 1558 H 149.949 2.58435 5.21251 0
M  V30 1559 H 148.829 4.34524 6.52808 0
M  V30 1560 N 146.332 -1.57332 0.0918853 0
M  V30 1561 C 147.262 -2.16872 -0.865371 0
M  V30 1562 C 148.243 -1.10118 -1.29646 0
M  V30 1563 O 149.428 -1.38242 -1.36392 0
M  V30 1564 C 146.558 -2.74649 -2.12569 0
M  V30 1565 C 145.512 -3.86747 -1.83333 0
M  V30 1566 C 144.838 -4.31212 -3.16166 0
M  V30 1567 C 146.138 -5.10089 -1.1228 0
M  V30 1568 H 147.832 -2.97114 -0.369307 0
M  V30 1569 H 145.378 -1.42918 -0.176194 0
M  V30 1570 H 147.331 -3.14952 -2.7997 0
M  V30 1571 H 146.055 -1.91657 -2.64452 0
M  V30 1572 H 144.714 -3.46978 -1.18331 0
M  V30 1573 H 144.362 -3.45115 -3.6593 0
M  V30 1574 H 144.062 -5.06788 -2.97388 0
M  V30 1575 H 145.586 -4.74146 -3.84731 0
M  V30 1576 H 147 -5.47582 -1.69785 0
M  V30 1577 H 145.397 -5.91073 -1.03693 0
M  V30 1578 H 146.467 -4.84786 -0.105041 0
M  V30 1579 N 147.81 0.181792 -1.56548 0
M  V30 1580 C 148.773 1.20894 -1.94724 0
M  V30 1581 C 149.773 1.37738 -0.829747 0
M  V30 1582 O 150.963 1.35323 -1.09697 0
M  V30 1583 C 148.095 2.57593 -2.23291 0
M  V30 1584 H 149.288 0.882275 -2.86629 0
M  V30 1585 H 146.841 0.423838 -1.50444 0
M  V30 1586 H 147.576 2.95291 -1.34067 0
M  V30 1587 H 147.361 2.46735 -3.04736 0
M  V30 1588 H 148.851 3.31637 -2.53785 0
M  V30 1589 N 149.288 1.51039 0.449983 0
M  V30 1590 C 150.218 1.74379 1.55288 0
M  V30 1591 C 151.199 0.593236 1.5942 0
M  V30 1592 O 152.384 0.834625 1.7535 0
M  V30 1593 C 149.514 1.85728 2.93466 0
M  V30 1594 C 148.468 3.01078 3.04197 0
M  V30 1595 C 147.794 2.97595 4.44231 0
M  V30 1596 C 149.094 4.41254 2.7945 0
M  V30 1597 H 150.788 2.66725 1.36008 0
M  V30 1598 H 148.334 1.2835 0.652864 0
M  V30 1599 H 150.287 2.0064 3.70569 0
M  V30 1600 H 149.011 0.900207 3.13949 0
M  V30 1601 H 147.67 2.85851 2.29531 0
M  V30 1602 H 147.318 1.99691 4.61663 0
M  V30 1603 H 147.018 3.75046 4.52343 0
M  V30 1604 H 148.542 3.14583 5.23326 0
M  V30 1605 H 149.956 4.56897 3.46292 0
M  V30 1606 H 148.353 5.20315 2.98985 0
M  V30 1607 H 149.423 4.52164 1.75144 0
M  V30 1608 N 150.766 -0.704594 1.40972 0
M  V30 1609 C 152.043 -1.45847 1.30338 0
M  V30 1610 C 152.423 -2.10973 -0.0732344 0
M  V30 1611 O 151.771 -2.00997 -1.08685 0
M  V30 1612 C 151.981 -2.48525 2.45023 0
M  V30 1613 C 153.329 -3.1404 2.8577 0
M  V30 1614 O 154.353 -2.58848 2.44696 0
M  V30 1615 O 153.212 -4.13981 3.56766 0
M  V30 1616 H 150.306 -0.649092 0.512454 0
M  V30 1617 H 152.852 -0.735836 1.52917 0
M  V30 1618 H 151.624 -1.98994 3.36923 0
M  V30 1619 H 151.247 -3.2831 2.24272 0
M  V30 1620 N 152.244 -1.26651 -0.937939 0
M  V30 1621 C 153.474 -1.15006 -1.71631 0
M  V30 1622 C 153.882 0.297026 -1.86854 0
M  V30 1623 O 153.225 1.21493 -1.37786 0
M  V30 1624 C 153.287 -1.74984 -3.14039 0
M  V30 1625 C 152.951 -3.24103 -3.2219 0
M  V30 1626 C 153.948 -4.20877 -3.05219 0
M  V30 1627 C 151.633 -3.64625 -3.45476 0
M  V30 1628 C 153.627 -5.56151 -3.11408 0
M  V30 1629 C 151.314 -5.00032 -3.513 0
M  V30 1630 C 152.312 -5.95604 -3.34282 0
M  V30 1631 O 152 -7.28545 -3.3982 0
M  V30 1632 H 151.732 -0.401183 -0.544085 0
M  V30 1633 H 154.286 -1.67832 -1.18413 0
M  V30 1634 H 152.516 -1.16624 -3.68695 0
M  V30 1635 H 154.205 -1.58199 -3.73802 0
M  V30 1636 H 154.971 -3.90908 -2.87081 0
M  V30 1637 H 150.85 -2.90718 -3.57777 0
M  V30 1638 H 154.394 -6.30727 -2.98043 0
M  V30 1639 H 150.291 -5.29659 -3.68959 0
M  V30 1640 H 151.059 -7.3686 -3.56343 0
M  V30 1641 N 153.722 1.14298 -1.08507 0
M  V30 1642 C 154.968 1.85633 -0.816581 0
M  V30 1643 C 155.301 1.82784 0.656021 0
M  V30 1644 O 154.576 1.25926 1.48233 0
M  V30 1645 C 154.859 3.34223 -1.34041 0
M  V30 1646 C 154.712 3.45639 -2.87843 0
M  V30 1647 C 156.031 4.29356 -0.9665 0
M  V30 1648 H 153.15 0.67402 -0.298104 0
M  V30 1649 H 155.792 1.34214 -1.34487 0
M  V30 1650 H 153.942 3.78144 -0.89104 0
M  V30 1651 H 155.614 3.10498 -3.41158 0
M  V30 1652 H 153.857 2.86817 -3.25451 0
M  V30 1653 H 154.528 4.50089 -3.19569 0
M  V30 1654 H 157.004 3.93457 -1.35391 0
M  V30 1655 H 155.88 5.3178 -1.3602 0
M  V30 1656 H 156.141 4.41919 0.126362 0
M  V30 1657 N 155.201 0.870884 1.31352 0
M  V30 1658 C 156.447 0.482987 1.96965 0
M  V30 1659 C 156.78 -0.962462 1.68672 0
M  V30 1660 O 156.055 -1.6779 0.98371 0
M  V30 1661 C 156.338 0.741752 3.52378 0
M  V30 1662 C 156.191 2.2368 3.9024 0
M  V30 1663 C 157.51 0.208838 4.39604 0
M  V30 1664 H 154.629 0.176955 0.715441 0
M  V30 1665 H 157.271 1.09229 1.55464 0
M  V30 1666 H 155.421 0.223149 3.87859 0
M  V30 1667 H 157.093 2.82273 3.64856 0
M  V30 1668 H 155.336 2.70901 3.38814 0
M  V30 1669 H 156.007 2.3685 4.98604 0
M  V30 1670 H 158.483 0.652529 4.10952 0
M  V30 1671 H 157.359 0.419336 5.47296 0
M  V30 1672 H 157.62 -0.889275 4.33064 0
M  V30 1673 N 156.679 -1.44442 0.630414 0
M  V30 1674 C 157.904 -2.06927 0.139944 0
M  V30 1675 C 158.329 -1.46795 -1.17613 0
M  V30 1676 O 157.687 -0.569144 -1.72135 0
M  V30 1677 C 157.735 -3.6058 0.0379581 0
M  V30 1678 O 156.839 -3.99937 -1.0062 0
M  V30 1679 H 156.18 -0.658608 0.0844483 0
M  V30 1680 H 158.71 -1.85327 0.866891 0
M  V30 1681 H 158.72 -4.07714 -0.152856 0
M  V30 1682 H 157.395 -4.03728 0.998809 0
M  V30 1683 H 155.972 -3.64436 -0.79001 0
M  V30 1684 N 158.157 -0.370918 -1.53173 0
M  V30 1685 C 159.105 0.488101 -2.27421 0
M  V30 1686 C 160.099 1.07884 -1.30604 0
M  V30 1687 O 161.305 1.02143 -1.48212 0
M  V30 1688 H 157.68 0.176134 -0.731082 0
M  V30 1689 H 159.651 -0.159815 -2.97972 0
M  V30 1690 C 158.4 1.61306 -3.08019 0
M  V30 1691 H 157.723 1.1678 -3.82364 0
M  V30 1692 H 159.163 2.18872 -3.63141 0
M  V30 1693 C 157.622 2.55848 -2.19188 0
M  V30 1694 O 158.152 3.58799 -1.80626 0
M  V30 1695 N 156.358 2.2516 -1.83715 0
M  V30 1696 H 155.905 1.41476 -2.15273 0
M  V30 1697 H 155.863 2.8867 -1.24567 0
M  V30 1698 N 159.635 1.57281 -0.100228 0
M  V30 1699 C 160.598 2.13158 0.842398 0
M  V30 1700 C 161.598 1.06202 1.20738 0
M  V30 1701 O 162.788 1.32066 1.13597 0
M  V30 1702 C 159.92 2.65639 2.13655 0
M  V30 1703 H 161.113 2.97766 0.357114 0
M  V30 1704 H 158.666 1.5559 0.148823 0
M  V30 1705 H 159.401 1.84566 2.66657 0
M  V30 1706 H 159.186 3.43844 1.88451 0
M  V30 1707 H 160.676 3.08846 2.81077 0
M  V30 1708 N 161.113 -0.173488 1.56642 0
M  V30 1709 C 162.338 -0.910149 1.86363 0
M  V30 1710 C 162.763 -1.75132 0.686318 0
M  V30 1711 O 162.121 -1.77595 -0.364643 0
M  V30 1712 C 162.169 -1.76447 3.14482 0
M  V30 1713 O 161.273 -2.86584 2.96553 0
M  V30 1714 H 160.614 -0.255086 0.613047 0
M  V30 1715 H 163.144 -0.172283 2.03873 0
M  V30 1716 H 163.154 -2.16483 3.45831 0
M  V30 1717 H 161.829 -1.14658 3.99783 0
M  V30 1718 H 160.406 -2.50146 2.76553 0
M  V30 1719 N 162.591 -1.51276 -0.441967 0
M  V30 1720 C 163.837 -1.63958 -1.19355 0
M  V30 1721 C 164.17 -0.352543 -1.90973 0
M  V30 1722 O 163.445 0.647627 -1.83401 0
M  V30 1723 C 163.728 -2.83979 -2.21422 0
M  V30 1724 C 163.581 -4.22646 -1.53918 0
M  V30 1725 C 164.9 -2.99521 -3.22451 0
M  V30 1726 H 162.019 -0.596709 -0.432559 0
M  V30 1727 H 164.661 -1.83748 -0.483398 0
M  V30 1728 H 162.811 -2.67237 -2.81987 0
M  V30 1729 H 164.483 -4.51045 -0.967256 0
M  V30 1730 H 162.726 -4.25558 -0.841615 0
M  V30 1731 H 163.397 -5.02609 -2.28229 0
M  V30 1732 H 165.873 -3.14944 -2.71937 0
M  V30 1733 H 164.749 -3.85072 -3.91166 0
M  V30 1734 H 165.01 -2.11391 -3.88287 0
M  V30 1735 N 164.069 0.697108 -1.41344 0
M  V30 1736 C 165.002 1.82134 -1.37486 0
M  V30 1737 C 165.98 1.60784 -0.242351 0
M  V30 1738 O 167.164 1.83553 -0.429012 0
M  V30 1739 C 164.291 3.18788 -1.14421 0
M  V30 1740 C 163.337 3.58932 -2.3037 0
M  V30 1741 S 164.17 3.63916 -3.92843 0
M  V30 1742 C 165.326 5.03298 -3.72078 0
M  V30 1743 H 165.559 1.85129 -2.32625 0
M  V30 1744 H 163.092 0.865671 -1.2785 0
M  V30 1745 H 165.05 3.97677 -1.018 0
M  V30 1746 H 163.711 3.13404 -0.20905 0
M  V30 1747 H 162.904 4.58202 -2.09922 0
M  V30 1748 H 162.506 2.87347 -2.39391 0
M  V30 1749 H 164.798 5.90753 -3.31688 0
M  V30 1750 H 165.741 5.28788 -4.70945 0
M  V30 1751 H 166.149 4.74764 -3.05384 0
M  V30 1752 N 165.547 1.27147 0.931209 0
M  V30 1753 C 166.495 1.09398 2.05268 0
M  V30 1754 C 167.489 0.0180591 1.6939 0
M  V30 1755 O 168.695 0.17551 1.79142 0
M  V30 1756 H 165.07 0.336986 0.672268 0
M  V30 1757 H 167.041 2.04416 2.17386 0
M  V30 1758 C 165.79 0.75424 3.39421 0
M  V30 1759 H 165.113 1.57404 3.67511 0
M  V30 1760 H 166.553 0.669903 4.18674 0
M  V30 1761 C 165.012 -0.541197 3.32525 0
M  V30 1762 O 165.542 -1.57664 3.69466 0
M  V30 1763 N 163.748 -0.535517 2.85623 0
M  V30 1764 H 163.295 0.307511 2.55758 0
M  V30 1765 H 163.253 -1.40236 2.81392 0
M  V30 1766 N 167.025 -1.13721 1.09112 0
M  V30 1767 C 167.955 -2.21148 0.749385 0
M  V30 1768 C 168.936 -1.6792 -0.271475 0
M  V30 1769 O 170.121 -1.93693 -0.140251 0
M  V30 1770 C 167.251 -3.46905 0.165659 0
M  V30 1771 C 166.205 -4.13203 1.11567 0
M  V30 1772 C 165.531 -5.33248 0.393809 0
M  V30 1773 C 166.831 -4.60912 2.45678 0
M  V30 1774 H 168.525 -2.4999 1.64758 0
M  V30 1775 H 166.071 -1.20156 0.793626 0
M  V30 1776 H 168.024 -4.21313 -0.085466 0
M  V30 1777 H 166.748 -3.17449 -0.767714 0
M  V30 1778 H 165.407 -3.40758 1.35202 0
M  V30 1779 H 165.055 -5.00054 -0.543599 0
M  V30 1780 H 164.755 -5.78552 1.02721 0
M  V30 1781 H 166.279 -6.10413 0.150908 0
M  V30 1782 H 167.693 -5.26759 2.26269 0
M  V30 1783 H 166.09 -5.16944 3.04776 0
M  V30 1784 H 167.16 -3.75603 3.06677 0
M  V30 1785 N 168.503 -0.877838 -1.30888 0
M  V30 1786 C 169.433 -0.35534 -2.3078 0
M  V30 1787 C 170.414 0.557994 -1.60687 0
M  V30 1788 O 171.599 0.473355 -1.88343 0
M  V30 1789 C 168.729 0.437221 -3.44537 0
M  V30 1790 C 167.683 -0.383715 -4.26276 0
M  V30 1791 C 167.009 0.535014 -5.32017 0
M  V30 1792 C 168.309 -1.62201 -4.96476 0
M  V30 1793 H 170.003 -1.19007 -2.74732 0
M  V30 1794 H 167.549 -0.573698 -1.32078 0
M  V30 1795 H 169.502 0.813334 -4.13477 0
M  V30 1796 H 168.226 1.30553 -2.99372 0
M  V30 1797 H 166.885 -0.741874 -3.59015 0
M  V30 1798 H 166.533 1.40083 -4.831 0
M  V30 1799 H 166.233 -0.0104211 -5.87599 0
M  V30 1800 H 167.757 0.907799 -6.03814 0
M  V30 1801 H 169.171 -1.31689 -5.5797 0
M  V30 1802 H 167.568 -2.10711 -5.61891 0
M  V30 1803 H 168.638 -2.37044 -4.23011 0
M  V30 1804 N 169.982 1.44106 -0.638065 0
M  V30 1805 C 171.231 2.01194 -0.142744 0
M  V30 1806 C 171.544 1.50835 1.24532 0
M  V30 1807 O 172.75 2.00096 1.83504 0
M  V30 1808 C 171.206 3.59319 -0.20442 0
M  V30 1809 C 170.814 4.18674 -1.59423 0
M  V30 1810 C 172.558 4.23854 0.234079 0
M  V30 1811 C 170.465 5.69045 -1.61065 0
M  V30 1812 H 169.395 0.752367 -0.0495998 0
M  V30 1813 H 172.046 1.65246 -0.797881 0
M  V30 1814 H 170.428 3.92598 0.517946 0
M  V30 1815 H 171.602 3.96921 -2.34074 0
M  V30 1816 H 169.917 3.66453 -1.97741 0
M  V30 1817 H 172.514 5.34155 0.241443 0
M  V30 1818 H 172.857 3.96688 1.2627 0
M  V30 1819 H 173.39 3.95403 -0.436025 0
M  V30 1820 H 170.129 6.00956 -2.61787 0
M  V30 1821 H 169.649 5.929 -0.90718 0
M  V30 1822 H 171.328 6.32809 -1.34766 0
M  V30 1823 N 171.46 0.379036 1.52974 0
M  V30 1824 C 172.709 -0.207612 2.00629 0
M  V30 1825 C 173.022 -1.48758 1.27006 0
M  V30 1826 O 174.228 -2.15365 1.65318 0
M  V30 1827 C 172.684 -0.42053 3.57435 0
M  V30 1828 C 172.292 0.845587 4.39948 0
M  V30 1829 C 174.036 -0.964102 4.13407 0
M  V30 1830 C 171.943 0.601513 5.88333 0
M  V30 1831 H 170.873 -0.0813591 0.749598 0
M  V30 1832 H 173.524 0.499853 1.76561 0
M  V30 1833 H 171.906 -1.18959 3.7771 0
M  V30 1834 H 173.08 1.61848 4.31442 0
M  V30 1835 H 171.395 1.31336 3.95145 0
M  V30 1836 H 173.992 -1.16225 5.21916 0
M  V30 1837 H 174.335 -1.93019 3.68849 0
M  V30 1838 H 174.868 -0.25487 3.96983 0
M  V30 1839 H 171.607 1.53831 6.37194 0
M  V30 1840 H 171.127 -0.132628 5.99653 0
M  V30 1841 H 172.806 0.232134 6.46583 0
M  V30 1842 N 172.938 -1.57226 0.108567 0
M  V30 1843 C 174.163 -1.99604 -0.563303 0
M  V30 1844 C 174.588 -0.987563 -1.6009 0
M  V30 1845 O 173.946 0.0421687 -1.81251 0
M  V30 1846 C 173.994 -3.40902 -1.17552 0
M  V30 1847 O 173.098 -3.42896 -2.2912 0
M  V30 1848 H 172.439 -0.648704 -0.1417 0
M  V30 1849 H 174.969 -2.03679 0.193961 0
M  V30 1850 H 174.979 -3.78886 -1.51357 0
M  V30 1851 H 173.654 -4.1382 -0.415445 0
M  V30 1852 H 172.231 -3.1672 -1.96832 0
M  V30 1853 N 174.416 0.165178 -1.56732 0
M  V30 1854 C 175.663 0.880807 -1.8234 0
M  V30 1855 C 175.991 1.81977 -0.686621 0
M  V30 1856 O 175.246 1.92971 0.325697 0
M  V30 1857 C 175.545 1.70405 -3.1416 0
M  V30 1858 C 175.211 0.913475 -4.4155 0
M  V30 1859 C 173.873 0.695303 -4.7615 0
M  V30 1860 C 176.225 0.359349 -5.1996 0
M  V30 1861 C 173.553 -0.0879947 -5.86634 0
M  V30 1862 C 175.905 -0.410893 -6.31264 0
M  V30 1863 C 174.569 -0.639808 -6.64427 0
M  V30 1864 H 173.839 0.32231 -0.667231 0
M  V30 1865 H 176.486 0.145402 -1.90947 0
M  V30 1866 H 174.791 2.50903 -3.00923 0
M  V30 1867 H 176.488 2.26091 -3.31186 0
M  V30 1868 H 173.078 1.09357 -4.14414 0
M  V30 1869 H 177.262 0.515228 -4.93618 0
M  V30 1870 H 172.518 -0.27503 -6.10781 0
M  V30 1871 H 176.692 -0.847494 -6.91224 0
M  V30 1872 H 174.319 -1.24864 -7.49875 0
M  V30 1873 N 175.894 1.51508 0.433938 0
M  V30 1874 C 177.171 1.54888 1.19453 0
M  V30 1875 C 177.551 0.315154 2.08734 0
M  V30 1876 O 176.899 -0.699558 2.17528 0
M  V30 1877 C 177.109 2.86467 1.99342 0
M  V30 1878 C 178.457 3.38545 2.56267 0
M  V30 1879 O 179.481 2.88041 2.0955 0
M  V30 1880 O 178.34 4.26675 3.41483 0
M  V30 1881 H 175.434 0.622863 0.544032 0
M  V30 1882 H 177.98 1.63823 0.442732 0
M  V30 1883 H 176.752 3.67718 1.33788 0
M  V30 1884 H 176.375 2.8071 2.8158 0
M  V30 1885 N 177.372 -0.689602 1.41712 0
M  V30 1886 C 178.788 -1.00093 1.24312 0
M  V30 1887 C 178.988 -2.01036 0.136729 0
M  V30 1888 O 178.044 -2.47562 -0.496918 0
M  V30 1889 C 179.357 -1.51985 2.59463 0
M  V30 1890 C 180.905 -1.63838 2.66695 0
M  V30 1891 C 181.38 -2.1913 4.02177 0
M  V30 1892 N 182.871 -2.26483 4.04054 0
M  V30 1893 C 183.606 -2.70306 5.0569 0
M  V30 1894 N 183.102 -3.13691 6.17713 0
M  V30 1895 N 184.895 -2.69923 4.9305 0
M  V30 1896 H 177.046 -0.0210029 2.1239 0
M  V30 1897 H 179.309 -0.0718733 0.945272 0
M  V30 1898 H 179.015 -0.85269 3.41207 0
M  V30 1899 H 178.889 -2.50103 2.82362 0
M  V30 1900 H 181.276 -2.29664 1.85306 0
M  V30 1901 H 181.357 -0.642492 2.476 0
M  V30 1902 H 181.001 -1.53918 4.84016 0
M  V30 1903 H 180.931 -3.19482 4.18615 0
M  V30 1904 H 183.422 -1.95874 3.23174 0
M  V30 1905 H 183.735 -3.45773 6.9113 0
M  V30 1906 H 182.08 -3.11585 6.21241 0
M  V30 1907 H 185.271 -2.35382 4.04614 0
M  V30 1908 H 185.444 -3.03758 5.72394 0
M  V30 1909 N 178.85 -1.27639 -0.924453 0
M  V30 1910 C 180.08 -1.16819 -1.70402 0
M  V30 1911 C 180.488 0.277191 -1.87158 0
M  V30 1912 O 179.831 1.20025 -1.39067 0
M  V30 1913 C 179.893 -1.78305 -3.12166 0
M  V30 1914 C 179.557 -3.27502 -3.18734 0
M  V30 1915 C 180.554 -4.2409 -3.00738 0
M  V30 1916 C 178.239 -3.68269 -3.4159 0
M  V30 1917 C 180.233 -5.59422 -3.05492 0
M  V30 1918 C 177.92 -5.0373 -3.45977 0
M  V30 1919 C 178.918 -5.99116 -3.27946 0
M  V30 1920 O 178.606 -7.32108 -3.32074 0
M  V30 1921 H 178.338 -0.406931 -0.539799 0
M  V30 1922 H 180.892 -1.69078 -1.16626 0
M  V30 1923 H 179.122 -1.20528 -3.67437 0
M  V30 1924 H 180.811 -1.62154 -3.72103 0
M  V30 1925 H 181.577 -3.93931 -2.82919 0
M  V30 1926 H 177.456 -2.94496 -3.54673 0
M  V30 1927 H 181 -6.33852 -2.91337 0
M  V30 1928 H 176.897 -5.33543 -3.63321 0
M  V30 1929 H 177.665 -7.40598 -3.48507 0
M  V30 1930 N 180.328 1.1314 -1.09713 0
M  V30 1931 C 181.575 1.84484 -0.834987 0
M  V30 1932 C 181.903 1.83689 0.639418 0
M  V30 1933 O 181.158 1.2724 1.4869 0
M  V30 1934 C 181.457 3.32167 -1.3191 0
M  V30 1935 C 181.123 3.53139 -2.80363 0
M  V30 1936 C 179.785 3.58571 -3.20905 0
M  V30 1937 C 182.137 3.60866 -3.76065 0
M  V30 1938 C 179.465 3.69267 -4.55916 0
M  V30 1939 C 181.817 3.73089 -5.10869 0
M  V30 1940 C 180.481 3.76775 -5.50996 0
M  V30 1941 H 179.751 0.675073 -0.305544 0
M  V30 1942 H 182.398 1.33554 -1.37243 0
M  V30 1943 H 180.703 3.85469 -0.701517 0
M  V30 1944 H 182.4 3.85821 -1.09284 0
M  V30 1945 H 178.99 3.49569 -2.47991 0
M  V30 1946 H 183.174 3.55946 -3.45855 0
M  V30 1947 H 178.43 3.70388 -4.86438 0
M  V30 1948 H 182.604 3.78011 -5.84877 0
M  V30 1949 H 180.231 3.84815 -6.55608 0
M  V30 1950 N 181.806 0.884767 1.30421 0
M  V30 1951 C 183.046 0.509806 1.9794 0
M  V30 1952 C 183.41 -0.923736 1.68319 0
M  V30 1953 O 184.611 -1.40481 2.29169 0
M  V30 1954 C 182.882 0.776732 3.48858 0
M  V30 1955 S 184.441 0.503843 4.35898 0
M  V30 1956 H 181.259 0.189699 0.685227 0
M  V30 1957 H 183.861 1.14399 1.58535 0
M  V30 1958 H 182.565 1.81857 3.67908 0
M  V30 1959 H 182.096 0.1301 3.93185 0
M  V30 1960 H 184.111 -0.657625 4.91823 0
M  V30 1961 N 183.284 -1.43765 0.645699 0
M  V30 1962 C 184.53 -2.02197 0.156271 0
M  V30 1963 C 184.863 -1.50776 -1.22393 0
M  V30 1964 O 184.138 -0.697771 -1.81553 0
M  V30 1965 C 184.421 -3.59749 0.158872 0
M  V30 1966 C 184.274 -4.21419 1.57245 0
M  V30 1967 C 185.593 -4.37149 -0.50879 0
M  V30 1968 H 182.712 -0.734694 0.0582602 0
M  V30 1969 H 185.354 -1.71157 0.824951 0
M  V30 1970 H 183.504 -3.86325 -0.410525 0
M  V30 1971 H 185.176 -4.059 2.19186 0
M  V30 1972 H 183.419 -3.78356 2.122 0
M  V30 1973 H 184.09 -5.30482 1.52619 0
M  V30 1974 H 186.566 -4.16093 -0.024412 0
M  V30 1975 H 185.442 -5.4683 -0.476213 0
M  V30 1976 H 185.703 -4.12839 -1.58165 0
M  V30 1977 N 184.763 -0.387143 -1.52771 0
M  V30 1978 C 185.991 0.195869 -2.05971 0
M  V30 1979 C 186.406 1.40691 -1.25903 0
M  V30 1980 O 185.763 1.79931 -0.305134 0
M  V30 1981 C 185.814 0.56812 -3.57008 0
M  V30 1982 O 185.535 -0.594803 -4.34043 0
M  V30 1983 C 187.036 1.20723 -4.26545 0
M  V30 1984 H 184.256 0.0300578 -0.670326 0
M  V30 1985 H 186.8 -0.551749 -1.96916 0
M  V30 1986 H 184.955 1.26564 -3.66143 0
M  V30 1987 H 185.369 -0.289322 -5.23701 0
M  V30 1988 H 186.843 1.41807 -5.33474 0
M  V30 1989 H 187.32 2.17395 -3.81623 0
M  V30 1990 H 187.926 0.550535 -4.21722 0
M  V30 1991 N 186.241 1.57166 -0.116904 0
M  V30 1992 C 187.188 2.15202 0.83408 0
M  V30 1993 C 188.158 1.07644 1.26499 0
M  V30 1994 O 189.343 1.35541 1.34288 0
M  V30 1995 C 186.483 2.75405 2.07957 0
M  V30 1996 C 185.596 3.97264 1.69721 0
M  V30 1997 C 184.731 4.45561 2.89221 0
M  V30 1998 C 183.77 5.59956 2.47215 0
M  V30 1999 N 182.907 6.03006 3.59622 0
M  V30 2000 H 187.747 2.96141 0.332335 0
M  V30 2001 H 185.284 1.46309 0.152349 0
M  V30 2002 H 187.242 3.08439 2.80929 0
M  V30 2003 H 185.872 1.97159 2.55594 0
M  V30 2004 H 184.924 3.70404 0.866316 0
M  V30 2005 H 186.236 4.80226 1.34849 0
M  V30 2006 H 185.39 4.80493 3.7042 0
M  V30 2007 H 184.129 3.61544 3.27318 0
M  V30 2008 H 183.134 5.2463 1.64448 0
M  V30 2009 H 184.359 6.45738 2.10238 0
M  V30 2010 H 182.305 5.21931 3.97396 0
M  V30 2011 H 182.222 6.80819 3.28667 0
M  V30 2012 H 183.49 6.42576 4.41267 0
M  V30 2013 N 187.719 -0.156864 1.56817 0
M  V30 2014 C 189.13 -0.717916 1.72345 0
M  V30 2015 C 189.481 -1.82124 0.729747 0
M  V30 2016 O 188.606 -2.16141 -0.105781 0
M  V30 2017 C 189.201 -1.30904 3.12489 0
M  V30 2018 C 187.76 -1.81676 3.29653 0
M  V30 2019 C 186.907 -0.701349 2.68284 0
M  V30 2020 H 189.858 0.0686989 1.58551 0
M  V30 2021 H 189.879 -2.17882 3.11942 0
M  V30 2022 H 189.391 -0.505796 3.8479 0
M  V30 2023 H 187.492 -2.64598 2.62333 0
M  V30 2024 H 187.605 -1.95226 4.3752 0
M  V30 2025 H 185.969 -1.12548 2.28484 0
M  V30 2026 H 186.752 0.0902846 3.43181 0
M  V30 2027 N 189.197 -1.51736 -0.425897 0
M  V30 2028 C 190.127 -1.76827 -1.52494 0
M  V30 2029 C 191.108 -0.618524 -1.58456 0
M  V30 2030 O 192.293 -0.862416 -1.74 0
M  V30 2031 C 189.423 -1.90374 -2.90474 0
M  V30 2032 C 188.377 -3.0588 -2.99369 0
M  V30 2033 C 187.703 -3.04625 -4.3944 0
M  V30 2034 C 189.003 -4.45644 -2.72394 0
M  V30 2035 H 190.697 -2.68855 -1.31748 0
M  V30 2036 H 188.243 -1.29372 -0.632362 0
M  V30 2037 H 190.196 -2.0651 -3.6733 0
M  V30 2038 H 188.92 -0.95004 -3.12477 0
M  V30 2039 H 187.579 -2.89467 -2.24954 0
M  V30 2040 H 187.227 -2.0701 -4.58428 0
M  V30 2041 H 186.927 -3.82195 -4.46319 0
M  V30 2042 H 188.451 -3.22869 -5.18255 0
M  V30 2043 H 189.865 -4.62348 -3.38979 0
M  V30 2044 H 188.262 -5.25006 -2.9067 0
M  V30 2045 H 189.332 -4.54893 -1.67929 0
M  V30 2046 N 190.675 0.682077 -1.42076 0
M  V30 2047 C 191.903 1.47057 -1.4554 0
M  V30 2048 C 192.318 1.8869 -0.0645779 0
M  V30 2049 O 191.675 1.57666 0.919115 0
M  V30 2050 C 191.726 2.72442 -2.37609 0
M  V30 2051 O 191.447 2.32559 -3.71279 0
M  V30 2052 C 192.948 3.66069 -2.50017 0
M  V30 2053 H 190.168 0.452737 -0.495248 0
M  V30 2054 H 192.712 0.838695 -1.8651 0
M  V30 2055 H 190.867 3.31835 -1.9991 0
M  V30 2056 H 191.281 3.13475 -4.20516 0
M  V30 2057 H 192.755 4.50792 -3.18576 0
M  V30 2058 H 193.232 4.11476 -1.53572 0
M  V30 2059 H 193.838 3.12572 -2.88407 0
M  V30 2060 N 192.153 1.28127 0.917671 0
M  V30 2061 C 193.383 1.17722 1.6978 0
M  V30 2062 C 193.791 -0.267261 1.87303 0
M  V30 2063 O 193.134 -1.19286 1.39702 0
M  V30 2064 C 193.196 1.79958 3.11216 0
M  V30 2065 C 192.86 3.29187 3.16993 0
M  V30 2066 C 193.857 4.25679 2.98485 0
M  V30 2067 C 191.542 3.70075 3.39632 0
M  V30 2068 C 193.536 5.61035 3.02521 0
M  V30 2069 C 191.223 5.05557 3.433 0
M  V30 2070 C 192.221 6.00847 3.24764 0
M  V30 2071 O 191.909 7.33859 3.28187 0
M  V30 2072 H 191.641 0.409788 0.537634 0
M  V30 2073 H 194.195 1.69694 1.15728 0
M  V30 2074 H 192.425 1.22475 3.66793 0
M  V30 2075 H 194.114 1.64125 3.71238 0
M  V30 2076 H 194.88 3.95426 2.80826 0
M  V30 2077 H 190.759 2.96373 3.53106 0
M  V30 2078 H 194.303 6.35388 2.87971 0
M  V30 2079 H 190.2 5.35462 3.60486 0
M  V30 2080 H 190.968 7.42436 3.44575 0
M  V30 2081 N 193.631 -1.12557 1.10312 0
M  V30 2082 C 195.042 -1.65574 0.862678 0
M  V30 2083 C 195.393 -1.86566 -0.607256 0
M  V30 2084 O 194.518 -1.59121 -1.46662 0
M  V30 2085 C 195.113 -3.00776 1.55947 0
M  V30 2086 C 193.672 -3.50748 1.36576 0
M  V30 2087 C 192.819 -2.25797 1.60968 0
M  V30 2088 H 195.77 -0.963552 1.26101 0
M  V30 2089 H 195.791 -3.67185 0.997753 0
M  V30 2090 H 195.303 -2.85465 2.62928 0
M  V30 2091 H 193.404 -3.71245 0.317531 0
M  V30 2092 H 193.517 -4.30289 2.10686 0
M  V30 2093 H 191.881 -2.32841 1.03234 0
M  V30 2094 H 192.664 -2.13043 2.69198 0
M  V30 2095 N 195.109 -0.891671 -1.2995 0
M  V30 2096 C 196.355 -0.514261 -1.96171 0
M  V30 2097 C 196.688 0.935506 -1.70182 0
M  V30 2098 O 195.963 1.66204 -1.01028 0
M  V30 2099 C 196.246 -0.797719 -3.51153 0
M  V30 2100 C 196.099 -2.2986 -3.86632 0
M  V30 2101 C 197.418 -0.278749 -4.39216 0
M  V30 2102 H 194.537 -0.188314 -0.712535 0
M  V30 2103 H 197.179 -1.11689 -1.53706 0
M  V30 2104 H 195.329 -0.284826 -3.87455 0
M  V30 2105 H 197.001 -2.88042 -3.60319 0
M  V30 2106 H 195.244 -2.76257 -3.34462 0
M  V30 2107 H 195.915 -2.44753 -4.94773 0
M  V30 2108 H 198.391 -0.717825 -4.09862 0
M  V30 2109 H 197.267 -0.506353 -5.46559 0
M  V30 2110 H 197.528 0.820266 -4.34424 0
M  V30 2111 N 196.587 1.43421 -0.653314 0
M  V30 2112 C 197.534 2.30768 0.0382271 0
M  V30 2113 C 198.504 1.44755 0.814576 0
M  V30 2114 O 199.689 1.73624 0.791162 0
M  V30 2115 C 196.829 3.30336 0.998599 0
M  V30 2116 C 195.942 4.31448 0.218342 0
M  V30 2117 C 195.077 5.18098 1.17252 0
M  V30 2118 C 194.116 6.10902 0.382702 0
M  V30 2119 N 193.253 6.90176 1.28848 0
M  V30 2120 H 198.093 2.89357 -0.712511 0
M  V30 2121 H 195.63 1.42548 -0.363128 0
M  V30 2122 H 197.588 3.86572 1.56901 0
M  V30 2123 H 196.218 2.73397 1.71621 0
M  V30 2124 H 195.27 3.77506 -0.46836 0
M  V30 2125 H 196.582 4.97227 -0.395812 0
M  V30 2126 H 195.736 5.7896 1.81356 0
M  V30 2127 H 194.475 4.52444 1.82058 0
M  V30 2128 H 193.48 5.49128 -0.27169 0
M  V30 2129 H 194.705 6.78598 -0.260957 0
M  V30 2130 H 192.651 6.27171 1.92334 0
M  V30 2131 H 192.568 7.52478 0.728887 0
M  V30 2132 H 193.836 7.55543 1.91766 0
M  V30 2133 N 198.065 0.39524 1.52563 0
M  V30 2134 C 199.481 0.0454682 1.59535 0
M  V30 2135 C 199.681 -1.44056 1.4089 0
M  V30 2136 O 198.737 -2.20579 1.22888 0
M  V30 2137 C 200.05 0.527963 2.96029 0
M  V30 2138 C 201.598 0.484733 3.09224 0
M  V30 2139 C 202.073 0.943512 4.48176 0
M  V30 2140 N 203.564 0.899765 4.54377 0
M  V30 2141 C 204.299 1.22609 5.60138 0
M  V30 2142 N 203.795 1.62319 6.73516 0
M  V30 2143 N 205.588 1.14696 5.50274 0
M  V30 2144 H 197.739 1.36261 1.62931 0
M  V30 2145 H 200.002 0.558887 0.765735 0
M  V30 2146 H 199.708 1.56607 3.14908 0
M  V30 2147 H 199.582 -0.0698056 3.77135 0
M  V30 2148 H 201.969 -0.544298 2.90037 0
M  V30 2149 H 202.05 1.11838 2.30056 0
M  V30 2150 H 201.694 1.9708 4.68104 0
M  V30 2151 H 201.624 0.286817 5.25818 0
M  V30 2152 H 204.115 0.607632 3.72983 0
M  V30 2153 H 204.428 1.85567 7.5019 0
M  V30 2154 H 202.773 1.66211 6.74833 0
M  V30 2155 H 205.964 0.835701 4.6058 0
M  V30 2156 H 206.137 1.40459 6.32594 0
M  V30 2157 N 199.544 -1.57102 0.125237 0
M  V30 2158 C 200.772 -1.99761 -0.538797 0
M  V30 2159 C 201.187 -1.00503 -1.59827 0
M  V30 2160 O 200.544 0.00119474 -1.825 0
M  V30 2161 C 200.595 -3.42408 -1.15927 0
M  V30 2162 O 200.316 -4.37869 -0.142143 0
M  V30 2163 C 201.817 -4.00232 -1.90602 0
M  V30 2164 H 199.037 -0.655772 -0.14214 0
M  V30 2165 H 201.581 -2.03383 0.213413 0
M  V30 2166 H 199.736 -3.39706 -1.86223 0
M  V30 2167 H 200.15 -5.21128 -0.593775 0
M  V30 2168 H 201.624 -5.02105 -2.29335 0
M  V30 2169 H 202.101 -3.39721 -2.78363 0
M  V30 2170 H 202.707 -4.06499 -1.25055 0
M  V30 2171 N 201.022 0.148545 -1.56898 0
M  V30 2172 C 202.25 0.876389 -1.87422 0
M  V30 2173 C 202.665 1.74809 -0.713256 0
M  V30 2174 O 202.022 1.79725 0.317025 0
M  V30 2175 C 202.073 1.73438 -3.17178 0
M  V30 2176 O 201.794 0.897809 -4.28802 0
M  V30 2177 C 203.295 2.56993 -3.61205 0
M  V30 2178 H 200.515 0.253489 -0.621277 0
M  V30 2179 H 203.059 0.141798 -2.04008 0
M  V30 2180 H 201.214 2.42205 -3.0235 0
M  V30 2181 H 201.628 1.48672 -5.02988 0
M  V30 2182 H 203.102 3.12773 -4.54838 0
M  V30 2183 H 203.579 3.32958 -2.86419 0
M  V30 2184 H 204.185 1.9352 -3.78722 0
M  V30 2185 N 202.5 1.5196 0.417844 0
M  V30 2186 C 203.447 1.74678 1.50852 0
M  V30 2187 C 204.417 0.588947 1.55308 0
M  V30 2188 O 205.602 0.825544 1.72016 0
M  V30 2189 C 202.742 1.89544 2.88387 0
M  V30 2190 C 201.855 3.17166 2.93309 0
M  V30 2191 C 200.99 3.22513 4.22088 0
M  V30 2192 C 200.029 4.44372 4.20951 0
M  V30 2193 N 199.166 4.47161 5.41287 0
M  V30 2194 H 204.006 2.67768 1.30783 0
M  V30 2195 H 201.543 1.32689 0.63498 0
M  V30 2196 H 203.501 1.96146 3.68216 0
M  V30 2197 H 202.131 0.998424 3.06971 0
M  V30 2198 H 201.183 3.19778 2.06024 0
M  V30 2199 H 202.495 4.07021 2.88332 0
M  V30 2200 H 201.649 3.28139 5.10303 0
M  V30 2201 H 200.388 2.30581 4.29748 0
M  V30 2202 H 199.393 4.38902 3.31127 0
M  V30 2203 H 200.618 5.3759 4.14938 0
M  V30 2204 H 198.564 3.58108 5.49632 0
M  V30 2205 H 198.481 5.3085 5.3827 0
M  V30 2206 H 199.749 4.57005 6.3148 0
M  V30 2207 N 203.978 -0.674533 1.42435 0
M  V30 2208 C 204.911 -1.79924 1.40366 0
M  V30 2209 C 205.889 -1.60378 0.267899 0
M  V30 2210 O 207.073 -1.82847 0.458159 0
M  V30 2211 C 204.2 -3.16927 1.19478 0
M  V30 2212 C 203.246 -3.55221 2.36051 0
M  V30 2213 S 204.079 -3.5762 3.98583 0
M  V30 2214 C 205.235 -4.97315 3.80038 0
M  V30 2215 H 205.468 -1.81405 2.35541 0
M  V30 2216 H 203.001 -0.845221 1.29211 0
M  V30 2217 H 204.959 -3.96007 1.08114 0
M  V30 2218 H 203.62 -3.13031 0.258883 0
M  V30 2219 H 202.813 -4.54804 2.17185 0
M  V30 2220 H 202.415 -2.83502 2.43932 0
M  V30 2221 H 204.707 -5.85401 3.41045 0
M  V30 2222 H 205.65 -5.21228 4.79298 0
M  V30 2223 H 206.058 -4.69845 3.12899 0
M  V30 2224 N 205.456 -1.28612 -0.910864 0
M  V30 2225 C 206.419 -1.12803 -1.9952 0
M  V30 2226 C 207.419 -0.0668264 -1.60661 0
M  V30 2227 O 208.609 -0.312847 -1.71368 0
M  V30 2228 C 205.741 -0.72254 -3.33155 0
M  V30 2229 H 206.934 -2.09109 -2.14973 0
M  V30 2230 H 204.487 -1.11639 -1.09391 0
M  V30 2231 H 205.222 0.241152 -3.23402 0
M  V30 2232 H 205.007 -1.48916 -3.62721 0
M  V30 2233 H 206.497 -0.634666 -4.12749 0
M  V30 2234 N 206.934 1.1197 -1.10907 0
M  V30 2235 C 208.182 1.83225 -0.852819 0
M  V30 2236 C 208.503 1.84769 0.623341 0
M  V30 2237 O 207.773 1.3143 1.45269 0
M  V30 2238 H 206.353 0.67849 -0.312507 0
M  V30 2239 H 209.015 1.3556 -1.40033 0
M  V30 2240 H 208.111 2.87265 -1.22005 0
M  V30 2241 N 208.412 0.89855 1.29475 0
M  V30 2242 C 209.345 0.319981 2.25945 0
M  V30 2243 C 210.323 -0.567189 1.52387 0
M  V30 2244 O 211.507 -0.514254 1.8135 0
M  V30 2245 C 208.634 -0.544013 3.34303 0
M  V30 2246 C 207.68 0.275682 4.25608 0
M  V30 2247 S 208.513 1.67272 5.08704 0
M  V30 2248 C 209.669 0.815621 6.20563 0
M  V30 2249 H 209.902 1.13767 2.74671 0
M  V30 2250 H 207.435 0.69882 1.3768 0
M  V30 2251 H 209.393 -1.03673 3.97193 0
M  V30 2252 H 208.054 -1.33593 2.84274 0
M  V30 2253 H 207.247 -0.384263 5.02533 0
M  V30 2254 H 206.849 0.701496 3.67362 0
M  V30 2255 H 209.141 0.0385042 6.77489 0
M  V30 2256 H 210.084 1.55691 6.90772 0
M  V30 2257 H 210.492 0.370516 5.63283 0
M  V30 2258 N 209.89 -1.43072 0.660911 0
M  V30 2259 C 210.823 -2.28074 -0.0758862 0
M  V30 2260 C 211.801 -1.40271 -0.822362 0
M  V30 2261 O 212.985 -1.69713 -0.820352 0
M  V30 2262 C 210.112 -3.19843 -1.11437 0
M  V30 2263 C 209.158 -4.23957 -0.465069 0
M  V30 2264 S 209.991 -5.29978 0.767078 0
M  V30 2265 C 211.147 -6.25314 -0.270682 0
M  V30 2266 H 211.38 -2.90216 0.645139 0
M  V30 2267 H 208.913 -1.47697 0.449995 0
M  V30 2268 H 210.871 -3.73257 -1.70849 0
M  V30 2269 H 209.532 -2.56863 -1.80776 0
M  V30 2270 H 208.725 -4.88299 -1.24819 0
M  V30 2271 H 208.327 -3.73959 0.0551242 0
M  V30 2272 H 210.619 -6.67932 -1.13459 0
M  V30 2273 H 211.562 -7.07293 0.337916 0
M  V30 2274 H 211.97 -5.61195 -0.609937 0
M  V30 2275 N 211.368 -0.403325 -1.52352 0
M  V30 2276 C 212.617 0.175668 -2.00934 0
M  V30 2277 C 212.93 1.46718 -1.29356 0
M  V30 2278 O 214.136 2.12708 -1.68724 0
M  V30 2279 C 212.592 0.363612 -3.58058 0
M  V30 2280 C 212.2 -0.915472 -4.38547 0
M  V30 2281 C 213.944 0.89821 -4.14888 0
M  V30 2282 C 211.851 -0.695035 -5.87302 0
M  V30 2283 H 210.781 0.0694234 -0.750797 0
M  V30 2284 H 213.432 -0.527879 -1.75743 0
M  V30 2285 H 211.814 1.12935 -3.79555 0
M  V30 2286 H 212.988 -1.68691 -4.28812 0
M  V30 2287 H 211.303 -1.37606 -3.93006 0
M  V30 2288 H 213.9 1.07907 -5.23699 0
M  V30 2289 H 214.243 1.87126 -3.71873 0
M  V30 2290 H 214.776 0.191681 -3.97338 0
M  V30 2291 H 211.515 -1.63948 -6.34666 0
M  V30 2292 H 211.035 0.0372116 -5.99788 0
M  V30 2293 H 212.714 -0.33497 -6.46132 0
M  V30 2294 N 212.846 1.57033 -0.133567 0
M  V30 2295 C 213.809 2.14897 0.796995 0
M  V30 2296 C 214.809 1.0874 1.18458 0
M  V30 2297 O 215.999 1.34446 1.1077 0
M  V30 2298 C 213.131 2.70112 2.07973 0
M  V30 2299 H 214.324 2.98457 0.293873 0
M  V30 2300 H 211.877 1.55871 0.115787 0
M  V30 2301 H 212.612 1.9018 2.62682 0
M  V30 2302 H 212.397 3.47764 1.81115 0
M  V30 2303 H 213.887 3.14738 2.74462 0
M  V30 2304 N 214.325 -0.140222 1.56975 0
M  V30 2305 C 215.288 -1.15689 1.97861 0
M  V30 2306 C 216.288 -1.3549 0.865974 0
M  V30 2307 O 217.478 -1.32367 1.13246 0
M  V30 2308 C 214.61 -2.51582 2.30042 0
M  V30 2309 H 215.803 -0.805971 2.88867 0
M  V30 2310 H 213.356 -0.383801 1.51515 0
M  V30 2311 H 214.091 -2.91632 1.41849 0
M  V30 2312 H 213.876 -2.38569 3.11171 0
M  V30 2313 H 215.366 -3.24792 2.62488 0
M  V30 2314 N 215.803 -1.52179 -0.40978 0
M  V30 2315 C 216.766 -1.74853 -1.48186 0
M  V30 2316 C 217.766 -0.618417 -1.48433 0
M  V30 2317 O 218.956 -0.886286 -1.49969 0
M  V30 2318 C 216.088 -1.8303 -2.87598 0
M  V30 2319 H 217.281 -2.70559 -1.29374 0
M  V30 2320 H 214.834 -1.42586 -0.640233 0
M  V30 2321 H 215.569 -0.89236 -3.11781 0
M  V30 2322 H 215.354 -2.65187 -2.88822 0
M  V30 2323 H 216.844 -2.02316 -3.65319 0
M  V30 2324 N 217.281 0.66697 -1.42791 0
M  V30 2325 C 218.527 1.42754 -1.44889 0
M  V30 2326 C 218.882 1.92283 -0.0669755 0
M  V30 2327 O 218.175 1.68494 0.912154 0
M  V30 2328 C 218.369 2.6349 -2.4147 0
M  V30 2329 C 218.198 2.25776 -3.88915 0
M  V30 2330 C 216.968 2.1476 -4.57391 0
M  V30 2331 C 219.166 1.86927 -4.79127 0
M  V30 2332 N 217.148 1.70232 -5.89826 0
M  V30 2333 C 218.519 1.53378 -6.00729 0
M  V30 2334 C 220.574 1.73989 -4.66511 0
M  V30 2335 C 219.277 1.08187 -7.11117 0
M  V30 2336 C 221.303 1.30203 -5.76889 0
M  V30 2337 C 220.665 0.975818 -6.97608 0
M  V30 2338 H 216.764 0.518559 -0.585338 0
M  V30 2339 H 219.348 0.768906 -1.78874 0
M  V30 2340 H 217.519 3.27033 -2.09533 0
M  V30 2341 H 219.251 3.30123 -2.34096 0
M  V30 2342 H 216.006 2.3408 -4.11708 0
M  V30 2343 H 216.43 1.50369 -6.6009 0
M  V30 2344 H 221.072 1.97853 -3.7365 0
M  V30 2345 H 218.79 0.830701 -8.03819 0
M  V30 2346 H 222.376 1.20701 -5.69142 0
M  V30 2347 H 221.256 0.642157 -7.81566 0
M  V30 2348 N 218.759 1.29093 0.90403 0
M  V30 2349 C 220.005 1.16986 1.65656 0
M  V30 2350 C 220.338 -0.278925 1.92186 0
M  V30 2351 O 219.613 -1.2019 1.5292 0
M  V30 2352 C 219.896 1.97908 3.0084 0
M  V30 2353 C 219.749 3.50903 2.81403 0
M  V30 2354 C 221.068 1.80208 4.01513 0
M  V30 2355 H 218.187 0.426346 0.601164 0
M  V30 2356 H 220.829 1.58518 1.04747 0
M  V30 2357 H 218.979 1.62616 3.52829 0
M  V30 2358 H 220.651 3.96153 2.36348 0
M  V30 2359 H 218.894 3.76045 2.1627 0
M  V30 2360 H 219.565 4.02791 3.77443 0
M  V30 2361 H 222.041 2.11025 3.58619 0
M  V30 2362 H 220.917 2.39184 4.94047 0
M  V30 2363 H 221.178 0.756119 4.35586 0
M  V30 2364 N 220.237 -1.11381 1.11499 0
M  V30 2365 C 221.167 -2.19509 0.796125 0
M  V30 2366 C 222.148 -1.68458 -0.235796 0
M  V30 2367 O 223.333 -1.93947 -0.0991344 0
M  V30 2368 C 220.463 -3.46475 0.239205 0
M  V30 2369 C 219.417 -4.10744 1.20307 0
M  V30 2370 C 218.743 -5.32293 0.50683 0
M  V30 2371 C 220.043 -4.55597 2.55399 0
M  V30 2372 H 221.737 -2.46439 1.70024 0
M  V30 2373 H 219.283 -1.18446 0.818935 0
M  V30 2374 H 221.236 -4.214 0.00392006 0
M  V30 2375 H 219.96 -3.19006 -0.700206 0
M  V30 2376 H 218.619 -3.37813 1.42399 0
M  V30 2377 H 218.267 -5.01095 -0.437408 0
M  V30 2378 H 217.967 -5.76243 1.1497 0
M  V30 2379 H 219.491 -6.09956 0.280351 0
M  V30 2380 H 220.905 -5.21841 2.37391 0
M  V30 2381 H 219.302 -5.10363 3.15673 0
M  V30 2382 H 220.372 -3.69013 3.14575 0
M  V30 2383 N 221.715 -0.905404 -1.28997 0
M  V30 2384 C 222.94 -0.549175 -1.99997 0
M  V30 2385 C 223.365 0.860276 -1.67275 0
M  V30 2386 O 222.723 1.57355 -0.900502 0
M  V30 2387 C 222.771 -0.755185 -3.52604 0
M  V30 2388 O 221.875 0.189692 -4.11964 0
M  V30 2389 H 221.216 -0.213899 -0.628604 0
M  V30 2390 H 223.746 -1.21856 -1.64354 0
M  V30 2391 H 223.756 -0.662045 -4.02593 0
M  V30 2392 H 222.431 -1.78271 -3.75755 0
M  V30 2393 H 221.008 0.0485257 -3.72868 0
M  V30 2394 N 223.193 1.4272 -0.668489 0
M  V30 2395 C 224.44 2.01624 -0.18814 0
M  V30 2396 C 224.768 1.5282 1.20317 0
M  V30 2397 O 224.023 0.718323 1.8204 0
M  V30 2398 C 224.322 3.57021 -0.164499 0
M  V30 2399 C 223.988 4.25232 -1.49962 0
M  V30 2400 C 222.65 4.4358 -1.8652 0
M  V30 2401 C 225.002 4.63727 -2.37921 0
M  V30 2402 C 222.33 4.97694 -3.10674 0
M  V30 2403 C 224.682 5.19218 -3.6138 0
M  V30 2404 C 223.346 5.3578 -3.98115 0
M  V30 2405 H 222.616 0.737795 -0.0688454 0
M  V30 2406 H 225.263 1.70991 -0.862225 0
M  V30 2407 H 223.568 3.87285 0.593079 0
M  V30 2408 H 225.265 4.00372 0.224271 0
M  V30 2409 H 221.855 4.11306 -1.20522 0
M  V30 2410 H 226.039 4.4923 -2.10964 0
M  V30 2411 H 221.295 5.08702 -3.39164 0
M  V30 2412 H 225.469 5.4799 -4.29743 0
M  V30 2413 H 223.096 5.77475 -4.94395 0
M  V30 2414 N 224.671 0.411399 1.52136 0
M  V30 2415 C 225.92 -0.165009 2.01024 0
M  V30 2416 C 226.233 -1.4603 1.30133 0
M  V30 2417 O 227.439 -2.1181 1.69849 0
M  V30 2418 C 225.895 -0.344618 3.58246 0
M  V30 2419 C 225.503 0.938716 4.38055 0
M  V30 2420 C 227.247 -0.876195 4.15359 0
M  V30 2421 C 225.154 0.726172 5.86925 0
M  V30 2422 H 224.084 -0.0654407 0.751155 0
M  V30 2423 H 226.735 0.537192 1.75461 0
M  V30 2424 H 225.117 -1.10921 3.80148 0
M  V30 2425 H 226.291 1.70963 4.27912 0
M  V30 2426 H 224.606 1.39688 3.92271 0
M  V30 2427 H 227.203 -1.05128 5.24263 0
M  V30 2428 H 227.546 -1.85152 3.7286 0
M  V30 2429 H 228.079 -0.170607 3.97434 0
M  V30 2430 H 224.818 1.67312 6.33788 0
M  V30 2431 H 224.338 -0.00540283 5.998 0
M  V30 2432 H 226.017 0.369231 6.45946 0
M  V30 2433 N 226.149 -1.5696 0.141893 0
M  V30 2434 C 227.079 -2.19516 -0.795936 0
M  V30 2435 C 228.06 -1.14187 -1.26077 0
M  V30 2436 O 229.245 -1.42511 -1.31925 0
M  V30 2437 C 226.375 -2.81272 -2.03723 0
M  V30 2438 C 225.329 -3.92384 -1.70936 0
M  V30 2439 C 224.655 -4.41052 -3.02287 0
M  V30 2440 C 225.955 -5.13403 -0.959954 0
M  V30 2441 H 227.649 -2.98138 -0.274596 0
M  V30 2442 H 225.195 -1.43406 -0.130636 0
M  V30 2443 H 227.148 -3.237 -2.69808 0
M  V30 2444 H 225.872 -1.99973 -2.58221 0
M  V30 2445 H 224.531 -3.50566 -1.07232 0
M  V30 2446 H 224.179 -3.56582 -3.54765 0
M  V30 2447 H 223.879 -5.15993 -2.81114 0
M  V30 2448 H 225.403 -4.86146 -3.69451 0
M  V30 2449 H 226.817 -5.52706 -1.52279 0
M  V30 2450 H 225.214 -5.94073 -0.848357 0
M  V30 2451 H 226.284 -4.84875 0.0492434 0
M  V30 2452 N 227.627 0.131896 -1.57047 0
M  V30 2453 C 228.873 0.838268 -1.85323 0
M  V30 2454 C 229.228 1.78098 -0.727937 0
M  V30 2455 O 228.521 1.89645 0.27304 0
M  V30 2456 C 228.715 1.63703 -3.17704 0
M  V30 2457 C 228.544 0.773167 -4.43004 0
M  V30 2458 C 227.314 0.432956 -5.03442 0
M  V30 2459 C 229.512 0.0966216 -5.14209 0
M  V30 2460 N 227.494 -0.442924 -6.123 0
M  V30 2461 C 228.865 -0.638778 -6.16701 0
M  V30 2462 C 230.92 0.018861 -4.97896 0
M  V30 2463 C 229.623 -1.44462 -7.04644 0
M  V30 2464 C 231.649 -0.773762 -5.86316 0
M  V30 2465 C 231.011 -1.4974 -6.883 0
M  V30 2466 H 227.11 0.284086 -0.728573 0
M  V30 2467 H 229.694 0.102731 -1.94429 0
M  V30 2468 H 227.865 2.3437 -3.09718 0
M  V30 2469 H 229.597 2.28774 -3.33833 0
M  V30 2470 H 226.352 0.772237 -4.67262 0
M  V30 2471 H 226.776 -0.872332 -6.71356 0
M  V30 2472 H 231.418 0.56397 -4.19022 0
M  V30 2473 H 229.136 -2.00093 -7.82936 0
M  V30 2474 H 232.722 -0.83612 -5.75761 0
M  V30 2475 H 231.602 -2.10087 -7.55535 0
M  V30 2476 N 229.106 1.52395 0.401703 0
M  V30 2477 C 230.069 1.75636 1.47257 0
M  V30 2478 C 231.069 0.62628 1.48103 0
M  V30 2479 O 232.259 0.894227 1.49497 0
M  V30 2480 C 229.391 1.84553 2.86624 0
M  V30 2481 H 230.584 2.71241 1.27938 0
M  V30 2482 H 228.137 1.42923 0.632662 0
M  V30 2483 H 228.872 0.908882 3.11303 0
M  V30 2484 H 228.657 2.66715 2.87412 0
M  V30 2485 H 230.147 2.04251 3.64241 0
M  V30 2486 N 230.584 -0.659388 1.43143 0
M  V30 2487 C 231.995 -1.24041 1.39537 0
M  V30 2488 C 232.346 -1.95963 0.0963364 0
M  V30 2489 O 231.471 -2.00892 -0.804438 0
M  V30 2490 C 232.066 -2.25601 2.52764 0
M  V30 2491 C 230.625 -2.79195 2.52443 0
M  V30 2492 C 229.772 -1.53743 2.30778 0
M  V30 2493 H 232.723 -0.451792 1.52133 0
M  V30 2494 H 232.744 -3.07651 2.23899 0
M  V30 2495 H 232.256 -1.73226 3.47296 0
M  V30 2496 H 230.357 -3.35649 1.61773 0
M  V30 2497 H 230.47 -3.2716 3.50004 0
M  V30 2498 H 228.834 -1.80869 1.79328 0
M  V30 2499 H 229.617 -1.03312 3.27386 0
M  V30 2500 N 232.062 -1.29571 -0.897171 0
M  V30 2501 C 233.025 -1.14913 -1.98312 0
M  V30 2502 C 234.025 -0.0838629 -1.60581 0
M  V30 2503 O 235.215 -0.331006 -1.71026 0
M  V30 2504 C 232.347 -0.757835 -3.3237 0
M  V30 2505 H 233.54 -2.11377 -2.12743 0
M  V30 2506 H 231.093 -1.12793 -1.08201 0
M  V30 2507 H 231.828 0.206837 -3.2364 0
M  V30 2508 H 231.613 -1.52755 -3.61121 0
M  V30 2509 H 233.103 -0.678408 -4.12053 0
M  V30 2510 N 233.54 1.10788 -1.12088 0
M  V30 2511 C 234.789 1.82036 -0.868659 0
M  V30 2512 C 235.102 1.85929 0.607426 0
M  V30 2513 O 236.308 2.53346 0.97613 0
M  V30 2514 C 234.764 3.26951 -1.50435 0
M  V30 2515 C 234.372 3.31367 -3.01496 0
M  V30 2516 C 236.116 4.03053 -1.33225 0
M  V30 2517 C 234.023 4.7072 -3.58017 0
M  V30 2518 H 232.953 0.682108 -0.321318 0
M  V30 2519 H 235.604 1.24618 -1.34694 0
M  V30 2520 H 233.986 3.84343 -0.953735 0
M  V30 2521 H 235.16 2.83819 -3.6302 0
M  V30 2522 H 233.475 2.6875 -3.18061 0
M  V30 2523 H 236.072 5.05981 -1.72878 0
M  V30 2524 H 236.415 4.15387 -0.275529 0
M  V30 2525 H 236.948 3.52066 -1.85188 0
M  V30 2526 H 233.687 4.63585 -4.63432 0
M  V30 2527 H 233.207 5.1865 -3.01268 0
M  V30 2528 H 234.886 5.39685 -3.56859 0
M  V30 2529 N 235.018 0.912232 1.28515 0
M  V30 2530 C 235.948 0.416403 2.29757 0
M  V30 2531 C 236.929 -0.515194 1.6211 0
M  V30 2532 O 238.114 -0.423253 1.89532 0
M  V30 2533 C 235.244 -0.34572 3.45575 0
M  V30 2534 C 234.198 0.496599 4.25109 0
M  V30 2535 C 233.524 -0.393771 5.33248 0
M  V30 2536 C 234.824 1.75307 4.92001 0
M  V30 2537 H 236.518 1.26249 2.7148 0
M  V30 2538 H 234.064 0.608515 1.30511 0
M  V30 2539 H 236.017 -0.703422 4.15488 0
M  V30 2540 H 234.741 -1.2257 3.02728 0
M  V30 2541 H 233.4 0.8368 3.56922 0
M  V30 2542 H 233.048 -1.27225 4.86644 0
M  V30 2543 H 232.748 0.166209 5.87365 0
M  V30 2544 H 234.272 -0.747389 6.06009 0
M  V30 2545 H 235.686 1.46437 5.54283 0
M  V30 2546 H 234.083 2.25534 5.56106 0
M  V30 2547 H 235.153 2.48176 4.16577 0
M  V30 2548 N 236.496 -1.42363 0.676048 0
M  V30 2549 C 237.743 -2.01522 0.19883 0
M  V30 2550 C 238.071 -1.53456 -1.19505 0
M  V30 2551 O 237.326 -0.727967 -1.81657 0
M  V30 2552 C 237.625 -3.56929 0.183431 0
M  V30 2553 C 237.291 -4.24431 1.52215 0
M  V30 2554 C 235.953 -4.42585 1.8887 0
M  V30 2555 C 238.305 -4.62459 2.40377 0
M  V30 2556 C 235.633 -4.96039 3.13309 0
M  V30 2557 C 237.985 -5.17294 3.64129 0
M  V30 2558 C 236.649 -5.33661 4.00951 0
M  V30 2559 H 235.919 -0.737419 0.0727571 0
M  V30 2560 H 238.566 -1.70531 0.871281 0
M  V30 2561 H 236.871 -3.87594 -0.572532 0
M  V30 2562 H 238.568 -4.00486 -0.203035 0
M  V30 2563 H 235.158 -4.10661 1.22701 0
M  V30 2564 H 239.342 -4.48105 2.13343 0
M  V30 2565 H 234.598 -5.06896 3.41857 0
M  V30 2566 H 238.772 -5.45704 4.32644 0
M  V30 2567 H 236.399 -5.74845 4.9745 0
M  V30 2568 N 237.974 -0.419461 -1.51915 0
M  V30 2569 C 239.22 0.145505 -2.02879 0
M  V30 2570 C 239.575 1.41926 -1.29903 0
M  V30 2571 O 238.868 1.87383 -0.399782 0
M  V30 2572 C 239.062 0.437067 -3.54717 0
M  V30 2573 C 238.891 -0.806877 -4.42402 0
M  V30 2574 C 237.661 -1.33514 -4.87342 0
M  V30 2575 C 239.859 -1.68796 -4.85811 0
M  V30 2576 N 237.841 -2.53349 -5.59185 0
M  V30 2577 C 239.212 -2.73247 -5.56539 0
M  V30 2578 C 241.267 -1.70449 -4.67816 0
M  V30 2579 C 239.97 -3.79276 -6.11181 0
M  V30 2580 C 241.996 -2.75403 -5.23361 0
M  V30 2581 C 241.358 -3.78575 -5.9402 0
M  V30 2582 H 237.457 0.0145424 -0.781865 0
M  V30 2583 H 240.041 -0.576126 -1.85981 0
M  V30 2584 H 238.212 1.12774 -3.71667 0
M  V30 2585 H 239.944 0.99182 -3.92358 0
M  V30 2586 H 236.699 -0.891657 -4.65131 0
M  V30 2587 H 237.123 -3.14066 -5.99743 0
M  V30 2588 H 241.765 -0.920209 -4.12664 0
M  V30 2589 H 239.483 -4.58554 -6.65397 0
M  V30 2590 H 243.069 -2.77603 -5.113 0
M  V30 2591 H 241.949 -4.58453 -6.36231 0
M  V30 2592 N 239.452 1.56882 -0.150215 0
M  V30 2593 C 240.384 2.14057 0.819286 0
M  V30 2594 C 241.397 1.09082 1.20851 0
M  V30 2595 O 242.586 1.36347 1.15203 0
M  V30 2596 C 239.686 2.65102 2.11127 0
M  V30 2597 C 238.859 3.94511 1.88891 0
M  V30 2598 C 237.918 4.30834 3.02107 0
M  V30 2599 O 236.944 4.99099 2.73659 0
M  V30 2600 N 238.146 3.90676 4.29363 0
M  V30 2601 H 240.911 2.97871 0.330618 0
M  V30 2602 H 238.472 1.61866 0.0332538 0
M  V30 2603 H 240.464 2.86411 2.85921 0
M  V30 2604 H 239.034 1.85994 2.51247 0
M  V30 2605 H 238.254 3.81795 0.981152 0
M  V30 2606 H 239.542 4.7907 1.71376 0
M  V30 2607 H 238.94 3.35677 4.55343 0
M  V30 2608 H 237.497 4.1703 5.00928 0
M  V30 2609 N 240.93 -0.123565 1.57115 0
M  V30 2610 C 242.177 -0.832153 1.84612 0
M  V30 2611 C 242.505 -1.80093 0.734627 0
M  V30 2612 O 241.76 -1.93766 -0.27442 0
M  V30 2613 C 242.059 -1.62016 3.18568 0
M  V30 2614 C 241.725 -0.796084 4.43817 0
M  V30 2615 C 240.387 -0.568816 4.77826 0
M  V30 2616 C 242.739 -0.221364 5.2073 0
M  V30 2617 C 240.067 0.243499 5.86194 0
M  V30 2618 C 242.419 0.578117 6.29953 0
M  V30 2619 C 241.083 0.815744 6.62497 0
M  V30 2620 H 240.353 -0.304507 0.675542 0
M  V30 2621 H 243 -0.0947248 1.91266 0
M  V30 2622 H 241.305 -2.42837 3.0747 0
M  V30 2623 H 243.002 -2.17231 3.37064 0
M  V30 2624 H 239.592 -0.983307 4.17168 0
M  V30 2625 H 243.776 -0.384173 4.94811 0
M  V30 2626 H 239.032 0.436871 6.09837 0
M  V30 2627 H 243.206 1.03046 6.88734 0
M  V30 2628 H 240.833 1.44701 7.46301 0
M  V30 2629 N 242.408 -1.52605 -0.393616 0
M  V30 2630 C 243.657 -1.66649 -1.13627 0
M  V30 2631 C 243.97 -0.410364 -1.91247 0
M  V30 2632 O 245.176 -0.430854 -2.68059 0
M  V30 2633 C 243.632 -2.9449 -2.06891 0
M  V30 2634 C 243.24 -4.27266 -1.34714 0
M  V30 2635 C 244.984 -3.17899 -2.81319 0
M  V30 2636 C 242.891 -5.46217 -2.26717 0
M  V30 2637 H 241.821 -0.62084 -0.427871 0
M  V30 2638 H 244.472 -1.791 -0.399428 0
M  V30 2639 H 242.854 -2.75774 -2.84191 0
M  V30 2640 H 244.028 -4.56518 -0.626714 0
M  V30 2641 H 242.343 -4.10081 -0.722643 0
M  V30 2642 H 244.94 -4.03949 -3.50328 0
M  V30 2643 H 245.283 -2.32777 -3.45139 0
M  V30 2644 H 245.816 -3.37159 -2.11113 0
M  V30 2645 H 242.555 -6.33733 -1.67521 0
M  V30 2646 H 242.075 -5.21283 -2.96689 0
M  V30 2647 H 243.754 -5.7991 -2.86903 0
M  V30 2648 N 243.887 0.651787 -1.4349 0
M  V30 2649 C 245.133 1.41376 -1.45398 0
M  V30 2650 C 245.466 1.94041 -0.0784823 0
M  V30 2651 O 244.741 1.72379 0.900878 0
M  V30 2652 C 245.024 2.59414 -2.49752 0
M  V30 2653 C 244.877 2.12232 -3.96582 0
M  V30 2654 C 246.196 3.61626 -2.50827 0
M  V30 2655 H 243.315 0.512719 -0.529422 0
M  V30 2656 H 245.957 0.738796 -1.75048 0
M  V30 2657 H 244.107 3.16997 -2.246 0
M  V30 2658 H 245.779 1.59639 -4.32797 0
M  V30 2659 H 244.022 1.43592 -4.09346 0
M  V30 2660 H 244.693 2.9712 -4.65214 0
M  V30 2661 H 247.169 3.13805 -2.7325 0
M  V30 2662 H 246.045 4.41766 -3.25783 0
M  V30 2663 H 246.306 4.14314 -1.5426 0
M  V30 2664 N 245.365 1.30045 0.890287 0
M  V30 2665 C 246.613 1.18327 1.63839 0
M  V30 2666 C 246.934 -0.263455 1.93212 0
M  V30 2667 O 246.204 -1.17856 1.56482 0
M  V30 2668 H 244.784 0.434933 0.607324 0
M  V30 2669 H 247.446 1.631 1.06698 0
M  V30 2670 H 246.542 1.74024 2.59079 0
M  V30 2671 N 246.843 -1.10192 1.12674 0
M  V30 2672 C 248.089 -1.82475 0.884915 0
M  V30 2673 C 248.422 -1.85093 -0.58773 0
M  V30 2674 O 247.697 -1.3134 -1.43457 0
M  V30 2675 C 247.98 -3.29018 1.46353 0
M  V30 2676 C 247.833 -3.34718 3.00473 0
M  V30 2677 C 249.152 -4.25473 1.12519 0
M  V30 2678 H 246.271 -0.662492 0.322915 0
M  V30 2679 H 248.913 -1.2913 1.39375 0
M  V30 2680 H 247.063 -3.74576 1.03077 0
M  V30 2681 H 248.735 -2.97622 3.52447 0
M  V30 2682 H 246.978 -2.74541 3.35872 0
M  V30 2683 H 247.649 -4.37918 3.36053 0
M  V30 2684 H 250.125 -3.88161 1.499 0
M  V30 2685 H 249.001 -5.26365 1.55663 0
M  V30 2686 H 249.262 -4.42084 0.0377407 0
M  V30 2687 N 248.321 -0.919034 -1.28029 0
M  V30 2688 C 249.737 -0.617972 -1.4715 0
M  V30 2689 C 249.937 0.835242 -1.83374 0
M  V30 2690 O 248.993 1.61388 -1.94191 0
M  V30 2691 C 250.306 -1.56041 -2.57044 0
M  V30 2692 C 251.854 -1.56769 -2.7091 0
M  V30 2693 C 252.329 -2.49688 -3.83953 0
M  V30 2694 N 253.82 -2.47845 -3.91314 0
M  V30 2695 C 254.555 -3.16437 -4.78179 0
M  V30 2696 N 254.051 -3.94376 -5.69596 0
M  V30 2697 N 255.844 -3.05498 -4.71834 0
M  V30 2698 H 247.995 -1.85866 -1.02798 0
M  V30 2699 H 250.258 -0.797506 -0.512531 0
M  V30 2700 H 249.964 -2.59671 -2.372 0
M  V30 2701 H 249.838 -1.29551 -3.54255 0
M  V30 2702 H 252.225 -0.538745 -2.90141 0
M  V30 2703 H 252.306 -1.87305 -1.74214 0
M  V30 2704 H 251.95 -3.52688 -3.65477 0
M  V30 2705 H 251.88 -2.16453 -4.80058 0
M  V30 2706 H 254.371 -1.91234 -3.25941 0
M  V30 2707 H 254.684 -4.43721 -6.32718 0
M  V30 2708 H 253.029 -3.98481 -5.69419 0
M  V30 2709 H 256.22 -2.44108 -3.99411 0
M  V30 2710 H 256.393 -3.59225 -5.39316 0
M  V30 2711 N 249.799 1.42003 -0.683588 0
M  V30 2712 C 251.027 2.05746 -0.218182 0
M  V30 2713 C 251.442 1.51396 1.12804 0
M  V30 2714 O 250.799 0.657303 1.70252 0
M  V30 2715 C 250.85 3.61171 -0.154131 0
M  V30 2716 O 250.571 4.13508 -1.44716 0
M  V30 2717 C 252.072 4.42042 0.333713 0
M  V30 2718 H 249.292 0.662888 -0.10402 0
M  V30 2719 H 251.836 1.81987 -0.9328 0
M  V30 2720 H 249.991 3.84012 0.511231 0
M  V30 2721 H 250.405 5.07453 -1.32632 0
M  V30 2722 H 251.879 5.51028 0.327423 0
M  V30 2723 H 252.356 4.17269 1.37053 0
M  V30 2724 H 252.962 4.24239 -0.300222 0
M  V30 2725 N 251.277 0.427512 1.51691 0
M  V30 2726 C 252.523 -0.142439 2.02299 0
M  V30 2727 C 252.856 -1.43214 1.31162 0
M  V30 2728 O 252.131 -1.89833 0.423511 0
M  V30 2729 C 252.414 -0.371301 3.58181 0
M  V30 2730 C 252.267 0.936358 4.39946 0
M  V30 2731 C 253.586 -1.14542 4.24933 0
M  V30 2732 H 250.705 -0.0502937 0.735282 0
M  V30 2733 H 253.347 0.564584 1.81418 0
M  V30 2734 H 251.497 -0.973559 3.76104 0
M  V30 2735 H 253.169 1.57184 4.33694 0
M  V30 2736 H 251.412 1.5432 4.05423 0
M  V30 2737 H 252.083 0.730388 5.47147 0
M  V30 2738 H 254.559 -0.635362 4.11221 0
M  V30 2739 H 253.435 -1.27431 5.33903 0
M  V30 2740 H 253.696 -2.17093 3.85127 0
M  V30 2741 N 252.755 -1.56801 0.158532 0
M  V30 2742 C 253.665 -2.20916 -0.789518 0
M  V30 2743 C 254.681 -1.1969 -1.26294 0
M  V30 2744 O 255.857 -1.52308 -1.31773 0
M  V30 2745 C 252.922 -2.82727 -2.00665 0
M  V30 2746 C 251.983 -3.99114 -1.58134 0
M  V30 2747 C 251.216 -4.57968 -2.74045 0
M  V30 2748 O 251.439 -4.15704 -3.90572 0
M  V30 2749 O 250.373 -5.48047 -2.48855 0
M  V30 2750 H 254.199 -3.02464 -0.273681 0
M  V30 2751 H 251.784 -1.4924 -0.0690548 0
M  V30 2752 H 253.666 -3.21968 -2.71872 0
M  V30 2753 H 252.341 -2.04184 -2.51179 0
M  V30 2754 H 251.248 -3.64567 -0.839155 0
M  V30 2755 H 252.581 -4.79212 -1.12325 0
M  V30 2756 N 254.233 0.115231 -1.57178 0
M  V30 2757 C 255.51 0.852873 -1.76027 0
M  V30 2758 C 255.89 1.97892 -0.73498 0
M  V30 2759 O 255.238 2.27232 0.24036 0
M  V30 2760 C 255.448 1.36608 -3.21153 0
M  V30 2761 C 256.796 1.81692 -3.83762 0
M  V30 2762 O 257.82 1.46278 -3.24779 0
M  V30 2763 O 256.679 2.47104 -4.87444 0
M  V30 2764 H 253.773 0.405296 -0.720877 0
M  V30 2765 H 256.319 0.0986785 -1.69413 0
M  V30 2766 H 255.091 0.558357 -3.87296 0
M  V30 2767 H 254.714 2.18287 -3.3232 0
M  V30 2768 N 255.711 1.52812 0.385517 0
M  V30 2769 C 256.959 1.67694 1.12797 0
M  V30 2770 C 257.28 0.421115 1.90399 0
M  V30 2771 O 256.55 -0.564551 1.87589 0
M  V30 2772 H 255.13 0.618155 0.419396 0
M  V30 2773 H 257.792 1.89938 0.436972 0
M  V30 2774 H 256.888 2.52896 1.82894 0
M  V30 2775 N 257.189 -0.644168 1.43834 0
M  V30 2776 C 258.099 -1.78563 1.52159 0
M  V30 2777 C 259.115 -1.69147 0.408069 0
M  V30 2778 O 260.291 -1.90156 0.663524 0
M  V30 2779 C 257.356 -3.14888 1.45073 0
M  V30 2780 C 256.417 -3.36034 2.6717 0
M  V30 2781 C 255.65 -4.65855 2.60413 0
M  V30 2782 O 255.873 -5.45805 1.65689 0
M  V30 2783 O 254.807 -4.88918 3.5106 0
M  V30 2784 H 258.633 -1.74494 2.48567 0
M  V30 2785 H 256.218 -0.80378 1.25935 0
M  V30 2786 H 258.1 -3.96179 1.43597 0
M  V30 2787 H 256.775 -3.19528 0.518037 0
M  V30 2788 H 255.682 -2.54472 2.74217 0
M  V30 2789 H 257.015 -3.36247 3.59442 0
M  V30 2790 N 258.668 -1.30515 -0.883378 0
M  V30 2791 C 259.908 -1.20716 -1.64946 0
M  V30 2792 C 260.272 0.234072 -1.90568 0
M  V30 2793 O 261.473 0.455335 -2.64915 0
M  V30 2794 C 259.744 -2.01444 -2.9522 0
M  V30 2795 S 261.303 -2.0836 -3.86175 0
M  V30 2796 H 258.121 -0.430165 -0.566109 0
M  V30 2797 H 260.723 -1.65011 -1.04841 0
M  V30 2798 H 259.427 -3.05268 -2.74298 0
M  V30 2799 H 258.958 -1.57817 -3.60357 0
M  V30 2800 H 260.973 -1.21215 -4.81167 0
M  V30 2801 N 260.146 1.09593 -1.13257 0
M  V30 2802 C 261.376 1.85231 -0.915049 0
M  V30 2803 C 261.784 1.81345 0.539498 0
M  V30 2804 O 261.127 1.20664 1.38513 0
M  V30 2805 C 261.189 3.34275 -1.3229 0
M  V30 2806 C 260.853 3.6191 -2.79052 0
M  V30 2807 C 261.85 3.57777 -3.77216 0
M  V30 2808 C 259.535 3.90309 -3.16171 0
M  V30 2809 C 261.529 3.81652 -5.1051 0
M  V30 2810 C 259.216 4.13839 -4.49644 0
M  V30 2811 C 260.214 4.09502 -5.46623 0
M  V30 2812 O 259.902 4.32426 -6.77689 0
M  V30 2813 H 259.634 0.591997 -0.326367 0
M  V30 2814 H 262.188 1.394 -1.50854 0
M  V30 2815 H 260.418 3.80805 -0.672667 0
M  V30 2816 H 262.107 3.9132 -1.07812 0
M  V30 2817 H 262.873 3.35865 -3.49885 0
M  V30 2818 H 258.752 3.92811 -2.41289 0
M  V30 2819 H 262.296 3.78182 -5.86195 0
M  V30 2820 H 258.193 4.35232 -4.767 0
M  V30 2821 H 258.961 4.49896 -6.83766 0
M  V30 2822 N 261.624 0.925811 1.2754 0
M  V30 2823 C 262.873 0.561084 1.93739 0
M  V30 2824 C 263.186 -0.901685 1.73577 0
M  V30 2825 O 264.392 -1.37511 2.34101 0
M  V30 2826 C 262.848 0.952668 3.47062 0
M  V30 2827 C 262.456 2.43599 3.75983 0
M  V30 2828 C 264.2 0.659103 4.19352 0
M  V30 2829 C 262.107 2.76707 5.22673 0
M  V30 2830 H 261.037 0.206122 0.725279 0
M  V30 2831 H 263.688 1.12637 1.44863 0
M  V30 2832 H 262.07 0.316053 3.94737 0
M  V30 2833 H 263.244 3.12035 3.39073 0
M  V30 2834 H 261.559 2.70125 3.16893 0
M  V30 2835 H 264.156 0.882985 5.27359 0
M  V30 2836 H 264.499 -0.403607 4.14339 0
M  V30 2837 H 265.032 1.25473 3.77494 0
M  V30 2838 H 261.771 3.8188 5.32774 0
M  V30 2839 H 261.291 2.12919 5.60737 0
M  V30 2840 H 262.97 2.6435 5.90532 0
M  V30 2841 N 263.102 -1.41638 0.69111 0
M  V30 2842 C 264.034 -2.29194 -0.0161523 0
M  V30 2843 C 265.047 -1.44549 -0.748955 0
M  V30 2844 O 266.236 -1.681 -0.6004 0
M  V30 2845 C 263.336 -3.22325 -1.0469 0
M  V30 2846 C 262.509 -4.35706 -0.384621 0
M  V30 2847 C 261.568 -5.09443 -1.31737 0
M  V30 2848 O 260.594 -5.63386 -0.811451 0
M  V30 2849 N 261.796 -5.16487 -2.64993 0
M  V30 2850 H 264.561 -2.90534 0.735523 0
M  V30 2851 H 262.122 -1.52742 0.53679 0
M  V30 2852 H 264.114 -3.68522 -1.67252 0
M  V30 2853 H 262.684 -2.62323 -1.70015 0
M  V30 2854 H 261.904 -3.91948 0.420804 0
M  V30 2855 H 263.192 -5.08743 0.0760765 0
M  V30 2856 H 262.59 -4.741 -3.08619 0
M  V30 2857 H 261.147 -5.66276 -3.22761 0
M  V30 2858 N 264.58 -0.43555 -1.51462 0
M  V30 2859 C 265.827 0.131514 -2.02072 0
M  V30 2860 C 266.155 1.42868 -1.31981 0
M  V30 2861 O 265.41 1.91076 -0.422883 0
M  V30 2862 C 265.709 0.39942 -3.55161 0
M  V30 2863 C 265.375 -0.81172 -4.43533 0
M  V30 2864 C 264.037 -1.14387 -4.67407 0
M  V30 2865 C 266.389 -1.61976 -4.95392 0
M  V30 2866 C 263.717 -2.28477 -5.40384 0
M  V30 2867 C 266.069 -2.75164 -5.6962 0
M  V30 2868 C 264.733 -3.08835 -5.91758 0
M  V30 2869 H 264.003 0.0481244 -0.739436 0
M  V30 2870 H 266.65 -0.58238 -1.8243 0
M  V30 2871 H 264.955 1.19519 -3.73125 0
M  V30 2872 H 266.652 0.85157 -3.91854 0
M  V30 2873 H 263.242 -0.542898 -4.25148 0
M  V30 2874 H 267.426 -1.37637 -4.76833 0
M  V30 2875 H 262.682 -2.5488 -5.55739 0
M  V30 2876 H 266.856 -3.38147 -6.08793 0
M  V30 2877 H 264.483 -3.97353 -6.48086 0
M  V30 2878 N 266.058 1.56714 -0.166846 0
M  V30 2879 C 267.305 1.96747 0.479252 0
M  V30 2880 C 267.633 1.05263 1.63554 0
M  V30 2881 O 266.888 0.0858098 1.95512 0
M  V30 2882 C 267.187 3.42889 1.00806 0
M  V30 2883 C 266.853 4.50889 -0.0318574 0
M  V30 2884 C 265.515 4.8015 -0.317675 0
M  V30 2885 C 267.867 5.15949 -0.737956 0
M  V30 2886 C 265.195 5.71772 -1.31506 0
M  V30 2887 C 267.547 6.08647 -1.72429 0
M  V30 2888 C 266.211 6.36277 -2.0176 0
M  V30 2889 H 265.481 0.719949 0.175371 0
M  V30 2890 H 268.128 1.89756 -0.257864 0
M  V30 2891 H 266.433 3.4681 1.82291 0
M  V30 2892 H 268.13 3.71203 1.51689 0
M  V30 2893 H 264.72 4.28128 0.201088 0
M  V30 2894 H 268.904 4.93458 -0.530351 0
M  V30 2895 H 264.16 5.91465 -1.54853 0
M  V30 2896 H 268.334 6.58129 -2.27682 0
M  V30 2897 H 265.961 7.07075 -2.79194 0
M  V30 2898 N 267.536 -0.106894 1.57237 0
M  V30 2899 C 268.761 -0.830287 1.90055 0
M  V30 2900 C 269.186 -1.72064 0.75998 0
M  V30 2901 O 268.544 -1.78982 -0.288991 0
M  V30 2902 C 268.592 -1.6295 3.21683 0
M  V30 2903 O 267.696 -2.73748 3.08441 0
M  V30 2904 H 267.037 -0.228855 0.623315 0
M  V30 2905 H 269.567 -0.085658 2.04421 0
M  V30 2906 H 269.577 -2.01621 3.54701 0
M  V30 2907 H 268.252 -0.975989 4.04286 0
M  V30 2908 H 266.829 -2.38192 2.86913 0
M  V30 2909 N 269.014 -1.53014 -0.377408 0
M  V30 2910 C 269.962 -1.7927 -1.48206 0
M  V30 2911 C 270.956 -0.661195 -1.55963 0
M  V30 2912 O 272.162 -0.843908 -1.58991 0
M  V30 2913 H 268.537 -0.567425 -0.493491 0
M  V30 2914 H 270.508 -2.71753 -1.2326 0
M  V30 2915 C 269.257 -1.98894 -2.85196 0
M  V30 2916 H 268.58 -2.85395 -2.79981 0
M  V30 2917 H 270.02 -2.21249 -3.61698 0
M  V30 2918 C 268.479 -0.764691 -3.28107 0
M  V30 2919 O 269.009 0.0523226 -4.01666 0
M  V30 2920 N 267.215 -0.591493 -2.84517 0
M  V30 2921 H 266.762 -1.25749 -2.24822 0
M  V30 2922 H 266.72 0.226253 -3.13585 0
M  V30 2923 N 270.492 0.636531 -1.44174 0
M  V30 2924 C 271.455 1.73063 -1.50273 0
M  V30 2925 C 272.455 1.56113 -0.385397 0
M  V30 2926 O 273.645 1.61707 -0.64781 0
M  V30 2927 C 270.777 3.12096 -1.37145 0
M  V30 2928 H 271.97 1.69031 -2.47727 0
M  V30 2929 H 269.523 0.849706 -1.31186 0
M  V30 2930 H 270.258 3.21728 -0.407636 0
M  V30 2931 H 270.043 3.25805 -2.18159 0
M  V30 2932 H 271.533 3.91846 -1.44382 0
M  V30 2933 N 271.97 1.30982 0.876444 0
M  V30 2934 C 272.933 1.18054 1.96459 0
M  V30 2935 C 273.933 0.109399 1.60427 0
M  V30 2936 O 275.123 0.358173 1.70478 0
M  V30 2937 C 272.255 0.810616 3.31122 0
M  V30 2938 H 273.448 2.14735 2.09354 0
M  V30 2939 H 271.001 1.145 1.06392 0
M  V30 2940 H 271.736 -0.155322 3.23928 0
M  V30 2941 H 271.521 1.58481 3.58645 0
M  V30 2942 H 273.011 0.743876 4.10921 0
M  V30 2943 N 273.449 -1.08991 1.13837 0
M  V30 2944 C 274.695 -1.81526 0.90422 0
M  V30 2945 C 275.028 -1.85706 -0.568066 0
M  V30 2946 O 274.303 -1.32855 -1.42056 0
M  V30 2947 C 274.586 -3.27447 1.49835 0
M  V30 2948 C 274.439 -3.31512 3.04006 0
M  V30 2949 C 275.758 -4.24256 1.17025 0
M  V30 2950 H 272.877 -0.659029 0.329923 0
M  V30 2951 H 275.519 -1.27644 1.40737 0
M  V30 2952 H 273.669 -3.73462 1.07044 0
M  V30 2953 H 275.341 -2.93867 3.55584 0
M  V30 2954 H 273.584 -2.70963 3.38765 0
M  V30 2955 H 274.255 -4.34329 3.40679 0
M  V30 2956 H 276.731 -3.86549 1.54009 0
M  V30 2957 H 275.607 -5.24684 1.61237 0
M  V30 2958 H 275.868 -4.42019 0.0846274 0
M  V30 2959 N 274.927 -0.932562 -1.27047 0
M  V30 2960 C 276.155 -0.592031 -1.98249 0
M  V30 2961 C 276.57 0.831062 -1.69525 0
M  V30 2962 O 275.927 1.55299 -0.958561 0
M  V30 2963 C 275.978 -0.814279 -3.5221 0
M  V30 2964 O 275.699 -2.18139 -3.7993 0
M  V30 2965 C 277.2 -0.483121 -4.4066 0
M  V30 2966 H 274.42 -0.223896 -0.632544 0
M  V30 2967 H 276.964 -1.25091 -1.61779 0
M  V30 2968 H 275.119 -0.20213 -3.86872 0
M  V30 2969 H 275.533 -2.235 -4.74498 0
M  V30 2970 H 277.007 -0.689298 -5.47679 0
M  V30 2971 H 277.484 0.581546 -4.35333 0
M  V30 2972 H 278.09 -1.07362 -4.11526 0
M  V30 2973 N 276.405 1.4127 -0.698611 0
M  V30 2974 C 277.652 2.0118 -0.230865 0
M  V30 2975 C 277.98 1.55338 1.17049 0
M  V30 2976 O 277.235 0.756775 1.80475 0
M  V30 2977 C 277.534 3.56592 -0.240192 0
M  V30 2978 C 277.2 4.21955 -1.58948 0
M  V30 2979 C 275.862 4.39524 -1.95887 0
M  V30 2980 C 278.214 4.58576 -2.47704 0
M  V30 2981 C 275.542 4.90992 -3.2116 0
M  V30 2982 C 277.894 5.11435 -3.72313 0
M  V30 2983 C 276.558 5.27215 -4.0939 0
M  V30 2984 H 275.828 0.736169 -0.0844796 0
M  V30 2985 H 278.475 1.69124 -0.8983 0
M  V30 2986 H 276.78 3.88456 0.510797 0
M  V30 2987 H 278.477 4.00758 0.139296 0
M  V30 2988 H 275.067 4.08657 -1.29219 0
M  V30 2989 H 279.251 4.44654 -2.20445 0
M  V30 2990 H 274.507 5.01393 -3.49878 0
M  V30 2991 H 278.681 5.38752 -4.4127 0
M  V30 2992 H 276.308 5.66859 -5.06533 0
M  V30 2993 N 277.883 0.443576 1.51229 0
M  V30 2994 C 279.131 -0.120557 2.0174 0
M  V30 2995 C 279.452 -1.42665 1.32935 0
M  V30 2996 O 278.722 -1.9028 0.465866 0
M  V30 2997 H 277.302 -0.0475426 0.745486 0
M  V30 2998 H 279.964 0.587711 1.85828 0
M  V30 2999 H 279.06 -0.291972 3.10731 0
M  V30 3000 N 279.361 -1.56624 0.175154 0
M  V30 3001 C 280.589 -2.01374 -0.474971 0
M  V30 3002 C 281.004 -1.05537 -1.56548 0
M  V30 3003 O 280.361 -0.0568668 -1.82411 0
M  V30 3004 C 280.412 -3.45923 -1.04975 0
M  V30 3005 O 280.133 -4.381 -0.00276605 0
M  V30 3006 C 281.634 -4.06093 -1.77773 0
M  V30 3007 H 278.854 -0.659962 -0.121206 0
M  V30 3008 H 281.398 -2.02601 0.27801 0
M  V30 3009 H 279.553 -3.45458 -1.75321 0
M  V30 3010 H 279.967 -5.22753 -0.427681 0
M  V30 3011 H 281.441 -5.09147 -2.13245 0
M  V30 3012 H 281.918 -3.48405 -2.67414 0
M  V30 3013 H 282.524 -4.10272 -1.12059 0
M  V30 3014 N 280.839 0.0985539 -1.57292 0
M  V30 3015 C 281.802 1.10402 -2.00858 0
M  V30 3016 C 282.802 1.33146 -0.901593 0
M  V30 3017 O 283.992 1.29318 -1.16716 0
M  V30 3018 C 281.124 2.45394 -2.36632 0
M  V30 3019 H 282.317 0.729099 -2.90902 0
M  V30 3020 H 279.87 0.343495 -1.52479 0
M  V30 3021 H 280.605 2.87769 -1.49531 0
M  V30 3022 H 280.39 2.30235 -3.17387 0
M  V30 3023 H 281.88 3.17718 -2.71007 0
M  V30 3024 N 282.317 1.53212 0.369288 0
M  V30 3025 C 283.566 1.68436 1.10961 0
M  V30 3026 C 283.879 0.440738 1.9057 0
M  V30 3027 O 285.085 0.473446 2.6734 0
M  V30 3028 C 283.541 2.97744 2.0218 0
M  V30 3029 C 283.149 4.29355 1.279 0
M  V30 3030 C 284.893 3.22334 2.76226 0
M  V30 3031 C 282.8 5.49755 2.17999 0
M  V30 3032 H 281.73 0.627568 0.41794 0
M  V30 3033 H 284.381 1.79713 0.370884 0
M  V30 3034 H 282.763 2.8026 2.79768 0
M  V30 3035 H 283.937 4.57458 0.554007 0
M  V30 3036 H 282.252 4.11179 0.657311 0
M  V30 3037 H 284.849 4.09471 3.43857 0
M  V30 3038 H 285.192 2.38238 3.41392 0
M  V30 3039 H 285.725 3.40475 2.05723 0
M  V30 3040 H 282.464 6.36318 1.57417 0
M  V30 3041 H 281.984 5.25937 2.88359 0
M  V30 3042 H 283.663 5.84401 2.77641 0
M  V30 3043 N 283.795 -0.628877 1.44509 0
M  V30 3044 C 284.758 -1.72263 1.51188 0
M  V30 3045 C 285.758 -1.55907 0.39367 0
M  V30 3046 O 286.948 -1.61361 0.656377 0
M  V30 3047 C 284.08 -3.11365 1.38798 0
M  V30 3048 H 285.273 -1.67714 2.4862 0
M  V30 3049 H 282.826 -0.842737 1.31634 0
M  V30 3050 H 283.561 -3.21507 0.424693 0
M  V30 3051 H 283.346 -3.24644 2.19884 0
M  V30 3052 H 284.836 -3.91075 1.46458 0
M  V30 3053 N 285.273 -1.31445 -0.869486 0
M  V30 3054 C 286.236 -1.19094 -1.9583 0
M  V30 3055 C 287.236 -0.117906 -1.60367 0
M  V30 3056 O 288.426 -0.367208 -1.70286 0
M  V30 3057 C 285.558 -0.828165 -3.30688 0
M  V30 3058 H 286.751 -2.15842 -2.08212 0
M  V30 3059 H 284.304 -1.15063 -1.05784 0
M  V30 3060 H 285.039 0.138142 -3.24006 0
M  V30 3061 H 284.824 -1.6038 -3.578 0
M  V30 3062 H 286.314 -0.765658 -4.10521 0
M  V30 3063 N 286.751 1.08385 -1.14413 0
M  V30 3064 C 287.998 1.80776 -0.912482 0
M  V30 3065 C 288.326 1.86236 0.560934 0
M  V30 3066 O 287.581 1.33431 1.43159 0
M  V30 3067 C 287.88 3.26273 -1.45879 0
M  V30 3068 C 287.546 3.4093 -2.95089 0
M  V30 3069 C 286.208 3.44638 -3.35824 0
M  V30 3070 C 288.56 3.44591 -3.91033 0
M  V30 3071 C 285.888 3.49597 -4.71167 0
M  V30 3072 C 288.24 3.51086 -5.26233 0
M  V30 3073 C 286.904 3.53067 -5.6648 0
M  V30 3074 H 286.174 0.661507 -0.333901 0
M  V30 3075 H 288.821 1.27613 -1.42784 0
M  V30 3076 H 287.126 3.82146 -0.864376 0
M  V30 3077 H 288.823 3.80839 -1.2555 0
M  V30 3078 H 285.413 3.38736 -2.62594 0
M  V30 3079 H 289.597 3.40957 -3.60641 0
M  V30 3080 H 284.853 3.49424 -5.0171 0
M  V30 3081 H 289.027 3.52864 -6.00383 0
M  V30 3082 H 286.654 3.56662 -6.71339 0
M  V30 3083 N 288.23 0.939286 1.26551 0
M  V30 3084 C 289.46 0.601663 1.97645 0
M  V30 3085 C 289.868 -0.827206 1.70159 0
M  V30 3086 O 289.211 -1.56291 0.965338 0
M  V30 3087 C 289.273 0.761725 3.51337 0
M  V30 3088 C 288.937 2.16487 4.0247 0
M  V30 3089 C 289.934 3.14016 4.14355 0
M  V30 3090 C 287.619 2.48494 4.36527 0
M  V30 3091 C 289.613 4.41654 4.59587 0
M  V30 3092 C 287.3 3.76364 4.81449 0
M  V30 3093 C 288.298 4.72758 4.92939 0
M  V30 3094 O 287.986 5.98352 5.36871 0
M  V30 3095 H 287.718 0.225758 0.637189 0
M  V30 3096 H 290.272 1.26178 1.62075 0
M  V30 3097 H 288.502 0.0444808 3.86674 0
M  V30 3098 H 290.191 0.427442 4.03643 0
M  V30 3099 H 290.957 2.90613 3.8829 0
M  V30 3100 H 286.836 1.74202 4.26819 0
M  V30 3101 H 290.38 5.16896 4.68471 0
M  V30 3102 H 286.277 3.99582 5.06956 0
M  V30 3103 H 287.045 6.01507 5.55096 0
M  V30 3104 N 289.708 -1.40897 0.706093 0
M  V30 3105 C 290.638 -2.33418 0.0620085 0
M  V30 3106 C 291.619 -1.52385 -0.755827 0
M  V30 3107 O 292.804 -1.80886 -0.706674 0
M  V30 3108 C 289.934 -3.36293 -0.867445 0
M  V30 3109 C 288.888 -4.27716 -0.155932 0
M  V30 3110 C 288.214 -5.2105 -1.20046 0
M  V30 3111 C 289.514 -5.12944 0.984149 0
M  V30 3112 H 291.208 -2.87527 0.83477 0
M  V30 3113 H 288.754 -1.38249 0.402875 0
M  V30 3114 H 290.707 -3.99949 -1.32735 0
M  V30 3115 H 289.431 -2.80556 -1.67199 0
M  V30 3116 H 288.09 -3.65498 0.284047 0
M  V30 3117 H 287.738 -4.61624 -1.99781 0
M  V30 3118 H 287.438 -5.83056 -0.729328 0
M  V30 3119 H 288.962 -5.87584 -1.66066 0
M  V30 3120 H 290.376 -5.70109 0.604048 0
M  V30 3121 H 288.773 -5.83945 1.38304 0
M  V30 3122 H 289.843 -4.49485 1.81911 0
M  V30 3123 N 291.186 -0.45159 -1.50991 0
M  V30 3124 C 292.597 0.00818571 -1.86698 0
M  V30 3125 C 292.948 1.40661 -1.3678 0
M  V30 3126 O 292.073 2.0391 -0.724546 0
M  V30 3127 C 292.668 0.0216303 -3.38793 0
M  V30 3128 C 291.227 0.425865 -3.73983 0
M  V30 3129 C 290.374 -0.372163 -2.74791 0
M  V30 3130 H 293.325 -0.666785 -1.44013 0
M  V30 3131 H 293.346 0.828078 -3.7138 0
M  V30 3132 H 292.858 -0.996288 -3.75094 0
M  V30 3133 H 290.959 1.44886 -3.43277 0
M  V30 3134 H 291.072 0.140761 -4.78893 0
M  V30 3135 H 289.436 0.171498 -2.54122 0
M  V30 3136 H 290.219 -1.38922 -3.13935 0
M  V30 3137 N 292.664 1.56529 -0.183458 0
M  V30 3138 C 293.91 1.97537 0.459036 0
M  V30 3139 C 294.243 1.06989 1.62071 0
M  V30 3140 O 293.518 0.11948 1.94133 0
M  V30 3141 C 293.801 3.47874 0.930368 0
M  V30 3142 C 293.654 4.492 -0.232317 0
M  V30 3143 C 294.973 4.01612 1.79989 0
M  V30 3144 H 292.092 0.718204 0.165383 0
M  V30 3145 H 294.734 1.88042 -0.272038 0
M  V30 3146 H 292.884 3.56095 1.55333 0
M  V30 3147 H 294.556 4.53027 -0.86972 0
M  V30 3148 H 292.799 4.24657 -0.885928 0
M  V30 3149 H 293.47 5.51823 0.139796 0
M  V30 3150 H 295.946 3.96097 1.27461 0
M  V30 3151 H 294.822 5.07195 2.09867 0
M  V30 3152 H 295.083 3.46163 2.74998 0
M  V30 3153 N 294.142 -0.090211 1.57342 0
M  V30 3154 C 295.391 -0.791531 1.8552 0
M  V30 3155 C 295.704 -1.79659 0.773441 0
M  V30 3156 O 296.91 -2.54616 0.942497 0
M  V30 3157 C 295.366 -1.45856 3.2902 0
M  V30 3158 C 294.974 -0.493017 4.45279 0
M  V30 3159 C 296.718 -2.14332 3.66418 0
M  V30 3160 C 294.625 -1.16491 5.79814 0
M  V30 3161 H 293.555 -0.299356 0.692027 0
M  V30 3162 H 296.206 -0.0445343 1.83446 0
M  V30 3163 H 294.588 -2.25318 3.2565 0
M  V30 3164 H 295.762 0.270464 4.60006 0
M  V30 3165 H 294.077 0.0863061 4.16311 0
M  V30 3166 H 296.674 -2.65344 4.64216 0
M  V30 3167 H 297.017 -2.93447 2.95287 0
M  V30 3168 H 297.55 -1.41724 3.71698 0
M  V30 3169 H 294.289 -0.41447 6.54188 0
M  V30 3170 H 293.809 -1.8997 5.68921 0
M  V30 3171 H 295.488 -1.69001 6.24538 0
M  V30 3172 N 295.62 -1.53406 -0.361157 0
M  V30 3173 C 296.869 -1.69022 -1.10066 0
M  V30 3174 C 297.182 -0.450838 -1.90333 0
M  V30 3175 O 298.388 -0.487617 -2.67085 0
M  V30 3176 C 296.844 -2.98812 -2.00598 0
M  V30 3177 C 296.452 -4.30027 -1.25621 0
M  V30 3178 C 298.196 -3.23795 -2.74513 0
M  V30 3179 C 296.103 -5.50903 -2.1508 0
M  V30 3180 H 295.033 -0.629776 -0.414606 0
M  V30 3181 H 297.684 -1.79907 -0.361348 0
M  V30 3182 H 296.066 -2.8174 -2.78278 0
M  V30 3183 H 297.24 -4.57745 -0.529739 0
M  V30 3184 H 295.555 -4.11522 -0.635496 0
M  V30 3185 H 298.152 -4.11289 -3.41681 0
M  V30 3186 H 298.495 -2.40045 -3.40123 0
M  V30 3187 H 299.028 -3.41561 -2.03914 0
M  V30 3188 H 295.767 -6.37143 -1.54041 0
M  V30 3189 H 295.287 -5.27459 -2.85565 0
M  V30 3190 H 296.966 -5.85865 -2.74538 0
M  V30 3191 N 297.098 0.621204 -1.44841 0
M  V30 3192 C 298.031 1.7459 -1.46947 0
M  V30 3193 C 299.009 1.59273 -0.327238 0
M  V30 3194 O 300.193 1.81021 -0.525706 0
M  V30 3195 C 297.32 3.12274 -1.31159 0
M  V30 3196 C 296.366 3.46216 -2.49072 0
M  V30 3197 S 297.199 3.4258 -4.11581 0
M  V30 3198 C 298.355 4.82867 -3.98233 0
M  V30 3199 H 298.588 1.72538 -2.42111 0
M  V30 3200 H 296.121 0.796683 -1.32259 0
M  V30 3201 H 298.079 3.91722 -1.22737 0
M  V30 3202 H 296.74 3.11855 -0.374885 0
M  V30 3203 H 295.933 4.4643 -2.33915 0
M  V30 3204 H 295.535 2.74253 -2.54286 0
M  V30 3205 H 297.827 5.7234 -3.62537 0
M  V30 3206 H 298.77 5.0308 -4.98313 0
M  V30 3207 H 299.178 4.57908 -3.30121 0
M  V30 3208 N 298.576 1.31904 0.862503 0
M  V30 3209 C 299.804 1.24998 1.64873 0
M  V30 3210 C 300.219 -0.183425 1.87907 0
M  V30 3211 O 299.576 -1.11794 1.44251 0
M  V30 3212 C 299.627 1.99829 3.01248 0
M  V30 3213 O 299.348 3.37575 2.79239 0
M  V30 3214 C 300.849 1.99852 3.95694 0
M  V30 3215 H 298.069 0.431599 0.513773 0
M  V30 3216 H 300.613 1.73901 1.07604 0
M  V30 3217 H 298.768 1.54668 3.55185 0
M  V30 3218 H 299.182 3.75776 3.65914 0
M  V30 3219 H 300.656 2.56709 4.88676 0
M  V30 3220 H 301.133 0.982852 4.28062 0
M  V30 3221 H 301.739 2.44926 3.47694 0
M  V30 3222 N 300.054 -1.07777 1.14986 0
M  V30 3223 C 301.3 -1.80557 0.923422 0
M  V30 3224 C 301.633 -1.86298 -0.548337 0
M  V30 3225 O 300.908 -1.34354 -1.40639 0
M  V30 3226 C 301.191 -3.25839 1.53299 0
M  V30 3227 C 301.044 -3.28269 3.07505 0
M  V30 3228 C 302.363 -4.22991 1.21518 0
M  V30 3229 H 299.482 -0.655493 0.336894 0
M  V30 3230 H 302.124 -1.26144 1.42083 0
M  V30 3231 H 300.274 -3.72306 1.10999 0
M  V30 3232 H 301.946 -2.90079 3.58681 0
M  V30 3233 H 300.189 -2.67355 3.4162 0
M  V30 3234 H 300.86 -4.30691 3.45266 0
M  V30 3235 H 303.336 -3.84894 1.581 0
M  V30 3236 H 302.212 -5.22945 1.66793 0
M  V30 3237 H 302.473 -4.41904 0.131505 0
M  V30 3238 N 301.532 -0.945985 -1.26051 0
M  V30 3239 C 302.462 -0.477172 -2.28572 0
M  V30 3240 C 303.443 0.472032 -1.63419 0
M  V30 3241 O 304.628 0.372853 -1.90587 0
M  V30 3242 C 301.758 0.253975 -3.4637 0
M  V30 3243 C 300.712 -0.609135 -4.23643 0
M  V30 3244 C 300.038 0.252252 -5.34105 0
M  V30 3245 C 301.338 -1.8829 -4.8718 0
M  V30 3246 H 303.032 -1.33402 -2.68038 0
M  V30 3247 H 300.578 -0.642904 -1.28852 0
M  V30 3248 H 302.531 0.593016 -4.17207 0
M  V30 3249 H 301.255 1.145 -3.05871 0
M  V30 3250 H 299.914 -0.931138 -3.54578 0
M  V30 3251 H 299.562 1.14278 -4.89846 0
M  V30 3252 H 299.262 -0.32188 -5.86718 0
M  V30 3253 H 300.786 0.586454 -6.07777 0
M  V30 3254 H 302.2 -1.61081 -5.50205 0
M  V30 3255 H 300.597 -2.40199 -5.49931 0
M  V30 3256 H 301.667 -2.59134 -4.09851 0
M  V30 3257 N 303.011 1.40521 -0.713556 0
M  V30 3258 C 304.241 2.0494 -0.261395 0
M  V30 3259 C 304.649 1.53861 1.10107 0
M  V30 3260 O 303.992 0.689321 1.70276 0
M  V30 3261 C 304.054 3.59138 -0.161227 0
M  V30 3262 C 303.718 4.33096 -1.45865 0
M  V30 3263 C 304.715 4.61182 -2.40016 0
M  V30 3264 C 302.4 4.72043 -1.71701 0
M  V30 3265 C 304.394 5.27196 -3.58251 0
M  V30 3266 C 302.081 5.37789 -2.90218 0
M  V30 3267 C 303.079 5.65295 -3.83315 0
M  V30 3268 O 302.767 6.29683 -4.99754 0
M  V30 3269 H 302.499 0.666041 -0.115608 0
M  V30 3270 H 305.053 1.80954 -0.971849 0
M  V30 3271 H 303.283 3.81936 0.605153 0
M  V30 3272 H 304.972 4.05091 0.256105 0
M  V30 3273 H 305.738 4.31559 -2.21318 0
M  V30 3274 H 301.617 4.50003 -1.00092 0
M  V30 3275 H 305.161 5.48582 -4.30934 0
M  V30 3276 H 301.058 5.66831 -3.08825 0
M  V30 3277 H 301.826 6.4818 -4.99805 0
M  V30 3278 N 304.489 0.459591 1.5075 0
M  V30 3279 C 305.735 -0.091664 2.03193 0
M  V30 3280 C 306.09 -1.38432 1.3362 0
M  V30 3281 O 305.383 -1.86257 0.449322 0
M  V30 3282 C 305.577 -0.342866 3.55752 0
M  V30 3283 C 305.406 0.923888 4.40107 0
M  V30 3284 C 304.176 1.46388 4.83631 0
M  V30 3285 C 306.374 1.81617 4.81165 0
M  V30 3286 N 304.356 2.68086 5.52271 0
M  V30 3287 C 305.727 2.87907 5.49099 0
M  V30 3288 C 307.782 1.82793 4.63132 0
M  V30 3289 C 306.485 3.95347 6.0091 0
M  V30 3290 C 308.511 2.89182 5.15876 0
M  V30 3291 C 307.873 3.94191 5.83774 0
M  V30 3292 H 303.972 0.00619247 0.781975 0
M  V30 3293 H 306.556 0.625233 1.84388 0
M  V30 3294 H 304.727 -1.0288 3.74527 0
M  V30 3295 H 306.459 -0.887445 3.9485 0
M  V30 3296 H 303.214 1.01466 4.62603 0
M  V30 3297 H 303.638 3.29857 5.91205 0
M  V30 3298 H 308.28 1.0293 4.1008 0
M  V30 3299 H 305.998 4.76035 6.53006 0
M  V30 3300 H 309.584 2.91061 5.0376 0
M  V30 3301 H 308.464 4.75161 6.23853 0
M  V30 3302 N 305.967 -1.56429 0.191757 0
M  V30 3303 C 306.917 -2.15548 -0.743184 0
M  V30 3304 C 307.901 -1.09531 -1.17863 0
M  V30 3305 O 309.093 -1.35602 -1.13759 0
M  V30 3306 C 306.222 -2.81577 -1.96391 0
M  V30 3307 C 305.308 -3.9478 -1.54951 0
M  V30 3308 N 305.699 -4.98677 -0.845876 0
M  V30 3309 C 303.997 -4.06319 -1.83905 0
M  V30 3310 C 304.698 -5.78183 -0.638724 0
M  V30 3311 N 303.674 -5.30495 -1.18643 0
M  V30 3312 H 307.476 -2.9324 -0.196839 0
M  V30 3313 H 304.99 -1.62398 -0.0081603 0
M  V30 3314 H 306.987 -3.22321 -2.64415 0
M  V30 3315 H 305.647 -2.05371 -2.51501 0
M  V30 3316 H 306.658 -5.15464 -0.501704 0
M  V30 3317 H 303.335 -3.41238 -2.40548 0
M  V30 3318 H 304.725 -6.71851 -0.0807929 0
M  V30 3319 N 307.445 0.0818655 -1.57387 0
M  V30 3320 C 308.694 0.781681 -1.85937 0
M  V30 3321 C 309.007 1.79246 -0.782957 0
M  V30 3322 O 310.213 2.54112 -0.955987 0
M  V30 3323 C 308.669 1.44109 -3.29789 0
M  V30 3324 C 308.277 0.469396 -4.45534 0
M  V30 3325 C 310.021 2.12386 -3.67549 0
M  V30 3326 C 307.928 1.13415 -5.80423 0
M  V30 3327 H 306.858 0.295682 -0.693605 0
M  V30 3328 H 309.509 0.0348051 -1.83467 0
M  V30 3329 H 307.891 2.23588 -3.2684 0
M  V30 3330 H 309.065 -0.294856 -4.59856 0
M  V30 3331 H 307.38 -0.108383 -4.16259 0
M  V30 3332 H 309.977 2.62878 -4.65617 0
M  V30 3333 H 310.32 2.91877 -2.96839 0
M  V30 3334 H 310.853 1.39751 -3.72444 0
M  V30 3335 H 307.592 0.379771 -6.54399 0
M  V30 3336 H 307.112 1.8695 -5.69921 0
M  V30 3337 H 308.791 1.65686 -6.25426 0
M  V30 3338 N 308.923 1.53595 0.353017 0
M  V30 3339 C 310.148 1.7462 1.11904 0
M  V30 3340 C 310.573 0.479721 1.8188 0
M  V30 3341 O 309.931 -0.567066 1.72204 0
M  V30 3342 C 309.979 2.92029 2.11545 0
M  V30 3343 O 309.083 2.61516 3.18878 0
M  V30 3344 H 308.424 0.579531 0.324099 0
M  V30 3345 H 310.954 2.00525 0.406301 0
M  V30 3346 H 310.964 3.18551 2.5493 0
M  V30 3347 H 309.639 3.83888 1.60008 0
M  V30 3348 H 308.216 2.45852 2.80377 0
M  V30 3349 N 310.401 -0.613514 1.45168 0
M  V30 3350 C 311.817 -0.933629 1.29443 0
M  V30 3351 C 312.017 -2.00028 0.243101 0
M  V30 3352 O 311.073 -2.49848 -0.364992 0
M  V30 3353 C 312.386 -1.38018 2.67155 0
M  V30 3354 C 313.934 -1.49471 2.75004 0
M  V30 3355 C 314.409 -1.97503 4.13227 0
M  V30 3356 N 315.9 -2.04746 4.15491 0
M  V30 3357 C 316.635 -2.43121 5.19307 0
M  V30 3358 N 316.131 -2.80506 6.33473 0
M  V30 3359 N 317.924 -2.43408 5.06664 0
M  V30 3360 H 310.075 0.0916097 2.12202 0
M  V30 3361 H 312.338 -0.0216655 0.947752 0
M  V30 3362 H 312.044 -0.670625 3.45247 0
M  V30 3363 H 311.918 -2.34784 2.95222 0
M  V30 3364 H 314.305 -2.19519 1.9722 0
M  V30 3365 H 314.386 -0.510342 2.50657 0
M  V30 3366 H 314.03 -1.28045 4.91495 0
M  V30 3367 H 313.96 -2.96843 4.34962 0
M  V30 3368 H 316.451 -1.78468 3.33103 0
M  V30 3369 H 316.764 -3.08652 7.08487 0
M  V30 3370 H 315.109 -2.78216 6.36884 0
M  V30 3371 H 318.3 -2.13604 4.16523 0
M  V30 3372 H 318.473 -2.72989 5.87691 0
M  V30 3373 N 311.879 -1.3236 -0.855495 0
M  V30 3374 C 312.842 -1.21164 -1.94556 0
M  V30 3375 C 313.842 -0.134908 -1.60233 0
M  V30 3376 O 315.032 -0.385249 -1.69887 0
M  V30 3377 C 312.164 -0.863192 -3.29791 0
M  V30 3378 H 313.357 -2.18038 -2.05911 0
M  V30 3379 H 310.91 -1.16179 -1.04557 0
M  V30 3380 H 311.645 0.103769 -3.24134 0
M  V30 3381 H 311.43 -1.64166 -3.56078 0
M  V30 3382 H 312.92 -0.809156 -4.09686 0
M  V30 3383 N 313.357 1.07166 -1.15556 0
M  V30 3384 C 314.582 1.84053 -0.955988 0
M  V30 3385 C 315.007 1.81586 0.490739 0
M  V30 3386 O 314.365 1.21018 1.34997 0
M  V30 3387 C 314.413 3.28957 -1.47714 0
M  V30 3388 O 313.517 4.06795 -0.677593 0
M  V30 3389 H 312.858 0.569842 -0.340847 0
M  V30 3390 H 315.388 1.35178 -1.53584 0
M  V30 3391 H 315.398 3.79788 -1.4908 0
M  V30 3392 H 314.073 3.30068 -2.53037 0
M  V30 3393 H 312.65 3.6561 -0.733721 0
M  V30 3394 N 314.835 0.952656 1.25548 0
M  V30 3395 C 315.782 0.47008 2.25962 0
M  V30 3396 C 316.752 -0.476384 1.59122 0
M  V30 3397 O 317.937 -0.39007 1.8677 0
M  V30 3398 C 315.077 -0.247881 3.44209 0
M  V30 3399 C 314.19 0.735591 4.25691 0
M  V30 3400 C 313.325 -0.0047306 5.312 0
M  V30 3401 C 312.364 0.969805 6.04368 0
M  V30 3402 N 311.501 0.260486 7.01617 0
M  V30 3403 H 316.341 1.33126 2.66611 0
M  V30 3404 H 313.878 0.66765 1.31076 0
M  V30 3405 H 315.836 -0.680695 4.1161 0
M  V30 3406 H 314.466 -1.07312 3.0444 0
M  V30 3407 H 313.518 1.28689 3.57971 0
M  V30 3408 H 314.83 1.47934 4.76358 0
M  V30 3409 H 313.984 -0.496275 6.04667 0
M  V30 3410 H 312.723 -0.781282 4.81401 0
M  V30 3411 H 311.728 1.47237 5.29718 0
M  V30 3412 H 312.953 1.74655 6.56256 0
M  V30 3413 H 310.899 -0.497364 6.54112 0
M  V30 3414 H 310.816 0.943362 7.50091 0
M  V30 3415 H 312.084 -0.209587 7.79218 0
M  V30 3416 N 316.313 -1.40141 0.720998 0
M  V30 3417 C 317.538 -2.05618 0.271258 0
M  V30 3418 C 317.963 -1.53978 -1.08039 0
M  V30 3419 O 317.321 -0.677463 -1.68167 0
M  V30 3420 C 317.369 -3.59609 0.267197 0
M  V30 3421 O 316.473 -4.05526 -0.749814 0
M  V30 3422 H 315.814 -0.651904 0.126162 0
M  V30 3423 H 318.344 -1.79439 0.982997 0
M  V30 3424 H 318.354 -4.0786 0.106744 0
M  V30 3425 H 317.029 -3.96559 1.25354 0
M  V30 3426 H 315.606 -3.68722 -0.556644 0
M  V30 3427 N 317.792 -0.46758 -1.50504 0
M  V30 3428 C 319.208 -0.121533 -1.59137 0
M  V30 3429 C 319.408 1.3717 -1.47603 0
M  V30 3430 O 318.464 2.14464 -1.33272 0
M  V30 3431 C 319.777 -0.6686 -2.93173 0
M  V30 3432 C 321.325 -0.631716 -3.06559 0
M  V30 3433 C 321.8 -1.15627 -4.43164 0
M  V30 3434 N 323.291 -1.11553 -4.49567 0
M  V30 3435 C 324.026 -1.49195 -5.5365 0
M  V30 3436 N 323.522 -1.94269 -6.65005 0
M  V30 3437 N 325.315 -1.4082 -5.44175 0
M  V30 3438 H 317.466 -1.4388 -1.56245 0
M  V30 3439 H 319.729 -0.594784 -0.738198 0
M  V30 3440 H 319.435 -1.71453 -3.07078 0
M  V30 3441 H 319.309 -0.11021 -3.77039 0
M  V30 3442 H 321.696 0.405297 -2.92304 0
M  V30 3443 H 321.777 -1.22687 -2.24458 0
M  V30 3444 H 321.421 -2.1919 -4.58168 0
M  V30 3445 H 321.351 -0.537365 -5.23851 0
M  V30 3446 H 323.842 -0.784895 -3.69659 0
M  V30 3447 H 324.155 -2.21148 -7.40482 0
M  V30 3448 H 322.5 -1.98219 -6.66134 0
M  V30 3449 H 325.691 -1.0545 -4.56068 0
M  V30 3450 H 325.864 -1.70481 -6.25172 0
M  V30 3451 N 319.27 1.56325 -0.20005 0
M  V30 3452 C 320.519 1.96895 0.437652 0
M  V30 3453 C 320.832 1.08999 1.62415 0
M  V30 3454 O 322.038 1.39372 2.32997 0
M  V30 3455 C 320.494 3.50198 0.830025 0
M  V30 3456 C 320.102 4.46765 -0.332461 0
M  V30 3457 C 321.846 3.99526 1.43453 0
M  V30 3458 C 319.753 5.91344 0.0811468 0
M  V30 3459 H 318.683 0.735209 0.167282 0
M  V30 3460 H 321.334 1.81148 -0.292853 0
M  V30 3461 H 319.716 3.61467 1.61734 0
M  V30 3462 H 320.89 4.47231 -1.11 0
M  V30 3463 H 319.205 4.07657 -0.848789 0
M  V30 3464 H 321.802 5.05025 1.75652 0
M  V30 3465 H 322.145 3.44122 2.34277 0
M  V30 3466 H 322.678 3.91393 0.71109 0
M  V30 3467 H 319.417 6.50685 -0.793033 0
M  V30 3468 H 318.937 5.94121 0.823445 0
M  V30 3469 H 320.616 6.44945 0.515252 0
M  V30 3470 N 320.748 -0.0735177 1.57428 0
M  V30 3471 C 321.695 -1.08756 2.0357 0
M  V30 3472 C 322.665 -1.38559 0.916 0
M  V30 3473 O 323.85 -1.49656 1.18354 0
M  V30 3474 C 320.99 -2.39657 2.48311 0
M  V30 3475 C 320.103 -2.16399 3.73892 0
M  V30 3476 C 319.238 -3.40852 4.07423 0
M  V30 3477 C 318.277 -3.1295 5.2605 0
M  V30 3478 N 317.414 -4.29729 5.55228 0
M  V30 3479 H 322.254 -0.687104 2.8997 0
M  V30 3480 H 319.791 -0.327709 1.43403 0
M  V30 3481 H 321.749 -3.16081 2.72303 0
M  V30 3482 H 320.379 -2.77508 1.64891 0
M  V30 3483 H 319.431 -1.30676 3.57251 0
M  V30 3484 H 320.743 -1.91788 4.60455 0
M  V30 3485 H 319.897 -4.25671 4.32306 0
M  V30 3486 H 318.636 -3.68537 3.19425 0
M  V30 3487 H 317.641 -2.26526 5.00965 0
M  V30 3488 H 318.866 -2.86589 6.15665 0
M  V30 3489 H 316.812 -4.57448 4.70188 0
M  V30 3490 H 316.729 -4.08385 6.36206 0
M  V30 3491 H 317.997 -5.1555 5.84661 0
M  V30 3492 N 322.226 -1.5378 -0.344866 0
M  V30 3493 C 323.173 -1.81676 -1.42346 0
M  V30 3494 C 324.143 -0.662376 -1.52321 0
M  V30 3495 O 325.328 -0.906675 -1.67881 0
M  V30 3496 C 322.468 -2.03087 -2.79015 0
M  V30 3497 C 321.581 -3.30799 -2.77842 0
M  V30 3498 C 320.716 -3.42285 -4.0622 0
M  V30 3499 C 319.755 -4.6395 -3.9927 0
M  V30 3500 N 318.892 -4.72477 -5.19336 0
M  V30 3501 H 323.732 -2.73703 -1.17858 0
M  V30 3502 H 321.269 -1.35568 -0.570949 0
M  V30 3503 H 323.227 -2.1349 -3.58438 0
M  V30 3504 H 321.857 -1.14375 -3.01858 0
M  V30 3505 H 320.909 -3.29244 -1.90533 0
M  V30 3506 H 322.221 -4.20314 -2.68584 0
M  V30 3507 H 321.375 -3.52113 -4.94066 0
M  V30 3508 H 320.114 -2.50823 -4.18258 0
M  V30 3509 H 319.119 -4.54201 -3.09809 0
M  V30 3510 H 320.344 -5.56775 -3.88817 0
M  V30 3511 H 318.29 -3.83924 -5.3192 0
M  V30 3512 H 318.207 -5.55927 -5.12329 0
M  V30 3513 H 319.475 -4.86613 -6.08957 0
M  V30 3514 N 323.704 0.605807 -1.45491 0
M  V30 3515 C 324.981 1.36522 -1.40075 0
M  V30 3516 C 325.361 2.10976 -0.0722744 0
M  V30 3517 O 324.709 2.08007 0.945808 0
M  V30 3518 C 324.919 2.31056 -2.61561 0
M  V30 3519 C 326.267 2.93608 -3.06724 0
M  V30 3520 O 327.291 2.41376 -2.61946 0
M  V30 3521 O 326.15 3.88421 -3.84437 0
M  V30 3522 H 323.244 0.612248 -0.555951 0
M  V30 3523 H 325.79 0.628747 -1.57623 0
M  V30 3524 H 324.562 1.75311 -3.49831 0
M  V30 3525 H 324.185 3.12081 -2.46356 0
M  V30 3526 N 325.182 1.32811 0.848464 0
M  V30 3527 C 326.129 1.22265 1.95755 0
M  V30 3528 C 327.099 0.103413 1.65778 0
M  V30 3529 O 328.284 0.280033 1.88734 0
M  V30 3530 C 325.424 0.958014 3.31536 0
M  V30 3531 C 324.537 2.16262 3.73971 0
M  V30 3532 C 323.672 1.83295 4.98575 0
M  V30 3533 C 322.711 3.00041 5.33518 0
M  V30 3534 N 321.848 2.67125 6.49299 0
M  V30 3535 H 326.688 2.17128 2.04107 0
M  V30 3536 H 324.225 1.07982 0.998913 0
M  V30 3537 H 326.183 0.785052 4.09747 0
M  V30 3538 H 324.813 0.046159 3.22767 0
M  V30 3539 H 323.865 2.44565 2.91362 0
M  V30 3540 H 325.177 3.03572 3.95785 0
M  V30 3541 H 324.331 1.62586 5.84509 0
M  V30 3542 H 323.07 0.932078 4.7871 0
M  V30 3543 H 322.075 3.21374 4.46093 0
M  V30 3544 H 323.3 3.90869 5.55336 0
M  V30 3545 H 321.246 1.79586 6.3094 0
M  V30 3546 H 321.163 3.47965 6.71161 0
M  V30 3547 H 322.431 2.49861 7.3837 0
M  V30 3548 N 326.66 -1.06551 1.16123 0
M  V30 3549 C 327.607 -2.13961 0.865414 0
M  V30 3550 C 328.577 -1.65066 -0.185055 0
M  V30 3551 O 329.762 -1.90732 -0.05083 0
M  V30 3552 C 326.902 -3.43113 0.369776 0
M  V30 3553 C 326.015 -4.05756 1.48276 0
M  V30 3554 C 325.15 -5.22773 0.942414 0
M  V30 3555 C 324.189 -5.77395 2.03179 0
M  V30 3556 N 323.326 -6.85731 1.50721 0
M  V30 3557 H 328.166 -2.38605 1.78527 0
M  V30 3558 H 325.703 -1.17072 0.890646 0
M  V30 3559 H 327.661 -4.17151 0.0640643 0
M  V30 3560 H 326.291 -3.18695 -0.513143 0
M  V30 3561 H 325.343 -3.29292 1.9045 0
M  V30 3562 H 326.655 -4.42351 2.30493 0
M  V30 3563 H 325.809 -6.03827 0.589729 0
M  V30 3564 H 324.548 -4.87618 0.0895191 0
M  V30 3565 H 323.553 -4.94981 2.3932 0
M  V30 3566 H 324.778 -6.14603 2.8886 0
M  V30 3567 H 322.724 -6.52499 0.676811 0
M  V30 3568 H 322.641 -7.21254 2.26557 0
M  V30 3569 H 323.909 -7.7047 1.18303 0
M  V30 3570 N 328.138 -0.959301 -1.25041 0
M  V30 3571 C 329.048 -0.489994 -2.29426 0
M  V30 3572 C 330.064 0.444944 -1.68215 0
M  V30 3573 O 331.24 0.320046 -1.98841 0
M  V30 3574 C 328.305 0.220309 -3.45999 0
M  V30 3575 C 327.366 -0.753418 -4.22637 0
M  V30 3576 C 326.599 -0.076918 -5.33645 0
M  V30 3577 O 326.822 1.13649 -5.58963 0
M  V30 3578 O 325.756 -0.764824 -5.97021 0
M  V30 3579 H 329.582 -1.35755 -2.71669 0
M  V30 3580 H 327.167 -0.725961 -1.30576 0
M  V30 3581 H 329.049 0.619677 -4.16819 0
M  V30 3582 H 327.724 1.06296 -3.0575 0
M  V30 3583 H 326.631 -1.20308 -3.54227 0
M  V30 3584 H 327.964 -1.56423 -4.66683 0
M  V30 3585 N 329.616 1.39756 -0.72842 0
M  V30 3586 C 331.027 1.83498 -0.344289 0
M  V30 3587 C 331.378 1.60868 1.12321 0
M  V30 3588 O 330.503 1.09634 1.86573 0
M  V30 3589 C 331.098 3.33114 -0.618112 0
M  V30 3590 C 329.657 3.753 -0.287549 0
M  V30 3591 C 328.804 2.62831 -0.884048 0
M  V30 3592 H 331.755 1.28842 -0.926578 0
M  V30 3593 H 331.776 3.80334 0.112349 0
M  V30 3594 H 331.288 3.49553 -1.68625 0
M  V30 3595 H 329.389 3.64451 0.775012 0
M  V30 3596 H 329.502 4.72945 -0.765512 0
M  V30 3597 H 327.866 2.52792 -0.311149 0
M  V30 3598 H 328.649 2.82078 -1.95671 0
M  V30 3599 N 331.094 0.475555 1.50254 0
M  V30 3600 C 332.34 -0.0780073 2.0265 0
M  V30 3601 C 332.673 -1.38968 1.35652 0
M  V30 3602 O 331.948 -1.8839 0.483691 0
M  V30 3603 C 332.231 -0.257161 3.59181 0
M  V30 3604 C 332.084 1.07585 4.36744 0
M  V30 3605 C 333.403 -1.00965 4.28362 0
M  V30 3606 H 330.522 -0.0268758 0.73651 0
M  V30 3607 H 333.164 0.622015 1.7953 0
M  V30 3608 H 331.314 -0.853412 3.79011 0
M  V30 3609 H 332.986 1.70902 4.28474 0
M  V30 3610 H 331.229 1.6714 4.00308 0
M  V30 3611 H 331.9 0.904088 5.44546 0
M  V30 3612 H 334.376 -0.504214 4.13034 0
M  V30 3613 H 333.252 -1.10381 5.37687 0
M  V30 3614 H 333.513 -2.04731 3.91839 0
M  V30 3615 N 332.573 -1.56217 0.208337 0
M  V30 3616 C 333.536 -2.18455 -0.693557 0
M  V30 3617 C 334.536 -1.14268 -1.13135 0
M  V30 3618 O 335.726 -1.39577 -1.0423 0
M  V30 3619 C 332.858 -2.79727 -1.94848 0
M  V30 3620 H 334.051 -2.99519 -0.15114 0
M  V30 3621 H 331.604 -1.56245 -0.041287 0
M  V30 3622 H 332.339 -2.02497 -2.53309 0
M  V30 3623 H 332.124 -3.56009 -1.64316 0
M  V30 3624 H 333.614 -3.27475 -2.59133 0
M  V30 3625 N 334.051 0.0651679 -1.57465 0
M  V30 3626 C 334.999 1.09542 -2.05191 0
M  V30 3627 C 335.993 1.39675 -0.958509 0
M  V30 3628 O 337.199 1.39003 -1.14359 0
M  V30 3629 H 333.574 0.370623 -0.654326 0
M  V30 3630 H 335.545 0.666802 -2.90854 0
M  V30 3631 C 334.294 2.39881 -2.51699 0
M  V30 3632 H 333.617 2.17547 -3.3543 0
M  V30 3633 H 335.057 3.104 -2.88839 0
M  V30 3634 C 333.516 3.0631 -1.40271 0
M  V30 3635 O 334.046 3.94664 -0.748523 0
M  V30 3636 N 332.252 2.67041 -1.14618 0
M  V30 3637 H 331.799 1.95281 -1.67997 0
M  V30 3638 H 331.757 3.1181 -0.402688 0
M  V30 3639 N 335.529 1.53961 0.336706 0
M  V30 3640 C 336.461 1.78751 1.4346 0
M  V30 3641 C 337.474 0.669019 1.48418 0
M  V30 3642 O 338.663 0.945884 1.51378 0
M  V30 3643 C 335.763 1.87844 2.82078 0
M  V30 3644 C 334.936 3.17854 3.00479 0
M  V30 3645 C 333.995 3.17816 4.19379 0
M  V30 3646 O 333.021 3.91511 4.13168 0
M  V30 3647 N 334.223 2.40669 5.2826 0
M  V30 3648 H 336.988 2.73493 1.22563 0
M  V30 3649 H 334.549 1.53096 0.526625 0
M  V30 3650 H 336.541 1.85261 3.59806 0
M  V30 3651 H 335.111 1.00257 2.96086 0
M  V30 3652 H 334.331 3.33504 2.10163 0
M  V30 3653 H 335.619 4.03718 3.0966 0
M  V30 3654 H 335.017 1.8036 5.36178 0
M  V30 3655 H 333.574 2.43877 6.04456 0
M  V30 3656 N 337.007 -0.598083 1.45811 0
M  V30 3657 C 338.284 -1.35777 1.40797 0
M  V30 3658 C 338.664 -2.10935 0.083462 0
M  V30 3659 O 338.012 -2.08505 -0.934763 0
M  V30 3660 C 338.222 -2.29666 2.62783 0
M  V30 3661 C 339.57 -2.91977 3.08277 0
M  V30 3662 O 340.594 -2.39984 2.63223 0
M  V30 3663 O 339.453 -3.86376 3.86491 0
M  V30 3664 H 336.547 -0.609291 0.55919 0
M  V30 3665 H 339.093 -0.620379 1.57954 0
M  V30 3666 H 337.865 -1.73454 3.50756 0
M  V30 3667 H 337.488 -3.1077 2.48008 0
M  V30 3668 N 338.485 -1.33259 -0.841409 0
M  V30 3669 C 339.896 -1.22066 -1.41269 0
M  V30 3670 C 340.247 0.161479 -1.95534 0
M  V30 3671 O 339.372 1.06094 -1.88608 0
M  V30 3672 C 339.967 -2.20996 -2.568 0
M  V30 3673 C 338.526 -2.13649 -3.09888 0
M  V30 3674 C 337.673 -2.08623 -1.82679 0
M  V30 3675 H 340.624 -1.44895 -0.647395 0
M  V30 3676 H 340.645 -1.81621 -3.34356 0
M  V30 3677 H 340.157 -3.2158 -2.17274 0
M  V30 3678 H 338.258 -1.16359 -3.53965 0
M  V30 3679 H 338.371 -3.04079 -3.70234 0
M  V30 3680 H 336.735 -1.54061 -2.02824 0
M  V30 3681 H 337.518 -3.1101 -1.45353 0
M  V30 3682 N 339.963 1.05934 -1.16686 0
M  V30 3683 C 341.209 1.79065 -0.95203 0
M  V30 3684 C 341.542 1.87147 0.518629 0
M  V30 3685 O 340.817 1.36574 1.38484 0
M  V30 3686 C 341.1 3.23359 -1.58464 0
M  V30 3687 C 340.953 3.23336 -3.12689 0
M  V30 3688 C 342.272 4.21004 -1.28232 0
M  V30 3689 H 339.391 0.65005 -0.34728 0
M  V30 3690 H 342.033 1.23868 -1.44072 0
M  V30 3691 H 340.183 3.70493 -1.16908 0
M  V30 3692 H 341.855 2.84336 -3.6325 0
M  V30 3693 H 340.098 2.61886 -3.4583 0
M  V30 3694 H 340.769 4.25144 -3.52075 0
M  V30 3695 H 343.245 3.8233 -1.64203 0
M  V30 3696 H 342.121 5.20225 -1.75092 0
M  V30 3697 H 342.382 4.41639 -0.201791 0
M  V30 3698 N 341.441 0.965919 1.2453 0
M  V30 3699 C 342.666 0.643971 1.97149 0
M  V30 3700 C 343.091 -0.779487 1.71189 0
M  V30 3701 O 342.449 -1.5288 0.974553 0
M  V30 3702 C 342.497 0.922557 3.48599 0
M  V30 3703 O 341.601 0.00707672 4.12399 0
M  V30 3704 H 340.942 0.243647 0.617683 0
M  V30 3705 H 343.472 1.29558 1.58353 0
M  V30 3706 H 343.482 0.853373 3.98976 0
M  V30 3707 H 342.157 1.95996 3.66822 0
M  V30 3708 H 340.734 0.12943 3.72675 0
M  V30 3709 N 342.919 -1.39368 0.735821 0
M  V30 3710 C 344.33 -1.83313 0.354015 0
M  V30 3711 C 344.681 -1.61461 -1.11466 0
M  V30 3712 O 343.806 -1.10621 -1.85989 0
M  V30 3713 C 344.401 -3.32781 0.635769 0
M  V30 3714 C 342.96 -3.75142 0.307448 0
M  V30 3715 C 342.107 -2.62358 0.897974 0
M  V30 3716 H 345.058 -1.28349 0.933398 0
M  V30 3717 H 345.079 -3.80388 -0.0921773 0
M  V30 3718 H 344.591 -3.48654 1.70476 0
M  V30 3719 H 342.692 -3.64857 -0.755674 0
M  V30 3720 H 342.805 -4.72532 0.790583 0
M  V30 3721 H 341.169 -2.52624 0.324551 0
M  V30 3722 H 341.952 -2.81036 1.97164 0
M  V30 3723 N 344.397 -0.483516 -1.5 0
M  V30 3724 C 345.622 0.0667119 -2.07293 0
M  V30 3725 C 346.047 1.3164 -1.3436 0
M  V30 3726 O 345.405 1.76945 -0.394987 0
M  V30 3727 C 345.453 0.321126 -3.59167 0
M  V30 3728 O 344.557 1.39927 -3.87936 0
M  V30 3729 H 343.898 -0.0184758 -0.663743 0
M  V30 3730 H 346.428 -0.678125 -1.93035 0
M  V30 3731 H 346.438 0.557906 -4.04168 0
M  V30 3732 H 345.113 -0.592007 -4.11665 0
M  V30 3733 H 343.69 1.14882 -3.54763 0
M  V30 3734 N 345.875 1.56104 -0.216619 0
M  V30 3735 C 346.805 2.23063 0.690296 0
M  V30 3736 C 347.786 1.20072 1.20485 0
M  V30 3737 O 348.971 1.48643 1.24976 0
M  V30 3738 C 346.101 2.90672 1.90072 0
M  V30 3739 C 345.055 4.00092 1.5202 0
M  V30 3740 C 344.381 4.54972 2.80899 0
M  V30 3741 C 345.681 5.17398 0.71391 0
M  V30 3742 H 347.375 2.99109 0.132038 0
M  V30 3743 H 344.921 1.43866 0.0620664 0
M  V30 3744 H 346.874 3.36204 2.54057 0
M  V30 3745 H 345.598 2.12066 2.48386 0
M  V30 3746 H 344.257 3.55283 0.903839 0
M  V30 3747 H 343.905 3.73102 3.37348 0
M  V30 3748 H 343.605 5.28817 2.56176 0
M  V30 3749 H 345.129 5.0322 3.45836 0
M  V30 3750 H 346.543 5.59342 1.25735 0
M  V30 3751 H 344.94 5.97444 0.563951 0
M  V30 3752 H 346.01 4.84088 -0.280527 0
M  V30 3753 N 347.353 -0.0568162 1.57498 0
M  V30 3754 C 348.599 -0.75422 1.88253 0
M  V30 3755 C 348.932 -1.76461 0.810865 0
M  V30 3756 O 348.207 -1.93691 -0.177259 0
M  V30 3757 C 348.49 -1.44878 3.2967 0
M  V30 3758 C 348.343 -0.453789 4.47505 0
M  V30 3759 C 349.662 -2.38994 3.69554 0
M  V30 3760 H 346.781 -0.272724 0.684683 0
M  V30 3761 H 349.423 -0.0172113 1.89992 0
M  V30 3762 H 347.573 -2.077 3.28318 0
M  V30 3763 H 349.245 0.170371 4.60985 0
M  V30 3764 H 347.488 0.229552 4.33192 0
M  V30 3765 H 348.159 -0.977699 5.43273 0
M  V30 3766 H 350.635 -1.86239 3.72095 0
M  V30 3767 H 349.511 -2.84587 4.69363 0
M  V30 3768 H 349.772 -3.24461 3.00296 0
M  V30 3769 N 348.832 -1.54138 -0.328536 0
M  V30 3770 C 349.764 -1.79509 -1.4251 0
M  V30 3771 C 350.777 -0.67688 -1.48061 0
M  V30 3772 O 351.966 -0.953898 -1.50874 0
M  V30 3773 C 349.066 -1.89337 -2.81078 0
M  V30 3774 C 348.239 -3.19443 -2.98789 0
M  V30 3775 C 347.298 -3.20036 -4.17688 0
M  V30 3776 O 346.324 -3.93697 -4.11086 0
M  V30 3777 N 347.526 -2.43467 -5.26976 0
M  V30 3778 H 350.291 -2.74139 -1.21111 0
M  V30 3779 H 347.852 -1.53373 -0.518499 0
M  V30 3780 H 349.844 -1.87167 -3.58818 0
M  V30 3781 H 348.414 -1.01826 -2.95551 0
M  V30 3782 H 347.634 -3.34614 -2.08391 0
M  V30 3783 H 348.922 -4.05354 -3.07515 0
M  V30 3784 H 348.32 -1.83201 -5.35214 0
M  V30 3785 H 346.877 -2.4708 -6.03154 0
M  V30 3786 N 350.31 0.590341 -1.46126 0
M  V30 3787 C 351.558 1.34616 -1.50742 0
M  V30 3788 C 351.879 1.94363 -0.157486 0
M  V30 3789 O 351.149 1.78136 0.815136 0
M  V30 3790 H 349.729 0.499789 -0.555175 0
M  V30 3791 H 352.391 0.691953 -1.82203 0
M  V30 3792 H 351.487 2.15678 -2.25587 0
M  V30 3793 N 351.788 1.33704 0.83433 0
M  V30 3794 C 353.204 1.13137 1.12571 0
M  V30 3795 C 353.404 -0.0747261 2.01361 0
M  V30 3796 O 352.46 -0.753647 2.4099 0
M  V30 3797 C 353.773 2.42105 1.78342 0
M  V30 3798 C 355.321 2.48054 1.90888 0
M  V30 3799 C 355.796 3.76995 2.60075 0
M  V30 3800 N 357.287 3.78092 2.67584 0
M  V30 3801 C 358.022 4.74574 3.21818 0
M  V30 3802 N 357.518 5.81434 3.76705 0
M  V30 3803 N 359.311 4.62044 3.20112 0
M  V30 3804 H 351.462 2.11 0.243489 0
M  V30 3805 H 353.725 0.932532 0.17055 0
M  V30 3806 H 353.431 3.30391 1.20561 0
M  V30 3807 H 353.305 2.54594 2.7832 0
M  V30 3808 H 355.692 1.60215 2.47821 0
M  V30 3809 H 355.773 2.39502 0.898459 0
M  V30 3810 H 355.417 4.65219 2.03799 0
M  V30 3811 H 355.347 3.82825 3.61597 0
M  V30 3812 H 357.838 3.00865 2.28667 0
M  V30 3813 H 358.151 6.51084 4.16305 0
M  V30 3814 H 356.496 5.85163 3.7498 0
M  V30 3815 H 359.687 3.77716 2.76493 0
M  V30 3816 H 359.86 5.37406 3.62076 0
M  V30 3817 N 353.266 -1.05314 1.17247 0
M  V30 3818 C 354.515 -1.77685 0.954521 0
M  V30 3819 C 354.828 -1.88616 -0.518025 0
M  V30 3820 O 356.034 -2.57714 -0.854144 0
M  V30 3821 C 354.49 -3.19402 1.65863 0
M  V30 3822 C 354.098 -3.16605 3.16963 0
M  V30 3823 C 355.842 -3.96237 1.52303 0
M  V30 3824 C 353.749 -4.53103 3.80068 0
M  V30 3825 H 352.679 -0.666 0.353496 0
M  V30 3826 H 355.33 -1.1805 1.40486 0
M  V30 3827 H 353.712 -3.79355 1.13602 0
M  V30 3828 H 354.886 -2.66176 3.76148 0
M  V30 3829 H 353.201 -2.53268 3.30521 0
M  V30 3830 H 355.798 -4.97157 1.96822 0
M  V30 3831 H 356.141 -4.136 0.473401 0
M  V30 3832 H 356.674 -3.42829 2.01775 0
M  V30 3833 H 353.413 -4.40946 4.85023 0
M  V30 3834 H 352.933 -5.03686 3.2567 0
M  V30 3835 H 354.612 -5.22045 3.82202 0
M  V30 3836 N 354.744 -0.972509 -1.24016 0
M  V30 3837 C 355.99 -0.637978 -1.92504 0
M  V30 3838 C 356.323 0.825383 -1.75787 0
M  V30 3839 O 355.598 1.59442 -1.11393 0
M  V30 3840 C 355.881 -1.01942 -3.45369 0
M  V30 3841 C 355.734 -2.53983 -3.71231 0
M  V30 3842 C 357.053 -0.55751 -4.36555 0
M  V30 3843 H 354.172 -0.233248 -0.699117 0
M  V30 3844 H 356.814 -1.21238 -1.46292 0
M  V30 3845 H 354.964 -0.530656 -3.84859 0
M  V30 3846 H 356.636 -3.10374 -3.41271 0
M  V30 3847 H 354.879 -2.96968 -3.16216 0
M  V30 3848 H 355.55 -2.75723 -4.78206 0
M  V30 3849 H 358.026 -0.977029 -4.04467 0
M  V30 3850 H 356.902 -0.85292 -5.42233 0
M  V30 3851 H 357.163 0.542328 -4.38761 0
M  V30 3852 N 356.222 1.38976 -0.743202 0
M  V30 3853 C 357.169 2.30544 -0.10861 0
M  V30 3854 C 358.139 1.49642 0.720869 0
M  V30 3855 O 359.324 1.78304 0.679142 0
M  V30 3856 C 356.464 3.36018 0.786496 0
M  V30 3857 C 355.577 4.31963 -0.0564849 0
M  V30 3858 C 354.712 5.24506 0.840657 0
M  V30 3859 C 353.751 6.121 -0.00658363 0
M  V30 3860 N 352.888 6.96973 0.846943 0
M  V30 3861 H 357.728 2.8424 -0.895088 0
M  V30 3862 H 355.265 1.3995 -0.453048 0
M  V30 3863 H 357.223 3.95768 1.31999 0
M  V30 3864 H 355.853 2.83758 1.53887 0
M  V30 3865 H 354.905 3.73763 -0.707492 0
M  V30 3866 H 356.217 4.93703 -0.711229 0
M  V30 3867 H 355.371 5.89322 1.4417 0
M  V30 3868 H 354.11 4.63107 1.52916 0
M  V30 3869 H 353.115 5.46289 -0.620366 0
M  V30 3870 H 354.34 6.75565 -0.691992 0
M  V30 3871 H 352.286 6.38133 1.52059 0
M  V30 3872 H 352.203 7.5559 0.248864 0
M  V30 3873 H 353.471 7.6621 1.43328 0
M  V30 3874 N 357.7 0.491464 1.49741 0
M  V30 3875 C 359.111 0.0413169 1.86654 0
M  V30 3876 C 359.462 -1.36985 1.40462 0
M  V30 3877 O 358.587 -2.01917 0.778354 0
M  V30 3878 C 359.182 0.0682023 3.38731 0
M  V30 3879 C 357.741 -0.32656 3.74981 0
M  V30 3880 C 356.888 0.444888 2.73708 0
M  V30 3881 H 359.839 0.704733 1.42194 0
M  V30 3882 H 359.86 -0.729322 3.73445 0
M  V30 3883 H 359.372 1.09539 3.72321 0
M  V30 3884 H 357.473 -1.35734 3.46997 0
M  V30 3885 H 357.586 -0.013741 4.79098 0
M  V30 3886 H 355.95 -0.104062 2.54487 0
M  V30 3887 H 356.733 1.47197 3.10142 0
M  V30 3888 N 359.178 -1.55987 0.224894 0
M  V30 3889 C 360.126 -2.21808 -0.700283 0
M  V30 3890 C 361.12 -1.19854 -1.19714 0
M  V30 3891 O 362.326 -1.37925 -1.15658 0
M  V30 3892 H 358.701 -0.711226 -0.244258 0
M  V30 3893 H 360.672 -2.98152 -0.121749 0
M  V30 3894 C 359.421 -2.91444 -1.8962 0
M  V30 3895 H 358.744 -3.69655 -1.52299 0
M  V30 3896 H 360.184 -3.40894 -2.52125 0
M  V30 3897 C 358.643 -1.94098 -2.75368 0
M  V30 3898 O 359.173 -1.46004 -3.74227 0
M  V30 3899 N 357.379 -1.61675 -2.41474 0
M  V30 3900 H 356.926 -2.00979 -1.61137 0
M  V30 3901 H 356.884 -0.968036 -2.99126 0
M  V30 3902 N 360.656 0.0484629 -1.57525 0
M  V30 3903 C 361.604 1.07359 -2.06341 0
M  V30 3904 C 362.598 1.3865 -0.973269 0
M  V30 3905 O 363.804 1.37783 -1.15827 0
M  V30 3906 H 360.179 0.363662 -0.65822 0
M  V30 3907 H 362.15 0.635916 -2.91545 0
M  V30 3908 C 360.899 2.37198 -2.54229 0
M  V30 3909 H 360.222 2.13977 -3.37719 0
M  V30 3910 H 361.662 3.07319 -2.92115 0
M  V30 3911 C 360.121 3.04805 -1.43511 0
M  V30 3912 O 360.651 3.93848 -0.79034 0
M  V30 3913 N 358.857 2.65811 -1.17444 0
M  V30 3914 H 358.404 1.93488 -1.70059 0
M  V30 3915 H 358.362 3.11366 -0.435737 0
M  V30 3916 N 362.134 1.5431 0.320358 0
M  V30 3917 C 363.082 1.84647 1.4145 0
M  V30 3918 C 364.076 0.718624 1.53402 0
M  V30 3919 O 365.282 0.902335 1.5575 0
M  V30 3920 H 361.657 0.585349 0.472091 0
M  V30 3921 H 363.628 2.7614 1.13089 0
M  V30 3922 C 362.377 2.09341 2.77617 0
M  V30 3923 H 361.7 2.9559 2.69196 0
M  V30 3924 H 363.14 2.3452 3.53237 0
M  V30 3925 C 361.599 0.885939 3.25043 0
M  V30 3926 O 362.129 0.0967891 4.01583 0
M  V30 3927 N 360.335 0.696682 2.82125 0
M  V30 3928 H 359.882 1.34006 2.2 0
M  V30 3929 H 359.84 -0.109712 3.14209 0
M  V30 3930 N 363.613 -0.582584 1.46437 0
M  V30 3931 C 364.561 -1.71272 1.5738 0
M  V30 3932 C 365.555 -1.63524 0.44229 0
M  V30 3933 O 366.761 -1.69016 0.619166 0
M  V30 3934 H 363.136 -0.566273 0.494813 0
M  V30 3935 H 365.107 -1.59174 2.52401 0
M  V30 3936 C 363.856 -3.09658 1.58136 0
M  V30 3937 H 363.179 -3.16291 2.44541 0
M  V30 3938 H 364.619 -3.88494 1.69847 0
M  V30 3939 C 363.078 -3.3547 0.310026 0
M  V30 3940 O 363.608 -3.97199 -0.599683 0
M  V30 3941 N 361.814 -2.89925 0.197901 0
M  V30 3942 H 361.361 -2.39873 0.93909 0
M  V30 3943 H 361.319 -3.07568 -0.65185 0
M  V30 3944 N 365.091 -1.34144 -0.827227 0
M  V30 3945 C 366.024 -1.19707 -1.94282 0
M  V30 3946 C 367.002 -0.0897256 -1.62352 0
M  V30 3947 O 368.186 -0.254095 -1.8678 0
M  V30 3948 C 365.313 -0.838646 -3.28153 0
M  V30 3949 C 364.359 -1.95514 -3.79047 0
M  V30 3950 S 365.192 -3.56793 -3.99323 0
M  V30 3951 C 366.348 -3.22983 -5.36127 0
M  V30 3952 H 366.581 -2.1414 -2.06231 0
M  V30 3953 H 364.114 -1.19121 -0.982321 0
M  V30 3954 H 366.072 -0.638637 -4.05502 0
M  V30 3955 H 364.733 0.0872776 -3.13979 0
M  V30 3956 H 363.926 -1.658 -4.75948 0
M  V30 3957 H 363.528 -2.11241 -3.08631 0
M  V30 3958 H 365.82 -2.74531 -6.19386 0
M  V30 3959 H 366.763 -4.19008 -5.70822 0
M  V30 3960 H 367.171 -2.59276 -5.01434 0
M  V30 3961 N 366.569 1.04691 -1.17803 0
M  V30 3962 C 367.98 1.59238 -0.974689 0
M  V30 3963 C 368.331 1.90306 0.477292 0
M  V30 3964 O 367.456 1.68846 1.35352 0
M  V30 3965 C 368.051 2.89318 -1.76296 0
M  V30 3966 C 366.61 3.40506 -1.60414 0
M  V30 3967 C 365.757 2.14172 -1.76141 0
M  V30 3968 H 368.708 0.874395 -1.32439 0
M  V30 3969 H 368.729 3.5944 -1.24833 0
M  V30 3970 H 368.241 2.66675 -2.81968 0
M  V30 3971 H 366.342 3.68175 -0.572519 0
M  V30 3972 H 366.455 4.14753 -2.39827 0
M  V30 3973 H 364.819 2.25176 -1.19028 0
M  V30 3974 H 365.602 1.93992 -2.83235 0
M  V30 3975 N 368.047 0.979072 1.23499 0
M  V30 3976 C 369.272 0.664845 1.96455 0
M  V30 3977 C 369.697 -0.761287 1.72006 0
M  V30 3978 O 369.055 -1.51837 0.990713 0
M  V30 3979 C 369.103 0.959479 3.47601 0
M  V30 3980 O 368.207 0.0508168 4.12369 0
M  V30 3981 H 367.548 0.250185 0.615064 0
M  V30 3982 H 370.078 1.31231 1.5697 0
M  V30 3983 H 370.088 0.895642 3.98048 0
M  V30 3984 H 368.763 1.99876 3.64723 0
M  V30 3985 H 367.34 0.16895 3.72517 0
M  V30 3986 N 369.525 -1.3858 0.750561 0
M  V30 3987 C 370.75 -2.04997 0.314812 0
M  V30 3988 C 371.175 -1.56235 -1.04749 0
M  V30 3989 O 370.533 -0.712981 -1.66692 0
M  V30 3990 C 370.581 -3.58961 0.343415 0
M  V30 3991 O 369.685 -4.07025 -0.663628 0
M  V30 3992 H 369.026 -0.649081 0.139962 0
M  V30 3993 H 371.556 -1.77313 1.02084 0
M  V30 3994 H 371.566 -4.07542 0.193233 0
M  V30 3995 H 370.241 -3.93811 1.33738 0
M  V30 3996 H 368.818 -3.6982 -0.478307 0
M  V30 3997 N 371.003 -0.499398 -1.49478 0
M  V30 3998 C 372.28 0.108629 -1.95298 0
M  V30 3999 C 372.66 1.54282 -1.44084 0
M  V30 4000 O 372.008 2.18944 -0.653908 0
M  V30 4001 C 372.218 0.0229111 -3.48992 0
M  V30 4002 C 373.566 0.197643 -4.2414 0
M  V30 4003 O 374.59 0.0981735 -3.56065 0
M  V30 4004 O 373.449 0.401669 -5.45022 0
M  V30 4005 H 370.543 0.096181 -0.821388 0
M  V30 4006 H 373.089 -0.561822 -1.6013 0
M  V30 4007 H 371.861 -0.977321 -3.78899 0
M  V30 4008 H 371.484 0.733579 -3.90774 0
M  V30 4009 N 372.481 1.55866 -0.233164 0
M  V30 4010 C 373.758 1.90471 0.444988 0
M  V30 4011 C 374.138 1.15209 1.7689 0
M  V30 4012 O 373.486 0.265119 2.26957 0
M  V30 4013 C 373.696 3.4333 0.626559 0
M  V30 4014 C 375.044 4.14319 0.92871 0
M  V30 4015 O 376.068 3.48993 0.712926 0
M  V30 4016 O 374.927 5.29846 1.33887 0
M  V30 4017 H 372.021 0.792347 0.236885 0
M  V30 4018 H 374.567 1.67437 -0.276211 0
M  V30 4019 H 373.339 3.90095 -0.306822 0
M  V30 4020 H 372.962 3.72181 1.39881 0
M  V30 4021 N 373.959 -0.0401083 1.57549 0
M  V30 4022 C 375.207 -0.731677 1.8839 0
M  V30 4023 C 375.528 -1.76481 0.829425 0
M  V30 4024 O 374.798 -1.95411 -0.1383 0
M  V30 4025 H 373.378 -0.273225 0.695239 0
M  V30 4026 H 376.04 -0.00867725 1.94898 0
M  V30 4027 H 375.136 -1.22816 2.86919 0
M  V30 4028 N 375.437 -1.54477 -0.31217 0
M  V30 4029 C 376.367 -1.87652 -1.38957 0
M  V30 4030 C 377.348 -0.734358 -1.53431 0
M  V30 4031 O 378.533 -0.98911 -1.67123 0
M  V30 4032 C 375.663 -2.11396 -2.75552 0
M  V30 4033 C 374.617 -3.27243 -2.75855 0
M  V30 4034 C 373.943 -3.36382 -4.15633 0
M  V30 4035 C 375.243 -4.64622 -2.38587 0
M  V30 4036 H 376.937 -2.77887 -1.11442 0
M  V30 4037 H 374.483 -1.33707 -0.534655 0
M  V30 4038 H 376.436 -2.33189 -3.51 0
M  V30 4039 H 375.16 -1.17921 -3.04569 0
M  V30 4040 H 373.819 -3.05356 -2.02863 0
M  V30 4041 H 373.467 -2.40445 -4.41809 0
M  V30 4042 H 373.167 -4.14249 -4.1674 0
M  V30 4043 H 374.691 -3.60422 -4.92877 0
M  V30 4044 H 376.105 -4.86219 -3.03749 0
M  V30 4045 H 374.502 -5.45121 -2.50925 0
M  V30 4046 H 375.572 -4.66097 -1.33723 0
M  V30 4047 N 376.915 0.57481 -1.46744 0
M  V30 4048 C 377.825 1.711 -1.60505 0
M  V30 4049 C 378.841 1.67008 -0.488307 0
M  V30 4050 O 380.017 1.86774 -0.753495 0
M  V30 4051 C 377.082 3.07608 -1.59932 0
M  V30 4052 C 376.143 3.22904 -2.82898 0
M  V30 4053 C 375.376 4.529 -2.82343 0
M  V30 4054 O 375.599 5.37278 -1.91542 0
M  V30 4055 O 374.533 4.71611 -3.73987 0
M  V30 4056 H 378.359 1.62436 -2.56609 0
M  V30 4057 H 375.944 0.742779 -1.29627 0
M  V30 4058 H 377.826 3.88877 -1.62336 0
M  V30 4059 H 376.501 3.16692 -0.669898 0
M  V30 4060 H 375.408 2.41099 -2.86046 0
M  V30 4061 H 376.741 3.18715 -3.75076 0
M  V30 4062 N 378.394 1.34581 0.820102 0
M  V30 4063 C 379.344 1.22943 1.92013 0
M  V30 4064 C 380.328 0.127802 1.60392 0
M  V30 4065 O 381.52 0.357737 1.73347 0
M  V30 4066 C 378.649 0.989938 3.28717 0
M  V30 4067 C 377.735 2.13486 3.66449 0
M  V30 4068 N 378.126 3.38625 3.75722 0
M  V30 4069 C 376.424 2.04573 3.96315 0
M  V30 4070 C 377.125 4.13832 4.08801 0
M  V30 4071 N 376.101 3.42451 4.22171 0
M  V30 4072 H 379.903 2.17771 1.97365 0
M  V30 4073 H 377.417 1.2686 1.01392 0
M  V30 4074 H 379.414 0.887462 4.07345 0
M  V30 4075 H 378.074 0.0503691 3.24661 0
M  V30 4076 H 379.085 3.73143 3.59144 0
M  V30 4077 H 375.762 1.1839 4.00362 0
M  V30 4078 H 377.152 5.21909 4.23156 0
M  V30 4079 N 379.872 -1.04064 1.18357 0
M  V30 4080 C 380.82 -2.14187 0.907007 0
M  V30 4081 C 381.814 -1.68879 -0.132725 0
M  V30 4082 O 383.02 -1.79993 0.0154248 0
M  V30 4083 H 379.395 -0.699585 0.275835 0
M  V30 4084 H 381.366 -2.34711 1.84264 0
M  V30 4085 C 380.115 -3.44785 0.449254 0
M  V30 4086 H 379.438 -3.80058 1.24081 0
M  V30 4087 H 380.878 -4.22974 0.294737 0
M  V30 4088 C 379.337 -3.26391 -0.834909 0
M  V30 4089 O 379.867 -3.53973 -1.89911 0
M  V30 4090 N 378.073 -2.79726 -0.787523 0
M  V30 4091 H 377.62 -2.5748 0.0787347 0
M  V30 4092 H 377.578 -2.67798 -1.64716 0
M  V30 4093 N 381.35 -0.985608 -1.22978 0
M  V30 4094 C 382.297 -0.529825 -2.24636 0
M  V30 4095 C 383.267 0.434028 -1.60329 0
M  V30 4096 O 384.452 0.340414 -1.87739 0
M  V30 4097 C 381.592 0.156533 -3.44745 0
M  V30 4098 C 380.705 -0.848197 -4.23591 0
M  V30 4099 C 379.84 -0.136109 -5.31026 0
M  V30 4100 C 378.879 -1.1297 -6.01585 0
M  V30 4101 N 378.016 -0.446415 -7.00679 0
M  V30 4102 H 382.856 -1.40148 -2.62988 0
M  V30 4103 H 380.393 -0.702168 -1.29259 0
M  V30 4104 H 382.351 0.571324 -4.1327 0
M  V30 4105 H 380.981 0.992025 -3.07179 0
M  V30 4106 H 380.033 -1.38135 -3.54433 0
M  V30 4107 H 381.345 -1.60512 -4.72268 0
M  V30 4108 H 380.499 0.335784 -6.0577 0
M  V30 4109 H 379.238 0.653373 -4.83304 0
M  V30 4110 H 378.243 -1.6123 -5.25628 0
M  V30 4111 H 379.468 -1.91993 -6.51395 0
M  V30 4112 H 377.414 0.323763 -6.55201 0
M  V30 4113 H 377.331 -1.1419 -7.47326 0
M  V30 4114 H 378.599 0.00291697 -7.795 0
M  V30 4115 N 382.828 1.3818 -0.7579 0
M  V30 4116 C 384.077 1.99261 -0.312744 0
M  V30 4117 C 384.39 1.60846 1.11301 0
M  V30 4118 O 385.596 2.14929 1.65885 0
M  V30 4119 C 384.052 3.56294 -0.50821 0
M  V30 4120 C 383.66 4.03657 -1.94333 0
M  V30 4121 C 385.404 4.24313 -0.125982 0
M  V30 4122 C 383.311 5.53347 -2.08712 0
M  V30 4123 H 382.241 0.745456 -0.113185 0
M  V30 4124 H 384.892 1.57889 -0.935056 0
M  V30 4125 H 383.274 3.95575 0.183353 0
M  V30 4126 H 384.448 3.75655 -2.66871 0
M  V30 4127 H 382.763 3.48376 -2.28086 0
M  V30 4128 H 385.36 5.34279 -0.212125 0
M  V30 4129 H 385.703 4.05962 0.921964 0
M  V30 4130 H 386.236 3.90285 -0.769563 0
M  V30 4131 H 382.975 5.76607 -3.11777 0
M  V30 4132 H 382.495 5.83078 -1.4064 0
M  V30 4133 H 384.174 6.19111 -1.87912 0
M  V30 4134 N 384.306 0.507319 1.49211 0
M  V30 4135 C 385.238 -0.304532 2.27168 0
M  V30 4136 C 386.251 -0.924956 1.33972 0
M  V30 4137 O 387.44 -0.807227 1.59205 0
M  V30 4138 C 384.54 -1.44431 3.06583 0
M  V30 4139 C 383.713 -0.930026 4.27398 0
M  V30 4140 C 382.772 -1.94817 4.88807 0
M  V30 4141 O 381.798 -1.51418 5.4869 0
M  V30 4142 N 383 -3.279 4.79022 0
M  V30 4143 H 385.765 0.36395 2.97482 0
M  V30 4144 H 383.326 0.340249 1.58284 0
M  V30 4145 H 385.318 -2.12311 3.44537 0
M  V30 4146 H 383.888 -2.01684 2.38835 0
M  V30 4147 H 383.108 -0.0759244 3.94127 0
M  V30 4148 H 384.396 -0.564932 5.05654 0
M  V30 4149 H 383.794 -3.65843 4.3148 0
M  V30 4150 H 382.351 -3.91476 5.21142 0
M  V30 4151 N 385.784 -1.5574 0.241426 0
M  V30 4152 C 386.732 -2.22538 -0.676718 0
M  V30 4153 C 387.726 -1.21117 -1.18436 0
M  V30 4154 O 388.932 -1.39144 -1.14188 0
M  V30 4155 H 385.307 -0.713776 -0.236701 0
M  V30 4156 H 387.278 -2.98264 -0.0901187 0
M  V30 4157 C 386.027 -2.93439 -1.86518 0
M  V30 4158 H 385.35 -3.7125 -1.4837 0
M  V30 4159 H 386.79 -3.43549 -2.48495 0
M  V30 4160 C 385.249 -1.97008 -2.73294 0
M  V30 4161 O 385.779 -1.49965 -3.72657 0
M  V30 4162 N 383.985 -1.64227 -2.39745 0
M  V30 4163 H 383.532 -2.02677 -1.58996 0
M  V30 4164 H 383.49 -0.999708 -2.98083 0
M  V30 4165 N 387.262 0.0317525 -1.57568 0
M  V30 4166 C 388.51 0.721676 -1.88776 0
M  V30 4167 C 388.831 1.76039 -0.838772 0
M  V30 4168 O 388.101 1.95482 0.127935 0
M  V30 4169 H 386.681 0.269534 -0.696678 0
M  V30 4170 H 389.343 -0.00165879 -1.949 0
M  V30 4171 H 388.439 1.21293 -2.87566 0
M  V30 4172 N 388.74 1.54641 0.303973 0
M  V30 4173 C 389.687 1.85386 1.37479 0
M  V30 4174 C 390.657 0.702528 1.50512 0
M  V30 4175 O 391.842 0.950867 1.65418 0
M  V30 4176 C 388.982 2.10413 2.73533 0
M  V30 4177 C 388.095 3.38049 2.68974 0
M  V30 4178 C 387.23 3.52934 3.97002 0
M  V30 4179 C 386.269 4.74373 3.86829 0
M  V30 4180 N 385.406 4.8608 5.06627 0
M  V30 4181 H 390.246 2.76732 1.1056 0
M  V30 4182 H 387.783 1.37034 0.534805 0
M  V30 4183 H 389.741 2.22919 3.52652 0
M  V30 4184 H 388.371 1.22338 2.98719 0
M  V30 4185 H 387.423 3.3418 1.81736 0
M  V30 4186 H 388.735 4.27288 2.57346 0
M  V30 4187 H 387.889 3.65088 4.84557 0
M  V30 4188 H 386.628 2.61824 4.1146 0
M  V30 4189 H 385.633 4.62255 2.97658 0
M  V30 4190 H 386.858 5.66888 3.73918 0
M  V30 4191 H 384.804 3.97891 5.21554 0
M  V30 4192 H 384.721 5.69315 4.9741 0
M  V30 4193 H 385.989 5.02587 5.95841 0
M  V30 4194 N 390.218 -0.567019 1.47046 0
M  V30 4195 C 391.181 -1.65696 1.58359 0
M  V30 4196 C 392.181 -1.54097 0.459441 0
M  V30 4197 O 393.371 -1.58432 0.724225 0
M  V30 4198 C 390.503 -3.05197 1.51879 0
M  V30 4199 H 391.696 -1.57019 2.5551 0
M  V30 4200 H 389.249 -0.786148 1.3509 0
M  V30 4201 H 389.984 -3.19417 0.560673 0
M  V30 4202 H 389.769 -3.15025 2.33455 0
M  V30 4203 H 391.259 -3.84511 1.62913 0
M  V30 4204 N 391.696 -1.35014 -0.812953 0
M  V30 4205 C 393.107 -1.25035 -1.38648 0
M  V30 4206 C 393.458 0.119967 -1.95833 0
M  V30 4207 O 392.583 1.02069 -1.90816 0
M  V30 4208 C 393.178 -2.26394 -2.52054 0
M  V30 4209 C 391.737 -2.20175 -3.05287 0
M  V30 4210 C 390.884 -2.12451 -1.78213 0
M  V30 4211 H 393.835 -1.46235 -0.616516 0
M  V30 4212 H 393.856 -1.88672 -3.30429 0
M  V30 4213 H 393.368 -3.26116 -2.10404 0
M  V30 4214 H 391.469 -1.23841 -3.51417 0
M  V30 4215 H 391.582 -3.11863 -3.63701 0
M  V30 4216 H 389.946 -1.58328 -1.9951 0
M  V30 4217 H 390.729 -3.14024 -1.38723 0
M  V30 4218 N 393.175 1.03435 -1.18907 0
M  V30 4219 C 394.591 1.28973 -0.940111 0
M  V30 4220 C 394.791 1.97676 0.390691 0
M  V30 4221 O 393.847 2.26127 1.12352 0
M  V30 4222 C 395.16 2.14221 -2.11021 0
M  V30 4223 C 396.708 2.27547 -2.14922 0
M  V30 4224 C 397.183 3.16164 -3.31367 0
M  V30 4225 N 398.674 3.23752 -3.31269 0
M  V30 4226 C 399.409 3.92495 -4.18014 0
M  V30 4227 N 398.905 4.63515 -5.14904 0
M  V30 4228 N 400.698 3.88838 -4.05908 0
M  V30 4229 H 392.849 0.57252 -2.04538 0
M  V30 4230 H 395.112 0.315184 -0.894071 0
M  V30 4231 H 394.818 1.71054 -3.073 0
M  V30 4232 H 394.692 3.14919 -2.0762 0
M  V30 4233 H 397.079 2.69947 -1.19217 0
M  V30 4234 H 397.16 1.26418 -2.22378 0
M  V30 4235 H 396.804 2.74474 -4.27348 0
M  V30 4236 H 396.734 4.17339 -3.21148 0
M  V30 4237 H 399.225 2.73167 -2.61129 0
M  V30 4238 H 399.538 5.13583 -5.77453 0
M  V30 4239 H 397.883 4.62398 -5.18857 0
M  V30 4240 H 401.074 3.32491 -3.29495 0
M  V30 4241 H 401.247 4.4214 -4.73726 0
M  V30 4242 N 394.653 0.992116 1.22453 0
M  V30 4243 C 395.93 0.583508 1.86694 0
M  V30 4244 C 396.31 -0.9392 1.89056 0
M  V30 4245 O 395.658 -1.82081 1.38053 0
M  V30 4246 C 395.868 1.20304 3.2761 0
M  V30 4247 C 397.216 1.30308 4.0411 0
M  V30 4248 O 398.24 1.15737 3.36873 0
M  V30 4249 O 397.099 1.53615 5.24466 0
M  V30 4250 H 394.193 0.198129 0.802916 0
M  V30 4251 H 396.739 1.08794 1.30238 0
M  V30 4252 H 395.511 2.24461 3.2052 0
M  V30 4253 H 395.134 0.684144 3.9167 0
M  V30 4254 N 396.131 -1.37776 0.765217 0
M  V30 4255 C 397.542 -1.82521 0.392819 0
M  V30 4256 C 397.893 -1.63789 -1.08017 0
M  V30 4257 O 397.018 -1.14542 -1.83601 0
M  V30 4258 C 397.613 -3.31358 0.706214 0
M  V30 4259 C 396.172 -3.74406 0.386952 0
M  V30 4260 C 395.319 -2.60394 0.953422 0
M  V30 4261 H 398.27 -1.2634 0.960412 0
M  V30 4262 H 398.291 -3.80498 -0.0114706 0
M  V30 4263 H 397.803 -3.44959 1.77833 0
M  V30 4264 H 395.904 -3.66377 -0.678112 0
M  V30 4265 H 396.017 -4.70749 0.890636 0
M  V30 4266 H 394.381 -2.51878 0.378064 0
M  V30 4267 H 395.164 -2.76791 2.03081 0
M  V30 4268 N 397.609 -0.515225 -1.4894 0
M  V30 4269 C 398.855 0.0242508 -2.02785 0
M  V30 4270 C 399.188 1.35323 -1.39289 0
M  V30 4271 O 398.463 1.87041 -0.533469 0
M  V30 4272 C 398.746 0.16184 -3.59736 0
M  V30 4273 C 398.599 -1.19127 -4.33738 0
M  V30 4274 C 399.918 0.895719 -4.30888 0
M  V30 4275 H 397.037 0.00733914 -0.736963 0
M  V30 4276 H 399.679 -0.669395 -1.77818 0
M  V30 4277 H 397.829 0.752624 -3.8114 0
M  V30 4278 H 399.501 -1.82202 -4.23792 0
M  V30 4279 H 397.744 -1.77695 -3.95736 0
M  V30 4280 H 398.415 -1.04815 -5.41957 0
M  V30 4281 H 400.891 0.394528 -4.14225 0
M  V30 4282 H 399.767 0.960859 -5.40425 0
M  V30 4283 H 400.028 1.9427 -3.97129 0
M  V30 4284 N 399.087 1.5561 -0.249682 0
M  V30 4285 C 400.315 2.03411 0.378352 0
M  V30 4286 C 400.73 1.12886 1.51335 0
M  V30 4287 O 400.087 0.143833 1.81932 0
M  V30 4288 C 400.138 3.50537 0.88351 0
M  V30 4289 O 399.859 4.37614 -0.20626 0
M  V30 4290 C 401.36 4.14113 1.58195 0
M  V30 4291 H 398.58 0.664994 0.08958 0
M  V30 4292 H 401.124 2.01044 -0.374357 0
M  V30 4293 H 399.279 3.5343 1.58639 0
M  V30 4294 H 399.693 5.24199 0.177782 0
M  V30 4295 H 401.167 5.18741 1.8871 0
M  V30 4296 H 401.644 3.60767 2.50487 0
M  V30 4297 H 402.25 4.15151 0.923573 0
M  V30 4298 N 400.565 -0.0233959 1.57583 0
M  V30 4299 C 401.475 -1.03907 2.10334 0
M  V30 4300 C 402.491 -1.39257 1.04323 0
M  V30 4301 O 403.667 -1.48462 1.36091 0
M  V30 4302 C 400.732 -2.31938 2.57693 0
M  V30 4303 C 399.793 -2.03117 3.78209 0
M  V30 4304 C 399.026 -3.25043 4.233 0
M  V30 4305 O 399.249 -4.35916 3.67876 0
M  V30 4306 O 398.183 -3.10411 5.15683 0
M  V30 4307 H 402.009 -0.620748 2.97288 0
M  V30 4308 H 399.594 -0.240743 1.47448 0
M  V30 4309 H 401.476 -3.07196 2.88458 0
M  V30 4310 H 400.151 -2.73055 1.73847 0
M  V30 4311 H 399.058 -1.25408 3.52454 0
M  V30 4312 H 400.391 -1.66852 4.63056 0
M  V30 4313 N 402.043 -1.548 -0.295768 0
M  V30 4314 C 402.991 -1.86874 -1.38495 0
M  V30 4315 C 403.985 -0.742938 -1.52239 0
M  V30 4316 O 405.191 -0.926999 -1.54294 0
M  V30 4317 H 401.566 -0.592786 -0.462719 0
M  V30 4318 H 403.537 -2.77904 -1.08682 0
M  V30 4319 C 402.286 -2.13732 -2.74252 0
M  V30 4320 H 401.609 -2.99835 -2.64459 0
M  V30 4321 H 403.049 -2.4011 -3.49461 0
M  V30 4322 C 401.508 -0.937539 -3.23592 0
M  V30 4323 O 402.038 -0.160665 -4.01379 0
M  V30 4324 N 400.244 -0.741478 -2.80981 0
M  V30 4325 H 399.791 -1.37489 -2.1784 0
M  V30 4326 H 399.749 0.0597103 -3.14343 0
M  V30 4327 N 403.521 0.559213 -1.47345 0
M  V30 4328 C 404.761 1.32728 -1.55444 0
M  V30 4329 C 405.125 1.90838 -0.210895 0
M  V30 4330 O 406.326 2.68282 -0.166719 0
M  V30 4331 C 404.597 2.4092 -2.63993 0
M  V30 4332 S 406.156 3.2784 -2.91661 0
M  V30 4333 H 402.974 0.451883 -0.548929 0
M  V30 4334 H 405.576 0.640404 -1.84714 0
M  V30 4335 H 404.28 1.9666 -3.60212 0
M  V30 4336 H 403.811 3.14351 -2.36531 0
M  V30 4337 H 405.826 4.40341 -2.28722 0
M  V30 4338 N 404.999 1.35443 0.805782 0
M  V30 4339 C 406.245 1.28952 1.56522 0
M  V30 4340 C 406.578 -0.135597 1.93726 0
M  V30 4341 O 405.853 -1.08516 1.61414 0
M  V30 4342 C 406.136 2.19678 2.85331 0
M  V30 4343 C 405.989 3.7081 2.54598 0
M  V30 4344 C 407.308 2.09495 3.8704 0
M  V30 4345 H 404.427 0.469764 0.567883 0
M  V30 4346 H 407.069 1.65851 0.927001 0
M  V30 4347 H 405.219 1.8834 3.39795 0
M  V30 4348 H 406.891 4.12593 2.06312 0
M  V30 4349 H 405.134 3.91051 1.8778 0
M  V30 4350 H 405.805 4.29679 3.46525 0
M  V30 4351 H 408.281 2.37045 3.41978 0
M  V30 4352 H 407.157 2.75173 4.74943 0
M  V30 4353 H 407.418 1.07714 4.28777 0
M  V30 4354 N 406.477 -1.02803 1.19454 0
M  V30 4355 C 407.409 -2.11181 0.890807 0
M  V30 4356 C 408.422 -1.6238 -0.116829 0
M  V30 4357 O 409.611 -1.78144 0.112694 0
M  V30 4358 C 406.711 -3.37461 0.311942 0
M  V30 4359 C 405.884 -4.15446 1.36834 0
M  V30 4360 C 404.943 -5.20039 0.802864 0
M  V30 4361 O 403.969 -5.49602 1.48077 0
M  V30 4362 N 405.171 -5.79165 -0.393417 0
M  V30 4363 H 407.936 -2.37827 1.82369 0
M  V30 4364 H 405.497 -1.19101 1.09666 0
M  V30 4365 H 407.489 -4.0462 -0.0802225 0
M  V30 4366 H 406.059 -3.08156 -0.52524 0
M  V30 4367 H 405.279 -3.43423 1.93531 0
M  V30 4368 H 406.567 -4.64335 2.08015 0
M  V30 4369 H 405.965 -5.57466 -0.961658 0
M  V30 4370 H 404.522 -6.47729 -0.727351 0
M  V30 4371 N 407.956 -0.998596 -1.21925 0
M  V30 4372 C 409.204 -0.676325 -1.90448 0
M  V30 4373 C 409.525 0.794719 -1.78071 0
M  V30 4374 O 408.795 1.5701 -1.17152 0
M  V30 4375 H 407.375 -0.247165 -0.704925 0
M  V30 4376 H 410.037 -1.26633 -1.48156 0
M  V30 4377 H 409.133 -0.943858 -2.97486 0
M  V30 4378 N 409.434 1.37368 -0.772513 0
M  V30 4379 C 410.344 2.34053 -0.160081 0
M  V30 4380 C 411.36 1.60216 0.678728 0
M  V30 4381 O 412.536 1.92303 0.59847 0
M  V30 4382 C 409.601 3.3939 0.708182 0
M  V30 4383 C 408.662 4.29048 -0.147172 0
M  V30 4384 C 407.895 5.29354 0.679744 0
M  V30 4385 O 408.118 5.3723 1.91678 0
M  V30 4386 O 407.052 6.01835 0.0885444 0
M  V30 4387 H 410.878 2.88159 -0.959053 0
M  V30 4388 H 408.463 1.39543 -0.533685 0
M  V30 4389 H 410.345 4.03839 1.20384 0
M  V30 4390 H 409.02 2.8761 1.48533 0
M  V30 4391 H 407.927 3.67697 -0.689205 0
M  V30 4392 H 409.26 4.84134 -0.887423 0
M  V30 4393 N 410.912 0.523116 1.48665 0
M  V30 4394 C 411.822 -0.247406 2.33292 0
M  V30 4395 C 412.838 -0.945769 1.46052 0
M  V30 4396 O 414.014 -0.922253 1.79043 0
M  V30 4397 C 411.079 -1.28487 3.22012 0
M  V30 4398 C 410.14 -0.597592 4.2512 0
M  V30 4399 C 409.373 -1.58563 5.09601 0
M  V30 4400 O 409.596 -2.81763 4.95949 0
M  V30 4401 O 408.53 -1.12879 5.91221 0
M  V30 4402 H 412.356 0.445869 3.00409 0
M  V30 4403 H 409.941 0.284128 1.46673 0
M  V30 4404 H 411.823 -1.88459 3.7691 0
M  V30 4405 H 410.498 -1.96068 2.57564 0
M  V30 4406 H 409.405 0.0424407 3.74076 0
M  V30 4407 H 410.738 0.0361517 4.92187 0
M  V30 4408 N 412.39 -1.55475 0.257931 0
M  V30 4409 C 413.337 -2.21837 -0.636939 0
M  V30 4410 C 414.307 -1.18596 -1.16294 0
M  V30 4411 O 415.492 -1.47081 -1.21539 0
M  V30 4412 C 412.632 -2.9301 -1.82317 0
M  V30 4413 C 411.745 -4.10931 -1.33265 0
M  V30 4414 C 410.88 -4.69791 -2.47931 0
M  V30 4415 C 409.919 -5.7994 -1.95796 0
M  V30 4416 N 409.056 -6.32935 -3.0387 0
M  V30 4417 H 413.896 -2.9793 -0.0643591 0
M  V30 4418 H 411.433 -1.47086 -0.0200031 0
M  V30 4419 H 413.391 -3.3248 -2.52018 0
M  V30 4420 H 412.021 -2.1937 -2.36805 0
M  V30 4421 H 411.073 -3.76699 -0.52931 0
M  V30 4422 H 412.385 -4.90417 -0.910654 0
M  V30 4423 H 411.539 -5.11892 -3.25656 0
M  V30 4424 H 410.278 -3.89545 -2.93438 0
M  V30 4425 H 409.283 -5.37305 -1.16546 0
M  V30 4426 H 410.508 -6.62043 -1.51246 0
M  V30 4427 H 408.454 -5.55591 -3.48791 0
M  V30 4428 H 408.371 -7.07645 -2.66035 0
M  V30 4429 H 409.639 -6.79695 -3.81621 0
M  V30 4430 N 413.868 0.0150385 -1.57593 0
M  V30 4431 C 414.778 1.02791 -2.10882 0
M  V30 4432 C 415.794 1.38702 -1.0506 0
M  V30 4433 O 416.97 1.47739 -1.36877 0
M  V30 4434 C 414.035 2.30568 -2.58919 0
M  V30 4435 C 413.096 2.01108 -3.79281 0
M  V30 4436 C 412.329 3.22794 -4.25018 0
M  V30 4437 O 412.552 4.33959 -3.70183 0
M  V30 4438 O 411.486 3.07672 -5.17322 0
M  V30 4439 H 415.312 0.604973 -2.97613 0
M  V30 4440 H 412.897 0.23292 -1.47573 0
M  V30 4441 H 414.779 3.05662 -2.90084 0
M  V30 4442 H 413.454 2.72129 -1.75293 0
M  V30 4443 H 412.361 1.23537 -3.53114 0
M  V30 4444 H 413.694 1.64394 -4.63935 0
M  V30 4445 N 415.346 1.54954 0.287554 0
M  V30 4446 C 416.571 1.79209 1.04397 0
M  V30 4447 C 416.996 0.556431 1.79682 0
M  V30 4448 O 416.354 -0.493518 1.74454 0
M  V30 4449 C 416.402 3.00739 1.98969 0
M  V30 4450 O 415.506 2.74805 3.075 0
M  V30 4451 H 414.847 0.592755 0.299227 0
M  V30 4452 H 417.377 2.02068 0.320886 0
M  V30 4453 H 417.387 3.29077 2.4119 0
M  V30 4454 H 416.062 3.90329 1.43582 0
M  V30 4455 H 414.639 2.57523 2.69697 0
M  V30 4456 N 416.824 -0.551391 1.4764 0
M  V30 4457 C 418.049 -1.33837 1.58437 0
M  V30 4458 C 418.474 -1.866 0.237063 0
M  V30 4459 O 417.832 -1.6328 -0.787994 0
M  V30 4460 C 417.88 -2.48014 2.61766 0
M  V30 4461 O 416.984 -3.50419 2.1744 0
M  V30 4462 H 416.325 -0.397299 0.532024 0
M  V30 4463 H 418.855 -0.665759 1.93465 0
M  V30 4464 H 418.865 -2.94503 2.82369 0
M  V30 4465 H 417.54 -2.08969 3.5959 0
M  V30 4466 H 416.117 -3.10196 2.06961 0
M  V30 4467 N 418.302 -1.35869 -0.798587 0
M  V30 4468 C 419.25 -1.29491 -1.93222 0
M  V30 4469 C 420.244 -0.18836 -1.6835 0
M  V30 4470 O 421.45 -0.354822 -1.76468 0
M  V30 4471 H 417.825 -0.402901 -0.63496 0
M  V30 4472 H 419.796 -2.25247 -1.9572 0
M  V30 4473 C 418.545 -1.09184 -3.30112 0
M  V30 4474 H 417.868 -1.93574 -3.49813 0
M  V30 4475 H 419.308 -1.08766 -4.09812 0
M  V30 4476 C 417.767 0.203959 -3.36282 0
M  V30 4477 O 418.297 1.19699 -3.83451 0
M  V30 4478 N 416.503 0.245488 -2.89561 0
M  V30 4479 H 416.05 -0.563223 -2.51367 0
M  V30 4480 H 416.008 1.11219 -2.94071 0
M  V30 4481 N 419.78 1.02168 -1.19998 0
M  V30 4482 C 421.057 1.72816 -0.916191 0
M  V30 4483 C 421.437 2.03081 0.576325 0
M  V30 4484 O 420.785 1.69122 1.53656 0
M  V30 4485 C 420.995 2.9997 -1.78378 0
M  V30 4486 C 422.343 3.73336 -2.02251 0
M  V30 4487 O 423.367 3.09914 -1.75589 0
M  V30 4488 O 422.226 4.87371 -2.47249 0
M  V30 4489 H 419.32 0.752924 -0.342103 0
M  V30 4490 H 421.866 1.08062 -1.30846 0
M  V30 4491 H 420.638 2.73888 -2.79466 0
M  V30 4492 H 420.261 3.72464 -1.39126 0
M  V30 4493 N 421.258 1.00505 1.21394 0
M  V30 4494 C 422.483 0.706367 1.95001 0
M  V30 4495 C 422.908 -0.72463 1.73582 0
M  V30 4496 O 422.266 -1.49702 1.0227 0
M  V30 4497 C 422.314 1.03299 3.45487 0
M  V30 4498 O 421.418 0.138275 4.12168 0
M  V30 4499 H 420.759 0.263175 0.609619 0
M  V30 4500 H 423.289 1.34531 1.54151 0
M  V30 4501 H 423.299 0.979872 3.96059 0
M  V30 4502 H 421.974 2.07567 3.60401 0
M  V30 4503 H 420.551 0.247928 3.72075 0
M  V30 4504 N 422.737 -1.36956 0.779787 0
M  V30 4505 C 423.965 -2.03755 0.359398 0
M  V30 4506 C 424.38 -1.58807 -1.02106 0
M  V30 4507 O 423.737 -0.773024 -1.6532 0
M  V30 4508 C 423.788 -3.59251 0.402568 0
M  V30 4509 O 423.509 -4.02557 1.72858 0
M  V30 4510 C 425.01 -4.43291 -0.0284068 0
M  V30 4511 H 422.23 -0.654148 0.149437 0
M  V30 4512 H 424.774 -1.75128 1.05595 0
M  V30 4513 H 422.929 -3.86621 -0.245478 0
M  V30 4514 H 423.343 -4.97111 1.67275 0
M  V30 4515 H 424.817 -5.51975 0.0529466 0
M  V30 4516 H 425.294 -4.25719 -1.07982 0
M  V30 4517 H 425.9 -4.21163 0.591758 0
M  V30 4518 N 424.215 -0.530993 -1.48385 0
M  V30 4519 C 425.44 0.000729535 -2.074 0
M  V30 4520 C 425.865 1.27298 -1.3848 0
M  V30 4521 O 425.223 1.75599 -0.451081 0
M  V30 4522 C 425.271 0.206697 -3.60007 0
M  V30 4523 O 424.375 1.27514 -3.92191 0
M  V30 4524 H 423.716 -0.039583 -0.662819 0
M  V30 4525 H 426.246 -0.739194 -1.9078 0
M  V30 4526 H 426.256 0.42904 -4.05738 0
M  V30 4527 H 424.931 -0.722675 -4.09573 0
M  V30 4528 H 423.508 1.03537 -3.58238 0
M  V30 4529 N 425.693 1.55336 -0.266172 0
M  V30 4530 C 426.939 1.99692 0.353681 0
M  V30 4531 C 427.272 1.1543 1.56172 0
M  V30 4532 O 426.547 0.222218 1.93226 0
M  V30 4533 C 426.83 3.52316 0.74466 0
M  V30 4534 C 426.683 4.47337 -0.470101 0
M  V30 4535 C 428.002 4.10588 1.58447 0
M  V30 4536 H 425.121 0.725961 0.12708 0
M  V30 4537 H 427.763 1.86336 -0.371333 0
M  V30 4538 H 425.913 3.63829 1.36239 0
M  V30 4539 H 427.585 4.4778 -1.10864 0
M  V30 4540 H 425.828 4.19364 -1.10978 0
M  V30 4541 H 426.499 5.51788 -0.15291 0
M  V30 4542 H 428.975 4.02297 1.06286 0
M  V30 4543 H 427.851 5.17607 1.82686 0
M  V30 4544 H 428.112 3.60253 2.56262 0
M  V30 4545 N 427.171 -0.0066808 1.57599 0
M  V30 4546 C 428.396 -0.707738 1.94951 0
M  V30 4547 C 428.821 -1.66882 0.867868 0
M  V30 4548 O 428.179 -1.80457 -0.17458 0
M  V30 4549 C 428.227 -1.42162 3.31394 0
M  V30 4550 O 427.331 -2.53578 3.25226 0
M  V30 4551 H 426.672 -0.188752 0.636607 0
M  V30 4552 H 429.202 0.0445193 2.04552 0
M  V30 4553 H 429.212 -1.78655 3.66806 0
M  V30 4554 H 427.887 -0.716903 4.09675 0
M  V30 4555 H 426.464 -2.19463 3.01481 0
M  V30 4556 N 428.649 -1.55105 -0.279332 0
M  V30 4557 C 429.612 -1.86783 -1.32834 0
M  V30 4558 C 430.612 -0.74199 -1.42657 0
M  V30 4559 O 431.802 -1.0102 -1.41918 0
M  V30 4560 C 428.934 -2.06746 -2.71052 0
M  V30 4561 H 430.127 -2.8055 -1.05979 0
M  V30 4562 H 427.68 -1.47499 -0.517087 0
M  V30 4563 H 428.415 -1.15339 -3.03097 0
M  V30 4564 H 428.2 -2.88711 -2.65309 0
M  V30 4565 H 429.69 -2.32549 -3.46858 0
M  V30 4566 N 430.127 0.543554 -1.4793 0
M  V30 4567 C 431.373 1.30201 -1.55485 0
M  V30 4568 C 431.706 1.92925 -0.222201 0
M  V30 4569 O 430.981 1.78586 0.77053 0
M  V30 4570 C 431.264 2.40174 -2.68307 0
M  V30 4571 C 431.117 1.8223 -4.11233 0
M  V30 4572 C 432.436 3.42024 -2.76961 0
M  V30 4573 H 429.555 0.472036 -0.565996 0
M  V30 4574 H 432.197 0.606914 -1.80046 0
M  V30 4575 H 430.347 2.99463 -2.47495 0
M  V30 4576 H 432.019 1.27096 -4.43446 0
M  V30 4577 H 430.262 1.12832 -4.18869 0
M  V30 4578 H 430.933 2.61793 -4.85972 0
M  V30 4579 H 433.409 2.92672 -2.95774 0
M  V30 4580 H 432.285 4.16383 -3.57654 0
M  V30 4581 H 432.546 4.0173 -1.84568 0
M  V30 4582 N 431.605 1.3629 0.791371 0
M  V30 4583 C 432.568 1.30309 1.88553 0
M  V30 4584 C 433.568 0.211204 1.59407 0
M  V30 4585 O 434.758 0.465865 1.67855 0
M  V30 4586 C 431.89 1.01956 3.25297 0
M  V30 4587 H 433.083 2.27614 1.95273 0
M  V30 4588 H 430.636 1.21035 0.988953 0
M  V30 4589 H 431.371 0.050998 3.2426 0
M  V30 4590 H 431.156 1.80968 3.4784 0
M  V30 4591 H 432.646 1.0037 4.05359 0
M  V30 4592 N 433.083 -1.0153 1.20538 0
M  V30 4593 C 434.308 -1.79283 1.04271 0
M  V30 4594 C 434.733 -1.8372 -0.403544 0
M  V30 4595 O 434.091 -1.27321 -1.2907 0
M  V30 4596 C 434.139 -3.21535 1.63241 0
M  V30 4597 O 433.243 -4.03099 0.870908 0
M  V30 4598 H 432.584 -0.55293 0.367647 0
M  V30 4599 H 435.114 -1.27696 1.59859 0
M  V30 4600 H 435.124 -3.72243 1.6703 0
M  V30 4601 H 433.799 -3.1762 2.68497 0
M  V30 4602 H 432.376 -3.61693 0.907323 0
M  V30 4603 N 434.561 -1.01147 -1.20859 0
M  V30 4604 C 435.509 -0.57059 -2.25493 0
M  V30 4605 C 436.503 0.388109 -1.64894 0
M  V30 4606 O 437.709 0.258592 -1.78133 0
M  V30 4607 H 434.084 -0.166191 -0.733406 0
M  V30 4608 H 436.055 -1.46411 -2.60012 0
M  V30 4609 C 434.804 0.0805241 -3.47607 0
M  V30 4610 H 434.127 -0.648156 -3.94511 0
M  V30 4611 H 435.567 0.352197 -4.22535 0
M  V30 4612 C 434.026 1.32175 -3.09889 0
M  V30 4613 O 434.556 2.41553 -3.20959 0
M  V30 4614 N 432.762 1.20392 -2.64488 0
M  V30 4615 H 432.309 0.313905 -2.5568 0
M  V30 4616 H 432.267 2.03541 -2.39621 0
M  V30 4617 N 436.039 1.36541 -0.78704 0
M  V30 4618 C 436.972 2.27831 -0.129765 0
M  V30 4619 C 437.95 1.47105 0.692732 0
M  V30 4620 O 439.134 1.7641 0.664222 0
M  V30 4621 C 436.261 3.28577 0.821883 0
M  V30 4622 C 435.307 4.26422 0.0814771 0
M  V30 4623 S 436.14 5.20919 -1.24112 0
M  V30 4624 C 437.296 6.25212 -0.293409 0
M  V30 4625 H 437.529 2.83229 -0.903811 0
M  V30 4626 H 435.062 1.43046 -0.581144 0
M  V30 4627 H 437.02 3.87123 1.3655 0
M  V30 4628 H 435.681 2.72096 1.56916 0
M  V30 4629 H 434.874 4.97554 0.803485 0
M  V30 4630 H 434.476 3.71944 -0.391589 0
M  V30 4631 H 436.768 6.75435 0.528622 0
M  V30 4632 H 437.711 7.01378 -0.973344 0
M  V30 4633 H 438.119 5.64407 0.102196 0
M  V30 4634 N 437.518 0.538854 1.48102 0
M  V30 4635 C 438.934 0.19732 1.58376 0
M  V30 4636 C 439.134 -1.29971 1.5398 0
M  V30 4637 O 438.19 -2.07861 1.43352 0
M  V30 4638 C 439.503 0.807716 2.89649 0
M  V30 4639 C 441.051 0.77726 3.03196 0
M  V30 4640 C 441.526 1.36639 4.37143 0
M  V30 4641 N 443.017 1.32875 4.43732 0
M  V30 4642 C 443.752 1.7544 5.45901 0
M  V30 4643 N 443.248 2.25776 6.54979 0
M  V30 4644 N 445.041 1.66623 5.36836 0
M  V30 4645 H 437.192 1.5117 1.49202 0
M  V30 4646 H 439.455 0.629327 0.708979 0
M  V30 4647 H 439.161 1.85909 2.98548 0
M  V30 4648 H 439.035 0.289975 3.76084 0
M  V30 4649 H 441.422 -0.265374 2.93904 0
M  V30 4650 H 441.503 1.33256 2.18349 0
M  V30 4651 H 441.147 2.408 4.47189 0
M  V30 4652 H 441.077 0.786689 5.20691 0
M  V30 4653 H 443.568 0.96037 3.65493 0
M  V30 4654 H 443.881 2.56226 7.29087 0
M  V30 4655 H 442.226 2.29775 6.55918 0
M  V30 4656 H 445.417 1.27089 4.50517 0
M  V30 4657 H 445.59 2.00115 6.16326 0
M  V30 4658 N 438.996 -1.55193 0.274407 0
M  V30 4659 C 440.273 -1.91584 -0.394331 0
M  V30 4660 C 440.653 -1.19858 -1.73774 0
M  V30 4661 O 440.001 -0.3252 -2.26174 0
M  V30 4662 C 440.211 -3.4487 -0.535311 0
M  V30 4663 C 441.559 -4.16636 -0.818534 0
M  V30 4664 O 442.583 -3.5076 -0.620146 0
M  V30 4665 O 441.442 -5.33209 -1.19792 0
M  V30 4666 H 438.536 -0.798349 -0.215794 0
M  V30 4667 H 441.082 -1.66646 0.320507 0
M  V30 4668 H 439.854 -3.89145 0.410141 0
M  V30 4669 H 439.477 -3.75759 -1.29964 0
M  V30 4670 N 440.474 -0.00167713 -1.576 0
M  V30 4671 C 441.751 0.719951 -1.81868 0
M  V30 4672 C 442.131 1.91895 -0.879747 0
M  V30 4673 O 441.479 2.28389 0.0711423 0
M  V30 4674 C 441.689 1.12409 -3.30402 0
M  V30 4675 C 443.037 1.52724 -3.96182 0
M  V30 4676 O 444.061 1.21784 -3.34734 0
M  V30 4677 O 442.92 2.10265 -5.04431 0
M  V30 4678 H 440.014 0.350707 -0.748955 0
M  V30 4679 H 442.56 -0.0272597 -1.69678 0
M  V30 4680 H 441.332 0.269532 -3.90371 0
M  V30 4681 H 440.955 1.93035 -3.47596 0
M  V30 4682 N 441.952 1.55251 0.271103 0
M  V30 4683 C 442.862 1.9136 1.35714 0
M  V30 4684 C 443.878 0.811075 1.5394 0
M  V30 4685 O 445.054 1.11031 1.6803 0
M  V30 4686 C 442.119 2.1798 2.69603 0
M  V30 4687 C 441.18 3.4153 2.60107 0
M  V30 4688 C 440.413 3.66871 3.8761 0
M  V30 4689 O 440.636 2.94689 4.8838 0
M  V30 4690 O 439.57 4.60405 3.87699 0
M  V30 4691 H 443.396 2.83815 1.08088 0
M  V30 4692 H 440.981 1.41821 0.469792 0
M  V30 4693 H 442.863 2.36518 3.48765 0
M  V30 4694 H 441.538 1.28708 2.97012 0
M  V30 4695 H 440.445 3.28325 1.79314 0
M  V30 4696 H 441.778 4.31027 2.37647 0
M  V30 4697 N 443.43 -0.535701 1.48216 0
M  V30 4698 C 444.679 -1.28828 1.55197 0
M  V30 4699 C 444.992 -1.94263 0.228278 0
M  V30 4700 O 446.198 -2.70927 0.176278 0
M  V30 4701 C 444.654 -2.33727 2.73678 0
M  V30 4702 C 444.262 -1.74386 4.12666 0
M  V30 4703 C 446.006 -3.1003 2.89968 0
M  V30 4704 C 443.913 -2.77192 5.22416 0
M  V30 4705 H 442.843 -0.484484 0.577747 0
M  V30 4706 H 445.494 -0.56646 1.74538 0
M  V30 4707 H 443.876 -3.08919 2.4776 0
M  V30 4708 H 445.05 -1.05421 4.48579 0
M  V30 4709 H 443.365 -1.10595 4.01445 0
M  V30 4710 H 445.962 -3.86842 3.6913 0
M  V30 4711 H 446.305 -3.65542 1.9921 0
M  V30 4712 H 446.838 -2.41952 3.15759 0
M  V30 4713 H 443.577 -2.26507 6.15122 0
M  V30 4714 H 443.097 -3.44502 4.90998 0
M  V30 4715 H 444.776 -3.40285 5.50286 0
M  V30 4716 N 444.908 -1.36708 -0.784132 0
M  V30 4717 C 446.136 -1.34398 -1.57305 0
M  V30 4718 C 446.551 0.0735577 -1.88657 0
M  V30 4719 O 445.908 1.03193 -1.50524 0
M  V30 4720 C 445.959 -2.17053 -2.89085 0
M  V30 4721 O 445.68 -3.53281 -2.59083 0
M  V30 4722 C 447.181 -2.22583 -3.83369 0
M  V30 4723 H 444.401 -0.460819 -0.487736 0
M  V30 4724 H 446.945 -1.79879 -0.972819 0
M  V30 4725 H 445.1 -1.75113 -3.45564 0
M  V30 4726 H 445.514 -3.9647 -3.43383 0
M  V30 4727 H 446.988 -2.84763 -4.72878 0
M  V30 4728 H 447.465 -1.23075 -4.21603 0
M  V30 4729 H 448.071 -2.64781 -3.32823 0
M  V30 4730 N 446.386 1.0089 -1.21074 0
M  V30 4731 C 447.318 2.09737 -0.924291 0
M  V30 4732 C 448.331 1.62546 0.0909809 0
M  V30 4733 O 449.52 1.77942 -0.141021 0
M  V30 4734 C 446.62 3.36922 -0.36559 0
M  V30 4735 C 445.793 4.13216 -1.43426 0
M  V30 4736 C 444.852 5.18696 -0.885496 0
M  V30 4737 O 443.878 5.47176 -1.56801 0
M  V30 4738 N 445.08 5.79718 0.301227 0
M  V30 4739 H 447.845 2.34895 -1.8613 0
M  V30 4740 H 445.406 1.17341 -1.11546 0
M  V30 4741 H 447.398 4.04697 0.0158407 0
M  V30 4742 H 445.968 3.08952 0.476149 0
M  V30 4743 H 445.188 3.40301 -1.9897 0
M  V30 4744 H 446.476 4.60967 -2.15376 0
M  V30 4745 H 445.874 5.58926 0.872849 0
M  V30 4746 H 444.431 6.48804 0.624211 0
M  V30 4747 N 447.864 1.01787 1.20321 0
M  V30 4748 C 449.141 0.622978 1.85414 0
M  V30 4749 C 449.521 -0.898887 1.91006 0
M  V30 4750 O 448.869 -1.79112 1.41884 0
M  V30 4751 C 449.079 1.27226 3.24984 0
M  V30 4752 C 450.427 1.3885 4.01255 0
M  V30 4753 O 451.451 1.22857 3.34342 0
M  V30 4754 O 450.31 1.64705 5.2109 0
M  V30 4755 H 447.404 0.215116 0.798533 0
M  V30 4756 H 449.95 1.11533 1.27901 0
M  V30 4757 H 448.722 2.31209 3.15687 0
M  V30 4758 H 448.345 0.767069 3.90131 0
M  V30 4759 N 449.342 -1.36122 0.79427 0
M  V30 4760 C 450.252 -2.33769 0.197296 0
M  V30 4761 C 451.268 -1.61276 -0.653153 0
M  V30 4762 O 452.444 -1.9323 -0.5678 0
M  V30 4763 C 449.509 -3.40474 -0.654098 0
M  V30 4764 C 448.57 -4.28759 0.215411 0
M  V30 4765 C 447.803 -5.30368 -0.595443 0
M  V30 4766 O 448.026 -5.40211 -1.83107 0
M  V30 4767 O 446.96 -6.019 0.00721351 0
M  V30 4768 H 450.786 -2.86597 1.00478 0
M  V30 4769 H 448.371 -1.38676 0.555818 0
M  V30 4770 H 450.253 -4.05703 -1.13944 0
M  V30 4771 H 448.928 -2.89937 -1.43938 0
M  V30 4772 H 447.835 -3.66554 0.747615 0
M  V30 4773 H 449.168 -4.82661 0.964332 0
M  V30 4774 N 450.82 -0.546701 -1.47814 0
M  V30 4775 C 451.768 0.220048 -2.31557 0
M  V30 4776 C 452.762 0.919472 -1.42275 0
M  V30 4777 O 453.968 0.841953 -1.59095 0
M  V30 4778 H 450.343 0.0898334 -0.746615 0
M  V30 4779 H 452.314 -0.505589 -2.94086 0
M  V30 4780 C 451.063 1.24353 -3.24702 0
M  V30 4781 H 450.386 0.714758 -3.93359 0
M  V30 4782 H 451.826 1.75112 -3.8615 0
M  V30 4783 C 450.285 2.28593 -2.47481 0
M  V30 4784 O 450.815 3.35334 -2.21165 0
M  V30 4785 N 449.021 2.02244 -2.08676 0
M  V30 4786 H 448.568 1.15455 -2.30278 0
M  V30 4787 H 448.526 2.72207 -1.57323 0
M  V30 4788 N 452.299 1.55045 -0.282633 0
M  V30 4789 C 453.527 2.04168 0.33512 0
M  V30 4790 C 453.942 1.16071 1.48906 0
M  V30 4791 O 453.299 0.182391 1.81586 0
M  V30 4792 C 453.35 3.52332 0.808957 0
M  V30 4793 O 453.071 4.37078 -0.299038 0
M  V30 4794 C 454.572 4.17375 1.49375 0
M  V30 4795 H 451.792 0.666744 0.0754543 0
M  V30 4796 H 454.336 2.00205 -0.416918 0
M  V30 4797 H 452.491 3.56715 1.51106 0
M  V30 4798 H 452.905 5.24458 0.0665514 0
M  V30 4799 H 454.379 5.22627 1.77664 0
M  V30 4800 H 454.856 3.65999 2.42778 0
M  V30 4801 H 455.462 4.17016 0.835305 0
M  V30 4802 N 453.777 0.010035 1.57597 0
M  V30 4803 C 455.023 -0.673697 1.91283 0
M  V30 4804 C 455.356 -1.72863 0.884979 0
M  V30 4805 O 454.631 -1.94268 -0.0949487 0
M  V30 4806 C 454.914 -1.30766 3.35518 0
M  V30 4807 C 454.767 -0.263578 4.49027 0
M  V30 4808 C 456.086 -2.23105 3.79358 0
M  V30 4809 H 453.205 -0.243439 0.695634 0
M  V30 4810 H 455.847 0.0633864 1.89894 0
M  V30 4811 H 453.997 -1.93588 3.36832 0
M  V30 4812 H 455.669 0.365738 4.59848 0
M  V30 4813 H 453.912 0.413077 4.31829 0
M  V30 4814 H 454.583 -0.746398 5.4693 0
M  V30 4815 H 457.059 -1.70289 3.79659 0
M  V30 4816 H 455.935 -2.64424 4.81011 0
M  V30 4817 H 456.196 -3.11433 3.13787 0
M  V30 4818 N 455.255 -1.55392 -0.262866 0
M  V30 4819 C 456.48 -1.80847 -1.01533 0
M  V30 4820 C 456.905 -0.584946 -1.78774 0
M  V30 4821 O 456.263 0.465701 -1.75217 0
M  V30 4822 C 456.311 -3.03866 -1.94159 0
M  V30 4823 O 455.415 -2.79662 -3.03089 0
M  V30 4824 H 454.756 -0.597441 -0.289759 0
M  V30 4825 H 457.286 -2.02553 -0.288698 0
M  V30 4826 H 457.296 -3.32872 -2.35924 0
M  V30 4827 H 455.971 -3.92564 -1.37354 0
M  V30 4828 H 454.548 -2.61781 -2.65566 0
M  V30 4829 N 456.733 0.527833 -1.48498 0
M  V30 4830 C 457.961 1.30823 -1.6029 0
M  V30 4831 C 458.376 1.86945 -0.263974 0
M  V30 4832 O 457.733 1.6651 0.747034 0
M  V30 4833 C 457.784 2.45756 -2.65116 0
M  V30 4834 O 457.505 1.91946 -3.93813 0
M  V30 4835 C 459.006 3.37543 -2.87367 0
M  V30 4836 H 456.226 0.397763 -0.540394 0
M  V30 4837 H 458.77 0.636529 -1.94341 0
M  V30 4838 H 456.925 3.08806 -2.33917 0
M  V30 4839 H 457.339 2.67195 -4.51339 0
M  V30 4840 H 458.813 4.14532 -3.6451 0
M  V30 4841 H 459.29 3.92905 -1.9627 0
M  V30 4842 H 459.896 2.80283 -3.19878 0
M  V30 4843 N 458.211 1.37122 0.776871 0
M  V30 4844 C 459.436 1.354 1.57104 0
M  V30 4845 C 459.861 -0.0595562 1.88006 0
M  V30 4846 O 459.219 -1.03514 1.48844 0
M  V30 4847 C 459.267 2.19472 2.8612 0
M  V30 4848 O 458.371 1.59582 3.80273 0
M  V30 4849 H 457.712 0.462869 0.476076 0
M  V30 4850 H 460.242 1.80577 0.961932 0
M  V30 4851 H 460.252 2.32502 3.35271 0
M  V30 4852 H 458.927 3.22222 2.62956 0
M  V30 4853 H 457.504 1.55564 3.38902 0
M  V30 4854 N 459.689 -1.00246 1.21608 0
M  V30 4855 C 460.619 -2.10921 1.00172 0
M  V30 4856 C 461.6 -1.69938 -0.0741587 0
M  V30 4857 O 462.785 -1.94009 0.0861753 0
M  V30 4858 C 459.915 -3.42618 0.568355 0
M  V30 4859 C 458.869 -3.97407 1.58909 0
M  V30 4860 C 458.195 -5.25038 1.01187 0
M  V30 4861 C 459.495 -4.2918 2.97661 0
M  V30 4862 H 461.189 -2.29112 1.92739 0
M  V30 4863 H 458.735 -1.10101 0.928102 0
M  V30 4864 H 460.688 -4.19444 0.405555 0
M  V30 4865 H 459.412 -3.24227 -0.392961 0
M  V30 4866 H 458.071 -3.22703 1.73949 0
M  V30 4867 H 457.719 -5.02982 0.0421965 0
M  V30 4868 H 457.419 -5.62661 1.6937 0
M  V30 4869 H 458.943 -6.04507 0.860448 0
M  V30 4870 H 460.357 -4.96839 2.86049 0
M  V30 4871 H 458.754 -4.77952 3.6288 0
M  V30 4872 H 459.824 -3.3735 3.48315 0
M  V30 4873 N 461.167 -1.02423 -1.1978 0
M  V30 4874 C 462.415 -0.716569 -1.8897 0
M  V30 4875 C 462.736 0.756769 -1.79716 0
M  V30 4876 O 462.006 1.5449 -1.20456 0
M  V30 4877 H 460.586 -0.262062 -0.699523 0
M  V30 4878 H 463.248 -1.29747 -1.45436 0
M  V30 4879 H 462.344 -1.00675 -2.95417 0
M  V30 4880 N 462.645 1.35699 -0.801477 0
M  V30 4881 C 463.595 2.2728 -0.181073 0
M  V30 4882 C 464.579 1.47533 0.642098 0
M  V30 4883 O 465.771 1.69785 0.500193 0
M  V30 4884 C 462.9 3.36626 0.673612 0
M  V30 4885 C 461.986 4.23802 -0.159008 0
M  V30 4886 N 462.377 4.90879 -1.2195 0
M  V30 4887 C 460.675 4.45959 0.0602005 0
M  V30 4888 C 461.376 5.5546 -1.72738 0
M  V30 4889 N 460.352 5.33663 -1.03465 0
M  V30 4890 H 464.154 2.76632 -0.992582 0
M  V30 4891 H 461.668 1.49166 -0.642127 0
M  V30 4892 H 463.665 4.01179 1.13408 0
M  V30 4893 H 462.325 2.88828 1.48353 0
M  V30 4894 H 463.336 4.92497 -1.60209 0
M  V30 4895 H 460.013 4.08969 0.839664 0
M  V30 4896 H 461.403 6.18991 -2.61342 0
M  V30 4897 N 464.123 0.554532 1.47522 0
M  V30 4898 C 465.348 0.0322661 2.07375 0
M  V30 4899 C 465.773 -1.25079 1.40488 0
M  V30 4900 O 465.131 -1.74859 0.47896 0
M  V30 4901 C 465.179 -0.149397 3.6029 0
M  V30 4902 O 464.283 -1.21259 3.9417 0
M  V30 4903 H 463.624 0.0501228 0.662106 0
M  V30 4904 H 466.154 0.769452 1.8958 0
M  V30 4905 H 466.164 -0.364437 4.06369 0
M  V30 4906 H 464.839 0.787743 4.08372 0
M  V30 4907 H 463.416 -0.97825 3.5984 0
M  V30 4908 N 465.601 -1.54893 0.290851 0
M  V30 4909 C 466.548 -2.23138 -0.58974 0
M  V30 4910 C 467.518 -1.21036 -1.13752 0
M  V30 4911 O 468.703 -1.49626 -1.18392 0
M  V30 4912 C 465.843 -2.96811 -1.76061 0
M  V30 4913 C 464.956 -4.13665 -1.24519 0
M  V30 4914 C 464.091 -4.74944 -2.3791 0
M  V30 4915 C 463.13 -5.83963 -1.83451 0
M  V30 4916 N 462.267 -6.39239 -2.90376 0
M  V30 4917 H 467.107 -2.98 -0.00114915 0
M  V30 4918 H 464.644 -1.47096 0.0112006 0
M  V30 4919 H 466.602 -3.37751 -2.44909 0
M  V30 4920 H 465.232 -2.24344 -2.32098 0
M  V30 4921 H 464.284 -3.77737 -0.449288 0
M  V30 4922 H 465.596 -4.92238 -0.806424 0
M  V30 4923 H 464.75 -5.18684 -3.14724 0
M  V30 4924 H 463.489 -3.95682 -2.85109 0
M  V30 4925 H 462.494 -5.39657 -1.05122 0
M  V30 4926 H 463.719 -6.65103 -1.37169 0
M  V30 4927 H 461.665 -5.62864 -3.36927 0
M  V30 4928 H 461.582 -7.13129 -2.50965 0
M  V30 4929 H 462.85 -6.87637 -3.67118 0
M  V30 4930 N 467.08 -0.0183926 -1.57589 0
M  V30 4931 C 468.357 0.700621 -1.82622 0
M  V30 4932 C 468.737 1.90951 -0.90005 0
M  V30 4933 O 468.085 2.28452 0.0469145 0
M  V30 4934 C 468.295 1.08899 -3.31575 0
M  V30 4935 C 469.643 1.48514 -3.9778 0
M  V30 4936 O 470.667 1.18227 -3.36007 0
M  V30 4937 O 469.526 2.04903 -5.06633 0
M  V30 4938 H 466.62 0.342743 -0.752633 0
M  V30 4939 H 469.166 -0.0452548 -1.6964 0
M  V30 4940 H 467.938 0.228113 -3.90635 0
M  V30 4941 H 467.561 1.89338 -3.49624 0
M  V30 4942 N 468.558 1.5553 0.254621 0
M  V30 4943 C 469.468 1.92789 1.33677 0
M  V30 4944 C 470.484 0.827356 1.53071 0
M  V30 4945 O 471.66 1.12807 1.66843 0
M  V30 4946 C 468.725 2.20827 2.67275 0
M  V30 4947 C 467.786 3.4427 2.5647 0
M  V30 4948 C 467.019 3.70961 3.83697 0
M  V30 4949 O 467.242 2.99852 4.85227 0
M  V30 4950 O 466.176 4.64491 3.82794 0
M  V30 4951 H 470.002 2.84945 1.05071 0
M  V30 4952 H 467.587 1.42312 0.454723 0
M  V30 4953 H 469.469 2.40204 3.46237 0
M  V30 4954 H 468.144 1.31851 2.9563 0
M  V30 4955 H 467.051 3.30209 1.75821 0
M  V30 4956 H 468.384 4.33524 2.33062 0
M  V30 4957 N 470.036 -0.519951 1.48776 0
M  V30 4958 C 470.984 -1.64443 1.64503 0
M  V30 4959 C 471.978 -1.61501 0.511248 0
M  V30 4960 O 473.184 -1.66238 0.690294 0
M  V30 4961 H 469.559 -0.544776 0.518385 0
M  V30 4962 H 471.53 -1.48325 2.58925 0
M  V30 4963 C 470.279 -3.02673 1.71127 0
M  V30 4964 H 469.602 -3.05635 2.57735 0
M  V30 4965 H 471.042 -3.80941 1.86172 0
M  V30 4966 C 469.501 -3.33854 0.452032 0
M  V30 4967 O 470.031 -3.99385 -0.430678 0
M  V30 4968 N 468.237 -2.88825 0.32069 0
M  V30 4969 H 467.784 -2.35674 1.03998 0
M  V30 4970 H 467.742 -3.10056 -0.520814 0
M  V30 4971 N 471.514 -1.37532 -0.769588 0
M  V30 4972 C 472.739 -1.36231 -1.56384 0
M  V30 4973 C 473.164 0.0495849 -1.88035 0
M  V30 4974 O 472.522 1.02723 -1.49391 0
M  V30 4975 C 472.57 -2.20986 -2.84952 0
M  V30 4976 O 471.674 -1.61597 -3.79421 0
M  V30 4977 H 471.015 -0.465387 -0.473615 0
M  V30 4978 H 473.545 -1.81085 -0.952342 0
M  V30 4979 H 473.555 -2.34277 -3.34034 0
M  V30 4980 H 472.23 -3.23612 -2.61243 0
M  V30 4981 H 470.807 -1.57359 -3.38072 0
M  V30 4982 N 472.992 0.995999 -1.22138 0
M  V30 4983 C 473.939 2.08551 -0.988687 0
M  V30 4984 C 474.909 1.65864 0.0885021 0
M  V30 4985 O 476.094 1.90704 -0.0604589 0
M  V30 4986 C 473.234 3.40374 -0.569191 0
M  V30 4987 C 472.347 3.96421 -1.71681 0
M  V30 4988 C 471.482 5.1639 -1.2456 0
M  V30 4989 C 470.521 5.64567 -2.36497 0
M  V30 4990 N 469.658 6.75777 -1.90445 0
M  V30 4991 H 474.498 2.2779 -1.92135 0
M  V30 4992 H 472.035 1.1168 -0.957388 0
M  V30 4993 H 473.993 4.16068 -0.307166 0
M  V30 4994 H 472.623 3.21145 0.326462 0
M  V30 4995 H 471.675 3.17628 -2.09324 0
M  V30 4996 H 472.987 4.2816 -2.55891 0
M  V30 4997 H 472.141 5.99362 -0.940774 0
M  V30 4998 H 470.88 4.86266 -0.373662 0
M  V30 4999 H 469.885 4.80185 -2.67772 0
M  V30 5000 H 471.11 5.96716 -3.24202 0
M  V30 5001 H 469.056 6.47443 -1.05609 0
M  V30 5002 H 468.973 7.06818 -2.68223 0
M  V30 5003 H 470.241 7.62262 -1.63022 0
M  V30 5004 N 474.47 1.03057 1.19235 0
M  V30 5005 C 475.402 0.570932 2.21975 0
M  V30 5006 C 476.415 -0.354088 1.58903 0
M  V30 5007 O 477.604 -0.150211 1.77867 0
M  V30 5008 C 474.704 -0.187152 3.38383 0
M  V30 5009 C 473.877 0.743231 4.31039 0
M  V30 5010 C 472.936 0.0302493 5.26191 0
M  V30 5011 O 471.962 0.657371 5.65391 0
M  V30 5012 N 473.164 -1.23991 5.67104 0
M  V30 5013 H 475.929 1.45456 2.62036 0
M  V30 5014 H 473.49 0.909807 1.33918 0
M  V30 5015 H 475.482 -0.673715 3.99053 0
M  V30 5016 H 474.052 -0.972205 2.97098 0
M  V30 5017 H 473.272 1.40985 3.68126 0
M  V30 5018 H 474.56 1.3755 4.89854 0
M  V30 5019 H 473.958 -1.77011 5.37293 0
M  V30 5020 H 472.515 -1.67093 6.30018 0
M  V30 5021 N 475.948 -1.35272 0.808662 0
M  V30 5022 C 477.176 -2.02946 0.402537 0
M  V30 5023 C 477.591 -1.60937 -0.987147 0
M  V30 5024 O 476.948 -0.807917 -1.63643 0
M  V30 5025 C 476.999 -3.58317 0.47868 0
M  V30 5026 O 476.72 -3.98799 1.81358 0
M  V30 5027 C 478.221 -4.43251 0.0656281 0
M  V30 5028 H 475.441 -0.650831 0.163279 0
M  V30 5029 H 477.985 -1.72849 1.09286 0
M  V30 5030 H 476.14 -3.87055 -0.163415 0
M  V30 5031 H 476.554 -4.93451 1.77781 0
M  V30 5032 H 478.028 -5.51738 0.170017 0
M  V30 5033 H 478.505 -4.27913 -0.989278 0
M  V30 5034 H 479.111 -4.19813 0.68096 0
M  V30 5035 N 477.426 -0.562348 -1.47226 0
M  V30 5036 C 478.666 -0.0426374 -2.04356 0
M  V30 5037 C 479.03 1.28487 -1.42671 0
M  V30 5038 O 480.231 1.89259 -1.90878 0
M  V30 5039 C 478.502 0.0433826 -3.57374 0
M  V30 5040 S 480.061 0.508472 -4.35844 0
M  V30 5041 H 476.879 -0.0276234 -0.710463 0
M  V30 5042 H 479.481 -0.750245 -1.80531 0
M  V30 5043 H 478.185 -0.927072 -3.99792 0
M  V30 5044 H 477.716 0.774387 -3.85703 0
M  V30 5045 H 479.731 1.76719 -4.63665 0
M  V30 5046 N 478.904 1.54736 -0.299062 0
M  V30 5047 C 480.153 1.99279 0.311549 0
M  V30 5048 C 480.466 1.19107 1.55154 0
M  V30 5049 O 481.672 1.53908 2.23662 0
M  V30 5050 C 480.128 3.54768 0.605632 0
M  V30 5051 C 479.736 4.43746 -0.615914 0
M  V30 5052 C 481.48 4.07841 1.17754 0
M  V30 5053 C 479.387 5.90663 -0.29509 0
M  V30 5054 H 478.317 0.744359 0.120187 0
M  V30 5055 H 480.968 1.78919 -0.407464 0
M  V30 5056 H 479.35 3.71021 1.38419 0
M  V30 5057 H 480.524 4.39267 -1.39218 0
M  V30 5058 H 478.839 4.01434 -1.10633 0
M  V30 5059 H 481.436 5.15174 1.43179 0
M  V30 5060 H 481.779 3.58324 2.11918 0
M  V30 5061 H 482.312 3.95123 0.460739 0
M  V30 5062 H 479.051 6.44325 -1.20524 0
M  V30 5063 H 478.571 5.98155 0.44394 0
M  V30 5064 H 480.25 6.46916 0.104048 0
M  V30 5065 N 480.382 0.0267497 1.57577 0
M  V30 5066 C 481.798 -0.32962 1.56159 0
M  V30 5067 C 481.998 -1.73059 1.03213 0
M  V30 5068 O 481.054 -2.43233 0.677804 0
M  V30 5069 C 482.367 -0.18039 3.00158 0
M  V30 5070 C 483.915 -0.253334 3.11973 0
M  V30 5071 C 484.39 -0.132921 4.57807 0
M  V30 5072 N 485.881 -0.189979 4.6281 0
M  V30 5073 C 486.616 -0.120554 5.73273 0
M  V30 5074 N 486.112 -0.000180315 6.928 0
M  V30 5075 N 487.905 -0.174369 5.61829 0
M  V30 5076 H 480.056 0.942896 1.90324 0
M  V30 5077 H 482.319 0.3639 0.875375 0
M  V30 5078 H 482.025 0.784576 3.42837 0
M  V30 5079 H 481.899 -0.951565 3.65 0
M  V30 5080 H 484.286 -1.20876 2.69208 0
M  V30 5081 H 484.367 0.548177 2.49857 0
M  V30 5082 H 484.011 0.819073 5.01252 0
M  V30 5083 H 483.941 -0.953264 5.179 0
M  V30 5084 H 486.432 -0.283257 3.76837 0
M  V30 5085 H 486.745 0.0461666 7.72786 0
M  V30 5086 H 485.09 0.034569 6.94991 0
M  V30 5087 H 488.281 -0.266794 4.67339 0
M  V30 5088 H 488.454 -0.116802 6.47895 0
M  V30 5089 N 481.861 -1.55662 -0.24637 0
M  V30 5090 C 483.11 -1.7672 -0.972254 0
M  V30 5091 C 483.423 -0.59078 -1.86465 0
M  V30 5092 O 484.629 -0.684391 -2.62732 0
M  V30 5093 C 483.085 -3.12869 -1.7788 0
M  V30 5094 C 482.693 -4.38161 -0.933768 0
M  V30 5095 C 484.437 -3.43265 -2.49738 0
M  V30 5096 C 482.344 -5.6534 -1.73623 0
M  V30 5097 H 481.274 -0.658795 -0.366749 0
M  V30 5098 H 483.925 -1.82092 -0.226902 0
M  V30 5099 H 482.307 -3.01606 -2.56612 0
M  V30 5100 H 483.481 -4.60413 -0.188736 0
M  V30 5101 H 481.796 -4.15102 -0.328488 0
M  V30 5102 H 484.393 -4.35501 -3.10231 0
M  V30 5103 H 484.736 -2.64614 -3.2138 0
M  V30 5104 H 485.269 -3.55746 -1.78016 0
M  V30 5105 H 482.008 -6.46814 -1.06354 0
M  V30 5106 H 481.528 -5.47188 -2.45653 0
M  V30 5107 H 483.207 -6.04616 -2.30323 0
M  V30 5108 N 483.339 0.512053 -1.4905 0
M  V30 5109 C 484.587 1.26436 -1.57665 0
M  V30 5110 C 484.908 1.93255 -0.260293 0
M  V30 5111 O 484.178 1.82206 0.719564 0
M  V30 5112 H 482.758 0.469658 -0.580888 0
M  V30 5113 H 485.42 0.594398 -1.85615 0
M  V30 5114 H 484.516 2.03417 -2.36702 0
M  V30 5115 N 484.817 1.37938 0.762283 0
M  V30 5116 C 486.045 1.36883 1.55147 0
M  V30 5117 C 486.46 -0.0435348 1.8875 0
M  V30 5118 O 485.817 -1.00786 1.52146 0
M  V30 5119 C 485.868 2.21624 2.85596 0
M  V30 5120 O 485.589 3.57358 2.5343 0
M  V30 5121 C 487.09 2.28653 3.7978 0
M  V30 5122 H 484.31 0.468521 0.480343 0
M  V30 5123 H 486.854 1.81404 0.944079 0
M  V30 5124 H 485.009 1.80588 3.42734 0
M  V30 5125 H 485.423 4.01883 3.37032 0
M  V30 5126 H 486.897 2.9225 4.68288 0
M  V30 5127 H 487.374 1.29767 4.19592 0
M  V30 5128 H 487.98 2.70043 3.28568 0
M  V30 5129 N 486.295 -0.989507 1.22664 0
M  V30 5130 C 487.242 -2.08024 0.999733 0
M  V30 5131 C 488.212 -1.65909 -0.0797047 0
M  V30 5132 O 489.397 -1.90669 0.0705715 0
M  V30 5133 C 486.537 -3.40067 0.587234 0
M  V30 5134 C 485.65 -3.95505 1.73781 0
M  V30 5135 C 484.785 -5.15722 1.27297 0
M  V30 5136 C 483.824 -5.63305 2.39488 0
M  V30 5137 N 482.961 -6.74758 1.94026 0
M  V30 5138 H 487.801 -2.26768 1.9334 0
M  V30 5139 H 485.338 -1.11171 0.963297 0
M  V30 5140 H 487.296 -4.15899 0.329227 0
M  V30 5141 H 485.926 -3.21314 -0.309426 0
M  V30 5142 H 484.978 -3.16513 2.11006 0
M  V30 5143 H 486.29 -4.26797 2.58158 0
M  V30 5144 H 485.444 -5.98854 0.972546 0
M  V30 5145 H 484.183 -4.86061 0.399445 0
M  V30 5146 H 483.188 -4.78759 2.70315 0
M  V30 5147 H 484.413 -5.94988 3.27362 0
M  V30 5148 H 482.359 -6.46874 1.09041 0
M  V30 5149 H 482.276 -7.05386 2.71968 0
M  V30 5150 H 483.544 -7.61387 1.67062 0
M  V30 5151 N 487.773 -1.03688 -1.18687 0
M  V30 5152 C 489.001 -0.757918 -1.92518 0
M  V30 5153 C 489.416 0.684398 -1.75959 0
M  V30 5154 O 488.773 1.46617 -1.08673 0
M  V30 5155 C 488.824 -1.10985 -3.44042 0
M  V30 5156 O 488.545 -2.49554 -3.60076 0
M  V30 5157 C 490.046 -0.854844 -4.3498 0
M  V30 5158 H 487.266 -0.276699 -0.611293 0
M  V30 5159 H 489.81 -1.38352 -1.50595 0
M  V30 5160 H 487.965 -0.529279 -3.83767 0
M  V30 5161 H 488.379 -2.6291 -4.53849 0
M  V30 5162 H 489.853 -1.15098 -5.39867 0
M  V30 5163 H 490.33 0.210507 -4.38695 0
M  V30 5164 H 490.936 -1.41853 -4.00946 0
M  V30 5165 N 489.251 1.34841 -0.815825 0
M  V30 5166 C 490.662 1.80937 -0.46029 0
M  V30 5167 C 491.013 1.67685 1.01863 0
M  V30 5168 O 490.138 1.21277 1.79223 0
M  V30 5169 C 490.733 3.28509 -0.828708 0
M  V30 5170 C 489.292 3.72712 -0.525644 0
M  V30 5171 C 488.439 2.56676 -1.04941 0
M  V30 5172 H 491.39 1.22688 -1.00664 0
M  V30 5173 H 491.411 3.80279 -0.129757 0
M  V30 5174 H 490.923 3.38122 -1.90513 0
M  V30 5175 H 489.024 3.68642 0.541666 0
M  V30 5176 H 489.137 4.67119 -1.06474 0
M  V30 5177 H 487.501 2.50302 -0.471286 0
M  V30 5178 H 488.284 2.69063 -2.13214 0
M  V30 5179 N 490.729 0.570148 1.46925 0
M  V30 5180 C 491.676 -0.170257 2.30171 0
M  V30 5181 C 492.646 -0.896099 1.39855 0
M  V30 5182 O 493.831 -0.889248 1.68811 0
M  V30 5183 C 490.971 -1.18605 3.24079 0
M  V30 5184 C 490.084 -0.464947 4.29491 0
M  V30 5185 C 489.219 -1.46716 5.10537 0
M  V30 5186 C 488.258 -0.731758 6.0771 0
M  V30 5187 N 487.395 -1.68142 6.81669 0
M  V30 5188 H 492.235 0.545713 2.92961 0
M  V30 5189 H 489.772 0.280938 1.44392 0
M  V30 5190 H 491.73 -1.78771 3.76957 0
M  V30 5191 H 490.36 -1.86989 2.63125 0
M  V30 5192 H 489.412 0.251506 3.79568 0
M  V30 5193 H 490.724 0.110548 4.98677 0
M  V30 5194 H 489.878 -2.14199 5.6763 0
M  V30 5195 H 488.617 -2.07658 4.41282 0
M  V30 5196 H 487.622 -0.0430787 5.49783 0
M  V30 5197 H 488.847 -0.127904 6.7898 0
M  V30 5198 H 486.793 -2.27918 6.15134 0
M  V30 5199 H 486.71 -1.15841 7.47072 0
M  V30 5200 H 487.978 -2.347 7.43328 0
M  V30 5201 N 492.207 -1.54576 0.307264 0
M  V30 5202 C 493.432 -2.05139 -0.305379 0
M  V30 5203 C 493.857 -1.18278 -1.46259 0
M  V30 5204 O 493.215 -0.188243 -1.8032 0
M  V30 5205 C 493.263 -3.53066 -0.733283 0
M  V30 5206 O 492.367 -3.69206 -1.83741 0
M  V30 5207 H 491.708 -0.661444 -0.0582105 0
M  V30 5208 H 494.238 -1.99569 0.450931 0
M  V30 5209 H 494.248 -3.95034 -1.02039 0
M  V30 5210 H 492.923 -4.15746 0.113198 0
M  V30 5211 H 491.5 -3.39143 -1.55037 0
M  V30 5212 N 493.685 -0.035106 -1.57561 0
M  V30 5213 C 494.962 0.681212 -1.83354 0
M  V30 5214 C 495.342 1.89986 -0.920252 0
M  V30 5215 O 494.69 2.28489 0.0226815 0
M  V30 5216 C 494.9 1.05376 -3.32712 0
M  V30 5217 C 496.248 1.44286 -3.99333 0
M  V30 5218 O 497.272 1.14656 -3.37242 0
M  V30 5219 O 496.131 1.99518 -5.08778 0
M  V30 5220 H 493.225 0.334741 -0.756226 0
M  V30 5221 H 495.771 -0.0632448 -1.69582 0
M  V30 5222 H 494.543 0.186668 -3.90854 0
M  V30 5223 H 494.166 1.85619 -3.51613 0
M  V30 5224 N 495.163 1.55791 0.238111 0
M  V30 5225 C 496.388 1.8244 0.986432 0
M  V30 5226 C 496.813 0.613314 1.7782 0
M  V30 5227 O 496.171 -0.437767 1.75935 0
M  V30 5228 C 496.219 3.06917 1.893 0
M  V30 5229 O 495.323 2.84449 2.98601 0
M  V30 5230 H 494.664 0.601975 0.280218 0
M  V30 5231 H 497.194 2.02987 0.256437 0
M  V30 5232 H 497.204 3.36583 2.30598 0
M  V30 5233 H 495.879 3.947 1.31091 0
M  V30 5234 H 494.456 2.65972 2.61368 0
M  V30 5235 N 496.642 -0.504142 1.49319 0
M  V30 5236 C 497.882 -1.26867 1.60263 0
M  V30 5237 C 498.246 -1.89924 0.281578 0
M  V30 5238 O 499.447 -2.67479 0.266176 0
M  V30 5239 C 497.718 -2.30956 2.72753 0
M  V30 5240 S 499.277 -3.1679 3.03628 0
M  V30 5241 H 496.095 -0.431198 0.565322 0
M  V30 5242 H 498.697 -0.571407 1.86963 0
M  V30 5243 H 497.401 -1.83156 3.67263 0
M  V30 5244 H 496.932 -3.05356 2.48035 0
M  V30 5245 H 498.947 -4.31549 2.44908 0
M  V30 5246 N 498.12 -1.38341 -0.754957 0
M  V30 5247 C 499.348 -1.37704 -1.54419 0
M  V30 5248 C 499.763 0.0335243 -1.8877 0
M  V30 5249 O 499.12 0.999773 -1.52679 0
M  V30 5250 C 499.171 -2.23136 -2.84416 0
M  V30 5251 O 498.892 -3.58697 -2.51531 0
M  V30 5252 C 500.393 -2.30664 -3.78562 0
M  V30 5253 H 497.613 -0.471061 -0.477852 0
M  V30 5254 H 500.157 -1.81902 -0.934446 0
M  V30 5255 H 498.312 -1.82403 -3.41772 0
M  V30 5256 H 498.726 -4.03665 -3.34896 0
M  V30 5257 H 500.2 -2.9473 -4.66732 0
M  V30 5258 H 500.677 -1.3199 -4.18898 0
M  V30 5259 H 501.283 -2.71781 -3.27131 0
M  V30 5260 N 499.598 0.982988 -1.23187 0
M  V30 5261 C 501.009 1.53847 -1.05773 0
M  V30 5262 C 501.36 1.92568 0.375744 0
M  V30 5263 O 500.485 1.75783 1.26211 0
M  V30 5264 C 501.08 2.79567 -1.91384 0
M  V30 5265 C 499.639 3.31524 -1.78238 0
M  V30 5266 C 498.786 2.04534 -1.87246 0
M  V30 5267 H 501.737 0.802962 -1.36888 0
M  V30 5268 H 501.758 3.52317 -1.43711 0
M  V30 5269 H 501.27 2.51353 -2.95708 0
M  V30 5270 H 499.371 3.64623 -0.766875 0
M  V30 5271 H 499.484 4.01457 -2.61475 0
M  V30 5272 H 497.848 2.1855 -1.30797 0
M  V30 5273 H 498.631 1.78706 -2.9312 0
M  V30 5274 N 501.076 1.04316 1.18135 0
M  V30 5275 C 502.304 0.768117 1.92113 0
M  V30 5276 C 502.719 -0.675057 1.76319 0
M  V30 5277 O 502.076 -1.46038 1.09449 0
M  V30 5278 C 502.127 1.12808 3.43448 0
M  V30 5279 O 501.848 2.5146 3.58747 0
M  V30 5280 C 503.349 0.8779 4.3452 0
M  V30 5281 H 500.569 0.279937 0.609817 0
M  V30 5282 H 503.113 1.39149 1.49859 0
M  V30 5283 H 501.268 0.549623 3.83481 0
M  V30 5284 H 501.682 2.65313 4.52448 0
M  V30 5285 H 503.156 1.17959 5.39249 0
M  V30 5286 H 503.633 -0.187239 4.38801 0
M  V30 5287 H 504.239 1.43977 4.00188 0
M  V30 5288 N 502.554 -1.34406 0.822964 0
M  V30 5289 C 503.502 -2.31428 0.233165 0
M  V30 5290 C 504.496 -1.57404 -0.626118 0
M  V30 5291 O 505.702 -1.72402 -0.517453 0
M  V30 5292 H 502.077 -0.749863 0.0566557 0
M  V30 5293 H 504.048 -2.78699 1.06628 0
M  V30 5294 C 502.797 -3.42653 -0.590264 0
M  V30 5295 H 502.12 -3.99753 0.0616129 0
M  V30 5296 H 503.56 -4.12778 -0.969054 0
M  V30 5297 C 502.019 -2.87112 -1.76262 0
M  V30 5298 O 502.549 -2.81995 -2.8608 0
M  V30 5299 N 500.755 -2.43934 -1.57938 0
M  V30 5300 H 500.302 -2.48296 -0.686078 0
M  V30 5301 H 500.26 -2.07123 -2.36532 0
M  V30 5302 N 504.032 -0.577932 -1.46621 0
M  V30 5303 C 505.26 -0.0671642 -2.06791 0
M  V30 5304 C 505.675 1.23571 -1.42743 0
M  V30 5305 O 505.032 1.74602 -0.531062 0
M  V30 5306 C 505.083 0.110357 -3.61332 0
M  V30 5307 O 504.804 -1.14095 -4.22982 0
M  V30 5308 C 506.305 0.656025 -4.38419 0
M  V30 5309 H 503.525 -0.0552732 -0.66872 0
M  V30 5310 H 506.069 -0.797242 -1.8832 0
M  V30 5311 H 504.224 0.790637 -3.79246 0
M  V30 5312 H 504.638 -0.951742 -5.15793 0
M  V30 5313 H 506.112 0.729438 -5.47159 0
M  V30 5314 H 506.589 1.67195 -4.06131 0
M  V30 5315 H 507.195 0.0107692 -4.25299 0
M  V30 5316 N 505.51 1.54411 -0.315457 0
M  V30 5317 C 506.738 2.04833 0.291738 0
M  V30 5318 C 507.153 1.19203 1.46411 0
M  V30 5319 O 506.51 0.220867 1.81159 0
M  V30 5320 C 506.561 3.53969 0.73404 0
M  V30 5321 O 506.282 4.36346 -0.391682 0
M  V30 5322 C 507.783 4.2045 1.40489 0
M  V30 5323 H 505.003 0.668195 0.0612947 0
M  V30 5324 H 507.547 1.99276 -0.45929 0
M  V30 5325 H 505.702 3.5984 1.43506 0
M  V30 5326 H 506.116 5.24481 -0.0447088 0
M  V30 5327 H 507.59 5.26278 1.66539 0
M  V30 5328 H 508.067 3.71067 2.3496 0
M  V30 5329 H 508.673 4.18694 0.746662 0
M  V30 5330 N 506.988 0.0434614 1.5754 0
M  V30 5331 C 508.234 -0.632971 1.92669 0
M  V30 5332 C 508.567 -1.70947 0.921446 0
M  V30 5333 O 507.842 -1.94426 -0.0537202 0
M  V30 5334 C 508.125 -1.23619 3.38216 0
M  V30 5335 C 507.978 -0.168274 4.49485 0
M  V30 5336 C 509.297 -2.15008 3.84005 0
M  V30 5337 H 506.416 -0.228629 0.700641 0
M  V30 5338 H 509.058 0.103651 1.89717 0
M  V30 5339 H 507.208 -1.864 3.40863 0
M  V30 5340 H 508.88 0.463196 4.58969 0
M  V30 5341 H 507.123 0.504581 4.30855 0
M  V30 5342 H 507.794 -0.630218 5.48391 0
M  V30 5343 H 510.27 -1.62198 3.83185 0
M  V30 5344 H 509.146 -2.54161 4.86511 0
M  V30 5345 H 509.407 -3.04707 3.20322 0
M  V30 5346 N 508.466 -1.55915 -0.229846 0
M  V30 5347 C 509.376 -1.94891 -1.30593 0
M  V30 5348 C 510.392 -0.851604 -1.51736 0
M  V30 5349 O 511.568 -1.15447 -1.65027 0
M  V30 5350 C 508.633 -2.25052 -2.63728 0
M  V30 5351 C 507.694 -3.48306 -2.5096 0
M  V30 5352 C 506.927 -3.77019 -3.77747 0
M  V30 5353 O 507.15 -3.07534 -4.80395 0
M  V30 5354 O 506.084 -4.70523 -3.75356 0
M  V30 5355 H 509.91 -2.86581 -1.00525 0
M  V30 5356 H 507.495 -1.43017 -0.432025 0
M  V30 5357 H 509.377 -2.45682 -3.42372 0
M  V30 5358 H 508.052 -1.36538 -2.93495 0
M  V30 5359 H 506.959 -3.32964 -1.70546 0
M  V30 5360 H 508.292 -4.37177 -2.26136 0
M  V30 5361 N 509.944 0.496216 -1.49584 0
M  V30 5362 C 511.19 1.25189 -1.59548 0
M  V30 5363 C 511.523 1.9212 -0.283466 0
M  V30 5364 O 510.798 1.80947 0.713324 0
M  V30 5365 C 511.081 2.31516 -2.75812 0
M  V30 5366 C 510.934 1.69054 -4.16822 0
M  V30 5367 C 512.253 3.3304 -2.87702 0
M  V30 5368 H 509.372 0.45379 -0.580727 0
M  V30 5369 H 512.014 0.549327 -1.81886 0
M  V30 5370 H 510.164 2.91438 -2.56897 0
M  V30 5371 H 511.836 1.12923 -4.47265 0
M  V30 5372 H 510.079 0.994485 -4.22247 0
M  V30 5373 H 510.75 2.462 -4.94054 0
M  V30 5374 H 513.226 2.83114 -3.04936 0
M  V30 5375 H 512.102 4.04794 -3.7072 0
M  V30 5376 H 512.363 3.95655 -1.97255 0
M  V30 5377 N 511.423 1.38739 0.74761 0
M  V30 5378 C 512.669 1.35475 1.50912 0
M  V30 5379 C 513.002 -0.0533093 1.94127 0
M  V30 5380 O 512.277 -1.01572 1.65871 0
M  V30 5381 C 512.56 2.31582 2.75757 0
M  V30 5382 C 512.413 3.81274 2.38642 0
M  V30 5383 C 513.732 2.25722 3.77806 0
M  V30 5384 H 510.851 0.493427 0.547447 0
M  V30 5385 H 513.493 1.69634 0.855823 0
M  V30 5386 H 511.643 2.02582 3.31501 0
M  V30 5387 H 513.315 4.20972 1.88626 0
M  V30 5388 H 511.558 3.98664 1.71025 0
M  V30 5389 H 512.229 4.4399 3.27989 0
M  V30 5390 H 514.705 2.51336 3.31616 0
M  V30 5391 H 513.581 2.95069 4.62845 0
M  V30 5392 H 513.842 1.25803 4.23823 0
M  V30 5393 N 512.901 -0.976442 1.23707 0
M  V30 5394 C 514.149 -1.71487 1.06942 0
M  V30 5395 C 514.47 -1.9098 -0.393897 0
M  V30 5396 O 513.74 -1.48128 -1.28198 0
M  V30 5397 H 512.32 -0.635425 0.392739 0
M  V30 5398 H 514.982 -1.17515 1.55487 0
M  V30 5399 H 514.078 -2.70286 1.56051 0
M  V30 5400 N 514.379 -1.04941 -1.1758 0
M  V30 5401 C 515.604 -0.778253 -1.92245 0
M  V30 5402 C 516.029 0.659707 -1.76152 0
M  V30 5403 O 515.387 1.45803 -1.07755 0
M  V30 5404 C 515.435 -1.16051 -3.41416 0
M  V30 5405 O 514.539 -0.291153 -4.11371 0
M  V30 5406 H 513.88 -0.285619 -0.599431 0
M  V30 5407 H 516.41 -1.40159 -1.49052 0
M  V30 5408 H 516.42 -1.12619 -3.92149 0
M  V30 5409 H 515.095 -2.208 -3.52449 0
M  V30 5410 H 513.672 -0.385851 -3.70898 0
M  V30 5411 N 515.857 1.33968 -0.830081 0
M  V30 5412 C 517.082 2.02813 -0.433796 0
M  V30 5413 C 517.507 1.62076 0.954614 0
M  V30 5414 O 516.865 0.808955 1.62252 0
M  V30 5415 C 516.913 3.56348 -0.552115 0
M  V30 5416 O 516.017 4.10202 0.425191 0
M  V30 5417 H 515.358 0.639817 -0.177567 0
M  V30 5418 H 517.888 1.7106 -1.12248 0
M  V30 5419 H 517.898 4.05722 -0.430513 0
M  V30 5420 H 516.573 3.85344 -1.56471 0
M  V30 5421 H 515.15 3.71979 0.261878 0
M  V30 5422 N 517.335 0.585699 1.46312 0
M  V30 5423 C 518.583 0.072278 2.01971 0
M  V30 5424 C 518.904 -1.29345 1.45928 0
M  V30 5425 O 518.174 -1.84973 0.645109 0
M  V30 5426 H 516.754 0.023729 0.746623 0
M  V30 5427 H 519.416 0.762155 1.7938 0
M  V30 5428 H 518.512 0.00552767 3.121 0
M  V30 5429 N 518.813 -1.54241 0.323641 0
M  V30 5430 C 519.745 -2.21836 -0.576311 0
M  V30 5431 C 520.758 -1.21837 -1.07979 0
M  V30 5432 O 521.947 -1.48306 -0.99336 0
M  V30 5433 C 519.047 -2.86923 -1.80356 0
M  V30 5434 C 518.22 -4.1306 -1.43875 0
M  V30 5435 C 517.279 -4.6174 -2.52353 0
M  V30 5436 O 516.305 -5.26421 -2.16494 0
M  V30 5437 N 517.507 -4.35974 -3.83284 0
M  V30 5438 H 520.272 -2.997 0.00247987 0
M  V30 5439 H 517.833 -1.61233 0.146848 0
M  V30 5440 H 519.825 -3.16414 -2.52318 0
M  V30 5441 H 518.395 -2.12765 -2.29019 0
M  V30 5442 H 517.615 -3.90334 -0.550752 0
M  V30 5443 H 518.903 -4.95148 -1.17071 0
M  V30 5444 H 518.301 -3.84203 -4.15216 0
M  V30 5445 H 516.858 -4.70119 -4.51477 0
M  V30 5446 N 520.291 -0.0518155 -1.57515 0
M  V30 5447 C 521.239 0.940195 -2.12751 0
M  V30 5448 C 522.233 1.3218 -1.05948 0
M  V30 5449 O 523.439 1.30138 -1.24355 0
M  V30 5450 H 519.814 0.321066 -0.680015 0
M  V30 5451 H 521.785 0.449217 -2.94999 0
M  V30 5452 C 520.534 2.2055 -2.68799 0
M  V30 5453 H 519.857 1.92066 -3.50643 0
M  V30 5454 H 521.297 2.88119 -3.11068 0
M  V30 5455 C 519.756 2.95061 -1.62605 0
M  V30 5456 O 520.286 3.88025 -1.03921 0
M  V30 5457 N 518.492 2.57804 -1.34111 0
M  V30 5458 H 518.039 1.82281 -1.8202 0
M  V30 5459 H 517.997 3.07964 -0.632872 0
M  V30 5460 N 521.769 1.56035 0.221574 0
M  V30 5461 C 523.017 1.78693 0.944102 0
M  V30 5462 C 523.338 0.620317 1.8487 0
M  V30 5463 O 522.608 -0.362784 1.92512 0
M  V30 5464 H 521.188 0.659082 0.351597 0
M  V30 5465 H 523.85 1.93497 0.233435 0
M  V30 5466 H 522.946 2.70837 1.55093 0
M  V30 5467 N 523.247 -0.488276 1.49845 0
M  V30 5468 C 524.524 -1.24959 1.50481 0
M  V30 5469 C 524.904 -2.09735 0.239698 0
M  V30 5470 O 524.252 -2.14865 -0.777524 0
M  V30 5471 C 524.462 -2.0954 2.79095 0
M  V30 5472 C 525.81 -2.68305 3.29086 0
M  V30 5473 O 526.834 -2.19797 2.80299 0
M  V30 5474 O 525.693 -3.56643 4.14087 0
M  V30 5475 H 522.787 -0.566133 0.602845 0
M  V30 5476 H 525.333 -0.501504 1.6212 0
M  V30 5477 H 524.105 -1.46958 3.62656 0
M  V30 5478 H 523.728 -2.91517 2.70377 0
M  V30 5479 N 524.725 -1.39134 -0.740242 0
M  V30 5480 C 525.635 -1.39697 -1.88473 0
M  V30 5481 C 526.651 -0.292403 -1.71526 0
M  V30 5482 O 527.827 -0.533021 -1.94219 0
M  V30 5483 C 524.892 -1.23382 -3.24003 0
M  V30 5484 C 523.953 -2.43763 -3.53381 0
M  V30 5485 C 523.186 -2.28216 -4.82445 0
M  V30 5486 O 523.409 -1.28288 -5.55786 0
M  V30 5487 O 522.343 -3.1709 -5.11603 0
M  V30 5488 H 526.169 -2.36159 -1.90952 0
M  V30 5489 H 523.754 -1.20194 -0.887346 0
M  V30 5490 H 525.636 -1.16395 -4.05006 0
M  V30 5491 H 524.311 -0.300121 -3.22306 0
M  V30 5492 H 523.218 -2.56325 -2.72485 0
M  V30 5493 H 524.551 -3.35808 -3.59852 0
M  V30 5494 N 526.204 0.969867 -1.24223 0
M  V30 5495 C 527.151 2.06407 -1.0327 0
M  V30 5496 C 528.121 1.66014 0.0533 0
M  V30 5497 O 529.306 1.90533 -0.100896 0
M  V30 5498 C 526.446 3.3909 -0.641262 0
M  V30 5499 C 525.559 3.9269 -1.80051 0
M  V30 5500 C 524.694 5.13631 -1.35486 0
M  V30 5501 C 523.733 5.59423 -2.48419 0
M  V30 5502 N 522.87 6.71586 -2.04737 0
M  V30 5503 H 527.71 2.23663 -1.96923 0
M  V30 5504 H 525.247 1.09624 -0.980862 0
M  V30 5505 H 527.205 4.15323 -0.395351 0
M  V30 5506 H 525.835 3.21765 0.258269 0
M  V30 5507 H 524.887 3.13116 -2.16014 0
M  V30 5508 H 526.199 4.22636 -2.64916 0
M  V30 5509 H 525.353 5.97231 -1.0677 0
M  V30 5510 H 524.092 4.85364 -0.476722 0
M  V30 5511 H 523.097 4.74398 -2.77897 0
M  V30 5512 H 524.322 5.89705 -3.36786 0
M  V30 5513 H 522.268 6.45058 -1.19318 0
M  V30 5514 H 522.185 7.0097 -2.83156 0
M  V30 5515 H 523.453 7.58633 -1.79154 0
M  V30 5516 N 527.682 1.05563 1.17022 0
M  V30 5517 C 528.614 0.617888 2.20714 0
M  V30 5518 C 529.627 -0.320303 1.59618 0
M  V30 5519 O 530.816 -0.112449 1.78145 0
M  V30 5520 C 527.916 -0.115333 3.38704 0
M  V30 5521 C 527.089 0.834493 4.29366 0
M  V30 5522 C 526.148 0.141855 5.26009 0
M  V30 5523 O 525.174 0.777151 5.6387 0
M  V30 5524 N 526.376 -1.11934 5.69606 0
M  V30 5525 H 529.141 1.50981 2.58892 0
M  V30 5526 H 526.702 0.938008 1.31958 0
M  V30 5527 H 528.694 -0.588918 4.00392 0
M  V30 5528 H 527.264 -0.908967 2.99093 0
M  V30 5529 H 526.484 1.48762 3.65053 0
M  V30 5530 H 527.772 1.4791 4.86827 0
M  V30 5531 H 527.17 -1.65574 5.40927 0
M  V30 5532 H 525.727 -1.53692 6.33421 0
M  V30 5533 N 529.16 -1.33526 0.837174 0
M  V30 5534 C 530.108 -2.31168 0.257698 0
M  V30 5535 C 531.102 -1.5806 -0.609388 0
M  V30 5536 O 532.308 -1.72941 -0.499139 0
M  V30 5537 H 528.683 -0.74922 0.0646058 0
M  V30 5538 H 530.654 -2.77552 1.09578 0
M  V30 5539 C 529.403 -3.4326 -0.553887 0
M  V30 5540 H 528.726 -3.99665 0.104008 0
M  V30 5541 H 530.166 -4.13782 -0.925219 0
M  V30 5542 C 528.625 -2.88965 -1.73207 0
M  V30 5543 O 529.155 -2.85013 -2.83073 0
M  V30 5544 N 527.361 -2.45596 -1.55342 0
M  V30 5545 H 526.908 -2.49009 -0.659705 0
M  V30 5546 H 526.866 -2.0962 -2.34322 0
M  V30 5547 N 530.638 -0.59345 -1.46 0
M  V30 5548 C 531.887 -0.0808084 -2.01538 0
M  V30 5549 C 532.2 1.29112 -1.46934 0
M  V30 5550 O 533.406 1.8957 -1.94359 0
M  V30 5551 C 531.862 -0.0938311 -3.59778 0
M  V30 5552 C 531.47 -1.46474 -4.23379 0
M  V30 5553 C 533.214 0.364306 -4.22934 0
M  V30 5554 C 531.121 -1.4349 -5.73729 0
M  V30 5555 H 530.051 -0.0264407 -0.753536 0
M  V30 5556 H 532.702 -0.746689 -1.67621 0
M  V30 5557 H 531.084 0.638427 -3.9082 0
M  V30 5558 H 532.258 -2.21758 -4.03931 0
M  V30 5559 H 530.573 -1.86379 -3.7236 0
M  V30 5560 H 533.17 0.405584 -5.3316 0
M  V30 5561 H 533.513 1.38409 -3.92618 0
M  V30 5562 H 534.046 -0.31423 -3.96557 0
M  V30 5563 H 530.785 -2.43184 -6.08722 0
M  V30 5564 H 530.305 -0.724431 -5.95409 0
M  V30 5565 H 531.984 -1.15243 -6.36654 0
M  V30 5566 N 532.116 1.54067 -0.331816 0
M  V30 5567 C 533.362 2.01012 0.268667 0
M  V30 5568 C 533.695 1.2195 1.51136 0
M  V30 5569 O 532.97 0.303972 1.9211 0
M  V30 5570 C 533.253 3.55158 0.59456 0
M  V30 5571 C 533.106 4.4494 -0.659409 0
M  V30 5572 C 534.425 4.16939 1.4089 0
M  V30 5573 H 531.544 0.730698 0.0961756 0
M  V30 5574 H 534.186 1.84593 -0.450031 0
M  V30 5575 H 532.336 3.6928 1.20685 0
M  V30 5576 H 534.008 4.42675 -1.29756 0
M  V30 5577 H 532.251 4.1428 -1.28665 0
M  V30 5578 H 532.922 5.50643 -0.386804 0
M  V30 5579 H 535.398 4.06443 0.891272 0
M  V30 5580 H 534.274 5.24889 1.60569 0
M  V30 5581 H 534.535 3.70798 2.40752 0
M  V30 5582 N 533.594 0.0601682 1.57485 0
M  V30 5583 C 534.557 -0.896373 2.10945 0
M  V30 5584 C 535.557 -1.23402 1.03095 0
M  V30 5585 O 536.747 -1.16921 1.29132 0
M  V30 5586 C 533.879 -2.20346 2.60116 0
M  V30 5587 H 535.072 -0.432778 2.96761 0
M  V30 5588 H 532.625 -0.188372 1.55161 0
M  V30 5589 H 533.36 -2.71268 1.7772 0
M  V30 5590 H 533.145 -1.9714 3.38937 0
M  V30 5591 H 534.635 -2.88846 3.01592 0
M  V30 5592 N 535.072 -1.5615 -0.213296 0
M  V30 5593 C 536.488 -1.49327 -0.56336 0
M  V30 5594 C 536.688 -0.756826 -1.86747 0
M  V30 5595 O 535.744 -0.299866 -2.50713 0
M  V30 5596 C 537.057 -2.9392 -0.634944 0
M  V30 5597 C 538.605 -3.04487 -0.725013 0
M  V30 5598 C 539.08 -4.50456 -0.82787 0
M  V30 5599 N 540.571 -4.54533 -0.891876 0
M  V30 5600 C 541.306 -5.64766 -0.991315 0
M  V30 5601 N 540.802 -6.84733 -1.05419 0
M  V30 5602 N 542.595 -5.52637 -1.02709 0
M  V30 5603 H 534.746 -2.02453 0.642366 0
M  V30 5604 H 537.009 -0.920548 0.226487 0
M  V30 5605 H 536.715 -3.50783 0.253859 0
M  V30 5606 H 536.589 -3.46274 -1.49579 0
M  V30 5607 H 538.976 -2.47685 -1.60425 0
M  V30 5608 H 539.057 -2.55289 0.161669 0
M  V30 5609 H 538.701 -5.07878 0.0469464 0
M  V30 5610 H 538.631 -4.97369 -1.73009 0
M  V30 5611 H 541.122 -3.68141 -0.85327 0
M  V30 5612 H 541.435 -7.64493 -1.13007 0
M  V30 5613 H 539.78 -6.87427 -1.02318 0
M  V30 5614 H 542.971 -4.5784 -0.974687 0
M  V30 5615 H 543.144 -6.38576 -1.10113 0
M  V30 5616 N 536.55 0.480323 -1.50102 0
M  V30 5617 C 537.497 1.57946 -1.6829 0
M  V30 5618 C 538.467 1.57611 -0.524223 0
M  V30 5619 O 539.652 1.75282 -0.753709 0
M  V30 5620 C 536.792 2.95978 -1.77457 0
M  V30 5621 C 535.905 3.06173 -3.04766 0
M  V30 5622 C 535.04 4.35063 -3.04784 0
M  V30 5623 C 534.079 4.38966 -4.26586 0
M  V30 5624 N 533.216 5.59314 -4.24396 0
M  V30 5625 H 538.056 1.41743 -2.62131 0
M  V30 5626 H 535.593 0.689304 -1.2995 0
M  V30 5627 H 537.551 3.76011 -1.80752 0
M  V30 5628 H 536.181 3.10837 -0.870637 0
M  V30 5629 H 535.233 2.19071 -3.10986 0
M  V30 5630 H 536.545 3.04916 -3.9475 0
M  V30 5631 H 535.699 5.23436 -3.06757 0
M  V30 5632 H 534.438 4.38915 -2.12614 0
M  V30 5633 H 533.443 3.48992 -4.24835 0
M  V30 5634 H 534.668 4.36813 -5.19972 0
M  V30 5635 H 532.614 5.63969 -3.35074 0
M  V30 5636 H 532.531 5.5976 -5.08138 0
M  V30 5637 H 533.799 6.49837 -4.30502 0
M  V30 5638 N 538.028 1.39524 0.732853 0
M  V30 5639 C 539.277 1.36175 1.48792 0
M  V30 5640 C 539.59 -0.0388195 1.95561 0
M  V30 5641 O 540.796 -0.194899 2.708 0
M  V30 5642 C 539.252 2.39242 2.68871 0
M  V30 5643 C 538.86 3.85024 2.29042 0
M  V30 5644 C 540.604 2.44972 3.46683 0
M  V30 5645 C 538.511 4.79727 3.45856 0
M  V30 5646 H 537.441 0.506267 0.558757 0
M  V30 5647 H 540.092 1.65181 0.799226 0
M  V30 5648 H 538.474 2.0331 3.39825 0
M  V30 5649 H 539.648 4.30008 1.6562 0
M  V30 5650 H 537.963 3.82609 1.64316 0
M  V30 5651 H 540.56 3.12918 4.33574 0
M  V30 5652 H 540.903 1.4749 3.89297 0
M  V30 5653 H 541.436 2.79808 2.82759 0
M  V30 5654 H 538.175 5.78479 3.08289 0
M  V30 5655 H 537.695 4.39421 4.08251 0
M  V30 5656 H 539.374 4.98731 4.12161 0
M  V30 5657 N 539.506 -0.963266 1.24736 0
M  V30 5658 C 540.752 -1.70933 1.09131 0
M  V30 5659 C 541.085 -1.90676 -0.368273 0
M  V30 5660 O 540.36 -1.47147 -1.27193 0
M  V30 5661 C 540.643 -3.09744 1.83658 0
M  V30 5662 C 540.496 -2.97465 3.37394 0
M  V30 5663 C 541.815 -4.09483 1.61282 0
M  V30 5664 H 538.934 -0.620398 0.397838 0
M  V30 5665 H 541.576 -1.12028 1.53459 0
M  V30 5666 H 539.726 -3.60031 1.4598 0
M  V30 5667 H 541.398 -2.54571 3.84696 0
M  V30 5668 H 539.641 -2.33576 3.65547 0
M  V30 5669 H 540.312 -3.95822 3.84745 0
M  V30 5670 H 542.788 -3.68073 1.94066 0
M  V30 5671 H 541.664 -5.04666 2.15878 0
M  V30 5672 H 541.925 -4.38639 0.552102 0
M  V30 5673 N 540.985 -1.06182 -1.16461 0
M  V30 5674 C 541.932 -0.671613 -2.20812 0
M  V30 5675 C 542.902 0.331186 -1.62765 0
M  V30 5676 O 544.087 0.22033 -1.89524 0
M  V30 5677 C 541.227 -0.063029 -3.45042 0
M  V30 5678 C 540.34 -1.11587 -4.1734 0
M  V30 5679 C 539.475 -0.473546 -5.29085 0
M  V30 5680 C 538.514 -1.51 -5.93182 0
M  V30 5681 N 537.651 -0.891118 -6.96422 0
M  V30 5682 H 542.491 -1.56589 -2.53542 0
M  V30 5683 H 540.028 -0.782951 -1.24532 0
M  V30 5684 H 541.986 0.307344 -4.16066 0
M  V30 5685 H 540.616 0.794663 -3.12866 0
M  V30 5686 H 539.668 -1.60396 -3.44931 0
M  V30 5687 H 540.98 -1.90221 -4.61104 0
M  V30 5688 H 540.134 -0.0501432 -6.06679 0
M  V30 5689 H 538.873 0.344687 -4.8648 0
M  V30 5690 H 537.878 -1.94331 -5.14311 0
M  V30 5691 H 539.103 -2.33031 -6.37866 0
M  V30 5692 H 537.049 -0.0935753 -6.55933 0
M  V30 5693 H 536.966 -1.61486 -7.38551 0
M  V30 5694 H 538.234 -0.492822 -7.77941 0
M  V30 5695 N 542.463 1.3308 -0.844243 0
M  V30 5696 C 543.396 2.27075 -0.226279 0
M  V30 5697 C 544.374 1.49911 0.629716 0
M  V30 5698 O 545.558 1.79068 0.588803 0
M  V30 5699 C 542.685 3.31767 0.681782 0
M  V30 5700 C 541.731 4.26384 -0.0994565 0
M  V30 5701 S 542.564 5.15186 -1.46094 0
M  V30 5702 C 543.72 6.23405 -0.558319 0
M  V30 5703 H 543.953 2.79141 -1.02312 0
M  V30 5704 H 541.486 1.40452 -0.641292 0
M  V30 5705 H 543.444 3.92566 1.20008 0
M  V30 5706 H 542.105 2.78507 1.45234 0
M  V30 5707 H 541.298 5.00514 0.591733 0
M  V30 5708 H 540.9 3.69949 -0.548991 0
M  V30 5709 H 543.192 6.77069 0.241672 0
M  V30 5710 H 544.135 6.96619 -1.26995 0
M  V30 5711 H 544.543 5.64333 -0.13728 0
M  V30 5712 N 543.941 0.601185 1.45683 0
M  V30 5713 C 545.169 0.100054 2.06658 0
M  V30 5714 C 545.584 -1.21285 1.44691 0
M  V30 5715 O 544.941 -1.73735 0.558772 0
M  V30 5716 C 544.992 -0.0528579 3.61461 0
M  V30 5717 O 544.713 1.20809 4.21114 0
M  V30 5718 C 546.214 -0.586193 4.39407 0
M  V30 5719 H 543.434 0.065905 0.667756 0
M  V30 5720 H 545.978 0.827101 1.87028 0
M  V30 5721 H 544.133 -0.730203 3.80456 0
M  V30 5722 H 544.547 1.03368 5.14213 0
M  V30 5723 H 546.021 -0.642297 5.4825 0
M  V30 5724 H 546.498 -1.60713 4.0874 0
M  V30 5725 H 547.104 0.0568935 4.25262 0
M  V30 5726 N 545.419 -1.53889 0.339982 0
M  V30 5727 C 546.366 -2.24902 -0.518452 0
M  V30 5728 C 547.336 -1.24593 -1.09844 0
M  V30 5729 O 548.521 -1.53317 -1.13572 0
M  V30 5730 C 545.661 -3.02262 -1.66529 0
M  V30 5731 C 544.774 -4.17418 -1.11295 0
M  V30 5732 C 543.909 -4.82273 -2.2268 0
M  V30 5733 C 542.948 -5.89503 -1.6478 0
M  V30 5734 N 542.085 -6.48153 -2.69893 0
M  V30 5735 H 546.925 -2.97853 0.0936579 0
M  V30 5736 H 544.462 -1.46986 0.0579924 0
M  V30 5737 H 546.42 -3.45371 -2.3404 0
M  V30 5738 H 545.05 -2.31614 -2.24844 0
M  V30 5739 H 544.102 -3.78976 -0.328886 0
M  V30 5740 H 545.414 -4.94554 -0.649414 0
M  V30 5741 H 544.568 -5.28435 -2.98063 0
M  V30 5742 H 543.307 -4.04552 -2.72376 0
M  V30 5743 H 542.312 -5.42728 -0.879004 0
M  V30 5744 H 543.537 -6.6913 -1.1594 0
M  V30 5745 H 541.483 -5.73298 -3.1885 0
M  V30 5746 H 541.4 -7.20752 -2.28151 0
M  V30 5747 H 542.668 -6.98968 -3.45056 0
M  V30 5748 N 546.897 -0.0685191 -1.57451 0
M  V30 5749 C 547.829 0.929372 -2.09512 0
M  V30 5750 C 548.842 1.26354 -1.02657 0
M  V30 5751 O 550.031 1.2213 -1.30179 0
M  V30 5752 C 547.131 2.24612 -2.53777 0
M  V30 5753 C 546.304 2.09128 -3.84167 0
M  V30 5754 C 545.363 3.24079 -4.14559 0
M  V30 5755 O 544.389 2.99215 -4.8421 0
M  V30 5756 N 545.591 4.49077 -3.67845 0
M  V30 5757 H 548.356 0.484901 -2.95751 0
M  V30 5758 H 545.917 0.11729 -1.61475 0
M  V30 5759 H 547.909 3.00412 -2.71172 0
M  V30 5760 H 546.479 2.60569 -1.72692 0
M  V30 5761 H 545.699 1.17815 -3.76182 0
M  V30 5762 H 546.987 1.9603 -4.69521 0
M  V30 5763 H 546.385 4.72165 -3.11571 0
M  V30 5764 H 544.942 5.21915 -3.90446 0
M  V30 5765 N 548.375 1.56261 0.205012 0
M  V30 5766 C 549.786 1.70056 0.770574 0
M  V30 5767 C 550.137 0.673398 1.84282 0
M  V30 5768 O 549.262 -0.172196 2.15714 0
M  V30 5769 C 549.857 3.08316 1.40451 0
M  V30 5770 C 548.416 3.2391 1.91727 0
M  V30 5771 C 547.563 2.66001 0.783516 0
M  V30 5772 H 550.514 1.58688 -0.019911 0
M  V30 5773 H 550.535 3.05094 2.27371 0
M  V30 5774 H 550.047 3.83053 0.623882 0
M  V30 5775 H 548.148 2.54072 2.7254 0
M  V30 5776 H 548.261 4.3131 2.08588 0
M  V30 5777 H 546.625 2.24915 1.19521 0
M  V30 5778 H 547.408 3.43297 0.0152883 0
M  V30 5779 N 549.853 -0.472356 1.50355 0
M  V30 5780 C 550.816 -1.5529 1.68576 0
M  V30 5781 C 551.816 -1.50863 0.556511 0
M  V30 5782 O 553.006 -1.53505 0.823516 0
M  V30 5783 C 550.138 -2.94921 1.70981 0
M  V30 5784 H 551.331 -1.40451 2.64978 0
M  V30 5785 H 548.884 -0.698645 1.39816 0
M  V30 5786 H 549.619 -3.15204 0.762675 0
M  V30 5787 H 549.404 -2.99541 2.53017 0
M  V30 5788 H 550.894 -3.73372 1.87037 0
M  V30 5789 N 551.331 -1.39911 -0.725443 0
M  V30 5790 C 552.278 -1.39393 -1.83952 0
M  V30 5791 C 553.248 -0.252249 -1.64173 0
M  V30 5792 O 554.433 -0.44882 -1.85446 0
M  V30 5793 C 551.573 -1.25262 -3.21564 0
M  V30 5794 C 550.686 -2.49054 -3.52982 0
M  V30 5795 C 549.821 -2.27439 -4.80047 0
M  V30 5796 C 548.86 -3.46857 -5.04338 0
M  V30 5797 N 547.997 -3.24499 -6.22611 0
M  V30 5798 H 552.837 -2.34622 -1.83729 0
M  V30 5799 H 550.374 -1.16537 -0.897636 0
M  V30 5800 H 552.332 -1.15077 -4.01015 0
M  V30 5801 H 550.962 -0.33657 -3.21041 0
M  V30 5802 H 550.014 -2.69805 -2.6816 0
M  V30 5803 H 551.326 -3.37973 -3.66846 0
M  V30 5804 H 550.48 -2.14551 -5.67497 0
M  V30 5805 H 549.219 -1.35929 -4.68374 0
M  V30 5806 H 548.224 -3.60232 -4.15346 0
M  V30 5807 H 549.449 -4.3928 -5.17889 0
M  V30 5808 H 547.395 -2.35663 -6.12208 0
M  V30 5809 H 547.312 -4.06978 -6.37106 0
M  V30 5810 H 548.58 -3.15325 -7.12875 0
M  V30 5811 N 552.809 0.956637 -1.25245 0
M  V30 5812 C 553.756 2.053 -1.05454 0
M  V30 5813 C 554.726 1.66062 0.0356889 0
M  V30 5814 O 555.911 1.90415 -0.121099 0
M  V30 5815 C 553.051 3.38391 -0.677191 0
M  V30 5816 C 552.164 3.90758 -1.84206 0
M  V30 5817 C 551.299 5.12165 -1.40926 0
M  V30 5818 C 550.338 5.56757 -2.54338 0
M  V30 5819 N 549.475 6.69376 -2.11848 0
M  V30 5820 H 554.315 2.21562 -1.99284 0
M  V30 5821 H 551.852 1.08578 -0.992434 0
M  V30 5822 H 553.81 4.1488 -0.43938 0
M  V30 5823 H 552.44 3.22021 0.224127 0
M  V30 5824 H 551.492 3.10808 -2.19323 0
M  V30 5825 H 552.804 4.19802 -2.69383 0
M  V30 5826 H 551.958 5.96065 -1.13098 0
M  V30 5827 H 550.697 4.84832 -0.528175 0
M  V30 5828 H 549.702 4.71423 -2.82913 0
M  V30 5829 H 550.927 5.861 -3.43022 0
M  V30 5830 H 548.873 6.43756 -1.26153 0
M  V30 5831 H 548.79 6.97927 -2.90574 0
M  V30 5832 H 550.058 7.5669 -1.87191 0
M  V30 5833 N 554.287 1.06798 1.15896 0
M  V30 5834 C 555.234 0.683314 2.20453 0
M  V30 5835 C 556.204 -0.32255 1.62938 0
M  V30 5836 O 557.389 -0.210276 1.89638 0
M  V30 5837 C 554.529 0.0813266 3.45004 0
M  V30 5838 C 553.642 1.13799 4.16742 0
M  V30 5839 C 552.777 0.501598 5.28826 0
M  V30 5840 C 551.816 1.54144 5.92373 0
M  V30 5841 N 550.953 0.928038 6.9594 0
M  V30 5842 H 555.793 1.57932 2.52708 0
M  V30 5843 H 553.33 0.789544 1.24115 0
M  V30 5844 H 555.288 -0.285274 4.16224 0
M  V30 5845 H 553.918 -0.77806 3.13283 0
M  V30 5846 H 552.97 1.62223 3.44075 0
M  V30 5847 H 554.282 1.92664 4.60089 0
M  V30 5848 H 553.436 0.0823162 6.06644 0
M  V30 5849 H 552.175 -0.318883 4.86656 0
M  V30 5850 H 551.18 1.97056 5.13273 0
M  V30 5851 H 552.405 2.3641 6.36621 0
M  V30 5852 H 550.351 0.12836 6.55874 0
M  V30 5853 H 550.268 1.65401 7.37685 0
M  V30 5854 H 551.536 0.534071 7.77668 0
M  V30 5855 N 555.766 -1.3263 0.851289 0
M  V30 5856 C 557.177 -1.79653 0.5081 0
M  V30 5857 C 557.528 -1.70327 -0.973815 0
M  V30 5858 O 556.653 -1.25986 -1.75944 0
M  V30 5859 C 557.248 -3.26196 0.915515 0
M  V30 5860 C 555.807 -3.71187 0.624277 0
M  V30 5861 C 554.954 -2.53804 1.11709 0
M  V30 5862 H 557.905 -1.19976 1.03882 0
M  V30 5863 H 557.926 -3.79801 0.230535 0
M  V30 5864 H 557.438 -3.32952 1.99411 0
M  V30 5865 H 555.539 -3.69948 -0.443737 0
M  V30 5866 H 555.652 -4.64132 1.18821 0
M  V30 5867 H 554.016 -2.48964 0.537484 0
M  V30 5868 H 554.799 -2.63315 2.20272 0
M  V30 5869 N 557.244 -0.608902 -1.45362 0
M  V30 5870 C 558.655 -0.189511 -1.85736 0
M  V30 5871 C 559.006 1.2539 -1.50903 0
M  V30 5872 O 558.131 1.95094 -0.936347 0
M  V30 5873 C 558.726 -0.33716 -3.37118 0
M  V30 5874 C 557.285 0.0275487 -3.7639 0
M  V30 5875 C 556.432 -0.660983 -2.69307 0
M  V30 5876 H 559.383 -0.815499 -1.36144 0
M  V30 5877 H 559.404 0.430257 -3.7806 0
M  V30 5878 H 558.916 -1.38779 -3.62439 0
M  V30 5879 H 557.017 1.0773 -3.56686 0
M  V30 5880 H 557.13 -0.367018 -4.77692 0
M  V30 5881 H 555.494 -0.0984958 -2.54509 0
M  V30 5882 H 556.277 -1.71377 -2.97464 0
M  V30 5883 N 558.722 1.53707 -0.348139 0
M  V30 5884 C 560.133 1.86213 0.134797 0
M  V30 5885 C 560.484 1.26925 1.49614 0
M  V30 5886 O 559.609 0.584573 2.08355 0
M  V30 5887 C 560.204 3.37866 0.251371 0
M  V30 5888 C 558.763 3.70233 0.678543 0
M  V30 5889 C 557.91 2.76683 -0.184925 0
M  V30 5890 H 560.861 1.48204 -0.567571 0
M  V30 5891 H 560.882 3.64908 1.07806 0
M  V30 5892 H 560.394 3.80988 -0.739581 0
M  V30 5893 H 558.495 3.32659 1.67835 0
M  V30 5894 H 558.608 4.76836 0.465251 0
M  V30 5895 H 556.972 2.52374 0.343465 0
M  V30 5896 H 557.755 3.22635 -1.1731 0
M  V30 5897 N 560.2 0.0768682 1.57412 0
M  V30 5898 C 561.425 -0.603404 1.98428 0
M  V30 5899 C 561.85 -1.62047 0.955108 0
M  V30 5900 O 561.208 -1.81129 -0.0786778 0
M  V30 5901 C 561.256 -1.24396 3.38464 0
M  V30 5902 O 560.36 -2.35982 3.3821 0
M  V30 5903 H 559.701 -0.154741 0.645718 0
M  V30 5904 H 562.231 0.152885 2.04028 0
M  V30 5905 H 562.241 -1.5896 3.7576 0
M  V30 5906 H 560.916 -0.498735 4.12899 0
M  V30 5907 H 559.493 -2.03173 3.1269 0
M  V30 5908 N 561.678 -1.56367 -0.196722 0
M  V30 5909 C 563.094 -1.49916 -0.54749 0
M  V30 5910 C 563.294 -0.77659 -1.85934 0
M  V30 5911 O 562.35 -0.32644 -2.50381 0
M  V30 5912 C 563.663 -2.94577 -0.603734 0
M  V30 5913 C 565.211 -3.05239 -0.692677 0
M  V30 5914 C 565.686 -4.51308 -0.780046 0
M  V30 5915 N 567.177 -4.55453 -0.843616 0
M  V30 5916 C 567.912 -5.65786 -0.931358 0
M  V30 5917 N 567.408 -6.85812 -0.981503 0
M  V30 5918 N 569.201 -5.53695 -0.968421 0
M  V30 5919 H 561.352 -2.01761 0.663803 0
M  V30 5920 H 563.615 -0.918094 0.236238 0
M  V30 5921 H 563.321 -3.50494 0.29105 0
M  V30 5922 H 563.195 -3.47841 -1.45898 0
M  V30 5923 H 565.582 -2.49372 -1.57789 0
M  V30 5924 H 565.663 -2.55103 0.188736 0
M  V30 5925 H 565.307 -5.078 0.100811 0
M  V30 5926 H 565.237 -4.99176 -1.67724 0
M  V30 5927 H 567.728 -3.69025 -0.814176 0
M  V30 5928 H 568.041 -7.65648 -1.04892 0
M  V30 5929 H 566.386 -6.88474 -0.950208 0
M  V30 5930 H 569.577 -4.58848 -0.926072 0
M  V30 5931 H 569.75 -6.39708 -1.03334 0
M  V30 5932 N 563.156 0.464375 -1.50603 0
M  V30 5933 C 564.066 1.58723 -1.72754 0
M  V30 5934 C 565.082 1.62925 -0.610844 0
M  V30 5935 O 566.258 1.8067 -0.889963 0
M  V30 5936 C 563.323 2.94897 -1.82309 0
M  V30 5937 C 562.384 3.0103 -3.06071 0
M  V30 5938 C 561.617 4.30708 -3.1516 0
M  V30 5939 O 561.84 5.2159 -2.30868 0
M  V30 5940 O 560.774 4.42571 -4.0794 0
M  V30 5941 H 564.6 1.42954 -2.67951 0
M  V30 5942 H 562.185 0.644579 -1.3478 0
M  V30 5943 H 564.067 3.75764 -1.90735 0
M  V30 5944 H 562.742 3.10851 -0.902967 0
M  V30 5945 H 561.649 2.19217 -3.03142 0
M  V30 5946 H 562.982 2.90014 -3.97684 0
M  V30 5947 N 564.634 1.40294 0.718013 0
M  V30 5948 C 565.581 1.40367 1.8321 0
M  V30 5949 C 566.551 0.260952 1.64037 0
M  V30 5950 O 567.736 0.458648 1.85205 0
M  V30 5951 C 564.876 1.26965 3.20895 0
M  V30 5952 C 563.989 2.50922 3.51656 0
M  V30 5953 C 563.124 2.29981 4.78834 0
M  V30 5954 C 562.163 3.49527 5.02491 0
M  V30 5955 N 561.3 3.27796 6.20882 0
M  V30 5956 H 566.14 2.35593 1.82482 0
M  V30 5957 H 563.677 1.17012 0.891444 0
M  V30 5958 H 565.635 1.17202 4.00399 0
M  V30 5959 H 564.265 0.353591 3.20858 0
M  V30 5960 H 563.317 2.71223 2.66725 0
M  V30 5961 H 564.629 3.39913 3.65048 0
M  V30 5962 H 563.783 2.17558 5.66351 0
M  V30 5963 H 562.522 1.38411 4.67647 0
M  V30 5964 H 561.527 3.6243 4.1343 0
M  V30 5965 H 562.752 4.42021 5.15553 0
M  V30 5966 H 560.698 2.38906 6.1095 0
M  V30 5967 H 560.615 4.10351 6.34939 0
M  V30 5968 H 561.883 3.19101 7.11193 0
M  V30 5969 N 566.112 -0.949982 1.2575 0
M  V30 5970 C 567.059 -2.04738 1.06541 0
M  V30 5971 C 568.029 -1.66078 -0.0268818 0
M  V30 5972 O 569.214 -1.90348 0.131196 0
M  V30 5973 C 566.354 -3.38027 0.695127 0
M  V30 5974 C 565.467 -3.89776 1.86276 0
M  V30 5975 C 564.602 -5.11411 1.4364 0
M  V30 5976 C 563.641 -5.554 2.57287 0
M  V30 5977 N 562.778 -6.68244 2.15395 0
M  V30 5978 H 567.618 -2.20502 2.00457 0
M  V30 5979 H 565.155 -1.0805 0.998178 0
M  V30 5980 H 567.113 -4.14641 0.461375 0
M  V30 5981 H 565.743 -3.22135 -0.207046 0
M  V30 5982 H 564.795 -3.0964 2.20969 0
M  V30 5983 H 566.107 -4.18368 2.71606 0
M  V30 5984 H 565.261 -5.95457 1.16257 0
M  V30 5985 H 564 -4.84545 0.553879 0
M  V30 5986 H 563.005 -4.69916 2.85409 0
M  V30 5987 H 564.23 -5.84272 3.46125 0
M  V30 5988 H 562.176 -6.43078 1.29565 0
M  V30 5989 H 562.093 -6.96377 2.94272 0
M  V30 5990 H 563.361 -7.55687 1.91201 0
M  V30 5991 N 567.59 -1.07411 -1.15328 0
M  V30 5992 C 568.836 -0.798831 -1.86404 0
M  V30 5993 C 569.169 0.673433 -1.8215 0
M  V30 5994 O 568.444 1.49428 -1.24505 0
M  V30 5995 C 568.727 -1.30846 -3.35487 0
M  V30 5996 C 568.58 -2.84532 -3.4837 0
M  V30 5997 C 569.899 -0.925486 -4.30259 0
M  V30 5998 H 567.018 -0.291659 -0.676834 0
M  V30 5999 H 569.66 -1.332 -1.35491 0
M  V30 6000 H 567.81 -0.854916 -3.78977 0
M  V30 6001 H 569.482 -3.3818 -3.13739 0
M  V30 6002 H 567.725 -3.22699 -2.8991 0
M  V30 6003 H 568.396 -3.15259 -4.53118 0
M  V30 6004 H 570.872 -1.3163 -3.94731 0
M  V30 6005 H 569.748 -1.3094 -5.33053 0
M  V30 6006 H 570.009 0.168525 -4.41779 0
M  V30 6007 N 569.068 1.32177 -0.85831 0
M  V30 6008 C 570.296 2.01313 -0.477582 0
M  V30 6009 C 570.711 1.6449 0.926736 0
M  V30 6010 O 570.068 0.868096 1.60531 0
M  V30 6011 C 570.119 3.56293 -0.611337 0
M  V30 6012 O 569.84 3.91794 -1.96034 0
M  V30 6013 C 571.341 4.42702 -0.230093 0
M  V30 6014 H 568.561 0.644323 -0.187322 0
M  V30 6015 H 571.105 1.68674 -1.15626 0
M  V30 6016 H 569.26 3.87395 0.0196494 0
M  V30 6017 H 569.674 4.86513 -1.95973 0
M  V30 6018 H 571.148 5.50727 -0.374674 0
M  V30 6019 H 571.625 4.3129 0.829779 0
M  V30 6020 H 572.231 4.16997 -0.836302 0
M  V30 6021 N 570.547 0.616602 1.45037 0
M  V30 6022 C 571.963 0.280994 1.57107 0
M  V30 6023 C 572.163 -1.21627 1.60653 0
M  V30 6024 O 571.219 -1.9997 1.54169 0
M  V30 6025 C 572.532 0.960116 2.8496 0
M  V30 6026 C 574.08 0.936884 2.98649 0
M  V30 6027 C 574.555 1.59619 4.29285 0
M  V30 6028 N 576.046 1.5621 4.36065 0
M  V30 6029 C 576.781 2.04131 5.35834 0
M  V30 6030 N 576.277 2.60177 6.4209 0
M  V30 6031 N 578.07 1.94845 5.27249 0
M  V30 6032 H 570.221 1.58867 1.40979 0
M  V30 6033 H 572.484 0.666024 0.674623 0
M  V30 6034 H 572.19 2.01473 2.88273 0
M  V30 6035 H 572.064 0.488921 3.74018 0
M  V30 6036 H 574.451 -0.109209 2.94898 0
M  V30 6037 H 574.532 1.44643 2.10979 0
M  V30 6038 H 574.176 2.64166 4.33796 0
M  V30 6039 H 574.106 1.06159 5.15789 0
M  V30 6040 H 576.597 1.15276 3.59889 0
M  V30 6041 H 576.91 2.94513 7.1448 0
M  V30 6042 H 575.255 2.64221 6.42816 0
M  V30 6043 H 578.446 1.50792 4.43147 0
M  V30 6044 H 578.619 2.32504 6.04852 0
M  V30 6045 N 572.025 -1.5352 0.356285 0
M  V30 6046 C 573.253 -2.05534 -0.237328 0
M  V30 6047 C 573.668 -1.23043 -1.43199 0
M  V30 6048 O 573.025 -0.268821 -1.80509 0
M  V30 6049 C 573.076 -3.55791 -0.639933 0
M  V30 6050 O 572.797 -4.35154 0.507233 0
M  V30 6051 C 574.298 -4.24027 -1.29292 0
M  V30 6052 H 571.518 -0.669585 -0.0435572 0
M  V30 6053 H 574.062 -1.97988 0.511963 0
M  V30 6054 H 572.217 -3.63518 -1.33915 0
M  V30 6055 H 572.631 -5.24178 0.18375 0
M  V30 6056 H 574.105 -5.30509 -1.52527 0
M  V30 6057 H 574.582 -3.77166 -2.25039 0
M  V30 6058 H 575.188 -4.20527 -0.63539 0
M  V30 6059 N 573.503 -0.0852151 -1.57369 0
M  V30 6060 C 574.752 0.580443 -1.93168 0
M  V30 6061 C 575.065 1.6995 -0.968319 0
M  V30 6062 O 576.271 2.42564 -1.21963 0
M  V30 6063 C 574.727 1.08386 -3.43192 0
M  V30 6064 C 574.335 -0.00491388 -4.48 0
M  V30 6065 C 576.079 1.72281 -3.87968 0
M  V30 6066 C 573.986 0.513299 -5.89168 0
M  V30 6067 H 572.916 0.22059 -0.72101 0
M  V30 6068 H 575.567 -0.159621 -1.82804 0
M  V30 6069 H 573.949 1.8773 -3.48674 0
M  V30 6070 H 575.123 -0.780032 -4.5415 0
M  V30 6071 H 573.438 -0.548453 -4.12772 0
M  V30 6072 H 576.035 2.12108 -4.9083 0
M  V30 6073 H 576.378 2.58811 -3.26071 0
M  V30 6074 H 576.911 0.995359 -3.85146 0
M  V30 6075 H 573.65 -0.315153 -6.54742 0
M  V30 6076 H 573.17 1.25564 -5.8651 0
M  V30 6077 H 574.849 0.985433 -6.39451 0
M  V30 6078 N 574.981 1.5647 0.188427 0
M  V30 6079 C 575.911 1.98101 1.23606 0
M  V30 6080 C 576.892 0.853961 1.47111 0
M  V30 6081 O 578.077 1.11879 1.58735 0
M  V30 6082 C 575.207 2.32624 2.57882 0
M  V30 6083 C 574.161 3.48129 2.48978 0
M  V30 6084 C 573.487 3.68347 3.87588 0
M  V30 6085 C 574.787 4.82112 2.00911 0
M  V30 6086 H 576.481 2.85864 0.890068 0
M  V30 6087 H 574.027 1.37532 0.426714 0
M  V30 6088 H 575.98 2.60343 3.3136 0
M  V30 6089 H 574.704 1.41751 2.94235 0
M  V30 6090 H 573.363 3.20511 1.77956 0
M  V30 6091 H 573.011 2.74793 4.21305 0
M  V30 6092 H 572.711 4.46055 3.82503 0
M  V30 6093 H 574.235 3.98449 4.62678 0
M  V30 6094 H 575.649 5.08819 2.64151 0
M  V30 6095 H 574.046 5.63337 2.06814 0
M  V30 6096 H 575.116 4.75249 0.96262 0
M  V30 6097 N 576.459 -0.456382 1.50847 0
M  V30 6098 C 577.422 -1.53493 1.70213 0
M  V30 6099 C 578.422 -1.50264 0.572481 0
M  V30 6100 O 579.612 -1.52623 0.839751 0
M  V30 6101 C 576.744 -2.93091 1.741 0
M  V30 6102 H 577.937 -1.37633 2.66453 0
M  V30 6103 H 575.49 -0.683776 1.4055 0
M  V30 6104 H 576.225 -3.14378 0.796063 0
M  V30 6105 H 576.01 -2.9684 2.5618 0
M  V30 6106 H 577.5 -3.71368 1.90987 0
M  V30 6107 N 577.937 -1.40673 -0.710563 0
M  V30 6108 C 579.186 -1.38525 -1.46607 0
M  V30 6109 C 579.499 0.0077024 -1.95598 0
M  V30 6110 O 580.705 0.151792 -2.71075 0
M  V30 6111 C 579.161 -2.43489 -2.6503 0
M  V30 6112 C 578.769 -3.88619 -2.22888 0
M  V30 6113 C 580.513 -2.50456 -3.42742 0
M  V30 6114 C 578.42 -4.85168 -3.3818 0
M  V30 6115 H 577.35 -0.515092 -0.550632 0
M  V30 6116 H 580.001 -1.66431 -0.772846 0
M  V30 6117 H 578.383 -2.0869 -3.36548 0
M  V30 6118 H 579.557 -4.32588 -1.58758 0
M  V30 6119 H 577.872 -3.85174 -1.58208 0
M  V30 6120 H 580.469 -3.19776 -4.28541 0
M  V30 6121 H 580.812 -1.53665 -3.86902 0
M  V30 6122 H 581.345 -2.84271 -2.78271 0
M  V30 6123 H 578.084 -5.8331 -2.99047 0
M  V30 6124 H 577.604 -4.4586 -4.01209 0
M  V30 6125 H 579.283 -5.05225 -4.04174 0
M  V30 6126 N 579.415 0.9433 -1.26252 0
M  V30 6127 C 580.345 2.05902 -1.10122 0
M  V30 6128 C 581.326 1.70099 -0.00700552 0
M  V30 6129 O 582.511 1.93377 -0.178641 0
M  V30 6130 C 579.641 3.39516 -0.731175 0
M  V30 6131 C 578.595 3.89372 -1.77688 0
M  V30 6132 C 577.921 5.19613 -1.26122 0
M  V30 6133 C 579.221 4.14489 -3.17799 0
M  V30 6134 H 580.915 2.19655 -2.03451 0
M  V30 6135 H 578.461 1.05548 -0.979576 0
M  V30 6136 H 580.414 4.17031 -0.605215 0
M  V30 6137 H 579.138 3.25733 0.23782 0
M  V30 6138 H 577.797 3.14036 -1.89148 0
M  V30 6139 H 577.445 5.02208 -0.282128 0
M  V30 6140 H 577.145 5.53939 -1.96023 0
M  V30 6141 H 578.669 5.99713 -1.14789 0
M  V30 6142 H 580.083 4.82625 -3.09428 0
M  V30 6143 H 578.48 4.60094 -3.85271 0
M  V30 6144 H 579.55 3.20347 -3.64014 0
M  V30 6145 N 580.893 1.08022 1.14757 0
M  V30 6146 C 581.823 0.728248 2.21853 0
M  V30 6147 C 582.804 -0.287486 1.67653 0
M  V30 6148 O 583.989 -0.158727 1.9355 0
M  V30 6149 C 581.119 0.132549 3.47047 0
M  V30 6150 C 580.073 1.07619 4.14249 0
M  V30 6151 C 579.399 0.342907 5.33599 0
M  V30 6152 C 580.699 2.41268 4.63235 0
M  V30 6153 H 582.393 1.62365 2.51551 0
M  V30 6154 H 579.939 0.782125 1.20908 0
M  V30 6155 H 581.892 -0.125665 4.21213 0
M  V30 6156 H 580.616 -0.797971 3.16702 0
M  V30 6157 H 579.275 1.31944 3.42033 0
M  V30 6158 H 578.923 -0.59129 4.99513 0
M  V30 6159 H 578.623 0.971955 5.79506 0
M  V30 6160 H 580.147 0.0926538 6.1053 0
M  V30 6161 H 581.561 2.21232 5.28894 0
M  V30 6162 H 579.958 2.9983 5.19829 0
M  V30 6163 H 581.028 3.03079 3.78512 0
M  V30 6164 N 582.371 -1.3172 0.865308 0
M  V30 6165 C 583.334 -2.26918 0.322627 0
M  V30 6166 C 584.334 -1.52031 -0.523751 0
M  V30 6167 O 585.524 -1.70973 -0.333727 0
M  V30 6168 C 582.656 -3.36558 -0.542338 0
M  V30 6169 H 583.849 -2.76432 1.16298 0
M  V30 6170 H 581.402 -1.42573 0.640512 0
M  V30 6171 H 582.137 -2.92329 -1.40407 0
M  V30 6172 H 581.922 -3.92048 0.0636395 0
M  V30 6173 H 583.412 -4.07465 -0.91446 0
M  V30 6174 N 583.85 -0.624285 -1.44708 0
M  V30 6175 C 585.096 -0.126051 -2.02107 0
M  V30 6176 C 585.425 1.2496 -1.49048 0
M  V30 6177 O 584.68 1.84163 -0.662005 0
M  V30 6178 C 584.979 -0.0546353 -3.57358 0
M  V30 6179 C 584.644 -1.36815 -4.29642 0
M  V30 6180 C 583.307 -1.72792 -4.49106 0
M  V30 6181 C 585.659 -2.23549 -4.70824 0
M  V30 6182 C 582.986 -2.95222 -5.07012 0
M  V30 6183 C 585.339 -3.45243 -5.30085 0
M  V30 6184 C 584.003 -3.81452 -5.47769 0
M  V30 6185 H 583.273 -0.0461252 -0.739563 0
M  V30 6186 H 585.92 -0.809236 -1.73562 0
M  V30 6187 H 584.225 0.711891 -3.85278 0
M  V30 6188 H 585.922 0.347282 -3.99493 0
M  V30 6189 H 582.512 -1.07817 -4.14817 0
M  V30 6190 H 586.696 -1.9705 -4.55505 0
M  V30 6191 H 581.952 -3.23361 -5.18891 0
M  V30 6192 H 586.125 -4.12689 -5.60946 0
M  V30 6193 H 583.753 -4.76403 -5.92405 0
M  V30 6194 N 585.328 1.53329 -0.364422 0
M  V30 6195 C 586.577 2.00421 0.226747 0
M  V30 6196 C 586.89 1.25581 1.49963 0
M  V30 6197 O 588.096 1.63256 2.16933 0
M  V30 6198 C 586.552 3.57017 0.454618 0
M  V30 6199 C 586.16 4.40734 -0.803568 0
M  V30 6200 C 587.904 4.12468 1.00351 0
M  V30 6201 C 585.811 5.8888 -0.545345 0
M  V30 6202 H 584.741 0.748787 0.0885082 0
M  V30 6203 H 587.392 1.7703 -0.482983 0
M  V30 6204 H 585.774 3.76558 1.22558 0
M  V30 6205 H 586.948 4.32967 -1.57723 0
M  V30 6206 H 585.263 3.96381 -1.27559 0
M  V30 6207 H 587.86 5.20783 1.212 0
M  V30 6208 H 588.203 3.6699 1.9653 0
M  V30 6209 H 588.736 3.96721 0.29274 0
M  V30 6210 H 585.475 6.38633 -1.47743 0
M  V30 6211 H 584.995 5.99499 0.189842 0
M  V30 6212 H 586.674 6.46776 -0.170425 0
M  V30 6213 N 586.806 0.0935595 1.57322 0
M  V30 6214 C 588.055 -0.570191 1.93473 0
M  V30 6215 C 588.368 -1.69434 0.977318 0
M  V30 6216 O 589.574 -2.41914 1.23248 0
M  V30 6217 C 588.03 -1.06564 3.43762 0
M  V30 6218 C 587.638 0.0286723 4.47991 0
M  V30 6219 C 589.382 -1.70221 3.88877 0
M  V30 6220 C 587.289 -0.482046 5.89432 0
M  V30 6221 H 586.219 -0.216764 0.72217 0
M  V30 6222 H 588.87 0.169313 1.82717 0
M  V30 6223 H 587.252 -1.85878 3.49664 0
M  V30 6224 H 588.426 0.804106 4.5373 0
M  V30 6225 H 586.741 0.570336 4.12476 0
M  V30 6226 H 589.338 -2.09502 4.91948 0
M  V30 6227 H 589.681 -2.57078 3.27439 0
M  V30 6228 H 590.214 -0.974919 3.85668 0
M  V30 6229 H 586.953 0.349871 6.54566 0
M  V30 6230 H 586.473 -1.22452 5.87167 0
M  V30 6231 H 588.152 -0.951508 6.39965 0
M  V30 6232 N 588.284 -1.56567 -0.180126 0
M  V30 6233 C 589.512 -1.85618 -0.913972 0
M  V30 6234 C 589.927 -0.677892 -1.7621 0
M  V30 6235 O 589.284 0.353171 -1.7905 0
M  V30 6236 C 589.335 -3.13619 -1.79793 0
M  V30 6237 O 589.056 -4.26906 -0.98402 0
M  V30 6238 C 590.557 -3.55954 -2.64219 0
M  V30 6239 H 587.777 -0.616043 -0.265954 0
M  V30 6240 H 590.321 -2.03681 -0.182872 0
M  V30 6241 H 588.476 -2.97409 -2.48247 0
M  V30 6242 H 588.89 -4.9989 -1.58776 0
M  V30 6243 H 590.364 -4.48444 -3.21873 0
M  V30 6244 H 590.841 -2.79653 -3.38661 0
M  V30 6245 H 591.447 -3.74746 -2.01111 0
M  V30 6246 N 589.762 0.448376 -1.51087 0
M  V30 6247 C 591.008 1.19748 -1.64414 0
M  V30 6248 C 591.363 1.89177 -0.350715 0
M  V30 6249 O 590.656 1.80135 0.652834 0
M  V30 6250 C 590.85 2.24866 -2.77795 0
M  V30 6251 C 590.679 1.65753 -4.18038 0
M  V30 6252 C 589.449 1.44728 -4.8413 0
M  V30 6253 C 591.647 1.13985 -5.0151 0
M  V30 6254 N 589.629 0.810962 -6.0852 0
M  V30 6255 C 591 0.628141 -6.1681 0
M  V30 6256 C 593.055 1.03055 -4.87118 0
M  V30 6257 C 591.758 0.0178906 -7.19298 0
M  V30 6258 C 593.784 0.434212 -5.89804 0
M  V30 6259 C 593.146 -0.0670069 -7.04368 0
M  V30 6260 H 589.245 0.426254 -0.655615 0
M  V30 6261 H 591.829 0.495806 -1.88281 0
M  V30 6262 H 590 2.92434 -2.55611 0
M  V30 6263 H 591.732 2.91857 -2.8036 0
M  V30 6264 H 588.487 1.70593 -4.41809 0
M  V30 6265 H 588.911 0.510563 -6.75072 0
M  V30 6266 H 593.553 1.40395 -3.9881 0
M  V30 6267 H 591.271 -0.367662 -8.07263 0
M  V30 6268 H 594.857 0.3517 -5.80736 0
M  V30 6269 H 593.737 -0.521209 -7.82466 0
M  V30 6270 N 591.24 1.41047 0.703093 0
M  V30 6271 C 592.203 1.42036 1.79884 0
M  V30 6272 C 593.203 0.312153 1.57741 0
M  V30 6273 O 594.393 0.571672 1.64553 0
M  V30 6274 C 591.525 1.22437 3.18154 0
M  V30 6275 H 592.718 2.39572 1.80403 0
M  V30 6276 H 590.271 1.27079 0.909977 0
M  V30 6277 H 591.006 0.257112 3.23279 0
M  V30 6278 H 590.791 2.02723 3.35627 0
M  V30 6279 H 592.281 1.25946 3.98155 0
M  V30 6280 N 592.718 -0.936591 1.26751 0
M  V30 6281 C 594.129 -1.49816 1.1141 0
M  V30 6282 C 594.48 -1.9383 -0.304015 0
M  V30 6283 O 593.605 -1.80346 -1.196 0
M  V30 6284 C 594.2 -2.72271 2.01629 0
M  V30 6285 C 592.759 -3.2468 1.9042 0
M  V30 6286 C 591.906 -1.97444 1.94708 0
M  V30 6287 H 594.857 -0.751604 1.39773 0
M  V30 6288 H 594.878 -3.46741 1.56688 0
M  V30 6289 H 594.39 -2.40205 3.04833 0
M  V30 6290 H 592.491 -3.61525 0.901674 0
M  V30 6291 H 592.604 -3.91476 2.76195 0
M  V30 6292 H 590.968 -2.13545 1.38818 0
M  V30 6293 H 591.751 -1.67703 2.9955 0
M  V30 6294 N 594.196 -1.08629 -1.14182 0
M  V30 6295 C 595.426 -0.837673 -1.88856 0
M  V30 6296 C 595.834 0.614024 -1.78959 0
M  V30 6297 O 595.177 1.43384 -1.14833 0
M  V30 6298 C 595.239 -1.18355 -3.39459 0
M  V30 6299 C 594.903 -2.63848 -3.73139 0
M  V30 6300 C 595.9 -3.62099 -3.73069 0
M  V30 6301 C 593.585 -2.99761 -4.03049 0
M  V30 6302 C 595.579 -4.94292 -4.02435 0
M  V30 6303 C 593.266 -4.32147 -4.32078 0
M  V30 6304 C 594.264 -5.29223 -4.31755 0
M  V30 6305 O 593.952 -6.59229 -4.60079 0
M  V30 6306 H 593.684 -0.301609 -0.604986 0
M  V30 6307 H 596.238 -1.44961 -1.45518 0
M  V30 6308 H 594.468 -0.514628 -3.8326 0
M  V30 6309 H 596.157 -0.915391 -3.95443 0
M  V30 6310 H 596.923 -3.35698 -3.50046 0
M  V30 6311 H 592.802 -2.2484 -4.02453 0
M  V30 6312 H 596.346 -5.70055 -4.02098 0
M  V30 6313 H 592.243 -4.58296 -4.54571 0
M  V30 6314 H 593.011 -6.64578 -4.77785 0
M  V30 6315 N 595.674 1.31259 -0.872281 0
M  V30 6316 C 596.622 2.30404 -0.318897 0
M  V30 6317 C 597.616 1.5962 0.567267 0
M  V30 6318 O 598.822 1.74204 0.453111 0
M  V30 6319 H 595.197 0.747243 -0.0844474 0
M  V30 6320 H 597.168 2.74549 -1.16899 0
M  V30 6321 C 595.917 3.44608 0.462683 0
M  V30 6322 H 595.24 3.99248 -0.209936 0
M  V30 6323 H 596.68 4.1609 0.815187 0
M  V30 6324 C 595.139 2.93456 1.65485 0
M  V30 6325 O 595.669 2.92418 2.75417 0
M  V30 6326 N 593.875 2.49628 1.48776 0
M  V30 6327 H 593.422 2.50671 0.593452 0
M  V30 6328 H 593.38 2.15759 2.28682 0
M  V30 6329 N 597.152 0.631951 1.44375 0
M  V30 6330 C 598.398 0.13697 2.02337 0
M  V30 6331 C 598.731 -1.23826 1.49602 0
M  V30 6332 O 598.006 -1.8221 0.680415 0
M  V30 6333 C 598.289 0.124536 3.59885 0
M  V30 6334 C 598.142 1.53217 4.229 0
M  V30 6335 C 599.461 -0.550481 4.36644 0
M  V30 6336 H 596.58 0.051247 0.735216 0
M  V30 6337 H 599.222 0.808581 1.71936 0
M  V30 6338 H 597.372 -0.44737 3.85916 0
M  V30 6339 H 599.044 2.15303 4.07973 0
M  V30 6340 H 597.287 2.0858 3.80364 0
M  V30 6341 H 597.958 1.4755 5.31914 0
M  V30 6342 H 600.434 -0.0641154 4.16051 0
M  V30 6343 H 599.31 -0.528371 5.46351 0
M  V30 6344 H 599.571 -1.62097 4.11311 0
M  V30 6345 N 598.631 -1.53133 0.372548 0
M  V30 6346 C 599.564 -2.22328 -0.514361 0
M  V30 6347 C 600.542 -1.21776 -1.07747 0
M  V30 6348 O 601.726 -1.50704 -1.13228 0
M  V30 6349 C 598.853 -2.92343 -1.71035 0
M  V30 6350 C 597.899 -4.07026 -1.27405 0
M  V30 6351 S 598.732 -5.34821 -0.269526 0
M  V30 6352 C 599.888 -6.08352 -1.47168 0
M  V30 6353 H 600.121 -2.9721 0.0732683 0
M  V30 6354 H 597.654 -1.53603 0.156673 0
M  V30 6355 H 599.612 -3.33296 -2.39634 0
M  V30 6356 H 598.273 -2.17173 -2.26925 0
M  V30 6357 H 597.466 -4.55056 -2.16656 0
M  V30 6358 H 597.068 -3.68001 -0.66719 0
M  V30 6359 H 599.36 -6.33507 -2.40157 0
M  V30 6360 H 600.303 -7.0053 -1.03263 0
M  V30 6361 H 600.711 -5.38893 -1.6809 0
M  V30 6362 N 600.109 -0.101901 -1.5727 0
M  V30 6363 C 601.355 0.561027 -1.94885 0
M  V30 6364 C 601.688 1.6741 -0.984258 0
M  V30 6365 O 600.963 1.94491 -0.0184767 0
M  V30 6366 C 601.246 1.10982 -3.42571 0
M  V30 6367 C 601.099 0.00133418 -4.498 0
M  V30 6368 C 602.418 2.00608 -3.9172 0
M  V30 6369 H 599.537 0.202467 -0.708644 0
M  V30 6370 H 602.179 -0.173992 -1.89202 0
M  V30 6371 H 600.329 1.73621 -3.47546 0
M  V30 6372 H 602.001 -0.63322 -4.56933 0
M  V30 6373 H 600.244 -0.664143 -4.28686 0
M  V30 6374 H 600.915 0.426253 -5.50352 0
M  V30 6375 H 603.391 1.47864 -3.88941 0
M  V30 6376 H 602.267 2.3593 -4.95609 0
M  V30 6377 H 602.528 2.92608 -3.3141 0
M  V30 6378 N 601.587 1.56661 0.17182 0
M  V30 6379 C 602.517 1.99401 1.21498 0
M  V30 6380 C 603.498 0.869516 1.46197 0
M  V30 6381 O 604.683 1.13556 1.57539 0
M  V30 6382 C 601.813 2.35346 2.55401 0
M  V30 6383 C 600.767 3.5075 2.45272 0
M  V30 6384 C 600.093 3.72437 3.8366 0
M  V30 6385 C 601.393 4.84216 1.95787 0
M  V30 6386 H 603.087 2.86792 0.859699 0
M  V30 6387 H 600.633 1.37977 0.412103 0
M  V30 6388 H 602.586 2.63843 3.2858 0
M  V30 6389 H 601.31 1.44864 2.92715 0
M  V30 6390 H 599.969 3.2238 1.74547 0
M  V30 6391 H 599.617 2.79246 4.18367 0
M  V30 6392 H 599.317 4.50087 3.77751 0
M  V30 6393 H 600.841 4.03334 4.58426 0
M  V30 6394 H 602.255 5.11592 2.5874 0
M  V30 6395 H 600.652 5.65498 2.00827 0
M  V30 6396 H 601.722 4.76243 0.912159 0
M  V30 6397 N 603.065 -0.440357 1.51323 0
M  V30 6398 C 604.314 -1.18697 1.63076 0
M  V30 6399 C 604.627 -1.92418 0.35136 0
M  V30 6400 O 605.833 -2.69258 0.348221 0
M  V30 6401 C 604.289 -2.15849 2.87988 0
M  V30 6402 C 603.897 -1.47789 4.22921 0
M  V30 6403 C 605.641 -2.90962 3.09098 0
M  V30 6404 C 603.548 -2.43407 5.38987 0
M  V30 6405 H 602.478 -0.44676 0.607389 0
M  V30 6406 H 605.129 -0.454313 1.77787 0
M  V30 6407 H 603.511 -2.92537 2.66905 0
M  V30 6408 H 604.685 -0.7668 4.54375 0
M  V30 6409 H 603 -0.848404 4.07665 0
M  V30 6410 H 605.597 -3.62584 3.92985 0
M  V30 6411 H 605.94 -3.52133 2.22053 0
M  V30 6412 H 606.473 -2.21381 3.30507 0
M  V30 6413 H 603.212 -1.86929 6.28282 0
M  V30 6414 H 602.732 -3.12579 5.11913 0
M  V30 6415 H 604.411 -3.046 5.70813 0
M  V30 6416 N 604.543 -1.41418 -0.695603 0
M  V30 6417 C 605.491 -1.43467 -1.83084 0
M  V30 6418 C 606.485 -0.312719 -1.66489 0
M  V30 6419 O 607.691 -0.484744 -1.7335 0
M  V30 6420 H 604.066 -0.448891 -0.603325 0
M  V30 6421 H 606.037 -2.39144 -1.78473 0
M  V30 6422 C 604.786 -1.3337 -3.21104 0
M  V30 6423 H 604.109 -2.18989 -3.3449 0
M  V30 6424 H 605.549 -1.38865 -4.00615 0
M  V30 6425 C 604.008 -0.0460484 -3.36869 0
M  V30 6426 O 604.538 0.909258 -3.91274 0
M  V30 6427 N 602.744 0.0300222 -2.90584 0
M  V30 6428 H 602.291 -0.748129 -2.46497 0
M  V30 6429 H 602.249 0.890991 -3.01511 0
M  V30 6430 N 606.021 0.929856 -1.27246 0
M  V30 6431 C 607.249 1.71144 -1.16265 0
M  V30 6432 C 607.664 1.867 0.280786 0
M  V30 6433 O 607.021 1.38249 1.19136 0
M  V30 6434 C 607.072 3.11222 -1.83911 0
M  V30 6435 O 606.793 2.96398 -3.22614 0
M  V30 6436 C 608.294 4.05541 -1.79028 0
M  V30 6437 H 605.514 0.535499 -0.404328 0
M  V30 6438 H 608.058 1.16492 -1.68077 0
M  V30 6439 H 606.213 3.6274 -1.36009 0
M  V30 6440 H 606.627 3.8494 -3.56261 0
M  V30 6441 H 608.101 5.01351 -2.30978 0
M  V30 6442 H 608.578 4.32589 -0.759168 0
M  V30 6443 H 609.184 3.59947 -2.26535 0
M  V30 6444 N 607.499 1.09233 1.13605 0
M  V30 6445 C 608.746 0.827159 1.84836 0
M  V30 6446 C 609.074 -0.647199 1.83416 0
M  V30 6447 O 608.329 -1.49228 1.26608 0
M  V30 6448 C 608.628 1.305 3.32723 0
M  V30 6449 C 608.294 2.78864 3.54325 0
M  V30 6450 C 606.956 3.19382 3.59928 0
M  V30 6451 C 609.308 3.74532 3.62457 0
M  V30 6452 C 606.636 4.54346 3.71196 0
M  V30 6453 C 608.988 5.09283 3.75252 0
M  V30 6454 C 607.652 5.49394 3.79108 0
M  V30 6455 H 606.922 0.302679 0.676363 0
M  V30 6456 H 609.569 1.36676 1.34134 0
M  V30 6457 H 607.874 0.68517 3.85762 0
M  V30 6458 H 609.571 1.07648 3.86281 0
M  V30 6459 H 606.161 2.46507 3.50617 0
M  V30 6460 H 610.345 3.44343 3.57409 0
M  V30 6461 H 605.601 4.84864 3.72447 0
M  V30 6462 H 609.775 5.83269 3.80487 0
M  V30 6463 H 607.402 6.5397 3.87591 0
M  V30 6464 N 608.977 -1.30795 0.87923 0
M  V30 6465 C 610.217 -1.98155 0.50141 0
M  V30 6466 C 610.581 -1.67925 -0.930863 0
M  V30 6467 O 611.782 -2.28572 -1.41451 0
M  V30 6468 C 610.053 -3.49184 0.761937 0
M  V30 6469 S 611.612 -4.36107 0.485361 0
M  V30 6470 H 608.43 -0.686025 0.186792 0
M  V30 6471 H 611.032 -1.59018 1.13726 0
M  V30 6472 H 609.736 -3.68676 1.80295 0
M  V30 6473 H 609.267 -3.93236 0.113432 0
M  V30 6474 H 611.282 -4.9154 -0.678467 0
M  V30 6475 N 610.455 -0.639598 -1.44038 0
M  V30 6476 C 611.418 0.0506628 -2.29144 0
M  V30 6477 C 612.418 0.764001 -1.41491 0
M  V30 6478 O 613.608 0.607309 -1.63271 0
M  V30 6479 C 610.74 1.0824 -3.2326 0
M  V30 6480 H 611.933 -0.697987 -2.91664 0
M  V30 6481 H 609.486 -0.400146 -1.51091 0
M  V30 6482 H 610.221 1.86075 -2.65606 0
M  V30 6483 H 610.006 0.574725 -3.87865 0
M  V30 6484 H 611.496 1.56487 -3.87171 0
M  V30 6485 N 611.933 1.52934 -0.380664 0
M  V30 6486 C 613.344 1.86457 0.0952684 0
M  V30 6487 C 613.695 1.3007 1.46889 0
M  V30 6488 O 612.82 0.628636 2.07068 0
M  V30 6489 C 613.415 3.38323 0.179648 0
M  V30 6490 C 611.974 3.71589 0.599858 0
M  V30 6491 C 611.121 2.76228 -0.243572 0
M  V30 6492 H 614.072 1.46966 -0.59888 0
M  V30 6493 H 614.093 3.67113 1.00042 0
M  V30 6494 H 613.605 3.79333 -0.820228 0
M  V30 6495 H 611.706 3.36144 1.60742 0
M  V30 6496 H 611.819 4.77715 0.364003 0
M  V30 6497 H 610.183 2.53045 0.289855 0
M  V30 6498 H 610.966 3.20074 -1.24127 0
M  V30 6499 N 613.412 0.11024 1.57214 0
M  V30 6500 C 614.652 -0.553061 1.96775 0
M  V30 6501 C 615.016 -1.64403 0.991753 0
M  V30 6502 O 616.217 -2.36561 1.27642 0
M  V30 6503 C 614.488 -1.08004 3.4069 0
M  V30 6504 S 616.047 -1.75309 4.02259 0
M  V30 6505 H 612.865 -0.18003 0.68783 0
M  V30 6506 H 615.467 0.193242 1.94543 0
M  V30 6507 H 614.171 -0.274735 4.09479 0
M  V30 6508 H 613.702 -1.86182 3.46554 0
M  V30 6509 H 615.717 -3.03834 3.923 0
M  V30 6510 N 614.89 -1.56749 -0.16351 0
M  V30 6511 C 616.139 -1.81626 -0.877211 0
M  V30 6512 C 616.452 -0.688791 -1.83071 0
M  V30 6513 O 617.658 -0.822697 -2.58735 0
M  V30 6514 C 616.114 -3.21858 -1.61045 0
M  V30 6515 C 615.722 -4.42494 -0.700195 0
M  V30 6516 C 617.466 -3.56021 -2.31192 0
M  V30 6517 C 615.373 -5.73748 -1.43412 0
M  V30 6518 H 614.303 -0.67731 -0.331312 0
M  V30 6519 H 616.954 -1.83039 -0.13006 0
M  V30 6520 H 615.336 -3.14784 -2.40264 0
M  V30 6521 H 616.51 -4.60766 0.0555849 0
M  V30 6522 H 614.825 -4.1626 -0.10799 0
M  V30 6523 H 617.422 -4.51333 -2.8671 0
M  V30 6524 H 617.765 -2.81277 -3.06902 0
M  V30 6525 H 618.298 -3.64682 -1.58909 0
M  V30 6526 H 615.037 -6.51543 -0.719186 0
M  V30 6527 H 614.557 -5.5944 -2.16302 0
M  V30 6528 H 616.236 -6.15975 -1.9795 0
M  V30 6529 N 616.368 0.432326 -1.51554 0
M  V30 6530 C 617.779 1.01202 -1.56892 0
M  V30 6531 C 618.13 1.92175 -0.395394 0
M  V30 6532 O 617.255 2.10844 0.487198 0
M  V30 6533 C 617.85 1.84217 -2.8434 0
M  V30 6534 C 616.409 2.37228 -2.92233 0
M  V30 6535 C 615.556 1.16576 -2.51606 0
M  V30 6536 H 618.507 0.213407 -1.57259 0
M  V30 6537 H 618.528 2.69721 -2.68385 0
M  V30 6538 H 618.04 1.17979 -3.69733 0
M  V30 6539 H 616.141 3.06905 -2.11282 0
M  V30 6540 H 616.254 2.69682 -3.95991 0
M  V30 6541 H 614.618 1.51263 -2.04919 0
M  V30 6542 H 615.401 0.519404 -3.39348 0
M  V30 6543 N 617.846 1.41785 0.688094 0
M  V30 6544 C 618.794 1.44436 1.82321 0
M  V30 6545 C 619.788 0.321544 1.6632 0
M  V30 6546 O 620.994 0.493931 1.73091 0
M  V30 6547 H 617.369 0.452084 0.600936 0
M  V30 6548 H 619.34 2.40087 1.77202 0
M  V30 6549 C 618.089 1.35071 3.20392 0
M  V30 6550 H 617.412 2.2076 3.33324 0
M  V30 6551 H 618.852 1.40988 3.99873 0
M  V30 6552 C 617.311 0.0639127 3.36839 0
M  V30 6553 O 617.841 -0.888495 3.91751 0
M  V30 6554 N 616.047 -0.0146114 2.90596 0
M  V30 6555 H 615.594 0.761191 2.46097 0
M  V30 6556 H 615.552 -0.874988 3.01979 0
M  V30 6557 N 619.324 -0.923095 1.27737 0
M  V30 6558 C 620.552 -1.70525 1.17171 0
M  V30 6559 C 620.967 -1.86847 -0.270881 0
M  V30 6560 O 620.324 -1.38879 -1.18401 0
M  V30 6561 C 620.375 -3.10242 1.85559 0
M  V30 6562 O 620.096 -2.94683 3.24182 0
M  V30 6563 C 621.597 -4.04586 1.81176 0
M  V30 6564 H 618.817 -0.533347 0.407163 0
M  V30 6565 H 621.361 -1.15599 1.68692 0
M  V30 6566 H 619.516 -3.62014 1.3793 0
M  V30 6567 H 619.93 -3.83045 3.58297 0
M  V30 6568 H 621.404 -5.00119 2.33633 0
M  V30 6569 H 621.881 -4.3218 0.782099 0
M  V30 6570 H 622.487 -3.58741 2.2844 0
M  V30 6571 N 620.802 -1.09834 -1.13024 0
M  V30 6572 C 622.048 -0.83819 -1.84668 0
M  V30 6573 C 622.381 0.634645 -1.83537 0
M  V30 6574 O 621.656 1.46753 -1.27647 0
M  V30 6575 C 621.939 -1.37933 -3.32636 0
M  V30 6576 C 621.792 -2.91857 -3.42257 0
M  V30 6577 C 623.111 -1.01654 -4.28199 0
M  V30 6578 H 620.23 -0.30595 -0.670495 0
M  V30 6579 H 622.872 -1.36044 -1.32635 0
M  V30 6580 H 621.022 -0.935111 -3.77078 0
M  V30 6581 H 622.694 -3.44759 -3.06495 0
M  V30 6582 H 620.937 -3.28776 -2.83 0
M  V30 6583 H 621.608 -3.24799 -4.46329 0
M  V30 6584 H 624.084 -1.39973 -3.9185 0
M  V30 6585 H 622.96 -1.42217 -5.30156 0
M  V30 6586 H 623.221 0.0747794 -4.42037 0
M  V30 6587 N 622.28 1.30327 -0.886154 0
M  V30 6588 C 623.526 1.96764 -0.515312 0
M  V30 6589 C 623.881 1.68675 0.925552 0
M  V30 6590 O 623.174 0.981693 1.6454 0
M  V30 6591 C 623.368 3.49906 -0.728042 0
M  V30 6592 C 623.197 3.92881 -2.18803 0
M  V30 6593 C 621.967 4.18424 -2.83284 0
M  V30 6594 C 624.165 4.05617 -3.16195 0
M  V30 6595 N 622.147 4.47867 -4.19867 0
M  V30 6596 C 623.518 4.38957 -4.37855 0
M  V30 6597 C 625.573 3.88047 -3.11968 0
M  V30 6598 C 624.276 4.56559 -5.55829 0
M  V30 6599 C 626.302 4.06851 -4.29215 0
M  V30 6600 C 625.664 4.40538 -5.49641 0
M  V30 6601 H 621.763 0.74493 -0.237916 0
M  V30 6602 H 624.347 1.57536 -1.14414 0
M  V30 6603 H 622.518 3.88187 -0.128696 0
M  V30 6604 H 624.25 4.03401 -0.323983 0
M  V30 6605 H 621.005 4.1167 -2.34146 0
M  V30 6606 H 621.429 4.66721 -4.90408 0
M  V30 6607 H 626.071 3.61078 -2.19961 0
M  V30 6608 H 623.789 4.8237 -6.4834 0
M  V30 6609 H 627.375 3.94724 -4.27416 0
M  V30 6610 H 626.255 4.54789 -6.38856 0
M  V30 6611 N 623.758 0.647228 1.43697 0
M  V30 6612 C 624.986 0.16575 2.06235 0
M  V30 6613 C 625.401 -1.1662 1.48476 0
M  V30 6614 O 624.758 -1.7187 0.613762 0
M  V30 6615 C 624.809 0.0621651 3.61447 0
M  V30 6616 O 624.53 1.34146 4.17057 0
M  V30 6617 C 626.031 -0.446102 4.4105 0
M  V30 6618 H 623.251 0.0871158 0.665321 0
M  V30 6619 H 625.795 0.886183 1.84301 0
M  V30 6620 H 623.95 -0.608794 3.82587 0
M  V30 6621 H 624.364 1.19675 5.10664 0
M  V30 6622 H 625.838 -0.46755 5.50016 0
M  V30 6623 H 626.315 -1.47627 4.13646 0
M  V30 6624 H 626.921 0.192159 4.24866 0
M  V30 6625 N 625.236 -1.5273 0.388769 0
M  V30 6626 C 626.485 -2.00757 -0.194833 0
M  V30 6627 C 626.798 -1.27951 -1.47946 0
M  V30 6628 O 628.004 -1.66686 -2.14308 0
M  V30 6629 C 626.46 -3.57695 -0.397762 0
M  V30 6630 C 626.068 -4.394 0.873583 0
M  V30 6631 C 627.812 -4.14012 -0.937759 0
M  V30 6632 C 625.719 -5.87938 0.638962 0
M  V30 6633 H 624.649 -0.750101 -0.0765845 0
M  V30 6634 H 627.3 -1.76239 0.511086 0
M  V30 6635 H 625.682 -3.7846 -1.16552 0
M  V30 6636 H 626.856 -4.30403 1.64591 0
M  V30 6637 H 625.171 -3.94301 1.33849 0
M  V30 6638 H 627.768 -5.22645 -1.12899 0
M  V30 6639 H 628.111 -3.7007 -1.90666 0
M  V30 6640 H 628.644 -3.97137 -0.229588 0
M  V30 6641 H 625.383 -6.36202 1.57885 0
M  V30 6642 H 624.903 -5.99726 -0.094443 0
M  V30 6643 H 626.582 -6.46423 0.273299 0
M  V30 6644 N 626.714 -0.118576 -1.57153 0
M  V30 6645 C 627.962 0.538461 -1.94795 0
M  V30 6646 C 628.283 1.67243 -1.00274 0
M  V30 6647 O 627.553 1.95811 -0.0589692 0
M  V30 6648 H 626.133 0.201904 -0.719197 0
M  V30 6649 H 628.795 -0.187418 -1.93997 0
M  V30 6650 H 627.891 0.933315 -2.97818 0
M  V30 6651 N 628.193 1.56834 0.155195 0
M  V30 6652 C 629.423 1.86778 0.883044 0
M  V30 6653 C 629.831 0.703824 1.75622 0
M  V30 6654 O 629.174 -0.33581 1.80605 0
M  V30 6655 C 629.236 3.1133 1.79761 0
M  V30 6656 C 628.9 4.43504 1.10242 0
M  V30 6657 C 629.897 5.17859 0.460204 0
M  V30 6658 C 627.582 4.90233 1.09437 0
M  V30 6659 C 629.576 6.37144 -0.180782 0
M  V30 6660 C 627.263 6.09444 0.449569 0
M  V30 6661 C 628.261 6.82744 -0.186888 0
M  V30 6662 O 627.949 7.99692 -0.821486 0
M  V30 6663 H 627.681 0.62352 0.261149 0
M  V30 6664 H 630.235 2.04813 0.155204 0
M  V30 6665 H 628.465 2.89282 2.56618 0
M  V30 6666 H 630.154 3.27587 2.39669 0
M  V30 6667 H 630.92 4.8283 0.458289 0
M  V30 6668 H 626.799 4.33109 1.57917 0
M  V30 6669 H 630.343 6.94296 -0.678154 0
M  V30 6670 H 626.24 6.43936 0.449123 0
M  V30 6671 H 627.008 8.15306 -0.722337 0
M  V30 6672 N 629.671 -0.424282 1.51781 0
M  V30 6673 C 630.917 -1.17117 1.66298 0
M  V30 6674 C 631.272 -1.88595 0.380767 0
M  V30 6675 O 630.565 -1.81151 -0.624094 0
M  V30 6676 C 630.759 -2.20418 2.81337 0
M  V30 6677 C 630.588 -1.59081 4.20622 0
M  V30 6678 C 629.358 -1.37007 4.86371 0
M  V30 6679 C 631.556 -1.05992 5.0326 0
M  V30 6680 N 629.538 -0.714049 6.09733 0
M  V30 6681 C 630.909 -0.529933 6.17731 0
M  V30 6682 C 632.964 -0.952927 4.88696 0
M  V30 6683 C 631.667 0.0965457 7.19235 0
M  V30 6684 C 633.693 -0.340325 5.9042 0
M  V30 6685 C 633.055 0.179057 7.04172 0
M  V30 6686 H 629.154 -0.41577 0.662314 0
M  V30 6687 H 631.738 -0.46579 1.89046 0
M  V30 6688 H 629.909 -2.8833 2.60231 0
M  V30 6689 H 631.641 -2.8736 2.84968 0
M  V30 6690 H 628.396 -1.63543 4.44467 0
M  V30 6691 H 628.82 -0.403101 6.75799 0
M  V30 6692 H 633.462 -1.34033 4.00993 0
M  V30 6693 H 631.18 0.496044 8.06576 0
M  V30 6694 H 634.766 -0.259266 5.81222 0
M  V30 6695 H 633.646 0.645626 7.81538 0
M  V30 6696 N 631.149 -1.42148 -0.680565 0
M  V30 6697 C 632.079 -1.4796 -1.80638 0
M  V30 6698 C 633.06 -0.336728 -1.66734 0
M  V30 6699 O 634.245 -0.550247 -1.86242 0
M  V30 6700 C 631.375 -1.37569 -3.18892 0
M  V30 6701 C 630.329 -2.49823 -3.47524 0
M  V30 6702 C 629.655 -2.24491 -4.85291 0
M  V30 6703 C 630.955 -3.92144 -3.44994 0
M  V30 6704 H 632.649 -2.42184 -1.76032 0
M  V30 6705 H 630.195 -1.16566 -0.845481 0
M  V30 6706 H 632.148 -1.40243 -3.97379 0
M  V30 6707 H 630.872 -0.398357 -3.24162 0
M  V30 6708 H 629.531 -2.46455 -2.71395 0
M  V30 6709 H 629.179 -1.25066 -4.87204 0
M  V30 6710 H 628.879 -2.99722 -5.05411 0
M  V30 6711 H 630.403 -2.28906 -5.66069 0
M  V30 6712 H 631.817 -3.97145 -4.13459 0
M  V30 6713 H 630.214 -4.67179 -3.76648 0
M  V30 6714 H 631.284 -4.19225 -2.43676 0
M  V30 6715 N 632.627 0.916307 -1.28225 0
M  V30 6716 C 633.867 1.67964 -1.16479 0
M  V30 6717 C 634.231 1.8991 0.282494 0
M  V30 6718 O 635.432 2.63671 0.522607 0
M  V30 6719 C 633.703 3.00251 -1.93866 0
M  V30 6720 S 635.262 3.91353 -1.98465 0
M  V30 6721 H 632.08 0.576873 -0.415619 0
M  V30 6722 H 634.682 1.09006 -1.62289 0
M  V30 6723 H 633.386 2.81978 -2.98189 0
M  V30 6724 H 632.917 3.64257 -1.48595 0
M  V30 6725 H 634.932 4.84096 -1.0893 0
M  V30 6726 N 634.105 1.10431 1.1244 0
M  V30 6727 C 635.335 0.867612 1.87499 0
M  V30 6728 C 635.743 -0.585475 1.79913 0
M  V30 6729 O 635.086 -1.41539 1.171 0
M  V30 6730 C 635.148 1.2374 3.37533 0
M  V30 6731 C 634.812 2.69751 3.68895 0
M  V30 6732 C 635.809 3.67988 3.67261 0
M  V30 6733 C 633.494 3.06135 3.98229 0
M  V30 6734 C 635.488 5.00632 3.9452 0
M  V30 6735 C 633.175 4.38967 4.25149 0
M  V30 6736 C 634.173 5.36025 4.23281 0
M  V30 6737 O 633.861 6.66465 4.49533 0
M  V30 6738 H 633.593 0.311196 0.600111 0
M  V30 6739 H 636.147 1.47257 1.43194 0
M  V30 6740 H 634.377 0.575537 3.82393 0
M  V30 6741 H 636.066 0.978187 3.93937 0
M  V30 6742 H 636.832 3.41224 3.44661 0
M  V30 6743 H 632.711 2.31214 3.98825 0
M  V30 6744 H 636.255 5.7638 3.92978 0
M  V30 6745 H 632.152 4.6547 4.47223 0
M  V30 6746 H 632.92 6.72095 4.67152 0
M  V30 6747 N 635.583 -1.29855 0.893053 0
M  V30 6748 C 636.832 -1.95104 0.511597 0
M  V30 6749 C 637.145 -1.71226 -0.945567 0
M  V30 6750 O 638.351 -2.30525 -1.43424 0
M  V30 6751 C 636.807 -3.49374 0.864034 0
M  V30 6752 C 636.415 -3.82061 2.33952 0
M  V30 6753 C 638.159 -4.20894 0.552167 0
M  V30 6754 C 636.066 -5.29546 2.63316 0
M  V30 6755 H 634.996 -0.73029 0.187597 0
M  V30 6756 H 637.647 -1.47682 1.08914 0
M  V30 6757 H 636.029 -3.95413 0.215493 0
M  V30 6758 H 637.203 -3.46904 3.03305 0
M  V30 6759 H 635.518 -3.23665 2.61973 0
M  V30 6760 H 638.115 -5.29435 0.748489 0
M  V30 6761 H 638.458 -4.13178 -0.508924 0
M  V30 6762 H 638.991 -3.80564 1.15825 0
M  V30 6763 H 635.73 -5.4232 3.68197 0
M  V30 6764 H 635.25 -5.65974 1.9858 0
M  V30 6765 H 636.929 -5.97068 2.49236 0
M  V30 6766 N 637.061 -0.65484 -1.43351 0
M  V30 6767 C 638.009 0.0476784 -2.32551 0
M  V30 6768 C 639.003 0.811403 -1.48703 0
M  V30 6769 O 640.209 0.721621 -1.64902 0
M  V30 6770 H 636.584 0.0342038 -0.751222 0
M  V30 6771 H 638.555 -0.722342 -2.89525 0
M  V30 6772 C 637.304 0.999251 -3.33032 0
M  V30 6773 H 636.627 0.421005 -3.97577 0
M  V30 6774 H 638.067 1.45986 -3.98076 0
M  V30 6775 C 636.526 2.09606 -2.63756 0
M  V30 6776 O 637.056 3.18004 -2.4543 0
M  V30 6777 N 635.262 1.86207 -2.23103 0
M  V30 6778 H 634.809 0.980555 -2.38208 0
M  V30 6779 H 634.767 2.59787 -1.77081 0
M  V30 6780 N 638.539 1.52521 -0.396863 0
M  V30 6781 C 639.764 2.06571 0.185258 0
M  V30 6782 C 640.189 1.26605 1.39115 0
M  V30 6783 O 639.547 0.293055 1.78916 0
M  V30 6784 C 639.595 3.5674 0.526189 0
M  V30 6785 O 638.699 3.7929 1.61903 0
M  V30 6786 H 638.04 0.663712 0.0195474 0
M  V30 6787 H 640.57 1.966 -0.566519 0
M  V30 6788 H 640.58 4.00311 0.788338 0
M  V30 6789 H 639.255 4.14379 -0.355397 0
M  V30 6790 H 637.832 3.47605 1.35 0
M  V30 6791 N 640.017 0.126909 1.57088 0
M  V30 6792 C 641.245 -0.53667 1.99819 0
M  V30 6793 C 641.66 -1.5972 1.00673 0
M  V30 6794 O 641.017 -1.825 0.000747365 0
M  V30 6795 C 641.068 -1.15563 3.42531 0
M  V30 6796 O 640.789 -0.137483 4.37884 0
M  V30 6797 C 642.29 -1.90176 4.00435 0
M  V30 6798 H 639.51 -0.141443 0.655923 0
M  V30 6799 H 642.054 0.215578 2.03361 0
M  V30 6800 H 640.209 -1.85861 3.39904 0
M  V30 6801 H 640.623 -0.588229 5.21191 0
M  V30 6802 H 642.097 -2.28801 5.02349 0
M  V30 6803 H 642.574 -2.78002 3.40017 0
M  V30 6804 H 643.18 -1.24623 4.06632 0
M  V30 6805 N 641.495 -1.56914 -0.146875 0
M  V30 6806 C 642.744 -1.82546 -0.857898 0
M  V30 6807 C 643.057 -0.708169 -1.8233 0
M  V30 6808 O 644.263 -0.850093 -2.57848 0
M  V30 6809 C 642.719 -3.23548 -1.57623 0
M  V30 6810 C 642.327 -4.43212 -0.653224 0
M  V30 6811 C 644.071 -3.58453 -2.27402 0
M  V30 6812 C 641.978 -5.75237 -1.37318 0
M  V30 6813 H 640.908 -0.680786 -0.32411 0
M  V30 6814 H 643.559 -1.83166 -0.110639 0
M  V30 6815 H 641.941 -3.17315 -2.36912 0
M  V30 6816 H 643.115 -4.60682 0.104452 0
M  V30 6817 H 641.43 -4.16351 -0.0638336 0
M  V30 6818 H 644.027 -4.54349 -2.81907 0
M  V30 6819 H 644.37 -2.84516 -3.03901 0
M  V30 6820 H 644.903 -3.66347 -1.55032 0
M  V30 6821 H 641.642 -6.52269 -0.650041 0
M  V30 6822 H 641.162 -5.61703 -2.10357 0
M  V30 6823 H 642.841 -6.18039 -1.91406 0
M  V30 6824 N 642.974 0.416227 -1.52004 0
M  V30 6825 C 643.922 1.5272 -1.7544 0
M  V30 6826 C 644.916 1.57596 -0.621289 0
M  V30 6827 O 646.122 1.61087 -0.803172 0
M  V30 6828 H 642.497 0.507772 -0.554682 0
M  V30 6829 H 644.468 1.30136 -2.68528 0
M  V30 6830 C 643.217 2.90165 -1.91571 0
M  V30 6831 H 642.54 2.87154 -2.78178 0
M  V30 6832 H 643.98 3.67211 -2.11972 0
M  V30 6833 C 642.439 3.29947 -0.680942 0
M  V30 6834 O 642.969 4.01403 0.154527 0
M  V30 6835 N 641.175 2.8593 -0.518894 0
M  V30 6836 H 640.722 2.2795 -1.19986 0
M  V30 6837 H 640.68 3.12907 0.305985 0
M  V30 6838 N 644.452 1.42507 0.673017 0
M  V30 6839 C 645.863 1.38347 1.25367 0
M  V30 6840 C 646.214 0.0776327 1.96046 0
M  V30 6841 O 645.339 -0.823571 2.00116 0
M  V30 6842 C 645.934 2.506 2.28002 0
M  V30 6843 C 644.493 2.49767 2.81591 0
M  V30 6844 C 643.64 2.293 1.55938 0
M  V30 6845 H 646.591 1.51695 0.466288 0
M  V30 6846 H 646.612 2.20953 3.09774 0
M  V30 6847 H 646.124 3.45627 1.76532 0
M  V30 6848 H 644.225 1.58563 3.37177 0
M  V30 6849 H 644.338 3.46867 3.30485 0
M  V30 6850 H 642.702 1.77594 1.82572 0
M  V30 6851 H 643.485 3.26385 1.06431 0
M  V30 6852 N 645.93 -0.909495 1.28709 0
M  V30 6853 C 646.893 -1.99399 1.13016 0
M  V30 6854 C 647.893 -1.60654 0.068536 0
M  V30 6855 O 649.083 -1.71334 0.314671 0
M  V30 6856 C 646.215 -3.33078 0.726085 0
M  V30 6857 H 647.408 -2.14751 2.09338 0
M  V30 6858 H 644.961 -1.09272 1.11756 0
M  V30 6859 H 645.696 -3.23428 -0.23771 0
M  V30 6860 H 645.481 -3.62562 1.49302 0
M  V30 6861 H 646.971 -4.12681 0.639058 0
M  V30 6862 N 647.408 -1.11026 -1.11852 0
M  V30 6863 C 648.648 -0.866348 -1.85132 0
M  V30 6864 C 649.012 0.597236 -1.82475 0
M  V30 6865 O 650.213 0.957744 -2.51159 0
M  V30 6866 C 648.484 -1.40721 -3.28531 0
M  V30 6867 S 650.043 -1.29964 -4.19112 0
M  V30 6868 H 646.861 -0.312899 -0.638447 0
M  V30 6869 H 649.463 -1.41691 -1.34699 0
M  V30 6870 H 648.167 -2.46631 -3.28027 0
M  V30 6871 H 647.698 -0.85349 -3.8403 0
M  V30 6872 H 649.713 -0.261333 -4.95511 0
M  V30 6873 N 648.886 1.2938 -0.899927 0
M  V30 6874 C 650.116 1.99402 -0.540601 0
M  V30 6875 C 650.524 1.67534 0.87914 0
M  V30 6876 O 649.867 0.916821 1.59186 0
M  V30 6877 C 649.929 3.53514 -0.653326 0
M  V30 6878 C 649.593 4.08937 -2.04009 0
M  V30 6879 C 650.59 4.23815 -3.01126 0
M  V30 6880 C 648.275 4.43962 -2.34953 0
M  V30 6881 C 650.269 4.72951 -4.27313 0
M  V30 6882 C 647.956 4.92795 -3.61382 0
M  V30 6883 C 648.954 5.07244 -4.57376 0
M  V30 6884 O 648.642 5.55017 -5.8156 0
M  V30 6885 H 648.374 0.64383 -0.206057 0
M  V30 6886 H 650.928 1.65878 -1.21134 0
M  V30 6887 H 649.158 3.86628 0.0744449 0
M  V30 6888 H 650.847 4.04767 -0.303118 0
M  V30 6889 H 651.613 3.97043 -2.78535 0
M  V30 6890 H 647.492 4.31974 -1.60994 0
M  V30 6891 H 651.036 4.84144 -5.02245 0
M  V30 6892 H 646.933 5.19004 -3.83804 0
M  V30 6893 H 647.701 5.73331 -5.84153 0
M  V30 6894 N 650.364 0.662433 1.43002 0
M  V30 6895 C 651.327 -0.0142016 2.29196 0
M  V30 6896 C 652.327 -0.741394 1.42688 0
M  V30 6897 O 653.517 -0.581257 1.64216 0
M  V30 6898 C 650.649 -1.03084 3.24941 0
M  V30 6899 H 651.842 0.7443 2.90517 0
M  V30 6900 H 649.395 0.424133 1.50435 0
M  V30 6901 H 650.13 -1.81826 2.68533 0
M  V30 6902 H 649.915 -0.512946 3.8873 0
M  V30 6903 H 651.405 -1.50308 3.89612 0
M  V30 6904 N 651.842 -1.52309 0.404946 0
M  V30 6905 C 652.772 -2.29805 -0.41376 0
M  V30 6906 C 653.753 -1.3384 -1.0498 0
M  V30 6907 O 654.938 -1.62745 -1.05961 0
M  V30 6908 C 652.068 -3.11639 -1.53292 0
M  V30 6909 C 651.022 -4.15616 -1.02211 0
M  V30 6910 C 650.348 -4.8577 -2.23455 0
M  V30 6911 C 651.648 -5.2224 -0.0790725 0
M  V30 6912 H 653.342 -2.98493 0.232878 0
M  V30 6913 H 650.888 -1.43552 0.113441 0
M  V30 6914 H 652.841 -3.64618 -2.11262 0
M  V30 6915 H 651.565 -2.40712 -2.20738 0
M  V30 6916 H 650.224 -3.63641 -0.46484 0
M  V30 6917 H 649.872 -4.11376 -2.89445 0
M  V30 6918 H 649.572 -5.56058 -1.89929 0
M  V30 6919 H 651.096 -5.4156 -2.82038 0
M  V30 6920 H 652.51 -5.70485 -0.567438 0
M  V30 6921 H 650.907 -5.99867 0.167167 0
M  V30 6922 H 651.977 -4.77078 0.867447 0
M  V30 6923 N 653.32 -0.135238 -1.57019 0
M  V30 6924 C 654.56 0.521686 -1.9763 0
M  V30 6925 C 654.924 1.62804 -1.01778 0
M  V30 6926 O 656.125 2.345 -1.31389 0
M  V30 6927 C 654.396 1.0257 -3.42365 0
M  V30 6928 S 655.955 1.68888 -4.04997 0
M  V30 6929 H 652.773 0.169064 -0.690607 0
M  V30 6930 H 655.375 -0.224168 -1.94211 0
M  V30 6931 H 654.079 0.209556 -4.09865 0
M  V30 6932 H 653.61 1.80645 -3.49472 0
M  V30 6933 H 655.625 2.97554 -3.97084 0
M  V30 6934 N 654.798 1.5699 0.138552 0
M  V30 6935 C 655.746 1.99858 1.18994 0
M  V30 6936 C 656.74 0.89231 1.43994 0
M  V30 6937 O 657.946 1.0775 1.44187 0
M  V30 6938 H 654.321 0.636325 0.400743 0
M  V30 6939 H 656.292 2.87427 0.801755 0
M  V30 6940 C 655.041 2.40235 2.51361 0
M  V30 6941 H 654.364 3.24917 2.32957 0
M  V30 6942 H 655.804 2.74045 3.23535 0
M  V30 6943 C 654.263 1.25829 3.1252 0
M  V30 6944 O 654.793 0.563604 3.97727 0
M  V30 6945 N 652.999 1.02036 2.72097 0
M  V30 6946 H 652.546 1.58705 2.02905 0
M  V30 6947 H 652.504 0.256796 3.1335 0
M  V30 6948 N 656.276 -0.40816 1.52223 0
M  V30 6949 C 657.239 -1.48 1.7501 0
M  V30 6950 C 658.239 -1.48367 0.619996 0
M  V30 6951 O 659.429 -1.49874 0.887881 0
M  V30 6952 C 656.561 -2.87403 1.83336 0
M  V30 6953 H 657.754 -1.29086 2.70697 0
M  V30 6954 H 655.307 -0.638715 1.42654 0
M  V30 6955 H 656.042 -3.11686 0.895677 0
M  V30 6956 H 655.827 -2.8854 2.65494 0
M  V30 6957 H 657.317 -3.65103 2.02705 0
M  V30 6958 N 657.755 -1.42862 -0.66545 0
M  V30 6959 C 658.983 -1.47246 -1.45349 0
M  V30 6960 C 659.398 -0.0865944 -1.88601 0
M  V30 6961 O 658.755 0.900652 -1.58728 0
M  V30 6962 C 658.806 -2.40772 -2.6965 0
M  V30 6963 O 658.527 -3.73968 -2.2821 0
M  V30 6964 C 660.028 -2.54272 -3.63126 0
M  V30 6965 H 657.248 -0.500497 -0.446927 0
M  V30 6966 H 659.792 -1.87477 -0.816871 0
M  V30 6967 H 657.947 -2.0377 -3.29479 0
M  V30 6968 H 658.361 -4.24146 -3.08546 0
M  V30 6969 H 659.835 -3.23815 -4.47043 0
M  V30 6970 H 660.312 -1.58364 -4.09656 0
M  V30 6971 H 660.918 -2.92036 -3.09185 0
M  V30 6972 N 659.233 0.902656 -1.29189 0
M  V30 6973 C 660.48 1.65287 -1.16989 0
M  V30 6974 C 660.808 1.92485 0.279232 0
M  V30 6975 O 660.063 1.53143 1.21843 0
M  V30 6976 C 660.362 3.011 -1.92545 0
M  V30 6977 C 660.028 2.93521 -3.42281 0
M  V30 6978 C 658.69 2.91161 -3.83117 0
M  V30 6979 C 661.042 2.82947 -4.3771 0
M  V30 6980 C 658.37 2.76043 -5.17704 0
M  V30 6981 C 660.722 2.69368 -5.72384 0
M  V30 6982 C 659.386 2.65373 -6.12482 0
M  V30 6983 H 658.656 0.604828 -0.428094 0
M  V30 6984 H 661.303 1.05084 -1.60092 0
M  V30 6985 H 659.608 3.65153 -1.42024 0
M  V30 6986 H 661.305 3.58073 -1.80512 0
M  V30 6987 H 657.895 2.96158 -3.09819 0
M  V30 6988 H 662.079 2.83849 -4.07116 0
M  V30 6989 H 657.335 2.71352 -5.47885 0
M  V30 6990 H 661.509 2.60156 -6.45981 0
M  V30 6991 H 659.136 2.53415 -7.16718 0
M  V30 6992 N 660.711 1.11618 1.11262 0
M  V30 6993 C 661.658 0.7762 2.17356 0
M  V30 6994 C 662.628 -0.253152 1.6416 0
M  V30 6995 O 663.813 -0.129655 1.90359 0
M  V30 6996 C 660.953 0.227581 3.44349 0
M  V30 6997 C 660.066 1.31372 4.1154 0
M  V30 6998 C 659.201 0.72544 5.26223 0
M  V30 6999 C 658.24 1.7913 5.85302 0
M  V30 7000 N 657.377 1.22237 6.91377 0
M  V30 7001 H 662.217 1.68508 2.45783 0
M  V30 7002 H 659.754 0.841475 1.20655 0
M  V30 7003 H 661.712 -0.108483 4.17059 0
M  V30 7004 H 660.342 -0.644486 3.16301 0
M  V30 7005 H 659.394 1.7667 3.36885 0
M  V30 7006 H 660.706 2.12005 4.51504 0
M  V30 7007 H 659.86 0.339541 6.05749 0
M  V30 7008 H 658.599 -0.112188 4.87571 0
M  V30 7009 H 657.604 2.18648 5.04453 0
M  V30 7010 H 658.829 2.63199 6.26022 0
M  V30 7011 H 656.775 0.406423 6.5474 0
M  V30 7012 H 656.692 1.9654 7.30006 0
M  V30 7013 H 657.96 0.863426 7.74703 0
M  V30 7014 N 662.189 -1.289 0.906776 0
M  V30 7015 C 663.136 -2.2751 0.388313 0
M  V30 7016 C 664.106 -1.57301 -0.533439 0
M  V30 7017 O 665.291 -1.85243 -0.457148 0
M  V30 7018 C 662.431 -3.43091 -0.37181 0
M  V30 7019 C 661.544 -4.28066 0.581647 0
M  V30 7020 C 660.679 -5.30837 -0.19623 0
M  V30 7021 C 659.718 -6.07472 0.751294 0
M  V30 7022 N 658.855 -7.021 0.00737727 0
M  V30 7023 H 663.695 -2.71237 1.23428 0
M  V30 7024 H 661.232 -1.33397 0.619962 0
M  V30 7025 H 663.19 -4.08888 -0.828641 0
M  V30 7026 H 661.82 -3.00374 -1.18218 0
M  V30 7027 H 660.872 -3.62378 1.157 0
M  V30 7028 H 662.184 -4.81382 1.30665 0
M  V30 7029 H 661.338 -6.02485 -0.71394 0
M  V30 7030 H 660.077 -4.78272 -0.954324 0
M  V30 7031 H 659.082 -5.34682 1.28044 0
M  V30 7032 H 660.307 -6.62126 1.50883 0
M  V30 7033 H 658.253 -6.51894 -0.732854 0
M  V30 7034 H 658.17 -7.53004 0.672334 0
M  V30 7035 H 659.438 -7.77956 -0.490365 0
M  V30 7036 N 663.667 -0.670007 -1.42649 0
M  V30 7037 C 664.895 -0.19854 -2.05945 0
M  V30 7038 C 665.31 1.14243 -1.50313 0
M  V30 7039 O 664.667 1.70872 -0.641027 0
M  V30 7040 C 664.718 -0.11966 -3.61302 0
M  V30 7041 O 664.439 -1.40764 -4.1487 0
M  V30 7042 C 665.94 0.375878 -4.41704 0
M  V30 7043 H 663.16 -0.0976894 -0.663851 0
M  V30 7044 H 665.704 -0.915392 -1.82868 0
M  V30 7045 H 663.859 0.547851 -3.83507 0
M  V30 7046 H 664.273 -1.27784 -5.08696 0
M  V30 7047 H 665.747 0.379988 -5.50691 0
M  V30 7048 H 666.224 1.41028 -4.15942 0
M  V30 7049 H 666.83 -0.259727 -4.24506 0
M  V30 7050 N 665.145 1.52092 -0.413018 0
M  V30 7051 C 666.392 2.01855 0.161497 0
M  V30 7052 C 666.72 1.29845 1.44812 0
M  V30 7053 O 665.975 0.394471 1.91683 0
M  V30 7054 C 666.274 3.54529 0.4521 0
M  V30 7055 C 665.94 4.4469 -0.745788 0
M  V30 7056 C 664.602 4.69053 -1.07435 0
M  V30 7057 C 666.954 4.97742 -1.54604 0
M  V30 7058 C 664.282 5.43717 -2.20429 0
M  V30 7059 C 666.634 5.73642 -2.66678 0
M  V30 7060 C 665.298 5.96277 -3.00016 0
M  V30 7061 H 664.568 0.73864 0.0590961 0
M  V30 7062 H 667.215 1.83274 -0.555234 0
M  V30 7063 H 665.52 3.7131 1.25045 0
M  V30 7064 H 667.217 3.90546 0.909647 0
M  V30 7065 H 663.807 4.25907 -0.479725 0
M  V30 7066 H 667.991 4.78824 -1.30543 0
M  V30 7067 H 663.247 5.59462 -2.46602 0
M  V30 7068 H 667.421 6.13746 -3.29072 0
M  V30 7069 H 665.048 6.53913 -3.87688 0
M  V30 7070 N 666.623 0.143563 1.56945 0
M  V30 7071 C 667.57 -0.797433 2.16586 0
M  V30 7072 C 668.54 -1.24654 1.09775 0
M  V30 7073 O 669.725 -1.31968 1.37801 0
M  V30 7074 C 666.865 -2.03253 2.78895 0
M  V30 7075 C 665.978 -1.62954 4.00087 0
M  V30 7076 C 665.113 -2.81617 4.50406 0
M  V30 7077 C 664.152 -2.37675 5.64072 0
M  V30 7078 N 663.289 -3.49335 6.09023 0
M  V30 7079 H 668.129 -0.282023 2.96662 0
M  V30 7080 H 665.666 -0.127494 1.46546 0
M  V30 7081 H 667.624 -2.75653 3.13163 0
M  V30 7082 H 666.254 -2.52211 2.01469 0
M  V30 7083 H 665.306 -0.803322 3.71821 0
M  V30 7084 H 666.618 -1.26679 4.82446 0
M  V30 7085 H 665.772 -3.62212 4.86711 0
M  V30 7086 H 664.511 -3.21134 3.67048 0
M  V30 7087 H 663.516 -1.55519 5.27346 0
M  V30 7088 H 664.741 -1.99247 6.49213 0
M  V30 7089 H 662.687 -3.8848 5.28601 0
M  V30 7090 H 662.604 -3.17064 6.86299 0
M  V30 7091 H 663.872 -4.30297 6.49973 0
M  V30 7092 N 668.101 -1.57061 -0.130224 0
M  V30 7093 C 669.051 -1.95941 -1.16582 0
M  V30 7094 C 670.035 -0.832858 -1.37667 0
M  V30 7095 O 671.227 -1.09647 -1.38948 0
M  V30 7096 C 668.356 -2.35777 -2.49528 0
M  V30 7097 C 667.442 -3.5504 -2.31964 0
M  V30 7098 N 667.833 -4.71071 -1.84189 0
M  V30 7099 C 666.131 -3.60453 -2.62659 0
M  V30 7100 C 666.832 -5.53128 -1.80068 0
M  V30 7101 N 665.808 -4.95303 -2.24001 0
M  V30 7102 H 669.61 -2.83117 -0.788806 0
M  V30 7103 H 667.124 -1.58842 -0.3381 0
M  V30 7104 H 669.121 -2.61843 -3.24413 0
M  V30 7105 H 667.781 -1.49961 -2.87996 0
M  V30 7106 H 668.792 -4.94504 -1.53903 0
M  V30 7107 H 665.469 -2.85217 -3.0489 0
M  V30 7108 H 666.859 -6.56182 -1.4448 0
M  V30 7109 N 669.579 0.400081 -1.52437 0
M  V30 7110 C 670.509 1.4947 -1.7939 0
M  V30 7111 C 671.49 1.57383 -0.645329 0
M  V30 7112 O 672.675 1.72511 -0.891826 0
M  V30 7113 C 669.805 2.87201 -1.95276 0
M  V30 7114 C 668.759 2.94134 -3.10917 0
M  V30 7115 C 668.085 4.34207 -3.1204 0
M  V30 7116 C 669.385 2.64791 -4.50203 0
M  V30 7117 H 671.079 1.27165 -2.71052 0
M  V30 7118 H 668.625 0.610312 -1.30427 0
M  V30 7119 H 670.578 3.63772 -2.12715 0
M  V30 7120 H 669.302 3.10819 -1.00294 0
M  V30 7121 H 667.961 2.20009 -2.93243 0
M  V30 7122 H 667.609 4.54848 -2.14761 0
M  V30 7123 H 667.309 4.39768 -3.89715 0
M  V30 7124 H 668.833 5.127 -3.31619 0
M  V30 7125 H 670.247 3.31083 -4.68035 0
M  V30 7126 H 668.644 2.81717 -5.29864 0
M  V30 7127 H 669.714 1.60184 -4.57678 0
M  V30 7128 N 671.057 1.43213 0.657864 0
M  V30 7129 C 671.987 1.50815 1.78262 0
M  V30 7130 C 672.968 0.363211 1.66177 0
M  V30 7131 O 674.153 0.579806 1.85343 0
M  V30 7132 C 671.283 1.42625 3.16663 0
M  V30 7133 C 670.237 2.5532 3.43505 0
M  V30 7134 C 669.563 2.32184 4.81658 0
M  V30 7135 C 670.863 3.97583 3.38711 0
M  V30 7136 H 672.557 2.44954 1.72157 0
M  V30 7137 H 670.103 1.17896 0.82683 0
M  V30 7138 H 672.056 1.46548 3.95097 0
M  V30 7139 H 670.78 0.449877 3.23487 0
M  V30 7140 H 669.439 2.50742 2.6744 0
M  V30 7141 H 669.087 1.32801 4.85153 0
M  V30 7142 H 668.787 3.07724 5.00579 0
M  V30 7143 H 670.311 2.37883 5.62356 0
M  V30 7144 H 671.725 4.03673 4.07089 0
M  V30 7145 H 670.122 4.73112 3.69168 0
M  V30 7146 H 671.192 4.23049 2.36976 0
M  V30 7147 N 672.536 -0.895792 1.29666 0
M  V30 7148 C 673.469 -2.00238 1.09453 0
M  V30 7149 C 674.447 -1.62599 0.00527044 0
M  V30 7150 O 675.631 -1.87847 0.156729 0
M  V30 7151 C 672.758 -3.32066 0.667054 0
M  V30 7152 C 671.804 -3.88691 1.7556 0
M  V30 7153 S 672.637 -4.17317 3.35569 0
M  V30 7154 C 673.793 -5.52181 2.94698 0
M  V30 7155 H 674.026 -2.17076 2.03138 0
M  V30 7156 H 671.559 -1.04287 1.13858 0
M  V30 7157 H 673.517 -4.08272 0.427136 0
M  V30 7158 H 672.178 -3.13101 -0.250256 0
M  V30 7159 H 671.371 -4.83918 1.40853 0
M  V30 7160 H 670.973 -3.19187 1.94924 0
M  V30 7161 H 673.265 -6.3281 2.41986 0
M  V30 7162 H 674.208 -5.91817 3.88791 0
M  V30 7163 H 674.616 -5.14225 2.32879 0
M  V30 7164 N 674.014 -1.12206 -1.10668 0
M  V30 7165 C 675.254 -0.885935 -1.84202 0
M  V30 7166 C 675.618 0.577849 -1.83098 0
M  V30 7167 O 676.819 0.931051 -2.5216 0
M  V30 7168 C 675.09 -1.44197 -3.2702 0
M  V30 7169 S 676.649 -1.34402 -4.1771 0
M  V30 7170 H 673.467 -0.319653 -0.635093 0
M  V30 7171 H 676.069 -1.43112 -1.33189 0
M  V30 7172 H 674.773 -2.50096 -3.25392 0
M  V30 7173 H 674.304 -0.894173 -3.83103 0
M  V30 7174 H 676.319 -0.313873 -4.95206 0
M  V30 7175 N 675.492 1.28418 -0.913599 0
M  V30 7176 C 676.442 2.24928 -0.373042 0
M  V30 7177 C 677.426 1.52444 0.514753 0
M  V30 7178 O 678.618 1.73414 0.3545 0
M  V30 7179 C 675.747 3.41124 0.385896 0
M  V30 7180 C 674.833 4.20929 -0.51761 0
M  V30 7181 N 675.224 4.78777 -1.63113 0
M  V30 7182 C 673.522 4.44865 -0.317969 0
M  V30 7183 C 674.223 5.38822 -2.19193 0
M  V30 7184 N 673.199 5.22974 -1.48321 0
M  V30 7185 H 677.001 2.67224 -1.22346 0
M  V30 7186 H 674.515 1.43187 -0.766236 0
M  V30 7187 H 676.512 4.09347 0.789997 0
M  V30 7188 H 675.172 3.00362 1.23341 0
M  V30 7189 H 676.183 4.77148 -2.01372 0
M  V30 7190 H 672.86 4.14614 0.49004 0
M  V30 7191 H 674.25 5.94615 -3.12861 0
M  V30 7192 N 676.97 0.677563 1.42291 0
M  V30 7193 C 678.2 0.209155 2.05539 0
M  V30 7194 C 678.608 -1.13987 1.51009 0
M  V30 7195 O 677.951 -1.71976 0.645764 0
M  V30 7196 C 678.013 0.0697758 3.59432 0
M  V30 7197 C 677.677 1.34795 4.36668 0
M  V30 7198 C 678.674 2.28201 4.67141 0
M  V30 7199 C 676.359 1.59632 4.76259 0
M  V30 7200 C 678.353 3.44718 5.36142 0
M  V30 7201 C 676.04 2.76437 5.45 0
M  V30 7202 C 677.038 3.68805 5.74867 0
M  V30 7203 O 676.726 4.83567 6.42198 0
M  V30 7204 H 676.458 0.0986202 0.668768 0
M  V30 7205 H 679.012 0.925483 1.83368 0
M  V30 7206 H 677.242 -0.702157 3.80272 0
M  V30 7207 H 678.931 -0.359115 4.04308 0
M  V30 7208 H 679.697 2.10264 4.37052 0
M  V30 7209 H 675.576 0.886073 4.52404 0
M  V30 7210 H 679.12 4.16833 5.59371 0
M  V30 7211 H 675.017 2.94299 5.74507 0
M  V30 7212 H 675.785 4.83147 6.6069 0
M  V30 7213 N 678.448 -1.51871 0.421078 0
M  V30 7214 C 679.395 -2.27334 -0.398508 0
M  V30 7215 C 680.365 -1.30241 -1.03085 0
M  V30 7216 O 681.55 -1.59121 -1.05285 0
M  V30 7217 C 678.69 -3.10664 -1.50272 0
M  V30 7218 C 677.803 -4.2273 -0.890122 0
M  V30 7219 C 676.938 -4.93399 -1.96803 0
M  V30 7220 C 675.977 -5.97409 -1.333 0
M  V30 7221 N 675.114 -6.61548 -2.35156 0
M  V30 7222 H 679.954 -2.96938 0.251411 0
M  V30 7223 H 677.491 -1.46472 0.135825 0
M  V30 7224 H 679.449 -3.57292 -2.15403 0
M  V30 7225 H 678.079 -2.43207 -2.1225 0
M  V30 7226 H 677.131 -3.80186 -0.127537 0
M  V30 7227 H 678.443 -4.97302 -0.386349 0
M  V30 7228 H 677.597 -5.43491 -2.69633 0
M  V30 7229 H 676.336 -4.18421 -2.50549 0
M  V30 7230 H 675.341 -5.46624 -0.59008 0
M  V30 7231 H 676.566 -6.74335 -0.803076 0
M  V30 7232 H 674.512 -5.89394 -2.88012 0
M  V30 7233 H 674.429 -7.31832 -1.89624 0
M  V30 7234 H 675.697 -7.16276 -3.0752 0
M  V30 7235 N 679.926 -0.151884 -1.56866 0
M  V30 7236 C 680.874 0.80299 -2.183 0
M  V30 7237 C 681.868 1.25174 -1.14139 0
M  V30 7238 O 683.074 1.21966 -1.3238 0
M  V30 7239 H 679.449 0.277169 -0.699057 0
M  V30 7240 H 681.42 0.260699 -2.97259 0
M  V30 7241 C 680.169 2.03009 -2.82281 0
M  V30 7242 H 679.492 1.69377 -3.62148 0
M  V30 7243 H 680.932 2.67753 -3.28762 0
M  V30 7244 C 679.391 2.84123 -1.81041 0
M  V30 7245 O 679.921 3.8063 -1.28388 0
M  V30 7246 N 678.127 2.48753 -1.50234 0
M  V30 7247 H 677.674 1.70337 -1.93244 0
M  V30 7248 H 677.632 3.03316 -0.827445 0
M  V30 7249 N 681.404 1.57128 0.121893 0
M  V30 7250 C 682.653 1.83888 0.828748 0
M  V30 7251 C 682.966 0.737087 1.81181 0
M  V30 7252 O 684.172 0.891007 2.56463 0
M  V30 7253 C 682.628 3.26014 1.52455 0
M  V30 7254 C 682.236 4.44195 0.58263 0
M  V30 7255 C 683.98 3.62025 2.21671 0
M  V30 7256 C 681.887 5.77349 1.28149 0
M  V30 7257 H 680.817 0.685856 0.313238 0
M  V30 7258 H 683.468 1.83319 0.0814851 0
M  V30 7259 H 681.85 3.21044 2.31834 0
M  V30 7260 H 683.024 4.60457 -0.177729 0
M  V30 7261 H 681.339 4.164 -0.00241228 0
M  V30 7262 H 683.936 4.58776 2.74643 0
M  V30 7263 H 684.279 2.89315 2.99337 0
M  V30 7264 H 684.812 3.68767 1.49184 0
M  V30 7265 H 681.551 6.53221 0.546189 0
M  V30 7266 H 681.071 5.64978 2.01394 0
M  V30 7267 H 682.75 6.21006 1.81549 0
M  V30 7268 N 682.882 -0.391992 1.52647 0
M  V30 7269 C 684.13 -1.13507 1.67214 0
M  V30 7270 C 684.451 -1.90575 0.41304 0
M  V30 7271 O 683.721 -1.87348 -0.572498 0
M  V30 7272 H 682.301 -0.422013 0.616372 0
M  V30 7273 H 684.963 -0.44502 1.89751 0
M  V30 7274 H 684.059 -1.83964 2.52118 0
M  V30 7275 N 684.36 -1.4356 -0.65026 0
M  V30 7276 C 685.323 -1.48615 -1.74489 0
M  V30 7277 C 686.323 -0.370483 -1.56474 0
M  V30 7278 O 687.513 -0.632351 -1.62317 0
M  V30 7279 C 684.645 -1.34161 -3.13391 0
M  V30 7280 H 685.838 -2.46103 -1.71387 0
M  V30 7281 H 683.391 -1.30369 -0.862186 0
M  V30 7282 H 684.126 -0.376918 -3.22102 0
M  V30 7283 H 683.911 -2.1504 -3.27872 0
M  V30 7284 H 685.401 -1.40637 -3.93206 0
M  V30 7285 N 685.838 0.888903 -1.30139 0
M  V30 7286 C 687.066 1.67358 -1.21651 0
M  V30 7287 C 687.481 1.87499 0.221246 0
M  V30 7288 O 686.838 1.41969 1.14677 0
M  V30 7289 C 686.889 3.05213 -1.93719 0
M  V30 7290 O 686.61 2.85984 -3.31881 0
M  V30 7291 C 688.111 3.9964 -1.9184 0
M  V30 7292 H 685.331 0.522365 -0.42116 0
M  V30 7293 H 687.875 1.11086 -1.71698 0
M  V30 7294 H 686.03 3.5823 -1.4748 0
M  V30 7295 H 686.444 3.73411 -3.68327 0
M  V30 7296 H 687.918 4.93749 -2.46811 0
M  V30 7297 H 688.395 4.29955 -0.896409 0
M  V30 7298 H 689.001 3.52558 -2.37872 0
M  V30 7299 N 687.317 1.12792 1.10072 0
M  V30 7300 C 688.733 0.864745 1.34143 0
M  V30 7301 C 688.933 -0.503201 1.95116 0
M  V30 7302 O 687.989 -1.25111 2.19325 0
M  V30 7303 C 689.302 1.98413 2.25949 0
M  V30 7304 C 690.85 2.01545 2.39476 0
M  V30 7305 C 691.325 3.12727 3.34613 0
M  V30 7306 N 692.816 3.12194 3.42183 0
M  V30 7307 C 693.551 3.94862 4.15779 0
M  V30 7308 N 693.047 4.87528 4.92228 0
M  V30 7309 N 694.84 3.82985 4.11435 0
M  V30 7310 H 686.991 2.00926 0.68866 0
M  V30 7311 H 689.254 0.874564 0.365844 0
M  V30 7312 H 688.96 2.97005 1.88364 0
M  V30 7313 H 688.834 1.89254 3.26287 0
M  V30 7314 H 691.221 1.0357 2.76328 0
M  V30 7315 H 691.302 2.14777 1.3894 0
M  V30 7316 H 690.946 4.10936 2.98486 0
M  V30 7317 H 690.876 2.96732 4.35037 0
M  V30 7318 H 693.367 2.45065 2.87666 0
M  V30 7319 H 693.68 5.47109 5.45794 0
M  V30 7320 H 692.025 4.91539 4.9134 0
M  V30 7321 H 695.216 3.09923 3.50807 0
M  V30 7322 H 695.389 4.47641 4.68531 0
M  V30 7323 O 688.834 -1.22539 1.05197 0
M  V30 7324 H 689.525 -1.79492 0.728171 0
M  V30 END ATOM
M  V30 BEGIN BOND
M  V30 END BOND
M  V30 END CTAB
M  END
$$$$
