drugbank_target|P00748 Coagulation factor XII (DB01593; DB06404; DB06689; DB09228; DB12598; DB14487)
 OpenBabel12092120573D

  0  0  0     0  0            999 V3000
M  V30 BEGIN CTAB
M  V30 COUNTS 9342 9485 0 0 0
M  V30 BEGIN ATOM
M  V30 1 H -0.908 1.98254 -0.117106 0
M  V30 2 N 0 1.576 0 0
M  V30 3 C 0.933 2.03868 1.02534 0
M  V30 4 C 1.911 0.928543 1.3348 0
M  V30 5 O 3.095 1.19667 1.45644 0
M  V30 6 C 0.222 2.43627 2.35294 0
M  V30 7 C -0.732 3.65373 2.2001 0
M  V30 8 S 0.101 5.13292 1.52614 0
M  V30 9 C 1.257 5.56322 2.86805 0
M  V30 10 H 1.49 2.90518 0.631377 0
M  V30 11 H -0.977 1.52953 0.210867 0
M  V30 12 H 0.981 2.67203 3.11629 0
M  V30 13 H -0.358 1.57376 2.7183 0
M  V30 14 H -1.165 3.90944 3.18086 0
M  V30 15 H -1.563 3.418 1.51819 0
M  V30 16 H 0.729 5.58782 3.83104 0
M  V30 17 H 1.672 6.56266 2.65933 0
M  V30 18 H 2.08 4.83886 2.90714 0
M  V30 19 N 1.4781 -0.272755 1.55222 0
M  V30 20 C 2.8941 -0.619959 1.47067 0
M  V30 21 C 3.0941 -1.895 0.684978 0
M  V30 22 O 2.1501 -2.51675 0.203931 0
M  V30 23 C 3.4631 -0.746693 2.91282 0
M  V30 24 C 5.0111 -0.840731 3.01497 0
M  V30 25 C 5.4861 -0.99924 4.46967 0
M  V30 26 N 6.9771 -1.06476 4.50796 0
M  V30 27 C 7.7121 -1.20621 5.6057 0
M  V30 28 N 7.2081 -1.31483 6.80209 0
M  V30 29 N 9.0011 -1.23733 5.48312 0
M  V30 30 H 1.1521 0.564606 2.04758 0
M  V30 31 H 3.4151 0.191177 0.928523 0
M  V30 32 H 3.1211 0.119753 3.51496 0
M  V30 33 H 2.9951 -1.6269 3.40311 0
M  V30 34 H 5.3821 -1.69764 2.41379 0
M  V30 35 H 5.4631 0.0640874 2.5572 0
M  V30 36 H 5.1071 -0.146984 5.07687 0
M  V30 37 H 5.0371 -1.91871 4.90401 0
M  V30 38 H 7.5281 -0.993196 3.64615 0
M  V30 39 H 7.8411 -1.42111 7.59621 0
M  V30 40 H 6.1861 -1.28487 6.8302 0
M  V30 41 H 9.3771 -1.14877 4.53785 0
M  V30 42 H 9.5501 -1.34412 6.33906 0
M  V30 43 N 2.9562 -1.48159 -0.537278 0
M  V30 44 C 3.9192 -1.61665 -1.62472 0
M  V30 45 C 4.9192 -0.490395 -1.5314 0
M  V30 46 O 6.1092 -0.755998 -1.5694 0
M  V30 47 C 3.2412 -1.57997 -3.02076 0
M  V30 48 H 4.4342 -2.58621 -1.51839 0
M  V30 49 H 1.9872 -1.36647 -0.758771 0
M  V30 50 H 2.7222 -0.624913 -3.18222 0
M  V30 51 H 2.5072 -2.39755 -3.10258 0
M  V30 52 H 3.9972 -1.70627 -3.81151 0
M  V30 53 N 4.4343 0.785586 -1.36625 0
M  V30 54 C 5.3643 1.91259 -1.33949 0
M  V30 55 C 6.3453 1.68795 -0.210325 0
M  V30 56 O 7.5303 1.89854 -0.408561 0
M  V30 57 C 4.6603 3.28339 -1.13186 0
M  V30 58 C 3.6143 3.65335 -2.22967 0
M  V30 59 C 2.9403 5.00806 -1.87342 0
M  V30 60 C 4.2403 3.7352 -3.65075 0
M  V30 61 H 5.9343 1.93755 -2.28253 0
M  V30 62 H 3.4803 0.930788 -1.09874 0
M  V30 63 H 5.4333 4.06804 -1.09948 0
M  V30 64 H 4.1573 3.2624 -0.153332 0
M  V30 65 H 2.8163 2.89169 -2.25337 0
M  V30 66 H 2.4643 4.95233 -0.880545 0
M  V30 67 H 2.1643 5.26529 -2.60846 0
M  V30 68 H 3.6883 5.81687 -1.85667 0
M  V30 69 H 5.1023 4.42168 -3.64911 0
M  V30 70 H 3.4993 4.10731 -4.37516 0
M  V30 71 H 4.5693 2.74527 -3.99703 0
M  V30 72 N 5.9124 1.20967 1.01018 0
M  V30 73 C 6.8424 0.988272 2.11555 0
M  V30 74 C 7.8234 -0.0849778 1.69888 0
M  V30 75 O 9.0084 0.0738202 1.9406 0
M  V30 76 C 6.1384 0.546528 3.42973 0
M  V30 77 C 5.0924 1.56375 3.9841 0
M  V30 78 C 4.4184 0.97842 5.25672 0
M  V30 79 C 5.7184 2.94922 4.31066 0
M  V30 80 H 7.4124 1.91276 2.30334 0
M  V30 81 H 4.9584 0.921073 1.1069 0
M  V30 82 H 6.9114 0.378839 4.19694 0
M  V30 83 H 5.6354 -0.413598 3.23971 0
M  V30 84 H 4.2944 1.71891 3.23804 0
M  V30 85 H 3.9424 0.0101688 5.02999 0
M  V30 86 H 3.6424 1.65784 5.63728 0
M  V30 87 H 5.1664 0.821939 6.05043 0
M  V30 88 H 6.5804 2.8288 4.9865 0
M  V30 89 H 4.9774 3.5983 4.80253 0
M  V30 90 H 6.0474 3.4616 3.39561 0
M  V30 91 N 7.3905 -1.2043 1.01659 0
M  V30 92 C 8.3205 -2.25466 0.607226 0
M  V30 93 C 9.3015 -1.65853 -0.377716 0
M  V30 94 O 10.4865 -1.92409 -0.263149 0
M  V30 95 C 7.6165 -3.47256 -0.0552949 0
M  V30 96 C 6.5705 -4.19462 0.850632 0
M  V30 97 C 5.8965 -5.34673 0.0538859 0
M  V30 98 C 7.1965 -4.75603 2.15868 0
M  V30 99 H 8.8905 -2.59962 1.48526 0
M  V30 100 H 6.4365 -1.2496 0.715605 0
M  V30 101 H 8.3895 -4.19917 -0.353233 0
M  V30 102 H 7.1135 -3.11924 -0.968045 0
M  V30 103 H 5.7725 -3.48667 1.13257 0
M  V30 104 H 5.4205 -4.95585 -0.860514 0
M  V30 105 H 5.1205 -5.83913 0.657192 0
M  V30 106 H 6.6445 -6.10138 -0.237598 0
M  V30 107 H 8.0585 -5.40083 1.92311 0
M  V30 108 H 6.4555 -5.3528 2.71284 0
M  V30 109 H 7.5255 -3.94346 2.82169 0
M  V30 110 N 8.8686 -0.792821 -1.36206 0
M  V30 111 C 9.7986 -0.207853 -2.32573 0
M  V30 112 C 10.7796 0.659055 -1.56813 0
M  V30 113 O 11.9646 0.592176 -1.84951 0
M  V30 114 C 9.0946 0.655449 -3.41059 0
M  V30 115 C 8.0486 -0.111842 -4.27854 0
M  V30 116 C 7.3746 0.872274 -5.27537 0
M  V30 117 C 8.6746 -1.30299 -5.05786 0
M  V30 118 H 10.3686 -1.01294 -2.81744 0
M  V30 119 H 7.9146 -0.48854 -1.3546 0
M  V30 120 H 9.8676 1.07464 -4.07467 0
M  V30 121 H 8.5916 1.49328 -2.90463 0
M  V30 122 H 7.2506 -0.512053 -3.63006 0
M  V30 123 H 6.8986 1.70523 -4.73214 0
M  V30 124 H 6.5986 0.363291 -5.86476 0
M  V30 125 H 8.1226 1.28996 -5.96818 0
M  V30 126 H 9.5366 -0.959379 -5.65216 0
M  V30 127 H 7.9336 -1.7455 -5.74154 0
M  V30 128 H 9.0036 -2.09663 -4.37229 0
M  V30 129 N 10.3467 1.47872 -0.545128 0
M  V30 130 C 11.5947 2.02093 -0.016553 0
M  V30 131 C 11.9157 1.42305 1.3332 0
M  V30 132 O 11.1857 0.593853 1.86682 0
M  V30 133 H 9.7657 0.746993 -0.00313038 0
M  V30 134 H 12.4277 1.81414 -0.712397 0
M  V30 135 H 11.5237 3.11996 0.0805422 0
M  V30 136 N 11.8248 0.280983 1.55075 0
M  V30 137 C 13.0718 -0.334115 1.99725 0
M  V30 138 C 13.3998 -1.5542 1.1694 0
M  V30 139 O 12.6548 -1.94361 0.228531 0
M  V30 140 C 12.9538 -0.754656 3.49342 0
M  V30 141 C 12.6198 0.361445 4.49449 0
M  V30 142 C 11.2818 0.667893 4.76542 0
M  V30 143 C 13.6338 1.11322 5.09173 0
M  V30 144 C 10.9618 1.7296 5.60626 0
M  V30 145 C 13.3138 2.1647 5.9441 0
M  V30 146 C 11.9778 2.47742 6.19822 0
M  V30 147 H 11.2478 -0.122261 0.730844 0
M  V30 148 H 13.8948 0.395917 1.87363 0
M  V30 149 H 12.1998 -1.56446 3.5921 0
M  V30 150 H 13.8968 -1.24142 3.813 0
M  V30 151 H 10.4868 0.112481 4.28452 0
M  V30 152 H 14.6708 0.88973 4.8826 0
M  V30 153 H 9.9268 1.97684 5.78559 0
M  V30 154 H 14.1008 2.75193 6.3972 0
M  V30 155 H 11.7278 3.30145 6.84769 0
M  V30 156 N 13.3029 -1.57598 0.00835791 0
M  V30 157 C 14.2329 -2.1198 -0.979113 0
M  V30 158 C 15.2139 -1.03091 -1.35301 0
M  V30 159 O 16.3989 -1.30818 -1.43528 0
M  V30 160 C 13.5289 -2.62995 -2.26828 0
M  V30 161 C 12.4829 -3.76485 -2.03576 0
M  V30 162 C 11.8089 -4.13846 -3.38579 0
M  V30 163 C 13.1089 -5.0342 -1.39161 0
M  V30 164 H 14.8029 -2.94738 -0.526281 0
M  V30 165 H 12.3489 -1.41783 -0.251704 0
M  V30 166 H 14.3019 -2.99669 -2.96271 0
M  V30 167 H 13.0259 -1.7737 -2.7424 0
M  V30 168 H 11.6849 -3.40217 -1.36557 0
M  V30 169 H 11.3329 -3.25232 -3.83709 0
M  V30 170 H 11.0329 -4.90312 -3.23834 0
M  V30 171 H 12.5569 -4.53086 -4.09323 0
M  V30 172 H 13.9709 -5.37812 -1.98573 0
M  V30 173 H 12.3679 -5.84746 -1.34878 0
M  V30 174 H 13.4379 -4.83548 -0.361868 0
M  V30 175 N 14.781 0.264519 -1.55364 0
M  V30 176 C 15.711 1.33121 -1.91836 0
M  V30 177 C 16.692 1.51101 -0.781192 0
M  V30 178 O 17.877 1.64003 -1.04003 0
M  V30 179 C 15.007 2.68921 -2.19769 0
M  V30 180 C 13.961 2.65661 -3.35571 0
M  V30 181 C 13.287 4.05093 -3.49004 0
M  V30 182 C 14.587 2.24187 -4.71739 0
M  V30 183 H 16.281 1.02844 -2.81182 0
M  V30 184 H 13.827 0.493286 -1.35287 0
M  V30 185 H 15.78 3.43663 -2.43872 0
M  V30 186 H 14.504 3.00799 -1.27231 0
M  V30 187 H 13.163 1.93377 -3.1145 0
M  V30 188 H 12.811 4.34206 -2.53917 0
M  V30 189 H 12.511 4.03804 -4.26868 0
M  V30 190 H 14.035 4.81561 -3.75408 0
M  V30 191 H 15.449 2.88654 -4.9533 0
M  V30 192 H 13.846 2.34044 -5.52579 0
M  V30 193 H 14.916 1.19327 -4.69988 0
M  V30 194 N 16.2591 1.48442 0.529413 0
M  V30 195 C 17.5051 1.5672 1.28711 0
M  V30 196 C 17.8381 0.2406 1.92704 0
M  V30 197 O 17.1131 -0.753454 1.79313 0
M  V30 198 C 17.3961 2.70587 2.37603 0
M  V30 199 C 17.2491 4.12953 1.78297 0
M  V30 200 C 18.5681 2.80212 3.39366 0
M  V30 201 H 15.6871 0.570474 0.466613 0
M  V30 202 H 18.3291 1.80617 0.589706 0
M  V30 203 H 16.4791 2.50342 2.97088 0
M  V30 204 H 18.1511 4.44639 1.22858 0
M  V30 205 H 16.3941 4.19927 1.0883 0
M  V30 206 H 17.0651 4.88448 2.57144 0
M  V30 207 H 19.5411 2.98553 2.89836 0
M  V30 208 H 18.4171 3.61611 4.12951 0
M  V30 209 H 18.6781 1.88393 3.99951 0
M  V30 210 N 17.7372 -0.778329 1.37039 0
M  V30 211 C 18.9622 -1.57248 1.35233 0
M  V30 212 C 19.3872 -1.87999 -0.0615568 0
M  V30 213 O 18.7452 -1.48734 -1.03672 0
M  V30 214 C 18.7932 -2.86353 2.19167 0
M  V30 215 O 17.8972 -3.80442 1.59178 0
M  V30 216 H 17.2382 -0.476569 0.462362 0
M  V30 217 H 19.7682 -0.963853 1.80474 0
M  V30 218 H 19.7782 -3.35519 2.32145 0
M  V30 219 H 18.4532 -2.63299 3.21942 0
M  V30 220 H 17.0302 -3.39067 1.55203 0
M  V30 221 N 19.2153 -1.21501 -1.00376 0
M  V30 222 C 20.1453 -0.999478 -2.11028 0
M  V30 223 C 21.1263 0.0759671 -1.6993 0
M  V30 224 O 22.3113 -0.0841106 -1.94018 0
M  V30 225 C 19.4413 -0.564709 -3.42678 0
M  V30 226 C 18.3953 -1.58486 -3.97576 0
M  V30 227 C 17.7213 -1.00628 -5.25146 0
M  V30 228 C 19.0213 -2.97204 -4.29496 0
M  V30 229 H 20.7153 -1.92495 -2.29317 0
M  V30 230 H 18.2613 -0.92693 -1.102 0
M  V30 231 H 20.2143 -0.401091 -4.19487 0
M  V30 232 H 18.9383 0.396411 -3.24185 0
M  V30 233 H 17.5973 -1.73606 -3.22888 0
M  V30 234 H 17.2453 -0.0368439 -5.02987 0
M  V30 235 H 16.9453 -1.68771 -5.62841 0
M  V30 236 H 18.4693 -0.854015 -6.04598 0
M  V30 237 H 19.8833 -2.8552 -4.97143 0
M  V30 238 H 18.2803 -3.62372 -4.78338 0
M  V30 239 H 19.3503 -3.47956 -3.3772 0
M  V30 240 N 20.6934 1.19889 -1.02296 0
M  V30 241 C 21.6034 2.26571 -0.608508 0
M  V30 242 C 22.6194 1.70299 0.356964 0
M  V30 243 O 23.7954 2.00235 0.216326 0
M  V30 244 C 20.8604 3.46677 0.0402814 0
M  V30 245 C 19.9214 4.18153 -0.97194 0
M  V30 246 C 19.1544 5.32525 -0.354016 0
M  V30 247 O 19.3774 5.64112 0.844604 0
M  V30 248 O 18.3114 5.92242 -1.07391 0
M  V30 249 H 22.1374 2.64251 -1.49684 0
M  V30 250 H 19.7224 1.26629 -0.792809 0
M  V30 251 H 21.6044 4.19475 0.402324 0
M  V30 252 H 20.2794 3.10858 0.902707 0
M  V30 253 H 19.1864 3.47499 -1.38546 0
M  V30 254 H 20.5194 4.57927 -1.80454 0
M  V30 255 N 22.1715 0.800033 1.35784 0
M  V30 256 C 23.3965 0.388511 2.03729 0
M  V30 257 C 23.8215 -0.990481 1.5991 0
M  V30 258 O 23.1795 -1.64013 0.772612 0
M  V30 259 C 23.2275 0.4726 3.5749 0
M  V30 260 O 22.3315 -0.51646 4.09153 0
M  V30 261 H 21.6725 0.163271 0.643614 0
M  V30 262 H 24.2025 1.0841 1.73518 0
M  V30 263 H 24.2125 0.34003 4.06581 0
M  V30 264 H 22.8875 1.47848 3.88734 0
M  V30 265 H 21.4645 -0.344673 3.71304 0
M  V30 266 N 23.6496 -1.47581 0.552962 0
M  V30 267 C 24.8776 -2.06875 0.0320556 0
M  V30 268 C 25.2926 -1.40625 -1.25976 0
M  V30 269 O 24.6496 -0.501349 -1.75479 0
M  V30 270 C 24.7006 -3.61092 -0.17167 0
M  V30 271 O 24.4216 -4.24858 1.06899 0
M  V30 272 C 25.9226 -4.37242 -0.730344 0
M  V30 273 H 23.1426 -0.669561 0.043915 0
M  V30 274 H 25.6866 -1.89646 0.765163 0
M  V30 275 H 23.8416 -3.7785 -0.854894 0
M  V30 276 H 24.2556 -5.17334 0.864059 0
M  V30 277 H 25.7296 -5.45842 -0.822203 0
M  V30 278 H 26.2066 -4.03235 -1.74064 0
M  V30 279 H 26.8126 -4.25219 -0.0829543 0
M  V30 280 N 25.1277 -0.289203 -1.54924 0
M  V30 281 C 26.0577 0.58549 -2.2604 0
M  V30 282 C 27.0387 1.14753 -1.25562 0
M  V30 283 O 28.2237 1.17906 -1.54311 0
M  V30 284 C 25.3537 1.76305 -2.99222 0
M  V30 285 C 24.3077 1.33191 -4.06748 0
M  V30 286 C 23.6337 2.5937 -4.6758 0
M  V30 287 C 24.9337 0.471775 -5.20165 0
M  V30 288 H 26.6277 -0.00763532 -2.99399 0
M  V30 289 H 24.1737 -0.00511229 -1.43999 0
M  V30 290 H 26.1267 2.38097 -3.47689 0
M  V30 291 H 24.8507 2.38223 -2.23422 0
M  V30 292 H 23.5097 0.737121 -3.59113 0
M  V30 293 H 23.1577 3.19576 -3.88433 0
M  V30 294 H 22.8577 2.31228 -5.40192 0
M  V30 295 H 24.3817 3.21985 -5.18804 0
M  V30 296 H 25.7957 0.995056 -5.64599 0
M  V30 297 H 24.1927 0.284639 -5.99425 0
M  V30 298 H 25.2627 -0.506041 -4.82252 0
M  V30 299 N 26.6058 1.57591 -0.0167156 0
M  V30 300 C 27.8308 1.9598 0.67872 0
M  V30 301 C 28.2558 0.892546 1.65575 0
M  V30 302 O 27.6138 -0.147772 1.80697 0
M  V30 303 C 27.6618 3.33468 1.37227 0
M  V30 304 O 26.7658 3.28954 2.48722 0
M  V30 305 H 26.1068 0.639339 0.17928 0
M  V30 306 H 28.6368 2.04463 -0.0748802 0
M  V30 307 H 28.6468 3.69417 1.7319 0
M  V30 308 H 27.3218 4.10694 0.656007 0
M  V30 309 H 25.8988 3.04705 2.14963 0
M  V30 310 N 28.0839 -0.256276 1.55502 0
M  V30 311 C 29.3329 -0.983486 1.76098 0
M  V30 312 C 29.6459 -1.86837 0.578896 0
M  V30 313 O 30.8519 -2.63163 0.667648 0
M  V30 314 C 29.3079 -1.79868 3.1173 0
M  V30 315 C 28.9159 -0.961648 4.37557 0
M  V30 316 C 30.6599 -2.51919 3.41668 0
M  V30 317 C 28.5669 -1.77219 5.64223 0
M  V30 318 H 27.4969 -0.370936 0.656447 0
M  V30 319 H 30.1479 -0.238492 1.81944 0
M  V30 320 H 28.5299 -2.58527 2.99966 0
M  V30 321 H 29.7039 -0.218048 4.60284 0
M  V30 322 H 28.0189 -0.354913 4.14885 0
M  V30 323 H 30.6159 -3.12998 4.33516 0
M  V30 324 H 30.9589 -3.23059 2.62562 0
M  V30 325 H 31.4919 -1.80278 3.54605 0
M  V30 326 H 28.2309 -1.10471 6.46124 0
M  V30 327 H 27.7509 -2.49132 5.45613 0
M  V30 328 H 29.4299 -2.34169 6.03137 0
M  V30 329 N 29.562 -1.4872 -0.521534 0
M  V30 330 C 30.973 -1.50607 -1.10337 0
M  V30 331 C 31.324 -0.280612 -1.94183 0
M  V30 332 O 30.449 0.611507 -2.0758 0
M  V30 333 C 31.044 -2.72903 -2.00772 0
M  V30 334 C 29.603 -2.77634 -2.54158 0
M  V30 335 C 28.75 -2.44241 -1.31307 0
M  V30 336 H 31.701 -1.55714 -0.306388 0
M  V30 337 H 31.722 -2.519 -2.85178 0
M  V30 338 H 31.234 -3.62077 -1.39721 0
M  V30 339 H 29.335 -1.92689 -3.18907 0
M  V30 340 H 29.448 -3.79283 -2.92714 0
M  V30 341 H 27.812 -1.95577 -1.63161 0
M  V30 342 H 28.595 -3.35666 -0.719943 0
M  V30 343 N 31.0401 0.771051 -1.3745 0
M  V30 344 C 32.4511 1.34737 -1.29239 0
M  V30 345 C 32.8021 1.96109 0.0596908 0
M  V30 346 O 31.9271 1.93865 0.961534 0
M  V30 347 C 32.5221 2.44973 -2.34037 0
M  V30 348 C 31.0811 2.98372 -2.29458 0
M  V30 349 C 30.2281 1.71595 -2.17831 0
M  V30 350 H 33.1791 0.571256 -1.48062 0
M  V30 351 H 33.2001 3.24471 -1.98744 0
M  V30 352 H 32.7121 2.00276 -3.32432 0
M  V30 353 H 30.8131 3.47443 -1.34589 0
M  V30 354 H 30.9261 3.53939 -3.229 0
M  V30 355 H 29.2901 1.94547 -1.64388 0
M  V30 356 H 30.0731 1.29001 -3.18141 0
M  V30 357 N 32.5182 1.22032 0.997298 0
M  V30 358 C 33.7642 1.05382 1.73972 0
M  V30 359 C 34.1192 -0.407419 1.88037 0
M  V30 360 O 33.4122 -1.29811 1.40924 0
M  V30 361 C 33.6062 1.69345 3.14733 0
M  V30 362 C 33.4352 3.21537 3.14395 0
M  V30 363 C 32.2052 3.9062 3.20537 0
M  V30 364 C 34.4032 4.18527 2.98897 0
M  V30 365 N 32.3852 5.29935 3.09906 0
M  V30 366 C 33.7562 5.44645 2.96247 0
M  V30 367 C 35.8112 4.09476 2.83255 0
M  V30 368 C 34.5142 6.62752 2.79557 0
M  V30 369 C 36.5402 5.27228 2.67926 0
M  V30 370 C 35.9022 6.52262 2.65959 0
M  V30 371 H 32.0012 0.440018 0.646458 0
M  V30 372 H 34.5852 1.54505 1.18475 0
M  V30 373 H 32.7562 1.22778 3.68484 0
M  V30 374 H 34.4882 1.45828 3.77513 0
M  V30 375 H 31.2432 3.41592 3.28043 0
M  V30 376 H 31.6672 6.02926 3.07912 0
M  V30 377 H 36.3092 3.13598 2.83577 0
M  V30 378 H 34.0272 7.58783 2.77982 0
M  V30 379 H 37.6132 5.22053 2.56812 0
M  V30 380 H 36.4932 7.41844 2.54239 0
M  V30 381 N 33.9963 -1.19345 1.0293 0
M  V30 382 C 34.9063 -2.26245 0.620515 0
M  V30 383 C 35.9223 -1.70486 -0.347928 0
M  V30 384 O 37.0983 -2.00347 -0.205704 0
M  V30 385 C 34.1633 -3.46693 -0.0218957 0
M  V30 386 C 33.2243 -4.17632 0.994102 0
M  V30 387 C 32.4573 -5.32329 0.382253 0
M  V30 388 O 32.6803 -5.64552 -0.814676 0
M  V30 389 O 31.6143 -5.91664 1.10531 0
M  V30 390 H 35.4403 -2.63453 1.51083 0
M  V30 391 H 33.0253 -1.26207 0.799513 0
M  V30 392 H 34.9073 -4.19683 -0.380072 0
M  V30 393 H 33.5823 -3.11333 -0.886209 0
M  V30 394 H 32.4893 -3.4676 1.40387 0
M  V30 395 H 33.8223 -4.56964 1.8288 0
M  V30 396 N 35.4744 -0.807222 -1.35358 0
M  V30 397 C 36.4374 -0.223665 -2.28106 0
M  V30 398 C 37.4374 0.589354 -1.4961 0
M  V30 399 O 38.6274 0.407745 -1.69361 0
M  V30 400 C 35.7594 0.688149 -3.33882 0
M  V30 401 H 36.9524 -1.04169 -2.81227 0
M  V30 402 H 34.5054 -0.577921 -1.45223 0
M  V30 403 H 35.2404 1.52984 -2.85948 0
M  V30 404 H 35.0254 0.10687 -3.91954 0
M  V30 405 H 36.5154 1.09075 -4.03104 0
M  V30 406 N 36.9525 1.47285 -0.560781 0
M  V30 407 C 38.3635 1.86258 -0.128343 0
M  V30 408 C 38.7145 1.46699 1.30284 0
M  V30 409 O 37.8395 0.871698 1.98067 0
M  V30 410 C 38.4345 3.38044 -0.22614 0
M  V30 411 C 36.9935 3.76096 0.151283 0
M  V30 412 C 36.1405 2.71335 -0.572084 0
M  V30 413 H 39.0915 1.38752 -0.770297 0
M  V30 414 H 39.1125 3.76441 0.554322 0
M  V30 415 H 38.6245 3.66806 -1.26788 0
M  V30 416 H 36.7255 3.52951 1.19399 0
M  V30 417 H 36.8385 4.78641 -0.209765 0
M  V30 418 H 35.2025 2.54696 -0.0147653 0
M  V30 419 H 35.9855 3.02938 -1.61504 0
M  V30 420 N 38.4306 0.297415 1.54768 0
M  V30 421 C 39.3776 -0.580276 2.23386 0
M  V30 422 C 40.3476 -1.13238 1.21517 0
M  V30 423 O 41.5326 -1.17757 1.50126 0
M  V30 424 C 38.6726 -1.74801 2.97555 0
M  V30 425 C 37.7856 -1.22764 4.1419 0
M  V30 426 C 36.9206 -2.35895 4.75949 0
M  V30 427 C 35.9596 -1.80974 5.84735 0
M  V30 428 N 35.0966 -2.87664 6.40464 0
M  V30 429 H 39.9366 0.0114833 2.97998 0
M  V30 430 H 37.4736 0.0174361 1.4709 0
M  V30 431 H 39.4316 -2.43475 3.38786 0
M  V30 432 H 38.0616 -2.31145 2.25326 0
M  V30 433 H 37.1136 -0.433271 3.77924 0
M  V30 434 H 38.4256 -0.785551 4.92575 0
M  V30 435 H 37.5796 -3.12523 5.20014 0
M  V30 436 H 36.3186 -2.83429 3.96887 0
M  V30 437 H 35.3236 -1.02834 5.40097 0
M  V30 438 H 36.5486 -1.34348 6.65678 0
M  V30 439 H 34.4946 -3.34538 5.64287 0
M  V30 440 H 34.4116 -2.4794 7.14186 0
M  V30 441 H 35.6796 -3.642 6.89187 0
M  V30 442 N 39.9087 -1.5758 0.0250728 0
M  V30 443 C 40.8187 -2.1343 -0.973905 0
M  V30 444 C 41.8347 -1.08556 -1.35984 0
M  V30 445 O 43.0107 -1.40592 -1.44207 0
M  V30 446 C 40.0757 -2.64703 -2.23904 0
M  V30 447 C 39.1367 -3.84276 -1.91391 0
M  V30 448 C 38.3697 -4.33095 -3.11873 0
M  V30 449 O 38.5927 -3.81107 -4.24398 0
M  V30 450 O 37.5267 -5.24984 -2.94406 0
M  V30 451 H 41.3527 -2.99057 -0.529036 0
M  V30 452 H 38.9377 -1.48118 -0.195288 0
M  V30 453 H 40.8197 -2.97769 -2.98181 0
M  V30 454 H 39.4947 -1.82161 -2.6758 0
M  V30 455 H 38.4017 -3.56143 -1.14511 0
M  V30 456 H 39.7347 -4.67968 -1.52534 0
M  V30 457 N 41.3868 0.248026 -1.55636 0
M  V30 458 C 42.3368 1.30994 -1.86614 0
M  V30 459 C 43.3208 1.43543 -0.726918 0
M  V30 460 O 44.5128 1.46804 -0.988818 0
M  V30 461 C 41.6418 2.6656 -2.16335 0
M  V30 462 C 40.7278 2.58019 -3.36581 0
M  V30 463 N 41.1188 2.1911 -4.55878 0
M  V30 464 C 39.4168 2.89035 -3.39669 0
M  V30 465 C 40.1178 2.21174 -5.38012 0
M  V30 466 N 39.0938 2.60632 -4.77045 0
M  V30 467 H 42.8958 0.999583 -2.76379 0
M  V30 468 H 40.4098 0.456652 -1.55848 0
M  V30 469 H 42.4068 3.43194 -2.36692 0
M  V30 470 H 41.0668 2.98463 -1.27867 0
M  V30 471 H 42.0778 1.90672 -4.81523 0
M  V30 472 H 38.7548 3.25485 -2.61469 0
M  V30 473 H 40.1448 1.9344 -6.43452 0
M  V30 474 N 42.8649 1.48995 0.513639 0
M  V30 475 C 43.8119 1.6473 1.61656 0
M  V30 476 C 44.7819 0.488984 1.58739 0
M  V30 477 O 45.9669 0.714478 1.76918 0
M  V30 478 C 43.1069 1.7082 2.99858 0
M  V30 479 C 42.2199 2.9787 3.12885 0
M  V30 480 C 41.3549 2.95017 4.41744 0
M  V30 481 C 40.3939 4.16702 4.48359 0
M  V30 482 N 39.5309 4.11832 5.68629 0
M  V30 483 H 44.3709 2.58909 1.47547 0
M  V30 484 H 41.9079 1.28382 0.71808 0
M  V30 485 H 43.8659 1.72331 3.79944 0
M  V30 486 H 42.4959 0.801181 3.12699 0
M  V30 487 H 41.5479 3.06029 2.25944 0
M  V30 488 H 42.8599 3.8786 3.13633 0
M  V30 489 H 42.0139 2.95021 5.30139 0
M  V30 490 H 40.7529 2.02784 4.43542 0
M  V30 491 H 39.7579 4.16955 3.58369 0
M  V30 492 H 40.9829 5.10113 4.48287 0
M  V30 493 H 38.9289 3.22428 5.71293 0
M  V30 494 H 38.8459 4.95543 5.7094 0
M  V30 495 H 40.1139 4.1592 6.59266 0
M  V30 496 N 44.343 -0.763751 1.37857 0
M  V30 497 C 45.573 -1.55067 1.3652 0
M  V30 498 C 45.981 -1.89135 -0.0494227 0
M  V30 499 O 45.324 -1.52529 -1.02375 0
M  V30 500 C 45.386 -2.8838 2.14656 0
M  V30 501 C 45.05 -2.76905 3.63555 0
M  V30 502 C 46.047 -2.4739 4.57268 0
M  V30 503 C 43.732 -2.94676 4.06781 0
M  V30 504 C 45.726 -2.35786 5.92186 0
M  V30 505 C 43.413 -2.82692 5.41782 0
M  V30 506 C 44.411 -2.53289 6.34298 0
M  V30 507 O 44.099 -2.41345 7.66817 0
M  V30 508 H 43.831 -0.486776 0.469069 0
M  V30 509 H 46.385 -0.953812 1.81911 0
M  V30 510 H 44.615 -3.50217 1.63967 0
M  V30 511 H 46.304 -3.49828 2.05852 0
M  V30 512 H 47.07 -2.33339 4.2518 0
M  V30 513 H 42.949 -3.16563 3.35126 0
M  V30 514 H 46.493 -2.12757 6.64365 0
M  V30 515 H 42.39 -2.96314 5.7347 0
M  V30 516 H 43.158 -2.56634 7.77226 0
M  V30 517 N 45.8211 -1.22559 -0.990812 0
M  V30 518 C 46.7681 -0.997519 -2.0813 0
M  V30 519 C 47.7381 0.0814702 -1.659 0
M  V30 520 O 48.9231 -0.0685424 -1.90677 0
M  V30 521 C 46.0631 -0.583615 -3.40129 0
M  V30 522 C 45.1761 -1.7336 -3.9569 0
M  V30 523 C 44.3111 -1.26748 -5.15857 0
M  V30 524 C 43.3501 -2.38888 -5.63559 0
M  V30 525 N 42.4871 -1.93308 -6.74964 0
M  V30 526 H 47.3271 -1.93099 -2.26973 0
M  V30 527 H 44.8641 -0.962114 -1.11273 0
M  V30 528 H 46.8221 -0.324801 -4.15934 0
M  V30 529 H 45.4521 0.312845 -3.2128 0
M  V30 530 H 44.5041 -2.10669 -3.16738 0
M  V30 531 H 45.8161 -2.57704 -4.27071 0
M  V30 532 H 44.9701 -0.966173 -5.98957 0
M  V30 533 H 43.7091 -0.394272 -4.86104 0
M  V30 534 H 42.7141 -2.69805 -4.79046 0
M  V30 535 H 43.9391 -3.26728 -5.95336 0
M  V30 536 H 41.8851 -1.08352 -6.4699 0
M  V30 537 H 41.8021 -2.71217 -7.05675 0
M  V30 538 H 43.0701 -1.66252 -7.61564 0
M  V30 539 N 47.2992 1.18797 -1.03562 0
M  V30 540 C 48.2622 2.20464 -0.626769 0
M  V30 541 C 49.2622 1.57721 0.313173 0
M  V30 542 O 50.4522 1.73917 0.0992615 0
M  V30 543 C 47.5842 3.40802 0.0818498 0
M  V30 544 H 48.7772 2.58149 -1.5264 0
M  V30 545 H 46.3302 1.32593 -0.827578 0
M  V30 546 H 47.0652 3.08642 0.995518 0
M  V30 547 H 46.8502 3.8758 -0.593652 0
M  V30 548 H 48.3402 4.16092 0.354584 0
M  V30 549 N 48.7773 0.814389 1.34928 0
M  V30 550 C 49.6873 0.231978 2.3345 0
M  V30 551 C 50.7033 -0.629139 1.62228 0
M  V30 552 O 51.8793 -0.539052 1.94052 0
M  V30 553 C 48.9443 -0.603482 3.41407 0
M  V30 554 C 48.0053 0.279037 4.28392 0
M  V30 555 C 47.2383 -0.516643 5.31193 0
M  V30 556 O 47.4613 -1.75068 5.4287 0
M  V30 557 O 46.3953 0.0965652 6.01823 0
M  V30 558 H 50.2213 1.04721 2.85074 0
M  V30 559 H 47.8063 0.576343 1.37836 0
M  V30 560 H 49.6883 -1.07908 4.0735 0
M  V30 561 H 48.3633 -1.39618 2.92042 0
M  V30 562 H 47.2703 0.801948 3.65403 0
M  V30 563 H 48.6033 1.03588 4.81176 0
M  V30 564 N 50.2554 -1.46986 0.568584 0
M  V30 565 C 51.1654 -2.33942 -0.17555 0
M  V30 566 C 52.1814 -1.48891 -0.90041 0
M  V30 567 O 53.3574 -1.81794 -0.86676 0
M  V30 568 C 50.4224 -3.25811 -1.18524 0
M  V30 569 C 49.4834 -4.26757 -0.466582 0
M  V30 570 C 48.7164 -5.14236 -1.42817 0
M  V30 571 O 48.9394 -5.04379 -2.66379 0
M  V30 572 O 47.8734 -5.94412 -0.946453 0
M  V30 573 H 51.6994 -2.98896 0.538036 0
M  V30 574 H 49.2844 -1.4573 0.329097 0
M  V30 575 H 51.1664 -3.82527 -1.76779 0
M  V30 576 H 49.8414 -2.63471 -1.88055 0
M  V30 577 H 48.7484 -3.73769 0.157451 0
M  V30 578 H 50.0814 -4.91843 0.187485 0
M  V30 579 N 51.7335 -0.305618 -1.54608 0
M  V30 580 C 52.6835 0.583595 -2.20405 0
M  V30 581 C 53.6675 1.09539 -1.17856 0
M  V30 582 O 54.8595 1.0354 -1.43557 0
M  V30 583 C 51.9885 1.75277 -2.95183 0
M  V30 584 C 51.0745 1.25672 -4.05052 0
M  V30 585 N 51.4655 0.478998 -5.03527 0
M  V30 586 C 49.7635 1.53704 -4.18678 0
M  V30 587 C 50.4645 0.214269 -5.81305 0
M  V30 588 N 49.4405 0.795374 -5.3775 0
M  V30 589 H 53.2425 -0.0180946 -2.93894 0
M  V30 590 H 50.7565 -0.110601 -1.62023 0
M  V30 591 H 52.7535 2.4014 -3.40791 0
M  V30 592 H 51.4135 2.35812 -2.23211 0
M  V30 593 H 52.4245 0.123473 -5.17753 0
M  V30 594 H 49.1015 2.14954 -3.57912 0
M  V30 595 H 50.4915 -0.410656 -6.70644 0
M  V30 596 N 53.2116 1.57565 -0.0334293 0
M  V30 597 C 54.4396 1.9628 0.654347 0
M  V30 598 C 54.8546 0.910138 1.65414 0
M  V30 599 O 54.2116 -0.107595 1.82183 0
M  V30 600 C 54.2626 3.35067 1.35693 0
M  V30 601 O 53.9836 4.36296 0.397191 0
M  V30 602 C 55.4846 3.88439 2.13613 0
M  V30 603 H 52.7046 0.646369 0.180132 0
M  V30 604 H 55.2486 2.04282 -0.0944721 0
M  V30 605 H 53.4036 3.2827 2.05712 0
M  V30 606 H 53.8176 5.1678 0.896597 0
M  V30 607 H 55.2916 4.8788 2.58219 0
M  V30 608 H 55.7686 3.22914 2.97696 0
M  V30 609 H 56.3746 3.98516 1.48543 0
M  V30 610 N 54.6897 -0.239769 1.55765 0
M  V30 611 C 55.9357 -0.968234 1.78194 0
M  V30 612 C 56.2687 -1.84701 0.599938 0
M  V30 613 O 55.5437 -1.9031 -0.401524 0
M  V30 614 C 55.8267 -1.8227 3.10564 0
M  V30 615 C 55.6797 -0.971633 4.3918 0
M  V30 616 C 56.9987 -2.80388 3.39221 0
M  V30 617 H 54.1177 -0.350572 0.648281 0
M  V30 618 H 56.7597 -0.238259 1.885 0
M  V30 619 H 54.9097 -2.44507 3.01908 0
M  V30 620 H 56.5817 -0.367408 4.59835 0
M  V30 621 H 54.8247 -0.276276 4.32919 0
M  V30 622 H 55.4957 -1.60346 5.28198 0
M  V30 623 H 57.9717 -2.28287 3.47885 0
M  V30 624 H 56.8477 -3.3729 4.33044 0
M  V30 625 H 57.1087 -3.57212 2.60484 0
M  V30 626 N 56.1678 -1.49265 -0.50573 0
M  V30 627 C 57.4138 -1.58748 -1.26202 0
M  V30 628 C 57.7468 -0.271227 -1.92297 0
M  V30 629 O 57.0218 0.724831 -1.80489 0
M  V30 630 C 57.3048 -2.74332 -2.33268 0
M  V30 631 C 57.1578 -4.15737 -1.71705 0
M  V30 632 C 58.4768 -2.85576 -3.34865 0
M  V30 633 H 55.5958 -0.577826 -0.457478 0
M  V30 634 H 58.2378 -1.81532 -0.560897 0
M  V30 635 H 56.3878 -2.55036 -2.93068 0
M  V30 636 H 58.0598 -4.46537 -1.15769 0
M  V30 637 H 56.3028 -4.21605 -1.02135 0
M  V30 638 H 56.9738 -4.92477 -2.49341 0
M  V30 639 H 59.4498 -3.03127 -2.8505 0
M  V30 640 H 58.3258 -3.68135 -4.07146 0
M  V30 641 H 58.5868 -1.94732 -3.96903 0
M  V30 642 N 57.6459 0.756429 -1.3826 0
M  V30 643 C 58.5759 1.88374 -1.37976 0
M  V30 644 C 59.5569 1.68311 -0.246082 0
M  V30 645 O 60.7419 1.88944 -0.44874 0
M  V30 646 C 57.8719 3.25864 -1.20125 0
M  V30 647 C 56.8259 3.60523 -2.30666 0
M  V30 648 C 56.1519 4.9672 -1.97923 0
M  V30 649 C 57.4519 3.65692 -3.72916 0
M  V30 650 H 59.1459 1.88869 -2.32312 0
M  V30 651 H 56.6919 0.907272 -1.11824 0
M  V30 652 H 58.6449 4.0438 -1.18552 0
M  V30 653 H 57.3689 3.25841 -0.222498 0
M  V30 654 H 56.0279 2.84324 -2.3142 0
M  V30 655 H 55.6759 4.93253 -0.985393 0
M  V30 656 H 55.3759 5.20878 -2.71955 0
M  V30 657 H 56.8999 5.77618 -1.97964 0
M  V30 658 H 58.3139 4.34328 -3.74208 0
M  V30 659 H 56.7109 4.01358 -4.4613 0
M  V30 660 H 57.7809 2.65987 -4.05436 0
M  V30 661 N 59.124 1.23083 0.984299 0
M  V30 662 C 60.352 1.08714 1.76037 0
M  V30 663 C 60.767 -0.361691 1.85303 0
M  V30 664 O 60.124 -1.25034 1.32939 0
M  V30 665 C 60.175 1.70206 3.18923 0
M  V30 666 O 59.896 3.09423 3.10144 0
M  V30 667 C 61.397 1.61227 4.12941 0
M  V30 668 H 58.617 0.380664 0.552572 0
M  V30 669 H 61.161 1.62853 1.23689 0
M  V30 670 H 59.316 1.20109 3.6831 0
M  V30 671 H 59.73 3.39188 4.00065 0
M  V30 672 H 61.204 2.08962 5.10919 0
M  V30 673 H 61.681 0.570375 4.35481 0
M  V30 674 H 62.287 2.10671 3.69456 0
M  V30 675 N 60.6021 -1.18246 1.0419 0
M  V30 676 C 61.8481 -1.88536 0.747122 0
M  V30 677 C 62.1811 -1.80223 -0.723409 0
M  V30 678 O 61.4561 -1.20337 -1.52804 0
M  V30 679 C 61.7391 -3.38968 1.21544 0
M  V30 680 C 61.5921 -3.56084 2.74816 0
M  V30 681 C 62.9111 -4.32648 0.806482 0
M  V30 682 H 60.0301 -0.684619 0.272883 0
M  V30 683 H 62.6721 -1.39113 1.29413 0
M  V30 684 H 60.8221 -3.8119 0.750081 0
M  V30 685 H 62.4941 -3.22946 3.29399 0
M  V30 686 H 60.7371 -2.98699 3.14582 0
M  V30 687 H 61.4081 -4.61639 3.02644 0
M  V30 688 H 63.8841 -3.98211 1.20695 0
M  V30 689 H 62.7601 -5.36462 1.1619 0
M  V30 690 H 63.0211 -4.41146 -0.29029 0
M  V30 691 N 62.0802 -0.821533 -1.34494 0
M  V30 692 C 63.3082 -0.421884 -2.02553 0
M  V30 693 C 63.7232 0.971745 -1.61872 0
M  V30 694 O 63.0802 1.62864 -0.823496 0
M  V30 695 C 63.1312 -0.51285 -3.57844 0
M  V30 696 O 62.8522 -1.85155 -3.97051 0
M  V30 697 C 64.3532 -0.107921 -4.43169 0
M  V30 698 H 61.5732 -0.169482 -0.649243 0
M  V30 699 H 64.1172 -1.1093 -1.71798 0
M  V30 700 H 62.2722 0.126474 -3.87193 0
M  V30 701 H 62.6862 -1.82482 -4.91732 0
M  V30 702 H 64.1602 -0.222657 -5.51551 0
M  V30 703 H 64.6372 0.948401 -4.28838 0
M  V30 704 H 65.2432 -0.720989 -4.19144 0
M  V30 705 N 63.5583 1.46682 -0.576371 0
M  V30 706 C 64.8063 2.02013 -0.0594163 0
M  V30 707 C 65.1273 1.45101 1.30271 0
M  V30 708 O 64.3973 0.633317 1.8538 0
M  V30 709 H 62.9773 0.746759 -0.0189745 0
M  V30 710 H 65.6393 1.79862 -0.750717 0
M  V30 711 H 64.7353 3.12097 0.014345 0
M  V30 712 N 65.0364 0.313813 1.54444 0
M  V30 713 C 65.9464 -0.565714 2.27677 0
M  V30 714 C 66.9624 -1.13754 1.31666 0
M  V30 715 O 68.1384 -1.15959 1.64668 0
M  V30 716 C 65.2034 -1.71528 3.01296 0
M  V30 717 C 64.2644 -1.17624 4.12872 0
M  V30 718 C 63.4974 -2.27102 4.8297 0
M  V30 719 O 63.7204 -3.47256 4.52514 0
M  V30 720 O 62.6544 -1.9307 5.70094 0
M  V30 721 H 66.4804 0.0287296 3.03686 0
M  V30 722 H 64.0654 0.0798312 1.49187 0
M  V30 723 H 65.9474 -2.38476 3.4743 0
M  V30 724 H 64.6224 -2.29608 2.2817 0
M  V30 725 H 63.5294 -0.472124 3.71109 0
M  V30 726 H 64.8624 -0.640695 4.88012 0
M  V30 727 N 66.5145 -1.57545 0.0417849 0
M  V30 728 C 67.9255 -1.80011 -0.495259 0
M  V30 729 C 68.2765 -0.953199 -1.71489 0
M  V30 730 O 67.4015 -0.167138 -2.15754 0
M  V30 731 C 67.9965 -3.26482 -0.905265 0
M  V30 732 C 66.5555 -3.499 -1.38734 0
M  V30 733 C 65.7025 -2.74979 -0.358056 0
M  V30 734 H 68.6535 -1.56425 0.267736 0
M  V30 735 H 68.6745 -3.36887 -1.76882 0
M  V30 736 H 68.1865 -3.88096 -0.017401 0
M  V30 737 H 66.2875 -2.93553 -2.29471 0
M  V30 738 H 66.4005 -4.58615 -1.38598 0
M  V30 739 H 64.7645 -2.40834 -0.828912 0
M  V30 740 H 65.5475 -3.39315 0.521561 0
M  V30 741 N 67.9926 0.231505 -1.5589 0
M  V30 742 C 69.2326 0.964533 -1.80211 0
M  V30 743 C 69.5966 1.81926 -0.613744 0
M  V30 744 O 70.7976 2.58526 -0.736045 0
M  V30 745 C 69.0686 1.78956 -3.09369 0
M  V30 746 S 70.6276 2.57959 -3.54969 0
M  V30 747 H 67.4456 0.324173 -0.632798 0
M  V30 748 H 70.0476 0.230985 -1.94131 0
M  V30 749 H 68.7516 1.15161 -3.93911 0
M  V30 750 H 68.2826 2.56559 -2.9823 0
M  V30 751 H 70.2976 3.81309 -3.17519 0
M  V30 752 N 69.4707 1.49531 0.497807 0
M  V30 753 C 70.4207 1.62829 1.59596 0
M  V30 754 C 71.4047 0.483824 1.53453 0
M  V30 755 O 72.5967 0.736937 1.60929 0
M  V30 756 C 69.7257 1.7011 2.98191 0
M  V30 757 C 68.8117 2.90144 3.09317 0
M  V30 758 N 69.2027 4.1418 2.90324 0
M  V30 759 C 67.5007 2.88148 3.40422 0
M  V30 760 C 68.2017 4.94886 3.05717 0
M  V30 761 N 67.1777 4.28314 3.34736 0
M  V30 762 H 70.9797 2.56446 1.4357 0
M  V30 763 H 68.4937 1.46347 0.704001 0
M  V30 764 H 70.4907 1.77735 3.77115 0
M  V30 765 H 69.1507 0.776315 3.15283 0
M  V30 766 H 70.1617 4.44109 2.66436 0
M  V30 767 H 66.8387 2.05061 3.63671 0
M  V30 768 H 68.2287 6.03432 2.95499 0
M  V30 769 N 70.9488 -0.749086 1.3866 0
M  V30 770 C 72.1958 -1.50833 1.35114 0
M  V30 771 C 72.5238 -1.94415 -0.0574049 0
M  V30 772 O 71.7788 -1.66065 -1.03541 0
M  V30 773 C 72.0778 -2.7712 2.25697 0
M  V30 774 C 71.7438 -2.52477 3.73585 0
M  V30 775 C 70.4058 -2.45466 4.13884 0
M  V30 776 C 72.7578 -2.31066 4.67181 0
M  V30 777 C 70.0858 -2.15064 5.45861 0
M  V30 778 C 72.4378 -2.02183 5.9942 0
M  V30 779 C 71.1018 -1.93631 6.38798 0
M  V30 780 H 70.3718 -0.551936 0.494416 0
M  V30 781 H 73.0188 -0.860979 1.71054 0
M  V30 782 H 71.3238 -3.46528 1.82827 0
M  V30 783 H 73.0208 -3.35096 2.20254 0
M  V30 784 H 69.6108 -2.58807 3.41638 0
M  V30 785 H 73.7948 -2.35459 4.3689 0
M  V30 786 H 69.0508 -2.06954 5.75308 0
M  V30 787 H 73.2248 -1.8462 6.71482 0
M  V30 788 H 70.8518 -1.69839 7.40985 0
M  V30 789 N 72.4269 -1.23603 -0.977757 0
M  V30 790 C 73.8379 -1.06424 -1.53398 0
M  V30 791 C 74.1889 0.367578 -1.92726 0
M  V30 792 O 73.3139 1.25465 -1.76316 0
M  V30 793 C 73.9089 -1.92568 -2.78753 0
M  V30 794 C 72.4679 -1.79642 -3.30765 0
M  V30 795 C 71.6149 -1.88111 -2.03739 0
M  V30 796 H 74.5659 -1.37227 -0.797152 0
M  V30 797 H 74.5869 -1.45203 -3.51705 0
M  V30 798 H 74.0989 -2.96771 -2.50098 0
M  V30 799 H 72.1999 -0.782325 -3.64294 0
M  V30 800 H 72.3129 -2.63174 -4.00345 0
M  V30 801 H 70.6769 -1.31723 -2.17994 0
M  V30 802 H 71.4599 -2.93875 -1.77461 0
M  V30 803 N 73.905 1.17692 -1.04816 0
M  V30 804 C 75.152 1.87859 -0.75599 0
M  V30 805 C 75.48 1.80812 0.716752 0
M  V30 806 O 74.735 1.20819 1.53952 0
M  V30 807 C 75.034 3.37462 -1.17703 0
M  V30 808 C 74.7 3.64713 -2.65133 0
M  V30 809 C 73.362 3.71859 -3.05408 0
M  V30 810 C 75.714 3.76492 -3.60421 0
M  V30 811 C 73.042 3.88271 -4.39843 0
M  V30 812 C 75.394 3.94421 -4.94585 0
M  V30 813 C 74.058 3.99806 -5.3452 0
M  V30 814 H 73.328 0.687425 -0.276636 0
M  V30 815 H 75.975 1.39255 -1.31455 0
M  V30 816 H 74.28 3.88097 -0.537395 0
M  V30 817 H 75.977 3.90109 -0.928218 0
M  V30 818 H 72.567 3.59772 -2.32942 0
M  V30 819 H 76.751 3.70295 -3.30447 0
M  V30 820 H 72.007 3.90687 -4.70291 0
M  V30 821 H 76.181 4.02477 -5.68318 0
M  V30 822 H 73.808 4.12276 -6.38696 0
M  V30 823 N 75.3831 0.828654 1.34056 0
M  V30 824 C 76.3151 0.212052 2.28217 0
M  V30 825 C 77.3281 -0.601362 1.51286 0
M  V30 826 O 78.5171 -0.430104 1.73241 0
M  V30 827 C 75.6171 -0.72088 3.31144 0
M  V30 828 C 74.7901 0.0509587 4.3737 0
M  V30 829 C 73.8491 -0.803766 5.20025 0
M  V30 830 O 72.8751 -0.246667 5.68665 0
M  V30 831 N 74.0771 -2.1227 5.40298 0
M  V30 832 H 76.8421 1.02105 2.81771 0
M  V30 833 H 74.4031 0.686153 1.46641 0
M  V30 834 H 76.3951 -1.29742 3.8334 0
M  V30 835 H 74.9651 -1.43061 2.77943 0
M  V30 836 H 74.1851 0.808831 3.85813 0
M  V30 837 H 75.4731 0.582065 5.0546 0
M  V30 838 H 74.8711 -2.59898 5.02464 0
M  V30 839 H 73.4281 -2.64796 5.95589 0
M  V30 840 N 76.8612 -1.46375 0.584142 0
M  V30 841 C 78.0912 -2.06461 0.0758195 0
M  V30 842 C 78.4992 -1.43322 -1.23512 0
M  V30 843 O 77.8422 -0.533216 -1.75791 0
M  V30 844 C 77.9042 -3.59131 -0.162773 0
M  V30 845 C 77.5682 -4.4447 1.06279 0
M  V30 846 C 78.5652 -4.80918 1.97519 0
M  V30 847 C 76.2502 -4.85584 1.28504 0
M  V30 848 C 78.2442 -5.57309 3.09331 0
M  V30 849 C 75.9312 -5.61734 2.4062 0
M  V30 850 C 76.9292 -5.9751 3.30863 0
M  V30 851 O 76.6172 -6.72121 4.41032 0
M  V30 852 H 76.3492 -0.673745 0.0551725 0
M  V30 853 H 78.9032 -1.88969 0.804984 0
M  V30 854 H 77.1332 -3.74936 -0.946565 0
M  V30 855 H 78.8222 -4.0114 -0.619782 0
M  V30 856 H 79.5882 -4.49732 1.81565 0
M  V30 857 H 75.4672 -4.57187 0.591702 0
M  V30 858 H 79.0112 -5.85152 3.79793 0
M  V30 859 H 74.9082 -5.92334 2.56537 0
M  V30 860 H 75.6762 -6.90547 4.39417 0
M  V30 861 N 78.3393 -0.321999 -1.54275 0
M  V30 862 C 79.2893 0.560185 -2.21011 0
M  V30 863 C 80.2733 1.08283 -1.19011 0
M  V30 864 O 81.4653 1.02011 -1.44647 0
M  V30 865 C 78.5943 1.72137 -2.97025 0
M  V30 866 C 77.6803 1.21369 -4.06363 0
M  V30 867 N 78.0713 0.425566 -5.04007 0
M  V30 868 C 76.3693 1.49255 -4.20284 0
M  V30 869 C 77.0703 0.152601 -5.815 0
M  V30 870 N 76.0463 0.738294 -5.38563 0
M  V30 871 H 79.8483 -0.049265 -2.93859 0
M  V30 872 H 77.3623 -0.127779 -1.61897 0
M  V30 873 H 79.3593 2.36512 -3.43319 0
M  V30 874 H 78.0193 2.33431 -2.25699 0
M  V30 875 H 79.0303 0.068551 -5.17855 0
M  V30 876 H 75.7073 2.11145 -3.60172 0
M  V30 877 H 77.0973 -0.481764 -6.70171 0
M  V30 878 N 79.8174 1.5752 -0.0501392 0
M  V30 879 C 81.2334 1.56631 0.306402 0
M  V30 880 C 81.4334 1.0577 1.71508 0
M  V30 881 O 80.4894 0.713837 2.422 0
M  V30 882 C 81.8024 3.00393 0.135811 0
M  V30 883 C 83.3504 3.12315 0.206993 0
M  V30 884 C 83.8254 4.57954 0.064944 0
M  V30 885 N 85.3164 4.63041 0.121254 0
M  V30 886 C 86.0514 5.73389 0.0354381 0
M  V30 887 N 85.5474 6.92724 -0.102666 0
M  V30 888 N 87.3404 5.62026 0.090946 0
M  V30 889 H 79.4914 1.88903 -0.971046 0
M  V30 890 H 81.7544 0.869876 -0.376855 0
M  V30 891 H 81.4604 3.41635 -0.835384 0
M  V30 892 H 81.3344 3.66373 0.897275 0
M  V30 893 H 83.7214 2.70973 1.16866 0
M  V30 894 H 83.8024 2.49016 -0.585208 0
M  V30 895 H 83.4464 4.99981 -0.893394 0
M  V30 896 H 83.3764 5.19258 0.876277 0
M  V30 897 H 85.8674 3.77216 0.227284 0
M  V30 898 H 86.1804 7.72633 -0.160882 0
M  V30 899 H 84.5254 6.94864 -0.137737 0
M  V30 900 H 87.7164 4.67684 0.197388 0
M  V30 901 H 87.8894 6.47997 0.0206089 0
M  V30 902 N 81.2955 -0.223234 1.56011 0
M  V30 903 C 82.2275 -1.30006 1.88762 0
M  V30 904 C 83.2405 -1.43129 0.775746 0
M  V30 905 O 84.4295 -1.44057 1.05403 0
M  V30 906 C 81.5295 -2.67589 2.07965 0
M  V30 907 C 80.7025 -2.76434 3.38973 0
M  V30 908 C 79.7615 -3.95019 3.47629 0
M  V30 909 O 78.7875 -3.83436 4.20672 0
M  V30 910 N 79.9895 -5.09249 2.78649 0
M  V30 911 H 82.7545 -1.02238 2.81722 0
M  V30 912 H 80.3155 -0.413278 1.56536 0
M  V30 913 H 82.3075 -3.45297 2.11073 0
M  V30 914 H 80.8775 -2.87964 1.21638 0
M  V30 915 H 80.0975 -1.85216 3.47978 0
M  V30 916 H 81.3855 -2.79313 4.25278 0
M  V30 917 H 80.7835 -5.21556 2.19081 0
M  V30 918 H 79.3405 -5.85007 2.8742 0
M  V30 919 N 82.7736 -1.49793 -0.48987 0
M  V30 920 C 83.7036 -1.70201 -1.59856 0
M  V30 921 C 84.6846 -0.55076 -1.60937 0
M  V30 922 O 85.8696 -0.787841 -1.77501 0
M  V30 923 C 82.9996 -1.77882 -2.98287 0
M  V30 924 C 81.9536 -2.92907 -3.12073 0
M  V30 925 C 81.2796 -2.85712 -4.51965 0
M  V30 926 C 82.5796 -4.3369 -2.91051 0
M  V30 927 H 84.2736 -2.63025 -1.43032 0
M  V30 928 H 81.8196 -1.26574 -0.686664 0
M  V30 929 H 83.7726 -1.90744 -3.75759 0
M  V30 930 H 82.4966 -0.816653 -3.16225 0
M  V30 931 H 81.1556 -2.79665 -2.37029 0
M  V30 932 H 80.8036 -1.8738 -4.66795 0
M  V30 933 H 80.5036 -3.62921 -4.62128 0
M  V30 934 H 82.0276 -3.00598 -5.31482 0
M  V30 935 H 83.4416 -4.47555 -3.58284 0
M  V30 936 H 81.8386 -5.12205 -3.12675 0
M  V30 937 H 82.9086 -4.47362 -1.87071 0
M  V30 938 N 84.2517 0.741722 -1.39055 0
M  V30 939 C 85.4817 1.52876 -1.3897 0
M  V30 940 C 85.8897 1.8919 0.0193266 0
M  V30 941 O 85.2327 1.54138 0.999356 0
M  V30 942 C 85.2947 2.84929 -2.19216 0
M  V30 943 C 84.9587 2.71086 -3.67915 0
M  V30 944 C 85.9557 2.40084 -4.61146 0
M  V30 945 C 83.6407 2.88168 -4.11418 0
M  V30 946 C 85.6347 2.26335 -5.95862 0
M  V30 947 C 83.3217 2.74037 -5.46211 0
M  V30 948 C 84.3197 2.43166 -6.38247 0
M  V30 949 O 84.0077 2.29115 -7.70559 0
M  V30 950 H 83.7397 0.479252 -0.476753 0
M  V30 951 H 86.2937 0.924751 -1.83405 0
M  V30 952 H 84.5237 3.47564 -1.69518 0
M  V30 953 H 86.2127 3.46509 -2.11392 0
M  V30 954 H 86.9787 2.26545 -4.28838 0
M  V30 955 H 82.8577 3.11191 -3.40119 0
M  V30 956 H 86.4017 2.0216 -6.67665 0
M  V30 957 H 82.2987 2.87153 -5.78112 0
M  V30 958 H 83.0667 2.44237 -7.81211 0
M  V30 959 N 85.7298 1.2412 0.971189 0
M  V30 960 C 86.6798 0.997551 2.05019 0
M  V30 961 C 87.6638 -0.0597747 1.60789 0
M  V30 962 O 88.8558 0.153516 1.76333 0
M  V30 963 C 85.9848 0.600557 3.38006 0
M  V30 964 C 85.0708 1.69377 3.88809 0
M  V30 965 N 85.4618 2.92586 4.12586 0
M  V30 966 C 83.7598 1.57048 4.17435 0
M  V30 967 C 84.4608 3.63431 4.54195 0
M  V30 968 N 83.4368 2.90979 4.59165 0
M  V30 969 H 87.2388 1.93316 2.21374 0
M  V30 970 H 84.7528 1.14194 1.1547 0
M  V30 971 H 86.7498 0.40725 4.14906 0
M  V30 972 H 85.4098 -0.327903 3.2304 0
M  V30 973 H 86.4208 3.288 4.00139 0
M  V30 974 H 83.0978 0.709798 4.11422 0
M  V30 975 H 84.4878 4.69102 4.81033 0
M  V30 976 N 87.2079 -1.17134 1.05439 0
M  V30 977 C 88.1549 -2.21235 0.657539 0
M  V30 978 C 89.1249 -1.62551 -0.341543 0
M  V30 979 O 90.3099 -1.89379 -0.232393 0
M  V30 980 C 87.4499 -3.45076 0.0410575 0
M  V30 981 C 86.5629 -4.18042 1.08927 0
M  V30 982 C 85.6979 -5.29376 0.439848 0
M  V30 983 C 84.7369 -5.94132 1.4722 0
M  V30 984 N 83.8739 -6.96975 0.846756 0
M  V30 985 H 88.7139 -2.54534 1.54972 0
M  V30 986 H 86.2509 -1.25028 0.775006 0
M  V30 987 H 88.2089 -4.15862 -0.33383 0
M  V30 988 H 86.8389 -3.12353 -0.814568 0
M  V30 989 H 85.8909 -3.45945 1.58196 0
M  V30 990 H 87.2029 -4.62306 1.87282 0
M  V30 991 H 86.3569 -6.06699 0.0115125 0
M  V30 992 H 85.0959 -4.86251 -0.375656 0
M  V30 993 H 84.1009 -5.15538 1.91052 0
M  V30 994 H 85.3259 -6.39337 2.28965 0
M  V30 995 H 83.2719 -6.5598 0.0518075 0
M  V30 996 H 83.1889 -7.39565 1.5678 0
M  V30 997 H 84.4569 -7.78239 0.443277 0
M  V30 998 N 88.686 -0.835752 -1.33615 0
M  V30 999 C 89.926 -0.43599 -1.99696 0
M  V30 1000 C 90.29 0.98557 -1.64774 0
M  V30 1001 O 91.491 1.48889 -2.23798 0
M  V30 1002 C 89.762 -0.646721 -3.515 0
M  V30 1003 S 91.321 -0.341715 -4.37467 0
M  V30 1004 H 88.139 -0.164136 -0.691795 0
M  V30 1005 H 90.741 -1.08436 -1.62671 0
M  V30 1006 H 89.445 -1.68077 -3.74404 0
M  V30 1007 H 88.976 0.0159173 -3.93397 0
M  V30 1008 H 90.991 0.839708 -4.89043 0
M  V30 1009 N 90.1641 1.46063 -0.591896 0
M  V30 1010 C 91.3921 2.06717 -0.0868936 0
M  V30 1011 C 91.8071 1.43916 1.22203 0
M  V30 1012 O 91.1641 0.547698 1.74088 0
M  V30 1013 C 91.2151 3.6142 0.0758725 0
M  V30 1014 O 90.9361 4.21874 -1.18126 0
M  V30 1015 C 92.4371 4.39025 0.61416 0
M  V30 1016 H 89.6571 0.668162 -0.0616518 0
M  V30 1017 H 92.2011 1.8755 -0.815175 0
M  V30 1018 H 90.3561 3.79983 0.754413 0
M  V30 1019 H 90.7701 5.14861 -1.00092 0
M  V30 1020 H 92.2441 5.4783 0.677193 0
M  V30 1021 H 92.7211 4.07708 1.63312 0
M  V30 1022 H 93.3271 4.2529 -0.0298142 0
M  V30 1023 N 91.6422 0.330177 1.54103 0
M  V30 1024 C 92.5922 -0.548456 2.21305 0
M  V30 1025 C 93.5762 -1.07651 1.19583 0
M  V30 1026 O 94.7682 -1.01243 1.45186 0
M  V30 1027 C 91.8972 -1.70559 2.97934 0
M  V30 1028 C 90.9832 -1.19212 4.07 0
M  V30 1029 N 91.3742 -0.398831 5.04225 0
M  V30 1030 C 89.6722 -1.47024 4.2107 0
M  V30 1031 C 90.3732 -0.121761 5.81573 0
M  V30 1032 N 89.3492 -0.709722 5.38947 0
M  V30 1033 H 93.1512 0.0648483 2.93828 0
M  V30 1034 H 90.6652 0.136363 1.61826 0
M  V30 1035 H 92.6622 -2.34688 3.44568 0
M  V30 1036 H 91.3222 -2.32231 2.26934 0
M  V30 1037 H 92.3332 -0.0410869 5.17884 0
M  V30 1038 H 89.0102 -2.09232 3.61287 0
M  V30 1039 H 90.4002 0.517298 6.69906 0
M  V30 1040 N 93.1203 -1.57491 0.0584922 0
M  V30 1041 C 94.0673 -2.11958 -0.913376 0
M  V30 1042 C 95.0373 -1.02875 -1.30407 0
M  V30 1043 O 96.2223 -1.30464 -1.39226 0
M  V30 1044 C 93.3623 -2.67497 -2.18035 0
M  V30 1045 C 92.4753 -3.90691 -1.84349 0
M  V30 1046 C 91.6103 -4.3452 -3.05559 0
M  V30 1047 C 90.6493 -5.50395 -2.67827 0
M  V30 1048 N 89.7863 -5.89244 -3.81754 0
M  V30 1049 H 94.6263 -2.94704 -0.442017 0
M  V30 1050 H 92.1633 -1.45643 -0.206545 0
M  V30 1051 H 94.1213 -2.978 -2.92183 0
M  V30 1052 H 92.7513 -1.87537 -2.62735 0
M  V30 1053 H 91.8033 -3.66934 -1.00319 0
M  V30 1054 H 93.1153 -4.7489 -1.5258 0
M  V30 1055 H 92.2693 -4.66414 -3.87998 0
M  V30 1056 H 91.0083 -3.49147 -3.40511 0
M  V30 1057 H 90.0133 -5.18165 -1.83806 0
M  V30 1058 H 91.2383 -6.3749 -2.34059 0
M  V30 1059 H 89.1843 -5.06823 -4.16493 0
M  V30 1060 H 89.1013 -6.68151 -3.53708 0
M  V30 1061 H 90.3693 -6.25756 -4.64811 0
M  V30 1062 N 94.5984 0.214957 -1.56127 0
M  V30 1063 C 95.8464 0.936518 -1.79091 0
M  V30 1064 C 96.1674 1.84606 -0.628148 0
M  V30 1065 O 95.4374 1.92664 0.35462 0
M  V30 1066 H 94.0174 0.3488 -0.660566 0
M  V30 1067 H 96.6794 0.22523 -1.93594 0
M  V30 1068 H 95.7754 1.53943 -2.71492 0
M  V30 1069 N 96.0765 1.50051 0.48192 0
M  V30 1070 C 97.4925 1.37237 0.814756 0
M  V30 1071 C 97.6925 0.420109 1.97072 0
M  V30 1072 O 96.7485 -0.141246 2.52105 0
M  V30 1073 C 98.0615 2.78375 1.13701 0
M  V30 1074 C 99.6095 2.87213 1.2441 0
M  V30 1075 C 100.084 4.29161 1.59954 0
M  V30 1076 N 101.575 4.32061 1.66967 0
M  V30 1077 C 102.31 5.38879 1.95952 0
M  V30 1078 N 101.806 6.55918 2.23031 0
M  V30 1079 N 103.599 5.26312 1.97363 0
M  V30 1080 H 95.7505 2.10546 -0.28005 0
M  V30 1081 H 98.0135 0.945921 -0.0627454 0
M  V30 1082 H 97.7195 3.49845 0.360787 0
M  V30 1083 H 97.5935 3.14941 2.07586 0
M  V30 1084 H 99.9805 2.15969 2.01101 0
M  V30 1085 H 100.061 2.54204 0.285299 0
M  V30 1086 H 99.7055 5.00938 0.838067 0
M  V30 1087 H 99.6355 4.59648 2.56966 0
M  V30 1088 H 102.126 3.47661 1.48123 0
M  V30 1089 H 102.439 7.33139 2.44391 0
M  V30 1090 H 100.784 6.59112 2.20447 0
M  V30 1091 H 103.975 4.33876 1.75697 0
M  V30 1092 H 104.148 6.09649 2.19618 0
M  V30 1093 N 97.5546 -0.734337 1.39446 0
M  V30 1094 C 98.9656 -1.31264 1.32766 0
M  V30 1095 C 99.3166 -1.96198 -0.00767497 0
M  V30 1096 O 98.4416 -1.96346 -0.909796 0
M  V30 1097 C 99.0366 -2.38682 2.4045 0
M  V30 1098 C 97.5956 -2.92184 2.37288 0
M  V30 1099 C 96.7426 -1.6576 2.22304 0
M  V30 1100 H 99.6936 -0.531799 1.49525 0
M  V30 1101 H 99.7146 -3.19087 2.07276 0
M  V30 1102 H 99.2266 -1.91392 3.37625 0
M  V30 1103 H 97.3276 -3.43752 1.43754 0
M  V30 1104 H 97.4406 -3.45253 3.3217 0
M  V30 1105 H 95.8046 -1.9012 1.69489 0
M  V30 1106 H 96.5876 -1.20521 3.21449 0
M  V30 1107 N 99.0327 -1.24633 -0.964593 0
M  V30 1108 C 100.281 -1.08573 -1.70459 0
M  V30 1109 C 100.602 0.375655 -1.91347 0
M  V30 1110 O 99.8717 1.26779 -1.49345 0
M  V30 1111 H 98.4517 -0.398784 -0.631649 0
M  V30 1112 H 101.114 -1.56601 -1.16026 0
M  V30 1113 H 100.21 -1.58623 -2.68785 0
M  V30 1114 N 100.511 1.16574 -1.06058 0
M  V30 1115 C 101.922 1.68662 -0.800632 0
M  V30 1116 C 102.273 1.84184 0.67608 0
M  V30 1117 O 101.398 1.53568 1.52466 0
M  V30 1118 C 101.993 3.06356 -1.44676 0
M  V30 1119 C 100.552 3.55575 -1.23465 0
M  V30 1120 C 99.6988 2.31616 -1.52477 0
M  V30 1121 H 102.65 1.00969 -1.22438 0
M  V30 1122 H 102.671 3.70636 -0.860788 0
M  V30 1123 H 102.183 2.95027 -2.52152 0
M  V30 1124 H 100.284 3.72167 -0.179527 0
M  V30 1125 H 100.397 4.37812 -1.94571 0
M  V30 1126 H 98.7608 2.36512 -0.945209 0
M  V30 1127 H 99.5438 2.22887 -2.61106 0
M  V30 1128 N 101.989 0.842826 1.3317 0
M  V30 1129 C 102.921 0.236245 2.27979 0
M  V30 1130 C 103.934 -0.585282 1.51915 0
M  V30 1131 O 105.123 -0.411705 1.73687 0
M  V30 1132 C 102.223 -0.685717 3.3189 0
M  V30 1133 C 101.396 0.0973448 4.37292 0
M  V30 1134 C 100.455 -0.748565 5.20848 0
M  V30 1135 O 99.4809 -0.186339 5.68895 0
M  V30 1136 N 100.683 -2.06527 5.42519 0
M  V30 1137 H 103.448 1.05088 2.80672 0
M  V30 1138 H 101.009 0.701667 1.45905 0
M  V30 1139 H 103.001 -1.25669 3.84694 0
M  V30 1140 H 101.571 -1.40105 2.79445 0
M  V30 1141 H 100.791 0.849706 3.84933 0
M  V30 1142 H 102.079 0.635643 5.04814 0
M  V30 1143 H 101.477 -2.54554 5.05192 0
M  V30 1144 H 100.034 -2.58464 5.98364 0
M  V30 1145 N 103.467 -1.45747 0.599634 0
M  V30 1146 C 104.878 -1.85853 0.177681 0
M  V30 1147 C 105.229 -1.50102 -1.26348 0
M  V30 1148 O 104.354 -0.923905 -1.95686 0
M  V30 1149 C 104.949 -3.37326 0.315688 0
M  V30 1150 C 103.508 -3.76365 -0.0515144 0
M  V30 1151 C 102.655 -2.69722 0.643822 0
M  V30 1152 H 105.606 -1.36661 0.806814 0
M  V30 1153 H 105.627 -3.77778 -0.454321 0
M  V30 1154 H 105.139 -3.63315 1.36468 0
M  V30 1155 H 103.24 -3.55993 -1.09999 0
M  V30 1156 H 103.353 -4.77916 0.336594 0
M  V30 1157 H 101.717 -2.54567 0.0822881 0
M  V30 1158 H 102.5 -2.98549 1.6948 0
M  V30 1159 N 104.945 -0.338344 -1.53925 0
M  V30 1160 C 106.191 0.252842 -2.01822 0
M  V30 1161 C 106.546 1.48612 -1.22197 0
M  V30 1162 O 105.839 1.89238 -0.299892 0
M  V30 1163 C 106.033 0.62448 -3.51902 0
M  V30 1164 C 105.862 -0.571235 -4.46057 0
M  V30 1165 C 104.632 -1.07493 -4.93734 0
M  V30 1166 C 106.83 -1.42807 -4.94076 0
M  V30 1167 N 104.812 -2.23351 -5.71828 0
M  V30 1168 C 106.183 -2.43362 -5.70241 0
M  V30 1169 C 108.238 -1.45412 -4.76193 0
M  V30 1170 C 106.941 -3.46346 -6.30426 0
M  V30 1171 C 108.967 -2.47274 -5.37224 0
M  V30 1172 C 108.329 -3.46555 -6.13253 0
M  V30 1173 H 104.428 0.0559669 -0.779995 0
M  V30 1174 H 107.012 -0.476732 -1.88773 0
M  V30 1175 H 105.183 1.32317 -3.65167 0
M  V30 1176 H 106.915 1.19841 -3.86549 0
M  V30 1177 H 103.67 -0.643848 -4.69203 0
M  V30 1178 H 104.094 -2.81834 -6.15548 0
M  V30 1179 H 108.736 -0.700171 -4.16962 0
M  V30 1180 H 106.454 -4.22638 -6.88769 0
M  V30 1181 H 110.04 -2.50109 -5.25297 0
M  V30 1182 H 108.92 -4.24083 -6.59638 0
M  V30 1183 N 106.423 1.57458 -0.0668435 0
M  V30 1184 C 107.663 1.95175 0.607116 0
M  V30 1185 C 108.027 0.946039 1.67075 0
M  V30 1186 O 109.228 1.2107 2.39991 0
M  V30 1187 C 107.499 3.37582 1.17358 0
M  V30 1188 S 109.058 3.97271 1.86336 0
M  V30 1189 H 105.876 0.682604 0.19893 0
M  V30 1190 H 108.478 1.95002 -0.139519 0
M  V30 1191 H 107.182 4.08566 0.387553 0
M  V30 1192 H 106.713 3.41288 1.95669 0
M  V30 1193 H 108.728 3.83772 3.14537 0
M  V30 1194 N 107.901 -0.206675 1.56239 0
M  V30 1195 C 108.864 -1.23976 1.92776 0
M  V30 1196 C 109.864 -1.39041 0.807729 0
M  V30 1197 O 111.054 -1.37051 1.0753 0
M  V30 1198 C 108.186 -2.61112 2.19165 0
M  V30 1199 H 109.379 -0.927764 2.85189 0
M  V30 1200 H 106.932 -0.447718 1.4975 0
M  V30 1201 H 107.667 -2.97386 1.29352 0
M  V30 1202 H 107.452 -2.51552 3.00772 0
M  V30 1203 H 108.942 -3.35633 2.48476 0
M  V30 1204 N 109.379 -1.50304 -0.473955 0
M  V30 1205 C 110.607 -1.64902 -1.24959 0
M  V30 1206 C 111.022 -0.331198 -1.85872 0
M  V30 1207 O 110.379 0.68652 -1.69095 0
M  V30 1208 C 110.43 -2.73803 -2.36038 0
M  V30 1209 O 110.151 -4.00477 -1.77624 0
M  V30 1210 C 111.652 -2.99349 -3.26964 0
M  V30 1211 H 108.872 -0.554383 -0.378022 0
M  V30 1212 H 111.416 -1.9651 -0.566054 0
M  V30 1213 H 109.571 -2.44898 -3.00173 0
M  V30 1214 H 109.985 -4.60678 -2.5075 0
M  V30 1215 H 111.459 -3.79217 -4.01121 0
M  V30 1216 H 111.936 -2.10307 -3.85574 0
M  V30 1217 H 112.542 -3.29774 -2.68569 0
M  V30 1218 N 110.857 0.726932 -1.39834 0
M  V30 1219 C 112.085 1.51613 -1.40787 0
M  V30 1220 C 112.5 1.88799 -0.00451505 0
M  V30 1221 O 111.857 1.54662 0.968809 0
M  V30 1222 C 111.908 2.79863 -2.28821 0
M  V30 1223 O 111.629 2.44253 -3.63692 0
M  V30 1224 C 113.13 3.73837 -2.38245 0
M  V30 1225 H 110.35 0.468264 -0.480593 0
M  V30 1226 H 112.894 0.897607 -1.83748 0
M  V30 1227 H 111.049 3.38027 -1.89252 0
M  V30 1228 H 111.463 3.26695 -4.1033 0
M  V30 1229 H 112.937 4.60699 -3.04073 0
M  V30 1230 H 113.414 4.16153 -1.40403 0
M  V30 1231 H 114.02 3.21589 -2.78317 0
M  V30 1232 N 112.336 1.25143 0.95797 0
M  V30 1233 C 113.747 1.08851 1.51685 0
M  V30 1234 C 114.098 -0.33687 1.93286 0
M  V30 1235 O 113.223 -1.22644 1.7829 0
M  V30 1236 C 113.818 1.96978 2.75654 0
M  V30 1237 C 112.377 1.84881 3.27866 0
M  V30 1238 C 111.524 1.91329 2.0072 0
M  V30 1239 H 114.475 1.38478 0.77522 0
M  V30 1240 H 114.496 1.5078 3.4935 0
M  V30 1241 H 114.008 3.00712 2.45345 0
M  V30 1242 H 112.109 0.840182 3.63004 0
M  V30 1243 H 112.222 2.6951 3.96107 0
M  V30 1244 H 110.586 1.35174 2.15871 0
M  V30 1245 H 111.369 2.96661 1.72764 0
M  V30 1246 N 113.814 -1.1601 1.06675 0
M  V30 1247 C 114.762 -2.22586 0.675157 0
M  V30 1248 C 115.756 -1.66525 -0.310766 0
M  V30 1249 O 116.962 -1.79145 -0.175215 0
M  V30 1250 H 113.337 -0.724855 0.200223 0
M  V30 1251 H 115.308 -2.52899 1.58381 0
M  V30 1252 C 114.057 -3.47604 0.0817162 0
M  V30 1253 H 113.38 -3.91058 0.831484 0
M  V30 1254 H 114.82 -4.23718 -0.154708 0
M  V30 1255 C 113.279 -3.15718 -1.17576 0
M  V30 1256 O 113.809 -3.31878 -2.26318 0
M  V30 1257 N 112.015 -2.69816 -1.07923 0
M  V30 1258 H 111.562 -2.56866 -0.194293 0
M  V30 1259 H 111.52 -2.48855 -1.92141 0
M  V30 1260 N 115.292 -0.849877 -1.32721 0
M  V30 1261 C 116.539 -0.450923 -1.97416 0
M  V30 1262 C 116.867 0.992376 -1.67279 0
M  V30 1263 O 116.122 1.71048 -0.950845 0
M  V30 1264 C 116.421 -0.631272 -3.51781 0
M  V30 1265 C 116.087 -2.04432 -4.01894 0
M  V30 1266 C 114.749 -2.4308 -4.1529 0
M  V30 1267 C 117.101 -2.96679 -4.28522 0
M  V30 1268 C 114.429 -3.73257 -4.52654 0
M  V30 1269 C 116.781 -4.26349 -4.67343 0
M  V30 1270 C 115.445 -4.64939 -4.78945 0
M  V30 1271 H 114.715 -0.165004 -0.722395 0
M  V30 1272 H 117.362 -1.07901 -1.58207 0
M  V30 1273 H 115.667 0.0800767 -3.91718 0
M  V30 1274 H 117.364 -0.302709 -3.99856 0
M  V30 1275 H 113.954 -1.73419 -3.91949 0
M  V30 1276 H 118.138 -2.68054 -4.17685 0
M  V30 1277 H 113.394 -4.02946 -4.59831 0
M  V30 1278 H 117.568 -4.97895 -4.86902 0
M  V30 1279 H 115.195 -5.65855 -5.07654 0
M  V30 1280 N 116.77 1.45427 -0.607355 0
M  V30 1281 C 118.047 1.9557 -0.0344566 0
M  V30 1282 C 118.427 1.54979 1.43334 0
M  V30 1283 O 117.775 0.812241 2.13576 0
M  V30 1284 C 117.985 3.48226 -0.232321 0
M  V30 1285 C 119.333 4.2445 -0.113001 0
M  V30 1286 O 120.357 3.55829 -0.162431 0
M  V30 1287 O 119.216 5.465 0.00209442 0
M  V30 1288 H 116.31 0.826222 0.0358667 0
M  V30 1289 H 118.856 1.55594 -0.6774 0
M  V30 1290 H 117.628 3.70739 -1.25174 0
M  V30 1291 H 117.251 3.95092 0.445896 0
M  V30 1292 N 118.248 0.346503 1.53744 0
M  V30 1293 C 119.18 -0.543316 2.22667 0
M  V30 1294 C 120.193 -1.06159 1.23427 0
M  V30 1295 O 121.382 -0.971235 1.49764 0
M  V30 1296 C 118.482 -1.76076 2.89569 0
M  V30 1297 C 117.655 -1.37727 4.15151 0
M  V30 1298 C 116.714 -2.45471 4.65436 0
M  V30 1299 O 115.74 -2.08655 5.29577 0
M  V30 1300 N 116.942 -3.7677 4.41616 0
M  V30 1301 H 119.707 0.0469703 2.99663 0
M  V30 1302 H 117.268 0.170766 1.60997 0
M  V30 1303 H 119.26 -2.47593 3.20125 0
M  V30 1304 H 117.83 -2.25835 2.16142 0
M  V30 1305 H 117.05 -0.492746 3.91108 0
M  V30 1306 H 118.338 -1.09708 4.96832 0
M  V30 1307 H 117.736 -4.09467 3.90325 0
M  V30 1308 H 116.293 -4.44448 4.7677 0
M  V30 1309 N 119.726 -1.57421 0.075193 0
M  V30 1310 C 121.003 -1.85029 -0.634329 0
M  V30 1311 C 121.383 -0.968305 -1.87582 0
M  V30 1312 O 120.731 -0.0354749 -2.28472 0
M  V30 1313 C 120.941 -3.35286 -0.968742 0
M  V30 1314 C 122.289 -4.02875 -1.34077 0
M  V30 1315 O 123.313 -3.40051 -1.06037 0
M  V30 1316 O 122.172 -5.13691 -1.86506 0
M  V30 1317 H 119.266 -0.7645 -0.315387 0
M  V30 1318 H 121.812 -1.69366 0.106382 0
M  V30 1319 H 120.584 -3.91203 -0.0871376 0
M  V30 1320 H 120.207 -3.56223 -1.7661 0
M  V30 1321 N 121.204 0.198386 -1.56346 0
M  V30 1322 C 122.136 1.26987 -1.90806 0
M  V30 1323 C 123.149 1.41877 -0.798419 0
M  V30 1324 O 124.338 1.42362 -1.07682 0
M  V30 1325 C 121.438 2.64246 -2.12196 0
M  V30 1326 C 120.611 2.71007 -3.43328 0
M  V30 1327 C 119.67 3.89439 -3.5387 0
M  V30 1328 O 118.696 3.76695 -4.26719 0
M  V30 1329 N 119.898 5.04752 -2.86715 0
M  V30 1330 H 122.663 0.977433 -2.83313 0
M  V30 1331 H 120.224 0.388322 -1.57174 0
M  V30 1332 H 122.216 3.41896 -2.1654 0
M  V30 1333 H 120.786 2.85992 -1.26204 0
M  V30 1334 H 120.006 1.79657 -3.50881 0
M  V30 1335 H 121.294 2.72512 -4.29668 0
M  V30 1336 H 120.692 5.18004 -2.2735 0
M  V30 1337 H 119.249 5.8036 -2.96691 0
M  V30 1338 N 122.682 1.50554 0.465978 0
M  V30 1339 C 124.098 1.38093 0.800154 0
M  V30 1340 C 124.298 0.440988 1.96615 0
M  V30 1341 O 123.354 -0.114499 2.5224 0
M  V30 1342 C 124.667 2.79565 1.10742 0
M  V30 1343 C 126.215 2.88516 1.21357 0
M  V30 1344 C 126.69 4.30833 1.55393 0
M  V30 1345 N 128.181 4.33807 1.62375 0
M  V30 1346 C 128.916 5.40927 1.90225 0
M  V30 1347 N 128.412 6.58247 2.16062 0
M  V30 1348 N 130.205 5.28376 1.9177 0
M  V30 1349 H 122.356 2.10237 -0.302366 0
M  V30 1350 H 124.619 0.945203 -0.0727746 0
M  V30 1351 H 124.325 3.50208 0.323661 0
M  V30 1352 H 124.199 3.17125 2.04234 0
M  V30 1353 H 126.586 2.1809 1.98799 0
M  V30 1354 H 126.667 2.54492 0.258321 0
M  V30 1355 H 126.311 5.01799 0.784889 0
M  V30 1356 H 126.241 4.62347 2.52076 0
M  V30 1357 H 128.732 3.49212 1.44427 0
M  V30 1358 H 129.045 7.3569 2.36601 0
M  V30 1359 H 127.39 6.61413 2.13444 0
M  V30 1360 H 130.581 4.35715 1.71085 0
M  V30 1361 H 130.754 6.11944 2.13139 0
M  V30 1362 N 124.16 -0.719506 1.40217 0
M  V30 1363 C 125.406 -1.48034 1.39491 0
M  V30 1364 C 125.761 -1.92399 -0.00443536 0
M  V30 1365 O 125.054 -1.64993 -0.974061 0
M  V30 1366 C 125.248 -2.72271 2.31524 0
M  V30 1367 C 125.077 -2.40055 3.80268 0
M  V30 1368 C 123.847 -2.31588 4.49105 0
M  V30 1369 C 126.045 -2.04581 4.71859 0
M  V30 1370 N 124.027 -1.92006 5.83101 0
M  V30 1371 C 125.398 -1.75568 5.94623 0
M  V30 1372 C 127.453 -1.91183 4.59732 0
M  V30 1373 C 126.156 -1.34505 7.06612 0
M  V30 1374 C 128.182 -1.51524 5.71659 0
M  V30 1375 C 127.544 -1.23406 6.93506 0
M  V30 1376 H 123.643 -0.539927 0.565688 0
M  V30 1377 H 126.227 -0.834764 1.75897 0
M  V30 1378 H 124.398 -3.34584 1.97251 0
M  V30 1379 H 126.13 -3.38584 2.21682 0
M  V30 1380 H 122.885 -2.49199 4.02737 0
M  V30 1381 H 123.309 -1.74764 6.54054 0
M  V30 1382 H 127.951 -2.11584 3.66049 0
M  V30 1383 H 125.669 -1.12846 8.00182 0
M  V30 1384 H 129.255 -1.41741 5.6427 0
M  V30 1385 H 128.135 -0.931788 7.78645 0
M  V30 1386 N 125.638 -1.25649 -0.95132 0
M  V30 1387 C 126.886 -1.10375 -1.69298 0
M  V30 1388 C 127.207 0.355339 -1.91735 0
M  V30 1389 O 126.477 1.25188 -1.50681 0
M  V30 1390 H 125.057 -0.405461 -0.627384 0
M  V30 1391 H 127.719 -1.57823 -1.14358 0
M  V30 1392 H 126.815 -1.61465 -2.67087 0
M  V30 1393 N 127.117 1.15442 -1.07289 0
M  V30 1394 C 128.347 1.89821 -0.815576 0
M  V30 1395 C 128.755 1.7823 0.634867 0
M  V30 1396 O 128.098 1.13152 1.44715 0
M  V30 1397 C 128.16 3.40817 -1.14385 0
M  V30 1398 C 127.824 3.76193 -2.59476 0
M  V30 1399 C 128.821 3.77269 -3.57721 0
M  V30 1400 C 126.506 4.0652 -2.95037 0
M  V30 1401 C 128.5 4.08176 -4.89562 0
M  V30 1402 C 126.187 4.37092 -4.27076 0
M  V30 1403 C 127.185 4.37902 -5.24148 0
M  V30 1404 O 126.873 4.67741 -6.53815 0
M  V30 1405 H 126.605 0.608465 -0.294528 0
M  V30 1406 H 129.159 1.472 -1.43252 0
M  V30 1407 H 127.389 3.83835 -0.469865 0
M  V30 1408 H 129.078 3.96485 -0.869179 0
M  V30 1409 H 129.844 3.5394 -3.3159 0
M  V30 1410 H 125.723 4.05049 -2.20128 0
M  V30 1411 H 129.267 4.08723 -5.65324 0
M  V30 1412 H 125.164 4.59889 -4.5296 0
M  V30 1413 H 125.932 4.85509 -6.58957 0
M  V30 1414 N 128.595 0.856903 1.32268 0
M  V30 1415 C 129.835 0.467705 1.98977 0
M  V30 1416 C 130.199 -0.959231 1.66321 0
M  V30 1417 O 131.4 -1.4531 2.26138 0
M  V30 1418 C 129.671 0.70256 3.50427 0
M  V30 1419 S 131.23 0.411269 4.36868 0
M  V30 1420 H 128.048 0.175121 0.689096 0
M  V30 1421 H 130.65 1.1101 1.60925 0
M  V30 1422 H 129.354 1.74012 3.71683 0
M  V30 1423 H 128.885 0.0466707 3.93372 0
M  V30 1424 H 130.9 -0.761799 4.90317 0
M  V30 1425 N 130.073 -1.45103 0.615059 0
M  V30 1426 C 131.003 -2.33339 -0.0865619 0
M  V30 1427 C 131.984 -1.4727 -0.851209 0
M  V30 1428 O 133.169 -1.76026 -0.820281 0
M  V30 1429 C 130.299 -3.30095 -1.07956 0
M  V30 1430 C 129.253 -4.25858 -0.427628 0
M  V30 1431 C 128.579 -5.12361 -1.5294 0
M  V30 1432 C 129.879 -5.18165 0.655944 0
M  V30 1433 H 131.573 -2.92254 0.650224 0
M  V30 1434 H 129.119 -1.40532 0.314138 0
M  V30 1435 H 131.072 -3.90698 -1.57901 0
M  V30 1436 H 129.796 -2.69355 -1.84703 0
M  V30 1437 H 128.455 -3.66564 0.0510292 0
M  V30 1438 H 128.103 -4.47984 -2.28734 0
M  V30 1439 H 127.803 -5.77238 -1.09865 0
M  V30 1440 H 129.327 -5.75833 -2.03098 0
M  V30 1441 H 130.741 -5.72796 0.240257 0
M  V30 1442 H 129.138 -5.91559 1.00888 0
M  V30 1443 H 130.208 -4.60144 1.52957 0
M  V30 1444 N 131.551 -0.354651 -1.53558 0
M  V30 1445 C 132.461 0.50515 -2.29097 0
M  V30 1446 C 133.477 1.10223 -1.34636 0
M  V30 1447 O 134.653 1.11553 -1.67684 0
M  V30 1448 C 131.718 1.63479 -3.05738 0
M  V30 1449 C 130.779 1.06636 -4.15845 0
M  V30 1450 C 130.012 2.14217 -4.88822 0
M  V30 1451 O 130.235 3.35137 -4.61562 0
M  V30 1452 O 129.169 1.77887 -5.75013 0
M  V30 1453 H 132.995 -0.109237 -3.03503 0
M  V30 1454 H 130.58 -0.119357 -1.48922 0
M  V30 1455 H 132.462 2.2918 -3.5363 0
M  V30 1456 H 131.137 2.23478 -2.34178 0
M  V30 1457 H 130.044 0.373565 -3.7223 0
M  V30 1458 H 131.377 0.511081 -4.89539 0
M  V30 1459 N 133.029 1.57378 -0.0835403 0
M  V30 1460 C 134.44 1.81261 0.447358 0
M  V30 1461 C 134.791 0.998331 1.68902 0
M  V30 1462 O 133.916 0.224282 2.15235 0
M  V30 1463 C 134.511 3.28767 0.818386 0
M  V30 1464 C 133.07 3.53455 1.29409 0
M  V30 1465 C 132.217 2.75831 0.285024 0
M  V30 1466 H 135.168 1.5566 -0.309115 0
M  V30 1467 H 135.189 3.41459 1.67887 0
M  V30 1468 H 134.701 3.88006 -0.0855019 0
M  V30 1469 H 132.802 2.99534 2.21608 0
M  V30 1470 H 132.915 4.62128 1.2639 0
M  V30 1471 H 131.279 2.42947 0.764767 0
M  V30 1472 H 132.062 3.37813 -0.611341 0
M  V30 1473 N 134.507 -0.190092 1.56449 0
M  V30 1474 C 135.454 -1.23557 1.94942 0
M  V30 1475 C 136.424 -1.44972 0.810696 0
M  V30 1476 O 137.609 -1.58023 1.06927 0
M  V30 1477 C 134.749 -2.57416 2.2985 0
M  V30 1478 C 133.862 -2.43537 3.5681 0
M  V30 1479 C 132.997 -3.70134 3.81017 0
M  V30 1480 C 132.036 -3.51109 5.01387 0
M  V30 1481 N 131.173 -4.6973 5.21822 0
M  V30 1482 H 136.013 -0.900304 2.84075 0
M  V30 1483 H 133.55 -0.43318 1.40577 0
M  V30 1484 H 135.508 -3.35409 2.48106 0
M  V30 1485 H 134.138 -2.88975 1.43852 0
M  V30 1486 H 133.19 -1.56816 3.46573 0
M  V30 1487 H 134.502 -2.25415 4.4496 0
M  V30 1488 H 133.656 -4.56566 3.9954 0
M  V30 1489 H 132.395 -3.91215 2.91207 0
M  V30 1490 H 131.4 -2.63063 4.82782 0
M  V30 1491 H 132.625 -3.31468 5.9271 0
M  V30 1492 H 130.571 -4.91065 4.34961 0
M  V30 1493 H 130.488 -4.54452 6.0416 0
M  V30 1494 H 131.756 -5.57499 5.44808 0
M  V30 1495 N 135.985 -1.50799 -0.457987 0
M  V30 1496 C 136.932 -1.70617 -1.5543 0
M  V30 1497 C 137.902 -0.547562 -1.56815 0
M  V30 1498 O 139.087 -0.779647 -1.74144 0
M  V30 1499 C 136.227 -1.81831 -2.93311 0
M  V30 1500 C 135.34 -3.09278 -3.01615 0
M  V30 1501 C 134.475 -3.11209 -4.30491 0
M  V30 1502 C 133.514 -4.33055 -4.32585 0
M  V30 1503 N 132.651 -4.32652 -5.52952 0
M  V30 1504 H 137.491 -2.64207 -1.37836 0
M  V30 1505 H 135.028 -1.30959 -0.669937 0
M  V30 1506 H 136.986 -1.86314 -3.73287 0
M  V30 1507 H 135.616 -0.916685 -3.0951 0
M  V30 1508 H 134.668 -3.14203 -2.1443 0
M  V30 1509 H 135.98 -3.99233 -2.99022 0
M  V30 1510 H 135.134 -3.14494 -5.18824 0
M  V30 1511 H 133.873 -2.19106 -4.35711 0
M  V30 1512 H 132.878 -4.29969 -3.42647 0
M  V30 1513 H 134.103 -5.264 -4.29046 0
M  V30 1514 H 132.049 -3.43409 -5.58933 0
M  V30 1515 H 131.966 -5.16392 -5.52155 0
M  V30 1516 H 133.234 -4.40101 -6.43375 0
M  V30 1517 N 137.463 0.71206 -1.40597 0
M  V30 1518 C 138.709 1.47416 -1.39271 0
M  V30 1519 C 139.042 1.942 0.00388791 0
M  V30 1520 O 138.317 1.68403 0.973179 0
M  V30 1521 C 138.6 2.69774 -2.38525 0
M  V30 1522 C 138.453 2.28861 -3.87224 0
M  V30 1523 C 139.772 3.71939 -2.35264 0
M  V30 1524 H 136.891 0.534713 -0.5072 0
M  V30 1525 H 139.533 0.812375 -1.71757 0
M  V30 1526 H 137.683 3.26238 -2.10953 0
M  V30 1527 H 139.355 1.77852 -4.25636 0
M  V30 1528 H 137.598 1.60824 -4.02887 0
M  V30 1529 H 138.269 3.16584 -4.52193 0
M  V30 1530 H 140.745 3.25113 -2.59694 0
M  V30 1531 H 139.621 4.55186 -3.06753 0
M  V30 1532 H 139.882 4.20484 -1.36549 0
M  V30 1533 N 138.941 1.26152 0.944643 0
M  V30 1534 C 139.888 1.07408 2.04285 0
M  V30 1535 C 140.858 -0.0198413 1.66088 0
M  V30 1536 O 142.043 0.139264 1.90291 0
M  V30 1537 C 139.183 0.70945 3.37729 0
M  V30 1538 C 138.296 1.87926 3.88983 0
M  V30 1539 C 137.431 1.45807 5.10797 0
M  V30 1540 C 136.47 2.5964 5.54305 0
M  V30 1541 N 135.607 2.18226 6.67324 0
M  V30 1542 H 140.447 2.01389 2.1965 0
M  V30 1543 H 137.984 1.00275 1.07626 0
M  V30 1544 H 139.942 0.478948 4.14442 0
M  V30 1545 H 138.572 -0.193389 3.2222 0
M  V30 1546 H 137.624 2.22279 3.08701 0
M  V30 1547 H 138.936 2.73377 4.17213 0
M  V30 1548 H 138.09 1.18781 5.94959 0
M  V30 1549 H 136.829 0.574414 4.84305 0
M  V30 1550 H 135.834 2.87399 4.68702 0
M  V30 1551 H 137.059 3.48599 5.828 0
M  V30 1552 H 135.005 1.3229 6.42523 0
M  V30 1553 H 134.922 2.97221 6.95123 0
M  V30 1554 H 136.19 1.94403 7.54869 0
M  V30 1555 N 140.419 -1.14872 1.07899 0
M  V30 1556 C 141.696 -1.81928 0.71845 0
M  V30 1557 C 142.076 -1.95417 -0.798455 0
M  V30 1558 O 141.424 -1.50997 -1.715 0
M  V30 1559 C 141.634 -3.17937 1.43935 0
M  V30 1560 C 142.982 -3.93501 1.59506 0
M  V30 1561 O 144.006 -3.27509 1.40058 0
M  V30 1562 O 142.865 -5.1183 1.91551 0
M  V30 1563 H 139.959 -0.78628 0.256305 0
M  V30 1564 H 142.505 -1.21934 1.18026 0
M  V30 1565 H 141.277 -3.0325 2.47295 0
M  V30 1566 H 140.9 -3.85619 0.968687 0
M  V30 1567 N 141.898 -0.863906 -1.31812 0
M  V30 1568 C 142.848 -0.286898 -2.26188 0
M  V30 1569 C 143.832 0.572577 -1.50367 0
M  V30 1570 O 145.024 0.420447 -1.71934 0
M  V30 1571 C 142.153 0.515849 -3.39402 0
M  V30 1572 C 141.239 -0.356531 -4.22599 0
M  V30 1573 N 141.63 -1.44716 -4.84656 0
M  V30 1574 C 139.928 -0.147898 -4.45755 0
M  V30 1575 C 140.629 -1.98462 -5.46798 0
M  V30 1576 N 139.605 -1.28247 -5.28255 0
M  V30 1577 H 143.407 -1.12055 -2.717 0
M  V30 1578 H 140.921 -0.711012 -1.46008 0
M  V30 1579 H 142.918 0.945701 -4.06032 0
M  V30 1580 H 141.578 1.34718 -2.95434 0
M  V30 1581 H 142.589 -1.83008 -4.84488 0
M  V30 1582 H 139.266 0.647973 -4.12441 0
M  V30 1583 H 140.656 -2.89932 -6.06126 0
M  V30 1584 N 143.376 1.44774 -0.622745 0
M  V30 1585 C 144.616 2.04004 -0.127102 0
M  V30 1586 C 144.98 1.47862 1.22478 0
M  V30 1587 O 146.181 1.98541 1.81204 0
M  V30 1588 C 144.452 3.57247 -0.104429 0
M  V30 1589 S 146.011 4.37574 0.327814 0
M  V30 1590 H 142.829 0.708713 -0.0569776 0
M  V30 1591 H 145.431 1.77275 -0.824253 0
M  V30 1592 H 144.135 3.95616 -1.09159 0
M  V30 1593 H 143.666 3.88575 0.614236 0
M  V30 1594 H 145.681 4.70575 1.57395 0
M  V30 1595 N 144.854 0.36279 1.53368 0
M  V30 1596 C 146.079 -0.231226 2.06107 0
M  V30 1597 C 146.504 -1.419 1.23474 0
M  V30 1598 O 145.862 -1.79524 0.253128 0
M  V30 1599 C 145.91 -0.605523 3.5548 0
M  V30 1600 O 145.014 -1.70312 3.7559 0
M  V30 1601 H 144.355 -0.034327 0.663112 0
M  V30 1602 H 146.885 0.522584 1.97814 0
M  V30 1603 H 146.895 -0.877314 3.98456 0
M  V30 1604 H 145.57 0.263004 4.15068 0
M  V30 1605 H 144.147 -1.4271 3.44512 0
M  V30 1606 N 146.332 -1.57332 0.0918853 0
M  V30 1607 C 147.279 -2.13847 -0.868211 0
M  V30 1608 C 148.249 -1.05618 -1.28196 0
M  V30 1609 O 149.434 -1.33387 -1.36427 0
M  V30 1610 C 146.574 -2.72062 -2.12312 0
M  V30 1611 C 145.687 -3.94514 -1.7602 0
M  V30 1612 C 144.822 -4.40903 -2.96273 0
M  V30 1613 C 143.861 -5.55953 -2.56092 0
M  V30 1614 N 142.998 -5.97209 -3.69169 0
M  V30 1615 H 147.838 -2.95575 -0.379406 0
M  V30 1616 H 145.375 -1.46048 -0.175606 0
M  V30 1617 H 147.333 -3.03931 -2.858 0
M  V30 1618 H 145.963 -1.93068 -2.58698 0
M  V30 1619 H 145.015 -3.68979 -0.925135 0
M  V30 1620 H 146.327 -4.7802 -1.42472 0
M  V30 1621 H 145.481 -4.74539 -3.78018 0
M  V30 1622 H 144.22 -3.56291 -3.33029 0
M  V30 1623 H 143.225 -5.21948 -1.72773 0
M  V30 1624 H 144.45 -6.42311 -2.20484 0
M  V30 1625 H 142.396 -5.15543 -4.05649 0
M  V30 1626 H 142.313 -6.75504 -3.39456 0
M  V30 1627 H 143.581 -6.35475 -4.51434 0
M  V30 1628 N 147.81 0.181792 -1.56548 0
M  V30 1629 C 148.76 1.22961 -1.92002 0
M  V30 1630 C 149.744 1.40331 -0.787146 0
M  V30 1631 O 150.936 1.42478 -1.05019 0
M  V30 1632 C 148.065 2.57144 -2.27446 0
M  V30 1633 C 147.151 2.43512 -3.47222 0
M  V30 1634 N 147.542 1.99577 -4.64761 0
M  V30 1635 C 145.84 2.74368 -3.51622 0
M  V30 1636 C 146.541 1.98156 -5.46909 0
M  V30 1637 N 145.517 2.40164 -4.8767 0
M  V30 1638 H 149.319 0.881462 -2.8037 0
M  V30 1639 H 146.833 0.390141 -1.57644 0
M  V30 1640 H 148.83 3.32847 -2.51035 0
M  V30 1641 H 147.49 2.92771 -1.40411 0
M  V30 1642 H 148.501 1.70078 -4.89177 0
M  V30 1643 H 145.178 3.14102 -2.75038 0
M  V30 1644 H 146.568 1.65975 -6.51077 0
M  V30 1645 N 149.288 1.51039 0.449983 0
M  V30 1646 C 150.513 1.6715 1.22783 0
M  V30 1647 C 150.938 0.363081 1.84563 0
M  V30 1648 O 150.296 -0.675433 1.68249 0
M  V30 1649 C 150.344 2.77985 2.29689 0
M  V30 1650 O 149.448 2.40707 3.34864 0
M  V30 1651 H 148.789 0.557746 0.360299 0
M  V30 1652 H 151.319 1.97535 0.533005 0
M  V30 1653 H 151.329 3.01693 2.74673 0
M  V30 1654 H 150.004 3.72935 1.84098 0
M  V30 1655 H 148.581 2.27523 2.95445 0
M  V30 1656 N 150.766 -0.704594 1.40972 0
M  V30 1657 C 152.177 -1.28418 1.3552 0
M  V30 1658 C 152.528 -1.96171 0.0339434 0
M  V30 1659 O 151.653 -1.98231 -0.867944 0
M  V30 1660 C 152.248 -2.33528 2.45459 0
M  V30 1661 C 150.807 -2.87085 2.43433 0
M  V30 1662 C 149.954 -1.61007 2.2577 0
M  V30 1663 H 152.905 -0.499963 1.50619 0
M  V30 1664 H 152.926 -3.14619 2.13998 0
M  V30 1665 H 152.438 -1.84187 3.41609 0
M  V30 1666 H 150.539 -3.40626 1.51013 0
M  V30 1667 H 150.652 -3.3813 3.39419 0
M  V30 1668 H 149.016 -1.86482 1.73483 0
M  V30 1669 H 149.799 -1.13675 3.23933 0
M  V30 1670 N 152.244 -1.26651 -0.937939 0
M  V30 1671 C 153.484 -1.13611 -1.69917 0
M  V30 1672 C 153.848 0.314687 -1.89404 0
M  V30 1673 O 155.049 0.567285 -2.62746 0
M  V30 1674 C 153.32 -1.88742 -3.03498 0
M  V30 1675 S 154.879 -1.91794 -3.94665 0
M  V30 1676 H 151.697 -0.405767 -0.583844 0
M  V30 1677 H 154.299 -1.60416 -1.11745 0
M  V30 1678 H 153.003 -2.9336 -2.86999 0
M  V30 1679 H 152.534 -1.42391 -3.66727 0
M  V30 1680 H 154.549 -1.00698 -4.85875 0
M  V30 1681 N 153.722 1.14298 -1.08507 0
M  V30 1682 C 154.654 2.1907 -0.673859 0
M  V30 1683 C 155.667 1.60381 0.279577 0
M  V30 1684 O 156.856 1.78374 0.0670754 0
M  V30 1685 C 153.956 3.38888 0.0290979 0
M  V30 1686 C 153.129 4.27103 -0.943494 0
M  V30 1687 C 152.188 5.25477 -0.275676 0
M  V30 1688 O 151.214 5.61709 -0.920401 0
M  V30 1689 N 152.416 5.7227 0.974013 0
M  V30 1690 H 155.181 2.54965 -1.57521 0
M  V30 1691 H 152.742 1.29528 -0.971287 0
M  V30 1692 H 154.734 4.01761 0.48683 0
M  V30 1693 H 153.304 3.01309 0.832555 0
M  V30 1694 H 152.524 3.61149 -1.58004 0
M  V30 1695 H 153.812 4.82905 -1.60251 0
M  V30 1696 H 153.21 5.44965 1.51755 0
M  V30 1697 H 151.767 6.37127 1.37522 0
M  V30 1698 N 155.201 0.870884 1.31352 0
M  V30 1699 C 156.148 0.325425 2.28494 0
M  V30 1700 C 157.118 -0.576615 1.5577 0
M  V30 1701 O 158.303 -0.508059 1.83911 0
M  V30 1702 C 155.443 -0.466283 3.41935 0
M  V30 1703 C 154.556 0.463378 4.29508 0
M  V30 1704 C 153.691 -0.342544 5.30094 0
M  V30 1705 C 152.73 0.583486 6.09313 0
M  V30 1706 N 151.867 -0.186244 7.01853 0
M  V30 1707 H 156.707 1.15901 2.74538 0
M  V30 1708 H 154.244 0.58294 1.35056 0
M  V30 1709 H 156.202 -0.941085 4.06447 0
M  V30 1710 H 154.832 -1.26456 2.97 0
M  V30 1711 H 153.884 1.05663 3.65431 0
M  V30 1712 H 155.196 1.1734 4.84802 0
M  V30 1713 H 154.35 -0.879816 6.00287 0
M  V30 1714 H 153.089 -1.08585 4.75458 0
M  V30 1715 H 152.094 1.13251 5.3801 0
M  V30 1716 H 153.319 1.32566 6.66035 0
M  V30 1717 H 151.265 -0.912348 6.49625 0
M  V30 1718 H 151.182 0.464422 7.54572 0
M  V30 1719 H 152.45 -0.704716 7.76308 0
M  V30 1720 N 156.679 -1.44442 0.630414 0
M  V30 1721 C 157.927 -2.01653 0.134351 0
M  V30 1722 C 158.248 -1.49836 -1.24796 0
M  V30 1723 O 157.518 -0.701684 -1.82902 0
M  V30 1724 H 156.098 -0.74554 0.0466769 0
M  V30 1725 H 158.76 -1.76952 0.816955 0
M  V30 1726 H 157.856 -3.11935 0.101498 0
M  V30 1727 N 158.157 -0.370918 -1.53173 0
M  V30 1728 C 159.405 0.216673 -2.00935 0
M  V30 1729 C 159.726 1.48845 -1.25977 0
M  V30 1730 O 158.996 1.92286 -0.374551 0
M  V30 1731 H 157.576 0.0830565 -0.742368 0
M  V30 1732 H 160.238 -0.49838 -1.8842 0
M  V30 1733 H 159.334 0.439893 -3.08984 0
M  V30 1734 N 159.635 1.57281 -0.100228 0
M  V30 1735 C 160.863 1.98879 0.570509 0
M  V30 1736 C 161.278 0.979476 1.61405 0
M  V30 1737 O 160.635 -0.0302288 1.82475 0
M  V30 1738 C 160.686 3.4052 1.2136 0
M  V30 1739 O 160.407 4.37588 0.211786 0
M  V30 1740 C 161.908 3.97149 1.96945 0
M  V30 1741 H 159.128 0.653428 0.152555 0
M  V30 1742 H 161.672 2.03697 -0.18103 0
M  V30 1743 H 159.827 3.367 1.91603 0
M  V30 1744 H 160.241 5.20118 0.676607 0
M  V30 1745 H 161.715 4.98393 2.37294 0
M  V30 1746 H 162.192 3.3525 2.83733 0
M  V30 1747 H 162.798 4.04458 1.31506 0
M  V30 1748 N 161.113 -0.173488 1.56642 0
M  V30 1749 C 162.353 -0.896984 1.83667 0
M  V30 1750 C 162.717 -1.79523 0.680842 0
M  V30 1751 O 163.918 -2.55616 0.831488 0
M  V30 1752 C 162.189 -1.67351 3.15798 0
M  V30 1753 S 163.748 -2.44607 3.64298 0
M  V30 1754 H 160.566 -0.300464 0.644393 0
M  V30 1755 H 163.168 -0.158775 1.94854 0
M  V30 1756 H 161.872 -1.00462 3.97914 0
M  V30 1757 H 161.403 -2.45313 3.07546 0
M  V30 1758 H 163.418 -3.69261 3.31452 0
M  V30 1759 N 162.591 -1.51276 -0.441967 0
M  V30 1760 C 163.837 -1.63958 -1.19355 0
M  V30 1761 C 164.17 -0.352543 -1.90973 0
M  V30 1762 O 163.445 0.647627 -1.83401 0
M  V30 1763 C 163.728 -2.83979 -2.21422 0
M  V30 1764 C 163.581 -4.22646 -1.53918 0
M  V30 1765 C 164.9 -2.99521 -3.22451 0
M  V30 1766 H 162.019 -0.596709 -0.432559 0
M  V30 1767 H 164.661 -1.83748 -0.483398 0
M  V30 1768 H 162.811 -2.67237 -2.81987 0
M  V30 1769 H 164.483 -4.51045 -0.967256 0
M  V30 1770 H 162.726 -4.25558 -0.841615 0
M  V30 1771 H 163.397 -5.02609 -2.28229 0
M  V30 1772 H 165.873 -3.14944 -2.71937 0
M  V30 1773 H 164.749 -3.85072 -3.91166 0
M  V30 1774 H 165.01 -2.11391 -3.88287 0
M  V30 1775 N 164.069 0.697108 -1.41344 0
M  V30 1776 C 165.017 1.83237 -1.43272 0
M  V30 1777 C 166.011 1.66522 -0.310947 0
M  V30 1778 O 167.217 1.73402 -0.482899 0
M  V30 1779 H 163.592 0.603802 -0.448249 0
M  V30 1780 H 165.563 1.78727 -2.38954 0
M  V30 1781 C 164.312 3.21245 -1.33029 0
M  V30 1782 H 163.635 3.34723 -2.18633 0
M  V30 1783 H 165.075 4.00763 -1.38439 0
M  V30 1784 C 163.534 3.36873 -0.0424635 0
M  V30 1785 O 164.064 3.91177 0.913421 0
M  V30 1786 N 162.27 2.90581 0.0331145 0
M  V30 1787 H 161.817 2.46577 -0.745506 0
M  V30 1788 H 161.775 3.01416 0.894199 0
M  V30 1789 N 165.547 1.27147 0.931209 0
M  V30 1790 C 166.48 1.0389 2.0318 0
M  V30 1791 C 167.458 -0.0395716 1.62552 0
M  V30 1792 O 168.642 0.104867 1.88208 0
M  V30 1793 C 165.769 0.575227 3.3378 0
M  V30 1794 C 164.815 1.64774 3.93385 0
M  V30 1795 S 165.648 3.23933 4.26413 0
M  V30 1796 C 166.804 2.79358 5.60098 0
M  V30 1797 H 167.037 1.97075 2.22596 0
M  V30 1798 H 164.57 1.10938 1.07387 0
M  V30 1799 H 166.528 0.314385 4.09294 0
M  V30 1800 H 165.189 -0.336505 3.12292 0
M  V30 1801 H 164.382 1.27454 4.87618 0
M  V30 1802 H 163.984 1.86048 3.24441 0
M  V30 1803 H 166.276 2.24443 6.39243 0
M  V30 1804 H 167.219 3.72322 6.02314 0
M  V30 1805 H 167.627 2.1861 5.20452 0
M  V30 1806 N 167.025 -1.13721 1.09112 0
M  V30 1807 C 168.436 -1.6648 0.845068 0
M  V30 1808 C 168.787 -1.85911 -0.62701 0
M  V30 1809 O 167.912 -1.57556 -1.48341 0
M  V30 1810 C 168.507 -3.02413 1.52748 0
M  V30 1811 C 167.066 -3.52176 1.32849 0
M  V30 1812 C 166.213 -2.27492 1.58564 0
M  V30 1813 H 169.164 -0.976872 1.25072 0
M  V30 1814 H 169.185 -3.68223 0.958752 0
M  V30 1815 H 168.697 -2.88238 2.59885 0
M  V30 1816 H 166.798 -3.7156 0.278137 0
M  V30 1817 H 166.911 -4.32499 2.0611 0
M  V30 1818 H 165.275 -2.33923 1.00758 0
M  V30 1819 H 166.058 -2.15886 2.66924 0
M  V30 1820 N 168.503 -0.877838 -1.30888 0
M  V30 1821 C 169.728 -0.506629 -2.01117 0
M  V30 1822 C 170.153 0.895564 -1.65412 0
M  V30 1823 O 169.511 1.5923 -0.866922 0
M  V30 1824 C 169.559 -0.680223 -3.54126 0
M  V30 1825 O 168.663 0.277033 -4.11468 0
M  V30 1826 H 168.004 -0.200518 -0.633 0
M  V30 1827 H 170.534 -1.18342 -1.66902 0
M  V30 1828 H 170.544 -0.5765 -4.03907 0
M  V30 1829 H 169.219 -1.70261 -3.79452 0
M  V30 1830 H 167.796 0.127606 -3.72682 0
M  V30 1831 N 169.982 1.44106 -0.638065 0
M  V30 1832 C 171.23 2.01579 -0.145043 0
M  V30 1833 C 171.551 1.50496 1.24 0
M  V30 1834 O 170.821 0.711374 1.82527 0
M  V30 1835 H 169.401 0.745282 -0.05063 0
M  V30 1836 H 172.063 1.76516 -0.826327 0
M  V30 1837 H 171.159 3.11877 -0.118039 0
M  V30 1838 N 171.46 0.379036 1.52974 0
M  V30 1839 C 172.871 -0.0972525 1.86447 0
M  V30 1840 C 173.222 -1.47027 1.29914 0
M  V30 1841 O 172.347 -2.07135 0.626433 0
M  V30 1842 C 172.942 -0.183248 3.38304 0
M  V30 1843 C 171.501 -0.603812 3.71525 0
M  V30 1844 C 170.648 0.240632 2.76254 0
M  V30 1845 H 173.599 0.597316 1.4703 0
M  V30 1846 H 173.62 -1.00432 3.67006 0
M  V30 1847 H 173.132 0.816191 3.79421 0
M  V30 1848 H 171.233 -1.61099 3.35973 0
M  V30 1849 H 171.346 -0.369086 4.77676 0
M  V30 1850 H 169.71 -0.292548 2.53014 0
M  V30 1851 H 170.493 1.23786 3.20206 0
M  V30 1852 N 172.938 -1.57226 0.108567 0
M  V30 1853 C 173.888 -2.11305 -0.856396 0
M  V30 1854 C 174.872 -1.03129 -1.23504 0
M  V30 1855 O 176.064 -1.29381 -1.20787 0
M  V30 1856 C 173.193 -2.70771 -2.11041 0
M  V30 1857 C 172.279 -3.86011 -1.7566 0
M  V30 1858 N 172.67 -4.93492 -1.10902 0
M  V30 1859 C 170.968 -3.95999 -2.05185 0
M  V30 1860 C 171.669 -5.73984 -0.944308 0
M  V30 1861 N 170.645 -5.2346 -1.46596 0
M  V30 1862 H 174.447 -2.91784 -0.352002 0
M  V30 1863 H 171.961 -1.62126 -0.0942324 0
M  V30 1864 H 173.958 -3.07851 -2.81128 0
M  V30 1865 H 172.618 -1.91751 -2.62034 0
M  V30 1866 H 173.629 -5.1208 -0.774235 0
M  V30 1867 H 170.306 -3.28007 -2.58298 0
M  V30 1868 H 171.696 -6.70479 -0.436813 0
M  V30 1869 N 174.416 0.165178 -1.56732 0
M  V30 1870 C 175.656 0.887231 -1.8414 0
M  V30 1871 C 176.02 1.79159 -0.690353 0
M  V30 1872 O 177.221 2.55172 -0.845032 0
M  V30 1873 C 175.492 1.65674 -3.16681 0
M  V30 1874 S 177.051 2.42671 -3.6559 0
M  V30 1875 H 173.869 0.297042 -0.645978 0
M  V30 1876 H 176.471 0.148439 -1.94936 0
M  V30 1877 H 175.175 0.983507 -3.98441 0
M  V30 1878 H 174.706 2.43679 -3.08843 0
M  V30 1879 H 176.721 3.67499 -3.33406 0
M  V30 1880 N 175.894 1.51508 0.433938 0
M  V30 1881 C 176.824 1.76016 1.53429 0
M  V30 1882 C 177.805 0.610112 1.58782 0
M  V30 1883 O 178.99 0.853177 1.74455 0
M  V30 1884 C 176.12 1.88831 2.9148 0
M  V30 1885 C 175.074 3.04288 3.00987 0
M  V30 1886 C 174.4 3.0229 4.4105 0
M  V30 1887 C 175.7 4.44193 2.74754 0
M  V30 1888 H 177.394 2.68152 1.33171 0
M  V30 1889 H 174.94 1.29035 0.639214 0
M  V30 1890 H 176.893 2.04559 3.6842 0
M  V30 1891 H 175.617 0.933455 3.12976 0
M  V30 1892 H 174.276 2.8827 2.26486 0
M  V30 1893 H 173.924 2.04576 4.59519 0
M  V30 1894 H 173.624 3.79822 4.4834 0
M  V30 1895 H 175.148 3.20116 5.1996 0
M  V30 1896 H 176.562 4.60544 3.41426 0
M  V30 1897 H 174.959 5.23457 2.9345 0
M  V30 1898 H 176.029 4.53996 1.70339 0
M  V30 1899 N 177.372 -0.689602 1.41712 0
M  V30 1900 C 178.612 -1.46184 1.42862 0
M  V30 1901 C 178.976 -1.91962 0.0382204 0
M  V30 1902 O 180.177 -2.68694 -0.0755019 0
M  V30 1903 C 178.448 -2.6371 2.4123 0
M  V30 1904 S 180.007 -3.52768 2.6096 0
M  V30 1905 H 176.825 -0.49947 0.506015 0
M  V30 1906 H 179.427 -0.804107 1.78198 0
M  V30 1907 H 178.131 -2.28293 3.41044 0
M  V30 1908 H 177.662 -3.3437 2.07269 0
M  V30 1909 H 179.677 -4.59146 1.88148 0
M  V30 1910 N 178.85 -1.27639 -0.924453 0
M  V30 1911 C 180.261 -1.12834 -1.48746 0
M  V30 1912 C 180.612 0.285505 -1.94112 0
M  V30 1913 O 179.737 1.17874 -1.81479 0
M  V30 1914 C 180.332 -2.04217 -2.70334 0
M  V30 1915 C 178.891 -1.93509 -3.22848 0
M  V30 1916 C 178.038 -1.96583 -1.95577 0
M  V30 1917 H 180.989 -1.40484 -0.738233 0
M  V30 1918 H 181.01 -1.59989 -3.4523 0
M  V30 1919 H 180.522 -3.07111 -2.37285 0
M  V30 1920 H 178.623 -0.936131 -3.60649 0
M  V30 1921 H 178.736 -2.79917 -3.88823 0
M  V30 1922 H 177.1 -1.4085 -2.12211 0
M  V30 1923 H 177.883 -3.01137 -1.64837 0
M  V30 1924 N 180.328 1.1314 -1.09713 0
M  V30 1925 C 181.26 2.18343 -0.697056 0
M  V30 1926 C 182.273 1.60669 0.262551 0
M  V30 1927 O 183.462 1.78435 0.0481527 0
M  V30 1928 C 180.562 3.38899 -0.00684728 0
M  V30 1929 C 179.735 4.26078 -0.988741 0
M  V30 1930 C 178.794 5.25155 -0.331394 0
M  V30 1931 O 177.82 5.60701 -0.979926 0
M  V30 1932 N 179.022 5.73271 0.913261 0
M  V30 1933 H 181.787 2.5328 -1.60216 0
M  V30 1934 H 179.348 1.28491 -0.984971 0
M  V30 1935 H 181.34 4.02255 0.444191 0
M  V30 1936 H 179.91 3.02175 0.800551 0
M  V30 1937 H 179.13 3.59453 -1.61826 0
M  V30 1938 H 180.418 4.81178 -1.65364 0
M  V30 1939 H 179.816 5.46544 1.45966 0
M  V30 1940 H 178.373 6.3855 1.30757 0
M  V30 1941 N 181.806 0.884767 1.30421 0
M  V30 1942 C 182.756 0.322846 2.25703 0
M  V30 1943 C 183.74 -0.548582 1.51259 0
M  V30 1944 O 184.932 -0.39304 1.72581 0
M  V30 1945 C 182.061 -0.461787 3.4018 0
M  V30 1946 C 181.147 0.423717 4.21978 0
M  V30 1947 N 181.538 1.52408 4.82292 0
M  V30 1948 C 179.836 0.218795 4.45463 0
M  V30 1949 C 180.537 2.07136 5.43571 0
M  V30 1950 N 179.513 1.36635 5.26148 0
M  V30 1951 H 183.315 1.16363 2.69883 0
M  V30 1952 H 180.829 0.73415 1.44859 0
M  V30 1953 H 182.826 -0.880985 4.07485 0
M  V30 1954 H 181.486 -1.30001 2.9754 0
M  V30 1955 H 182.497 1.90693 4.81515 0
M  V30 1956 H 179.174 -0.582275 4.1342 0
M  V30 1957 H 180.564 2.99538 6.01437 0
M  V30 1958 N 183.284 -1.43765 0.645699 0
M  V30 1959 C 184.214 -2.33471 -0.0370477 0
M  V30 1960 C 185.195 -1.49042 -0.819779 0
M  V30 1961 O 186.38 -1.77726 -0.782758 0
M  V30 1962 C 183.51 -3.32311 -1.0093 0
M  V30 1963 C 182.464 -4.2667 -0.337201 0
M  V30 1964 C 181.79 -5.1549 -1.42037 0
M  V30 1965 C 183.09 -5.16657 0.765706 0
M  V30 1966 H 184.784 -2.90809 0.712069 0
M  V30 1967 H 182.33 -1.39834 0.343876 0
M  V30 1968 H 184.283 -3.9396 -1.49578 0
M  V30 1969 H 183.007 -2.73213 -1.78948 0
M  V30 1970 H 181.666 -3.66374 0.128771 0
M  V30 1971 H 181.314 -4.52735 -2.1918 0
M  V30 1972 H 181.014 -5.79438 -0.975966 0
M  V30 1973 H 182.538 -5.80012 -1.90838 0
M  V30 1974 H 183.952 -5.72158 0.361702 0
M  V30 1975 H 182.349 -5.89286 1.13413 0
M  V30 1976 H 183.419 -4.56796 1.62683 0
M  V30 1977 N 184.763 -0.387143 -1.52771 0
M  V30 1978 C 185.991 0.195869 -2.05971 0
M  V30 1979 C 186.406 1.40691 -1.25903 0
M  V30 1980 O 185.763 1.79931 -0.305134 0
M  V30 1981 C 185.814 0.56812 -3.57008 0
M  V30 1982 O 185.535 -0.594803 -4.34043 0
M  V30 1983 C 187.036 1.20723 -4.26545 0
M  V30 1984 H 184.256 0.0300578 -0.670326 0
M  V30 1985 H 186.8 -0.551749 -1.96916 0
M  V30 1986 H 184.955 1.26564 -3.66143 0
M  V30 1987 H 185.369 -0.289322 -5.23701 0
M  V30 1988 H 186.843 1.41807 -5.33474 0
M  V30 1989 H 187.32 2.17395 -3.81623 0
M  V30 1990 H 187.926 0.550535 -4.21722 0
M  V30 1991 N 186.241 1.57166 -0.116904 0
M  V30 1992 C 187.489 1.94737 0.540533 0
M  V30 1993 C 187.81 1.00096 1.67349 0
M  V30 1994 O 187.08 0.0568854 1.95817 0
M  V30 1995 H 185.66 0.718981 0.202669 0
M  V30 1996 H 188.322 1.94017 -0.185353 0
M  V30 1997 H 187.418 2.97719 0.936483 0
M  V30 1998 N 187.719 -0.156864 1.56817 0
M  V30 1999 C 188.667 -1.21319 1.98455 0
M  V30 2000 C 189.661 -1.45025 0.875444 0
M  V30 2001 O 190.867 -1.45435 1.0606 0
M  V30 2002 H 187.242 -0.408142 0.631605 0
M  V30 2003 H 189.213 -0.835244 2.86472 0
M  V30 2004 C 187.962 -2.54148 2.37285 0
M  V30 2005 H 187.285 -2.36733 3.22176 0
M  V30 2006 H 188.725 -3.26712 2.70251 0
M  V30 2007 C 187.184 -3.13967 1.22173 0
M  V30 2008 O 187.714 -3.98357 0.517149 0
M  V30 2009 N 185.92 -2.7327 0.988536 0
M  V30 2010 H 185.467 -2.04744 1.56326 0
M  V30 2011 H 185.425 -3.13628 0.220209 0
M  V30 2012 N 189.197 -1.51736 -0.425897 0
M  V30 2013 C 190.147 -1.70258 -1.51645 0
M  V30 2014 C 191.131 -0.556488 -1.5097 0
M  V30 2015 O 192.323 -0.812879 -1.5723 0
M  V30 2016 C 189.452 -1.84143 -2.89735 0
M  V30 2017 C 188.538 -3.04572 -2.95122 0
M  V30 2018 N 188.929 -4.2756 -2.70233 0
M  V30 2019 C 187.227 -3.04061 -3.26286 0
M  V30 2020 C 187.928 -5.08908 -2.81757 0
M  V30 2021 N 186.904 -4.43797 -3.13919 0
M  V30 2022 H 190.706 -2.63004 -1.31172 0
M  V30 2023 H 188.22 -1.4954 -0.633375 0
M  V30 2024 H 190.217 -1.95525 -3.68206 0
M  V30 2025 H 188.877 -0.925857 -3.1122 0
M  V30 2026 H 189.888 -4.56315 -2.44943 0
M  V30 2027 H 186.565 -2.22179 -3.53473 0
M  V30 2028 H 187.955 -6.16843 -2.66372 0
M  V30 2029 N 190.675 0.682077 -1.42076 0
M  V30 2030 C 191.915 1.45424 -1.43636 0
M  V30 2031 C 192.279 1.91939 -0.0484001 0
M  V30 2032 O 193.48 2.6873 0.0612514 0
M  V30 2033 C 191.751 2.62427 -2.42625 0
M  V30 2034 S 193.31 3.51379 -2.62827 0
M  V30 2035 H 190.128 0.496779 -0.508657 0
M  V30 2036 H 192.73 0.794645 -1.78621 0
M  V30 2037 H 191.434 2.26481 -3.42249 0
M  V30 2038 H 190.965 3.33266 -2.09039 0
M  V30 2039 H 192.98 4.58141 -1.9058 0
M  V30 2040 N 192.153 1.28127 0.917671 0
M  V30 2041 C 193.085 1.07517 2.02417 0
M  V30 2042 C 194.098 0.0281099 1.62776 0
M  V30 2043 O 195.287 0.270748 1.76435 0
M  V30 2044 C 192.387 0.610957 3.33347 0
M  V30 2045 C 191.56 1.73255 4.01624 0
M  V30 2046 C 190.619 1.26238 5.10833 0
M  V30 2047 O 189.645 1.96389 5.34247 0
M  V30 2048 N 190.847 0.123448 5.80369 0
M  V30 2049 H 193.612 2.02806 2.20658 0
M  V30 2050 H 191.173 1.19827 1.08871 0
M  V30 2051 H 193.165 0.280101 4.0373 0
M  V30 2052 H 191.735 -0.24898 3.11607 0
M  V30 2053 H 190.955 2.23319 3.24842 0
M  V30 2054 H 192.243 2.48503 4.43986 0
M  V30 2055 H 191.641 -0.461847 5.63812 0
M  V30 2056 H 190.198 -0.148158 6.51632 0
M  V30 2057 N 193.631 -1.12557 1.10312 0
M  V30 2058 C 194.578 -2.18247 0.750781 0
M  V30 2059 C 195.548 -1.63853 -0.272293 0
M  V30 2060 O 196.733 -1.90195 -0.151862 0
M  V30 2061 C 193.873 -3.44591 0.187379 0
M  V30 2062 C 192.986 -4.13046 1.2656 0
M  V30 2063 C 192.121 -5.27034 0.663978 0
M  V30 2064 C 191.16 -5.87353 1.72287 0
M  V30 2065 N 190.297 -6.92757 1.1416 0
M  V30 2066 H 195.137 -2.47732 1.65628 0
M  V30 2067 H 192.674 -1.21629 0.827337 0
M  V30 2068 H 194.632 -4.16904 -0.157148 0
M  V30 2069 H 193.262 -3.15527 -0.681355 0
M  V30 2070 H 192.314 -3.38924 1.72727 0
M  V30 2071 H 193.626 -4.53947 2.06721 0
M  V30 2072 H 192.78 -6.06104 0.268824 0
M  V30 2073 H 191.519 -4.87407 -0.169082 0
M  V30 2074 H 190.524 -5.06971 2.12746 0
M  V30 2075 H 191.749 -6.29051 2.55875 0
M  V30 2076 H 189.695 -6.5517 0.329984 0
M  V30 2077 H 189.612 -7.3225 1.88007 0
M  V30 2078 H 190.88 -7.75658 0.772956 0
M  V30 2079 N 195.109 -0.891671 -1.2995 0
M  V30 2080 C 196.019 -0.367691 -2.31701 0
M  V30 2081 C 197.035 0.533486 -1.6562 0
M  V30 2082 O 198.211 0.424997 -1.96865 0
M  V30 2083 C 195.276 0.403406 -3.44345 0
M  V30 2084 C 194.337 -0.528328 -4.26037 0
M  V30 2085 C 193.57 0.206063 -5.33302 0
M  V30 2086 O 193.793 1.43119 -5.52153 0
M  V30 2087 O 192.727 -0.447281 -6.00236 0
M  V30 2088 H 196.553 -1.21163 -2.78484 0
M  V30 2089 H 194.138 -0.655725 -1.34241 0
M  V30 2090 H 196.02 0.839753 -4.12948 0
M  V30 2091 H 194.695 1.22354 -2.99685 0
M  V30 2092 H 193.602 -1.01362 -3.60106 0
M  V30 2093 H 194.935 -1.31465 -4.74318 0
M  V30 2094 N 196.587 1.43421 -0.653314 0
M  V30 2095 C 197.534 2.30768 0.0382271 0
M  V30 2096 C 198.504 1.44755 0.814576 0
M  V30 2097 O 199.689 1.73624 0.791162 0
M  V30 2098 C 196.829 3.30336 0.998599 0
M  V30 2099 C 195.942 4.31448 0.218342 0
M  V30 2100 C 195.077 5.18098 1.17252 0
M  V30 2101 C 194.116 6.10902 0.382702 0
M  V30 2102 N 193.253 6.90176 1.28848 0
M  V30 2103 H 198.093 2.89357 -0.712511 0
M  V30 2104 H 195.63 1.42548 -0.363128 0
M  V30 2105 H 197.588 3.86572 1.56901 0
M  V30 2106 H 196.218 2.73397 1.71621 0
M  V30 2107 H 195.27 3.77506 -0.46836 0
M  V30 2108 H 196.582 4.97227 -0.395812 0
M  V30 2109 H 195.736 5.7896 1.81356 0
M  V30 2110 H 194.475 4.52444 1.82058 0
M  V30 2111 H 193.48 5.49128 -0.27169 0
M  V30 2112 H 194.705 6.78598 -0.260957 0
M  V30 2113 H 192.651 6.27171 1.92334 0
M  V30 2114 H 192.568 7.52478 0.728887 0
M  V30 2115 H 193.836 7.55543 1.91766 0
M  V30 2116 N 198.065 0.39524 1.52563 0
M  V30 2117 C 199.305 -0.184744 2.03563 0
M  V30 2118 C 199.669 -1.43548 1.27507 0
M  V30 2119 O 200.87 -2.093 1.68662 0
M  V30 2120 C 199.141 -0.440294 3.54678 0
M  V30 2121 S 200.7 -0.989712 4.27493 0
M  V30 2122 H 197.518 -0.0515075 0.709132 0
M  V30 2123 H 200.12 0.544957 1.87751 0
M  V30 2124 H 198.824 0.477005 4.07618 0
M  V30 2125 H 198.355 -1.19825 3.74707 0
M  V30 2126 H 200.37 -2.27155 4.41152 0
M  V30 2127 N 199.544 -1.57102 0.125237 0
M  V30 2128 C 200.791 -1.95407 -0.531248 0
M  V30 2129 C 201.119 -1.0089 -1.66287 0
M  V30 2130 O 200.374 -0.0339431 -1.95671 0
M  V30 2131 C 200.673 -3.40096 -1.09862 0
M  V30 2132 C 200.339 -4.50815 -0.0876989 0
M  V30 2133 C 199.001 -4.80824 0.19026 0
M  V30 2134 C 201.353 -5.17724 0.600902 0
M  V30 2135 C 198.681 -5.75058 1.163 0
M  V30 2136 C 201.033 -6.13005 1.56231 0
M  V30 2137 C 199.697 -6.41403 1.8482 0
M  V30 2138 H 198.967 -0.715046 -0.194397 0
M  V30 2139 H 201.614 -1.90373 0.207463 0
M  V30 2140 H 199.919 -3.41855 -1.91422 0
M  V30 2141 H 201.616 -3.6705 -1.61478 0
M  V30 2142 H 198.206 -4.27444 -0.314528 0
M  V30 2143 H 202.39 -4.94691 0.399333 0
M  V30 2144 H 197.646 -5.95362 1.39117 0
M  V30 2145 H 201.82 -6.63934 2.10153 0
M  V30 2146 H 199.447 -7.14229 2.60349 0
M  V30 2147 N 201.022 0.148545 -1.56898 0
M  V30 2148 C 201.932 1.20293 -2.01412 0
M  V30 2149 C 202.948 1.47107 -0.929273 0
M  V30 2150 O 204.124 1.58807 -1.23863 0
M  V30 2151 C 201.189 2.51682 -2.38447 0
M  V30 2152 C 200.25 2.32529 -3.60872 0
M  V30 2153 C 199.483 3.57653 -3.96132 0
M  V30 2154 O 199.706 4.63771 -3.32073 0
M  V30 2155 O 198.64 3.50408 -4.89385 0
M  V30 2156 H 202.466 0.855025 -2.91416 0
M  V30 2157 H 200.051 0.357151 -1.45068 0
M  V30 2158 H 201.933 3.29147 -2.63135 0
M  V30 2159 H 200.608 2.86006 -1.51599 0
M  V30 2160 H 199.515 1.53019 -3.41373 0
M  V30 2161 H 200.848 2.03121 -4.48333 0
M  V30 2162 N 202.5 1.5196 0.417844 0
M  V30 2163 C 203.911 1.57851 0.997 0
M  V30 2164 C 204.262 0.413714 1.91789 0
M  V30 2165 O 203.387 -0.467057 2.113 0
M  V30 2166 C 203.982 2.86085 1.81496 0
M  V30 2167 C 202.541 2.94483 2.34428 0
M  V30 2168 C 201.688 2.52707 1.14169 0
M  V30 2169 H 204.639 1.57455 0.198392 0
M  V30 2170 H 204.66 2.70947 2.67148 0
M  V30 2171 H 204.172 3.70842 1.14446 0
M  V30 2172 H 202.273 2.142 3.04875 0
M  V30 2173 H 202.386 3.98546 2.65891 0
M  V30 2174 H 200.75 2.06353 1.49301 0
M  V30 2175 H 201.533 3.39828 0.486999 0
M  V30 2176 N 203.978 -0.674533 1.42435 0
M  V30 2177 C 204.91 -1.80005 1.41883 0
M  V30 2178 C 205.923 -1.59667 0.31787 0
M  V30 2179 O 207.112 -1.68781 0.580973 0
M  V30 2180 C 204.212 -3.17114 1.19549 0
M  V30 2181 C 203.385 -3.64299 2.42084 0
M  V30 2182 C 202.444 -4.80142 2.15291 0
M  V30 2183 O 201.47 -4.90673 2.88493 0
M  V30 2184 N 202.672 -5.68869 1.1562 0
M  V30 2185 H 205.437 -1.80964 2.38898 0
M  V30 2186 H 202.998 -0.857633 1.37318 0
M  V30 2187 H 204.99 -3.92267 0.995417 0
M  V30 2188 H 203.56 -3.11053 0.310569 0
M  V30 2189 H 202.78 -2.79822 2.77657 0
M  V30 2190 H 204.068 -3.92567 3.23679 0
M  V30 2191 H 203.466 -5.63012 0.550765 0
M  V30 2192 H 202.023 -6.43833 1.016 0
M  V30 2193 N 205.456 -1.28612 -0.910864 0
M  V30 2194 C 206.386 -1.15326 -2.03032 0
M  V30 2195 C 207.367 -0.0502924 -1.70026 0
M  V30 2196 O 208.552 -0.227797 -1.92859 0
M  V30 2197 C 205.682 -0.817343 -3.37545 0
M  V30 2198 C 204.636 -1.8754 -3.84724 0
M  V30 2199 C 203.962 -1.39305 -5.16235 0
M  V30 2200 C 205.262 -3.28244 -4.06267 0
M  V30 2201 H 206.956 -2.08975 -2.14406 0
M  V30 2202 H 204.502 -1.00612 -1.03021 0
M  V30 2203 H 206.455 -0.711151 -4.15356 0
M  V30 2204 H 205.179 0.154846 -3.26233 0
M  V30 2205 H 203.838 -1.97079 -3.09121 0
M  V30 2206 H 203.486 -0.409846 -5.01328 0
M  V30 2207 H 203.186 -2.10057 -5.48771 0
M  V30 2208 H 204.71 -1.30014 -5.96598 0
M  V30 2209 H 206.124 -3.21611 -4.74594 0
M  V30 2210 H 204.521 -3.96855 -4.5014 0
M  V30 2211 H 205.591 -3.72048 -3.10979 0
M  V30 2212 N 206.934 1.1197 -1.10907 0
M  V30 2213 C 207.864 2.19928 -0.784473 0
M  V30 2214 C 208.845 1.6833 0.244726 0
M  V30 2215 O 210.03 1.93892 0.109418 0
M  V30 2216 C 207.16 3.46597 -0.220827 0
M  V30 2217 C 206.114 4.11376 -1.18127 0
M  V30 2218 C 205.44 5.32554 -0.478594 0
M  V30 2219 C 206.74 4.56945 -2.52979 0
M  V30 2220 H 208.434 2.47337 -1.68715 0
M  V30 2221 H 205.98 1.18879 -0.812642 0
M  V30 2222 H 207.933 4.21396 0.0184278 0
M  V30 2223 H 206.657 3.1863 0.717113 0
M  V30 2224 H 205.316 3.38564 -1.40606 0
M  V30 2225 H 204.964 5.00856 0.463976 0
M  V30 2226 H 204.664 5.76844 -1.11912 0
M  V30 2227 H 206.188 6.10096 -0.248 0
M  V30 2228 H 207.602 5.23093 -2.3462 0
M  V30 2229 H 205.999 5.1203 -3.12962 0
M  V30 2230 H 207.069 3.70676 -3.12614 0
M  V30 2231 N 208.412 0.89855 1.29475 0
M  V30 2232 C 209.828 0.594483 1.48115 0
M  V30 2233 C 210.028 -0.86431 1.82022 0
M  V30 2234 O 209.084 -1.64457 1.91599 0
M  V30 2235 C 210.397 1.51932 2.59494 0
M  V30 2236 C 211.945 1.5244 2.7337 0
M  V30 2237 C 212.42 2.43548 3.87877 0
M  V30 2238 N 213.911 2.41589 3.95208 0
M  V30 2239 C 214.646 3.08789 4.83153 0
M  V30 2240 N 214.142 3.85265 5.75798 0
M  V30 2241 N 215.935 2.97952 4.76635 0
M  V30 2242 H 208.086 1.84207 1.05742 0
M  V30 2243 H 210.349 0.789251 0.525154 0
M  V30 2244 H 210.055 2.55865 2.41301 0
M  V30 2245 H 209.929 1.23899 3.56271 0
M  V30 2246 H 212.316 0.492518 2.90961 0
M  V30 2247 H 212.397 1.8451 1.77172 0
M  V30 2248 H 212.041 3.46829 3.71041 0
M  V30 2249 H 211.971 2.08788 4.83441 0
M  V30 2250 H 214.462 1.86025 3.28943 0
M  V30 2251 H 214.775 4.33598 6.39697 0
M  V30 2252 H 213.12 3.89371 5.75687 0
M  V30 2253 H 216.311 2.37723 4.03244 0
M  V30 2254 H 216.484 3.50599 5.44962 0
M  V30 2255 N 209.89 -1.43072 0.660911 0
M  V30 2256 C 211.137 -2.01721 0.177445 0
M  V30 2257 C 211.465 -1.5218 -1.21126 0
M  V30 2258 O 210.72 -0.708659 -1.82419 0
M  V30 2259 C 211.019 -3.57103 0.145563 0
M  V30 2260 C 210.685 -4.26021 1.47705 0
M  V30 2261 C 209.347 -4.44563 1.84165 0
M  V30 2262 C 211.699 -4.64983 2.35458 0
M  V30 2263 C 209.027 -4.99334 3.0803 0
M  V30 2264 C 211.379 -5.21127 3.58622 0
M  V30 2265 C 210.043 -5.37884 3.95268 0
M  V30 2266 H 209.313 -0.73815 0.0649317 0
M  V30 2267 H 211.96 -1.71446 0.853144 0
M  V30 2268 H 210.265 -3.86965 -0.61361 0
M  V30 2269 H 211.962 -4.00248 -0.2455 0
M  V30 2270 H 208.552 -4.11939 1.18339 0
M  V30 2271 H 212.736 -4.50343 2.08579 0
M  V30 2272 H 207.992 -5.10493 3.36462 0
M  V30 2273 H 212.166 -5.50262 4.26831 0
M  V30 2274 H 209.793 -5.80089 4.91325 0
M  V30 2275 N 211.368 -0.403325 -1.52352 0
M  V30 2276 C 212.615 0.174347 -2.01748 0
M  V30 2277 C 212.943 1.45636 -1.2892 0
M  V30 2278 O 212.198 1.9193 -0.382258 0
M  V30 2279 C 212.497 0.474665 -3.54234 0
M  V30 2280 C 212.163 -0.717458 -4.45155 0
M  V30 2281 C 210.825 -1.04447 -4.69728 0
M  V30 2282 C 213.177 -1.51432 -4.98716 0
M  V30 2283 C 210.505 -2.16963 -5.45109 0
M  V30 2284 C 212.857 -2.6302 -5.75329 0
M  V30 2285 C 211.521 -2.96213 -5.98175 0
M  V30 2286 H 210.791 0.0637981 -0.738248 0
M  V30 2287 H 213.438 -0.543553 -1.83624 0
M  V30 2288 H 211.743 1.27406 -3.70506 0
M  V30 2289 H 213.44 0.934496 -3.89959 0
M  V30 2290 H 210.03 -0.452596 -4.26204 0
M  V30 2291 H 214.214 -1.27491 -4.79645 0
M  V30 2292 H 209.47 -2.43034 -5.61021 0
M  V30 2293 H 213.644 -3.25158 -6.15829 0
M  V30 2294 H 211.271 -3.83516 -6.56368 0
M  V30 2295 N 212.846 1.57033 -0.133567 0
M  V30 2296 C 213.796 2.12641 0.822671 0
M  V30 2297 C 214.78 1.05081 1.21847 0
M  V30 2298 O 215.972 1.31287 1.18713 0
M  V30 2299 C 213.101 2.74094 2.06706 0
M  V30 2300 C 212.187 3.88757 1.69497 0
M  V30 2301 N 212.578 4.95194 1.03037 0
M  V30 2302 C 210.876 3.99213 1.98859 0
M  V30 2303 C 211.577 5.75414 0.852873 0
M  V30 2304 N 210.553 5.25726 1.3825 0
M  V30 2305 H 214.355 2.92308 0.305537 0
M  V30 2306 H 211.869 1.62256 0.0684276 0
M  V30 2307 H 213.866 3.12285 2.76195 0
M  V30 2308 H 212.526 1.95896 2.5895 0
M  V30 2309 H 213.537 5.13247 0.692669 0
M  V30 2310 H 210.214 3.32075 2.53047 0
M  V30 2311 H 211.604 6.71089 0.330091 0
M  V30 2312 N 214.325 -0.140222 1.56975 0
M  V30 2313 C 215.272 -1.17292 1.98774 0
M  V30 2314 C 216.242 -1.4232 0.856408 0
M  V30 2315 O 217.427 -1.54541 1.119 0
M  V30 2316 C 214.567 -2.49973 2.37923 0
M  V30 2317 C 213.68 -2.32062 3.64378 0
M  V30 2318 C 212.815 -3.57825 3.926 0
M  V30 2319 C 211.854 -3.3498 5.12303 0
M  V30 2320 N 210.991 -4.52891 5.36502 0
M  V30 2321 H 215.831 -0.809472 2.86795 0
M  V30 2322 H 213.368 -0.388237 1.41884 0
M  V30 2323 H 215.326 -3.27346 2.58652 0
M  V30 2324 H 213.956 -2.84252 1.52972 0
M  V30 2325 H 213.008 -1.45711 3.51387 0
M  V30 2326 H 214.32 -2.11145 4.51906 0
M  V30 2327 H 213.474 -4.43624 4.13863 0
M  V30 2328 H 212.213 -3.81753 3.03506 0
M  V30 2329 H 211.218 -2.4757 4.90906 0
M  V30 2330 H 212.443 -3.12444 6.02956 0
M  V30 2331 H 210.389 -4.76979 4.50363 0
M  V30 2332 H 210.306 -4.35001 6.18312 0
M  V30 2333 H 211.574 -5.39884 5.62268 0
M  V30 2334 N 215.803 -1.52179 -0.40978 0
M  V30 2335 C 216.751 -1.76086 -1.51975 0
M  V30 2336 C 217.745 -0.627964 -1.57331 0
M  V30 2337 O 218.951 -0.809993 -1.60745 0
M  V30 2338 H 215.326 -0.556829 -0.505416 0
M  V30 2339 H 217.297 -2.69077 -1.28996 0
M  V30 2340 C 216.046 -1.92799 -2.8935 0
M  V30 2341 H 215.369 -2.79392 -2.85972 0
M  V30 2342 H 216.809 -2.13527 -3.66309 0
M  V30 2343 C 215.268 -0.694923 -3.29655 0
M  V30 2344 O 215.798 0.13751 -4.01465 0
M  V30 2345 N 214.004 -0.53101 -2.85707 0
M  V30 2346 H 213.551 -1.20952 -2.27439 0
M  V30 2347 H 213.509 0.292718 -3.13034 0
M  V30 2348 N 217.281 0.66697 -1.42791 0
M  V30 2349 C 218.191 1.80962 -1.49299 0
M  V30 2350 C 219.207 1.69775 -0.381108 0
M  V30 2351 O 220.383 1.91188 -0.633188 0
M  V30 2352 C 217.448 3.17156 -1.40045 0
M  V30 2353 C 216.509 3.40242 -2.6179 0
M  V30 2354 C 215.742 4.69939 -2.52969 0
M  V30 2355 O 215.965 5.48372 -1.56985 0
M  V30 2356 O 214.899 4.94441 -3.43237 0
M  V30 2357 H 218.725 1.78427 -2.45759 0
M  V30 2358 H 216.31 0.823713 -1.24641 0
M  V30 2359 H 218.192 3.98413 -1.37276 0
M  V30 2360 H 216.867 3.20312 -0.467138 0
M  V30 2361 H 215.774 2.58802 -2.70134 0
M  V30 2362 H 217.107 3.41923 -3.54047 0
M  V30 2363 N 218.759 1.29093 0.90403 0
M  V30 2364 C 220.008 1.16187 1.64874 0
M  V30 2365 C 220.321 -0.286742 1.93487 0
M  V30 2366 O 221.527 -0.537062 2.66135 0
M  V30 2367 C 219.983 2.03177 2.97064 0
M  V30 2368 C 219.591 3.52836 2.76062 0
M  V30 2369 C 221.335 1.98984 3.74974 0
M  V30 2370 C 219.242 4.31945 4.03952 0
M  V30 2371 H 218.172 0.431246 0.618501 0
M  V30 2372 H 220.823 1.53699 1.00243 0
M  V30 2373 H 219.205 1.5853 3.62883 0
M  V30 2374 H 220.379 4.05507 2.18863 0
M  V30 2375 H 218.694 3.58656 2.11553 0
M  V30 2376 H 221.291 2.55351 4.69787 0
M  V30 2377 H 221.634 0.968815 4.0487 0
M  V30 2378 H 222.167 2.41652 3.15989 0
M  V30 2379 H 218.906 5.34667 3.79225 0
M  V30 2380 H 218.426 3.84045 4.60727 0
M  V30 2381 H 220.105 4.42379 4.72133 0
M  V30 2382 N 220.237 -1.11381 1.11499 0
M  V30 2383 C 221.483 -1.83597 0.875423 0
M  V30 2384 C 221.838 -1.83048 -0.592555 0
M  V30 2385 O 221.131 -1.27304 -1.43193 0
M  V30 2386 C 221.325 -3.30026 1.37177 0
M  V30 2387 C 221.154 -3.44837 2.88647 0
M  V30 2388 C 219.924 -3.57825 3.56776 0
M  V30 2389 C 222.122 -3.3907 3.86699 0
M  V30 2390 N 220.104 -3.61113 4.96458 0
M  V30 2391 C 221.475 -3.48986 5.12454 0
M  V30 2392 C 223.53 -3.22605 3.7925 0
M  V30 2393 C 222.233 -3.44135 6.31636 0
M  V30 2394 C 224.259 -3.19072 4.97943 0
M  V30 2395 C 223.621 -3.29559 6.22551 0
M  V30 2396 H 219.72 -0.687044 0.37349 0
M  V30 2397 H 222.304 -1.33265 1.41946 0
M  V30 2398 H 220.475 -3.78874 0.854919 0
M  V30 2399 H 222.207 -3.90153 1.07529 0
M  V30 2400 H 218.962 -3.60414 3.07244 0
M  V30 2401 H 219.386 -3.66394 5.69284 0
M  V30 2402 H 224.028 -3.13382 2.83816 0
M  V30 2403 H 221.746 -3.52126 7.27347 0
M  V30 2404 H 225.332 -3.07498 4.93899 0
M  V30 2405 H 224.212 -3.26815 7.12855 0
M  V30 2406 N 221.715 -0.905404 -1.28997 0
M  V30 2407 C 222.945 -0.549049 -1.99171 0
M  V30 2408 C 223.353 0.87203 -1.67906 0
M  V30 2409 O 222.696 1.58796 -0.923561 0
M  V30 2410 C 222.758 -0.668306 -3.53234 0
M  V30 2411 C 222.422 -2.0574 -4.08069 0
M  V30 2412 C 223.419 -3.0292 -4.22534 0
M  V30 2413 C 221.104 -2.36833 -4.42962 0
M  V30 2414 C 223.098 -4.29314 -4.71135 0
M  V30 2415 C 220.785 -3.63467 -4.91258 0
M  V30 2416 C 221.783 -4.59522 -5.053 0
M  V30 2417 O 221.471 -5.83907 -5.52546 0
M  V30 2418 H 221.203 -0.208784 -0.64295 0
M  V30 2419 H 223.757 -1.21836 -1.65363 0
M  V30 2420 H 221.987 0.0580547 -3.86656 0
M  V30 2421 H 223.676 -0.320273 -4.04634 0
M  V30 2422 H 224.442 -2.80216 -3.95859 0
M  V30 2423 H 220.321 -1.62824 -4.31288 0
M  V30 2424 H 223.865 -5.04293 -4.8201 0
M  V30 2425 H 219.762 -3.86 -5.17372 0
M  V30 2426 H 220.53 -5.86578 -5.70849 0
M  V30 2427 N 223.193 1.4272 -0.668489 0
M  V30 2428 C 224.609 1.55992 -0.33745 0
M  V30 2429 C 224.809 1.64933 1.15756 0
M  V30 2430 O 223.865 1.61278 1.94282 0
M  V30 2431 C 225.178 2.81314 -1.06222 0
M  V30 2432 C 226.726 2.95078 -1.04394 0
M  V30 2433 C 227.201 4.23252 -1.74991 0
M  V30 2434 N 228.692 4.3015 -1.71829 0
M  V30 2435 C 229.427 5.28127 -2.23315 0
M  V30 2436 N 228.923 6.32293 -2.83156 0
M  V30 2437 N 230.716 5.19882 -2.13726 0
M  V30 2438 H 222.867 1.3516 -1.63846 0
M  V30 2439 H 225.13 0.650174 -0.689912 0
M  V30 2440 H 224.836 2.80823 -2.11734 0
M  V30 2441 H 224.71 3.72012 -0.62344 0
M  V30 2442 H 227.097 2.951 0.0028244 0
M  V30 2443 H 227.178 2.05627 -1.52155 0
M  V30 2444 H 226.822 4.2399 -2.79633 0
M  V30 2445 H 226.752 5.11626 -1.24685 0
M  V30 2446 H 229.243 3.55499 -1.28175 0
M  V30 2447 H 229.556 7.03398 -3.20079 0
M  V30 2448 H 227.901 6.32873 -2.87223 0
M  V30 2449 H 231.092 4.37423 -1.66669 0
M  V30 2450 H 231.265 5.96077 -2.54158 0
M  V30 2451 N 224.671 0.411399 1.52136 0
M  V30 2452 C 225.899 -0.163076 2.06256 0
M  V30 2453 C 226.314 -1.3867 1.28125 0
M  V30 2454 O 225.671 -1.79423 0.333721 0
M  V30 2455 C 225.722 -0.511252 3.57867 0
M  V30 2456 O 225.443 0.66378 4.33042 0
M  V30 2457 C 226.944 -1.13921 4.28412 0
M  V30 2458 H 224.164 -0.0193897 0.67072 0
M  V30 2459 H 226.708 0.583007 1.96013 0
M  V30 2460 H 224.863 -1.20723 3.6811 0
M  V30 2461 H 225.277 0.372601 5.23175 0
M  V30 2462 H 226.751 -1.33302 5.35663 0
M  V30 2463 H 227.228 -2.11296 3.85033 0
M  V30 2464 H 227.834 -0.483373 4.22544 0
M  V30 2465 N 226.149 -1.5696 0.141893 0
M  V30 2466 C 227.059 -2.20066 -0.812905 0
M  V30 2467 C 228.075 -1.18344 -1.27557 0
M  V30 2468 O 229.251 -1.50902 -1.33381 0
M  V30 2469 C 226.316 -2.80583 -2.03652 0
M  V30 2470 C 225.377 -3.97414 -1.62359 0
M  V30 2471 C 224.61 -4.55036 -2.78887 0
M  V30 2472 O 224.833 -4.11538 -3.94959 0
M  V30 2473 O 223.767 -5.45376 -2.54653 0
M  V30 2474 H 227.593 -3.02157 -0.305746 0
M  V30 2475 H 225.178 -1.49159 -0.0848799 0
M  V30 2476 H 227.06 -3.19067 -2.75272 0
M  V30 2477 H 225.735 -2.01508 -2.5333 0
M  V30 2478 H 224.642 -3.63656 -0.877775 0
M  V30 2479 H 225.975 -4.77994 -1.17401 0
M  V30 2480 N 227.627 0.131896 -1.57047 0
M  V30 2481 C 228.559 1.1878 -1.9602 0
M  V30 2482 C 229.572 1.38363 -0.857875 0
M  V30 2483 O 230.761 1.37666 -1.13623 0
M  V30 2484 C 227.861 2.55008 -2.23213 0
M  V30 2485 C 227.034 2.56201 -3.54513 0
M  V30 2486 C 226.093 3.7408 -3.70069 0
M  V30 2487 O 225.119 3.58258 -4.42312 0
M  V30 2488 N 226.321 4.92137 -3.07866 0
M  V30 2489 H 229.086 0.85639 -2.87204 0
M  V30 2490 H 226.647 0.321309 -1.5868 0
M  V30 2491 H 228.639 3.32404 -2.30846 0
M  V30 2492 H 227.209 2.80382 -1.3822 0
M  V30 2493 H 226.429 1.64613 -3.58185 0
M  V30 2494 H 227.717 2.54043 -4.4084 0
M  V30 2495 H 227.115 5.07895 -2.49116 0
M  V30 2496 H 225.672 5.67254 -3.21039 0
M  V30 2497 N 229.106 1.52395 0.401703 0
M  V30 2498 C 230.069 1.75636 1.47257 0
M  V30 2499 C 231.069 0.62628 1.48103 0
M  V30 2500 O 232.259 0.894227 1.49497 0
M  V30 2501 C 229.391 1.84553 2.86624 0
M  V30 2502 H 230.584 2.71241 1.27938 0
M  V30 2503 H 228.137 1.42923 0.632662 0
M  V30 2504 H 228.872 0.908882 3.11303 0
M  V30 2505 H 228.657 2.66715 2.87412 0
M  V30 2506 H 230.147 2.04251 3.64241 0
M  V30 2507 N 230.584 -0.659388 1.43143 0
M  V30 2508 C 231.547 -1.75432 1.47501 0
M  V30 2509 C 232.547 -1.56707 0.360512 0
M  V30 2510 O 233.737 -1.62717 0.622002 0
M  V30 2511 C 230.869 -3.14239 1.32162 0
M  V30 2512 H 232.062 -1.7295 2.45006 0
M  V30 2513 H 229.615 -0.870469 1.29817 0
M  V30 2514 H 230.35 -3.22336 0.356401 0
M  V30 2515 H 230.135 -3.29235 2.12948 0
M  V30 2516 H 231.625 -3.94094 1.3813 0
M  V30 2517 N 232.062 -1.29571 -0.897171 0
M  V30 2518 C 233.308 -1.17863 -1.65034 0
M  V30 2519 C 233.641 0.268729 -1.92332 0
M  V30 2520 O 232.916 1.19378 -1.53555 0
M  V30 2521 C 233.199 -1.995 -2.99786 0
M  V30 2522 C 233.052 -3.5239 -2.79538 0
M  V30 2523 C 234.371 -1.82335 -4.00552 0
M  V30 2524 H 231.49 -0.429528 -0.598895 0
M  V30 2525 H 234.132 -1.59072 -1.03905 0
M  V30 2526 H 232.282 -1.64485 -3.51962 0
M  V30 2527 H 233.954 -3.97401 -2.34244 0
M  V30 2528 H 232.197 -3.77187 -2.14273 0
M  V30 2529 H 232.868 -4.04787 -3.75302 0
M  V30 2530 H 235.344 -2.12924 -3.57495 0
M  V30 2531 H 234.22 -2.41801 -4.92771 0
M  V30 2532 H 234.481 -0.779209 -4.35179 0
M  V30 2533 N 233.54 1.10788 -1.12088 0
M  V30 2534 C 234.503 2.15207 -0.788577 0
M  V30 2535 C 235.503 1.59609 0.195317 0
M  V30 2536 O 236.693 1.74174 -0.0300193 0
M  V30 2537 C 233.825 3.4047 -0.171174 0
M  V30 2538 H 235.018 2.46116 -1.71368 0
M  V30 2539 H 232.571 1.26089 -0.923652 0
M  V30 2540 H 233.306 3.15176 0.763832 0
M  V30 2541 H 233.091 3.82109 -0.879514 0
M  V30 2542 H 234.581 4.17576 0.04496 0
M  V30 2543 N 235.018 0.912232 1.28515 0
M  V30 2544 C 236.434 0.610159 1.47476 0
M  V30 2545 C 236.634 -0.844955 1.82928 0
M  V30 2546 O 235.69 -1.62416 1.93332 0
M  V30 2547 C 237.003 1.54675 2.57868 0
M  V30 2548 C 238.551 1.55331 2.71738 0
M  V30 2549 C 239.026 2.47649 3.85272 0
M  V30 2550 N 240.517 2.45767 3.92623 0
M  V30 2551 C 241.252 3.13896 4.79851 0
M  V30 2552 N 240.748 3.9135 5.71679 0
M  V30 2553 N 242.541 3.02991 4.73448 0
M  V30 2554 H 234.692 1.85318 1.03783 0
M  V30 2555 H 236.955 0.794777 0.516753 0
M  V30 2556 H 236.661 2.5841 2.38574 0
M  V30 2557 H 236.535 1.27671 3.54937 0
M  V30 2558 H 238.922 0.52335 2.90422 0
M  V30 2559 H 239.003 1.86378 1.75205 0
M  V30 2560 H 238.647 3.50745 3.67342 0
M  V30 2561 H 238.577 2.13904 4.81199 0
M  V30 2562 H 241.068 1.89503 3.26951 0
M  V30 2563 H 241.381 4.40359 6.35062 0
M  V30 2564 H 239.726 3.95455 5.71524 0
M  V30 2565 H 242.917 2.41987 4.007 0
M  V30 2566 H 243.09 3.5636 5.41213 0
M  V30 2567 N 236.496 -1.42363 0.676048 0
M  V30 2568 C 237.736 -2.03392 0.20273 0
M  V30 2569 C 238.1 -1.52306 -1.16906 0
M  V30 2570 O 239.301 -2.05129 -1.73711 0
M  V30 2571 C 237.572 -3.56614 0.236947 0
M  V30 2572 S 239.131 -4.38489 -0.165186 0
M  V30 2573 H 235.949 -0.70611 0.0832418 0
M  V30 2574 H 238.551 -1.74093 0.88948 0
M  V30 2575 H 237.255 -3.91293 1.23767 0
M  V30 2576 H 236.786 -3.90587 -0.469596 0
M  V30 2577 H 238.801 -4.76093 -1.39822 0
M  V30 2578 N 237.974 -0.419461 -1.51915 0
M  V30 2579 C 238.906 0.43646 -2.25006 0
M  V30 2580 C 239.919 1.00149 -1.28351 0
M  V30 2581 O 241.108 0.898674 -1.54227 0
M  V30 2582 C 238.208 1.6206 -2.9764 0
M  V30 2583 C 237.381 1.17763 -4.21249 0
M  V30 2584 C 236.44 2.22985 -4.76617 0
M  V30 2585 O 235.466 1.83151 -5.38929 0
M  V30 2586 N 236.668 3.55271 -4.59089 0
M  V30 2587 H 239.433 -0.18989 -2.99098 0
M  V30 2588 H 236.994 -0.247386 -1.59999 0
M  V30 2589 H 238.986 2.32038 -3.31573 0
M  V30 2590 H 237.556 2.15266 -2.2667 0
M  V30 2591 H 236.776 0.305582 -3.93014 0
M  V30 2592 H 238.064 0.858781 -5.015 0
M  V30 2593 H 237.462 3.90377 -4.09417 0
M  V30 2594 H 236.019 4.21195 -4.97432 0
M  V30 2595 N 239.452 1.56882 -0.150215 0
M  V30 2596 C 240.692 1.98119 0.502804 0
M  V30 2597 C 241.056 1.03327 1.61826 0
M  V30 2598 O 242.257 1.33621 2.33236 0
M  V30 2599 C 240.528 3.43329 0.992988 0
M  V30 2600 S 242.087 4.0659 1.65015 0
M  V30 2601 H 238.905 0.692189 0.162467 0
M  V30 2602 H 241.507 1.93988 -0.242689 0
M  V30 2603 H 240.211 4.10046 0.170436 0
M  V30 2604 H 239.742 3.5118 1.77303 0
M  V30 2605 H 241.757 3.99906 2.93752 0
M  V30 2606 N 240.93 -0.123565 1.57115 0
M  V30 2607 C 241.877 -1.15177 2.00007 0
M  V30 2608 C 242.847 -1.41403 0.871454 0
M  V30 2609 O 244.032 -1.53346 1.13533 0
M  V30 2610 C 241.172 -2.47436 2.40561 0
M  V30 2611 C 240.285 -2.28184 3.66819 0
M  V30 2612 C 239.42 -3.53641 3.96373 0
M  V30 2613 C 238.459 -3.29528 5.15827 0
M  V30 2614 N 237.596 -4.47175 5.41275 0
M  V30 2615 H 242.436 -0.779008 2.87638 0
M  V30 2616 H 239.973 -0.373166 1.42288 0
M  V30 2617 H 241.931 -3.24584 2.62109 0
M  V30 2618 H 240.561 -2.82614 1.55978 0
M  V30 2619 H 239.613 -1.41976 3.52912 0
M  V30 2620 H 240.925 -2.0634 4.5412 0
M  V30 2621 H 240.079 -4.39209 4.18545 0
M  V30 2622 H 238.818 -3.78512 3.07538 0
M  V30 2623 H 237.823 -2.42349 4.93505 0
M  V30 2624 H 239.048 -3.06031 6.06236 0
M  V30 2625 H 236.994 -4.72175 4.55397 0
M  V30 2626 H 236.911 -4.28419 6.22891 0
M  V30 2627 H 238.179 -5.3389 5.67963 0
M  V30 2628 N 242.408 -1.52605 -0.393616 0
M  V30 2629 C 243.656 -1.67093 -1.13685 0
M  V30 2630 C 243.977 -0.411011 -1.90619 0
M  V30 2631 O 243.247 0.574491 -1.87287 0
M  V30 2632 H 241.827 -0.615923 -0.422668 0
M  V30 2633 H 244.489 -1.89704 -0.447039 0
M  V30 2634 H 243.585 -2.51922 -1.84232 0
M  V30 2635 N 243.887 0.651787 -1.4349 0
M  V30 2636 C 245.298 1.233 -1.40193 0
M  V30 2637 C 245.649 1.9591 -0.106727 0
M  V30 2638 O 244.774 2.01316 0.793773 0
M  V30 2639 C 245.369 2.24257 -2.53957 0
M  V30 2640 C 243.928 2.77852 -2.5392 0
M  V30 2641 C 243.075 1.52517 -2.3159 0
M  V30 2642 H 246.026 0.443717 -1.52371 0
M  V30 2643 H 246.047 3.0646 -2.25528 0
M  V30 2644 H 245.559 1.71382 -3.4821 0
M  V30 2645 H 243.66 3.34786 -1.63551 0
M  V30 2646 H 243.773 3.25299 -3.51735 0
M  V30 2647 H 242.137 1.79915 -1.80285 0
M  V30 2648 H 242.92 1.01574 -3.27929 0
M  V30 2649 N 245.365 1.30045 0.890287 0
M  V30 2650 C 246.642 1.09227 1.62262 0
M  V30 2651 C 247.022 -0.360305 2.08002 0
M  V30 2652 O 246.37 -1.35084 1.84295 0
M  V30 2653 C 246.58 2.08835 2.79623 0
M  V30 2654 C 247.928 2.40266 3.50082 0
M  V30 2655 O 248.952 2.07104 2.89804 0
M  V30 2656 O 247.811 2.96967 4.58773 0
M  V30 2657 H 244.905 0.419132 0.712922 0
M  V30 2658 H 247.451 1.41451 0.937529 0
M  V30 2659 H 246.223 3.06633 2.43089 0
M  V30 2660 H 245.846 1.77397 3.55832 0
M  V30 2661 N 246.843 -1.10192 1.12674 0
M  V30 2662 C 247.806 -2.14786 0.799979 0
M  V30 2663 C 248.806 -1.59711 -0.18685 0
M  V30 2664 O 249.996 -1.74156 0.0392558 0
M  V30 2665 C 247.128 -3.40374 0.189228 0
M  V30 2666 H 248.321 -2.45203 1.72671 0
M  V30 2667 H 245.874 -1.25597 0.930326 0
M  V30 2668 H 246.609 -3.15577 -0.747107 0
M  V30 2669 H 246.394 -3.81637 0.899766 0
M  V30 2670 H 247.884 -4.17594 -0.0228143 0
M  V30 2671 N 248.321 -0.919034 -1.28029 0
M  V30 2672 C 249.271 -0.382574 -2.24767 0
M  V30 2673 C 250.255 0.508286 -1.52661 0
M  V30 2674 O 251.447 0.347145 -1.73562 0
M  V30 2675 C 248.576 0.371432 -3.41285 0
M  V30 2676 C 247.662 -0.535449 -4.20706 0
M  V30 2677 N 248.053 -1.65141 -4.78082 0
M  V30 2678 C 246.351 -0.336824 -4.44726 0
M  V30 2679 C 247.052 -2.21475 -5.37888 0
M  V30 2680 N 246.028 -1.50537 -5.22341 0
M  V30 2681 H 249.83 -1.23477 -2.66703 0
M  V30 2682 H 247.344 -0.772299 -1.42861 0
M  V30 2683 H 249.341 0.772638 -4.09678 0
M  V30 2684 H 248.001 1.22066 -3.00882 0
M  V30 2685 H 249.012 -2.03392 -4.7629 0
M  V30 2686 H 245.689 0.47246 -4.14818 0
M  V30 2687 H 247.079 -3.15379 -5.93284 0
M  V30 2688 N 249.799 1.42003 -0.683588 0
M  V30 2689 C 251.039 2.03282 -0.213513 0
M  V30 2690 C 251.403 1.52924 1.16097 0
M  V30 2691 O 252.604 2.06048 1.7262 0
M  V30 2692 C 250.875 3.56483 -0.255856 0
M  V30 2693 S 252.434 4.3857 0.14193 0
M  V30 2694 H 249.252 0.705659 -0.0869853 0
M  V30 2695 H 251.854 1.73619 -0.8987 0
M  V30 2696 H 250.558 3.90631 -1.25841 0
M  V30 2697 H 250.089 3.90831 0.448875 0
M  V30 2698 H 252.104 4.76828 1.37295 0
M  V30 2699 N 251.277 0.427512 1.51691 0
M  V30 2700 C 252.209 -0.424521 2.25234 0
M  V30 2701 C 253.222 -0.994671 1.2888 0
M  V30 2702 O 254.411 -0.890483 1.54702 0
M  V30 2703 C 251.511 -1.60479 2.98496 0
M  V30 2704 C 250.684 -1.15527 4.21868 0
M  V30 2705 C 249.743 -2.20454 4.77793 0
M  V30 2706 O 248.769 -1.8029 5.39893 0
M  V30 2707 N 249.971 -3.52831 4.60967 0
M  V30 2708 H 252.736 0.205749 2.98993 0
M  V30 2709 H 250.297 0.255867 1.59865 0
M  V30 2710 H 252.289 -2.30276 3.32799 0
M  V30 2711 H 250.859 -2.14061 2.27809 0
M  V30 2712 H 250.079 -0.284736 3.9317 0
M  V30 2713 H 251.367 -0.832173 5.01949 0
M  V30 2714 H 250.765 -3.88201 4.11481 0
M  V30 2715 H 249.322 -4.18551 4.99658 0
M  V30 2716 N 252.755 -1.56801 0.158532 0
M  V30 2717 C 254.171 -1.5837 -0.197774 0
M  V30 2718 C 254.371 -1.17334 -1.63814 0
M  V30 2719 O 253.427 -0.878988 -2.36707 0
M  V30 2720 C 254.74 -3.00615 0.0714459 0
M  V30 2721 C 256.288 -3.12999 0.00864533 0
M  V30 2722 C 256.763 -4.57313 0.250685 0
M  V30 2723 N 258.254 -4.62777 0.198014 0
M  V30 2724 C 258.989 -5.72271 0.359642 0
M  V30 2725 N 258.485 -6.90371 0.579625 0
M  V30 2726 N 260.278 -5.61318 0.296438 0
M  V30 2727 H 252.429 -1.81765 1.09887 0
M  V30 2728 H 254.692 -0.841849 0.435884 0
M  V30 2729 H 254.398 -3.35068 1.06874 0
M  V30 2730 H 254.272 -3.71683 -0.642757 0
M  V30 2731 H 256.659 -2.7838 -0.979217 0
M  V30 2732 H 256.74 -2.44393 0.755359 0
M  V30 2733 H 256.384 -4.92639 1.2357 0
M  V30 2734 H 256.314 -5.24061 -0.516489 0
M  V30 2735 H 258.805 -3.77885 0.0331115 0
M  V30 2736 H 259.118 -7.69689 0.69275 0
M  V30 2737 H 257.463 -6.92264 0.616087 0
M  V30 2738 H 260.654 -4.67932 0.125258 0
M  V30 2739 H 260.827 -6.46599 0.425831 0
M  V30 2740 N 254.233 0.115231 -1.57178 0
M  V30 2741 C 255.163 1.1423 -2.03651 0
M  V30 2742 C 256.144 1.42967 -0.921655 0
M  V30 2743 O 257.329 1.53343 -1.19162 0
M  V30 2744 C 254.459 2.4675 -2.44401 0
M  V30 2745 C 253.413 2.32467 -3.59365 0
M  V30 2746 C 252.739 3.69984 -3.86026 0
M  V30 2747 C 254.039 1.78203 -4.90959 0
M  V30 2748 H 255.733 0.755749 -2.89705 0
M  V30 2749 H 253.279 0.362093 -1.39373 0
M  V30 2750 H 255.232 3.18854 -2.75517 0
M  V30 2751 H 253.956 2.87302 -1.55322 0
M  V30 2752 H 252.615 1.62811 -3.28463 0
M  V30 2753 H 252.263 4.08028 -2.94147 0
M  V30 2754 H 251.963 3.61279 -4.63412 0
M  V30 2755 H 253.487 4.43587 -4.19599 0
M  V30 2756 H 254.901 2.40128 -5.20587 0
M  V30 2757 H 253.298 1.8031 -5.72371 0
M  V30 2758 H 254.368 0.739876 -4.79222 0
M  V30 2759 N 255.711 1.52812 0.385517 0
M  V30 2760 C 256.674 1.77188 1.45386 0
M  V30 2761 C 257.674 0.641953 1.4743 0
M  V30 2762 O 258.864 0.910033 1.4854 0
M  V30 2763 C 255.996 1.87582 2.8465 0
M  V30 2764 H 257.189 2.72583 1.25054 0
M  V30 2765 H 254.742 1.43586 0.617467 0
M  V30 2766 H 255.477 0.941849 3.10322 0
M  V30 2767 H 255.262 2.69748 2.84567 0
M  V30 2768 H 256.752 2.08102 3.62054 0
M  V30 2769 N 257.189 -0.644168 1.43834 0
M  V30 2770 C 258.414 -1.43642 1.49605 0
M  V30 2771 C 258.839 -1.8773 0.117913 0
M  V30 2772 O 258.197 -1.57938 -0.890239 0
M  V30 2773 C 258.245 -2.6416 2.45463 0
M  V30 2774 O 257.349 -3.63538 1.94714 0
M  V30 2775 H 256.69 -0.430329 0.50568 0
M  V30 2776 H 259.22 -0.787448 1.8884 0
M  V30 2777 H 259.23 -3.11864 2.63068 0
M  V30 2778 H 257.905 -2.31414 3.45572 0
M  V30 2779 H 256.482 -3.2273 1.86814 0
M  V30 2780 N 258.668 -1.30515 -0.883378 0
M  V30 2781 C 259.6 -1.12846 -1.99496 0
M  V30 2782 C 260.613 -0.0712571 -1.62644 0
M  V30 2783 O 261.802 -0.317432 -1.75655 0
M  V30 2784 C 258.902 -0.699123 -3.3161 0
M  V30 2785 C 258.075 -1.83842 -3.96889 0
M  V30 2786 C 257.134 -1.39737 -5.07307 0
M  V30 2787 O 256.16 -2.10485 -5.28852 0
M  V30 2788 N 257.362 -0.277279 -5.79837 0
M  V30 2789 H 260.127 -2.08585 -2.15203 0
M  V30 2790 H 257.688 -1.22672 -1.05656 0
M  V30 2791 H 259.68 -0.387044 -4.02845 0
M  V30 2792 H 258.25 0.166276 -3.12157 0
M  V30 2793 H 257.47 -2.31853 -3.18807 0
M  V30 2794 H 258.758 -2.60187 -4.37241 0
M  V30 2795 H 258.156 0.3122 -5.64838 0
M  V30 2796 H 256.713 -0.0246623 -6.51795 0
M  V30 2797 N 260.146 1.09593 -1.13257 0
M  V30 2798 C 261.109 2.14359 -0.811358 0
M  V30 2799 C 262.109 1.59808 0.178377 0
M  V30 2800 O 263.299 1.74132 -0.0484911 0
M  V30 2801 C 260.431 3.40269 -0.207276 0
M  V30 2802 H 261.624 2.44284 -1.73969 0
M  V30 2803 H 259.177 1.25102 -0.936973 0
M  V30 2804 H 259.912 3.15969 0.73036 0
M  V30 2805 H 259.697 3.81154 -0.919992 0
M  V30 2806 H 261.187 4.176 0.000667944 0
M  V30 2807 N 261.624 0.925811 1.2754 0
M  V30 2808 C 262.864 0.572521 1.96218 0
M  V30 2809 C 263.228 -0.869719 1.71172 0
M  V30 2810 O 264.429 -1.33119 2.33523 0
M  V30 2811 C 262.7 0.887325 3.4621 0
M  V30 2812 S 264.259 0.642266 4.34074 0
M  V30 2813 H 261.077 0.211403 0.678845 0
M  V30 2814 H 263.679 1.19384 1.54815 0
M  V30 2815 H 262.383 1.93469 3.61936 0
M  V30 2816 H 261.914 0.255123 3.92572 0
M  V30 2817 H 263.929 -0.500822 4.93666 0
M  V30 2818 N 263.102 -1.41638 0.69111 0
M  V30 2819 C 264.518 -1.55435 0.362224 0
M  V30 2820 C 264.718 -1.66754 -1.13117 0
M  V30 2821 O 263.774 -1.64348 -1.91692 0
M  V30 2822 C 265.087 -2.79588 1.10684 0
M  V30 2823 C 266.635 -2.9338 1.09075 0
M  V30 2824 C 267.11 -4.20414 1.81703 0
M  V30 2825 N 268.601 -4.27362 1.7865 0
M  V30 2826 C 269.336 -5.24507 2.31689 0
M  V30 2827 N 268.832 -6.27708 2.93179 0
M  V30 2828 N 270.625 -5.16416 2.2197 0
M  V30 2829 H 262.776 -1.32536 1.65976 0
M  V30 2830 H 265.039 -0.639115 0.700168 0
M  V30 2831 H 264.745 -2.77419 2.16175 0
M  V30 2832 H 264.619 -3.70973 0.682545 0
M  V30 2833 H 267.006 -2.95067 0.0441238 0
M  V30 2834 H 267.087 -2.0318 1.55407 0
M  V30 2835 H 266.731 -4.19488 2.86343 0
M  V30 2836 H 266.661 -5.09578 1.32808 0
M  V30 2837 H 269.152 -3.53415 1.33815 0
M  V30 2838 H 269.465 -6.98217 3.31229 0
M  V30 2839 H 267.81 -6.28223 2.97255 0
M  V30 2840 H 271.001 -4.34716 1.73607 0
M  V30 2841 H 271.174 -5.91958 2.63609 0
M  V30 2842 N 264.58 -0.43555 -1.51462 0
M  V30 2843 C 265.808 0.130242 -2.0649 0
M  V30 2844 C 266.223 1.36614 -1.30315 0
M  V30 2845 O 265.58 1.78869 -0.362223 0
M  V30 2846 C 265.631 0.454253 -3.58635 0
M  V30 2847 O 265.352 -0.73259 -4.31931 0
M  V30 2848 C 266.853 1.07091 -4.3017 0
M  V30 2849 H 264.073 0.00871669 -0.670943 0
M  V30 2850 H 266.617 -0.614117 -1.95061 0
M  V30 2851 H 264.772 1.14851 -3.69984 0
M  V30 2852 H 265.186 -0.455787 -5.22516 0
M  V30 2853 H 266.66 1.24764 -5.37716 0
M  V30 2854 H 267.137 2.05144 -3.88346 0
M  V30 2855 H 267.743 0.416089 -4.2326 0
M  V30 2856 N 266.058 1.56714 -0.166846 0
M  V30 2857 C 267.006 2.19056 0.782123 0
M  V30 2858 C 268 1.15328 1.24079 0
M  V30 2859 O 269.206 1.33537 1.20697 0
M  V30 2860 H 265.581 0.70167 0.270486 0
M  V30 2861 H 267.552 2.97494 0.232322 0
M  V30 2862 C 266.301 2.84206 2.00306 0
M  V30 2863 H 265.624 3.63748 1.65914 0
M  V30 2864 H 267.064 3.31302 2.64604 0
M  V30 2865 C 265.523 1.83744 2.82382 0
M  V30 2866 O 266.053 1.32014 3.79388 0
M  V30 2867 N 264.259 1.52601 2.47308 0
M  V30 2868 H 263.806 1.9486 1.68485 0
M  V30 2869 H 263.764 0.856351 3.02513 0
M  V30 2870 N 267.536 -0.106894 1.57237 0
M  V30 2871 C 268.947 -0.662723 1.74542 0
M  V30 2872 C 269.298 -1.7971 0.787319 0
M  V30 2873 O 268.423 -2.16368 -0.0369636 0
M  V30 2874 C 269.018 -1.20896 3.16496 0
M  V30 2875 C 267.577 -1.71096 3.35266 0
M  V30 2876 C 266.724 -0.615642 2.7038 0
M  V30 2877 H 269.675 0.119106 1.58252 0
M  V30 2878 H 269.696 -2.07847 3.18716 0
M  V30 2879 H 269.208 -0.383122 3.86204 0
M  V30 2880 H 267.309 -2.56119 2.70618 0
M  V30 2881 H 267.422 -1.81208 4.43509 0
M  V30 2882 H 265.786 -1.05222 2.31949 0
M  V30 2883 H 266.569 0.199419 3.4272 0
M  V30 2884 N 269.014 -1.53014 -0.377408 0
M  V30 2885 C 270.254 -1.70318 -1.1301 0
M  V30 2886 C 270.618 -0.439538 -1.86901 0
M  V30 2887 O 271.819 -0.489095 -2.64313 0
M  V30 2888 C 270.09 -2.91125 -2.07319 0
M  V30 2889 S 271.649 -3.29075 -2.90268 0
M  V30 2890 H 268.467 -0.599426 -0.382374 0
M  V30 2891 H 271.069 -1.91089 -0.412933 0
M  V30 2892 H 269.773 -3.81303 -1.51777 0
M  V30 2893 H 269.304 -2.7272 -2.83526 0
M  V30 2894 H 271.319 -2.80165 -4.09539 0
M  V30 2895 N 270.492 0.636531 -1.44174 0
M  V30 2896 C 271.422 1.76003 -1.53444 0
M  V30 2897 C 272.403 1.65619 -0.387841 0
M  V30 2898 O 273.588 1.84461 -0.607257 0
M  V30 2899 C 270.718 3.14511 -1.4731 0
M  V30 2900 C 269.672 3.39677 -2.60391 0
M  V30 2901 C 268.998 4.78159 -2.39308 0
M  V30 2902 C 270.298 3.32772 -4.02567 0
M  V30 2903 H 271.992 1.68501 -2.47483 0
M  V30 2904 H 269.538 0.809237 -1.19111 0
M  V30 2905 H 271.491 3.92878 -1.52397 0
M  V30 2906 H 270.215 3.22783 -0.49785 0
M  V30 2907 H 268.874 2.63688 -2.54684 0
M  V30 2908 H 268.522 4.83128 -1.39988 0
M  V30 2909 H 268.222 4.95956 -3.15122 0
M  V30 2910 H 269.746 5.58762 -2.46205 0
M  V30 2911 H 271.16 4.01051 -4.09672 0
M  V30 2912 H 269.557 3.62104 -4.7854 0
M  V30 2913 H 270.627 2.30669 -4.2652 0
M  V30 2914 N 271.97 1.30982 0.876444 0
M  V30 2915 C 272.92 1.14688 1.97055 0
M  V30 2916 C 273.904 0.0596593 1.60789 0
M  V30 2917 O 275.096 0.283892 1.74708 0
M  V30 2918 C 272.225 0.849627 3.3262 0
M  V30 2919 C 271.311 1.97752 3.75173 0
M  V30 2920 N 271.702 3.22384 3.89746 0
M  V30 2921 C 270 1.8758 4.04635 0
M  V30 2922 C 270.701 3.96121 4.25985 0
M  V30 2923 N 269.677 3.24237 4.36315 0
M  V30 2924 H 273.479 2.09204 2.06424 0
M  V30 2925 H 270.993 1.22445 1.06682 0
M  V30 2926 H 272.99 0.713895 4.10742 0
M  V30 2927 H 271.65 -0.087376 3.24582 0
M  V30 2928 H 272.661 3.57575 3.74647 0
M  V30 2929 H 269.338 1.01303 4.05024 0
M  V30 2930 H 270.728 5.03491 4.44911 0
M  V30 2931 N 273.449 -1.08991 1.13837 0
M  V30 2932 C 274.697 -1.80899 0.901098 0
M  V30 2933 C 275.018 -1.86356 -0.574134 0
M  V30 2934 O 274.288 -1.35235 -1.41733 0
M  V30 2935 H 272.868 -0.669966 0.330386 0
M  V30 2936 H 275.53 -1.318 1.43578 0
M  V30 2937 H 274.626 -2.83929 1.29578 0
M  V30 2938 N 274.927 -0.932562 -1.27047 0
M  V30 2939 C 276.175 -0.574422 -1.93765 0
M  V30 2940 C 276.496 0.887993 -1.73608 0
M  V30 2941 O 275.766 1.62999 -1.08665 0
M  V30 2942 H 274.346 -0.209451 -0.717035 0
M  V30 2943 H 277.008 -1.18601 -1.5466 0
M  V30 2944 H 276.104 -0.784841 -3.02071 0
M  V30 2945 N 276.405 1.4127 -0.698611 0
M  V30 2946 C 277.821 1.55241 -0.370462 0
M  V30 2947 C 278.021 1.67351 1.12231 0
M  V30 2948 O 277.077 1.65363 1.90818 0
M  V30 2949 C 278.39 2.78997 -1.12165 0
M  V30 2950 C 279.938 2.92797 -1.1063 0
M  V30 2951 C 280.413 4.19445 -1.8393 0
M  V30 2952 N 281.904 4.26409 -1.80914 0
M  V30 2953 C 282.639 5.23271 -2.34467 0
M  V30 2954 N 282.135 6.26145 -2.96504 0
M  V30 2955 N 283.928 5.15232 -2.24706 0
M  V30 2956 H 276.079 1.31654 -1.66676 0
M  V30 2957 H 278.342 0.635393 -0.703548 0
M  V30 2958 H 278.048 2.76268 -2.17644 0
M  V30 2959 H 277.922 3.70606 -0.702209 0
M  V30 2960 H 280.309 2.95039 -0.0597713 0
M  V30 2961 H 280.39 2.02353 -1.56483 0
M  V30 2962 H 280.034 4.17964 -2.88563 0
M  V30 2963 H 279.964 5.08866 -1.35509 0
M  V30 2964 H 282.455 3.527 -1.35687 0
M  V30 2965 H 282.768 6.96451 -3.34927 0
M  V30 2966 H 281.113 6.26638 -3.00583 0
M  V30 2967 H 284.304 4.33789 -1.7591 0
M  V30 2968 H 284.477 5.90552 -2.66745 0
M  V30 2969 N 277.883 0.443576 1.51229 0
M  V30 2970 C 279.123 -0.119889 2.04048 0
M  V30 2971 C 279.487 -1.39418 1.32009 0
M  V30 2972 O 280.688 -2.03829 1.75235 0
M  V30 2973 C 278.959 -0.327233 3.55899 0
M  V30 2974 S 280.518 -0.853208 4.30425 0
M  V30 2975 H 277.336 -0.028921 0.710412 0
M  V30 2976 H 279.938 0.604413 1.85922 0
M  V30 2977 H 278.642 0.606445 4.05895 0
M  V30 2978 H 278.173 -1.07844 3.7833 0
M  V30 2979 H 280.188 -2.13005 4.48155 0
M  V30 2980 N 279.361 -1.56624 0.175154 0
M  V30 2981 C 280.291 -2.21155 -0.749195 0
M  V30 2982 C 281.272 -1.16836 -1.23626 0
M  V30 2983 O 282.457 -1.45277 -1.28873 0
M  V30 2984 C 279.587 -2.8553 -1.97711 0
M  V30 2985 C 278.541 -3.95921 -1.62575 0
M  V30 2986 C 277.867 -4.47365 -2.92864 0
M  V30 2987 C 279.167 -5.15323 -0.850838 0
M  V30 2988 H 280.861 -2.98653 -0.211295 0
M  V30 2989 H 278.407 -1.43651 -0.100188 0
M  V30 2990 H 280.36 -3.2935 -2.62881 0
M  V30 2991 H 279.084 -2.05406 -2.53921 0
M  V30 2992 H 277.743 -3.52762 -0.997719 0
M  V30 2993 H 277.391 -3.64027 -3.47122 0
M  V30 2994 H 277.091 -5.21839 -2.70106 0
M  V30 2995 H 278.615 -4.93873 -3.59056 0
M  V30 2996 H 280.029 -5.55812 -1.40521 0
M  V30 2997 H 278.426 -5.95739 -0.722154 0
M  V30 2998 H 279.496 -4.84661 0.152082 0
M  V30 2999 N 280.839 0.0985539 -1.57292 0
M  V30 3000 C 281.749 1.13824 -2.05137 0
M  V30 3001 C 282.765 1.44076 -0.975604 0
M  V30 3002 O 283.941 1.54786 -1.28853 0
M  V30 3003 C 281.006 2.43969 -2.46333 0
M  V30 3004 C 280.067 2.2093 -3.68087 0
M  V30 3005 C 279.3 3.44869 -4.0731 0
M  V30 3006 O 279.523 4.52972 -3.46659 0
M  V30 3007 O 278.457 3.34661 -5.00285 0
M  V30 3008 H 282.283 0.761881 -2.93988 0
M  V30 3009 H 279.868 0.310818 -1.46131 0
M  V30 3010 H 281.75 3.20609 -2.73473 0
M  V30 3011 H 280.425 2.81038 -1.60621 0
M  V30 3012 H 279.332 1.42081 -3.46069 0
M  V30 3013 H 280.665 1.88755 -4.54568 0
M  V30 3014 N 282.317 1.53212 0.369288 0
M  V30 3015 C 283.563 1.69466 1.11397 0
M  V30 3016 C 283.896 0.443257 1.89074 0
M  V30 3017 O 283.171 -0.559386 1.86282 0
M  V30 3018 C 283.454 2.9422 2.07621 0
M  V30 3019 C 283.307 4.29508 1.33577 0
M  V30 3020 C 284.626 3.14565 3.07794 0
M  V30 3021 H 281.745 0.616667 0.403597 0
M  V30 3022 H 284.387 1.85845 0.395179 0
M  V30 3023 H 282.537 2.80387 2.68916 0
M  V30 3024 H 284.209 4.55147 0.750955 0
M  V30 3025 H 282.452 4.29088 0.637618 0
M  V30 3026 H 283.123 5.12926 2.03989 0
M  V30 3027 H 285.599 3.2756 2.56601 0
M  V30 3028 H 284.475 4.03297 3.72348 0
M  V30 3029 H 284.736 2.29675 3.77759 0
M  V30 3030 N 283.795 -0.628877 1.44509 0
M  V30 3031 C 284.705 -1.7694 1.54044 0
M  V30 3032 C 285.721 -1.68705 0.425987 0
M  V30 3033 O 286.897 -1.89442 0.683656 0
M  V30 3034 C 283.962 -3.13332 1.48405 0
M  V30 3035 C 283.023 -3.33181 2.70719 0
M  V30 3036 C 282.256 -4.63067 2.6534 0
M  V30 3037 O 282.479 -5.44017 1.71469 0
M  V30 3038 O 281.413 -4.85167 3.56226 0
M  V30 3039 H 285.239 -1.71848 2.50403 0
M  V30 3040 H 282.824 -0.790378 1.26781 0
M  V30 3041 H 284.706 -3.94634 1.47791 0
M  V30 3042 H 283.381 -3.1896 0.551898 0
M  V30 3043 H 282.288 -2.51549 2.769 0
M  V30 3044 H 283.621 -3.32416 3.62988 0
M  V30 3045 N 285.273 -1.31445 -0.869486 0
M  V30 3046 C 286.521 -1.20918 -1.61936 0
M  V30 3047 C 286.842 0.232683 -1.93607 0
M  V30 3048 O 286.112 1.15352 -1.58338 0
M  V30 3049 H 284.692 -0.44454 -0.600328 0
M  V30 3050 H 287.354 -1.64776 -1.0409 0
M  V30 3051 H 286.45 -1.78124 -2.56278 0
M  V30 3052 N 286.751 1.08385 -1.14413 0
M  V30 3053 C 287.701 2.13509 -0.79987 0
M  V30 3054 C 288.685 1.5951 0.211059 0
M  V30 3055 O 289.877 1.76995 0.0133694 0
M  V30 3056 C 287.006 3.42162 -0.279297 0
M  V30 3057 C 286.092 4.03042 -1.31976 0
M  V30 3058 N 286.483 4.38327 -2.52395 0
M  V30 3059 C 284.781 4.30379 -1.17004 0
M  V30 3060 C 285.482 4.86428 -3.19003 0
M  V30 3061 N 284.458 4.84547 -2.46405 0
M  V30 3062 H 288.26 2.38609 -1.7159 0
M  V30 3063 H 285.774 1.2572 -1.02802 0
M  V30 3064 H 287.771 4.16898 -0.0143688 0
M  V30 3065 H 286.431 3.18511 0.630923 0
M  V30 3066 H 287.442 4.29349 -2.89621 0
M  V30 3067 H 284.119 4.16281 -0.318854 0
M  V30 3068 H 285.509 5.23107 -4.21674 0
M  V30 3069 N 288.23 0.939286 1.26551 0
M  V30 3070 C 289.646 0.641304 1.46149 0
M  V30 3071 C 289.846 -0.805964 1.84679 0
M  V30 3072 O 288.902 -1.58278 1.96734 0
M  V30 3073 C 290.215 1.6011 2.54529 0
M  V30 3074 C 291.763 1.6106 2.68382 0
M  V30 3075 C 292.238 2.55765 3.79932 0
M  V30 3076 N 293.729 2.5404 3.87322 0
M  V30 3077 C 294.464 3.24004 4.73085 0
M  V30 3078 N 293.96 4.03388 5.63249 0
M  V30 3079 N 295.753 3.12965 4.66914 0
M  V30 3080 H 287.904 1.87478 0.998285 0
M  V30 3081 H 290.167 0.805559 0.499779 0
M  V30 3082 H 289.873 2.63412 2.33039 0
M  V30 3083 H 289.747 1.35171 3.52149 0
M  V30 3084 H 292.134 0.584835 2.89247 0
M  V30 3085 H 292.215 1.90053 1.71212 0
M  V30 3086 H 291.859 3.58458 3.5982 0
M  V30 3087 H 291.789 2.24063 4.76554 0
M  V30 3088 H 294.28 1.96396 3.22858 0
M  V30 3089 H 294.593 4.5373 6.25579 0
M  V30 3090 H 292.938 4.07489 5.63008 0
M  V30 3091 H 296.129 2.50432 3.95476 0
M  V30 3092 H 296.302 3.67759 5.33533 0
M  V30 3093 N 289.708 -1.40897 0.706093 0
M  V30 3094 C 290.638 -2.33418 0.0620085 0
M  V30 3095 C 291.619 -1.52385 -0.755827 0
M  V30 3096 O 292.804 -1.80886 -0.706674 0
M  V30 3097 C 289.934 -3.36293 -0.867445 0
M  V30 3098 C 288.888 -4.27716 -0.155932 0
M  V30 3099 C 288.214 -5.2105 -1.20046 0
M  V30 3100 C 289.514 -5.12944 0.984149 0
M  V30 3101 H 291.208 -2.87527 0.83477 0
M  V30 3102 H 288.754 -1.38249 0.402875 0
M  V30 3103 H 290.707 -3.99949 -1.32735 0
M  V30 3104 H 289.431 -2.80556 -1.67199 0
M  V30 3105 H 288.09 -3.65498 0.284047 0
M  V30 3106 H 287.738 -4.61624 -1.99781 0
M  V30 3107 H 287.438 -5.83056 -0.729328 0
M  V30 3108 H 288.962 -5.87584 -1.66066 0
M  V30 3109 H 290.376 -5.70109 0.604048 0
M  V30 3110 H 288.773 -5.83945 1.38304 0
M  V30 3111 H 289.843 -4.49485 1.81911 0
M  V30 3112 N 291.186 -0.45159 -1.50991 0
M  V30 3113 C 292.426 0.109066 -2.04109 0
M  V30 3114 C 292.79 1.38716 -1.32747 0
M  V30 3115 O 293.991 2.02896 -1.76314 0
M  V30 3116 C 292.262 0.308354 -3.56067 0
M  V30 3117 S 293.821 0.830369 -4.30872 0
M  V30 3118 H 290.639 0.0251531 -0.710555 0
M  V30 3119 H 293.241 -0.614264 -1.85599 0
M  V30 3120 H 291.945 -0.627962 -4.05567 0
M  V30 3121 H 291.476 1.05836 -3.78896 0
M  V30 3122 H 293.491 2.10626 -4.49279 0
M  V30 3123 N 292.664 1.56529 -0.183458 0
M  V30 3124 C 293.614 2.1515 0.754605 0
M  V30 3125 C 294.598 1.08904 1.18443 0
M  V30 3126 O 295.79 1.34997 1.14476 0
M  V30 3127 C 292.919 2.80531 1.97881 0
M  V30 3128 C 292.005 3.93952 1.57043 0
M  V30 3129 N 292.396 4.98221 0.87231 0
M  V30 3130 C 290.694 4.05338 1.86057 0
M  V30 3131 C 291.395 5.77836 0.669377 0
M  V30 3132 N 290.371 5.29858 1.21454 0
M  V30 3133 H 294.173 2.93132 0.212387 0
M  V30 3134 H 291.687 1.62391 0.0167725 0
M  V30 3135 H 293.684 3.20914 2.6612 0
M  V30 3136 H 292.344 2.04035 2.52586 0
M  V30 3137 H 293.355 5.15191 0.529033 0
M  V30 3138 H 290.032 3.39957 2.42354 0
M  V30 3139 H 291.422 6.71799 0.116422 0
M  V30 3140 N 294.142 -0.090211 1.57342 0
M  V30 3141 C 295.382 -0.798365 1.88163 0
M  V30 3142 C 295.746 -1.75662 0.775046 0
M  V30 3143 O 296.947 -2.50849 0.965816 0
M  V30 3144 C 295.218 -1.50376 3.24225 0
M  V30 3145 S 296.777 -2.24952 3.76752 0
M  V30 3146 H 293.595 -0.265883 0.659414 0
M  V30 3147 H 296.197 -0.055264 1.95422 0
M  V30 3148 H 294.901 -0.792286 4.0268 0
M  V30 3149 H 294.432 -2.28666 3.20118 0
M  V30 3150 H 296.447 -3.51173 3.5056 0
M  V30 3151 N 295.62 -1.53406 -0.361157 0
M  V30 3152 C 297.031 -1.61442 -0.937728 0
M  V30 3153 C 297.382 -0.48461 -1.90121 0
M  V30 3154 O 296.507 0.388312 -2.12888 0
M  V30 3155 C 297.102 -2.92624 -1.70753 0
M  V30 3156 C 295.661 -3.02981 -2.23337 0
M  V30 3157 C 294.808 -2.5677 -1.04712 0
M  V30 3158 H 297.759 -1.58083 -0.139816 0
M  V30 3159 H 297.78 -2.80675 -2.56908 0
M  V30 3160 H 297.292 -3.74834 -1.00604 0
M  V30 3161 H 295.393 -2.25368 -2.96715 0
M  V30 3162 H 295.506 -4.0814 -2.50916 0
M  V30 3163 H 293.87 -2.11752 -1.41539 0
M  V30 3164 H 294.653 -3.41402 -0.360539 0
M  V30 3165 N 297.098 0.621204 -1.44841 0
M  V30 3166 C 298.344 1.3826 -1.48365 0
M  V30 3167 C 298.677 1.93831 -0.119624 0
M  V30 3168 O 297.952 1.74251 0.864111 0
M  V30 3169 C 298.235 2.54058 -2.55199 0
M  V30 3170 C 298.088 2.03772 -4.00995 0
M  V30 3171 C 299.407 3.56225 -2.58442 0
M  V30 3172 H 296.526 0.501374 -0.540179 0
M  V30 3173 H 299.168 0.7015 -1.76576 0
M  V30 3174 H 297.318 3.12162 -2.31274 0
M  V30 3175 H 298.99 1.50423 -4.36086 0
M  V30 3176 H 297.233 1.34876 -4.12299 0
M  V30 3177 H 297.904 2.87185 -4.71411 0
M  V30 3178 H 300.38 3.07939 -2.79844 0
M  V30 3179 H 299.256 4.34756 -3.3508 0
M  V30 3180 H 299.517 4.10949 -1.63013 0
M  V30 3181 N 298.576 1.31904 0.862503 0
M  V30 3182 C 299.824 1.21776 1.61292 0
M  V30 3183 C 300.145 -0.222413 1.93727 0
M  V30 3184 O 299.415 -1.1451 1.58947 0
M  V30 3185 H 297.995 0.447717 0.597962 0
M  V30 3186 H 300.657 1.65326 1.03215 0
M  V30 3187 H 299.753 1.7948 2.5533 0
M  V30 3188 N 300.054 -1.07777 1.14986 0
M  V30 3189 C 301.284 -1.83752 0.944402 0
M  V30 3190 C 301.692 -1.8218 -0.51058 0
M  V30 3191 O 301.035 -1.22852 -1.36576 0
M  V30 3192 C 301.097 -3.32128 1.37592 0
M  V30 3193 C 300.761 -3.57425 2.84775 0
M  V30 3194 C 301.758 -3.5173 3.8286 0
M  V30 3195 C 299.443 -3.8523 3.2234 0
M  V30 3196 C 301.437 -3.73482 5.16517 0
M  V30 3197 C 299.124 -4.06634 4.56171 0
M  V30 3198 C 300.122 -4.00754 5.53069 0
M  V30 3199 O 299.81 -4.2159 6.84483 0
M  V30 3200 H 299.542 -0.58673 0.335744 0
M  V30 3201 H 302.096 -1.36982 1.53052 0
M  V30 3202 H 300.326 -3.79686 0.733165 0
M  V30 3203 H 302.015 -3.89555 1.14024 0
M  V30 3204 H 302.781 -3.30256 3.55184 0
M  V30 3205 H 298.66 -3.88923 2.47508 0
M  V30 3206 H 302.204 -3.68808 5.92137 0
M  V30 3207 H 298.101 -4.27593 4.83564 0
M  V30 3208 H 298.869 -4.38961 6.90837 0
M  V30 3209 N 301.532 -0.945985 -1.26051 0
M  V30 3210 C 302.76 -0.613025 -1.9761 0
M  V30 3211 C 303.175 0.813035 -1.70397 0
M  V30 3212 O 302.532 1.54274 -0.974979 0
M  V30 3213 C 302.583 -0.85159 -3.51326 0
M  V30 3214 O 302.304 -2.22157 -3.77595 0
M  V30 3215 C 303.805 -0.529831 -4.40122 0
M  V30 3216 H 301.025 -0.230593 -0.630133 0
M  V30 3217 H 303.569 -1.268 -1.60443 0
M  V30 3218 H 301.724 -0.243151 -3.86636 0
M  V30 3219 H 302.138 -2.2852 -4.721 0
M  V30 3220 H 303.612 -0.747348 -5.46917 0
M  V30 3221 H 304.089 0.535341 -4.35925 0
M  V30 3222 H 304.695 -1.11721 -4.10364 0
M  V30 3223 N 303.011 1.40521 -0.713556 0
M  V30 3224 C 304.259 2.00527 -0.251692 0
M  V30 3225 C 304.58 1.56857 1.15848 0
M  V30 3226 O 303.85 0.807127 1.785 0
M  V30 3227 H 302.43 0.741551 -0.0900646 0
M  V30 3228 H 305.092 1.71887 -0.918733 0
M  V30 3229 H 304.188 3.10813 -0.283192 0
M  V30 3230 N 304.489 0.459591 1.5075 0
M  V30 3231 C 305.452 -0.329093 2.26825 0
M  V30 3232 C 306.452 -0.930481 1.31144 0
M  V30 3233 O 307.642 -0.801453 1.54669 0
M  V30 3234 C 304.774 -1.46768 3.07688 0
M  V30 3235 H 305.967 0.337924 2.9799 0
M  V30 3236 H 303.52 0.213336 1.54837 0
M  V30 3237 H 304.255 -2.17009 2.40993 0
M  V30 3238 H 304.04 -1.04238 3.77991 0
M  V30 3239 H 305.53 -2.02433 3.65254 0
M  V30 3240 N 305.967 -1.56429 0.191757 0
M  V30 3241 C 307.214 -1.97485 -0.447891 0
M  V30 3242 C 307.542 -1.07852 -1.61859 0
M  V30 3243 O 306.797 -0.116903 -1.95351 0
M  V30 3244 C 307.096 -3.44449 -0.953384 0
M  V30 3245 C 306.762 -4.50781 0.103586 0
M  V30 3246 C 305.424 -4.79584 0.394023 0
M  V30 3247 C 307.776 -5.1471 0.819946 0
M  V30 3248 C 305.104 -5.69607 1.40585 0
M  V30 3249 C 307.456 -6.05827 1.8209 0
M  V30 3250 C 306.12 -6.32987 2.11857 0
M  V30 3251 H 305.39 -0.722648 -0.163895 0
M  V30 3252 H 308.037 -1.89322 0.28802 0
M  V30 3253 H 306.342 -3.49666 -1.76751 0
M  V30 3254 H 308.039 -3.73569 -1.45765 0
M  V30 3255 H 304.629 -4.28394 -0.132951 0
M  V30 3256 H 308.813 -4.92552 0.608789 0
M  V30 3257 H 304.069 -5.88926 1.64243 0
M  V30 3258 H 308.243 -6.54424 2.38123 0
M  V30 3259 H 305.87 -7.02544 2.90407 0
M  V30 3260 N 307.445 0.0818655 -1.57387 0
M  V30 3261 C 308.685 0.788375 -1.88584 0
M  V30 3262 C 309.049 1.75248 -0.784351 0
M  V30 3263 O 310.25 2.50334 -0.979105 0
M  V30 3264 C 308.521 1.48654 -3.25018 0
M  V30 3265 S 310.08 2.22951 -3.7794 0
M  V30 3266 H 306.898 0.262383 -0.660815 0
M  V30 3267 H 309.5 0.0448995 -1.95448 0
M  V30 3268 H 308.204 0.770919 -4.03094 0
M  V30 3269 H 307.735 2.26965 -3.21326 0
M  V30 3270 H 309.75 3.49309 -3.52417 0
M  V30 3271 N 308.923 1.53595 0.353017 0
M  V30 3272 C 310.2 1.61002 1.11075 0
M  V30 3273 C 310.58 0.425356 2.0677 0
M  V30 3274 O 309.928 -0.583267 2.2093 0
M  V30 3275 C 310.138 2.96631 1.83877 0
M  V30 3276 C 311.486 3.51653 2.37961 0
M  V30 3277 O 312.51 2.98743 1.93987 0
M  V30 3278 O 311.369 4.44177 3.18386 0
M  V30 3279 H 308.463 0.650825 0.510251 0
M  V30 3280 H 311.009 1.6594 0.35527 0
M  V30 3281 H 309.781 3.74293 1.14108 0
M  V30 3282 H 309.404 2.95242 2.66304 0
M  V30 3283 N 310.401 -0.613514 1.45168 0
M  V30 3284 C 311.647 -1.37471 1.49096 0
M  V30 3285 C 311.98 -1.93765 0.129901 0
M  V30 3286 O 311.255 -1.74707 -0.854858 0
M  V30 3287 C 311.538 -2.52701 2.56542 0
M  V30 3288 C 311.391 -2.01643 4.0207 0
M  V30 3289 C 312.71 -3.54849 2.60327 0
M  V30 3290 H 309.829 -0.498502 0.54283 0
M  V30 3291 H 312.471 -0.692125 1.76945 0
M  V30 3292 H 310.621 -3.10931 2.32926 0
M  V30 3293 H 312.293 -1.48108 4.36877 0
M  V30 3294 H 310.536 -1.32688 4.13009 0
M  V30 3295 H 311.207 -2.84681 4.72928 0
M  V30 3296 H 313.683 -3.0645 2.81474 0
M  V30 3297 H 312.559 -4.32973 3.37381 0
M  V30 3298 H 312.82 -4.10079 1.6519 0
M  V30 3299 N 311.879 -1.3236 -0.855495 0
M  V30 3300 C 313.156 -1.13491 -1.59309 0
M  V30 3301 C 313.536 0.30503 -2.08885 0
M  V30 3302 O 312.884 1.30151 -1.87811 0
M  V30 3303 C 313.094 -2.16176 -2.73987 0
M  V30 3304 C 314.442 -2.49463 -3.43589 0
M  V30 3305 O 315.466 -2.14715 -2.84211 0
M  V30 3306 O 314.325 -3.09027 -4.50738 0
M  V30 3307 H 311.419 -0.437887 -0.701559 0
M  V30 3308 H 313.965 -1.43887 -0.899696 0
M  V30 3309 H 312.737 -3.1297 -2.34873 0
M  V30 3310 H 312.36 -1.86769 -3.51003 0
M  V30 3311 N 313.357 1.07166 -1.15556 0
M  V30 3312 C 314.585 1.83514 -0.955519 0
M  V30 3313 C 315 1.82163 0.49621 0
M  V30 3314 O 314.357 1.23441 1.34419 0
M  V30 3315 C 314.408 3.30515 -1.46432 0
M  V30 3316 O 314.129 3.31937 -2.85918 0
M  V30 3317 C 315.63 4.23625 -1.30603 0
M  V30 3318 H 312.85 0.578926 -0.339244 0
M  V30 3319 H 315.394 1.35265 -1.53374 0
M  V30 3320 H 313.549 3.76106 -0.928584 0
M  V30 3321 H 313.963 4.23794 -3.09029 0
M  V30 3322 H 315.437 5.24831 -1.71047 0
M  V30 3323 H 315.914 4.38485 -0.250441 0
M  V30 3324 H 316.52 3.83871 -1.83094 0
M  V30 3325 N 314.835 0.952656 1.25548 0
M  V30 3326 C 315.782 0.47008 2.25962 0
M  V30 3327 C 316.752 -0.476384 1.59122 0
M  V30 3328 O 317.937 -0.39007 1.8677 0
M  V30 3329 C 315.077 -0.247881 3.44209 0
M  V30 3330 C 314.19 0.735591 4.25691 0
M  V30 3331 C 313.325 -0.0047306 5.312 0
M  V30 3332 C 312.364 0.969805 6.04368 0
M  V30 3333 N 311.501 0.260486 7.01617 0
M  V30 3334 H 316.341 1.33126 2.66611 0
M  V30 3335 H 313.878 0.66765 1.31076 0
M  V30 3336 H 315.836 -0.680695 4.1161 0
M  V30 3337 H 314.466 -1.07312 3.0444 0
M  V30 3338 H 313.518 1.28689 3.57971 0
M  V30 3339 H 314.83 1.47934 4.76358 0
M  V30 3340 H 313.984 -0.496275 6.04667 0
M  V30 3341 H 312.723 -0.781282 4.81401 0
M  V30 3342 H 311.728 1.47237 5.29718 0
M  V30 3343 H 312.953 1.74655 6.56256 0
M  V30 3344 H 310.899 -0.497364 6.54112 0
M  V30 3345 H 310.816 0.943362 7.50091 0
M  V30 3346 H 312.084 -0.209587 7.79218 0
M  V30 3347 N 316.313 -1.40141 0.720998 0
M  V30 3348 C 317.276 -2.29058 0.0805834 0
M  V30 3349 C 318.276 -1.45632 -0.681758 0
M  V30 3350 O 319.466 -1.6648 -0.512856 0
M  V30 3351 C 316.598 -3.28925 -0.895593 0
M  V30 3352 H 317.791 -2.87191 0.863793 0
M  V30 3353 H 315.344 -1.48553 0.485975 0
M  V30 3354 H 316.079 -2.75822 -1.70566 0
M  V30 3355 H 315.864 -3.90519 -0.351766 0
M  V30 3356 H 317.354 -3.95494 -1.34069 0
M  V30 3357 N 317.792 -0.46758 -1.50504 0
M  V30 3358 C 319.017 0.0886943 -2.0721 0
M  V30 3359 C 319.442 1.33057 -1.32956 0
M  V30 3360 O 318.8 1.77354 -0.376197 0
M  V30 3361 C 318.848 0.359202 -3.58806 0
M  V30 3362 O 317.952 1.44034 -3.8643 0
M  V30 3363 H 317.293 -0.0114349 -0.663902 0
M  V30 3364 H 319.823 -0.657613 -1.93744 0
M  V30 3365 H 319.833 0.600742 -4.03553 0
M  V30 3366 H 318.508 -0.548311 -4.1227 0
M  V30 3367 H 317.085 1.18638 -3.53524 0
M  V30 3368 N 319.27 1.56325 -0.20005 0
M  V30 3369 C 320.51 1.99619 0.439519 0
M  V30 3370 C 320.874 1.08423 1.58456 0
M  V30 3371 O 322.075 1.40973 2.28867 0
M  V30 3372 C 320.346 3.46314 0.883258 0
M  V30 3373 S 321.905 4.11634 1.51997 0
M  V30 3374 H 318.723 0.697007 0.140363 0
M  V30 3375 H 321.325 1.93118 -0.304282 0
M  V30 3376 H 320.029 4.10381 0.0398967 0
M  V30 3377 H 319.56 3.56643 1.6604 0
M  V30 3378 H 321.575 4.09049 2.8088 0
M  V30 3379 N 320.748 -0.0735177 1.57428 0
M  V30 3380 C 321.978 -0.78483 1.91112 0
M  V30 3381 C 322.386 -1.71729 0.7941 0
M  V30 3382 O 321.729 -1.82105 -0.241542 0
M  V30 3383 C 321.791 -1.63346 3.20247 0
M  V30 3384 C 321.455 -0.870557 4.48632 0
M  V30 3385 C 322.452 -0.19058 5.19551 0
M  V30 3386 C 320.137 -0.838242 4.95256 0
M  V30 3387 C 322.131 0.511503 6.35344 0
M  V30 3388 C 319.818 -0.132386 6.10957 0
M  V30 3389 C 320.816 0.541288 6.80852 0
M  V30 3390 O 320.504 1.23578 7.94345 0
M  V30 3391 H 320.236 -0.228408 0.636244 0
M  V30 3392 H 322.79 -0.0486039 2.05342 0
M  V30 3393 H 321.02 -2.41245 3.02222 0
M  V30 3394 H 322.709 -2.22329 3.39595 0
M  V30 3395 H 323.475 -0.206864 4.84559 0
M  V30 3396 H 319.354 -1.35206 4.40727 0
M  V30 3397 H 322.898 1.03789 6.89836 0
M  V30 3398 H 318.795 -0.114023 6.45399 0
M  V30 3399 H 319.563 1.14487 8.10454 0
M  V30 3400 N 322.226 -1.5378 -0.344866 0
M  V30 3401 C 323.503 -1.61589 -1.10219 0
M  V30 3402 C 323.883 -0.436316 -2.06542 0
M  V30 3403 O 323.231 0.571543 -2.21237 0
M  V30 3404 C 323.441 -2.97602 -1.82301 0
M  V30 3405 C 324.789 -3.5291 -2.36093 0
M  V30 3406 O 325.813 -2.99768 -1.924 0
M  V30 3407 O 324.672 -4.45859 -3.16026 0
M  V30 3408 H 321.766 -0.653522 -0.506792 0
M  V30 3409 H 324.312 -1.66126 -0.346465 0
M  V30 3410 H 323.084 -3.74893 -1.12121 0
M  V30 3411 H 322.707 -2.9665 -2.64735 0
M  V30 3412 N 323.704 0.605807 -1.45491 0
M  V30 3413 C 324.952 1.36207 -1.49305 0
M  V30 3414 C 325.273 1.94519 -0.136863 0
M  V30 3415 O 324.543 1.77261 0.833983 0
M  V30 3416 H 323.123 0.50565 -0.549843 0
M  V30 3417 H 325.785 0.711239 -1.81459 0
M  V30 3418 H 324.881 2.18058 -2.23287 0
M  V30 3419 N 325.182 1.32811 0.848464 0
M  V30 3420 C 326.598 1.11937 1.13764 0
M  V30 3421 C 326.798 -0.0960789 2.01271 0
M  V30 3422 O 325.854 -0.779165 2.40178 0
M  V30 3423 C 327.167 2.402 1.809 0
M  V30 3424 C 328.715 2.46016 1.93508 0
M  V30 3425 C 329.19 3.74215 2.64059 0
M  V30 3426 N 330.681 3.75232 2.71579 0
M  V30 3427 C 331.416 4.71134 3.26833 0
M  V30 3428 N 330.912 5.77406 3.8285 0
M  V30 3429 N 332.705 4.58623 3.24995 0
M  V30 3430 H 324.856 2.1073 0.265855 0
M  V30 3431 H 327.119 0.930671 0.180431 0
M  V30 3432 H 326.825 3.29093 1.24058 0
M  V30 3433 H 326.699 2.51628 2.81004 0
M  V30 3434 H 329.086 1.57577 2.49506 0
M  V30 3435 H 329.167 2.38536 0.923811 0
M  V30 3436 H 328.811 4.63031 2.08722 0
M  V30 3437 H 328.741 3.78968 3.65637 0
M  V30 3438 H 331.232 2.98423 2.31845 0
M  V30 3439 H 331.545 6.46632 4.23187 0
M  V30 3440 H 329.89 5.81152 3.81165 0
M  V30 3441 H 333.081 3.74762 2.80484 0
M  V30 3442 H 333.254 5.33535 3.67756 0
M  V30 3443 N 326.66 -1.06551 1.16123 0
M  V30 3444 C 327.908 -1.78947 0.939267 0
M  V30 3445 C 328.229 -1.87532 -0.534476 0
M  V30 3446 O 327.499 -1.38211 -1.38833 0
M  V30 3447 H 326.079 -0.662807 0.344523 0
M  V30 3448 H 328.741 -1.28725 1.46342 0
M  V30 3449 H 327.837 -2.81117 1.35572 0
M  V30 3450 N 328.138 -0.959301 -1.25041 0
M  V30 3451 C 329.068 -0.501388 -2.28053 0
M  V30 3452 C 330.049 0.454673 -1.63911 0
M  V30 3453 O 331.234 0.352618 -1.90972 0
M  V30 3454 C 328.364 0.217224 -3.4662 0
M  V30 3455 C 327.318 -0.654034 -4.22973 0
M  V30 3456 C 326.644 0.195589 -5.34342 0
M  V30 3457 C 327.944 -1.93447 -4.85155 0
M  V30 3458 H 329.638 -1.36238 -2.66608 0
M  V30 3459 H 327.184 -0.656534 -1.28163 0
M  V30 3460 H 329.137 0.548732 -4.17812 0
M  V30 3461 H 327.861 1.1125 -3.07068 0
M  V30 3462 H 326.52 -0.968693 -3.5357 0
M  V30 3463 H 326.168 1.09076 -4.91031 0
M  V30 3464 H 325.868 -0.384091 -5.86343 0
M  V30 3465 H 327.392 0.521958 -6.08365 0
M  V30 3466 H 328.806 -1.66908 -5.48466 0
M  V30 3467 H 327.203 -2.46018 -5.47353 0
M  V30 3468 H 328.273 -2.63466 -4.07079 0
M  V30 3469 N 329.616 1.39756 -0.72842 0
M  V30 3470 C 330.841 2.05472 -0.282159 0
M  V30 3471 C 331.266 1.54549 1.07221 0
M  V30 3472 O 330.624 0.686372 1.67805 0
M  V30 3473 C 330.672 3.59462 -0.286264 0
M  V30 3474 O 329.776 4.05918 0.728298 0
M  V30 3475 H 329.117 0.651226 -0.129618 0
M  V30 3476 H 331.647 1.78915 -0.992499 0
M  V30 3477 H 331.657 4.07798 -0.128373 0
M  V30 3478 H 330.332 3.95889 -1.27456 0
M  V30 3479 H 328.909 3.69012 0.537081 0
M  V30 3480 N 331.094 0.475555 1.50254 0
M  V30 3481 C 332.324 -0.0753399 2.06463 0
M  V30 3482 C 332.732 -1.33661 1.33908 0
M  V30 3483 O 332.075 -1.79219 0.403257 0
M  V30 3484 C 332.137 -0.424921 3.5698 0
M  V30 3485 C 331.801 0.734965 4.51051 0
M  V30 3486 C 332.798 1.61827 4.94073 0
M  V30 3487 C 330.483 0.926557 4.9368 0
M  V30 3488 C 332.477 2.67754 5.78434 0
M  V30 3489 C 330.164 1.98904 5.77824 0
M  V30 3490 C 331.162 2.8629 6.20103 0
M  V30 3491 O 330.85 3.90708 7.02568 0
M  V30 3492 H 330.582 0.00576308 0.675975 0
M  V30 3493 H 333.136 0.664662 1.94349 0
M  V30 3494 H 331.366 -1.21817 3.67012 0
M  V30 3495 H 333.055 -0.911422 3.95535 0
M  V30 3496 H 333.821 1.48196 4.61804 0
M  V30 3497 H 329.7 0.25584 4.6029 0
M  V30 3498 H 333.244 3.35992 6.11355 0
M  V30 3499 H 329.141 2.12541 6.09505 0
M  V30 3500 H 329.909 3.87751 7.20827 0
M  V30 3501 N 332.573 -1.56217 0.208337 0
M  V30 3502 C 333.989 -1.58919 -0.14729 0
M  V30 3503 C 334.189 -1.22486 -1.59998 0
M  V30 3504 O 333.245 -0.953849 -2.3379 0
M  V30 3505 C 334.558 -3.00236 0.167048 0
M  V30 3506 C 336.106 -3.12813 0.108219 0
M  V30 3507 C 336.581 -4.56284 0.396049 0
M  V30 3508 N 338.072 -4.61912 0.345142 0
M  V30 3509 C 338.807 -5.70837 0.541523 0
M  V30 3510 N 338.303 -6.88178 0.798968 0
M  V30 3511 N 340.096 -5.60091 0.474867 0
M  V30 3512 H 332.247 -1.78177 1.15614 0
M  V30 3513 H 334.51 -0.827555 0.462446 0
M  V30 3514 H 334.216 -3.31499 1.1748 0
M  V30 3515 H 334.09 -3.7354 -0.524184 0
M  V30 3516 H 336.477 -2.81354 -0.890157 0
M  V30 3517 H 336.558 -2.41866 0.832729 0
M  V30 3518 H 336.202 -4.88458 1.3918 0
M  V30 3519 H 336.132 -5.25439 -0.349502 0
M  V30 3520 H 338.623 -3.77589 0.153316 0
M  V30 3521 H 338.936 -7.67095 0.93727 0
M  V30 3522 H 337.281 -6.89953 0.836013 0
M  V30 3523 H 340.472 -4.67297 0.274064 0
M  V30 3524 H 340.645 -6.44917 0.631326 0
M  V30 3525 N 334.051 0.0651679 -1.57465 0
M  V30 3526 C 335.299 0.761555 -1.87202 0
M  V30 3527 C 335.62 1.77778 -0.801243 0
M  V30 3528 O 334.89 1.95166 0.16937 0
M  V30 3529 H 333.47 0.284251 -0.690804 0
M  V30 3530 H 336.132 0.0396827 -1.9486 0
M  V30 3531 H 335.228 1.27365 -2.84929 0
M  V30 3532 N 335.529 1.53961 0.336706 0
M  V30 3533 C 336.459 1.85417 1.41925 0
M  V30 3534 C 337.44 0.709856 1.5458 0
M  V30 3535 O 338.625 0.962396 1.68676 0
M  V30 3536 C 335.755 2.06985 2.78881 0
M  V30 3537 C 334.709 3.22813 2.81026 0
M  V30 3538 C 334.035 3.29727 4.20932 0
M  V30 3539 C 335.335 4.60767 2.45949 0
M  V30 3540 H 337.029 2.76079 1.15848 0
M  V30 3541 H 334.575 1.32839 0.555859 0
M  V30 3542 H 336.528 2.27575 3.54665 0
M  V30 3543 H 335.252 1.13061 3.06406 0
M  V30 3544 H 333.911 3.0209 2.07695 0
M  V30 3545 H 333.559 2.33385 4.45579 0
M  V30 3546 H 333.259 4.07566 4.23277 0
M  V30 3547 H 334.783 3.52536 4.98549 0
M  V30 3548 H 336.197 4.81325 3.11446 0
M  V30 3549 H 334.594 5.4106 2.59566 0
M  V30 3550 H 335.664 4.6391 1.41122 0
M  V30 3551 N 337.007 -0.598083 1.45811 0
M  V30 3552 C 337.97 -1.69018 1.54808 0
M  V30 3553 C 338.97 -1.55037 0.426652 0
M  V30 3554 O 340.16 -1.59932 0.690456 0
M  V30 3555 C 337.292 -3.0835 1.45371 0
M  V30 3556 H 338.485 -1.62403 2.52121 0
M  V30 3557 H 336.038 -0.814626 1.33392 0
M  V30 3558 H 336.773 -3.20534 0.492793 0
M  V30 3559 H 336.558 -3.19907 2.26721 0
M  V30 3560 H 338.048 -3.8788 1.54721 0
M  V30 3561 N 338.485 -1.33259 -0.841409 0
M  V30 3562 C 339.901 -1.12538 -1.13169 0
M  V30 3563 C 340.101 0.0854037 -2.01319 0
M  V30 3564 O 339.157 0.766417 -2.40587 0
M  V30 3565 C 340.47 -2.41156 -1.79623 0
M  V30 3566 C 342.018 -2.47038 -1.922 0
M  V30 3567 C 342.493 -3.7561 -2.6207 0
M  V30 3568 N 343.984 -3.76667 -2.69585 0
M  V30 3569 C 344.719 -4.72861 -3.2433 0
M  V30 3570 N 344.215 -5.79428 -3.79783 0
M  V30 3571 N 346.008 -4.6034 -3.22558 0
M  V30 3572 H 338.159 -2.10868 -0.254676 0
M  V30 3573 H 340.422 -0.931615 -0.175493 0
M  V30 3574 H 340.128 -3.29747 -1.22311 0
M  V30 3575 H 340.002 -2.53114 -2.79666 0
M  V30 3576 H 342.389 -1.58898 -2.48667 0
M  V30 3577 H 342.47 -2.39022 -0.911148 0
M  V30 3578 H 342.114 -4.64131 -2.06263 0
M  V30 3579 H 342.044 -3.80902 -3.63622 0
M  V30 3580 H 344.535 -2.99648 -2.30259 0
M  V30 3581 H 344.848 -6.48867 -4.19752 0
M  V30 3582 H 343.193 -5.83166 -3.78078 0
M  V30 3583 H 346.384 -3.76244 -2.78492 0
M  V30 3584 H 346.557 -5.35478 -3.64921 0
M  V30 3585 N 339.963 1.05934 -1.16686 0
M  V30 3586 C 341.191 1.8249 -0.974929 0
M  V30 3587 C 341.606 1.82679 0.476861 0
M  V30 3588 O 340.963 1.2486 1.33103 0
M  V30 3589 C 341.014 3.28943 -1.49929 0
M  V30 3590 O 340.735 3.28886 -2.89423 0
M  V30 3591 C 342.236 4.22215 -1.35089 0
M  V30 3592 H 339.456 0.575295 -0.345365 0
M  V30 3593 H 342 1.33631 -1.548 0
M  V30 3594 H 340.155 3.751 -0.968423 0
M  V30 3595 H 340.569 4.20493 -3.13506 0
M  V30 3596 H 342.043 5.22987 -1.76603 0
M  V30 3597 H 342.52 4.38195 -0.296935 0
M  V30 3598 H 343.126 3.81907 -1.87155 0
M  V30 3599 N 341.441 0.965919 1.2453 0
M  V30 3600 C 342.669 0.644385 1.96609 0
M  V30 3601 C 343.084 -0.785823 1.71669 0
M  V30 3602 O 342.441 -1.52703 0.999399 0
M  V30 3603 C 342.492 0.907375 3.49927 0
M  V30 3604 O 342.213 2.28136 3.74013 0
M  V30 3605 C 343.714 0.599784 4.39224 0
M  V30 3606 H 340.934 0.240588 0.626385 0
M  V30 3607 H 343.478 1.29337 1.58405 0
M  V30 3608 H 341.633 0.304631 3.862 0
M  V30 3609 H 342.047 2.36002 4.68405 0
M  V30 3610 H 343.521 0.834263 5.45659 0
M  V30 3611 H 343.998 -0.465921 4.36722 0
M  V30 3612 H 344.604 1.18235 4.08535 0
M  V30 3613 N 342.919 -1.39368 0.735821 0
M  V30 3614 C 343.849 -2.33234 0.111506 0
M  V30 3615 C 344.83 -1.53954 -0.723334 0
M  V30 3616 O 346.015 -1.82344 -0.668147 0
M  V30 3617 C 343.145 -3.38057 -0.795917 0
M  V30 3618 C 342.099 -4.2795 -0.065172 0
M  V30 3619 C 341.425 -5.23479 -1.08967 0
M  V30 3620 C 342.725 -5.10741 1.09273 0
M  V30 3621 H 344.419 -2.85692 0.895571 0
M  V30 3622 H 341.965 -1.37364 0.432109 0
M  V30 3623 H 343.918 -4.02675 -1.24221 0
M  V30 3624 H 342.642 -2.8404 -1.61211 0
M  V30 3625 H 341.301 -3.64813 0.361511 0
M  V30 3626 H 340.949 -4.65758 -1.89944 0
M  V30 3627 H 340.649 -5.84472 -0.605489 0
M  V30 3628 H 342.173 -5.90974 -1.53565 0
M  V30 3629 H 343.587 -5.68699 0.724841 0
M  V30 3630 H 341.984 -5.8088 1.50659 0
M  V30 3631 H 343.054 -4.45525 1.91404 0
M  V30 3632 N 344.397 -0.483516 -1.5 0
M  V30 3633 C 345.622 0.0667119 -2.07293 0
M  V30 3634 C 346.047 1.3164 -1.3436 0
M  V30 3635 O 345.405 1.76945 -0.394987 0
M  V30 3636 C 345.453 0.321126 -3.59167 0
M  V30 3637 O 344.557 1.39927 -3.87936 0
M  V30 3638 H 343.898 -0.0184758 -0.663743 0
M  V30 3639 H 346.428 -0.678125 -1.93035 0
M  V30 3640 H 346.438 0.557906 -4.04168 0
M  V30 3641 H 345.113 -0.592007 -4.11665 0
M  V30 3642 H 343.69 1.14882 -3.54763 0
M  V30 3643 N 345.875 1.56104 -0.216619 0
M  V30 3644 C 347.123 1.97781 0.415593 0
M  V30 3645 C 347.444 1.10536 1.60645 0
M  V30 3646 O 346.714 0.181303 1.95059 0
M  V30 3647 H 345.294 0.730415 0.156534 0
M  V30 3648 H 347.956 1.92445 -0.308366 0
M  V30 3649 H 347.052 3.03072 0.74525 0
M  V30 3650 N 347.353 -0.0568162 1.57498 0
M  V30 3651 C 348.316 -1.05038 2.03715 0
M  V30 3652 C 349.316 -1.30709 0.936577 0
M  V30 3653 O 350.506 -1.26178 1.20103 0
M  V30 3654 C 347.638 -2.39034 2.43055 0
M  V30 3655 H 348.831 -0.651715 2.92733 0
M  V30 3656 H 346.384 -0.302947 1.53336 0
M  V30 3657 H 347.119 -2.83703 1.57108 0
M  V30 3658 H 346.904 -2.21739 3.2338 0
M  V30 3659 H 348.394 -3.10421 2.79336 0
M  V30 3660 N 348.832 -1.54138 -0.328536 0
M  V30 3661 C 350.243 -1.63395 -0.903272 0
M  V30 3662 C 350.594 -0.524828 -1.8905 0
M  V30 3663 O 349.719 0.343068 -2.13663 0
M  V30 3664 C 350.314 -2.9618 -1.64507 0
M  V30 3665 C 348.873 -3.0765 -2.1686 0
M  V30 3666 C 348.02 -2.58933 -0.992416 0
M  V30 3667 H 350.971 -1.58344 -0.106253 0
M  V30 3668 H 350.992 -2.86061 -2.50897 0
M  V30 3669 H 350.504 -3.76884 -0.926302 0
M  V30 3670 H 348.605 -2.31611 -2.91868 0
M  V30 3671 H 348.718 -4.1337 -2.42202 0
M  V30 3672 H 347.082 -2.14706 -1.37016 0
M  V30 3673 H 347.865 -3.42089 -0.288041 0
M  V30 3674 N 350.31 0.590341 -1.46126 0
M  V30 3675 C 351.55 1.35995 -1.52593 0
M  V30 3676 C 351.914 1.91243 -0.170368 0
M  V30 3677 O 353.115 2.68576 -0.109775 0
M  V30 3678 C 351.386 2.46465 -2.58823 0
M  V30 3679 S 352.945 3.33953 -2.84641 0
M  V30 3680 H 349.763 0.463425 -0.53922 0
M  V30 3681 H 352.365 0.67944 -1.83314 0
M  V30 3682 H 351.069 2.04256 -3.5596 0
M  V30 3683 H 350.6 3.19297 -2.2981 0
M  V30 3684 H 352.615 4.45094 -2.19331 0
M  V30 3685 N 351.788 1.33704 0.83433 0
M  V30 3686 C 352.72 1.20172 1.9517 0
M  V30 3687 C 353.733 0.131572 1.62267 0
M  V30 3688 O 354.922 0.382406 1.74356 0
M  V30 3689 C 352.022 0.821716 3.28787 0
M  V30 3690 C 351.195 1.98446 3.89792 0
M  V30 3691 C 350.254 1.58469 5.01771 0
M  V30 3692 O 349.28 2.29968 5.20676 0
M  V30 3693 N 350.482 0.492291 5.78409 0
M  V30 3694 H 353.247 2.16429 2.07313 0
M  V30 3695 H 350.808 1.26509 1.0103 0
M  V30 3696 H 352.8 0.536291 4.01131 0
M  V30 3697 H 351.37 -0.0503058 3.1256 0
M  V30 3698 H 350.59 2.43526 3.09982 0
M  V30 3699 H 351.878 2.76236 4.27283 0
M  V30 3700 H 351.276 -0.102349 5.65607 0
M  V30 3701 H 349.833 0.266555 6.51255 0
M  V30 3702 N 353.266 -1.05314 1.17247 0
M  V30 3703 C 354.677 -1.59753 0.96623 0
M  V30 3704 C 355.028 -1.9005 -0.487378 0
M  V30 3705 O 354.153 -1.68126 -1.36245 0
M  V30 3706 C 354.748 -2.90249 1.74759 0
M  V30 3707 C 353.307 -3.41352 1.58606 0
M  V30 3708 C 352.454 -2.15103 1.75002 0
M  V30 3709 H 355.405 -0.881406 1.31973 0
M  V30 3710 H 355.426 -3.60097 1.22925 0
M  V30 3711 H 354.938 -2.68166 2.8055 0
M  V30 3712 H 353.039 -3.68474 0.552985 0
M  V30 3713 H 353.152 -4.16019 2.37624 0
M  V30 3714 H 351.516 -2.25804 1.17833 0
M  V30 3715 H 352.299 -1.95491 2.82202 0
M  V30 3716 N 354.744 -0.972509 -1.24016 0
M  V30 3717 C 355.99 -0.647583 -1.92816 0
M  V30 3718 C 356.345 0.809015 -1.74564 0
M  V30 3719 O 355.638 1.57502 -1.09103 0
M  V30 3720 C 355.832 -0.963694 -3.44162 0
M  V30 3721 C 355.661 -2.44947 -3.77135 0
M  V30 3722 C 354.431 -3.11012 -3.98246 0
M  V30 3723 C 356.629 -3.42978 -3.83237 0
M  V30 3724 N 354.611 -4.49277 -4.18358 0
M  V30 3725 C 355.982 -4.66619 -4.08248 0
M  V30 3726 C 358.037 -3.37569 -3.65994 0
M  V30 3727 C 356.74 -5.85516 -4.17808 0
M  V30 3728 C 358.766 -4.55822 -3.76802 0
M  V30 3729 C 358.128 -5.78256 -4.02243 0
M  V30 3730 H 354.227 -0.287894 -0.727077 0
M  V30 3731 H 356.811 -1.24835 -1.49413 0
M  V30 3732 H 354.982 -0.391692 -3.8642 0
M  V30 3733 H 356.714 -0.596849 -4.00275 0
M  V30 3734 H 353.469 -2.61529 -3.94841 0
M  V30 3735 H 353.893 -5.20935 -4.32384 0
M  V30 3736 H 358.535 -2.43945 -3.45327 0
M  V30 3737 H 356.253 -6.79564 -4.37285 0
M  V30 3738 H 359.839 -4.53204 -3.64825 0
M  V30 3739 H 358.719 -6.68231 -4.10411 0
M  V30 3740 N 356.222 1.38976 -0.743202 0
M  V30 3741 C 357.185 2.28901 -0.117014 0
M  V30 3742 C 358.185 1.46698 0.658503 0
M  V30 3743 O 359.375 1.67274 0.486305 0
M  V30 3744 C 356.507 3.30309 0.84315 0
M  V30 3745 H 357.7 2.8578 -0.909373 0
M  V30 3746 H 355.253 1.47761 -0.509547 0
M  V30 3747 H 355.988 2.785 1.66157 0
M  V30 3748 H 355.773 3.91029 0.289594 0
M  V30 3749 H 357.263 3.97577 1.2776 0
M  V30 3750 N 357.7 0.491464 1.49741 0
M  V30 3751 C 358.925 -0.0557177 2.07325 0
M  V30 3752 C 359.35 -1.30925 1.35056 0
M  V30 3753 O 358.708 -1.76733 0.404365 0
M  V30 3754 C 358.756 -0.302074 3.59333 0
M  V30 3755 O 357.86 -1.37868 3.88672 0
M  V30 3756 H 357.201 0.0219956 0.663636 0
M  V30 3757 H 359.731 0.688352 1.92673 0
M  V30 3758 H 359.741 -0.536464 4.04458 0
M  V30 3759 H 358.416 0.61383 4.11345 0
M  V30 3760 H 356.993 -1.12999 3.55367 0
M  V30 3761 N 359.178 -1.55987 0.224894 0
M  V30 3762 C 360.088 -2.24066 -0.69511 0
M  V30 3763 C 361.104 -1.24939 -1.21104 0
M  V30 3764 O 362.28 -1.5776 -1.25195 0
M  V30 3765 C 359.345 -2.90983 -1.88493 0
M  V30 3766 C 358.406 -4.05462 -1.41064 0
M  V30 3767 C 357.639 -4.69179 -2.54375 0
M  V30 3768 O 357.862 -4.31895 -3.72589 0
M  V30 3769 O 356.796 -5.58108 -2.25386 0
M  V30 3770 H 360.622 -3.03353 -0.145149 0
M  V30 3771 H 358.207 -1.49399 -0.00569476 0
M  V30 3772 H 360.089 -3.33209 -2.57972 0
M  V30 3773 H 358.764 -2.14653 -2.42293 0
M  V30 3774 H 357.671 -3.67798 -0.683774 0
M  V30 3775 H 359.004 -4.83545 -0.918985 0
M  V30 3776 N 360.656 0.0484629 -1.57525 0
M  V30 3777 C 361.619 1.03956 -2.04269 0
M  V30 3778 C 362.619 1.30211 -0.943496 0
M  V30 3779 O 363.809 1.25539 -1.20771 0
M  V30 3780 C 360.941 2.37742 -2.44319 0
M  V30 3781 H 362.134 0.636182 -2.93075 0
M  V30 3782 H 359.687 0.294811 -1.53494 0
M  V30 3783 H 360.422 2.82866 -1.5861 0
M  V30 3784 H 360.207 2.20021 -3.24551 0
M  V30 3785 H 361.697 3.08936 -2.80978 0
M  V30 3786 N 362.134 1.5431 0.320358 0
M  V30 3787 C 363.362 1.76636 1.07738 0
M  V30 3788 C 363.777 0.51649 1.81598 0
M  V30 3789 O 363.134 -0.512942 1.75143 0
M  V30 3790 C 363.185 2.96158 2.07299 0
M  V30 3791 O 362.906 4.16313 1.36438 0
M  V30 3792 C 364.407 3.3072 2.95193 0
M  V30 3793 H 361.627 0.589597 0.320339 0
M  V30 3794 H 364.171 2.01207 0.36551 0
M  V30 3795 H 362.326 2.73851 2.74016 0
M  V30 3796 H 362.74 4.83565 2.03138 0
M  V30 3797 H 364.214 4.17643 3.60941 0
M  V30 3798 H 364.691 2.48026 3.62463 0
M  V30 3799 H 365.297 3.55117 2.34034 0
M  V30 3800 N 363.613 -0.582584 1.46437 0
M  V30 3801 C 364.843 -1.36484 1.55099 0
M  V30 3802 C 365.251 -1.88233 0.191056 0
M  V30 3803 O 364.594 -1.6429 -0.821858 0
M  V30 3804 C 364.656 -2.588 2.49525 0
M  V30 3805 C 364.32 -2.28517 3.95764 0
M  V30 3806 C 365.317 -1.87346 4.84972 0
M  V30 3807 C 363.002 -2.40658 4.40896 0
M  V30 3808 C 364.996 -1.5871 6.17325 0
M  V30 3809 C 362.683 -2.11635 5.73284 0
M  V30 3810 C 363.681 -1.70725 6.61318 0
M  V30 3811 O 363.369 -1.42057 7.91249 0
M  V30 3812 H 363.101 -0.423297 0.527063 0
M  V30 3813 H 365.655 -0.715188 1.92547 0
M  V30 3814 H 363.885 -3.26571 2.07095 0
M  V30 3815 H 365.574 -3.20868 2.48593 0
M  V30 3816 H 366.34 -1.77481 4.5136 0
M  V30 3817 H 362.219 -2.71463 3.72598 0
M  V30 3818 H 365.763 -1.26704 6.85997 0
M  V30 3819 H 361.66 -2.21124 6.06444 0
M  V30 3820 H 362.428 -1.55901 8.03515 0
M  V30 3821 N 365.091 -1.34144 -0.827227 0
M  V30 3822 C 366.507 -1.13732 -1.11969 0
M  V30 3823 C 366.707 0.0640463 -2.01398 0
M  V30 3824 O 365.763 0.740856 -2.41387 0
M  V30 3825 C 367.076 -2.43047 -1.77055 0
M  V30 3826 C 368.624 -2.49063 -1.89569 0
M  V30 3827 C 369.099 -3.78369 -2.58072 0
M  V30 3828 N 370.59 -3.79505 -2.65575 0
M  V30 3829 C 371.325 -4.76274 -3.19297 0
M  V30 3830 N 370.821 -5.83424 -3.73616 0
M  V30 3831 N 372.614 -4.63735 -3.17658 0
M  V30 3832 H 364.765 -2.11126 -0.232296 0
M  V30 3833 H 367.028 -0.933424 -0.165602 0
M  V30 3834 H 366.734 -3.31025 -1.18807 0
M  V30 3835 H 366.608 -2.56066 -2.76966 0
M  V30 3836 H 368.995 -1.61527 -2.46968 0
M  V30 3837 H 369.076 -2.39975 -0.885745 0
M  V30 3838 H 368.72 -4.66293 -2.01329 0
M  V30 3839 H 368.65 -3.84737 -3.59562 0
M  V30 3840 H 371.141 -3.02074 -2.27068 0
M  V30 3841 H 371.454 -6.53282 -4.12846 0
M  V30 3842 H 369.799 -5.87143 -3.71871 0
M  V30 3843 H 372.99 -3.79177 -2.74486 0
M  V30 3844 H 373.163 -5.39318 -3.59221 0
M  V30 3845 N 366.569 1.04691 -1.17803 0
M  V30 3846 C 367.517 2.14665 -0.895635 0
M  V30 3847 C 368.511 1.68806 0.141679 0
M  V30 3848 O 369.717 1.79999 -0.00587914 0
M  V30 3849 H 366.092 0.701038 -0.272121 0
M  V30 3850 H 368.063 2.35685 -1.83017 0
M  V30 3851 C 366.812 3.45019 -0.430962 0
M  V30 3852 H 366.135 3.8071 -1.22064 0
M  V30 3853 H 367.575 4.23125 -0.272301 0
M  V30 3854 C 366.034 3.25943 0.852207 0
M  V30 3855 O 366.564 3.5296 1.91786 0
M  V30 3856 N 364.77 2.79304 0.802346 0
M  V30 3857 H 364.317 2.57518 -0.0650788 0
M  V30 3858 H 364.275 2.66921 1.66134 0
M  V30 3859 N 368.047 0.979072 1.23499 0
M  V30 3860 C 369.293 0.648178 1.92163 0
M  V30 3861 C 369.626 -0.816049 1.76222 0
M  V30 3862 O 368.901 -1.58849 1.12237 0
M  V30 3863 C 369.184 1.03773 3.44824 0
M  V30 3864 C 369.037 2.55948 3.69879 0
M  V30 3865 C 370.356 0.580653 4.36253 0
M  V30 3866 H 367.475 0.236952 0.69787 0
M  V30 3867 H 370.117 1.22012 1.45647 0
M  V30 3868 H 368.267 0.551058 3.84572 0
M  V30 3869 H 369.939 3.12179 3.3962 0
M  V30 3870 H 368.182 2.98641 3.14636 0
M  V30 3871 H 368.853 2.78255 4.76737 0
M  V30 3872 H 371.329 0.998465 4.03943 0
M  V30 3873 H 370.205 0.881663 5.41773 0
M  V30 3874 H 370.466 -0.519052 4.39042 0
M  V30 3875 N 369.525 -1.3858 0.750561 0
M  V30 3876 C 370.753 -2.04471 0.316098 0
M  V30 3877 C 371.168 -1.56606 -1.05452 0
M  V30 3878 O 370.525 -0.737784 -1.66922 0
M  V30 3879 C 370.576 -3.60025 0.326275 0
M  V30 3880 O 370.297 -4.06133 1.6428 0
M  V30 3881 C 371.798 -4.43131 -0.122429 0
M  V30 3882 H 369.018 -0.65717 0.135528 0
M  V30 3883 H 371.562 -1.77329 1.01857 0
M  V30 3884 H 369.717 -3.86014 -0.327431 0
M  V30 3885 H 370.131 -5.00547 1.56693 0
M  V30 3886 H 371.605 -5.51963 -0.0641473 0
M  V30 3887 H 372.082 -4.23333 -1.16988 0
M  V30 3888 H 372.688 -4.22323 0.50229 0
M  V30 3889 N 371.003 -0.499398 -1.49478 0
M  V30 3890 C 371.966 0.268838 -2.27618 0
M  V30 3891 C 372.966 0.895383 -1.33565 0
M  V30 3892 O 374.156 0.760164 -1.56739 0
M  V30 3893 C 371.288 1.38559 -3.11471 0
M  V30 3894 H 372.481 -0.416812 -2.96989 0
M  V30 3895 H 370.034 -0.254313 -1.54217 0
M  V30 3896 H 370.769 2.10544 -2.46661 0
M  V30 3897 H 370.554 0.941797 -3.80621 0
M  V30 3898 H 372.044 1.92678 -3.70493 0
M  V30 3899 N 372.481 1.55866 -0.233164 0
M  V30 3900 C 373.391 2.24431 0.683217 0
M  V30 3901 C 374.407 1.2558 1.2044 0
M  V30 3902 O 375.583 1.58422 1.24356 0
M  V30 3903 C 372.648 2.91979 1.86947 0
M  V30 3904 C 371.709 4.06204 1.38912 0
M  V30 3905 C 370.942 4.70522 2.51883 0
M  V30 3906 O 371.165 4.33865 3.70293 0
M  V30 3907 O 370.099 5.59296 2.22423 0
M  V30 3908 H 373.925 3.03426 0.129059 0
M  V30 3909 H 371.51 1.494 -0.0022283 0
M  V30 3910 H 373.392 3.34573 2.56201 0
M  V30 3911 H 372.067 2.15935 2.41151 0
M  V30 3912 H 370.974 3.68155 0.664259 0
M  V30 3913 H 372.307 4.84025 0.893328 0
M  V30 3914 N 373.959 -0.0401083 1.57549 0
M  V30 3915 C 374.891 -1.07149 2.02612 0
M  V30 3916 C 375.904 -1.33126 0.937085 0
M  V30 3917 O 377.093 -1.30808 1.21456 0
M  V30 3918 C 374.193 -2.41561 2.37701 0
M  V30 3919 C 373.366 -2.35096 3.68848 0
M  V30 3920 C 372.425 -3.51867 3.91249 0
M  V30 3921 O 371.451 -3.3186 4.62447 0
M  V30 3922 N 372.653 -4.73351 3.36035 0
M  V30 3923 H 375.418 -0.687485 2.91708 0
M  V30 3924 H 372.979 -0.228248 1.60283 0
M  V30 3925 H 374.971 -3.18379 2.49833 0
M  V30 3926 H 373.541 -2.71846 1.54332 0
M  V30 3927 H 372.761 -1.4345 3.67173 0
M  V30 3928 H 374.049 -2.27908 4.54901 0
M  V30 3929 H 373.447 -4.92507 2.78304 0
M  V30 3930 H 372.004 -5.47572 3.53565 0
M  V30 3931 N 375.437 -1.54477 -0.31217 0
M  V30 3932 C 376.4 -1.83923 -1.36766 0
M  V30 3933 C 377.4 -0.711563 -1.44199 0
M  V30 3934 O 378.59 -0.979866 -1.44029 0
M  V30 3935 C 375.722 -2.0095 -2.75376 0
M  V30 3936 H 376.915 -2.78239 -1.11906 0
M  V30 3937 H 374.468 -1.46369 -0.548257 0
M  V30 3938 H 375.203 -1.08883 -3.05475 0
M  V30 3939 H 374.988 -2.83018 -2.71373 0
M  V30 3940 H 376.478 -2.2514 -3.51713 0
M  V30 3941 N 376.915 0.57481 -1.46744 0
M  V30 3942 C 378.331 0.898981 -1.31873 0
M  V30 3943 C 378.531 1.99313 -0.29605 0
M  V30 3944 O 377.587 2.50728 0.298621 0
M  V30 3945 C 378.9 1.30886 -2.7072 0
M  V30 3946 C 380.448 1.42127 -2.78871 0
M  V30 3947 C 380.923 1.86478 -4.18318 0
M  V30 3948 N 382.414 1.93658 -4.20774 0
M  V30 3949 C 383.149 2.29267 -5.2557 0
M  V30 3950 N 382.645 2.63612 -6.40688 0
M  V30 3951 N 384.438 2.29889 -5.1294 0
M  V30 3952 H 376.589 -0.147839 -2.11885 0
M  V30 3953 H 378.852 -0.00347013 -0.947994 0
M  V30 3954 H 378.558 0.578853 -3.46904 0
M  V30 3955 H 378.432 2.26874 -3.01343 0
M  V30 3956 H 380.819 2.14213 -2.0297 0
M  V30 3957 H 380.9 0.443705 -2.51922 0
M  V30 3958 H 380.544 1.14968 -4.94717 0
M  V30 3959 H 380.474 2.85207 -4.42679 0
M  V30 3960 H 382.965 1.69574 -3.37718 0
M  V30 3961 H 383.278 2.89759 -7.16421 0
M  V30 3962 H 381.623 2.61232 -6.44036 0
M  V30 3963 H 384.814 2.02485 -4.22039 0
M  V30 3964 H 384.987 2.57312 -5.94722 0
M  V30 3965 N 378.394 1.34581 0.820102 0
M  V30 3966 C 379.342 1.26401 1.95258 0
M  V30 3967 C 380.336 0.161553 1.68628 0
M  V30 3968 O 381.542 0.326703 1.7701 0
M  V30 3969 H 377.917 0.392749 0.64129 0
M  V30 3970 H 379.888 2.22105 1.99279 0
M  V30 3971 C 378.637 1.03919 3.31807 0
M  V30 3972 H 377.96 1.87984 3.52848 0
M  V30 3973 H 379.4 1.02232 4.11491 0
M  V30 3974 C 377.859 -0.257433 3.35915 0
M  V30 3975 O 378.389 -1.25784 3.81499 0
M  V30 3976 N 376.595 -0.291524 2.89134 0
M  V30 3977 H 376.142 0.523161 2.52232 0
M  V30 3978 H 376.1 -1.15883 2.92264 0
M  V30 3979 N 379.872 -1.04064 1.18357 0
M  V30 3980 C 381.118 -1.77658 0.990412 0
M  V30 3981 C 381.473 -1.86446 -0.474944 0
M  V30 3982 O 380.766 -1.36153 -1.34807 0
M  V30 3983 C 380.96 -3.20634 1.57888 0
M  V30 3984 C 380.789 -3.25782 3.09994 0
M  V30 3985 C 379.559 -3.34411 3.7881 0
M  V30 3986 C 381.757 -3.13791 4.0748 0
M  V30 3987 N 379.739 -3.28809 5.18418 0
M  V30 3988 C 381.11 -3.15689 5.33611 0
M  V30 3989 C 383.165 -2.97833 3.98998 0
M  V30 3990 C 381.868 -3.03268 6.52243 0
M  V30 3991 C 383.894 -2.86759 5.17227 0
M  V30 3992 C 383.256 -2.893 6.4225 0
M  V30 3993 H 379.355 -0.661901 0.416427 0
M  V30 3994 H 381.939 -1.23968 1.50133 0
M  V30 3995 H 380.11 -3.7267 1.09414 0
M  V30 3996 H 381.842 -3.82525 1.32124 0
M  V30 3997 H 378.597 -3.40144 3.29543 0
M  V30 3998 H 379.021 -3.29448 5.91433 0
M  V30 3999 H 383.663 -2.94698 3.03171 0
M  V30 4000 H 381.381 -3.05156 7.48268 0
M  V30 4001 H 384.967 -2.75465 5.12455 0
M  V30 4002 H 383.847 -2.80818 7.32196 0
M  V30 4003 N 381.35 -0.985608 -1.22978 0
M  V30 4004 C 382.598 -0.656087 -1.91154 0
M  V30 4005 C 382.919 0.813561 -1.77218 0
M  V30 4006 O 382.189 1.58244 -1.1548 0
M  V30 4007 H 380.769 -0.239674 -0.707506 0
M  V30 4008 H 383.431 -1.25054 -1.49491 0
M  V30 4009 H 382.527 -0.912253 -2.9847 0
M  V30 4010 N 382.828 1.3818 -0.7579 0
M  V30 4011 C 383.758 2.33027 -0.148597 0
M  V30 4012 C 384.739 1.55085 0.69875 0
M  V30 4013 O 385.924 1.83384 0.639053 0
M  V30 4014 C 383.054 3.3928 0.742034 0
M  V30 4015 C 382.008 4.28 -0.00291946 0
M  V30 4016 C 381.334 5.25146 1.00625 0
M  V30 4017 C 382.634 5.08938 -1.17385 0
M  V30 4018 H 384.328 2.84231 -0.940909 0
M  V30 4019 H 381.874 1.36659 -0.453908 0
M  V30 4020 H 383.827 4.046 1.17799 0
M  V30 4021 H 382.551 2.86569 1.56671 0
M  V30 4022 H 381.21 3.64192 -0.419504 0
M  V30 4023 H 380.858 4.68721 1.8251 0
M  V30 4024 H 380.558 5.85361 0.512428 0
M  V30 4025 H 382.082 5.93342 1.44143 0
M  V30 4026 H 383.496 5.67474 -0.815224 0
M  V30 4027 H 381.893 5.7841 -1.59882 0
M  V30 4028 H 382.963 4.42424 -1.98468 0
M  V30 4029 N 384.306 0.507319 1.49211 0
M  V30 4030 C 385.554 -0.0348839 2.0207 0
M  V30 4031 C 385.875 -1.36898 1.38866 0
M  V30 4032 O 385.145 -1.88133 0.546151 0
M  V30 4033 H 383.725 -0.0158812 0.746831 0
M  V30 4034 H 386.387 0.665998 1.83168 0
M  V30 4035 H 385.483 -0.159917 3.1169 0
M  V30 4036 N 385.784 -1.5574 0.241426 0
M  V30 4037 C 387.032 -1.98417 -0.384075 0
M  V30 4038 C 387.353 -1.13078 -1.58866 0
M  V30 4039 O 386.623 -0.212312 -1.94746 0
M  V30 4040 H 385.203 -0.732813 -0.144894 0
M  V30 4041 H 387.865 -1.9193 0.338943 0
M  V30 4042 H 386.961 -3.04219 -0.696939 0
M  V30 4043 N 387.262 0.0317525 -1.57568 0
M  V30 4044 C 388.212 1.04101 -2.02847 0
M  V30 4045 C 389.196 1.3219 -0.917317 0
M  V30 4046 O 390.388 1.31819 -1.18121 0
M  V30 4047 C 387.517 2.34295 -2.5092 0
M  V30 4048 C 386.603 2.09308 -3.68851 0
M  V30 4049 N 386.994 1.5437 -4.81667 0
M  V30 4050 C 385.292 2.39604 -3.76172 0
M  V30 4051 C 385.993 1.45126 -5.63306 0
M  V30 4052 N 384.969 1.92589 -5.08341 0
M  V30 4053 H 388.771 0.610217 -2.87495 0
M  V30 4054 H 386.285 0.238108 -1.60645 0
M  V30 4055 H 388.282 3.07404 -2.81617 0
M  V30 4056 H 386.942 2.78055 -1.67677 0
M  V30 4057 H 387.953 1.22678 -5.03161 0
M  V30 4058 H 384.63 2.86457 -3.03724 0
M  V30 4059 H 386.02 1.03163 -6.63933 0
M  V30 4060 N 388.74 1.54641 0.303973 0
M  V30 4061 C 389.703 1.84646 1.35789 0
M  V30 4062 C 390.703 0.7192 1.4382 0
M  V30 4063 O 391.893 0.987491 1.43507 0
M  V30 4064 C 389.025 2.02407 2.74307 0
M  V30 4065 H 390.218 2.78829 1.10429 0
M  V30 4066 H 387.771 1.46658 0.540487 0
M  V30 4067 H 388.506 1.10502 3.04893 0
M  V30 4068 H 388.291 2.84453 2.69868 0
M  V30 4069 H 389.781 2.27002 3.50514 0
M  V30 4070 N 390.218 -0.567019 1.47046 0
M  V30 4071 C 391.465 -1.32462 1.53167 0
M  V30 4072 C 391.793 -1.93571 0.189841 0
M  V30 4073 O 391.048 -1.77865 -0.816243 0
M  V30 4074 C 391.347 -2.4623 2.59047 0
M  V30 4075 C 391.013 -2.03014 4.02612 0
M  V30 4076 C 389.675 -1.90944 4.41694 0
M  V30 4077 C 392.027 -1.69895 4.92732 0
M  V30 4078 C 389.355 -1.44035 5.68745 0
M  V30 4079 C 391.707 -1.2446 6.20236 0
M  V30 4080 C 390.371 -1.10979 6.5821 0
M  V30 4081 H 389.641 -0.484713 0.560477 0
M  V30 4082 H 392.288 -0.636888 1.80599 0
M  V30 4083 H 390.593 -3.20517 2.25335 0
M  V30 4084 H 392.29 -3.04427 2.61008 0
M  V30 4085 H 388.88 -2.13348 3.71726 0
M  V30 4086 H 393.064 -1.78098 4.63244 0
M  V30 4087 H 388.32 -1.32254 5.96925 0
M  V30 4088 H 392.494 -0.978924 6.89485 0
M  V30 4089 H 390.121 -0.744078 7.5655 0
M  V30 4090 N 391.696 -1.35014 -0.812953 0
M  V30 4091 C 392.936 -1.29289 -1.58315 0
M  V30 4092 C 393.3 0.132727 -1.91541 0
M  V30 4093 O 394.501 0.314269 -2.66957 0
M  V30 4094 C 392.772 -2.1681 -2.84127 0
M  V30 4095 S 394.331 -2.28538 -3.74588 0
M  V30 4096 H 391.149 -0.459569 -0.542511 0
M  V30 4097 H 393.751 -1.70336 -0.959467 0
M  V30 4098 H 392.455 -3.19379 -2.57731 0
M  V30 4099 H 391.986 -1.76697 -3.51485 0
M  V30 4100 H 394.001 -1.4655 -4.74065 0
M  V30 4101 N 393.175 1.03435 -1.18907 0
M  V30 4102 C 394.591 1.28973 -0.940111 0
M  V30 4103 C 394.791 1.97676 0.390691 0
M  V30 4104 O 393.847 2.26127 1.12352 0
M  V30 4105 C 395.16 2.14221 -2.11021 0
M  V30 4106 C 396.708 2.27547 -2.14922 0
M  V30 4107 C 397.183 3.16164 -3.31367 0
M  V30 4108 N 398.674 3.23752 -3.31269 0
M  V30 4109 C 399.409 3.92495 -4.18014 0
M  V30 4110 N 398.905 4.63515 -5.14904 0
M  V30 4111 N 400.698 3.88838 -4.05908 0
M  V30 4112 H 392.849 0.57252 -2.04538 0
M  V30 4113 H 395.112 0.315184 -0.894071 0
M  V30 4114 H 394.818 1.71054 -3.073 0
M  V30 4115 H 394.692 3.14919 -2.0762 0
M  V30 4116 H 397.079 2.69947 -1.19217 0
M  V30 4117 H 397.16 1.26418 -2.22378 0
M  V30 4118 H 396.804 2.74474 -4.27348 0
M  V30 4119 H 396.734 4.17339 -3.21148 0
M  V30 4120 H 399.225 2.73167 -2.61129 0
M  V30 4121 H 399.538 5.13583 -5.77453 0
M  V30 4122 H 397.883 4.62398 -5.18857 0
M  V30 4123 H 401.074 3.32491 -3.29495 0
M  V30 4124 H 401.247 4.4214 -4.73726 0
M  V30 4125 N 394.653 0.992116 1.22453 0
M  V30 4126 C 395.601 0.534644 2.26372 0
M  V30 4127 C 396.595 -0.414293 1.64256 0
M  V30 4128 O 397.801 -0.286899 1.77699 0
M  V30 4129 H 394.176 0.154502 0.735957 0
M  V30 4130 H 396.147 1.42256 2.62309 0
M  V30 4131 C 394.896 -0.135815 3.47435 0
M  V30 4132 H 394.219 0.585311 3.95492 0
M  V30 4133 H 395.659 -0.419374 4.21921 0
M  V30 4134 C 394.118 -1.37089 3.07747 0
M  V30 4135 O 394.648 -2.46629 3.17076 0
M  V30 4136 N 392.854 -1.24585 2.62539 0
M  V30 4137 H 392.401 -0.354542 2.55149 0
M  V30 4138 H 392.359 -2.07327 2.36353 0
M  V30 4139 N 396.131 -1.37776 0.765217 0
M  V30 4140 C 397.542 -1.82521 0.392819 0
M  V30 4141 C 397.893 -1.63789 -1.08017 0
M  V30 4142 O 397.018 -1.14542 -1.83601 0
M  V30 4143 C 397.613 -3.31358 0.706214 0
M  V30 4144 C 396.172 -3.74406 0.386952 0
M  V30 4145 C 395.319 -2.60394 0.953422 0
M  V30 4146 H 398.27 -1.2634 0.960412 0
M  V30 4147 H 398.291 -3.80498 -0.0114706 0
M  V30 4148 H 397.803 -3.44959 1.77833 0
M  V30 4149 H 395.904 -3.66377 -0.678112 0
M  V30 4150 H 396.017 -4.70749 0.890636 0
M  V30 4151 H 394.381 -2.51878 0.378064 0
M  V30 4152 H 395.164 -2.76791 2.03081 0
M  V30 4153 N 397.609 -0.515225 -1.4894 0
M  V30 4154 C 398.886 0.0879088 -1.95402 0
M  V30 4155 C 399.266 1.52745 -1.45712 0
M  V30 4156 O 398.614 2.18238 -0.677093 0
M  V30 4157 C 398.824 -0.0141055 -3.48997 0
M  V30 4158 C 400.172 0.152646 -4.24326 0
M  V30 4159 O 401.196 0.0604025 -3.56149 0
M  V30 4160 O 400.055 0.34384 -5.45417 0
M  V30 4161 H 397.149 0.0874636 -0.822362 0
M  V30 4162 H 399.695 -0.578775 -1.59525 0
M  V30 4163 H 398.467 -1.01745 -3.77841 0
M  V30 4164 H 398.09 0.692091 -3.9153 0
M  V30 4165 N 399.087 1.5561 -0.249682 0
M  V30 4166 C 400.035 2.22894 0.664906 0
M  V30 4167 C 401.029 1.21743 1.17792 0
M  V30 4168 O 402.235 1.39748 1.13449 0
M  V30 4169 H 398.61 0.715022 0.232912 0
M  V30 4170 H 400.581 2.98307 0.0742998 0
M  V30 4171 C 399.33 2.94424 1.84959 0
M  V30 4172 H 398.653 3.72031 1.46399 0
M  V30 4173 H 400.093 3.44862 2.4667 0
M  V30 4174 C 398.552 1.98454 2.72245 0
M  V30 4175 O 399.082 1.51939 3.71857 0
M  V30 4176 N 397.288 1.65496 2.38871 0
M  V30 4177 H 396.835 2.03517 1.57919 0
M  V30 4178 H 396.793 1.0155 2.97548 0
M  V30 4179 N 400.565 -0.0233959 1.57583 0
M  V30 4180 C 401.842 -0.748794 1.807 0
M  V30 4181 C 402.222 -1.9327 0.849106 0
M  V30 4182 O 401.57 -2.28247 -0.107468 0
M  V30 4183 C 401.78 -1.17651 3.28571 0
M  V30 4184 C 403.128 -1.59008 3.93702 0
M  V30 4185 O 404.152 -1.27094 3.32755 0
M  V30 4186 O 403.011 -2.18264 5.01022 0
M  V30 4187 H 400.105 -0.362578 0.743281 0
M  V30 4188 H 402.651 0.000261958 1.697 0
M  V30 4189 H 401.423 -0.331603 3.89892 0
M  V30 4190 H 401.046 -1.98541 3.44481 0
M  V30 4191 N 402.043 -1.548 -0.295768 0
M  V30 4192 C 403.292 -1.73538 -1.02798 0
M  V30 4193 C 403.605 -0.531159 -1.8825 0
M  V30 4194 O 404.811 -0.600458 -2.64777 0
M  V30 4195 C 403.267 -3.07051 -1.87744 0
M  V30 4196 C 402.875 -4.34968 -1.07269 0
M  V30 4197 C 404.619 -3.35146 -2.60533 0
M  V30 4198 C 402.526 -5.5953 -1.91521 0
M  V30 4199 H 401.456 -0.646794 -0.387522 0
M  V30 4200 H 404.107 -1.81278 -0.284718 0
M  V30 4201 H 402.489 -2.93289 -2.66078 0
M  V30 4202 H 403.663 -4.5958 -0.335117 0
M  V30 4203 H 401.978 -4.13847 -0.460384 0
M  V30 4204 H 404.575 -4.2541 -3.23929 0
M  V30 4205 H 404.918 -2.54255 -3.29636 0
M  V30 4206 H 405.451 -3.49902 -1.89244 0
M  V30 4207 H 402.19 -6.43103 -1.26878 0
M  V30 4208 H 401.71 -5.39096 -2.62937 0
M  V30 4209 H 403.389 -5.96982 -2.49442 0
M  V30 4210 N 403.521 0.559213 -1.47345 0
M  V30 4211 C 404.937 0.884943 -1.32819 0
M  V30 4212 C 405.137 1.98988 -0.317173 0
M  V30 4213 O 404.193 2.51031 0.272011 0
M  V30 4214 C 405.506 1.28007 -2.72093 0
M  V30 4215 C 407.054 1.39161 -2.80363 0
M  V30 4216 C 407.529 1.82031 -4.20272 0
M  V30 4217 N 409.02 1.89185 -4.22804 0
M  V30 4218 C 409.755 2.2368 -5.27973 0
M  V30 4219 N 409.251 2.56802 -6.43447 0
M  V30 4220 N 411.044 2.24436 -5.15349 0
M  V30 4221 H 403.195 -0.170304 -2.11716 0
M  V30 4222 H 405.458 -0.0135247 -0.947904 0
M  V30 4223 H 405.164 0.542027 -3.47498 0
M  V30 4224 H 405.038 2.23665 -3.03733 0
M  V30 4225 H 407.425 2.12048 -2.05231 0
M  V30 4226 H 407.506 0.41696 -2.52379 0
M  V30 4227 H 407.15 1.09715 -4.95908 0
M  V30 4228 H 407.08 2.80495 -4.45679 0
M  V30 4229 H 409.571 1.65982 -3.39497 0
M  V30 4230 H 409.884 2.82144 -7.19454 0
M  V30 4231 H 408.229 2.54387 -6.46771 0
M  V30 4232 H 411.42 1.97998 -4.24163 0
M  V30 4233 H 411.593 2.50989 -5.97418 0
M  V30 4234 N 404.999 1.35443 0.805782 0
M  V30 4235 C 406.41 1.25768 1.37983 0
M  V30 4236 C 406.761 -0.10958 1.95894 0
M  V30 4237 O 405.886 -1.01056 1.91355 0
M  V30 4238 C 406.481 2.27727 2.5085 0
M  V30 4239 C 405.04 2.2179 3.04115 0
M  V30 4240 C 404.187 2.13393 1.77084 0
M  V30 4241 H 407.138 1.4656 0.608752 0
M  V30 4242 H 407.159 1.90422 3.29424 0
M  V30 4243 H 406.671 3.27227 2.08671 0
M  V30 4244 H 404.772 1.25703 3.50756 0
M  V30 4245 H 404.885 3.13788 3.62042 0
M  V30 4246 H 403.249 1.59384 1.98668 0
M  V30 4247 H 404.032 3.14755 1.37056 0
M  V30 4248 N 406.477 -1.02803 1.19454 0
M  V30 4249 C 407.723 -1.76598 1.0092 0
M  V30 4250 C 408.078 -1.86939 -0.455142 0
M  V30 4251 O 407.371 -1.37575 -1.33355 0
M  V30 4252 C 407.565 -3.18941 1.6128 0
M  V30 4253 C 407.394 -3.22476 3.13431 0
M  V30 4254 C 406.164 -3.30375 3.82336 0
M  V30 4255 C 408.362 -3.09451 4.10785 0
M  V30 4256 N 406.344 -3.23292 5.21877 0
M  V30 4257 C 407.715 -3.10012 5.36929 0
M  V30 4258 C 409.77 -2.93585 4.02135 0
M  V30 4259 C 408.473 -2.96334 6.55423 0
M  V30 4260 C 410.499 -2.81256 5.20239 0
M  V30 4261 C 409.861 -2.82472 6.45282 0
M  V30 4262 H 405.96 -0.657447 0.423424 0
M  V30 4263 H 408.544 -1.22369 1.5144 0
M  V30 4264 H 406.715 -3.71489 1.1336 0
M  V30 4265 H 408.447 -3.81102 1.36173 0
M  V30 4266 H 405.202 -3.3663 3.33132 0
M  V30 4267 H 405.626 -3.23156 5.94894 0
M  V30 4268 H 410.268 -2.91466 3.0628 0
M  V30 4269 H 407.986 -2.97203 7.51463 0
M  V30 4270 H 411.572 -2.70014 5.15348 0
M  V30 4271 H 410.452 -2.73036 7.35133 0
M  V30 4272 N 407.956 -0.998596 -1.21925 0
M  V30 4273 C 409.196 -0.685948 -1.92546 0
M  V30 4274 C 409.56 0.768441 -1.75952 0
M  V30 4275 O 410.761 1.19277 -2.40887 0
M  V30 4276 C 409.032 -1.08767 -3.40448 0
M  V30 4277 S 410.591 -0.894251 -4.29591 0
M  V30 4278 H 407.409 -0.250622 -0.665364 0
M  V30 4279 H 410.011 -1.28207 -1.47591 0
M  V30 4280 H 408.715 -2.14242 -3.50041 0
M  V30 4281 H 408.246 -0.48357 -3.90417 0
M  V30 4282 H 410.261 0.212149 -4.95746 0
M  V30 4283 N 409.434 1.37368 -0.772513 0
M  V30 4284 C 410.681 1.99673 -0.337182 0
M  V30 4285 C 411.009 1.61324 1.0865 0
M  V30 4286 O 410.264 0.851377 1.7621 0
M  V30 4287 C 410.563 3.54817 -0.428876 0
M  V30 4288 C 410.229 4.12936 -1.81092 0
M  V30 4289 C 408.891 4.28523 -2.1891 0
M  V30 4290 C 411.243 4.44801 -2.71664 0
M  V30 4291 C 408.571 4.73277 -3.46735 0
M  V30 4292 C 410.923 4.90981 -3.98899 0
M  V30 4293 C 409.587 5.04773 -4.36761 0
M  V30 4294 H 408.857 0.730656 -0.123384 0
M  V30 4295 H 411.504 1.64124 -0.986686 0
M  V30 4296 H 409.809 3.90618 0.304167 0
M  V30 4297 H 411.506 4.00933 -0.0733334 0
M  V30 4298 H 408.096 4.01233 -1.50699 0
M  V30 4299 H 412.28 4.32344 -2.43706 0
M  V30 4300 H 407.536 4.82142 -3.75964 0
M  V30 4301 H 411.71 5.14603 -4.69208 0
M  V30 4302 H 409.337 5.39211 -5.35868 0
M  V30 4303 N 410.912 0.523116 1.48665 0
M  V30 4304 C 412.158 -0.0134963 2.02796 0
M  V30 4305 C 412.491 -1.34582 1.40004 0
M  V30 4306 O 411.766 -1.86756 0.543381 0
M  V30 4307 C 412.049 -0.14276 3.59817 0
M  V30 4308 C 411.902 1.21425 4.331 0
M  V30 4309 C 413.221 -0.872856 4.31357 0
M  V30 4310 H 410.34 -0.00343074 0.736992 0
M  V30 4311 H 412.982 0.678816 1.7746 0
M  V30 4312 H 411.132 -0.732401 3.81534 0
M  V30 4313 H 412.804 1.84447 4.2282 0
M  V30 4314 H 411.047 1.79791 3.94788 0
M  V30 4315 H 411.718 1.07687 5.41394 0
M  V30 4316 H 414.194 -0.372555 4.14429 0
M  V30 4317 H 413.07 -0.932185 5.40927 0
M  V30 4318 H 413.331 -1.92161 3.98154 0
M  V30 4319 N 412.39 -1.55475 0.257931 0
M  V30 4320 C 413.32 -2.24815 -0.630912 0
M  V30 4321 C 414.301 -1.23224 -1.17259 0
M  V30 4322 O 415.486 -1.51904 -1.20991 0
M  V30 4323 C 412.616 -2.95609 -1.82298 0
M  V30 4324 C 411.57 -4.03982 -1.41359 0
M  V30 4325 C 410.896 -4.6226 -2.68738 0
M  V30 4326 C 412.196 -5.19109 -0.57648 0
M  V30 4327 H 413.89 -2.99354 -0.0526878 0
M  V30 4328 H 411.436 -1.4398 -0.023901 0
M  V30 4329 H 413.389 -3.42822 -2.45054 0
M  V30 4330 H 412.113 -2.18577 -2.42676 0
M  V30 4331 H 410.772 -3.57555 -0.809324 0
M  V30 4332 H 410.42 -3.81915 -3.27338 0
M  V30 4333 H 410.12 -5.35424 -2.42065 0
M  V30 4334 H 411.644 -5.12212 -3.32372 0
M  V30 4335 H 413.058 -5.62479 -1.10861 0
M  V30 4336 H 411.455 -5.98729 -0.405351 0
M  V30 4337 H 412.525 -4.83174 0.408776 0
M  V30 4338 N 413.868 0.0150385 -1.57593 0
M  V30 4339 C 414.816 1.02958 -2.08572 0
M  V30 4340 C 415.81 1.36554 -1.00246 0
M  V30 4341 O 417.016 1.35295 -1.18724 0
M  V30 4342 H 413.391 0.349619 -0.665786 0
M  V30 4343 H 415.362 0.573932 -2.92829 0
M  V30 4344 C 414.111 2.31752 -2.59203 0
M  V30 4345 H 413.434 2.06765 -3.42182 0
M  V30 4346 H 414.874 3.01053 -2.98568 0
M  V30 4347 C 413.333 3.01692 -1.49945 0
M  V30 4348 O 413.863 3.92083 -0.873704 0
M  V30 4349 N 412.069 2.6326 -1.23056 0
M  V30 4350 H 411.616 1.89838 -1.74125 0
M  V30 4351 H 411.574 3.10372 -0.501685 0
M  V30 4352 N 415.346 1.54954 0.287554 0
M  V30 4353 C 416.762 1.46469 0.633964 0
M  V30 4354 C 416.962 0.666865 1.90145 0
M  V30 4355 O 416.018 0.179906 2.51858 0
M  V30 4356 C 417.331 2.90556 0.774454 0
M  V30 4357 C 418.879 3.00681 0.869462 0
M  V30 4358 C 419.354 4.45993 1.04184 0
M  V30 4359 N 420.845 4.4976 1.10772 0
M  V30 4360 C 421.58 5.59393 1.25964 0
M  V30 4361 N 421.076 6.78923 1.37968 0
M  V30 4362 N 422.869 5.47107 1.28959 0
M  V30 4363 H 415.02 2.05288 -0.545041 0
M  V30 4364 H 417.283 0.930305 -0.182308 0
M  V30 4365 H 416.989 3.51594 -0.086207 0
M  V30 4366 H 416.863 3.38743 1.6593 0
M  V30 4367 H 419.25 2.39749 1.7206 0
M  V30 4368 H 419.331 2.55769 -0.0396831 0
M  V30 4369 H 418.975 5.07524 0.195422 0
M  V30 4370 H 418.905 4.88548 1.96542 0
M  V30 4371 H 421.396 3.63651 1.02794 0
M  V30 4372 H 421.709 7.58231 1.49353 0
M  V30 4373 H 420.054 6.81763 1.34999 0
M  V30 4374 H 423.245 4.52668 1.19202 0
M  V30 4375 H 423.418 6.32595 1.40455 0
M  V30 4376 N 416.824 -0.551391 1.4764 0
M  V30 4377 C 418.101 -1.31229 1.45046 0
M  V30 4378 C 418.481 -2.10563 0.150527 0
M  V30 4379 O 417.829 -2.11374 -0.867956 0
M  V30 4380 C 418.039 -2.21189 2.69956 0
M  V30 4381 C 419.387 -2.82021 3.1741 0
M  V30 4382 O 420.411 -2.31488 2.70724 0
M  V30 4383 O 419.27 -3.73885 3.98588 0
M  V30 4384 H 416.364 -0.591193 0.578291 0
M  V30 4385 H 418.91 -0.569813 1.59847 0
M  V30 4386 H 417.682 -1.62207 3.56096 0
M  V30 4387 H 417.305 -3.02722 2.57769 0
M  V30 4388 N 418.302 -1.35869 -0.798587 0
M  V30 4389 C 419.718 -1.16082 -1.09532 0
M  V30 4390 C 419.918 0.0213124 -2.01489 0
M  V30 4391 O 418.974 0.689488 -2.42904 0
M  V30 4392 C 420.287 -2.46748 -1.7186 0
M  V30 4393 C 421.835 -2.53028 -1.84244 0
M  V30 4394 C 422.31 -3.83758 -2.49988 0
M  V30 4395 N 423.801 -3.85053 -2.57465 0
M  V30 4396 C 424.536 -4.8294 -3.09122 0
M  V30 4397 N 424.032 -5.91217 -3.61157 0
M  V30 4398 N 425.825 -4.70369 -3.0775 0
M  V30 4399 H 417.976 -2.11571 -0.187461 0
M  V30 4400 H 420.239 -0.936726 -0.145765 0
M  V30 4401 H 419.945 -3.33471 -1.11759 0
M  V30 4402 H 419.819 -2.61883 -2.71472 0
M  V30 4403 H 422.206 -1.66729 -2.43486 0
M  V30 4404 H 422.287 -2.418 -0.834643 0
M  V30 4405 H 421.931 -4.70459 -1.91393 0
M  V30 4406 H 421.861 -3.92278 -3.5132 0
M  V30 4407 H 424.352 -3.06822 -2.20609 0
M  V30 4408 H 424.665 -6.61892 -3.98896 0
M  V30 4409 H 423.01 -5.94899 -3.59333 0
M  V30 4410 H 426.201 -3.84914 -2.66381 0
M  V30 4411 H 426.374 -5.46816 -3.47701 0
M  V30 4412 N 419.78 1.02168 -1.19998 0
M  V30 4413 C 420.71 2.12488 -0.96804 0
M  V30 4414 C 421.691 1.69799 0.101185 0
M  V30 4415 O 422.876 1.94121 -0.0552993 0
M  V30 4416 C 420.006 3.43479 -0.513776 0
M  V30 4417 C 418.96 3.99884 -1.52566 0
M  V30 4418 C 418.286 5.26582 -0.928214 0
M  V30 4419 C 419.586 4.33861 -2.90795 0
M  V30 4420 H 421.28 2.32149 -1.89069 0
M  V30 4421 H 418.826 1.11564 -0.910468 0
M  V30 4422 H 420.779 4.20036 -0.338774 0
M  V30 4423 H 419.503 3.23561 0.444493 0
M  V30 4424 H 418.162 3.25429 -1.68794 0
M  V30 4425 H 417.81 5.02986 0.0378289 0
M  V30 4426 H 417.51 5.65284 -1.60397 0
M  V30 4427 H 419.034 6.05799 -0.764167 0
M  V30 4428 H 420.448 5.01327 -2.78109 0
M  V30 4429 H 418.845 4.83664 -3.55231 0
M  V30 4430 H 419.915 3.42848 -3.42904 0
M  V30 4431 N 421.258 1.00505 1.21394 0
M  V30 4432 C 422.483 0.706367 1.95001 0
M  V30 4433 C 422.908 -0.72463 1.73582 0
M  V30 4434 O 422.266 -1.49702 1.0227 0
M  V30 4435 C 422.314 1.03299 3.45487 0
M  V30 4436 O 421.418 0.138275 4.12168 0
M  V30 4437 H 420.759 0.263175 0.609619 0
M  V30 4438 H 423.289 1.34531 1.54151 0
M  V30 4439 H 423.299 0.979872 3.96059 0
M  V30 4440 H 421.974 2.07567 3.60401 0
M  V30 4441 H 420.551 0.247928 3.72075 0
M  V30 4442 N 422.737 -1.36956 0.779787 0
M  V30 4443 C 423.983 -2.00237 0.357324 0
M  V30 4444 C 424.338 -1.60787 -1.05666 0
M  V30 4445 O 423.631 -0.847836 -1.71821 0
M  V30 4446 C 423.825 -3.54585 0.447686 0
M  V30 4447 C 423.654 -4.09025 1.86891 0
M  V30 4448 C 422.424 -4.39612 2.49138 0
M  V30 4449 C 424.622 -4.29461 2.82963 0
M  V30 4450 N 422.604 -4.79816 3.82949 0
M  V30 4451 C 423.975 -4.72363 4.01588 0
M  V30 4452 C 426.03 -4.1161 2.80145 0
M  V30 4453 C 424.733 -4.99284 5.17791 0
M  V30 4454 C 426.759 -4.39672 3.95528 0
M  V30 4455 C 426.121 -4.82822 5.12896 0
M  V30 4456 H 422.22 -0.76148 0.177968 0
M  V30 4457 H 424.804 -1.6613 1.01533 0
M  V30 4458 H 422.975 -3.87982 -0.180184 0
M  V30 4459 H 424.707 -4.047 0.0023955 0
M  V30 4460 H 421.462 -4.28975 2.00693 0
M  V30 4461 H 421.886 -5.04216 4.51769 0
M  V30 4462 H 426.528 -3.77415 1.90572 0
M  V30 4463 H 424.246 -5.32365 6.07958 0
M  V30 4464 H 427.832 -4.27441 3.94697 0
M  V30 4465 H 426.712 -5.04118 6.00695 0
M  V30 4466 N 424.215 -0.530993 -1.48385 0
M  V30 4467 C 425.125 0.23503 -2.3342 0
M  V30 4468 C 426.141 0.93801 -1.46552 0
M  V30 4469 O 427.317 0.912745 -1.7953 0
M  V30 4470 C 424.382 1.26778 -3.22689 0
M  V30 4471 C 423.443 0.575038 -4.25431 0
M  V30 4472 C 422.676 1.55858 -5.10435 0
M  V30 4473 O 422.899 2.79129 -4.97437 0
M  V30 4474 O 421.833 1.09742 -5.91811 0
M  V30 4475 H 425.659 -0.461794 -3.00169 0
M  V30 4476 H 423.244 -0.291903 -1.46521 0
M  V30 4477 H 425.126 1.86457 -3.77904 0
M  V30 4478 H 423.801 1.94699 -2.586 0
M  V30 4479 H 422.708 -0.0622782 -3.74048 0
M  V30 4480 H 424.041 -0.062253 -4.92161 0
M  V30 4481 N 425.693 1.55336 -0.266172 0
M  V30 4482 C 426.923 2.03506 0.356239 0
M  V30 4483 C 427.331 1.14426 1.50676 0
M  V30 4484 O 426.674 0.155043 1.83045 0
M  V30 4485 C 426.736 3.47848 0.90785 0
M  V30 4486 C 426.4 4.56861 -0.112888 0
M  V30 4487 C 427.397 5.11528 -0.929264 0
M  V30 4488 C 425.082 5.01704 -0.244546 0
M  V30 4489 C 427.076 6.09549 -1.86357 0
M  V30 4490 C 424.763 5.99553 -1.18234 0
M  V30 4491 C 425.761 6.53356 -1.99036 0
M  V30 4492 O 425.449 7.49293 -2.91231 0
M  V30 4493 H 425.181 0.670444 0.08649 0
M  V30 4494 H 427.735 2.01598 -0.39337 0
M  V30 4495 H 425.965 3.46967 1.70737 0
M  V30 4496 H 427.654 3.79407 1.44239 0
M  V30 4497 H 428.42 4.77701 -0.838237 0
M  V30 4498 H 424.299 4.59477 0.374359 0
M  V30 4499 H 427.843 6.51469 -2.49467 0
M  V30 4500 H 423.74 6.32799 -1.27421 0
M  V30 4501 H 424.508 7.66978 -2.8581 0
M  V30 4502 N 427.171 -0.0066808 1.57599 0
M  V30 4503 C 428.411 -0.697501 1.92131 0
M  V30 4504 C 428.775 -1.71306 0.867071 0
M  V30 4505 O 429.976 -2.45377 1.09743 0
M  V30 4506 C 428.247 -1.32978 3.3174 0
M  V30 4507 S 429.806 -2.04665 3.88146 0
M  V30 4508 H 426.624 -0.230555 0.672581 0
M  V30 4509 H 429.226 0.0484026 1.9544 0
M  V30 4510 H 427.93 -0.57772 4.06313 0
M  V30 4511 H 427.461 -2.11376 3.31789 0
M  V30 4512 H 429.476 -3.32097 3.68682 0
M  V30 4513 N 428.649 -1.55105 -0.279332 0
M  V30 4514 C 429.926 -1.66119 -1.03267 0
M  V30 4515 C 430.306 -0.523525 -2.04505 0
M  V30 4516 O 429.654 0.477194 -2.23462 0
M  V30 4517 C 429.864 -3.05067 -1.69515 0
M  V30 4518 C 431.212 -3.62606 -2.20912 0
M  V30 4519 O 432.236 -3.07659 -1.79512 0
M  V30 4520 O 431.095 -4.58861 -2.96831 0
M  V30 4521 H 428.189 -0.674429 -0.478618 0
M  V30 4522 H 430.735 -1.67446 -0.275694 0
M  V30 4523 H 429.507 -3.79311 -0.9612 0
M  V30 4524 H 429.13 -3.07611 -2.51915 0
M  V30 4525 N 430.127 0.543554 -1.4793 0
M  V30 4526 C 431.057 1.65888 -1.64327 0
M  V30 4527 C 432.038 1.62818 -0.492383 0
M  V30 4528 O 433.223 1.80226 -0.723338 0
M  V30 4529 C 430.353 3.04506 -1.67013 0
M  V30 4530 C 429.307 3.2243 -2.81466 0
M  V30 4531 C 428.633 4.61972 -2.69233 0
M  V30 4532 C 429.933 3.06496 -4.22915 0
M  V30 4533 H 431.627 1.52421 -2.57698 0
M  V30 4534 H 429.173 0.731849 -1.24016 0
M  V30 4535 H 431.126 3.82391 -1.77074 0
M  V30 4536 H 429.85 3.18964 -0.70212 0
M  V30 4537 H 428.509 2.46957 -2.70938 0
M  V30 4538 H 428.157 4.73247 -1.7043 0
M  V30 4539 H 427.857 4.74911 -3.46025 0
M  V30 4540 H 429.381 5.41974 -2.81242 0
M  V30 4541 H 430.795 3.74186 -4.34348 0
M  V30 4542 H 429.192 3.30938 -5.006 0
M  V30 4543 H 430.262 2.03077 -4.40327 0
M  V30 4544 N 431.605 1.3629 0.791371 0
M  V30 4545 C 432.568 1.30309 1.88553 0
M  V30 4546 C 433.568 0.211204 1.59407 0
M  V30 4547 O 434.758 0.465865 1.67855 0
M  V30 4548 C 431.89 1.01956 3.25297 0
M  V30 4549 H 433.083 2.27614 1.95273 0
M  V30 4550 H 430.636 1.21035 0.988953 0
M  V30 4551 H 431.371 0.050998 3.2426 0
M  V30 4552 H 431.156 1.80968 3.4784 0
M  V30 4553 H 432.646 1.0037 4.05359 0
M  V30 4554 N 433.083 -1.0153 1.20538 0
M  V30 4555 C 434.015 -2.10224 0.913155 0
M  V30 4556 C 435.028 -1.62495 -0.0995998 0
M  V30 4557 O 436.217 -1.78014 0.131582 0
M  V30 4558 C 433.317 -3.37111 0.347717 0
M  V30 4559 C 432.49 -4.13971 1.41233 0
M  V30 4560 C 431.549 -5.19158 0.857976 0
M  V30 4561 O 430.575 -5.48 1.53897 0
M  V30 4562 N 431.777 -5.7955 -0.331966 0
M  V30 4563 H 434.542 -2.35879 1.84881 0
M  V30 4564 H 432.103 -1.17931 1.10923 0
M  V30 4565 H 434.095 -4.04683 -0.0373026 0
M  V30 4566 H 432.665 -3.08696 -0.492527 0
M  V30 4567 H 431.885 -3.41351 1.97163 0
M  V30 4568 H 433.173 -4.62103 2.12928 0
M  V30 4569 H 432.571 -5.58455 -0.902478 0
M  V30 4570 H 431.128 -6.48464 -0.65861 0
M  V30 4571 N 434.561 -1.01147 -1.20859 0
M  V30 4572 C 435.801 -0.706331 -1.91808 0
M  V30 4573 C 436.165 0.749736 -1.76757 0
M  V30 4574 O 437.366 1.16716 -2.42138 0
M  V30 4575 C 435.637 -1.12371 -3.39275 0
M  V30 4576 S 437.196 -0.939764 -4.28619 0
M  V30 4577 H 434.014 -0.257665 -0.662669 0
M  V30 4578 H 436.616 -1.29766 -1.46223 0
M  V30 4579 H 435.32 -2.17943 -3.47749 0
M  V30 4580 H 434.851 -0.524952 -3.89882 0
M  V30 4581 H 436.866 0.159556 -4.95943 0
M  V30 4582 N 436.039 1.36541 -0.78704 0
M  V30 4583 C 436.971 2.28761 -0.141773 0
M  V30 4584 C 437.984 1.49365 0.647599 0
M  V30 4585 O 439.173 1.71836 0.483173 0
M  V30 4586 C 436.273 3.28771 0.822368 0
M  V30 4587 C 435.446 4.3732 0.0835594 0
M  V30 4588 C 434.505 5.17307 0.963296 0
M  V30 4589 O 433.531 5.67638 0.421419 0
M  V30 4590 N 434.733 5.33515 2.28784 0
M  V30 4591 H 437.498 2.84777 -0.933919 0
M  V30 4592 H 435.059 1.48682 -0.640735 0
M  V30 4593 H 437.051 3.79169 1.41468 0
M  V30 4594 H 435.621 2.73412 1.5154 0
M  V30 4595 H 434.841 3.88118 -0.689809 0
M  V30 4596 H 436.129 5.0701 -0.426358 0
M  V30 4597 H 435.527 4.94234 2.75226 0
M  V30 4598 H 434.084 5.87165 2.82985 0
M  V30 4599 N 437.518 0.538854 1.48102 0
M  V30 4600 C 438.746 0.0123136 2.06896 0
M  V30 4601 C 439.161 -1.27312 1.39417 0
M  V30 4602 O 438.518 -1.75949 0.484582 0
M  V30 4603 C 438.569 -0.206118 3.60912 0
M  V30 4604 O 438.29 1.0284 4.25859 0
M  V30 4605 C 439.791 -0.772033 4.36526 0
M  V30 4606 H 437.011 0.0375239 0.66995 0
M  V30 4607 H 439.555 0.747032 1.90367 0
M  V30 4608 H 437.71 -0.89091 3.77017 0
M  V30 4609 H 438.124 0.814654 5.18135 0
M  V30 4610 H 439.598 -0.874251 5.45033 0
M  V30 4611 H 440.075 -1.77904 4.01555 0
M  V30 4612 H 440.681 -0.123526 4.25121 0
M  V30 4613 N 438.996 -1.55193 0.274407 0
M  V30 4614 C 440.407 -1.85358 -0.223488 0
M  V30 4615 C 440.758 -1.19642 -1.555 0
M  V30 4616 O 439.883 -0.484498 -2.10907 0
M  V30 4617 C 440.478 -3.36282 -0.412285 0
M  V30 4618 C 439.037 -3.66574 -0.854413 0
M  V30 4619 C 438.184 -2.7725 0.0527056 0
M  V30 4620 H 441.135 -1.50743 0.496215 0
M  V30 4621 H 441.156 -3.59349 -1.25094 0
M  V30 4622 H 440.668 -3.84083 0.556965 0
M  V30 4623 H 438.769 -3.24273 -1.83516 0
M  V30 4624 H 438.882 -4.74073 -0.692226 0
M  V30 4625 H 437.246 -2.50447 -0.463484 0
M  V30 4626 H 438.029 -3.27865 1.01783 0
M  V30 4627 N 440.474 -0.00167713 -1.576 0
M  V30 4628 C 441.702 0.693759 -1.94922 0
M  V30 4629 C 442.117 1.67215 -0.876626 0
M  V30 4630 O 441.474 1.81929 0.144279 0
M  V30 4631 C 441.525 1.42416 -3.32265 0
M  V30 4632 O 441.246 0.485014 -4.35407 0
M  V30 4633 C 442.747 2.21395 -3.84056 0
M  V30 4634 H 439.967 0.193118 -0.642609 0
M  V30 4635 H 442.511 -0.0532952 -2.04431 0
M  V30 4636 H 440.666 2.12284 -3.24059 0
M  V30 4637 H 441.08 1.00053 -5.14868 0
M  V30 4638 H 442.554 2.67996 -4.82578 0
M  V30 4639 H 443.031 3.04142 -3.16851 0
M  V30 4640 H 443.637 1.56542 -3.95443 0
M  V30 4641 N 441.952 1.55251 0.271103 0
M  V30 4642 C 442.884 1.84675 1.35749 0
M  V30 4643 C 443.897 0.731366 1.45447 0
M  V30 4644 O 445.086 1.00924 1.4723 0
M  V30 4645 C 442.186 1.99638 2.73857 0
M  V30 4646 C 441.359 3.30312 2.86727 0
M  V30 4647 C 440.418 3.35318 4.05522 0
M  V30 4648 O 439.444 4.08682 3.96191 0
M  V30 4649 N 440.646 2.62857 5.17577 0
M  V30 4650 H 443.411 2.78445 1.10853 0
M  V30 4651 H 440.972 1.55191 0.461218 0
M  V30 4652 H 442.964 2.00355 3.51625 0
M  V30 4653 H 441.534 1.12725 2.91568 0
M  V30 4654 H 440.754 3.42118 1.95829 0
M  V30 4655 H 442.042 4.16488 2.92258 0
M  V30 4656 H 441.44 2.02939 5.28046 0
M  V30 4657 H 439.997 2.69295 5.93568 0
M  V30 4658 N 443.43 -0.535701 1.48216 0
M  V30 4659 C 444.393 -1.623 1.61838 0
M  V30 4660 C 445.393 -1.53087 0.492024 0
M  V30 4661 O 446.583 -1.5686 0.757668 0
M  V30 4662 C 443.715 -3.01907 1.58319 0
M  V30 4663 H 444.908 -1.51564 2.58783 0
M  V30 4664 H 442.461 -0.757317 1.36727 0
M  V30 4665 H 443.196 -3.18155 0.628299 0
M  V30 4666 H 442.981 -3.10003 2.40085 0
M  V30 4667 H 444.471 -3.80969 1.71033 0
M  V30 4668 N 444.908 -1.36708 -0.784132 0
M  V30 4669 C 445.871 -1.31307 -1.87859 0
M  V30 4670 C 446.871 -0.219654 -1.59293 0
M  V30 4671 O 448.061 -0.47476 -1.67606 0
M  V30 4672 C 445.193 -1.03679 -3.24751 0
M  V30 4673 H 446.386 -2.28647 -1.94064 0
M  V30 4674 H 443.939 -1.21558 -0.98252 0
M  V30 4675 H 444.674 -0.0681936 -3.24228 0
M  V30 4676 H 444.459 -1.82811 -3.46876 0
M  V30 4677 H 445.949 -1.02518 -4.04821 0
M  V30 4678 N 446.386 1.0089 -1.21074 0
M  V30 4679 C 447.797 1.56056 -1.02486 0
M  V30 4680 C 448.148 1.91728 0.416506 0
M  V30 4681 O 447.273 1.73066 1.29912 0
M  V30 4682 C 447.868 2.83563 -1.85411 0
M  V30 4683 C 446.427 3.3523 -1.71166 0
M  V30 4684 C 445.574 2.0846 -1.82865 0
M  V30 4685 H 448.525 0.831818 -1.35154 0
M  V30 4686 H 448.546 3.55286 -1.36205 0
M  V30 4687 H 448.058 2.57569 -2.9031 0
M  V30 4688 H 446.159 3.66167 -0.689361 0
M  V30 4689 H 446.272 4.06913 -2.52901 0
M  V30 4690 H 444.636 2.21275 -1.26132 0
M  V30 4691 H 445.419 1.84883 -2.89263 0
M  V30 4692 N 447.864 1.01787 1.20321 0
M  V30 4693 C 449.275 0.739307 1.71438 0
M  V30 4694 C 449.626 -0.742041 1.81627 0
M  V30 4695 O 448.751 -1.57903 1.47971 0
M  V30 4696 C 449.346 1.33538 3.11373 0
M  V30 4697 C 447.905 1.10566 3.59795 0
M  V30 4698 C 447.052 1.44028 2.36962 0
M  V30 4699 H 450.003 1.18718 1.05317 0
M  V30 4700 H 450.024 0.726611 3.73498 0
M  V30 4701 H 449.536 2.41352 3.03926 0
M  V30 4702 H 447.637 0.0452405 3.72573 0
M  V30 4703 H 447.75 1.78661 4.44542 0
M  V30 4704 H 446.114 0.85933 2.39766 0
M  V30 4705 H 446.897 2.52901 2.32155 0
M  V30 4706 N 449.342 -1.36122 0.79427 0
M  V30 4707 C 450.57 -2.03362 0.380989 0
M  V30 4708 C 450.985 -1.59881 -1.00416 0
M  V30 4709 O 450.342 -0.790515 -1.6449 0
M  V30 4710 C 450.393 -3.58804 0.440649 0
M  V30 4711 O 450.114 -4.007 1.77118 0
M  V30 4712 C 451.615 -4.43296 0.0186117 0
M  V30 4713 H 448.835 -0.652526 0.156367 0
M  V30 4714 H 451.379 -1.73998 1.07447 0
M  V30 4715 H 449.534 -3.8686 -0.204458 0
M  V30 4716 H 449.948 -4.95309 1.72538 0
M  V30 4717 H 451.422 -5.51887 0.111488 0
M  V30 4718 H 451.899 -4.2684 -1.03461 0
M  V30 4719 H 452.505 -4.20512 0.636395 0
M  V30 4720 N 450.82 -0.546701 -1.47814 0
M  V30 4721 C 452.231 -0.110564 -1.86372 0
M  V30 4722 C 452.582 1.31678 -1.45449 0
M  V30 4723 O 451.707 1.98889 -0.852758 0
M  V30 4724 C 452.302 -0.193873 -3.38245 0
M  V30 4725 C 450.861 0.187164 -3.75934 0
M  V30 4726 C 450.008 -0.546166 -2.71868 0
M  V30 4727 H 452.959 -0.757022 -1.39481 0
M  V30 4728 H 452.98 0.590218 -3.75895 0
M  V30 4729 H 452.492 -1.23282 -3.67999 0
M  V30 4730 H 450.593 1.22762 -3.51796 0
M  V30 4731 H 450.706 -0.164083 -4.78819 0
M  V30 4732 H 449.07 0.00953904 -2.54698 0
M  V30 4733 H 449.853 -1.58606 -3.04465 0
M  V30 4734 N 452.299 1.55045 -0.282633 0
M  V30 4735 C 453.545 2.00056 0.332481 0
M  V30 4736 C 453.878 1.1708 1.54939 0
M  V30 4737 O 453.153 0.2427 1.9298 0
M  V30 4738 C 453.436 3.53086 0.70725 0
M  V30 4739 C 453.289 4.46813 -0.517521 0
M  V30 4740 C 454.608 4.12245 1.54084 0
M  V30 4741 H 451.727 0.727268 0.119373 0
M  V30 4742 H 454.369 1.85932 -0.391076 0
M  V30 4743 H 452.519 3.65253 1.32372 0
M  V30 4744 H 454.191 4.46579 -1.15607 0
M  V30 4745 H 452.434 4.18163 -1.1542 0
M  V30 4746 H 453.105 5.51595 -0.211426 0
M  V30 4747 H 455.581 4.03401 1.02013 0
M  V30 4748 H 454.457 5.19515 1.77186 0
M  V30 4749 H 454.718 3.62951 2.52427 0
M  V30 4750 N 453.777 0.010035 1.57597 0
M  V30 4751 C 455.002 -0.687021 1.95691 0
M  V30 4752 C 455.427 -1.65952 0.885519 0
M  V30 4753 O 454.785 -1.80633 -0.15543 0
M  V30 4754 C 454.833 -1.3864 3.32884 0
M  V30 4755 O 453.937 -2.50115 3.27897 0
M  V30 4756 H 453.278 -0.181989 0.638573 0
M  V30 4757 H 455.808 0.0662122 2.04493 0
M  V30 4758 H 455.818 -1.74754 3.6868 0
M  V30 4759 H 454.493 -0.673411 4.10412 0
M  V30 4760 H 453.07 -2.16253 3.03791 0
M  V30 4761 N 455.255 -1.55392 -0.262866 0
M  V30 4762 C 456.666 -1.67079 -0.833158 0
M  V30 4763 C 457.017 -0.604539 -1.86654 0
M  V30 4764 O 456.142 0.252138 -2.14926 0
M  V30 4765 C 456.737 -3.02891 -1.51797 0
M  V30 4766 C 455.296 -3.16571 -2.03617 0
M  V30 4767 C 454.443 -2.62909 -0.881701 0
M  V30 4768 H 457.394 -1.58652 -0.0389986 0
M  V30 4769 H 457.415 -2.96445 -2.38538 0
M  V30 4770 H 456.927 -3.80473 -0.765619 0
M  V30 4771 H 455.028 -2.43782 -2.81782 0
M  V30 4772 H 455.141 -4.23271 -2.24452 0
M  V30 4773 H 453.505 -2.20324 -1.27786 0
M  V30 4774 H 454.288 -3.43003 -0.14269 0
M  V30 4775 N 456.733 0.527833 -1.48498 0
M  V30 4776 C 458.149 0.856571 -1.34666 0
M  V30 4777 C 458.349 1.98271 -0.35931 0
M  V30 4778 O 457.405 2.51551 0.218703 0
M  V30 4779 C 458.718 1.22207 -2.74747 0
M  V30 4780 C 460.266 1.33183 -2.83251 0
M  V30 4781 C 460.741 1.73075 -4.24039 0
M  V30 4782 N 462.232 1.80174 -4.26722 0
M  V30 4783 C 462.967 2.1243 -5.32598 0
M  V30 4784 N 462.463 2.43096 -6.4875 0
M  V30 4785 N 464.256 2.13454 -5.19994 0
M  V30 4786 H 456.407 -0.215174 -2.11307 0
M  V30 4787 H 458.67 -0.0336281 -0.947403 0
M  V30 4788 H 458.376 0.468195 -3.4857 0
M  V30 4789 H 458.25 2.17173 -3.08409 0
M  V30 4790 H 460.637 2.07647 -2.09683 0
M  V30 4791 H 460.718 0.363333 -2.53206 0
M  V30 4792 H 460.362 0.991712 -4.98124 0
M  V30 4793 H 460.292 2.70979 -4.51529 0
M  V30 4794 H 462.783 1.58744 -3.42942 0
M  V30 4795 H 463.096 2.6682 -7.25277 0
M  V30 4796 H 461.441 2.40611 -6.52021 0
M  V30 4797 H 464.632 1.88956 -4.28268 0
M  V30 4798 H 464.805 2.38261 -6.02608 0
M  V30 4799 N 458.211 1.37122 0.776871 0
M  V30 4800 C 459.141 1.35164 1.90402 0
M  V30 4801 C 460.122 0.221069 1.68657 0
M  V30 4802 O 461.307 0.420642 1.8959 0
M  V30 4803 C 458.437 1.15274 3.27611 0
M  V30 4804 C 457.391 2.25289 3.63908 0
M  V30 4805 C 456.717 1.90527 4.99603 0
M  V30 4806 C 458.017 3.67446 3.71188 0
M  V30 4807 H 459.711 2.29482 1.92297 0
M  V30 4808 H 457.257 1.10465 0.923773 0
M  V30 4809 H 459.21 1.12536 4.06096 0
M  V30 4810 H 457.934 0.174102 3.26136 0
M  V30 4811 H 456.593 2.27174 2.87728 0
M  V30 4812 H 456.241 0.91206 4.94662 0
M  V30 4813 H 455.941 2.64193 5.24858 0
M  V30 4814 H 457.465 1.89367 5.80493 0
M  V30 4815 H 458.879 3.67719 4.39836 0
M  V30 4816 H 457.276 4.40123 4.07936 0
M  V30 4817 H 458.346 4.01443 2.71977 0
M  V30 4818 N 459.689 -1.00246 1.21608 0
M  V30 4819 C 460.639 -2.07492 0.945051 0
M  V30 4820 C 461.623 -1.60585 -0.100675 0
M  V30 4821 O 462.815 -1.76667 0.10859 0
M  V30 4822 C 459.944 -3.39425 0.514342 0
M  V30 4823 C 459.03 -3.92993 1.59428 0
M  V30 4824 N 459.421 -4.19898 2.81991 0
M  V30 4825 C 457.719 -4.21297 1.46374 0
M  V30 4826 C 458.42 -4.63297 3.51754 0
M  V30 4827 N 457.396 -4.66421 2.79199 0
M  V30 4828 H 461.198 -2.26222 1.87619 0
M  V30 4829 H 458.712 -1.18339 1.11219 0
M  V30 4830 H 460.709 -4.15808 0.301527 0
M  V30 4831 H 459.369 -3.22101 -0.410008 0
M  V30 4832 H 460.38 -4.08377 3.1851 0
M  V30 4833 H 457.057 -4.13095 0.604863 0
M  V30 4834 H 458.447 -4.92816 4.56708 0
M  V30 4835 N 461.167 -1.02423 -1.1978 0
M  V30 4836 C 462.413 -0.719051 -1.89625 0
M  V30 4837 C 462.746 0.750083 -1.7913 0
M  V30 4838 O 462.021 1.54574 -1.18056 0
M  V30 4839 C 462.304 -1.16499 -3.40735 0
M  V30 4840 C 462.157 -2.695 -3.60125 0
M  V30 4841 C 463.476 -0.742166 -4.33797 0
M  V30 4842 H 460.595 -0.26269 -0.688595 0
M  V30 4843 H 463.237 -1.27333 -1.41018 0
M  V30 4844 H 461.387 -0.69341 -3.82262 0
M  V30 4845 H 463.059 -3.24569 -3.278 0
M  V30 4846 H 461.302 -3.10113 -3.03336 0
M  V30 4847 H 461.973 -2.95757 -4.66081 0
M  V30 4848 H 464.449 -1.1477 -3.99959 0
M  V30 4849 H 463.325 -1.08213 -5.38127 0
M  V30 4850 H 463.586 0.355747 -4.40666 0
M  V30 4851 N 462.645 1.35699 -0.801477 0
M  V30 4852 C 464.056 1.81415 -0.441073 0
M  V30 4853 C 464.407 1.66595 1.03636 0
M  V30 4854 O 463.532 1.19369 1.80499 0
M  V30 4855 C 464.127 3.29369 -0.793819 0
M  V30 4856 C 462.686 3.73248 -0.486083 0
M  V30 4857 C 461.833 2.57775 -1.02213 0
M  V30 4858 H 464.784 1.23749 -0.993572 0
M  V30 4859 H 464.805 3.80395 -0.0894158 0
M  V30 4860 H 464.317 3.40123 -1.86917 0
M  V30 4861 H 462.418 3.68046 0.580735 0
M  V30 4862 H 462.531 4.68222 -1.01513 0
M  V30 4863 H 460.895 2.50788 -0.444712 0
M  V30 4864 H 461.678 2.71309 -2.10348 0
M  V30 4865 N 464.123 0.554532 1.47522 0
M  V30 4866 C 465.053 -0.182974 2.32782 0
M  V30 4867 C 466.034 -0.911377 1.43624 0
M  V30 4868 O 467.219 -0.892366 1.72483 0
M  V30 4869 C 464.349 -1.21513 3.25349 0
M  V30 4870 C 463.303 -0.603355 4.23726 0
M  V30 4871 C 462.629 -1.73995 5.05598 0
M  V30 4872 C 463.929 0.441121 5.20434 0
M  V30 4873 H 465.623 0.52882 2.94693 0
M  V30 4874 H 463.169 0.255759 1.41711 0
M  V30 4875 H 465.122 -1.73922 3.83835 0
M  V30 4876 H 463.846 -1.95683 2.61487 0
M  V30 4877 H 462.505 -0.10059 3.66462 0
M  V30 4878 H 462.153 -2.47063 4.38143 0
M  V30 4879 H 461.853 -1.3364 5.72201 0
M  V30 4880 H 463.377 -2.26735 5.66942 0
M  V30 4881 H 464.791 0.00319931 5.733 0
M  V30 4882 H 463.188 0.763402 5.95224 0
M  V30 4883 H 464.258 1.33799 4.66075 0
M  V30 4884 N 465.601 -1.54893 0.290851 0
M  V30 4885 C 466.534 -2.19289 -0.631489 0
M  V30 4886 C 467.512 -1.15893 -1.14051 0
M  V30 4887 O 468.696 -1.4449 -1.21058 0
M  V30 4888 C 465.823 -2.82866 -1.86291 0
M  V30 4889 C 464.869 -3.997 -1.48801 0
M  V30 4890 S 465.702 -5.32641 -0.552644 0
M  V30 4891 C 466.858 -5.99696 -1.79209 0
M  V30 4892 H 467.091 -2.9718 -0.0843791 0
M  V30 4893 H 464.624 -1.54218 0.075031 0
M  V30 4894 H 466.582 -3.20124 -2.56964 0
M  V30 4895 H 465.243 -2.04839 -2.38117 0
M  V30 4896 H 464.436 -4.42932 -2.40473 0
M  V30 4897 H 464.038 -3.63947 -0.861321 0
M  V30 4898 H 466.33 -6.19886 -2.734 0
M  V30 4899 H 467.273 -6.94071 -1.40251 0
M  V30 4900 H 467.681 -5.29226 -1.96419 0
M  V30 4901 N 467.08 -0.0183926 -1.57589 0
M  V30 4902 C 468.491 0.521927 -1.79256 0
M  V30 4903 C 468.842 1.72885 -0.927636 0
M  V30 4904 O 467.967 2.15978 -0.135091 0
M  V30 4905 C 468.562 0.953632 -3.25102 0
M  V30 4906 C 467.121 1.43913 -3.47801 0
M  V30 4907 C 466.268 0.398837 -2.74417 0
M  V30 4908 H 469.219 -0.244485 -1.56805 0
M  V30 4909 H 469.24 1.81863 -3.34224 0
M  V30 4910 H 468.752 0.0750123 -3.88028 0
M  V30 4911 H 466.853 2.33804 -2.90115 0
M  V30 4912 H 466.966 1.45391 -4.56507 0
M  V30 4913 H 465.33 0.864572 -2.39577 0
M  V30 4914 H 466.113 -0.471132 -3.40052 0
M  V30 4915 N 468.558 1.5553 0.254621 0
M  V30 4916 C 469.521 1.88872 1.29846 0
M  V30 4917 C 470.521 0.764591 1.41459 0
M  V30 4918 O 471.711 1.03265 1.40293 0
M  V30 4919 C 468.843 2.11032 2.67728 0
M  V30 4920 H 470.036 2.82201 1.01502 0
M  V30 4921 H 467.589 1.48303 0.493556 0
M  V30 4922 H 468.324 1.20146 3.01223 0
M  V30 4923 H 468.109 2.92895 2.60682 0
M  V30 4924 H 469.599 2.38038 3.43115 0
M  V30 4925 N 470.036 -0.519951 1.48776 0
M  V30 4926 C 470.968 -1.63973 1.60142 0
M  V30 4927 C 471.981 -1.55404 0.485117 0
M  V30 4928 O 473.17 -1.61682 0.756391 0
M  V30 4929 C 470.27 -3.02676 1.52449 0
M  V30 4930 C 469.443 -3.36624 2.79291 0
M  V30 4931 C 468.502 -4.54652 2.64912 0
M  V30 4932 O 467.528 -4.57374 3.38818 0
M  V30 4933 N 468.73 -5.53432 1.75195 0
M  V30 4934 H 471.495 -1.54656 2.56713 0
M  V30 4935 H 469.056 -0.707439 1.45626 0
M  V30 4936 H 471.048 -3.79525 1.4051 0
M  V30 4937 H 469.618 -3.06018 0.638125 0
M  V30 4938 H 468.838 -2.48855 3.0572 0
M  V30 4939 H 470.126 -3.56094 3.6342 0
M  V30 4940 H 469.524 -5.54018 1.14371 0
M  V30 4941 H 468.081 -6.29459 1.69189 0
M  V30 4942 N 471.514 -1.37532 -0.769588 0
M  V30 4943 C 472.925 -1.29382 -1.346 0
M  V30 4944 C 473.276 0.0576039 -1.96115 0
M  V30 4945 O 472.401 0.95947 -1.93967 0
M  V30 4946 C 472.996 -2.34298 -2.44724 0
M  V30 4947 C 471.555 -2.29776 -2.98128 0
M  V30 4948 C 470.702 -2.18013 -1.71364 0
M  V30 4949 H 473.653 -1.48123 -0.56968 0
M  V30 4950 H 473.674 -1.99089 -3.24259 0
M  V30 4951 H 473.186 -3.32645 -1.99922 0
M  V30 4952 H 471.287 -1.34959 -3.47299 0
M  V30 4953 H 471.4 -3.23276 -3.53595 0
M  V30 4954 H 469.764 -1.64595 -1.94372 0
M  V30 4955 H 470.547 -3.18278 -1.28662 0
M  V30 4956 N 472.992 0.995999 -1.22138 0
M  V30 4957 C 473.955 2.06711 -0.990109 0
M  V30 4958 C 474.955 1.60744 0.0422978 0
M  V30 4959 O 476.145 1.73095 -0.195895 0
M  V30 4960 C 473.277 3.37288 -0.49491 0
M  V30 4961 H 474.47 2.28661 -1.94047 0
M  V30 4962 H 472.023 1.16711 -1.03963 0
M  V30 4963 H 472.758 3.21022 0.459948 0
M  V30 4964 H 472.543 3.71986 -1.23971 0
M  V30 4965 H 474.033 4.16103 -0.353253 0
M  V30 4966 N 474.47 1.03057 1.19235 0
M  V30 4967 C 475.881 0.757449 1.70645 0
M  V30 4968 C 476.232 -0.722735 1.82403 0
M  V30 4969 O 475.357 -1.56325 1.49638 0
M  V30 4970 C 475.952 1.36833 3.09939 0
M  V30 4971 C 474.511 1.14375 3.58602 0
M  V30 4972 C 473.658 1.46533 2.35422 0
M  V30 4973 H 476.609 1.19828 1.04052 0
M  V30 4974 H 476.63 0.766184 3.72706 0
M  V30 4975 H 476.142 2.44562 3.01349 0
M  V30 4976 H 474.243 0.0847542 3.72504 0
M  V30 4977 H 474.356 1.83366 4.42622 0
M  V30 4978 H 472.72 0.884712 2.38841 0
M  V30 4979 H 473.503 2.55349 2.2946 0
M  V30 4980 N 475.948 -1.35272 0.808662 0
M  V30 4981 C 477.359 -1.81179 0.450688 0
M  V30 4982 C 477.71 -1.67143 -1.02751 0
M  V30 4983 O 476.835 -1.20325 -1.79864 0
M  V30 4984 C 477.43 -3.28943 0.811275 0
M  V30 4985 C 475.989 -3.72985 0.505871 0
M  V30 4986 C 475.136 -2.57229 1.03578 0
M  V30 4987 H 478.087 -1.2322 1.00012 0
M  V30 4988 H 478.108 -3.80342 0.109588 0
M  V30 4989 H 477.62 -3.39127 1.88718 0
M  V30 4990 H 475.721 -3.68349 -0.561209 0
M  V30 4991 H 475.834 -4.67677 1.03995 0
M  V30 4992 H 474.198 -2.50548 0.458005 0
M  V30 4993 H 474.981 -2.7019 2.11784 0
M  V30 4994 N 477.426 -0.562348 -1.47226 0
M  V30 4995 C 478.373 0.182461 -2.30078 0
M  V30 4996 C 479.343 0.903503 -1.39377 0
M  V30 4997 O 480.528 0.898188 -1.68337 0
M  V30 4998 C 477.668 1.20322 -3.23445 0
M  V30 4999 C 476.781 0.487717 -4.29238 0
M  V30 5000 C 475.916 1.49422 -5.09752 0
M  V30 5001 C 474.955 0.763976 -6.07314 0
M  V30 5002 N 474.092 1.71755 -6.80768 0
M  V30 5003 H 478.932 -0.530169 -2.93246 0
M  V30 5004 H 476.469 -0.273276 -1.44539 0
M  V30 5005 H 478.427 1.80768 -3.76004 0
M  V30 5006 H 477.057 1.88382 -2.6213 0
M  V30 5007 H 476.109 -0.231374 -3.79696 0
M  V30 5008 H 477.421 -0.0841003 -4.98729 0
M  V30 5009 H 476.575 2.17206 -5.66486 0
M  V30 5010 H 475.314 2.09995 -4.40174 0
M  V30 5011 H 474.319 0.0722344 -5.49753 0
M  V30 5012 H 475.544 0.16391 -6.78902 0
M  V30 5013 H 473.49 2.31177 -6.13916 0
M  V30 5014 H 473.407 1.19802 -7.46447 0
M  V30 5015 H 474.675 2.38638 -7.42073 0
M  V30 5016 N 478.904 1.54736 -0.299062 0
M  V30 5017 C 480.315 1.8569 0.193971 0
M  V30 5018 C 480.666 1.22101 1.53577 0
M  V30 5019 O 479.791 0.51799 2.10109 0
M  V30 5020 C 480.386 3.36895 0.358733 0
M  V30 5021 C 478.945 3.67887 0.795986 0
M  V30 5022 C 478.092 2.77131 -0.096807 0
M  V30 5023 H 481.043 1.49934 -0.520134 0
M  V30 5024 H 481.064 3.61294 1.19361 0
M  V30 5025 H 480.576 3.83148 -0.617998 0
M  V30 5026 H 478.677 3.27151 1.78334 0
M  V30 5027 H 478.79 4.75114 0.616718 0
M  V30 5028 H 477.154 2.51153 0.423581 0
M  V30 5029 H 477.937 3.26204 -1.06986 0
M  V30 5030 N 480.382 0.0267497 1.57577 0
M  V30 5031 C 481.314 -0.984594 2.06974 0
M  V30 5032 C 482.327 -1.29032 0.992705 0
M  V30 5033 O 483.516 -1.25539 1.26895 0
M  V30 5034 C 480.616 -2.31262 2.47732 0
M  V30 5035 C 479.789 -2.1924 3.78487 0
M  V30 5036 C 478.848 -3.34956 4.05821 0
M  V30 5037 O 477.874 -3.11948 4.76106 0
M  V30 5038 N 479.076 -4.58672 3.55809 0
M  V30 5039 H 481.841 -0.563143 2.94362 0
M  V30 5040 H 479.402 -0.160061 1.61107 0
M  V30 5041 H 481.394 -3.07496 2.63112 0
M  V30 5042 H 479.964 -2.65056 1.65723 0
M  V30 5043 H 479.184 -1.27747 3.72927 0
M  V30 5044 H 480.472 -2.08409 4.64158 0
M  V30 5045 H 479.87 -4.8026 2.98942 0
M  V30 5046 H 478.427 -5.32083 3.76472 0
M  V30 5047 N 481.861 -1.55662 -0.24637 0
M  V30 5048 C 483.272 -1.67953 -0.81539 0
M  V30 5049 C 483.623 -0.624302 -1.86002 0
M  V30 5050 O 482.748 0.229328 -2.15181 0
M  V30 5051 C 483.343 -3.04484 -1.48576 0
M  V30 5052 C 481.902 -3.18713 -2.00248 0
M  V30 5053 C 481.049 -2.6383 -0.853766 0
M  V30 5054 H 484 -1.58685 -0.0221692 0
M  V30 5055 H 484.021 -2.98959 -2.3538 0
M  V30 5056 H 483.533 -3.81264 -0.725222 0
M  V30 5057 H 481.634 -2.46757 -2.79181 0
M  V30 5058 H 481.747 -4.25628 -2.1995 0
M  V30 5059 H 480.111 -2.21667 -1.25442 0
M  V30 5060 H 480.894 -3.43135 -0.106302 0
M  V30 5061 N 483.339 0.512053 -1.4905 0
M  V30 5062 C 484.567 1.29116 -1.61669 0
M  V30 5063 C 484.982 1.86655 -0.283787 0
M  V30 5064 O 484.339 1.67293 0.729331 0
M  V30 5065 C 484.39 2.4293 -2.67707 0
M  V30 5066 O 484.111 1.87758 -3.95826 0
M  V30 5067 C 485.612 3.34476 -2.90931 0
M  V30 5068 H 482.832 0.392009 -0.544583 0
M  V30 5069 H 485.376 0.615881 -1.95006 0
M  V30 5070 H 483.531 3.06308 -2.37179 0
M  V30 5071 H 483.945 2.62393 -4.54148 0
M  V30 5072 H 485.419 4.10642 -3.68886 0
M  V30 5073 H 485.896 3.90801 -2.00427 0
M  V30 5074 H 486.502 2.76874 -3.22832 0
M  V30 5075 N 484.817 1.37938 0.762283 0
M  V30 5076 C 486.045 1.36883 1.55147 0
M  V30 5077 C 486.46 -0.0435348 1.8875 0
M  V30 5078 O 485.817 -1.00786 1.52146 0
M  V30 5079 C 485.868 2.21624 2.85596 0
M  V30 5080 O 485.589 3.57358 2.5343 0
M  V30 5081 C 487.09 2.28653 3.7978 0
M  V30 5082 H 484.31 0.468521 0.480343 0
M  V30 5083 H 486.854 1.81404 0.944079 0
M  V30 5084 H 485.009 1.80588 3.42734 0
M  V30 5085 H 485.423 4.01883 3.37032 0
M  V30 5086 H 486.897 2.9225 4.68288 0
M  V30 5087 H 487.374 1.29767 4.19592 0
M  V30 5088 H 487.98 2.70043 3.28568 0
M  V30 5089 N 486.295 -0.989507 1.22664 0
M  V30 5090 C 487.711 -1.25395 0.987331 0
M  V30 5091 C 487.911 -1.9899 -0.317056 0
M  V30 5092 O 486.967 -2.30141 -1.03882 0
M  V30 5093 C 488.28 -2.06242 2.18826 0
M  V30 5094 C 489.828 -2.19413 2.23219 0
M  V30 5095 C 490.303 -3.03648 3.42873 0
M  V30 5096 N 491.794 -3.11234 3.43056 0
M  V30 5097 C 492.529 -3.7671 4.32293 0
M  V30 5098 N 492.025 -4.44085 5.31752 0
M  V30 5099 N 493.818 -3.73505 4.2006 0
M  V30 5100 H 485.969 -0.496212 2.06522 0
M  V30 5101 H 488.232 -0.281784 0.905153 0
M  V30 5102 H 487.938 -1.59531 3.13437 0
M  V30 5103 H 487.812 -3.06996 2.19165 0
M  V30 5104 H 490.199 -2.65336 1.29154 0
M  V30 5105 H 490.28 -1.18078 2.26917 0
M  V30 5106 H 489.924 -2.58424 4.37241 0
M  V30 5107 H 489.854 -4.05132 3.36416 0
M  V30 5108 H 492.345 -2.63287 2.71088 0
M  V30 5109 H 492.658 -4.91797 5.96117 0
M  V30 5110 H 491.003 -4.42822 5.35662 0
M  V30 5111 H 494.194 -3.20033 3.41609 0
M  V30 5112 H 494.367 -4.24253 4.8981 0
M  V30 5113 N 487.773 -1.03688 -1.18687 0
M  V30 5114 C 489.001 -0.757918 -1.92518 0
M  V30 5115 C 489.416 0.684398 -1.75959 0
M  V30 5116 O 488.773 1.46617 -1.08673 0
M  V30 5117 C 488.824 -1.10985 -3.44042 0
M  V30 5118 O 488.545 -2.49554 -3.60076 0
M  V30 5119 C 490.046 -0.854844 -4.3498 0
M  V30 5120 H 487.266 -0.276699 -0.611293 0
M  V30 5121 H 489.81 -1.38352 -1.50595 0
M  V30 5122 H 487.965 -0.529279 -3.83767 0
M  V30 5123 H 488.379 -2.6291 -4.53849 0
M  V30 5124 H 489.853 -1.15098 -5.39867 0
M  V30 5125 H 490.33 0.210507 -4.38695 0
M  V30 5126 H 490.936 -1.41853 -4.00946 0
M  V30 5127 N 489.251 1.34841 -0.815825 0
M  V30 5128 C 490.662 1.80937 -0.46029 0
M  V30 5129 C 491.013 1.67685 1.01863 0
M  V30 5130 O 490.138 1.21277 1.79223 0
M  V30 5131 C 490.733 3.28509 -0.828708 0
M  V30 5132 C 489.292 3.72712 -0.525644 0
M  V30 5133 C 488.439 2.56676 -1.04941 0
M  V30 5134 H 491.39 1.22688 -1.00664 0
M  V30 5135 H 491.411 3.80279 -0.129757 0
M  V30 5136 H 490.923 3.38122 -1.90513 0
M  V30 5137 H 489.024 3.68642 0.541666 0
M  V30 5138 H 489.137 4.67119 -1.06474 0
M  V30 5139 H 487.501 2.50302 -0.471286 0
M  V30 5140 H 488.284 2.69063 -2.13214 0
M  V30 5141 N 490.729 0.570148 1.46925 0
M  V30 5142 C 492.14 0.1402 1.86173 0
M  V30 5143 C 492.491 -1.29347 1.47526 0
M  V30 5144 O 491.616 -1.97508 0.884292 0
M  V30 5145 C 492.211 0.247661 3.37894 0
M  V30 5146 C 490.77 -0.127332 3.76185 0
M  V30 5147 C 489.917 0.589349 2.70965 0
M  V30 5148 H 492.868 0.779117 1.38259 0
M  V30 5149 H 492.889 -0.530341 3.76786 0
M  V30 5150 H 492.401 1.29121 3.65991 0
M  V30 5151 H 490.502 -1.17149 3.53704 0
M  V30 5152 H 490.615 0.240238 4.78497 0
M  V30 5153 H 488.979 0.0309824 2.54681 0
M  V30 5154 H 489.762 1.6343 3.01903 0
M  V30 5155 N 492.207 -1.54576 0.307264 0
M  V30 5156 C 493.139 -2.21212 -0.599807 0
M  V30 5157 C 494.152 -1.20685 -1.09266 0
M  V30 5158 O 495.341 -1.47244 -1.00903 0
M  V30 5159 C 492.441 -2.84994 -1.83389 0
M  V30 5160 C 491.614 -4.11511 -1.48248 0
M  V30 5161 C 490.673 -4.59038 -2.57237 0
M  V30 5162 O 489.699 -5.24095 -2.22065 0
M  V30 5163 N 490.901 -4.31884 -3.87887 0
M  V30 5164 H 493.666 -2.99686 -0.0293075 0
M  V30 5165 H 491.227 -1.61379 0.129738 0
M  V30 5166 H 493.219 -3.1372 -2.5566 0
M  V30 5167 H 491.789 -2.10324 -2.31263 0
M  V30 5168 H 491.009 -3.89728 -0.592122 0
M  V30 5169 H 492.297 -4.93879 -1.22316 0
M  V30 5170 H 491.695 -3.79778 -4.19268 0
M  V30 5171 H 490.252 -4.65304 -4.56438 0
M  V30 5172 N 493.685 -0.035106 -1.57561 0
M  V30 5173 C 494.91 0.655802 -1.96759 0
M  V30 5174 C 495.335 1.64523 -0.911809 0
M  V30 5175 O 494.693 1.80857 0.126673 0
M  V30 5176 C 494.741 1.33326 -3.35047 0
M  V30 5177 O 493.845 2.44866 -3.31835 0
M  V30 5178 H 493.186 0.171807 -0.641388 0
M  V30 5179 H 495.716 -0.0987369 -2.04362 0
M  V30 5180 H 495.726 1.68867 -3.71413 0
M  V30 5181 H 494.401 0.608033 -4.11431 0
M  V30 5182 H 492.978 2.11392 -3.07193 0
M  V30 5183 N 495.163 1.55791 0.238111 0
M  V30 5184 C 496.095 1.87513 1.31802 0
M  V30 5185 C 497.108 0.762053 1.43863 0
M  V30 5186 O 498.297 1.04024 1.45056 0
M  V30 5187 C 495.397 2.05402 2.69561 0
M  V30 5188 C 494.57 3.3632 2.79656 0
M  V30 5189 C 493.629 3.43844 3.98319 0
M  V30 5190 O 492.655 4.16994 3.87433 0
M  V30 5191 N 493.857 2.73777 5.11885 0
M  V30 5192 H 496.622 2.80734 1.04922 0
M  V30 5193 H 494.183 1.56135 0.428196 0
M  V30 5194 H 496.175 2.07769 3.47296 0
M  V30 5195 H 494.745 1.18884 2.89111 0
M  V30 5196 H 493.965 3.46195 1.88528 0
M  V30 5197 H 495.253 4.22594 2.83358 0
M  V30 5198 H 494.651 2.14094 5.23622 0
M  V30 5199 H 493.208 2.81825 5.87723 0
M  V30 5200 N 496.642 -0.504142 1.49319 0
M  V30 5201 C 497.87 -1.28256 1.62351 0
M  V30 5202 C 498.285 -1.86502 0.293682 0
M  V30 5203 O 497.642 -1.67678 -0.720449 0
M  V30 5204 C 497.693 -2.41507 2.68992 0
M  V30 5205 O 497.414 -1.85656 3.96817 0
M  V30 5206 C 498.915 -3.32929 2.927 0
M  V30 5207 H 496.135 -0.389115 0.546654 0
M  V30 5208 H 498.679 -0.605531 1.95329 0
M  V30 5209 H 496.834 -3.05046 2.38801 0
M  V30 5210 H 497.248 -2.59981 4.55533 0
M  V30 5211 H 498.722 -4.0868 3.71058 0
M  V30 5212 H 499.199 -3.89733 2.02496 0
M  V30 5213 H 499.805 -2.75158 3.24296 0
M  V30 5214 N 498.12 -1.38341 -0.754957 0
M  V30 5215 C 499.531 -1.30803 -1.3322 0
M  V30 5216 C 499.882 0.0368 -1.96165 0
M  V30 5217 O 499.007 0.938844 -1.94974 0
M  V30 5218 C 499.602 -2.3688 -2.42225 0
M  V30 5219 C 498.161 -2.32925 -2.95674 0
M  V30 5220 C 497.308 -2.19819 -1.69042 0
M  V30 5221 H 500.259 -1.48719 -0.553937 0
M  V30 5222 H 500.28 -2.02517 -3.22129 0
M  V30 5223 H 499.792 -3.34747 -1.96383 0
M  V30 5224 H 497.893 -1.38635 -3.45848 0
M  V30 5225 H 498.006 -3.27008 -3.50146 0
M  V30 5226 H 496.37 -1.66648 -1.92615 0
M  V30 5227 H 497.153 -3.19625 -1.25279 0
M  V30 5228 N 499.598 0.982988 -1.23187 0
M  V30 5229 C 500.846 1.72052 -1.06031 0
M  V30 5230 C 501.167 1.90769 0.404019 0
M  V30 5231 O 500.437 1.47446 1.28982 0
M  V30 5232 H 499.017 0.637499 -0.389363 0
M  V30 5233 H 501.679 1.18338 -1.54862 0
M  V30 5234 H 500.775 2.7111 -1.54615 0
M  V30 5235 N 501.076 1.04316 1.18135 0
M  V30 5236 C 502.039 0.640794 2.2006 0
M  V30 5237 C 503.039 -0.303124 1.57917 0
M  V30 5238 O 504.229 -0.0881855 1.73977 0
M  V30 5239 C 501.361 -0.060148 3.40847 0
M  V30 5240 H 502.554 1.54281 2.57172 0
M  V30 5241 H 500.107 0.836004 1.32063 0
M  V30 5242 H 500.842 -0.975845 3.0927 0
M  V30 5243 H 500.627 0.618319 3.87194 0
M  V30 5244 H 502.117 -0.328082 4.16309 0
M  V30 5245 N 502.554 -1.34406 0.822964 0
M  V30 5246 C 503.484 -2.32052 0.259608 0
M  V30 5247 C 504.465 -1.58243 -0.623961 0
M  V30 5248 O 505.65 -1.86224 -0.55083 0
M  V30 5249 C 502.78 -3.42434 -0.579314 0
M  V30 5250 C 501.734 -4.27499 0.20712 0
M  V30 5251 C 501.06 -5.29349 -0.754547 0
M  V30 5252 C 502.36 -5.02758 1.41533 0
M  V30 5253 H 504.054 -2.79418 1.07545 0
M  V30 5254 H 501.6 -1.34338 0.518593 0
M  V30 5255 H 503.553 -4.0976 -0.983612 0
M  V30 5256 H 502.277 -2.93717 -1.4282 0
M  V30 5257 H 500.936 -3.61776 0.592787 0
M  V30 5258 H 500.584 -4.76895 -1.59939 0
M  V30 5259 H 500.284 -5.8714 -0.232561 0
M  V30 5260 H 501.808 -5.99544 -1.1567 0
M  V30 5261 H 503.222 -5.62938 1.08504 0
M  V30 5262 H 501.619 -5.70123 1.87296 0
M  V30 5263 H 502.689 -4.32451 2.1935 0
M  V30 5264 N 504.032 -0.577932 -1.46621 0
M  V30 5265 C 505.443 -0.150071 -1.86096 0
M  V30 5266 C 505.794 1.28563 -1.48209 0
M  V30 5267 O 504.919 1.97036 -0.894754 0
M  V30 5268 C 505.514 -0.265576 -3.37758 0
M  V30 5269 C 504.073 0.10738 -3.76247 0
M  V30 5270 C 503.22 -0.603711 -2.70649 0
M  V30 5271 H 506.171 -0.786438 -1.37844 0
M  V30 5272 H 506.192 0.510352 -3.77062 0
M  V30 5273 H 505.704 -1.3106 -3.65301 0
M  V30 5274 H 503.805 1.15272 -3.54321 0
M  V30 5275 H 503.918 -0.26561 -4.78363 0
M  V30 5276 H 502.282 -0.0444884 -2.54661 0
M  V30 5277 H 503.065 -1.65029 -3.01032 0
M  V30 5278 N 505.51 1.54411 -0.315457 0
M  V30 5279 C 506.473 2.22713 0.54142 0
M  V30 5280 C 507.473 1.2179 1.04995 0
M  V30 5281 O 508.663 1.46426 0.943667 0
M  V30 5282 C 505.795 2.92485 1.75116 0
M  V30 5283 H 506.988 2.99849 -0.0555508 0
M  V30 5284 H 504.541 1.56159 -0.0664453 0
M  V30 5285 H 505.276 2.19466 2.38758 0
M  V30 5286 H 505.061 3.66483 1.39401 0
M  V30 5287 H 506.551 3.44548 2.35959 0
M  V30 5288 N 506.988 0.0434614 1.5754 0
M  V30 5289 C 507.935 -0.93356 2.11077 0
M  V30 5290 C 508.905 -1.31383 1.01626 0
M  V30 5291 O 510.09 -1.40465 1.29129 0
M  V30 5292 C 507.23 -2.20578 2.65404 0
M  V30 5293 C 506.343 -1.88068 3.88914 0
M  V30 5294 C 505.478 -3.09691 4.31584 0
M  V30 5295 C 504.517 -2.73067 5.47815 0
M  V30 5296 N 503.654 -3.87359 5.85574 0
M  V30 5297 H 508.494 -0.470118 2.94268 0
M  V30 5298 H 506.031 -0.220434 1.45439 0
M  V30 5299 H 507.989 -2.95011 2.94999 0
M  V30 5300 H 506.619 -2.64513 1.85021 0
M  V30 5301 H 505.671 -1.03816 3.6596 0
M  V30 5302 H 506.983 -1.57104 4.73413 0
M  V30 5303 H 506.137 -3.92431 4.62691 0
M  V30 5304 H 504.876 -3.43827 3.45882 0
M  V30 5305 H 503.881 -1.88742 5.16388 0
M  V30 5306 H 505.106 -2.40131 6.35227 0
M  V30 5307 H 503.052 -4.21311 5.02825 0
M  V30 5308 H 502.969 -3.60068 6.64746 0
M  V30 5309 H 504.237 -4.70761 6.21292 0
M  V30 5310 N 508.466 -1.55915 -0.229846 0
M  V30 5311 C 509.882 -1.48721 -0.579166 0
M  V30 5312 C 510.082 -0.736976 -1.87539 0
M  V30 5313 O 509.138 -0.273258 -2.51017 0
M  V30 5314 C 510.451 -2.9323 -0.666082 0
M  V30 5315 C 511.999 -3.03701 -0.757267 0
M  V30 5316 C 512.474 -4.49552 -0.8756 0
M  V30 5317 N 513.965 -4.53561 -0.940035 0
M  V30 5318 C 514.7 -5.63683 -1.05116 0
M  V30 5319 N 514.196 -6.83576 -1.12675 0
M  V30 5320 N 515.989 -5.51516 -1.08565 0
M  V30 5321 H 508.14 -2.03123 0.620857 0
M  V30 5322 H 510.403 -0.922898 0.21671 0
M  V30 5323 H 510.109 -3.51032 0.21664 0
M  V30 5324 H 509.983 -3.44668 -1.53243 0
M  V30 5325 H 512.37 -2.45969 -1.63043 0
M  V30 5326 H 512.451 -2.55446 0.134583 0
M  V30 5327 H 512.095 -5.079 -0.00692351 0
M  V30 5328 H 512.025 -4.95506 -1.78274 0
M  V30 5329 H 514.516 -3.67215 -0.892269 0
M  V30 5330 H 514.829 -7.63251 -1.21109 0
M  V30 5331 H 513.174 -6.86303 -1.09603 0
M  V30 5332 H 516.365 -4.5678 -1.02319 0
M  V30 5333 H 516.538 -6.37372 -1.1688 0
M  V30 5334 N 509.944 0.496216 -1.49584 0
M  V30 5335 C 510.854 1.62352 -1.69349 0
M  V30 5336 C 511.87 1.64184 -0.576147 0
M  V30 5337 O 513.046 1.82517 -0.85144 0
M  V30 5338 C 510.111 2.98698 -1.76013 0
M  V30 5339 C 509.172 3.07454 -2.99617 0
M  V30 5340 C 508.405 4.37296 -3.05953 0
M  V30 5341 O 508.628 5.2637 -2.19752 0
M  V30 5342 O 507.562 4.51124 -3.9846 0
M  V30 5343 H 511.388 1.48606 -2.64859 0
M  V30 5344 H 508.973 0.673022 -1.33382 0
M  V30 5345 H 510.855 3.79725 -1.82721 0
M  V30 5346 H 509.53 3.12696 -0.836828 0
M  V30 5347 H 508.437 2.25597 -2.98424 0
M  V30 5348 H 509.77 2.98385 -3.91443 0
M  V30 5349 N 511.423 1.38739 0.74761 0
M  V30 5350 C 512.355 1.32341 1.87132 0
M  V30 5351 C 513.368 0.234502 1.61102 0
M  V30 5352 O 514.557 0.492516 1.71571 0
M  V30 5353 C 511.657 1.02915 3.22896 0
M  V30 5354 C 510.83 2.22834 3.76383 0
M  V30 5355 C 509.889 1.90059 4.90677 0
M  V30 5356 O 508.915 2.62615 5.04997 0
M  V30 5357 N 510.117 0.859141 5.74107 0
M  V30 5358 H 512.882 2.29175 1.93129 0
M  V30 5359 H 510.443 1.32678 0.927805 0
M  V30 5360 H 512.435 0.79031 3.96908 0
M  V30 5361 H 511.005 0.148572 3.12247 0
M  V30 5362 H 510.225 2.62747 2.93867 0
M  V30 5363 H 511.513 3.02851 4.08851 0
M  V30 5364 H 510.911 0.257564 5.65113 0
M  V30 5365 H 509.468 0.680189 6.48241 0
M  V30 5366 N 512.901 -0.976442 1.23707 0
M  V30 5367 C 514.312 -1.53284 1.06587 0
M  V30 5368 C 514.663 -1.92765 -0.365526 0
M  V30 5369 O 513.788 -1.7645 -1.25277 0
M  V30 5370 C 514.383 -2.78548 1.92864 0
M  V30 5371 C 512.942 -3.30574 1.79994 0
M  V30 5372 C 512.089 -2.03538 1.88328 0
M  V30 5373 H 515.04 -0.795692 1.37311 0
M  V30 5374 H 515.061 -3.5155 1.45577 0
M  V30 5375 H 514.573 -2.49782 2.97037 0
M  V30 5376 H 512.674 -3.64211 0.786202 0
M  V30 5377 H 512.787 -4.00065 2.636 0
M  V30 5378 H 511.151 -2.17853 1.31954 0
M  V30 5379 H 511.934 -1.77149 2.94063 0
M  V30 5380 N 514.379 -1.04941 -1.1758 0
M  V30 5381 C 515.79 -0.784501 -1.69418 0
M  V30 5382 C 516.141 0.693625 -1.8353 0
M  V30 5383 O 515.266 1.53925 -1.52106 0
M  V30 5384 C 515.861 -1.41746 -3.07723 0
M  V30 5385 C 514.42 -1.20066 -3.56737 0
M  V30 5386 C 513.567 -1.5026 -2.33061 0
M  V30 5387 H 516.518 -1.21469 -1.02133 0
M  V30 5388 H 516.539 -0.825381 -3.7144 0
M  V30 5389 H 516.051 -2.49325 -2.9742 0
M  V30 5390 H 514.152 -0.144006 -3.72322 0
M  V30 5391 H 514.265 -1.90384 -4.39648 0
M  V30 5392 H 512.629 -0.922598 -2.37403 0
M  V30 5393 H 513.412 -2.58967 -2.25368 0
M  V30 5394 N 515.857 1.33968 -0.830081 0
M  V30 5395 C 517.082 2.02813 -0.433796 0
M  V30 5396 C 517.507 1.62076 0.954614 0
M  V30 5397 O 516.865 0.808955 1.62252 0
M  V30 5398 C 516.913 3.56348 -0.552115 0
M  V30 5399 O 516.017 4.10202 0.425191 0
M  V30 5400 H 515.358 0.639817 -0.177567 0
M  V30 5401 H 517.888 1.7106 -1.12248 0
M  V30 5402 H 517.898 4.05722 -0.430513 0
M  V30 5403 H 516.573 3.85344 -1.56471 0
M  V30 5404 H 515.15 3.71979 0.261878 0
M  V30 5405 N 517.335 0.585699 1.46312 0
M  V30 5406 C 518.265 -0.133556 2.33118 0
M  V30 5407 C 519.246 -0.880707 1.45525 0
M  V30 5408 O 520.431 -0.855579 1.74337 0
M  V30 5409 C 517.561 -1.14585 3.27853 0
M  V30 5410 C 516.515 -0.513341 4.2491 0
M  V30 5411 C 515.841 -1.63231 5.09175 0
M  V30 5412 C 517.141 0.551413 5.19381 0
M  V30 5413 H 518.835 0.59121 2.93505 0
M  V30 5414 H 516.381 0.285761 1.41136 0
M  V30 5415 H 518.334 -1.65741 3.87438 0
M  V30 5416 H 517.058 -1.90093 2.65579 0
M  V30 5417 H 515.717 -0.0228349 3.66593 0
M  V30 5418 H 515.365 -2.37713 4.43285 0
M  V30 5419 H 515.065 -1.21473 5.74907 0
M  V30 5420 H 516.589 -2.14658 5.71624 0
M  V30 5421 H 518.003 0.124804 5.73164 0
M  V30 5422 H 516.4 0.889486 5.93471 0
M  V30 5423 H 517.47 1.43655 4.63132 0
M  V30 5424 N 518.813 -1.54241 0.323641 0
M  V30 5425 C 520.041 -2.04985 -0.280871 0
M  V30 5426 C 520.456 -1.19978 -1.45777 0
M  V30 5427 O 519.813 -0.230471 -1.81039 0
M  V30 5428 C 519.864 -3.54353 -0.715258 0
M  V30 5429 O 519.585 -4.36132 0.414817 0
M  V30 5430 C 521.086 -4.21189 -1.38257 0
M  V30 5431 H 518.306 -0.66851 -0.0577502 0
M  V30 5432 H 520.85 -1.99029 0.469852 0
M  V30 5433 H 519.005 -3.60596 -1.41596 0
M  V30 5434 H 519.419 -5.2445 0.0725227 0
M  V30 5435 H 520.893 -5.27154 -1.63745 0
M  V30 5436 H 521.37 -3.72307 -2.32989 0
M  V30 5437 H 521.976 -4.19085 -0.724447 0
M  V30 5438 N 520.291 -0.0518155 -1.57515 0
M  V30 5439 C 521.707 0.304735 -1.56664 0
M  V30 5440 C 521.907 1.71395 -1.05953 0
M  V30 5441 O 520.963 2.42123 -0.716414 0
M  V30 5442 C 522.276 0.132614 -3.00407 0
M  V30 5443 C 523.824 0.20367 -3.12337 0
M  V30 5444 C 524.299 0.0600706 -4.57961 0
M  V30 5445 N 525.79 0.116326 -4.63054 0
M  V30 5446 C 526.525 0.0293363 -5.73392 0
M  V30 5447 N 526.021 -0.110038 -6.92713 0
M  V30 5448 N 527.814 0.0849651 -5.62036 0
M  V30 5449 H 519.965 -0.973056 -1.888 0
M  V30 5450 H 522.228 -0.377781 -0.869474 0
M  V30 5451 H 521.934 -0.839019 -3.41546 0
M  V30 5452 H 521.808 0.893376 -3.66468 0
M  V30 5453 H 524.195 1.16578 -2.71097 0
M  V30 5454 H 524.276 -0.587857 -2.48954 0
M  V30 5455 H 523.92 -0.898715 -4.99886 0
M  V30 5456 H 523.85 0.87075 -5.19351 0
M  V30 5457 H 526.341 0.22327 -3.7724 0
M  V30 5458 H 526.654 -0.169104 -7.72615 0
M  V30 5459 H 524.999 -0.145132 -6.94848 0
M  V30 5460 H 528.19 0.192411 -4.67704 0
M  V30 5461 H 528.363 0.0137131 -6.47999 0
M  V30 5462 N 521.769 1.56035 0.221574 0
M  V30 5463 C 522.717 1.93269 1.29421 0
M  V30 5464 C 523.711 0.814727 1.48521 0
M  V30 5465 O 524.917 0.999559 1.49696 0
M  V30 5466 H 521.292 0.614188 0.43391 0
M  V30 5467 H 523.263 2.82773 0.952987 0
M  V30 5468 C 522.012 2.26573 2.63742 0
M  V30 5469 H 521.335 3.12112 2.49853 0
M  V30 5470 H 522.775 2.5651 3.37607 0
M  V30 5471 C 521.234 1.09086 3.1875 0
M  V30 5472 O 521.764 0.351985 4.00155 0
M  V30 5473 N 519.97 0.874693 2.77124 0
M  V30 5474 H 519.517 1.47726 2.11033 0
M  V30 5475 H 519.475 0.0903349 3.1427 0
M  V30 5476 N 523.247 -0.488276 1.49845 0
M  V30 5477 C 524.495 -1.23911 1.59657 0
M  V30 5478 C 524.816 -1.92816 0.291005 0
M  V30 5479 O 524.086 -1.83328 -0.690485 0
M  V30 5480 H 522.666 -0.460357 0.588286 0
M  V30 5481 H 525.328 -0.564794 1.86537 0
M  V30 5482 H 524.424 -1.99625 2.39909 0
M  V30 5483 N 524.725 -1.39134 -0.740242 0
M  V30 5484 C 526.136 -1.32208 -1.31825 0
M  V30 5485 C 526.487 0.0159919 -1.96193 0
M  V30 5486 O 525.612 0.918111 -1.95958 0
M  V30 5487 C 526.207 -2.39436 -2.39699 0
M  V30 5488 C 524.766 -2.36048 -2.93187 0
M  V30 5489 C 523.913 -2.21599 -1.66701 0
M  V30 5490 H 526.864 -1.49298 -0.538133 0
M  V30 5491 H 526.885 -2.05922 -3.19963 0
M  V30 5492 H 526.397 -3.36811 -1.92821 0
M  V30 5493 H 524.498 -1.42295 -3.44359 0
M  V30 5494 H 524.611 -3.30704 -3.46658 0
M  V30 5495 H 522.975 -1.68681 -1.90837 0
M  V30 5496 H 523.758 -3.20936 -1.21882 0
M  V30 5497 N 526.204 0.969867 -1.24223 0
M  V30 5498 C 527.134 2.08191 -1.05729 0
M  V30 5499 C 528.115 1.70075 0.0290765 0
M  V30 5500 O 529.3 1.93712 -0.137583 0
M  V30 5501 C 526.43 3.40991 -0.658995 0
M  V30 5502 C 525.384 3.93054 -1.69389 0
M  V30 5503 C 524.71 5.22171 -1.15072 0
M  V30 5504 C 526.01 4.21137 -3.08935 0
M  V30 5505 H 527.704 2.23921 -1.98746 0
M  V30 5506 H 525.25 1.07602 -0.956967 0
M  V30 5507 H 527.203 4.18221 -0.51662 0
M  V30 5508 H 525.927 3.25155 0.30686 0
M  V30 5509 H 524.586 3.17977 -1.82444 0
M  V30 5510 H 524.234 5.02694 -0.175539 0
M  V30 5511 H 523.934 5.57973 -1.84229 0
M  V30 5512 H 525.458 6.02013 -1.02042 0
M  V30 5513 H 526.872 4.8908 -2.99121 0
M  V30 5514 H 525.269 4.68163 -3.75425 0
M  V30 5515 H 526.339 3.27996 -3.57137 0
M  V30 5516 N 527.682 1.05563 1.17022 0
M  V30 5517 C 528.907 0.788437 1.91829 0
M  V30 5518 C 529.332 -0.650356 1.76499 0
M  V30 5519 O 528.69 -1.45229 1.08527 0
M  V30 5520 C 528.738 1.1786 3.40795 0
M  V30 5521 O 527.842 0.312965 4.11211 0
M  V30 5522 H 527.183 0.288794 0.597908 0
M  V30 5523 H 529.713 1.40948 1.48307 0
M  V30 5524 H 529.723 1.14697 3.91546 0
M  V30 5525 H 528.398 2.22666 3.51273 0
M  V30 5526 H 526.975 0.405515 3.70689 0
M  V30 5527 N 529.16 -1.33526 0.837174 0
M  V30 5528 C 530.4 -1.99649 0.438115 0
M  V30 5529 C 530.764 -1.64879 -0.983816 0
M  V30 5530 O 531.965 -2.23956 -1.48651 0
M  V30 5531 C 530.236 -3.51431 0.650461 0
M  V30 5532 S 531.795 -4.37431 0.346371 0
M  V30 5533 H 528.613 -0.69162 0.164872 0
M  V30 5534 H 531.215 -1.62556 1.08609 0
M  V30 5535 H 529.919 -3.74225 1.68475 0
M  V30 5536 H 529.45 -3.93398 -0.0117309 0
M  V30 5537 H 531.465 -4.89132 -0.834504 0
M  V30 5538 N 530.638 -0.59345 -1.46 0
M  V30 5539 C 531.886 -0.082988 -2.0193 0
M  V30 5540 C 532.207 1.28569 -1.46612 0
M  V30 5541 O 531.477 1.84629 -0.654909 0
M  V30 5542 H 530.057 -0.0276882 -0.746487 0
M  V30 5543 H 532.719 -0.771657 -1.78973 0
M  V30 5544 H 531.815 -0.022079 -3.12092 0
M  V30 5545 N 532.116 1.54067 -0.331816 0
M  V30 5546 C 533.048 2.22139 0.564538 0
M  V30 5547 C 534.061 1.22408 1.07332 0
M  V30 5548 O 535.25 1.4883 0.985481 0
M  V30 5549 C 532.35 2.87876 1.78831 0
M  V30 5550 C 531.523 4.13817 1.41682 0
M  V30 5551 C 530.582 4.63072 2.49901 0
M  V30 5552 O 529.608 5.27562 2.13699 0
M  V30 5553 N 530.81 4.38001 3.80967 0
M  V30 5554 H 533.575 2.99694 -0.0183736 0
M  V30 5555 H 531.136 1.61153 -0.155396 0
M  V30 5556 H 533.128 3.17747 2.50637 0
M  V30 5557 H 531.698 2.13977 2.27887 0
M  V30 5558 H 530.918 3.9062 0.530044 0
M  V30 5559 H 532.206 4.95762 1.14443 0
M  V30 5560 H 531.604 3.864 4.13173 0
M  V30 5561 H 530.161 4.72507 4.48977 0
M  V30 5562 N 533.594 0.0601682 1.57485 0
M  V30 5563 C 535.01 -0.296422 1.56823 0
M  V30 5564 C 535.21 -1.70831 1.0686 0
M  V30 5565 O 534.266 -2.4174 0.729245 0
M  V30 5566 C 535.579 -0.116681 3.00474 0
M  V30 5567 C 537.127 -0.187103 3.1244 0
M  V30 5568 C 537.602 -0.035783 4.57986 0
M  V30 5569 N 539.093 -0.0917676 4.63109 0
M  V30 5570 C 539.828 0.00107251 5.734 0
M  V30 5571 N 539.324 0.146773 6.92645 0
M  V30 5572 N 541.117 -0.0551577 5.62073 0
M  V30 5573 H 533.268 0.983055 1.88281 0
M  V30 5574 H 535.531 0.382386 0.867459 0
M  V30 5575 H 535.237 0.85712 3.41096 0
M  V30 5576 H 535.111 -0.873929 3.66936 0
M  V30 5577 H 537.498 -1.15138 2.71712 0
M  V30 5578 H 537.579 0.601052 2.48638 0
M  V30 5579 H 537.223 0.925212 4.99402 0
M  V30 5580 H 537.153 -0.843196 5.19806 0
M  V30 5581 H 539.644 -0.203261 3.77353 0
M  V30 5582 H 539.957 0.210076 7.72514 0
M  V30 5583 H 538.302 0.181979 6.94762 0
M  V30 5584 H 541.493 -0.167605 4.678 0
M  V30 5585 H 541.666 0.020652 6.47997 0
M  V30 5586 N 535.072 -1.5615 -0.213296 0
M  V30 5587 C 536.002 -1.96109 -1.26742 0
M  V30 5588 C 536.983 -0.830448 -1.48451 0
M  V30 5589 O 538.168 -1.09339 -1.60495 0
M  V30 5590 C 535.298 -2.28492 -2.61551 0
M  V30 5591 C 534.252 -3.44124 -2.54485 0
M  V30 5592 C 533.578 -3.62134 -3.93399 0
M  V30 5593 C 534.878 -4.78855 -2.08556 0
M  V30 5594 H 536.572 -2.84412 -0.935434 0
M  V30 5595 H 534.118 -1.36836 -0.44854 0
M  V30 5596 H 536.071 -2.55039 -3.3546 0
M  V30 5597 H 534.795 -1.37052 -2.96453 0
M  V30 5598 H 533.454 -3.17639 -1.83033 0
M  V30 5599 H 533.102 -2.68055 -4.25623 0
M  V30 5600 H 532.802 -4.39913 -3.89551 0
M  V30 5601 H 534.326 -3.91038 -4.68958 0
M  V30 5602 H 535.74 -5.04552 -2.72213 0
M  V30 5603 H 534.137 -5.59975 -2.1575 0
M  V30 5604 H 535.207 -4.73657 -1.03811 0
M  V30 5605 N 536.55 0.480323 -1.50102 0
M  V30 5606 C 537.966 0.813295 -1.37323 0
M  V30 5607 C 538.166 1.97027 -0.422206 0
M  V30 5608 O 537.222 2.5212 0.138563 0
M  V30 5609 C 538.535 1.13404 -2.78496 0
M  V30 5610 C 540.083 1.24104 -2.87345 0
M  V30 5611 C 540.558 1.59497 -4.29331 0
M  V30 5612 N 542.049 1.66507 -4.32238 0
M  V30 5613 C 542.784 1.95378 -5.39087 0
M  V30 5614 N 542.28 2.22333 -6.56155 0
M  V30 5615 N 544.073 1.96803 -5.26522 0
M  V30 5616 H 536.224 -0.282291 -2.10516 0
M  V30 5617 H 538.487 -0.063752 -0.945854 0
M  V30 5618 H 538.193 0.357064 -3.49883 0
M  V30 5619 H 538.067 2.07251 -3.15162 0
M  V30 5620 H 540.454 2.00871 -2.16183 0
M  V30 5621 H 540.535 0.282593 -2.54234 0
M  V30 5622 H 540.179 0.832736 -5.01027 0
M  V30 5623 H 540.109 2.56477 -4.59921 0
M  V30 5624 H 542.6 1.47753 -3.47818 0
M  V30 5625 H 542.913 2.43611 -7.33399 0
M  V30 5626 H 541.258 2.19745 -6.59346 0
M  V30 5627 H 544.449 1.75235 -4.34062 0
M  V30 5628 H 544.622 2.18969 -6.09883 0
M  V30 5629 N 538.028 1.39524 0.732853 0
M  V30 5630 C 538.975 1.38416 1.84688 0
M  V30 5631 C 539.945 0.243539 1.64305 0
M  V30 5632 O 541.13 0.438979 1.85681 0
M  V30 5633 C 538.27 1.23555 3.22224 0
M  V30 5634 C 537.383 2.47179 3.54298 0
M  V30 5635 C 536.518 2.2489 4.81246 0
M  V30 5636 C 535.557 3.44178 5.0617 0
M  V30 5637 N 534.694 3.21192 6.24323 0
M  V30 5638 H 539.534 2.33645 1.84971 0
M  V30 5639 H 537.071 1.16059 0.903804 0
M  V30 5640 H 539.029 1.12949 4.0162 0
M  V30 5641 H 537.659 0.31954 3.21215 0
M  V30 5642 H 536.711 2.68379 2.69587 0
M  V30 5643 H 538.023 3.36022 3.68633 0
M  V30 5644 H 537.177 2.11538 5.68627 0
M  V30 5645 H 535.916 1.33443 4.69089 0
M  V30 5646 H 534.921 3.58025 4.17251 0
M  V30 5647 H 536.146 4.36528 5.20212 0
M  V30 5648 H 534.092 2.32413 6.1345 0
M  V30 5649 H 534.009 4.03594 6.39256 0
M  V30 5650 H 535.277 3.1154 7.14537 0
M  V30 5651 N 539.506 -0.963266 1.24736 0
M  V30 5652 C 540.731 -1.74699 1.11781 0
M  V30 5653 C 541.156 -1.85267 -0.325258 0
M  V30 5654 O 540.514 -1.32681 -1.23553 0
M  V30 5655 C 540.562 -3.14322 1.76731 0
M  V30 5656 O 539.666 -3.99043 1.04109 0
M  V30 5657 H 539.007 -0.53684 0.390767 0
M  V30 5658 H 541.537 -1.20801 1.65131 0
M  V30 5659 H 541.547 -3.64824 1.82668 0
M  V30 5660 H 540.222 -3.05946 2.81726 0
M  V30 5661 H 538.799 -3.5752 1.05991 0
M  V30 5662 N 540.985 -1.06182 -1.16461 0
M  V30 5663 C 541.915 -0.692861 -2.22984 0
M  V30 5664 C 542.896 0.314122 -1.67174 0
M  V30 5665 O 544.081 0.189499 -1.93273 0
M  V30 5666 C 541.211 -0.07732 -3.47214 0
M  V30 5667 C 540.165 -1.01015 -4.15909 0
M  V30 5668 C 539.491 -0.257973 -5.34077 0
M  V30 5669 C 540.791 -2.33868 -4.67015 0
M  V30 5670 H 542.485 -1.58343 -2.54102 0
M  V30 5671 H 540.031 -0.76279 -1.22137 0
M  V30 5672 H 541.984 0.19266 -4.20959 0
M  V30 5673 H 540.708 0.848254 -3.15392 0
M  V30 5674 H 539.367 -1.26486 -3.44088 0
M  V30 5675 H 539.015 0.670684 -4.98509 0
M  V30 5676 H 538.715 -0.879638 -5.80979 0
M  V30 5677 H 540.239 0.00448788 -6.106 0
M  V30 5678 H 541.653 -2.1279 -5.32347 0
M  V30 5679 H 540.05 -2.91522 -5.24533 0
M  V30 5680 H 541.12 -2.97019 -3.83286 0
M  V30 5681 N 542.463 1.3308 -0.844243 0
M  V30 5682 C 543.688 2.02341 -0.455282 0
M  V30 5683 C 544.113 1.6308 0.93737 0
M  V30 5684 O 543.471 0.826118 1.61385 0
M  V30 5685 C 543.519 3.55743 -0.58988 0
M  V30 5686 O 542.623 4.1063 0.38166 0
M  V30 5687 H 541.964 0.637898 -0.184343 0
M  V30 5688 H 544.494 1.6986 -1.14056 0
M  V30 5689 H 544.504 4.05243 -0.473522 0
M  V30 5690 H 543.179 3.83662 -1.60549 0
M  V30 5691 H 541.756 3.72236 0.22241 0
M  V30 5692 N 543.941 0.601185 1.45683 0
M  V30 5693 C 545.166 0.0982245 2.07167 0
M  V30 5694 C 545.591 -1.20546 1.44396 0
M  V30 5695 O 544.949 -1.73247 0.534347 0
M  V30 5696 C 544.997 -0.0346976 3.60583 0
M  V30 5697 O 544.101 -1.08657 3.97828 0
M  V30 5698 H 543.442 0.0711618 0.660176 0
M  V30 5699 H 545.972 0.829376 1.87036 0
M  V30 5700 H 545.982 -0.234969 4.07323 0
M  V30 5701 H 544.657 0.917265 4.05659 0
M  V30 5702 H 543.234 -0.863275 3.6277 0
M  V30 5703 N 545.419 -1.53889 0.339982 0
M  V30 5704 C 546.352 -2.21187 -0.561405 0
M  V30 5705 C 547.33 -1.19463 -1.10306 0
M  V30 5706 O 548.514 -1.48268 -1.164 0
M  V30 5707 C 545.641 -2.8865 -1.77198 0
M  V30 5708 C 544.687 -4.04232 -1.3601 0
M  V30 5709 S 545.52 -5.34129 -0.382909 0
M  V30 5710 C 546.676 -6.05094 -1.60039 0
M  V30 5711 H 546.909 -2.97298 0.0102092 0
M  V30 5712 H 544.442 -1.53901 0.124056 0
M  V30 5713 H 546.4 -3.28138 -2.4665 0
M  V30 5714 H 545.061 -2.12311 -2.3148 0
M  V30 5715 H 544.254 -4.50358 -2.2626 0
M  V30 5716 H 543.856 -3.66503 -0.745098 0
M  V30 5717 H 546.148 -6.2827 -2.53541 0
M  V30 5718 H 547.091 -6.98182 -1.18099 0
M  V30 5719 H 547.499 -5.35207 -1.79483 0
M  V30 5720 N 546.897 -0.0685191 -1.57451 0
M  V30 5721 C 548.125 0.610462 -1.97689 0
M  V30 5722 C 548.54 1.63346 -0.946758 0
M  V30 5723 O 547.897 1.82377 0.0669868 0
M  V30 5724 C 547.948 1.28196 -3.38006 0
M  V30 5725 O 547.669 0.299906 -4.37072 0
M  V30 5726 C 549.17 2.04907 -3.931 0
M  V30 5727 H 546.39 0.165689 -0.650222 0
M  V30 5728 H 548.934 -0.139953 -2.04021 0
M  V30 5729 H 547.089 1.98348 -3.32771 0
M  V30 5730 H 547.503 0.78126 -5.18649 0
M  V30 5731 H 548.977 2.47287 -4.93511 0
M  V30 5732 H 549.454 2.9043 -3.29465 0
M  V30 5733 H 550.06 1.39629 -4.01726 0
M  V30 5734 N 548.375 1.56261 0.205012 0
M  V30 5735 C 549.791 1.49623 0.555433 0
M  V30 5736 C 549.991 0.766719 1.86343 0
M  V30 5737 O 549.047 0.313158 2.50551 0
M  V30 5738 C 550.36 2.94253 0.619347 0
M  V30 5739 C 551.908 3.04868 0.708855 0
M  V30 5740 C 552.383 4.50888 0.803969 0
M  V30 5741 N 553.874 4.54999 0.867758 0
M  V30 5742 C 554.609 5.65284 0.96135 0
M  V30 5743 N 554.105 6.85282 1.01786 0
M  V30 5744 N 555.898 5.53174 0.997771 0
M  V30 5745 H 548.049 2.0211 -0.653094 0
M  V30 5746 H 550.312 0.919333 -0.231366 0
M  V30 5747 H 550.018 3.50643 -0.272458 0
M  V30 5748 H 549.892 3.47063 1.47741 0
M  V30 5749 H 552.279 2.48532 1.5911 0
M  V30 5750 H 552.36 2.55199 -0.175205 0
M  V30 5751 H 552.004 5.07846 -0.0738798 0
M  V30 5752 H 551.934 4.98279 1.70369 0
M  V30 5753 H 554.425 3.68588 0.833735 0
M  V30 5754 H 554.738 7.65081 1.08951 0
M  V30 5755 H 553.083 6.8796 0.986706 0
M  V30 5756 H 556.274 4.5835 0.950392 0
M  V30 5757 H 556.447 6.39151 1.06725 0
M  V30 5758 N 549.853 -0.472356 1.50355 0
M  V30 5759 C 551.099 -1.22634 1.6152 0
M  V30 5760 C 551.432 -1.91645 0.313995 0
M  V30 5761 O 550.707 -1.82059 -0.684446 0
M  V30 5762 C 550.99 -2.27099 2.7946 0
M  V30 5763 C 550.843 -1.62402 4.19459 0
M  V30 5764 C 552.162 -3.28421 2.92964 0
M  V30 5765 H 549.281 -0.444494 0.587873 0
M  V30 5766 H 551.923 -0.520321 1.82737 0
M  V30 5767 H 550.073 -2.87314 2.61501 0
M  V30 5768 H 551.745 -1.05793 4.49005 0
M  V30 5769 H 549.988 -0.927184 4.23776 0
M  V30 5770 H 550.659 -2.38309 4.97909 0
M  V30 5771 H 553.135 -2.78227 3.09401 0
M  V30 5772 H 552.011 -3.98845 3.77113 0
M  V30 5773 H 552.272 -3.92467 2.03525 0
M  V30 5774 N 551.331 -1.39911 -0.725443 0
M  V30 5775 C 552.577 -1.37858 -1.48738 0
M  V30 5776 C 552.91 0.0224187 -1.94187 0
M  V30 5777 O 552.185 0.989204 -1.67466 0
M  V30 5778 C 552.468 -2.3594 -2.72038 0
M  V30 5779 C 552.321 -3.85023 -2.32546 0
M  V30 5780 C 553.64 -2.31704 -3.74167 0
M  V30 5781 H 550.759 -0.502074 -0.539528 0
M  V30 5782 H 553.401 -1.70974 -0.828728 0
M  V30 5783 H 551.551 -2.0783 -3.28236 0
M  V30 5784 H 553.223 -4.2392 -1.81905 0
M  V30 5785 H 551.466 -4.01334 -1.64661 0
M  V30 5786 H 552.137 -4.49152 -3.20884 0
M  V30 5787 H 554.613 -2.5658 -3.27576 0
M  V30 5788 H 553.489 -3.02395 -4.58092 0
M  V30 5789 H 553.75 -1.3253 -4.21768 0
M  V30 5790 N 552.809 0.956637 -1.25245 0
M  V30 5791 C 554.057 1.69764 -1.09657 0
M  V30 5792 C 554.378 1.91583 0.363464 0
M  V30 5793 O 553.648 1.50149 1.25825 0
M  V30 5794 H 552.228 0.629097 -0.402798 0
M  V30 5795 H 554.89 1.15026 -1.57337 0
M  V30 5796 H 553.986 2.67769 -1.60331 0
M  V30 5797 N 554.287 1.06798 1.15896 0
M  V30 5798 C 555.535 0.786211 1.8618 0
M  V30 5799 C 555.856 -0.689547 1.82401 0
M  V30 5800 O 555.126 -1.49913 1.26107 0
M  V30 5801 H 553.706 0.287843 0.689315 0
M  V30 5802 H 556.368 1.35055 1.40521 0
M  V30 5803 H 555.464 1.1157 2.91477 0
M  V30 5804 N 555.766 -1.3263 0.851289 0
M  V30 5805 C 556.696 -2.31449 0.308771 0
M  V30 5806 C 557.677 -1.59531 -0.590255 0
M  V30 5807 O 558.862 -1.87351 -0.511205 0
M  V30 5808 C 555.992 -3.43586 -0.506548 0
M  V30 5809 C 554.946 -4.26963 0.297753 0
M  V30 5810 C 554.272 -5.30831 -0.642094 0
M  V30 5811 C 555.572 -4.99643 1.52166 0
M  V30 5812 H 557.266 -2.77074 1.13447 0
M  V30 5813 H 554.812 -1.33207 0.546971 0
M  V30 5814 H 556.765 -4.11754 -0.896474 0
M  V30 5815 H 555.489 -2.96681 -1.36558 0
M  V30 5816 H 554.148 -3.60437 0.669391 0
M  V30 5817 H 553.796 -4.8018 -1.49788 0
M  V30 5818 H 553.496 -5.87501 -0.107968 0
M  V30 5819 H 555.02 -6.01862 -1.02927 0
M  V30 5820 H 556.434 -5.6051 1.20421 0
M  V30 5821 H 554.831 -5.66022 1.99347 0
M  V30 5822 H 555.901 -4.27701 2.28474 0
M  V30 5823 N 557.244 -0.608902 -1.45362 0
M  V30 5824 C 558.49 -0.104762 -2.02529 0
M  V30 5825 C 558.823 1.26191 -1.47613 0
M  V30 5826 O 558.098 1.8327 -0.65134 0
M  V30 5827 C 558.381 -0.0672661 -3.60037 0
M  V30 5828 C 558.234 -1.4647 -4.25284 0
M  V30 5829 C 559.553 0.619877 -4.35713 0
M  V30 5830 H 556.672 -0.0395438 -0.735938 0
M  V30 5831 H 559.314 -0.781126 -1.73201 0
M  V30 5832 H 557.464 0.50871 -3.85155 0
M  V30 5833 H 559.136 -2.08785 -4.11347 0
M  V30 5834 H 557.379 -2.02502 -3.83634 0
M  V30 5835 H 558.05 -1.39069 -5.34195 0
M  V30 5836 H 560.526 0.130297 -4.15896 0
M  V30 5837 H 559.402 0.615224 -5.45441 0
M  V30 5838 H 559.663 1.68621 -4.0868 0
M  V30 5839 N 558.722 1.53707 -0.348139 0
M  V30 5840 C 559.685 2.23812 0.494058 0
M  V30 5841 C 560.685 1.23989 1.02388 0
M  V30 5842 O 561.875 1.48395 0.912396 0
M  V30 5843 C 559.007 2.96133 1.68872 0
M  V30 5844 H 560.2 2.99663 -0.119141 0
M  V30 5845 H 557.753 1.55983 -0.0995539 0
M  V30 5846 H 558.488 2.24481 2.34049 0
M  V30 5847 H 558.273 3.69357 1.31596 0
M  V30 5848 H 559.763 3.49475 2.28597 0
M  V30 5849 N 560.2 0.0768682 1.57412 0
M  V30 5850 C 561.13 -0.886026 2.16037 0
M  V30 5851 C 562.111 -1.30691 1.08876 0
M  V30 5852 O 563.296 -1.37705 1.36934 0
M  V30 5853 C 560.426 -2.1518 2.72608 0
M  V30 5854 C 559.38 -1.87015 3.8498 0
M  V30 5855 C 558.706 -3.20266 4.28175 0
M  V30 5856 C 560.006 -1.17143 5.08994 0
M  V30 5857 H 561.7 -0.397642 2.96748 0
M  V30 5858 H 559.246 -0.189823 1.42743 0
M  V30 5859 H 561.199 -2.82962 3.12266 0
M  V30 5860 H 559.923 -2.66269 1.89125 0
M  V30 5861 H 558.582 -1.21636 3.45833 0
M  V30 5862 H 558.23 -3.69207 3.41607 0
M  V30 5863 H 557.93 -3.0221 5.03927 0
M  V30 5864 H 559.454 -3.89237 4.70454 0
M  V30 5865 H 560.868 -1.75003 5.45937 0
M  V30 5866 H 559.265 -1.09328 5.90057 0
M  V30 5867 H 560.335 -0.151295 4.84664 0
M  V30 5868 N 561.678 -1.56367 -0.196722 0
M  V30 5869 C 563.094 -1.49916 -0.54749 0
M  V30 5870 C 563.294 -0.77659 -1.85934 0
M  V30 5871 O 562.35 -0.32644 -2.50381 0
M  V30 5872 C 563.663 -2.94577 -0.603734 0
M  V30 5873 C 565.211 -3.05239 -0.692677 0
M  V30 5874 C 565.686 -4.51308 -0.780046 0
M  V30 5875 N 567.177 -4.55453 -0.843616 0
M  V30 5876 C 567.912 -5.65786 -0.931358 0
M  V30 5877 N 567.408 -6.85812 -0.981503 0
M  V30 5878 N 569.201 -5.53695 -0.968421 0
M  V30 5879 H 561.352 -2.01761 0.663803 0
M  V30 5880 H 563.615 -0.918094 0.236238 0
M  V30 5881 H 563.321 -3.50494 0.29105 0
M  V30 5882 H 563.195 -3.47841 -1.45898 0
M  V30 5883 H 565.582 -2.49372 -1.57789 0
M  V30 5884 H 565.663 -2.55103 0.188736 0
M  V30 5885 H 565.307 -5.078 0.100811 0
M  V30 5886 H 565.237 -4.99176 -1.67724 0
M  V30 5887 H 567.728 -3.69025 -0.814176 0
M  V30 5888 H 568.041 -7.65648 -1.04892 0
M  V30 5889 H 566.386 -6.88474 -0.950208 0
M  V30 5890 H 569.577 -4.58848 -0.926072 0
M  V30 5891 H 569.75 -6.39708 -1.03334 0
M  V30 5892 N 563.156 0.464375 -1.50603 0
M  V30 5893 C 564.404 1.21356 -1.61608 0
M  V30 5894 C 564.725 1.92329 -0.321643 0
M  V30 5895 O 563.995 1.84403 0.661232 0
M  V30 5896 H 562.575 0.45094 -0.595535 0
M  V30 5897 H 565.237 0.535046 -1.87412 0
M  V30 5898 H 564.333 1.95783 -2.43054 0
M  V30 5899 N 564.634 1.40294 0.718013 0
M  V30 5900 C 565.597 1.4012 1.81381 0
M  V30 5901 C 566.597 0.295405 1.58063 0
M  V30 5902 O 567.787 0.554187 1.6515 0
M  V30 5903 C 564.919 1.19056 3.19435 0
M  V30 5904 H 566.112 2.37645 1.82933 0
M  V30 5905 H 563.665 1.26107 0.923405 0
M  V30 5906 H 564.4 0.222809 3.23534 0
M  V30 5907 H 564.185 1.99152 3.37758 0
M  V30 5908 H 565.675 1.21716 3.99468 0
M  V30 5909 N 566.112 -0.949982 1.2575 0
M  V30 5910 C 567.062 -2.03297 1.03221 0
M  V30 5911 C 568.046 -1.60867 -0.0324751 0
M  V30 5912 O 569.238 -1.76047 0.183423 0
M  V30 5913 C 566.367 -3.36938 0.657841 0
M  V30 5914 C 565.453 -3.85878 1.75952 0
M  V30 5915 N 565.844 -4.0756 2.99547 0
M  V30 5916 C 564.142 -4.14709 1.64111 0
M  V30 5917 C 564.843 -4.47961 3.71087 0
M  V30 5918 N 563.819 -4.5416 2.98731 0
M  V30 5919 H 567.621 -2.1806 1.97045 0
M  V30 5920 H 565.135 -1.13516 1.16138 0
M  V30 5921 H 567.132 -4.14155 0.477614 0
M  V30 5922 H 565.792 -3.2355 -0.273025 0
M  V30 5923 H 566.803 -3.94501 3.35544 0
M  V30 5924 H 563.48 -4.10158 0.779527 0
M  V30 5925 H 564.87 -4.73002 4.77199 0
M  V30 5926 N 567.59 -1.07411 -1.15328 0
M  V30 5927 C 569.001 -0.820261 -1.67716 0
M  V30 5928 C 569.352 0.654539 -1.8496 0
M  V30 5929 O 568.477 1.50664 -1.55337 0
M  V30 5930 C 569.072 -1.48242 -3.04647 0
M  V30 5931 C 567.631 -1.27606 -3.5411 0
M  V30 5932 C 566.778 -1.5517 -2.29821 0
M  V30 5933 H 569.729 -1.23608 -0.995332 0
M  V30 5934 H 569.75 -0.903984 -3.69606 0
M  V30 5935 H 569.262 -2.55578 -2.92064 0
M  V30 5936 H 567.363 -0.222948 -3.71932 0
M  V30 5937 H 567.476 -1.99667 -4.35511 0
M  V30 5938 H 565.84 -0.972747 -2.35393 0
M  V30 5939 H 566.623 -2.63689 -2.19824 0
M  V30 5940 N 569.068 1.32177 -0.85831 0
M  V30 5941 C 570.298 2.01021 -0.476889 0
M  V30 5942 C 570.706 1.64653 0.931995 0
M  V30 5943 O 570.049 0.865713 1.62022 0
M  V30 5944 C 570.111 3.55413 -0.540528 0
M  V30 5945 C 569.775 4.1522 -1.90895 0
M  V30 5946 C 570.772 4.3318 -2.87491 0
M  V30 5947 C 568.457 4.51212 -2.20709 0
M  V30 5948 C 570.451 4.86306 -4.1205 0
M  V30 5949 C 568.138 5.04042 -3.45521 0
M  V30 5950 C 569.136 5.21538 -4.41007 0
M  V30 5951 O 568.824 5.73238 -5.63608 0
M  V30 5952 H 568.556 0.650059 -0.18547 0
M  V30 5953 H 571.11 1.69648 -1.15796 0
M  V30 5954 H 569.34 3.86196 0.19741 0
M  V30 5955 H 571.029 4.05526 -0.174191 0
M  V30 5956 H 571.795 4.05704 -2.65762 0
M  V30 5957 H 567.674 4.36878 -1.4717 0
M  V30 5958 H 571.218 4.99877 -4.86589 0
M  V30 5959 H 567.115 5.30952 -3.67098 0
M  V30 5960 H 567.883 5.91625 -5.65617 0
M  V30 5961 N 570.547 0.616602 1.45037 0
M  V30 5962 C 571.796 0.112861 2.01384 0
M  V30 5963 C 572.109 -1.26758 1.48969 0
M  V30 5964 O 573.315 -1.86454 1.9735 0
M  V30 5965 C 571.771 0.151057 3.59583 0
M  V30 5966 C 571.379 1.53191 4.20995 0
M  V30 5967 C 573.123 -0.296974 4.2346 0
M  V30 5968 C 571.03 1.526 5.71373 0
M  V30 5969 H 569.96 0.0384254 0.75302 0
M  V30 5970 H 572.611 0.773262 1.66412 0
M  V30 5971 H 570.993 -0.57617 3.91786 0
M  V30 5972 H 572.167 2.28156 4.00352 0
M  V30 5973 H 570.482 1.92279 3.69348 0
M  V30 5974 H 573.079 -0.320712 5.33737 0
M  V30 5975 H 573.422 -1.32145 3.9477 0
M  V30 5976 H 573.955 0.377279 3.96007 0
M  V30 5977 H 570.694 2.52837 6.04776 0
M  V30 5978 H 570.214 0.819064 5.94181 0
M  V30 5979 H 571.893 1.25357 6.3474 0
M  V30 5980 N 572.025 -1.5352 0.356285 0
M  V30 5981 C 572.988 -2.24071 -0.482182 0
M  V30 5982 C 573.988 -1.24531 -1.01729 0
M  V30 5983 O 575.178 -1.48876 -0.904513 0
M  V30 5984 C 572.31 -2.97025 -1.67299 0
M  V30 5985 H 573.503 -2.99596 0.135031 0
M  V30 5986 H 571.056 -1.55928 0.107825 0
M  V30 5987 H 571.791 -2.25719 -2.32855 0
M  V30 5988 H 571.576 -3.7005 -1.29636 0
M  V30 5989 H 573.066 -3.50683 -2.26741 0
M  V30 5990 N 573.503 -0.0852151 -1.57369 0
M  V30 5991 C 574.466 0.8627 -2.12344 0
M  V30 5992 C 575.466 1.21746 -1.05046 0
M  V30 5993 O 576.656 1.14852 -1.30976 0
M  V30 5994 C 573.788 2.1618 -2.63589 0
M  V30 5995 H 574.981 0.385511 -2.97412 0
M  V30 5996 H 572.534 0.163663 -1.55441 0
M  V30 5997 H 573.269 2.68406 -1.82013 0
M  V30 5998 H 573.054 1.91723 -3.4203 0
M  V30 5999 H 574.544 2.84011 -3.06149 0
M  V30 6000 N 574.981 1.5647 0.188427 0
M  V30 6001 C 575.911 1.98101 1.23606 0
M  V30 6002 C 576.892 0.853961 1.47111 0
M  V30 6003 O 578.077 1.11879 1.58735 0
M  V30 6004 C 575.207 2.32624 2.57882 0
M  V30 6005 C 574.161 3.48129 2.48978 0
M  V30 6006 C 573.487 3.68347 3.87588 0
M  V30 6007 C 574.787 4.82112 2.00911 0
M  V30 6008 H 576.481 2.85864 0.890068 0
M  V30 6009 H 574.027 1.37532 0.426714 0
M  V30 6010 H 575.98 2.60343 3.3136 0
M  V30 6011 H 574.704 1.41751 2.94235 0
M  V30 6012 H 573.363 3.20511 1.77956 0
M  V30 6013 H 573.011 2.74793 4.21305 0
M  V30 6014 H 572.711 4.46055 3.82503 0
M  V30 6015 H 574.235 3.98449 4.62678 0
M  V30 6016 H 575.649 5.08819 2.64151 0
M  V30 6017 H 574.046 5.63337 2.06814 0
M  V30 6018 H 575.116 4.75249 0.96262 0
M  V30 6019 N 576.459 -0.456382 1.50847 0
M  V30 6020 C 577.689 -1.22848 1.66108 0
M  V30 6021 C 578.097 -1.85936 0.349897 0
M  V30 6022 O 577.44 -1.70664 -0.679665 0
M  V30 6023 C 577.502 -2.36722 2.70561 0
M  V30 6024 C 577.166 -1.94154 4.13707 0
M  V30 6025 C 578.163 -1.4557 4.99105 0
M  V30 6026 C 575.848 -2.02426 4.59705 0
M  V30 6027 C 577.842 -1.0582 6.28555 0
M  V30 6028 C 575.529 -1.62287 5.89157 0
M  V30 6029 C 576.527 -1.14064 6.73408 0
M  V30 6030 O 576.215 -0.744873 8.00442 0
M  V30 6031 H 575.947 -0.377105 0.561042 0
M  V30 6032 H 578.501 -0.549431 1.97915 0
M  V30 6033 H 576.731 -3.07844 2.34027 0
M  V30 6034 H 578.42 -2.98646 2.74892 0
M  V30 6035 H 579.186 -1.38589 4.64777 0
M  V30 6036 H 575.065 -2.38908 3.94264 0
M  V30 6037 H 578.609 -0.6811 6.94267 0
M  V30 6038 H 574.506 -1.68932 6.23003 0
M  V30 6039 H 575.274 -0.87242 8.13837 0
M  V30 6040 N 577.937 -1.40673 -0.710563 0
M  V30 6041 C 579.183 -1.4043 -1.47142 0
M  V30 6042 C 579.538 -0.00781557 -1.92398 0
M  V30 6043 O 578.831 0.963535 -1.6561 0
M  V30 6044 C 579.025 -2.33253 -2.70791 0
M  V30 6045 C 578.854 -3.81789 -2.37629 0
M  V30 6046 C 577.624 -4.5057 -2.28724 0
M  V30 6047 C 579.822 -4.73152 -2.01572 0
M  V30 6048 N 577.804 -5.84312 -1.88289 0
M  V30 6049 C 579.175 -5.95728 -1.71778 0
M  V30 6050 C 581.23 -4.6094 -1.88252 0
M  V30 6051 C 579.933 -7.07454 -1.30003 0
M  V30 6052 C 581.959 -5.72613 -1.47881 0
M  V30 6053 C 581.321 -6.94278 -1.18987 0
M  V30 6054 H 577.42 -0.569115 -0.536314 0
M  V30 6055 H 580.004 -1.76425 -0.823547 0
M  V30 6056 H 578.175 -1.99378 -3.33321 0
M  V30 6057 H 579.907 -2.23833 -3.37166 0
M  V30 6058 H 576.662 -4.04315 -2.46629 0
M  V30 6059 H 577.086 -6.55153 -1.70596 0
M  V30 6060 H 581.728 -3.67389 -2.09249 0
M  V30 6061 H 579.446 -8.00884 -1.07749 0
M  V30 6062 H 583.032 -5.65161 -1.38145 0
M  V30 6063 H 581.912 -7.79222 -0.88219 0
M  V30 6064 N 579.415 0.9433 -1.26252 0
M  V30 6065 C 580.663 1.68592 -1.11451 0
M  V30 6066 C 580.984 1.91957 0.343123 0
M  V30 6067 O 580.254 1.51475 1.24226 0
M  V30 6068 H 578.834 0.624789 -0.409448 0
M  V30 6069 H 581.496 1.13351 -1.58548 0
M  V30 6070 H 580.592 2.66054 -1.63162 0
M  V30 6071 N 580.893 1.08022 1.14757 0
M  V30 6072 C 581.843 0.676345 2.17737 0
M  V30 6073 C 582.827 -0.302018 1.5804 0
M  V30 6074 O 584.019 -0.11466 1.76628 0
M  V30 6075 C 581.148 0.082984 3.432 0
M  V30 6076 C 580.234 1.0869 4.09936 0
M  V30 6077 N 580.625 2.26891 4.52055 0
M  V30 6078 C 578.923 0.921768 4.36371 0
M  V30 6079 C 579.624 2.90636 5.0389 0
M  V30 6080 N 578.6 2.18266 4.97856 0
M  V30 6081 H 582.402 1.5765 2.4804 0
M  V30 6082 H 579.916 0.954374 1.31398 0
M  V30 6083 H 581.913 -0.224289 4.16296 0
M  V30 6084 H 580.573 -0.812206 3.14378 0
M  V30 6085 H 581.584 2.6457 4.45223 0
M  V30 6086 H 578.261 0.0800499 4.17423 0
M  V30 6087 H 579.651 3.9104 5.46386 0
M  V30 6088 N 582.371 -1.3172 0.865308 0
M  V30 6089 C 583.596 -2.01591 0.487415 0
M  V30 6090 C 584.021 -1.6455 -0.911307 0
M  V30 6091 O 583.379 -0.851689 -1.6005 0
M  V30 6092 C 583.427 -3.54759 0.646401 0
M  V30 6093 O 582.531 -4.11185 -0.316284 0
M  V30 6094 H 581.872 -0.634884 0.194468 0
M  V30 6095 H 584.402 -1.68024 1.16744 0
M  V30 6096 H 584.412 -4.04438 0.537932 0
M  V30 6097 H 583.087 -3.8106 1.66632 0
M  V30 6098 H 581.664 -3.72543 -0.163162 0
M  V30 6099 N 583.85 -0.624285 -1.44708 0
M  V30 6100 C 585.096 -0.126051 -2.02107 0
M  V30 6101 C 585.425 1.2496 -1.49048 0
M  V30 6102 O 584.68 1.84163 -0.662005 0
M  V30 6103 C 584.979 -0.0546353 -3.57358 0
M  V30 6104 C 584.644 -1.36815 -4.29642 0
M  V30 6105 C 583.307 -1.72792 -4.49106 0
M  V30 6106 C 585.659 -2.23549 -4.70824 0
M  V30 6107 C 582.986 -2.95222 -5.07012 0
M  V30 6108 C 585.339 -3.45243 -5.30085 0
M  V30 6109 C 584.003 -3.81452 -5.47769 0
M  V30 6110 H 583.273 -0.0461252 -0.739563 0
M  V30 6111 H 585.92 -0.809236 -1.73562 0
M  V30 6112 H 584.225 0.711891 -3.85278 0
M  V30 6113 H 585.922 0.347282 -3.99493 0
M  V30 6114 H 582.512 -1.07817 -4.14817 0
M  V30 6115 H 586.696 -1.9705 -4.55505 0
M  V30 6116 H 581.952 -3.23361 -5.18891 0
M  V30 6117 H 586.125 -4.12689 -5.60946 0
M  V30 6118 H 583.753 -4.76403 -5.92405 0
M  V30 6119 N 585.328 1.53329 -0.364422 0
M  V30 6120 C 586.568 2.0315 0.22572 0
M  V30 6121 C 586.932 1.24589 1.46087 0
M  V30 6122 O 588.133 1.64411 2.12656 0
M  V30 6123 C 586.404 3.53718 0.511663 0
M  V30 6124 S 587.963 4.25412 1.07564 0
M  V30 6125 H 584.781 0.70795 0.0657843 0
M  V30 6126 H 587.383 1.88811 -0.507019 0
M  V30 6127 H 586.087 4.08497 -0.394784 0
M  V30 6128 H 585.618 3.72217 1.27351 0
M  V30 6129 H 587.633 4.36486 2.35997 0
M  V30 6130 N 586.806 0.0935595 1.57322 0
M  V30 6131 C 587.769 -0.851426 2.12799 0
M  V30 6132 C 588.769 -1.21187 1.0569 0
M  V30 6133 O 589.959 -1.14156 1.31583 0
M  V30 6134 C 587.091 -2.14779 2.64731 0
M  V30 6135 H 588.284 -0.369733 2.97612 0
M  V30 6136 H 585.837 -0.155417 1.55525 0
M  V30 6137 H 586.572 -2.67437 1.83434 0
M  V30 6138 H 586.357 -1.89907 3.43042 0
M  V30 6139 H 587.847 -2.82383 3.07651 0
M  V30 6140 N 588.284 -1.56567 -0.180126 0
M  V30 6141 C 589.532 -1.81133 -0.896392 0
M  V30 6142 C 589.853 -0.669114 -1.83161 0
M  V30 6143 O 589.123 0.311616 -1.93406 0
M  V30 6144 H 587.703 -0.668172 -0.333999 0
M  V30 6145 H 590.365 -1.94048 -0.182051 0
M  V30 6146 H 589.461 -2.74854 -1.47857 0
M  V30 6147 N 589.762 0.448376 -1.51087 0
M  V30 6148 C 590.987 1.22605 -1.6728 0
M  V30 6149 C 591.412 1.84524 -0.365045 0
M  V30 6150 O 590.77 1.6832 0.673642 0
M  V30 6151 C 590.818 2.29393 -2.78229 0
M  V30 6152 O 589.922 3.34608 -2.41063 0
M  V30 6153 H 589.263 0.359705 -0.558129 0
M  V30 6154 H 591.793 0.530903 -1.97592 0
M  V30 6155 H 591.803 2.74352 -3.01986 0
M  V30 6156 H 590.478 1.83701 -3.73131 0
M  V30 6157 H 589.055 2.95202 -2.27838 0
M  V30 6158 N 591.24 1.41047 0.703093 0
M  V30 6159 C 592.17 1.45067 1.82969 0
M  V30 6160 C 593.151 0.31016 1.67248 0
M  V30 6161 O 594.336 0.520548 1.87093 0
M  V30 6162 C 591.466 1.32478 3.2104 0
M  V30 6163 C 590.42 2.44262 3.51454 0
M  V30 6164 C 589.746 2.16742 4.88801 0
M  V30 6165 C 591.046 3.86606 3.51189 0
M  V30 6166 H 592.74 2.39353 1.79863 0
M  V30 6167 H 590.286 1.15206 0.863919 0
M  V30 6168 H 592.239 1.33904 3.99559 0
M  V30 6169 H 590.963 0.346735 3.24754 0
M  V30 6170 H 589.622 2.42107 2.75282 0
M  V30 6171 H 589.27 1.17299 4.89132 0
M  V30 6172 H 588.97 2.91643 5.10116 0
M  V30 6173 H 590.494 2.19872 5.69639 0
M  V30 6174 H 591.908 3.90517 4.19725 0
M  V30 6175 H 590.305 4.61128 3.84033 0
M  V30 6176 H 591.375 4.15296 2.50315 0
M  V30 6177 N 592.718 -0.936591 1.26751 0
M  V30 6178 C 593.967 -1.67778 1.11953 0
M  V30 6179 C 594.28 -1.92694 -0.33589 0
M  V30 6180 O 595.486 -2.64682 -0.604618 0
M  V30 6181 C 593.942 -3.02138 1.95551 0
M  V30 6182 C 593.55 -2.84953 3.45696 0
M  V30 6183 C 595.294 -3.79917 1.89377 0
M  V30 6184 C 593.201 -4.14814 4.21525 0
M  V30 6185 H 592.131 -0.629275 0.415366 0
M  V30 6186 H 594.782 -1.04122 1.51099 0
M  V30 6187 H 593.164 -3.668 1.49243 0
M  V30 6188 H 594.338 -2.29112 3.99805 0
M  V30 6189 H 592.653 -2.20612 3.53156 0
M  V30 6190 H 595.25 -4.76134 2.43312 0
M  V30 6191 H 595.593 -4.07204 0.865464 0
M  V30 6192 H 596.126 -3.22037 2.33532 0
M  V30 6193 H 592.865 -3.92709 5.24843 0
M  V30 6194 H 592.385 -4.70352 3.72195 0
M  V30 6195 H 594.064 -4.83239 4.3022 0
M  V30 6196 N 594.196 -1.08629 -1.14182 0
M  V30 6197 C 595.159 -0.722027 -2.1753 0
M  V30 6198 C 596.159 0.244305 -1.58933 0
M  V30 6199 O 597.349 0.0235545 -1.74184 0
M  V30 6200 C 594.481 -0.0663966 -3.40835 0
M  V30 6201 H 595.674 -1.63719 -2.51269 0
M  V30 6202 H 593.227 -0.884442 -1.28869 0
M  V30 6203 H 593.962 0.860389 -3.12678 0
M  V30 6204 H 593.747 -0.761598 -3.84632 0
M  V30 6205 H 595.237 0.173346 -4.1724 0
M  V30 6206 N 595.674 1.31259 -0.872281 0
M  V30 6207 C 597.085 1.78822 -0.536617 0
M  V30 6208 C 597.436 1.71855 0.946594 0
M  V30 6209 O 596.561 1.28769 1.73918 0
M  V30 6210 C 597.156 3.24698 -0.967294 0
M  V30 6211 C 595.715 3.70147 -0.683251 0
M  V30 6212 C 594.862 2.51994 -1.15733 0
M  V30 6213 H 597.813 1.18308 -1.05777 0
M  V30 6214 H 597.834 3.79386 -0.290929 0
M  V30 6215 H 597.346 3.29737 -2.04683 0
M  V30 6216 H 595.447 3.70607 0.384825 0
M  V30 6217 H 595.56 4.62183 -1.2619 0
M  V30 6218 H 593.924 2.48078 -0.577024 0
M  V30 6219 H 594.707 2.59778 -2.24434 0
M  V30 6220 N 597.152 0.631951 1.44375 0
M  V30 6221 C 598.392 0.14009 2.03919 0
M  V30 6222 C 598.756 -1.21534 1.48639 0
M  V30 6223 O 599.957 -1.79936 1.99691 0
M  V30 6224 C 598.228 0.127174 3.57174 0
M  V30 6225 S 599.787 -0.299946 4.37774 0
M  V30 6226 H 596.605 0.0614891 0.708336 0
M  V30 6227 H 599.207 0.835524 1.76746 0
M  V30 6228 H 597.911 1.11676 3.94913 0
M  V30 6229 H 597.442 -0.589482 3.88958 0
M  V30 6230 H 599.457 -1.54396 4.71568 0
M  V30 6231 N 598.631 -1.53133 0.372548 0
M  V30 6232 C 599.877 -2.02336 -0.207823 0
M  V30 6233 C 600.232 -1.25477 -1.45853 0
M  V30 6234 O 599.525 -0.341971 -1.88524 0
M  V30 6235 C 599.719 -3.53206 -0.545938 0
M  V30 6236 C 599.548 -4.44674 0.670454 0
M  V30 6237 C 598.318 -4.91217 1.18465 0
M  V30 6238 C 600.516 -4.90772 1.53777 0
M  V30 6239 N 598.498 -5.66711 2.36034 0
M  V30 6240 C 599.869 -5.64678 2.56004 0
M  V30 6241 C 601.924 -4.72836 1.55983 0
M  V30 6242 C 600.627 -6.22555 3.60303 0
M  V30 6243 C 602.653 -5.31583 2.59179 0
M  V30 6244 C 602.015 -6.05381 3.6013 0
M  V30 6245 H 598.114 -0.781048 -0.0385783 0
M  V30 6246 H 600.698 -1.87665 0.518664 0
M  V30 6247 H 598.869 -3.68024 -1.24149 0
M  V30 6248 H 600.601 -3.89123 -1.112 0
M  V30 6249 H 597.356 -4.67652 0.748205 0
M  V30 6250 H 597.78 -6.09117 2.95475 0
M  V30 6251 H 602.422 -4.15299 0.792877 0
M  V30 6252 H 600.14 -6.79183 4.37876 0
M  V30 6253 H 603.726 -5.19595 2.61749 0
M  V30 6254 H 602.606 -6.50028 4.38672 0
M  V30 6255 N 600.109 -0.101901 -1.5727 0
M  V30 6256 C 601.355 0.561027 -1.94885 0
M  V30 6257 C 601.688 1.6741 -0.984258 0
M  V30 6258 O 600.963 1.94491 -0.0184767 0
M  V30 6259 C 601.246 1.10982 -3.42571 0
M  V30 6260 C 601.099 0.00133418 -4.498 0
M  V30 6261 C 602.418 2.00608 -3.9172 0
M  V30 6262 H 599.537 0.202467 -0.708644 0
M  V30 6263 H 602.179 -0.173992 -1.89202 0
M  V30 6264 H 600.329 1.73621 -3.47546 0
M  V30 6265 H 602.001 -0.63322 -4.56933 0
M  V30 6266 H 600.244 -0.664143 -4.28686 0
M  V30 6267 H 600.915 0.426253 -5.50352 0
M  V30 6268 H 603.391 1.47864 -3.88941 0
M  V30 6269 H 602.267 2.3593 -4.95609 0
M  V30 6270 H 602.528 2.92608 -3.3141 0
M  V30 6271 N 601.587 1.56661 0.17182 0
M  V30 6272 C 602.517 1.99401 1.21498 0
M  V30 6273 C 603.498 0.869516 1.46197 0
M  V30 6274 O 604.683 1.13556 1.57539 0
M  V30 6275 C 601.813 2.35346 2.55401 0
M  V30 6276 C 600.767 3.5075 2.45272 0
M  V30 6277 C 600.093 3.72437 3.8366 0
M  V30 6278 C 601.393 4.84216 1.95787 0
M  V30 6279 H 603.087 2.86792 0.859699 0
M  V30 6280 H 600.633 1.37977 0.412103 0
M  V30 6281 H 602.586 2.63843 3.2858 0
M  V30 6282 H 601.31 1.44864 2.92715 0
M  V30 6283 H 599.969 3.2238 1.74547 0
M  V30 6284 H 599.617 2.79246 4.18367 0
M  V30 6285 H 599.317 4.50087 3.77751 0
M  V30 6286 H 600.841 4.03334 4.58426 0
M  V30 6287 H 602.255 5.11592 2.5874 0
M  V30 6288 H 600.652 5.65498 2.00827 0
M  V30 6289 H 601.722 4.76243 0.912159 0
M  V30 6290 N 603.065 -0.440357 1.51323 0
M  V30 6291 C 604.293 -1.21255 1.67645 0
M  V30 6292 C 604.708 -1.85088 0.37252 0
M  V30 6293 O 604.065 -1.70582 -0.648683 0
M  V30 6294 C 604.116 -2.29881 2.78993 0
M  V30 6295 O 603.837 -1.68659 4.04334 0
M  V30 6296 C 605.338 -3.20214 3.06558 0
M  V30 6297 H 602.558 -0.36558 0.562666 0
M  V30 6298 H 605.102 -0.52214 1.97722 0
M  V30 6299 H 603.257 -2.94643 2.51524 0
M  V30 6300 H 603.671 -2.40426 4.6615 0
M  V30 6301 H 605.145 -3.92575 3.88058 0
M  V30 6302 H 605.622 -3.80794 2.18844 0
M  V30 6303 H 606.228 -2.61156 3.35675 0
M  V30 6304 N 604.543 -1.41418 -0.695603 0
M  V30 6305 C 605.506 -1.42988 -1.79129 0
M  V30 6306 C 606.506 -0.320514 -1.57573 0
M  V30 6307 O 607.696 -0.58039 -1.64247 0
M  V30 6308 C 604.828 -1.24122 -3.175 0
M  V30 6309 H 606.021 -2.40526 -1.7913 0
M  V30 6310 H 603.574 -1.2756 -0.903225 0
M  V30 6311 H 604.309 -0.274253 -3.23138 0
M  V30 6312 H 604.094 -2.045 -3.34547 0
M  V30 6313 H 605.584 -1.28056 -3.97481 0
M  V30 6314 N 606.021 0.929856 -1.27246 0
M  V30 6315 C 606.984 2.01172 -1.09829 0
M  V30 6316 C 607.984 1.60743 -0.0429687 0
M  V30 6317 O 609.174 1.71813 -0.287373 0
M  V30 6318 C 606.306 3.34191 -0.673003 0
M  V30 6319 H 607.499 2.18054 -2.05895 0
M  V30 6320 H 605.052 1.11036 -1.10003 0
M  V30 6321 H 605.787 3.23009 0.289134 0
M  V30 6322 H 605.572 3.64892 -1.43515 0
M  V30 6323 H 607.062 4.13646 -0.573323 0
M  V30 6324 N 607.499 1.09233 1.13605 0
M  V30 6325 C 608.449 0.6994 2.17008 0
M  V30 6326 C 609.433 -0.285238 1.58352 0
M  V30 6327 O 610.625 -0.09592 1.7674 0
M  V30 6328 C 607.754 0.11938 3.43092 0
M  V30 6329 C 606.84 1.13031 4.0876 0
M  V30 6330 N 607.231 2.31673 4.49623 0
M  V30 6331 C 605.529 0.967999 4.35369 0
M  V30 6332 C 606.23 2.95964 5.00779 0
M  V30 6333 N 605.206 2.23534 4.95513 0
M  V30 6334 H 609.008 1.60272 2.46354 0
M  V30 6335 H 606.522 0.968257 1.30378 0
M  V30 6336 H 608.519 -0.180122 4.16511 0
M  V30 6337 H 607.179 -0.778816 3.15221 0
M  V30 6338 H 608.19 2.69277 4.42391 0
M  V30 6339 H 604.867 0.124319 4.17315 0
M  V30 6340 H 606.257 3.96813 5.42208 0
M  V30 6341 N 608.977 -1.30795 0.87923 0
M  V30 6342 C 610.217 -1.98155 0.50141 0
M  V30 6343 C 610.581 -1.67925 -0.930863 0
M  V30 6344 O 611.782 -2.28572 -1.41451 0
M  V30 6345 C 610.053 -3.49184 0.761937 0
M  V30 6346 S 611.612 -4.36107 0.485361 0
M  V30 6347 H 608.43 -0.686025 0.186792 0
M  V30 6348 H 611.032 -1.59018 1.13726 0
M  V30 6349 H 609.736 -3.68676 1.80295 0
M  V30 6350 H 609.267 -3.93236 0.113432 0
M  V30 6351 H 611.282 -4.9154 -0.678467 0
M  V30 6352 N 610.455 -0.639598 -1.44038 0
M  V30 6353 C 611.385 0.0469443 -2.33453 0
M  V30 6354 C 612.366 0.82609 -1.48694 0
M  V30 6355 O 613.551 0.790285 -1.77393 0
M  V30 6356 C 610.681 1.02338 -3.3188 0
M  V30 6357 C 609.635 0.355284 -4.26523 0
M  V30 6358 C 608.961 1.44221 -5.14883 0
M  V30 6359 C 610.261 -0.743798 -5.16977 0
M  V30 6360 H 611.955 -0.699735 -2.91108 0
M  V30 6361 H 609.501 -0.337946 -1.39978 0
M  V30 6362 H 611.454 1.51247 -3.93322 0
M  V30 6363 H 610.178 1.80105 -2.72451 0
M  V30 6364 H 608.837 -0.113239 -3.66425 0
M  V30 6365 H 608.485 2.21097 -4.51802 0
M  V30 6366 H 608.185 1.00052 -5.79019 0
M  V30 6367 H 609.709 1.93295 -5.79197 0
M  V30 6368 H 611.123 -0.337444 -5.72306 0
M  V30 6369 H 609.52 -1.10914 -5.89761 0
M  V30 6370 H 610.59 -1.60745 -4.57481 0
M  V30 6371 N 611.933 1.52934 -0.380664 0
M  V30 6372 C 612.865 2.23822 0.493581 0
M  V30 6373 C 613.878 1.25761 1.03383 0
M  V30 6374 O 615.067 1.5189 0.937633 0
M  V30 6375 C 612.167 2.9342 1.69582 0
M  V30 6376 C 611.34 4.18115 1.28445 0
M  V30 6377 C 610.399 4.70788 2.35042 0
M  V30 6378 O 609.425 5.34093 1.96807 0
M  V30 6379 N 610.627 4.49899 3.66839 0
M  V30 6380 H 613.392 2.99484 -0.11371 0
M  V30 6381 H 610.953 1.60577 -0.206587 0
M  V30 6382 H 612.945 3.2556 2.40401 0
M  V30 6383 H 611.515 2.21119 2.20965 0
M  V30 6384 H 610.735 3.92109 0.405503 0
M  V30 6385 H 612.023 4.99152 0.986132 0
M  V30 6386 H 611.421 3.99349 4.0067 0
M  V30 6387 H 609.978 4.86551 4.33718 0
M  V30 6388 N 613.412 0.11024 1.57214 0
M  V30 6389 C 614.689 -0.592956 1.86396 0
M  V30 6390 C 615.069 -1.85379 1.00985 0
M  V30 6391 O 614.417 -2.28337 0.0863592 0
M  V30 6392 C 614.627 -0.893816 3.3736 0
M  V30 6393 C 615.975 -1.25069 4.05762 0
M  V30 6394 O 616.999 -0.984356 3.42329 0
M  V30 6395 O 615.858 -1.75017 5.17718 0
M  V30 6396 H 612.952 -0.29828 0.771335 0
M  V30 6397 H 615.498 0.144083 1.69087 0
M  V30 6398 H 614.27 2.6031e-05 3.913 0
M  V30 6399 H 613.893 -1.68631 3.60068 0
M  V30 6400 N 614.89 -1.56749 -0.16351 0
M  V30 6401 C 616.306 -1.51043 -0.515567 0
M  V30 6402 C 616.506 -0.815855 -1.84245 0
M  V30 6403 O 615.562 -0.379477 -2.49632 0
M  V30 6404 C 616.875 -2.95791 -0.541114 0
M  V30 6405 C 618.423 -3.0664 -0.627776 0
M  V30 6406 C 618.898 -4.52861 -0.684141 0
M  V30 6407 N 620.389 -4.5714 -0.746818 0
M  V30 6408 C 621.124 -5.67634 -0.811137 0
M  V30 6409 N 620.62 -6.8774 -0.835811 0
M  V30 6410 N 622.413 -5.55624 -0.850756 0
M  V30 6411 H 614.564 -2.00307 0.70645 0
M  V30 6412 H 616.827 -0.912876 0.255659 0
M  V30 6413 H 616.533 -3.49797 0.365329 0
M  V30 6414 H 616.407 -3.50858 -1.38487 0
M  V30 6415 H 618.794 -2.52663 -1.52464 0
M  V30 6416 H 618.875 -2.54645 0.242805 0
M  V30 6417 H 618.519 -5.07472 0.2085 0
M  V30 6418 H 618.449 -5.02621 -1.57098 0
M  V30 6419 H 620.94 -3.70669 -0.735717 0
M  V30 6420 H 621.253 -7.67701 -0.886279 0
M  V30 6421 H 619.598 -6.90334 -0.803958 0
M  V30 6422 H 622.789 -4.60709 -0.828535 0
M  V30 6423 H 622.962 -6.41756 -0.897418 0
M  V30 6424 N 616.368 0.432326 -1.51554 0
M  V30 6425 C 617.779 1.01202 -1.56892 0
M  V30 6426 C 618.13 1.92175 -0.395394 0
M  V30 6427 O 617.255 2.10844 0.487198 0
M  V30 6428 C 617.85 1.84217 -2.8434 0
M  V30 6429 C 616.409 2.37228 -2.92233 0
M  V30 6430 C 615.556 1.16576 -2.51606 0
M  V30 6431 H 618.507 0.213407 -1.57259 0
M  V30 6432 H 618.528 2.69721 -2.68385 0
M  V30 6433 H 618.04 1.17979 -3.69733 0
M  V30 6434 H 616.141 3.06905 -2.11282 0
M  V30 6435 H 616.254 2.69682 -3.95991 0
M  V30 6436 H 614.618 1.51263 -2.04919 0
M  V30 6437 H 615.401 0.519404 -3.39348 0
M  V30 6438 N 617.846 1.41785 0.688094 0
M  V30 6439 C 618.809 1.43936 1.78368 0
M  V30 6440 C 619.809 0.328866 1.57401 0
M  V30 6441 O 620.999 0.589093 1.63937 0
M  V30 6442 C 618.131 1.25804 3.16838 0
M  V30 6443 H 619.324 2.41472 1.77852 0
M  V30 6444 H 616.877 1.28037 0.896448 0
M  V30 6445 H 617.612 0.291386 3.22988 0
M  V30 6446 H 617.397 2.06272 3.33458 0
M  V30 6447 H 618.887 1.30162 3.96797 0
M  V30 6448 N 619.324 -0.923095 1.27737 0
M  V30 6449 C 620.735 -1.48626 1.12993 0
M  V30 6450 C 621.086 -1.94142 -0.283439 0
M  V30 6451 O 620.211 -1.81605 -1.17681 0
M  V30 6452 C 620.806 -2.70117 2.04505 0
M  V30 6453 C 619.365 -3.22642 1.93853 0
M  V30 6454 C 618.512 -1.95368 1.96791 0
M  V30 6455 H 621.463 -0.736737 1.40563 0
M  V30 6456 H 621.484 -3.4506 1.60356 0
M  V30 6457 H 620.996 -2.36959 3.07363 0
M  V30 6458 H 619.097 -3.60549 0.939968 0
M  V30 6459 H 619.21 -3.88525 2.80331 0
M  V30 6460 H 617.574 -2.12061 1.41076 0
M  V30 6461 H 618.357 -1.64517 3.01312 0
M  V30 6462 N 620.802 -1.09834 -1.13024 0
M  V30 6463 C 621.712 -0.753731 -2.22162 0
M  V30 6464 C 622.728 0.246105 -1.72251 0
M  V30 6465 O 623.904 0.0864051 -2.01215 0
M  V30 6466 C 620.969 -0.183958 -3.46212 0
M  V30 6467 C 620.03 -1.24028 -4.10993 0
M  V30 6468 C 619.263 -0.697597 -5.29121 0
M  V30 6469 O 619.486 0.478092 -5.68393 0
M  V30 6470 O 618.42 -1.4546 -5.84059 0
M  V30 6471 H 622.246 -1.66456 -2.5402 0
M  V30 6472 H 619.831 -0.873026 -1.21238 0
M  V30 6473 H 621.713 0.130257 -4.21199 0
M  V30 6474 H 620.388 0.699823 -3.16045 0
M  V30 6475 H 619.295 -1.60725 -3.37814 0
M  V30 6476 H 620.628 -2.09685 -4.45301 0
M  V30 6477 N 622.28 1.30327 -0.886154 0
M  V30 6478 C 623.557 1.90922 -0.425217 0
M  V30 6479 C 623.937 1.80533 1.09413 0
M  V30 6480 O 623.285 1.2233 1.92996 0
M  V30 6481 C 623.495 3.36529 -0.924638 0
M  V30 6482 C 624.843 4.13598 -0.960305 0
M  V30 6483 O 625.867 3.45377 -0.871382 0
M  V30 6484 O 624.726 5.35482 -1.09184 0
M  V30 6485 H 621.82 0.81668 -0.130238 0
M  V30 6486 H 624.366 1.38886 -0.975132 0
M  V30 6487 H 623.138 3.38181 -1.96849 0
M  V30 6488 H 622.761 3.96021 -0.353955 0
M  V30 6489 N 623.758 0.647228 1.43697 0
M  V30 6490 C 624.688 -0.0345631 2.33474 0
M  V30 6491 C 625.669 -0.818193 1.4913 0
M  V30 6492 O 626.854 -0.780867 1.77809 0
M  V30 6493 C 623.984 -1.00576 3.32418 0
M  V30 6494 C 622.938 -0.33266 4.26705 0
M  V30 6495 C 622.264 -1.41489 5.1564 0
M  V30 6496 C 623.564 0.771204 5.16575 0
M  V30 6497 H 625.258 0.715163 2.90733 0
M  V30 6498 H 622.804 0.345364 1.39797 0
M  V30 6499 H 624.757 -1.49159 3.94119 0
M  V30 6500 H 623.481 -1.78657 2.73403 0
M  V30 6501 H 622.14 0.13267 3.6636 0
M  V30 6502 H 621.788 -2.18698 4.52968 0
M  V30 6503 H 621.488 -0.969799 5.79542 0
M  V30 6504 H 623.012 -1.9022 5.80214 0
M  V30 6505 H 624.426 0.36779 5.72119 0
M  V30 6506 H 622.823 1.1404 5.89165 0
M  V30 6507 H 623.893 1.63169 4.56622 0
M  V30 6508 N 625.236 -1.5273 0.388769 0
M  V30 6509 C 626.464 -2.05992 -0.193677 0
M  V30 6510 C 626.879 -1.26053 -1.40557 0
M  V30 6511 O 626.236 -0.307049 -1.79898 0
M  V30 6512 C 626.287 -3.57068 -0.564321 0
M  V30 6513 O 626.008 -4.3398 0.599422 0
M  V30 6514 C 627.509 -4.26674 -1.20269 0
M  V30 6515 H 624.729 -0.670358 -0.0293445 0
M  V30 6516 H 627.273 -1.96857 0.553844 0
M  V30 6517 H 625.428 -3.66277 -1.26174 0
M  V30 6518 H 625.842 -5.2367 0.294895 0
M  V30 6519 H 627.316 -5.33625 -1.4124 0
M  V30 6520 H 627.793 -3.81854 -2.16989 0
M  V30 6521 H 628.399 -4.2178 -0.546047 0
M  V30 6522 N 626.714 -0.118576 -1.57153 0
M  V30 6523 C 627.96 0.540326 -1.95469 0
M  V30 6524 C 628.293 1.66356 -1.00196 0
M  V30 6525 O 627.568 1.94461 -0.039104 0
M  V30 6526 C 627.851 1.07342 -3.43729 0
M  V30 6527 C 627.704 -0.0463732 -4.49776 0
M  V30 6528 C 629.023 1.96442 -3.93826 0
M  V30 6529 H 626.142 0.19494 -0.710751 0
M  V30 6530 H 628.784 -0.19405 -1.89006 0
M  V30 6531 H 626.934 1.69925 -3.49368 0
M  V30 6532 H 628.606 -0.681648 -4.56236 0
M  V30 6533 H 626.849 -0.709574 -4.27957 0
M  V30 6534 H 627.52 0.367856 -5.50773 0
M  V30 6535 H 629.996 1.43731 -3.90488 0
M  V30 6536 H 628.872 2.3066 -4.98084 0
M  V30 6537 H 629.133 2.89077 -3.34495 0
M  V30 6538 N 628.193 1.56834 0.155195 0
M  V30 6539 C 629.439 1.83169 0.870467 0
M  V30 6540 C 629.772 0.698929 1.81187 0
M  V30 6541 O 629.047 -0.298035 1.92203 0
M  V30 6542 C 629.33 3.19965 1.65211 0
M  V30 6543 C 629.183 4.43792 0.732744 0
M  V30 6544 C 630.502 3.53885 2.61636 0
M  V30 6545 H 627.621 0.666288 0.315006 0
M  V30 6546 H 630.263 1.89513 0.135988 0
M  V30 6547 H 628.413 3.14687 2.27825 0
M  V30 6548 H 630.085 4.61148 0.118236 0
M  V30 6549 H 628.328 4.3378 0.0417906 0
M  V30 6550 H 628.999 5.36095 1.31552 0
M  V30 6551 H 631.475 3.5972 2.09143 0
M  V30 6552 H 630.351 4.50648 3.13381 0
M  V30 6553 H 630.612 2.79418 3.42605 0
M  V30 6554 N 629.671 -0.424282 1.51781 0
M  V30 6555 C 630.601 -1.52305 1.7699 0
M  V30 6556 C 631.582 -1.5839 0.620209 0
M  V30 6557 O 632.767 -1.73908 0.864268 0
M  V30 6558 C 629.897 -2.90271 1.90683 0
M  V30 6559 C 628.851 -2.99043 3.06198 0
M  V30 6560 C 628.177 -4.39116 3.05092 0
M  V30 6561 C 629.477 -2.7192 4.45934 0
M  V30 6562 H 631.171 -1.31461 2.68995 0
M  V30 6563 H 628.717 -0.630985 1.29439 0
M  V30 6564 H 630.67 -3.6711 2.06901 0
M  V30 6565 H 629.394 -3.12376 0.953365 0
M  V30 6566 H 628.053 -2.24646 2.89706 0
M  V30 6567 H 627.701 -4.58207 2.07498 0
M  V30 6568 H 627.401 -4.45912 3.82669 0
M  V30 6569 H 628.925 -5.17911 3.2342 0
M  V30 6570 H 630.339 -3.38487 4.62709 0
M  V30 6571 H 628.736 -2.90111 5.25315 0
M  V30 6572 H 629.806 -1.67445 4.55072 0
M  V30 6573 N 631.149 -1.42148 -0.680565 0
M  V30 6574 C 632.397 -1.42029 -1.43779 0
M  V30 6575 C 632.718 -0.0356347 -1.94967 0
M  V30 6576 O 631.988 0.924936 -1.7269 0
M  V30 6577 H 630.568 -0.522835 -0.533529 0
M  V30 6578 H 633.23 -1.7752 -0.804538 0
M  V30 6579 H 632.326 -2.11658 -2.29363 0
M  V30 6580 N 632.627 0.916307 -1.28225 0
M  V30 6581 C 633.559 2.02303 -1.07732 0
M  V30 6582 C 634.572 1.62773 -0.0298421 0
M  V30 6583 O 635.761 1.76406 -0.272626 0
M  V30 6584 C 632.861 3.33282 -0.614504 0
M  V30 6585 C 632.034 4.01439 -1.73682 0
M  V30 6586 C 631.093 5.10698 -1.26781 0
M  V30 6587 O 630.119 5.34038 -1.96958 0
M  V30 6588 N 631.321 5.80355 -0.129624 0
M  V30 6589 H 634.086 2.20442 -2.03041 0
M  V30 6590 H 631.647 1.08744 -1.19943 0
M  V30 6591 H 633.639 4.03699 -0.284397 0
M  V30 6592 H 632.209 3.11633 0.245664 0
M  V30 6593 H 631.429 3.24604 -2.23665 0
M  V30 6594 H 632.717 4.43721 -2.48976 0
M  V30 6595 H 632.115 5.6386 0.455847 0
M  V30 6596 H 630.672 6.51647 0.141224 0
M  V30 6597 N 634.105 1.10431 1.1244 0
M  V30 6598 C 635.015 0.765502 2.21759 0
M  V30 6599 C 636.031 -0.236966 1.72379 0
M  V30 6600 O 637.207 -0.0757329 2.01258 0
M  V30 6601 C 634.272 0.202316 3.46109 0
M  V30 6602 C 633.333 1.26205 4.1033 0
M  V30 6603 C 632.566 0.725648 5.28744 0
M  V30 6604 O 632.789 -0.447942 5.68638 0
M  V30 6605 O 631.723 1.48555 5.83279 0
M  V30 6606 H 635.549 1.67801 2.53133 0
M  V30 6607 H 633.134 0.879443 1.20773 0
M  V30 6608 H 635.016 -0.107918 4.21262 0
M  V30 6609 H 633.691 -0.683052 3.16411 0
M  V30 6610 H 632.598 1.62514 3.36957 0
M  V30 6611 H 633.931 2.12044 4.44183 0
M  V30 6612 N 635.583 -1.29855 0.893053 0
M  V30 6613 C 636.999 -1.48366 0.588199 0
M  V30 6614 C 637.199 -1.81654 -0.872018 0
M  V30 6615 O 636.255 -1.909 -1.65268 0
M  V30 6616 C 637.568 -2.60136 1.5083 0
M  V30 6617 C 639.116 -2.74014 1.51279 0
M  V30 6618 C 639.591 -3.88905 2.41902 0
M  V30 6619 N 641.082 -3.96228 2.39911 0
M  V30 6620 C 641.817 -4.84458 3.06738 0
M  V30 6621 N 641.313 -5.77426 3.8282 0
M  V30 6622 N 643.106 -4.77894 2.95929 0
M  V30 6623 H 635.257 -1.06522 1.83757 0
M  V30 6624 H 637.52 -0.528495 0.787018 0
M  V30 6625 H 637.226 -2.42383 2.54839 0
M  V30 6626 H 637.1 -3.56793 1.22388 0
M  V30 6627 H 639.487 -2.91167 0.480179 0
M  V30 6628 H 639.568 -1.77952 1.83757 0
M  V30 6629 H 639.212 -3.72508 3.45253 0
M  V30 6630 H 639.142 -4.84322 2.06737 0
M  V30 6631 H 641.633 -3.29728 1.84629 0
M  V30 6632 H 641.946 -6.41529 4.30883 0
M  V30 6633 H 640.291 -5.77332 3.86927 0
M  V30 6634 H 643.482 -4.04248 2.36012 0
M  V30 6635 H 643.655 -5.46444 3.48286 0
M  V30 6636 N 637.061 -0.65484 -1.43351 0
M  V30 6637 C 638.477 -0.32255 -1.56307 0
M  V30 6638 C 638.677 1.17324 -1.63821 0
M  V30 6639 O 637.733 1.95813 -1.59417 0
M  V30 6640 C 639.046 -1.03533 -2.82314 0
M  V30 6641 C 640.594 -1.01574 -2.9606 0
M  V30 6642 C 641.069 -1.70945 -4.24902 0
M  V30 6643 N 642.56 -1.67716 -4.3177 0
M  V30 6644 C 643.295 -2.18265 -5.30234 0
M  V30 6645 N 642.791 -2.7711 -6.34966 0
M  V30 6646 N 644.584 -2.08756 -5.21898 0
M  V30 6647 H 636.735 -1.62549 -1.36717 0
M  V30 6648 H 638.998 -0.683676 -0.656727 0
M  V30 6649 H 638.704 -2.09045 -2.8283 0
M  V30 6650 H 638.578 -0.587913 -3.7259 0
M  V30 6651 H 640.965 0.0309834 -2.95084 0
M  V30 6652 H 641.046 -1.50186 -2.07069 0
M  V30 6653 H 640.69 -2.75574 -4.26639 0
M  V30 6654 H 640.62 -1.19797 -5.12793 0
M  V30 6655 H 643.111 -1.24777 -3.56706 0
M  V30 6656 H 643.424 -3.13353 -7.06421 0
M  V30 6657 H 641.769 -2.81171 -6.35585 0
M  V30 6658 H 644.96 -1.62488 -4.38994 0
M  V30 6659 H 645.133 -2.48459 -5.98475 0
M  V30 6660 N 638.539 1.52521 -0.396863 0
M  V30 6661 C 639.487 2.28217 0.44943 0
M  V30 6662 C 640.481 1.32416 1.05652 0
M  V30 6663 O 641.687 1.49925 0.996124 0
M  V30 6664 H 638.062 0.733966 0.1637 0
M  V30 6665 H 640.033 2.97658 -0.210367 0
M  V30 6666 C 638.782 3.10713 1.56054 0
M  V30 6667 H 638.105 3.84291 1.10273 0
M  V30 6668 H 639.545 3.66803 2.12677 0
M  V30 6669 C 638.004 2.23499 2.52091 0
M  V30 6670 O 638.534 1.8669 3.55682 0
M  V30 6671 N 636.74 1.8751 2.2201 0
M  V30 6672 H 636.287 2.17643 1.37802 0
M  V30 6673 H 636.245 1.29448 2.86514 0
M  V30 6674 N 640.017 0.126909 1.57088 0
M  V30 6675 C 640.967 -0.831678 2.1229 0
M  V30 6676 C 641.951 -1.22292 1.04564 0
M  V30 6677 O 643.143 -1.19269 1.30782 0
M  V30 6678 C 640.272 -2.07866 2.73215 0
M  V30 6679 C 639.358 -1.71143 3.88035 0
M  V30 6680 N 639.749 -1.05136 4.94753 0
M  V30 6681 C 638.047 -2.00549 3.98367 0
M  V30 6682 C 638.748 -0.877257 5.75047 0
M  V30 6683 N 637.724 -1.40477 5.25135 0
M  V30 6684 H 641.526 -0.317926 2.92175 0
M  V30 6685 H 639.04 -0.0753052 1.62225 0
M  V30 6686 H 641.037 -2.77516 3.11111 0
M  V30 6687 H 639.697 -2.59778 1.94796 0
M  V30 6688 H 640.708 -0.71442 5.12949 0
M  V30 6689 H 637.385 -2.54452 3.30999 0
M  V30 6690 H 638.775 -0.358536 6.70943 0
M  V30 6691 N 641.495 -1.56914 -0.146875 0
M  V30 6692 C 642.72 -1.87881 -0.878386 0
M  V30 6693 C 643.145 -0.715945 -1.73942 0
M  V30 6694 O 642.503 0.334447 -1.78189 0
M  V30 6695 C 642.551 -3.17431 -1.71084 0
M  V30 6696 O 641.655 -3.01374 -2.81509 0
M  V30 6697 H 640.996 -0.617289 -0.244644 0
M  V30 6698 H 643.526 -2.04136 -0.137654 0
M  V30 6699 H 643.536 -3.49455 -2.10582 0
M  V30 6700 H 642.211 -4.01671 -1.07856 0
M  V30 6701 H 640.788 -2.80758 -2.45416 0
M  V30 6702 N 642.974 0.416227 -1.52004 0
M  V30 6703 C 644.214 1.17307 -1.67387 0
M  V30 6704 C 644.578 1.87959 -0.39183 0
M  V30 6705 O 645.779 2.65472 -0.421671 0
M  V30 6706 C 644.05 2.14661 -2.85754 0
M  V30 6707 S 645.609 2.98549 -3.21581 0
M  V30 6708 H 642.427 0.397505 -0.5895 0
M  V30 6709 H 645.029 0.461431 -1.89976 0
M  V30 6710 H 643.733 1.61431 -3.77317 0
M  V30 6711 H 643.264 2.90375 -2.65417 0
M  V30 6712 H 645.279 4.16536 -2.69652 0
M  V30 6713 N 644.452 1.42507 0.673017 0
M  V30 6714 C 645.362 1.4853 1.81593 0
M  V30 6715 C 646.378 0.373907 1.69935 0
M  V30 6716 O 647.554 0.625078 1.91454 0
M  V30 6717 C 644.619 1.387 3.17747 0
M  V30 6718 C 643.68 2.60346 3.41348 0
M  V30 6719 C 642.913 2.50975 4.71007 0
M  V30 6720 O 643.136 1.54659 5.49033 0
M  V30 6721 O 642.07 3.41138 4.95892 0
M  V30 6722 H 645.896 2.45001 1.79467 0
M  V30 6723 H 643.481 1.2429 0.82899 0
M  V30 6724 H 645.363 1.35586 3.98992 0
M  V30 6725 H 644.038 0.453555 3.20507 0
M  V30 6726 H 642.945 2.69034 2.59945 0
M  V30 6727 H 644.278 3.52595 3.43421 0
M  V30 6728 N 645.93 -0.909495 1.28709 0
M  V30 6729 C 647.341 -1.47419 1.14563 0
M  V30 6730 C 647.692 -1.94432 -0.262832 0
M  V30 6731 O 646.817 -1.82842 -1.15748 0
M  V30 6732 C 647.412 -2.67933 2.07358 0
M  V30 6733 C 645.971 -3.20568 1.97264 0
M  V30 6734 C 645.118 -1.93269 1.98852 0
M  V30 6735 H 648.069 -0.721787 1.41336 0
M  V30 6736 H 648.09 -3.43339 1.64007 0
M  V30 6737 H 647.602 -2.33685 3.09859 0
M  V30 6738 H 645.703 -3.59531 0.978157 0
M  V30 6739 H 645.816 -3.85529 2.84436 0
M  V30 6740 H 644.18 -2.10553 1.43317 0
M  V30 6741 H 644.963 -1.61312 3.0304 0
M  V30 6742 N 647.408 -1.11026 -1.11852 0
M  V30 6743 C 648.648 -0.866348 -1.85132 0
M  V30 6744 C 649.012 0.597236 -1.82475 0
M  V30 6745 O 650.213 0.957744 -2.51159 0
M  V30 6746 C 648.484 -1.40721 -3.28531 0
M  V30 6747 S 650.043 -1.29964 -4.19112 0
M  V30 6748 H 646.861 -0.312899 -0.638447 0
M  V30 6749 H 649.463 -1.41691 -1.34699 0
M  V30 6750 H 648.167 -2.46631 -3.28027 0
M  V30 6751 H 647.698 -0.85349 -3.8403 0
M  V30 6752 H 649.713 -0.261333 -4.95511 0
M  V30 6753 N 648.886 1.2938 -0.899927 0
M  V30 6754 C 649.818 2.26737 -0.335139 0
M  V30 6755 C 650.831 1.54316 0.518681 0
M  V30 6756 O 652.02 1.75313 0.335803 0
M  V30 6757 C 649.12 3.34558 0.540774 0
M  V30 6758 C 648.293 4.36455 -0.287372 0
M  V30 6759 C 647.352 5.2361 0.52141 0
M  V30 6760 O 646.378 5.69167 -0.0611735 0
M  V30 6761 N 647.58 5.50985 1.82745 0
M  V30 6762 H 650.345 2.75838 -1.17191 0
M  V30 6763 H 647.906 1.42716 -0.764438 0
M  V30 6764 H 649.898 3.89794 1.08825 0
M  V30 6765 H 648.468 2.85272 1.27823 0
M  V30 6766 H 647.688 3.80875 -1.01626 0
M  V30 6767 H 648.976 5.01573 -0.854518 0
M  V30 6768 H 648.374 5.15781 2.32349 0
M  V30 6769 H 646.931 6.09036 2.32204 0
M  V30 6770 N 650.364 0.662433 1.43002 0
M  V30 6771 C 651.592 0.187615 2.06048 0
M  V30 6772 C 652.007 -1.15039 1.49705 0
M  V30 6773 O 651.364 -1.71209 0.631956 0
M  V30 6774 C 651.415 0.100498 3.6136 0
M  V30 6775 O 651.136 1.38562 4.15611 0
M  V30 6776 C 652.637 -0.399298 4.41498 0
M  V30 6777 H 649.857 0.0941675 0.664359 0
M  V30 6778 H 652.401 0.905681 1.83351 0
M  V30 6779 H 650.556 -0.568181 3.83211 0
M  V30 6780 H 650.97 1.25084 5.09366 0
M  V30 6781 H 652.444 -0.409187 5.50481 0
M  V30 6782 H 652.921 -1.43232 4.15188 0
M  V30 6783 H 653.527 0.23721 4.24638 0
M  V30 6784 N 651.842 -1.52309 0.404946 0
M  V30 6785 C 652.772 -2.29805 -0.41376 0
M  V30 6786 C 653.753 -1.3384 -1.0498 0
M  V30 6787 O 654.938 -1.62745 -1.05961 0
M  V30 6788 C 652.068 -3.11639 -1.53292 0
M  V30 6789 C 651.022 -4.15616 -1.02211 0
M  V30 6790 C 650.348 -4.8577 -2.23455 0
M  V30 6791 C 651.648 -5.2224 -0.0790725 0
M  V30 6792 H 653.342 -2.98493 0.232878 0
M  V30 6793 H 650.888 -1.43552 0.113441 0
M  V30 6794 H 652.841 -3.64618 -2.11262 0
M  V30 6795 H 651.565 -2.40712 -2.20738 0
M  V30 6796 H 650.224 -3.63641 -0.46484 0
M  V30 6797 H 649.872 -4.11376 -2.89445 0
M  V30 6798 H 649.572 -5.56058 -1.89929 0
M  V30 6799 H 651.096 -5.4156 -2.82038 0
M  V30 6800 H 652.51 -5.70485 -0.567438 0
M  V30 6801 H 650.907 -5.99867 0.167167 0
M  V30 6802 H 651.977 -4.77078 0.867447 0
M  V30 6803 N 653.32 -0.135238 -1.57019 0
M  V30 6804 C 654.283 0.794707 -2.14981 0
M  V30 6805 C 655.283 1.18342 -1.08866 0
M  V30 6806 O 656.473 1.10627 -1.34563 0
M  V30 6807 C 653.605 2.07685 -2.70333 0
M  V30 6808 H 654.798 0.290696 -2.98488 0
M  V30 6809 H 652.351 0.114128 -1.55883 0
M  V30 6810 H 653.086 2.6248 -1.9046 0
M  V30 6811 H 652.871 1.80745 -3.47957 0
M  V30 6812 H 654.361 2.74127 -3.1503 0
M  V30 6813 N 654.798 1.5699 0.138552 0
M  V30 6814 C 656.044 1.84081 0.85099 0
M  V30 6815 C 656.377 0.718107 1.80435 0
M  V30 6816 O 655.652 -0.277633 1.92508 0
M  V30 6817 C 655.935 3.21699 1.61808 0
M  V30 6818 C 655.788 4.44544 0.685633 0
M  V30 6819 C 657.107 3.5664 2.57868 0
M  V30 6820 H 654.226 0.669592 0.307922 0
M  V30 6821 H 656.868 1.89646 0.11588 0
M  V30 6822 H 655.018 3.17086 2.24474 0
M  V30 6823 H 656.69 4.61248 0.0693179 0
M  V30 6824 H 654.933 4.338 -0.00421993 0
M  V30 6825 H 655.604 5.3746 1.25858 0
M  V30 6826 H 658.08 3.61918 2.05316 0
M  V30 6827 H 656.956 4.53946 3.08584 0
M  V30 6828 H 657.217 2.83036 3.39622 0
M  V30 6829 N 656.276 -0.40816 1.52223 0
M  V30 6830 C 657.692 -0.74685 1.41047 0
M  V30 6831 C 657.892 -1.94788 0.51573 0
M  V30 6832 O 656.948 -2.52494 -0.0181156 0
M  V30 6833 C 658.261 -0.999878 2.83589 0
M  V30 6834 C 659.809 -1.10253 2.92939 0
M  V30 6835 C 660.284 -1.38832 4.36451 0
M  V30 6836 N 661.775 -1.45694 4.3969 0
M  V30 6837 C 662.51 -1.69435 5.47795 0
M  V30 6838 N 662.006 -1.90774 6.66016 0
M  V30 6839 N 663.799 -1.71458 5.35312 0
M  V30 6840 H 655.95 0.382409 2.08929 0
M  V30 6841 H 658.213 0.108807 0.941735 0
M  V30 6842 H 657.919 -0.189723 3.51188 0
M  V30 6843 H 657.793 -1.91978 3.24691 0
M  V30 6844 H 660.18 -1.90328 2.2552 0
M  V30 6845 H 660.261 -0.160973 2.55293 0
M  V30 6846 H 659.905 -0.592741 5.04429 0
M  V30 6847 H 659.835 -2.34241 4.71634 0
M  V30 6848 H 662.326 -1.3099 3.54472 0
M  V30 6849 H 662.639 -2.08342 7.44186 0
M  V30 6850 H 660.984 -1.88037 6.69079 0
M  V30 6851 H 664.175 -1.54326 4.41929 0
M  V30 6852 H 664.348 -1.89621 6.19635 0
M  V30 6853 N 657.755 -1.42862 -0.66545 0
M  V30 6854 C 658.98 -1.47456 -1.45848 0
M  V30 6855 C 659.405 -0.0900312 -1.87884 0
M  V30 6856 O 658.763 0.913587 -1.56599 0
M  V30 6857 C 658.811 -2.41514 -2.67774 0
M  V30 6858 O 657.915 -1.89296 -3.66389 0
M  V30 6859 H 657.256 -0.499236 -0.437789 0
M  V30 6860 H 659.786 -1.8765 -0.815394 0
M  V30 6861 H 659.796 -2.58409 -3.15735 0
M  V30 6862 H 658.471 -3.42099 -2.36519 0
M  V30 6863 H 657.048 -1.82003 -3.25468 0
M  V30 6864 N 659.233 0.902656 -1.29189 0
M  V30 6865 C 660.463 1.68394 -1.19695 0
M  V30 6866 C 660.871 1.87602 0.245384 0
M  V30 6867 O 660.214 1.41084 1.17648 0
M  V30 6868 C 660.276 3.09094 -1.83578 0
M  V30 6869 C 659.94 3.1313 -3.32864 0
M  V30 6870 C 660.937 2.93497 -4.29134 0
M  V30 6871 C 658.622 3.3529 -3.74013 0
M  V30 6872 C 660.616 2.95953 -5.64527 0
M  V30 6873 C 658.303 3.37377 -5.09529 0
M  V30 6874 C 659.301 3.1773 -6.04596 0
M  V30 6875 O 658.989 3.196 -7.37639 0
M  V30 6876 H 658.721 0.532815 -0.416034 0
M  V30 6877 H 661.275 1.1374 -1.71033 0
M  V30 6878 H 659.505 3.65338 -1.26747 0
M  V30 6879 H 661.194 3.69297 -1.68447 0
M  V30 6880 H 661.96 2.76192 -3.98677 0
M  V30 6881 H 657.839 3.49623 -3.00474 0
M  V30 6882 H 661.383 2.80536 -6.38706 0
M  V30 6883 H 657.28 3.54213 -5.39633 0
M  V30 6884 H 658.048 3.35887 -7.46406 0
M  V30 6885 N 660.711 1.11618 1.11262 0
M  V30 6886 C 662.127 0.850468 1.35053 0
M  V30 6887 C 662.327 -0.523868 1.94571 0
M  V30 6888 O 661.383 -1.2743 2.17986 0
M  V30 6889 C 662.696 1.96005 2.28041 0
M  V30 6890 C 664.244 1.98993 2.416 0
M  V30 6891 C 664.719 3.0916 3.37911 0
M  V30 6892 N 666.21 3.08547 3.45475 0
M  V30 6893 C 666.945 3.9043 4.19943 0
M  V30 6894 N 666.441 4.8228 4.97371 0
M  V30 6895 N 668.234 3.786 4.15474 0
M  V30 6896 H 660.385 2.00184 0.709932 0
M  V30 6897 H 662.648 0.870635 0.375099 0
M  V30 6898 H 662.354 2.9499 1.91503 0
M  V30 6899 H 662.228 1.85782 3.28275 0
M  V30 6900 H 664.615 1.00633 2.77411 0
M  V30 6901 H 664.696 2.13292 1.4121 0
M  V30 6902 H 664.34 4.07748 3.02827 0
M  V30 6903 H 664.27 2.92102 4.3816 0
M  V30 6904 H 666.761 2.42 2.90249 0
M  V30 6905 H 667.074 5.41289 5.51567 0
M  V30 6906 H 665.419 4.863 4.96525 0
M  V30 6907 H 668.61 3.06185 3.54074 0
M  V30 6908 H 668.783 4.42647 4.73253 0
M  V30 6909 N 662.189 -1.289 0.906776 0
M  V30 6910 C 663.119 -2.29932 0.406659 0
M  V30 6911 C 664.1 -1.6189 -0.522061 0
M  V30 6912 O 665.285 -1.8935 -0.431283 0
M  V30 6913 C 662.415 -3.45425 -0.360366 0
M  V30 6914 C 661.369 -4.25316 0.478574 0
M  V30 6915 C 660.695 -5.33076 -0.416373 0
M  V30 6916 C 661.995 -4.92739 1.7322 0
M  V30 6917 H 663.689 -2.72013 1.25097 0
M  V30 6918 H 661.235 -1.30768 0.602977 0
M  V30 6919 H 663.188 -4.15186 -0.721029 0
M  V30 6920 H 661.912 -3.02206 -1.23852 0
M  V30 6921 H 660.571 -3.57273 0.821662 0
M  V30 6922 H 660.219 -4.86101 -1.29287 0
M  V30 6923 H 659.919 -5.8743 0.141309 0
M  V30 6924 H 661.443 -6.05686 -0.773072 0
M  V30 6925 H 662.857 -5.54898 1.44086 0
M  V30 6926 H 661.254 -5.57057 2.23175 0
M  V30 6927 H 662.324 -4.17625 2.46408 0
M  V30 6928 N 663.667 -0.670007 -1.42649 0
M  V30 6929 C 664.617 0.0339546 -2.27975 0
M  V30 6930 C 665.601 0.778295 -1.40824 0
M  V30 6931 O 666.793 0.657997 -1.64315 0
M  V30 6932 C 663.922 0.987899 -3.28779 0
M  V30 6933 C 663.008 0.241153 -4.23414 0
M  V30 6934 N 663.399 -0.751392 -5.00188 0
M  V30 6935 C 661.697 0.480269 -4.43407 0
M  V30 6936 C 662.398 -1.19615 -5.69269 0
M  V30 6937 N 661.374 -0.527045 -5.41039 0
M  V30 6938 H 665.176 -0.727425 -2.84756 0
M  V30 6939 H 662.69 -0.498673 -1.54554 0
M  V30 6940 H 664.687 1.50716 -3.88703 0
M  V30 6941 H 663.347 1.74916 -2.73559 0
M  V30 6942 H 664.358 -1.13075 -5.05405 0
M  V30 6943 H 661.035 1.2214 -3.99234 0
M  V30 6944 H 662.425 -2.01836 -6.40868 0
M  V30 6945 N 665.145 1.52092 -0.413018 0
M  V30 6946 C 666.055 2.30858 0.417318 0
M  V30 6947 C 667.071 1.38746 1.05003 0
M  V30 6948 O 668.247 1.71821 1.05069 0
M  V30 6949 C 665.312 3.11756 1.51687 0
M  V30 6950 C 664.373 4.19613 0.906825 0
M  V30 6951 C 663.606 4.96644 1.95399 0
M  V30 6952 O 663.829 4.7402 3.17271 0
M  V30 6953 O 662.763 5.81385 1.55805 0
M  V30 6954 H 666.589 3.02865 -0.225028 0
M  V30 6955 H 664.174 1.48358 -0.176126 0
M  V30 6956 H 666.056 3.62122 2.15512 0
M  V30 6957 H 664.731 2.42539 2.14375 0
M  V30 6958 H 663.638 3.73385 0.231183 0
M  V30 6959 H 664.971 4.91134 0.323814 0
M  V30 6960 N 666.623 0.143563 1.56945 0
M  V30 6961 C 667.586 -0.783295 2.154 0
M  V30 6962 C 668.586 -1.17763 1.09492 0
M  V30 6963 O 669.776 -1.09912 1.35148 0
M  V30 6964 C 666.908 -2.06248 2.7143 0
M  V30 6965 H 668.101 -0.274863 2.98638 0
M  V30 6966 H 665.654 -0.105859 1.55941 0
M  V30 6967 H 666.389 -2.61466 1.91849 0
M  V30 6968 H 666.174 -1.78897 3.4891 0
M  V30 6969 H 667.664 -2.72453 3.16479 0
M  V30 6970 N 668.101 -1.57061 -0.130224 0
M  V30 6971 C 669.348 -1.84257 -0.839972 0
M  V30 6972 C 669.676 -0.726986 -1.80403 0
M  V30 6973 O 668.931 0.282632 -1.93648 0
M  V30 6974 C 669.23 -3.17878 -1.63365 0
M  V30 6975 C 668.896 -4.43475 -0.814891 0
M  V30 6976 C 667.558 -4.77581 -0.589066 0
M  V30 6977 C 669.91 -5.20631 -0.243437 0
M  V30 6978 C 667.238 -5.86292 0.218648 0
M  V30 6979 C 669.59 -6.30192 0.551408 0
M  V30 6980 C 668.254 -6.62837 0.787653 0
M  V30 6981 H 667.524 -0.674245 -0.307367 0
M  V30 6982 H 670.171 -1.91224 -0.102832 0
M  V30 6983 H 668.476 -3.06437 -2.44138 0
M  V30 6984 H 670.173 -3.3614 -2.18658 0
M  V30 6985 H 666.763 -4.16747 -1.00098 0
M  V30 6986 H 670.947 -4.94644 -0.405145 0
M  V30 6987 H 666.203 -6.10017 0.411016 0
M  V30 6988 H 670.377 -6.89165 1.00126 0
M  V30 6989 H 668.004 -7.46908 1.41537 0
M  V30 6990 N 669.579 0.400081 -1.52437 0
M  V30 6991 C 670.804 1.17221 -1.71096 0
M  V30 6992 C 671.229 1.83269 -0.423565 0
M  V30 6993 O 670.587 1.70378 0.619751 0
M  V30 6994 C 670.635 2.20425 -2.85386 0
M  V30 6995 O 669.739 3.26769 -2.51586 0
M  V30 6996 H 669.08 0.341766 -0.569291 0
M  V30 6997 H 671.61 0.467772 -1.99181 0
M  V30 6998 H 671.62 2.64605 -3.10561 0
M  V30 6999 H 670.295 1.71737 -3.78786 0
M  V30 7000 H 668.872 2.87804 -2.37114 0
M  V30 7001 N 671.057 1.43213 0.657864 0
M  V30 7002 C 672.468 1.39669 1.23893 0
M  V30 7003 C 672.819 0.0984217 1.95953 0
M  V30 7004 O 671.944 -0.8023 2.00978 0
M  V30 7005 C 672.539 2.53004 2.25332 0
M  V30 7006 C 671.098 2.5274 2.78926 0
M  V30 7007 C 670.245 2.30941 1.53497 0
M  V30 7008 H 673.196 1.52181 0.450172 0
M  V30 7009 H 673.217 2.24226 3.07413 0
M  V30 7010 H 672.729 3.4748 1.72856 0
M  V30 7011 H 670.83 1.6213 3.35477 0
M  V30 7012 H 670.943 3.50352 3.26787 0
M  V30 7013 H 669.307 1.7952 1.80678 0
M  V30 7014 H 670.09 3.27496 1.02963 0
M  V30 7015 N 672.536 -0.895792 1.29666 0
M  V30 7016 C 673.782 -1.64908 1.18039 0
M  V30 7017 C 674.115 -1.9236 -0.266682 0
M  V30 7018 O 673.39 -1.53682 -1.19214 0
M  V30 7019 C 673.673 -2.99574 1.99819 0
M  V30 7020 C 673.526 -2.79163 3.52687 0
M  V30 7021 C 674.845 -4.00358 1.82761 0
M  V30 7022 H 671.964 -0.598437 0.430165 0
M  V30 7023 H 674.606 -1.03736 1.59182 0
M  V30 7024 H 672.756 -3.51786 1.64859 0
M  V30 7025 H 674.428 -2.33821 3.9765 0
M  V30 7026 H 672.671 -2.13871 3.77414 0
M  V30 7027 H 673.342 -3.74871 4.05186 0
M  V30 7028 H 675.818 -3.57268 2.13304 0
M  V30 7029 H 674.694 -4.92514 2.42325 0
M  V30 7030 H 674.955 -4.35096 0.783839 0
M  V30 7031 N 674.014 -1.12206 -1.10668 0
M  V30 7032 C 675.239 -0.898938 -1.86906 0
M  V30 7033 C 675.664 0.546346 -1.79991 0
M  V30 7034 O 675.022 1.38655 -1.1681 0
M  V30 7035 C 675.07 -1.37529 -3.33344 0
M  V30 7036 O 674.174 -0.55218 -4.08687 0
M  V30 7037 H 673.515 -0.323163 -0.580053 0
M  V30 7038 H 676.045 -1.49355 -1.39837 0
M  V30 7039 H 676.055 -1.3733 -3.84193 0
M  V30 7040 H 674.73 -2.42767 -3.37693 0
M  V30 7041 H 673.307 -0.620947 -3.67694 0
M  V30 7042 N 675.492 1.28418 -0.913599 0
M  V30 7043 C 676.722 1.98817 -0.56172 0
M  V30 7044 C 677.13 1.68457 0.861321 0
M  V30 7045 O 676.473 0.933653 1.58204 0
M  V30 7046 C 676.535 3.52801 -0.690785 0
M  V30 7047 C 676.199 4.0675 -2.08334 0
M  V30 7048 C 677.196 4.20597 -3.05604 0
M  V30 7049 C 674.881 4.41445 -2.39648 0
M  V30 7050 C 676.875 4.68392 -4.32305 0
M  V30 7051 C 674.562 4.88934 -3.66588 0
M  V30 7052 C 675.56 5.02364 -4.6273 0
M  V30 7053 O 675.248 5.48817 -5.87414 0
M  V30 7054 H 674.98 0.641608 -0.212874 0
M  V30 7055 H 677.534 1.64584 -1.22887 0
M  V30 7056 H 675.764 3.86686 0.0334336 0
M  V30 7057 H 677.453 4.04422 -0.346031 0
M  V30 7058 H 678.219 3.94067 -2.8273 0
M  V30 7059 H 674.098 4.30242 -1.65567 0
M  V30 7060 H 677.642 4.7879 -5.07352 0
M  V30 7061 H 673.539 5.14904 -3.89287 0
M  V30 7062 H 674.307 5.67103 -5.90201 0
M  V30 7063 N 676.97 0.677563 1.42291 0
M  V30 7064 C 677.902 -0.0380218 2.29168 0
M  V30 7065 C 678.915 -0.762714 1.43828 0
M  V30 7066 O 680.104 -0.616413 1.67519 0
M  V30 7067 C 677.204 -1.07761 3.21311 0
M  V30 7068 C 676.377 -0.42618 4.35319 0
M  V30 7069 C 675.436 -1.36592 5.08162 0
M  V30 7070 O 674.462 -0.865174 5.62586 0
M  V30 7071 N 675.664 -2.69909 5.13935 0
M  V30 7072 H 678.429 0.707766 2.91223 0
M  V30 7073 H 675.99 0.52219 1.53247 0
M  V30 7074 H 677.982 -1.70761 3.6691 0
M  V30 7075 H 676.552 -1.72511 2.60689 0
M  V30 7076 H 675.772 0.383385 3.92331 0
M  V30 7077 H 677.06 0.0275277 5.08793 0
M  V30 7078 H 676.458 -3.13129 4.71134 0
M  V30 7079 H 675.015 -3.2815 5.6317 0
M  V30 7080 N 678.448 -1.51871 0.421078 0
M  V30 7081 C 679.398 -2.24171 -0.416111 0
M  V30 7082 C 680.382 -1.25763 -1.00362 0
M  V30 7083 O 681.574 -1.5094 -0.924452 0
M  V30 7084 C 678.703 -3.07533 -1.52571 0
M  V30 7085 C 677.789 -4.1336 -0.948399 0
M  V30 7086 N 678.18 -5.05704 -0.0987933 0
M  V30 7087 C 676.478 -4.29055 -1.21768 0
M  V30 7088 C 677.179 -5.8127 0.223705 0
M  V30 7089 N 676.155 -5.4221 -0.388524 0
M  V30 7090 H 679.957 -2.92925 0.239166 0
M  V30 7091 H 677.471 -1.60732 0.232191 0
M  V30 7092 H 679.468 -3.57893 -2.13819 0
M  V30 7093 H 678.128 -2.4032 -2.18349 0
M  V30 7094 H 679.139 -5.17214 0.266428 0
M  V30 7095 H 675.816 -3.73071 -1.87416 0
M  V30 7096 H 677.206 -6.65653 0.914076 0
M  V30 7097 N 679.926 -0.151884 -1.56866 0
M  V30 7098 C 681.203 0.543328 -1.87902 0
M  V30 7099 C 681.583 1.82636 -1.05864 0
M  V30 7100 O 680.931 2.28028 -0.146868 0
M  V30 7101 C 681.141 0.804056 -3.39611 0
M  V30 7102 C 682.489 1.14267 -4.08935 0
M  V30 7103 O 683.513 0.893248 -3.44818 0
M  V30 7104 O 682.372 1.61229 -5.22176 0
M  V30 7105 H 679.466 0.277724 -0.778973 0
M  V30 7106 H 682.012 -0.188862 -1.68646 0
M  V30 7107 H 680.784 -0.103772 -3.91162 0
M  V30 7108 H 680.407 1.59025 -3.64413 0
M  V30 7109 N 681.404 1.57128 0.121893 0
M  V30 7110 C 682.334 2.03165 1.15092 0
M  V30 7111 C 683.315 0.915587 1.43356 0
M  V30 7112 O 684.5 1.1851 1.53847 0
M  V30 7113 C 681.63 2.43352 2.47784 0
M  V30 7114 C 680.584 3.58376 2.33989 0
M  V30 7115 C 679.91 3.84454 3.71617 0
M  V30 7116 C 681.21 4.90199 1.80283 0
M  V30 7117 H 682.904 2.89382 0.768023 0
M  V30 7118 H 680.45 1.39218 0.367998 0
M  V30 7119 H 682.403 2.74163 3.20019 0
M  V30 7120 H 681.127 1.54103 2.87958 0
M  V30 7121 H 679.786 3.2777 1.64202 0
M  V30 7122 H 679.434 2.92414 4.09271 0
M  V30 7123 H 679.134 4.61877 3.6324 0
M  V30 7124 H 680.658 4.17714 4.45362 0
M  V30 7125 H 682.072 5.19565 2.42333 0
M  V30 7126 H 680.469 5.71601 1.82735 0
M  V30 7127 H 681.539 4.78904 0.760184 0
M  V30 7128 N 682.882 -0.391992 1.52647 0
M  V30 7129 C 683.845 -1.46135 1.7657 0
M  V30 7130 C 684.845 -1.47701 0.635698 0
M  V30 7131 O 686.035 -1.48924 0.903728 0
M  V30 7132 C 683.167 -2.85443 1.86374 0
M  V30 7133 H 684.36 -1.26208 2.72051 0
M  V30 7134 H 681.913 -0.623549 1.43323 0
M  V30 7135 H 682.648 -3.10718 0.928685 0
M  V30 7136 H 682.433 -2.85708 2.68539 0
M  V30 7137 H 683.923 -3.62933 2.06566 0
M  V30 7138 N 684.36 -1.4356 -0.65026 0
M  V30 7139 C 685.29 -1.51758 -1.77459 0
M  V30 7140 C 686.271 -0.372019 -1.65982 0
M  V30 7141 O 687.456 -0.589627 -1.85033 0
M  V30 7142 C 684.586 -1.44302 -3.15902 0
M  V30 7143 C 683.54 -2.57138 -3.42146 0
M  V30 7144 C 682.866 -2.34735 -4.8042 0
M  V30 7145 C 684.166 -3.99373 -3.36598 0
M  V30 7146 H 685.86 -2.45863 -1.70855 0
M  V30 7147 H 683.406 -1.18333 -0.820566 0
M  V30 7148 H 685.359 -1.48641 -3.94314 0
M  V30 7149 H 684.083 -0.467026 -3.23244 0
M  V30 7150 H 682.742 -2.52157 -2.66106 0
M  V30 7151 H 682.39 -1.35372 -4.84441 0
M  V30 7152 H 682.09 -3.10375 -4.9894 0
M  V30 7153 H 683.614 -2.40862 -5.61086 0
M  V30 7154 H 685.028 -4.05826 -4.04942 0
M  V30 7155 H 683.425 -4.75063 -3.66654 0
M  V30 7156 H 684.495 -4.243 -2.34729 0
M  V30 7157 N 685.838 0.888903 -1.30139 0
M  V30 7158 C 686.768 2.01046 -1.18755 0
M  V30 7159 C 687.749 1.69916 -0.0791438 0
M  V30 7160 O 688.934 1.92445 -0.260498 0
M  V30 7161 C 686.064 3.36109 -0.874518 0
M  V30 7162 C 685.018 3.81486 -1.94043 0
M  V30 7163 C 684.344 5.13796 -1.48047 0
M  V30 7164 C 685.644 4.00637 -3.35093 0
M  V30 7165 H 687.338 2.10828 -2.12584 0
M  V30 7166 H 684.884 1.01298 -1.02346 0
M  V30 7167 H 686.837 4.14089 -0.781548 0
M  V30 7168 H 685.561 3.26449 0.0994519 0
M  V30 7169 H 684.22 3.05731 -2.02297 0
M  V30 7170 H 683.868 5.0056 -0.494878 0
M  V30 7171 H 683.568 5.45127 -2.19341 0
M  V30 7172 H 685.092 5.94305 -1.40121 0
M  V30 7173 H 686.506 4.69067 -3.2962 0
M  V30 7174 H 684.903 4.43339 -4.04438 0
M  V30 7175 H 685.973 3.0462 -3.77273 0
M  V30 7176 N 687.317 1.12792 1.10072 0
M  V30 7177 C 688.733 0.864745 1.34143 0
M  V30 7178 C 688.933 -0.503201 1.95116 0
M  V30 7179 O 687.989 -1.25111 2.19325 0
M  V30 7180 C 689.302 1.98413 2.25949 0
M  V30 7181 C 690.85 2.01545 2.39476 0
M  V30 7182 C 691.325 3.12727 3.34613 0
M  V30 7183 N 692.816 3.12194 3.42183 0
M  V30 7184 C 693.551 3.94862 4.15779 0
M  V30 7185 N 693.047 4.87528 4.92228 0
M  V30 7186 N 694.84 3.82985 4.11435 0
M  V30 7187 H 686.991 2.00926 0.68866 0
M  V30 7188 H 689.254 0.874564 0.365844 0
M  V30 7189 H 688.96 2.97005 1.88364 0
M  V30 7190 H 688.834 1.89254 3.26287 0
M  V30 7191 H 691.221 1.0357 2.76328 0
M  V30 7192 H 691.302 2.14777 1.3894 0
M  V30 7193 H 690.946 4.10936 2.98486 0
M  V30 7194 H 690.876 2.96732 4.35037 0
M  V30 7195 H 693.367 2.45065 2.87666 0
M  V30 7196 H 693.68 5.47109 5.45794 0
M  V30 7197 H 692.025 4.91539 4.9134 0
M  V30 7198 H 695.216 3.09923 3.50807 0
M  V30 7199 H 695.389 4.47641 4.68531 0
M  V30 7200 N 688.795 -1.27931 0.920396 0
M  V30 7201 C 689.725 -2.29487 0.431024 0
M  V30 7202 C 690.706 -1.62435 -0.504861 0
M  V30 7203 O 691.891 -1.89797 -0.411176 0
M  V30 7204 C 689.021 -3.45788 -0.323709 0
M  V30 7205 C 687.975 -4.24784 0.523658 0
M  V30 7206 C 687.301 -5.33488 -0.359809 0
M  V30 7207 C 688.601 -4.90874 1.78437 0
M  V30 7208 H 690.295 -2.70671 1.27975 0
M  V30 7209 H 687.841 -1.30121 0.616813 0
M  V30 7210 H 689.794 -4.15927 -0.676952 0
M  V30 7211 H 688.518 -3.03502 -1.2064 0
M  V30 7212 H 687.177 -3.56382 0.85951 0
M  V30 7213 H 686.825 -4.87445 -1.24124 0
M  V30 7214 H 686.525 -5.87247 0.203605 0
M  V30 7215 H 688.049 -6.06472 -0.708787 0
M  V30 7216 H 689.463 -5.53339 1.49963 0
M  V30 7217 H 687.86 -5.54659 2.29071 0
M  V30 7218 H 688.93 -4.14988 2.50824 0
M  V30 7219 N 690.273 -0.685099 -1.4193 0
M  V30 7220 C 691.205 0.0258679 -2.29185 0
M  V30 7221 C 692.218 0.755076 -1.44231 0
M  V30 7222 O 693.407 0.60752 -1.67844 0
M  V30 7223 C 690.507 1.06055 -3.21878 0
M  V30 7224 C 689.68 0.403088 -4.35539 0
M  V30 7225 C 688.739 1.33895 -5.0888 0
M  V30 7226 O 687.765 0.835326 -5.63037 0
M  V30 7227 N 688.967 2.6718 -5.15359 0
M  V30 7228 H 691.732 -0.723201 -2.90843 0
M  V30 7229 H 689.293 -0.53031 -1.52968 0
M  V30 7230 H 691.285 1.68813 -3.6781 0
M  V30 7231 H 689.855 1.71126 -2.616 0
M  V30 7232 H 689.075 -0.404185 -3.92122 0
M  V30 7233 H 690.363 -0.0545098 -5.08771 0
M  V30 7234 H 689.761 3.10626 -4.72788 0
M  V30 7235 H 688.318 3.25159 -5.64903 0
M  V30 7236 N 691.751 1.51645 -0.429126 0
M  V30 7237 C 692.661 2.31288 0.392809 0
M  V30 7238 C 693.677 1.39852 1.03525 0
M  V30 7239 O 694.853 1.72926 1.03241 0
M  V30 7240 C 691.918 3.13347 1.48372 0
M  V30 7241 C 690.979 4.20551 0.862268 0
M  V30 7242 C 690.212 4.98688 1.9012 0
M  V30 7243 O 690.435 4.77359 3.12225 0
M  V30 7244 O 689.369 5.83005 1.4963 0
M  V30 7245 H 693.195 3.02609 -0.257138 0
M  V30 7246 H 690.78 1.48163 -0.191851 0
M  V30 7247 H 692.662 3.64387 2.1166 0
M  V30 7248 H 691.337 2.44799 2.1179 0
M  V30 7249 H 690.244 3.73609 0.191568 0
M  V30 7250 H 691.577 4.91449 0.271704 0
M  V30 7251 N 693.229 0.160201 1.56784 0
M  V30 7252 C 694.506 -0.533355 1.88188 0
M  V30 7253 C 694.886 -1.82072 1.06831 0
M  V30 7254 O 694.234 -2.27946 0.158959 0
M  V30 7255 C 694.444 -0.786034 3.40033 0
M  V30 7256 C 695.792 -1.12097 4.09536 0
M  V30 7257 O 696.816 -0.874949 3.45287 0
M  V30 7258 O 695.675 -1.58457 5.23023 0
M  V30 7259 H 692.769 -0.273589 0.780434 0
M  V30 7260 H 695.315 0.197803 1.68543 0
M  V30 7261 H 694.087 0.124515 3.91102 0
M  V30 7262 H 693.71 -1.57091 3.65251 0
M  V30 7263 N 694.707 -1.5719 -0.113559 0
M  V30 7264 C 695.67 -1.99796 -1.12314 0
M  V30 7265 C 696.67 -0.888847 -1.34001 0
M  V30 7266 O 697.86 -1.15476 -1.30426 0
M  V30 7267 C 694.992 -2.34279 -2.47641 0
M  V30 7268 H 696.185 -2.90193 -0.756825 0
M  V30 7269 H 693.738 -1.52144 -0.358029 0
M  V30 7270 H 694.473 -1.46778 -2.89183 0
M  V30 7271 H 694.258 -3.15175 -2.33253 0
M  V30 7272 H 695.748 -2.67963 -3.2029 0
M  V30 7273 N 696.185 0.383891 -1.52853 0
M  V30 7274 C 697.462 1.14296 -1.58732 0
M  V30 7275 C 697.842 2.07585 -0.383611 0
M  V30 7276 O 697.19 2.1971 0.627661 0
M  V30 7277 C 697.4 1.89816 -2.92867 0
M  V30 7278 C 698.748 2.44998 -3.46787 0
M  V30 7279 O 699.772 1.99966 -2.94774 0
M  V30 7280 O 698.631 3.2727 -4.37672 0
M  V30 7281 H 695.725 0.52326 -0.640413 0
M  V30 7282 H 698.271 0.388631 -1.6519 0
M  V30 7283 H 697.043 1.21626 -3.71918 0
M  V30 7284 H 696.666 2.72199 -2.89816 0
M  V30 7285 N 697.663 1.43903 0.642637 0
M  V30 7286 C 698.911 1.45791 1.39962 0
M  V30 7287 C 699.232 0.0873144 1.94804 0
M  V30 7288 O 698.502 -0.878825 1.75081 0
M  V30 7289 H 697.082 0.536797 0.519479 0
M  V30 7290 H 699.744 1.7959 0.757189 0
M  V30 7291 H 698.84 2.17665 2.2367 0
M  V30 7292 N 699.141 -0.881989 1.30609 0
M  V30 7293 C 700.366 -1.67236 1.22665 0
M  V30 7294 C 700.791 -1.8696 -0.206777 0
M  V30 7295 O 700.149 -1.4027 -1.14865 0
M  V30 7296 C 700.197 -3.02446 1.96363 0
M  V30 7297 O 699.301 -3.91614 1.29276 0
M  V30 7298 H 698.642 -0.510902 0.424117 0
M  V30 7299 H 701.172 -1.10055 1.72479 0
M  V30 7300 H 701.182 -3.52468 2.055 0
M  V30 7301 H 699.857 -2.8741 3.00613 0
M  V30 7302 H 698.434 -3.50055 1.28514 0
M  V30 7303 N 700.619 -1.13374 -1.09472 0
M  V30 7304 C 701.859 -0.905422 -1.83252 0
M  V30 7305 C 702.223 0.558396 -1.83701 0
M  V30 7306 O 703.424 0.904254 -2.53134 0
M  V30 7307 C 701.695 -1.47658 -3.25472 0
M  V30 7308 S 703.254 -1.38825 -4.16261 0
M  V30 7309 H 700.072 -0.326371 -0.631667 0
M  V30 7310 H 702.674 -1.44517 -1.31663 0
M  V30 7311 H 701.378 -2.53533 -3.22722 0
M  V30 7312 H 700.909 -0.934756 -3.82133 0
M  V30 7313 H 702.924 -0.366379 -4.94846 0
M  V30 7314 N 702.098 1.27442 -0.927168 0
M  V30 7315 C 703.061 2.2512 -0.430525 0
M  V30 7316 C 704.061 1.54357 0.450619 0
M  V30 7317 O 705.251 1.72371 0.251774 0
M  V30 7318 C 702.383 3.38763 0.381144 0
M  V30 7319 H 703.576 2.70569 -1.29354 0
M  V30 7320 H 701.129 1.39355 -0.707806 0
M  V30 7321 H 701.864 2.98695 1.263 0
M  V30 7322 H 701.649 3.91298 -0.250618 0
M  V30 7323 H 703.139 4.11364 0.719012 0
M  V30 7324 N 703.576 0.692616 1.41565 0
M  V30 7325 C 704.506 0.0397325 2.33466 0
M  V30 7326 C 705.487 -0.770334 1.51657 0
M  V30 7327 O 706.672 -0.723903 1.80203 0
M  V30 7328 C 703.802 -0.899495 3.3545 0
M  V30 7329 C 702.756 -0.196738 4.27548 0
M  V30 7330 C 702.082 -1.25012 5.19881 0
M  V30 7331 C 703.382 0.935158 5.1386 0
M  V30 7332 H 705.076 0.807296 2.88311 0
M  V30 7333 H 702.622 0.389665 1.38628 0
M  V30 7334 H 704.575 -1.36545 3.98665 0
M  V30 7335 H 703.299 -1.69869 2.78948 0
M  V30 7336 H 701.958 0.249158 3.65752 0
M  V30 7337 H 701.606 -2.04177 4.59696 0
M  V30 7338 H 701.306 -0.784931 5.82334 0
M  V30 7339 H 702.83 -1.71665 5.85972 0
M  V30 7340 H 704.244 0.549619 5.70659 0
M  V30 7341 H 702.641 1.32726 5.85238 0
M  V30 7342 H 703.711 1.77613 4.512 0
M  V30 7343 N 705.054 -1.51416 0.437162 0
M  V30 7344 C 705.984 -2.30631 -0.364922 0
M  V30 7345 C 706.965 -1.36037 -1.02118 0
M  V30 7346 O 708.15 -1.64956 -1.02485 0
M  V30 7347 C 705.28 -3.1482 -1.46648 0
M  V30 7348 C 704.234 -4.17691 -0.933717 0
M  V30 7349 C 703.56 -4.904 -2.13101 0
M  V30 7350 C 704.86 -5.2229 0.0317201 0
M  V30 7351 H 706.554 -2.97932 0.29614 0
M  V30 7352 H 704.1 -1.4328 0.143865 0
M  V30 7353 H 706.053 -3.69017 -2.03481 0
M  V30 7354 H 704.777 -2.4534 -2.15583 0
M  V30 7355 H 703.436 -3.64545 -0.387602 0
M  V30 7356 H 703.084 -4.17423 -2.80654 0
M  V30 7357 H 702.784 -5.59962 -1.78092 0
M  V30 7358 H 704.308 -5.4742 -2.70487 0
M  V30 7359 H 705.722 -5.7156 -0.446302 0
M  V30 7360 H 704.119 -5.99378 0.29437 0
M  V30 7361 H 705.189 -4.75131 0.968447 0
M  V30 7362 N 706.532 -0.168513 -1.56696 0
M  V30 7363 C 707.757 0.486688 -2.01609 0
M  V30 7364 C 708.182 1.56203 -1.04796 0
M  V30 7365 O 707.54 1.8128 -0.0270596 0
M  V30 7366 C 707.588 1.04451 -3.45141 0
M  V30 7367 O 706.692 2.15862 -3.51393 0
M  V30 7368 H 706.033 0.116831 -0.653641 0
M  V30 7369 H 708.563 -0.271579 -2.0279 0
M  V30 7370 H 708.573 1.36782 -3.84389 0
M  V30 7371 H 707.248 0.257155 -4.15104 0
M  V30 7372 H 705.825 1.84597 -3.24004 0
M  V30 7373 N 708.01 1.57248 0.105221 0
M  V30 7374 C 709.421 1.74612 0.660865 0
M  V30 7375 C 709.772 0.789231 1.79626 0
M  V30 7376 O 708.897 -0.0346611 2.16372 0
M  V30 7377 C 709.492 3.16624 1.20559 0
M  V30 7378 C 708.051 3.35447 1.7074 0
M  V30 7379 C 707.198 2.70445 0.612764 0
M  V30 7380 H 710.149 1.5824 -0.12079 0
M  V30 7381 H 710.17 3.18937 2.07508 0
M  V30 7382 H 709.682 3.86245 0.379012 0
M  V30 7383 H 707.783 2.7089 2.5583 0
M  V30 7384 H 707.896 4.43702 1.80736 0
M  V30 7385 H 706.26 2.32061 1.04975 0
M  V30 7386 H 707.043 3.42699 -0.203066 0
M  V30 7387 N 709.488 -0.375779 1.53054 0
M  V30 7388 C 710.718 -1.1387 1.72386 0
M  V30 7389 C 711.126 -1.8382 0.447966 0
M  V30 7390 O 710.469 -1.74027 -0.588244 0
M  V30 7391 C 710.531 -2.22047 2.82728 0
M  V30 7392 C 710.195 -1.71951 4.23417 0
M  V30 7393 C 711.192 -1.18909 5.06119 0
M  V30 7394 C 708.877 -1.77773 4.69789 0
M  V30 7395 C 710.871 -0.723529 6.3328 0
M  V30 7396 C 708.558 -1.30829 5.96931 0
M  V30 7397 C 709.556 -0.782077 6.78508 0
M  V30 7398 O 709.244 -0.319529 8.03265 0
M  V30 7399 H 708.976 -0.346835 0.580242 0
M  V30 7400 H 711.53 -0.443748 2.00549 0
M  V30 7401 H 709.76 -2.95006 2.50017 0
M  V30 7402 H 711.449 -2.83654 2.90336 0
M  V30 7403 H 712.215 -1.13758 4.7147 0
M  V30 7404 H 708.094 -2.17673 4.06373 0
M  V30 7405 H 711.638 -0.312126 6.96901 0
M  V30 7406 H 707.535 -1.3567 6.31081 0
M  V30 7407 H 708.303 -0.439796 8.17318 0
M  V30 7408 N 710.966 -1.44241 -0.634997 0
M  V30 7409 C 712.212 -1.47038 -1.39669 0
M  V30 7410 C 712.545 -0.101122 -1.93937 0
M  V30 7411 O 711.82 0.880699 -1.73418 0
M  V30 7412 C 712.103 -2.52763 -2.56482 0
M  V30 7413 C 711.956 -3.99032 -2.07589 0
M  V30 7414 C 713.275 -2.55031 -3.58674 0
M  V30 7415 H 710.394 -0.53537 -0.506506 0
M  V30 7416 H 713.036 -1.75898 -0.718317 0
M  V30 7417 H 711.186 -2.28284 -3.14354 0
M  V30 7418 H 712.858 -4.3463 -1.54577 0
M  V30 7419 H 711.101 -4.10994 -1.38804 0
M  V30 7420 H 711.772 -4.68649 -2.91671 0
M  V30 7421 H 714.248 -2.76893 -3.10595 0
M  V30 7422 H 713.124 -3.30916 -4.37934 0
M  V30 7423 H 713.385 -1.59085 -4.12486 0
M  V30 7424 N 712.444 0.87505 -1.31075 0
M  V30 7425 C 713.376 1.98773 -1.14114 0
M  V30 7426 C 714.389 1.62595 -0.0816119 0
M  V30 7427 O 715.578 1.75449 -0.32861 0
M  V30 7428 C 712.678 3.31159 -0.720224 0
M  V30 7429 C 711.851 3.9571 -1.86366 0
M  V30 7430 C 710.91 5.06407 -1.42965 0
M  V30 7431 O 709.936 5.27501 -2.13848 0
M  V30 7432 N 711.138 5.79649 -0.314194 0
M  V30 7433 H 713.903 2.1387 -2.09951 0
M  V30 7434 H 711.464 1.04873 -1.23342 0
M  V30 7435 H 713.456 4.0259 -0.412687 0
M  V30 7436 H 712.026 3.12257 0.146396 0
M  V30 7437 H 711.246 3.17324 -2.33879 0
M  V30 7438 H 712.534 4.35576 -2.62966 0
M  V30 7439 H 711.932 5.65025 0.276228 0
M  V30 7440 H 710.489 6.51766 -0.0661641 0
M  V30 7441 N 713.922 1.13953 1.08869 0
M  V30 7442 C 715.333 0.916649 1.62648 0
M  V30 7443 C 715.684 -0.545589 1.88462 0
M  V30 7444 O 714.809 -1.41351 1.63856 0
M  V30 7445 C 715.404 1.65751 2.95486 0
M  V30 7446 C 713.963 1.48034 3.46068 0
M  V30 7447 C 713.11 1.68305 2.20383 0
M  V30 7448 H 716.061 1.292 0.921572 0
M  V30 7449 H 716.082 1.11794 3.63707 0
M  V30 7450 H 715.594 2.72171 2.76667 0
M  V30 7451 H 713.695 0.439416 3.7 0
M  V30 7452 H 713.808 2.24719 4.23129 0
M  V30 7453 H 712.172 1.10833 2.29321 0
M  V30 7454 H 712.955 2.76057 2.04077 0
M  V30 7455 N 715.4 -1.26948 0.933913 0
M  V30 7456 C 716.646 -1.94374 0.57848 0
M  V30 7457 C 716.979 -1.73166 -0.879048 0
M  V30 7458 O 716.254 -1.06438 -1.62792 0
M  V30 7459 C 716.537 -3.4834 0.912739 0
M  V30 7460 C 716.39 -3.78866 2.42448 0
M  V30 7461 C 717.709 -4.38062 0.423003 0
M  V30 7462 H 714.828 -0.705959 0.211639 0
M  V30 7463 H 717.47 -1.49951 1.16682 0
M  V30 7464 H 715.62 -3.86309 0.412058 0
M  V30 7465 H 717.292 -3.50654 2.99733 0
M  V30 7466 H 715.535 -3.25198 2.87104 0
M  V30 7467 H 716.206 -4.86458 2.60887 0
M  V30 7468 H 718.682 -4.0728 0.852191 0
M  V30 7469 H 717.558 -5.44599 0.685776 0
M  V30 7470 H 717.819 -4.36886 -0.676994 0
M  V30 7471 N 716.879 -0.700114 -1.41195 0
M  V30 7472 C 718.119 -0.237223 -2.03019 0
M  V30 7473 C 718.483 1.14304 -1.54268 0
M  V30 7474 O 719.684 1.70204 -2.08048 0
M  V30 7475 C 717.955 -0.297442 -3.5616 0
M  V30 7476 S 719.514 0.0907367 -4.38706 0
M  V30 7477 H 716.332 -0.0952147 -0.704596 0
M  V30 7478 H 718.934 -0.918901 -1.72559 0
M  V30 7479 H 717.638 -1.30391 -3.89135 0
M  V30 7480 H 717.169 0.403233 -3.91328 0
M  V30 7481 H 719.184 1.31721 -4.78397 0
M  V30 7482 N 718.357 1.51182 -0.445186 0
M  V30 7483 C 719.287 2.30821 0.352686 0
M  V30 7484 C 720.268 1.36576 1.01395 0
M  V30 7485 O 721.453 1.65497 1.01609 0
M  V30 7486 C 718.583 3.15593 1.44976 0
M  V30 7487 C 717.537 4.1818 0.911553 0
M  V30 7488 C 716.863 4.91523 2.10497 0
M  V30 7489 C 718.163 5.22266 -0.059418 0
M  V30 7490 H 719.857 2.97771 -0.311936 0
M  V30 7491 H 717.403 1.43201 -0.151461 0
M  V30 7492 H 719.356 3.70091 2.01521 0
M  V30 7493 H 718.08 2.4648 2.14278 0
M  V30 7494 H 716.739 3.64746 0.368264 0
M  V30 7495 H 716.387 4.18906 2.78437 0
M  V30 7496 H 716.087 5.60898 1.7512 0
M  V30 7497 H 717.611 5.48847 2.6758 0
M  V30 7498 H 719.025 5.71789 0.415985 0
M  V30 7499 H 717.422 5.99213 -0.326152 0
M  V30 7500 H 718.492 4.7461 -0.993631 0
M  V30 7501 N 719.835 0.176821 1.56605 0
M  V30 7502 C 721.246 -0.338963 1.83597 0
M  V30 7503 C 721.597 -1.62677 1.09684 0
M  V30 7504 O 720.722 -2.13524 0.351661 0
M  V30 7505 C 721.317 -0.62177 3.33046 0
M  V30 7506 C 719.876 -1.08198 3.60514 0
M  V30 7507 C 719.023 -0.120774 2.77037 0
M  V30 7508 H 721.974 0.400978 1.53551 0
M  V30 7509 H 721.995 -1.47321 3.50823 0
M  V30 7510 H 721.507 0.315692 3.86814 0
M  V30 7511 H 719.608 -2.03435 3.12162 0
M  V30 7512 H 719.721 -0.987329 4.68816 0
M  V30 7513 H 718.085 -0.619192 2.47059 0
M  V30 7514 H 718.868 0.810806 3.33588 0
M  V30 7515 N 721.313 -1.57302 -0.09688 0
M  V30 7516 C 722.538 -1.9058 -0.818169 0
M  V30 7517 C 722.963 -0.770921 -1.71576 0
M  V30 7518 O 722.321 0.277588 -1.79162 0
M  V30 7519 C 722.369 -3.22714 -1.60898 0
M  V30 7520 O 721.473 -3.10178 -2.71779 0
M  V30 7521 H 720.814 -0.624759 -0.224882 0
M  V30 7522 H 723.344 -2.04471 -0.07264 0
M  V30 7523 H 723.354 -3.55978 -1.99358 0
M  V30 7524 H 722.029 -4.04899 -0.950227 0
M  V30 7525 H 720.606 -2.88424 -2.3636 0
M  V30 7526 N 722.791 0.367657 -1.53252 0
M  V30 7527 C 724.039 1.10832 -1.68999 0
M  V30 7528 C 724.36 1.89894 -0.443306 0
M  V30 7529 O 723.63 1.88235 0.54262 0
M  V30 7530 H 722.21 0.412153 -0.623008 0
M  V30 7531 H 724.872 0.414775 -1.90435 0
M  V30 7532 H 723.968 1.7993 -2.55013 0
M  V30 7533 N 724.269 1.44576 0.627338 0
M  V30 7534 C 725.232 1.51372 1.72102 0
M  V30 7535 C 726.232 0.395329 1.55865 0
M  V30 7536 O 727.422 0.658094 1.61291 0
M  V30 7537 C 724.554 1.39129 3.11217 0
M  V30 7538 H 725.747 2.48798 1.6745 0
M  V30 7539 H 723.3 1.31724 0.841336 0
M  V30 7540 H 724.035 0.428114 3.21462 0
M  V30 7541 H 723.82 2.20229 3.24409 0
M  V30 7542 H 725.31 1.46874 3.90919 0
M  V30 7543 N 725.747 -0.868086 1.31537 0
M  V30 7544 C 726.71 -1.95703 1.19302 0
M  V30 7545 C 727.71 -1.60355 0.119612 0
M  V30 7546 O 728.9 -1.70247 0.36902 0
M  V30 7547 C 726.032 -3.30599 0.831684 0
M  V30 7548 H 727.225 -2.07982 2.16064 0
M  V30 7549 H 724.778 -1.05661 1.15176 0
M  V30 7550 H 725.513 -3.2402 -0.134694 0
M  V30 7551 H 725.298 -3.57629 1.60761 0
M  V30 7552 H 726.788 -4.10439 0.770026 0
M  V30 7553 N 727.225 -1.14528 -1.08264 0
M  V30 7554 C 728.641 -0.885976 -1.3275 0
M  V30 7555 C 728.841 0.472096 -1.95892 0
M  V30 7556 O 727.897 1.21606 -2.21288 0
M  V30 7557 C 729.21 -2.01982 -2.22764 0
M  V30 7558 C 730.758 -2.05329 -2.36239 0
M  V30 7559 C 731.233 -3.1801 -3.29596 0
M  V30 7560 N 732.724 -3.17598 -3.37173 0
M  V30 7561 C 733.459 -4.01426 -4.09444 0
M  V30 7562 N 732.955 -4.95297 -4.8441 0
M  V30 7563 N 734.748 -3.89482 -4.0529 0
M  V30 7564 H 726.899 -2.01996 -0.656607 0
M  V30 7565 H 729.162 -0.880274 -0.351884 0
M  V30 7566 H 728.868 -2.99964 -1.83615 0
M  V30 7567 H 728.742 -1.94421 -3.23234 0
M  V30 7568 H 731.129 -1.07953 -2.74646 0
M  V30 7569 H 731.21 -2.1696 -1.35506 0
M  V30 7570 H 730.854 -4.15633 -2.9191 0
M  V30 7571 H 730.784 -3.03616 -4.30261 0
M  V30 7572 H 733.275 -2.4961 -2.83731 0
M  V30 7573 H 733.588 -5.55723 -5.37021 0
M  V30 7574 H 731.933 -4.99293 -4.83457 0
M  V30 7575 H 735.124 -3.15465 -3.45832 0
M  V30 7576 H 735.297 -4.55039 -4.6135 0
M  V30 7577 N 728.703 1.26451 -0.940633 0
M  V30 7578 C 730.114 1.75726 -0.630653 0
M  V30 7579 C 730.465 1.76631 0.854167 0
M  V30 7580 O 729.59 1.37807 1.66848 0
M  V30 7581 C 730.185 3.19114 -1.13805 0
M  V30 7582 C 728.744 3.66005 -0.878497 0
M  V30 7583 C 727.891 2.45505 -1.28928 0
M  V30 7584 H 730.842 1.12535 -1.119 0
M  V30 7585 H 730.863 3.77311 -0.491625 0
M  V30 7586 H 730.375 3.18424 -2.21874 0
M  V30 7587 H 728.476 3.72126 0.187833 0
M  V30 7588 H 728.589 4.54844 -1.50512 0
M  V30 7589 H 726.953 2.4467 -0.707713 0
M  V30 7590 H 727.736 2.47516 -2.37888 0
M  V30 7591 N 730.181 0.707592 1.40822 0
M  V30 7592 C 731.406 0.251626 2.05868 0
M  V30 7593 C 731.831 -1.09503 1.5294 0
M  V30 7594 O 731.189 -1.68806 0.661385 0
M  V30 7595 C 731.237 0.23287 3.59847 0
M  V30 7596 O 730.341 -0.788477 4.04792 0
M  V30 7597 H 729.682 0.119936 0.653078 0
M  V30 7598 H 732.212 0.96583 1.80369 0
M  V30 7599 H 732.222 0.0678204 4.07944 0
M  V30 7600 H 730.897 1.21565 3.97737 0
M  V30 7601 H 729.474 -0.591802 3.68174 0
M  V30 7602 N 731.66 -1.50943 0.453197 0
M  V30 7603 C 732.57 -2.31884 -0.355963 0
M  V30 7604 C 733.586 -1.41481 -1.01287 0
M  V30 7605 O 734.762 -1.74546 -1.00477 0
M  V30 7606 C 731.827 -3.15668 -1.43369 0
M  V30 7607 C 730.888 -4.2187 -0.795253 0
M  V30 7608 C 730.121 -5.0165 -1.82162 0
M  V30 7609 O 730.344 -4.82266 -3.04592 0
M  V30 7610 O 729.278 -5.85311 -1.40336 0
M  V30 7611 H 733.104 -3.02162 0.305248 0
M  V30 7612 H 730.689 -1.47839 0.215398 0
M  V30 7613 H 732.571 -3.67709 -2.05836 0
M  V30 7614 H 731.246 -2.48137 -2.07869 0
M  V30 7615 H 730.153 -3.73867 -0.132106 0
M  V30 7616 H 731.486 -4.9182 -0.193484 0
M  V30 7617 N 733.138 -0.185124 -1.56509 0
M  V30 7618 C 734.366 0.462139 -2.01673 0
M  V30 7619 C 734.781 1.55873 -1.06532 0
M  V30 7620 O 734.138 1.82371 -0.0684805 0
M  V30 7621 C 734.189 1.0277 -3.46584 0
M  V30 7622 O 733.91 -0.0251296 -4.38093 0
M  V30 7623 C 735.411 1.75183 -4.07217 0
M  V30 7624 H 732.631 0.117001 -0.660721 0
M  V30 7625 H 735.175 -0.290905 -2.0242 0
M  V30 7626 H 733.33 1.73118 -3.46568 0
M  V30 7627 H 733.744 0.394387 -5.23015 0
M  V30 7628 H 735.218 2.09999 -5.10494 0
M  V30 7629 H 735.695 2.6519 -3.50101 0
M  V30 7630 H 736.301 1.09445 -4.10977 0
M  V30 7631 N 734.616 1.57351 0.0885366 0
M  V30 7632 C 735.844 1.90631 0.804196 0
M  V30 7633 C 736.259 0.779474 1.71958 0
M  V30 7634 O 735.616 -0.248179 1.80805 0
M  V30 7635 C 735.667 3.23568 1.61202 0
M  V30 7636 O 735.388 4.31917 0.733447 0
M  V30 7637 C 736.889 3.70753 2.43016 0
M  V30 7638 H 734.109 0.630501 0.229585 0
M  V30 7639 H 736.653 2.044 0.0638092 0
M  V30 7640 H 734.808 3.11377 2.30485 0
M  V30 7641 H 735.222 5.08297 1.29361 0
M  V30 7642 H 736.696 4.66447 2.9518 0
M  V30 7643 H 737.173 2.98922 3.2178 0
M  V30 7644 H 737.779 3.85834 1.7892 0
M  V30 7645 N 736.094 -0.359525 1.53444 0
M  V30 7646 C 737.024 -1.44662 1.8329 0
M  V30 7647 C 738.005 -1.55617 0.68683 0
M  V30 7648 O 739.19 -1.70086 0.93725 0
M  V30 7649 C 736.32 -2.81923 2.02822 0
M  V30 7650 C 735.274 -2.85787 3.18606 0
M  V30 7651 C 734.6 -4.25781 3.23442 0
M  V30 7652 C 735.9 -2.52762 4.57065 0
M  V30 7653 H 737.594 -1.19934 2.74329 0
M  V30 7654 H 735.14 -0.575517 1.31999 0
M  V30 7655 H 737.093 -3.58005 2.22285 0
M  V30 7656 H 735.817 -3.08051 1.085 0
M  V30 7657 H 734.476 -2.12157 2.98973 0
M  V30 7658 H 734.124 -4.48994 2.26745 0
M  V30 7659 H 733.824 -4.29281 4.01238 0
M  V30 7660 H 735.348 -5.03727 3.45096 0
M  V30 7661 H 736.762 -3.18557 4.76649 0
M  V30 7662 H 735.159 -2.67569 5.37147 0
M  V30 7663 H 736.229 -1.47993 4.61764 0
M  V30 7664 N 737.572 -1.44907 -0.619662 0
M  V30 7665 C 738.812 -1.49822 -1.39042 0
M  V30 7666 C 739.176 -0.131803 -1.91547 0
M  V30 7667 O 740.377 -0.0556413 -2.68742 0
M  V30 7668 C 738.648 -2.53805 -2.5163 0
M  V30 7669 S 740.207 -2.77855 -3.3962 0
M  V30 7670 H 737.025 -0.529774 -0.474195 0
M  V30 7671 H 739.627 -1.81907 -0.716236 0
M  V30 7672 H 738.331 -3.51772 -2.11387 0
M  V30 7673 H 737.862 -2.23331 -3.23863 0
M  V30 7674 H 739.877 -2.10319 -4.49422 0
M  V30 7675 N 739.05 0.861098 -1.31996 0
M  V30 7676 C 739.982 1.97551 -1.16216 0
M  V30 7677 C 740.995 1.625 -0.0988527 0
M  V30 7678 O 742.184 1.75091 -0.3472 0
M  V30 7679 C 739.284 3.30376 -0.755307 0
M  V30 7680 C 738.457 3.93711 -1.90552 0
M  V30 7681 C 737.516 5.04862 -1.48328 0
M  V30 7682 O 736.542 5.25204 -2.19431 0
M  V30 7683 N 737.744 5.79283 -0.375656 0
M  V30 7684 H 740.509 2.11632 -2.12208 0
M  V30 7685 H 738.07 1.03559 -1.24448 0
M  V30 7686 H 740.062 4.0213 -0.455364 0
M  V30 7687 H 738.632 3.12395 0.113269 0
M  V30 7688 H 737.852 3.14825 -2.37231 0
M  V30 7689 H 739.14 4.32762 -2.67571 0
M  V30 7690 H 738.538 5.65286 0.216284 0
M  V30 7691 H 737.095 6.5166 -0.135289 0
M  V30 7692 N 740.528 1.15101 1.07655 0
M  V30 7693 C 741.774 0.925343 1.80458 0
M  V30 7694 C 742.107 -0.546354 1.86356 0
M  V30 7695 O 741.382 -1.40496 1.34503 0
M  V30 7696 C 741.665 1.53646 3.25676 0
M  V30 7697 C 741.518 3.07854 3.27942 0
M  V30 7698 C 742.837 1.21968 4.22861 0
M  V30 7699 H 739.956 0.337592 0.655134 0
M  V30 7700 H 742.598 1.42217 1.25993 0
M  V30 7701 H 740.748 1.11395 3.72187 0
M  V30 7702 H 742.42 3.58989 2.89697 0
M  V30 7703 H 740.663 3.41904 2.66991 0
M  V30 7704 H 741.334 3.45725 4.30324 0
M  V30 7705 H 743.81 1.5851 3.84726 0
M  V30 7706 H 742.686 1.67349 5.22767 0
M  V30 7707 H 742.947 0.136207 4.4189 0
M  V30 7708 N 742.006 -1.2595 0.947325 0
M  V30 7709 C 742.969 -2.24407 0.466285 0
M  V30 7710 C 743.969 -1.55054 -0.426005 0
M  V30 7711 O 745.159 -1.7275 -0.224319 0
M  V30 7712 C 742.291 -3.39326 -0.327201 0
M  V30 7713 H 743.484 -2.68477 1.33642 0
M  V30 7714 H 741.037 -1.38211 0.729887 0
M  V30 7715 H 741.772 -3.00667 -1.21532 0
M  V30 7716 H 741.557 -3.9085 0.312839 0
M  V30 7717 H 743.047 -4.12455 -0.653477 0
M  V30 7718 N 743.484 -0.715051 -1.40445 0
M  V30 7719 C 744.732 -0.253826 -2.005 0
M  V30 7720 C 745.053 1.15681 -1.5698 0
M  V30 7721 O 744.323 1.78414 -0.809027 0
M  V30 7722 H 742.903 -0.0908537 -0.741454 0
M  V30 7723 H 745.565 -0.920561 -1.7179 0
M  V30 7724 H 744.661 -0.286499 -3.10782 0
M  V30 7725 N 744.962 1.50701 -0.461195 0
M  V30 7726 C 746.208 2.03203 0.0895017 0
M  V30 7727 C 746.563 1.33768 1.38289 0
M  V30 7728 O 745.856 0.451304 1.86209 0
M  V30 7729 C 746.05 3.55788 0.33908 0
M  V30 7730 C 745.879 4.40009 -0.928571 0
M  V30 7731 C 744.649 4.83475 -1.46903 0
M  V30 7732 C 746.847 4.80972 -1.82129 0
M  V30 7733 N 744.829 5.51985 -2.68673 0
M  V30 7734 C 746.2 5.48792 -2.88491 0
M  V30 7735 C 748.255 4.62937 -1.83285 0
M  V30 7736 C 746.958 6.00489 -3.95987 0
M  V30 7737 C 748.984 5.15568 -2.89731 0
M  V30 7738 C 748.346 5.83355 -3.94812 0
M  V30 7739 H 744.445 0.781968 -0.00702462 0
M  V30 7740 H 747.029 1.84321 -0.627195 0
M  V30 7741 H 745.2 3.74636 1.02481 0
M  V30 7742 H 746.932 3.94944 0.883242 0
M  V30 7743 H 743.687 4.62495 -1.01959 0
M  V30 7744 H 744.111 5.90854 -3.30486 0
M  V30 7745 H 748.753 4.0997 -1.03366 0
M  V30 7746 H 746.471 6.52499 -4.7673 0
M  V30 7747 H 750.057 5.0345 -2.91597 0
M  V30 7748 H 748.937 6.23347 -4.75824 0
M  V30 7749 N 746.441 0.193421 1.56409 0
M  V30 7750 C 747.689 -0.444908 1.97142 0
M  V30 7751 C 748.01 -1.62268 1.08139 0
M  V30 7752 O 747.28 -1.95307 0.152326 0
M  V30 7753 H 745.86 -0.16736 0.728011 0
M  V30 7754 H 748.522 0.279763 1.92882 0
M  V30 7755 H 747.618 -0.790159 3.01932 0
M  V30 7756 N 747.919 -1.57396 -0.0801906 0
M  V30 7757 C 748.869 -1.9955 -1.10289 0
M  V30 7758 C 749.853 -0.876234 -1.34948 0
M  V30 7759 O 751.045 -1.14012 -1.35389 0
M  V30 7760 C 748.174 -2.43596 -2.419 0
M  V30 7761 C 747.26 -3.6224 -2.20551 0
M  V30 7762 N 747.651 -4.76693 -1.69109 0
M  V30 7763 C 745.949 -3.68627 -2.51059 0
M  V30 7764 C 746.65 -5.58577 -1.62379 0
M  V30 7765 N 745.626 -5.02178 -2.0813 0
M  V30 7766 H 749.428 -2.85483 -0.698335 0
M  V30 7767 H 746.942 -1.59837 -0.287395 0
M  V30 7768 H 748.939 -2.72031 -3.15919 0
M  V30 7769 H 747.599 -1.59047 -2.8308 0
M  V30 7770 H 748.61 -4.9915 -1.38092 0
M  V30 7771 H 745.287 -2.94772 -2.95661 0
M  V30 7772 H 746.677 -6.60447 -1.2353 0
M  V30 7773 N 749.397 0.351382 -1.53633 0
M  V30 7774 C 750.329 1.45159 -1.77374 0
M  V30 7775 C 751.342 1.4905 -0.654826 0
M  V30 7776 O 752.531 1.52274 -0.931396 0
M  V30 7777 C 749.631 2.83858 -1.85143 0
M  V30 7778 C 748.804 3.03498 -3.14972 0
M  V30 7779 C 747.863 4.22393 -3.138 0
M  V30 7780 O 746.889 4.16885 -3.87551 0
M  V30 7781 N 748.091 5.30533 -2.35617 0
M  V30 7782 H 750.856 1.25167 -2.72311 0
M  V30 7783 H 748.417 0.54121 -1.52586 0
M  V30 7784 H 750.409 3.61557 -1.8182 0
M  V30 7785 H 748.979 2.9703 -0.974275 0
M  V30 7786 H 748.199 2.13336 -3.31484 0
M  V30 7787 H 749.487 3.13498 -4.00745 0
M  V30 7788 H 748.885 5.37875 -1.75235 0
M  V30 7789 H 747.442 6.06756 -2.38098 0
M  V30 7790 N 750.875 1.45233 0.611969 0
M  V30 7791 C 752.122 1.49021 1.37109 0
M  V30 7792 C 752.45 0.130227 1.94064 0
M  V30 7793 O 751.705 -0.870551 1.75271 0
M  V30 7794 C 752.004 2.51353 2.54079 0
M  V30 7795 C 751.67 3.96178 2.15299 0
M  V30 7796 C 750.332 4.35614 2.04436 0
M  V30 7797 C 752.684 4.87275 1.84966 0
M  V30 7798 C 750.012 5.64047 1.61456 0
M  V30 7799 C 752.364 6.16115 1.43474 0
M  V30 7800 C 751.028 6.54486 1.31167 0
M  V30 7801 H 750.298 0.545307 0.501719 0
M  V30 7802 H 752.945 1.78555 0.692122 0
M  V30 7803 H 751.25 2.15372 3.27295 0
M  V30 7804 H 752.947 2.51523 3.12309 0
M  V30 7805 H 749.537 3.6499 2.24678 0
M  V30 7806 H 753.721 4.57548 1.92258 0
M  V30 7807 H 748.977 5.92575 1.50547 0
M  V30 7808 H 753.151 6.86149 1.19048 0
M  V30 7809 H 750.778 7.53904 0.97637 0
M  V30 7810 N 752.353 -0.854086 1.3245 0
M  V30 7811 C 753.263 -1.99503 1.23434 0
M  V30 7812 C 754.279 -1.73371 0.147828 0
M  V30 7813 O 755.455 -1.97998 0.368609 0
M  V30 7814 C 752.52 -3.33192 0.958328 0
M  V30 7815 C 751.581 -3.72542 2.13333 0
M  V30 7816 C 750.814 -4.99852 1.8704 0
M  V30 7817 O 751.037 -5.64573 0.813239 0
M  V30 7818 O 749.971 -5.36345 2.73161 0
M  V30 7819 H 753.797 -2.10046 2.1935 0
M  V30 7820 H 751.382 -0.984823 1.12346 0
M  V30 7821 H 753.264 -4.13327 0.820918 0
M  V30 7822 H 751.939 -3.23687 0.0293299 0
M  V30 7823 H 750.846 -2.92981 2.32622 0
M  V30 7824 H 752.179 -3.86694 3.04514 0
M  V30 7825 N 753.831 -1.1567 -1.07043 0
M  V30 7826 C 755.079 -0.931673 -1.79344 0
M  V30 7827 C 755.4 0.542421 -1.87304 0
M  V30 7828 O 754.67 1.39418 -1.37621 0
M  V30 7829 H 753.25 -0.34171 -0.664262 0
M  V30 7830 H 755.912 -1.45795 -1.29344 0
M  V30 7831 H 755.008 -1.34379 -2.81689 0
M  V30 7832 N 755.309 1.25446 -0.953992 0
M  V30 7833 C 756.272 2.24156 -0.478179 0
M  V30 7834 C 757.272 1.55278 0.417776 0
M  V30 7835 O 758.462 1.72866 0.215155 0
M  V30 7836 C 755.594 3.39495 0.309202 0
M  V30 7837 H 756.787 2.67764 -1.35064 0
M  V30 7838 H 754.34 1.37822 -0.737206 0
M  V30 7839 H 755.075 3.01307 1.19936 0
M  V30 7840 H 754.86 3.90679 -0.333562 0
M  V30 7841 H 756.35 4.12796 0.631594 0
M  V30 7842 N 756.787 0.722489 1.40064 0
M  V30 7843 C 757.697 0.0755984 2.34478 0
M  V30 7844 C 758.713 -0.736046 1.57665 0
M  V30 7845 O 759.889 -0.667407 1.9002 0
M  V30 7846 C 756.954 -0.830075 3.36616 0
M  V30 7847 C 756.015 -0.00759884 4.29299 0
M  V30 7848 C 755.248 -0.870139 5.26559 0
M  V30 7849 O 755.471 -2.10921 5.2997 0
M  V30 7850 O 754.405 -0.305454 6.01124 0
M  V30 7851 H 758.231 0.854545 2.9143 0
M  V30 7852 H 755.816 0.483032 1.41376 0
M  V30 7853 H 757.698 -1.34864 3.99236 0
M  V30 7854 H 756.373 -1.58805 2.82069 0
M  V30 7855 H 755.28 0.556199 3.69942 0
M  V30 7856 H 756.613 0.712312 4.87018 0
M  V30 7857 N 758.265 -1.50454 0.469181 0
M  V30 7858 C 759.175 -2.32248 -0.331349 0
M  V30 7859 C 760.191 -1.42548 -0.997807 0
M  V30 7860 O 761.367 -1.75602 -0.9862 0
M  V30 7861 C 758.432 -3.17171 -1.40012 0
M  V30 7862 C 757.493 -4.2269 -0.750463 0
M  V30 7863 C 756.726 -5.03554 -1.76831 0
M  V30 7864 O 756.949 -4.85469 -2.99459 0
M  V30 7865 O 755.883 -5.86767 -1.3412 0
M  V30 7866 H 759.709 -3.01821 0.337279 0
M  V30 7867 H 757.294 -1.47602 0.231066 0
M  V30 7868 H 759.176 -3.69871 -2.01924 0
M  V30 7869 H 757.851 -2.50328 -2.05226 0
M  V30 7870 H 756.758 -3.73986 -0.0924446 0
M  V30 7871 H 758.091 -4.91997 -0.14131 0
M  V30 7872 N 759.743 -0.201713 -1.56304 0
M  V30 7873 C 760.973 0.440084 -2.01858 0
M  V30 7874 C 761.381 1.55279 -1.08098 0
M  V30 7875 O 760.724 1.83529 -0.0792216 0
M  V30 7876 C 760.786 1.05091 -3.43797 0
M  V30 7877 C 760.45 0.0761208 -4.56937 0
M  V30 7878 C 761.447 -0.716951 -5.14933 0
M  V30 7879 C 759.132 -0.0368815 -5.02286 0
M  V30 7880 C 761.126 -1.60993 -6.16733 0
M  V30 7881 C 758.813 -0.933409 -6.03929 0
M  V30 7882 C 759.811 -1.71849 -6.61027 0
M  V30 7883 O 759.499 -2.59998 -7.60695 0
M  V30 7884 H 759.231 0.114139 -0.666294 0
M  V30 7885 H 761.785 -0.309672 -2.03052 0
M  V30 7886 H 760.015 1.84938 -3.3961 0
M  V30 7887 H 761.704 1.59804 -3.73118 0
M  V30 7888 H 762.47 -0.63999 -4.80759 0
M  V30 7889 H 758.349 0.564034 -4.57537 0
M  V30 7890 H 761.893 -2.22315 -6.61227 0
M  V30 7891 H 757.79 -1.01146 -6.37526 0
M  V30 7892 H 758.558 -2.53851 -7.7814 0
M  V30 7893 N 761.222 1.57436 0.0718424 0
M  V30 7894 C 762.185 2.02703 1.06977 0
M  V30 7895 C 763.185 0.924062 1.31597 0
M  V30 7896 O 764.375 1.18894 1.27318 0
M  V30 7897 C 761.507 2.40763 2.41342 0
M  V30 7898 H 762.7 2.92098 0.679619 0
M  V30 7899 H 760.253 1.5304 0.317565 0
M  V30 7900 H 760.988 1.54394 2.8519 0
M  V30 7901 H 760.773 3.21249 2.24814 0
M  V30 7902 H 762.263 2.76361 3.13073 0
M  V30 7903 N 762.7 -0.34323 1.53817 0
M  V30 7904 C 763.925 -1.1079 1.75329 0
M  V30 7905 C 764.35 -1.81571 0.491293 0
M  V30 7906 O 763.708 -1.72561 -0.556089 0
M  V30 7907 C 763.756 -2.09681 2.9337 0
M  V30 7908 O 762.86 -3.17207 2.63541 0
M  V30 7909 H 762.201 -0.320402 0.581583 0
M  V30 7910 H 764.731 -0.393525 2.0078 0
M  V30 7911 H 764.741 -2.52897 3.20168 0
M  V30 7912 H 763.416 -1.5756 3.84899 0
M  V30 7913 H 761.993 -2.78806 2.47632 0
M  V30 7914 N 764.178 -1.45556 -0.604258 0
M  V30 7915 C 765.425 -1.49746 -1.36317 0
M  V30 7916 C 765.753 -0.140516 -1.93992 0
M  V30 7917 O 765.008 0.861244 -1.7573 0
M  V30 7918 C 765.307 -2.52697 -2.52743 0
M  V30 7919 C 764.973 -3.97315 -2.13195 0
M  V30 7920 C 763.635 -4.36692 -2.02123 0
M  V30 7921 C 765.987 -4.88249 -1.8238 0
M  V30 7922 C 763.315 -5.64895 -1.58463 0
M  V30 7923 C 765.667 -6.16867 -1.40205 0
M  V30 7924 C 764.331 -6.55172 -1.27694 0
M  V30 7925 H 763.601 -0.54796 -0.49882 0
M  V30 7926 H 766.248 -1.7892 -0.682643 0
M  V30 7927 H 764.553 -2.17105 -3.26148 0
M  V30 7928 H 766.25 -2.53176 -3.10971 0
M  V30 7929 H 762.84 -3.66176 -2.22739 0
M  V30 7930 H 767.024 -4.58561 -1.89829 0
M  V30 7931 H 762.28 -5.93365 -1.47402 0
M  V30 7932 H 766.454 -6.86771 -1.15408 0
M  V30 7933 H 764.081 -7.54411 -0.936375 0
M  V30 7934 N 765.656 0.84705 -1.32902 0
M  V30 7935 C 766.586 1.97166 -1.25091 0
M  V30 7936 C 767.567 1.69578 -0.133161 0
M  V30 7937 O 768.752 1.91519 -0.321591 0
M  V30 7938 C 765.882 3.33157 -0.981006 0
M  V30 7939 C 764.836 3.75119 -2.06082 0
M  V30 7940 C 764.162 5.08826 -1.64318 0
M  V30 7941 C 765.462 3.89774 -3.47669 0
M  V30 7942 H 767.156 2.03958 -2.19184 0
M  V30 7943 H 764.702 0.979907 -1.05517 0
M  V30 7944 H 766.655 4.11393 -0.912891 0
M  V30 7945 H 765.379 3.266 -0.00445559 0
M  V30 7946 H 764.038 2.9914 -2.11921 0
M  V30 7947 H 763.686 4.98732 -0.653876 0
M  V30 7948 H 763.386 5.37873 -2.36572 0
M  V30 7949 H 764.91 5.89546 -1.58958 0
M  V30 7950 H 766.324 4.58343 -3.44376 0
M  V30 7951 H 764.721 4.30248 -4.18338 0
M  V30 7952 H 765.791 2.92463 -3.86773 0
M  V30 7953 N 767.134 1.16236 1.06428 0
M  V30 7954 C 768.066 0.825446 2.1382 0
M  V30 7955 C 769.079 -0.166707 1.61944 0
M  V30 7956 O 770.268 0.0578606 1.78406 0
M  V30 7957 C 767.368 0.208023 3.38261 0
M  V30 7958 C 766.541 1.23994 4.19457 0
M  V30 7959 C 765.6 0.642569 5.22262 0
M  V30 7960 O 764.626 1.31106 5.53895 0
M  V30 7961 N 765.828 -0.571327 5.77682 0
M  V30 7962 H 768.593 1.7497 2.43322 0
M  V30 7963 H 766.154 1.05951 1.22417 0
M  V30 7964 H 768.146 -0.204608 4.04182 0
M  V30 7965 H 766.716 -0.619752 3.06395 0
M  V30 7966 H 765.936 1.82879 3.49212 0
M  V30 7967 H 767.224 1.93638 4.70512 0
M  V30 7968 H 766.622 -1.13263 5.54245 0
M  V30 7969 H 765.179 -0.926187 6.45186 0
M  V30 7970 N 768.612 -1.24939 0.960631 0
M  V30 7971 C 769.522 -2.29374 0.492435 0
M  V30 7972 C 770.538 -1.68262 -0.443154 0
M  V30 7973 O 771.714 -1.98875 -0.31793 0
M  V30 7974 C 768.779 -3.46023 -0.216626 0
M  V30 7975 C 767.84 -4.22557 0.757915 0
M  V30 7976 C 767.073 -5.33636 0.0825969 0
M  V30 7977 O 767.296 -5.59084 -1.13054 0
M  V30 7978 O 766.23 -5.96939 0.771177 0
M  V30 7979 H 770.056 -2.71525 1.36044 0
M  V30 7980 H 767.641 -1.30499 0.72735 0
M  V30 7981 H 769.523 -4.16885 -0.615241 0
M  V30 7982 H 768.198 -3.05862 -1.05971 0
M  V30 7983 H 767.105 -3.54099 1.20685 0
M  V30 7984 H 768.438 -4.66516 1.5692 0
M  V30 7985 N 770.09 -0.729906 -1.39679 0
M  V30 7986 C 771.053 -0.0951668 -2.29002 0
M  V30 7987 C 772.053 0.672471 -1.46063 0
M  V30 7988 O 773.243 0.502245 -1.66803 0
M  V30 7989 C 770.375 0.874631 -3.29489 0
M  V30 7990 H 771.568 -0.882062 -2.86635 0
M  V30 7991 H 769.121 -0.495424 -1.4824 0
M  V30 7992 H 769.856 1.68807 -2.76902 0
M  V30 7993 H 769.641 0.326893 -3.90735 0
M  V30 7994 H 771.131 1.31548 -3.96339 0
M  V30 7995 N 771.568 1.50203 -0.477153 0
M  V30 7996 C 772.5 2.26508 0.350239 0
M  V30 7997 C 773.513 1.32081 0.95176 0
M  V30 7998 O 774.702 1.57546 0.839139 0
M  V30 7999 C 771.802 3.0361 1.50579 0
M  V30 8000 C 770.975 4.25438 1.01595 0
M  V30 8001 C 770.034 4.84783 2.04626 0
M  V30 8002 O 769.06 5.45528 1.62442 0
M  V30 8003 N 770.262 4.72318 3.37485 0
M  V30 8004 H 773.027 2.98155 -0.30394 0
M  V30 8005 H 770.588 1.58938 -0.308289 0
M  V30 8006 H 772.58 3.4019 2.1921 0
M  V30 8007 H 771.15 2.34724 2.06455 0
M  V30 8008 H 770.37 3.93894 0.155316 0
M  V30 8009 H 771.658 5.04413 0.666694 0
M  V30 8010 H 771.056 4.24022 3.74462 0
M  V30 8011 H 769.613 5.13149 4.01897 0
M  V30 8012 N 773.046 0.209999 1.56195 0
M  V30 8013 C 774.292 -0.425442 1.98287 0
M  V30 8014 C 774.625 -1.60232 1.09724 0
M  V30 8015 O 773.9 -1.93902 0.152414 0
M  V30 8016 C 774.183 -0.871189 3.49403 0
M  V30 8017 C 774.036 0.308527 4.48741 0
M  V30 8018 C 775.355 -1.73146 4.04609 0
M  V30 8019 H 772.474 -0.153169 0.720908 0
M  V30 8020 H 775.116 0.303916 1.87554 0
M  V30 8021 H 773.266 -1.49266 3.58681 0
M  V30 8022 H 774.938 0.946487 4.51486 0
M  V30 8023 H 773.181 0.957878 4.23092 0
M  V30 8024 H 773.852 -0.0461143 5.51981 0
M  V30 8025 H 776.328 -1.2072 3.98203 0
M  V30 8026 H 775.204 -2.01228 5.10684 0
M  V30 8027 H 775.465 -2.69083 3.5078 0
M  V30 8028 N 774.524 -1.57472 -0.0634922 0
M  V30 8029 C 775.935 -1.76303 -0.614337 0
M  V30 8030 C 776.286 -0.836578 -1.77471 0
M  V30 8031 O 775.411 -0.0227184 -2.16388 0
M  V30 8032 C 776.006 -3.19709 -1.12122 0
M  V30 8033 C 774.565 -3.39856 -1.61786 0
M  V30 8034 C 773.712 -2.71975 -0.540845 0
M  V30 8035 H 776.663 -1.57864 0.162702 0
M  V30 8036 H 776.684 -3.24326 -1.98979 0
M  V30 8037 H 776.196 -3.87114 -0.276472 0
M  V30 8038 H 774.297 -2.77578 -2.48558 0
M  V30 8039 H 774.41 -4.48338 -1.68908 0
M  V30 8040 H 772.774 -2.34763 -0.987854 0
M  V30 8041 H 773.557 -3.4204 0.293856 0
M  V30 8042 N 776.003 0.335068 -1.53997 0
M  V30 8043 C 777.25 1.07435 -1.71651 0
M  V30 8044 C 777.578 1.88378 -0.48413 0
M  V30 8045 O 776.833 1.8827 0.534139 0
M  V30 8046 C 777.132 2.0364 -2.9371 0
M  V30 8047 C 776.798 1.38942 -4.28959 0
M  V30 8048 C 775.46 1.21027 -4.65732 0
M  V30 8049 C 777.812 0.924083 -5.12943 0
M  V30 8050 C 775.14 0.552097 -5.84097 0
M  V30 8051 C 777.492 0.27978 -6.31981 0
M  V30 8052 C 776.156 0.0883843 -6.67441 0
M  V30 8053 H 775.426 0.393133 -0.628114 0
M  V30 8054 H 778.073 0.352712 -1.88224 0
M  V30 8055 H 776.378 2.82215 -2.71775 0
M  V30 8056 H 778.075 2.6085 -3.04562 0
M  V30 8057 H 774.665 1.53885 -4.00022 0
M  V30 8058 H 778.849 1.05032 -4.85059 0
M  V30 8059 H 774.105 0.392502 -6.10139 0
M  V30 8060 H 778.279 -0.0888479 -6.96343 0
M  V30 8061 H 775.906 -0.423657 -7.59019 0
M  V30 8062 N 777.481 1.45874 0.596531 0
M  V30 8063 C 778.411 1.5824 1.71705 0
M  V30 8064 C 779.392 0.433366 1.64487 0
M  V30 8065 O 780.577 0.657895 1.82717 0
M  V30 8066 C 777.707 1.55927 3.10329 0
M  V30 8067 C 776.661 2.69659 3.32367 0
M  V30 8068 C 775.987 2.52403 4.71377 0
M  V30 8069 C 777.287 4.11591 3.21544 0
M  V30 8070 H 778.981 2.52035 1.61613 0
M  V30 8071 H 776.527 1.21297 0.776082 0
M  V30 8072 H 778.48 1.63173 3.88526 0
M  V30 8073 H 777.204 0.586674 3.21288 0
M  V30 8074 H 775.863 2.61859 2.56564 0
M  V30 8075 H 775.511 1.53258 4.79083 0
M  V30 8076 H 775.211 3.28679 4.87077 0
M  V30 8077 H 776.735 2.6152 5.5176 0
M  V30 8078 H 778.149 4.20576 3.89601 0
M  V30 8079 H 776.546 4.88344 3.4877 0
M  V30 8080 H 777.616 4.32719 2.1882 0
M  V30 8081 N 778.959 -0.83999 1.33349 0
M  V30 8082 C 780.184 -1.63249 1.27924 0
M  V30 8083 C 780.609 -1.87523 -0.147193 0
M  V30 8084 O 779.967 -1.43853 -1.10345 0
M  V30 8085 C 780.015 -2.96046 2.05886 0
M  V30 8086 O 779.119 -3.87303 1.4167 0
M  V30 8087 H 778.46 -0.49715 0.440157 0
M  V30 8088 H 780.99 -1.04512 1.75893 0
M  V30 8089 H 781 -3.45752 2.16609 0
M  V30 8090 H 779.675 -2.77701 3.09605 0
M  V30 8091 H 778.252 -3.45789 1.39585 0
M  V30 8092 N 780.437 -1.16799 -1.0581 0
M  V30 8093 C 781.367 -0.902241 -2.15364 0
M  V30 8094 C 782.348 0.153351 -1.69407 0
M  V30 8095 O 783.533 0.00442032 -1.94199 0
M  V30 8096 C 780.663 -0.407911 -3.44896 0
M  V30 8097 C 779.617 -1.40197 -4.04387 0
M  V30 8098 C 778.943 -0.765848 -5.29187 0
M  V30 8099 C 780.243 -2.77316 -4.42598 0
M  V30 8100 H 781.937 -1.81841 -2.37853 0
M  V30 8101 H 779.483 -0.875731 -1.14311 0
M  V30 8102 H 781.436 -0.20945 -4.20879 0
M  V30 8103 H 780.16 0.54378 -3.22041 0
M  V30 8104 H 778.819 -1.58707 -3.30466 0
M  V30 8105 H 778.467 0.192482 -5.02632 0
M  V30 8106 H 778.167 -1.42939 -5.69949 0
M  V30 8107 H 779.691 -0.577519 -6.07863 0
M  V30 8108 H 781.105 -2.62561 -5.09642 0
M  V30 8109 H 779.502 -3.4019 -4.94359 0
M  V30 8110 H 780.572 -3.32199 -3.53231 0
M  V30 8111 N 781.915 1.24427 -0.967243 0
M  V30 8112 C 782.825 2.29109 -0.504592 0
M  V30 8113 C 783.841 1.68495 0.434224 0
M  V30 8114 O 785.017 1.99041 0.307379 0
M  V30 8115 C 782.082 3.46133 0.198273 0
M  V30 8116 C 781.143 4.22149 -0.780313 0
M  V30 8117 C 780.376 5.33585 -0.110896 0
M  V30 8118 O 780.599 5.59676 1.10088 0
M  V30 8119 O 779.533 5.96522 -0.802823 0
M  V30 8120 H 783.359 2.708 -1.37482 0
M  V30 8121 H 780.944 1.30111 -0.73426 0
M  V30 8122 H 782.826 4.17205 0.593124 0
M  V30 8123 H 781.501 3.0642 1.04347 0
M  V30 8124 H 780.408 3.53454 -1.22561 0
M  V30 8125 H 781.741 4.65677 -1.59392 0
M  V30 8126 N 783.393 0.737304 1.3929 0
M  V30 8127 C 784.809 0.413132 1.5416 0
M  V30 8128 C 785.009 -1.07574 1.70382 0
M  V30 8129 O 784.065 -1.86185 1.70562 0
M  V30 8130 C 785.378 1.19817 2.75798 0
M  V30 8131 C 786.926 1.18662 2.89635 0
M  V30 8132 C 787.401 1.95427 4.14213 0
M  V30 8133 N 788.892 1.92605 4.21257 0
M  V30 8134 C 789.627 2.48808 5.16606 0
M  V30 8135 N 789.123 3.13659 6.1773 0
M  V30 8136 N 790.916 2.38829 5.08839 0
M  V30 8137 H 783.067 1.70243 1.27008 0
M  V30 8138 H 785.33 0.720802 0.61575 0
M  V30 8139 H 785.036 2.25179 2.70161 0
M  V30 8140 H 784.91 0.804144 3.68529 0
M  V30 8141 H 787.297 0.141112 2.94762 0
M  V30 8142 H 787.378 1.62003 1.97961 0
M  V30 8143 H 787.022 2.9998 4.09847 0
M  V30 8144 H 786.952 1.4949 5.04936 0
M  V30 8145 H 789.443 1.45362 3.48824 0
M  V30 8146 H 789.756 3.54006 6.8695 0
M  V30 8147 H 788.101 3.17749 6.1811 0
M  V30 8148 H 791.292 1.87806 4.28773 0
M  V30 8149 H 791.465 2.82929 5.82971 0
M  V30 8150 N 784.871 -1.49948 0.485112 0
M  V30 8151 C 786.111 -2.04301 -0.0635728 0
M  V30 8152 C 786.475 -1.35804 -1.35725 0
M  V30 8153 O 787.676 -1.80789 -1.98919 0
M  V30 8154 C 785.947 -3.56666 -0.228962 0
M  V30 8155 S 787.506 -4.32614 -0.734185 0
M  V30 8156 H 784.324 -0.710939 -0.00931895 0
M  V30 8157 H 786.926 -1.84185 0.655455 0
M  V30 8158 H 785.63 -4.04068 0.718148 0
M  V30 8159 H 785.161 -3.8116 -0.973696 0
M  V30 8160 H 787.176 -4.53859 -2.00565 0
M  V30 8161 N 786.349 -0.21828 -1.56081 0
M  V30 8162 C 787.574 0.422302 -2.03055 0
M  V30 8163 C 787.999 1.5279 -1.09713 0
M  V30 8164 O 787.357 1.81102 -0.0847187 0
M  V30 8165 C 787.405 0.934177 -3.48289 0
M  V30 8166 O 786.509 2.04574 -3.58083 0
M  V30 8167 H 785.85 0.0959764 -0.657027 0
M  V30 8168 H 788.38 -0.335958 -2.01823 0
M  V30 8169 H 788.39 1.24484 -3.88546 0
M  V30 8170 H 787.065 0.124963 -4.15712 0
M  V30 8171 H 785.642 1.74196 -3.29712 0
M  V30 8172 N 787.827 1.57504 0.0551401 0
M  V30 8173 C 788.79 2.03826 1.04821 0
M  V30 8174 C 789.79 0.937968 1.30609 0
M  V30 8175 O 790.98 1.20237 1.2605 0
M  V30 8176 C 788.112 2.43309 2.38775 0
M  V30 8177 H 789.305 2.92802 0.6486 0
M  V30 8178 H 786.858 1.53368 0.301315 0
M  V30 8179 H 787.593 1.5741 2.83536 0
M  V30 8180 H 787.378 3.23615 2.21395 0
M  V30 8181 H 788.868 2.79666 3.10124 0
M  V30 8182 N 789.305 -0.326896 1.54172 0
M  V30 8183 C 790.716 -0.901533 1.63491 0
M  V30 8184 C 791.067 -1.88994 0.52684 0
M  V30 8185 O 790.192 -2.137 -0.340794 0
M  V30 8186 C 790.787 -1.64192 2.96355 0
M  V30 8187 C 789.346 -2.16533 3.07881 0
M  V30 8188 C 788.493 -0.98966 2.59039 0
M  V30 8189 H 791.444 -0.104568 1.58355 0
M  V30 8190 H 791.465 -2.50592 2.86328 0
M  V30 8191 H 790.977 -0.922291 3.76982 0
M  V30 8192 H 789.078 -2.91622 2.31922 0
M  V30 8193 H 789.191 -2.41762 4.13628 0
M  V30 8194 H 787.555 -1.36787 2.14852 0
M  V30 8195 H 788.338 -0.284401 3.4212 0
M  V30 8196 N 790.784 -1.46188 -0.588786 0
M  V30 8197 C 792.061 -1.41659 -1.34878 0
M  V30 8198 C 792.441 -0.0968913 -2.10878 0
M  V30 8199 O 791.789 0.921468 -2.09096 0
M  V30 8200 C 791.999 -2.6424 -2.27988 0
M  V30 8201 C 793.347 -3.1013 -2.90008 0
M  V30 8202 O 794.371 -2.64745 -2.38303 0
M  V30 8203 O 793.23 -3.88944 -3.83908 0
M  V30 8204 H 790.324 -0.563058 -0.605718 0
M  V30 8205 H 792.87 -1.58346 -0.610309 0
M  V30 8206 H 791.642 -3.51853 -1.71217 0
M  V30 8207 H 791.265 -2.49982 -3.09184 0
M  V30 8208 N 792.262 0.832906 -1.33792 0
M  V30 8209 C 793.508 1.59089 -1.25772 0
M  V30 8210 C 793.841 1.93414 0.174601 0
M  V30 8211 O 793.116 1.59195 1.11746 0
M  V30 8212 C 793.399 2.89699 -2.13885 0
M  V30 8213 C 793.252 2.62017 -3.65605 0
M  V30 8214 C 794.571 3.91182 -2.01654 0
M  V30 8215 H 791.69 0.577232 -0.458227 0
M  V30 8216 H 794.332 0.960227 -1.6395 0
M  V30 8217 H 792.482 3.4352 -1.81456 0
M  V30 8218 H 794.154 2.14582 -4.08353 0
M  V30 8219 H 792.397 1.95621 -3.87189 0
M  V30 8220 H 793.068 3.55112 -4.2261 0
M  V30 8221 H 795.544 3.46684 -2.30107 0
M  V30 8222 H 794.42 4.80391 -2.65548 0
M  V30 8223 H 794.681 4.30861 -0.990536 0
M  V30 8224 N 793.74 1.17359 1.05189 0
M  V30 8225 C 794.69 0.858445 2.11222 0
M  V30 8226 C 795.674 -0.166991 1.60031 0
M  V30 8227 O 796.866 0.0354456 1.76965 0
M  V30 8228 C 793.995 0.373549 3.41262 0
M  V30 8229 C 793.081 1.43041 3.99249 0
M  V30 8230 N 793.472 2.64387 4.312 0
M  V30 8231 C 791.77 1.28828 4.26989 0
M  V30 8232 C 792.471 3.32296 4.77446 0
M  V30 8233 N 791.447 2.59674 4.77567 0
M  V30 8234 H 795.249 1.78104 2.33786 0
M  V30 8235 H 792.763 1.0623 1.22837 0
M  V30 8236 H 794.76 0.129331 4.16699 0
M  V30 8237 H 793.42 -0.542847 3.2013 0
M  V30 8238 H 794.431 3.01351 4.21198 0
M  V30 8239 H 791.108 0.43353 4.15243 0
M  V30 8240 H 792.498 4.35939 5.11279 0
M  V30 8241 N 795.218 -1.23913 0.973828 0
M  V30 8242 C 796.466 -1.91771 0.637817 0
M  V30 8243 C 796.787 -1.76434 -0.830435 0
M  V30 8244 O 796.057 -1.13965 -1.59339 0
M  V30 8245 H 794.637 -0.709761 0.232912 0
M  V30 8246 H 797.299 -1.50677 1.23622 0
M  V30 8247 H 796.395 -2.99327 0.883731 0
M  V30 8248 N 796.696 -0.74468 -1.38897 0
M  V30 8249 C 797.921 -0.306119 -2.05128 0
M  V30 8250 C 798.346 1.0541 -1.55789 0
M  V30 8251 O 797.704 1.66993 -0.705909 0
M  V30 8252 C 797.752 -0.328195 -3.59103 0
M  V30 8253 O 796.856 0.680876 -4.06741 0
M  V30 8254 H 796.197 -0.137209 -0.649669 0
M  V30 8255 H 798.727 -1.01331 -1.77745 0
M  V30 8256 H 798.737 -0.175956 -4.0762 0
M  V30 8257 H 797.412 -1.32067 -3.94374 0
M  V30 8258 H 795.989 0.49398 -3.69614 0
M  V30 8259 N 798.174 1.49689 -0.493057 0
M  V30 8260 C 799.399 2.07331 0.0535114 0
M  V30 8261 C 799.824 1.35196 1.30781 0
M  V30 8262 O 799.182 0.406246 1.7669 0
M  V30 8263 C 799.23 3.59364 0.29825 0
M  V30 8264 O 798.334 3.88819 1.37454 0
M  V30 8265 H 797.675 0.663612 -0.0227018 0
M  V30 8266 H 800.205 1.926 -0.690402 0
M  V30 8267 H 800.215 4.04515 0.532159 0
M  V30 8268 H 798.89 4.1128 -0.618207 0
M  V30 8269 H 797.467 3.55487 1.12621 0
M  V30 8270 N 799.652 0.226554 1.55963 0
M  V30 8271 C 800.901 -0.40417 1.97609 0
M  V30 8272 C 801.214 -1.60541 1.1174 0
M  V30 8273 O 802.42 -2.30598 1.43307 0
M  V30 8274 C 800.876 -0.770466 3.51556 0
M  V30 8275 C 800.484 0.408244 4.46136 0
M  V30 8276 C 802.228 -1.36651 4.01904 0
M  V30 8277 C 800.135 0.0192347 5.91397 0
M  V30 8278 H 799.065 -0.15478 0.737943 0
M  V30 8279 H 801.716 0.323558 1.80625 0
M  V30 8280 H 800.098 -1.55575 3.6416 0
M  V30 8281 H 801.272 1.18575 4.45283 0
M  V30 8282 H 799.587 0.917859 4.06158 0
M  V30 8283 H 802.184 -1.67055 5.07934 0
M  V30 8284 H 802.527 -2.28403 3.48049 0
M  V30 8285 H 803.06 -0.644556 3.92543 0
M  V30 8286 H 799.799 0.90336 6.49245 0
M  V30 8287 H 799.319 -0.722485 5.95433 0
M  V30 8288 H 800.998 -0.405711 6.45727 0
M  V30 8289 N 801.13 -1.57531 -0.0467866 0
M  V30 8290 C 802.06 -2.08425 -1.05268 0
M  V30 8291 C 803.041 -0.982941 -1.38825 0
M  V30 8292 O 804.226 -1.25716 -1.48018 0
M  V30 8293 C 801.356 -2.54897 -2.35891 0
M  V30 8294 C 800.31 -3.69132 -2.16623 0
M  V30 8295 C 799.636 -4.01747 -3.52851 0
M  V30 8296 C 800.936 -4.98243 -1.56689 0
M  V30 8297 H 802.63 -2.92716 -0.62908 0
M  V30 8298 H 800.176 -1.40816 -0.301156 0
M  V30 8299 H 802.129 -2.8912 -3.06574 0
M  V30 8300 H 800.853 -1.67666 -2.80278 0
M  V30 8301 H 799.512 -3.35231 -1.48377 0
M  V30 8302 H 799.16 -3.11608 -3.94853 0
M  V30 8303 H 798.86 -4.78681 -3.4079 0
M  V30 8304 H 800.384 -4.38487 -4.24925 0
M  V30 8305 H 801.798 -5.30535 -2.17268 0
M  V30 8306 H 800.195 -5.79669 -1.55255 0
M  V30 8307 H 801.265 -4.81986 -0.530827 0
M  V30 8308 N 802.608 0.318715 -1.54344 0
M  V30 8309 C 804.019 0.89285 -1.63967 0
M  V30 8310 C 804.37 1.88712 -0.536855 0
M  V30 8311 O 803.495 2.13877 0.329457 0
M  V30 8312 C 804.09 1.62618 -2.97222 0
M  V30 8313 C 802.649 2.14897 -3.09025 0
M  V30 8314 C 801.796 0.975909 -2.5956 0
M  V30 8315 H 804.747 0.0961687 -1.58408 0
M  V30 8316 H 804.768 2.4907 -2.87653 0
M  V30 8317 H 804.28 0.902286 -3.77466 0
M  V30 8318 H 802.381 2.90387 -2.33465 0
M  V30 8319 H 802.494 2.39565 -4.14904 0
M  V30 8320 H 800.858 1.35646 -2.15574 0
M  V30 8321 H 801.641 0.266253 -3.42266 0
M  V30 8322 N 804.086 1.46499 0.581025 0
M  V30 8323 C 805.334 1.51596 1.33653 0
M  V30 8324 C 805.655 0.169859 1.94259 0
M  V30 8325 O 804.925 -0.803776 1.78651 0
M  V30 8326 H 803.505 0.558346 0.496244 0
M  V30 8327 H 806.167 1.8264 0.680338 0
M  V30 8328 H 805.263 2.26956 2.14237 0
M  V30 8329 N 805.565 -0.825799 1.34232 0
M  V30 8330 C 806.498 -1.94155 1.19914 0
M  V30 8331 C 807.476 -1.62343 0.0914533 0
M  V30 8332 O 808.66 -1.86752 0.256082 0
M  V30 8333 C 805.787 -3.28064 0.842138 0
M  V30 8334 C 804.833 -3.78839 1.95917 0
M  V30 8335 S 805.666 -3.98943 3.57218 0
M  V30 8336 C 806.822 -5.35783 3.23554 0
M  V30 8337 H 807.055 -2.06003 2.14359 0
M  V30 8338 H 804.588 -0.981053 1.19225 0
M  V30 8339 H 806.546 -4.05434 0.642952 0
M  V30 8340 H 805.207 -3.13988 -0.0839363 0
M  V30 8341 H 804.4 -4.75771 1.66306 0
M  V30 8342 H 804.002 -3.08406 2.11569 0
M  V30 8343 H 806.294 -6.19094 2.7519 0
M  V30 8344 H 807.237 -5.70376 4.19615 0
M  V30 8345 H 807.645 -5.01158 2.5981 0
M  V30 8346 N 807.043 -1.17915 -1.04565 0
M  V30 8347 C 807.973 -0.925033 -2.14395 0
M  V30 8348 C 808.954 0.135375 -1.6956 0
M  V30 8349 O 810.139 -0.0161774 -1.94193 0
M  V30 8350 C 807.269 -0.444469 -3.44444 0
M  V30 8351 C 806.223 -1.44478 -4.02877 0
M  V30 8352 C 805.549 -0.821933 -5.28345 0
M  V30 8353 C 806.849 -2.81995 -4.39632 0
M  V30 8354 H 808.543 -1.84354 -2.35911 0
M  V30 8355 H 806.089 -0.887806 -1.13375 0
M  V30 8356 H 808.042 -0.254078 -4.20633 0
M  V30 8357 H 806.766 0.509592 -3.226 0
M  V30 8358 H 805.425 -1.62203 -3.28764 0
M  V30 8359 H 805.073 0.139161 -5.02807 0
M  V30 8360 H 804.773 -1.48976 -5.68401 0
M  V30 8361 H 806.297 -0.641959 -6.07216 0
M  V30 8362 H 807.711 -2.67952 -5.06828 0
M  V30 8363 H 806.108 -3.45414 -4.90723 0
M  V30 8364 H 807.178 -3.35927 -3.49687 0
M  V30 8365 N 808.521 1.23394 -0.980386 0
M  V30 8366 C 809.761 1.93543 -0.657288 0
M  V30 8367 C 810.125 1.74791 0.794477 0
M  V30 8368 O 811.326 2.39089 1.2284 0
M  V30 8369 C 809.597 3.42025 -1.03701 0
M  V30 8370 S 811.156 4.30871 -0.830379 0
M  V30 8371 H 807.974 0.669012 -0.240717 0
M  V30 8372 H 810.576 1.49478 -1.26002 0
M  V30 8373 H 809.28 3.53183 -2.09022 0
M  V30 8374 H 808.811 3.91091 -0.425559 0
M  V30 8375 H 810.826 4.95377 0.285719 0
M  V30 8376 N 809.999 0.752036 1.385 0
M  V30 8377 C 810.962 0.131587 2.28822 0
M  V30 8378 C 811.962 -0.649149 1.47115 0
M  V30 8379 O 813.152 -0.475645 1.67581 0
M  V30 8380 C 810.284 -0.822101 3.30839 0
M  V30 8381 H 811.477 0.927551 2.85196 0
M  V30 8382 H 809.03 0.518945 1.47434 0
M  V30 8383 H 809.765 -1.6438 2.79553 0
M  V30 8384 H 809.55 -0.264689 3.91206 0
M  V30 8385 H 811.04 -1.25226 3.98382 0
M  V30 8386 N 811.477 -1.49425 0.500989 0
M  V30 8387 C 812.725 -2.02053 -0.0434495 0
M  V30 8388 C 813.046 -1.38285 -1.37486 0
M  V30 8389 O 812.316 -0.538171 -1.88363 0
M  V30 8390 H 810.896 -0.746757 -0.0190469 0
M  V30 8391 H 813.558 -1.83449 0.658227 0
M  V30 8392 H 812.654 -3.11619 -0.173129 0
M  V30 8393 N 812.955 -0.234822 -1.55841 0
M  V30 8394 C 814.202 0.39326 -1.98645 0
M  V30 8395 C 814.53 1.58823 -1.12274 0
M  V30 8396 O 813.785 1.94954 -0.170731 0
M  V30 8397 C 814.084 0.858032 -3.46947 0
M  V30 8398 C 813.75 -0.227858 -4.50324 0
M  V30 8399 C 812.412 -0.526128 -4.78315 0
M  V30 8400 C 814.764 -0.961576 -5.12253 0
M  V30 8401 C 812.092 -1.5624 -5.65514 0
M  V30 8402 C 814.444 -1.98728 -6.00575 0
M  V30 8403 C 813.108 -2.29233 -6.26904 0
M  V30 8404 H 812.378 0.143904 -0.726892 0
M  V30 8405 H 815.025 -0.34012 -1.88455 0
M  V30 8406 H 813.33 1.67041 -3.54408 0
M  V30 8407 H 815.027 1.35407 -3.77447 0
M  V30 8408 H 811.617 0.0147624 -4.28597 0
M  V30 8409 H 815.801 -0.744388 -4.90686 0
M  V30 8410 H 811.057 -1.80422 -5.84173 0
M  V30 8411 H 815.231 -2.5608 -6.47608 0
M  V30 8412 H 812.858 -3.09671 -6.94268 0
M  V30 8413 N 814.433 1.57553 0.0384317 0
M  V30 8414 C 815.363 2.0898 1.04161 0
M  V30 8415 C 816.344 0.99029 1.38301 0
M  V30 8416 O 817.529 1.26499 1.47349 0
M  V30 8417 C 814.659 2.56145 2.34536 0
M  V30 8418 C 813.613 3.70275 2.14663 0
M  V30 8419 C 812.939 4.03612 3.50715 0
M  V30 8420 C 814.239 4.99067 1.54045 0
M  V30 8421 H 815.933 2.93046 0.613548 0
M  V30 8422 H 813.479 1.40973 0.293684 0
M  V30 8423 H 815.432 2.90741 3.05037 0
M  V30 8424 H 814.156 1.6915 2.79385 0
M  V30 8425 H 812.815 3.36013 1.46597 0
M  V30 8426 H 812.463 3.13698 3.93195 0
M  V30 8427 H 812.163 4.80482 3.38247 0
M  V30 8428 H 813.687 4.40735 4.22593 0
M  V30 8429 H 815.101 5.3168 2.14451 0
M  V30 8430 H 813.498 5.80484 1.52178 0
M  V30 8431 H 814.568 4.8226 0.505259 0
M  V30 8432 N 815.911 -0.310526 1.54511 0
M  V30 8433 C 816.821 -1.4054 1.87844 0
M  V30 8434 C 817.837 -1.55954 0.771635 0
M  V30 8435 O 819.013 -1.70801 1.06719 0
M  V30 8436 C 816.078 -2.75063 2.11048 0
M  V30 8437 C 815.139 -2.68715 3.348 0
M  V30 8438 C 814.372 -3.96821 3.56887 0
M  V30 8439 O 814.595 -4.95721 2.82165 0
M  V30 8440 O 813.529 -3.99291 4.50389 0
M  V30 8441 H 817.355 -1.15275 2.80972 0
M  V30 8442 H 814.94 -0.505732 1.4058 0
M  V30 8443 H 816.822 -3.54671 2.27566 0
M  V30 8444 H 815.497 -3.00191 1.21108 0
M  V30 8445 H 814.404 -1.87611 3.23655 0
M  V30 8446 H 815.737 -2.4854 4.2484 0
M  V30 8447 N 817.389 -1.46805 -0.573248 0
M  V30 8448 C 818.637 -1.52302 -1.32847 0
M  V30 8449 C 818.958 -0.180159 -1.94166 0
M  V30 8450 O 818.228 0.794291 -1.79075 0
M  V30 8451 H 816.808 -0.56097 -0.493276 0
M  V30 8452 H 819.47 -1.82998 -0.670642 0
M  V30 8453 H 818.566 -2.28089 -2.13031 0
M  V30 8454 N 818.867 0.818669 -1.34668 0
M  V30 8455 C 820.115 1.57201 -1.27013 0
M  V30 8456 C 820.436 1.94354 0.158599 0
M  V30 8457 O 819.706 1.62626 1.09223 0
M  V30 8458 H 818.286 0.582919 -0.467135 0
M  V30 8459 H 820.948 0.977234 -1.6863 0
M  V30 8460 H 820.044 2.49291 -1.87778 0
M  V30 8461 N 820.346 1.18468 1.03938 0
M  V30 8462 C 821.574 1.00576 1.80809 0
M  V30 8463 C 821.989 -0.445786 1.83462 0
M  V30 8464 O 821.346 -1.30964 1.27101 0
M  V30 8465 C 821.397 1.55491 3.26351 0
M  V30 8466 O 821.118 2.94963 3.23926 0
M  V30 8467 C 822.619 1.42236 4.19862 0
M  V30 8468 H 819.839 0.35508 0.56935 0
M  V30 8469 H 822.383 1.57046 1.30984 0
M  V30 8470 H 820.538 1.03195 3.73403 0
M  V30 8471 H 820.952 3.20598 4.15111 0
M  V30 8472 H 822.426 1.85455 5.19914 0
M  V30 8473 H 822.903 0.371267 4.37628 0
M  V30 8474 H 823.509 1.9361 3.78675 0
M  V30 8475 N 821.824 -1.22873 0.986916 0
M  V30 8476 C 823.101 -1.86939 0.575589 0
M  V30 8477 C 823.481 -1.88656 -0.947205 0
M  V30 8478 O 822.829 -1.3728 -1.82665 0
M  V30 8479 C 823.039 -3.28117 1.18914 0
M  V30 8480 C 824.387 -4.04659 1.28593 0
M  V30 8481 O 825.411 -3.3736 1.14308 0
M  V30 8482 O 824.27 -5.25112 1.51391 0
M  V30 8483 H 821.364 -0.803748 0.194724 0
M  V30 8484 H 823.91 -1.30698 1.08241 0
M  V30 8485 H 822.682 -3.21468 2.231 0
M  V30 8486 H 822.305 -3.91956 0.667535 0
M  V30 8487 N 823.302 -0.75937 -1.38099 0
M  V30 8488 C 824.265 -0.14372 -2.28749 0
M  V30 8489 C 825.265 0.641338 -1.47457 0
M  V30 8490 O 826.455 0.466751 -1.67831 0
M  V30 8491 C 823.587 0.804545 -3.3127 0
M  V30 8492 H 824.78 -0.942663 -2.847 0
M  V30 8493 H 822.333 -0.526757 -1.47156 0
M  V30 8494 H 823.068 1.62895 -2.80421 0
M  V30 8495 H 822.853 0.243939 -3.9134 0
M  V30 8496 H 824.343 1.23111 -3.99041 0
M  V30 8497 N 824.78 1.49157 -0.508906 0
M  V30 8498 C 826.02 2.04376 0.0310623 0
M  V30 8499 C 826.384 1.37946 1.33547 0
M  V30 8500 O 827.585 1.83931 1.96017 0
M  V30 8501 C 825.856 3.56985 0.172191 0
M  V30 8502 S 827.415 4.33728 0.665267 0
M  V30 8503 H 824.233 0.710997 -0.00199266 0
M  V30 8504 H 826.835 1.83119 -0.684674 0
M  V30 8505 H 825.539 4.02874 -0.78234 0
M  V30 8506 H 825.07 3.82661 0.912933 0
M  V30 8507 H 827.085 4.56992 1.9332 0
M  V30 8508 N 826.258 0.243083 1.55714 0
M  V30 8509 C 827.19 -0.690766 2.18543 0
M  V30 8510 C 828.203 -1.14163 1.16064 0
M  V30 8511 O 829.392 -1.06906 1.42946 0
M  V30 8512 C 826.492 -1.95016 2.77168 0
M  V30 8513 C 825.665 -1.65137 4.05029 0
M  V30 8514 C 824.724 -2.75998 4.48009 0
M  V30 8515 O 823.75 -2.43547 5.14464 0
M  V30 8516 N 824.952 -4.05414 4.15476 0
M  V30 8517 H 827.717 -0.153203 2.99308 0
M  V30 8518 H 825.278 0.0628968 1.61778 0
M  V30 8519 H 827.27 -2.68414 3.0288 0
M  V30 8520 H 825.84 -2.39762 2.00582 0
M  V30 8521 H 825.06 -0.752768 3.86946 0
M  V30 8522 H 826.348 -1.42633 4.88399 0
M  V30 8523 H 825.746 -4.34613 3.62116 0
M  V30 8524 H 824.303 -4.75288 4.46032 0
M  V30 8525 N 827.736 -1.57571 -0.0300757 0
M  V30 8526 C 828.984 -1.88852 -0.719666 0
M  V30 8527 C 829.305 -0.840645 -1.75949 0
M  V30 8528 O 828.575 0.125854 -1.95495 0
M  V30 8529 H 827.155 -0.696965 -0.268792 0
M  V30 8530 H 829.817 -1.949 0.00373285 0
M  V30 8531 H 828.913 -2.87695 -1.20987 0
M  V30 8532 N 829.214 0.302327 -1.54673 0
M  V30 8533 C 830.491 1.05721 -1.64567 0
M  V30 8534 C 830.871 2.0526 -0.493108 0
M  V30 8535 O 830.219 2.22729 0.510315 0
M  V30 8536 C 830.429 1.74025 -3.02517 0
M  V30 8537 C 831.777 2.26271 -3.59286 0
M  V30 8538 O 832.801 1.8406 -3.0496 0
M  V30 8539 O 831.66 3.0361 -4.54404 0
M  V30 8540 H 828.754 0.488577 -0.667249 0
M  V30 8541 H 831.3 0.300521 -1.67018 0
M  V30 8542 H 830.072 1.0174 -3.77842 0
M  V30 8543 H 829.695 2.56454 -3.03838 0
M  V30 8544 N 830.692 1.47107 0.565454 0
M  V30 8545 C 831.917 1.57153 1.35343 0
M  V30 8546 C 832.342 0.219247 1.86818 0
M  V30 8547 O 831.7 -0.803539 1.62521 0
M  V30 8548 C 831.748 2.59387 2.50501 0
M  V30 8549 O 830.852 2.14086 3.52478 0
M  V30 8550 H 830.193 0.528209 0.402357 0
M  V30 8551 H 832.723 1.92821 0.684189 0
M  V30 8552 H 832.733 2.79546 2.97184 0
M  V30 8553 H 831.408 3.57579 2.12391 0
M  V30 8554 H 829.985 2.03991 3.12157 0
M  V30 8555 N 832.17 -0.811516 1.35101 0
M  V30 8556 C 833.418 -1.56525 1.27845 0
M  V30 8557 C 833.739 -1.94435 -0.14829 0
M  V30 8558 O 833.009 -1.63203 -1.08359 0
M  V30 8559 H 831.589 -0.580433 0.47022 0
M  V30 8560 H 834.251 -0.968277 1.69146 0
M  V30 8561 H 833.347 -2.48291 1.89097 0
M  V30 8562 N 833.648 -1.19017 -1.03309 0
M  V30 8563 C 834.896 -0.988258 -1.76289 0
M  V30 8564 C 835.217 0.482557 -1.88935 0
M  V30 8565 O 834.487 1.34969 -1.41987 0
M  V30 8566 H 833.067 -0.36267 -0.653054 0
M  V30 8567 H 835.729 -1.49836 -1.2464 0
M  V30 8568 H 834.825 -1.43273 -2.77271 0
M  V30 8569 N 835.127 1.22348 -0.993418 0
M  V30 8570 C 836.538 1.72893 -0.704616 0
M  V30 8571 C 836.889 1.80095 0.778483 0
M  V30 8572 O 836.014 1.4476 1.60853 0
M  V30 8573 C 836.609 3.14 -1.27237 0
M  V30 8574 C 835.168 3.61949 -1.03294 0
M  V30 8575 C 834.315 2.39816 -1.39225 0
M  V30 8576 H 837.266 1.07688 -1.16572 0
M  V30 8577 H 837.287 3.74886 -0.651212 0
M  V30 8578 H 836.799 3.08727 -2.3518 0
M  V30 8579 H 834.9 3.72588 0.0298329 0
M  V30 8580 H 835.013 4.48051 -1.69668 0
M  V30 8581 H 833.377 2.41448 -0.810849 0
M  V30 8582 H 834.16 2.37203 -2.48172 0
M  V30 8583 N 836.605 0.766683 1.37694 0
M  V30 8584 C 837.535 0.163432 2.32927 0
M  V30 8585 C 838.516 -0.688861 1.55527 0
M  V30 8586 O 839.701 -0.627363 1.83787 0
M  V30 8587 C 836.831 -0.720416 3.39746 0
M  V30 8588 C 835.785 0.0301718 4.27989 0
M  V30 8589 C 835.111 -0.972788 5.25776 0
M  V30 8590 C 836.411 1.20623 5.0818 0
M  V30 8591 H 838.105 0.958988 2.83626 0
M  V30 8592 H 835.651 0.462601 1.36367 0
M  V30 8593 H 837.604 -1.15221 4.05342 0
M  V30 8594 H 836.328 -1.54844 2.8756 0
M  V30 8595 H 834.987 0.442685 3.63917 0
M  V30 8596 H 834.635 -1.79522 4.69873 0
M  V30 8597 H 834.335 -0.475145 5.85676 0
M  V30 8598 H 835.859 -1.40362 5.94248 0
M  V30 8599 H 837.273 0.851341 5.66944 0
M  V30 8600 H 835.67 1.63561 5.7738 0
M  V30 8601 H 836.74 2.01281 4.41151 0
M  V30 8602 N 838.083 -1.48885 0.516809 0
M  V30 8603 C 839.329 -2.02788 -0.0220928 0
M  V30 8604 C 839.662 -1.39433 -1.35175 0
M  V30 8605 O 838.937 -0.535459 -1.86984 0
M  V30 8606 C 839.22 -3.59753 -0.158012 0
M  V30 8607 C 839.073 -4.33611 1.19588 0
M  V30 8608 C 840.392 -4.30984 -0.891133 0
M  V30 8609 H 837.511 -0.736971 -0.00655488 0
M  V30 8610 H 840.153 -1.77746 0.671287 0
M  V30 8611 H 838.303 -3.8122 -0.748568 0
M  V30 8612 H 839.975 -4.23598 1.82653 0
M  V30 8613 H 838.218 -3.95547 1.78116 0
M  V30 8614 H 838.889 -5.41846 1.05391 0
M  V30 8615 H 841.365 -4.14267 -0.39012 0
M  V30 8616 H 840.241 -5.40527 -0.955107 0
M  V30 8617 H 840.502 -3.97336 -1.93847 0
M  V30 8618 N 839.561 -0.251338 -1.55583 0
M  V30 8619 C 840.801 0.373651 -2.00956 0
M  V30 8620 C 841.165 1.54806 -1.13574 0
M  V30 8621 O 842.366 2.24108 -1.48422 0
M  V30 8622 C 840.637 0.768919 -3.49031 0
M  V30 8623 S 842.196 1.38381 -4.16409 0
M  V30 8624 H 839.014 0.117371 -0.701245 0
M  V30 8625 H 841.616 -0.367611 -1.92013 0
M  V30 8626 H 840.32 -0.0950492 -4.1029 0
M  V30 8627 H 839.851 1.54225 -3.61909 0
M  V30 8628 H 841.866 2.6728 -4.18062 0
M  V30 8629 N 841.039 1.57585 0.0217189 0
M  V30 8630 C 841.949 2.10444 1.03684 0
M  V30 8631 C 842.965 1.04472 1.39146 0
M  V30 8632 O 844.141 1.36249 1.48317 0
M  V30 8633 C 841.206 2.5794 2.31664 0
M  V30 8634 C 840.267 3.78425 2.02714 0
M  V30 8635 C 839.5 4.23646 3.24592 0
M  V30 8636 O 839.723 3.6834 4.35525 0
M  V30 8637 O 838.657 5.16013 3.09862 0
M  V30 8638 H 842.483 2.97354 0.617584 0
M  V30 8639 H 840.068 1.47473 0.239174 0
M  V30 8640 H 841.95 2.88785 3.06889 0
M  V30 8641 H 840.625 1.74138 2.7287 0
M  V30 8642 H 839.532 3.52587 1.25033 0
M  V30 8643 H 840.865 4.63234 1.66359 0
M  V30 8644 N 842.517 -0.29412 1.54831 0
M  V30 8645 C 843.794 -1.04847 1.65126 0
M  V30 8646 C 844.174 -2.04996 0.503986 0
M  V30 8647 O 843.522 -2.22996 -0.498496 0
M  V30 8648 C 843.732 -1.72418 3.03435 0
M  V30 8649 C 845.08 -2.24362 3.60481 0
M  V30 8650 O 846.104 -1.8244 3.05932 0
M  V30 8651 O 844.963 -3.01196 4.56008 0
M  V30 8652 H 842.057 -0.485032 0.669831 0
M  V30 8653 H 844.603 -0.291659 1.67175 0
M  V30 8654 H 843.375 -0.997351 3.78376 0
M  V30 8655 H 842.998 -2.54839 3.05193 0
M  V30 8656 N 843.995 -1.47404 -0.557645 0
M  V30 8657 C 844.927 -1.55917 -1.67995 0
M  V30 8658 C 845.94 -0.445411 -1.56588 0
M  V30 8659 O 847.129 -0.714999 -1.63554 0
M  V30 8660 C 844.229 -1.44697 -3.06457 0
M  V30 8661 C 843.402 -2.70633 -3.43622 0
M  V30 8662 C 842.461 -2.53256 -4.61246 0
M  V30 8663 O 841.487 -3.27068 -4.65849 0
M  V30 8664 N 842.689 -1.61053 -5.57711 0
M  V30 8665 H 845.454 -2.52694 -1.61139 0
M  V30 8666 H 843.015 -1.43778 -0.744271 0
M  V30 8667 H 845.007 -1.30806 -3.82978 0
M  V30 8668 H 843.577 -0.560039 -3.07542 0
M  V30 8669 H 842.797 -2.99288 -2.56555 0
M  V30 8670 H 844.085 -3.5424 -3.65228 0
M  V30 8671 H 843.483 -1.00235 -5.56749 0
M  V30 8672 H 842.04 -1.53115 -6.33561 0
M  V30 8673 N 845.473 0.80434 -1.35529 0
M  V30 8674 C 846.436 1.89788 -1.28503 0
M  V30 8675 C 847.436 1.59601 -0.195983 0
M  V30 8676 O 848.626 1.68292 -0.449827 0
M  V30 8677 C 845.758 3.26255 -0.98847 0
M  V30 8678 H 846.951 1.97436 -2.25741 0
M  V30 8679 H 844.504 1.00046 -1.20086 0
M  V30 8680 H 845.239 3.24294 -0.0200541 0
M  V30 8681 H 845.024 3.49551 -1.77641 0
M  V30 8682 H 846.514 4.06298 -0.964975 0
M  V30 8683 N 846.951 1.19563 1.02676 0
M  V30 8684 C 847.914 0.937182 2.09164 0
M  V30 8685 C 848.914 -0.0831927 1.60585 0
M  V30 8686 O 850.104 0.15178 1.73538 0
M  V30 8687 C 847.236 0.408912 3.38439 0
M  V30 8688 H 848.429 1.88164 2.33526 0
M  V30 8689 H 845.982 1.00959 1.19319 0
M  V30 8690 H 846.717 -0.541497 3.19747 0
M  V30 8691 H 846.502 1.14464 3.7502 0
M  V30 8692 H 847.992 0.247242 4.16867 0
M  V30 8693 N 848.429 -1.21819 0.999893 0
M  V30 8694 C 849.339 -2.27691 0.565159 0
M  V30 8695 C 850.355 -1.69587 -0.389398 0
M  V30 8696 O 851.531 -1.99786 -0.254499 0
M  V30 8697 C 848.596 -3.46537 -0.106432 0
M  V30 8698 C 847.657 -4.19932 0.891964 0
M  V30 8699 C 846.89 -5.33103 0.252327 0
M  V30 8700 O 847.113 -5.62398 -0.952103 0
M  V30 8701 O 846.047 -5.94184 0.960698 0
M  V30 8702 H 849.873 -2.67059 1.44613 0
M  V30 8703 H 847.458 -1.28119 0.768499 0
M  V30 8704 H 849.34 -4.18631 -0.482301 0
M  V30 8705 H 848.015 -3.09079 -0.961865 0
M  V30 8706 H 846.922 -3.5008 1.3189 0
M  V30 8707 H 848.255 -4.61287 1.71682 0
M  V30 8708 N 849.908 -0.773975 -1.37286 0
M  V30 8709 C 851.324 -0.45386 -1.53011 0
M  V30 8710 C 851.524 1.03018 -1.73175 0
M  V30 8711 O 850.58 1.81597 -1.75438 0
M  V30 8712 C 851.893 -1.27087 -2.72524 0
M  V30 8713 C 853.441 -1.26299 -2.86387 0
M  V30 8714 C 853.916 -2.0634 -4.08886 0
M  V30 8715 N 855.407 -2.03706 -4.16003 0
M  V30 8716 C 856.142 -2.62418 -5.09828 0
M  V30 8717 N 855.638 -3.29926 -6.09197 0
M  V30 8718 N 857.431 -2.52236 -5.02328 0
M  V30 8719 H 849.582 -1.73551 -1.22449 0
M  V30 8720 H 851.845 -0.736874 -0.596423 0
M  V30 8721 H 851.551 -2.32263 -2.64096 0
M  V30 8722 H 851.425 -0.90157 -3.66267 0
M  V30 8723 H 853.812 -0.219213 -2.94285 0
M  V30 8724 H 853.893 -1.67195 -1.93596 0
M  V30 8725 H 853.537 -3.10741 -4.01749 0
M  V30 8726 H 853.467 -1.62825 -5.00795 0
M  V30 8727 H 855.958 -1.54559 -3.44848 0
M  V30 8728 H 856.271 -3.72095 -6.77322 0
M  V30 8729 H 854.616 -3.34026 -6.09469 0
M  V30 8730 H 857.807 -1.99108 -4.23643 0
M  V30 8731 H 857.98 -2.98286 -5.75265 0
M  V30 8732 N 851.386 1.48609 -0.524698 0
M  V30 8733 C 852.802 1.58557 -0.182199 0
M  V30 8734 C 853.002 1.52732 1.31435 0
M  V30 8735 O 852.058 1.41362 2.0922 0
M  V30 8736 C 853.371 2.90406 -0.78004 0
M  V30 8737 C 854.919 3.03924 -0.748293 0
M  V30 8738 C 855.394 4.38427 -1.32462 0
M  V30 8739 N 856.885 4.4498 -1.28635 0
M  V30 8740 C 857.62 5.47551 -1.70223 0
M  V30 8741 N 857.116 6.57103 -2.19515 0
M  V30 8742 N 858.909 5.38402 -1.61493 0
M  V30 8743 H 851.06 1.50638 -1.4974 0
M  V30 8744 H 853.323 0.714952 -0.622533 0
M  V30 8745 H 853.029 3.00308 -1.83052 0
M  V30 8746 H 852.903 3.76343 -0.254075 0
M  V30 8747 H 855.29 2.93638 0.293407 0
M  V30 8748 H 855.371 2.19611 -1.31167 0
M  V30 8749 H 855.015 4.49466 -2.36522 0
M  V30 8750 H 854.945 5.21418 -0.736967 0
M  V30 8751 H 857.436 3.66393 -0.92545 0
M  V30 8752 H 857.749 7.31499 -2.49257 0
M  V30 8753 H 856.094 6.58081 -2.23506 0
M  V30 8754 H 859.285 4.5171 -1.22785 0
M  V30 8755 H 859.458 6.18208 -1.94225 0
M  V30 8756 N 852.864 0.259585 1.55447 0
M  V30 8757 C 853.794 -0.62852 2.24882 0
M  V30 8758 C 854.775 -1.17128 1.23349 0
M  V30 8759 O 855.96 -1.20829 1.52033 0
M  V30 8760 C 853.09 -1.81983 2.95803 0
M  V30 8761 C 852.044 -1.40929 4.04132 0
M  V30 8762 C 851.37 -2.68246 4.62545 0
M  V30 8763 C 852.67 -0.570956 5.1917 0
M  V30 8764 H 854.364 -0.0495021 2.99359 0
M  V30 8765 H 851.91 -0.0223688 1.43983 0
M  V30 8766 H 853.863 -2.44689 3.43082 0
M  V30 8767 H 852.587 -2.42444 2.18835 0
M  V30 8768 H 851.246 -0.805519 3.57641 0
M  V30 8769 H 850.894 -3.26931 3.82263 0
M  V30 8770 H 850.594 -2.41495 5.35681 0
M  V30 8771 H 852.118 -3.31827 5.12565 0
M  V30 8772 H 853.532 -1.10262 5.62597 0
M  V30 8773 H 851.929 -0.398979 5.98772 0
M  V30 8774 H 852.999 0.413918 4.8313 0
M  V30 8775 N 854.342 -1.57594 -0.0133615 0
M  V30 8776 C 855.57 -1.94251 -0.712328 0
M  V30 8777 C 855.985 -0.86063 -1.68043 0
M  V30 8778 O 855.342 0.161632 -1.81783 0
M  V30 8779 C 855.393 -3.30891 -1.45581 0
M  V30 8780 O 855.114 -4.34924 -0.526539 0
M  V30 8781 C 856.615 -3.81926 -2.2505 0
M  V30 8782 H 853.835 -0.640737 -0.199241 0
M  V30 8783 H 856.379 -2.04472 0.0337855 0
M  V30 8784 H 854.534 -3.22019 -2.15366 0
M  V30 8785 H 854.948 -5.1389 -1.04962 0
M  V30 8786 H 856.422 -4.79999 -2.72589 0
M  V30 8787 H 856.899 -3.13934 -3.07152 0
M  V30 8788 H 857.505 -3.93931 -1.60308 0
M  V30 8789 N 855.82 0.285905 -1.54985 0
M  V30 8790 C 856.75 1.35752 -1.89983 0
M  V30 8791 C 857.731 1.52163 -0.760295 0
M  V30 8792 O 858.916 1.65421 -1.01733 0
M  V30 8793 C 856.046 2.71925 -2.16042 0
M  V30 8794 C 855 2.70261 -3.31878 0
M  V30 8795 C 854.326 4.09864 -3.43388 0
M  V30 8796 C 855.626 2.30667 -4.68604 0
M  V30 8797 H 857.32 1.06709 -2.79738 0
M  V30 8798 H 854.866 0.511884 -1.34595 0
M  V30 8799 H 856.819 3.46992 -2.39113 0
M  V30 8800 H 855.543 3.02523 -1.23074 0
M  V30 8801 H 854.202 1.97651 -3.08755 0
M  V30 8802 H 853.85 4.37664 -2.47909 0
M  V30 8803 H 853.55 4.09648 -4.21262 0
M  V30 8804 H 855.074 4.86689 -3.68736 0
M  V30 8805 H 856.488 2.95453 -4.91305 0
M  V30 8806 H 854.885 2.41637 -5.49301 0
M  V30 8807 H 855.955 1.25793 -4.68299 0
M  V30 8808 N 857.298 1.47698 0.54982 0
M  V30 8809 C 858.23 1.56806 1.67166 0
M  V30 8810 C 859.243 0.453709 1.5635 0
M  V30 8811 O 860.432 0.723663 1.63173 0
M  V30 8812 C 857.532 1.4632 3.05686 0
M  V30 8813 C 856.705 2.72452 3.42182 0
M  V30 8814 C 855.764 2.55698 4.59897 0
M  V30 8815 O 854.79 3.29534 4.64108 0
M  V30 8816 N 855.992 1.64009 5.56849 0
M  V30 8817 H 858.757 2.53545 1.59797 0
M  V30 8818 H 856.318 1.44171 0.736635 0
M  V30 8819 H 858.31 1.32835 3.82279 0
M  V30 8820 H 856.88 0.57634 3.07241 0
M  V30 8821 H 856.1 3.00644 2.54964 0
M  V30 8822 H 857.388 3.56172 3.63344 0
M  V30 8823 H 856.786 1.03186 5.5621 0
M  V30 8824 H 855.343 1.56473 6.3274 0
M  V30 8825 N 858.776 -0.797141 1.35954 0
M  V30 8826 C 860.024 -1.55161 1.29497 0
M  V30 8827 C 860.345 -1.94582 -0.127659 0
M  V30 8828 O 859.615 -1.64343 -1.06622 0
M  V30 8829 H 858.195 -0.575413 0.47635 0
M  V30 8830 H 860.857 -0.950282 1.70164 0
M  V30 8831 H 859.953 -2.46272 1.9172 0
M  V30 8832 N 860.254 -1.20106 -1.0204 0
M  V30 8833 C 861.503 -1.00316 -1.74985 0
M  V30 8834 C 861.816 0.465814 -1.89972 0
M  V30 8835 O 863.022 0.782749 -2.59972 0
M  V30 8836 C 861.478 -1.74608 -3.14706 0
M  V30 8837 C 861.086 -3.25573 -3.07744 0
M  V30 8838 C 862.83 -1.63172 -3.91887 0
M  V30 8839 C 860.737 -3.92419 -4.42449 0
M  V30 8840 H 859.667 -0.371728 -0.655999 0
M  V30 8841 H 862.318 -1.43688 -1.14131 0
M  V30 8842 H 860.7 -1.24021 -3.76078 0
M  V30 8843 H 861.874 -3.83345 -2.55702 0
M  V30 8844 H 860.189 -3.3738 -2.44057 0
M  V30 8845 H 862.786 -2.10457 -4.9154 0
M  V30 8846 H 863.129 -0.58728 -4.12137 0
M  V30 8847 H 863.662 -2.11152 -3.37135 0
M  V30 8848 H 860.401 -4.96998 -4.27403 0
M  V30 8849 H 859.921 -3.39436 -4.94513 0
M  V30 8850 H 861.6 -3.96453 -5.11306 0
M  V30 8851 N 861.732 1.21287 -1.00634 0
M  V30 8852 C 862.981 1.89706 -0.685178 0
M  V30 8853 C 863.294 1.79044 0.787566 0
M  V30 8854 O 864.5 2.42502 1.22086 0
M  V30 8855 C 862.956 3.40176 -1.17508 0
M  V30 8856 C 862.564 3.59446 -2.674 0
M  V30 8857 C 864.308 4.14213 -0.928869 0
M  V30 8858 C 862.215 5.03688 -3.09923 0
M  V30 8859 H 861.145 0.710434 -0.252586 0
M  V30 8860 H 863.796 1.37277 -1.21768 0
M  V30 8861 H 862.178 3.91867 -0.570622 0
M  V30 8862 H 863.352 3.18188 -3.33306 0
M  V30 8863 H 861.667 2.98764 -2.9005 0
M  V30 8864 H 864.264 5.20546 -1.22212 0
M  V30 8865 H 864.607 4.16082 0.134859 0
M  V30 8866 H 865.14 3.68591 -1.49619 0
M  V30 8867 H 861.879 5.06968 -4.15529 0
M  V30 8868 H 861.399 5.45796 -2.4873 0
M  V30 8869 H 863.078 5.72204 -3.0198 0
M  V30 8870 N 863.21 0.781244 1.36873 0
M  V30 8871 C 864.435 0.360398 2.04245 0
M  V30 8872 C 864.86 -1.01242 1.58529 0
M  V30 8873 O 864.218 -1.65063 0.749936 0
M  V30 8874 C 864.266 0.42329 3.58107 0
M  V30 8875 O 863.37 -0.572796 4.08403 0
M  V30 8876 H 862.711 0.154386 0.645803 0
M  V30 8877 H 865.241 1.06008 1.74996 0
M  V30 8878 H 865.251 0.283967 4.07011 0
M  V30 8879 H 863.926 1.42477 3.90734 0
M  V30 8880 H 862.503 -0.395809 3.70793 0
M  V30 8881 N 864.689 -1.48329 0.532571 0
M  V30 8882 C 865.935 -2.03399 0.00755104 0
M  V30 8883 C 866.29 -1.40213 -1.3175 0
M  V30 8884 O 865.583 -0.539633 -1.83844 0
M  V30 8885 C 865.777 -3.57 -0.168943 0
M  V30 8886 C 865.606 -4.35077 1.13745 0
M  V30 8887 C 864.376 -4.75915 1.69803 0
M  V30 8888 C 866.574 -4.71734 2.04869 0
M  V30 8889 N 864.556 -5.38538 2.94703 0
M  V30 8890 C 865.927 -5.34403 3.14346 0
M  V30 8891 C 867.982 -4.53665 2.05164 0
M  V30 8892 C 866.685 -5.80912 4.24186 0
M  V30 8893 C 868.711 -5.01157 3.13999 0
M  V30 8894 C 868.073 -5.63853 4.22195 0
M  V30 8895 H 864.172 -0.780743 0.0443253 0
M  V30 8896 H 866.756 -1.81119 0.714423 0
M  V30 8897 H 864.927 -3.79099 -0.844903 0
M  V30 8898 H 866.659 -3.98708 -0.693804 0
M  V30 8899 H 863.414 -4.57103 1.23909 0
M  V30 8900 H 863.838 -5.74413 3.583 0
M  V30 8901 H 868.48 -4.04571 1.22808 0
M  V30 8902 H 866.198 -6.2901 5.07318 0
M  V30 8903 H 869.784 -4.88965 3.15285 0
M  V30 8904 H 868.664 -5.99935 5.05023 0
M  V30 8905 N 866.167 -0.267825 -1.55308 0
M  V30 8906 C 867.415 0.350343 -1.9904 0
M  V30 8907 C 867.736 1.56924 -1.15758 0
M  V30 8908 O 867.006 1.94358 -0.245336 0
M  V30 8909 H 865.586 0.132435 -0.735167 0
M  V30 8910 H 868.248 -0.371471 -1.91327 0
M  V30 8911 H 867.344 0.645203 -3.05358 0
M  V30 8912 N 867.645 1.57599 0.00500368 0
M  V30 8913 C 868.87 1.95026 0.705663 0
M  V30 8914 C 869.295 0.869643 1.6679 0
M  V30 8915 O 868.653 -0.172659 1.80476 0
M  V30 8916 C 868.701 3.31545 1.4181 0
M  V30 8917 O 867.805 3.25495 2.53232 0
M  V30 8918 H 867.146 0.636808 0.188074 0
M  V30 8919 H 869.676 2.04547 -0.046696 0
M  V30 8920 H 869.686 3.66996 1.78265 0
M  V30 8921 H 868.361 4.09751 0.712543 0
M  V30 8922 H 866.938 3.01714 2.19142 0
M  V30 8923 N 869.123 -0.277682 1.55134 0
M  V30 8924 C 870.371 -1.00791 1.75173 0
M  V30 8925 C 870.692 -1.86987 0.553266 0
M  V30 8926 O 869.962 -1.91079 -0.43195 0
M  V30 8927 H 868.542 -0.375129 0.645978 0
M  V30 8928 H 871.204 -0.303041 1.9253 0
M  V30 8929 H 870.3 -1.64756 2.6507 0
M  V30 8930 N 870.601 -1.47988 -0.541979 0
M  V30 8931 C 871.841 -1.56982 -1.30905 0
M  V30 8932 C 872.205 -0.233153 -1.90579 0
M  V30 8933 O 873.406 -0.198018 -2.6807 0
M  V30 8934 C 871.677 -2.66787 -2.37823 0
M  V30 8935 S 873.236 -2.95467 -3.24414 0
M  V30 8936 H 870.054 -0.554165 -0.445446 0
M  V30 8937 H 872.656 -1.85448 -0.618803 0
M  V30 8938 H 871.36 -3.62483 -1.92443 0
M  V30 8939 H 870.891 -2.40184 -3.11569 0
M  V30 8940 H 872.906 -2.33846 -4.37642 0
M  V30 8941 N 872.079 0.78992 -1.36375 0
M  V30 8942 C 873.327 1.54472 -1.30319 0
M  V30 8943 C 873.648 1.94647 0.117338 0
M  V30 8944 O 872.918 1.64906 1.05748 0
M  V30 8945 H 871.498 0.572879 -0.479394 0
M  V30 8946 H 874.16 0.941245 -1.70665 0
M  V30 8947 H 873.256 2.45252 -1.93024 0
M  V30 8948 N 873.557 1.20646 1.01402 0
M  V30 8949 C 874.834 0.927176 1.72229 0
M  V30 8950 C 875.214 -0.563382 2.03443 0
M  V30 8951 O 874.562 -1.52576 1.70096 0
M  V30 8952 C 874.772 1.80285 2.98828 0
M  V30 8953 C 876.12 2.04624 3.72041 0
M  V30 8954 O 877.144 1.77559 3.0879 0
M  V30 8955 O 876.003 2.50347 4.85787 0
M  V30 8956 H 873.097 0.346891 0.75073 0
M  V30 8957 H 875.643 1.31532 1.07227 0
M  V30 8958 H 874.415 2.81204 2.72102 0
M  V30 8959 H 874.038 1.41495 3.71571 0
M  V30 8960 N 875.035 -1.20752 1.01276 0
M  V30 8961 C 876.451 -1.42084 0.726934 0
M  V30 8962 C 876.651 -1.89138 -0.694907 0
M  V30 8963 O 875.707 -2.05783 -1.4632 0
M  V30 8964 C 877.02 -2.44575 1.74938 0
M  V30 8965 C 878.568 -2.58347 1.76708 0
M  V30 8966 C 879.043 -3.64078 2.77869 0
M  V30 8967 N 880.534 -3.71558 2.76585 0
M  V30 8968 C 881.269 -4.53016 3.51517 0
M  V30 8969 N 880.765 -5.38309 4.36114 0
M  V30 8970 N 882.558 -4.47512 3.40132 0
M  V30 8971 H 874.709 -0.885228 1.93074 0
M  V30 8972 H 876.972 -0.451075 0.833808 0
M  V30 8973 H 876.678 -2.1699 2.76782 0
M  V30 8974 H 876.552 -3.43503 1.55838 0
M  V30 8975 H 878.939 -2.85265 0.755516 0
M  V30 8976 H 879.02 -1.59628 1.99882 0
M  V30 8977 H 878.664 -3.37905 3.79187 0
M  V30 8978 H 878.594 -4.62412 2.51958 0
M  V30 8979 H 881.085 -3.10629 2.15216 0
M  V30 8980 H 881.398 -5.9754 4.90068 0
M  V30 8981 H 879.743 -5.37824 4.40194 0
M  V30 8982 H 882.934 -3.79912 2.73467 0
M  V30 8983 H 883.107 -5.10759 3.98784 0
M  V30 8984 N 876.513 -0.788492 -1.36457 0
M  V30 8985 C 877.461 -0.174192 -2.31947 0
M  V30 8986 C 878.455 0.665974 -1.5576 0
M  V30 8987 O 879.661 0.561161 -1.71029 0
M  V30 8988 H 876.036 -0.0375538 -0.751062 0
M  V30 8989 H 878.007 -0.995011 -2.81322 0
M  V30 8990 C 876.756 0.677276 -3.4104 0
M  V30 8991 H 876.079 0.0401418 -3.9978 0
M  V30 8992 H 877.519 1.07379 -4.10178 0
M  V30 8993 C 875.978 1.83512 -2.82533 0
M  V30 8994 O 876.508 2.93164 -2.74623 0
M  V30 8995 N 874.714 1.64095 -2.39836 0
M  V30 8996 H 874.261 0.749046 -2.46469 0
M  V30 8997 H 874.219 2.41726 -2.01037 0
M  V30 8998 N 877.991 1.48044 -0.54043 0
M  V30 8999 C 878.938 2.29781 0.216597 0
M  V30 9000 C 879.908 1.38021 0.924094 0
M  V30 9001 O 881.093 1.66985 0.923078 0
M  V30 9002 C 878.233 3.21623 1.2511 0
M  V30 9003 C 877.346 4.28467 0.551384 0
M  V30 9004 C 876.481 5.07477 1.56972 0
M  V30 9005 C 875.52 6.06113 0.854048 0
M  V30 9006 N 874.657 6.78143 1.81842 0
M  V30 9007 H 879.497 2.94001 -0.486578 0
M  V30 9008 H 877.034 1.44929 -0.251789 0
M  V30 9009 H 878.992 3.73279 1.8633 0
M  V30 9010 H 877.622 2.59305 1.92252 0
M  V30 9011 H 876.674 3.79997 -0.174982 0
M  V30 9012 H 877.986 4.98799 -0.0100542 0
M  V30 9013 H 877.14 5.63199 2.25592 0
M  V30 9014 H 875.879 4.37008 2.16507 0
M  V30 9015 H 874.884 5.49585 0.153838 0
M  V30 9016 H 876.109 6.78584 0.264675 0
M  V30 9017 H 874.055 6.10417 2.40265 0
M  V30 9018 H 873.972 7.44587 1.3087 0
M  V30 9019 H 875.24 7.38448 2.49628 0
M  V30 9020 N 879.47 0.276058 1.55163 0
M  V30 9021 C 880.881 -0.221516 1.85381 0
M  V30 9022 C 881.232 -1.55372 1.19808 0
M  V30 9023 O 880.357 -2.10855 0.486742 0
M  V30 9024 C 880.952 -0.408706 3.36326 0
M  V30 9025 C 879.511 -0.850512 3.66665 0
M  V30 9026 C 878.658 0.055656 2.77244 0
M  V30 9027 H 881.609 0.497819 1.5069 0
M  V30 9028 H 881.63 -1.24711 3.59482 0
M  V30 9029 H 881.142 0.561052 3.84023 0
M  V30 9030 H 879.243 -1.83171 3.24468 0
M  V30 9031 H 879.356 -0.687181 4.74146 0
M  V30 9032 H 877.72 -0.460819 2.50497 0
M  V30 9033 H 878.503 1.02131 3.27756 0
M  V30 9034 N 880.948 -1.576 0.00335426 0
M  V30 9035 C 882.196 -1.90336 -0.679446 0
M  V30 9036 C 882.517 -0.877777 -1.74127 0
M  V30 9037 O 881.787 0.0843585 -1.95718 0
M  V30 9038 H 880.367 -0.702509 -0.253948 0
M  V30 9039 H 883.029 -1.94848 0.0450731 0
M  V30 9040 H 882.125 -2.90197 -1.14857 0
M  V30 9041 N 882.426 0.269451 -1.5528 0
M  V30 9042 C 883.672 1.00206 -1.76314 0
M  V30 9043 C 884.005 1.85812 -0.564581 0
M  V30 9044 O 883.28 1.89509 0.437769 0
M  V30 9045 C 883.563 1.88163 -3.07029 0
M  V30 9046 C 883.416 1.05527 -4.37246 0
M  V30 9047 C 884.735 2.8681 -3.33808 0
M  V30 9048 H 881.854 0.36288 -0.641473 0
M  V30 9049 H 884.496 0.274188 -1.88011 0
M  V30 9050 H 882.646 2.50224 -2.97187 0
M  V30 9051 H 884.318 0.455094 -4.5905 0
M  V30 9052 H 882.561 0.358842 -4.32313 0
M  V30 9053 H 883.232 1.70397 -5.25042 0
M  V30 9054 H 885.708 2.34884 -3.43466 0
M  V30 9055 H 884.584 3.45492 -4.26528 0
M  V30 9056 H 884.845 3.62118 -2.5362 0
M  V30 9057 N 883.904 1.48273 0.534124 0
M  V30 9058 C 885.134 1.59503 1.31311 0
M  V30 9059 C 885.542 0.25284 1.87503 0
M  V30 9060 O 884.885 -0.767399 1.66903 0
M  V30 9061 C 884.947 2.57899 2.50456 0
M  V30 9062 C 884.611 4.03063 2.15382 0
M  V30 9063 C 885.608 4.90869 1.713 0
M  V30 9064 C 883.293 4.4857 2.26032 0
M  V30 9065 C 885.287 6.22209 1.38328 0
M  V30 9066 C 882.974 5.79932 1.92672 0
M  V30 9067 C 883.972 6.66574 1.4889 0
M  V30 9068 O 883.66 7.95492 1.15966 0
M  V30 9069 H 883.392 0.540695 0.405739 0
M  V30 9070 H 885.946 1.94794 0.651497 0
M  V30 9071 H 884.176 2.1772 3.19585 0
M  V30 9072 H 885.865 2.59008 3.12522 0
M  V30 9073 H 886.631 4.56951 1.62545 0
M  V30 9074 H 882.51 3.81321 2.59066 0
M  V30 9075 H 886.054 6.89792 1.04082 0
M  V30 9076 H 881.951 6.13386 2.01066 0
M  V30 9077 H 882.719 8.08207 1.29399 0
M  V30 9078 N 885.382 -0.782676 1.36792 0
M  V30 9079 C 886.61 -1.57162 1.34565 0
M  V30 9080 C 887.025 -1.88664 -0.0715501 0
M  V30 9081 O 886.382 -1.50633 -1.03033 0
M  V30 9082 C 886.433 -2.88854 2.1736 0
M  V30 9083 O 886.154 -2.58707 3.53557 0
M  V30 9084 C 887.655 -3.83132 2.2299 0
M  V30 9085 H 884.875 -0.487245 0.461338 0
M  V30 9086 H 887.419 -0.970905 1.79982 0
M  V30 9087 H 885.574 -3.45377 1.7548 0
M  V30 9088 H 885.988 -3.42961 3.96835 0
M  V30 9089 H 887.462 -4.72575 2.85266 0
M  V30 9090 H 887.939 -4.21472 1.23524 0
M  V30 9091 H 888.545 -3.32541 2.65135 0
M  V30 9092 N 886.86 -1.21182 -1.00761 0
M  V30 9093 C 888.137 -0.936297 -1.71735 0
M  V30 9094 C 888.517 0.552585 -2.03739 0
M  V30 9095 O 887.865 1.51672 -1.70903 0
M  V30 9096 C 888.075 -1.81867 -2.97868 0
M  V30 9097 C 889.423 -2.06594 -3.7095 0
M  V30 9098 O 890.447 -1.79194 -3.07844 0
M  V30 9099 O 889.306 -2.5292 -4.84452 0
M  V30 9100 H 886.4 -0.350867 -0.74888 0
M  V30 9101 H 888.946 -1.32098 -1.06527 0
M  V30 9102 H 887.718 -2.82643 -2.70607 0
M  V30 9103 H 887.341 -1.43463 -3.70815 0
M  V30 9104 N 888.338 1.20213 -1.01915 0
M  V30 9105 C 889.584 1.89928 -0.711007 0
M  V30 9106 C 889.917 1.7881 0.75767 0
M  V30 9107 O 889.192 1.17399 1.55073 0
M  V30 9108 C 889.475 3.41225 -1.15053 0
M  V30 9109 C 889.328 3.61264 -2.67971 0
M  V30 9110 C 890.647 4.34108 -0.72377 0
M  V30 9111 H 887.766 0.689702 -0.259768 0
M  V30 9112 H 890.408 1.41557 -1.26734 0
M  V30 9113 H 888.558 3.82552 -0.677199 0
M  V30 9114 H 890.23 3.29173 -3.23176 0
M  V30 9115 H 888.473 3.04647 -3.08824 0
M  V30 9116 H 889.144 4.67331 -2.93779 0
M  V30 9117 H 891.62 4.00442 -1.13073 0
M  V30 9118 H 890.496 5.38581 -1.05931 0
M  V30 9119 H 890.757 4.40512 0.374424 0
M  V30 9120 N 889.816 0.795718 1.36037 0
M  V30 9121 C 890.779 0.204318 2.28287 0
M  V30 9122 C 891.779 -0.602017 1.49105 0
M  V30 9123 O 892.969 -0.422089 1.69009 0
M  V30 9124 C 890.101 -0.716431 3.33287 0
M  V30 9125 H 891.294 1.01781 2.821 0
M  V30 9126 H 888.847 0.565588 1.45708 0
M  V30 9127 H 889.582 -1.55403 2.84641 0
M  V30 9128 H 889.367 -0.140096 3.9185 0
M  V30 9129 H 890.857 -1.12488 4.02164 0
M  V30 9130 N 891.294 -1.47756 0.548274 0
M  V30 9131 C 892.524 -2.06584 0.0254503 0
M  V30 9132 C 892.932 -1.40268 -1.26971 0
M  V30 9133 O 892.275 -0.49019 -1.77039 0
M  V30 9134 C 892.337 -3.58628 -0.250301 0
M  V30 9135 C 892.001 -4.4693 0.954087 0
M  V30 9136 C 892.998 -4.85592 1.85733 0
M  V30 9137 C 890.683 -4.88573 1.16624 0
M  V30 9138 C 892.677 -5.64686 2.95648 0
M  V30 9139 C 890.364 -5.67435 2.2685 0
M  V30 9140 C 891.362 -6.05401 3.16194 0
M  V30 9141 O 891.05 -6.82676 4.24511 0
M  V30 9142 H 890.782 -0.67489 0.0387264 0
M  V30 9143 H 893.336 -1.90876 0.758663 0
M  V30 9144 H 891.566 -3.72516 -1.03771 0
M  V30 9145 H 893.255 -3.9951 -0.717419 0
M  V30 9146 H 894.021 -4.54026 1.70544 0
M  V30 9147 H 889.9 -4.58494 0.480039 0
M  V30 9148 H 893.444 -5.9424 3.65411 0
M  V30 9149 H 889.341 -5.98413 2.42016 0
M  V30 9150 H 890.109 -7.01057 4.22447 0
M  V30 9151 N 892.772 -0.284283 -1.55015 0
M  V30 9152 C 894.002 0.332465 -2.03907 0
M  V30 9153 C 894.41 1.49331 -1.16177 0
M  V30 9154 O 893.753 1.82851 -0.176395 0
M  V30 9155 C 893.815 0.867193 -3.48884 0
M  V30 9156 C 893.479 -0.166198 -4.56698 0
M  V30 9157 C 894.476 -0.988898 -5.10408 0
M  V30 9158 C 892.161 -0.303081 -5.01385 0
M  V30 9159 C 894.155 -1.93458 -6.07333 0
M  V30 9160 C 891.842 -1.25223 -5.98133 0
M  V30 9161 C 892.84 -2.06647 -6.50988 0
M  V30 9162 O 892.528 -2.99955 -7.45843 0
M  V30 9163 H 892.26 0.0786597 -0.671408 0
M  V30 9164 H 894.814 -0.416871 -2.01125 0
M  V30 9165 H 893.044 1.66676 -3.48935 0
M  V30 9166 H 894.733 1.39802 -3.81065 0
M  V30 9167 H 895.499 -0.89393 -4.76691 0
M  V30 9168 H 891.378 0.320711 -4.59883 0
M  V30 9169 H 894.922 -2.57053 -6.48513 0
M  V30 9170 H 890.819 -1.34798 -6.31268 0
M  V30 9171 H 891.587 -2.94742 -7.6359 0
M  V30 9172 N 894.251 1.57596 -0.0117121 0
M  V30 9173 C 895.181 2.12188 0.9746 0
M  V30 9174 C 896.162 1.03379 1.35081 0
M  V30 9175 O 897.347 1.31123 1.4325 0
M  V30 9176 C 894.477 2.63477 2.26268 0
M  V30 9177 C 893.431 3.76917 2.02774 0
M  V30 9178 C 892.757 4.14566 3.37697 0
M  V30 9179 C 894.057 5.03715 1.38089 0
M  V30 9180 H 895.751 2.9485 0.520007 0
M  V30 9181 H 893.297 1.41836 0.248685 0
M  V30 9182 H 895.25 3.00299 2.95633 0
M  V30 9183 H 893.974 1.77953 2.73862 0
M  V30 9184 H 892.633 3.40507 1.35832 0
M  V30 9185 H 892.281 3.26048 3.83016 0
M  V30 9186 H 891.981 4.91 3.22789 0
M  V30 9187 H 893.505 4.53956 4.08358 0
M  V30 9188 H 894.919 5.38233 1.97428 0
M  V30 9189 H 893.316 5.85032 1.33634 0
M  V30 9190 H 894.386 4.83624 0.351575 0
M  V30 9191 N 895.729 -0.261212 1.5542 0
M  V30 9192 C 896.692 -1.30645 1.8832 0
M  V30 9193 C 897.692 -1.41782 0.758588 0
M  V30 9194 O 898.882 -1.40729 1.02669 0
M  V30 9195 C 896.014 -2.6862 2.09895 0
M  V30 9196 H 897.207 -1.02698 2.81768 0
M  V30 9197 H 894.76 -0.499838 1.48092 0
M  V30 9198 H 895.495 -3.0173 1.18868 0
M  V30 9199 H 895.28 -2.61921 2.91787 0
M  V30 9200 H 896.77 -3.44121 2.36581 0
M  V30 9201 N 897.207 -1.48554 -0.526253 0
M  V30 9202 C 898.453 -1.57972 -1.28127 0
M  V30 9203 C 898.808 -0.251973 -1.90743 0
M  V30 9204 O 898.101 0.745524 -1.76501 0
M  V30 9205 C 898.295 -2.65739 -2.38993 0
M  V30 9206 C 898.124 -4.08864 -1.87244 0
M  V30 9207 C 896.894 -4.75959 -1.6968 0
M  V30 9208 C 899.092 -4.94912 -1.39882 0
M  V30 9209 N 897.074 -6.03486 -1.12596 0
M  V30 9210 C 898.445 -6.12714 -0.947696 0
M  V30 9211 C 900.5 -4.81107 -1.2822 0
M  V30 9212 C 899.203 -7.18234 -0.391507 0
M  V30 9213 C 901.229 -5.86752 -0.740001 0
M  V30 9214 C 900.591 -7.03765 -0.298968 0
M  V30 9215 H 896.69 -0.632588 -0.459735 0
M  V30 9216 H 899.274 -1.85452 -0.59294 0
M  V30 9217 H 897.445 -2.40075 -3.05317 0
M  V30 9218 H 899.177 -2.64821 -3.06026 0
M  V30 9219 H 895.932 -4.32351 -1.93312 0
M  V30 9220 H 896.356 -6.71509 -0.860541 0
M  V30 9221 H 900.998 -3.90978 -1.60922 0
M  V30 9222 H 898.716 -8.08083 -0.0521685 0
M  V30 9223 H 902.302 -5.78125 -0.652889 0
M  V30 9224 H 901.182 -7.84117 0.114052 0
M  V30 9225 N 898.685 0.775411 -1.37205 0
M  V30 9226 C 899.934 1.52909 -1.31536 0
M  V30 9227 C 900.247 1.9535 0.0989374 0
M  V30 9228 O 901.453 2.70072 0.278079 0
M  V30 9229 C 899.909 2.761 -2.30861 0
M  V30 9230 C 899.517 2.40773 -3.77799 0
M  V30 9231 C 901.261 3.54052 -2.34195 0
M  V30 9232 C 899.168 3.60444 -4.68865 0
M  V30 9233 H 898.098 0.574061 -0.488845 0
M  V30 9234 H 900.749 0.849642 -1.62645 0
M  V30 9235 H 899.131 3.45916 -1.92764 0
M  V30 9236 H 900.305 1.78764 -4.24712 0
M  V30 9237 H 898.62 1.76004 -3.77375 0
M  V30 9238 H 901.217 4.42992 -2.99437 0
M  V30 9239 H 901.56 3.93649 -1.35449 0
M  V30 9240 H 902.093 2.91229 -2.7098 0
M  V30 9241 H 898.832 3.25932 -5.68725 0
M  V30 9242 H 898.352 4.21571 -4.26659 0
M  V30 9243 H 900.031 4.27302 -4.85821 0
M  V30 9244 N 900.163 1.21714 1.00117 0
M  V30 9245 C 901.579 0.97532 1.26332 0
M  V30 9246 C 901.779 -0.336029 1.98678 0
M  V30 9247 O 900.835 -1.06073 2.29139 0
M  V30 9248 C 902.148 2.16848 2.0832 0
M  V30 9249 C 903.696 2.21115 2.21533 0
M  V30 9250 C 904.171 3.3996 3.06906 0
M  V30 9251 N 905.662 3.40071 3.14494 0
M  V30 9252 C 906.397 4.28678 3.80818 0
M  V30 9253 N 905.893 5.2749 4.49139 0
M  V30 9254 N 907.686 4.16476 3.77497 0
M  V30 9255 H 899.837 2.06039 0.515897 0
M  V30 9256 H 902.1 0.902423 0.290408 0
M  V30 9257 H 901.806 3.119 1.62515 0
M  V30 9258 H 901.68 2.16226 3.09073 0
M  V30 9259 H 904.067 1.26616 2.66557 0
M  V30 9260 H 904.148 2.2578 1.20238 0
M  V30 9261 H 903.792 4.34755 2.62585 0
M  V30 9262 H 903.722 3.32534 4.08324 0
M  V30 9263 H 906.213 2.68563 2.65861 0
M  V30 9264 H 906.526 5.91397 4.97463 0
M  V30 9265 H 904.871 5.31412 4.47914 0
M  V30 9266 H 908.062 3.38539 3.23278 0
M  V30 9267 H 908.235 4.85739 4.28908 0
M  V30 9268 N 901.641 -1.19671 1.02551 0
M  V30 9269 C 902.551 -2.26441 0.613329 0
M  V30 9270 C 903.567 -1.70375 -0.353339 0
M  V30 9271 O 904.743 -2.0028 -0.212064 0
M  V30 9272 C 901.808 -3.46684 -0.0329028 0
M  V30 9273 C 900.869 -4.17945 0.980837 0
M  V30 9274 C 900.102 -5.32448 0.36535 0
M  V30 9275 O 900.325 -5.64291 -0.832596 0
M  V30 9276 O 899.259 -5.92012 1.08652 0
M  V30 9277 H 903.085 -2.63932 1.50246 0
M  V30 9278 H 900.67 -1.2646 0.795502 0
M  V30 9279 H 902.552 -4.1956 -0.393395 0
M  V30 9280 H 901.227 -3.1105 -0.896089 0
M  V30 9281 H 900.134 -3.47204 1.39286 0
M  V30 9282 H 901.467 -4.57542 1.81428 0
M  V30 9283 N 903.119 -0.802921 -1.35613 0
M  V30 9284 C 904.069 -0.183492 -2.2726 0
M  V30 9285 C 905.053 0.640527 -1.47601 0
M  V30 9286 O 906.245 0.498386 -1.69838 0
M  V30 9287 C 903.374 0.67003 -3.36698 0
M  V30 9288 C 902.46 -0.163517 -4.23785 0
M  V30 9289 N 902.851 -1.22472 -4.90749 0
M  V30 9290 C 901.149 0.0554547 -4.45966 0
M  V30 9291 C 901.85 -1.73329 -5.55276 0
M  V30 9292 N 900.826 -1.04033 -5.33552 0
M  V30 9293 H 904.628 -0.995525 -2.76526 0
M  V30 9294 H 902.142 -0.643714 -1.49098 0
M  V30 9295 H 904.139 1.12981 -4.01299 0
M  V30 9296 H 902.799 1.48045 -2.88986 0
M  V30 9297 H 903.81 -1.60733 -4.92327 0
M  V30 9298 H 900.487 0.835312 -4.09058 0
M  V30 9299 H 901.877 -2.62 -6.18713 0
M  V30 9300 N 904.597 1.47463 -0.556102 0
M  V30 9301 C 905.825 2.06868 -0.0364585 0
M  V30 9302 C 906.24 1.40893 1.25677 0
M  V30 9303 O 905.597 0.505083 1.75371 0
M  V30 9304 C 905.648 3.61128 0.163984 0
M  V30 9305 O 905.369 4.24629 -1.07803 0
M  V30 9306 C 906.87 4.37397 0.721036 0
M  V30 9307 H 904.09 0.669466 -0.0453399 0
M  V30 9308 H 906.634 1.89482 -0.769198 0
M  V30 9309 H 904.789 3.78031 0.84685 0
M  V30 9310 H 905.203 5.17149 -0.875067 0
M  V30 9311 H 906.677 5.46016 0.810584 0
M  V30 9312 H 907.154 4.03604 1.73206 0
M  V30 9313 H 907.76 4.25236 0.073904 0
M  V30 9314 N 906.075 0.2925 1.54862 0
M  V30 9315 C 907.321 -0.319736 2.00264 0
M  V30 9316 C 907.654 -1.5419 1.18064 0
M  V30 9317 O 906.929 -1.92821 0.254983 0
M  V30 9318 C 907.212 -0.684753 3.5353 0
M  V30 9319 C 907.065 0.545961 4.46474 0
M  V30 9320 C 908.384 -1.51456 4.13218 0
M  V30 9321 H 905.503 -0.11474 0.728014 0
M  V30 9322 H 908.145 0.402907 1.85679 0
M  V30 9323 H 906.295 -1.30044 3.66089 0
M  V30 9324 H 907.967 1.18448 4.45834 0
M  V30 9325 H 906.21 1.1808 4.1742 0
M  V30 9326 H 906.881 0.246544 5.51449 0
M  V30 9327 H 909.357 -0.994421 4.04043 0
M  V30 9328 H 908.233 -1.73875 5.20633 0
M  V30 9329 H 908.494 -2.5011 3.64551 0
M  V30 9330 N 907.553 -1.57587 0.0200696 0
M  V30 9331 C 908.778 -1.96124 -0.674547 0
M  V30 9332 C 909.203 -0.896068 -1.65385 0
M  V30 9333 O 908.561 0.143925 -1.80728 0
M  V30 9334 C 908.609 -3.3376 -1.36517 0
M  V30 9335 O 907.713 -3.29483 -2.48022 0
M  V30 9336 H 907.054 -0.639719 -0.177919 0
M  V30 9337 H 909.584 -2.04447 0.0792317 0
M  V30 9338 H 909.594 -3.69785 -1.72403 0
M  V30 9339 H 908.269 -4.10832 -0.647265 0
M  V30 9340 H 906.846 -3.05162 -2.14314 0
M  V30 9341 O 909.07 0.121766 -1.6104 0
M  V30 9342 H 909.761 0.753356 -1.7845 0
M  V30 END ATOM
M  V30 BEGIN BOND
M  V30 END BOND
M  V30 END CTAB
M  END
$$$$
