drugbank_target|Q99418 Cytohesin-2 (DB01863; DB01942; DB03401; DB04530; DB07348)
 OpenBabel12092120233D

  0  0  0     0  0            999 V3000
M  V30 BEGIN CTAB
M  V30 COUNTS 6518 6583 0 0 0
M  V30 BEGIN ATOM
M  V30 1 H -0.908 1.98254 -0.117106 0
M  V30 2 N 0 1.576 0 0
M  V30 3 C 0.933 2.03868 1.02534 0
M  V30 4 C 1.911 0.928543 1.3348 0
M  V30 5 O 3.095 1.19667 1.45644 0
M  V30 6 C 0.222 2.43627 2.35294 0
M  V30 7 C -0.732 3.65373 2.2001 0
M  V30 8 S 0.101 5.13292 1.52614 0
M  V30 9 C 1.257 5.56322 2.86805 0
M  V30 10 H 1.49 2.90518 0.631377 0
M  V30 11 H -0.977 1.52953 0.210867 0
M  V30 12 H 0.981 2.67203 3.11629 0
M  V30 13 H -0.358 1.57376 2.7183 0
M  V30 14 H -1.165 3.90944 3.18086 0
M  V30 15 H -1.563 3.418 1.51819 0
M  V30 16 H 0.729 5.58782 3.83104 0
M  V30 17 H 1.672 6.56266 2.65933 0
M  V30 18 H 2.08 4.83886 2.90714 0
M  V30 19 N 1.4781 -0.272755 1.55222 0
M  V30 20 C 2.3881 -1.35918 1.91216 0
M  V30 21 C 3.4041 -1.54026 0.809436 0
M  V30 22 O 4.5801 -1.68148 1.10852 0
M  V30 23 C 1.6451 -2.69834 2.17693 0
M  V30 24 C 0.7061 -2.6047 3.41253 0
M  V30 25 C -0.0609 -3.88 3.66458 0
M  V30 26 O 0.1621 -4.88693 2.94169 0
M  V30 27 O -0.9039 -3.88189 4.59992 0
M  V30 28 H 2.9221 -1.0839 2.83699 0
M  V30 29 H 0.5071 -0.471301 1.41771 0
M  V30 30 H 2.3891 -3.49017 2.36147 0
M  V30 31 H 1.0641 -2.97148 1.28392 0
M  V30 32 H -0.0289 -1.79663 3.28134 0
M  V30 33 H 1.3041 -2.38106 4.30774 0
M  V30 34 N 2.9562 -1.48159 -0.537278 0
M  V30 35 C 4.2332 -1.46291 -1.29839 0
M  V30 36 C 4.6132 -0.170613 -2.10409 0
M  V30 37 O 3.9612 0.847746 -2.12192 0
M  V30 38 C 4.1712 -2.72055 -2.18603 0
M  V30 39 C 5.5192 -3.20087 -2.7898 0
M  V30 40 O 6.5432 -2.72921 -2.28894 0
M  V30 41 O 5.4022 -4.02138 -3.70064 0
M  V30 42 H 2.4962 -0.583906 -0.585647 0
M  V30 43 H 5.0422 -1.60384 -0.554534 0
M  V30 44 H 3.8142 -3.57628 -1.58801 0
M  V30 45 H 3.4372 -2.60646 -3.00249 0
M  V30 46 N 4.4343 0.785586 -1.36625 0
M  V30 47 C 5.6823 1.54057 -1.30808 0
M  V30 48 C 6.0033 1.94683 0.111157 0
M  V30 49 O 5.2733 1.65241 1.05224 0
M  V30 50 H 3.8533 0.571354 -0.481211 0
M  V30 51 H 6.5153 0.935821 -1.70963 0
M  V30 52 H 5.6113 2.44637 -1.93801 0
M  V30 53 N 5.9124 1.20967 1.01018 0
M  V30 54 C 7.1584 1.02526 1.74975 0
M  V30 55 C 7.4914 -0.4408 1.89131 0
M  V30 56 O 6.7664 -1.32718 1.42184 0
M  V30 57 C 7.0494 1.71699 3.1653 0
M  V30 58 C 6.9024 3.25791 3.10129 0
M  V30 59 C 8.2214 1.45531 4.15342 0
M  V30 60 H 5.3404 0.373863 0.635134 0
M  V30 61 H 7.9824 1.49071 1.17805 0
M  V30 62 H 6.1324 1.32128 3.65341 0
M  V30 63 H 7.8044 3.74697 2.69072 0
M  V30 64 H 6.0474 3.56363 2.47362 0
M  V30 65 H 6.7184 3.69353 4.10222 0
M  V30 66 H 9.1944 1.79872 3.75213 0
M  V30 67 H 8.0704 1.96453 5.1254 0
M  V30 68 H 8.3314 0.384237 4.40427 0
M  V30 69 N 7.3905 -1.2043 1.01659 0
M  V30 70 C 8.6205 -1.93496 0.724081 0
M  V30 71 C 9.0285 -1.74998 -0.71918 0
M  V30 72 O 8.3715 -1.06118 -1.49949 0
M  V30 73 C 8.4335 -3.45886 0.97994 0
M  V30 74 C 8.0975 -3.88145 2.41232 0
M  V30 75 C 9.0945 -3.93907 3.39313 0
M  V30 76 C 6.7795 -4.20134 2.75305 0
M  V30 77 C 8.7735 -4.31069 4.6953 0
M  V30 78 C 6.4605 -4.56971 4.05735 0
M  V30 79 C 7.4585 -4.62411 5.02658 0
M  V30 80 O 7.1465 -4.98403 6.30754 0
M  V30 81 H 6.8785 -0.621824 0.265162 0
M  V30 82 H 9.4325 -1.53867 1.36066 0
M  V30 83 H 7.6625 -3.85639 0.286198 0
M  V30 84 H 9.3515 -4.0018 0.679021 0
M  V30 85 H 10.1175 -3.69357 3.14325 0
M  V30 86 H 5.9965 -4.1509 2.00551 0
M  V30 87 H 9.5405 -4.3523 5.45179 0
M  V30 88 H 5.4375 -4.80977 4.30502 0
M  V30 89 H 6.2055 -5.16395 6.35042 0
M  V30 90 N 8.8686 -0.792821 -1.36206 0
M  V30 91 C 9.7786 -0.194808 -2.3379 0
M  V30 92 C 10.7946 0.654869 -1.61206 0
M  V30 93 O 11.9706 0.569856 -1.9317 0
M  V30 94 C 9.0356 0.657721 -3.40404 0
M  V30 95 C 8.0966 -0.210849 -4.28782 0
M  V30 96 C 7.3296 0.601086 -5.30304 0
M  V30 97 O 7.5526 1.83682 -5.40016 0
M  V30 98 O 6.4866 -0.000808277 -6.019 0
M  V30 99 H 10.3126 -1.00172 -2.86704 0
M  V30 100 H 7.8976 -0.554341 -1.38735 0
M  V30 101 H 9.7796 1.14375 -4.05581 0
M  V30 102 H 8.4546 1.44247 -2.89784 0
M  V30 103 H 7.3616 -0.743714 -3.66633 0
M  V30 104 H 8.6946 -0.959195 -4.82763 0
M  V30 105 N 10.3467 1.47872 -0.545128 0
M  V30 106 C 11.7577 1.86384 -0.108581 0
M  V30 107 C 12.1087 1.45309 1.31832 0
M  V30 108 O 11.2337 0.850641 1.9898 0
M  V30 109 C 11.8287 3.38265 -0.190274 0
M  V30 110 C 10.3877 3.75914 0.191164 0
M  V30 111 C 9.5347 2.71926 -0.543273 0
M  V30 112 H 12.4857 1.39561 -0.755537 0
M  V30 113 H 12.5067 3.75831 0.594217 0
M  V30 114 H 12.0187 3.6813 -1.2289 0
M  V30 115 H 10.1197 3.51665 1.23136 0
M  V30 116 H 10.2327 4.78836 -0.158987 0
M  V30 117 H 8.5967 2.54697 0.0122495 0
M  V30 118 H 9.3797 3.04634 -1.58282 0
M  V30 119 N 11.8248 0.280983 1.55075 0
M  V30 120 C 13.2358 -0.215629 1.85451 0
M  V30 121 C 13.5868 -1.54991 1.203 0
M  V30 122 O 12.7118 -2.10699 0.493435 0
M  V30 123 C 13.3068 -0.398026 3.36454 0
M  V30 124 C 11.8658 -0.838866 3.66933 0
M  V30 125 C 11.0128 0.064458 2.77225 0
M  V30 126 H 13.9638 0.502601 1.50531 0
M  V30 127 H 13.9848 -1.23569 3.59876 0
M  V30 128 H 13.4968 0.573241 3.83843 0
M  V30 129 H 11.5978 -1.8214 3.25048 0
M  V30 130 H 11.7108 -0.672123 4.74362 0
M  V30 131 H 10.0748 -0.452863 2.50642 0
M  V30 132 H 10.8578 1.03172 3.2743 0
M  V30 133 N 13.3029 -1.57598 0.00835791 0
M  V30 134 C 14.5799 -1.82172 -0.712235 0
M  V30 135 C 14.9599 -0.887873 -1.9152 0
M  V30 136 O 14.3079 0.06146 -2.28417 0
M  V30 137 C 14.5179 -3.30875 -1.11008 0
M  V30 138 C 15.8659 -3.96826 -1.51044 0
M  V30 139 O 16.8899 -3.35248 -1.20364 0
M  V30 140 O 15.7489 -5.05318 -2.08125 0
M  V30 141 H 12.8429 -0.750435 -0.347529 0
M  V30 142 H 15.3889 -1.69665 0.0344523 0
M  V30 143 H 14.1609 -3.90481 -0.252982 0
M  V30 144 H 13.7839 -3.48412 -1.9156 0
M  V30 145 N 14.781 0.264519 -1.55364 0
M  V30 146 C 15.711 1.33121 -1.91836 0
M  V30 147 C 16.692 1.51101 -0.781192 0
M  V30 148 O 17.877 1.64003 -1.04003 0
M  V30 149 C 15.007 2.68921 -2.19769 0
M  V30 150 C 13.961 2.65661 -3.35571 0
M  V30 151 C 13.287 4.05093 -3.49004 0
M  V30 152 C 14.587 2.24187 -4.71739 0
M  V30 153 H 16.281 1.02844 -2.81182 0
M  V30 154 H 13.827 0.493286 -1.35287 0
M  V30 155 H 15.78 3.43663 -2.43872 0
M  V30 156 H 14.504 3.00799 -1.27231 0
M  V30 157 H 13.163 1.93377 -3.1145 0
M  V30 158 H 12.811 4.34206 -2.53917 0
M  V30 159 H 12.511 4.03804 -4.26868 0
M  V30 160 H 14.035 4.81561 -3.75408 0
M  V30 161 H 15.449 2.88654 -4.9533 0
M  V30 162 H 13.846 2.34044 -5.52579 0
M  V30 163 H 14.916 1.19327 -4.69988 0
M  V30 164 N 16.2591 1.48442 0.529413 0
M  V30 165 C 17.4871 1.60151 1.30994 0
M  V30 166 C 17.9021 0.261985 1.86973 0
M  V30 167 O 17.2591 -0.748805 1.66431 0
M  V30 168 C 17.3101 2.64854 2.46038 0
M  V30 169 O 17.0311 3.93608 1.92365 0
M  V30 170 C 18.5321 2.87007 3.37849 0
M  V30 171 H 15.7521 0.539971 0.398338 0
M  V30 172 H 18.2961 1.94273 0.638597 0
M  V30 173 H 16.4511 2.33589 3.09055 0
M  V30 174 H 16.8651 4.51055 2.67675 0
M  V30 175 H 18.3391 3.64068 4.14919 0
M  V30 176 H 18.8161 1.95852 3.93114 0
M  V30 177 H 19.4221 3.19579 2.80623 0
M  V30 178 N 17.7372 -0.778329 1.37039 0
M  V30 179 C 19.1482 -1.35421 1.28523 0
M  V30 180 C 19.4992 -1.96075 -0.0700901 0
M  V30 181 O 18.6242 -1.93352 -0.971801 0
M  V30 182 C 19.2192 -2.46211 2.32735 0
M  V30 183 C 17.7782 -2.99585 2.27873 0
M  V30 184 C 16.9252 -1.72748 2.16918 0
M  V30 185 H 19.8762 -0.5791 1.47757 0
M  V30 186 H 19.8972 -3.2552 1.9702 0
M  V30 187 H 19.4092 -2.02036 3.31365 0
M  V30 188 H 17.5102 -3.48152 1.32745 0
M  V30 189 H 17.6232 -3.55646 3.21018 0
M  V30 190 H 15.9872 -1.95416 1.63354 0
M  V30 191 H 16.7702 -1.30686 3.17452 0
M  V30 192 N 19.2153 -1.21501 -1.00376 0
M  V30 193 C 20.1253 -0.991447 -2.12621 0
M  V30 194 C 21.1413 0.0568446 -1.73907 0
M  V30 195 O 22.3173 -0.13348 -2.00957 0
M  V30 196 C 19.3823 -0.560312 -3.42142 0
M  V30 197 C 18.4433 -1.68096 -3.95022 0
M  V30 198 C 17.6763 -1.2703 -5.18362 0
M  V30 199 O 17.8993 -0.144438 -5.70217 0
M  V30 200 O 16.8333 -2.08269 -5.64719 0
M  V30 201 H 20.6593 -1.93158 -2.34358 0
M  V30 202 H 18.2443 -0.999999 -1.10997 0
M  V30 203 H 20.1263 -0.329724 -4.20108 0
M  V30 204 H 18.8013 0.351089 -3.2179 0
M  V30 205 H 17.7083 -1.96597 -3.18278 0
M  V30 206 H 19.0413 -2.56983 -4.19786 0
M  V30 207 N 20.6934 1.19889 -1.02296 0
M  V30 208 C 21.6034 2.26571 -0.608508 0
M  V30 209 C 22.6194 1.70299 0.356964 0
M  V30 210 O 23.7954 2.00235 0.216326 0
M  V30 211 C 20.8604 3.46677 0.0402814 0
M  V30 212 C 19.9214 4.18153 -0.97194 0
M  V30 213 C 19.1544 5.32525 -0.354016 0
M  V30 214 O 19.3774 5.64112 0.844604 0
M  V30 215 O 18.3114 5.92242 -1.07391 0
M  V30 216 H 22.1374 2.64251 -1.49684 0
M  V30 217 H 19.7224 1.26629 -0.792809 0
M  V30 218 H 21.6044 4.19475 0.402324 0
M  V30 219 H 20.2794 3.10858 0.902707 0
M  V30 220 H 19.1864 3.47499 -1.38546 0
M  V30 221 H 20.5194 4.57927 -1.80454 0
M  V30 222 N 22.1715 0.800033 1.35784 0
M  V30 223 C 23.5875 0.482977 1.52117 0
M  V30 224 C 23.7875 -0.996948 1.75109 0
M  V30 225 O 22.8435 -1.78216 1.78872 0
M  V30 226 C 24.1565 1.32264 2.70049 0
M  V30 227 C 25.7045 1.31742 2.83924 0
M  V30 228 C 26.1795 2.14106 4.04874 0
M  V30 229 N 27.6705 2.11607 4.12039 0
M  V30 230 C 28.4055 2.72099 5.04727 0
M  V30 231 N 27.9015 3.41492 6.02789 0
M  V30 232 N 29.6945 2.61776 4.97423 0
M  V30 233 H 21.8455 1.75856 1.19115 0
M  V30 234 H 24.1085 0.748122 0.582252 0
M  V30 235 H 23.8145 2.37261 2.59616 0
M  V30 236 H 23.6885 0.971303 3.6448 0
M  V30 237 H 26.0755 0.275333 2.93813 0
M  V30 238 H 26.1565 1.70859 1.9037 0
M  V30 239 H 25.8005 3.18351 3.95746 0
M  V30 240 H 25.7305 1.72353 4.97596 0
M  V30 241 H 28.2215 1.61112 3.41835 0
M  V30 242 H 28.5345 3.84953 6.70098 0
M  V30 243 H 26.8795 3.45596 6.02983 0
M  V30 244 H 30.0705 2.07157 4.19766 0
M  V30 245 H 30.2435 3.0921 5.69468 0
M  V30 246 N 23.6496 -1.47581 0.552962 0
M  V30 247 C 24.5826 -2.26883 -0.244857 0
M  V30 248 C 25.5606 -1.33784 -0.924147 0
M  V30 249 O 26.7446 -1.6316 -0.943981 0
M  V30 250 C 23.8716 -3.10695 -1.34856 0
M  V30 251 C 22.9176 -4.19339 -0.778268 0
M  V30 252 S 23.7506 -5.34207 0.37184 0
M  V30 253 C 24.9066 -6.21584 -0.733779 0
M  V30 254 H 25.1396 -2.94202 0.428087 0
M  V30 255 H 22.6726 -1.50628 0.339197 0
M  V30 256 H 24.6306 -3.59555 -1.98066 0
M  V30 257 H 23.2916 -2.42746 -1.99332 0
M  V30 258 H 22.4846 -4.77695 -1.60696 0
M  V30 259 H 22.0866 -3.73338 -0.222422 0
M  V30 260 H 24.3786 -6.57676 -1.62692 0
M  V30 261 H 25.3216 -7.07851 -0.187668 0
M  V30 262 H 25.7296 -5.55125 -1.02454 0
M  V30 263 N 25.1277 -0.289203 -1.54924 0
M  V30 264 C 26.0377 0.601863 -2.26748 0
M  V30 265 C 27.0537 1.15834 -1.2984 0
M  V30 266 O 28.2297 1.18564 -1.62802 0
M  V30 267 C 25.2947 1.76299 -2.98529 0
M  V30 268 C 24.3557 1.24178 -4.10948 0
M  V30 269 C 23.5887 2.34757 -4.79296 0
M  V30 270 O 23.8117 3.54411 -4.46933 0
M  V30 271 O 22.7457 2.02115 -5.66951 0
M  V30 272 H 26.5717 0.0195879 -3.03694 0
M  V30 273 H 24.1567 -0.0560868 -1.49295 0
M  V30 274 H 26.0387 2.43973 -3.43592 0
M  V30 275 H 24.7137 2.33209 -2.24488 0
M  V30 276 H 23.6207 0.531104 -3.70311 0
M  V30 277 H 24.9537 0.718252 -4.86931 0
M  V30 278 N 26.6058 1.57591 -0.0167156 0
M  V30 279 C 27.5358 2.12496 0.967858 0
M  V30 280 C 28.5168 1.03807 1.34752 0
M  V30 281 O 29.7018 1.31577 1.42833 0
M  V30 282 C 26.8318 2.64194 2.25431 0
M  V30 283 C 25.7858 3.77559 2.01576 0
M  V30 284 C 25.1118 4.15636 3.36379 0
M  V30 285 C 26.4118 5.04151 1.36489 0
M  V30 286 H 28.1058 2.95013 0.510643 0
M  V30 287 H 25.6518 1.41915 0.244181 0
M  V30 288 H 27.6048 3.01236 2.94678 0
M  V30 289 H 26.3288 1.78821 2.73296 0
M  V30 290 H 24.9878 3.40937 1.34751 0
M  V30 291 H 24.6358 3.27263 3.81979 0
M  V30 292 H 24.3358 4.92022 3.21229 0
M  V30 293 H 25.8598 4.5525 4.06915 0
M  V30 294 H 27.2738 5.38857 1.95718 0
M  V30 295 H 25.6708 5.85453 1.31776 0
M  V30 296 H 26.7408 4.83733 0.336219 0
M  V30 297 N 28.0839 -0.256276 1.55502 0
M  V30 298 C 28.9939 -1.33882 1.92647 0
M  V30 299 C 30.0099 -1.53159 0.825727 0
M  V30 300 O 31.1859 -1.66963 1.12629 0
M  V30 301 C 28.2509 -2.6751 2.20543 0
M  V30 302 C 27.3119 -2.56836 3.43997 0
M  V30 303 C 26.5449 -3.84092 3.70553 0
M  V30 304 O 26.7679 -4.85545 2.99336 0
M  V30 305 O 25.7019 -3.83288 4.64084 0
M  V30 306 H 29.5279 -1.05374 2.84833 0
M  V30 307 H 27.1129 -0.456237 1.42263 0
M  V30 308 H 28.9949 -3.46492 2.39835 0
M  V30 309 H 27.6699 -2.9577 1.31536 0
M  V30 310 H 26.5769 -1.76172 3.30021 0
M  V30 311 H 27.9099 -2.33523 4.33275 0
M  V30 312 N 29.562 -1.4872 -0.521534 0
M  V30 313 C 30.51 -1.64328 -1.64618 0
M  V30 314 C 31.504 -0.50953 -1.61555 0
M  V30 315 O 32.71 -0.688525 -1.66311 0
M  V30 316 H 29.085 -0.517805 -0.545328 0
M  V30 317 H 31.056 -2.58767 -1.48601 0
M  V30 318 C 29.805 -1.70805 -3.02855 0
M  V30 319 H 29.128 -2.5741 -3.05909 0
M  V30 320 H 30.568 -1.85766 -3.81139 0
M  V30 321 C 29.027 -0.448479 -3.33902 0
M  V30 322 O 29.557 0.434928 -3.99339 0
M  V30 323 N 27.763 -0.317616 -2.88859 0
M  V30 324 H 27.31 -1.03748 -2.35784 0
M  V30 325 H 27.268 0.524113 -3.10001 0
M  V30 326 N 31.0401 0.771051 -1.3745 0
M  V30 327 C 32.2891 1.52491 -1.3202 0
M  V30 328 C 32.6021 1.9538 0.0927347 0
M  V30 329 O 33.8081 2.70159 0.269503 0
M  V30 330 C 32.2641 2.75366 -2.31736 0
M  V30 331 C 31.8721 2.39573 -3.78562 0
M  V30 332 C 33.6161 3.53307 -2.35318 0
M  V30 333 C 31.5231 3.58954 -4.70007 0
M  V30 334 H 30.4531 0.572506 -0.490666 0
M  V30 335 H 33.1041 0.844474 -1.62914 0
M  V30 336 H 31.4861 3.45303 -1.93861 0
M  V30 337 H 32.6601 1.77415 -4.25277 0
M  V30 338 H 30.9751 1.74805 -3.77932 0
M  V30 339 H 33.5721 4.42039 -3.00842 0
M  V30 340 H 33.9151 3.93217 -1.36698 0
M  V30 341 H 34.4481 2.90367 -2.71904 0
M  V30 342 H 31.1871 3.24125 -5.69757 0
M  V30 343 H 30.7071 4.20214 -4.27996 0
M  V30 344 H 32.3861 4.25758 -4.87175 0
M  V30 345 N 32.5182 1.22032 0.997298 0
M  V30 346 C 33.9342 0.979326 1.26021 0
M  V30 347 C 34.1342 -0.32972 1.98784 0
M  V30 348 O 33.1902 -1.05345 2.29475 0
M  V30 349 C 34.5032 2.17509 2.07631 0
M  V30 350 C 36.0512 2.21817 2.2083 0
M  V30 351 C 36.5262 3.40933 3.05825 0
M  V30 352 N 38.0172 3.41067 3.13412 0
M  V30 353 C 38.7522 4.29885 3.79455 0
M  V30 354 N 38.2482 5.28914 4.47462 0
M  V30 355 N 40.0412 4.17673 3.76173 0
M  V30 356 H 32.1922 2.06202 0.509352 0
M  V30 357 H 34.4552 0.90334 0.287541 0
M  V30 358 H 34.1612 3.12415 1.61524 0
M  V30 359 H 34.0352 2.17206 3.08385 0
M  V30 360 H 36.4222 1.27462 2.66153 0
M  V30 361 H 36.5032 2.2616 1.1952 0
M  V30 362 H 36.1472 4.35586 2.61203 0
M  V30 363 H 36.0772 3.33829 4.07266 0
M  V30 364 H 38.5682 2.69406 2.65007 0
M  V30 365 H 38.8812 5.92973 4.95583 0
M  V30 366 H 37.2262 5.32831 4.46224 0
M  V30 367 H 40.4172 3.39564 3.22202 0
M  V30 368 H 40.5902 4.87098 4.27363 0
M  V30 369 N 33.9963 -1.19345 1.0293 0
M  V30 370 C 35.4123 -1.41069 0.746446 0
M  V30 371 C 35.6123 -1.90078 -0.668776 0
M  V30 372 O 34.6683 -2.0778 -1.4347 0
M  V30 373 C 35.9813 -2.42141 1.78292 0
M  V30 374 C 37.5293 -2.55887 1.80252 0
M  V30 375 C 38.0043 -3.60214 2.8286 0
M  V30 376 N 39.4953 -3.67711 2.81679 0
M  V30 377 C 40.2303 -4.48128 3.57727 0
M  V30 378 N 39.7263 -5.32248 4.43491 0
M  V30 379 N 41.5193 -4.42782 3.46267 0
M  V30 380 H 33.6703 -0.858536 1.94275 0
M  V30 381 H 35.9333 -0.439541 0.839945 0
M  V30 382 H 35.6393 -2.13155 2.79746 0
M  V30 383 H 35.5133 -3.41323 1.60557 0
M  V30 384 H 37.9003 -2.84196 0.794757 0
M  V30 385 H 37.9813 -1.56858 2.02062 0
M  V30 386 H 37.6253 -3.32647 3.83807 0
M  V30 387 H 37.5553 -4.58895 2.58307 0
M  V30 388 H 40.0463 -3.07634 2.19476 0
M  V30 389 H 40.3593 -5.90729 4.98256 0
M  V30 390 H 38.7043 -5.31707 4.47564 0
M  V30 391 H 41.8953 -3.76107 2.78677 0
M  V30 392 H 42.0683 -5.05215 4.05785 0
M  V30 393 N 35.4744 -0.807222 -1.35358 0
M  V30 394 C 36.8904 -0.491038 -1.51858 0
M  V30 395 C 37.0904 0.987648 -1.75635 0
M  V30 396 O 36.1464 1.77265 -1.79815 0
M  V30 397 C 37.4594 -1.33695 -2.69344 0
M  V30 398 C 39.0074 -1.33246 -2.83222 0
M  V30 399 C 39.4824 -2.1625 -4.03733 0
M  V30 400 N 40.9734 -2.1379 -4.10911 0
M  V30 401 C 41.7084 -2.74772 -5.03277 0
M  V30 402 N 41.2044 -3.44684 -6.0097 0
M  V30 403 N 42.9974 -2.6441 -4.96028 0
M  V30 404 H 35.1484 -1.76485 -1.18181 0
M  V30 405 H 37.4114 -0.751199 -0.578276 0
M  V30 406 H 37.1174 -2.38634 -2.58354 0
M  V30 407 H 36.9914 -0.990618 -3.6396 0
M  V30 408 H 39.3784 -0.290911 -2.93663 0
M  V30 409 H 39.4594 -1.71866 -1.89461 0
M  V30 410 H 39.1034 -3.20445 -3.94052 0
M  V30 411 H 39.0334 -1.74989 -4.96675 0
M  V30 412 H 41.5244 -1.62923 -3.40976 0
M  V30 413 H 41.8374 -3.88501 -6.68047 0
M  V30 414 H 40.1824 -3.48788 -6.01142 0
M  V30 415 H 43.3734 -2.0938 -4.18662 0
M  V30 416 H 43.5464 -3.12225 -5.6782 0
M  V30 417 N 36.9525 1.47285 -0.560781 0
M  V30 418 C 37.8995 2.30058 0.18491 0
M  V30 419 C 38.8695 1.39281 0.904986 0
M  V30 420 O 40.0545 1.68241 0.899979 0
M  V30 421 C 37.1945 3.23317 1.20666 0
M  V30 422 C 36.3075 4.29186 0.492285 0
M  V30 423 C 35.4425 5.09592 1.49964 0
M  V30 424 C 34.4815 6.07232 0.770439 0
M  V30 425 N 33.6185 6.80584 1.72479 0
M  V30 426 H 38.4585 2.93302 -0.527048 0
M  V30 427 H 35.9955 1.44568 -0.271738 0
M  V30 428 H 37.9535 3.75811 1.81168 0
M  V30 429 H 36.5835 2.61929 1.88661 0
M  V30 430 H 35.6355 3.7972 -0.227333 0
M  V30 431 H 36.9475 4.98738 -0.0787929 0
M  V30 432 H 36.1015 5.66254 2.17809 0
M  V30 433 H 34.8405 4.3995 2.10464 0
M  V30 434 H 33.8455 5.49745 0.0780846 0
M  V30 435 H 35.0705 6.78884 0.171134 0
M  V30 436 H 33.0165 6.1367 2.3183 0
M  V30 437 H 32.9335 7.46319 1.20596 0
M  V30 438 H 34.2015 7.41818 2.39428 0
M  V30 439 N 38.4306 0.297415 1.54768 0
M  V30 440 C 39.3626 -0.613881 2.20826 0
M  V30 441 C 40.3756 -1.10032 1.19987 0
M  V30 442 O 41.5646 -1.01839 1.46598 0
M  V30 443 C 38.6646 -1.852 2.83821 0
M  V30 444 C 37.8376 -1.50865 4.10559 0
M  V30 445 C 36.8966 -2.60154 4.57391 0
M  V30 446 O 35.9226 -2.25398 5.2267 0
M  V30 447 N 37.1246 -3.90629 4.29406 0
M  V30 448 H 39.8896 -0.048389 2.99661 0
M  V30 449 H 37.4506 0.11946 1.61459 0
M  V30 450 H 39.4426 -2.57652 3.12086 0
M  V30 451 H 38.0126 -2.32597 2.08847 0
M  V30 452 H 37.2326 -0.616925 3.89343 0
M  V30 453 H 38.5206 -1.25458 4.9309 0
M  V30 454 H 37.9186 -4.21677 3.77101 0
M  V30 455 H 36.4756 -4.59391 4.62388 0
M  V30 456 N 39.9087 -1.5758 0.0250728 0
M  V30 457 C 40.8187 -2.1343 -0.973905 0
M  V30 458 C 41.8347 -1.08556 -1.35984 0
M  V30 459 O 43.0107 -1.40592 -1.44207 0
M  V30 460 C 40.0757 -2.64703 -2.23904 0
M  V30 461 C 39.1367 -3.84276 -1.91391 0
M  V30 462 C 38.3697 -4.33095 -3.11873 0
M  V30 463 O 38.5927 -3.81107 -4.24398 0
M  V30 464 O 37.5267 -5.24984 -2.94406 0
M  V30 465 H 41.3527 -2.99057 -0.529036 0
M  V30 466 H 38.9377 -1.48118 -0.195288 0
M  V30 467 H 40.8197 -2.97769 -2.98181 0
M  V30 468 H 39.4947 -1.82161 -2.6758 0
M  V30 469 H 38.4017 -3.56143 -1.14511 0
M  V30 470 H 39.7347 -4.67968 -1.52534 0
M  V30 471 N 41.3868 0.248026 -1.55636 0
M  V30 472 C 42.3168 1.31079 -1.93237 0
M  V30 473 C 43.2978 1.50264 -0.797174 0
M  V30 474 O 44.4828 1.62891 -1.05737 0
M  V30 475 C 41.6128 2.66575 -2.22609 0
M  V30 476 C 40.5668 2.62087 -3.3837 0
M  V30 477 C 39.8928 4.01369 -3.53281 0
M  V30 478 C 41.1928 2.19171 -4.7409 0
M  V30 479 H 42.8868 0.998556 -2.82257 0
M  V30 480 H 40.4328 0.47891 -1.35803 0
M  V30 481 H 42.3858 3.41057 -2.47503 0
M  V30 482 H 41.1098 2.99432 -1.30414 0
M  V30 483 H 39.7688 1.90063 -3.13483 0
M  V30 484 H 39.4168 4.31489 -2.58508 0
M  V30 485 H 39.1168 3.99254 -4.31127 0
M  V30 486 H 40.6408 4.77552 -3.80495 0
M  V30 487 H 42.0548 2.83384 -4.98363 0
M  V30 488 H 40.4518 2.2817 -5.5503 0
M  V30 489 H 41.5218 1.14336 -4.71227 0
M  V30 490 N 42.8649 1.48995 0.513639 0
M  V30 491 C 43.7949 1.67636 1.62544 0
M  V30 492 C 44.7759 0.525087 1.61793 0
M  V30 493 O 45.9609 0.759502 1.78732 0
M  V30 494 C 43.0909 1.73114 3.01079 0
M  V30 495 C 42.0449 2.87905 3.16693 0
M  V30 496 C 41.3709 2.78486 4.56453 0
M  V30 497 C 42.6709 4.29005 2.97913 0
M  V30 498 H 44.3649 2.60716 1.47198 0
M  V30 499 H 41.9109 1.25465 0.706714 0
M  V30 500 H 43.8639 1.84742 3.78746 0
M  V30 501 H 42.5879 0.766241 3.17484 0
M  V30 502 H 41.2469 2.75859 2.41448 0
M  V30 503 H 40.8949 1.7993 4.69717 0
M  V30 504 H 40.5949 3.55523 4.67843 0
M  V30 505 H 42.1189 2.92104 5.36197 0
M  V30 506 H 43.5329 4.41798 3.65359 0
M  V30 507 H 41.9299 5.07166 3.20785 0
M  V30 508 H 42.9999 4.44329 1.94165 0
M  V30 509 N 44.343 -0.763751 1.37857 0
M  V30 510 C 45.589 -1.52483 1.33704 0
M  V30 511 C 45.922 -1.94051 -0.0759612 0
M  V30 512 O 45.197 -1.64675 -1.03501 0
M  V30 513 C 45.48 -2.78441 2.28348 0
M  V30 514 C 45.333 -2.43075 3.78463 0
M  V30 515 C 46.652 -3.80415 2.21298 0
M  V30 516 H 43.771 -0.553169 0.487005 0
M  V30 517 H 46.413 -0.875562 1.68624 0
M  V30 518 H 44.563 -3.33842 1.987 0
M  V30 519 H 46.235 -1.93527 4.18742 0
M  V30 520 H 44.478 -1.75666 3.96641 0
M  V30 521 H 45.149 -3.33149 4.40132 0
M  V30 522 H 47.625 -3.34527 2.47449 0
M  V30 523 H 46.501 -4.66257 2.89647 0
M  V30 524 H 46.762 -4.25262 1.20849 0
M  V30 525 N 45.8211 -1.22559 -0.990812 0
M  V30 526 C 46.7311 -1.01394 -2.11557 0
M  V30 527 C 47.7471 0.0383962 -1.73958 0
M  V30 528 O 48.9231 -0.154787 -2.00804 0
M  V30 529 C 45.9881 -0.596569 -3.41529 0
M  V30 530 C 45.0491 -1.72276 -3.93217 0
M  V30 531 C 44.2821 -1.32521 -5.16985 0
M  V30 532 O 44.5051 -0.204909 -5.70032 0
M  V30 533 O 43.4391 -2.14247 -5.62478 0
M  V30 534 H 47.2651 -1.95633 -2.32296 0
M  V30 535 H 44.8501 -1.01172 -1.0993 0
M  V30 536 H 46.7321 -0.374263 -4.19735 0
M  V30 537 H 45.4071 0.316939 -3.22145 0
M  V30 538 H 44.3141 -1.99961 -3.16174 0
M  V30 539 H 45.6471 -2.61421 -4.17037 0
M  V30 540 N 47.2992 1.18797 -1.03562 0
M  V30 541 C 48.5482 1.87978 -0.731235 0
M  V30 542 C 48.8612 1.80911 0.743671 0
M  V30 543 O 50.0672 2.45407 1.16137 0
M  V30 544 C 48.5232 3.3721 -1.25768 0
M  V30 545 C 48.1312 3.52818 -2.76085 0
M  V30 546 C 49.8752 4.11825 -1.0296 0
M  V30 547 C 47.7822 4.9598 -3.22114 0
M  V30 548 H 46.7122 0.704063 -0.269835 0
M  V30 549 H 49.3632 1.34266 -1.25079 0
M  V30 550 H 47.7452 3.90359 -0.666011 0
M  V30 551 H 48.9192 3.09965 -3.40966 0
M  V30 552 H 47.2342 2.91602 -2.97249 0
M  V30 553 H 49.8312 5.17411 -1.34869 0
M  V30 554 H 50.1742 4.16287 0.0333546 0
M  V30 555 H 50.7072 3.64833 -1.58562 0
M  V30 556 H 47.4462 4.96684 -4.27768 0
M  V30 557 H 46.9662 5.39569 -2.61965 0
M  V30 558 H 48.6452 5.6467 -3.15844 0
M  V30 559 N 48.7773 0.814389 1.34928 0
M  V30 560 C 49.7093 0.187834 2.28429 0
M  V30 561 C 50.7223 -0.617374 1.5064 0
M  V30 562 O 51.9113 -0.448454 1.72775 0
M  V30 563 C 49.0113 -0.755962 3.30361 0
M  V30 564 C 48.1843 0.00456686 4.374 0
M  V30 565 C 47.2433 -0.858876 5.19143 0
M  V30 566 O 46.2693 -0.306968 5.68372 0
M  V30 567 N 47.4713 -2.17988 5.38016 0
M  V30 568 H 50.2363 0.991105 2.82838 0
M  V30 569 H 47.7973 0.670561 1.4736 0
M  V30 570 H 49.7893 -1.338 3.81942 0
M  V30 571 H 48.3593 -1.46001 2.7641 0
M  V30 572 H 47.5793 0.767865 3.86649 0
M  V30 573 H 48.8673 0.528422 5.06049 0
M  V30 574 H 48.2653 -2.65212 4.99679 0
M  V30 575 H 46.8223 -2.71098 5.92747 0
M  V30 576 N 50.2554 -1.46986 0.568584 0
M  V30 577 C 51.6714 -1.57946 0.229189 0
M  V30 578 C 51.8714 -1.56567 -1.26843 0
M  V30 579 O 50.9274 -1.47511 -2.04931 0
M  V30 580 C 52.2404 -2.87963 0.865909 0
M  V30 581 C 53.7884 -3.01568 0.838188 0
M  V30 582 C 54.2634 -4.34301 1.45419 0
M  V30 583 N 55.7544 -4.40965 1.41788 0
M  V30 584 C 56.4894 -5.42256 1.86403 0
M  V30 585 N 55.9854 -6.50297 2.38926 0
M  V30 586 N 57.7784 -5.3337 1.77405 0
M  V30 587 H 49.9294 -1.46126 1.54146 0
M  V30 588 H 52.1924 -0.696156 0.643484 0
M  V30 589 H 51.8984 -2.94742 1.91886 0
M  V30 590 H 51.7724 -3.75423 0.365687 0
M  V30 591 H 54.1594 -2.94379 -0.206106 0
M  V30 592 H 54.2404 -2.1562 1.37629 0
M  V30 593 H 53.8844 -4.42247 2.49761 0
M  V30 594 H 53.8144 -5.19 0.891435 0
M  V30 595 H 56.3054 -3.63484 1.03381 0
M  V30 596 H 56.6184 -7.23777 2.70863 0
M  V30 597 H 54.9634 -6.51155 2.42944 0
M  V30 598 H 58.1544 -4.47865 1.3614 0
M  V30 599 H 58.3274 -6.12169 2.12492 0
M  V30 600 N 51.7335 -0.305618 -1.54608 0
M  V30 601 C 52.6635 0.561482 -2.26649 0
M  V30 602 C 53.6445 1.13415 -1.26772 0
M  V30 603 O 54.8295 1.16262 -1.55553 0
M  V30 604 C 51.9595 1.73122 -3.01075 0
M  V30 605 C 50.9135 1.2887 -4.08138 0
M  V30 606 C 50.2395 2.54396 -4.70305 0
M  V30 607 C 51.5395 0.416578 -5.20636 0
M  V30 608 H 53.2335 -0.0393902 -2.99374 0
M  V30 609 H 50.7795 -0.020385 -1.43986 0
M  V30 610 H 52.7325 2.34396 -3.50195 0
M  V30 611 H 51.4565 2.3584 -2.25936 0
M  V30 612 H 50.1155 0.698991 -3.59875 0
M  V30 613 H 49.7635 3.15439 -3.918 0
M  V30 614 H 49.4635 2.25486 -5.42614 0
M  V30 615 H 50.9875 3.16464 -5.2219 0
M  V30 616 H 52.4015 0.935116 -5.65622 0
M  V30 617 H 50.7985 0.221046 -5.99693 0
M  V30 618 H 51.8685 -0.557162 -4.81688 0
M  V30 619 N 53.2116 1.57565 -0.0334293 0
M  V30 620 C 54.6276 1.56297 0.322997 0
M  V30 621 C 54.8276 1.03945 1.7262 0
M  V30 622 O 53.8836 0.688109 2.42943 0
M  V30 623 C 55.1966 3.00232 0.167664 0
M  V30 624 C 56.7446 3.12078 0.240107 0
M  V30 625 C 57.2196 4.57859 0.113513 0
M  V30 626 N 58.7106 4.62887 0.170359 0
M  V30 627 C 59.4456 5.73319 0.0962517 0
M  V30 628 N 58.9416 6.92794 -0.0291881 0
M  V30 629 N 60.7346 5.61898 0.150551 0
M  V30 630 H 52.8856 1.89923 -0.950956 0
M  V30 631 H 55.1486 0.873824 -0.367608 0
M  V30 632 H 54.8546 3.42501 -0.799102 0
M  V30 633 H 54.7286 3.654 0.936083 0
M  V30 634 H 57.1156 2.69718 1.19733 0
M  V30 635 H 57.1966 2.49623 -0.558763 0
M  V30 636 H 56.8406 5.009 -0.840314 0
M  V30 637 H 56.7706 5.18299 0.931302 0
M  V30 638 H 59.2616 3.76954 0.26728 0
M  V30 639 H 59.5746 7.7276 -0.0789252 0
M  V30 640 H 57.9196 6.94971 -0.0640299 0
M  V30 641 H 61.1106 4.67448 0.246981 0
M  V30 642 H 61.2836 6.47938 0.0893365 0
M  V30 643 N 54.6897 -0.239769 1.55765 0
M  V30 644 C 55.5997 -1.31831 1.94056 0
M  V30 645 C 56.6157 -1.52275 0.841925 0
M  V30 646 O 57.7917 -1.65759 1.14394 0
M  V30 647 C 54.8567 -2.65156 2.23368 0
M  V30 648 C 53.9177 -2.53173 3.46701 0
M  V30 649 C 53.1507 -3.8014 3.74606 0
M  V30 650 O 53.3737 -4.82343 3.04469 0
M  V30 651 O 52.3077 -3.78344 4.68123 0
M  V30 652 H 56.1337 -1.02347 2.85935 0
M  V30 653 H 53.7187 -0.441123 1.42739 0
M  V30 654 H 55.6007 -3.43929 2.43497 0
M  V30 655 H 54.2757 -2.94358 1.34666 0
M  V30 656 H 53.1827 -1.72662 3.31871 0
M  V30 657 H 54.5157 -2.28915 4.35728 0
M  V30 658 N 56.1678 -1.49265 -0.50573 0
M  V30 659 C 57.0778 -1.68312 -1.63427 0
M  V30 660 C 58.0938 -0.565682 -1.64548 0
M  V30 661 O 59.2698 -0.839801 -1.83055 0
M  V30 662 C 56.3348 -1.74107 -2.99813 0
M  V30 663 C 55.3958 -2.97653 -3.09356 0
M  V30 664 C 54.6288 -3.03163 -4.39236 0
M  V30 665 O 54.8518 -2.16396 -5.27758 0
M  V30 666 O 53.7858 -3.9558 -4.53652 0
M  V30 667 H 57.6118 -2.63907 -1.50289 0
M  V30 668 H 55.1968 -1.32951 -0.681502 0
M  V30 669 H 57.0788 -1.803 -3.80881 0
M  V30 670 H 55.7538 -0.816901 -3.13223 0
M  V30 671 H 54.6608 -2.96981 -2.27493 0
M  V30 672 H 55.9938 -3.89535 -3.00871 0
M  V30 673 N 57.6459 0.756429 -1.3826 0
M  V30 674 C 58.5759 1.88374 -1.37976 0
M  V30 675 C 59.5569 1.68311 -0.246082 0
M  V30 676 O 60.7419 1.88944 -0.44874 0
M  V30 677 C 57.8719 3.25864 -1.20125 0
M  V30 678 C 56.8259 3.60523 -2.30666 0
M  V30 679 C 56.1519 4.9672 -1.97923 0
M  V30 680 C 57.4519 3.65692 -3.72916 0
M  V30 681 H 59.1459 1.88869 -2.32312 0
M  V30 682 H 56.6919 0.907272 -1.11824 0
M  V30 683 H 58.6449 4.0438 -1.18552 0
M  V30 684 H 57.3689 3.25841 -0.222498 0
M  V30 685 H 56.0279 2.84324 -2.3142 0
M  V30 686 H 55.6759 4.93253 -0.985393 0
M  V30 687 H 55.3759 5.20878 -2.71955 0
M  V30 688 H 56.8999 5.77618 -1.97964 0
M  V30 689 H 58.3139 4.34328 -3.74208 0
M  V30 690 H 56.7109 4.01358 -4.4613 0
M  V30 691 H 57.7809 2.65987 -4.05436 0
M  V30 692 N 59.124 1.23083 0.984299 0
M  V30 693 C 60.349 1.088 1.76571 0
M  V30 694 C 60.774 -0.356657 1.84688 0
M  V30 695 O 60.132 -1.25788 1.30565 0
M  V30 696 C 60.18 1.71371 3.17277 0
M  V30 697 O 59.284 0.973213 4.00752 0
M  V30 698 H 58.625 0.381599 0.543395 0
M  V30 699 H 61.155 1.63057 1.23587 0
M  V30 700 H 61.165 1.76449 3.67872 0
M  V30 701 H 59.84 2.76493 3.10684 0
M  V30 702 H 58.417 0.999078 3.59267 0
M  V30 703 N 60.6021 -1.18246 1.0419 0
M  V30 704 C 61.5121 -2.25574 0.644476 0
M  V30 705 C 62.5281 -1.70845 -0.329826 0
M  V30 706 O 63.7041 -2.00554 -0.184443 0
M  V30 707 C 60.7691 -3.46697 0.014877 0
M  V30 708 C 59.8301 -4.16554 1.03834 0
M  V30 709 C 59.0631 -5.31894 0.438692 0
M  V30 710 O 59.2861 -5.65385 -0.754752 0
M  V30 711 O 58.2201 -5.90459 1.168 0
M  V30 712 H 62.0461 -2.61836 1.53869 0
M  V30 713 H 59.6311 -1.25352 0.812854 0
M  V30 714 H 61.5131 -4.20062 -0.335538 0
M  V30 715 H 60.1881 -3.12255 -0.853138 0
M  V30 716 H 59.0951 -3.45251 1.44057 0
M  V30 717 H 60.4281 -4.54998 1.87716 0
M  V30 718 N 62.0802 -0.821533 -1.34494 0
M  V30 719 C 63.0432 -0.247847 -2.27856 0
M  V30 720 C 64.0432 0.573453 -1.50227 0
M  V30 721 O 65.2332 0.389759 -1.69784 0
M  V30 722 C 62.3652 0.652698 -3.34593 0
M  V30 723 H 63.5582 -1.07146 -2.80107 0
M  V30 724 H 61.1112 -0.593291 -1.44602 0
M  V30 725 H 61.8462 1.49943 -2.87555 0
M  V30 726 H 61.6312 0.065292 -3.92046 0
M  V30 727 H 63.1212 1.04793 -4.04238 0
M  V30 728 N 63.5583 1.46682 -0.576371 0
M  V30 729 C 64.4913 2.27243 0.208731 0
M  V30 730 C 65.4693 1.35238 0.902746 0
M  V30 731 O 66.6533 1.64641 0.917904 0
M  V30 732 C 63.7803 3.12802 1.29896 0
M  V30 733 C 62.8263 4.20524 0.711457 0
M  V30 734 S 63.6593 5.33548 -0.456781 0
M  V30 735 C 64.8153 6.22673 0.634798 0
M  V30 736 H 65.0483 2.93484 -0.474838 0
M  V30 737 H 62.5813 1.50069 -0.363118 0
M  V30 738 H 64.5393 3.62661 1.92321 0
M  V30 739 H 63.2003 2.45887 1.95444 0
M  V30 740 H 62.3933 4.80191 1.53076 0
M  V30 741 H 61.9953 3.73645 0.162999 0
M  V30 742 H 64.2873 6.60181 1.52209 0
M  V30 743 H 65.2303 7.0806 0.0750311 0
M  V30 744 H 65.6383 5.56684 0.936092 0
M  V30 745 N 65.0364 0.313813 1.54444 0
M  V30 746 C 66.2614 -0.296681 2.05267 0
M  V30 747 C 66.6864 -1.45757 1.18897 0
M  V30 748 O 66.0444 -1.80239 0.195886 0
M  V30 749 C 66.0924 -0.71831 3.53373 0
M  V30 750 O 65.1964 -1.82175 3.69981 0
M  V30 751 H 64.5374 -0.0554061 0.661684 0
M  V30 752 H 67.0674 0.459387 1.99376 0
M  V30 753 H 67.0774 -1.00364 3.95463 0
M  V30 754 H 65.7524 0.130821 4.15694 0
M  V30 755 H 64.3294 -1.53598 3.39797 0
M  V30 756 N 66.5145 -1.57545 0.0417849 0
M  V30 757 C 67.4245 -2.14451 -0.951213 0
M  V30 758 C 68.4405 -1.09992 -1.34825 0
M  V30 759 O 69.6165 -1.42114 -1.42708 0
M  V30 760 C 66.6815 -2.67063 -2.21084 0
M  V30 761 C 65.7425 -3.86284 -1.87304 0
M  V30 762 C 64.9755 -4.36378 -3.07261 0
M  V30 763 O 65.1985 -3.85587 -4.20332 0
M  V30 764 O 64.1325 -5.28077 -2.88822 0
M  V30 765 H 67.9585 -2.99601 -0.497287 0
M  V30 766 H 65.5435 -1.48317 -0.179567 0
M  V30 767 H 67.4255 -3.00914 -2.95006 0
M  V30 768 H 66.1005 -1.84989 -2.65633 0
M  V30 769 H 65.0075 -3.57338 -1.10727 0
M  V30 770 H 66.3405 -4.6956 -1.47562 0
M  V30 771 N 67.9926 0.231505 -1.5589 0
M  V30 772 C 69.2386 0.95877 -1.78705 0
M  V30 773 C 69.5716 1.8438 -0.609725 0
M  V30 774 O 68.8466 1.90521 0.391426 0
M  V30 775 C 69.1296 1.8062 -3.11526 0
M  V30 776 C 68.9826 0.948328 -4.39689 0
M  V30 777 C 70.3016 2.78585 -3.40703 0
M  V30 778 H 67.4206 0.347129 -0.650131 0
M  V30 779 H 70.0626 0.228259 -1.88624 0
M  V30 780 H 68.2126 2.42902 -3.03201 0
M  V30 781 H 69.8846 0.343016 -4.60023 0
M  V30 782 H 68.1276 0.253314 -4.3306 0
M  V30 783 H 68.7986 1.57543 -5.29041 0
M  V30 784 H 71.2746 2.26439 -3.49091 0
M  V30 785 H 70.1506 3.34988 -4.34826 0
M  V30 786 H 70.4116 3.55825 -2.62375 0
M  V30 787 N 69.4707 1.49531 0.497807 0
M  V30 788 C 70.3807 1.69176 1.62532 0
M  V30 789 C 71.3967 0.5744 1.64246 0
M  V30 790 O 72.5727 0.849497 1.82608 0
M  V30 791 C 69.6377 1.75695 2.98885 0
M  V30 792 C 68.6987 2.9929 3.07773 0
M  V30 793 C 67.9317 3.05488 4.37622 0
M  V30 794 O 68.1547 2.19192 5.26603 0
M  V30 795 O 67.0887 3.9798 4.51548 0
M  V30 796 H 70.9147 2.647 1.48887 0
M  V30 797 H 68.4997 1.3331 0.674441 0
M  V30 798 H 70.3817 1.82317 3.79919 0
M  V30 799 H 69.0567 0.8335 3.12785 0
M  V30 800 H 67.9637 2.98183 2.25915 0
M  V30 801 H 69.2967 3.91125 2.98801 0
M  V30 802 N 70.9488 -0.749086 1.3866 0
M  V30 803 C 72.1968 -1.50535 1.34847 0
M  V30 804 C 72.5178 -1.94909 -0.0595016 0
M  V30 805 O 71.7878 -1.67973 -1.00806 0
M  V30 806 H 70.3678 -0.558395 0.49619 0
M  V30 807 H 73.0298 -0.890165 1.73384 0
M  V30 808 H 72.1258 -2.39413 2.00219 0
M  V30 809 N 72.4269 -1.23603 -0.977757 0
M  V30 810 C 73.3569 -1.04401 -2.0886 0
M  V30 811 C 74.3379 0.0399052 -1.70053 0
M  V30 812 O 75.5229 -0.125246 -1.93796 0
M  V30 813 C 72.6529 -0.637269 -3.41403 0
M  V30 814 C 71.6069 -1.66883 -3.94124 0
M  V30 815 C 70.9329 -1.11745 -5.22893 0
M  V30 816 C 72.2329 -3.06247 -4.23096 0
M  V30 817 H 73.9269 -1.97316 -2.25182 0
M  V30 818 H 71.4729 -0.950096 -1.08209 0
M  V30 819 H 73.4259 -0.48998 -4.18542 0
M  V30 820 H 72.1499 0.327557 -3.24953 0
M  V30 821 H 70.8089 -1.80416 -3.19133 0
M  V30 822 H 70.4569 -0.143527 -5.02795 0
M  V30 823 H 70.1569 -1.80672 -5.59134 0
M  V30 824 H 71.6809 -0.982067 -6.02651 0
M  V30 825 H 73.0949 -2.96001 -4.90975 0
M  V30 826 H 71.4919 -3.72436 -4.70544 0
M  V30 827 H 72.5619 -3.55041 -3.30263 0
M  V30 828 N 73.905 1.17692 -1.04816 0
M  V30 829 C 74.815 2.25229 -0.65643 0
M  V30 830 C 75.831 1.71018 0.320761 0
M  V30 831 O 77.007 2.00649 0.173805 0
M  V30 832 C 74.072 3.46684 -0.0332629 0
M  V30 833 C 73.133 4.15997 -1.06042 0
M  V30 834 C 72.366 5.31654 -0.466893 0
M  V30 835 O 72.589 5.65777 0.724758 0
M  V30 836 O 71.523 5.89831 -1.1993 0
M  V30 837 H 75.349 2.61016 -1.55255 0
M  V30 838 H 72.934 1.24919 -0.81949 0
M  V30 839 H 74.816 4.20234 0.313256 0
M  V30 840 H 73.491 3.12703 0.836566 0
M  V30 841 H 72.398 3.44482 -1.45886 0
M  V30 842 H 73.731 4.53996 -1.90127 0
M  V30 843 N 75.3831 0.828654 1.34056 0
M  V30 844 C 76.3461 0.259927 2.27721 0
M  V30 845 C 77.3461 -0.565478 1.50529 0
M  V30 846 O 78.5361 -0.38075 1.69988 0
M  V30 847 C 75.6681 -0.634944 3.34935 0
M  V30 848 H 76.8611 1.0863 2.79534 0
M  V30 849 H 74.4141 0.600951 1.44285 0
M  V30 850 H 75.1491 -1.48416 2.88346 0
M  V30 851 H 74.9341 -0.0444999 3.92075 0
M  V30 852 H 76.4241 -1.02648 4.04788 0
M  V30 853 N 76.8612 -1.46375 0.584142 0
M  V30 854 C 77.8092 -2.32042 -0.161047 0
M  V30 855 C 78.8032 -1.44569 -0.882966 0
M  V30 856 O 80.0092 -1.61186 -0.801191 0
M  V30 857 H 76.3842 -0.748659 -0.0708033 0
M  V30 858 H 78.3552 -2.92704 0.580269 0
M  V30 859 C 77.1042 -3.27762 -1.1605 0
M  V30 860 H 76.4272 -3.95051 -0.614419 0
M  V30 861 H 77.8672 -3.90481 -1.65228 0
M  V30 862 C 76.3262 -2.53218 -2.22221 0
M  V30 863 O 76.8562 -2.29628 -3.29597 0
M  V30 864 N 75.0622 -2.13756 -1.96868 0
M  V30 865 H 74.6092 -2.33142 -1.09557 0
M  V30 866 H 74.5672 -1.642 -2.68115 0
M  V30 867 N 78.3393 -0.321999 -1.54275 0
M  V30 868 C 79.2493 0.553631 -2.27974 0
M  V30 869 C 80.2653 1.13054 -1.32268 0
M  V30 870 O 81.4413 1.15084 -1.6528 0
M  V30 871 C 78.5063 1.69927 -3.02201 0
M  V30 872 C 77.5673 1.15433 -4.1349 0
M  V30 873 C 76.8003 2.24537 -4.84168 0
M  V30 874 O 77.0233 3.44852 -4.5435 0
M  V30 875 O 75.9573 1.90044 -5.7111 0
M  V30 876 H 79.7833 -0.0448345 -3.03667 0
M  V30 877 H 77.3683 -0.0877418 -1.49142 0
M  V30 878 H 79.2503 2.3663 -3.48689 0
M  V30 879 H 77.9253 2.28395 -2.29385 0
M  V30 880 H 76.8323 0.452436 -3.71354 0
M  V30 881 H 78.1653 0.614805 -4.88345 0
M  V30 882 N 79.8174 1.5752 -0.0501392 0
M  V30 883 C 81.0654 1.9227 0.622642 0
M  V30 884 C 81.3864 0.929083 1.71444 0
M  V30 885 O 80.6564 -0.0262186 1.95882 0
M  V30 886 H 79.2364 0.709739 0.232981 0
M  V30 887 H 81.8984 1.94628 -0.102898 0
M  V30 888 H 80.9944 2.93479 1.06191 0
M  V30 889 N 81.2955 -0.223234 1.56011 0
M  V30 890 C 82.5205 -0.968978 1.83373 0
M  V30 891 C 82.9455 -1.77227 0.630254 0
M  V30 892 O 82.3035 -1.76345 -0.420959 0
M  V30 893 C 82.3515 -1.86363 3.08709 0
M  V30 894 O 81.4555 -2.95873 2.87285 0
M  V30 895 H 80.7965 -0.274461 0.604622 0
M  V30 896 H 83.3265 -0.237056 2.03222 0
M  V30 897 H 83.3365 -2.27376 3.38768 0
M  V30 898 H 82.0115 -1.27319 3.95933 0
M  V30 899 H 80.5885 -2.58818 2.68454 0
M  V30 900 N 82.7736 -1.49793 -0.48987 0
M  V30 901 C 83.7206 -1.67281 -1.59014 0
M  V30 902 C 84.6906 -0.514177 -1.57941 0
M  V30 903 O 85.8756 -0.742533 -1.75759 0
M  V30 904 C 83.0156 -1.75569 -2.97102 0
M  V30 905 C 82.1286 -3.0281 -3.08107 0
M  V30 906 C 81.2636 -3.02008 -4.36995 0
M  V30 907 C 80.3026 -4.23782 -4.41673 0
M  V30 908 N 79.4396 -4.20826 -5.62005 0
M  V30 909 H 84.2796 -2.61224 -1.43409 0
M  V30 910 H 81.8166 -1.29508 -0.697565 0
M  V30 911 H 83.7746 -1.78354 -3.77155 0
M  V30 912 H 82.4046 -0.850827 -3.11385 0
M  V30 913 H 81.4566 -3.09584 -2.21047 0
M  V30 914 H 82.7686 -3.92801 -3.07423 0
M  V30 915 H 81.9226 -3.03418 -5.25378 0
M  V30 916 H 80.6616 -2.09815 -4.4026 0
M  V30 917 H 79.6666 -4.22604 -3.5169 0
M  V30 918 H 80.8916 -5.17181 -4.40115 0
M  V30 919 H 78.8376 -3.31476 -5.66091 0
M  V30 920 H 78.7546 -5.04564 -5.62984 0
M  V30 921 H 80.0226 -4.26355 -6.52565 0
M  V30 922 N 84.2517 0.741722 -1.39055 0
M  V30 923 C 85.4797 1.53098 -1.39171 0
M  V30 924 C 85.8947 1.88794 0.0155099 0
M  V30 925 O 85.2517 1.53626 0.985159 0
M  V30 926 C 85.3027 2.82274 -2.2584 0
M  V30 927 O 85.0237 2.48097 -3.61081 0
M  V30 928 C 86.5247 3.76343 -2.34266 0
M  V30 929 H 83.7447 0.473335 -0.4756 0
M  V30 930 H 86.2887 0.917045 -1.82785 0
M  V30 931 H 84.4437 3.40015 -1.85656 0
M  V30 932 H 84.8577 3.31029 -4.06842 0
M  V30 933 H 86.3317 4.63898 -2.9917 0
M  V30 934 H 86.8087 4.17619 -1.35982 0
M  V30 935 H 87.4147 3.24523 -2.74891 0
M  V30 936 N 85.7298 1.2412 0.971189 0
M  V30 937 C 86.6598 1.05508 2.08304 0
M  V30 938 C 87.6408 -0.0308864 1.70072 0
M  V30 939 O 88.8258 0.135521 1.93727 0
M  V30 940 C 85.9558 0.655365 3.4106 0
M  V30 941 C 84.9098 1.68971 3.93234 0
M  V30 942 C 84.2358 1.14516 5.22293 0
M  V30 943 C 85.5358 3.08487 4.21465 0
M  V30 944 H 87.2298 1.98507 2.24132 0
M  V30 945 H 84.7758 0.955821 1.07704 0
M  V30 946 H 86.7288 0.51217 4.18276 0
M  V30 947 H 85.4528 -0.31032 3.25122 0
M  V30 948 H 84.1118 1.82106 3.18171 0
M  V30 949 H 83.7598 0.170189 5.02712 0
M  V30 950 H 83.4598 1.83635 5.58168 0
M  V30 951 H 84.9838 1.01401 6.02121 0
M  V30 952 H 86.3978 2.98601 4.89398 0
M  V30 953 H 84.7948 3.74926 4.68562 0
M  V30 954 H 85.8648 3.56787 3.28376 0
M  V30 955 N 87.2079 -1.17134 1.05439 0
M  V30 956 C 88.1399 -2.2078 0.615539 0
M  V30 957 C 89.1529 -1.59584 -0.322001 0
M  V30 958 O 90.3419 -1.78133 -0.114344 0
M  V30 959 C 87.4419 -3.38691 -0.118938 0
M  V30 960 C 86.6149 -4.29454 0.829924 0
M  V30 961 C 85.6739 -5.26024 0.136258 0
M  V30 962 O 84.6999 -5.63952 0.77115 0
M  V30 963 N 85.9019 -5.69487 -1.1254 0
M  V30 964 H 88.6669 -2.59052 1.50705 0
M  V30 965 H 86.2279 -1.32058 0.936603 0
M  V30 966 H 88.2199 -4.00329 -0.593179 0
M  V30 967 H 86.7899 -2.98996 -0.91215 0
M  V30 968 H 86.0099 -3.65211 1.48373 0
M  V30 969 H 87.2979 -4.86984 1.47392 0
M  V30 970 H 86.6959 -5.4075 -1.6615 0
M  V30 971 H 85.2529 -6.33257 -1.54366 0
M  V30 972 N 88.686 -0.835752 -1.33615 0
M  V30 973 C 90.102 -0.523139 -1.50783 0
M  V30 974 C 90.302 0.950171 -1.77691 0
M  V30 975 O 89.358 1.73411 -1.83534 0
M  V30 976 C 90.671 -1.39378 -2.66448 0
M  V30 977 C 92.219 -1.39223 -2.80332 0
M  V30 978 C 92.694 -2.24765 -3.99055 0
M  V30 979 N 94.185 -2.22458 -4.06284 0
M  V30 980 C 94.92 -2.85386 -4.97336 0
M  V30 981 N 94.416 -3.57354 -5.93523 0
M  V30 982 N 96.209 -2.74872 -4.90308 0
M  V30 983 H 88.36 -1.78952 -1.14411 0
M  V30 984 H 90.623 -0.763297 -0.562212 0
M  V30 985 H 90.329 -2.44061 -2.53234 0
M  V30 986 H 90.203 -1.0676 -3.61776 0
M  V30 987 H 92.59 -0.353136 -2.92979 0
M  V30 988 H 92.671 -1.75846 -1.85773 0
M  V30 989 H 92.315 -3.28732 -3.87167 0
M  V30 990 H 92.245 -1.85485 -4.92852 0
M  V30 991 H 94.736 -1.70119 -3.37443 0
M  V30 992 H 95.049 -4.02584 -6.59656 0
M  V30 993 H 93.394 -3.61461 -5.93608 0
M  V30 994 H 96.585 -2.18213 -4.14126 0
M  V30 995 H 96.758 -3.24199 -5.61069 0
M  V30 996 N 90.1641 1.46063 -0.591896 0
M  V30 997 C 91.1121 2.32124 0.148739 0
M  V30 998 C 92.1061 1.45035 0.875286 0
M  V30 999 O 93.3121 1.61609 0.792632 0
M  V30 1000 H 89.6871 0.749024 0.066832 0
M  V30 1001 H 91.6581 2.92392 -0.595783 0
M  V30 1002 C 90.4071 3.28373 1.1431 0
M  V30 1003 H 89.7301 3.95371 0.59346 0
M  V30 1004 H 91.1701 3.91352 1.63155 0
M  V30 1005 C 89.6291 2.54393 2.20875 0
M  V30 1006 O 90.1591 2.31373 3.28374 0
M  V30 1007 N 88.3651 2.14797 1.95731 0
M  V30 1008 H 87.9121 2.33719 1.08319 0
M  V30 1009 H 87.8701 1.65619 2.67241 0
M  V30 1010 N 91.6422 0.330177 1.54103 0
M  V30 1011 C 93.0582 -0.0222371 1.59585 0
M  V30 1012 C 93.2582 -1.49902 1.34654 0
M  V30 1013 O 92.3142 -2.25592 1.13421 0
M  V30 1014 C 93.6272 0.401932 2.98002 0
M  V30 1015 C 95.1752 0.353145 3.11001 0
M  V30 1016 C 95.6502 0.752576 4.51775 0
M  V30 1017 N 97.1412 0.706239 4.57784 0
M  V30 1018 C 97.8762 0.987417 5.64834 0
M  V30 1019 N 97.3722 1.33607 6.79795 0
M  V30 1020 N 99.1652 0.91254 5.54643 0
M  V30 1021 H 91.3162 1.29228 1.68564 0
M  V30 1022 H 93.5792 0.525906 0.78875 0
M  V30 1023 H 93.2852 1.4311 3.21267 0
M  V30 1024 H 93.1592 -0.229699 3.765 0
M  V30 1025 H 95.5462 -0.666822 2.87467 0
M  V30 1026 H 95.6272 1.0198 2.34593 0
M  V30 1027 H 95.2712 1.77049 4.76042 0
M  V30 1028 H 95.2012 0.0635409 5.26562 0
M  V30 1029 H 97.6922 0.44889 3.75224 0
M  V30 1030 H 98.0052 1.53582 7.57385 0
M  V30 1031 H 96.3502 1.37439 6.81275 0
M  V30 1032 H 99.5412 0.639601 4.6371 0
M  V30 1033 H 99.7142 1.13503 6.37982 0
M  V30 1034 N 93.1203 -1.57491 0.0584922 0
M  V30 1035 C 94.0673 -2.11958 -0.913376 0
M  V30 1036 C 95.0373 -1.02875 -1.30407 0
M  V30 1037 O 96.2223 -1.30464 -1.39226 0
M  V30 1038 C 93.3623 -2.67497 -2.18035 0
M  V30 1039 C 92.4753 -3.90691 -1.84349 0
M  V30 1040 C 91.6103 -4.3452 -3.05559 0
M  V30 1041 C 90.6493 -5.50395 -2.67827 0
M  V30 1042 N 89.7863 -5.89244 -3.81754 0
M  V30 1043 H 94.6263 -2.94704 -0.442017 0
M  V30 1044 H 92.1633 -1.45643 -0.206545 0
M  V30 1045 H 94.1213 -2.978 -2.92183 0
M  V30 1046 H 92.7513 -1.87537 -2.62735 0
M  V30 1047 H 91.8033 -3.66934 -1.00319 0
M  V30 1048 H 93.1153 -4.7489 -1.5258 0
M  V30 1049 H 92.2693 -4.66414 -3.87998 0
M  V30 1050 H 91.0083 -3.49147 -3.40511 0
M  V30 1051 H 90.0133 -5.18165 -1.83806 0
M  V30 1052 H 91.2383 -6.3749 -2.34059 0
M  V30 1053 H 89.1843 -5.06823 -4.16493 0
M  V30 1054 H 89.1013 -6.68151 -3.53708 0
M  V30 1055 H 90.3693 -6.25756 -4.64811 0
M  V30 1056 N 94.5984 0.214957 -1.56127 0
M  V30 1057 C 95.5314 1.29382 -1.87977 0
M  V30 1058 C 96.5094 1.44897 -0.737807 0
M  V30 1059 O 97.6934 1.60605 -0.986833 0
M  V30 1060 C 94.8204 2.66325 -2.09258 0
M  V30 1061 C 93.8664 2.67789 -3.31951 0
M  V30 1062 S 94.6994 2.21198 -4.8768 0
M  V30 1063 C 95.8554 3.60003 -5.12004 0
M  V30 1064 H 96.0884 1.02173 -2.79192 0
M  V30 1065 H 93.6214 0.417516 -1.48648 0
M  V30 1066 H 95.5794 3.45162 -2.22201 0
M  V30 1067 H 94.2404 2.90755 -1.18829 0
M  V30 1068 H 93.4334 3.68436 -3.43906 0
M  V30 1069 H 93.0354 1.9702 -3.17898 0
M  V30 1070 H 95.3274 4.55739 -5.01307 0
M  V30 1071 H 96.2704 3.52959 -6.13861 0
M  V30 1072 H 96.6784 3.53996 -4.39712 0
M  V30 1073 N 96.0765 1.50051 0.48192 0
M  V30 1074 C 97.0395 1.67584 1.5636 0
M  V30 1075 C 98.0395 0.546894 1.51214 0
M  V30 1076 O 99.2295 0.813725 1.54026 0
M  V30 1077 C 96.3615 1.691 2.96003 0
M  V30 1078 H 97.5545 2.64078 1.42136 0
M  V30 1079 H 95.1075 1.39369 0.707533 0
M  V30 1080 H 95.8425 0.742589 3.15684 0
M  V30 1081 H 95.6275 2.51105 3.01146 0
M  V30 1082 H 97.1175 1.84656 3.74556 0
M  V30 1083 N 97.5546 -0.734337 1.39446 0
M  V30 1084 C 98.4876 -1.85715 1.32609 0
M  V30 1085 C 99.4656 -1.6137 0.199636 0
M  V30 1086 O 100.65 -1.84626 0.380195 0
M  V30 1087 C 97.7766 -3.21709 1.05929 0
M  V30 1088 C 96.8226 -3.64913 2.20773 0
M  V30 1089 S 97.6556 -3.74203 3.83056 0
M  V30 1090 C 98.8116 -5.12986 3.58603 0
M  V30 1091 H 99.0446 -1.91232 2.27635 0
M  V30 1092 H 96.5776 -0.899263 1.25509 0
M  V30 1093 H 98.5356 -4.00236 0.912203 0
M  V30 1094 H 97.1966 -3.13848 0.125883 0
M  V30 1095 H 96.3896 -4.63606 1.97699 0
M  V30 1096 H 95.9916 -2.93593 2.31688 0
M  V30 1097 H 98.2836 -5.99339 3.15909 0
M  V30 1098 H 99.2266 -5.41088 4.5676 0
M  V30 1099 H 99.6346 -4.82694 2.9269 0
M  V30 1100 N 99.0327 -1.24633 -0.964593 0
M  V30 1101 C 100.281 -1.08573 -1.70459 0
M  V30 1102 C 100.602 0.375655 -1.91347 0
M  V30 1103 O 99.8717 1.26779 -1.49345 0
M  V30 1104 H 98.4517 -0.398784 -0.631649 0
M  V30 1105 H 101.114 -1.56601 -1.16026 0
M  V30 1106 H 100.21 -1.58623 -2.68785 0
M  V30 1107 N 100.511 1.16574 -1.06058 0
M  V30 1108 C 101.927 1.3904 -0.783585 0
M  V30 1109 C 102.127 1.91784 0.618145 0
M  V30 1110 O 101.183 2.11511 1.37911 0
M  V30 1111 C 102.496 2.37329 -1.84649 0
M  V30 1112 C 104.044 2.51018 -1.86973 0
M  V30 1113 C 104.519 3.52588 -2.92311 0
M  V30 1114 N 106.01 3.60113 -2.91329 0
M  V30 1115 C 106.745 4.38486 -3.69482 0
M  V30 1116 N 106.241 5.20302 -4.57447 0
M  V30 1117 N 108.034 4.33446 -3.57885 0
M  V30 1118 H 100.185 0.806725 -1.96483 0
M  V30 1119 H 102.448 0.417117 -0.851303 0
M  V30 1120 H 102.154 2.05663 -2.85299 0
M  V30 1121 H 102.028 3.36946 -1.6955 0
M  V30 1122 H 104.415 2.81989 -0.869827 0
M  V30 1123 H 104.496 1.51445 -2.0615 0
M  V30 1124 H 104.14 3.22354 -3.92492 0
M  V30 1125 H 104.07 4.51886 -2.70383 0
M  V30 1126 H 106.561 3.01707 -2.27555 0
M  V30 1127 H 106.874 5.77311 -5.13743 0
M  V30 1128 H 105.219 5.19653 -4.61503 0
M  V30 1129 H 108.41 3.68586 -2.88551 0
M  V30 1130 H 108.583 4.94279 -4.19037 0
M  V30 1131 N 101.989 0.842826 1.3317 0
M  V30 1132 C 102.936 0.276885 2.29133 0
M  V30 1133 C 103.906 -0.609527 1.54512 0
M  V30 1134 O 105.091 -0.546955 1.82792 0
M  V30 1135 C 102.231 -0.538707 3.40869 0
M  V30 1136 C 101.344 0.372169 4.30394 0
M  V30 1137 C 100.479 -0.454908 5.29249 0
M  V30 1138 C 99.5179 0.45411 6.10413 0
M  V30 1139 N 98.6549 -0.335075 7.013 0
M  V30 1140 H 103.495 1.10052 2.76934 0
M  V30 1141 H 101.032 0.554161 1.36262 0
M  V30 1142 H 102.99 -1.02709 4.0436 0
M  V30 1143 H 101.62 -1.32727 2.9425 0
M  V30 1144 H 100.672 0.97888 3.6759 0
M  V30 1145 H 101.984 1.0703 4.87182 0
M  V30 1146 H 101.138 -1.00695 5.98285 0
M  V30 1147 H 99.8769 -1.18646 4.73048 0
M  V30 1148 H 98.8819 1.01813 5.40291 0
M  V30 1149 H 100.107 1.18409 6.68697 0
M  V30 1150 H 98.0529 -1.04994 6.47543 0
M  V30 1151 H 97.9699 0.304262 7.55387 0
M  V30 1152 H 99.2379 -0.869224 7.74638 0
M  V30 1153 N 103.467 -1.45747 0.599634 0
M  V30 1154 C 104.414 -2.30467 -0.123849 0
M  V30 1155 C 105.384 -1.41632 -0.86774 0
M  V30 1156 O 106.569 -1.70568 -0.855056 0
M  V30 1157 C 103.709 -3.26402 -1.12051 0
M  V30 1158 C 102.822 -4.3034 -0.37832 0
M  V30 1159 C 101.957 -5.13389 -1.364 0
M  V30 1160 C 100.996 -6.09061 -0.609171 0
M  V30 1161 N 100.133 -6.84918 -1.54374 0
M  V30 1162 H 104.973 -2.91802 0.604627 0
M  V30 1163 H 102.51 -1.43797 0.309972 0
M  V30 1164 H 104.468 -3.80482 -1.7114 0
M  V30 1165 H 103.098 -2.66839 -1.8165 0
M  V30 1166 H 102.15 -3.78984 0.327929 0
M  V30 1167 H 103.462 -4.98354 0.210997 0
M  V30 1168 H 102.616 -5.7183 -2.02719 0
M  V30 1169 H 101.355 -4.45376 -1.98725 0
M  V30 1170 H 100.36 -5.49758 0.0676979 0
M  V30 1171 H 101.585 -6.79099 0.00891991 0
M  V30 1172 H 99.531 -6.19601 -2.15478 0
M  V30 1173 H 99.448 -7.49254 -1.00766 0
M  V30 1174 H 100.716 -7.47906 -2.19676 0
M  V30 1175 N 104.945 -0.338344 -1.53925 0
M  V30 1176 C 106.192 0.259758 -2.00827 0
M  V30 1177 C 106.52 1.50973 -1.22628 0
M  V30 1178 O 105.775 1.93379 -0.300509 0
M  V30 1179 C 106.074 0.62448 -3.51902 0
M  V30 1180 C 105.74 -0.528006 -4.47798 0
M  V30 1181 C 104.402 -0.844298 -4.73735 0
M  V30 1182 C 106.754 -1.30143 -5.0469 0
M  V30 1183 C 104.082 -1.93648 -5.53821 0
M  V30 1184 C 106.434 -2.38382 -5.85967 0
M  V30 1185 C 105.098 -2.70576 -6.10201 0
M  V30 1186 H 104.368 0.0950523 -0.734878 0
M  V30 1187 H 107.015 -0.465182 -1.85764 0
M  V30 1188 H 105.32 1.43006 -3.64769 0
M  V30 1189 H 107.017 1.09905 -3.85645 0
M  V30 1190 H 103.607 -0.271421 -4.2774 0
M  V30 1191 H 107.791 -1.07033 -4.84621 0
M  V30 1192 H 103.047 -2.19021 -5.70824 0
M  V30 1193 H 107.221 -2.98746 -6.29066 0
M  V30 1194 H 104.848 -3.55333 -6.72044 0
M  V30 1195 N 106.423 1.57458 -0.0668435 0
M  V30 1196 C 107.371 2.13639 0.919851 0
M  V30 1197 C 108.365 1.07204 1.31163 0
M  V30 1198 O 109.571 1.25591 1.28945 0
M  V30 1199 H 105.946 0.683048 0.314562 0
M  V30 1200 H 107.917 2.95415 0.421047 0
M  V30 1201 C 106.666 2.70892 2.17975 0
M  V30 1202 H 105.989 3.5246 1.88711 0
M  V30 1203 H 107.429 3.13803 2.85138 0
M  V30 1204 C 105.888 1.65414 2.93496 0
M  V30 1205 O 106.418 1.07619 3.87015 0
M  V30 1206 N 104.624 1.36564 2.56512 0
M  V30 1207 H 104.171 1.83751 1.80536 0
M  V30 1208 H 104.129 0.66223 3.07347 0
M  V30 1209 N 107.901 -0.206675 1.56239 0
M  V30 1210 C 108.834 -1.28383 1.88661 0
M  V30 1211 C 109.812 -1.44504 0.745481 0
M  V30 1212 O 110.996 -1.60079 0.995336 0
M  V30 1213 C 108.123 -2.65211 2.10667 0
M  V30 1214 C 107.169 -2.66025 3.33366 0
M  V30 1215 S 108.002 -2.18609 4.88846 0
M  V30 1216 C 109.158 -3.57283 5.13906 0
M  V30 1217 H 109.391 -1.00691 2.7973 0
M  V30 1218 H 106.924 -0.409627 1.48867 0
M  V30 1219 H 108.882 -3.43979 2.24029 0
M  V30 1220 H 107.543 -2.90121 1.20369 0
M  V30 1221 H 106.736 -3.66607 3.45855 0
M  V30 1222 H 106.338 -1.95331 3.18938 0
M  V30 1223 H 108.63 -4.53074 5.03717 0
M  V30 1224 H 109.573 -3.49699 6.15724 0
M  V30 1225 H 109.981 -3.51659 4.41583 0
M  V30 1226 N 109.379 -1.50304 -0.473955 0
M  V30 1227 C 110.656 -1.51667 -1.23518 0
M  V30 1228 C 111.036 -0.259701 -2.09496 0
M  V30 1229 O 110.384 0.756986 -2.15597 0
M  V30 1230 C 110.594 -2.81082 -2.06868 0
M  V30 1231 C 111.942 -3.31631 -2.65153 0
M  V30 1232 O 112.966 -2.82384 -2.17113 0
M  V30 1233 O 111.825 -4.17471 -3.52675 0
M  V30 1234 H 108.919 -0.60822 -0.560355 0
M  V30 1235 H 111.465 -1.62592 -0.486011 0
M  V30 1236 H 110.237 -3.64041 -1.4349 0
M  V30 1237 H 109.86 -2.73146 -2.88924 0
M  V30 1238 N 110.857 0.726932 -1.39834 0
M  V30 1239 C 112.268 1.30558 -1.3346 0
M  V30 1240 C 112.619 1.962 -0.00273003 0
M  V30 1241 O 111.744 1.96826 0.899371 0
M  V30 1242 C 112.339 2.37404 -2.41713 0
M  V30 1243 C 110.898 2.90921 -2.38835 0
M  V30 1244 C 110.045 1.64578 -2.2318 0
M  V30 1245 H 112.996 0.523862 -1.49804 0
M  V30 1246 H 113.017 3.17984 -2.08966 0
M  V30 1247 H 112.529 1.89599 -3.38635 0
M  V30 1248 H 110.63 3.42985 -1.45575 0
M  V30 1249 H 110.743 3.43487 -3.33997 0
M  V30 1250 H 109.107 1.89219 -1.70494 0
M  V30 1251 H 109.89 1.18814 -3.22084 0
M  V30 1252 N 112.336 1.25143 0.95797 0
M  V30 1253 C 113.283 1.05235 2.05412 0
M  V30 1254 C 114.253 -0.0374561 1.66058 0
M  V30 1255 O 115.438 0.119073 1.90428 0
M  V30 1256 C 112.578 0.673589 3.38462 0
M  V30 1257 C 111.691 1.8379 3.90954 0
M  V30 1258 C 110.826 1.40381 5.12315 0
M  V30 1259 C 109.865 2.53746 5.57027 0
M  V30 1260 N 109.002 2.11136 6.69601 0
M  V30 1261 H 113.842 1.99048 2.21774 0
M  V30 1262 H 111.379 0.991277 1.08683 0
M  V30 1263 H 113.337 0.434964 4.14926 0
M  V30 1264 H 111.967 -0.227554 3.21997 0
M  V30 1265 H 111.019 2.18992 3.11041 0
M  V30 1266 H 112.331 2.68937 4.20089 0
M  V30 1267 H 111.485 1.12464 5.96185 0
M  V30 1268 H 110.224 0.523015 4.84887 0
M  V30 1269 H 109.229 2.82412 4.71724 0
M  V30 1270 H 110.454 3.42398 5.86464 0
M  V30 1271 H 108.4 1.25468 6.4389 0
M  V30 1272 H 108.317 2.89832 6.98236 0
M  V30 1273 H 109.585 1.86385 7.56889 0
M  V30 1274 N 113.814 -1.1601 1.06675 0
M  V30 1275 C 114.761 -2.20525 0.680967 0
M  V30 1276 C 115.731 -1.62904 -0.324283 0
M  V30 1277 O 116.916 -1.89615 -0.212294 0
M  V30 1278 C 114.056 -3.45013 0.0776551 0
M  V30 1279 C 113.169 -4.16863 1.13355 0
M  V30 1280 C 112.304 -5.2888 0.49597 0
M  V30 1281 C 111.343 -5.92537 1.53513 0
M  V30 1282 N 110.48 -6.96038 0.920631 0
M  V30 1283 H 115.32 -2.52876 1.57663 0
M  V30 1284 H 112.857 -1.24199 0.788223 0
M  V30 1285 H 114.815 -4.16193 -0.289704 0
M  V30 1286 H 113.445 -3.132 -0.781393 0
M  V30 1287 H 112.497 -3.44248 1.61857 0
M  V30 1288 H 113.809 -4.60294 1.92174 0
M  V30 1289 H 112.963 -6.06653 0.0758604 0
M  V30 1290 H 111.702 -4.86622 -0.324062 0
M  V30 1291 H 110.707 -5.13482 1.9651 0
M  V30 1292 H 111.932 -6.36873 2.35733 0
M  V30 1293 H 109.878 -6.55888 0.12138 0
M  V30 1294 H 109.795 -7.3786 1.64616 0
M  V30 1295 H 111.063 -7.77725 0.525795 0
M  V30 1296 N 115.292 -0.849877 -1.32721 0
M  V30 1297 C 116.54 -0.450032 -1.97026 0
M  V30 1298 C 116.861 0.996604 -1.67609 0
M  V30 1299 O 116.131 1.6958 -0.980786 0
M  V30 1300 H 114.711 -0.163426 -0.728904 0
M  V30 1301 H 117.373 -1.08526 -1.6189 0
M  V30 1302 H 116.469 -0.591146 -3.0645 0
M  V30 1303 N 116.77 1.45427 -0.607355 0
M  V30 1304 C 118.019 2.01452 -0.100036 0
M  V30 1305 C 118.332 1.48159 1.27704 0
M  V30 1306 O 119.538 1.96159 1.87707 0
M  V30 1307 C 117.994 3.59672 -0.128158 0
M  V30 1308 C 117.602 4.21962 -1.50507 0
M  V30 1309 C 119.346 4.23262 0.323932 0
M  V30 1310 C 117.253 5.72333 -1.48959 0
M  V30 1311 H 116.183 0.75325 -0.0336299 0
M  V30 1312 H 118.834 1.66901 -0.76265 0
M  V30 1313 H 117.216 3.91411 0.601105 0
M  V30 1314 H 118.39 4.01796 -2.25602 0
M  V30 1315 H 116.705 3.70565 -1.89923 0
M  V30 1316 H 119.302 5.33522 0.354691 0
M  V30 1317 H 119.645 3.93921 1.34656 0
M  V30 1318 H 120.178 3.96239 -0.352056 0
M  V30 1319 H 116.917 6.06373 -2.48981 0
M  V30 1320 H 116.437 5.94691 -0.781214 0
M  V30 1321 H 118.116 6.35525 -1.21313 0
M  V30 1322 N 118.248 0.346503 1.53744 0
M  V30 1323 C 119.18 -0.543316 2.22667 0
M  V30 1324 C 120.193 -1.06159 1.23427 0
M  V30 1325 O 121.382 -0.971235 1.49764 0
M  V30 1326 C 118.482 -1.76076 2.89569 0
M  V30 1327 C 117.655 -1.37727 4.15151 0
M  V30 1328 C 116.714 -2.45471 4.65436 0
M  V30 1329 O 115.74 -2.08655 5.29577 0
M  V30 1330 N 116.942 -3.7677 4.41616 0
M  V30 1331 H 119.707 0.0469703 2.99663 0
M  V30 1332 H 117.268 0.170766 1.60997 0
M  V30 1333 H 119.26 -2.47593 3.20125 0
M  V30 1334 H 117.83 -2.25835 2.16142 0
M  V30 1335 H 117.05 -0.492746 3.91108 0
M  V30 1336 H 118.338 -1.09708 4.96832 0
M  V30 1337 H 117.736 -4.09467 3.90325 0
M  V30 1338 H 116.293 -4.44448 4.7677 0
M  V30 1339 N 119.726 -1.57421 0.075193 0
M  V30 1340 C 120.973 -1.93618 -0.593146 0
M  V30 1341 C 121.301 -0.955484 -1.69413 0
M  V30 1342 O 120.556 0.0283251 -1.9568 0
M  V30 1343 C 120.855 -3.36428 -1.20626 0
M  V30 1344 C 120.521 -4.50307 -0.231078 0
M  V30 1345 C 119.183 -4.81186 0.0371936 0
M  V30 1346 C 121.535 -5.19374 0.435888 0
M  V30 1347 C 118.863 -5.78466 0.979461 0
M  V30 1348 C 121.215 -6.17665 1.3665 0
M  V30 1349 C 119.879 -6.46958 1.6432 0
M  V30 1350 H 119.149 -0.708499 -0.217047 0
M  V30 1351 H 121.796 -1.90937 0.146793 0
M  V30 1352 H 120.101 -3.35592 -2.02201 0
M  V30 1353 H 121.798 -3.61727 -1.73073 0
M  V30 1354 H 118.388 -4.26227 -0.450357 0
M  V30 1355 H 122.572 -4.95711 0.241748 0
M  V30 1356 H 117.828 -5.99487 1.20106 0
M  V30 1357 H 122.002 -6.70284 1.88924 0
M  V30 1358 H 119.629 -7.2215 2.37494 0
M  V30 1359 N 121.204 0.198386 -1.56346 0
M  V30 1360 C 122.134 1.24865 -1.9731 0
M  V30 1361 C 123.115 1.47651 -0.844576 0
M  V30 1362 O 124.3 1.59444 -1.10866 0
M  V30 1363 C 121.43 2.59358 -2.30977 0
M  V30 1364 C 120.384 2.5119 -3.46537 0
M  V30 1365 C 119.71 3.89926 -3.65871 0
M  V30 1366 C 121.01 2.03977 -4.80823 0
M  V30 1367 H 122.704 0.908252 -2.85291 0
M  V30 1368 H 120.25 0.435462 -1.37258 0
M  V30 1369 H 122.203 3.33011 -2.58228 0
M  V30 1370 H 120.927 2.95132 -1.39874 0
M  V30 1371 H 119.586 1.79993 -3.19371 0
M  V30 1372 H 119.234 4.23046 -2.72105 0
M  V30 1373 H 118.934 3.85336 -4.4361 0
M  V30 1374 H 120.458 4.65205 -3.95495 0
M  V30 1375 H 121.872 2.67386 -5.07127 0
M  V30 1376 H 120.269 2.10397 -5.62008 0
M  V30 1377 H 121.339 0.992861 -4.74626 0
M  V30 1378 N 122.682 1.50554 0.465978 0
M  V30 1379 C 123.928 1.62038 1.21949 0
M  V30 1380 C 124.261 0.322116 1.9151 0
M  V30 1381 O 123.536 -0.676723 1.82348 0
M  V30 1382 C 123.819 2.80421 2.25912 0
M  V30 1383 C 123.672 4.20144 1.60622 0
M  V30 1384 C 124.991 2.94354 3.27176 0
M  V30 1385 H 122.11 0.589752 0.441998 0
M  V30 1386 H 124.752 1.82956 0.51257 0
M  V30 1387 H 122.902 2.62717 2.86203 0
M  V30 1388 H 124.574 4.49449 1.03889 0
M  V30 1389 H 122.817 4.24165 0.909211 0
M  V30 1390 H 123.488 4.98914 2.36196 0
M  V30 1391 H 125.964 3.10578 2.76913 0
M  V30 1392 H 124.84 3.788 3.97242 0
M  V30 1393 H 125.101 2.05186 3.916 0
M  V30 1394 N 124.16 -0.719506 1.40217 0
M  V30 1395 C 125.07 -1.86378 1.42479 0
M  V30 1396 C 126.086 -1.71073 0.317834 0
M  V30 1397 O 127.262 -1.93406 0.561794 0
M  V30 1398 C 124.327 -3.22136 1.28178 0
M  V30 1399 C 123.388 -3.49723 2.48982 0
M  V30 1400 C 122.621 -4.79004 2.35353 0
M  V30 1401 O 122.844 -5.53821 1.36524 0
M  V30 1402 O 121.778 -5.06839 3.2465 0
M  V30 1403 H 125.604 -1.87425 2.38968 0
M  V30 1404 H 123.189 -0.869405 1.21498 0
M  V30 1405 H 125.071 -4.03234 1.22395 0
M  V30 1406 H 123.746 -3.21825 0.347934 0
M  V30 1407 H 122.653 -2.6865 2.60342 0
M  V30 1408 H 123.986 -3.54828 3.41113 0
M  V30 1409 N 125.638 -1.25649 -0.95132 0
M  V30 1410 C 126.586 -1.06118 -2.06982 0
M  V30 1411 C 127.58 0.00889169 -1.69398 0
M  V30 1412 O 128.786 -0.146988 -1.79399 0
M  V30 1413 H 125.161 -0.326248 -0.677544 0
M  V30 1414 H 127.132 -2.00932 -2.2061 0
M  V30 1415 C 125.881 -0.700145 -3.40578 0
M  V30 1416 H 125.204 -1.51537 -3.69968 0
M  V30 1417 H 126.644 -0.603211 -4.19687 0
M  V30 1418 C 125.103 0.59403 -3.31622 0
M  V30 1419 O 125.633 1.63522 -3.66911 0
M  V30 1420 N 123.839 0.58089 -2.84735 0
M  V30 1421 H 123.386 -0.266783 -2.56215 0
M  V30 1422 H 123.344 1.44695 -2.79125 0
M  V30 1423 N 127.117 1.15442 -1.07289 0
M  V30 1424 C 128.027 2.23786 -0.704057 0
M  V30 1425 C 129.043 1.7166 0.284413 0
M  V30 1426 O 130.219 2.00972 0.131205 0
M  V30 1427 C 127.284 3.46535 -0.106792 0
M  V30 1428 C 126.345 4.13654 -1.14842 0
M  V30 1429 C 125.578 5.30544 -0.57956 0
M  V30 1430 O 125.801 5.67187 0.604585 0
M  V30 1431 O 124.735 5.87154 -1.32414 0
M  V30 1432 H 128.561 2.57664 -1.60757 0
M  V30 1433 H 126.146 1.23152 -0.845803 0
M  V30 1434 H 128.028 4.20804 0.224048 0
M  V30 1435 H 126.703 3.14407 0.770049 0
M  V30 1436 H 125.61 3.4131 -1.5316 0
M  V30 1437 H 126.943 4.49861 -1.99714 0
M  V30 1438 N 128.595 0.856903 1.32268 0
M  V30 1439 C 129.525 0.31858 2.31316 0
M  V30 1440 C 130.506 -0.583487 1.59779 0
M  V30 1441 O 131.691 -0.503259 1.87566 0
M  V30 1442 C 128.821 -0.491979 3.43798 0
M  V30 1443 C 127.775 0.315849 4.26833 0
M  V30 1444 C 127.101 -0.619586 5.31098 0
M  V30 1445 C 128.401 1.54282 4.98993 0
M  V30 1446 H 130.095 1.14621 2.76591 0
M  V30 1447 H 127.641 0.552613 1.32974 0
M  V30 1448 H 129.594 -0.879012 4.1213 0
M  V30 1449 H 128.318 -1.35299 2.97257 0
M  V30 1450 H 126.977 0.684664 3.6015 0
M  V30 1451 H 126.625 -1.47751 4.8081 0
M  V30 1452 H 126.325 -0.0830621 5.87541 0
M  V30 1453 H 127.849 -1.00375 6.02293 0
M  V30 1454 H 129.263 1.22796 5.59995 0
M  V30 1455 H 127.66 2.01745 5.65172 0
M  V30 1456 H 128.73 2.30285 4.26728 0
M  V30 1457 N 130.073 -1.45103 0.615059 0
M  V30 1458 C 131.003 -2.33339 -0.0865619 0
M  V30 1459 C 131.984 -1.4727 -0.851209 0
M  V30 1460 O 133.169 -1.76026 -0.820281 0
M  V30 1461 C 130.299 -3.30095 -1.07956 0
M  V30 1462 C 129.253 -4.25858 -0.427628 0
M  V30 1463 C 128.579 -5.12361 -1.5294 0
M  V30 1464 C 129.879 -5.18165 0.655944 0
M  V30 1465 H 131.573 -2.92254 0.650224 0
M  V30 1466 H 129.119 -1.40532 0.314138 0
M  V30 1467 H 131.072 -3.90698 -1.57901 0
M  V30 1468 H 129.796 -2.69355 -1.84703 0
M  V30 1469 H 128.455 -3.66564 0.0510292 0
M  V30 1470 H 128.103 -4.47984 -2.28734 0
M  V30 1471 H 127.803 -5.77238 -1.09865 0
M  V30 1472 H 129.327 -5.75833 -2.03098 0
M  V30 1473 H 130.741 -5.72796 0.240257 0
M  V30 1474 H 129.138 -5.91559 1.00888 0
M  V30 1475 H 130.208 -4.60144 1.52957 0
M  V30 1476 N 131.551 -0.354651 -1.53558 0
M  V30 1477 C 132.483 0.5315 -2.22952 0
M  V30 1478 C 133.496 1.05503 -1.23988 0
M  V30 1479 O 134.685 0.963279 -1.50277 0
M  V30 1480 C 131.785 1.74538 -2.90499 0
M  V30 1481 C 130.958 1.35524 -4.15875 0
M  V30 1482 C 130.017 2.42999 -4.66731 0
M  V30 1483 O 129.043 2.05844 -5.30676 0
M  V30 1484 N 130.245 3.74423 -4.43608 0
M  V30 1485 H 133.01 -0.0628615 -2.99634 0
M  V30 1486 H 130.571 -0.179302 -1.60904 0
M  V30 1487 H 132.563 2.45892 -3.21433 0
M  V30 1488 H 131.133 2.24686 -2.17336 0
M  V30 1489 H 130.353 0.471998 -3.91364 0
M  V30 1490 H 131.641 1.07071 -4.97406 0
M  V30 1491 H 131.039 4.07391 -3.92491 0
M  V30 1492 H 129.596 4.41913 -4.7912 0
M  V30 1493 N 133.029 1.57378 -0.0835403 0
M  V30 1494 C 133.977 2.14602 0.89714 0
M  V30 1495 C 134.971 1.08589 1.30018 0
M  V30 1496 O 136.177 1.26952 1.27606 0
M  V30 1497 H 132.552 0.686346 0.3073 0
M  V30 1498 H 134.523 2.95845 0.38969 0
M  V30 1499 C 133.272 2.73188 2.15089 0
M  V30 1500 H 132.595 3.54442 1.84962 0
M  V30 1501 H 134.035 3.1681 2.81793 0
M  V30 1502 C 132.494 1.68517 2.91725 0
M  V30 1503 O 133.024 1.11718 3.85852 0
M  V30 1504 N 131.23 1.39277 2.55049 0
M  V30 1505 H 130.777 1.85655 1.78577 0
M  V30 1506 H 130.735 0.694791 3.06627 0
M  V30 1507 N 134.507 -0.190092 1.56449 0
M  V30 1508 C 135.735 -0.925772 1.85033 0
M  V30 1509 C 136.15 -1.76638 0.666658 0
M  V30 1510 O 135.507 -1.78822 -0.364565 0
M  V30 1511 C 135.558 -1.81786 3.12468 0
M  V30 1512 O 135.279 -1.01118 4.26271 0
M  V30 1513 C 136.78 -2.6648 3.54265 0
M  V30 1514 H 134 -0.269872 0.614337 0
M  V30 1515 H 136.544 -0.195837 2.0356 0
M  V30 1516 H 134.699 -2.50136 2.95822 0
M  V30 1517 H 135.113 -1.61956 4.98869 0
M  V30 1518 H 136.587 -3.24722 4.46385 0
M  V30 1519 H 137.064 -3.40434 2.77491 0
M  V30 1520 H 137.67 -2.03493 3.73458 0
M  V30 1521 N 135.985 -1.50799 -0.457987 0
M  V30 1522 C 137.396 -1.55152 -1.0385 0
M  V30 1523 C 137.747 -0.362719 -1.92818 0
M  V30 1524 O 136.872 0.522915 -2.09987 0
M  V30 1525 C 137.467 -2.81173 -1.89017 0
M  V30 1526 C 136.026 -2.88164 -2.42154 0
M  V30 1527 C 135.173 -2.49591 -1.20829 0
M  V30 1528 H 138.124 -1.56874 -0.240068 0
M  V30 1529 H 138.145 -2.63769 -2.74238 0
M  V30 1530 H 137.657 -3.67677 -1.24238 0
M  V30 1531 H 135.758 -2.06042 -3.10447 0
M  V30 1532 H 135.871 -3.91356 -2.76364 0
M  V30 1533 H 134.235 -2.02322 -1.54719 0
M  V30 1534 H 135.018 -3.38418 -0.576927 0
M  V30 1535 N 137.463 0.71206 -1.40597 0
M  V30 1536 C 138.373 1.8562 -1.43466 0
M  V30 1537 C 139.389 1.70902 -0.326902 0
M  V30 1538 O 140.565 1.93105 -0.572043 0
M  V30 1539 C 137.63 3.21451 -1.29884 0
M  V30 1540 C 136.691 3.48398 -2.50833 0
M  V30 1541 C 135.924 4.77749 -2.3789 0
M  V30 1542 O 136.147 5.53089 -1.39459 0
M  V30 1543 O 135.081 5.05111 -3.27333 0
M  V30 1544 H 138.907 1.86155 -2.39958 0
M  V30 1545 H 136.492 0.86295 -1.21957 0
M  V30 1546 H 138.374 4.02579 -1.24531 0
M  V30 1547 H 137.049 3.21636 -0.364997 0
M  V30 1548 H 135.956 2.67265 -2.61763 0
M  V30 1549 H 137.289 3.53014 -3.4299 0
M  V30 1550 N 138.941 1.26152 0.944643 0
M  V30 1551 C 139.851 1.09176 2.07648 0
M  V30 1552 C 140.867 0.0261935 1.7398 0
M  V30 1553 O 142.043 0.229208 2.00091 0
M  V30 1554 C 139.108 0.722915 3.39079 0
M  V30 1555 C 138.169 1.86752 3.86552 0
M  V30 1556 C 137.402 1.51617 5.11711 0
M  V30 1557 O 137.625 0.416331 5.68879 0
M  V30 1558 O 136.559 2.34975 5.54139 0
M  V30 1559 H 140.385 2.0412 2.24875 0
M  V30 1560 H 137.97 1.05182 1.061 0
M  V30 1561 H 139.852 0.529787 4.18056 0
M  V30 1562 H 138.527 -0.197159 3.23099 0
M  V30 1563 H 137.434 2.11558 3.08535 0
M  V30 1564 H 138.767 2.76719 4.07047 0
M  V30 1565 N 140.419 -1.14872 1.07899 0
M  V30 1566 C 141.668 -1.85135 0.800499 0
M  V30 1567 C 141.981 -1.83547 -0.676014 0
M  V30 1568 O 143.187 -2.49548 -1.06948 0
M  V30 1569 C 141.643 -3.3231 1.38197 0
M  V30 1570 C 141.251 -3.42329 2.8899 0
M  V30 1571 C 142.995 -4.0772 1.18174 0
M  V30 1572 C 140.902 -4.83684 3.403 0
M  V30 1573 H 139.832 -0.693563 0.29578 0
M  V30 1574 H 142.483 -1.29532 1.29976 0
M  V30 1575 H 140.865 -3.87618 0.810431 0
M  V30 1576 H 142.039 -2.97097 3.52236 0
M  V30 1577 H 140.354 -2.80369 3.07867 0
M  V30 1578 H 142.951 -5.12049 1.5398 0
M  V30 1579 H 143.294 -4.16124 0.12117 0
M  V30 1580 H 143.827 -3.58696 1.71994 0
M  V30 1581 H 140.566 -4.80465 4.45907 0
M  V30 1582 H 140.086 -5.29474 2.81811 0
M  V30 1583 H 141.765 -5.52558 3.36584 0
M  V30 1584 N 141.898 -0.863906 -1.31812 0
M  V30 1585 C 142.861 -0.320212 -2.26952 0
M  V30 1586 C 143.861 0.525369 -1.51975 0
M  V30 1587 O 145.051 0.335547 -1.70938 0
M  V30 1588 C 142.183 0.545919 -3.365 0
M  V30 1589 H 143.376 -1.16004 -2.76556 0
M  V30 1590 H 140.929 -0.638995 -1.42641 0
M  V30 1591 H 141.664 1.40718 -2.92179 0
M  V30 1592 H 141.449 -0.0594674 -3.92055 0
M  V30 1593 H 142.939 0.918796 -4.07367 0
M  V30 1594 N 143.376 1.44774 -0.622745 0
M  V30 1595 C 144.792 1.56986 -0.287652 0
M  V30 1596 C 144.992 1.61167 1.20944 0
M  V30 1597 O 144.048 1.55015 1.99315 0
M  V30 1598 C 145.361 2.84551 -0.972188 0
M  V30 1599 C 146.909 2.9825 -0.949536 0
M  V30 1600 C 147.384 4.28605 -1.61437 0
M  V30 1601 N 148.875 4.35399 -1.58057 0
M  V30 1602 C 149.61 5.34964 -2.064 0
M  V30 1603 N 149.106 6.40981 -2.62897 0
M  V30 1604 N 150.899 5.26419 -1.97078 0
M  V30 1605 H 143.05 1.40304 -1.59463 0
M  V30 1606 H 145.313 0.671794 -0.668878 0
M  V30 1607 H 145.019 2.87417 -2.02693 0
M  V30 1608 H 144.893 3.73807 -0.504771 0
M  V30 1609 H 147.28 2.94941 0.0967067 0
M  V30 1610 H 147.361 2.10364 -1.45536 0
M  V30 1611 H 147.005 4.32672 -2.66002 0
M  V30 1612 H 146.935 5.15334 -1.08344 0
M  V30 1613 H 149.426 3.59397 -1.16801 0
M  V30 1614 H 149.739 7.13225 -2.97539 0
M  V30 1615 H 148.084 6.4169 -2.66943 0
M  V30 1616 H 151.275 4.42504 -1.52669 0
M  V30 1617 H 151.448 6.03861 -2.35066 0
M  V30 1618 N 144.854 0.36279 1.53368 0
M  V30 1619 C 146.101 -0.227776 2.01215 0
M  V30 1620 C 146.429 -1.49003 1.25014 0
M  V30 1621 O 145.684 -1.92876 0.331236 0
M  V30 1622 C 145.983 -0.568417 3.52851 0
M  V30 1623 C 145.649 0.59918 4.46901 0
M  V30 1624 C 144.311 0.919559 4.72332 0
M  V30 1625 C 146.663 1.38156 5.02556 0
M  V30 1626 C 143.991 2.02434 5.5067 0
M  V30 1627 C 146.343 2.47674 5.821 0
M  V30 1628 C 145.007 2.8025 6.05819 0
M  V30 1629 H 144.277 -0.083349 0.736297 0
M  V30 1630 H 146.924 0.494677 1.85001 0
M  V30 1631 H 145.229 -1.37185 3.66998 0
M  V30 1632 H 146.926 -1.03756 3.87344 0
M  V30 1633 H 143.516 0.339437 4.27254 0
M  V30 1634 H 147.7 1.14729 4.82857 0
M  V30 1635 H 142.956 2.28075 5.67267 0
M  V30 1636 H 147.13 3.08716 6.24234 0
M  V30 1637 H 144.757 3.65979 6.66306 0
M  V30 1638 N 146.332 -1.57332 0.0918853 0
M  V30 1639 C 147.262 -2.16872 -0.865371 0
M  V30 1640 C 148.243 -1.10118 -1.29646 0
M  V30 1641 O 149.428 -1.38242 -1.36392 0
M  V30 1642 C 146.558 -2.74649 -2.12569 0
M  V30 1643 C 145.512 -3.86747 -1.83333 0
M  V30 1644 C 144.838 -4.31212 -3.16166 0
M  V30 1645 C 146.138 -5.10089 -1.1228 0
M  V30 1646 H 147.832 -2.97114 -0.369307 0
M  V30 1647 H 145.378 -1.42918 -0.176194 0
M  V30 1648 H 147.331 -3.14952 -2.7997 0
M  V30 1649 H 146.055 -1.91657 -2.64452 0
M  V30 1650 H 144.714 -3.46978 -1.18331 0
M  V30 1651 H 144.362 -3.45115 -3.6593 0
M  V30 1652 H 144.062 -5.06788 -2.97388 0
M  V30 1653 H 145.586 -4.74146 -3.84731 0
M  V30 1654 H 147 -5.47582 -1.69785 0
M  V30 1655 H 145.397 -5.91073 -1.03693 0
M  V30 1656 H 146.467 -4.84786 -0.105041 0
M  V30 1657 N 147.81 0.181792 -1.56548 0
M  V30 1658 C 149.04 0.914618 -1.85252 0
M  V30 1659 C 149.448 1.76791 -0.673914 0
M  V30 1660 O 148.791 1.80009 0.366416 0
M  V30 1661 C 148.853 1.85019 -3.08234 0
M  V30 1662 C 148.517 1.17754 -4.41569 0
M  V30 1663 C 149.514 0.548035 -5.17003 0
M  V30 1664 C 147.199 1.17742 -4.88305 0
M  V30 1665 C 149.193 -0.0726128 -6.37359 0
M  V30 1666 C 146.88 0.552946 -6.08593 0
M  V30 1667 C 147.878 -0.070978 -6.82963 0
M  V30 1668 O 147.566 -0.685635 -8.00971 0
M  V30 1669 H 147.298 0.271695 -0.618998 0
M  V30 1670 H 149.852 0.189944 -2.0452 0
M  V30 1671 H 148.082 2.61491 -2.84885 0
M  V30 1672 H 149.771 2.45195 -3.23472 0
M  V30 1673 H 150.537 0.540174 -4.81982 0
M  V30 1674 H 146.416 1.65246 -4.30366 0
M  V30 1675 H 149.96 -0.560213 -6.95347 0
M  V30 1676 H 145.857 0.558354 -6.43081 0
M  V30 1677 H 146.625 -0.58385 -8.16415 0
M  V30 1678 N 149.288 1.51039 0.449983 0
M  V30 1679 C 150.235 1.71439 1.54523 0
M  V30 1680 C 151.205 0.555871 1.56522 0
M  V30 1681 O 152.39 0.788871 1.73728 0
M  V30 1682 C 149.53 1.83384 2.92343 0
M  V30 1683 C 148.643 3.10873 2.9997 0
M  V30 1684 C 147.778 3.13488 4.28834 0
M  V30 1685 C 146.817 4.35343 4.30282 0
M  V30 1686 N 145.954 4.35579 5.5065 0
M  V30 1687 H 150.794 2.64934 1.36433 0
M  V30 1688 H 148.331 1.31312 0.662982 0
M  V30 1689 H 150.289 1.88291 3.72293 0
M  V30 1690 H 148.919 0.933086 3.0902 0
M  V30 1691 H 147.971 3.15336 2.12761 0
M  V30 1692 H 149.283 4.00814 2.96901 0
M  V30 1693 H 148.437 3.17241 5.17149 0
M  V30 1694 H 147.176 2.21414 4.34543 0
M  V30 1695 H 146.181 4.3178 3.40362 0
M  V30 1696 H 147.406 5.28668 4.26248 0
M  V30 1697 H 145.352 3.46369 5.57104 0
M  V30 1698 H 145.269 5.19313 5.49409 0
M  V30 1699 H 146.537 4.43507 6.41032 0
M  V30 1700 N 150.766 -0.704594 1.40972 0
M  V30 1701 C 152.014 -1.46169 1.39568 0
M  V30 1702 C 152.335 -1.95 0.00253745 0
M  V30 1703 O 151.605 -1.71095 -0.954114 0
M  V30 1704 H 150.185 -0.542326 0.513704 0
M  V30 1705 H 152.847 -0.834553 1.76128 0
M  V30 1706 H 151.943 -2.32922 2.07735 0
M  V30 1707 N 152.244 -1.26651 -0.937939 0
M  V30 1708 C 153.154 -1.10276 -2.07066 0
M  V30 1709 C 154.17 -0.0354197 -1.73964 0
M  V30 1710 O 155.346 -0.239816 -1.99967 0
M  V30 1711 C 152.411 -0.740887 -3.38691 0
M  V30 1712 C 151.472 -1.88799 -3.85556 0
M  V30 1713 C 150.705 -1.54329 -5.10899 0
M  V30 1714 O 150.928 -0.446494 -5.6865 0
M  V30 1715 O 149.862 -2.37911 -5.52885 0
M  V30 1716 H 153.688 -2.05309 -2.23789 0
M  V30 1717 H 151.273 -1.05743 -1.0554 0
M  V30 1718 H 153.155 -0.55195 -4.1777 0
M  V30 1719 H 151.83 0.180022 -3.23199 0
M  V30 1720 H 150.737 -2.13191 -3.07409 0
M  V30 1721 H 152.07 -2.78874 -4.05574 0
M  V30 1722 N 153.722 1.14298 -1.08507 0
M  V30 1723 C 154.97 1.84993 -0.813763 0
M  V30 1724 C 155.291 1.83405 0.662393 0
M  V30 1725 O 154.561 1.28319 1.48024 0
M  V30 1726 H 153.141 0.684966 -0.298045 0
M  V30 1727 H 155.803 1.385 -1.37126 0
M  V30 1728 H 154.899 2.89788 -1.15884 0
M  V30 1729 N 155.201 0.870884 1.31352 0
M  V30 1730 C 156.131 0.343096 2.30966 0
M  V30 1731 C 157.112 -0.566507 1.60389 0
M  V30 1732 O 158.297 -0.483336 1.88089 0
M  V30 1733 C 155.427 -0.455487 3.443 0
M  V30 1734 C 154.381 0.361103 4.26474 0
M  V30 1735 C 153.707 -0.563221 5.31725 0
M  V30 1736 C 155.007 1.59566 4.97329 0
M  V30 1737 H 156.701 1.17548 2.75359 0
M  V30 1738 H 154.247 0.566686 1.32381 0
M  V30 1739 H 156.2 -0.83525 4.13039 0
M  V30 1740 H 154.924 -1.32139 2.98675 0
M  V30 1741 H 153.583 0.722825 3.59403 0
M  V30 1742 H 153.231 -1.42643 4.82351 0
M  V30 1743 H 152.931 -0.0207409 5.87596 0
M  V30 1744 H 154.455 -0.939808 6.03324 0
M  V30 1745 H 155.869 1.28728 5.58661 0
M  V30 1746 H 154.266 2.07728 5.63 0
M  V30 1747 H 155.336 2.34798 4.24262 0
M  V30 1748 N 156.679 -1.44442 0.630414 0
M  V30 1749 C 157.627 -2.32437 -0.0871428 0
M  V30 1750 C 158.621 -1.47304 -0.836525 0
M  V30 1751 O 159.827 -1.63653 -0.749506 0
M  V30 1752 H 156.202 -0.750533 -0.0469495 0
M  V30 1753 H 158.173 -2.90709 0.673096 0
M  V30 1754 C 156.922 -3.31288 -1.05563 0
M  V30 1755 H 156.245 -3.96805 -0.488426 0
M  V30 1756 H 157.685 -3.9554 -1.52721 0
M  V30 1757 C 156.144 -2.6016 -2.14052 0
M  V30 1758 O 156.674 -2.39997 -3.22124 0
M  V30 1759 N 154.88 -2.19911 -1.89967 0
M  V30 1760 H 154.427 -2.36509 -1.02085 0
M  V30 1761 H 154.385 -1.72646 -2.62756 0
M  V30 1762 N 158.157 -0.370918 -1.53173 0
M  V30 1763 C 159.104 0.473035 -2.259 0
M  V30 1764 C 160.074 1.07311 -1.26781 0
M  V30 1765 O 161.259 1.1046 -1.55574 0
M  V30 1766 C 158.399 1.60405 -3.05556 0
M  V30 1767 C 157.512 1.02863 -4.19575 0
M  V30 1768 C 156.647 2.12918 -4.86661 0
M  V30 1769 C 155.686 1.52869 -5.92704 0
M  V30 1770 N 154.823 2.56779 -6.53459 0
M  V30 1771 H 159.663 -0.153649 -2.97604 0
M  V30 1772 H 157.2 -0.0875946 -1.46839 0
M  V30 1773 H 159.158 2.27034 -3.50016 0
M  V30 1774 H 157.788 2.20131 -2.36097 0
M  V30 1775 H 156.84 0.252465 -3.79561 0
M  V30 1776 H 158.152 0.549642 -4.95762 0
M  V30 1777 H 157.306 2.87356 -5.34333 0
M  V30 1778 H 156.045 2.6417 -4.09958 0
M  V30 1779 H 155.05 0.769479 -5.44389 0
M  V30 1780 H 156.275 1.02435 -6.7133 0
M  V30 1781 H 154.221 3.07235 -5.79606 0
M  V30 1782 H 154.138 2.13583 -7.25202 0
M  V30 1783 H 155.406 3.30903 -7.05779 0
M  V30 1784 N 159.635 1.57281 -0.100228 0
M  V30 1785 C 160.863 1.98879 0.570509 0
M  V30 1786 C 161.278 0.979476 1.61405 0
M  V30 1787 O 160.635 -0.0302288 1.82475 0
M  V30 1788 C 160.686 3.4052 1.2136 0
M  V30 1789 O 160.407 4.37588 0.211786 0
M  V30 1790 C 161.908 3.97149 1.96945 0
M  V30 1791 H 159.128 0.653428 0.152555 0
M  V30 1792 H 161.672 2.03697 -0.18103 0
M  V30 1793 H 159.827 3.367 1.91603 0
M  V30 1794 H 160.241 5.20118 0.676607 0
M  V30 1795 H 161.715 4.98393 2.37294 0
M  V30 1796 H 162.192 3.3525 2.83733 0
M  V30 1797 H 162.798 4.04458 1.31506 0
M  V30 1798 N 161.113 -0.173488 1.56642 0
M  V30 1799 C 162.076 -1.19859 1.95362 0
M  V30 1800 C 163.076 -1.37296 0.83704 0
M  V30 1801 O 164.266 -1.34739 1.10413 0
M  V30 1802 C 161.398 -2.56405 2.24654 0
M  V30 1803 H 162.591 -0.867062 2.87092 0
M  V30 1804 H 160.144 -0.415853 1.50666 0
M  V30 1805 H 160.879 -2.94576 1.35631 0
M  V30 1806 H 160.664 -2.45115 3.06041 0
M  V30 1807 H 162.154 -3.30287 2.5554 0
M  V30 1808 N 162.591 -1.51276 -0.441967 0
M  V30 1809 C 163.84 -1.6295 -1.18871 0
M  V30 1810 C 164.153 -0.349312 -1.92456 0
M  V30 1811 O 165.359 -0.345355 -2.69295 0
M  V30 1812 C 163.815 -2.87759 -2.16155 0
M  V30 1813 C 163.423 -4.22764 -1.48239 0
M  V30 1814 C 165.167 -3.08788 -2.91291 0
M  V30 1815 C 163.074 -5.38728 -2.4398 0
M  V30 1816 H 162.004 -0.606913 -0.447406 0
M  V30 1817 H 164.655 -1.77739 -0.456205 0
M  V30 1818 H 163.037 -2.66593 -2.92821 0
M  V30 1819 H 164.211 -4.54293 -0.771635 0
M  V30 1820 H 162.526 -4.07575 -0.852741 0
M  V30 1821 H 165.123 -3.92599 -3.63002 0
M  V30 1822 H 165.466 -2.21679 -3.5237 0
M  V30 1823 H 165.999 -3.30272 -2.21733 0
M  V30 1824 H 162.738 -6.28082 -1.87598 0
M  V30 1825 H 162.258 -5.1158 -3.13123 0
M  V30 1826 H 163.937 -5.70489 -3.05207 0
M  V30 1827 N 164.069 0.697108 -1.41344 0
M  V30 1828 C 165.317 1.45426 -1.40341 0
M  V30 1829 C 165.638 1.94996 -0.0128787 0
M  V30 1830 O 164.908 1.71599 0.945027 0
M  V30 1831 H 163.488 0.539594 -0.516573 0
M  V30 1832 H 166.15 0.825201 -1.76569 0
M  V30 1833 H 165.246 2.31817 -2.08967 0
M  V30 1834 N 165.547 1.27147 0.931209 0
M  V30 1835 C 166.824 1.0401 1.65654 0
M  V30 1836 C 167.204 -0.426297 2.06751 0
M  V30 1837 O 166.552 -1.40879 1.79904 0
M  V30 1838 C 166.762 1.99834 2.86125 0
M  V30 1839 C 168.11 2.29007 3.57549 0
M  V30 1840 O 169.134 1.97779 2.96246 0
M  V30 1841 O 167.993 2.82222 4.67989 0
M  V30 1842 H 165.087 0.396239 0.725895 0
M  V30 1843 H 167.633 1.38397 0.982056 0
M  V30 1844 H 166.405 2.98744 2.52721 0
M  V30 1845 H 166.028 1.65987 3.61295 0
M  V30 1846 N 167.025 -1.13721 1.09112 0
M  V30 1847 C 168.255 -1.88499 0.845671 0
M  V30 1848 C 168.663 -1.79218 -0.606432 0
M  V30 1849 O 168.006 -1.1544 -1.42896 0
M  V30 1850 C 168.068 -3.38954 1.19793 0
M  V30 1851 C 167.732 -3.72018 2.65428 0
M  V30 1852 C 168.729 -3.7153 3.63677 0
M  V30 1853 C 166.414 -4.01775 3.01467 0
M  V30 1854 C 168.408 -4.00336 4.95994 0
M  V30 1855 C 166.095 -4.30243 4.33975 0
M  V30 1856 C 167.093 -4.29508 5.31048 0
M  V30 1857 O 166.781 -4.5728 6.61173 0
M  V30 1858 H 166.513 -0.603702 0.304171 0
M  V30 1859 H 169.067 -1.44903 1.45576 0
M  V30 1860 H 167.297 -3.83039 0.530871 0
M  V30 1861 H 168.986 -3.95052 0.932146 0
M  V30 1862 H 169.752 -3.4862 3.37179 0
M  V30 1863 H 165.631 -4.01496 2.26544 0
M  V30 1864 H 169.175 -3.99678 5.71755 0
M  V30 1865 H 165.072 -4.52625 4.60219 0
M  V30 1866 H 165.84 -4.74964 6.66597 0
M  V30 1867 N 168.503 -0.877838 -1.30888 0
M  V30 1868 C 169.433 -0.35534 -2.3078 0
M  V30 1869 C 170.414 0.557994 -1.60687 0
M  V30 1870 O 171.599 0.473355 -1.88343 0
M  V30 1871 C 168.729 0.437221 -3.44537 0
M  V30 1872 C 167.683 -0.383715 -4.26276 0
M  V30 1873 C 167.009 0.535014 -5.32017 0
M  V30 1874 C 168.309 -1.62201 -4.96476 0
M  V30 1875 H 170.003 -1.19007 -2.74732 0
M  V30 1876 H 167.549 -0.573698 -1.32078 0
M  V30 1877 H 169.502 0.813334 -4.13477 0
M  V30 1878 H 168.226 1.30553 -2.99372 0
M  V30 1879 H 166.885 -0.741874 -3.59015 0
M  V30 1880 H 166.533 1.40083 -4.831 0
M  V30 1881 H 166.233 -0.0104211 -5.87599 0
M  V30 1882 H 167.757 0.907799 -6.03814 0
M  V30 1883 H 169.171 -1.31689 -5.5797 0
M  V30 1884 H 167.568 -2.10711 -5.61891 0
M  V30 1885 H 168.638 -2.37044 -4.23011 0
M  V30 1886 N 169.982 1.44106 -0.638065 0
M  V30 1887 C 171.23 2.01579 -0.145043 0
M  V30 1888 C 171.551 1.50496 1.24 0
M  V30 1889 O 170.821 0.711374 1.82527 0
M  V30 1890 H 169.401 0.745282 -0.05063 0
M  V30 1891 H 172.063 1.76516 -0.826327 0
M  V30 1892 H 171.159 3.11877 -0.118039 0
M  V30 1893 N 171.46 0.379036 1.52974 0
M  V30 1894 C 172.37 -0.468639 2.29872 0
M  V30 1895 C 173.386 -1.08067 1.36373 0
M  V30 1896 O 174.562 -1.08871 1.69438 0
M  V30 1897 C 171.627 -1.58594 3.083 0
M  V30 1898 C 170.688 -1.00007 4.17489 0
M  V30 1899 C 169.921 -2.06413 4.92168 0
M  V30 1900 O 170.144 -3.27751 4.66835 0
M  V30 1901 O 169.078 -1.68717 5.7777 0
M  V30 1902 H 172.904 0.157508 3.03291 0
M  V30 1903 H 170.489 0.143035 1.48714 0
M  V30 1904 H 172.371 -2.23525 3.57232 0
M  V30 1905 H 171.046 -2.19724 2.37703 0
M  V30 1906 H 169.953 -0.314299 3.72777 0
M  V30 1907 H 171.286 -0.433135 4.90291 0
M  V30 1908 N 172.938 -1.57226 0.108567 0
M  V30 1909 C 174.354 -1.5766 -0.248058 0
M  V30 1910 C 174.554 -1.12063 -1.67464 0
M  V30 1911 O 173.61 -0.803236 -2.39383 0
M  V30 1912 C 174.923 -3.0069 -0.0242287 0
M  V30 1913 C 176.471 -3.12868 -0.0909372 0
M  V30 1914 C 176.946 -4.57879 0.105067 0
M  V30 1915 N 178.437 -4.63172 0.0506846 0
M  V30 1916 C 179.172 -5.73126 0.177396 0
M  V30 1917 N 178.668 -6.91866 0.359696 0
M  V30 1918 N 180.461 -5.61977 0.117709 0
M  V30 1919 H 172.612 -1.85169 1.04049 0
M  V30 1920 H 174.875 -0.85529 0.40888 0
M  V30 1921 H 174.581 -3.38299 0.961604 0
M  V30 1922 H 174.455 -3.6945 -0.76068 0
M  V30 1923 H 176.842 -2.75124 -1.06729 0
M  V30 1924 H 176.923 -2.46672 0.677225 0
M  V30 1925 H 176.567 -4.96321 1.07834 0
M  V30 1926 H 176.497 -5.22153 -0.682954 0
M  V30 1927 H 178.988 -3.778 -0.0871266 0
M  V30 1928 H 179.301 -7.71503 0.447529 0
M  V30 1929 H 177.646 -6.93874 0.395536 0
M  V30 1930 H 180.837 -4.68094 -0.0236741 0
M  V30 1931 H 181.01 -6.47627 0.219905 0
M  V30 1932 N 174.416 0.165178 -1.56732 0
M  V30 1933 C 175.326 1.22423 -2.00125 0
M  V30 1934 C 176.342 1.48084 -0.913619 0
M  V30 1935 O 177.518 1.60112 -1.22172 0
M  V30 1936 C 174.583 2.54197 -2.35764 0
M  V30 1937 C 173.644 2.36343 -3.58386 0
M  V30 1938 C 172.877 3.61834 -3.92316 0
M  V30 1939 O 173.1 4.67267 -3.27135 0
M  V30 1940 O 172.034 3.55579 -4.85641 0
M  V30 1941 H 175.86 0.885886 -2.90492 0
M  V30 1942 H 173.445 0.372518 -1.44681 0
M  V30 1943 H 175.327 3.3192 -2.59629 0
M  V30 1944 H 174.002 2.87598 -1.48557 0
M  V30 1945 H 172.909 1.56632 -3.39731 0
M  V30 1946 H 174.242 2.07865 -4.46154 0
M  V30 1947 N 175.894 1.51508 0.433938 0
M  V30 1948 C 176.804 1.75917 1.5521 0
M  V30 1949 C 177.82 0.643545 1.61662 0
M  V30 1950 O 178.996 0.926183 1.7884 0
M  V30 1951 C 176.061 1.88213 2.91164 0
M  V30 1952 C 175.122 3.12074 2.94802 0
M  V30 1953 C 174.355 3.23774 4.24271 0
M  V30 1954 O 174.578 2.4133 5.16833 0
M  V30 1955 O 173.512 4.16774 4.34262 0
M  V30 1956 H 177.338 2.70777 1.37527 0
M  V30 1957 H 174.923 1.36051 0.617293 0
M  V30 1958 H 176.805 1.98267 3.71845 0
M  V30 1959 H 175.48 0.965413 3.08968 0
M  V30 1960 H 174.387 3.07497 2.13065 0
M  V30 1961 H 175.72 4.03446 2.81943 0
M  V30 1962 N 177.372 -0.689602 1.41712 0
M  V30 1963 C 178.302 -1.81577 1.46806 0
M  V30 1964 C 179.283 -1.66945 0.326105 0
M  V30 1965 O 180.468 -1.86588 0.538377 0
M  V30 1966 C 177.598 -3.19762 1.35535 0
M  V30 1967 C 176.552 -3.49107 2.47605 0
M  V30 1968 C 175.878 -4.86711 2.21397 0
M  V30 1969 C 177.178 -3.47483 3.89939 0
M  V30 1970 H 178.872 -1.7757 2.41058 0
M  V30 1971 H 176.418 -0.852887 1.16025 0
M  V30 1972 H 178.371 -3.98263 1.3771 0
M  V30 1973 H 177.095 -3.24409 0.377708 0
M  V30 1974 H 175.754 -2.72959 2.44722 0
M  V30 1975 H 175.402 -4.8799 1.21961 0
M  V30 1976 H 175.102 -5.0731 2.96497 0
M  V30 1977 H 176.626 -5.67515 2.25297 0
M  V30 1978 H 178.04 -4.1598 3.94505 0
M  V30 1979 H 176.437 -3.79615 4.64771 0
M  V30 1980 H 177.507 -2.46341 4.17665 0
M  V30 1981 N 178.85 -1.27639 -0.924453 0
M  V30 1982 C 179.798 -1.10485 -2.04685 0
M  V30 1983 C 180.792 -0.0270421 -1.69378 0
M  V30 1984 O 181.998 -0.185008 -1.79047 0
M  V30 1985 H 178.373 -0.340546 -0.670472 0
M  V30 1986 H 180.344 -2.05566 -2.16298 0
M  V30 1987 C 179.093 -0.772229 -3.39016 0
M  V30 1988 H 178.416 -1.59351 -3.66671 0
M  V30 1989 H 179.856 -0.692097 -4.18313 0
M  V30 1990 C 178.315 0.523554 -3.32807 0
M  V30 1991 O 178.845 1.55702 -3.70297 0
M  V30 1992 N 177.051 0.520363 -2.85903 0
M  V30 1993 H 176.598 -0.32107 -2.55591 0
M  V30 1994 H 176.556 1.38742 -2.82131 0
M  V30 1995 N 180.328 1.1314 -1.09713 0
M  V30 1996 C 181.258 2.20748 -0.761102 0
M  V30 1997 C 182.239 1.68061 0.262566 0
M  V30 1998 O 183.424 1.93765 0.129977 0
M  V30 1999 C 180.554 3.46812 -0.184054 0
M  V30 2000 C 179.508 4.12606 -1.13757 0
M  V30 2001 C 178.834 5.33031 -0.422083 0
M  V30 2002 C 180.134 4.59603 -2.48118 0
M  V30 2003 H 181.828 2.49113 -1.66082 0
M  V30 2004 H 179.374 1.19734 -0.799987 0
M  V30 2005 H 181.327 4.21353 0.0631215 0
M  V30 2006 H 180.051 3.17851 0.750868 0
M  V30 2007 H 178.71 3.40036 -1.37007 0
M  V30 2008 H 178.358 5.00335 0.517072 0
M  V30 2009 H 178.058 5.77999 -1.05788 0
M  V30 2010 H 179.582 6.10325 -0.183277 0
M  V30 2011 H 180.996 5.25552 -2.29059 0
M  V30 2012 H 179.393 5.15321 -3.07514 0
M  V30 2013 H 180.463 3.73971 -3.08665 0
M  V30 2014 N 181.806 0.884767 1.30421 0
M  V30 2015 C 182.769 0.356277 2.26414 0
M  V30 2016 C 183.769 -0.501124 1.52792 0
M  V30 2017 O 184.959 -0.30831 1.7145 0
M  V30 2018 C 182.091 -0.492316 3.37326 0
M  V30 2019 H 183.284 1.20389 2.74675 0
M  V30 2020 H 180.837 0.661607 1.41607 0
M  V30 2021 H 181.572 -1.36052 2.94381 0
M  V30 2022 H 181.357 0.121832 3.91911 0
M  V30 2023 H 182.847 -0.853871 4.08777 0
M  V30 2024 N 183.284 -1.43765 0.645699 0
M  V30 2025 C 184.53 -2.02197 0.156271 0
M  V30 2026 C 184.863 -1.50776 -1.22393 0
M  V30 2027 O 184.138 -0.697771 -1.81553 0
M  V30 2028 C 184.421 -3.59749 0.158872 0
M  V30 2029 C 184.274 -4.21419 1.57245 0
M  V30 2030 C 185.593 -4.37149 -0.50879 0
M  V30 2031 H 182.712 -0.734694 0.0582602 0
M  V30 2032 H 185.354 -1.71157 0.824951 0
M  V30 2033 H 183.504 -3.86325 -0.410525 0
M  V30 2034 H 185.176 -4.059 2.19186 0
M  V30 2035 H 183.419 -3.78356 2.122 0
M  V30 2036 H 184.09 -5.30482 1.52619 0
M  V30 2037 H 186.566 -4.16093 -0.024412 0
M  V30 2038 H 185.442 -5.4683 -0.476213 0
M  V30 2039 H 185.703 -4.12839 -1.58165 0
M  V30 2040 N 184.763 -0.387143 -1.52771 0
M  V30 2041 C 185.693 0.440551 -2.29306 0
M  V30 2042 C 186.674 1.06535 -1.32606 0
M  V30 2043 O 187.859 1.07853 -1.61497 0
M  V30 2044 C 184.989 1.56919 -3.09829 0
M  V30 2045 C 183.943 1.07054 -4.14395 0
M  V30 2046 C 183.269 2.29109 -4.83129 0
M  V30 2047 C 184.569 0.140015 -5.22112 0
M  V30 2048 H 186.263 -0.198026 -2.98744 0
M  V30 2049 H 183.809 -0.09668 -1.43675 0
M  V30 2050 H 185.762 2.15503 -3.62128 0
M  V30 2051 H 184.486 2.23532 -2.3812 0
M  V30 2052 H 183.145 0.507247 -3.63074 0
M  V30 2053 H 182.793 2.94227 -4.0797 0
M  V30 2054 H 182.493 1.96406 -5.53804 0
M  V30 2055 H 184.017 2.88339 -5.38231 0
M  V30 2056 H 185.431 0.633978 -5.69784 0
M  V30 2057 H 183.828 -0.0971485 -6.00021 0
M  V30 2058 H 184.898 -0.811711 -4.78058 0
M  V30 2059 N 186.241 1.57166 -0.116904 0
M  V30 2060 C 187.191 2.11756 0.845178 0
M  V30 2061 C 188.175 1.03783 1.22955 0
M  V30 2062 O 189.367 1.3002 1.20099 0
M  V30 2063 C 186.496 2.71886 2.09602 0
M  V30 2064 C 185.582 3.86937 1.7361 0
M  V30 2065 N 185.973 4.94073 1.08284 0
M  V30 2066 C 184.271 3.97082 2.03082 0
M  V30 2067 C 184.972 5.74477 0.913855 0
M  V30 2068 N 183.948 5.2423 1.43818 0
M  V30 2069 H 187.75 2.91967 0.336523 0
M  V30 2070 H 185.264 1.62174 0.0856332 0
M  V30 2071 H 187.261 3.09338 2.79492 0
M  V30 2072 H 185.921 1.93138 2.61013 0
M  V30 2073 H 186.932 5.12483 0.747067 0
M  V30 2074 H 183.609 3.29372 2.56554 0
M  V30 2075 H 184.999 6.70701 0.40125 0
M  V30 2076 N 187.719 -0.156864 1.56817 0
M  V30 2077 C 188.682 -1.17781 1.96622 0
M  V30 2078 C 189.682 -1.36401 0.851555 0
M  V30 2079 O 190.872 -1.33561 1.11836 0
M  V30 2080 C 188.004 -2.54008 2.27361 0
M  V30 2081 H 189.197 -0.836564 2.87996 0
M  V30 2082 H 186.75 -0.39985 1.51099 0
M  V30 2083 H 187.485 -2.9312 1.38748 0
M  V30 2084 H 187.27 -2.41856 3.08623 0
M  V30 2085 H 188.76 -3.27558 2.59029 0
M  V30 2086 N 189.197 -1.51736 -0.425897 0
M  V30 2087 C 190.444 -1.6497 -1.17436 0
M  V30 2088 C 190.772 -0.371445 -1.9092 0
M  V30 2089 O 190.027 0.644963 -1.84767 0
M  V30 2090 C 190.326 -2.81103 -2.20717 0
M  V30 2091 C 189.992 -4.19954 -1.64162 0
M  V30 2092 C 188.654 -4.57725 -1.48462 0
M  V30 2093 C 191.006 -5.06552 -1.22696 0
M  V30 2094 C 188.334 -5.79789 -0.897873 0
M  V30 2095 C 190.686 -6.29205 -0.654464 0
M  V30 2096 C 189.35 -6.6574 -0.484456 0
M  V30 2097 H 188.62 -0.603668 -0.429727 0
M  V30 2098 H 191.267 -1.85798 -0.463829 0
M  V30 2099 H 189.572 -2.54542 -2.97852 0
M  V30 2100 H 191.269 -2.8854 -2.78471 0
M  V30 2101 H 187.859 -3.90181 -1.77361 0
M  V30 2102 H 192.043 -4.77968 -1.33642 0
M  V30 2103 H 187.299 -6.06733 -0.75402 0
M  V30 2104 H 191.473 -6.95643 -0.324694 0
M  V30 2105 H 189.1 -7.60195 -0.0276833 0
M  V30 2106 N 190.675 0.682077 -1.42076 0
M  V30 2107 C 191.921 1.44428 -1.42367 0
M  V30 2108 C 192.254 1.94164 -0.0373056 0
M  V30 2109 O 191.529 1.70429 0.937239 0
M  V30 2110 C 191.812 2.64654 -2.44194 0
M  V30 2111 C 191.665 2.20596 -3.91991 0
M  V30 2112 C 192.984 3.66865 -2.431 0
M  V30 2113 H 190.103 0.523834 -0.518428 0
M  V30 2114 H 192.745 0.77576 -1.73442 0
M  V30 2115 H 190.895 3.2169 -2.17826 0
M  V30 2116 H 192.567 1.68783 -4.29313 0
M  V30 2117 H 190.81 1.52242 -4.06208 0
M  V30 2118 H 191.481 3.06921 -4.58807 0
M  V30 2119 H 193.957 3.19531 -2.66532 0
M  V30 2120 H 192.833 4.48577 -3.16339 0
M  V30 2121 H 193.094 4.17493 -1.45437 0
M  V30 2122 N 192.153 1.28127 0.917671 0
M  V30 2123 C 193.43 1.05761 1.64542 0
M  V30 2124 C 193.81 -0.404344 2.07191 0
M  V30 2125 O 193.158 -1.38963 1.81388 0
M  V30 2126 C 193.368 2.02857 2.83989 0
M  V30 2127 C 194.716 2.32786 3.551 0
M  V30 2128 O 195.74 2.0091 2.94132 0
M  V30 2129 O 194.599 2.87169 4.64969 0
M  V30 2130 H 191.693 0.403916 0.721652 0
M  V30 2131 H 194.239 1.39431 0.967322 0
M  V30 2132 H 193.011 3.01407 2.49538 0
M  V30 2133 H 192.634 1.69809 3.59514 0
M  V30 2134 N 193.631 -1.12557 1.10312 0
M  V30 2135 C 194.561 -2.20341 0.772798 0
M  V30 2136 C 195.542 -1.68198 -0.25365 0
M  V30 2137 O 196.727 -1.93831 -0.119699 0
M  V30 2138 C 193.857 -3.46709 0.202443 0
M  V30 2139 C 192.811 -4.11996 1.15943 0
M  V30 2140 C 192.137 -5.328 0.450345 0
M  V30 2141 C 193.437 -4.5828 2.50552 0
M  V30 2142 H 195.131 -2.48229 1.674 0
M  V30 2143 H 192.677 -1.19308 0.806326 0
M  V30 2144 H 194.63 -4.2138 -0.0407752 0
M  V30 2145 H 193.354 -3.18245 -0.734001 0
M  V30 2146 H 192.013 -3.39305 1.38808 0
M  V30 2147 H 191.661 -5.00602 -0.490531 0
M  V30 2148 H 191.361 -5.7743 1.08851 0
M  V30 2149 H 192.885 -6.10219 0.215642 0
M  V30 2150 H 194.299 -5.2433 2.31843 0
M  V30 2151 H 192.696 -5.13683 3.10242 0
M  V30 2152 H 193.766 -3.72329 3.10643 0
M  V30 2153 N 195.109 -0.891671 -1.2995 0
M  V30 2154 C 196.059 -0.334811 -2.25528 0
M  V30 2155 C 197.043 0.540553 -1.51548 0
M  V30 2156 O 198.235 0.383882 -1.72787 0
M  V30 2157 C 195.364 0.44374 -3.4042 0
M  V30 2158 C 194.45 -0.44609 -4.21747 0
M  V30 2159 N 194.841 -1.54963 -4.81477 0
M  V30 2160 C 193.139 -0.242415 -4.45341 0
M  V30 2161 C 193.84 -2.10015 -5.42465 0
M  V30 2162 N 192.816 -1.39423 -5.25416 0
M  V30 2163 H 196.618 -1.17792 -2.69262 0
M  V30 2164 H 194.132 -0.741822 -1.44467 0
M  V30 2165 H 196.129 0.859362 -4.07947 0
M  V30 2166 H 194.789 1.28421 -2.98225 0
M  V30 2167 H 195.8 -1.93244 -4.80497 0
M  V30 2168 H 192.477 0.560342 -4.13723 0
M  V30 2169 H 193.867 -3.02724 -5.9984 0
M  V30 2170 N 196.587 1.43421 -0.653314 0
M  V30 2171 C 197.497 2.34568 0.0388565 0
M  V30 2172 C 198.513 1.53888 0.81207 0
M  V30 2173 O 199.689 1.86539 0.759294 0
M  V30 2174 C 196.754 3.32167 0.993269 0
M  V30 2175 C 195.815 4.28751 0.216977 0
M  V30 2176 C 195.048 5.21688 1.12593 0
M  V30 2177 O 195.271 5.19052 2.36519 0
M  V30 2178 O 194.205 5.98919 0.598284 0
M  V30 2179 H 198.031 2.95251 -0.711386 0
M  V30 2180 H 195.616 1.43564 -0.413502 0
M  V30 2181 H 197.498 3.92183 1.54176 0
M  V30 2182 H 196.173 2.73987 1.72374 0
M  V30 2183 H 195.08 3.72215 -0.375101 0
M  V30 2184 H 196.413 4.89913 -0.473924 0
M  V30 2185 N 198.065 0.39524 1.52563 0
M  V30 2186 C 199.312 -0.185044 2.01653 0
M  V30 2187 C 199.64 -1.46317 1.28146 0
M  V30 2188 O 198.895 -1.9213 0.372074 0
M  V30 2189 C 199.194 -0.493444 3.53977 0
M  V30 2190 C 198.86 0.69384 4.4553 0
M  V30 2191 C 197.522 1.01954 4.70275 0
M  V30 2192 C 199.874 1.48785 4.99512 0
M  V30 2193 C 197.202 2.14069 5.46252 0
M  V30 2194 C 199.554 2.59965 5.76716 0
M  V30 2195 C 198.218 2.93037 5.99738 0
M  V30 2196 H 197.488 -0.0677123 0.7379 0
M  V30 2197 H 200.135 0.533807 1.8391 0
M  V30 2198 H 198.44 -1.29369 3.69825 0
M  V30 2199 H 200.137 -0.955163 3.89458 0
M  V30 2200 H 196.727 0.429987 4.26438 0
M  V30 2201 H 200.911 1.24946 4.80315 0
M  V30 2202 H 196.167 2.40056 5.62302 0
M  V30 2203 H 200.341 3.21887 6.17545 0
M  V30 2204 H 197.968 3.8003 6.58393 0
M  V30 2205 N 199.544 -1.57102 0.125237 0
M  V30 2206 C 200.772 -1.99761 -0.538797 0
M  V30 2207 C 201.187 -1.00503 -1.59827 0
M  V30 2208 O 200.544 0.00119474 -1.825 0
M  V30 2209 C 200.595 -3.42408 -1.15927 0
M  V30 2210 O 200.316 -4.37869 -0.142143 0
M  V30 2211 C 201.817 -4.00232 -1.90602 0
M  V30 2212 H 199.037 -0.655772 -0.14214 0
M  V30 2213 H 201.581 -2.03383 0.213413 0
M  V30 2214 H 199.736 -3.39706 -1.86223 0
M  V30 2215 H 200.15 -5.21128 -0.593775 0
M  V30 2216 H 201.624 -5.02105 -2.29335 0
M  V30 2217 H 202.101 -3.39721 -2.78363 0
M  V30 2218 H 202.707 -4.06499 -1.25055 0
M  V30 2219 N 201.022 0.148545 -1.56898 0
M  V30 2220 C 202.299 0.890019 -1.74178 0
M  V30 2221 C 202.679 1.99407 -0.692839 0
M  V30 2222 O 202.027 2.26671 0.288505 0
M  V30 2223 C 202.237 1.43389 -3.18183 0
M  V30 2224 C 203.585 1.89791 -3.79822 0
M  V30 2225 O 204.609 1.53134 -3.21603 0
M  V30 2226 O 203.468 2.57387 -4.82093 0
M  V30 2227 H 200.562 0.420496 -0.712118 0
M  V30 2228 H 203.108 0.134591 -1.69165 0
M  V30 2229 H 201.88 0.640383 -3.86024 0
M  V30 2230 H 201.503 2.25287 -3.27615 0
M  V30 2231 N 202.5 1.5196 0.417844 0
M  V30 2232 C 203.43 1.77634 1.51554 0
M  V30 2233 C 204.411 0.626918 1.58126 0
M  V30 2234 O 205.596 0.871632 1.7354 0
M  V30 2235 C 202.726 1.91911 2.8946 0
M  V30 2236 C 201.68 3.07463 2.97743 0
M  V30 2237 C 201.006 3.06951 4.37819 0
M  V30 2238 C 202.306 4.47082 2.70027 0
M  V30 2239 H 204 2.6955 1.3032 0
M  V30 2240 H 201.546 1.29706 0.625492 0
M  V30 2241 H 203.499 2.08455 3.6623 0
M  V30 2242 H 202.223 0.966598 3.11969 0
M  V30 2243 H 200.882 2.90656 2.23416 0
M  V30 2244 H 200.53 2.09438 4.57323 0
M  V30 2245 H 200.23 3.84556 4.44286 0
M  V30 2246 H 201.754 3.25613 5.16535 0
M  V30 2247 H 203.168 4.6414 3.36522 0
M  V30 2248 H 201.565 5.2654 2.87881 0
M  V30 2249 H 202.635 4.55777 1.65514 0
M  V30 2250 N 203.978 -0.674533 1.42435 0
M  V30 2251 C 204.926 -1.80934 1.46169 0
M  V30 2252 C 205.92 -1.66006 0.3374 0
M  V30 2253 O 207.126 -1.72611 0.510425 0
M  V30 2254 H 203.501 -0.596594 0.457798 0
M  V30 2255 H 205.472 -1.74903 2.41767 0
M  V30 2256 C 204.221 -3.19088 1.38123 0
M  V30 2257 H 203.544 -3.31203 2.23931 0
M  V30 2258 H 204.984 -3.9851 1.44797 0
M  V30 2259 C 203.443 -3.36763 0.0960517 0
M  V30 2260 O 203.973 -3.92581 -0.851073 0
M  V30 2261 N 202.179 -2.90597 0.0131186 0
M  V30 2262 H 201.726 -2.45359 0.784639 0
M  V30 2263 H 201.684 -3.028 -0.846133 0
M  V30 2264 N 205.456 -1.28612 -0.910864 0
M  V30 2265 C 206.386 -1.15326 -2.03032 0
M  V30 2266 C 207.367 -0.0502924 -1.70026 0
M  V30 2267 O 208.552 -0.227797 -1.92859 0
M  V30 2268 C 205.682 -0.817343 -3.37545 0
M  V30 2269 C 204.636 -1.8754 -3.84724 0
M  V30 2270 C 203.962 -1.39305 -5.16235 0
M  V30 2271 C 205.262 -3.28244 -4.06267 0
M  V30 2272 H 206.956 -2.08975 -2.14406 0
M  V30 2273 H 204.502 -1.00612 -1.03021 0
M  V30 2274 H 206.455 -0.711151 -4.15356 0
M  V30 2275 H 205.179 0.154846 -3.26233 0
M  V30 2276 H 203.838 -1.97079 -3.09121 0
M  V30 2277 H 203.486 -0.409846 -5.01328 0
M  V30 2278 H 203.186 -2.10057 -5.48771 0
M  V30 2279 H 204.71 -1.30014 -5.96598 0
M  V30 2280 H 206.124 -3.21611 -4.74594 0
M  V30 2281 H 204.521 -3.96855 -4.5014 0
M  V30 2282 H 205.591 -3.72048 -3.10979 0
M  V30 2283 N 206.934 1.1197 -1.10907 0
M  V30 2284 C 208.18 1.8386 -0.855773 0
M  V30 2285 C 208.513 1.84134 0.617103 0
M  V30 2286 O 207.788 1.29041 1.45529 0
M  V30 2287 C 208.071 3.31305 -1.411 0
M  V30 2288 C 207.924 3.39456 -2.9511 0
M  V30 2289 C 209.243 4.2721 -1.05736 0
M  V30 2290 H 206.362 0.667545 -0.312334 0
M  V30 2291 H 209.004 1.31331 -1.37303 0
M  V30 2292 H 207.154 3.76169 -0.97105 0
M  V30 2293 H 208.826 3.03191 -3.47668 0
M  V30 2294 H 207.069 2.79849 -3.31462 0
M  V30 2295 H 207.74 4.43209 -3.29044 0
M  V30 2296 H 210.216 3.90497 -1.43706 0
M  V30 2297 H 209.092 5.28775 -1.47269 0
M  V30 2298 H 209.353 4.42088 0.0325958 0
M  V30 2299 N 208.412 0.89855 1.29475 0
M  V30 2300 C 209.344 0.332726 2.26772 0
M  V30 2301 C 210.357 -0.520323 1.54261 0
M  V30 2302 O 211.546 -0.337668 1.75277 0
M  V30 2303 C 208.646 -0.544334 3.345 0
M  V30 2304 C 207.819 0.282728 4.36485 0
M  V30 2305 C 206.878 -0.526982 5.23555 0
M  V30 2306 O 205.904 0.0551165 5.69173 0
M  V30 2307 N 207.106 -1.83331 5.5079 0
M  V30 2308 H 209.871 1.16897 2.75962 0
M  V30 2309 H 207.432 0.762919 1.42798 0
M  V30 2310 H 209.424 -1.09239 3.89678 0
M  V30 2311 H 207.994 -1.28127 2.85136 0
M  V30 2312 H 207.214 1.01221 3.80983 0
M  V30 2313 H 208.502 0.84918 5.01664 0
M  V30 2314 H 207.9 -2.32898 5.15534 0
M  V30 2315 H 206.457 -2.32852 6.08788 0
M  V30 2316 N 209.89 -1.43072 0.660911 0
M  V30 2317 C 210.853 -2.29194 -0.0166406 0
M  V30 2318 C 211.853 -1.42609 -0.742912 0
M  V30 2319 O 213.043 -1.64155 -0.583004 0
M  V30 2320 C 210.175 -3.24831 -1.0343 0
M  V30 2321 H 211.368 -2.90596 0.741208 0
M  V30 2322 H 208.921 -1.5048 0.422532 0
M  V30 2323 H 209.656 -2.68339 -1.82111 0
M  V30 2324 H 209.441 -3.88676 -0.517082 0
M  V30 2325 H 210.931 -3.89451 -1.50723 0
M  V30 2326 N 211.368 -0.403325 -1.52352 0
M  V30 2327 C 212.298 0.416205 -2.29761 0
M  V30 2328 C 213.279 1.05123 -1.33728 0
M  V30 2329 O 214.464 1.06134 -1.62632 0
M  V30 2330 C 211.594 1.53624 -3.11475 0
M  V30 2331 C 210.548 1.02653 -4.15507 0
M  V30 2332 C 209.874 2.23971 -4.85532 0
M  V30 2333 C 211.174 0.08463 -5.22231 0
M  V30 2334 H 212.868 -0.229701 -2.98518 0
M  V30 2335 H 210.414 -0.111913 -1.43564 0
M  V30 2336 H 212.367 2.1165 -3.64393 0
M  V30 2337 H 211.091 2.20994 -2.40477 0
M  V30 2338 H 209.75 0.46871 -3.63591 0
M  V30 2339 H 209.398 2.89883 -4.11068 0
M  V30 2340 H 209.098 1.90521 -5.55856 0
M  V30 2341 H 210.622 2.82614 -5.41259 0
M  V30 2342 H 212.036 0.573509 -5.70424 0
M  V30 2343 H 210.433 -0.160783 -5.99885 0
M  V30 2344 H 211.503 -0.86237 -4.7717 0
M  V30 2345 N 212.846 1.57033 -0.133567 0
M  V30 2346 C 214.262 1.58035 0.222944 0
M  V30 2347 C 214.462 1.14713 1.6566 0
M  V30 2348 O 213.518 0.841218 2.38075 0
M  V30 2349 C 214.831 3.00691 -0.0236116 0
M  V30 2350 C 216.379 3.12973 0.0411512 0
M  V30 2351 C 216.854 4.57654 -0.177899 0
M  V30 2352 N 218.345 4.63033 -0.124365 0
M  V30 2353 C 219.08 5.72771 -0.268553 0
M  V30 2354 N 218.576 6.91206 -0.46972 0
M  V30 2355 N 220.369 5.61718 -0.2071 0
M  V30 2356 H 212.52 1.8349 -1.06981 0
M  V30 2357 H 214.783 0.848677 -0.422436 0
M  V30 2358 H 214.489 3.36726 -1.0153 0
M  V30 2359 H 214.363 3.70614 0.701808 0
M  V30 2360 H 216.75 2.76787 1.02338 0
M  V30 2361 H 216.831 2.45564 -0.716383 0
M  V30 2362 H 216.475 4.94542 -1.15717 0
M  V30 2363 H 216.405 5.23173 0.599797 0
M  V30 2364 H 218.896 3.7789 0.027011 0
M  V30 2365 H 219.209 7.70693 -0.570212 0
M  V30 2366 H 217.554 6.93156 -0.505876 0
M  V30 2367 H 220.745 4.68072 -0.0507986 0
M  V30 2368 H 220.918 6.47195 -0.322909 0
M  V30 2369 N 214.325 -0.140222 1.56975 0
M  V30 2370 C 215.257 -1.19818 1.95388 0
M  V30 2371 C 216.27 -1.38816 0.850525 0
M  V30 2372 O 217.459 -1.38267 1.12891 0
M  V30 2373 C 214.559 -2.56189 2.21857 0
M  V30 2374 C 213.732 -2.58077 3.5315 0
M  V30 2375 C 212.791 -3.76037 3.6808 0
M  V30 2376 O 211.817 -3.60598 4.40406 0
M  V30 2377 N 213.019 -4.93763 3.05251 0
M  V30 2378 H 215.784 -0.871609 2.86746 0
M  V30 2379 H 213.345 -0.32972 1.58507 0
M  V30 2380 H 215.337 -3.33623 2.2908 0
M  V30 2381 H 213.907 -2.81111 1.36731 0
M  V30 2382 H 213.127 -1.6651 3.57307 0
M  V30 2383 H 214.415 -2.56377 4.39486 0
M  V30 2384 H 213.813 -5.09209 2.46419 0
M  V30 2385 H 212.37 -5.68949 3.18026 0
M  V30 2386 N 215.803 -1.52179 -0.40978 0
M  V30 2387 C 217.05 -1.66206 -1.15679 0
M  V30 2388 C 217.378 -0.391674 -1.90516 0
M  V30 2389 O 216.633 0.62533 -1.8544 0
M  V30 2390 C 216.932 -2.83428 -2.17723 0
M  V30 2391 C 216.598 -4.21672 -1.59699 0
M  V30 2392 C 215.26 -4.59274 -1.43599 0
M  V30 2393 C 217.612 -5.07825 -1.17317 0
M  V30 2394 C 214.94 -5.80709 -0.836328 0
M  V30 2395 C 217.292 -6.29864 -0.587691 0
M  V30 2396 C 215.956 -6.66216 -0.413818 0
M  V30 2397 H 215.226 -0.608192 -0.423301 0
M  V30 2398 H 217.873 -1.86279 -0.444097 0
M  V30 2399 H 216.178 -2.57687 -2.95135 0
M  V30 2400 H 217.875 -2.91477 -2.75394 0
M  V30 2401 H 214.465 -3.9204 -1.73213 0
M  V30 2402 H 218.649 -4.79359 -1.28565 0
M  V30 2403 H 213.905 -6.07498 -0.689626 0
M  V30 2404 H 218.079 -6.95948 -0.250894 0
M  V30 2405 H 215.706 -7.60182 0.0529471 0
M  V30 2406 N 217.281 0.66697 -1.42791 0
M  V30 2407 C 218.211 1.79218 -1.49677 0
M  V30 2408 C 219.192 1.66405 -0.352623 0
M  V30 2409 O 220.377 1.85708 -0.567993 0
M  V30 2410 C 217.507 3.17565 -1.40605 0
M  V30 2411 C 216.461 3.45124 -2.53127 0
M  V30 2412 C 215.787 4.83127 -2.29112 0
M  V30 2413 C 217.087 3.41236 -3.95418 0
M  V30 2414 H 218.781 1.73713 -2.43853 0
M  V30 2415 H 216.327 0.83432 -1.17367 0
M  V30 2416 H 218.28 3.96022 -1.44029 0
M  V30 2417 H 217.004 3.23767 -0.429271 0
M  V30 2418 H 215.663 2.69031 -2.49034 0
M  V30 2419 H 215.311 4.85988 -1.29709 0
M  V30 2420 H 215.011 5.02528 -3.04531 0
M  V30 2421 H 216.535 5.63859 -2.34297 0
M  V30 2422 H 217.949 4.09651 -4.01073 0
M  V30 2423 H 216.346 3.72173 -4.70752 0
M  V30 2424 H 217.416 2.39665 -4.21532 0
M  V30 2425 N 218.759 1.29093 0.90403 0
M  V30 2426 C 220.005 1.17996 1.65676 0
M  V30 2427 C 220.36 -0.266816 1.90541 0
M  V30 2428 O 219.653 -1.19 1.50165 0
M  V30 2429 C 219.847 1.92224 3.01305 0
M  V30 2430 C 219.676 3.43972 2.89678 0
M  V30 2431 C 218.446 4.1332 2.90679 0
M  V30 2432 C 220.644 4.39546 2.67028 0
M  V30 2433 N 218.626 5.51463 2.69743 0
M  V30 2434 C 219.997 5.65119 2.5503 0
M  V30 2435 C 222.052 4.29359 2.52101 0
M  V30 2436 C 220.755 6.81663 2.29626 0
M  V30 2437 C 222.781 5.4565 2.28079 0
M  V30 2438 C 222.143 6.70193 2.16843 0
M  V30 2439 H 218.242 0.486759 0.612037 0
M  V30 2440 H 220.826 1.62868 1.06688 0
M  V30 2441 H 218.997 1.49773 3.58361 0
M  V30 2442 H 220.729 1.73429 3.65656 0
M  V30 2443 H 217.484 3.64984 3.01801 0
M  V30 2444 H 217.908 6.24105 2.6234 0
M  V30 2445 H 222.55 3.33769 2.59534 0
M  V30 2446 H 220.268 7.77313 2.20932 0
M  V30 2447 H 223.854 5.39664 2.1738 0
M  V30 2448 H 222.734 7.58659 1.98511 0
M  V30 2449 N 220.237 -1.11381 1.11499 0
M  V30 2450 C 221.462 -1.87475 0.887019 0
M  V30 2451 C 221.887 -1.79639 -0.557796 0
M  V30 2452 O 221.245 -1.15924 -1.39396 0
M  V30 2453 C 221.293 -3.34213 1.35403 0
M  V30 2454 O 220.397 -4.0903 0.526146 0
M  V30 2455 H 219.738 -0.582099 0.319463 0
M  V30 2456 H 222.268 -1.40785 1.48461 0
M  V30 2457 H 222.278 -3.8506 1.34881 0
M  V30 2458 H 220.953 -3.39232 2.40612 0
M  V30 2459 H 219.53 -3.68082 0.597522 0
M  V30 2460 N 221.715 -0.905404 -1.28997 0
M  V30 2461 C 222.962 -0.534248 -1.95325 0
M  V30 2462 C 223.29 0.920535 -1.71337 0
M  V30 2463 O 222.545 1.66861 -1.02254 0
M  V30 2464 C 222.844 -0.779906 -3.48787 0
M  V30 2465 C 222.51 -2.21293 -3.92861 0
M  V30 2466 C 221.172 -2.60475 -4.04606 0
M  V30 2467 C 223.524 -3.14587 -4.15553 0
M  V30 2468 C 220.852 -3.9212 -4.36416 0
M  V30 2469 C 223.204 -4.45787 -4.48839 0
M  V30 2470 C 221.868 -4.84834 -4.58794 0
M  V30 2471 H 221.138 -0.195495 -0.714747 0
M  V30 2472 H 223.785 -1.14514 -1.53488 0
M  V30 2473 H 222.09 -0.0861365 -3.91705 0
M  V30 2474 H 223.787 -0.472029 -3.98212 0
M  V30 2475 H 220.377 -1.89887 -3.84241 0
M  V30 2476 H 224.561 -2.85528 -4.0594 0
M  V30 2477 H 219.817 -4.22086 -4.42327 0
M  V30 2478 H 223.991 -5.18098 -4.65346 0
M  V30 2479 H 221.618 -5.86877 -4.83197 0
M  V30 2480 N 223.193 1.4272 -0.668489 0
M  V30 2481 C 224.609 1.55992 -0.33745 0
M  V30 2482 C 224.809 1.64933 1.15756 0
M  V30 2483 O 223.865 1.61278 1.94282 0
M  V30 2484 C 225.178 2.81314 -1.06222 0
M  V30 2485 C 226.726 2.95078 -1.04394 0
M  V30 2486 C 227.201 4.23252 -1.74991 0
M  V30 2487 N 228.692 4.3015 -1.71829 0
M  V30 2488 C 229.427 5.28127 -2.23315 0
M  V30 2489 N 228.923 6.32293 -2.83156 0
M  V30 2490 N 230.716 5.19882 -2.13726 0
M  V30 2491 H 222.867 1.3516 -1.63846 0
M  V30 2492 H 225.13 0.650174 -0.689912 0
M  V30 2493 H 224.836 2.80823 -2.11734 0
M  V30 2494 H 224.71 3.72012 -0.62344 0
M  V30 2495 H 227.097 2.951 0.0028244 0
M  V30 2496 H 227.178 2.05627 -1.52155 0
M  V30 2497 H 226.822 4.2399 -2.79633 0
M  V30 2498 H 226.752 5.11626 -1.24685 0
M  V30 2499 H 229.243 3.55499 -1.28175 0
M  V30 2500 H 229.556 7.03398 -3.20079 0
M  V30 2501 H 227.901 6.32873 -2.87223 0
M  V30 2502 H 231.092 4.37423 -1.66669 0
M  V30 2503 H 231.265 5.96077 -2.54158 0
M  V30 2504 N 224.671 0.411399 1.52136 0
M  V30 2505 C 225.601 -0.404015 2.29978 0
M  V30 2506 C 226.582 -1.04412 1.34284 0
M  V30 2507 O 227.767 -1.0527 1.63192 0
M  V30 2508 C 224.897 -1.5197 3.12286 0
M  V30 2509 C 223.851 -1.00448 4.16046 0
M  V30 2510 C 223.177 -2.21393 4.86712 0
M  V30 2511 C 224.477 -0.0569336 5.22269 0
M  V30 2512 H 226.171 0.245529 2.98392 0
M  V30 2513 H 223.717 0.119525 1.43503 0
M  V30 2514 H 225.67 -2.09715 3.6551 0
M  V30 2515 H 224.394 -2.19716 2.41646 0
M  V30 2516 H 223.053 -0.449421 3.63835 0
M  V30 2517 H 222.701 -2.87699 4.12599 0
M  V30 2518 H 222.401 -1.87571 5.56858 0
M  V30 2519 H 223.925 -2.7974 5.4275 0
M  V30 2520 H 225.339 -0.54325 5.7072 0
M  V30 2521 H 223.736 0.192594 5.99791 0
M  V30 2522 H 224.806 0.887663 4.76706 0
M  V30 2523 N 226.149 -1.5696 0.141893 0
M  V30 2524 C 227.56 -1.82797 -0.379776 0
M  V30 2525 C 227.911 -1.06033 -1.6508 0
M  V30 2526 O 227.036 -0.304011 -2.14254 0
M  V30 2527 C 227.631 -3.31578 -0.695802 0
M  V30 2528 C 226.19 -3.58014 -1.16201 0
M  V30 2529 C 225.337 -2.76699 -0.182455 0
M  V30 2530 H 228.288 -1.54406 0.366675 0
M  V30 2531 H 228.309 -3.47454 -1.55099 0
M  V30 2532 H 227.821 -3.87421 0.229449 0
M  V30 2533 H 225.922 -3.07553 -2.10338 0
M  V30 2534 H 226.035 -4.66501 -1.09151 0
M  V30 2535 H 224.399 -2.45618 -0.674072 0
M  V30 2536 H 225.182 -3.35311 0.736297 0
M  V30 2537 N 227.627 0.131896 -1.57047 0
M  V30 2538 C 228.875 0.840269 -1.83804 0
M  V30 2539 C 229.196 1.81017 -0.72512 0
M  V30 2540 O 228.466 1.94272 0.251995 0
M  V30 2541 H 227.046 0.313294 -0.678127 0
M  V30 2542 H 229.708 0.122294 -1.94516 0
M  V30 2543 H 228.804 1.39335 -2.79271 0
M  V30 2544 N 229.106 1.52395 0.401703 0
M  V30 2545 C 230.016 1.7917 1.51444 0
M  V30 2546 C 231.032 0.677691 1.6026 0
M  V30 2547 O 232.208 0.963909 1.76835 0
M  V30 2548 C 229.273 1.94347 2.87107 0
M  V30 2549 C 228.334 3.18257 2.88116 0
M  V30 2550 C 227.567 3.32701 4.17308 0
M  V30 2551 O 227.79 2.52238 5.11598 0
M  V30 2552 O 226.724 4.25891 4.25324 0
M  V30 2553 H 230.55 2.73633 1.31752 0
M  V30 2554 H 228.135 1.3733 0.588296 0
M  V30 2555 H 230.017 2.06109 3.67555 0
M  V30 2556 H 228.692 1.03073 3.06851 0
M  V30 2557 H 227.599 3.11947 2.06494 0
M  V30 2558 H 228.932 4.09336 2.73322 0
M  V30 2559 N 230.584 -0.659388 1.43143 0
M  V30 2560 C 231.547 -1.75432 1.47501 0
M  V30 2561 C 232.547 -1.56707 0.360512 0
M  V30 2562 O 233.737 -1.62717 0.622002 0
M  V30 2563 C 230.869 -3.14239 1.32162 0
M  V30 2564 H 232.062 -1.7295 2.45006 0
M  V30 2565 H 229.615 -0.870469 1.29817 0
M  V30 2566 H 230.35 -3.22336 0.356401 0
M  V30 2567 H 230.135 -3.29235 2.12948 0
M  V30 2568 H 231.625 -3.94094 1.3813 0
M  V30 2569 N 232.062 -1.29571 -0.897171 0
M  V30 2570 C 232.994 -1.10724 -2.00681 0
M  V30 2571 C 234.007 -0.0540026 -1.6271 0
M  V30 2572 O 235.196 -0.298783 -1.75982 0
M  V30 2573 C 232.296 -0.663912 -3.32333 0
M  V30 2574 C 231.469 -1.79622 -3.98816 0
M  V30 2575 C 230.528 -1.34349 -5.0876 0
M  V30 2576 O 229.554 -2.04864 -5.31055 0
M  V30 2577 N 230.756 -0.215764 -5.80099 0
M  V30 2578 H 233.521 -2.06291 -2.17403 0
M  V30 2579 H 231.082 -1.21544 -1.06951 0
M  V30 2580 H 233.074 -0.344295 -4.03233 0
M  V30 2581 H 231.644 0.199375 -3.11964 0
M  V30 2582 H 230.864 -2.28459 -3.21248 0
M  V30 2583 H 232.152 -2.55535 -4.39976 0
M  V30 2584 H 231.55 0.372091 -5.64475 0
M  V30 2585 H 230.107 0.0444707 -6.51785 0
M  V30 2586 N 233.54 1.10788 -1.12088 0
M  V30 2587 C 234.487 2.17025 -0.785407 0
M  V30 2588 C 235.457 1.64265 0.246191 0
M  V30 2589 O 236.642 1.90412 0.121584 0
M  V30 2590 C 233.782 3.44249 -0.242177 0
M  V30 2591 C 232.895 4.1098 -1.33115 0
M  V30 2592 C 232.03 5.25911 -0.747741 0
M  V30 2593 C 231.069 5.84538 -1.81609 0
M  V30 2594 N 230.206 6.90853 -1.25167 0
M  V30 2595 H 235.046 2.45066 -1.69548 0
M  V30 2596 H 232.583 1.20297 -0.846582 0
M  V30 2597 H 234.541 4.17101 0.0908026 0
M  V30 2598 H 233.171 3.16571 0.631072 0
M  V30 2599 H 232.223 3.36133 -1.78097 0
M  V30 2600 H 233.535 4.50601 -2.13917 0
M  V30 2601 H 232.689 6.056 -0.365216 0
M  V30 2602 H 231.428 4.87614 0.0915188 0
M  V30 2603 H 230.433 5.03522 -2.20785 0
M  V30 2604 H 231.658 6.249 -2.6585 0
M  V30 2605 H 229.604 6.54562 -0.434174 0
M  V30 2606 H 229.521 7.29166 -1.99633 0
M  V30 2607 H 230.789 7.7433 -0.896259 0
M  V30 2608 N 235.018 0.912232 1.28515 0
M  V30 2609 C 236.267 0.540504 1.94323 0
M  V30 2610 C 236.58 -0.920044 1.72611 0
M  V30 2611 O 237.786 -1.39986 2.32629 0
M  V30 2612 C 236.242 0.915803 3.48053 0
M  V30 2613 C 235.85 2.39598 3.78546 0
M  V30 2614 C 237.594 0.614588 4.20027 0
M  V30 2615 C 235.501 2.71148 5.25578 0
M  V30 2616 H 234.431 0.198418 0.727424 0
M  V30 2617 H 237.082 1.11094 1.46049 0
M  V30 2618 H 235.464 0.274168 3.9505 0
M  V30 2619 H 236.638 3.08422 3.42364 0
M  V30 2620 H 234.953 2.66749 3.1974 0
M  V30 2621 H 237.55 0.827002 5.28266 0
M  V30 2622 H 237.893 -0.447531 4.13887 0
M  V30 2623 H 238.426 1.21462 3.78803 0
M  V30 2624 H 235.165 3.76207 5.36794 0
M  V30 2625 H 234.685 2.0696 5.62963 0
M  V30 2626 H 236.364 2.58072 5.93302 0
M  V30 2627 N 236.496 -1.42363 0.676048 0
M  V30 2628 C 237.773 -1.95183 0.127726 0
M  V30 2629 C 238.153 -1.61641 -1.35777 0
M  V30 2630 O 237.501 -0.913216 -2.09458 0
M  V30 2631 C 237.711 -3.46721 0.398199 0
M  V30 2632 C 239.059 -4.23427 0.315383 0
M  V30 2633 O 240.083 -3.54649 0.332016 0
M  V30 2634 O 238.942 -5.45888 0.25865 0
M  V30 2635 H 236.036 -0.826992 0.00359427 0
M  V30 2636 H 238.582 -1.52184 0.750864 0
M  V30 2637 H 237.354 -3.64344 1.4272 0
M  V30 2638 H 236.977 -3.96769 -0.256885 0
M  V30 2639 N 237.974 -0.419461 -1.51915 0
M  V30 2640 C 239.39 -0.0708431 -1.59443 0
M  V30 2641 C 239.59 1.41796 -1.43164 0
M  V30 2642 O 238.646 2.18596 -1.26381 0
M  V30 2643 C 239.959 -0.574991 -2.95151 0
M  V30 2644 C 241.507 -0.533867 -3.08413 0
M  V30 2645 C 241.982 -1.01469 -4.46618 0
M  V30 2646 N 243.473 -0.971939 -4.52888 0
M  V30 2647 C 244.208 -1.31505 -5.58116 0
M  V30 2648 N 243.704 -1.73014 -6.70849 0
M  V30 2649 N 245.497 -1.23436 -5.48379 0
M  V30 2650 H 237.648 -1.38836 -1.60743 0
M  V30 2651 H 239.911 -0.570998 -0.756747 0
M  V30 2652 H 239.617 -1.61597 -3.12377 0
M  V30 2653 H 239.491 0.00979777 -3.77199 0
M  V30 2654 H 241.878 0.498086 -2.90866 0
M  V30 2655 H 241.959 -1.15484 -2.28248 0
M  V30 2656 H 241.603 -2.04502 -4.6491 0
M  V30 2657 H 241.533 -0.370433 -5.25295 0
M  V30 2658 H 244.024 -0.666893 -3.71969 0
M  V30 2659 H 244.337 -1.97479 -7.47143 0
M  V30 2660 H 242.682 -1.76926 -6.72103 0
M  V30 2661 H 245.873 -0.908869 -4.59192 0
M  V30 2662 H 246.046 -1.50506 -6.30279 0
M  V30 2663 N 239.452 1.56882 -0.150215 0
M  V30 2664 C 240.385 2.12712 0.826358 0
M  V30 2665 C 241.363 1.05154 1.24022 0
M  V30 2666 O 242.547 1.33004 1.33575 0
M  V30 2667 C 239.674 2.64945 2.11002 0
M  V30 2668 C 238.72 3.8468 1.84183 0
M  V30 2669 S 239.553 5.25502 1.02995 0
M  V30 2670 C 240.709 5.81125 2.32474 0
M  V30 2671 H 240.942 2.95214 0.351598 0
M  V30 2672 H 238.475 1.54267 0.0641211 0
M  V30 2673 H 240.433 2.95689 2.84742 0
M  V30 2674 H 239.094 1.82568 2.55593 0
M  V30 2675 H 238.287 4.19482 2.79375 0
M  V30 2676 H 237.889 3.54714 1.1855 0
M  V30 2677 H 240.181 5.92753 3.281 0
M  V30 2678 H 241.124 6.78625 2.02171 0
M  V30 2679 H 241.532 5.09392 2.43269 0
M  V30 2680 N 240.93 -0.123565 1.57115 0
M  V30 2681 C 241.863 -1.18202 1.95201 0
M  V30 2682 C 242.841 -1.40349 0.821031 0
M  V30 2683 O 244.025 -1.54578 1.07879 0
M  V30 2684 C 241.152 -2.53671 2.24429 0
M  V30 2685 C 240.198 -2.4798 3.46999 0
M  V30 2686 S 241.031 -1.92389 4.99747 0
M  V30 2687 C 242.187 -3.2954 5.32123 0
M  V30 2688 H 242.42 -0.857212 2.84674 0
M  V30 2689 H 239.953 -0.33014 1.50829 0
M  V30 2690 H 241.911 -3.3162 2.41947 0
M  V30 2691 H 240.572 -2.83332 1.35579 0
M  V30 2692 H 239.765 -3.47758 3.64801 0
M  V30 2693 H 239.367 -1.7815 3.28844 0
M  V30 2694 H 241.659 -4.25736 5.27025 0
M  V30 2695 H 242.602 -3.16569 6.33395 0
M  V30 2696 H 243.01 -3.27758 4.59603 0
M  V30 2697 N 242.408 -1.52605 -0.393616 0
M  V30 2698 C 243.318 -1.79971 -1.50492 0
M  V30 2699 C 244.334 -0.686181 -1.59899 0
M  V30 2700 O 245.51 -0.973274 -1.76322 0
M  V30 2701 C 242.575 -1.95867 -2.86072 0
M  V30 2702 C 241.636 -3.19781 -2.86424 0
M  V30 2703 C 240.869 -3.34909 -4.15538 0
M  V30 2704 O 241.092 -2.54948 -5.10253 0
M  V30 2705 O 240.026 -4.28141 -4.23059 0
M  V30 2706 H 243.852 -2.74328 -1.30299 0
M  V30 2707 H 241.437 -1.3764 -0.581005 0
M  V30 2708 H 243.319 -2.08056 -3.66457 0
M  V30 2709 H 241.994 -1.04699 -3.063 0
M  V30 2710 H 240.901 -3.13038 -2.04837 0
M  V30 2711 H 242.234 -4.1078 -2.71147 0
M  V30 2712 N 243.887 0.651787 -1.4349 0
M  V30 2713 C 244.85 1.74647 -1.48429 0
M  V30 2714 C 245.85 1.56513 -0.368817 0
M  V30 2715 O 247.04 1.62385 -0.630623 0
M  V30 2716 C 244.172 3.13533 -1.33827 0
M  V30 2717 H 245.365 1.71649 -2.4592 0
M  V30 2718 H 242.918 0.863573 -1.30277 0
M  V30 2719 H 243.653 3.22142 -0.37349 0
M  V30 2720 H 243.438 3.28101 -2.14691 0
M  V30 2721 H 244.928 3.93356 -1.40218 0
M  V30 2722 N 245.365 1.30045 0.890287 0
M  V30 2723 C 246.612 1.18561 1.64163 0
M  V30 2724 C 246.94 -0.260852 1.92743 0
M  V30 2725 O 246.195 -1.20376 1.54299 0
M  V30 2726 C 246.494 1.95409 2.99249 0
M  V30 2727 C 246.16 3.45066 2.90242 0
M  V30 2728 C 244.822 3.85878 2.87492 0
M  V30 2729 C 247.174 4.4039 2.78758 0
M  V30 2730 C 244.502 5.20314 2.7109 0
M  V30 2731 C 246.854 5.74928 2.63894 0
M  V30 2732 C 245.518 6.14986 2.59516 0
M  V30 2733 H 244.788 0.433846 0.600715 0
M  V30 2734 H 247.435 1.61088 1.03552 0
M  V30 2735 H 245.74 1.45501 3.63781 0
M  V30 2736 H 247.437 1.8392 3.56334 0
M  V30 2737 H 244.027 3.12631 2.93189 0
M  V30 2738 H 248.211 4.09806 2.79952 0
M  V30 2739 H 243.467 5.50449 2.66112 0
M  V30 2740 H 247.641 6.48434 2.53981 0
M  V30 2741 H 245.268 7.19104 2.46565 0
M  V30 2742 N 246.843 -1.10192 1.12674 0
M  V30 2743 C 247.806 -2.14786 0.799979 0
M  V30 2744 C 248.806 -1.59711 -0.18685 0
M  V30 2745 O 249.996 -1.74156 0.0392558 0
M  V30 2746 C 247.128 -3.40374 0.189228 0
M  V30 2747 H 248.321 -2.45203 1.72671 0
M  V30 2748 H 245.874 -1.25597 0.930326 0
M  V30 2749 H 246.609 -3.15577 -0.747107 0
M  V30 2750 H 246.394 -3.81637 0.899766 0
M  V30 2751 H 247.884 -4.17594 -0.0228143 0
M  V30 2752 N 248.321 -0.919034 -1.28029 0
M  V30 2753 C 249.253 -0.368762 -2.26214 0
M  V30 2754 C 250.266 0.495716 -1.55069 0
M  V30 2755 O 251.455 0.30974 -1.75792 0
M  V30 2756 C 248.555 0.491049 -3.35324 0
M  V30 2757 C 247.728 -0.352133 -4.3598 0
M  V30 2758 C 246.787 0.443622 -5.24327 0
M  V30 2759 O 245.813 -0.14566 -5.69014 0
M  V30 2760 N 247.015 1.74545 -5.53637 0
M  V30 2761 H 249.78 -1.21273 -2.74068 0
M  V30 2762 H 247.341 -0.785541 -1.41566 0
M  V30 2763 H 249.333 1.03026 -3.91366 0
M  V30 2764 H 247.903 1.23574 -2.87138 0
M  V30 2765 H 247.123 -1.07269 -3.79324 0
M  V30 2766 H 248.411 -0.928883 -5.00249 0
M  V30 2767 H 247.809 2.24666 -5.19174 0
M  V30 2768 H 246.366 2.23138 -6.12416 0
M  V30 2769 N 249.799 1.42003 -0.683588 0
M  V30 2770 C 251.215 1.55625 -0.353976 0
M  V30 2771 C 251.415 1.66151 1.14 0
M  V30 2772 O 250.471 1.63329 1.92561 0
M  V30 2773 C 251.784 2.80171 -1.092 0
M  V30 2774 C 253.332 2.93954 -1.07518 0
M  V30 2775 C 253.807 4.21372 -1.79471 0
M  V30 2776 N 255.298 4.28303 -1.76381 0
M  V30 2777 C 256.033 5.25729 -2.28904 0
M  V30 2778 N 255.529 6.29254 -2.89846 0
M  V30 2779 N 257.322 5.17586 -2.19228 0
M  V30 2780 H 249.473 1.33415 -1.6527 0
M  V30 2781 H 251.736 0.64282 -0.696769 0
M  V30 2782 H 251.442 2.78561 -2.14701 0
M  V30 2783 H 251.316 3.7133 -0.662862 0
M  V30 2784 H 253.703 2.95086 -0.028475 0
M  V30 2785 H 253.784 2.04002 -1.54328 0
M  V30 2786 H 253.428 4.21001 -2.84114 0
M  V30 2787 H 253.358 5.10275 -1.30104 0
M  V30 2788 H 255.849 3.54119 -1.31939 0
M  V30 2789 H 256.162 6.99964 -3.27522 0
M  V30 2790 H 254.507 6.29791 -2.93919 0
M  V30 2791 H 257.698 4.35631 -1.71299 0
M  V30 2792 H 257.871 5.93348 -2.60466 0
M  V30 2793 N 251.277 0.427512 1.51691 0
M  V30 2794 C 252.507 -0.140986 2.06118 0
M  V30 2795 C 252.915 -1.37854 1.29588 0
M  V30 2796 O 252.258 -1.80411 0.346036 0
M  V30 2797 C 252.32 -0.538276 3.55447 0
M  V30 2798 C 251.984 0.591095 4.53161 0
M  V30 2799 C 252.981 1.46027 4.98971 0
M  V30 2800 C 250.666 0.769028 4.96378 0
M  V30 2801 C 252.66 2.49216 5.8666 0
M  V30 2802 C 250.347 1.80421 5.83859 0
M  V30 2803 C 251.345 2.66417 6.28897 0
M  V30 2804 O 251.033 3.68159 7.14643 0
M  V30 2805 H 250.765 -0.0157455 0.675817 0
M  V30 2806 H 253.319 0.602495 1.96365 0
M  V30 2807 H 251.549 -1.33432 3.6295 0
M  V30 2808 H 253.238 -1.0368 3.92435 0
M  V30 2809 H 254.004 1.33429 4.66285 0
M  V30 2810 H 249.883 0.109273 4.6087 0
M  V30 2811 H 253.427 3.16372 6.21735 0
M  V30 2812 H 249.324 1.93042 6.15959 0
M  V30 2813 H 250.092 3.64622 7.32798 0
M  V30 2814 N 252.755 -1.56801 0.158532 0
M  V30 2815 C 253.995 -1.98383 -0.49229 0
M  V30 2816 C 254.359 -1.04184 -1.61275 0
M  V30 2817 O 255.56 -1.34856 -2.32524 0
M  V30 2818 C 253.831 -3.4385 -0.974766 0
M  V30 2819 S 255.39 -4.07459 -1.62857 0
M  V30 2820 H 252.208 -0.693041 -0.158794 0
M  V30 2821 H 254.81 -1.93856 0.252974 0
M  V30 2822 H 253.514 -4.10131 -0.148688 0
M  V30 2823 H 253.045 -3.52115 -1.75438 0
M  V30 2824 H 255.06 -4.01458 -2.91627 0
M  V30 2825 N 254.233 0.115231 -1.57178 0
M  V30 2826 C 255.163 1.1423 -2.03651 0
M  V30 2827 C 256.144 1.42967 -0.921655 0
M  V30 2828 O 257.329 1.53343 -1.19162 0
M  V30 2829 C 254.459 2.4675 -2.44401 0
M  V30 2830 C 253.413 2.32467 -3.59365 0
M  V30 2831 C 252.739 3.69984 -3.86026 0
M  V30 2832 C 254.039 1.78203 -4.90959 0
M  V30 2833 H 255.733 0.755749 -2.89705 0
M  V30 2834 H 253.279 0.362093 -1.39373 0
M  V30 2835 H 255.232 3.18854 -2.75517 0
M  V30 2836 H 253.956 2.87302 -1.55322 0
M  V30 2837 H 252.615 1.62811 -3.28463 0
M  V30 2838 H 252.263 4.08028 -2.94147 0
M  V30 2839 H 251.963 3.61279 -4.63412 0
M  V30 2840 H 253.487 4.43587 -4.19599 0
M  V30 2841 H 254.901 2.40128 -5.20587 0
M  V30 2842 H 253.298 1.8031 -5.72371 0
M  V30 2843 H 254.368 0.739876 -4.79222 0
M  V30 2844 N 255.711 1.52812 0.385517 0
M  V30 2845 C 256.951 1.69716 1.13911 0
M  V30 2846 C 257.315 0.42962 1.87132 0
M  V30 2847 O 258.516 0.475071 2.64569 0
M  V30 2848 C 256.787 2.90021 2.0886 0
M  V30 2849 S 258.346 3.27531 2.92009 0
M  V30 2850 H 255.164 0.59739 0.385547 0
M  V30 2851 H 257.766 1.90868 0.423061 0
M  V30 2852 H 256.47 3.80493 1.53797 0
M  V30 2853 H 256.001 2.71213 2.84969 0
M  V30 2854 H 258.016 2.77989 4.11019 0
M  V30 2855 N 257.189 -0.644168 1.43834 0
M  V30 2856 C 258.137 -1.77793 1.49974 0
M  V30 2857 C 259.131 -1.65253 0.372536 0
M  V30 2858 O 260.337 -1.7149 0.546924 0
M  V30 2859 H 256.712 -0.58675 0.47035 0
M  V30 2860 H 258.683 -1.69736 2.45423 0
M  V30 2861 C 257.432 -3.16087 1.4486 0
M  V30 2862 H 256.755 -3.26378 2.30905 0
M  V30 2863 H 258.195 -3.95349 1.53217 0
M  V30 2864 C 256.654 -3.36484 0.167463 0
M  V30 2865 O 257.184 -3.94298 -0.767609 0
M  V30 2866 N 255.39 -2.90504 0.0747556 0
M  V30 2867 H 254.937 -2.4364 0.836507 0
M  V30 2868 H 254.895 -3.04527 -0.781714 0
M  V30 2869 N 258.668 -1.30515 -0.883378 0
M  V30 2870 C 260.079 -1.17509 -1.45081 0
M  V30 2871 C 260.43 0.223605 -1.94922 0
M  V30 2872 O 259.555 1.12041 -1.85137 0
M  V30 2873 C 260.15 -2.12715 -2.63701 0
M  V30 2874 C 258.709 -2.03682 -3.16529 0
M  V30 2875 C 257.856 -2.02706 -1.89224 0
M  V30 2876 H 260.807 -1.42762 -0.693165 0
M  V30 2877 H 260.828 -1.70891 -3.39965 0
M  V30 2878 H 260.34 -3.14505 -2.27395 0
M  V30 2879 H 258.441 -1.05039 -3.57488 0
M  V30 2880 H 258.554 -2.92146 -3.7972 0
M  V30 2881 H 256.918 -1.4753 -2.07622 0
M  V30 2882 H 257.701 -3.06229 -1.55174 0
M  V30 2883 N 260.146 1.09593 -1.13257 0
M  V30 2884 C 261.394 1.81375 -0.891492 0
M  V30 2885 C 261.715 1.86049 0.584009 0
M  V30 2886 O 260.985 1.34481 1.42449 0
M  V30 2887 H 259.565 0.671708 -0.326828 0
M  V30 2888 H 262.227 1.3256 -1.42877 0
M  V30 2889 H 261.323 2.84612 -1.28071 0
M  V30 2890 N 261.624 0.925811 1.2754 0
M  V30 2891 C 262.87 0.566092 1.94739 0
M  V30 2892 C 263.203 -0.890057 1.72603 0
M  V30 2893 O 262.478 -1.63467 1.05399 0
M  V30 2894 C 262.761 0.89054 3.48915 0
M  V30 2895 C 262.614 2.4003 3.80402 0
M  V30 2896 C 263.933 0.395101 4.38323 0
M  V30 2897 H 261.052 0.20714 0.707292 0
M  V30 2898 H 263.694 1.15725 1.50691 0
M  V30 2899 H 261.844 0.387452 3.86563 0
M  V30 2900 H 263.516 2.97494 3.52555 0
M  V30 2901 H 261.759 2.85028 3.2702 0
M  V30 2902 H 262.43 2.57785 4.8811 0
M  V30 2903 H 264.906 0.826241 4.07814 0
M  V30 2904 H 263.782 0.651086 5.45025 0
M  V30 2905 H 264.043 -0.704798 4.36446 0
M  V30 2906 N 263.102 -1.41638 0.69111 0
M  V30 2907 C 264.349 -2.01299 0.220193 0
M  V30 2908 C 264.677 -1.54715 -1.17871 0
M  V30 2909 O 263.932 -0.747193 -1.80874 0
M  V30 2910 C 264.231 -3.56714 0.221277 0
M  V30 2911 C 263.897 -4.22792 1.56709 0
M  V30 2912 C 262.559 -4.40557 1.93554 0
M  V30 2913 C 264.911 -4.59883 2.45268 0
M  V30 2914 C 262.239 -4.92688 3.18552 0
M  V30 2915 C 264.591 -5.13403 3.69595 0
M  V30 2916 C 263.255 -5.29379 4.06589 0
M  V30 2917 H 262.525 -0.736606 0.0805743 0
M  V30 2918 H 265.172 -1.69598 0.889319 0
M  V30 2919 H 263.477 -3.8818 -0.531391 0
M  V30 2920 H 265.174 -4.00678 -0.160547 0
M  V30 2921 H 261.764 -4.09336 1.2705 0
M  V30 2922 H 265.948 -4.45817 2.18084 0
M  V30 2923 H 261.204 -5.03242 3.47214 0
M  V30 2924 H 265.378 -5.41084 4.38407 0
M  V30 2925 H 263.005 -5.69537 5.03519 0
M  V30 2926 N 264.58 -0.43555 -1.51462 0
M  V30 2927 C 265.512 0.41257 -2.25456 0
M  V30 2928 C 266.525 0.987822 -1.29406 0
M  V30 2929 O 267.714 0.882266 -1.55172 0
M  V30 2930 C 264.814 1.58894 -2.99342 0
M  V30 2931 C 263.987 1.13288 -4.22474 0
M  V30 2932 C 263.046 2.17917 -4.78956 0
M  V30 2933 O 262.072 1.77425 -5.40841 0
M  V30 2934 N 263.274 3.50382 -4.62832 0
M  V30 2935 H 266.039 -0.221603 -2.9888 0
M  V30 2936 H 263.6 -0.264342 -1.59727 0
M  V30 2937 H 265.592 2.28508 -3.34015 0
M  V30 2938 H 264.162 2.12849 -2.28941 0
M  V30 2939 H 263.382 0.263881 -3.93316 0
M  V30 2940 H 264.67 0.805542 -5.02383 0
M  V30 2941 H 264.068 3.86013 -4.13534 0
M  V30 2942 H 262.625 4.15895 -5.01871 0
M  V30 2943 N 266.058 1.56714 -0.166846 0
M  V30 2944 C 267.283 2.01557 0.488833 0
M  V30 2945 C 267.708 1.0463 1.56314 0
M  V30 2946 O 267.066 0.0251304 1.81283 0
M  V30 2947 C 267.114 3.4503 1.04818 0
M  V30 2948 O 266.218 3.51163 2.16236 0
M  V30 2949 H 265.559 0.653516 0.117526 0
M  V30 2950 H 268.089 2.02818 -0.269421 0
M  V30 2951 H 268.099 3.84243 1.37191 0
M  V30 2952 H 266.774 4.15077 0.261572 0
M  V30 2953 H 265.351 3.23807 1.84942 0
M  V30 2954 N 267.536 -0.106894 1.57237 0
M  V30 2955 C 268.764 -0.826389 1.8968 0
M  V30 2956 C 269.179 -1.72856 0.759353 0
M  V30 2957 O 268.536 -1.80503 -0.269263 0
M  V30 2958 C 268.587 -1.64967 3.21665 0
M  V30 2959 O 268.308 -0.783804 4.31031 0
M  V30 2960 C 269.809 -2.47326 3.67892 0
M  V30 2961 H 267.029 -0.236927 0.627779 0
M  V30 2962 H 269.573 -0.0876593 2.04312 0
M  V30 2963 H 267.728 -2.34103 3.08666 0
M  V30 2964 H 268.142 -1.35284 5.06753 0
M  V30 2965 H 269.616 -3.00604 4.6297 0
M  V30 2966 H 270.093 -3.25247 2.95146 0
M  V30 2967 H 270.699 -1.83411 3.83719 0
M  V30 2968 N 269.014 -1.53014 -0.377408 0
M  V30 2969 C 270.291 -1.59215 -1.13622 0
M  V30 2970 C 270.671 -0.392407 -2.07421 0
M  V30 2971 O 270.019 0.618342 -2.19975 0
M  V30 2972 C 270.229 -2.93669 -1.88573 0
M  V30 2973 C 271.577 -3.47822 -2.43526 0
M  V30 2974 O 272.601 -2.9562 -1.98715 0
M  V30 2975 O 271.46 -4.39055 -3.25412 0
M  V30 2976 H 268.554 -0.642625 -0.52054 0
M  V30 2977 H 271.1 -1.65353 -0.381625 0
M  V30 2978 H 269.872 -3.7243 -1.20048 0
M  V30 2979 H 269.495 -2.90968 -2.70968 0
M  V30 2980 N 270.492 0.636531 -1.44174 0
M  V30 2981 C 271.72 1.42353 -1.50144 0
M  V30 2982 C 272.135 1.88389 -0.124575 0
M  V30 2983 O 271.492 1.6051 0.868489 0
M  V30 2984 C 271.543 2.64744 -2.46156 0
M  V30 2985 O 271.264 2.20629 -3.7849 0
M  V30 2986 C 272.765 3.57929 -2.61537 0
M  V30 2987 H 269.985 0.436752 -0.5094 0
M  V30 2988 H 272.529 0.778933 -1.89084 0
M  V30 2989 H 270.684 3.25307 -2.10366 0
M  V30 2990 H 271.098 2.99938 -4.30276 0
M  V30 2991 H 272.572 4.40428 -3.32757 0
M  V30 2992 H 273.049 4.06382 -1.66585 0
M  V30 2993 H 273.655 3.03238 -2.98206 0
M  V30 2994 N 271.97 1.30982 0.876444 0
M  V30 2995 C 273.21 1.21589 1.64303 0
M  V30 2996 C 273.574 -0.223962 1.90689 0
M  V30 2997 O 274.775 -0.44128 2.65153 0
M  V30 2998 C 273.046 2.03007 2.94148 0
M  V30 2999 S 274.605 2.10405 3.85065 0
M  V30 3000 H 271.423 0.433161 0.563819 0
M  V30 3001 H 274.025 1.65565 1.03964 0
M  V30 3002 H 272.729 3.06719 2.72675 0
M  V30 3003 H 272.26 1.59725 3.59515 0
M  V30 3004 H 274.275 1.23765 4.80517 0
M  V30 3005 N 273.449 -1.08991 1.13837 0
M  V30 3006 C 274.679 -1.84743 0.924859 0
M  V30 3007 C 275.087 -1.81629 -0.529874 0
M  V30 3008 O 274.43 -1.21397 -1.37872 0
M  V30 3009 C 274.492 -3.33568 1.34061 0
M  V30 3010 C 274.156 -3.60425 2.80968 0
M  V30 3011 C 275.153 -3.55771 3.79108 0
M  V30 3012 C 272.838 -3.88627 3.18236 0
M  V30 3013 C 274.832 -3.78939 5.12527 0
M  V30 3014 C 272.519 -4.11449 4.51833 0
M  V30 3015 C 273.517 -4.06598 5.48787 0
M  V30 3016 O 273.205 -4.28826 6.79973 0
M  V30 3017 H 272.937 -0.590258 0.329502 0
M  V30 3018 H 275.491 -1.38598 1.51591 0
M  V30 3019 H 273.721 -3.80442 0.692853 0
M  V30 3020 H 275.41 -3.90743 1.09886 0
M  V30 3021 H 276.176 -3.34005 3.51661 0
M  V30 3022 H 272.055 -3.91526 2.43369 0
M  V30 3023 H 275.599 -3.75068 5.88192 0
M  V30 3024 H 271.496 -4.32698 4.79002 0
M  V30 3025 H 272.264 -4.46264 6.86142 0
M  V30 3026 N 274.927 -0.932562 -1.27047 0
M  V30 3027 C 276.173 -0.576412 -1.94436 0
M  V30 3028 C 276.506 0.880891 -1.73072 0
M  V30 3029 O 275.781 1.62905 -1.06264 0
M  V30 3030 C 276.064 -0.909031 -3.48437 0
M  V30 3031 C 275.917 -2.42044 -3.79123 0
M  V30 3032 C 277.236 -0.418341 -4.38107 0
M  V30 3033 H 274.355 -0.210888 -0.706184 0
M  V30 3034 H 276.997 -1.16522 -1.50075 0
M  V30 3035 H 275.147 -0.407947 -3.86352 0
M  V30 3036 H 276.819 -2.99359 -3.50973 0
M  V30 3037 H 275.062 -2.86758 -3.25503 0
M  V30 3038 H 275.733 -2.6037 -4.86736 0
M  V30 3039 H 278.209 -0.847856 -4.0737 0
M  V30 3040 H 277.085 -0.679981 -5.44672 0
M  V30 3041 H 277.346 0.681642 -4.36814 0
M  V30 3042 N 276.405 1.4127 -0.698611 0
M  V30 3043 C 277.335 2.33447 -0.049629 0
M  V30 3044 C 278.316 1.51982 0.763898 0
M  V30 3045 O 279.501 1.80509 0.716257 0
M  V30 3046 C 276.631 3.35828 0.885267 0
M  V30 3047 C 275.585 4.27627 0.178613 0
M  V30 3048 C 274.911 5.20406 1.22807 0
M  V30 3049 C 276.211 5.13459 -0.956933 0
M  V30 3050 H 277.905 2.87966 -0.81951 0
M  V30 3051 H 275.451 1.38461 -0.395538 0
M  V30 3052 H 277.404 3.9924 1.34854 0
M  V30 3053 H 276.128 2.79666 1.68685 0
M  V30 3054 H 274.787 3.65643 -0.26466 0
M  V30 3055 H 274.435 4.60558 2.02226 0
M  V30 3056 H 274.135 5.82661 0.760239 0
M  V30 3057 H 275.659 5.86695 1.69179 0
M  V30 3058 H 277.073 5.70421 -0.573805 0
M  V30 3059 H 275.47 5.8467 -1.35205 0
M  V30 3060 H 276.54 4.50443 -1.79524 0
M  V30 3061 N 277.883 0.443576 1.51229 0
M  V30 3062 C 279.108 -0.121648 2.07043 0
M  V30 3063 C 279.533 -1.35156 1.30823 0
M  V30 3064 O 278.891 -1.7793 0.347934 0
M  V30 3065 C 278.939 -0.41624 3.5819 0
M  V30 3066 O 278.043 -1.50163 3.8409 0
M  V30 3067 H 277.384 0.000871367 0.663999 0
M  V30 3068 H 279.914 0.626706 1.94765 0
M  V30 3069 H 279.924 -0.664867 4.02546 0
M  V30 3070 H 278.599 0.482653 4.1309 0
M  V30 3071 H 277.176 -1.24248 3.51592 0
M  V30 3072 N 279.361 -1.56624 0.175154 0
M  V30 3073 C 280.608 -1.96999 -0.468811 0
M  V30 3074 C 280.936 -1.06129 -1.62994 0
M  V30 3075 O 280.191 -0.0961771 -1.95464 0
M  V30 3076 C 280.49 -3.43419 -0.989864 0
M  V30 3077 C 280.156 -4.50866 0.0557687 0
M  V30 3078 C 278.818 -4.79975 0.343134 0
M  V30 3079 C 281.17 -5.15551 0.765308 0
M  V30 3080 C 278.498 -5.71066 1.34536 0
M  V30 3081 C 280.85 -6.07724 1.75654 0
M  V30 3082 C 279.514 -6.35199 2.05132 0
M  V30 3083 H 278.784 -0.720869 -0.17155 0
M  V30 3084 H 281.431 -1.89616 0.267924 0
M  V30 3085 H 279.736 -3.47772 -1.80449 0
M  V30 3086 H 281.433 -3.72002 -1.49719 0
M  V30 3087 H 278.023 -4.28229 -0.178381 0
M  V30 3088 H 282.207 -4.9317 0.556513 0
M  V30 3089 H 277.463 -5.90635 1.57988 0
M  V30 3090 H 281.637 -6.56912 2.31169 0
M  V30 3091 H 279.264 -7.05584 2.8294 0
M  V30 3092 N 280.839 0.0985539 -1.57292 0
M  V30 3093 C 281.802 1.10402 -2.00858 0
M  V30 3094 C 282.802 1.33146 -0.901593 0
M  V30 3095 O 283.992 1.29318 -1.16716 0
M  V30 3096 C 281.124 2.45394 -2.36632 0
M  V30 3097 H 282.317 0.729099 -2.90902 0
M  V30 3098 H 279.87 0.343495 -1.52479 0
M  V30 3099 H 280.605 2.87769 -1.49531 0
M  V30 3100 H 280.39 2.30235 -3.17387 0
M  V30 3101 H 281.88 3.17718 -2.71007 0
M  V30 3102 N 282.317 1.53212 0.369288 0
M  V30 3103 C 283.563 1.69466 1.11397 0
M  V30 3104 C 283.896 0.443257 1.89074 0
M  V30 3105 O 283.171 -0.559386 1.86282 0
M  V30 3106 C 283.454 2.9422 2.07621 0
M  V30 3107 C 283.307 4.29508 1.33577 0
M  V30 3108 C 284.626 3.14565 3.07794 0
M  V30 3109 H 281.745 0.616667 0.403597 0
M  V30 3110 H 284.387 1.85845 0.395179 0
M  V30 3111 H 282.537 2.80387 2.68916 0
M  V30 3112 H 284.209 4.55147 0.750955 0
M  V30 3113 H 282.452 4.29088 0.637618 0
M  V30 3114 H 283.123 5.12926 2.03989 0
M  V30 3115 H 285.599 3.2756 2.56601 0
M  V30 3116 H 284.475 4.03297 3.72348 0
M  V30 3117 H 284.736 2.29675 3.77759 0
M  V30 3118 N 283.795 -0.628877 1.44509 0
M  V30 3119 C 285.044 -1.38437 1.4669 0
M  V30 3120 C 285.357 -1.95322 0.104272 0
M  V30 3121 O 286.563 -2.715 0.00362163 0
M  V30 3122 C 285.019 -2.50659 2.5826 0
M  V30 3123 C 284.627 -2.00277 4.0074 0
M  V30 3124 C 286.371 -3.27844 2.69664 0
M  V30 3125 C 284.278 -3.09854 5.0373 0
M  V30 3126 H 283.208 -0.520245 0.545766 0
M  V30 3127 H 285.859 -0.676313 1.70582 0
M  V30 3128 H 284.241 -3.2405 2.27612 0
M  V30 3129 H 285.415 -1.33736 4.40966 0
M  V30 3130 H 283.73 -1.35901 3.93599 0
M  V30 3131 H 286.327 -4.09534 3.43781 0
M  V30 3132 H 286.67 -3.77471 1.75559 0
M  V30 3133 H 287.203 -2.61543 2.99733 0
M  V30 3134 H 283.942 -2.65168 5.99472 0
M  V30 3135 H 283.462 -3.7503 4.68095 0
M  V30 3136 H 285.141 -3.74592 5.27532 0
M  V30 3137 N 285.273 -1.31445 -0.869486 0
M  V30 3138 C 286.206 -1.13465 -1.97992 0
M  V30 3139 C 287.184 -0.0380291 -1.62556 0
M  V30 3140 O 288.368 -0.194544 -1.87493 0
M  V30 3141 C 285.495 -0.733822 -3.30655 0
M  V30 3142 C 284.541 -1.83356 -3.85075 0
M  V30 3143 S 285.374 -3.43909 -4.10472 0
M  V30 3144 C 286.53 -3.05763 -5.46132 0
M  V30 3145 H 286.763 -2.07471 -2.1294 0
M  V30 3146 H 284.296 -1.15936 -1.01972 0
M  V30 3147 H 286.254 -0.509306 -4.07328 0
M  V30 3148 H 284.915 0.187123 -3.13542 0
M  V30 3149 H 284.108 -1.50574 -4.80982 0
M  V30 3150 H 283.71 -2.01315 -3.15195 0
M  V30 3151 H 286.002 -2.54686 -6.27807 0
M  V30 3152 H 286.945 -4.00635 -5.83864 0
M  V30 3153 H 287.353 -2.43192 -5.09429 0
M  V30 3154 N 286.751 1.08385 -1.14413 0
M  V30 3155 C 287.681 2.17321 -0.854044 0
M  V30 3156 C 288.662 1.69024 0.191049 0
M  V30 3157 O 289.847 1.94141 0.0476779 0
M  V30 3158 C 286.977 3.45719 -0.330983 0
M  V30 3159 C 285.931 4.07409 -1.31155 0
M  V30 3160 C 285.257 5.30762 -0.64778 0
M  V30 3161 C 286.557 4.48665 -2.67388 0
M  V30 3162 H 288.251 2.41845 -1.76498 0
M  V30 3163 H 285.797 1.16233 -0.850051 0
M  V30 3164 H 287.75 4.21241 -0.115645 0
M  V30 3165 H 286.474 3.2075 0.615381 0
M  V30 3166 H 285.133 3.33919 -1.51306 0
M  V30 3167 H 284.781 5.02078 0.304398 0
M  V30 3168 H 284.481 5.72992 -1.30207 0
M  V30 3169 H 286.005 6.08998 -0.441972 0
M  V30 3170 H 287.419 5.15364 -2.51143 0
M  V30 3171 H 285.816 5.01814 -3.29093 0
M  V30 3172 H 286.886 3.60543 -3.24248 0
M  V30 3173 N 288.23 0.939286 1.26551 0
M  V30 3174 C 289.178 0.43815 2.28436 0
M  V30 3175 C 290.172 -0.483587 1.62351 0
M  V30 3176 O 291.378 -0.362009 1.76322 0
M  V30 3177 H 287.753 0.123149 0.741848 0
M  V30 3178 H 289.724 1.31002 2.68106 0
M  V30 3179 C 288.473 -0.283052 3.46546 0
M  V30 3180 H 287.796 0.417043 3.97619 0
M  V30 3181 H 289.236 -0.597948 4.19763 0
M  V30 3182 C 287.695 -1.50018 3.01656 0
M  V30 3183 O 288.225 -2.59855 3.0633 0
M  V30 3184 N 286.431 -1.35608 2.57019 0
M  V30 3185 H 285.978 -0.46244 2.53415 0
M  V30 3186 H 285.936 -2.17165 2.27347 0
M  V30 3187 N 289.708 -1.40897 0.706093 0
M  V30 3188 C 290.936 -2.05373 0.250887 0
M  V30 3189 C 291.351 -1.53172 -1.10381 0
M  V30 3190 O 290.708 -0.684305 -1.69185 0
M  V30 3191 C 290.759 -3.6088 0.211571 0
M  V30 3192 O 290.48 -4.11153 1.51276 0
M  V30 3193 C 291.981 -4.42517 -0.263346 0
M  V30 3194 H 289.201 -0.66115 0.114552 0
M  V30 3195 H 291.745 -1.80479 0.961635 0
M  V30 3196 H 289.9 -3.84777 -0.450073 0
M  V30 3197 H 290.314 -5.05279 1.40689 0
M  V30 3198 H 291.788 -5.51479 -0.239718 0
M  V30 3199 H 292.265 -4.19396 -1.30397 0
M  V30 3200 H 292.871 -4.23708 0.367677 0
M  V30 3201 N 291.186 -0.45159 -1.50991 0
M  V30 3202 C 292.411 0.110667 -2.07105 0
M  V30 3203 C 292.836 1.3446 -1.31538 0
M  V30 3204 O 292.194 1.77743 -0.357365 0
M  V30 3205 C 292.242 0.397238 -3.58405 0
M  V30 3206 O 291.346 1.48124 -3.84881 0
M  V30 3207 H 290.687 -0.00439271 -0.663985 0
M  V30 3208 H 293.217 -0.637026 -1.9443 0
M  V30 3209 H 293.227 0.64351 -4.02893 0
M  V30 3210 H 291.902 -0.504553 -4.12828 0
M  V30 3211 H 290.479 1.22381 -3.52246 0
M  V30 3212 N 292.664 1.56529 -0.183458 0
M  V30 3213 C 293.594 2.21549 0.737456 0
M  V30 3214 C 294.575 1.17489 1.23005 0
M  V30 3215 O 295.76 1.45959 1.281 0
M  V30 3216 C 292.89 2.86575 1.96194 0
M  V30 3217 C 291.844 3.96778 1.60473 0
M  V30 3218 C 291.17 4.48911 2.90487 0
M  V30 3219 C 292.47 5.15767 0.823497 0
M  V30 3220 H 294.164 2.98761 0.195453 0
M  V30 3221 H 291.71 1.43702 0.0925686 0
M  V30 3222 H 293.663 3.30739 2.61131 0
M  V30 3223 H 292.387 2.06749 2.52828 0
M  V30 3224 H 291.046 3.53286 0.978997 0
M  V30 3225 H 290.694 3.65862 3.45186 0
M  V30 3226 H 290.394 5.23265 2.67335 0
M  V30 3227 H 291.918 4.95771 3.56432 0
M  V30 3228 H 293.332 5.56549 1.37571 0
M  V30 3229 H 291.729 5.96114 0.690551 0
M  V30 3230 H 292.799 4.84574 -0.177782 0
M  V30 3231 N 294.142 -0.090211 1.57342 0
M  V30 3232 C 295.092 -1.11557 1.98844 0
M  V30 3233 C 296.076 -1.35503 0.867624 0
M  V30 3234 O 297.268 -1.36113 1.13148 0
M  V30 3235 C 294.397 -2.43446 2.42051 0
M  V30 3236 C 293.483 -2.22853 3.60828 0
M  V30 3237 N 293.874 -1.72141 4.75606 0
M  V30 3238 C 292.172 -2.53401 3.67021 0
M  V30 3239 C 292.873 -1.65932 5.57531 0
M  V30 3240 N 291.849 -2.11323 5.00843 0
M  V30 3241 H 295.651 -0.716499 2.85032 0
M  V30 3242 H 293.165 -0.297567 1.59651 0
M  V30 3243 H 295.162 -3.17644 2.70014 0
M  V30 3244 H 293.822 -2.84087 1.57241 0
M  V30 3245 H 294.833 -1.41268 4.98261 0
M  V30 3246 H 291.51 -2.97532 2.92884 0
M  V30 3247 H 292.9 -1.27733 6.59647 0
M  V30 3248 N 295.62 -1.53406 -0.361157 0
M  V30 3249 C 296.568 -1.80832 -1.46296 0
M  V30 3250 C 297.562 -0.677699 -1.55253 0
M  V30 3251 O 298.768 -0.860723 -1.58087 0
M  V30 3252 H 295.143 -0.572627 -0.487445 0
M  V30 3253 H 297.114 -2.73045 -1.20371 0
M  V30 3254 C 295.863 -2.01907 -2.8307 0
M  V30 3255 H 295.186 -2.88349 -2.76938 0
M  V30 3256 H 296.626 -2.25072 -3.59331 0
M  V30 3257 C 295.085 -0.799449 -3.27277 0
M  V30 3258 O 295.615 0.00971761 -4.01699 0
M  V30 3259 N 293.821 -0.621637 -2.83873 0
M  V30 3260 H 293.368 -1.28126 -2.23476 0
M  V30 3261 H 293.326 0.19298 -3.13807 0
M  V30 3262 N 297.098 0.621204 -1.44841 0
M  V30 3263 C 298.509 1.20298 -1.42777 0
M  V30 3264 C 298.86 1.95639 -0.148259 0
M  V30 3265 O 297.985 2.02955 0.750892 0
M  V30 3266 C 298.58 2.1882 -2.58657 0
M  V30 3267 C 297.139 2.72403 -2.59756 0
M  V30 3268 C 296.286 1.4757 -2.34773 0
M  V30 3269 H 299.237 0.411297 -1.53278 0
M  V30 3270 H 299.258 3.01607 -2.31977 0
M  V30 3271 H 298.77 1.63957 -3.51766 0
M  V30 3272 H 296.871 3.31242 -1.70615 0
M  V30 3273 H 296.984 3.17765 -3.58556 0
M  V30 3274 H 295.348 1.76051 -1.8406 0
M  V30 3275 H 296.131 0.945954 -3.3001 0
M  V30 3276 N 298.576 1.31904 0.862503 0
M  V30 3277 C 299.524 1.20125 1.9918 0
M  V30 3278 C 300.518 0.107824 1.69056 0
M  V30 3279 O 301.724 0.270223 1.7796 0
M  V30 3280 H 298.099 0.372148 0.65346 0
M  V30 3281 H 300.07 2.15652 2.06244 0
M  V30 3282 C 298.819 0.933099 3.34946 0
M  V30 3283 H 298.142 1.76664 3.5865 0
M  V30 3284 H 299.582 0.890892 4.14535 0
M  V30 3285 C 298.041 -0.364172 3.34926 0
M  V30 3286 O 298.571 -1.37858 3.77304 0
M  V30 3287 N 296.777 -0.383362 2.8806 0
M  V30 3288 H 296.324 0.442651 2.53768 0
M  V30 3289 H 296.282 -1.25123 2.8843 0
M  V30 3290 N 300.054 -1.07777 1.14986 0
M  V30 3291 C 301.3 -1.80557 0.923422 0
M  V30 3292 C 301.633 -1.86298 -0.548337 0
M  V30 3293 O 300.908 -1.34354 -1.40639 0
M  V30 3294 C 301.191 -3.25839 1.53299 0
M  V30 3295 C 301.044 -3.28269 3.07505 0
M  V30 3296 C 302.363 -4.22991 1.21518 0
M  V30 3297 H 299.482 -0.655493 0.336894 0
M  V30 3298 H 302.124 -1.26144 1.42083 0
M  V30 3299 H 300.274 -3.72306 1.10999 0
M  V30 3300 H 301.946 -2.90079 3.58681 0
M  V30 3301 H 300.189 -2.67355 3.4162 0
M  V30 3302 H 300.86 -4.30691 3.45266 0
M  V30 3303 H 303.336 -3.84894 1.581 0
M  V30 3304 H 302.212 -5.22945 1.66793 0
M  V30 3305 H 302.473 -4.41904 0.131505 0
M  V30 3306 N 301.532 -0.945985 -1.26051 0
M  V30 3307 C 302.948 -0.649045 -1.45807 0
M  V30 3308 C 303.148 0.796158 -1.85104 0
M  V30 3309 O 302.204 1.57233 -1.97571 0
M  V30 3310 C 303.517 -1.61458 -2.53677 0
M  V30 3311 C 305.065 -1.62481 -2.67524 0
M  V30 3312 C 305.54 -2.57776 -3.7857 0
M  V30 3313 N 307.031 -2.5609 -3.85969 0
M  V30 3314 C 307.766 -3.26508 -4.7136 0
M  V30 3315 N 307.262 -4.0637 -5.61102 0
M  V30 3316 N 309.055 -3.15437 -4.65248 0
M  V30 3317 H 301.206 -1.88005 -0.988328 0
M  V30 3318 H 303.469 -0.808198 -0.4955 0
M  V30 3319 H 303.175 -2.64644 -2.31638 0
M  V30 3320 H 303.049 -1.37036 -3.51427 0
M  V30 3321 H 305.436 -0.600167 -2.88933 0
M  V30 3322 H 305.517 -1.90958 -1.70202 0
M  V30 3323 H 305.161 -3.60361 -3.57913 0
M  V30 3324 H 305.091 -2.26587 -4.75359 0
M  V30 3325 H 307.582 -1.98105 -3.21812 0
M  V30 3326 H 307.895 -4.57042 -6.23164 0
M  V30 3327 H 306.24 -4.10469 -5.60839 0
M  V30 3328 H 309.431 -2.52525 -3.94143 0
M  V30 3329 H 309.604 -3.70584 -5.31575 0
M  V30 3330 N 303.011 1.40521 -0.713556 0
M  V30 3331 C 304.288 1.94775 -0.17943 0
M  V30 3332 C 304.668 1.65184 1.31444 0
M  V30 3333 O 304.016 0.968429 2.06963 0
M  V30 3334 C 304.226 3.45543 -0.489986 0
M  V30 3335 C 305.574 4.22442 -0.427536 0
M  V30 3336 O 306.598 3.53644 -0.425929 0
M  V30 3337 O 305.457 5.4501 -0.403292 0
M  V30 3338 H 302.551 0.826606 -0.0255192 0
M  V30 3339 H 305.097 1.5014 -0.790949 0
M  V30 3340 H 303.869 3.60432 -1.5233 0
M  V30 3341 H 303.492 3.97311 0.151598 0
M  V30 3342 N 304.489 0.459591 1.5075 0
M  V30 3343 C 305.436 -0.340524 2.28274 0
M  V30 3344 C 306.406 -0.997371 1.32822 0
M  V30 3345 O 307.591 -1.01202 1.61749 0
M  V30 3346 C 304.731 -1.42317 3.14388 0
M  V30 3347 C 303.844 -0.782251 4.24859 0
M  V30 3348 C 302.979 -1.84182 4.98247 0
M  V30 3349 C 302.018 -1.18053 6.00608 0
M  V30 3350 N 301.155 -2.18244 6.67319 0
M  V30 3351 H 305.995 0.326899 2.96202 0
M  V30 3352 H 303.532 0.173057 1.46078 0
M  V30 3353 H 305.49 -2.06241 3.62658 0
M  V30 3354 H 304.12 -2.05992 2.4853 0
M  V30 3355 H 303.172 -0.0307404 3.80388 0
M  V30 3356 H 304.484 -0.259663 4.98124 0
M  V30 3357 H 303.638 -2.55714 5.50177 0
M  V30 3358 H 302.377 -2.39819 4.24662 0
M  V30 3359 H 301.382 -0.450776 5.47949 0
M  V30 3360 H 302.607 -0.631202 6.7616 0
M  V30 3361 H 300.553 -2.72919 5.96533 0
M  V30 3362 H 300.47 -1.70938 7.36421 0
M  V30 3363 H 301.738 -2.89191 7.23871 0
M  V30 3364 N 305.967 -1.56429 0.191757 0
M  V30 3365 C 307.378 -1.83912 -0.321428 0
M  V30 3366 C 307.729 -1.11231 -1.61623 0
M  V30 3367 O 306.854 -0.37202 -2.13178 0
M  V30 3368 C 307.449 -3.33624 -0.589961 0
M  V30 3369 C 306.008 -3.6153 -1.04753 0
M  V30 3370 C 305.155 -2.7714 -0.0943327 0
M  V30 3371 H 308.106 -1.53161 0.415612 0
M  V30 3372 H 308.127 -3.52213 -1.43966 0
M  V30 3373 H 307.639 -3.86495 0.352588 0
M  V30 3374 H 305.74 -3.14089 -2.00447 0
M  V30 3375 H 305.853 -4.69737 -0.942549 0
M  V30 3376 H 304.217 -2.47638 -0.595589 0
M  V30 3377 H 305 -3.32799 0.842601 0
M  V30 3378 N 307.445 0.0818655 -1.57387 0
M  V30 3379 C 308.693 0.781368 -1.86384 0
M  V30 3380 C 309.014 1.78618 -0.782342 0
M  V30 3381 O 308.284 1.94976 0.190061 0
M  V30 3382 H 306.864 0.291562 -0.687751 0
M  V30 3383 H 309.526 0.060348 -1.94807 0
M  V30 3384 H 308.622 1.3038 -2.83562 0
M  V30 3385 N 308.923 1.53595 0.353017 0
M  V30 3386 C 309.853 1.83902 1.43883 0
M  V30 3387 C 310.834 0.693421 1.55324 0
M  V30 3388 O 312.019 0.944452 1.69687 0
M  V30 3389 C 309.149 2.04016 2.8106 0
M  V30 3390 C 308.103 3.19814 2.84434 0
M  V30 3391 C 307.429 3.25244 4.24406 0
M  V30 3392 C 308.729 4.58133 2.50822 0
M  V30 3393 H 310.423 2.74835 1.1877 0
M  V30 3394 H 307.969 1.32242 0.569917 0
M  V30 3395 H 309.922 2.238 3.57059 0
M  V30 3396 H 308.646 1.09804 3.07588 0
M  V30 3397 H 307.305 2.9987 2.10887 0
M  V30 3398 H 306.953 2.28646 4.48029 0
M  V30 3399 H 306.653 4.03054 4.27576 0
M  V30 3400 H 308.177 3.47228 5.0226 0
M  V30 3401 H 309.591 4.77995 3.16534 0
M  V30 3402 H 307.988 5.38276 2.6529 0
M  V30 3403 H 309.058 4.62387 1.46034 0
M  V30 3404 N 310.401 -0.613514 1.45168 0
M  V30 3405 C 311.311 -1.75296 1.55912 0
M  V30 3406 C 312.327 -1.68244 0.443856 0
M  V30 3407 O 313.503 -1.88706 0.70371 0
M  V30 3408 C 310.568 -3.1174 1.5172 0
M  V30 3409 C 309.629 -3.30291 2.74238 0
M  V30 3410 C 308.862 -4.60226 2.70236 0
M  V30 3411 O 309.085 -5.42168 1.77229 0
M  V30 3412 O 308.019 -4.81361 3.61352 0
M  V30 3413 H 311.845 -1.69183 2.52212 0
M  V30 3414 H 309.43 -0.776886 1.27612 0
M  V30 3415 H 311.312 -3.93044 1.51968 0
M  V30 3416 H 309.987 -3.18357 0.585697 0
M  V30 3417 H 308.894 -2.48598 2.79553 0
M  V30 3418 H 310.227 -3.28547 3.66494 0
M  V30 3419 N 311.879 -1.3236 -0.855495 0
M  V30 3420 C 313.295 -1.11332 -1.14356 0
M  V30 3421 C 313.495 0.106751 -2.01217 0
M  V30 3422 O 312.551 0.791891 -2.39761 0
M  V30 3423 C 313.864 -2.39237 -1.82171 0
M  V30 3424 C 315.412 -2.44986 -1.9481 0
M  V30 3425 C 315.887 -3.7281 -2.66039 0
M  V30 3426 N 317.378 -3.73787 -2.73565 0
M  V30 3427 C 318.113 -4.69394 -3.29327 0
M  V30 3428 N 317.609 -5.75367 -3.85907 0
M  V30 3429 N 319.402 -4.56893 -3.27423 0
M  V30 3430 H 311.553 -2.10586 -0.277027 0
M  V30 3431 H 313.816 -0.929701 -0.185364 0
M  V30 3432 H 313.522 -3.28431 -1.25802 0
M  V30 3433 H 313.396 -2.50134 -2.82335 0
M  V30 3434 H 315.783 -1.56252 -2.50338 0
M  V30 3435 H 315.864 -2.38043 -0.936448 0
M  V30 3436 H 315.508 -4.61918 -2.11174 0
M  V30 3437 H 315.438 -3.77024 -3.67642 0
M  V30 3438 H 317.929 -2.97189 -2.33424 0
M  V30 3439 H 318.242 -6.44378 -4.26611 0
M  V30 3440 H 316.587 -5.79123 -3.84242 0
M  V30 3441 H 319.778 -3.73269 -2.82467 0
M  V30 3442 H 319.951 -5.31577 -3.7058 0
M  V30 3443 N 313.357 1.07166 -1.15556 0
M  V30 3444 C 314.604 1.79798 -0.931604 0
M  V30 3445 C 314.932 1.8682 0.54115 0
M  V30 3446 O 314.187 1.34942 1.41736 0
M  V30 3447 C 314.486 3.24707 -1.49332 0
M  V30 3448 C 314.152 3.37781 -2.98688 0
M  V30 3449 C 312.814 3.41057 -3.39461 0
M  V30 3450 C 315.166 3.40424 -3.94665 0
M  V30 3451 C 312.494 3.4458 -4.74849 0
M  V30 3452 C 314.846 3.45485 -5.29927 0
M  V30 3453 C 313.51 3.47039 -5.70193 0
M  V30 3454 H 312.78 0.657928 -0.340898 0
M  V30 3455 H 315.427 1.26091 -1.44129 0
M  V30 3456 H 313.732 3.81208 -0.904859 0
M  V30 3457 H 315.429 3.79486 -1.29582 0
M  V30 3458 H 312.019 3.35932 -2.66172 0
M  V30 3459 H 316.203 3.37113 -3.64237 0
M  V30 3460 H 311.459 3.44083 -5.05388 0
M  V30 3461 H 315.633 3.46476 -6.04092 0
M  V30 3462 H 313.26 3.49522 -6.75084 0
M  V30 3463 N 314.835 0.952656 1.25548 0
M  V30 3464 C 316.081 0.607272 1.93494 0
M  V30 3465 C 316.414 -0.853245 1.74452 0
M  V30 3466 O 315.689 -1.61194 1.08843 0
M  V30 3467 C 315.972 0.96435 3.46947 0
M  V30 3468 C 315.825 2.48045 3.75225 0
M  V30 3469 C 317.144 0.487987 4.37386 0
M  V30 3470 H 314.263 0.222096 0.702739 0
M  V30 3471 H 316.905 1.18895 1.48203 0
M  V30 3472 H 315.055 0.469361 3.85654 0
M  V30 3473 H 316.727 3.04905 3.46166 0
M  V30 3474 H 314.97 2.919 3.209 0
M  V30 3475 H 315.641 2.6808 4.82532 0
M  V30 3476 H 318.117 0.912558 4.0597 0
M  V30 3477 H 316.993 0.766547 5.43521 0
M  V30 3478 H 317.254 -0.612063 4.37843 0
M  V30 3479 N 316.313 -1.40141 0.720998 0
M  V30 3480 C 317.276 -2.29058 0.0805834 0
M  V30 3481 C 318.276 -1.45632 -0.681758 0
M  V30 3482 O 319.466 -1.6648 -0.512856 0
M  V30 3483 C 316.598 -3.28925 -0.895593 0
M  V30 3484 H 317.791 -2.87191 0.863793 0
M  V30 3485 H 315.344 -1.48553 0.485975 0
M  V30 3486 H 316.079 -2.75822 -1.70566 0
M  V30 3487 H 315.864 -3.90519 -0.351766 0
M  V30 3488 H 317.354 -3.95494 -1.34069 0
M  V30 3489 N 317.792 -0.46758 -1.50504 0
M  V30 3490 C 318.725 0.374324 -2.25109 0
M  V30 3491 C 319.703 0.99921 -1.28275 0
M  V30 3492 O 320.887 1.03583 -1.57489 0
M  V30 3493 C 318.014 1.52419 -3.02467 0
M  V30 3494 C 317.06 1.01702 -4.14197 0
M  V30 3495 S 317.893 -0.0654477 -5.3546 0
M  V30 3496 C 319.049 1.08837 -6.16365 0
M  V30 3497 H 319.282 -0.258983 -2.9617 0
M  V30 3498 H 316.815 -0.252421 -1.52323 0
M  V30 3499 H 318.773 2.18322 -3.47628 0
M  V30 3500 H 317.434 2.129 -2.30938 0
M  V30 3501 H 316.627 1.87776 -4.67714 0
M  V30 3502 H 316.229 0.435757 -3.71453 0
M  V30 3503 H 318.521 2.00071 -6.47285 0
M  V30 3504 H 319.464 0.592538 -7.05616 0
M  V30 3505 H 319.872 1.34061 -5.4835 0
M  V30 3506 N 319.27 1.56325 -0.20005 0
M  V30 3507 C 320.218 2.20666 0.735482 0
M  V30 3508 C 321.212 1.17934 1.21605 0
M  V30 3509 O 322.418 1.36068 1.17837 0
M  V30 3510 H 318.793 0.70725 0.255542 0
M  V30 3511 H 320.764 2.9792 0.169166 0
M  V30 3512 C 319.513 2.88391 1.94232 0
M  V30 3513 H 318.836 3.67185 1.58161 0
M  V30 3514 H 320.276 3.3684 2.57517 0
M  V30 3515 C 318.735 1.89692 2.78421 0
M  V30 3516 O 319.265 1.40032 3.76502 0
M  V30 3517 N 317.471 1.57813 2.44015 0
M  V30 3518 H 317.018 1.9839 1.64314 0
M  V30 3519 H 316.976 0.920325 3.00628 0
M  V30 3520 N 320.748 -0.0735177 1.57428 0
M  V30 3521 C 322.164 -0.428264 1.53747 0
M  V30 3522 C 322.364 -1.79272 0.91998 0
M  V30 3523 O 321.42 -2.47051 0.521745 0
M  V30 3524 C 322.733 -0.370914 2.98404 0
M  V30 3525 C 324.281 -0.451224 3.0973 0
M  V30 3526 C 324.756 -0.4238 4.56035 0
M  V30 3527 N 326.247 -0.483925 4.60665 0
M  V30 3528 C 326.982 -0.484891 5.71346 0
M  V30 3529 N 326.478 -0.440775 6.91396 0
M  V30 3530 N 328.271 -0.531319 5.59583 0
M  V30 3531 H 320.422 0.819949 1.95935 0
M  V30 3532 H 322.685 0.307493 0.896745 0
M  V30 3533 H 322.391 0.564956 3.47133 0
M  V30 3534 H 322.265 -1.18176 3.5821 0
M  V30 3535 H 324.652 -1.37752 2.60976 0
M  V30 3536 H 324.733 0.388167 2.52838 0
M  V30 3537 H 324.377 0.498638 5.05446 0
M  V30 3538 H 324.307 -1.2807 5.10789 0
M  V30 3539 H 326.798 -0.522338 3.74273 0
M  V30 3540 H 327.111 -0.44539 7.71515 0
M  V30 3541 H 325.456 -0.40749 6.93804 0
M  V30 3542 H 328.647 -0.563464 4.64696 0
M  V30 3543 H 328.82 -0.528603 6.4584 0
M  V30 3544 N 322.226 -1.5378 -0.344866 0
M  V30 3545 C 323.474 -1.70625 -1.08311 0
M  V30 3546 C 323.795 -0.471447 -1.89215 0
M  V30 3547 O 323.065 0.514616 -1.8902 0
M  V30 3548 H 321.645 -0.629058 -0.402859 0
M  V30 3549 H 324.307 -1.9103 -0.386459 0
M  V30 3550 H 323.403 -2.57656 -1.76124 0
M  V30 3551 N 323.704 0.605807 -1.45491 0
M  V30 3552 C 324.953 1.36086 -1.48874 0
M  V30 3553 C 325.266 1.95131 -0.135333 0
M  V30 3554 O 326.472 2.7146 -0.0468144 0
M  V30 3555 C 324.928 2.46518 -2.62215 0
M  V30 3556 C 324.536 1.93877 -4.03876 0
M  V30 3557 C 326.28 3.23512 -2.74846 0
M  V30 3558 C 324.187 3.01801 -5.08596 0
M  V30 3559 H 323.117 0.511497 -0.553974 0
M  V30 3560 H 325.768 0.649089 -1.71636 0
M  V30 3561 H 324.15 3.20388 -2.32739 0
M  V30 3562 H 325.324 1.26704 -4.43038 0
M  V30 3563 H 323.639 1.29622 -3.95711 0
M  V30 3564 H 326.236 4.04013 -3.50253 0
M  V30 3565 H 326.579 3.74631 -1.81542 0
M  V30 3566 H 327.112 2.56742 -3.03856 0
M  V30 3567 H 323.851 2.55597 -6.03614 0
M  V30 3568 H 323.371 3.67535 -4.74002 0
M  V30 3569 H 325.05 3.66152 -5.33424 0
M  V30 3570 N 325.182 1.32811 0.848464 0
M  V30 3571 C 326.13 1.22231 1.97895 0
M  V30 3572 C 327.124 0.125749 1.68933 0
M  V30 3573 O 328.33 0.289083 1.77663 0
M  V30 3574 H 324.705 0.379058 0.649476 0
M  V30 3575 H 326.676 2.17828 2.03945 0
M  V30 3576 C 325.425 0.968572 3.33937 0
M  V30 3577 H 324.748 1.80458 3.56756 0
M  V30 3578 H 326.188 0.934808 4.13567 0
M  V30 3579 C 324.647 -0.328628 3.35293 0
M  V30 3580 O 325.177 -1.33848 3.78745 0
M  V30 3581 N 323.383 -0.352788 2.88451 0
M  V30 3582 H 322.93 0.469541 2.53285 0
M  V30 3583 H 322.888 -1.22057 2.89741 0
M  V30 3584 N 326.66 -1.06551 1.16123 0
M  V30 3585 C 327.57 -2.17484 0.879662 0
M  V30 3586 C 328.586 -1.73377 -0.147104 0
M  V30 3587 O 329.762 -2.01379 0.0289128 0
M  V30 3588 C 326.827 -3.44591 0.381829 0
M  V30 3589 C 325.888 -4.0322 1.4735 0
M  V30 3590 C 325.121 -5.24261 0.999324 0
M  V30 3591 O 325.344 -5.70198 -0.151957 0
M  V30 3592 O 324.278 -5.74775 1.78653 0
M  V30 3593 H 328.104 -2.44075 1.80724 0
M  V30 3594 H 325.689 -1.16042 0.940992 0
M  V30 3595 H 327.571 -4.21254 0.111053 0
M  V30 3596 H 326.246 -3.19532 -0.51777 0
M  V30 3597 H 325.153 -3.2806 1.79798 0
M  V30 3598 H 326.486 -4.32568 2.34831 0
M  V30 3599 N 328.138 -0.959301 -1.25041 0
M  V30 3600 C 329.386 -0.615393 -1.92503 0
M  V30 3601 C 329.707 0.850969 -1.75452 0
M  V30 3602 O 328.977 1.60658 -1.12098 0
M  V30 3603 H 327.557 -0.224613 -0.712431 0
M  V30 3604 H 330.219 -1.21855 -1.5211 0
M  V30 3605 H 329.315 -0.848738 -3.00338 0
M  V30 3606 N 329.616 1.39756 -0.72842 0
M  V30 3607 C 330.864 2.00248 -0.272946 0
M  V30 3608 C 331.185 1.58077 1.14178 0
M  V30 3609 O 330.455 0.826014 1.77634 0
M  V30 3610 H 329.035 0.740554 -0.0979247 0
M  V30 3611 H 331.697 1.70903 -0.936912 0
M  V30 3612 H 330.793 3.10495 -0.316142 0
M  V30 3613 N 331.094 0.475555 1.50254 0
M  V30 3614 C 332.371 -0.139685 1.95101 0
M  V30 3615 C 332.751 -1.56555 1.41611 0
M  V30 3616 O 332.099 -2.19956 0.618993 0
M  V30 3617 C 332.309 -0.0784298 3.48912 0
M  V30 3618 C 333.657 -0.265095 4.23772 0
M  V30 3619 O 334.681 -0.154808 3.55863 0
M  V30 3620 O 333.54 -0.488327 5.44314 0
M  V30 3621 H 330.634 -0.109236 0.819754 0
M  V30 3622 H 333.18 0.536276 1.61004 0
M  V30 3623 H 331.952 0.916918 3.80405 0
M  V30 3624 H 331.575 -0.795655 3.89558 0
M  V30 3625 N 332.573 -1.56217 0.208337 0
M  V30 3626 C 333.503 -2.22694 -0.702116 0
M  V30 3627 C 334.484 -1.19432 -1.2112 0
M  V30 3628 O 335.669 -1.47978 -1.25762 0
M  V30 3629 C 332.799 -2.8966 -1.9161 0
M  V30 3630 C 331.753 -3.9928 -1.5414 0
M  V30 3631 C 331.079 -4.53476 -2.83308 0
M  V30 3632 C 332.379 -5.17012 -0.741339 0
M  V30 3633 H 334.073 -2.99034 -0.147898 0
M  V30 3634 H 331.619 -1.43831 -0.0696951 0
M  V30 3635 H 333.572 -3.34852 -2.55836 0
M  V30 3636 H 332.296 -2.10746 -2.49507 0
M  V30 3637 H 330.955 -3.54799 -0.922668 0
M  V30 3638 H 330.603 -3.71308 -3.39322 0
M  V30 3639 H 330.303 -5.27451 -2.58976 0
M  V30 3640 H 331.827 -5.01378 -3.485 0
M  V30 3641 H 333.241 -5.58667 -1.28699 0
M  V30 3642 H 331.638 -5.97137 -0.595627 0
M  V30 3643 H 332.708 -4.8423 0.254851 0
M  V30 3644 N 334.051 0.0651679 -1.57465 0
M  V30 3645 C 335.462 0.616213 -1.76238 0
M  V30 3646 C 335.813 1.7756 -0.834689 0
M  V30 3647 O 334.938 2.1639 -0.0204156 0
M  V30 3648 C 335.533 1.12462 -3.1959 0
M  V30 3649 C 334.092 1.62147 -3.39684 0
M  V30 3650 C 333.239 0.543739 -2.71917 0
M  V30 3651 H 336.19 -0.161022 -1.57881 0
M  V30 3652 H 336.211 1.99324 -3.24114 0
M  V30 3653 H 335.723 0.280592 -3.87084 0
M  V30 3654 H 333.824 2.48854 -2.77313 0
M  V30 3655 H 333.937 1.69385 -4.48158 0
M  V30 3656 H 332.301 0.990352 -2.34657 0
M  V30 3657 H 333.084 -0.290216 -3.42071 0
M  V30 3658 N 335.529 1.53961 0.336706 0
M  V30 3659 C 336.439 1.85432 1.43708 0
M  V30 3660 C 337.455 0.745053 1.57242 0
M  V30 3661 O 338.631 1.03804 1.72588 0
M  V30 3662 C 335.696 2.06349 2.78605 0
M  V30 3663 C 334.757 3.30191 2.74358 0
M  V30 3664 C 333.99 3.50101 4.02822 0
M  V30 3665 O 334.213 2.7371 5.00439 0
M  V30 3666 O 333.147 4.43547 4.06878 0
M  V30 3667 H 336.973 2.78975 1.20028 0
M  V30 3668 H 334.558 1.39701 0.52952 0
M  V30 3669 H 336.44 2.21513 3.58483 0
M  V30 3670 H 335.115 1.15995 3.02203 0
M  V30 3671 H 334.022 3.20425 1.93078 0
M  V30 3672 H 335.355 4.2056 2.55715 0
M  V30 3673 N 337.007 -0.598083 1.45811 0
M  V30 3674 C 337.917 -1.73632 1.57763 0
M  V30 3675 C 338.933 -1.67763 0.461676 0
M  V30 3676 O 340.109 -1.87949 0.723685 0
M  V30 3677 C 337.174 -3.10114 1.55018 0
M  V30 3678 C 336.235 -3.27364 2.77726 0
M  V30 3679 C 335.468 -4.57334 2.75102 0
M  V30 3680 O 335.691 -5.40258 1.8297 0
M  V30 3681 O 334.625 -4.77502 3.66437 0
M  V30 3682 H 338.451 -1.66498 2.53992 0
M  V30 3683 H 336.036 -0.763308 1.28429 0
M  V30 3684 H 337.918 -3.9141 1.56129 0
M  V30 3685 H 336.593 -3.17718 0.619431 0
M  V30 3686 H 335.5 -2.45619 2.82174 0
M  V30 3687 H 336.833 -3.24641 3.69958 0
M  V30 3688 N 338.485 -1.33259 -0.841409 0
M  V30 3689 C 339.415 -1.25926 -1.96634 0
M  V30 3690 C 340.396 -0.140349 -1.6952 0
M  V30 3691 O 341.581 -0.329707 -1.91381 0
M  V30 3692 C 338.711 -0.99512 -3.32738 0
M  V30 3693 C 337.665 -2.0767 -3.74242 0
M  V30 3694 C 336.991 -1.66474 -5.08125 0
M  V30 3695 C 338.291 -3.49318 -3.88297 0
M  V30 3696 H 339.985 -2.20046 -2.03027 0
M  V30 3697 H 337.531 -1.05931 -0.975425 0
M  V30 3698 H 339.484 -0.930323 -4.11002 0
M  V30 3699 H 338.208 -0.0183004 -3.26595 0
M  V30 3700 H 336.867 -2.13187 -2.98239 0
M  V30 3701 H 336.515 -0.675012 -4.9845 0
M  V30 3702 H 336.215 -2.3885 -5.36865 0
M  V30 3703 H 337.739 -1.61455 -5.88867 0
M  V30 3704 H 339.153 -3.46316 -4.56879 0
M  V30 3705 H 337.55 -4.20158 -4.28471 0
M  V30 3706 H 338.62 -3.8801 -2.9082 0
M  V30 3707 N 339.963 1.05934 -1.16686 0
M  V30 3708 C 340.893 2.1546 -0.899949 0
M  V30 3709 C 341.874 1.69391 0.155154 0
M  V30 3710 O 343.059 1.94199 0.00648693 0
M  V30 3711 C 340.189 3.44939 -0.404241 0
M  V30 3712 C 339.143 4.04536 -1.39767 0
M  V30 3713 C 338.469 5.29268 -0.760216 0
M  V30 3714 C 339.769 4.42893 -2.76845 0
M  V30 3715 H 341.463 2.38046 -1.81588 0
M  V30 3716 H 339.009 1.14404 -0.874514 0
M  V30 3717 H 340.962 4.20901 -0.204971 0
M  V30 3718 H 339.686 3.21983 0.547206 0
M  V30 3719 H 338.345 3.30635 -1.58355 0
M  V30 3720 H 337.993 5.02611 0.197831 0
M  V30 3721 H 337.693 5.70101 -1.42332 0
M  V30 3722 H 339.217 6.07924 -0.57105 0
M  V30 3723 H 340.631 5.09921 -2.62019 0
M  V30 3724 H 339.028 4.94721 -3.39663 0
M  V30 3725 H 340.098 3.53584 -3.31823 0
M  V30 3726 N 341.441 0.965919 1.2453 0
M  V30 3727 C 342.857 0.67216 1.44756 0
M  V30 3728 C 343.057 -0.766609 1.86347 0
M  V30 3729 O 342.113 -1.5407 2.00047 0
M  V30 3730 C 343.426 1.65473 2.51076 0
M  V30 3731 C 344.974 1.66716 2.64905 0
M  V30 3732 C 345.449 2.63766 3.74421 0
M  V30 3733 N 346.94 2.62198 3.81846 0
M  V30 3734 C 347.675 3.33966 4.66106 0
M  V30 3735 N 347.171 4.15245 5.54566 0
M  V30 3736 N 348.964 3.22799 4.60171 0
M  V30 3737 H 341.115 1.89553 0.958293 0
M  V30 3738 H 343.378 0.815979 0.482579 0
M  V30 3739 H 343.084 2.68296 2.27399 0
M  V30 3740 H 342.958 1.4261 3.49202 0
M  V30 3741 H 345.345 0.646057 2.87941 0
M  V30 3742 H 345.426 1.93642 1.67142 0
M  V30 3743 H 345.07 3.6601 3.52135 0
M  V30 3744 H 345 2.34121 4.71694 0
M  V30 3745 H 347.491 2.032 3.18619 0
M  V30 3746 H 347.804 4.66898 6.15814 0
M  V30 3747 H 346.149 4.1934 5.54237 0
M  V30 3748 H 349.34 2.58764 3.90075 0
M  V30 3749 H 349.513 3.78994 5.25612 0
M  V30 3750 N 342.919 -1.39368 0.735821 0
M  V30 3751 C 343.867 -2.32443 0.0855131 0
M  V30 3752 C 344.861 -1.53104 -0.724954 0
M  V30 3753 O 346.067 -1.68762 -0.626047 0
M  V30 3754 H 342.442 -0.751948 0.00885257 0
M  V30 3755 H 344.413 -2.84916 0.886883 0
M  V30 3756 C 343.162 -3.38206 -0.806983 0
M  V30 3757 H 342.485 -3.99335 -0.19274 0
M  V30 3758 H 343.925 -4.05779 -1.2296 0
M  V30 3759 C 342.384 -2.75321 -1.94165 0
M  V30 3760 O 342.914 -2.63231 -3.03435 0
M  V30 3761 N 341.12 -2.33396 -1.73132 0
M  V30 3762 H 340.667 -2.4343 -0.842596 0
M  V30 3763 H 340.625 -1.91661 -2.49225 0
M  V30 3764 N 344.397 -0.483516 -1.5 0
M  V30 3765 C 345.327 0.293829 -2.31644 0
M  V30 3766 C 346.308 0.978864 -1.39112 0
M  V30 3767 O 347.493 0.973644 -1.68029 0
M  V30 3768 C 344.623 1.36897 -3.19181 0
M  V30 3769 C 343.577 0.804833 -4.20365 0
M  V30 3770 C 342.903 1.9792 -4.96721 0
M  V30 3771 C 344.203 -0.192313 -5.21946 0
M  V30 3772 H 345.897 -0.387616 -2.9688 0
M  V30 3773 H 343.443 -0.187856 -1.42769 0
M  V30 3774 H 345.396 1.92037 -3.751 0
M  V30 3775 H 344.12 2.07936 -2.51853 0
M  V30 3776 H 342.779 0.275319 -3.65565 0
M  V30 3777 H 342.427 2.67686 -4.25856 0
M  V30 3778 H 342.127 1.60789 -5.65173 0
M  V30 3779 H 343.651 2.53526 -5.55479 0
M  V30 3780 H 345.065 0.270333 -5.72662 0
M  V30 3781 H 343.462 -0.478543 -5.98189 0
M  V30 3782 H 344.532 -1.11409 -4.71928 0
M  V30 3783 N 345.875 1.56104 -0.216619 0
M  V30 3784 C 347.105 2.02269 0.420802 0
M  V30 3785 C 347.513 1.09575 1.5424 0
M  V30 3786 O 346.856 0.0967308 1.83445 0
M  V30 3787 C 346.918 3.44784 1.01806 0
M  V30 3788 C 346.582 4.56988 0.0325154 0
M  V30 3789 C 347.579 5.14225 -0.766055 0
M  V30 3790 C 345.264 5.02228 -0.0848092 0
M  V30 3791 C 347.258 6.15169 -1.6687 0
M  V30 3792 C 344.945 6.03011 -0.990994 0
M  V30 3793 C 345.943 6.59357 -1.78149 0
M  V30 3794 O 345.631 7.58179 -2.67245 0
M  V30 3795 H 345.363 0.667353 0.107776 0
M  V30 3796 H 347.917 2.02747 -0.329034 0
M  V30 3797 H 346.147 3.41359 1.81689 0
M  V30 3798 H 347.836 3.74626 1.56237 0
M  V30 3799 H 348.602 4.80126 -0.685836 0
M  V30 3800 H 344.481 4.58054 0.520349 0
M  V30 3801 H 348.025 6.59076 -2.28615 0
M  V30 3802 H 343.922 6.36532 -1.07225 0
M  V30 3803 H 344.69 7.75682 -2.61265 0
M  V30 3804 N 347.353 -0.0568162 1.57498 0
M  V30 3805 C 348.63 -0.786954 1.79071 0
M  V30 3806 C 349.01 -1.95028 0.80792 0
M  V30 3807 O 348.358 -2.27968 -0.155858 0
M  V30 3808 C 348.568 -1.24594 3.26002 0
M  V30 3809 C 349.916 -1.67323 3.90241 0
M  V30 3810 O 350.94 -1.34124 3.29984 0
M  V30 3811 O 349.799 -2.28842 4.9628 0
M  V30 3812 H 346.893 -0.378262 0.735423 0
M  V30 3813 H 349.439 -0.035734 1.69662 0
M  V30 3814 H 348.211 -0.41423 3.89101 0
M  V30 3815 H 347.834 -2.05803 3.40192 0
M  V30 3816 N 348.832 -1.54138 -0.328536 0
M  V30 3817 C 350.057 -1.76378 -1.09112 0
M  V30 3818 C 350.482 -0.508596 -1.81094 0
M  V30 3819 O 349.84 0.539598 -1.73084 0
M  V30 3820 C 349.888 -2.95358 -2.06872 0
M  V30 3821 O 348.992 -2.66556 -3.14677 0
M  V30 3822 H 348.333 -0.584614 -0.314838 0
M  V30 3823 H 350.863 -2.01146 -0.374348 0
M  V30 3824 H 350.873 -3.22566 -2.4983 0
M  V30 3825 H 349.548 -3.86385 -1.5388 0
M  V30 3826 H 348.125 -2.50282 -2.7643 0
M  V30 3827 N 350.31 0.590341 -1.46126 0
M  V30 3828 C 351.559 1.34499 -1.50309 0
M  V30 3829 C 351.872 1.94977 -0.156021 0
M  V30 3830 O 353.078 2.71395 -0.0756037 0
M  V30 3831 C 351.534 2.43723 -2.64815 0
M  V30 3832 C 351.142 1.89582 -4.0591 0
M  V30 3833 C 352.886 3.20579 -2.78262 0
M  V30 3834 C 350.793 2.9639 -5.11769 0
M  V30 3835 H 349.723 0.505593 -0.559368 0
M  V30 3836 H 352.374 0.630848 -1.72315 0
M  V30 3837 H 350.756 3.17902 -2.36124 0
M  V30 3838 H 351.93 1.21997 -4.44357 0
M  V30 3839 H 350.245 1.25418 -3.97063 0
M  V30 3840 H 352.842 4.00276 -3.54519 0
M  V30 3841 H 353.185 3.72684 -1.85505 0
M  V30 3842 H 353.718 2.53505 -3.06562 0
M  V30 3843 H 350.457 2.49181 -6.06291 0
M  V30 3844 H 349.977 3.62487 -4.77873 0
M  V30 3845 H 351.656 3.60474 -5.37278 0
M  V30 3846 N 351.788 1.33704 0.83433 0
M  V30 3847 C 353.204 1.13137 1.12571 0
M  V30 3848 C 353.404 -0.0747261 2.01361 0
M  V30 3849 O 352.46 -0.753647 2.4099 0
M  V30 3850 C 353.773 2.42105 1.78342 0
M  V30 3851 C 355.321 2.48054 1.90888 0
M  V30 3852 C 355.796 3.76995 2.60075 0
M  V30 3853 N 357.287 3.78092 2.67584 0
M  V30 3854 C 358.022 4.74574 3.21818 0
M  V30 3855 N 357.518 5.81434 3.76705 0
M  V30 3856 N 359.311 4.62044 3.20112 0
M  V30 3857 H 351.462 2.11 0.243489 0
M  V30 3858 H 353.725 0.932532 0.17055 0
M  V30 3859 H 353.431 3.30391 1.20561 0
M  V30 3860 H 353.305 2.54594 2.7832 0
M  V30 3861 H 355.692 1.60215 2.47821 0
M  V30 3862 H 355.773 2.39502 0.898459 0
M  V30 3863 H 355.417 4.65219 2.03799 0
M  V30 3864 H 355.347 3.82825 3.61597 0
M  V30 3865 H 357.838 3.00865 2.28667 0
M  V30 3866 H 358.151 6.51084 4.16305 0
M  V30 3867 H 356.496 5.85163 3.7498 0
M  V30 3868 H 359.687 3.77716 2.76493 0
M  V30 3869 H 359.86 5.37406 3.62076 0
M  V30 3870 N 353.266 -1.05314 1.17247 0
M  V30 3871 C 354.214 -2.15137 0.884238 0
M  V30 3872 C 355.208 -1.68729 -0.15063 0
M  V30 3873 O 356.414 -1.8 -0.00366673 0
M  V30 3874 H 352.789 -0.702471 0.2684 0
M  V30 3875 H 354.76 -2.36652 1.81764 0
M  V30 3876 C 353.509 -3.45243 0.412659 0
M  V30 3877 H 352.832 -3.81352 1.20043 0
M  V30 3878 H 354.272 -4.23263 0.249858 0
M  V30 3879 C 352.731 -3.25487 -0.86948 0
M  V30 3880 O 353.261 -3.51938 -1.93655 0
M  V30 3881 N 351.467 -2.78875 -0.817147 0
M  V30 3882 H 351.014 -2.57549 0.0514211 0
M  V30 3883 H 350.972 -2.66036 -1.67547 0
M  V30 3884 N 354.744 -0.972509 -1.24016 0
M  V30 3885 C 355.654 -0.5143 -2.28893 0
M  V30 3886 C 356.67 0.427078 -1.68677 0
M  V30 3887 O 357.846 0.298939 -1.99169 0
M  V30 3888 C 354.911 0.183598 -3.46214 0
M  V30 3889 C 353.972 -0.798202 -4.21814 0
M  V30 3890 C 353.205 -0.133514 -5.33533 0
M  V30 3891 O 353.428 1.07714 -5.60137 0
M  V30 3892 O 352.362 -0.828103 -5.96176 0
M  V30 3893 H 356.188 -1.38629 -2.70214 0
M  V30 3894 H 353.773 -0.739769 -1.29799 0
M  V30 3895 H 355.655 0.575433 -4.17453 0
M  V30 3896 H 354.33 1.03048 -3.0686 0
M  V30 3897 H 353.237 -1.24059 -3.52931 0
M  V30 3898 H 354.57 -1.61364 -4.64997 0
M  V30 3899 N 356.222 1.38976 -0.743202 0
M  V30 3900 C 357.633 1.83123 -0.363732 0
M  V30 3901 C 357.984 1.6205 1.10609 0
M  V30 3902 O 357.109 1.11606 1.854 0
M  V30 3903 C 357.704 3.32439 -0.653408 0
M  V30 3904 C 356.263 3.74974 -0.327338 0
M  V30 3905 C 355.41 2.61878 -0.911875 0
M  V30 3906 H 358.361 1.27852 -0.940191 0
M  V30 3907 H 358.382 3.80432 0.0720031 0
M  V30 3908 H 357.894 3.47745 -1.72323 0
M  V30 3909 H 355.995 3.65252 0.736314 0
M  V30 3910 H 356.108 4.72106 -0.815631 0
M  V30 3911 H 354.472 2.52448 -0.337944 0
M  V30 3912 H 355.255 2.79987 -1.98651 0
M  V30 3913 N 357.7 0.491464 1.49741 0
M  V30 3914 C 358.947 -0.0564256 2.02421 0
M  V30 3915 C 359.275 -1.37872 1.37192 0
M  V30 3916 O 358.53 -1.89375 0.493508 0
M  V30 3917 C 358.829 -0.267329 3.56399 0
M  V30 3918 C 358.495 0.975775 4.40215 0
M  V30 3919 C 357.157 1.31655 4.62839 0
M  V30 3920 C 359.509 1.80251 4.89039 0
M  V30 3921 C 356.837 2.48375 5.31532 0
M  V30 3922 C 359.189 2.96116 5.59015 0
M  V30 3923 C 357.853 3.30585 5.79888 0
M  V30 3924 H 357.123 -0.0206476 0.740712 0
M  V30 3925 H 359.77 0.649686 1.80143 0
M  V30 3926 H 358.075 -1.05588 3.77304 0
M  V30 3927 H 359.772 -0.705549 3.94744 0
M  V30 3928 H 356.362 0.700315 4.2284 0
M  V30 3929 H 360.546 1.55239 4.71396 0
M  V30 3930 H 355.802 2.7533 5.45897 0
M  V30 3931 H 359.976 3.60509 5.95824 0
M  V30 3932 H 357.603 4.21132 6.32892 0
M  V30 3933 N 359.178 -1.55987 0.224894 0
M  V30 3934 C 360.125 -2.20436 -0.68385 0
M  V30 3935 C 361.095 -1.16102 -1.18783 0
M  V30 3936 O 362.28 -1.4447 -1.24632 0
M  V30 3937 C 359.42 -2.89076 -1.88491 0
M  V30 3938 C 358.533 -4.08012 -1.41951 0
M  V30 3939 C 357.668 -4.64426 -2.5784 0
M  V30 3940 C 356.707 -5.75656 -2.08053 0
M  V30 3941 N 355.844 -6.26347 -3.17227 0
M  V30 3942 H 360.684 -2.97727 -0.12754 0
M  V30 3943 H 358.221 -1.47011 -0.0511978 0
M  V30 3944 H 360.179 -3.27059 -2.59014 0
M  V30 3945 H 358.809 -2.14298 -2.41405 0
M  V30 3946 H 357.861 -3.75492 -0.609095 0
M  V30 3947 H 359.173 -4.88375 -1.01447 0
M  V30 3948 H 358.327 -5.04869 -3.3644 0
M  V30 3949 H 357.066 -3.83233 -3.01635 0
M  V30 3950 H 356.071 -5.34712 -1.27916 0
M  V30 3951 H 357.296 -6.58686 -1.65255 0
M  V30 3952 H 355.242 -5.48067 -3.60497 0
M  V30 3953 H 355.159 -7.01843 -2.80986 0
M  V30 3954 H 356.427 -6.71447 -3.95953 0
M  V30 3955 N 360.656 0.0484629 -1.57525 0
M  V30 3956 C 361.905 0.742065 -1.87553 0
M  V30 3957 C 362.218 1.77545 -0.820802 0
M  V30 3958 O 363.424 2.52027 -1.00967 0
M  V30 3959 C 361.88 1.37081 -3.32771 0
M  V30 3960 C 361.488 0.374786 -4.4643 0
M  V30 3961 C 363.232 2.04542 -3.71972 0
M  V30 3962 C 361.139 1.01077 -5.82698 0
M  V30 3963 H 360.069 0.280903 -0.699721 0
M  V30 3964 H 362.72 -0.00411877 -1.835 0
M  V30 3965 H 361.102 2.16605 -3.31509 0
M  V30 3966 H 362.276 -0.392331 -4.59127 0
M  V30 3967 H 360.591 -0.196653 -4.15935 0
M  V30 3968 H 363.188 2.52943 -4.71088 0
M  V30 3969 H 363.531 2.85515 -3.02964 0
M  V30 3970 H 364.064 1.31819 -3.75325 0
M  V30 3971 H 360.803 0.240878 -6.55057 0
M  V30 3972 H 360.323 1.74819 -5.73758 0
M  V30 3973 H 362.002 1.52383 -6.28799 0
M  V30 3974 N 362.134 1.5431 0.320358 0
M  V30 3975 C 363.545 1.63872 0.894594 0
M  V30 3976 C 363.896 0.534847 1.88769 0
M  V30 3977 O 363.021 -0.331732 2.13842 0
M  V30 3978 C 363.616 2.97049 1.62934 0
M  V30 3979 C 362.175 3.08796 2.15226 0
M  V30 3980 C 361.322 2.59456 0.978671 0
M  V30 3981 H 364.273 1.58398 0.0978544 0
M  V30 3982 H 364.294 2.87388 2.49376 0
M  V30 3983 H 363.806 3.7737 0.906302 0
M  V30 3984 H 361.907 2.33156 2.90636 0
M  V30 3985 H 362.02 4.14649 2.40006 0
M  V30 3986 H 360.384 2.1543 1.35875 0
M  V30 3987 H 361.167 3.42237 0.269895 0
M  V30 3988 N 363.613 -0.582584 1.46437 0
M  V30 3989 C 364.523 -1.71949 1.59595 0
M  V30 3990 C 365.539 -1.67264 0.479443 0
M  V30 3991 O 366.715 -1.87171 0.743579 0
M  V30 3992 C 363.78 -3.08452 1.58298 0
M  V30 3993 C 362.841 -3.244 2.81182 0
M  V30 3994 C 362.074 -4.54391 2.79937 0
M  V30 3995 O 362.297 -5.38287 1.8869 0
M  V30 3996 O 361.231 -4.73588 3.71481 0
M  V30 3997 H 365.057 -1.63795 2.55744 0
M  V30 3998 H 362.642 -0.749643 1.29231 0
M  V30 3999 H 364.524 -3.89732 1.60271 0
M  V30 4000 H 363.199 -3.17043 0.653094 0
M  V30 4001 H 362.106 -2.42613 2.84763 0
M  V30 4002 H 363.439 -3.20699 3.7338 0
M  V30 4003 N 365.091 -1.34144 -0.827227 0
M  V30 4004 C 366.368 -1.16844 -1.56865 0
M  V30 4005 C 366.748 0.260654 -2.09485 0
M  V30 4006 O 366.096 1.26138 -1.9053 0
M  V30 4007 C 366.306 -2.21939 -2.6934 0
M  V30 4008 C 367.654 -2.56695 -3.3822 0
M  V30 4009 O 368.678 -2.20695 -2.79593 0
M  V30 4010 O 367.537 -3.18518 -4.44082 0
M  V30 4011 H 364.631 -0.452669 -0.692112 0
M  V30 4012 H 367.177 -1.45763 -0.868973 0
M  V30 4013 H 365.949 -3.17882 -2.28182 0
M  V30 4014 H 365.572 -1.94172 -3.46962 0
M  V30 4015 N 366.569 1.04691 -1.17803 0
M  V30 4016 C 367.846 1.7472 -0.879328 0
M  V30 4017 C 368.226 2.01812 0.619271 0
M  V30 4018 O 367.574 1.65824 1.57209 0
M  V30 4019 C 367.784 3.03686 -1.71976 0
M  V30 4020 C 369.132 3.77542 -1.94286 0
M  V30 4021 O 370.156 3.13569 -1.68976 0
M  V30 4022 O 369.015 4.92506 -2.36855 0
M  V30 4023 H 366.109 0.760011 -0.326056 0
M  V30 4024 H 368.655 1.10813 -1.28525 0
M  V30 4025 H 367.427 2.79754 -2.73594 0
M  V30 4026 H 367.05 3.75332 -1.31194 0
M  V30 4027 N 368.047 0.979072 1.23499 0
M  V30 4028 C 369.295 0.645941 1.91499 0
M  V30 4029 C 369.616 -0.822948 1.76784 0
M  V30 4030 O 368.886 -1.58854 1.14639 0
M  V30 4031 H 367.466 0.235919 0.708767 0
M  V30 4032 H 370.128 1.2426 1.50152 0
M  V30 4033 H 369.224 0.896411 2.9895 0
M  V30 4034 N 369.525 -1.3858 0.750561 0
M  V30 4035 C 370.473 -2.32339 0.110162 0
M  V30 4036 C 371.467 -1.53864 -0.708674 0
M  V30 4037 O 372.673 -1.69417 -0.608112 0
M  V30 4038 H 369.048 -0.751812 0.0168275 0
M  V30 4039 H 371.019 -2.83959 0.917053 0
M  V30 4040 C 369.768 -3.39043 -0.771067 0
M  V30 4041 H 369.091 -3.99517 -0.150374 0
M  V30 4042 H 370.531 -4.07061 -1.1865 0
M  V30 4043 C 368.99 -2.77365 -1.91234 0
M  V30 4044 O 369.52 -2.66434 -3.00626 0
M  V30 4045 N 367.726 -2.35219 -1.70646 0
M  V30 4046 H 367.273 -2.4431 -0.81673 0
M  V30 4047 H 367.231 -1.94294 -2.47178 0
M  V30 4048 N 371.003 -0.499398 -1.49478 0
M  V30 4049 C 372.28 0.108629 -1.95298 0
M  V30 4050 C 372.66 1.54282 -1.44084 0
M  V30 4051 O 372.008 2.18944 -0.653908 0
M  V30 4052 C 372.218 0.0229111 -3.48992 0
M  V30 4053 C 373.566 0.197643 -4.2414 0
M  V30 4054 O 374.59 0.0981735 -3.56065 0
M  V30 4055 O 373.449 0.401669 -5.45022 0
M  V30 4056 H 370.543 0.096181 -0.821388 0
M  V30 4057 H 373.089 -0.561822 -1.6013 0
M  V30 4058 H 371.861 -0.977321 -3.78899 0
M  V30 4059 H 371.484 0.733579 -3.90774 0
M  V30 4060 N 372.481 1.55866 -0.233164 0
M  V30 4061 C 373.411 2.23783 0.666599 0
M  V30 4062 C 374.392 1.21343 1.19205 0
M  V30 4063 O 375.577 1.4996 1.23392 0
M  V30 4064 C 372.707 2.92671 1.86978 0
M  V30 4065 C 371.661 4.01682 1.47768 0
M  V30 4066 C 370.987 4.57926 2.76058 0
M  V30 4067 C 372.287 5.18126 0.658993 0
M  V30 4068 H 373.981 2.99232 0.100306 0
M  V30 4069 H 371.527 1.43924 0.046804 0
M  V30 4070 H 373.48 3.3888 2.50476 0
M  V30 4071 H 372.204 2.14688 2.46123 0
M  V30 4072 H 370.863 3.56222 0.866106 0
M  V30 4073 H 370.511 3.76659 3.33372 0
M  V30 4074 H 370.211 5.31505 2.50552 0
M  V30 4075 H 371.735 5.06859 3.40479 0
M  V30 4076 H 373.149 5.60644 1.19795 0
M  V30 4077 H 371.546 5.98009 0.500552 0
M  V30 4078 H 372.616 4.83763 -0.331856 0
M  V30 4079 N 373.959 -0.0401083 1.57549 0
M  V30 4080 C 375.187 -0.745196 1.93014 0
M  V30 4081 C 375.602 -1.6948 0.831984 0
M  V30 4082 O 374.959 -1.81482 -0.192463 0
M  V30 4083 C 375.01 -1.51176 3.28372 0
M  V30 4084 O 374.731 -0.600284 4.33968 0
M  V30 4085 C 376.232 -2.315 3.78051 0
M  V30 4086 H 373.452 -0.210088 0.637263 0
M  V30 4087 H 375.996 -0.000924689 2.045 0
M  V30 4088 H 374.151 -2.20801 3.18317 0
M  V30 4089 H 374.565 -1.13669 5.12035 0
M  V30 4090 H 376.039 -2.80697 4.75303 0
M  V30 4091 H 376.516 -3.12436 3.08675 0
M  V30 4092 H 377.122 -1.66971 3.91153 0
M  V30 4093 N 375.437 -1.54477 -0.31217 0
M  V30 4094 C 376.387 -1.81037 -1.38598 0
M  V30 4095 C 377.371 -0.666941 -1.46426 0
M  V30 4096 O 378.563 -0.927269 -1.50767 0
M  V30 4097 C 375.692 -2.05127 -2.75277 0
M  V30 4098 C 374.778 -3.25624 -2.71716 0
M  V30 4099 N 375.169 -4.46428 -2.37773 0
M  V30 4100 C 373.467 -3.27427 -3.02833 0
M  V30 4101 C 374.168 -5.28406 -2.43232 0
M  V30 4102 N 373.144 -4.6586 -2.80135 0
M  V30 4103 H 376.946 -2.7201 -1.11301 0
M  V30 4104 H 374.46 -1.53826 -0.520705 0
M  V30 4105 H 376.457 -2.22299 -3.52688 0
M  V30 4106 H 375.117 -1.15416 -3.03495 0
M  V30 4107 H 376.128 -4.73227 -2.1042 0
M  V30 4108 H 372.805 -2.47786 -3.36018 0
M  V30 4109 H 374.195 -6.34903 -2.19882 0
M  V30 4110 N 376.915 0.57481 -1.46744 0
M  V30 4111 C 378.143 1.35856 -1.56047 0
M  V30 4112 C 378.558 1.87691 -0.204365 0
M  V30 4113 O 377.915 1.64049 0.79963 0
M  V30 4114 C 377.966 2.54066 -2.57163 0
M  V30 4115 O 377.687 2.04377 -3.87507 0
M  V30 4116 C 379.188 3.46514 -2.76483 0
M  V30 4117 H 376.408 0.414754 -0.527466 0
M  V30 4118 H 378.952 0.698035 -1.92218 0
M  V30 4119 H 377.107 3.16092 -2.23974 0
M  V30 4120 H 377.521 2.81419 -4.4261 0
M  V30 4121 H 378.995 4.25919 -3.51137 0
M  V30 4122 H 379.472 3.98951 -1.83671 0
M  V30 4123 H 380.078 2.90318 -3.10799 0
M  V30 4124 N 378.394 1.34581 0.820102 0
M  V30 4125 C 379.641 1.27096 1.57648 0
M  V30 4126 C 379.969 -0.158317 1.93855 0
M  V30 4127 O 379.224 -1.12028 1.60463 0
M  V30 4128 C 379.523 2.10997 2.8847 0
M  V30 4129 C 379.189 3.59966 2.71543 0
M  V30 4130 C 377.851 4.00575 2.66634 0
M  V30 4131 C 380.203 4.54548 2.55021 0
M  V30 4132 C 377.531 5.33953 2.43128 0
M  V30 4133 C 379.883 5.88109 2.33047 0
M  V30 4134 C 378.547 6.27878 2.26552 0
M  V30 4135 H 377.817 0.465078 0.576874 0
M  V30 4136 H 380.464 1.6635 0.948671 0
M  V30 4137 H 378.769 1.6458 3.55557 0
M  V30 4138 H 380.466 2.0255 3.46084 0
M  V30 4139 H 377.056 3.27733 2.76205 0
M  V30 4140 H 381.24 4.24069 2.57835 0
M  V30 4141 H 376.496 5.63781 2.3656 0
M  V30 4142 H 380.67 6.60985 2.19251 0
M  V30 4143 H 378.297 7.31162 2.081 0
M  V30 4144 N 379.872 -1.04064 1.18357 0
M  V30 4145 C 381.119 -1.77265 0.978947 0
M  V30 4146 C 381.447 -1.88189 -0.491428 0
M  V30 4147 O 380.702 -1.38653 -1.38108 0
M  V30 4148 C 381.001 -3.20634 1.57888 0
M  V30 4149 C 380.667 -3.29743 3.07539 0
M  V30 4150 C 379.329 -3.31937 3.48384 0
M  V30 4151 C 381.681 -3.29841 4.03552 0
M  V30 4152 C 379.009 -3.3187 4.83818 0
M  V30 4153 C 381.361 -3.31313 5.38901 0
M  V30 4154 C 380.025 -3.31799 5.79194 0
M  V30 4155 H 379.295 -0.648659 0.358222 0
M  V30 4156 H 381.942 -1.22225 1.47422 0
M  V30 4157 H 380.247 -3.78675 1.00561 0
M  V30 4158 H 381.944 -3.75917 1.39598 0
M  V30 4159 H 378.534 -3.28757 2.74986 0
M  V30 4160 H 382.718 -3.27337 3.73047 0
M  V30 4161 H 377.974 -3.30562 5.14333 0
M  V30 4162 H 382.148 -3.30338 6.13066 0
M  V30 4163 H 379.775 -3.315 6.84114 0
M  V30 4164 N 381.35 -0.985608 -1.22978 0
M  V30 4165 C 382.298 -0.522631 -2.26652 0
M  V30 4166 C 383.292 0.422998 -1.64034 0
M  V30 4167 O 384.498 0.296319 -1.77544 0
M  V30 4168 H 380.873 -0.150597 -0.736766 0
M  V30 4169 H 382.844 -1.40863 -2.63059 0
M  V30 4170 C 381.593 0.154238 -3.47358 0
M  V30 4171 H 380.916 -0.564329 -3.95797 0
M  V30 4172 H 382.356 0.441744 -4.21693 0
M  V30 4173 C 380.815 1.38719 -3.07016 0
M  V30 4174 O 381.345 2.48307 -3.15764 0
M  V30 4175 N 379.551 1.25975 -2.61875 0
M  V30 4176 H 379.098 0.368068 -2.54957 0
M  V30 4177 H 379.056 2.08578 -2.3525 0
M  V30 4178 N 382.828 1.3818 -0.7579 0
M  V30 4179 C 384.239 1.82726 -0.383134 0
M  V30 4180 C 384.59 1.63214 1.08884 0
M  V30 4181 O 383.715 1.13566 1.84205 0
M  V30 4182 C 384.31 3.31728 -0.688631 0
M  V30 4183 C 382.869 3.74606 -0.367091 0
M  V30 4184 C 382.016 2.60896 -0.939599 0
M  V30 4185 H 384.967 1.26847 -0.953699 0
M  V30 4186 H 384.988 3.80487 0.0316492 0
M  V30 4187 H 384.5 3.45898 -1.76001 0
M  V30 4188 H 382.601 3.66013 0.697532 0
M  V30 4189 H 382.714 4.71215 -0.865658 0
M  V30 4190 H 381.078 2.52075 -0.3647 0
M  V30 4191 H 381.861 2.77864 -2.0161 0
M  V30 4192 N 384.306 0.507319 1.49211 0
M  V30 4193 C 385.583 -0.0982702 1.95353 0
M  V30 4194 C 385.963 -1.53516 1.449 0
M  V30 4195 O 385.311 -2.18594 0.66551 0
M  V30 4196 C 385.521 -0.00440283 3.49 0
M  V30 4197 C 386.869 -0.175147 4.24239 0
M  V30 4198 O 387.893 -0.0792891 3.56112 0
M  V30 4199 O 386.752 -0.37276 5.45227 0
M  V30 4200 H 383.846 -0.0918236 0.821887 0
M  V30 4201 H 386.392 0.570307 1.5983 0
M  V30 4202 H 385.164 0.997402 3.78375 0
M  V30 4203 H 384.787 -0.712845 3.91158 0
M  V30 4204 N 385.784 -1.5574 0.241426 0
M  V30 4205 C 387.2 -1.59196 -0.113548 0
M  V30 4206 C 387.4 -1.25852 -1.57364 0
M  V30 4207 O 386.456 -1.00322 -2.31715 0
M  V30 4208 C 387.769 -2.99814 0.230695 0
M  V30 4209 C 389.317 -3.12513 0.174547 0
M  V30 4210 C 389.792 -4.55342 0.492744 0
M  V30 4211 N 391.283 -4.61076 0.443043 0
M  V30 4212 C 392.018 -5.6956 0.662484 0
M  V30 4213 N 391.514 -6.86328 0.944761 0
M  V30 4214 N 393.307 -5.58957 0.593564 0
M  V30 4215 H 385.458 -1.75685 1.19368 0
M  V30 4216 H 387.721 -0.81756 0.479896 0
M  V30 4217 H 387.427 -3.28932 1.24485 0
M  V30 4218 H 387.301 -3.74568 -0.444833 0
M  V30 4219 H 389.688 -2.83179 -0.830277 0
M  V30 4220 H 389.769 -2.40045 0.883845 0
M  V30 4221 H 389.413 -4.85396 1.4951 0
M  V30 4222 H 389.343 -5.26062 -0.23797 0
M  V30 4223 H 391.834 -3.77179 0.233374 0
M  V30 4224 H 392.147 -7.64935 1.09977 0
M  V30 4225 H 390.492 -6.88025 0.982175 0
M  V30 4226 H 393.683 -4.66611 0.373123 0
M  V30 4227 H 393.856 -6.43433 0.767981 0
M  V30 4228 N 387.262 0.0317525 -1.57568 0
M  V30 4229 C 388.172 1.05021 -2.0978 0
M  V30 4230 C 389.188 1.39809 -1.03583 0
M  V30 4231 O 390.364 1.49182 -1.35302 0
M  V30 4232 C 387.429 2.33301 -2.56459 0
M  V30 4233 C 386.49 2.0512 -3.77127 0
M  V30 4234 C 385.723 3.27283 -4.2157 0
M  V30 4235 O 385.946 4.37861 -3.65559 0
M  V30 4236 O 384.88 3.13141 -5.14029 0
M  V30 4237 H 388.706 0.636505 -2.96955 0
M  V30 4238 H 386.291 0.248559 -1.47318 0
M  V30 4239 H 388.173 3.08722 -2.86825 0
M  V30 4240 H 386.848 2.73973 -1.72397 0
M  V30 4241 H 385.755 1.27276 -3.51784 0
M  V30 4242 H 387.088 1.69305 -4.62165 0
M  V30 4243 N 388.74 1.54641 0.303973 0
M  V30 4244 C 389.988 1.73437 1.0375 0
M  V30 4245 C 390.309 0.521449 1.87899 0
M  V30 4246 O 389.579 -0.46432 1.90318 0
M  V30 4247 H 388.159 0.639518 0.386039 0
M  V30 4248 H 390.821 1.91988 0.335675 0
M  V30 4249 H 389.917 2.62235 1.69231 0
M  V30 4250 N 390.218 -0.567019 1.47046 0
M  V30 4251 C 391.464 -1.32434 1.54379 0
M  V30 4252 C 391.819 -1.91365 0.199276 0
M  V30 4253 O 391.112 -1.74378 -0.793915 0
M  V30 4254 C 391.306 -2.4623 2.59047 0
M  V30 4255 C 391.135 -1.98448 4.03545 0
M  V30 4256 C 389.905 -1.82741 4.71098 0
M  V30 4257 C 392.103 -1.53477 4.90866 0
M  V30 4258 N 390.085 -1.29196 6.00151 0
M  V30 4259 C 391.456 -1.1163 6.09868 0
M  V30 4260 C 393.511 -1.41438 4.77388 0
M  V30 4261 C 392.214 -0.589425 7.16881 0
M  V30 4262 C 394.24 -0.901528 5.84488 0
M  V30 4263 C 393.602 -0.492932 7.02673 0
M  V30 4264 H 389.701 -0.477005 0.61967 0
M  V30 4265 H 392.285 -0.643856 1.83746 0
M  V30 4266 H 390.456 -3.11821 2.31564 0
M  V30 4267 H 392.188 -3.13213 2.56281 0
M  V30 4268 H 388.943 -2.05162 4.26855 0
M  V30 4269 H 389.367 -1.0454 6.6888 0
M  V30 4270 H 394.009 -1.71643 3.86392 0
M  V30 4271 H 391.727 -0.274994 8.07632 0
M  V30 4272 H 395.313 -0.812071 5.76105 0
M  V30 4273 H 394.193 -0.102227 7.84133 0
M  V30 4274 N 391.696 -1.35014 -0.812953 0
M  V30 4275 C 392.626 -1.30069 -1.93919 0
M  V30 4276 C 393.607 -0.176275 -1.69184 0
M  V30 4277 O 394.792 -0.370227 -1.90638 0
M  V30 4278 C 391.922 -1.06547 -3.30552 0
M  V30 4279 C 390.876 -2.15561 -3.69753 0
M  V30 4280 C 390.202 -1.77214 -5.04479 0
M  V30 4281 C 391.502 -3.57476 -3.808 0
M  V30 4282 H 393.196 -2.24303 -1.98314 0
M  V30 4283 H 390.742 -1.07977 -0.952736 0
M  V30 4284 H 392.695 -1.01729 -4.08937 0
M  V30 4285 H 391.419 -0.0875719 -3.26483 0
M  V30 4286 H 390.078 -2.19466 -2.9365 0
M  V30 4287 H 389.726 -0.780589 -4.96906 0
M  V30 4288 H 389.426 -2.50184 -5.31678 0
M  V30 4289 H 390.95 -1.7391 -5.8531 0
M  V30 4290 H 392.364 -3.55929 -4.4943 0
M  V30 4291 H 390.761 -4.29152 -4.19462 0
M  V30 4292 H 391.831 -3.94091 -2.82525 0
M  V30 4293 N 393.175 1.03435 -1.18907 0
M  V30 4294 C 394.105 2.13503 -0.945448 0
M  V30 4295 C 395.086 1.69682 0.119189 0
M  V30 4296 O 396.271 1.94169 -0.034707 0
M  V30 4297 C 393.401 3.44004 -0.477316 0
M  V30 4298 C 392.355 4.0148 -1.48316 0
M  V30 4299 C 391.681 5.27537 -0.872311 0
M  V30 4300 C 392.981 4.36921 -2.86177 0
M  V30 4301 H 394.675 2.34141 -1.86597 0
M  V30 4302 H 392.221 1.12523 -0.898584 0
M  V30 4303 H 394.174 4.20372 -0.294204 0
M  V30 4304 H 392.898 3.23072 0.478786 0
M  V30 4305 H 391.557 3.27201 -1.65332 0
M  V30 4306 H 391.205 5.02917 0.0911752 0
M  V30 4307 H 390.905 5.66954 -1.54393 0
M  V30 4308 H 392.429 6.06576 -0.699871 0
M  V30 4309 H 393.843 5.04248 -2.72776 0
M  V30 4310 H 392.24 4.87405 -3.50081 0
M  V30 4311 H 393.31 3.46466 -3.39248 0
M  V30 4312 N 394.653 0.992116 1.22453 0
M  V30 4313 C 395.6 0.541731 2.24352 0
M  V30 4314 C 396.57 -0.425519 1.60557 0
M  V30 4315 O 397.755 -0.330453 1.87917 0
M  V30 4316 C 394.895 -0.138248 3.44823 0
M  V30 4317 C 394.008 0.870649 4.23136 0
M  V30 4318 C 393.143 0.164269 5.30946 0
M  V30 4319 C 392.182 1.16159 6.00977 0
M  V30 4320 N 391.319 0.483568 7.00433 0
M  V30 4321 H 396.159 1.41541 2.62241 0
M  V30 4322 H 393.696 0.709013 1.28885 0
M  V30 4323 H 395.654 -0.5494 4.13567 0
M  V30 4324 H 394.284 -0.975721 3.077 0
M  V30 4325 H 393.336 1.40013 3.53696 0
M  V30 4326 H 394.648 1.63014 4.7141 0
M  V30 4327 H 393.802 -0.303653 6.0594 0
M  V30 4328 H 392.541 -0.627733 4.83643 0
M  V30 4329 H 391.546 1.64015 5.24766 0
M  V30 4330 H 392.771 1.95445 6.50368 0
M  V30 4331 H 390.717 -0.289012 6.55363 0
M  V30 4332 H 390.634 1.18152 7.4671 0
M  V30 4333 H 391.902 0.0384219 7.79491 0
M  V30 4334 N 396.131 -1.37776 0.765217 0
M  V30 4335 C 397.061 -2.32945 0.160953 0
M  V30 4336 C 398.042 -1.55454 -0.690516 0
M  V30 4337 O 399.227 -1.83721 -0.629318 0
M  V30 4338 C 396.357 -3.39669 -0.724031 0
M  V30 4339 C 395.311 -4.27992 0.0256173 0
M  V30 4340 C 394.637 -5.25673 -0.978383 0
M  V30 4341 C 395.937 -5.08309 1.20082 0
M  V30 4342 H 397.631 -2.83728 0.955969 0
M  V30 4343 H 395.177 -1.36416 0.461149 0
M  V30 4344 H 397.13 -4.05219 -1.15652 0
M  V30 4345 H 395.854 -2.87396 -1.5515 0
M  V30 4346 H 394.513 -3.63964 0.438812 0
M  V30 4347 H 394.161 -4.69682 -1.80022 0
M  V30 4348 H 393.861 -5.85625 -0.481378 0
M  V30 4349 H 395.385 -5.94098 -1.40995 0
M  V30 4350 H 396.799 -5.67034 0.845307 0
M  V30 4351 H 395.196 -5.77554 1.62947 0
M  V30 4352 H 396.266 -4.41365 2.00811 0
M  V30 4353 N 397.609 -0.515225 -1.4894 0
M  V30 4354 C 398.857 0.0241671 -2.02086 0
M  V30 4355 C 399.178 1.3616 -1.3959 0
M  V30 4356 O 398.448 1.87841 -0.556121 0
M  V30 4357 H 397.028 0.0119203 -0.746905 0
M  V30 4358 H 399.69 -0.675702 -1.82812 0
M  V30 4359 H 398.786 0.143385 -3.1177 0
M  V30 4360 N 399.087 1.5561 -0.249682 0
M  V30 4361 C 400.335 1.98618 0.373548 0
M  V30 4362 C 400.656 1.13919 1.58264 0
M  V30 4363 O 399.926 0.222637 1.94631 0
M  V30 4364 H 398.506 0.733571 0.141006 0
M  V30 4365 H 401.168 1.91748 -0.349117 0
M  V30 4366 H 400.264 3.04584 0.680796 0
M  V30 4367 N 400.565 -0.0233959 1.57583 0
M  V30 4368 C 401.813 -0.711654 1.89156 0
M  V30 4369 C 402.134 -1.75591 0.848096 0
M  V30 4370 O 401.404 -1.95547 -0.117566 0
M  V30 4371 H 399.984 -0.265835 0.698098 0
M  V30 4372 H 402.646 0.0119948 1.94896 0
M  V30 4373 H 401.742 -1.19766 2.88206 0
M  V30 4374 N 402.043 -1.548 -0.295768 0
M  V30 4375 C 403.459 -1.4613 -0.641722 0
M  V30 4376 C 403.659 -0.656771 -1.90496 0
M  V30 4377 O 402.715 -0.166547 -2.5195 0
M  V30 4378 C 404.028 -2.90141 -0.789852 0
M  V30 4379 C 405.576 -3.00216 -0.885396 0
M  V30 4380 C 406.051 -4.45434 -1.06548 0
M  V30 4381 N 407.542 -4.49166 -1.13156 0
M  V30 4382 C 408.277 -5.58717 -1.28929 0
M  V30 4383 N 407.773 -6.78182 -1.41567 0
M  V30 4384 N 409.566 -5.46415 -1.31859 0
M  V30 4385 H 401.717 -2.05574 0.534147 0
M  V30 4386 H 403.98 -0.931259 0.177372 0
M  V30 4387 H 403.686 -3.51635 0.0675598 0
M  V30 4388 H 403.56 -3.37859 -1.67724 0
M  V30 4389 H 405.947 -2.38833 -1.73329 0
M  V30 4390 H 406.028 -2.55787 0.0261185 0
M  V30 4391 H 405.672 -5.07413 -0.222335 0
M  V30 4392 H 405.602 -4.87499 -1.9913 0
M  V30 4393 H 408.093 -3.631 -1.04721 0
M  V30 4394 H 408.406 -7.57428 -1.53372 0
M  V30 4395 H 406.751 -6.81037 -1.38613 0
M  V30 4396 H 409.942 -4.5203 -1.21601 0
M  V30 4397 H 410.115 -6.31841 -1.43808 0
M  V30 4398 N 403.521 0.559213 -1.47345 0
M  V30 4399 C 404.767 1.31843 -1.54095 0
M  V30 4400 C 405.1 1.93149 -0.201726 0
M  V30 4401 O 404.375 1.77759 0.789428 0
M  V30 4402 C 404.658 2.43006 -2.65744 0
M  V30 4403 C 404.511 1.86581 -4.09277 0
M  V30 4404 C 405.83 3.44943 -2.73318 0
M  V30 4405 H 402.949 0.478012 -0.560957 0
M  V30 4406 H 405.591 0.625977 -1.79392 0
M  V30 4407 H 403.741 3.02072 -2.44305 0
M  V30 4408 H 405.413 1.31792 -4.42073 0
M  V30 4409 H 403.656 1.17268 -4.17649 0
M  V30 4410 H 404.327 2.66933 -4.83168 0
M  V30 4411 H 406.803 2.95793 -2.92653 0
M  V30 4412 H 405.679 4.20153 -3.53218 0
M  V30 4413 H 405.94 4.03665 -1.80296 0
M  V30 4414 N 404.999 1.35443 0.805782 0
M  V30 4415 C 405.946 1.28431 1.91766 0
M  V30 4416 C 406.916 0.156102 1.65365 0
M  V30 4417 O 408.101 0.339936 1.87747 0
M  V30 4418 C 405.241 1.06301 3.2832 0
M  V30 4419 C 404.354 2.2805 3.66902 0
M  V30 4420 C 403.489 1.99064 4.92491 0
M  V30 4421 C 402.528 3.16863 5.23703 0
M  V30 4422 N 401.665 2.87647 6.40471 0
M  V30 4423 H 406.505 2.23511 1.97096 0
M  V30 4424 H 404.042 1.11105 0.964054 0
M  V30 4425 H 406 0.915012 4.07042 0
M  V30 4426 H 404.63 0.148822 3.22457 0
M  V30 4427 H 403.682 2.53711 2.83434 0
M  V30 4428 H 404.994 3.1601 3.85927 0
M  V30 4429 H 404.148 1.81099 5.7904 0
M  V30 4430 H 402.887 1.0839 4.75503 0
M  V30 4431 H 401.892 3.35404 4.35642 0
M  V30 4432 H 403.117 4.08339 5.4262 0
M  V30 4433 H 401.063 1.99568 6.24907 0
M  V30 4434 H 400.98 3.69141 6.59751 0
M  V30 4435 H 402.248 2.73226 7.30047 0
M  V30 4436 N 406.477 -1.02803 1.19454 0
M  V30 4437 C 407.705 -1.79841 1.02297 0
M  V30 4438 C 408.12 -1.83879 -0.428259 0
M  V30 4439 O 407.477 -1.28345 -1.29745 0
M  V30 4440 C 407.528 -3.24852 1.58598 0
M  V30 4441 O 407.249 -3.21097 2.98041 0
M  V30 4442 C 408.75 -4.18485 1.46236 0
M  V30 4443 H 405.97 -0.565936 0.360496 0
M  V30 4444 H 408.514 -1.2948 1.58288 0
M  V30 4445 H 406.669 -3.72401 1.06753 0
M  V30 4446 H 407.083 -4.12033 3.24545 0
M  V30 4447 H 408.557 -5.18121 1.90407 0
M  V30 4448 H 409.034 -4.37254 0.41301 0
M  V30 4449 H 409.64 -3.76811 1.97215 0
M  V30 4450 N 407.956 -0.998596 -1.21925 0
M  V30 4451 C 409.202 -0.688337 -1.91399 0
M  V30 4452 C 409.557 0.771805 -1.76241 0
M  V30 4453 O 408.85 1.55153 -1.1242 0
M  V30 4454 C 409.044 -1.03648 -3.42041 0
M  V30 4455 C 408.873 -2.52892 -3.71855 0
M  V30 4456 C 407.643 -3.19389 -3.91559 0
M  V30 4457 C 409.841 -3.5103 -3.75875 0
M  V30 4458 N 407.823 -4.5805 -4.08734 0
M  V30 4459 C 409.194 -4.75174 -3.98259 0
M  V30 4460 C 411.249 -3.45257 -3.58751 0
M  V30 4461 C 409.952 -5.94247 -4.05294 0
M  V30 4462 C 411.978 -4.63712 -3.67049 0
M  V30 4463 C 411.34 -5.86658 -3.89887 0
M  V30 4464 H 407.439 -0.303251 -0.720807 0
M  V30 4465 H 410.023 -1.27977 -1.46731 0
M  V30 4466 H 408.194 -0.473569 -3.85502 0
M  V30 4467 H 409.926 -0.681619 -3.98919 0
M  V30 4468 H 406.681 -2.69846 -3.89205 0
M  V30 4469 H 407.105 -5.29989 -4.21237 0
M  V30 4470 H 411.747 -2.51215 -3.40075 0
M  V30 4471 H 409.465 -6.88687 -4.22772 0
M  V30 4472 H 413.051 -4.6084 -3.5513 0
M  V30 4473 H 411.931 -6.76786 -3.96144 0
M  V30 4474 N 409.434 1.37368 -0.772513 0
M  V30 4475 C 410.381 2.30262 -0.157488 0
M  V30 4476 C 411.351 1.51137 0.688965 0
M  V30 4477 O 412.536 1.79704 0.641168 0
M  V30 4478 C 409.676 3.37611 0.715045 0
M  V30 4479 C 408.789 4.31746 -0.148098 0
M  V30 4480 C 407.924 5.26171 0.729213 0
M  V30 4481 C 406.963 6.11948 -0.136418 0
M  V30 4482 N 406.1 6.98613 0.698914 0
M  V30 4483 H 410.94 2.82277 -0.955179 0
M  V30 4484 H 408.477 1.38957 -0.482631 0
M  V30 4485 H 410.435 3.98479 1.23575 0
M  V30 4486 H 409.065 2.86959 1.47833 0
M  V30 4487 H 408.117 3.72178 -0.786613 0
M  V30 4488 H 409.429 4.92084 -0.81579 0
M  V30 4489 H 408.583 5.92247 1.31637 0
M  V30 4490 H 407.322 4.66246 1.43059 0
M  V30 4491 H 406.327 5.4485 -0.736102 0
M  V30 4492 H 407.552 6.73945 -0.835134 0
M  V30 4493 H 405.498 6.41215 1.38489 0
M  V30 4494 H 405.415 7.55948 0.0885358 0
M  V30 4495 H 406.683 7.69077 1.27044 0
M  V30 4496 N 410.912 0.523116 1.48665 0
M  V30 4497 C 412.328 0.180511 1.58576 0
M  V30 4498 C 412.528 -1.31597 1.52592 0
M  V30 4499 O 411.584 -2.0937 1.4114 0
M  V30 4500 C 412.897 0.776949 2.90489 0
M  V30 4501 C 414.445 0.745058 3.04003 0
M  V30 4502 C 414.92 1.31995 4.38567 0
M  V30 4503 N 416.411 1.28162 4.45117 0
M  V30 4504 C 417.146 1.6964 5.47731 0
M  V30 4505 N 416.642 2.18816 6.57337 0
M  V30 4506 N 418.435 1.6092 5.38573 0
M  V30 4507 H 410.586 1.4958 1.50797 0
M  V30 4508 H 412.849 0.621772 0.715614 0
M  V30 4509 H 412.555 1.82732 3.00503 0
M  V30 4510 H 412.429 0.25007 3.7637 0
M  V30 4511 H 414.816 -0.296532 2.93606 0
M  V30 4512 H 414.897 1.30933 2.1975 0
M  V30 4513 H 414.541 2.36043 4.49718 0
M  V30 4514 H 414.471 0.731418 5.21496 0
M  V30 4515 H 416.962 0.92155 3.66491 0
M  V30 4516 H 417.275 2.48478 7.31764 0
M  V30 4517 H 415.62 2.22805 6.58318 0
M  V30 4518 H 418.811 1.22304 4.5184 0
M  V30 4519 H 418.984 1.93567 6.18414 0
M  V30 4520 N 412.39 -1.55475 0.257931 0
M  V30 4521 C 413.806 -1.59307 -0.0966563 0
M  V30 4522 C 414.006 -1.27514 -1.5602 0
M  V30 4523 O 413.062 -1.02774 -2.30637 0
M  V30 4524 C 414.375 -2.99552 0.262481 0
M  V30 4525 C 415.923 -3.1231 0.207683 0
M  V30 4526 C 416.398 -4.54793 0.541012 0
M  V30 4527 N 417.889 -4.6058 0.491921 0
M  V30 4528 C 418.624 -5.68825 0.722857 0
M  V30 4529 N 418.12 -6.85287 1.0175 0
M  V30 4530 N 419.913 -5.58296 0.652815 0
M  V30 4531 H 412.064 -1.74409 1.21224 0
M  V30 4532 H 414.327 -0.812424 0.48854 0
M  V30 4533 H 414.033 -3.27593 1.27967 0
M  V30 4534 H 413.907 -3.75019 -0.40508 0
M  V30 4535 H 416.294 -2.84044 -0.800195 0
M  V30 4536 H 416.375 -2.39095 0.909255 0
M  V30 4537 H 416.019 -4.83783 1.5465 0
M  V30 4538 H 415.949 -5.26285 -0.18216 0
M  V30 4539 H 418.44 -3.7691 0.273366 0
M  V30 4540 H 418.753 -7.63725 1.18084 0
M  V30 4541 H 417.098 -6.86945 1.05509 0
M  V30 4542 H 420.289 -4.66189 0.422592 0
M  V30 4543 H 420.462 -6.42582 0.836182 0
M  V30 4544 N 413.868 0.0150385 -1.57593 0
M  V30 4545 C 415.114 0.69849 -1.91031 0
M  V30 4546 C 415.469 1.72208 -0.85804 0
M  V30 4547 O 414.762 1.91147 0.131614 0
M  V30 4548 C 414.956 1.39686 -3.28972 0
M  V30 4549 C 414.785 0.442428 -4.47518 0
M  V30 4550 C 413.555 0.0583223 -5.05266 0
M  V30 4551 C 415.753 -0.285072 -5.13509 0
M  V30 4552 N 413.735 -0.895893 -6.07328 0
M  V30 4553 C 415.106 -1.09447 -6.10263 0
M  V30 4554 C 417.161 -0.350518 -4.96665 0
M  V30 4555 C 415.864 -1.96333 -6.91987 0
M  V30 4556 C 417.89 -1.20655 -5.78962 0
M  V30 4557 C 417.252 -2.00383 -6.75297 0
M  V30 4558 H 413.351 0.22926 -0.747639 0
M  V30 4559 H 415.935 -0.0417748 -1.94655 0
M  V30 4560 H 414.106 2.1075 -3.2625 0
M  V30 4561 H 415.838 2.03381 -3.49883 0
M  V30 4562 H 412.593 0.423506 -4.71703 0
M  V30 4563 H 413.017 -1.36792 -6.63036 0
M  V30 4564 H 417.659 0.251596 -4.22051 0
M  V30 4565 H 415.377 -2.57618 -7.65936 0
M  V30 4566 H 418.963 -1.2609 -5.67972 0
M  V30 4567 H 417.843 -2.65552 -7.3787 0
M  V30 4568 N 415.346 1.54954 0.287554 0
M  V30 4569 C 416.593 1.74873 1.02106 0
M  V30 4570 C 416.921 0.541829 1.86801 0
M  V30 4571 O 416.176 -0.475992 1.89823 0
M  V30 4572 C 416.475 2.99833 1.94512 0
M  V30 4573 C 416.141 4.33029 1.25686 0
M  V30 4574 C 414.803 4.69233 1.06649 0
M  V30 4575 C 417.155 5.15542 0.765913 0
M  V30 4576 C 414.483 5.85518 0.372222 0
M  V30 4577 C 416.835 6.32542 0.0853101 0
M  V30 4578 C 415.499 6.67398 -0.1169 0
M  V30 4579 H 414.769 0.639906 0.373632 0
M  V30 4580 H 417.416 1.89219 0.294665 0
M  V30 4581 H 415.721 2.80325 2.73725 0
M  V30 4582 H 417.418 3.1244 2.51361 0
M  V30 4583 H 414.008 4.04564 1.41512 0
M  V30 4584 H 418.192 4.88059 0.90066 0
M  V30 4585 H 413.448 6.11057 0.204695 0
M  V30 4586 H 417.622 6.95741 -0.302936 0
M  V30 4587 H 415.249 7.57357 -0.656859 0
M  V30 4588 N 416.824 -0.551391 1.4764 0
M  V30 4589 C 418.073 -1.30467 1.53822 0
M  V30 4590 C 418.386 -1.94495 0.207661 0
M  V30 4591 O 419.592 -2.71099 0.147533 0
M  V30 4592 C 418.048 -2.36616 2.71184 0
M  V30 4593 C 417.656 -1.78754 4.10793 0
M  V30 4594 C 419.4 -3.13088 2.86663 0
M  V30 4595 C 417.307 -2.82717 5.19447 0
M  V30 4596 H 416.237 -0.490584 0.572576 0
M  V30 4597 H 418.888 -0.58494 1.73927 0
M  V30 4598 H 417.27 -3.11529 2.4447 0
M  V30 4599 H 418.444 -1.10173 4.47435 0
M  V30 4600 H 416.759 -1.14846 4.00249 0
M  V30 4601 H 419.356 -3.90736 3.65007 0
M  V30 4602 H 419.699 -3.67635 1.95321 0
M  V30 4603 H 420.232 -2.45288 3.13175 0
M  V30 4604 H 416.971 -2.33018 6.12685 0
M  V30 4605 H 416.491 -3.4969 4.87316 0
M  V30 4606 H 418.17 -3.46102 5.46646 0
M  V30 4607 N 418.302 -1.35869 -0.798587 0
M  V30 4608 C 419.232 -1.32118 -1.92528 0
M  V30 4609 C 420.213 -0.194209 -1.68988 0
M  V30 4610 O 421.398 -0.390426 -1.90235 0
M  V30 4611 C 418.528 -1.10047 -3.29404 0
M  V30 4612 C 417.482 -2.19471 -3.67446 0
M  V30 4613 C 416.808 -1.82555 -5.02571 0
M  V30 4614 C 418.108 -3.61495 -3.76987 0
M  V30 4615 H 419.802 -2.26394 -1.95924 0
M  V30 4616 H 417.348 -1.08981 -0.94123 0
M  V30 4617 H 419.301 -1.06061 -4.07835 0
M  V30 4618 H 418.025 -0.122195 -3.26371 0
M  V30 4619 H 416.684 -2.22568 -2.91306 0
M  V30 4620 H 416.332 -0.833249 -4.9605 0
M  V30 4621 H 416.032 -2.5581 -5.28995 0
M  V30 4622 H 417.556 -1.80108 -5.83432 0
M  V30 4623 H 418.97 -3.60676 -4.4563 0
M  V30 4624 H 417.367 -4.33577 -4.14887 0
M  V30 4625 H 418.437 -3.97065 -2.78329 0
M  V30 4626 N 419.78 1.02168 -1.19998 0
M  V30 4627 C 421.008 1.79296 -1.03249 0
M  V30 4628 C 421.423 1.84103 0.418502 0
M  V30 4629 O 420.78 1.29031 1.29063 0
M  V30 4630 C 420.831 3.24007 -1.60319 0
M  V30 4631 O 420.552 3.19512 -2.99739 0
M  V30 4632 C 422.053 4.17704 -1.48453 0
M  V30 4633 H 419.273 0.564016 -0.363493 0
M  V30 4634 H 421.817 1.28639 -1.58973 0
M  V30 4635 H 419.972 3.7183 -1.08727 0
M  V30 4636 H 420.386 4.10306 -3.26725 0
M  V30 4637 H 421.86 5.17104 -1.93153 0
M  V30 4638 H 422.337 4.37029 -0.436193 0
M  V30 4639 H 422.943 3.7576 -1.99211 0
M  V30 4640 N 421.258 1.00505 1.21394 0
M  V30 4641 C 422.535 0.603277 1.86064 0
M  V30 4642 C 422.915 -0.919095 1.90042 0
M  V30 4643 O 422.263 -1.80607 1.39977 0
M  V30 4644 C 422.473 1.23772 3.26315 0
M  V30 4645 C 423.821 1.34586 4.02705 0
M  V30 4646 O 424.845 1.19304 3.35626 0
M  V30 4647 O 423.704 1.59169 5.22807 0
M  V30 4648 H 420.798 0.206634 0.800769 0
M  V30 4649 H 423.344 1.1017 1.29076 0
M  V30 4650 H 422.116 2.27848 3.18121 0
M  V30 4651 H 421.739 0.725648 3.90922 0
M  V30 4652 N 422.737 -1.36956 0.779787 0
M  V30 4653 C 423.685 -2.32053 0.15942 0
M  V30 4654 C 424.679 -1.55333 -0.675878 0
M  V30 4655 O 425.885 -1.70668 -0.57204 0
M  V30 4656 H 422.26 -0.751286 0.0327707 0
M  V30 4657 H 424.231 -2.8195 0.977078 0
M  V30 4658 C 422.98 -3.40602 -0.698977 0
M  V30 4659 H 422.303 -3.99746 -0.0655966 0
M  V30 4660 H 423.743 -4.09486 -1.09989 0
M  V30 4661 C 422.202 -2.81359 -1.85307 0
M  V30 4662 O 422.732 -2.72751 -2.94906 0
M  V30 4663 N 420.938 -2.38786 -1.65619 0
M  V30 4664 H 420.485 -2.45987 -0.764725 0
M  V30 4665 H 420.443 -1.99493 -2.43002 0
M  V30 4666 N 424.215 -0.530993 -1.48385 0
M  V30 4667 C 425.455 0.000718982 -2.044 0
M  V30 4668 C 425.819 1.31485 -1.39913 0
M  V30 4669 O 427.02 1.93265 -1.86821 0
M  V30 4670 C 425.291 0.119177 -3.57201 0
M  V30 4671 S 426.85 0.600806 -4.34667 0
M  V30 4672 H 423.668 -0.0125473 -0.710889 0
M  V30 4673 H 426.27 -0.711783 -1.82082 0
M  V30 4674 H 424.974 -0.842061 -4.01668 0
M  V30 4675 H 424.505 0.856026 -3.83974 0
M  V30 4676 H 426.52 1.86514 -4.59812 0
M  V30 4677 N 425.693 1.55336 -0.266172 0
M  V30 4678 C 426.623 2.25146 0.618981 0
M  V30 4679 C 427.604 1.23845 1.16604 0
M  V30 4680 O 428.789 1.52544 1.20183 0
M  V30 4681 C 425.919 2.96572 1.80728 0
M  V30 4682 C 424.873 4.04726 1.39215 0
M  V30 4683 C 424.199 4.63678 2.66283 0
M  V30 4684 C 425.499 5.19407 0.548942 0
M  V30 4685 H 427.193 2.99377 0.0368116 0
M  V30 4686 H 424.739 1.43991 0.0162651 0
M  V30 4687 H 426.692 3.44116 2.43232 0
M  V30 4688 H 425.416 2.19861 2.41514 0
M  V30 4689 H 424.075 3.57979 0.790351 0
M  V30 4690 H 423.723 3.83646 3.25308 0
M  V30 4691 H 423.423 5.367 2.39222 0
M  V30 4692 H 424.947 5.13967 3.29651 0
M  V30 4693 H 426.361 5.63059 1.07876 0
M  V30 4694 H 424.758 5.98936 0.373593 0
M  V30 4695 H 425.828 4.8295 -0.434394 0
M  V30 4696 N 427.171 -0.0066808 1.57599 0
M  V30 4697 C 428.401 -0.703066 1.94269 0
M  V30 4698 C 428.809 -1.68206 0.866222 0
M  V30 4699 O 428.152 -1.82966 -0.164087 0
M  V30 4700 C 428.214 -1.49616 3.26887 0
M  V30 4701 C 427.878 -0.679494 4.5192 0
M  V30 4702 C 428.875 0.0299508 5.19891 0
M  V30 4703 C 426.56 -0.627433 4.98366 0
M  V30 4704 C 428.554 0.780514 6.32603 0
M  V30 4705 C 426.241 0.126861 6.10968 0
M  V30 4706 C 427.239 0.829574 6.77943 0
M  V30 4707 O 426.927 1.57157 7.88389 0
M  V30 4708 H 426.659 -0.201217 0.645359 0
M  V30 4709 H 429.213 0.0385326 2.05364 0
M  V30 4710 H 427.443 -2.28209 3.12182 0
M  V30 4711 H 429.132 -2.07726 3.48719 0
M  V30 4712 H 429.898 -0.00115963 4.85 0
M  V30 4713 H 425.777 -1.16392 4.46065 0
M  V30 4714 H 429.321 1.32954 6.84813 0
M  V30 4715 H 425.218 0.159815 6.45302 0
M  V30 4716 H 425.986 1.48758 8.04868 0
M  V30 4717 N 428.649 -1.55105 -0.279332 0
M  V30 4718 C 429.879 -1.7917 -1.02867 0
M  V30 4719 C 430.287 -0.56204 -1.80659 0
M  V30 4720 O 429.63 0.478266 -1.77365 0
M  V30 4721 C 429.692 -2.96061 -2.03932 0
M  V30 4722 C 429.356 -4.33341 -1.45137 0
M  V30 4723 C 430.353 -5.12565 -0.870266 0
M  V30 4724 C 428.038 -4.79987 -1.48048 0
M  V30 4725 C 430.032 -6.36565 -0.326097 0
M  V30 4726 C 427.719 -6.03944 -0.932443 0
M  V30 4727 C 428.717 -6.8207 -0.356247 0
M  V30 4728 O 428.405 -8.03691 0.183412 0
M  V30 4729 H 428.137 -0.600796 -0.309872 0
M  V30 4730 H 430.691 -2.02932 -0.317468 0
M  V30 4731 H 428.921 -2.67975 -2.78794 0
M  V30 4732 H 430.61 -3.07506 -2.64943 0
M  V30 4733 H 431.376 -4.77661 -0.840521 0
M  V30 4734 H 427.255 -4.1919 -1.91835 0
M  V30 4735 H 430.799 -6.97489 0.124286 0
M  V30 4736 H 426.696 -6.3833 -0.959407 0
M  V30 4737 H 427.464 -8.18468 0.0721681 0
M  V30 4738 N 430.127 0.543554 -1.4793 0
M  V30 4739 C 431.374 1.30008 -1.55255 0
M  V30 4740 C 431.702 1.93245 -0.220612 0
M  V30 4741 O 430.957 1.79141 0.787843 0
M  V30 4742 C 431.256 2.42078 -2.62932 0
M  V30 4743 C 430.922 1.96583 -4.0579 0
M  V30 4744 C 429.584 1.83893 -4.44676 0
M  V30 4745 C 431.936 1.62034 -4.95373 0
M  V30 4746 C 429.264 1.34969 -5.70964 0
M  V30 4747 C 431.616 1.14577 -6.22137 0
M  V30 4748 C 430.28 1.00493 -6.59892 0
M  V30 4749 H 429.55 0.475735 -0.568117 0
M  V30 4750 H 432.197 0.608075 -1.81589 0
M  V30 4751 H 430.502 3.16892 -2.30406 0
M  V30 4752 H 432.199 3.00236 -2.65818 0
M  V30 4753 H 428.789 2.07407 -3.75074 0
M  V30 4754 H 432.973 1.70705 -4.66019 0
M  V30 4755 H 428.229 1.2274 -5.98953 0
M  V30 4756 H 432.403 0.869109 -6.90955 0
M  V30 4757 H 430.03 0.623624 -7.57638 0
M  V30 4758 N 431.605 1.3629 0.791371 0
M  V30 4759 C 432.515 1.32606 1.93527 0
M  V30 4760 C 433.531 0.228541 1.72493 0
M  V30 4761 O 434.707 0.460571 1.96063 0
M  V30 4762 C 431.772 1.11271 3.28359 0
M  V30 4763 C 430.833 2.3048 3.62185 0
M  V30 4764 C 430.066 2.10154 4.90583 0
M  V30 4765 O 430.289 1.07572 5.60165 0
M  V30 4766 O 429.223 2.97884 5.23019 0
M  V30 4767 H 433.049 2.28909 1.99585 0
M  V30 4768 H 430.634 1.16818 0.931344 0
M  V30 4769 H 432.516 1.01283 4.09047 0
M  V30 4770 H 431.191 0.180292 3.23198 0
M  V30 4771 H 430.098 2.46036 2.81811 0
M  V30 4772 H 431.431 3.22221 3.72068 0
M  V30 4773 N 433.083 -1.0153 1.20538 0
M  V30 4774 C 434.313 -1.78487 1.04048 0
M  V30 4775 C 434.721 -1.84631 -0.413292 0
M  V30 4776 O 434.064 -1.29919 -1.29872 0
M  V30 4777 C 434.126 -3.24367 1.55003 0
M  V30 4778 C 433.79 -3.41827 3.0332 0
M  V30 4779 C 434.787 -3.30941 4.00966 0
M  V30 4780 C 432.472 -3.67602 3.42307 0
M  V30 4781 C 434.466 -3.45577 5.35589 0
M  V30 4782 C 432.153 -3.81881 4.77085 0
M  V30 4783 C 433.151 -3.70874 5.73534 0
M  V30 4784 O 432.839 -3.84714 7.05868 0
M  V30 4785 H 432.571 -0.568108 0.366373 0
M  V30 4786 H 435.125 -1.28677 1.60098 0
M  V30 4787 H 433.355 -3.75266 0.933397 0
M  V30 4788 H 435.044 -3.82963 1.34514 0
M  V30 4789 H 435.81 -3.10964 3.72191 0
M  V30 4790 H 431.689 -3.75256 2.67776 0
M  V30 4791 H 435.233 -3.36902 6.10854 0
M  V30 4792 H 431.13 -4.01359 5.0555 0
M  V30 4793 H 431.898 -4.01724 7.13134 0
M  V30 4794 N 434.561 -1.01147 -1.20859 0
M  V30 4795 C 435.789 -0.716911 -1.94082 0
M  V30 4796 C 436.204 0.721568 -1.74467 0
M  V30 4797 O 435.561 1.48889 -1.05539 0
M  V30 4798 C 435.612 -1.03662 -3.46318 0
M  V30 4799 O 435.333 -2.4186 -3.65288 0
M  V30 4800 C 436.834 -0.762386 -4.36695 0
M  V30 4801 H 434.054 -0.26367 -0.617024 0
M  V30 4802 H 436.598 -1.35127 -1.53496 0
M  V30 4803 H 434.753 -0.447757 -3.84804 0
M  V30 4804 H 435.167 -2.53224 -4.59323 0
M  V30 4805 H 436.641 -1.03621 -5.42187 0
M  V30 4806 H 437.118 0.303514 -4.3815 0
M  V30 4807 H 437.724 -1.33316 -4.03865 0
M  V30 4808 N 436.039 1.36541 -0.78704 0
M  V30 4809 C 437.267 2.03561 -0.370199 0
M  V30 4810 C 437.682 1.59347 1.01263 0
M  V30 4811 O 437.039 0.781781 1.64907 0
M  V30 4812 C 437.09 3.59033 -0.421614 0
M  V30 4813 O 436.811 4.01634 -1.7499 0
M  V30 4814 C 438.312 4.433 0.00489763 0
M  V30 4815 H 435.532 0.653346 -0.152904 0
M  V30 4816 H 438.076 1.74566 -1.06522 0
M  V30 4817 H 436.231 3.86746 0.224971 0
M  V30 4818 H 436.645 4.96217 -1.69909 0
M  V30 4819 H 438.119 5.51939 -0.0822184 0
M  V30 4820 H 438.596 4.26285 1.05723 0
M  V30 4821 H 439.202 4.20843 -0.614085 0
M  V30 4822 N 437.518 0.538854 1.48102 0
M  V30 4823 C 438.795 -0.0568108 1.95517 0
M  V30 4824 C 439.175 -1.50408 1.48124 0
M  V30 4825 O 438.523 -2.17133 0.711727 0
M  V30 4826 C 438.733 0.0696262 3.48931 0
M  V30 4827 C 440.081 -0.0851202 4.24515 0
M  V30 4828 O 441.105 -0.0037347 3.562 0
M  V30 4829 O 439.964 -0.257025 5.45895 0
M  V30 4830 H 437.058 -0.0743695 0.823649 0
M  V30 4831 H 439.604 0.604081 1.58584 0
M  V30 4832 H 438.376 1.07744 3.76174 0
M  V30 4833 H 437.999 -0.629714 3.92582 0
M  V30 4834 N 438.996 -1.55193 0.274407 0
M  V30 4835 C 439.943 -2.225 -0.613374 0
M  V30 4836 C 440.913 -1.19823 -1.15029 0
M  V30 4837 O 442.098 -1.48362 -1.19973 0
M  V30 4838 C 439.238 -2.94927 -1.79199 0
M  V30 4839 C 438.351 -4.12322 -1.28899 0
M  V30 4840 C 437.486 -4.72394 -2.42934 0
M  V30 4841 C 436.525 -5.81984 -1.89634 0
M  V30 4842 N 435.662 -6.36123 -2.9714 0
M  V30 4843 H 440.502 -2.97982 -0.032756 0
M  V30 4844 H 438.039 -1.47099 -0.00440146 0
M  V30 4845 H 439.997 -3.35134 -2.48478 0
M  V30 4846 H 438.627 -2.2187 -2.34465 0
M  V30 4847 H 437.679 -3.7724 -0.489327 0
M  V30 4848 H 438.991 -4.91355 -0.858587 0
M  V30 4849 H 438.145 -5.15317 -3.20208 0
M  V30 4850 H 436.884 -3.92636 -2.8929 0
M  V30 4851 H 435.889 -5.38511 -1.1084 0
M  V30 4852 H 437.114 -6.6361 -1.44215 0
M  V30 4853 H 435.06 -5.59259 -3.42878 0
M  V30 4854 H 434.977 -7.10427 -2.58515 0
M  V30 4855 H 436.245 -6.83704 -3.74391 0
M  V30 4856 N 440.474 -0.00167713 -1.576 0
M  V30 4857 C 441.384 1.00548 -2.1196 0
M  V30 4858 C 442.4 1.3758 -1.06526 0
M  V30 4859 O 443.576 1.46278 -1.38436 0
M  V30 4860 C 440.641 2.27809 -2.6135 0
M  V30 4861 C 439.702 1.97074 -3.81393 0
M  V30 4862 C 438.935 3.18267 -4.28417 0
M  V30 4863 O 439.158 4.30009 -3.74765 0
M  V30 4864 O 438.092 3.02167 -5.20556 0
M  V30 4865 H 441.918 0.573373 -2.98238 0
M  V30 4866 H 439.503 0.217255 -1.47812 0
M  V30 4867 H 441.385 3.02568 -2.93309 0
M  V30 4868 H 440.06 2.70254 -1.78169 0
M  V30 4869 H 438.967 1.19785 -3.54404 0
M  V30 4870 H 440.3 1.59464 -4.65652 0
M  V30 4871 N 441.952 1.55251 0.271103 0
M  V30 4872 C 443.363 1.66635 0.842007 0
M  V30 4873 C 443.714 0.594631 1.86972 0
M  V30 4874 O 442.839 -0.263532 2.14789 0
M  V30 4875 C 443.434 3.02082 1.53401 0
M  V30 4876 C 441.993 3.15487 2.05293 0
M  V30 4877 C 441.14 2.62438 0.895631 0
M  V30 4878 H 444.091 1.58629 0.0474117 0
M  V30 4879 H 444.112 2.95176 2.40107 0
M  V30 4880 H 443.624 3.80062 0.785786 0
M  V30 4881 H 441.725 2.42284 2.83071 0
M  V30 4882 H 441.838 4.22075 2.26693 0
M  V30 4883 H 440.202 2.19644 1.28953 0
M  V30 4884 H 440.985 3.42923 0.160878 0
M  V30 4885 N 443.43 -0.535701 1.48216 0
M  V30 4886 C 444.846 -0.863701 1.3421 0
M  V30 4887 C 445.046 -1.98458 0.34879 0
M  V30 4888 O 444.102 -2.51432 -0.23204 0
M  V30 4889 C 445.415 -1.23662 2.74095 0
M  V30 4890 C 446.963 -1.34683 2.82541 0
M  V30 4891 C 447.438 -1.75322 4.23115 0
M  V30 4892 N 448.929 -1.82434 4.2576 0
M  V30 4893 C 449.664 -2.15252 5.31464 0
M  V30 4894 N 449.16 -2.46533 6.47452 0
M  V30 4895 N 450.953 -2.16209 5.18855 0
M  V30 4896 H 443.104 0.203965 2.11418 0
M  V30 4897 H 445.367 0.0286033 0.947568 0
M  V30 4898 H 445.073 -0.486674 3.48316 0
M  V30 4899 H 444.947 -2.18805 3.07253 0
M  V30 4900 H 447.334 -2.08756 2.08579 0
M  V30 4901 H 447.415 -0.376756 2.5301 0
M  V30 4902 H 447.059 -1.01812 4.97591 0
M  V30 4903 H 446.989 -2.7337 4.50085 0
M  V30 4904 H 449.48 -1.6056 3.42095 0
M  V30 4905 H 449.793 -2.70662 7.23852 0
M  V30 4906 H 448.138 -2.44065 6.50736 0
M  V30 4907 H 451.329 -1.91224 4.2726 0
M  V30 4908 H 451.502 -2.41453 6.01335 0
M  V30 4909 N 444.908 -1.36708 -0.784132 0
M  V30 4910 C 446.156 -1.30972 -1.53918 0
M  V30 4911 C 446.477 0.109086 -1.94695 0
M  V30 4912 O 445.747 1.05048 -1.65353 0
M  V30 4913 H 444.327 -0.481819 -0.570841 0
M  V30 4914 H 446.989 -1.71063 -0.934002 0
M  V30 4915 H 446.085 -1.94061 -2.44431 0
M  V30 4916 N 446.386 1.0089 -1.21074 0
M  V30 4917 C 447.635 1.74019 -1.01981 0
M  V30 4918 C 447.948 1.90408 0.447665 0
M  V30 4919 O 449.154 2.60707 0.757906 0
M  V30 4920 C 447.61 3.13026 -1.77603 0
M  V30 4921 C 447.218 3.04623 -3.28495 0
M  V30 4922 C 448.962 3.90312 -1.66904 0
M  V30 4923 C 446.869 4.38685 -3.96623 0
M  V30 4924 H 445.799 0.652422 -0.377971 0
M  V30 4925 H 448.45 1.12755 -1.44771 0
M  V30 4926 H 446.832 3.74878 -1.27604 0
M  V30 4927 H 448.006 2.52032 -3.85767 0
M  V30 4928 H 446.321 2.40827 -3.39693 0
M  V30 4929 H 448.918 4.8951 -2.15138 0
M  V30 4930 H 449.261 4.11558 -0.62658 0
M  V30 4931 H 449.794 3.35104 -2.14359 0
M  V30 4932 H 446.533 4.22641 -5.01054 0
M  V30 4933 H 446.053 4.91252 -3.4414 0
M  V30 4934 H 447.732 5.075 -4.01314 0
M  V30 4935 N 447.864 1.01787 1.20321 0
M  V30 4936 C 449.113 0.703249 1.89043 0
M  V30 4937 C 449.426 -0.770445 1.79787 0
M  V30 4938 O 450.632 -1.19767 2.43656 0
M  V30 4939 C 449.088 1.20749 3.3904 0
M  V30 4940 C 448.696 2.70817 3.56878 0
M  V30 4941 C 450.44 0.968352 4.13308 0
M  V30 4942 C 448.347 3.14716 5.00708 0
M  V30 4943 H 447.277 0.259354 0.707991 0
M  V30 4944 H 449.928 1.23072 1.36108 0
M  V30 4945 H 448.31 0.607989 3.91305 0
M  V30 4946 H 449.484 3.36327 3.14993 0
M  V30 4947 H 447.799 2.92888 2.95983 0
M  V30 4948 H 450.396 1.27173 5.19356 0
M  V30 4949 H 450.739 -0.095149 4.16191 0
M  V30 4950 H 451.272 1.53129 3.67146 0
M  V30 4951 H 448.011 4.20347 5.02979 0
M  V30 4952 H 447.531 2.53927 5.43398 0
M  V30 4953 H 449.21 3.07426 5.69296 0
M  V30 4954 N 449.342 -1.36122 0.79427 0
M  V30 4955 C 450.753 -1.81646 0.431446 0
M  V30 4956 C 451.104 -1.66043 -1.04518 0
M  V30 4957 O 450.229 -1.1841 -1.8113 0
M  V30 4958 C 450.824 -3.29785 0.776341 0
M  V30 4959 C 449.383 -3.73501 0.466282 0
M  V30 4960 C 448.53 -2.58313 1.00844 0
M  V30 4961 H 451.481 -1.24274 0.986995 0
M  V30 4962 H 451.502 -3.80437 0.0692413 0
M  V30 4963 H 451.014 -3.4111 1.8511 0
M  V30 4964 H 449.115 -3.67733 -0.600245 0
M  V30 4965 H 449.228 -4.68754 0.990288 0
M  V30 4966 H 447.592 -2.5102 0.431406 0
M  V30 4967 H 448.375 -2.72421 2.08906 0
M  V30 4968 N 450.82 -0.546701 -1.47814 0
M  V30 4969 C 451.75 0.195317 -2.32682 0
M  V30 4970 C 452.731 0.918981 -1.43139 0
M  V30 4971 O 453.916 0.901501 -1.72008 0
M  V30 4972 C 451.046 1.23237 -3.247 0
M  V30 4973 C 450 0.625818 -4.234 0
M  V30 4974 C 449.326 1.76674 -5.04669 0
M  V30 4975 C 450.626 -0.413515 -5.2066 0
M  V30 4976 H 452.32 -0.513184 -2.94969 0
M  V30 4977 H 449.866 -0.248241 -1.41844 0
M  V30 4978 H 451.819 1.75955 -3.82907 0
M  V30 4979 H 450.543 1.97067 -2.60446 0
M  V30 4980 H 449.202 0.120023 -3.66403 0
M  V30 4981 H 448.85 2.49383 -4.36826 0
M  V30 4982 H 448.55 1.36673 -5.71484 0
M  V30 4983 H 450.074 2.29738 -5.65732 0
M  V30 4984 H 451.488 0.0272042 -5.73294 0
M  V30 4985 H 449.885 -0.731825 -5.95621 0
M  V30 4986 H 450.955 -1.31325 -4.66778 0
M  V30 4987 N 452.299 1.55045 -0.282633 0
M  V30 4988 C 453.209 2.26491 0.61147 0
M  V30 4989 C 454.225 1.29348 1.16384 0
M  V30 4990 O 455.401 1.62298 1.19253 0
M  V30 4991 C 452.466 2.97779 1.77563 0
M  V30 4992 C 451.527 4.10418 1.25919 0
M  V30 4993 C 450.76 4.78297 2.36786 0
M  V30 4994 O 450.983 4.45426 3.56303 0
M  V30 4995 O 449.917 5.66089 2.04517 0
M  V30 4996 H 453.743 3.03683 0.0324615 0
M  V30 4997 H 451.328 1.49317 -0.0497576 0
M  V30 4998 H 453.21 3.42554 2.45427 0
M  V30 4999 H 451.885 2.23498 2.34159 0
M  V30 5000 H 450.792 3.70082 0.546797 0
M  V30 5001 H 452.125 4.86622 0.738887 0
M  V30 5002 N 453.777 0.010035 1.57597 0
M  V30 5003 C 454.725 -0.996272 2.10184 0
M  V30 5004 C 455.719 -1.34942 1.02406 0
M  V30 5005 O 456.925 -1.33389 1.20861 0
M  V30 5006 H 453.3 -0.338982 0.671264 0
M  V30 5007 H 455.271 -0.527272 2.93705 0
M  V30 5008 C 454.02 -2.27599 2.62857 0
M  V30 5009 H 453.343 -2.01295 3.45428 0
M  V30 5010 H 454.783 -2.96265 3.0332 0
M  V30 5011 C 453.242 -2.99269 1.54725 0
M  V30 5012 O 453.772 -3.90644 0.93597 0
M  V30 5013 N 451.978 -2.61269 1.27228 0
M  V30 5014 H 451.525 -1.87043 1.77123 0
M  V30 5015 H 451.483 -3.09534 0.550999 0
M  V30 5016 N 455.255 -1.55392 -0.262866 0
M  V30 5017 C 456.185 -1.91978 -1.32917 0
M  V30 5018 C 457.166 -0.7828 -1.51017 0
M  V30 5019 O 458.351 -1.04178 -1.63892 0
M  V30 5020 C 455.481 -2.20055 -2.68687 0
M  V30 5021 C 454.435 -3.35854 -2.65304 0
M  V30 5022 C 453.761 -3.49435 -4.04721 0
M  V30 5023 C 455.061 -4.71977 -2.23685 0
M  V30 5024 H 456.755 -2.81292 -1.02544 0
M  V30 5025 H 454.301 -1.3534 -0.491846 0
M  V30 5026 H 456.254 -2.44237 -3.43404 0
M  V30 5027 H 454.978 -1.27551 -3.00663 0
M  V30 5028 H 453.637 -3.11655 -1.93045 0
M  V30 5029 H 453.285 -2.54379 -4.33936 0
M  V30 5030 H 452.985 -4.27297 -4.0335 0
M  V30 5031 H 454.509 -3.7592 -4.81161 0
M  V30 5032 H 455.923 -4.95637 -2.88127 0
M  V30 5033 H 454.32 -5.52828 -2.33456 0
M  V30 5034 H 455.39 -4.70115 -1.18827 0
M  V30 5035 N 456.733 0.527833 -1.48498 0
M  V30 5036 C 457.958 1.313 -1.60546 0
M  V30 5037 C 458.383 1.86199 -0.26672 0
M  V30 5038 O 457.741 1.64513 0.761918 0
M  V30 5039 C 457.789 2.43818 -2.65678 0
M  V30 5040 O 456.893 3.46916 -2.22987 0
M  V30 5041 H 456.234 0.388784 -0.538277 0
M  V30 5042 H 458.764 0.634896 -1.945 0
M  V30 5043 H 458.774 2.89973 -2.87018 0
M  V30 5044 H 457.449 2.03222 -3.62869 0
M  V30 5045 H 456.026 3.06864 -2.11869 0
M  V30 5046 N 458.211 1.37122 0.776871 0
M  V30 5047 C 459.46 1.31373 1.53049 0
M  V30 5048 C 459.773 -0.101016 1.95339 0
M  V30 5049 O 460.979 -0.280953 2.70042 0
M  V30 5050 C 459.435 2.30567 2.76346 0
M  V30 5051 C 459.043 3.77543 2.41175 0
M  V30 5052 C 460.787 2.33818 3.54301 0
M  V30 5053 C 458.694 4.68481 3.60943 0
M  V30 5054 H 457.624 0.488234 0.574581 0
M  V30 5055 H 460.275 1.62554 0.851372 0
M  V30 5056 H 458.657 1.92396 3.46121 0
M  V30 5057 H 459.831 4.24521 1.79216 0
M  V30 5058 H 458.146 3.77187 1.76405 0
M  V30 5059 H 460.743 2.98965 4.4331 0
M  V30 5060 H 461.086 1.3503 3.93793 0
M  V30 5061 H 461.619 2.7067 2.91518 0
M  V30 5062 H 458.358 5.68378 3.26537 0
M  V30 5063 H 457.878 4.2621 4.22025 0
M  V30 5064 H 459.557 4.85366 4.27819 0
M  V30 5065 N 459.689 -1.00246 1.21608 0
M  V30 5066 C 461.105 -1.26435 0.973975 0
M  V30 5067 C 461.305 -1.98642 -0.338143 0
M  V30 5068 O 460.361 -2.29026 -1.06317 0
M  V30 5069 C 461.674 -2.08551 2.16626 0
M  V30 5070 C 463.222 -2.21769 2.20879 0
M  V30 5071 C 463.697 -3.07267 3.39633 0
M  V30 5072 N 465.188 -3.14855 3.39736 0
M  V30 5073 C 465.923 -3.81274 4.28273 0
M  V30 5074 N 465.419 -4.497 5.27012 0
M  V30 5075 N 467.212 -3.7794 4.16074 0
M  V30 5076 H 459.363 -0.518089 2.05984 0
M  V30 5077 H 461.626 -0.291368 0.902113 0
M  V30 5078 H 461.332 -1.62847 3.11727 0
M  V30 5079 H 461.206 -3.09303 2.15897 0
M  V30 5080 H 463.593 -2.66691 1.26332 0
M  V30 5081 H 463.674 -1.20478 2.25652 0
M  V30 5082 H 463.318 -2.63047 4.34475 0
M  V30 5083 H 463.248 -4.08678 3.321 0
M  V30 5084 H 465.739 -2.66147 2.6828 0
M  V30 5085 H 466.052 -4.98092 5.90867 0
M  V30 5086 H 464.397 -4.48479 5.30935 0
M  V30 5087 H 467.588 -3.23638 3.38195 0
M  V30 5088 H 467.761 -4.29424 4.85282 0
M  V30 5089 N 461.167 -1.02423 -1.1978 0
M  V30 5090 C 462.077 -0.610919 -2.26506 0
M  V30 5091 C 463.093 0.355152 -1.70337 0
M  V30 5092 O 464.269 0.214195 -2.00258 0
M  V30 5093 C 461.334 0.0365921 -3.46681 0
M  V30 5094 C 460.395 -0.976389 -4.18049 0
M  V30 5095 C 459.628 -0.359683 -5.32487 0
M  V30 5096 O 459.851 0.838601 -5.64202 0
M  V30 5097 O 458.785 -1.08022 -5.92127 0
M  V30 5098 H 462.611 -1.49965 -2.64091 0
M  V30 5099 H 460.196 -0.794156 -1.26545 0
M  V30 5100 H 462.078 0.39786 -4.19518 0
M  V30 5101 H 460.753 0.899398 -3.10954 0
M  V30 5102 H 459.66 -1.38916 -3.47352 0
M  V30 5103 H 460.993 -1.80941 -4.57735 0
M  V30 5104 N 462.645 1.35699 -0.801477 0
M  V30 5105 C 463.891 1.99208 -0.380022 0
M  V30 5106 C 464.224 1.63445 1.04878 0
M  V30 5107 O 463.499 0.895223 1.72673 0
M  V30 5108 C 463.782 3.55755 -0.557708 0
M  V30 5109 C 463.635 4.01332 -2.03107 0
M  V30 5110 C 464.954 4.40096 0.0197968 0
M  V30 5111 H 462.073 0.723667 -0.139552 0
M  V30 5112 H 464.715 1.60928 -1.01006 0
M  V30 5113 H 462.865 3.88494 -0.0213741 0
M  V30 5114 H 464.537 3.79026 -2.62939 0
M  V30 5115 H 462.78 3.52429 -2.52936 0
M  V30 5116 H 463.451 5.10234 -2.1063 0
M  V30 5117 H 465.927 4.13786 -0.438179 0
M  V30 5118 H 464.803 5.48735 -0.134477 0
M  V30 5119 H 465.064 4.2786 1.11303 0
M  V30 5120 N 464.123 0.554532 1.47522 0
M  V30 5121 C 465.4 -0.0360704 1.95567 0
M  V30 5122 C 465.78 -1.48828 1.49711 0
M  V30 5123 O 465.128 -2.16366 0.734717 0
M  V30 5124 C 465.338 0.106631 3.48837 0
M  V30 5125 C 466.686 -0.0400899 4.24581 0
M  V30 5126 O 467.71 0.0340453 3.56184 0
M  V30 5127 O 466.569 -0.199111 5.46137 0
M  V30 5128 H 463.663 -0.0656294 0.824392 0
M  V30 5129 H 466.209 0.620867 1.57935 0
M  V30 5130 H 464.981 1.11727 3.7501 0
M  V30 5131 H 464.604 -0.58804 3.93227 0
M  V30 5132 N 465.601 -1.54893 0.290851 0
M  V30 5133 C 466.878 -1.91991 -0.373989 0
M  V30 5134 C 467.258 -1.21694 -1.72493 0
M  V30 5135 O 466.606 -0.34917 -2.25816 0
M  V30 5136 C 466.816 -3.45419 -0.498703 0
M  V30 5137 C 468.164 -4.1748 -0.774298 0
M  V30 5138 O 469.188 -3.51398 -0.582908 0
M  V30 5139 O 468.047 -5.3445 -1.14129 0
M  V30 5140 H 465.141 -0.800593 -0.207315 0
M  V30 5141 H 467.687 -1.66297 0.338164 0
M  V30 5142 H 466.459 -3.88688 0.451392 0
M  V30 5143 H 466.082 -3.77117 -1.25972 0
M  V30 5144 N 467.08 -0.0183926 -1.57589 0
M  V30 5145 C 468.491 0.521927 -1.79256 0
M  V30 5146 C 468.842 1.72885 -0.927636 0
M  V30 5147 O 467.967 2.15978 -0.135091 0
M  V30 5148 C 468.562 0.953632 -3.25102 0
M  V30 5149 C 467.121 1.43913 -3.47801 0
M  V30 5150 C 466.268 0.398837 -2.74417 0
M  V30 5151 H 469.219 -0.244485 -1.56805 0
M  V30 5152 H 469.24 1.81863 -3.34224 0
M  V30 5153 H 468.752 0.0750123 -3.88028 0
M  V30 5154 H 466.853 2.33804 -2.90115 0
M  V30 5155 H 466.966 1.45391 -4.56507 0
M  V30 5156 H 465.33 0.864572 -2.39577 0
M  V30 5157 H 466.113 -0.471132 -3.40052 0
M  V30 5158 N 468.558 1.5553 0.254621 0
M  V30 5159 C 469.974 1.4778 0.602753 0
M  V30 5160 C 470.174 0.707047 1.88688 0
M  V30 5161 O 469.23 0.233288 2.5142 0
M  V30 5162 C 470.543 2.92133 0.712648 0
M  V30 5163 C 472.091 3.02458 0.805488 0
M  V30 5164 C 472.566 4.48102 0.947009 0
M  V30 5165 N 474.057 4.52008 1.01207 0
M  V30 5166 C 474.792 5.61939 1.1407 0
M  V30 5167 N 474.288 6.81697 1.23536 0
M  V30 5168 N 476.081 5.49719 1.17325 0
M  V30 5169 H 468.232 2.04085 -0.588463 0
M  V30 5170 H 470.495 0.926229 -0.202001 0
M  V30 5171 H 470.201 3.51332 -0.160766 0
M  V30 5172 H 470.075 3.42187 1.58707 0
M  V30 5173 H 472.462 2.43344 1.66936 0
M  V30 5174 H 472.543 2.55627 -0.0939266 0
M  V30 5175 H 472.187 5.07824 0.087725 0
M  V30 5176 H 472.117 4.92607 1.86135 0
M  V30 5177 H 474.608 3.65749 0.950577 0
M  V30 5178 H 474.921 7.61228 1.33236 0
M  V30 5179 H 473.266 6.84473 1.20508 0
M  V30 5180 H 476.457 4.55095 1.09573 0
M  V30 5181 H 476.63 6.35432 1.27005 0
M  V30 5182 N 470.036 -0.519951 1.48776 0
M  V30 5183 C 470.983 -1.62352 1.64044 0
M  V30 5184 C 471.953 -1.58945 0.482251 0
M  V30 5185 O 473.138 -1.77219 0.706971 0
M  V30 5186 C 470.278 -3.00579 1.69547 0
M  V30 5187 C 469.391 -3.14145 2.96541 0
M  V30 5188 C 468.526 -4.42991 2.93142 0
M  V30 5189 C 467.565 -4.50122 4.14797 0
M  V30 5190 N 466.702 -5.7037 4.09418 0
M  V30 5191 H 471.542 -1.48643 2.58281 0
M  V30 5192 H 469.079 -0.723516 1.28077 0
M  V30 5193 H 471.037 -3.80671 1.70719 0
M  V30 5194 H 469.667 -3.13036 0.787918 0
M  V30 5195 H 468.719 -2.27239 3.05068 0
M  V30 5196 H 470.031 -3.15275 3.86527 0
M  V30 5197 H 469.185 -5.31385 2.92772 0
M  V30 5198 H 467.924 -4.44398 2.00902 0
M  V30 5199 H 466.929 -3.60133 4.15433 0
M  V30 5200 H 468.154 -4.50445 5.08208 0
M  V30 5201 H 466.1 -5.72655 3.20004 0
M  V30 5202 H 466.017 -5.73036 4.93119 0
M  V30 5203 H 467.285 -6.61023 4.13121 0
M  V30 5204 N 471.514 -1.37532 -0.769588 0
M  V30 5205 C 472.925 -1.29382 -1.346 0
M  V30 5206 C 473.276 0.0576039 -1.96115 0
M  V30 5207 O 472.401 0.95947 -1.93967 0
M  V30 5208 C 472.996 -2.34298 -2.44724 0
M  V30 5209 C 471.555 -2.29776 -2.98128 0
M  V30 5210 C 470.702 -2.18013 -1.71364 0
M  V30 5211 H 473.653 -1.48123 -0.56968 0
M  V30 5212 H 473.674 -1.99089 -3.24259 0
M  V30 5213 H 473.186 -3.32645 -1.99922 0
M  V30 5214 H 471.287 -1.34959 -3.47299 0
M  V30 5215 H 471.4 -3.23276 -3.53595 0
M  V30 5216 H 469.764 -1.64595 -1.94372 0
M  V30 5217 H 470.547 -3.18278 -1.28662 0
M  V30 5218 N 472.992 0.995999 -1.22138 0
M  V30 5219 C 473.94 2.10673 -0.985876 0
M  V30 5220 C 474.934 1.69255 0.0699553 0
M  V30 5221 O 476.14 1.79812 -0.0822176 0
M  V30 5222 H 472.515 0.688865 -0.30161 0
M  V30 5223 H 474.486 2.27711 -1.92848 0
M  V30 5224 C 473.235 3.42881 -0.576909 0
M  V30 5225 H 472.558 3.75191 -1.38101 0
M  V30 5226 H 473.998 4.21589 -0.451518 0
M  V30 5227 C 472.457 3.29265 0.713196 0
M  V30 5228 O 472.987 3.60777 1.76643 0
M  V30 5229 N 471.193 2.82456 0.683162 0
M  V30 5230 H 470.74 2.5701 -0.174242 0
M  V30 5231 H 470.698 2.73727 1.54663 0
M  V30 5232 N 474.47 1.03057 1.19235 0
M  V30 5233 C 475.71 0.736757 1.9066 0
M  V30 5234 C 476.074 -0.721521 1.77927 0
M  V30 5235 O 477.275 -1.12849 2.43964 0
M  V30 5236 C 475.546 1.17755 3.37444 0
M  V30 5237 S 477.105 1.00783 4.27069 0
M  V30 5238 H 473.923 0.268174 0.658486 0
M  V30 5239 H 476.525 1.32076 1.4414 0
M  V30 5240 H 475.229 2.23448 3.44237 0
M  V30 5241 H 474.76 0.586912 3.88997 0
M  V30 5242 H 476.775 -0.0806356 4.96134 0
M  V30 5243 N 475.948 -1.35272 0.808662 0
M  V30 5244 C 477.195 -1.98709 0.390003 0
M  V30 5245 C 477.523 -1.64148 -1.04335 0
M  V30 5246 O 476.778 -0.897797 -1.73891 0
M  V30 5247 C 477.077 -3.53556 0.522798 0
M  V30 5248 C 476.743 -4.0799 1.91977 0
M  V30 5249 C 475.405 -4.22568 2.30195 0
M  V30 5250 C 477.757 -4.37442 2.83361 0
M  V30 5251 C 475.085 -4.63918 3.59162 0
M  V30 5252 C 477.437 -4.80232 4.11776 0
M  V30 5253 C 476.101 -4.93016 4.49991 0
M  V30 5254 H 475.371 -0.727127 0.142712 0
M  V30 5255 H 478.018 -1.6145 1.02985 0
M  V30 5256 H 476.323 -3.91287 -0.200494 0
M  V30 5257 H 478.02 -4.00598 0.179608 0
M  V30 5258 H 474.61 -3.97096 1.61284 0
M  V30 5259 H 478.794 -4.25731 2.55083 0
M  V30 5260 H 474.05 -4.72005 3.88615 0
M  V30 5261 H 478.224 -5.01982 4.82687 0
M  V30 5262 H 475.851 -5.24814 5.49976 0
M  V30 5263 N 477.426 -0.562348 -1.47226 0
M  V30 5264 C 478.336 0.185466 -2.33866 0
M  V30 5265 C 479.352 0.906713 -1.48508 0
M  V30 5266 O 480.528 0.874458 -1.81425 0
M  V30 5267 C 477.593 1.19904 -3.25306 0
M  V30 5268 C 476.654 0.484669 -4.26555 0
M  V30 5269 C 475.887 1.44996 -5.13626 0
M  V30 5270 O 476.11 2.68515 -5.03245 0
M  V30 5271 O 475.044 0.971642 -5.94006 0
M  V30 5272 H 478.87 -0.525361 -2.99121 0
M  V30 5273 H 476.455 -0.322916 -1.45868 0
M  V30 5274 H 478.337 1.78399 -3.81774 0
M  V30 5275 H 477.012 1.8917 -2.62672 0
M  V30 5276 H 475.919 -0.141605 -3.73832 0
M  V30 5277 H 477.252 -0.166634 -4.91918 0
M  V30 5278 N 478.904 1.54736 -0.299062 0
M  V30 5279 C 479.834 2.26409 0.571085 0
M  V30 5280 C 480.815 1.2629 1.13951 0
M  V30 5281 O 482 1.55059 1.16921 0
M  V30 5282 C 479.13 3.00338 1.74396 0
M  V30 5283 C 478.084 4.07588 1.30599 0
M  V30 5284 C 477.41 4.69222 2.56387 0
M  V30 5285 C 478.71 5.20455 0.438645 0
M  V30 5286 H 480.404 2.99388 -0.0266991 0
M  V30 5287 H 477.95 1.43993 -0.0142812 0
M  V30 5288 H 479.903 3.49198 2.35878 0
M  V30 5289 H 478.627 2.24934 2.36796 0
M  V30 5290 H 477.286 3.59575 0.71424 0
M  V30 5291 H 476.934 3.9046 3.17097 0
M  V30 5292 H 476.634 5.41653 2.27784 0
M  V30 5293 H 478.158 5.20844 3.18675 0
M  V30 5294 H 479.572 5.65221 0.959085 0
M  V30 5295 H 477.969 5.99594 0.246466 0
M  V30 5296 H 479.039 4.8192 -0.536738 0
M  V30 5297 N 480.382 0.0267497 1.57577 0
M  V30 5298 C 481.612 -0.6617 1.95717 0
M  V30 5299 C 482.02 -1.66331 0.901706 0
M  V30 5300 O 481.363 -1.83273 -0.125241 0
M  V30 5301 C 481.425 -1.42649 3.29987 0
M  V30 5302 C 481.089 -0.583482 4.5326 0
M  V30 5303 C 482.086 0.140221 5.19711 0
M  V30 5304 C 479.771 -0.521581 4.99585 0
M  V30 5305 C 481.765 0.914523 6.30805 0
M  V30 5306 C 479.452 0.256428 6.10562 0
M  V30 5307 C 480.45 0.973189 6.76031 0
M  V30 5308 O 480.138 1.73845 7.84878 0
M  V30 5309 H 479.87 -0.187483 0.649481 0
M  V30 5310 H 482.424 0.0820847 2.05236 0
M  V30 5311 H 480.654 -2.21536 3.16952 0
M  V30 5312 H 482.343 -2.00282 3.53047 0
M  V30 5313 H 483.109 0.101716 4.84893 0
M  V30 5314 H 478.988 -1.06904 4.48433 0
M  V30 5315 H 482.532 1.4745 6.81839 0
M  V30 5316 H 478.429 0.296657 6.44818 0
M  V30 5317 H 479.197 1.65797 8.01532 0
M  V30 5318 N 481.861 -1.55662 -0.24637 0
M  V30 5319 C 483.11 -1.7672 -0.972254 0
M  V30 5320 C 483.423 -0.59078 -1.86465 0
M  V30 5321 O 484.629 -0.684391 -2.62732 0
M  V30 5322 C 483.085 -3.12869 -1.7788 0
M  V30 5323 C 482.693 -4.38161 -0.933768 0
M  V30 5324 C 484.437 -3.43265 -2.49738 0
M  V30 5325 C 482.344 -5.6534 -1.73623 0
M  V30 5326 H 481.274 -0.658795 -0.366749 0
M  V30 5327 H 483.925 -1.82092 -0.226902 0
M  V30 5328 H 482.307 -3.01606 -2.56612 0
M  V30 5329 H 483.481 -4.60413 -0.188736 0
M  V30 5330 H 481.796 -4.15102 -0.328488 0
M  V30 5331 H 484.393 -4.35501 -3.10231 0
M  V30 5332 H 484.736 -2.64614 -3.2138 0
M  V30 5333 H 485.269 -3.55746 -1.78016 0
M  V30 5334 H 482.008 -6.46814 -1.06354 0
M  V30 5335 H 481.528 -5.47188 -2.45653 0
M  V30 5336 H 483.207 -6.04616 -2.30323 0
M  V30 5337 N 483.339 0.512053 -1.4905 0
M  V30 5338 C 484.75 1.09376 -1.51307 0
M  V30 5339 C 485.101 1.94 -0.292971 0
M  V30 5340 O 484.226 2.07965 0.598277 0
M  V30 5341 C 484.821 1.99031 -2.74176 0
M  V30 5342 C 483.38 2.52385 -2.79247 0
M  V30 5343 C 482.527 1.29749 -2.45073 0
M  V30 5344 H 485.478 0.296467 -1.55906 0
M  V30 5345 H 485.499 2.83569 -2.53711 0
M  V30 5346 H 485.011 1.37412 -3.62959 0
M  V30 5347 H 483.112 3.17673 -1.94716 0
M  V30 5348 H 483.225 2.90293 -3.81139 0
M  V30 5349 H 481.589 1.61912 -1.96612 0
M  V30 5350 H 482.372 0.698555 -3.36118 0
M  V30 5351 N 484.817 1.37938 0.762283 0
M  V30 5352 C 485.765 1.34569 1.89721 0
M  V30 5353 C 486.759 0.232929 1.67791 0
M  V30 5354 O 487.965 0.401485 1.75465 0
M  V30 5355 H 484.34 0.419594 0.624055 0
M  V30 5356 H 486.311 2.30357 1.8968 0
M  V30 5357 C 485.06 1.17898 3.27101 0
M  V30 5358 H 484.383 2.02781 3.44558 0
M  V30 5359 H 485.823 1.19593 4.06784 0
M  V30 5360 C 484.282 -0.114728 3.36705 0
M  V30 5361 O 484.812 -1.0949 3.8649 0
M  V30 5362 N 483.018 -0.16863 2.9011 0
M  V30 5363 H 482.565 0.62967 2.49786 0
M  V30 5364 H 482.523 -1.03383 2.96916 0
M  V30 5365 N 486.295 -0.989507 1.22664 0
M  V30 5366 C 487.243 -2.10148 0.997035 0
M  V30 5367 C 488.237 -1.6929 -0.0609783 0
M  V30 5368 O 489.443 -1.79766 0.0917523 0
M  V30 5369 H 485.818 -0.687256 0.305259 0
M  V30 5370 H 487.789 -2.26685 1.94053 0
M  V30 5371 C 486.538 -3.4257 0.595085 0
M  V30 5372 H 485.861 -3.74453 1.40089 0
M  V30 5373 H 487.301 -4.21344 0.473869 0
M  V30 5374 C 485.76 -3.29638 -0.695725 0
M  V30 5375 O 486.29 -3.61709 -1.74727 0
M  V30 5376 N 484.496 -2.82814 -0.668173 0
M  V30 5377 H 484.043 -2.56914 0.18787 0
M  V30 5378 H 484.001 -2.74544 -1.5321 0
M  V30 5379 N 487.773 -1.03688 -1.18687 0
M  V30 5380 C 488.72 -0.624624 -2.22187 0
M  V30 5381 C 489.69 0.365636 -1.62026 0
M  V30 5382 O 490.875 0.260481 -1.89014 0
M  V30 5383 C 488.015 0.0101738 -3.45099 0
M  V30 5384 C 487.128 -1.02709 -4.19613 0
M  V30 5385 C 486.263 -0.361213 -5.2997 0
M  V30 5386 C 485.302 -1.38384 -5.96252 0
M  V30 5387 N 484.439 -0.743196 -6.98155 0
M  V30 5388 H 489.279 -1.51176 -2.56807 0
M  V30 5389 H 486.816 -0.75636 -1.26165 0
M  V30 5390 H 488.774 0.395528 -4.15321 0
M  V30 5391 H 487.404 0.860848 -3.1111 0
M  V30 5392 H 486.456 -1.53043 -3.48256 0
M  V30 5393 H 487.768 -1.80398 -4.65036 0
M  V30 5394 H 486.922 0.0785537 -6.06649 0
M  V30 5395 H 485.661 0.447799 -4.8564 0
M  V30 5396 H 484.666 -1.83378 -5.18317 0
M  V30 5397 H 485.891 -2.19448 -6.42666 0
M  V30 5398 H 483.837 0.0455789 -6.55984 0
M  V30 5399 H 483.754 -1.45784 -7.41811 0
M  V30 5400 H 485.022 -0.327698 -7.78811 0
M  V30 5401 N 489.251 1.34841 -0.815825 0
M  V30 5402 C 490.499 1.98107 -0.399744 0
M  V30 5403 C 490.82 1.65019 1.03894 0
M  V30 5404 O 490.09 0.937311 1.72021 0
M  V30 5405 H 488.67 0.732827 -0.144823 0
M  V30 5406 H 491.332 1.64599 -1.0437 0
M  V30 5407 H 490.428 3.07856 -0.512965 0
M  V30 5408 N 490.729 0.570148 1.46925 0
M  V30 5409 C 491.661 -0.207909 2.28255 0
M  V30 5410 C 492.674 -0.867301 1.37774 0
M  V30 5411 O 493.863 -0.738976 1.62485 0
M  V30 5412 C 490.963 -1.31298 3.12433 0
M  V30 5413 C 490.136 -0.747915 4.30958 0
M  V30 5414 C 489.195 -1.7391 4.9663 0
M  V30 5415 O 488.221 -1.2801 5.54619 0
M  V30 5416 N 489.423 -3.07288 4.92498 0
M  V30 5417 H 492.188 0.489794 2.95671 0
M  V30 5418 H 489.749 0.407076 1.56699 0
M  V30 5419 H 491.741 -1.97507 3.53232 0
M  V30 5420 H 490.311 -1.91373 2.47175 0
M  V30 5421 H 489.531 0.0913066 3.94094 0
M  V30 5422 H 490.819 -0.349958 5.07595 0
M  V30 5423 H 490.217 -3.47213 4.46609 0
M  V30 5424 H 488.774 -3.69021 5.37277 0
M  V30 5425 N 492.207 -1.54576 0.307264 0
M  V30 5426 C 493.137 -2.26708 -0.55907 0
M  V30 5427 C 494.118 -1.26893 -1.1328 0
M  V30 5428 O 495.303 -1.55677 -1.16097 0
M  V30 5429 C 492.433 -3.01259 -1.72801 0
M  V30 5430 C 491.387 -4.08275 -1.28435 0
M  V30 5431 C 490.713 -4.70575 -2.53895 0
M  V30 5432 C 492.013 -5.2068 -0.411038 0
M  V30 5433 H 493.707 -2.9937 0.042576 0
M  V30 5434 H 491.253 -1.43983 0.0219173 0
M  V30 5435 H 493.206 -3.50444 -2.34023 0
M  V30 5436 H 491.93 -2.26187 -2.356 0
M  V30 5437 H 490.589 -3.59949 -0.695161 0
M  V30 5438 H 490.237 -3.92136 -3.15021 0
M  V30 5439 H 489.937 -5.42854 -2.24908 0
M  V30 5440 H 491.461 -5.22527 -3.15908 0
M  V30 5441 H 492.875 -5.65721 -0.929097 0
M  V30 5442 H 491.272 -5.99716 -0.214664 0
M  V30 5443 H 492.342 -4.81629 0.562287 0
M  V30 5444 N 493.685 -0.035106 -1.57561 0
M  V30 5445 C 494.934 0.641604 -1.91223 0
M  V30 5446 C 495.247 1.72944 -0.913761 0
M  V30 5447 O 496.453 2.46321 -1.14185 0
M  V30 5448 C 494.909 1.19249 -3.3957 0
M  V30 5449 C 494.517 0.137616 -4.47789 0
M  V30 5450 C 496.261 1.84537 -3.82291 0
M  V30 5451 C 494.168 0.700478 -5.87237 0
M  V30 5452 H 493.098 0.243417 -0.713627 0
M  V30 5453 H 495.749 -0.101382 -1.8322 0
M  V30 5454 H 494.131 1.98728 -3.42525 0
M  V30 5455 H 495.305 -0.635153 -4.56402 0
M  V30 5456 H 493.62 -0.416855 -4.14308 0
M  V30 5457 H 496.217 2.27616 -4.83834 0
M  V30 5458 H 496.56 2.69054 -3.17672 0
M  V30 5459 H 497.093 1.11739 -3.81784 0
M  V30 5460 H 493.832 -0.106693 -6.55413 0
M  V30 5461 H 493.352 1.4416 -5.82218 0
M  V30 5462 H 495.031 1.18837 -6.35993 0
M  V30 5463 N 495.163 1.55791 0.238111 0
M  V30 5464 C 496.11 1.9105 1.29493 0
M  V30 5465 C 497.08 0.765733 1.47397 0
M  V30 5466 O 498.265 1.02017 1.61236 0
M  V30 5467 C 495.405 2.21826 2.64362 0
M  V30 5468 C 494.518 3.49153 2.54394 0
M  V30 5469 C 493.653 3.69455 3.81676 0
M  V30 5470 C 492.692 4.90353 3.66361 0
M  V30 5471 N 491.829 5.07131 4.85554 0
M  V30 5472 H 496.669 2.81172 0.987233 0
M  V30 5473 H 494.206 1.39179 0.476203 0
M  V30 5474 H 496.164 2.37675 3.4288 0
M  V30 5475 H 494.794 1.34897 2.93262 0
M  V30 5476 H 493.846 3.41587 1.67399 0
M  V30 5477 H 495.158 4.37818 2.38991 0
M  V30 5478 H 494.312 3.85311 4.68636 0
M  V30 5479 H 493.051 2.7904 3.99985 0
M  V30 5480 H 492.056 4.74464 2.77784 0
M  V30 5481 H 493.281 5.82237 3.49538 0
M  V30 5482 H 491.227 4.19654 5.04209 0
M  V30 5483 H 491.144 5.89899 4.72816 0
M  V30 5484 H 492.412 5.27407 5.73988 0
M  V30 5485 N 496.642 -0.504142 1.49319 0
M  V30 5486 C 497.605 -1.5883 1.65244 0
M  V30 5487 C 498.605 -1.52009 0.524386 0
M  V30 5488 O 499.795 -1.55218 0.79077 0
M  V30 5489 C 496.927 -2.98481 1.64687 0
M  V30 5490 H 498.12 -1.4604 2.61939 0
M  V30 5491 H 495.673 -0.728144 1.38303 0
M  V30 5492 H 496.408 -3.16751 0.695644 0
M  V30 5493 H 496.193 -3.0484 2.46607 0
M  V30 5494 H 497.683 -3.77256 1.79075 0
M  V30 5495 N 498.12 -1.38341 -0.754957 0
M  V30 5496 C 499.36 -1.35888 -1.52689 0
M  V30 5497 C 499.724 0.0513682 -1.91931 0
M  V30 5498 O 500.925 0.200761 -2.68049 0
M  V30 5499 C 499.196 -2.28666 -2.74676 0
M  V30 5500 S 500.755 -2.4422 -3.64558 0
M  V30 5501 H 497.573 -0.482165 -0.522531 0
M  V30 5502 H 500.175 -1.74253 -0.886358 0
M  V30 5503 H 498.879 -3.30023 -2.43953 0
M  V30 5504 H 498.41 -1.91445 -3.43675 0
M  V30 5505 H 500.425 -1.66525 -4.67423 0
M  V30 5506 N 499.598 0.982988 -1.23187 0
M  V30 5507 C 500.545 2.07491 -1.01075 0
M  V30 5508 C 501.515 1.65949 0.070905 0
M  V30 5509 O 502.7 1.90629 -0.0806822 0
M  V30 5510 C 499.84 3.39751 -0.605261 0
M  V30 5511 C 498.953 3.94578 -1.75876 0
M  V30 5512 C 498.088 5.15039 -1.3003 0
M  V30 5513 C 497.127 5.62027 -2.42472 0
M  V30 5514 N 496.264 6.73719 -1.97602 0
M  V30 5515 H 501.104 2.25739 -1.9454 0
M  V30 5516 H 498.641 1.10659 -0.969179 0
M  V30 5517 H 500.599 4.15719 -0.351279 0
M  V30 5518 H 499.229 3.21473 0.292382 0
M  V30 5519 H 498.281 3.1539 -2.12681 0
M  V30 5520 H 499.593 4.25422 -2.60418 0
M  V30 5521 H 498.747 5.9833 -1.00429 0
M  V30 5522 H 497.486 4.85843 -0.425216 0
M  V30 5523 H 496.491 4.77318 -2.7285 0
M  V30 5524 H 497.716 5.93244 -3.30512 0
M  V30 5525 H 495.662 6.46287 -1.1247 0
M  V30 5526 H 495.579 7.03934 -2.75705 0
M  V30 5527 H 496.847 7.6049 -1.71098 0
M  V30 5528 N 501.076 1.04316 1.18135 0
M  V30 5529 C 502.304 0.768117 1.92113 0
M  V30 5530 C 502.719 -0.675057 1.76319 0
M  V30 5531 O 502.076 -1.46038 1.09449 0
M  V30 5532 C 502.127 1.12808 3.43448 0
M  V30 5533 O 501.848 2.5146 3.58747 0
M  V30 5534 C 503.349 0.8779 4.3452 0
M  V30 5535 H 500.569 0.279937 0.609817 0
M  V30 5536 H 503.113 1.39149 1.49859 0
M  V30 5537 H 501.268 0.549623 3.83481 0
M  V30 5538 H 501.682 2.65313 4.52448 0
M  V30 5539 H 503.156 1.17959 5.39249 0
M  V30 5540 H 503.633 -0.187239 4.38801 0
M  V30 5541 H 504.239 1.43977 4.00188 0
M  V30 5542 N 502.554 -1.34406 0.822964 0
M  V30 5543 C 503.464 -2.33298 0.246838 0
M  V30 5544 C 504.48 -1.62625 -0.618797 0
M  V30 5545 O 505.656 -1.94391 -0.526685 0
M  V30 5546 C 502.721 -3.41785 -0.581731 0
M  V30 5547 C 501.782 -4.28206 0.306309 0
M  V30 5548 C 501.015 -5.31512 -0.48281 0
M  V30 5549 O 501.238 -5.43973 -1.71607 0
M  V30 5550 O 500.172 -6.01749 0.134884 0
M  V30 5551 H 503.998 -2.84401 1.06534 0
M  V30 5552 H 501.583 -1.37466 0.585108 0
M  V30 5553 H 503.465 -4.08028 -1.05313 0
M  V30 5554 H 502.14 -2.92925 -1.37756 0
M  V30 5555 H 501.047 -3.64885 0.825199 0
M  V30 5556 H 502.38 -4.80507 1.06649 0
M  V30 5557 N 504.032 -0.577932 -1.46621 0
M  V30 5558 C 504.995 0.147805 -2.28723 0
M  V30 5559 C 505.995 0.823325 -1.38123 0
M  V30 5560 O 507.185 0.676011 -1.60548 0
M  V30 5561 C 504.317 1.21853 -3.18378 0
M  V30 5562 H 505.51 -0.573654 -2.94362 0
M  V30 5563 H 503.063 -0.335703 -1.52652 0
M  V30 5564 H 503.798 1.97173 -2.57475 0
M  V30 5565 H 503.583 0.738714 -3.85078 0
M  V30 5566 H 505.073 1.72768 -3.80186 0
M  V30 5567 N 505.51 1.54411 -0.315457 0
M  V30 5568 C 506.787 1.92562 0.343398 0
M  V30 5569 C 507.167 1.24423 1.70535 0
M  V30 5570 O 506.515 0.385051 2.25232 0
M  V30 5571 C 506.725 3.46168 0.443687 0
M  V30 5572 C 508.073 4.18659 0.707783 0
M  V30 5573 O 509.097 3.52281 0.52693 0
M  V30 5574 O 507.956 5.36198 1.05612 0
M  V30 5575 H 505.05 0.80379 0.194552 0
M  V30 5576 H 507.596 1.65738 -0.364577 0
M  V30 5577 H 506.368 3.8792 -0.513172 0
M  V30 5578 H 505.991 3.79073 1.19956 0
M  V30 5579 N 506.988 0.0434614 1.5754 0
M  V30 5580 C 508.236 -0.630786 1.92004 0
M  V30 5581 C 508.557 -1.71836 0.921807 0
M  V30 5582 O 507.827 -1.9587 -0.034522 0
M  V30 5583 H 506.407 -0.235988 0.708745 0
M  V30 5584 H 509.069 0.0946462 1.9467 0
M  V30 5585 H 508.165 -1.07434 2.93026 0
M  V30 5586 N 508.466 -1.55915 -0.229846 0
M  V30 5587 C 509.882 -1.48721 -0.579166 0
M  V30 5588 C 510.082 -0.736976 -1.87539 0
M  V30 5589 O 509.138 -0.273258 -2.51017 0
M  V30 5590 C 510.451 -2.9323 -0.666082 0
M  V30 5591 C 511.999 -3.03701 -0.757267 0
M  V30 5592 C 512.474 -4.49552 -0.8756 0
M  V30 5593 N 513.965 -4.53561 -0.940035 0
M  V30 5594 C 514.7 -5.63683 -1.05116 0
M  V30 5595 N 514.196 -6.83576 -1.12675 0
M  V30 5596 N 515.989 -5.51516 -1.08565 0
M  V30 5597 H 508.14 -2.03123 0.620857 0
M  V30 5598 H 510.403 -0.922898 0.21671 0
M  V30 5599 H 510.109 -3.51032 0.21664 0
M  V30 5600 H 509.983 -3.44668 -1.53243 0
M  V30 5601 H 512.37 -2.45969 -1.63043 0
M  V30 5602 H 512.451 -2.55446 0.134583 0
M  V30 5603 H 512.095 -5.079 -0.00692351 0
M  V30 5604 H 512.025 -4.95506 -1.78274 0
M  V30 5605 H 514.516 -3.67215 -0.892269 0
M  V30 5606 H 514.829 -7.63251 -1.21109 0
M  V30 5607 H 513.174 -6.86303 -1.09603 0
M  V30 5608 H 516.365 -4.5678 -1.02319 0
M  V30 5609 H 516.538 -6.37372 -1.1688 0
M  V30 5610 N 509.944 0.496216 -1.49584 0
M  V30 5611 C 511.19 1.25189 -1.59548 0
M  V30 5612 C 511.523 1.9212 -0.283466 0
M  V30 5613 O 510.798 1.80947 0.713324 0
M  V30 5614 C 511.081 2.31516 -2.75812 0
M  V30 5615 C 510.934 1.69054 -4.16822 0
M  V30 5616 C 512.253 3.3304 -2.87702 0
M  V30 5617 H 509.372 0.45379 -0.580727 0
M  V30 5618 H 512.014 0.549327 -1.81886 0
M  V30 5619 H 510.164 2.91438 -2.56897 0
M  V30 5620 H 511.836 1.12923 -4.47265 0
M  V30 5621 H 510.079 0.994485 -4.22247 0
M  V30 5622 H 510.75 2.462 -4.94054 0
M  V30 5623 H 513.226 2.83114 -3.04936 0
M  V30 5624 H 512.102 4.04794 -3.7072 0
M  V30 5625 H 512.363 3.95655 -1.97255 0
M  V30 5626 N 511.423 1.38739 0.74761 0
M  V30 5627 C 512.669 1.35475 1.50912 0
M  V30 5628 C 513.002 -0.0533093 1.94127 0
M  V30 5629 O 512.277 -1.01572 1.65871 0
M  V30 5630 C 512.56 2.31582 2.75757 0
M  V30 5631 C 512.413 3.81274 2.38642 0
M  V30 5632 C 513.732 2.25722 3.77806 0
M  V30 5633 H 510.851 0.493427 0.547447 0
M  V30 5634 H 513.493 1.69634 0.855823 0
M  V30 5635 H 511.643 2.02582 3.31501 0
M  V30 5636 H 513.315 4.20972 1.88626 0
M  V30 5637 H 511.558 3.98664 1.71025 0
M  V30 5638 H 512.229 4.4399 3.27989 0
M  V30 5639 H 514.705 2.51336 3.31616 0
M  V30 5640 H 513.581 2.95069 4.62845 0
M  V30 5641 H 513.842 1.25803 4.23823 0
M  V30 5642 N 512.901 -0.976442 1.23707 0
M  V30 5643 C 513.811 -2.10359 1.03856 0
M  V30 5644 C 514.827 -1.73991 -0.0180919 0
M  V30 5645 O 516.003 -2.0061 0.178211 0
M  V30 5646 C 513.068 -3.40809 0.636387 0
M  V30 5647 C 512.129 -3.91179 1.76854 0
M  V30 5648 C 511.362 -5.15404 1.38546 0
M  V30 5649 O 511.585 -5.69754 0.27142 0
M  V30 5650 O 510.519 -5.5994 2.20797 0
M  V30 5651 H 514.345 -2.29997 1.98331 0
M  V30 5652 H 511.93 -1.08742 1.02448 0
M  V30 5653 H 513.812 -4.19269 0.423223 0
M  V30 5654 H 512.487 -3.22493 -0.279322 0
M  V30 5655 H 511.394 -3.13819 2.03638 0
M  V30 5656 H 512.727 -4.13958 2.6627 0
M  V30 5657 N 514.379 -1.04941 -1.1758 0
M  V30 5658 C 515.627 -0.756492 -1.87408 0
M  V30 5659 C 515.948 0.718478 -1.81281 0
M  V30 5660 O 515.218 1.519 -1.23706 0
M  V30 5661 H 513.798 -0.276841 -0.693807 0
M  V30 5662 H 516.46 -1.32803 -1.42652 0
M  V30 5663 H 515.556 -1.06918 -2.93215 0
M  V30 5664 N 515.857 1.33968 -0.830081 0
M  V30 5665 C 516.805 2.31301 -0.245435 0
M  V30 5666 C 517.799 1.57734 0.617762 0
M  V30 5667 O 519.005 1.72674 0.508303 0
M  V30 5668 H 515.38 0.749552 -0.0606316 0
M  V30 5669 H 517.351 2.78129 -1.08105 0
M  V30 5670 C 516.1 3.42961 0.572084 0
M  V30 5671 H 515.423 3.99714 -0.0828118 0
M  V30 5672 H 516.863 4.13286 0.94715 0
M  V30 5673 C 515.322 2.88043 1.74737 0
M  V30 5674 O 515.852 2.83508 2.8458 0
M  V30 5675 N 514.058 2.44768 1.56642 0
M  V30 5676 H 513.605 2.48656 0.672901 0
M  V30 5677 H 513.563 2.08375 2.3543 0
M  V30 5678 N 517.335 0.585699 1.46312 0
M  V30 5679 C 518.285 -0.166813 2.27389 0
M  V30 5680 C 519.269 -0.859076 1.36047 0
M  V30 5681 O 520.461 -0.752678 1.60199 0
M  V30 5682 C 517.59 -1.17791 3.2246 0
M  V30 5683 C 516.676 -0.487605 4.21288 0
M  V30 5684 N 517.067 0.45849 5.03718 0
M  V30 5685 C 515.365 -0.737971 4.39852 0
M  V30 5686 C 516.066 0.862213 5.75275 0
M  V30 5687 N 515.042 0.210707 5.43191 0
M  V30 5688 H 518.844 0.560167 2.88512 0
M  V30 5689 H 516.358 0.407715 1.57199 0
M  V30 5690 H 518.355 -1.73122 3.79255 0
M  V30 5691 H 517.015 -1.90568 2.62896 0
M  V30 5692 H 518.026 0.834163 5.11138 0
M  V30 5693 H 514.703 -1.45209 3.91434 0
M  V30 5694 H 516.093 1.64128 6.51546 0
M  V30 5695 N 518.813 -1.54241 0.323641 0
M  V30 5696 C 519.746 -2.20579 -0.584833 0
M  V30 5697 C 520.724 -1.18286 -1.11567 0
M  V30 5698 O 521.908 -1.47025 -1.17966 0
M  V30 5699 C 519.035 -2.86754 -1.80249 0
M  V30 5700 C 518.081 -4.02767 -1.4029 0
M  V30 5701 S 518.914 -5.33693 -0.439539 0
M  V30 5702 C 520.07 -6.03362 -1.66448 0
M  V30 5703 H 520.303 -2.97292 -0.0213238 0
M  V30 5704 H 517.836 -1.54024 0.107726 0
M  V30 5705 H 519.794 -3.25503 -2.50116 0
M  V30 5706 H 518.455 -2.09844 -2.33719 0
M  V30 5707 H 517.648 -4.47933 -2.31024 0
M  V30 5708 H 517.25 -3.65692 -0.783928 0
M  V30 5709 H 519.542 -6.25546 -2.6019 0
M  V30 5710 H 520.485 -6.9689 -1.25498 0
M  V30 5711 H 520.893 -5.33273 -1.85149 0
M  V30 5712 N 520.291 -0.0518155 -1.57515 0
M  V30 5713 C 521.537 0.622745 -1.93002 0
M  V30 5714 C 521.87 1.70456 -0.930499 0
M  V30 5715 O 521.145 1.94452 0.0434086 0
M  V30 5716 C 521.428 1.21824 -3.38867 0
M  V30 5717 C 521.281 0.144434 -4.49568 0
M  V30 5718 C 522.6 2.12968 -3.8514 0
M  V30 5719 H 519.719 0.22491 -0.701844 0
M  V30 5720 H 522.361 -0.113711 -1.89659 0
M  V30 5721 H 520.511 1.8459 -3.41846 0
M  V30 5722 H 522.183 -0.48753 -4.58717 0
M  V30 5723 H 520.426 -0.527424 -4.30582 0
M  V30 5724 H 521.097 0.601127 -5.48717 0
M  V30 5725 H 523.573 1.60163 -3.8404 0
M  V30 5726 H 522.449 2.51578 -4.87852 0
M  V30 5727 H 522.71 3.03004 -3.21934 0
M  V30 5728 N 521.769 1.56035 0.221574 0
M  V30 5729 C 522.999 1.82864 0.961468 0
M  V30 5730 C 523.407 0.628703 1.78449 0
M  V30 5731 O 522.75 -0.412109 1.79018 0
M  V30 5732 C 522.812 3.03425 1.92804 0
M  V30 5733 C 522.476 4.38429 1.28954 0
M  V30 5734 C 523.473 5.15441 0.679431 0
M  V30 5735 C 521.158 4.85151 1.30131 0
M  V30 5736 C 523.152 6.37337 0.0896148 0
M  V30 5737 C 520.839 6.06989 0.707651 0
M  V30 5738 C 521.837 6.82923 0.102855 0
M  V30 5739 O 521.525 8.02456 -0.48157 0
M  V30 5740 H 521.257 0.611883 0.28736 0
M  V30 5741 H 523.811 2.0397 0.241932 0
M  V30 5742 H 522.041 2.78138 2.68656 0
M  V30 5743 H 523.73 3.17127 2.53348 0
M  V30 5744 H 524.496 4.80452 0.662661 0
M  V30 5745 H 520.375 4.26021 1.76145 0
M  V30 5746 H 523.919 6.96547 -0.383069 0
M  V30 5747 H 519.816 6.41451 0.721834 0
M  V30 5748 H 520.584 8.17636 -0.375887 0
M  V30 5749 N 523.247 -0.488276 1.49845 0
M  V30 5750 C 524.663 -0.820566 1.3689 0
M  V30 5751 C 524.863 -1.97248 0.411752 0
M  V30 5752 O 523.919 -2.52042 -0.151931 0
M  V30 5753 C 525.232 -1.1488 2.77891 0
M  V30 5754 C 526.78 -1.25626 2.86683 0
M  V30 5755 C 527.255 -1.61772 4.28479 0
M  V30 5756 N 528.746 -1.68797 4.31349 0
M  V30 5757 C 529.481 -1.98235 5.38043 0
M  V30 5758 N 528.977 -2.2581 6.54967 0
M  V30 5759 N 530.77 -1.99593 5.2547 0
M  V30 5760 H 522.921 0.271123 2.10662 0
M  V30 5761 H 525.184 0.058735 0.946179 0
M  V30 5762 H 524.89 -0.375614 3.49688 0
M  V30 5763 H 524.764 -2.08919 3.14058 0
M  V30 5764 H 527.151 -2.02014 2.15114 0
M  V30 5765 H 527.232 -0.296072 2.54081 0
M  V30 5766 H 526.876 -0.859295 5.00578 0
M  V30 5767 H 526.806 -2.58912 4.58554 0
M  V30 5768 H 529.297 -1.49595 3.4703 0
M  V30 5769 H 529.61 -2.47497 7.32096 0
M  V30 5770 H 527.955 -2.23239 6.58171 0
M  V30 5771 H 531.146 -1.77535 4.33127 0
M  V30 5772 H 531.319 -2.222 6.08713 0
M  V30 5773 N 524.725 -1.39134 -0.740242 0
M  V30 5774 C 525.974 -1.35384 -1.49512 0
M  V30 5775 C 526.287 0.04919 -1.95538 0
M  V30 5776 O 527.493 0.209257 -2.70692 0
M  V30 5777 C 525.949 -2.37812 -2.70136 0
M  V30 5778 C 525.557 -3.83804 -2.31081 0
M  V30 5779 C 527.301 -2.4313 -3.47977 0
M  V30 5780 C 525.208 -4.77886 -3.48395 0
M  V30 5781 H 524.138 -0.503297 -0.561434 0
M  V30 5782 H 526.789 -1.64754 -0.807974 0
M  V30 5783 H 525.171 -2.01505 -3.40899 0
M  V30 5784 H 526.345 -4.29123 -1.67898 0
M  V30 5785 H 524.66 -3.81732 -1.66343 0
M  V30 5786 H 527.257 -3.10614 -4.35228 0
M  V30 5787 H 527.6 -1.45423 -3.90074 0
M  V30 5788 H 528.133 -2.78304 -2.84239 0
M  V30 5789 H 524.872 -5.76836 -3.11353 0
M  V30 5790 H 524.392 -4.3725 -4.10576 0
M  V30 5791 H 526.071 -4.96538 -4.148 0
M  V30 5792 N 526.204 0.969867 -1.24223 0
M  V30 5793 C 527.429 1.75289 -1.10853 0
M  V30 5794 C 527.854 1.85091 0.335079 0
M  V30 5795 O 527.212 1.32024 1.24255 0
M  V30 5796 C 527.26 3.15255 -1.75062 0
M  V30 5797 O 526.364 3.99589 -1.01992 0
M  V30 5798 H 525.705 0.538904 -0.387915 0
M  V30 5799 H 528.235 1.21675 -1.64488 0
M  V30 5800 H 528.245 3.65787 -1.80731 0
M  V30 5801 H 526.92 3.07436 -2.801 0
M  V30 5802 H 525.497 3.58077 -1.04094 0
M  V30 5803 N 527.682 1.05563 1.17022 0
M  V30 5804 C 528.645 0.664098 2.19368 0
M  V30 5805 C 529.645 -0.286358 1.5823 0
M  V30 5806 O 530.835 -0.069728 1.7406 0
M  V30 5807 C 527.967 -0.0239932 3.40892 0
M  V30 5808 H 529.16 1.57 2.55521 0
M  V30 5809 H 526.713 0.849964 1.31169 0
M  V30 5810 H 527.448 -0.942988 3.10287 0
M  V30 5811 H 527.233 0.659351 3.86516 0
M  V30 5812 H 528.723 -0.283909 4.16634 0
M  V30 5813 N 529.16 -1.33526 0.837174 0
M  V30 5814 C 530.571 -1.80182 0.489017 0
M  V30 5815 C 530.922 -1.69285 -0.991826 0
M  V30 5816 O 530.047 -1.24113 -1.77271 0
M  V30 5817 C 530.642 -3.27149 0.880866 0
M  V30 5818 C 529.201 -3.71828 0.584872 0
M  V30 5819 C 528.348 -2.54974 1.09011 0
M  V30 5820 H 531.299 -1.21071 1.02603 0
M  V30 5821 H 531.32 -3.80024 0.190239 0
M  V30 5822 H 530.832 -3.35048 1.95869 0
M  V30 5823 H 528.933 -3.69457 -0.48295 0
M  V30 5824 H 529.046 -4.65366 1.13892 0
M  V30 5825 H 527.41 -2.4952 0.511047 0
M  V30 5826 H 528.193 -2.65637 2.17467 0
M  V30 5827 N 530.638 -0.59345 -1.46 0
M  V30 5828 C 531.866 -0.0890934 -2.06708 0
M  V30 5829 C 532.281 1.2205 -1.44046 0
M  V30 5830 O 531.638 1.74029 -0.549551 0
M  V30 5831 C 531.689 0.0720263 -3.61428 0
M  V30 5832 O 531.41 -1.18574 -4.21748 0
M  V30 5833 C 532.911 0.609487 -4.3909 0
M  V30 5834 H 530.131 -0.0623628 -0.668096 0
M  V30 5835 H 532.675 -0.817171 -1.87464 0
M  V30 5836 H 530.83 0.750369 -3.80063 0
M  V30 5837 H 531.244 -1.0064 -5.14754 0
M  V30 5838 H 532.718 0.671363 -5.47902 0
M  V30 5839 H 533.195 1.62878 -4.07882 0
M  V30 5840 H 533.801 -0.03434 -4.25286 0
M  V30 5841 N 532.116 1.54067 -0.331816 0
M  V30 5842 C 533.048 2.22139 0.564538 0
M  V30 5843 C 534.061 1.22408 1.07332 0
M  V30 5844 O 535.25 1.4883 0.985481 0
M  V30 5845 C 532.35 2.87876 1.78831 0
M  V30 5846 C 531.523 4.13817 1.41682 0
M  V30 5847 C 530.582 4.63072 2.49901 0
M  V30 5848 O 529.608 5.27562 2.13699 0
M  V30 5849 N 530.81 4.38001 3.80967 0
M  V30 5850 H 533.575 2.99694 -0.0183736 0
M  V30 5851 H 531.136 1.61153 -0.155396 0
M  V30 5852 H 533.128 3.17747 2.50637 0
M  V30 5853 H 531.698 2.13977 2.27887 0
M  V30 5854 H 530.918 3.9062 0.530044 0
M  V30 5855 H 532.206 4.95762 1.14443 0
M  V30 5856 H 531.604 3.864 4.13173 0
M  V30 5857 H 530.161 4.72507 4.48977 0
M  V30 5858 N 533.594 0.0601682 1.57485 0
M  V30 5859 C 534.504 -0.926121 2.15546 0
M  V30 5860 C 535.52 -1.33532 1.11558 0
M  V30 5861 O 536.696 -1.4104 1.4377 0
M  V30 5862 C 533.761 -2.17952 2.69625 0
M  V30 5863 C 532.822 -1.82783 3.88444 0
M  V30 5864 C 532.055 -3.02148 4.39935 0
M  V30 5865 O 532.278 -4.15803 3.90466 0
M  V30 5866 O 531.212 -2.82639 5.31412 0
M  V30 5867 H 535.038 -0.462289 3.00161 0
M  V30 5868 H 532.623 -0.162246 1.48516 0
M  V30 5869 H 534.505 -2.91474 3.04337 0
M  V30 5870 H 533.18 -2.63456 1.88077 0
M  V30 5871 H 532.087 -1.06549 3.58606 0
M  V30 5872 H 533.42 -1.42072 4.7125 0
M  V30 5873 N 535.072 -1.5615 -0.213296 0
M  V30 5874 C 535.982 -1.96265 -1.28519 0
M  V30 5875 C 536.998 -0.86765 -1.50824 0
M  V30 5876 O 538.174 -1.17191 -1.63793 0
M  V30 5877 C 535.239 -2.27836 -2.61327 0
M  V30 5878 C 534.3 -3.50949 -2.47252 0
M  V30 5879 C 533.533 -3.81004 -3.73727 0
M  V30 5880 O 533.756 -3.12612 -4.77106 0
M  V30 5881 O 532.69 -4.74477 -3.70344 0
M  V30 5882 H 536.516 -2.87631 -0.974795 0
M  V30 5883 H 534.101 -1.43467 -0.416832 0
M  V30 5884 H 535.983 -2.49299 -3.39747 0
M  V30 5885 H 534.658 -1.39643 -2.9203 0
M  V30 5886 H 533.565 -3.34754 -1.67004 0
M  V30 5887 H 534.898 -4.39551 -2.21486 0
M  V30 5888 N 536.55 0.480323 -1.50102 0
M  V30 5889 C 537.497 1.57946 -1.6829 0
M  V30 5890 C 538.467 1.57611 -0.524223 0
M  V30 5891 O 539.652 1.75282 -0.753709 0
M  V30 5892 C 536.792 2.95978 -1.77457 0
M  V30 5893 C 535.905 3.06173 -3.04766 0
M  V30 5894 C 535.04 4.35063 -3.04784 0
M  V30 5895 C 534.079 4.38966 -4.26586 0
M  V30 5896 N 533.216 5.59314 -4.24396 0
M  V30 5897 H 538.056 1.41743 -2.62131 0
M  V30 5898 H 535.593 0.689304 -1.2995 0
M  V30 5899 H 537.551 3.76011 -1.80752 0
M  V30 5900 H 536.181 3.10837 -0.870637 0
M  V30 5901 H 535.233 2.19071 -3.10986 0
M  V30 5902 H 536.545 3.04916 -3.9475 0
M  V30 5903 H 535.699 5.23436 -3.06757 0
M  V30 5904 H 534.438 4.38915 -2.12614 0
M  V30 5905 H 533.443 3.48992 -4.24835 0
M  V30 5906 H 534.668 4.36813 -5.19972 0
M  V30 5907 H 532.614 5.63969 -3.35074 0
M  V30 5908 H 532.531 5.5976 -5.08138 0
M  V30 5909 H 533.799 6.49837 -4.30502 0
M  V30 5910 N 538.028 1.39524 0.732853 0
M  V30 5911 C 539.305 1.27373 1.48444 0
M  V30 5912 C 539.685 -0.115725 2.10783 0
M  V30 5913 O 539.033 -1.12713 1.98766 0
M  V30 5914 C 539.243 2.39966 2.53412 0
M  V30 5915 C 540.591 2.79384 3.19733 0
M  V30 5916 O 541.615 2.39431 2.63725 0
M  V30 5917 O 540.474 3.48353 4.21085 0
M  V30 5918 H 537.568 0.499272 0.659285 0
M  V30 5919 H 540.114 1.51403 0.766496 0
M  V30 5920 H 538.886 3.32845 2.05742 0
M  V30 5921 H 538.509 2.17612 3.32762 0
M  V30 5922 N 539.506 -0.963266 1.24736 0
M  V30 5923 C 540.416 -2.09246 1.06082 0
M  V30 5924 C 541.432 -1.74 0.000363101 0
M  V30 5925 O 542.608 -2.0041 0.199479 0
M  V30 5926 C 539.673 -3.40115 0.672498 0
M  V30 5927 C 538.734 -3.89282 1.80993 0
M  V30 5928 C 537.967 -5.13905 1.44004 0
M  V30 5929 O 538.19 -5.69434 0.331835 0
M  V30 5930 O 537.124 -5.57566 2.26723 0
M  V30 5931 H 540.95 -2.27881 2.00759 0
M  V30 5932 H 538.535 -1.07649 1.03595 0
M  V30 5933 H 540.417 -4.18797 0.467668 0
M  V30 5934 H 539.092 -3.22771 -0.245102 0
M  V30 5935 H 537.999 -3.11642 2.06955 0
M  V30 5936 H 539.332 -4.1111 2.70646 0
M  V30 5937 N 540.985 -1.06182 -1.16461 0
M  V30 5938 C 542.231 -0.788825 -1.87481 0
M  V30 5939 C 542.586 0.677298 -1.80085 0
M  V30 5940 O 541.879 1.48976 -1.20486 0
M  V30 5941 C 542.073 -1.21633 -3.36066 0
M  V30 5942 C 541.902 -2.72247 -3.57927 0
M  V30 5943 C 540.672 -3.39696 -3.74079 0
M  V30 5944 C 542.87 -3.70461 -3.56739 0
M  V30 5945 N 540.852 -4.79072 -3.83879 0
M  V30 5946 C 542.223 -4.95616 -3.72511 0
M  V30 5947 C 544.278 -3.63788 -3.39945 0
M  V30 5948 C 542.981 -6.14895 -3.73225 0
M  V30 5949 C 545.007 -4.82517 -3.41953 0
M  V30 5950 C 544.369 -6.065 -3.58242 0
M  V30 5951 H 540.468 -0.341034 -0.703719 0
M  V30 5952 H 543.052 -1.35575 -1.39741 0
M  V30 5953 H 541.223 -0.67725 -3.8245 0
M  V30 5954 H 542.955 -0.892119 -3.94745 0
M  V30 5955 H 539.71 -2.90097 -3.74354 0
M  V30 5956 H 540.134 -5.51573 -3.92551 0
M  V30 5957 H 544.776 -2.68888 -3.26281 0
M  V30 5958 H 542.494 -7.10129 -3.85672 0
M  V30 5959 H 546.08 -4.79017 -3.30203 0
M  V30 5960 H 544.96 -6.96833 -3.59712 0
M  V30 5961 N 542.463 1.3308 -0.844243 0
M  V30 5962 C 543.712 1.96868 -0.438833 0
M  V30 5963 C 544.025 1.67599 1.00846 0
M  V30 5964 O 545.231 2.25043 1.51881 0
M  V30 5965 C 543.687 3.5234 -0.73377 0
M  V30 5966 C 543.295 3.90481 -2.1961 0
M  V30 5967 C 545.039 4.22653 -0.395574 0
M  V30 5968 C 542.946 5.38954 -2.43481 0
M  V30 5969 H 541.876 0.736749 -0.160364 0
M  V30 5970 H 544.527 1.51623 -1.03358 0
M  V30 5971 H 542.909 3.95941 -0.068589 0
M  V30 5972 H 544.083 3.57922 -2.90221 0
M  V30 5973 H 542.398 3.33165 -2.4978 0
M  V30 5974 H 544.995 5.31848 -0.551477 0
M  V30 5975 H 545.338 4.11004 0.661921 0
M  V30 5976 H 545.871 3.84601 -1.01621 0
M  V30 5977 H 542.61 5.55612 -3.47816 0
M  V30 5978 H 542.13 5.72954 -1.77437 0
M  V30 5979 H 543.809 6.05907 -2.26905 0
M  V30 5980 N 543.941 0.601185 1.45683 0
M  V30 5981 C 544.888 -0.121396 2.30481 0
M  V30 5982 C 545.858 -0.866232 1.41724 0
M  V30 5983 O 547.043 -0.85324 1.70659 0
M  V30 5984 C 544.183 -1.11704 3.26521 0
M  V30 5985 C 543.296 -0.373741 4.3038 0
M  V30 5986 C 542.431 -1.35854 5.13534 0
M  V30 5987 C 541.47 -0.602689 6.09126 0
M  V30 5988 N 540.607 -1.53645 6.85082 0
M  V30 5989 H 545.447 0.607732 2.91737 0
M  V30 5990 H 542.984 0.311502 1.43764 0
M  V30 5991 H 544.942 -1.70735 3.80664 0
M  V30 5992 H 543.572 -1.81366 2.67032 0
M  V30 5993 H 542.624 0.331962 3.78949 0
M  V30 5994 H 543.936 0.2163 4.98331 0
M  V30 5995 H 543.09 -2.02111 5.72046 0
M  V30 5996 H 541.829 -1.98251 4.45587 0
M  V30 5997 H 540.834 0.0735482 5.49751 0
M  V30 5998 H 542.059 0.0161467 6.79098 0
M  V30 5999 H 540.005 -2.14819 6.1983 0
M  V30 6000 H 539.922 -0.999688 7.49361 0
M  V30 6001 H 541.19 -2.1888 7.48139 0
M  V30 6002 N 545.419 -1.53889 0.339982 0
M  V30 6003 C 546.644 -2.05741 -0.261798 0
M  V30 6004 C 547.069 -1.21354 -1.43718 0
M  V30 6005 O 546.427 -0.22645 -1.7988 0
M  V30 6006 C 546.475 -3.54542 -0.658228 0
M  V30 6007 O 545.579 -3.7302 -1.75869 0
M  V30 6008 H 544.92 -0.662529 -0.0441672 0
M  V30 6009 H 547.45 -1.98568 0.493161 0
M  V30 6010 H 547.46 -3.9711 -0.936368 0
M  V30 6011 H 546.135 -4.15412 0.201358 0
M  V30 6012 H 544.712 -3.42355 -1.47809 0
M  V30 6013 N 546.897 -0.0685191 -1.57451 0
M  V30 6014 C 548.146 0.600898 -1.92541 0
M  V30 6015 C 548.459 1.70967 -0.950239 0
M  V30 6016 O 549.665 2.43844 -1.19384 0
M  V30 6017 C 548.121 1.12019 -3.42023 0
M  V30 6018 C 547.729 0.0426028 -4.4798 0
M  V30 6019 C 549.473 1.76386 -3.86119 0
M  V30 6020 C 547.38 0.575759 -5.88591 0
M  V30 6021 H 546.31 0.228225 -0.71863 0
M  V30 6022 H 548.961 -0.140223 -1.82963 0
M  V30 6023 H 547.343 1.91418 -3.46663 0
M  V30 6024 H 548.517 -0.73182 -4.54952 0
M  V30 6025 H 546.832 -0.504642 -4.13331 0
M  V30 6026 H 549.429 2.17302 -4.88553 0
M  V30 6027 H 549.772 2.62255 -3.23308 0
M  V30 6028 H 550.305 1.03615 -3.84069 0
M  V30 6029 H 547.044 -0.245691 -6.55039 0
M  V30 6030 H 546.564 1.31778 -5.85145 0
M  V30 6031 H 548.243 1.0532 -6.3837 0
M  V30 6032 N 548.375 1.56261 0.205012 0
M  V30 6033 C 549.307 1.90266 1.27795 0
M  V30 6034 C 550.32 0.792397 1.42214 0
M  V30 6035 O 551.509 1.07077 1.42817 0
M  V30 6036 C 548.609 2.11074 2.65143 0
M  V30 6037 C 547.782 3.42176 2.7246 0
M  V30 6038 C 546.841 3.52216 3.90936 0
M  V30 6039 O 545.867 4.25119 3.78501 0
M  V30 6040 N 547.069 2.84573 5.05963 0
M  V30 6041 H 549.834 2.82896 0.989434 0
M  V30 6042 H 547.395 1.57008 0.394981 0
M  V30 6043 H 549.387 2.15089 3.4281 0
M  V30 6044 H 547.957 1.2499 2.86524 0
M  V30 6045 H 547.177 3.50116 1.81142 0
M  V30 6046 H 548.465 4.28509 2.74331 0
M  V30 6047 H 547.863 2.25152 5.18963 0
M  V30 6048 H 546.42 2.94228 5.81613 0
M  V30 6049 N 549.853 -0.472356 1.50355 0
M  V30 6050 C 550.816 -1.5529 1.68576 0
M  V30 6051 C 551.816 -1.50863 0.556511 0
M  V30 6052 O 553.006 -1.53505 0.823516 0
M  V30 6053 C 550.138 -2.94921 1.70981 0
M  V30 6054 H 551.331 -1.40451 2.64978 0
M  V30 6055 H 548.884 -0.698645 1.39816 0
M  V30 6056 H 549.619 -3.15204 0.762675 0
M  V30 6057 H 549.404 -2.99541 2.53017 0
M  V30 6058 H 550.894 -3.73372 1.87037 0
M  V30 6059 N 551.331 -1.39911 -0.725443 0
M  V30 6060 C 552.294 -1.39156 -1.82121 0
M  V30 6061 C 553.294 -0.287018 -1.58218 0
M  V30 6062 O 554.484 -0.545421 -1.65441 0
M  V30 6063 C 551.616 -1.1736 -3.20062 0
M  V30 6064 H 552.809 -2.36672 -1.84191 0
M  V30 6065 H 550.362 -1.25615 -0.930079 0
M  V30 6066 H 551.097 -0.205648 -3.23647 0
M  V30 6067 H 550.882 -1.97358 -3.3881 0
M  V30 6068 H 552.372 -1.19596 -4.00108 0
M  V30 6069 N 552.809 0.956637 -1.25245 0
M  V30 6070 C 554.055 1.70352 -1.10036 0
M  V30 6071 C 554.388 1.90869 0.358156 0
M  V30 6072 O 553.663 1.47819 1.26411 0
M  V30 6073 C 553.946 3.08766 -1.85298 0
M  V30 6074 C 553.799 2.95672 -3.38966 0
M  V30 6075 C 555.118 4.08622 -1.63451 0
M  V30 6076 H 552.237 0.618279 -0.401123 0
M  V30 6077 H 554.879 1.11212 -1.54051 0
M  V30 6078 H 553.029 3.59252 -1.47887 0
M  V30 6079 H 554.701 2.52527 -3.86041 0
M  V30 6080 H 552.944 2.31634 -3.6678 0
M  V30 6081 H 553.615 3.93776 -3.86839 0
M  V30 6082 H 556.091 3.67038 -1.96015 0
M  V30 6083 H 554.967 5.03514 -2.18551 0
M  V30 6084 H 555.228 4.3834 -0.575357 0
M  V30 6085 N 554.287 1.06798 1.15896 0
M  V30 6086 C 555.512 0.808739 1.90982 0
M  V30 6087 C 555.937 -0.6316 1.77179 0
M  V30 6088 O 555.295 -1.4407 1.10061 0
M  V30 6089 C 555.343 1.21468 3.39526 0
M  V30 6090 O 554.447 0.356562 4.10856 0
M  V30 6091 H 553.788 0.29512 0.594811 0
M  V30 6092 H 556.318 1.42513 1.46804 0
M  V30 6093 H 556.328 1.18844 3.90308 0
M  V30 6094 H 555.003 2.26379 3.48891 0
M  V30 6095 H 553.58 0.444808 3.70238 0
M  V30 6096 N 555.766 -1.3263 0.851289 0
M  V30 6097 C 557.012 -1.9766 0.453694 0
M  V30 6098 C 557.345 -1.67225 -0.987396 0
M  V30 6099 O 556.62 -0.958693 -1.69232 0
M  V30 6100 C 556.903 -3.5344 0.68936 0
M  V30 6101 C 556.756 -3.93517 2.17862 0
M  V30 6102 C 558.075 -4.39866 0.143555 0
M  V30 6103 H 555.194 -0.717989 0.166314 0
M  V30 6104 H 557.836 -1.57068 1.06909 0
M  V30 6105 H 555.986 -3.88147 0.165546 0
M  V30 6106 H 557.658 -3.69006 2.76826 0
M  V30 6107 H 555.901 -3.42798 2.65841 0
M  V30 6108 H 556.572 -5.02065 2.29422 0
M  V30 6109 H 559.048 -4.11875 0.591451 0
M  V30 6110 H 557.924 -5.47858 0.338043 0
M  V30 6111 H 558.185 -4.31696 -0.953466 0
M  V30 6112 N 557.244 -0.608902 -1.45362 0
M  V30 6113 C 558.521 -0.0365378 -1.95566 0
M  V30 6114 C 558.901 1.43169 -1.55131 0
M  V30 6115 O 558.249 2.1349 -0.814513 0
M  V30 6116 C 558.459 -0.236026 -3.48201 0
M  V30 6117 C 559.807 -0.117518 -4.24437 0
M  V30 6118 O 560.831 -0.166217 -3.55812 0
M  V30 6119 O 559.69 -0.00372127 -5.465 0
M  V30 6120 H 556.784 0.0349874 -0.82626 0
M  V30 6121 H 559.33 -0.679055 -1.55521 0
M  V30 6122 H 558.102 -1.25569 -3.70605 0
M  V30 6123 H 557.725 0.441691 -3.95139 0
M  V30 6124 N 558.722 1.53707 -0.348139 0
M  V30 6125 C 560.133 1.86213 0.134797 0
M  V30 6126 C 560.484 1.26925 1.49614 0
M  V30 6127 O 559.609 0.584573 2.08355 0
M  V30 6128 C 560.204 3.37866 0.251371 0
M  V30 6129 C 558.763 3.70233 0.678543 0
M  V30 6130 C 557.91 2.76683 -0.184925 0
M  V30 6131 H 560.861 1.48204 -0.567571 0
M  V30 6132 H 560.882 3.64908 1.07806 0
M  V30 6133 H 560.394 3.80988 -0.739581 0
M  V30 6134 H 558.495 3.32659 1.67835 0
M  V30 6135 H 558.608 4.76836 0.465251 0
M  V30 6136 H 556.972 2.52374 0.343465 0
M  V30 6137 H 557.755 3.22635 -1.1731 0
M  V30 6138 N 560.2 0.0768682 1.57412 0
M  V30 6139 C 561.447 -0.591085 1.93681 0
M  V30 6140 C 561.775 -1.69311 0.957286 0
M  V30 6141 O 561.03 -1.95682 -0.0262428 0
M  V30 6142 C 561.329 -1.20268 3.36557 0
M  V30 6143 C 560.995 -0.226286 4.50332 0
M  V30 6144 C 559.657 0.0423142 4.81181 0
M  V30 6145 C 562.009 0.441415 5.19327 0
M  V30 6146 C 559.337 0.985616 5.78362 0
M  V30 6147 C 561.689 1.37307 6.17519 0
M  V30 6148 C 560.353 1.65009 6.46783 0
M  V30 6149 H 559.623 -0.216293 0.70873 0
M  V30 6150 H 562.27 0.148824 1.90921 0
M  V30 6151 H 560.575 -2.01844 3.35807 0
M  V30 6152 H 562.272 -1.72688 3.61911 0
M  V30 6153 H 558.862 -0.445821 4.26275 0
M  V30 6154 H 563.046 0.247023 4.95685 0
M  V30 6155 H 558.302 1.20743 5.99359 0
M  V30 6156 H 562.476 1.89637 6.70083 0
M  V30 6157 H 560.103 2.38263 7.21897 0
M  V30 6158 N 561.678 -1.56367 -0.196722 0
M  V30 6159 C 562.908 -1.84371 -0.932254 0
M  V30 6160 C 563.316 -0.657013 -1.77426 0
M  V30 6161 O 562.659 0.383576 -1.79651 0
M  V30 6162 C 562.721 -3.06454 -1.87952 0
M  V30 6163 C 562.385 -4.40425 -1.21962 0
M  V30 6164 C 563.382 -5.16457 -0.597343 0
M  V30 6165 C 561.067 -4.8716 -1.22396 0
M  V30 6166 C 563.061 -6.37399 0.0117913 0
M  V30 6167 C 560.748 -6.08038 -0.610995 0
M  V30 6168 C 561.746 -6.83 0.00580487 0
M  V30 6169 O 561.434 -8.01589 0.609173 0
M  V30 6170 H 561.166 -0.616377 -0.277589 0
M  V30 6171 H 563.72 -2.04329 -0.209452 0
M  V30 6172 H 561.95 -2.82377 -2.64197 0
M  V30 6173 H 563.639 -3.21118 -2.48271 0
M  V30 6174 H 564.405 -4.81445 -0.586142 0
M  V30 6175 H 560.284 -4.2877 -1.69345 0
M  V30 6176 H 563.828 -6.9585 0.493836 0
M  V30 6177 H 559.725 -6.42519 -0.619693 0
M  V30 6178 H 560.493 -8.16935 0.505919 0
M  V30 6179 N 563.156 0.464375 -1.50603 0
M  V30 6180 C 564.066 1.58723 -1.72754 0
M  V30 6181 C 565.082 1.62925 -0.610844 0
M  V30 6182 O 566.258 1.8067 -0.889963 0
M  V30 6183 C 563.323 2.94897 -1.82309 0
M  V30 6184 C 562.384 3.0103 -3.06071 0
M  V30 6185 C 561.617 4.30708 -3.1516 0
M  V30 6186 O 561.84 5.2159 -2.30868 0
M  V30 6187 O 560.774 4.42571 -4.0794 0
M  V30 6188 H 564.6 1.42954 -2.67951 0
M  V30 6189 H 562.185 0.644579 -1.3478 0
M  V30 6190 H 564.067 3.75764 -1.90735 0
M  V30 6191 H 562.742 3.10851 -0.902967 0
M  V30 6192 H 561.649 2.19217 -3.03142 0
M  V30 6193 H 562.982 2.90014 -3.97684 0
M  V30 6194 N 564.634 1.40294 0.718013 0
M  V30 6195 C 565.567 1.34767 1.84155 0
M  V30 6196 C 566.545 0.218455 1.61126 0
M  V30 6197 O 567.729 0.401716 1.8417 0
M  V30 6198 C 564.856 1.09676 3.20451 0
M  V30 6199 C 563.902 2.25016 3.62312 0
M  V30 6200 S 564.735 3.87397 3.69707 0
M  V30 6201 C 565.891 3.64565 5.08766 0
M  V30 6202 H 566.124 2.29851 1.88562 0
M  V30 6203 H 563.657 1.2655 0.884555 0
M  V30 6204 H 565.615 0.95885 3.99144 0
M  V30 6205 H 564.276 0.162502 3.13679 0
M  V30 6206 H 563.469 2.03097 4.61268 0
M  V30 6207 H 563.071 2.35098 2.90869 0
M  V30 6208 H 565.363 3.22882 5.95612 0
M  V30 6209 H 566.306 4.63043 5.35721 0
M  V30 6210 H 566.714 2.98303 4.79245 0
M  V30 6211 N 566.112 -0.949982 1.2575 0
M  V30 6212 C 567.042 -2.06483 1.09028 0
M  V30 6213 C 568.023 -1.701 -0.00201532 0
M  V30 6214 O 569.208 -1.93469 0.168383 0
M  V30 6215 C 566.338 -3.39899 0.71316 0
M  V30 6216 C 565.292 -3.90309 1.75621 0
M  V30 6217 C 564.618 -5.20274 1.23365 0
M  V30 6218 C 565.918 -4.16169 3.15596 0
M  V30 6219 H 567.612 -2.20731 2.02283 0
M  V30 6220 H 565.158 -1.06066 0.973964 0
M  V30 6221 H 567.111 -4.17346 0.58309 0
M  V30 6222 H 565.835 -3.25602 -0.255091 0
M  V30 6223 H 564.494 -3.15035 1.8748 0
M  V30 6224 H 564.142 -5.02351 0.255491 0
M  V30 6225 H 563.842 -5.54971 1.93082 0
M  V30 6226 H 565.366 -6.00314 1.11607 0
M  V30 6227 H 566.78 -4.84259 3.06864 0
M  V30 6228 H 565.177 -4.62131 3.82825 0
M  V30 6229 H 566.247 -3.22273 3.6231 0
M  V30 6230 N 567.59 -1.07411 -1.15328 0
M  V30 6231 C 568.553 -0.698914 -2.18284 0
M  V30 6232 C 569.553 0.261149 -1.58665 0
M  V30 6233 O 570.743 0.0420277 -1.74149 0
M  V30 6234 C 567.875 -0.0302427 -3.40887 0
M  V30 6235 H 569.068 -1.61045 -2.52991 0
M  V30 6236 H 566.621 -0.870724 -1.298 0
M  V30 6237 H 567.356 0.893505 -3.11748 0
M  V30 6238 H 567.141 -0.720759 -3.85419 0
M  V30 6239 H 568.631 0.21759 -4.17033 0
M  V30 6240 N 569.068 1.32177 -0.85831 0
M  V30 6241 C 570.031 2.27086 -0.310588 0
M  V30 6242 C 571.031 1.51751 0.531806 0
M  V30 6243 O 572.221 1.70794 0.34279 0
M  V30 6244 C 569.353 3.36266 0.560179 0
M  V30 6245 H 570.546 2.77045 -1.1483 0
M  V30 6246 H 568.099 1.42911 -0.632942 0
M  V30 6247 H 568.834 2.9158 1.41956 0
M  V30 6248 H 568.619 3.92077 -0.0428473 0
M  V30 6249 H 570.109 4.06974 0.936056 0
M  V30 6250 N 570.547 0.616602 1.45037 0
M  V30 6251 C 571.963 0.280994 1.57107 0
M  V30 6252 C 572.163 -1.21627 1.60653 0
M  V30 6253 O 571.219 -1.9997 1.54169 0
M  V30 6254 C 572.532 0.960116 2.8496 0
M  V30 6255 C 574.08 0.936884 2.98649 0
M  V30 6256 C 574.555 1.59619 4.29285 0
M  V30 6257 N 576.046 1.5621 4.36065 0
M  V30 6258 C 576.781 2.04131 5.35834 0
M  V30 6259 N 576.277 2.60177 6.4209 0
M  V30 6260 N 578.07 1.94845 5.27249 0
M  V30 6261 H 570.221 1.58867 1.40979 0
M  V30 6262 H 572.484 0.666024 0.674623 0
M  V30 6263 H 572.19 2.01473 2.88273 0
M  V30 6264 H 572.064 0.488921 3.74018 0
M  V30 6265 H 574.451 -0.109209 2.94898 0
M  V30 6266 H 574.532 1.44643 2.10979 0
M  V30 6267 H 574.176 2.64166 4.33796 0
M  V30 6268 H 574.106 1.06159 5.15789 0
M  V30 6269 H 576.597 1.15276 3.59889 0
M  V30 6270 H 576.91 2.94513 7.1448 0
M  V30 6271 H 575.255 2.64221 6.42816 0
M  V30 6272 H 578.446 1.50792 4.43147 0
M  V30 6273 H 578.619 2.32504 6.04852 0
M  V30 6274 N 572.025 -1.5352 0.356285 0
M  V30 6275 C 572.972 -2.25439 -0.494569 0
M  V30 6276 C 573.942 -1.25752 -1.08516 0
M  V30 6277 O 575.127 -1.54513 -1.1194 0
M  V30 6278 C 572.267 -3.04011 -1.63313 0
M  V30 6279 C 571.38 -4.18574 -1.06862 0
M  V30 6280 C 570.515 -4.84607 -2.17552 0
M  V30 6281 C 569.554 -5.91218 -1.58518 0
M  V30 6282 N 568.691 -6.50979 -2.63003 0
M  V30 6283 H 573.531 -2.97737 0.125244 0
M  V30 6284 H 571.068 -1.46916 0.0735789 0
M  V30 6285 H 573.026 -3.47834 -2.30363 0
M  V30 6286 H 571.656 -2.33986 -2.22374 0
M  V30 6287 H 570.708 -3.79303 -0.288672 0
M  V30 6288 H 572.02 -4.95215 -0.596924 0
M  V30 6289 H 571.174 -5.31566 -2.92442 0
M  V30 6290 H 569.913 -4.07418 -2.6807 0
M  V30 6291 H 568.918 -5.4363 -0.821391 0
M  V30 6292 H 570.143 -6.70322 -1.08836 0
M  V30 6293 H 568.089 -5.76648 -3.12751 0
M  V30 6294 H 568.006 -7.23131 -2.20493 0
M  V30 6295 H 569.274 -7.02589 -3.37623 0
M  V30 6296 N 573.503 -0.0852151 -1.57369 0
M  V30 6297 C 574.45 0.877268 -2.13478 0
M  V30 6298 C 575.42 1.28642 -1.05073 0
M  V30 6299 O 576.605 1.36992 -1.32808 0
M  V30 6300 C 573.745 2.13464 -2.71159 0
M  V30 6301 C 572.858 1.77691 -3.93764 0
M  V30 6302 C 571.993 2.98139 -4.39643 0
M  V30 6303 C 571.032 2.58447 -5.54862 0
M  V30 6304 N 570.169 3.71698 -5.95639 0
M  V30 6305 H 575.009 0.391933 -2.95411 0
M  V30 6306 H 572.546 0.181796 -1.45972 0
M  V30 6307 H 574.504 2.87086 -3.02717 0
M  V30 6308 H 573.134 2.59514 -1.91969 0
M  V30 6309 H 572.186 0.940768 -3.68583 0
M  V30 6310 H 573.498 1.44497 -4.77412 0
M  V30 6311 H 572.652 3.80026 -4.72933 0
M  V30 6312 H 571.391 3.34536 -3.54876 0
M  V30 6313 H 570.396 1.74984 -5.21211 0
M  V30 6314 H 571.621 2.23205 -6.41371 0
M  V30 6315 H 569.567 4.07831 -5.13819 0
M  V30 6316 H 569.484 3.42317 -6.74059 0
M  V30 6317 H 570.752 4.54123 -6.33555 0
M  V30 6318 N 574.981 1.5647 0.188427 0
M  V30 6319 C 576.397 1.50204 0.539532 0
M  V30 6320 C 576.597 0.78644 1.85519 0
M  V30 6321 O 575.653 0.339714 2.50204 0
M  V30 6322 C 576.966 2.94893 0.588103 0
M  V30 6323 C 578.514 3.05602 0.67648 0
M  V30 6324 C 578.989 4.51716 0.756101 0
M  V30 6325 N 580.48 4.55894 0.819451 0
M  V30 6326 C 581.215 5.66272 0.90134 0
M  V30 6327 N 580.711 6.86323 0.945118 0
M  V30 6328 N 582.504 5.54201 0.939043 0
M  V30 6329 H 574.655 2.01406 -0.674493 0
M  V30 6330 H 576.918 0.916828 -0.241103 0
M  V30 6331 H 576.624 3.50334 -0.309633 0
M  V30 6332 H 576.498 3.4861 1.44051 0
M  V30 6333 H 578.885 2.50206 1.56465 0
M  V30 6334 H 578.966 2.54999 -0.202262 0
M  V30 6335 H 578.61 5.07739 -0.12774 0
M  V30 6336 H 578.54 5.00058 1.65074 0
M  V30 6337 H 581.031 3.69452 0.794594 0
M  V30 6338 H 581.344 7.66194 1.0083 0
M  V30 6339 H 579.689 6.88968 0.913683 0
M  V30 6340 H 582.88 4.59333 0.901725 0
M  V30 6341 H 583.053 6.40247 0.999402 0
M  V30 6342 N 576.459 -0.456382 1.50847 0
M  V30 6343 C 577.708 -1.2042 1.61808 0
M  V30 6344 C 578.021 -1.9278 0.330932 0
M  V30 6345 O 579.227 -2.69612 0.319643 0
M  V30 6346 C 577.683 -2.18891 2.85683 0
M  V30 6347 C 577.291 -1.52267 4.2133 0
M  V30 6348 C 579.035 -2.94224 3.05994 0
M  V30 6349 C 576.942 -2.4911 5.36375 0
M  V30 6350 H 575.872 -0.453177 0.602616 0
M  V30 6351 H 578.523 -0.473144 1.77295 0
M  V30 6352 H 576.905 -2.95351 2.63787 0
M  V30 6353 H 578.079 -0.814949 4.53536 0
M  V30 6354 H 576.394 -0.891594 4.06743 0
M  V30 6355 H 578.991 -3.66732 3.89117 0
M  V30 6356 H 579.334 -3.54469 2.18306 0
M  V30 6357 H 579.867 -2.24874 3.28141 0
M  V30 6358 H 576.606 -1.93582 6.26264 0
M  V30 6359 H 576.126 -3.17991 5.08569 0
M  V30 6360 H 577.805 -3.10637 5.67551 0
M  V30 6361 N 577.937 -1.40673 -0.710563 0
M  V30 6362 C 579.162 -1.42741 -1.50465 0
M  V30 6363 C 579.587 -0.0302116 -1.88076 0
M  V30 6364 O 578.945 0.962945 -1.53613 0
M  V30 6365 C 578.993 -2.32873 -2.75322 0
M  V30 6366 O 578.097 -1.77544 -3.72226 0
M  V30 6367 H 577.438 -0.485056 -0.45345 0
M  V30 6368 H 579.968 -1.84961 -0.874681 0
M  V30 6369 H 579.978 -2.48233 -3.23797 0
M  V30 6370 H 578.653 -3.34401 -2.47283 0
M  V30 6371 H 577.23 -1.71556 -3.31093 0
M  V30 6372 N 579.415 0.9433 -1.26252 0
M  V30 6373 C 580.661 1.69175 -1.11837 0
M  V30 6374 C 580.994 1.91238 0.337891 0
M  V30 6375 O 580.269 1.49152 1.24836 0
M  V30 6376 C 580.552 3.06783 -1.88563 0
M  V30 6377 C 580.405 2.9206 -3.42083 0
M  V30 6378 C 581.724 4.06865 -1.67776 0
M  V30 6379 H 578.843 0.61399 -0.407658 0
M  V30 6380 H 581.485 1.09572 -1.55222 0
M  V30 6381 H 579.635 3.57663 -1.51689 0
M  V30 6382 H 581.307 2.48419 -3.88698 0
M  V30 6383 H 579.55 2.27731 -3.69217 0
M  V30 6384 H 580.221 3.89651 -3.90994 0
M  V30 6385 H 582.697 3.64939 -1.99897 0
M  V30 6386 H 581.573 5.01168 -2.23879 0
M  V30 6387 H 581.834 4.37705 -0.621816 0
M  V30 6388 N 580.893 1.08022 1.14757 0
M  V30 6389 C 581.84 0.706657 2.19716 0
M  V30 6390 C 582.81 -0.30525 1.63271 0
M  V30 6391 O 583.995 -0.19015 1.8985 0
M  V30 6392 C 581.135 0.117914 3.44898 0
M  V30 6393 C 580.248 1.18212 4.15512 0
M  V30 6394 C 579.383 0.557659 5.28265 0
M  V30 6395 C 578.422 1.60418 5.90705 0
M  V30 6396 N 577.559 1.0018 6.94916 0
M  V30 6397 H 582.399 1.60603 2.51019 0
M  V30 6398 H 579.936 0.802664 1.23271 0
M  V30 6399 H 581.894 -0.241112 4.16503 0
M  V30 6400 H 580.524 -0.744788 3.1409 0
M  V30 6401 H 579.576 1.65863 3.42335 0
M  V30 6402 H 580.888 1.97533 4.5802 0
M  V30 6403 H 580.042 0.146654 6.06523 0
M  V30 6404 H 578.781 -0.267249 4.86967 0
M  V30 6405 H 577.786 2.02489 5.11154 0
M  V30 6406 H 579.011 2.43149 6.34078 0
M  V30 6407 H 576.957 0.197917 6.55701 0
M  V30 6408 H 576.874 1.73216 7.35889 0
M  V30 6409 H 578.142 0.616523 7.77058 0
M  V30 6410 N 582.371 -1.3172 0.865308 0
M  V30 6411 C 583.318 -2.2863 0.315736 0
M  V30 6412 C 584.288 -1.55524 -0.583213 0
M  V30 6413 O 585.473 -1.83694 -0.51585 0
M  V30 6414 C 582.613 -3.41735 -0.480773 0
M  V30 6415 C 581.726 -4.297 0.445167 0
M  V30 6416 C 580.861 -5.29944 -0.365012 0
M  V30 6417 C 579.9 -6.09554 0.557651 0
M  V30 6418 N 579.037 -7.01768 -0.215994 0
M  V30 6419 H 583.877 -2.75026 1.14736 0
M  V30 6420 H 581.414 -1.35302 0.577209 0
M  V30 6421 H 583.372 -4.06045 -0.958306 0
M  V30 6422 H 582.002 -2.96461 -1.27714 0
M  V30 6423 H 581.054 -3.65875 1.04113 0
M  V30 6424 H 582.366 -4.85295 1.15284 0
M  V30 6425 H 581.52 -5.99908 -0.905255 0
M  V30 6426 H 580.259 -4.74994 -1.106 0
M  V30 6427 H 579.264 -5.38485 1.10969 0
M  V30 6428 H 580.489 -6.66591 1.29742 0
M  V30 6429 H 578.435 -6.49232 -0.939878 0
M  V30 6430 H 578.352 -7.54762 0.432431 0
M  V30 6431 H 579.62 -7.76002 -0.737618 0
M  V30 6432 N 583.85 -0.624285 -1.44708 0
M  V30 6433 C 584.797 0.0847135 -2.30644 0
M  V30 6434 C 585.767 0.843575 -1.43084 0
M  V30 6435 O 586.952 0.825982 -1.71995 0
M  V30 6436 C 584.091 1.06495 -3.28257 0
M  V30 6437 C 583.205 0.305224 -4.3092 0
M  V30 6438 C 582.34 1.27667 -5.1563 0
M  V30 6439 C 581.379 0.505706 -6.10007 0
M  V30 6440 N 580.516 1.42727 -6.8744 0
M  V30 6441 H 585.356 -0.654068 -2.90733 0
M  V30 6442 H 582.893 -0.334334 -1.4325 0
M  V30 6443 H 584.851 1.64658 -3.83332 0
M  V30 6444 H 583.481 1.77094 -2.69884 0
M  V30 6445 H 582.533 -0.392207 -3.78373 0
M  V30 6446 H 583.845 -0.295553 -4.97924 0
M  V30 6447 H 582.999 1.92984 -5.75189 0
M  V30 6448 H 581.738 1.91137 -4.48685 0
M  V30 6449 H 580.743 -0.160999 -5.49564 0
M  V30 6450 H 581.968 -0.124183 -6.78986 0
M  V30 6451 H 579.913 2.04931 -6.23169 0
M  V30 6452 H 579.831 0.880345 -7.50857 0
M  V30 6453 H 581.099 2.0695 -7.51526 0
M  V30 6454 N 585.328 1.53329 -0.364422 0
M  V30 6455 C 586.26 2.23286 0.517293 0
M  V30 6456 C 587.273 1.24657 1.04711 0
M  V30 6457 O 588.462 1.50887 0.95369 0
M  V30 6458 C 585.562 2.91604 1.72685 0
M  V30 6459 C 584.735 4.1673 1.32873 0
M  V30 6460 C 583.794 4.68269 2.40022 0
M  V30 6461 O 582.82 5.31976 2.02461 0
M  V30 6462 N 584.022 4.45983 3.7159 0
M  V30 6463 H 586.787 2.99588 -0.0819391 0
M  V30 6464 H 584.348 1.60787 -0.189544 0
M  V30 6465 H 586.34 3.22992 2.4384 0
M  V30 6466 H 584.91 2.18763 2.23297 0
M  V30 6467 H 584.13 3.91657 0.447069 0
M  V30 6468 H 585.418 4.98078 1.03902 0
M  V30 6469 H 584.816 3.95077 4.04883 0
M  V30 6470 H 583.373 4.81924 4.38854 0
M  V30 6471 N 586.806 0.0935595 1.57322 0
M  V30 6472 C 587.716 -0.880192 2.17462 0
M  V30 6473 C 588.732 -1.31135 1.14366 0
M  V30 6474 O 589.908 -1.37958 1.46729 0
M  V30 6475 C 586.973 -2.12184 2.74188 0
M  V30 6476 C 586.034 -1.74503 3.92234 0
M  V30 6477 C 585.267 -2.92748 4.46245 0
M  V30 6478 O 585.49 -4.07427 3.99198 0
M  V30 6479 O 584.424 -2.71303 5.37288 0
M  V30 6480 H 588.25 -0.398516 3.01074 0
M  V30 6481 H 585.835 -0.130707 1.48827 0
M  V30 6482 H 587.717 -2.84953 3.10451 0
M  V30 6483 H 586.392 -2.59407 1.93623 0
M  V30 6484 H 585.299 -0.989186 3.60785 0
M  V30 6485 H 586.632 -1.32044 4.74157 0
M  V30 6486 N 588.284 -1.56567 -0.180126 0
M  V30 6487 C 589.216 -1.92275 -1.24751 0
M  V30 6488 C 590.229 -0.814922 -1.40936 0
M  V30 6489 O 591.418 -1.09336 -1.41095 0
M  V30 6490 C 588.518 -2.15265 -2.61752 0
M  V30 6491 C 587.691 -3.46467 -2.66981 0
M  V30 6492 C 586.75 -3.58391 -3.85283 0
M  V30 6493 O 585.776 -4.31086 -3.7169 0
M  V30 6494 N 586.978 -2.92587 -5.01371 0
M  V30 6495 H 589.743 -2.84435 -0.944302 0
M  V30 6496 H 587.304 -1.57617 -0.369952 0
M  V30 6497 H 589.296 -2.20515 -3.39345 0
M  V30 6498 H 587.866 -1.29533 -2.845 0
M  V30 6499 H 587.086 -3.52953 -1.75549 0
M  V30 6500 H 588.374 -4.32819 -2.67479 0
M  V30 6501 H 587.772 -2.3338 -5.15316 0
M  V30 6502 H 586.329 -3.03444 -5.76858 0
M  V30 6503 N 589.762 0.448376 -1.51087 0
M  V30 6504 C 591.173 1.0286 -1.5581 0
M  V30 6505 C 591.524 1.92583 -0.374989 0
M  V30 6506 O 590.649 2.10316 0.509533 0
M  V30 6507 C 591.244 1.87223 -2.8237 0
M  V30 6508 C 589.803 2.40314 -2.897 0
M  V30 6509 C 588.95 1.19238 -2.50355 0
M  V30 6510 H 591.901 0.230075 -1.57023 0
M  V30 6511 H 591.922 2.72553 -2.6551 0
M  V30 6512 H 591.434 1.21894 -3.68461 0
M  V30 6513 H 589.535 3.09129 -2.08014 0
M  V30 6514 H 589.648 2.73866 -3.93108 0
M  V30 6515 H 588.012 1.53428 -2.03303 0
M  V30 6516 H 588.795 0.555367 -3.38778 0
M  V30 6517 O 591.279 1.50177 0.59407 0
M  V30 6518 H 591.97 1.48064 1.24887 0
M  V30 END ATOM
M  V30 BEGIN BOND
M  V30 END BOND
M  V30 END CTAB
M  END
$$$$
