drugbank_target|P08217 Chymotrypsin-like elastase family member 2A (DB06901)
 OpenBabel12092120383D

  0  0  0     0  0            999 V3000
M  V30 BEGIN CTAB
M  V30 COUNTS 4023 4075 0 0 0
M  V30 BEGIN ATOM
M  V30 1 H -0.908 1.98254 -0.117106 0
M  V30 2 N 0 1.576 0 0
M  V30 3 C 0.933 2.03868 1.02534 0
M  V30 4 C 1.911 0.928543 1.3348 0
M  V30 5 O 3.095 1.19667 1.45644 0
M  V30 6 C 0.222 2.43627 2.35294 0
M  V30 7 C -0.732 3.65373 2.2001 0
M  V30 8 S 0.101 5.13292 1.52614 0
M  V30 9 C 1.257 5.56322 2.86805 0
M  V30 10 H 1.49 2.90518 0.631377 0
M  V30 11 H -0.977 1.52953 0.210867 0
M  V30 12 H 0.981 2.67203 3.11629 0
M  V30 13 H -0.358 1.57376 2.7183 0
M  V30 14 H -1.165 3.90944 3.18086 0
M  V30 15 H -1.563 3.418 1.51819 0
M  V30 16 H 0.729 5.58782 3.83104 0
M  V30 17 H 1.672 6.56266 2.65933 0
M  V30 18 H 2.08 4.83886 2.90714 0
M  V30 19 N 1.4781 -0.272755 1.55222 0
M  V30 20 C 2.7271 -1.00211 1.75045 0
M  V30 21 C 3.0401 -1.87441 0.559046 0
M  V30 22 O 4.2461 -2.63856 0.639698 0
M  V30 23 C 2.7021 -1.83165 3.09804 0
M  V30 24 C 2.3101 -1.008 4.36513 0
M  V30 25 C 4.0541 -2.55529 3.38977 0
M  V30 26 C 1.9611 -1.83194 5.62311 0
M  V30 27 H 0.8911 -0.377878 0.652476 0
M  V30 28 H 3.5421 -0.257776 1.8168 0
M  V30 29 H 1.9241 -2.61694 2.97207 0
M  V30 30 H 3.0981 -0.266855 4.60027 0
M  V30 31 H 1.4131 -0.398897 4.14485 0
M  V30 32 H 4.0101 -3.17578 4.30172 0
M  V30 33 H 4.3531 -3.25825 2.59121 0
M  V30 34 H 4.8861 -1.84029 3.52673 0
M  V30 35 H 1.6251 -1.17318 6.44916 0
M  V30 36 H 1.1451 -2.54905 5.4294 0
M  V30 37 H 2.8241 -2.40552 6.00619 0
M  V30 38 N 2.9562 -1.48159 -0.537278 0
M  V30 39 C 4.3722 -1.34118 -0.865129 0
M  V30 40 C 4.5722 -0.346678 -1.98495 0
M  V30 41 O 3.6282 0.234715 -2.51407 0
M  V30 42 C 4.9412 -2.73963 -1.23954 0
M  V30 43 C 6.4892 -2.82397 -1.34984 0
M  V30 44 C 6.9642 -4.22928 -1.75772 0
M  V30 45 N 8.4552 -4.25566 -1.82887 0
M  V30 46 C 9.1902 -5.31235 -2.15817 0
M  V30 47 N 8.6862 -6.47189 -2.47222 0
M  V30 48 N 10.4792 -5.18624 -2.16761 0
M  V30 49 H 2.6302 -2.1144 0.201715 0
M  V30 50 H 4.8932 -0.947598 0.0275949 0
M  V30 51 H 4.5992 -3.48264 -0.490381 0
M  V30 52 H 4.4732 -3.0702 -2.19132 0
M  V30 53 H 6.8602 -2.08356 -2.08978 0
M  V30 54 H 6.9412 -2.5297 -0.379448 0
M  V30 55 H 6.5852 -4.97482 -1.02341 0
M  V30 56 H 6.5152 -4.49794 -2.73848 0
M  V30 57 H 9.0062 -3.41924 -1.60924 0
M  V30 58 H 9.3192 -7.23564 -2.71433 0
M  V30 59 H 7.6642 -6.50476 -2.44757 0
M  V30 60 H 10.8552 -4.27056 -1.91679 0
M  V30 61 H 11.0282 -6.01078 -2.42093 0
M  V30 62 N 4.4343 0.785586 -1.36625 0
M  V30 63 C 5.6623 1.57448 -1.3423 0
M  V30 64 C 6.0773 1.88649 0.0755653 0
M  V30 65 O 5.4343 1.50414 1.03354 0
M  V30 66 C 5.4853 2.89316 -2.16745 0
M  V30 67 O 5.2063 2.59459 -3.53005 0
M  V30 68 C 6.7073 3.83606 -2.22174 0
M  V30 69 H 3.9273 0.488226 -0.4603 0
M  V30 70 H 6.4713 0.974733 -1.79775 0
M  V30 71 H 4.6263 3.4575 -1.74745 0
M  V30 72 H 5.0403 3.43804 -3.96105 0
M  V30 73 H 6.5143 4.73181 -2.8426 0
M  V30 74 H 6.9913 4.21734 -1.22627 0
M  V30 75 H 7.5973 3.33104 -2.64427 0
M  V30 76 N 5.9124 1.20967 1.01018 0
M  V30 77 C 6.8424 0.988272 2.11555 0
M  V30 78 C 7.8234 -0.0849778 1.69888 0
M  V30 79 O 9.0084 0.0738202 1.9406 0
M  V30 80 C 6.1384 0.546528 3.42973 0
M  V30 81 C 5.0924 1.56375 3.9841 0
M  V30 82 C 4.4184 0.97842 5.25672 0
M  V30 83 C 5.7184 2.94922 4.31066 0
M  V30 84 H 7.4124 1.91276 2.30334 0
M  V30 85 H 4.9584 0.921073 1.1069 0
M  V30 86 H 6.9114 0.378839 4.19694 0
M  V30 87 H 5.6354 -0.413598 3.23971 0
M  V30 88 H 4.2944 1.71891 3.23804 0
M  V30 89 H 3.9424 0.0101688 5.02999 0
M  V30 90 H 3.6424 1.65784 5.63728 0
M  V30 91 H 5.1664 0.821939 6.05043 0
M  V30 92 H 6.5804 2.8288 4.9865 0
M  V30 93 H 4.9774 3.5983 4.80253 0
M  V30 94 H 6.0474 3.4616 3.39561 0
M  V30 95 N 7.3905 -1.2043 1.01659 0
M  V30 96 C 8.3205 -2.25466 0.607226 0
M  V30 97 C 9.3015 -1.65853 -0.377716 0
M  V30 98 O 10.4865 -1.92409 -0.263149 0
M  V30 99 C 7.6165 -3.47256 -0.0552949 0
M  V30 100 C 6.5705 -4.19462 0.850632 0
M  V30 101 C 5.8965 -5.34673 0.0538859 0
M  V30 102 C 7.1965 -4.75603 2.15868 0
M  V30 103 H 8.8905 -2.59962 1.48526 0
M  V30 104 H 6.4365 -1.2496 0.715605 0
M  V30 105 H 8.3895 -4.19917 -0.353233 0
M  V30 106 H 7.1135 -3.11924 -0.968045 0
M  V30 107 H 5.7725 -3.48667 1.13257 0
M  V30 108 H 5.4205 -4.95585 -0.860514 0
M  V30 109 H 5.1205 -5.83913 0.657192 0
M  V30 110 H 6.6445 -6.10138 -0.237598 0
M  V30 111 H 8.0585 -5.40083 1.92311 0
M  V30 112 H 6.4555 -5.3528 2.71284 0
M  V30 113 H 7.5255 -3.94346 2.82169 0
M  V30 114 N 8.8686 -0.792821 -1.36206 0
M  V30 115 C 9.7986 -0.207853 -2.32573 0
M  V30 116 C 10.7796 0.659055 -1.56813 0
M  V30 117 O 11.9646 0.592176 -1.84951 0
M  V30 118 C 9.0946 0.655449 -3.41059 0
M  V30 119 C 8.0486 -0.111842 -4.27854 0
M  V30 120 C 7.3746 0.872274 -5.27537 0
M  V30 121 C 8.6746 -1.30299 -5.05786 0
M  V30 122 H 10.3686 -1.01294 -2.81744 0
M  V30 123 H 7.9146 -0.48854 -1.3546 0
M  V30 124 H 9.8676 1.07464 -4.07467 0
M  V30 125 H 8.5916 1.49328 -2.90463 0
M  V30 126 H 7.2506 -0.512053 -3.63006 0
M  V30 127 H 6.8986 1.70523 -4.73214 0
M  V30 128 H 6.5986 0.363291 -5.86476 0
M  V30 129 H 8.1226 1.28996 -5.96818 0
M  V30 130 H 9.5366 -0.959379 -5.65216 0
M  V30 131 H 7.9336 -1.7455 -5.74154 0
M  V30 132 H 9.0036 -2.09663 -4.37229 0
M  V30 133 N 10.3467 1.47872 -0.545128 0
M  V30 134 C 11.5717 2.07391 -0.0190611 0
M  V30 135 C 11.9967 1.39688 1.25971 0
M  V30 136 O 11.3547 0.467816 1.7516 0
M  V30 137 C 11.4027 3.60188 0.172335 0
M  V30 138 O 10.5067 3.9339 1.23766 0
M  V30 139 H 9.8477 0.662411 -0.0459059 0
M  V30 140 H 12.3777 1.90066 -0.757365 0
M  V30 141 H 12.3877 4.06129 0.390305 0
M  V30 142 H 11.0627 4.08865 -0.761725 0
M  V30 143 H 9.6397 3.5921 1.00114 0
M  V30 144 N 11.8248 0.280983 1.55075 0
M  V30 145 C 13.0528 -0.337293 2.04132 0
M  V30 146 C 13.4678 -1.4903 1.15912 0
M  V30 147 O 12.8248 -1.81606 0.180459 0
M  V30 148 C 12.8758 -0.812706 3.52246 0
M  V30 149 O 12.5968 0.294387 4.3711 0
M  V30 150 C 14.0978 -1.4982 4.17216 0
M  V30 151 H 11.3178 -0.0761638 0.666663 0
M  V30 152 H 13.8618 0.414787 2.00249 0
M  V30 153 H 12.0168 -1.51486 3.56554 0
M  V30 154 H 12.4308 -0.0721325 5.2445 0
M  V30 155 H 13.9048 -1.7822 5.22438 0
M  V30 156 H 14.3818 -2.43168 3.65741 0
M  V30 157 H 14.9878 -0.839742 4.16927 0
M  V30 158 N 13.3029 -1.57598 0.00835791 0
M  V30 159 C 14.2329 -2.1198 -0.979113 0
M  V30 160 C 15.2139 -1.03091 -1.35301 0
M  V30 161 O 16.3989 -1.30818 -1.43528 0
M  V30 162 C 13.5289 -2.62995 -2.26828 0
M  V30 163 C 12.4829 -3.76485 -2.03576 0
M  V30 164 C 11.8089 -4.13846 -3.38579 0
M  V30 165 C 13.1089 -5.0342 -1.39161 0
M  V30 166 H 14.8029 -2.94738 -0.526281 0
M  V30 167 H 12.3489 -1.41783 -0.251704 0
M  V30 168 H 14.3019 -2.99669 -2.96271 0
M  V30 169 H 13.0259 -1.7737 -2.7424 0
M  V30 170 H 11.6849 -3.40217 -1.36557 0
M  V30 171 H 11.3329 -3.25232 -3.83709 0
M  V30 172 H 11.0329 -4.90312 -3.23834 0
M  V30 173 H 12.5569 -4.53086 -4.09323 0
M  V30 174 H 13.9709 -5.37812 -1.98573 0
M  V30 175 H 12.3679 -5.84746 -1.34878 0
M  V30 176 H 13.4379 -4.83548 -0.361868 0
M  V30 177 N 14.781 0.264519 -1.55364 0
M  V30 178 C 16.027 0.99646 -1.76631 0
M  V30 179 C 16.36 1.85632 -0.570478 0
M  V30 180 O 15.635 1.89647 0.43175 0
M  V30 181 C 15.918 1.87187 -3.07625 0
M  V30 182 C 15.771 1.04138 -4.37579 0
M  V30 183 C 17.09 2.85749 -3.34717 0
M  V30 184 H 14.209 0.360841 -0.642622 0
M  V30 185 H 16.851 0.268218 -1.88097 0
M  V30 186 H 15.001 2.49279 -2.9798 0
M  V30 187 H 16.673 0.440517 -4.59192 0
M  V30 188 H 14.916 0.345115 -4.32425 0
M  V30 189 H 15.587 1.68729 -5.2558 0
M  V30 190 H 18.063 2.33793 -3.4421 0
M  V30 191 H 16.939 3.44136 -4.27623 0
M  V30 192 H 17.2 3.61311 -2.54768 0
M  V30 193 N 16.2591 1.48442 0.529413 0
M  V30 194 C 17.2221 1.62524 1.61612 0
M  V30 195 C 18.2221 0.498509 1.52877 0
M  V30 196 O 19.4121 0.76431 1.56537 0
M  V30 197 C 16.5441 1.59597 3.01233 0
M  V30 198 H 17.7371 2.59423 1.50465 0
M  V30 199 H 15.2901 1.37047 0.751514 0
M  V30 200 H 16.0251 0.641781 3.17886 0
M  V30 201 H 15.8101 2.41397 3.08982 0
M  V30 202 H 17.3001 1.72646 3.80241 0
M  V30 203 N 17.7372 -0.778329 1.37039 0
M  V30 204 C 18.9852 -1.53361 1.31623 0
M  V30 205 C 19.3062 -1.94739 -0.100831 0
M  V30 206 O 18.5762 -1.65797 -1.04347 0
M  V30 207 H 17.1562 -0.568794 0.484234 0
M  V30 208 H 19.8182 -0.926742 1.71457 0
M  V30 209 H 18.9142 -2.43606 1.95096 0
M  V30 210 N 19.2153 -1.21501 -1.00376 0
M  V30 211 C 20.1783 -0.976927 -2.07337 0
M  V30 212 C 21.1783 0.0525322 -1.60714 0
M  V30 213 O 22.3683 -0.184869 -1.73216 0
M  V30 214 C 19.5003 -0.473423 -3.37597 0
M  V30 215 H 20.6933 -1.92587 -2.29892 0
M  V30 216 H 18.2463 -1.03217 -1.17371 0
M  V30 217 H 18.9813 0.480379 -3.20722 0
M  V30 218 H 18.7663 -1.216 -3.72768 0
M  V30 219 H 20.2563 -0.32675 -4.1632 0
M  V30 220 N 20.6934 1.19889 -1.02296 0
M  V30 221 C 21.6234 2.25141 -0.619174 0
M  V30 222 C 22.6044 1.66051 0.368915 0
M  V30 223 O 23.7894 1.92546 0.252941 0
M  V30 224 C 20.9194 3.4728 0.0368783 0
M  V30 225 C 19.8734 4.19005 -0.872865 0
M  V30 226 C 19.1994 5.34637 -0.0822402 0
M  V30 227 C 20.4994 4.74452 -2.18387 0
M  V30 228 H 22.1934 2.59171 -1.49903 0
M  V30 229 H 19.7394 1.24579 -0.722222 0
M  V30 230 H 21.6924 4.20098 0.330958 0
M  V30 231 H 20.4164 3.12433 0.95149 0
M  V30 232 H 19.0754 3.48061 -1.15105 0
M  V30 233 H 18.7234 4.96034 0.83422 0
M  V30 234 H 18.4234 5.83557 -0.688149 0
M  V30 235 H 19.9474 6.10255 0.205238 0
M  V30 236 H 21.3614 5.39055 -1.95172 0
M  V30 237 H 19.7584 5.33834 -2.74119 0
M  V30 238 H 20.8284 3.92844 -2.84257 0
M  V30 239 N 22.1715 0.800033 1.35784 0
M  V30 240 C 23.3965 0.388511 2.03729 0
M  V30 241 C 23.8215 -0.990481 1.5991 0
M  V30 242 O 23.1795 -1.64013 0.772612 0
M  V30 243 C 23.2275 0.4726 3.5749 0
M  V30 244 O 22.3315 -0.51646 4.09153 0
M  V30 245 H 21.6725 0.163271 0.643614 0
M  V30 246 H 24.2025 1.0841 1.73518 0
M  V30 247 H 24.2125 0.34003 4.06581 0
M  V30 248 H 22.8875 1.47848 3.88734 0
M  V30 249 H 21.4645 -0.344673 3.71304 0
M  V30 250 N 23.6496 -1.47581 0.552962 0
M  V30 251 C 24.8896 -2.04379 0.0296245 0
M  V30 252 C 25.2536 -1.4185 -1.29393 0
M  V30 253 O 26.4546 -1.89669 -1.90471 0
M  V30 254 C 24.7256 -3.57339 -0.0661371 0
M  V30 255 S 26.2846 -4.35511 -0.536213 0
M  V30 256 H 23.1026 -0.710625 0.0230991 0
M  V30 257 H 25.7046 -1.81005 0.738734 0
M  V30 258 H 24.4086 -4.00374 0.901596 0
M  V30 259 H 23.9396 -3.85202 -0.798931 0
M  V30 260 H 25.9546 -4.6253 -1.79668 0
M  V30 261 N 25.1277 -0.289203 -1.54924 0
M  V30 262 C 26.3757 0.322879 -1.99504 0
M  V30 263 C 26.6967 1.55313 -1.1791 0
M  V30 264 O 25.9667 1.94001 -0.272097 0
M  V30 265 H 24.5467 0.122291 -0.736922 0
M  V30 266 H 27.2087 -0.397802 -1.90797 0
M  V30 267 H 26.3047 0.603061 -3.06218 0
M  V30 268 N 26.6058 1.57591 -0.0167156 0
M  V30 269 C 27.8828 1.82547 0.702564 0
M  V30 270 C 28.2628 0.898018 1.91047 0
M  V30 271 O 27.6108 -0.0493456 2.28447 0
M  V30 272 C 27.8208 3.31459 1.09251 0
M  V30 273 C 29.1688 3.97622 1.48937 0
M  V30 274 O 30.1928 3.35881 1.18584 0
M  V30 275 O 29.0518 5.06415 2.05442 0
M  V30 276 H 26.1458 0.752268 0.343544 0
M  V30 277 H 28.6918 1.69644 -0.0434495 0
M  V30 278 H 27.4638 3.9061 0.23227 0
M  V30 279 H 27.0868 3.49422 1.89709 0
M  V30 280 N 28.0839 -0.256276 1.55502 0
M  V30 281 C 29.4949 -0.826068 1.67431 0
M  V30 282 C 29.8459 -1.86396 0.612446 0
M  V30 283 O 28.9709 -2.15031 -0.243025 0
M  V30 284 C 29.5659 -1.50512 3.03532 0
M  V30 285 C 28.1249 -2.02273 3.17431 0
M  V30 286 C 27.2719 -0.870548 2.63281 0
M  V30 287 H 30.2229 -0.0322728 1.58667 0
M  V30 288 H 30.2439 -2.37279 2.97454 0
M  V30 289 H 29.7559 -0.749484 3.80794 0
M  V30 290 H 27.8569 -2.80746 2.44974 0
M  V30 291 H 27.9699 -2.22655 4.24219 0
M  V30 292 H 26.3339 -1.26851 2.20864 0
M  V30 293 H 27.1169 -0.128149 3.43061 0
M  V30 294 N 29.562 -1.4872 -0.521534 0
M  V30 295 C 30.79 -1.60843 -1.30142 0
M  V30 296 C 31.205 -0.271897 -1.86832 0
M  V30 297 O 30.562 0.739969 -1.66825 0
M  V30 298 C 30.613 -2.66155 -2.4463 0
M  V30 299 O 30.334 -3.94623 -1.90275 0
M  V30 300 C 31.835 -2.88795 -3.36322 0
M  V30 301 H 29.055 -0.542075 -0.395468 0
M  V30 302 H 31.599 -1.94609 -0.628285 0
M  V30 303 H 29.754 -2.35224 -3.07812 0
M  V30 304 H 30.168 -4.52468 -2.65279 0
M  V30 305 H 31.642 -3.66264 -4.12983 0
M  V30 306 H 32.119 -1.97934 -3.9207 0
M  V30 307 H 32.725 -3.21063 -2.78924 0
M  V30 308 N 31.0401 0.771051 -1.3745 0
M  V30 309 C 32.2701 1.55789 -1.35696 0
M  V30 310 C 32.6781 1.89107 0.0594523 0
M  V30 311 O 32.0211 1.51984 1.03183 0
M  V30 312 C 32.0831 2.89515 -2.13123 0
M  V30 313 C 31.7471 2.78829 -3.62082 0
M  V30 314 C 32.7441 2.49812 -4.5595 0
M  V30 315 C 30.4291 2.9683 -4.05213 0
M  V30 316 C 32.4231 2.38923 -5.90927 0
M  V30 317 C 30.1101 2.85562 -5.40276 0
M  V30 318 C 31.1081 2.56649 -6.32946 0
M  V30 319 O 30.7961 2.45408 -7.65526 0
M  V30 320 H 30.5281 0.489257 -0.466481 0
M  V30 321 H 33.0821 0.963446 -1.81403 0
M  V30 322 H 31.3121 3.51081 -1.62107 0
M  V30 323 H 33.0011 3.50915 -2.03994 0
M  V30 324 H 33.7671 2.3559 -4.23937 0
M  V30 325 H 29.6461 3.18335 -3.33442 0
M  V30 326 H 33.1901 2.16277 -6.63227 0
M  V30 327 H 29.0871 2.99351 -5.71891 0
M  V30 328 H 29.8551 2.60753 -7.75855 0
M  V30 329 N 32.5182 1.22032 0.997298 0
M  V30 330 C 33.9292 1.0397 1.55071 0
M  V30 331 C 34.2802 -0.398192 1.92117 0
M  V30 332 O 33.4052 -1.28254 1.74298 0
M  V30 333 C 34.0002 1.88109 2.81781 0
M  V30 334 C 32.5592 1.74357 3.33581 0
M  V30 335 C 31.7062 1.84846 2.06706 0
M  V30 336 H 34.6572 1.35941 0.818883 0
M  V30 337 H 34.6782 1.39589 3.53971 0
M  V30 338 H 34.1902 2.92754 2.54787 0
M  V30 339 H 32.2912 0.72427 3.65493 0
M  V30 340 H 32.4042 2.56772 4.04481 0
M  V30 341 H 30.7682 1.28238 2.20062 0
M  V30 342 H 31.5512 2.91014 1.82114 0
M  V30 343 N 33.9963 -1.19345 1.0293 0
M  V30 344 C 35.4073 -1.70725 0.755633 0
M  V30 345 C 35.7583 -1.82326 -0.724676 0
M  V30 346 O 34.8833 -1.49471 -1.56484 0
M  V30 347 C 35.4783 -3.10084 1.36503 0
M  V30 348 C 34.0373 -3.58723 1.13994 0
M  V30 349 C 33.1843 -2.35577 1.46283 0
M  V30 350 H 36.1353 -1.0418 1.19718 0
M  V30 351 H 36.1563 -3.72787 0.762217 0
M  V30 352 H 35.6683 -3.01609 2.44241 0
M  V30 353 H 33.7693 -3.72512 0.0807901 0
M  V30 354 H 33.8823 -4.42816 1.82894 0
M  V30 355 H 32.2463 -2.38935 0.88217 0
M  V30 356 H 33.0293 -2.29731 2.55105 0
M  V30 357 N 35.4744 -0.807222 -1.35358 0
M  V30 358 C 36.7044 -0.399796 -2.02695 0
M  V30 359 C 37.1124 0.994176 -1.60974 0
M  V30 360 O 36.4554 1.65209 -0.803226 0
M  V30 361 C 36.5174 -0.404445 -3.57218 0
M  V30 362 C 36.1814 -1.74904 -4.22206 0
M  V30 363 C 37.1784 -2.70743 -4.4384 0
M  V30 364 C 34.8634 -2.03322 -4.5931 0
M  V30 365 C 36.8574 -3.93183 -5.01683 0
M  V30 366 C 34.5444 -3.26026 -5.16866 0
M  V30 367 C 35.5424 -4.20774 -5.37994 0
M  V30 368 O 35.2304 -5.41312 -5.94337 0
M  V30 369 H 34.9624 -0.160517 -0.656666 0
M  V30 370 H 37.5164 -1.09235 -1.73945 0
M  V30 371 H 35.7464 0.344707 -3.85161 0
M  V30 372 H 37.4354 -0.0192429 -4.05895 0
M  V30 373 H 38.2014 -2.5008 -4.15554 0
M  V30 374 H 34.0804 -1.30384 -4.42178 0
M  V30 375 H 37.6244 -4.6715 -5.1809 0
M  V30 376 H 33.5214 -3.46559 -5.44579 0
M  V30 377 H 34.2894 -5.42618 -6.12787 0
M  V30 378 N 36.9525 1.47285 -0.560781 0
M  V30 379 C 38.1985 2.02764 -0.0381184 0
M  V30 380 C 38.5315 1.43384 1.30976 0
M  V30 381 O 37.8065 0.590733 1.85312 0
M  V30 382 C 38.0895 3.60064 0.0511427 0
M  V30 383 C 37.9425 4.2987 -1.32408 0
M  V30 384 C 39.2615 4.33439 0.762795 0
M  V30 385 H 36.3805 0.736841 -0.0153264 0
M  V30 386 H 39.0225 1.75675 -0.723759 0
M  V30 387 H 37.1725 3.83274 0.635065 0
M  V30 388 H 38.8445 4.17989 -1.95148 0
M  V30 389 H 37.0875 3.90085 -1.8978 0
M  V30 390 H 37.7585 5.38478 -1.21431 0
M  V30 391 H 40.2345 4.15243 0.266965 0
M  V30 392 H 39.1105 5.43124 0.794221 0
M  V30 393 H 39.3715 4.02915 1.81966 0
M  V30 394 N 38.4306 0.297415 1.54768 0
M  V30 395 C 39.6586 -0.315623 2.04478 0
M  V30 396 C 40.0736 -1.47792 1.17486 0
M  V30 397 O 39.4306 -1.81404 0.19971 0
M  V30 398 C 39.4816 -0.7753 3.53088 0
M  V30 399 O 39.2026 0.340732 4.36773 0
M  V30 400 C 40.7036 -1.45386 4.18781 0
M  V30 401 H 37.9236 -0.0690887 0.667434 0
M  V30 402 H 40.4676 0.436003 1.99798 0
M  V30 403 H 38.6226 -1.47696 3.58141 0
M  V30 404 H 39.0366 -0.0165035 5.24497 0
M  V30 405 H 40.5106 -1.72669 5.24299 0
M  V30 406 H 40.9876 -2.39275 3.68299 0
M  V30 407 H 41.5936 -0.795475 4.17795 0
M  V30 408 N 39.9087 -1.5758 0.0250728 0
M  V30 409 C 41.3247 -1.56124 -0.331282 0
M  V30 410 C 41.5247 -1.03029 -1.73169 0
M  V30 411 O 40.5807 -0.675215 -2.43305 0
M  V30 412 C 41.8937 -3.00139 -0.183584 0
M  V30 413 C 43.4417 -3.11946 -0.256654 0
M  V30 414 C 43.9167 -4.57793 -0.137792 0
M  V30 415 N 45.4077 -4.6279 -0.194904 0
M  V30 416 C 46.1427 -5.7326 -0.126655 0
M  V30 417 N 45.6387 -6.928 -0.00755288 0
M  V30 418 N 47.4317 -5.61811 -0.180348 0
M  V30 419 H 39.5827 -1.90424 0.94087 0
M  V30 420 H 41.8457 -0.875761 0.362968 0
M  V30 421 H 41.5517 -3.4292 0.780927 0
M  V30 422 H 41.4257 -3.64899 -0.955448 0
M  V30 423 H 43.8127 -2.69079 -1.21162 0
M  V30 424 H 43.8937 -2.49915 0.545517 0
M  V30 425 H 43.5377 -5.01339 0.813739 0
M  V30 426 H 43.4677 -5.17798 -0.958775 0
M  V30 427 H 45.9587 -3.76807 -0.287267 0
M  V30 428 H 46.2717 -7.72791 0.0379428 0
M  V30 429 H 44.6167 -6.94995 0.0271731 0
M  V30 430 H 47.8077 -4.6731 -0.271767 0
M  V30 431 H 47.9807 -6.47882 -0.123697 0
M  V30 432 N 41.3868 0.248026 -1.55636 0
M  V30 433 C 42.6328 0.97767 -1.77678 0
M  V30 434 C 42.9658 1.85016 -0.590135 0
M  V30 435 O 42.2408 1.90095 0.411611 0
M  V30 436 C 42.5238 1.83914 -3.09593 0
M  V30 437 C 42.3768 0.99491 -4.38659 0
M  V30 438 C 43.6958 2.82183 -3.37729 0
M  V30 439 H 40.8148 0.354005 -0.646413 0
M  V30 440 H 43.4568 0.248253 -1.88371 0
M  V30 441 H 41.6068 2.46104 -3.00608 0
M  V30 442 H 43.2788 0.391789 -4.59633 0
M  V30 443 H 41.5218 0.299231 -4.32767 0
M  V30 444 H 42.1928 1.63145 -5.2734 0
M  V30 445 H 44.6688 2.30129 -3.4667 0
M  V30 446 H 43.5448 3.39582 -4.31249 0
M  V30 447 H 43.8058 3.58588 -2.58586 0
M  V30 448 N 42.8649 1.48995 0.513639 0
M  V30 449 C 44.1109 1.58076 1.27042 0
M  V30 450 C 44.4439 0.261026 1.92438 0
M  V30 451 O 43.7189 -0.734393 1.80103 0
M  V30 452 C 44.0019 2.73091 2.34719 0
M  V30 453 C 43.8549 4.14821 1.73907 0
M  V30 454 C 45.1739 2.83796 3.36375 0
M  V30 455 H 42.2929 0.575391 0.460536 0
M  V30 456 H 44.9349 1.81232 0.570516 0
M  V30 457 H 43.0849 2.53479 2.94416 0
M  V30 458 H 44.7569 4.45917 1.18135 0
M  V30 459 H 42.9999 4.21058 1.0437 0
M  V30 460 H 43.6709 4.91147 2.51949 0
M  V30 461 H 46.1469 3.01611 2.86653 0
M  V30 462 H 45.0229 3.65971 4.09093 0
M  V30 463 H 45.2839 1.92624 3.9793 0
M  V30 464 N 44.343 -0.763751 1.37857 0
M  V30 465 C 45.591 -1.51957 1.33243 0
M  V30 466 C 45.912 -1.94835 -0.0801709 0
M  V30 467 O 45.182 -1.66894 -1.02582 0
M  V30 468 H 43.762 -0.563626 0.49024 0
M  V30 469 H 46.424 -0.908504 1.7243 0
M  V30 470 H 45.52 -2.41523 1.97669 0
M  V30 471 N 45.8211 -1.22559 -0.990812 0
M  V30 472 C 47.0691 -1.04933 -1.72724 0
M  V30 473 C 47.3901 0.416158 -1.90508 0
M  V30 474 O 46.6601 1.29918 -1.46622 0
M  V30 475 H 45.2401 -0.385296 -0.639965 0
M  V30 476 H 47.9021 -1.54105 -1.19322 0
M  V30 477 H 46.9981 -1.52886 -2.72089 0
M  V30 478 N 47.2992 1.18797 -1.03562 0
M  V30 479 C 48.2092 2.25913 -0.632505 0
M  V30 480 C 49.2252 1.70668 0.338882 0
M  V30 481 O 50.4012 2.00453 0.195076 0
M  V30 482 C 47.4662 3.467 0.00350942 0
M  V30 483 C 46.5272 4.17098 -1.01624 0
M  V30 484 C 45.7602 5.32119 -0.410478 0
M  V30 485 O 45.9832 5.64976 0.784725 0
M  V30 486 O 44.9172 5.9107 -1.13667 0
M  V30 487 H 48.7432 2.62648 -1.52478 0
M  V30 488 H 46.3282 1.25781 -0.806195 0
M  V30 489 H 48.2102 4.19878 0.35781 0
M  V30 490 H 46.8852 3.11798 0.869686 0
M  V30 491 H 45.7922 3.4601 -1.42224 0
M  V30 492 H 47.1252 4.55987 -1.85301 0
M  V30 493 N 48.7773 0.814389 1.34928 0
M  V30 494 C 49.6873 0.231978 2.3345 0
M  V30 495 C 50.7033 -0.629139 1.62228 0
M  V30 496 O 51.8793 -0.539052 1.94052 0
M  V30 497 C 48.9443 -0.603482 3.41407 0
M  V30 498 C 48.0053 0.279037 4.28392 0
M  V30 499 C 47.2383 -0.516643 5.31193 0
M  V30 500 O 47.4613 -1.75068 5.4287 0
M  V30 501 O 46.3953 0.0965652 6.01823 0
M  V30 502 H 50.2213 1.04721 2.85074 0
M  V30 503 H 47.8063 0.576343 1.37836 0
M  V30 504 H 49.6883 -1.07908 4.0735 0
M  V30 505 H 48.3633 -1.39618 2.92042 0
M  V30 506 H 47.2703 0.801948 3.65403 0
M  V30 507 H 48.6033 1.03588 4.81176 0
M  V30 508 N 50.2554 -1.46986 0.568584 0
M  V30 509 C 51.2184 -2.28624 -0.162366 0
M  V30 510 C 52.2184 -1.37596 -0.832103 0
M  V30 511 O 53.4084 -1.60115 -0.68622 0
M  V30 512 C 50.5404 -3.17596 -1.23878 0
M  V30 513 H 51.7334 -2.94722 0.554899 0
M  V30 514 H 49.2864 -1.52863 0.325976 0
M  V30 515 H 50.0214 -2.56214 -1.98808 0
M  V30 516 H 49.8064 -3.846 -0.763219 0
M  V30 517 H 51.2964 -3.79078 -1.75185 0
M  V30 518 N 51.7335 -0.305618 -1.54608 0
M  V30 519 C 53.1495 0.0476228 -1.59529 0
M  V30 520 C 53.3495 1.52025 -1.32252 0
M  V30 521 O 52.4055 2.27368 -1.09818 0
M  V30 522 C 53.7185 -0.354471 -2.98603 0
M  V30 523 C 55.2665 -0.303622 -3.11524 0
M  V30 524 C 55.7415 -0.680608 -4.52915 0
M  V30 525 N 57.2325 -0.63332 -4.5885 0
M  V30 526 C 57.9675 -0.897432 -5.66334 0
M  V30 527 N 57.4635 -1.22775 -6.81834 0
M  V30 528 N 59.2565 -0.824186 -5.56025 0
M  V30 529 H 51.4075 -1.2653 -1.70599 0
M  V30 530 H 53.6705 -0.513291 -0.797017 0
M  V30 531 H 53.3765 -1.3798 -3.23503 0
M  V30 532 H 53.2505 0.289568 -3.76087 0
M  V30 533 H 55.6375 0.712472 -2.8637 0
M  V30 534 H 55.7185 -0.982348 -2.36185 0
M  V30 535 H 55.3625 -1.69453 -4.78799 0
M  V30 536 H 55.2925 0.0202385 -5.26596 0
M  V30 537 H 57.7835 -0.389138 -3.75891 0
M  V30 538 H 58.0965 -1.41513 -7.59733 0
M  V30 539 H 56.4415 -1.26583 -6.83375 0
M  V30 540 H 59.6325 -0.565748 -4.64669 0
M  V30 541 H 59.8055 -1.03338 -6.39707 0
M  V30 542 N 53.2116 1.57565 -0.0334293 0
M  V30 543 C 54.6226 1.79746 0.504798 0
M  V30 544 C 54.9736 0.944091 1.71992 0
M  V30 545 O 54.0986 0.155694 2.15839 0
M  V30 546 C 54.6936 3.25997 0.922567 0
M  V30 547 C 53.2526 3.49159 1.40588 0
M  V30 548 C 52.3996 2.74785 0.372633 0
M  V30 549 H 55.3506 1.56565 -0.259436 0
M  V30 550 H 55.3716 3.35945 1.78666 0
M  V30 551 H 54.8836 3.88081 0.0379825 0
M  V30 552 H 52.9846 2.92332 2.31025 0
M  V30 553 H 53.0976 4.57873 1.41028 0
M  V30 554 H 51.4616 2.40391 0.841672 0
M  V30 555 H 52.2446 3.39587 -0.503559 0
M  V30 556 N 54.6897 -0.239769 1.55765 0
M  V30 557 C 55.6377 -1.31668 1.91745 0
M  V30 558 C 56.6317 -1.49462 0.797338 0
M  V30 559 O 57.8377 -1.50852 0.982021 0
M  V30 560 H 54.2127 -0.441048 0.609082 0
M  V30 561 H 56.1837 -0.985923 2.81642 0
M  V30 562 C 54.9327 -2.66368 2.2348 0
M  V30 563 H 54.2557 -2.53478 3.09175 0
M  V30 564 H 55.6957 -3.40578 2.52553 0
M  V30 565 C 54.1547 -3.20002 1.05359 0
M  V30 566 O 54.6847 -4.00538 0.305261 0
M  V30 567 N 52.8907 -2.78126 0.842292 0
M  V30 568 H 52.4377 -2.12742 1.45253 0
M  V30 569 H 52.3957 -3.14354 0.053652 0
M  V30 570 N 56.1678 -1.49265 -0.50573 0
M  V30 571 C 57.3928 -1.62478 -1.28902 0
M  V30 572 C 57.8178 -0.294332 -1.85783 0
M  V30 573 O 57.1758 0.737412 -1.65626 0
M  V30 574 C 57.2238 -2.69268 -2.39848 0
M  V30 575 O 56.3278 -2.28113 -3.43567 0
M  V30 576 H 55.6688 -0.54399 -0.380751 0
M  V30 577 H 58.1988 -1.95421 -0.605952 0
M  V30 578 H 58.2088 -2.91291 -2.85681 0
M  V30 579 H 56.8838 -3.65846 -1.97812 0
M  V30 580 H 55.4608 -2.16401 -3.03685 0
M  V30 581 N 57.6459 0.756429 -1.3826 0
M  V30 582 C 58.8919 1.5168 -1.35517 0
M  V30 583 C 59.2469 1.9232 0.0554451 0
M  V30 584 O 58.5399 1.62352 1.01746 0
M  V30 585 C 58.7339 2.78313 -2.24224 0
M  V30 586 C 58.5629 2.50053 -3.7377 0
M  V30 587 C 57.3329 2.43414 -4.42807 0
M  V30 588 C 59.5309 2.1702 -4.66269 0
M  V30 589 N 57.5129 2.07398 -5.77805 0
M  V30 590 C 58.8839 1.91271 -5.89759 0
M  V30 591 C 60.9389 2.03305 -4.54501 0
M  V30 592 C 59.6419 1.53192 -7.02798 0
M  V30 593 C 61.6679 1.66627 -5.67441 0
M  V30 594 C 61.0299 1.4175 -6.8999 0
M  V30 595 H 57.1289 0.554735 -0.551174 0
M  V30 596 H 59.7129 0.881106 -1.73622 0
M  V30 597 H 57.8839 3.39696 -1.88311 0
M  V30 598 H 59.6159 3.44343 -2.12627 0
M  V30 599 H 56.3709 2.59789 -3.95988 0
M  V30 600 H 56.7949 1.92044 -6.4919 0
M  V30 601 H 61.4369 2.21215 -3.60311 0
M  V30 602 H 59.1549 1.34022 -7.96909 0
M  V30 603 H 62.7409 1.56652 -5.60314 0
M  V30 604 H 61.6209 1.1379 -7.759 0
M  V30 605 N 59.124 1.23083 0.984299 0
M  V30 606 C 60.535 1.05609 1.5396 0
M  V30 607 C 60.886 -0.377793 1.92528 0
M  V30 608 O 60.011 -1.26398 1.75649 0
M  V30 609 C 60.606 1.91087 2.7977 0
M  V30 610 C 59.165 1.77885 3.31713 0
M  V30 611 C 58.312 1.87028 2.04733 0
M  V30 612 H 61.263 1.36802 0.804419 0
M  V30 613 H 61.284 1.43336 3.5247 0
M  V30 614 H 60.796 2.9544 2.51668 0
M  V30 615 H 58.897 0.762995 3.64704 0
M  V30 616 H 59.01 2.61047 4.01735 0
M  V30 617 H 57.374 1.30565 2.18689 0
M  V30 618 H 58.157 2.92929 1.79017 0
M  V30 619 N 60.6021 -1.18246 1.0419 0
M  V30 620 C 61.8481 -1.88793 0.75689 0
M  V30 621 C 62.2031 -1.78909 -0.707767 0
M  V30 622 O 61.4961 -1.1794 -1.50999 0
M  V30 623 C 61.6901 -3.38082 1.15911 0
M  V30 624 C 61.5191 -3.62496 2.66133 0
M  V30 625 C 60.2891 -3.7979 3.33298 0
M  V30 626 C 62.4871 -3.62976 3.64353 0
M  V30 627 N 60.4691 -3.91955 4.72487 0
M  V30 628 C 61.8401 -3.80869 4.89222 0
M  V30 629 C 63.8951 -3.46071 3.57965 0
M  V30 630 C 62.5981 -3.83608 6.08471 0
M  V30 631 C 64.6241 -3.50093 4.76643 0
M  V30 632 C 63.9861 -3.68484 6.00332 0
M  V30 633 H 60.0851 -0.709406 0.32904 0
M  V30 634 H 62.6691 -1.42022 1.33183 0
M  V30 635 H 60.8401 -3.83544 0.612238 0
M  V30 636 H 62.5721 -3.96202 0.824989 0
M  V30 637 H 59.3271 -3.79224 2.83701 0
M  V30 638 H 59.7511 -4.01857 5.44831 0
M  V30 639 H 64.3931 -3.30797 2.63311 0
M  V30 640 H 62.1111 -3.97669 7.0348 0
M  V30 641 H 65.6971 -3.38285 4.73344 0
M  V30 642 H 64.5771 -3.71488 6.90627 0
M  V30 643 N 62.0802 -0.821533 -1.34494 0
M  V30 644 C 63.0122 -0.199946 -2.28326 0
M  V30 645 C 64.0252 0.609377 -1.50965 0
M  V30 646 O 65.2142 0.439285 -1.7301 0
M  V30 647 C 62.3142 0.738431 -3.30757 0
M  V30 648 C 61.4872 -0.0277632 -4.37391 0
M  V30 649 C 60.5462 0.831332 -5.19591 0
M  V30 650 O 59.5722 0.276822 -5.68526 0
M  V30 651 N 60.7742 2.15132 -5.39165 0
M  V30 652 H 63.5392 -1.00609 -2.82308 0
M  V30 653 H 61.1002 -0.678366 -1.47003 0
M  V30 654 H 63.0922 1.31773 -3.82646 0
M  V30 655 H 61.6622 1.44533 -2.7718 0
M  V30 656 H 60.8822 -0.788359 -3.86236 0
M  V30 657 H 62.1702 -0.555251 -5.05761 0
M  V30 658 H 61.5682 2.62559 -5.01078 0
M  V30 659 H 60.1252 2.6795 -5.94177 0
M  V30 660 N 63.5583 1.46682 -0.576371 0
M  V30 661 C 64.8043 2.02712 -0.0596221 0
M  V30 662 C 65.1373 1.44765 1.29448 0
M  V30 663 O 64.4123 0.610355 1.84675 0
M  V30 664 C 64.6953 3.60098 0.0129503 0
M  V30 665 C 64.5483 4.28441 -1.3696 0
M  V30 666 C 65.8673 4.34224 0.71678 0
M  V30 667 H 62.9863 0.736637 -0.0231407 0
M  V30 668 H 65.6283 1.74898 -0.742351 0
M  V30 669 H 63.7783 3.83926 0.594378 0
M  V30 670 H 65.4503 4.15896 -1.9957 0
M  V30 671 H 63.6933 3.8805 -1.93907 0
M  V30 672 H 64.3643 5.3716 -1.27135 0
M  V30 673 H 66.8403 4.15503 0.222908 0
M  V30 674 H 65.7163 5.43936 0.73657 0
M  V30 675 H 65.9773 4.04823 1.77682 0
M  V30 676 N 65.0364 0.313813 1.54444 0
M  V30 677 C 66.2614 -0.296681 2.05267 0
M  V30 678 C 66.6864 -1.45757 1.18897 0
M  V30 679 O 66.0444 -1.80239 0.195886 0
M  V30 680 C 66.0924 -0.71831 3.53373 0
M  V30 681 O 65.1964 -1.82175 3.69981 0
M  V30 682 H 64.5374 -0.0554061 0.661684 0
M  V30 683 H 67.0674 0.459387 1.99376 0
M  V30 684 H 67.0774 -1.00364 3.95463 0
M  V30 685 H 65.7524 0.130821 4.15694 0
M  V30 686 H 64.3294 -1.53598 3.39797 0
M  V30 687 N 66.5145 -1.57545 0.0417849 0
M  V30 688 C 67.4445 -2.14009 -0.933929 0
M  V30 689 C 68.4255 -1.05938 -1.33083 0
M  V30 690 O 69.6105 -1.33833 -1.40721 0
M  V30 691 C 66.7405 -2.67747 -2.21199 0
M  V30 692 C 65.6945 -3.80718 -1.95544 0
M  V30 693 C 65.0205 -4.20935 -3.29724 0
M  V30 694 C 66.3205 -5.06258 -1.28452 0
M  V30 695 H 68.0145 -2.95788 -0.463645 0
M  V30 696 H 65.5605 -1.42285 -0.221573 0
M  V30 697 H 67.5135 -3.05886 -2.89848 0
M  V30 698 H 66.2375 -1.83147 -2.70416 0
M  V30 699 H 64.8965 -3.43037 -1.2931 0
M  V30 700 H 64.5445 -3.33298 -3.76724 0
M  V30 701 H 64.2445 -4.9707 -3.13361 0
M  V30 702 H 65.7685 -4.61666 -3.9962 0
M  V30 703 H 67.1825 -5.41903 -1.8712 0
M  V30 704 H 65.5795 -5.87475 -1.22445 0
M  V30 705 H 66.6495 -4.84207 -0.259219 0
M  V30 706 N 67.9926 0.231505 -1.5589 0
M  V30 707 C 68.9246 1.31006 -1.8807 0
M  V30 708 C 69.9376 1.43539 -0.768145 0
M  V30 709 O 71.1266 1.44614 -1.04638 0
M  V30 710 C 68.2266 2.68688 -2.06543 0
M  V30 711 C 67.3996 2.78228 -3.37502 0
M  V30 712 C 66.4586 3.96857 -3.4553 0
M  V30 713 O 65.4846 3.85662 -4.18633 0
M  V30 714 N 66.6866 5.1072 -2.75944 0
M  V30 715 H 69.4516 1.03731 -2.81176 0
M  V30 716 H 67.0126 0.421573 -1.56315 0
M  V30 717 H 69.0046 3.46412 -2.09239 0
M  V30 718 H 67.5746 2.88605 -1.20109 0
M  V30 719 H 66.7946 1.87059 -3.46991 0
M  V30 720 H 68.0826 2.81564 -4.23791 0
M  V30 721 H 67.4806 5.2271 -2.16311 0
M  V30 722 H 66.0376 5.86523 -2.84314 0
M  V30 723 N 69.4707 1.49531 0.497807 0
M  V30 724 C 70.7007 1.62657 1.27382 0
M  V30 725 C 71.1087 0.298488 1.86831 0
M  V30 726 O 70.4517 -0.72647 1.68725 0
M  V30 727 C 70.5137 2.6393 2.44093 0
M  V30 728 C 70.1777 4.08195 2.05489 0
M  V30 729 C 71.1747 4.949 1.59279 0
M  V30 730 C 68.8597 4.53948 2.15026 0
M  V30 731 C 70.8537 6.25397 1.23113 0
M  V30 732 C 68.5407 5.84458 1.78473 0
M  V30 733 C 69.5387 6.70006 1.32591 0
M  V30 734 O 69.2267 7.98083 0.965327 0
M  V30 735 H 68.9587 0.550429 0.392434 0
M  V30 736 H 71.5127 1.96325 0.603801 0
M  V30 737 H 69.7427 2.25449 3.14181 0
M  V30 738 H 71.4317 2.66552 3.06113 0
M  V30 739 H 72.1977 4.60779 1.51354 0
M  V30 740 H 68.0767 3.87525 2.4969 0
M  V30 741 H 71.6207 6.92125 0.872299 0
M  V30 742 H 67.5177 6.18107 1.86048 0
M  V30 743 H 68.2857 8.11122 1.09652 0
M  V30 744 N 70.9488 -0.749086 1.3866 0
M  V30 745 C 72.1738 -1.54344 1.38538 0
M  V30 746 C 72.5988 -1.88088 -0.0216655 0
M  V30 747 O 71.9568 -1.50899 -1.00494 0
M  V30 748 C 72.0048 -2.8164 2.25192 0
M  V30 749 O 71.1088 -3.7698 1.67212 0
M  V30 750 H 70.4498 -0.466654 0.472367 0
M  V30 751 H 72.9798 -0.925355 1.82478 0
M  V30 752 H 72.9898 -3.30519 2.3921 0
M  V30 753 H 71.6648 -2.56411 3.27454 0
M  V30 754 H 70.2418 -3.35699 1.6236 0
M  V30 755 N 72.4269 -1.23603 -0.977757 0
M  V30 756 C 73.6519 -1.09735 -1.75991 0
M  V30 757 C 74.0769 0.346858 -1.84874 0
M  V30 758 O 73.4349 1.25093 -1.3123 0
M  V30 759 C 73.4829 -1.73051 -3.16363 0
M  V30 760 O 72.5869 -0.994452 -4.0023 0
M  V30 761 H 71.9279 -0.384476 -0.541364 0
M  V30 762 H 74.4579 -1.6371 -1.2272 0
M  V30 763 H 74.4679 -1.78398 -3.66931 0
M  V30 764 H 73.1429 -2.78137 -3.09213 0
M  V30 765 H 71.7199 -1.01812 -3.58732 0
M  V30 766 N 73.905 1.17692 -1.04816 0
M  V30 767 C 74.853 2.23632 -0.63966 0
M  V30 768 C 75.847 1.6601 0.337219 0
M  V30 769 O 77.053 1.78844 0.203693 0
M  V30 770 H 73.428 0.727949 -0.188665 0
M  V30 771 H 75.399 2.55387 -1.54337 0
M  V30 772 C 74.148 3.4769 -0.0264051 0
M  V30 773 H 73.471 3.92331 -0.769164 0
M  V30 774 H 74.911 4.23418 0.222098 0
M  V30 775 C 73.37 3.13807 1.22584 0
M  V30 776 O 73.9 3.28236 2.31569 0
M  V30 777 N 72.106 2.68065 1.12202 0
M  V30 778 H 71.653 2.56525 0.235133 0
M  V30 779 H 71.611 2.45767 1.96076 0
M  V30 780 N 75.3831 0.828654 1.34056 0
M  V30 781 C 76.6311 0.41863 1.97717 0
M  V30 782 C 76.9521 -1.02314 1.66002 0
M  V30 783 O 76.2221 -1.71119 0.953683 0
M  V30 784 H 74.8021 0.151809 0.731412 0
M  V30 785 H 77.4641 1.05936 1.63596 0
M  V30 786 H 76.5601 0.542318 3.07352 0
M  V30 787 N 76.8612 -1.46375 0.584142 0
M  V30 788 C 77.8082 -2.30323 -0.148286 0
M  V30 789 C 78.7782 -1.40703 -0.882713 0
M  V30 790 O 79.9632 -1.69651 -0.873099 0
M  V30 791 C 77.1032 -3.25196 -1.15507 0
M  V30 792 C 76.2162 -4.29915 -0.423943 0
M  V30 793 C 75.3512 -5.11914 -1.41838 0
M  V30 794 C 74.3902 -6.08381 -0.673736 0
M  V30 795 N 73.5272 -6.83242 -1.6163 0
M  V30 796 H 78.3672 -2.92427 0.573644 0
M  V30 797 H 75.9042 -1.44118 0.294703 0
M  V30 798 H 77.8622 -3.78646 -1.75166 0
M  V30 799 H 76.4922 -2.64898 -1.8447 0
M  V30 800 H 75.5442 -3.7931 0.287714 0
M  V30 801 H 76.8562 -4.98549 0.158128 0
M  V30 802 H 76.0102 -5.69648 -2.08773 0
M  V30 803 H 74.7492 -4.43243 -2.03438 0
M  V30 804 H 73.7542 -5.49799 0.00938483 0
M  V30 805 H 74.9792 -6.79071 -0.0631082 0
M  V30 806 H 72.9252 -6.1728 -2.22038 0
M  V30 807 H 72.8422 -7.48144 -1.08707 0
M  V30 808 H 74.1102 -7.45534 -2.27596 0
M  V30 809 N 78.3393 -0.321999 -1.54275 0
M  V30 810 C 79.5853 0.274234 -2.01543 0
M  V30 811 C 79.9403 1.499 -1.20614 0
M  V30 812 O 79.2333 1.89546 -0.279804 0
M  V30 813 C 79.4273 0.661769 -3.5122 0
M  V30 814 C 79.2563 -0.523892 -4.46638 0
M  V30 815 C 78.0263 -1.02251 -4.94846 0
M  V30 816 C 80.2243 -1.37558 -4.95563 0
M  V30 817 N 78.2063 -2.17274 -5.74165 0
M  V30 818 C 79.5773 -2.37301 -5.7279 0
M  V30 819 C 81.6323 -1.40353 -4.77709 0
M  V30 820 C 80.3353 -3.3964 -6.34064 0
M  V30 821 C 82.3613 -2.41562 -5.39817 0
M  V30 822 C 81.7233 -3.40031 -6.16894 0
M  V30 823 H 77.8223 0.0642367 -0.779357 0
M  V30 824 H 80.4063 -0.456683 -1.89268 0
M  V30 825 H 78.5773 1.36182 -3.63743 0
M  V30 826 H 80.3093 1.23934 -3.85256 0
M  V30 827 H 77.0643 -0.594046 -4.6986 0
M  V30 828 H 77.4883 -2.75289 -6.18502 0
M  V30 829 H 82.1303 -0.655907 -4.17681 0
M  V30 830 H 79.8483 -4.15309 -6.93213 0
M  V30 831 H 83.4343 -2.44524 -5.2792 0
M  V30 832 H 82.3143 -4.17063 -6.64099 0
M  V30 833 N 79.8174 1.5752 -0.0501392 0
M  V30 834 C 81.0474 1.96678 0.632573 0
M  V30 835 C 81.4554 0.926298 1.64974 0
M  V30 836 O 80.7984 -0.09802 1.83438 0
M  V30 837 C 80.8604 3.32068 1.37735 0
M  V30 838 C 80.5244 4.54076 0.516131 0
M  V30 839 C 81.5214 5.19445 -0.217357 0
M  V30 840 C 79.2064 5.00304 0.44736 0
M  V30 841 C 81.2004 6.29378 -1.00807 0
M  V30 842 C 78.8874 6.10114 -0.347038 0
M  V30 843 C 79.8854 6.74512 -1.07344 0
M  V30 844 O 79.5734 7.82211 -1.85477 0
M  V30 845 H 79.3054 0.652193 0.177821 0
M  V30 846 H 81.8594 2.05091 -0.112543 0
M  V30 847 H 80.0894 3.20206 2.16807 0
M  V30 848 H 81.7784 3.55981 1.95019 0
M  V30 849 H 82.5444 4.84689 -0.173688 0
M  V30 850 H 78.4234 4.49971 1.00235 0
M  V30 851 H 81.9674 6.79575 -1.57556 0
M  V30 852 H 77.8644 6.44307 -0.392349 0
M  V30 853 H 78.6324 7.98982 -1.77678 0
M  V30 854 N 81.2955 -0.223234 1.56011 0
M  V30 855 C 82.2455 -1.28008 1.88674 0
M  V30 856 C 83.2295 -1.42369 0.749663 0
M  V30 857 O 84.4215 -1.45212 1.01205 0
M  V30 858 C 81.5505 -2.63084 2.20548 0
M  V30 859 C 80.6365 -2.52632 3.40643 0
M  V30 860 N 81.0275 -2.11829 4.59306 0
M  V30 861 C 79.3255 -2.83594 3.44224 0
M  V30 862 C 80.0265 -2.12587 5.41463 0
M  V30 863 N 79.0025 -2.5301 4.81131 0
M  V30 864 H 82.8045 -0.955487 2.77935 0
M  V30 865 H 80.3185 -0.431801 1.56554 0
M  V30 866 H 82.3155 -3.39385 2.42122 0
M  V30 867 H 80.9755 -2.96391 1.32599 0
M  V30 868 H 81.9865 -1.82988 4.84496 0
M  V30 869 H 78.6635 -3.21284 2.66614 0
M  V30 870 H 80.0535 -1.83179 6.46448 0
M  V30 871 N 82.7736 -1.49793 -0.48987 0
M  V30 872 C 84.0016 -1.63568 -1.26701 0
M  V30 873 C 84.4166 -0.311465 -1.86213 0
M  V30 874 O 83.7736 0.704416 -1.68357 0
M  V30 875 C 83.8246 -2.71284 -2.38929 0
M  V30 876 O 83.5456 -3.9857 -1.81861 0
M  V30 877 C 85.0466 -2.95864 -3.3012 0
M  V30 878 H 82.2666 -0.550342 -0.383881 0
M  V30 879 H 84.8106 -1.95898 -0.586864 0
M  V30 880 H 82.9656 -2.417 -3.02753 0
M  V30 881 H 83.3796 -4.57993 -2.55622 0
M  V30 882 H 84.8536 -3.74941 -4.05121 0
M  V30 883 H 85.3306 -2.06206 -3.87783 0
M  V30 884 H 85.9366 -3.26907 -2.72051 0
M  V30 885 N 84.2517 0.741722 -1.39055 0
M  V30 886 C 85.4917 1.51385 -1.37338 0
M  V30 887 C 85.8557 1.91972 0.0330513 0
M  V30 888 O 87.0567 2.68229 0.175174 0
M  V30 889 C 85.3277 2.72481 -2.31276 0
M  V30 890 S 86.8867 3.62211 -2.47687 0
M  V30 891 H 83.7047 0.517906 -0.487129 0
M  V30 892 H 86.3067 0.86969 -1.7509 0
M  V30 893 H 85.0107 2.40793 -3.32336 0
M  V30 894 H 84.5417 3.41832 -1.94716 0
M  V30 895 H 86.5567 4.65812 -1.70978 0
M  V30 896 N 85.7298 1.2412 0.971189 0
M  V30 897 C 86.9778 1.07668 1.71032 0
M  V30 898 C 87.2988 -0.385797 1.91146 0
M  V30 899 O 86.5688 -1.27569 1.4867 0
M  V30 900 H 85.1488 0.395429 0.633755 0
M  V30 901 H 87.8108 1.55984 1.16855 0
M  V30 902 H 86.9068 1.57195 2.69622 0
M  V30 903 N 87.2079 -1.17134 1.05439 0
M  V30 904 C 88.4559 -1.87085 0.764429 0
M  V30 905 C 88.7769 -1.81584 -0.710787 0
M  V30 906 O 88.0469 -1.24349 -1.51374 0
M  V30 907 H 86.6269 -0.692627 0.279779 0
M  V30 908 H 89.2889 -1.42087 1.33406 0
M  V30 909 H 88.3849 -2.92759 1.0816 0
M  V30 910 N 88.686 -0.835752 -1.33615 0
M  V30 911 C 89.911 -0.442389 -2.02627 0
M  V30 912 C 90.336 0.947735 -1.62479 0
M  V30 913 O 89.694 1.61907 -0.815826 0
M  V30 914 C 89.742 -0.567216 -3.56111 0
M  V30 915 O 88.846 0.407799 -4.10379 0
M  V30 916 H 88.187 -0.180278 -0.639059 0
M  V30 917 H 90.717 -1.12972 -1.70583 0
M  V30 918 H 90.727 -0.447708 -4.05536 0
M  V30 919 H 89.402 -1.58103 -3.84677 0
M  V30 920 H 87.979 0.246107 -3.72087 0
M  V30 921 N 90.1641 1.46063 -0.591896 0
M  V30 922 C 91.0941 2.33172 0.123673 0
M  V30 923 C 92.0751 1.45897 0.87453 0
M  V30 924 O 93.2601 1.74698 0.848181 0
M  V30 925 C 90.3901 3.28336 1.13194 0
M  V30 926 C 89.3441 4.25124 0.495324 0
M  V30 927 C 88.6701 5.09863 1.61071 0
M  V30 928 C 89.9701 5.19143 -0.573425 0
M  V30 929 H 91.6641 2.93252 -0.603646 0
M  V30 930 H 89.2101 1.41014 -0.291741 0
M  V30 931 H 91.1631 3.88137 1.64097 0
M  V30 932 H 89.8871 2.66383 1.88965 0
M  V30 933 H 88.5461 3.66599 0.00729452 0
M  V30 934 H 88.1941 4.44288 2.35832 0
M  V30 935 H 87.8941 5.75417 1.19035 0
M  V30 936 H 89.4181 5.72529 2.12233 0
M  V30 937 H 90.8321 5.73106 -0.1491 0
M  V30 938 H 89.2291 5.93089 -0.914636 0
M  V30 939 H 90.2991 4.62519 -1.45617 0
M  V30 940 N 91.6422 0.330177 1.54103 0
M  V30 941 C 92.8912 -0.271336 1.99867 0
M  V30 942 C 93.2042 -1.52723 1.22209 0
M  V30 943 O 94.4102 -2.20515 1.58383 0
M  V30 944 C 92.8662 -0.534032 3.55916 0
M  V30 945 C 92.4742 0.705193 4.42415 0
M  V30 946 C 94.2182 -1.09514 4.1013 0
M  V30 947 C 92.1252 0.414035 5.89949 0
M  V30 948 H 91.0552 -0.105166 0.74663 0
M  V30 949 H 93.7062 0.443429 1.78062 0
M  V30 950 H 92.0882 -1.30915 3.73734 0
M  V30 951 H 93.2622 1.4804 4.36372 0
M  V30 952 H 91.5772 1.18698 3.99124 0
M  V30 953 H 94.1742 -1.3277 5.17954 0
M  V30 954 H 94.5172 -2.04656 3.62521 0
M  V30 955 H 95.0502 -0.381038 3.95971 0
M  V30 956 H 91.7892 1.33481 6.41766 0
M  V30 957 H 91.3092 -0.323336 5.98928 0
M  V30 958 H 92.9882 0.0263105 6.46995 0
M  V30 959 N 93.1203 -1.57491 0.0584922 0
M  V30 960 C 94.0833 -2.1085 -0.898617 0
M  V30 961 C 95.0833 -1.02964 -1.23511 0
M  V30 962 O 96.2733 -1.29007 -1.17059 0
M  V30 963 C 93.4053 -2.59881 -2.20623 0
M  V30 964 H 94.5983 -2.96715 -0.435936 0
M  V30 965 H 92.1513 -1.55141 -0.190023 0
M  V30 966 H 92.8863 -1.77431 -2.71457 0
M  V30 967 H 92.6713 -3.38727 -1.97501 0
M  V30 968 H 94.1613 -3.01285 -2.89166 0
M  V30 969 N 94.5984 0.214957 -1.56127 0
M  V30 970 C 95.5464 1.28601 -1.93816 0
M  V30 971 C 96.5404 1.48175 -0.821016 0
M  V30 972 O 97.7464 1.49271 -1.0059 0
M  V30 973 H 94.1214 0.431302 -0.616022 0
M  V30 974 H 96.0924 0.940991 -2.83175 0
M  V30 975 C 94.8414 2.62779 -2.27689 0
M  V30 976 H 94.1644 2.48527 -3.13168 0
M  V30 977 H 95.6044 3.36517 -2.57939 0
M  V30 978 C 94.0634 3.18285 -1.10436 0
M  V30 979 O 94.5934 4.00002 -0.368945 0
M  V30 980 N 92.7994 2.7675 -0.886433 0
M  V30 981 H 92.3464 2.10404 -1.48619 0
M  V30 982 H 92.3044 3.14229 -0.103656 0
M  V30 983 N 96.0765 1.50051 0.48192 0
M  V30 984 C 97.3015 1.64508 1.26301 0
M  V30 985 C 97.7265 0.323851 1.85291 0
M  V30 986 O 97.0845 -0.710969 1.66778 0
M  V30 987 C 97.1325 2.7305 2.35533 0
M  V30 988 O 96.2365 2.3355 3.39895 0
M  V30 989 H 95.5775 0.549978 0.372048 0
M  V30 990 H 98.1075 1.9636 0.574786 0
M  V30 991 H 98.1175 2.95799 2.8101 0
M  V30 992 H 96.7925 3.68946 1.91967 0
M  V30 993 H 95.3695 2.21205 3.00204 0
M  V30 994 N 97.5546 -0.734337 1.39446 0
M  V30 995 C 98.8006 -1.49505 1.37913 0
M  V30 996 C 99.1556 -1.92384 -0.0248416 0
M  V30 997 O 98.4486 -1.6395 -0.991506 0
M  V30 998 C 98.6426 -2.74711 2.28623 0
M  V30 999 C 98.4716 -2.44075 3.777 0
M  V30 1000 C 97.2416 -2.36338 4.46623 0
M  V30 1001 C 99.4396 -2.09574 4.69663 0
M  V30 1002 N 97.4216 -1.9818 5.81032 0
M  V30 1003 C 98.7926 -1.81865 5.92727 0
M  V30 1004 C 100.848 -1.96048 4.57678 0
M  V30 1005 C 99.5506 -1.41992 7.05146 0
M  V30 1006 C 101.577 -1.57579 5.7002 0
M  V30 1007 C 100.939 -1.30754 6.92158 0
M  V30 1008 H 97.0376 -0.545896 0.55993 0
M  V30 1009 H 99.6216 -0.853373 1.75002 0
M  V30 1010 H 97.7926 -3.36657 1.93692 0
M  V30 1011 H 99.5246 -3.40916 2.18078 0
M  V30 1012 H 96.2796 -2.53456 4.00071 0
M  V30 1013 H 96.7036 -1.81691 6.52163 0
M  V30 1014 H 101.346 -2.15455 3.63784 0
M  V30 1015 H 99.0636 -1.21327 7.9894 0
M  V30 1016 H 102.65 -1.47718 5.62735 0
M  V30 1017 H 101.53 -1.01432 7.77612 0
M  V30 1018 N 99.0327 -1.24633 -0.964593 0
M  V30 1019 C 100.279 -1.08949 -1.71049 0
M  V30 1020 C 100.612 0.370302 -1.90637 0
M  V30 1021 O 99.8867 1.27349 -1.47011 0
M  V30 1022 C 100.17 -1.83329 -3.0994 0
M  V30 1023 C 100.023 -3.37077 -2.97824 0
M  V30 1024 C 101.342 -1.60846 -4.09654 0
M  V30 1025 H 98.4607 -0.397178 -0.620821 0
M  V30 1026 H 101.103 -1.5334 -1.12191 0
M  V30 1027 H 99.2527 -1.45597 -3.60186 0
M  V30 1028 H 100.925 -3.84425 -2.5498 0
M  V30 1029 H 99.1677 -3.65298 -2.33965 0
M  V30 1030 H 99.8387 -3.84324 -3.96231 0
M  V30 1031 H 102.315 -1.93674 -3.68279 0
M  V30 1032 H 101.191 -2.1534 -5.04896 0
M  V30 1033 H 101.452 -0.547434 -4.38698 0
M  V30 1034 N 100.511 1.16574 -1.06058 0
M  V30 1035 C 101.441 2.23057 -0.690488 0
M  V30 1036 C 102.422 1.67141 0.315901 0
M  V30 1037 O 103.607 1.93253 0.191556 0
M  V30 1038 C 100.737 3.47222 -0.073625 0
M  V30 1039 C 99.6908 4.16016 -1.00573 0
M  V30 1040 C 99.0168 5.34104 -0.252289 0
M  V30 1041 C 100.317 4.67264 -2.33371 0
M  V30 1042 H 102.011 2.54271 -1.58072 0
M  V30 1043 H 99.5568 1.22218 -0.76149 0
M  V30 1044 H 101.51 4.20939 0.19714 0
M  V30 1045 H 100.234 3.15302 0.85161 0
M  V30 1046 H 98.8928 3.44223 -1.2612 0
M  V30 1047 H 98.5408 4.98437 0.675988 0
M  V30 1048 H 98.2408 5.81072 -0.873455 0
M  V30 1049 H 99.7648 6.10599 0.0109857 0
M  V30 1050 H 101.179 5.32573 -2.12223 0
M  V30 1051 H 99.5758 5.24843 -2.90963 0
M  V30 1052 H 100.646 3.83602 -2.96611 0
M  V30 1053 N 101.989 0.842826 1.3317 0
M  V30 1054 C 103.217 0.454055 2.01856 0
M  V30 1055 C 103.632 -0.94587 1.63397 0
M  V30 1056 O 102.989 -1.61534 0.849302 0
M  V30 1057 C 103.04 0.569715 3.56982 0
M  V30 1058 O 102.761 1.91448 3.94055 0
M  V30 1059 C 104.262 0.178412 4.42941 0
M  V30 1060 H 101.482 0.17979 0.646465 0
M  V30 1061 H 104.026 1.1365 1.70012 0
M  V30 1062 H 102.181 -0.0648587 3.87346 0
M  V30 1063 H 102.595 1.90282 4.88767 0
M  V30 1064 H 104.069 0.310376 5.51127 0
M  V30 1065 H 104.546 -0.880056 4.30293 0
M  V30 1066 H 105.152 0.787579 4.17944 0
M  V30 1067 N 103.467 -1.45747 0.599634 0
M  V30 1068 C 104.43 -2.28917 -0.113835 0
M  V30 1069 C 105.43 -1.3933 -0.802729 0
M  V30 1070 O 106.62 -1.61534 -0.652103 0
M  V30 1071 C 103.752 -3.20152 -1.17114 0
M  V30 1072 H 104.945 -2.93478 0.617289 0
M  V30 1073 H 102.498 -1.52137 0.358327 0
M  V30 1074 H 103.233 -2.60374 -1.93329 0
M  V30 1075 H 103.018 -3.86133 -0.681468 0
M  V30 1076 H 104.508 -3.82708 -1.67105 0
M  V30 1077 N 104.945 -0.338344 -1.53925 0
M  V30 1078 C 105.908 0.508299 -2.23493 0
M  V30 1079 C 106.908 1.03175 -1.23335 0
M  V30 1080 O 108.098 0.921826 -1.47811 0
M  V30 1081 C 105.23 1.70754 -2.95052 0
M  V30 1082 H 106.423 -0.100058 -2.99733 0
M  V30 1083 H 103.976 -0.0896198 -1.56043 0
M  V30 1084 H 104.711 2.35474 -2.22986 0
M  V30 1085 H 104.496 1.33946 -3.68512 0
M  V30 1086 H 105.986 2.30818 -3.48013 0
M  V30 1087 N 106.423 1.57458 -0.0668435 0
M  V30 1088 C 107.373 2.0896 0.912119 0
M  V30 1089 C 108.357 0.998186 1.26195 0
M  V30 1090 O 109.549 1.26133 1.24175 0
M  V30 1091 C 106.678 2.6508 2.18145 0
M  V30 1092 C 105.764 3.81218 1.85832 0
M  V30 1093 N 106.155 4.90378 1.23948 0
M  V30 1094 C 104.453 3.9042 2.15612 0
M  V30 1095 C 105.154 5.71279 1.09616 0
M  V30 1096 N 104.13 5.19389 1.60423 0
M  V30 1097 H 107.932 2.90749 0.42924 0
M  V30 1098 H 105.446 1.6182 0.137184 0
M  V30 1099 H 107.443 3.0029 2.89192 0
M  V30 1100 H 106.103 1.84736 2.67025 0
M  V30 1101 H 107.114 5.09847 0.909731 0
M  V30 1102 H 103.791 3.21043 2.66903 0
M  V30 1103 H 105.181 6.69085 0.614425 0
M  V30 1104 N 107.901 -0.206675 1.56239 0
M  V30 1105 C 109.141 -0.93574 1.81723 0
M  V30 1106 C 109.505 -1.80927 0.642609 0
M  V30 1107 O 110.706 -2.57323 0.777081 0
M  V30 1108 C 108.977 -1.74012 3.12177 0
M  V30 1109 S 110.536 -2.52279 3.59028 0
M  V30 1110 H 107.354 -0.314065 0.637875 0
M  V30 1111 H 109.956 -0.200071 1.94474 0
M  V30 1112 H 108.66 -1.0888 3.95693 0
M  V30 1113 H 108.191 -2.51782 3.02274 0
M  V30 1114 H 110.206 -3.76209 3.23545 0
M  V30 1115 N 109.379 -1.50304 -0.473955 0
M  V30 1116 C 110.628 -1.60392 -1.22301 0
M  V30 1117 C 110.941 -0.308411 -1.93153 0
M  V30 1118 O 112.147 -0.288156 -2.69966 0
M  V30 1119 C 110.603 -2.83109 -2.2221 0
M  V30 1120 C 110.211 -4.19524 -1.57173 0
M  V30 1121 C 111.955 -3.0254 -2.97775 0
M  V30 1122 C 109.862 -5.33431 -2.55353 0
M  V30 1123 H 108.792 -0.597286 -0.460179 0
M  V30 1124 H 111.443 -1.76731 -0.493803 0
M  V30 1125 H 109.825 -2.60322 -2.9841 0
M  V30 1126 H 110.999 -4.52554 -0.867824 0
M  V30 1127 H 109.314 -4.05674 -0.939002 0
M  V30 1128 H 111.911 -3.84811 -3.71248 0
M  V30 1129 H 112.254 -2.14154 -3.56992 0
M  V30 1130 H 112.787 -3.25494 -2.28688 0
M  V30 1131 H 109.526 -6.23962 -2.00878 0
M  V30 1132 H 109.046 -5.04823 -3.23904 0
M  V30 1133 H 110.725 -5.63887 -3.17239 0
M  V30 1134 N 110.857 0.726932 -1.39834 0
M  V30 1135 C 112.082 1.52121 -1.40976 0
M  V30 1136 C 112.507 1.88098 -0.00826029 0
M  V30 1137 O 111.865 1.52479 0.980807 0
M  V30 1138 C 111.913 2.78021 -2.29644 0
M  V30 1139 O 111.017 3.74272 -1.73188 0
M  V30 1140 H 110.358 0.45908 -0.479731 0
M  V30 1141 H 112.888 0.896207 -1.83927 0
M  V30 1142 H 112.898 3.26671 -2.44438 0
M  V30 1143 H 111.573 2.51169 -3.31492 0
M  V30 1144 H 110.15 3.33073 -1.6768 0
M  V30 1145 N 112.336 1.25143 0.95797 0
M  V30 1146 C 113.561 1.12521 1.74223 0
M  V30 1147 C 113.986 -0.317402 1.85403 0
M  V30 1148 O 113.344 -1.2299 1.33204 0
M  V30 1149 C 113.392 1.78062 3.1357 0
M  V30 1150 O 112.496 1.058 3.98598 0
M  V30 1151 H 111.837 0.39304 0.535178 0
M  V30 1152 H 114.367 1.65641 1.201 0
M  V30 1153 H 114.377 1.84213 3.64046 0
M  V30 1154 H 113.052 2.83021 3.04749 0
M  V30 1155 H 111.629 1.07506 3.57067 0
M  V30 1156 N 113.814 -1.1601 1.06675 0
M  V30 1157 C 115.039 -1.91068 0.806706 0
M  V30 1158 C 115.464 -1.77112 -0.633485 0
M  V30 1159 O 114.822 -1.09908 -1.44187 0
M  V30 1160 C 114.87 -3.39655 1.21106 0
M  V30 1161 O 113.974 -4.10893 0.352189 0
M  V30 1162 H 113.315 -0.595125 0.294486 0
M  V30 1163 H 115.845 -1.46955 1.42356 0
M  V30 1164 H 115.855 -3.90434 1.18428 0
M  V30 1165 H 114.53 -3.49132 2.26008 0
M  V30 1166 H 113.107 -3.70285 0.440868 0
M  V30 1167 N 115.292 -0.849877 -1.32721 0
M  V30 1168 C 116.708 -0.539102 -1.50219 0
M  V30 1169 C 116.908 0.931271 -1.78689 0
M  V30 1170 O 115.964 1.71455 -1.85363 0
M  V30 1171 C 117.277 -1.42196 -2.64954 0
M  V30 1172 C 118.825 -1.42189 -2.78839 0
M  V30 1173 C 119.3 -2.28985 -3.96648 0
M  V30 1174 N 120.791 -2.26754 -4.03902 0
M  V30 1175 C 121.526 -2.90644 -4.94281 0
M  V30 1176 N 121.022 -3.63629 -5.897 0
M  V30 1177 N 122.815 -2.80057 -4.87365 0
M  V30 1178 H 114.966 -1.80156 -1.12506 0
M  V30 1179 H 117.229 -0.769217 -0.554085 0
M  V30 1180 H 116.935 -2.46733 -2.50631 0
M  V30 1181 H 116.809 -1.10591 -3.60624 0
M  V30 1182 H 119.196 -0.38419 -2.92588 0
M  V30 1183 H 119.277 -1.77807 -1.83898 0
M  V30 1184 H 118.921 -3.32819 -3.83658 0
M  V30 1185 H 118.851 -1.90702 -4.90857 0
M  V30 1186 H 121.342 -1.73688 -3.3562 0
M  V30 1187 H 121.655 -4.09558 -6.55349 0
M  V30 1188 H 120 -3.67737 -5.89741 0
M  V30 1189 H 123.191 -2.22593 -4.11789 0
M  V30 1190 H 123.364 -3.30132 -5.57599 0
M  V30 1191 N 116.77 1.45427 -0.607355 0
M  V30 1192 C 117.998 2.06614 -0.108814 0
M  V30 1193 C 118.413 1.45204 1.2067 0
M  V30 1194 O 117.77 0.566132 1.73497 0
M  V30 1195 C 117.821 3.61481 0.0375347 0
M  V30 1196 O 117.542 4.20598 -1.22593 0
M  V30 1197 C 119.043 4.39652 0.567561 0
M  V30 1198 H 116.263 0.66747 -0.0687351 0
M  V30 1199 H 118.807 1.86675 -0.835022 0
M  V30 1200 H 116.962 3.80762 0.714068 0
M  V30 1201 H 117.376 5.1377 -1.05547 0
M  V30 1202 H 118.85 5.48518 0.61905 0
M  V30 1203 H 119.327 4.09417 1.58978 0
M  V30 1204 H 119.933 4.25234 -0.0749202 0
M  V30 1205 N 118.248 0.346503 1.53744 0
M  V30 1206 C 119.478 -0.250047 2.05081 0
M  V30 1207 C 119.886 -1.44529 1.22098 0
M  V30 1208 O 119.229 -1.81992 0.249917 0
M  V30 1209 C 119.291 -0.725934 3.52094 0
M  V30 1210 C 118.955 0.350053 4.55657 0
M  V30 1211 C 119.952 1.19372 5.0601 0
M  V30 1212 C 117.637 0.504827 4.99757 0
M  V30 1213 C 119.631 2.17768 5.99046 0
M  V30 1214 C 117.318 1.49218 5.92602 0
M  V30 1215 C 118.316 2.32706 6.42135 0
M  V30 1216 O 118.004 3.2976 7.33153 0
M  V30 1217 H 117.736 -0.0515469 0.674032 0
M  V30 1218 H 120.29 0.497559 1.99282 0
M  V30 1219 H 118.52 -1.52483 3.55367 0
M  V30 1220 H 120.209 -1.24336 3.86388 0
M  V30 1221 H 120.975 1.08525 4.72702 0
M  V30 1222 H 116.854 -0.135178 4.60802 0
M  V30 1223 H 120.398 2.82971 6.37631 0
M  V30 1224 H 116.295 1.6012 6.25325 0
M  V30 1225 H 117.063 3.25265 7.51096 0
M  V30 1226 N 119.726 -1.57421 0.075193 0
M  V30 1227 C 121.142 -1.57099 -0.281444 0
M  V30 1228 C 121.342 -1.08486 -1.69803 0
M  V30 1229 O 120.398 -0.752279 -2.41033 0
M  V30 1230 C 121.711 -3.00571 -0.0880041 0
M  V30 1231 C 123.259 -3.12605 -0.157281 0
M  V30 1232 C 123.734 -4.57999 0.0079207 0
M  V30 1233 N 125.225 -4.63176 -0.0475725 0
M  V30 1234 C 125.96 -5.73373 0.0557876 0
M  V30 1235 N 125.456 -6.92473 0.21286 0
M  V30 1236 N 127.249 -5.621 -0.00152098 0
M  V30 1237 H 119.4 -1.87335 1.00098 0
M  V30 1238 H 121.663 -0.86377 0.390646 0
M  V30 1239 H 121.369 -3.40262 0.889629 0
M  V30 1240 H 121.243 -3.67754 -0.838875 0
M  V30 1241 H 123.63 -2.72798 -1.1254 0
M  V30 1242 H 123.711 -2.48053 0.62475 0
M  V30 1243 H 123.355 -4.98496 0.972824 0
M  V30 1244 H 123.285 -5.20586 -0.793556 0
M  V30 1245 H 125.776 -3.7753 -0.167244 0
M  V30 1246 H 126.089 -7.72279 0.283781 0
M  V30 1247 H 124.434 -6.94556 0.248267 0
M  V30 1248 H 127.625 -4.67938 -0.122958 0
M  V30 1249 H 127.798 -6.47948 0.0824844 0
M  V30 1250 N 121.204 0.198386 -1.56346 0
M  V30 1251 C 122.45 0.920648 -1.80698 0
M  V30 1252 C 122.783 1.83045 -0.648697 0
M  V30 1253 O 122.058 1.91308 0.350925 0
M  V30 1254 C 122.341 1.73971 -3.15287 0
M  V30 1255 C 122.194 0.85485 -4.41602 0
M  V30 1256 C 123.513 2.71296 -3.46535 0
M  V30 1257 H 120.632 0.333261 -0.657348 0
M  V30 1258 H 123.274 0.188198 -1.89066 0
M  V30 1259 H 121.424 2.36416 -3.08285 0
M  V30 1260 H 123.096 0.245362 -4.60647 0
M  V30 1261 H 121.339 0.161398 -4.335 0
M  V30 1262 H 122.01 1.46286 -5.32264 0
M  V30 1263 H 124.486 2.18983 -3.53816 0
M  V30 1264 H 123.362 3.2569 -4.41834 0
M  V30 1265 H 123.623 3.5018 -2.69864 0
M  V30 1266 N 122.682 1.50554 0.465978 0
M  V30 1267 C 123.93 1.61479 1.21528 0
M  V30 1268 C 124.251 0.319596 1.92363 0
M  V30 1269 O 123.521 -0.663194 1.84333 0
M  V30 1270 H 122.101 0.595055 0.451573 0
M  V30 1271 H 124.763 1.87355 0.53704 0
M  V30 1272 H 123.859 2.42846 1.96042 0
M  V30 1273 N 124.16 -0.719506 1.40217 0
M  V30 1274 C 125.09 -1.8465 1.42922 0
M  V30 1275 C 126.071 -1.67599 0.29062 0
M  V30 1276 O 127.256 -1.87688 0.498677 0
M  V30 1277 C 124.386 -3.22565 1.28722 0
M  V30 1278 C 123.34 -3.54281 2.40144 0
M  V30 1279 C 122.666 -4.91298 2.11023 0
M  V30 1280 C 123.966 -3.55676 3.82481 0
M  V30 1281 H 125.66 -1.82644 2.37237 0
M  V30 1282 H 123.206 -0.877305 1.1419 0
M  V30 1283 H 125.159 -4.01095 1.29232 0
M  V30 1284 H 123.883 -3.25137 0.308811 0
M  V30 1285 H 122.542 -2.78088 2.38877 0
M  V30 1286 H 122.19 -4.90468 1.11582 0
M  V30 1287 H 121.89 -5.13485 2.8567 0
M  V30 1288 H 123.414 -5.72166 2.13209 0
M  V30 1289 H 124.828 -4.24254 3.85592 0
M  V30 1290 H 123.225 -3.89388 4.56614 0
M  V30 1291 H 124.295 -2.55144 4.12346 0
M  V30 1292 N 125.638 -1.25649 -0.95132 0
M  V30 1293 C 126.886 -1.10375 -1.69298 0
M  V30 1294 C 127.207 0.355339 -1.91735 0
M  V30 1295 O 126.477 1.25188 -1.50681 0
M  V30 1296 H 125.057 -0.405461 -0.627384 0
M  V30 1297 H 127.719 -1.57823 -1.14358 0
M  V30 1298 H 126.815 -1.61465 -2.67087 0
M  V30 1299 N 127.117 1.15442 -1.07289 0
M  V30 1300 C 128.533 1.38201 -0.798288 0
M  V30 1301 C 128.733 1.92429 0.597769 0
M  V30 1302 O 127.789 2.12962 1.3566 0
M  V30 1303 C 129.102 2.35357 -1.87156 0
M  V30 1304 C 130.65 2.49021 -1.89624 0
M  V30 1305 C 131.125 3.49468 -2.96034 0
M  V30 1306 N 132.616 3.57003 -2.95132 0
M  V30 1307 C 133.351 4.34543 -3.74112 0
M  V30 1308 N 132.847 5.15421 -4.6294 0
M  V30 1309 N 134.64 4.29625 -3.62462 0
M  V30 1310 H 126.791 0.78584 -1.97328 0
M  V30 1311 H 129.054 0.408065 -0.855679 0
M  V30 1312 H 128.76 2.02626 -2.87464 0
M  V30 1313 H 128.634 3.35129 -1.73114 0
M  V30 1314 H 131.021 2.81051 -0.899687 0
M  V30 1315 H 131.102 1.4925 -2.07745 0
M  V30 1316 H 130.746 3.18173 -3.95889 0
M  V30 1317 H 130.676 4.48992 -2.75161 0
M  V30 1318 H 133.167 2.99276 -2.30743 0
M  V30 1319 H 133.48 5.7183 -5.19837 0
M  V30 1320 H 131.825 5.14729 -4.66989 0
M  V30 1321 H 135.016 3.65505 -2.92444 0
M  V30 1322 H 135.189 4.89807 -4.24256 0
M  V30 1323 N 128.595 0.856903 1.32268 0
M  V30 1324 C 129.545 0.274899 2.26337 0
M  V30 1325 C 130.529 -0.580543 1.50062 0
M  V30 1326 O 131.721 -0.429559 1.71708 0
M  V30 1327 C 128.85 -0.533841 3.39124 0
M  V30 1328 C 127.936 0.334114 4.22782 0
M  V30 1329 N 128.327 1.42143 4.85416 0
M  V30 1330 C 126.625 0.124256 4.45827 0
M  V30 1331 C 127.326 1.95559 5.47843 0
M  V30 1332 N 126.302 1.25444 5.28928 0
M  V30 1333 H 130.104 1.10612 2.72291 0
M  V30 1334 H 127.618 0.703258 1.46383 0
M  V30 1335 H 129.615 -0.96722 4.05525 0
M  V30 1336 H 128.275 -1.36283 2.94715 0
M  V30 1337 H 129.286 1.80436 4.85451 0
M  V30 1338 H 125.963 -0.669837 4.12092 0
M  V30 1339 H 127.353 2.86714 6.07655 0
M  V30 1340 N 130.073 -1.45103 0.615059 0
M  V30 1341 C 131.021 -2.32331 -0.111791 0
M  V30 1342 C 132.015 -1.46409 -0.852102 0
M  V30 1343 O 133.221 -1.62849 -0.766821 0
M  V30 1344 H 129.596 -0.749993 -0.0549072 0
M  V30 1345 H 131.567 -2.91407 0.642225 0
M  V30 1346 C 130.316 -3.3015 -1.09071 0
M  V30 1347 H 129.639 -3.96265 -0.530485 0
M  V30 1348 H 131.079 -3.93898 -1.56908 0
M  V30 1349 C 129.538 -2.57875 -2.168 0
M  V30 1350 O 130.068 -2.36567 -3.24652 0
M  V30 1351 N 128.274 -2.17884 -1.92289 0
M  V30 1352 H 127.821 -2.35413 -1.04587 0
M  V30 1353 H 127.779 -1.6985 -2.64572 0
M  V30 1354 N 131.551 -0.354651 -1.53558 0
M  V30 1355 C 132.481 0.489091 -2.2832 0
M  V30 1356 C 133.462 1.09324 -1.30316 0
M  V30 1357 O 134.647 1.11255 -1.59173 0
M  V30 1358 C 131.777 1.63456 -3.0643 0
M  V30 1359 C 130.731 1.1582 -4.12031 0
M  V30 1360 C 130.057 2.39305 -4.7816 0
M  V30 1361 C 131.357 0.250731 -5.21698 0
M  V30 1362 H 133.051 -0.134614 -2.99097 0
M  V30 1363 H 130.597 -0.0661826 -1.43848 0
M  V30 1364 H 132.55 2.23136 -3.57475 0
M  V30 1365 H 131.274 2.28533 -2.33325 0
M  V30 1366 H 129.933 0.584146 -3.61916 0
M  V30 1367 H 129.581 3.02814 -4.01637 0
M  V30 1368 H 129.281 2.08109 -5.49513 0
M  V30 1369 H 130.805 2.99691 -5.31994 0
M  V30 1370 H 132.219 0.754695 -5.68311 0
M  V30 1371 H 130.616 0.0301468 -6.00092 0
M  V30 1372 H 131.686 -0.710125 -4.79672 0
M  V30 1373 N 133.029 1.57378 -0.0835403 0
M  V30 1374 C 134.259 1.97975 0.590713 0
M  V30 1375 C 134.667 0.961083 1.62972 0
M  V30 1376 O 134.01 -0.0590879 1.83605 0
M  V30 1377 C 134.072 3.34915 1.3066 0
M  V30 1378 C 133.736 4.55069 0.419698 0
M  V30 1379 C 134.733 5.18868 -0.32749 0
M  V30 1380 C 132.418 5.0114 0.341137 0
M  V30 1381 C 134.412 6.27098 -1.14134 0
M  V30 1382 C 132.099 6.0924 -0.476374 0
M  V30 1383 C 133.097 6.72083 -1.21627 0
M  V30 1384 O 132.785 7.781 -2.02028 0
M  V30 1385 H 132.517 0.655818 0.163947 0
M  V30 1386 H 135.071 2.04807 -0.156021 0
M  V30 1387 H 133.301 3.24733 2.09966 0
M  V30 1388 H 134.99 3.60037 1.87424 0
M  V30 1389 H 135.756 4.84211 -0.276459 0
M  V30 1390 H 131.635 4.51996 0.90668 0
M  V30 1391 H 135.179 6.7608 -1.71935 0
M  V30 1392 H 131.076 6.43329 -0.528927 0
M  V30 1393 H 131.844 7.95034 -1.94586 0
M  V30 1394 N 134.507 -0.190092 1.56449 0
M  V30 1395 C 135.753 -0.911052 1.81184 0
M  V30 1396 C 136.086 -1.82699 0.658396 0
M  V30 1397 O 135.361 -1.91491 -0.340775 0
M  V30 1398 C 135.644 -1.72297 3.16205 0
M  V30 1399 C 135.497 -0.831419 4.42049 0
M  V30 1400 C 136.816 -2.69454 3.47969 0
M  V30 1401 H 133.935 -0.32977 0.659106 0
M  V30 1402 H 136.577 -0.178169 1.89163 0
M  V30 1403 H 134.727 -2.34778 3.09534 0
M  V30 1404 H 136.399 -0.220929 4.60771 0
M  V30 1405 H 134.642 -0.138406 4.33579 0
M  V30 1406 H 135.313 -1.43461 5.33032 0
M  V30 1407 H 137.789 -2.17104 3.54972 0
M  V30 1408 H 136.665 -3.23342 4.43555 0
M  V30 1409 H 136.926 -3.48744 2.71717 0
M  V30 1410 N 135.985 -1.50799 -0.457987 0
M  V30 1411 C 136.948 -1.7005 -1.53674 0
M  V30 1412 C 137.948 -0.570881 -1.50325 0
M  V30 1413 O 139.138 -0.838126 -1.52712 0
M  V30 1414 C 136.27 -1.73788 -2.93276 0
M  V30 1415 H 137.463 -2.66306 -1.37917 0
M  V30 1416 H 135.016 -1.40477 -0.685271 0
M  V30 1417 H 135.751 -0.792717 -3.14462 0
M  V30 1418 H 135.536 -2.55864 -2.97113 0
M  V30 1419 H 137.026 -1.90591 -3.71571 0
M  V30 1420 N 137.463 0.71206 -1.40597 0
M  V30 1421 C 138.373 1.8562 -1.43466 0
M  V30 1422 C 139.389 1.70902 -0.326902 0
M  V30 1423 O 140.565 1.93105 -0.572043 0
M  V30 1424 C 137.63 3.21451 -1.29884 0
M  V30 1425 C 136.691 3.48398 -2.50833 0
M  V30 1426 C 135.924 4.77749 -2.3789 0
M  V30 1427 O 136.147 5.53089 -1.39459 0
M  V30 1428 O 135.081 5.05111 -3.27333 0
M  V30 1429 H 138.907 1.86155 -2.39958 0
M  V30 1430 H 136.492 0.86295 -1.21957 0
M  V30 1431 H 138.374 4.02579 -1.24531 0
M  V30 1432 H 137.049 3.21636 -0.364997 0
M  V30 1433 H 135.956 2.67265 -2.61763 0
M  V30 1434 H 137.289 3.53014 -3.4299 0
M  V30 1435 N 138.941 1.26152 0.944643 0
M  V30 1436 C 140.166 1.14363 1.7302 0
M  V30 1437 C 140.591 -0.29772 1.85729 0
M  V30 1438 O 139.949 -1.2157 1.34501 0
M  V30 1439 C 139.997 1.81378 3.11664 0
M  V30 1440 O 139.101 1.10022 3.97453 0
M  V30 1441 H 138.442 0.398694 0.53098 0
M  V30 1442 H 140.972 1.66906 1.18337 0
M  V30 1443 H 140.982 1.88064 3.62072 0
M  V30 1444 H 139.657 2.86237 3.0173 0
M  V30 1445 H 138.234 1.11287 3.55907 0
M  V30 1446 N 140.419 -1.14872 1.07899 0
M  V30 1447 C 141.667 -1.85422 0.803941 0
M  V30 1448 C 141.988 -1.83051 -0.67211 0
M  V30 1449 O 141.258 -1.27532 -1.48703 0
M  V30 1450 H 139.838 -0.686537 0.294408 0
M  V30 1451 H 142.5 -1.39226 1.3639 0
M  V30 1452 H 141.596 -2.90399 1.14346 0
M  V30 1453 N 141.898 -0.863906 -1.31812 0
M  V30 1454 C 143.123 -0.48527 -2.01643 0
M  V30 1455 C 143.548 0.913058 -1.64453 0
M  V30 1456 O 142.906 1.6014 -0.849985 0
M  V30 1457 C 142.954 -0.642625 -3.54828 0
M  V30 1458 O 142.058 0.320659 -4.11151 0
M  V30 1459 H 141.399 -0.193793 -0.635091 0
M  V30 1460 H 143.929 -1.16565 -1.68148 0
M  V30 1461 H 143.939 -0.533628 -4.04495 0
M  V30 1462 H 142.614 -1.66227 -3.81237 0
M  V30 1463 H 141.191 0.167126 -3.72525 0
M  V30 1464 N 143.376 1.44774 -0.622745 0
M  V30 1465 C 144.306 2.33382 0.0741861 0
M  V30 1466 C 145.287 1.47719 0.843387 0
M  V30 1467 O 146.472 1.76458 0.810934 0
M  V30 1468 C 143.602 3.30663 1.06204 0
M  V30 1469 C 142.556 4.26079 0.405037 0
M  V30 1470 C 141.882 5.13165 1.5022 0
M  V30 1471 C 143.182 5.1781 -0.683414 0
M  V30 1472 H 144.876 2.91905 -0.665713 0
M  V30 1473 H 142.422 1.40363 -0.321587 0
M  V30 1474 H 144.375 3.9153 1.55827 0
M  V30 1475 H 143.099 2.70331 1.83272 0
M  V30 1476 H 141.758 3.66532 -0.0704683 0
M  V30 1477 H 141.406 4.49191 2.26355 0
M  V30 1478 H 141.106 5.77812 1.06803 0
M  V30 1479 H 142.63 5.76902 2.00041 0
M  V30 1480 H 144.044 5.72661 -0.270631 0
M  V30 1481 H 142.441 5.91015 -1.04023 0
M  V30 1482 H 143.511 4.59326 -1.55395 0
M  V30 1483 N 144.854 0.36279 1.53368 0
M  V30 1484 C 145.817 -0.472679 2.24273 0
M  V30 1485 C 146.817 -1.012 1.24961 0
M  V30 1486 O 148.007 -0.898194 1.49259 0
M  V30 1487 C 145.139 -1.66039 2.97731 0
M  V30 1488 H 146.332 0.14773 2.99536 0
M  V30 1489 H 143.885 0.114434 1.55881 0
M  V30 1490 H 144.62 -2.31896 2.26704 0
M  V30 1491 H 144.405 -1.28066 3.70596 0
M  V30 1492 H 145.895 -2.25252 3.51641 0
M  V30 1493 N 146.332 -1.57332 0.0918853 0
M  V30 1494 C 147.578 -1.94524 -0.573425 0
M  V30 1495 C 147.911 -0.973578 -1.68033 0
M  V30 1496 O 147.186 -0.00609226 -1.94499 0
M  V30 1497 C 147.469 -3.41858 -1.13161 0
M  V30 1498 C 147.322 -4.4979 -0.0299747 0
M  V30 1499 C 148.641 -3.90435 -2.03098 0
M  V30 1500 H 145.76 -0.70734 -0.206975 0
M  V30 1501 H 148.402 -1.89309 0.161942 0
M  V30 1502 H 146.552 -3.46433 -1.7583 0
M  V30 1503 H 148.224 -4.57327 0.604112 0
M  V30 1504 H 146.467 -4.291 0.636833 0
M  V30 1505 H 147.138 -5.50069 -0.461287 0
M  V30 1506 H 149.614 -3.87992 -1.50338 0
M  V30 1507 H 148.49 -4.94097 -2.39081 0
M  V30 1508 H 148.751 -3.29541 -2.94712 0
M  V30 1509 N 147.81 0.181792 -1.56548 0
M  V30 1510 C 149.035 0.920019 -1.85877 0
M  V30 1511 C 149.46 1.75494 -0.677021 0
M  V30 1512 O 148.818 1.77399 0.374056 0
M  V30 1513 C 148.866 1.78112 -3.13542 0
M  V30 1514 O 147.97 2.88152 -2.95029 0
M  V30 1515 H 147.311 0.258334 -0.611686 0
M  V30 1516 H 149.841 0.183092 -2.03779 0
M  V30 1517 H 149.851 2.18314 -3.44678 0
M  V30 1518 H 148.526 1.16777 -3.99169 0
M  V30 1519 H 147.103 2.51609 -2.75222 0
M  V30 1520 N 149.288 1.51039 0.449983 0
M  V30 1521 C 150.534 1.63322 1.20223 0
M  V30 1522 C 150.867 0.34241 1.91158 0
M  V30 1523 O 150.142 -0.657344 1.83055 0
M  V30 1524 C 150.425 2.82801 2.22925 0
M  V30 1525 C 150.278 4.21823 1.56157 0
M  V30 1526 C 151.597 2.97807 3.24035 0
M  V30 1527 H 148.716 0.594407 0.435718 0
M  V30 1528 H 151.358 1.83489 0.493136 0
M  V30 1529 H 149.508 2.65738 2.834 0
M  V30 1530 H 151.18 4.50526 0.991162 0
M  V30 1531 H 149.423 4.25105 0.864172 0
M  V30 1532 H 150.094 5.01391 2.30891 0
M  V30 1533 H 152.57 3.13497 2.73603 0
M  V30 1534 H 151.446 3.82992 3.93202 0
M  V30 1535 H 151.707 2.09328 3.89402 0
M  V30 1536 N 150.766 -0.704594 1.40972 0
M  V30 1537 C 151.991 -1.49858 1.43378 0
M  V30 1538 C 152.416 -1.88061 0.038184 0
M  V30 1539 O 151.774 -1.5402 -0.956425 0
M  V30 1540 C 151.822 -2.74333 2.34038 0
M  V30 1541 O 150.926 -3.7147 1.7912 0
M  V30 1542 H 150.267 -0.45139 0.486974 0
M  V30 1543 H 152.797 -0.866832 1.8533 0
M  V30 1544 H 152.807 -3.22741 2.49604 0
M  V30 1545 H 151.482 -2.45863 3.35446 0
M  V30 1546 H 150.059 -3.30363 1.72958 0
M  V30 1547 N 152.244 -1.26651 -0.937939 0
M  V30 1548 C 153.191 -1.0849 -2.03712 0
M  V30 1549 C 154.161 0.011033 -1.66096 0
M  V30 1550 O 155.346 -0.149353 -1.90215 0
M  V30 1551 C 152.486 -0.72735 -3.37348 0
M  V30 1552 C 151.599 -1.89986 -3.87981 0
M  V30 1553 C 150.734 -1.48513 -5.10017 0
M  V30 1554 C 149.773 -2.62575 -5.5292 0
M  V30 1555 N 148.91 -2.21762 -6.66158 0
M  V30 1556 H 153.75 -2.02551 -2.18579 0
M  V30 1557 H 151.287 -1.00844 -1.07093 0
M  V30 1558 H 153.245 -0.50092 -4.14182 0
M  V30 1559 H 151.875 0.176298 -3.22318 0
M  V30 1560 H 150.927 -2.23913 -3.07518 0
M  V30 1561 H 152.239 -2.75586 -4.15757 0
M  V30 1562 H 151.393 -1.21934 -5.94321 0
M  V30 1563 H 150.132 -0.60009 -4.83994 0
M  V30 1564 H 149.137 -2.8988 -4.67172 0
M  V30 1565 H 150.362 -3.51685 -5.80943 0
M  V30 1566 H 148.308 -1.35696 -6.41812 0
M  V30 1567 H 148.225 -3.00903 -6.93537 0
M  V30 1568 H 149.493 -1.98403 -7.53828 0
M  V30 1569 N 153.722 1.14298 -1.08507 0
M  V30 1570 C 154.971 1.84708 -0.810305 0
M  V30 1571 C 155.284 1.83903 0.666271 0
M  V30 1572 O 156.49 2.50112 1.05624 0
M  V30 1573 C 154.946 3.31572 -1.39957 0
M  V30 1574 C 154.554 3.40791 -2.90801 0
M  V30 1575 C 156.298 4.07087 -1.20334 0
M  V30 1576 C 154.205 4.81872 -3.4286 0
M  V30 1577 H 153.135 0.691985 -0.299454 0
M  V30 1578 H 155.786 1.28841 -1.30661 0
M  V30 1579 H 154.168 3.87183 -0.830976 0
M  V30 1580 H 155.342 2.95225 -3.53806 0
M  V30 1581 H 153.657 2.78732 -3.0935 0
M  V30 1582 H 156.254 5.11225 -1.56693 0
M  V30 1583 H 156.597 4.16054 -0.143237 0
M  V30 1584 H 157.13 3.57779 -1.73893 0
M  V30 1585 H 153.869 4.78094 -4.48449 0
M  V30 1586 H 153.389 5.27972 -2.84615 0
M  V30 1587 H 155.068 5.50765 -3.39509 0
M  V30 1588 N 155.201 0.870884 1.31352 0
M  V30 1589 C 156.447 0.482987 1.96965 0
M  V30 1590 C 156.78 -0.962462 1.68672 0
M  V30 1591 O 156.055 -1.6779 0.98371 0
M  V30 1592 C 156.338 0.741752 3.52378 0
M  V30 1593 C 156.191 2.2368 3.9024 0
M  V30 1594 C 157.51 0.208838 4.39604 0
M  V30 1595 H 154.629 0.176955 0.715441 0
M  V30 1596 H 157.271 1.09229 1.55464 0
M  V30 1597 H 155.421 0.223149 3.87859 0
M  V30 1598 H 157.093 2.82273 3.64856 0
M  V30 1599 H 155.336 2.70901 3.38814 0
M  V30 1600 H 156.007 2.3685 4.98604 0
M  V30 1601 H 158.483 0.652529 4.10952 0
M  V30 1602 H 157.359 0.419336 5.47296 0
M  V30 1603 H 157.62 -0.889275 4.33064 0
M  V30 1604 N 156.679 -1.44442 0.630414 0
M  V30 1605 C 157.925 -2.02351 0.134816 0
M  V30 1606 C 158.258 -1.4947 -1.23986 0
M  V30 1607 O 157.533 -0.678475 -1.82283 0
M  V30 1608 C 157.816 -3.59898 0.120707 0
M  V30 1609 C 157.669 -4.23063 1.52767 0
M  V30 1610 C 158.988 -4.36585 -0.555127 0
M  V30 1611 H 156.107 -0.73527 0.0504646 0
M  V30 1612 H 158.749 -1.72022 0.806751 0
M  V30 1613 H 156.899 -3.85868 -0.451477 0
M  V30 1614 H 158.571 -4.08202 2.14869 0
M  V30 1615 H 156.814 -3.80586 2.08175 0
M  V30 1616 H 157.485 -5.32071 1.46984 0
M  V30 1617 H 159.961 -4.16044 -0.0685429 0
M  V30 1618 H 158.837 -5.46294 -0.534185 0
M  V30 1619 H 159.098 -4.11138 -1.62535 0
M  V30 1620 N 158.157 -0.370918 -1.53173 0
M  V30 1621 C 159.107 0.489588 -2.22681 0
M  V30 1622 C 160.091 1.04442 -1.22395 0
M  V30 1623 O 161.283 0.973578 -1.47819 0
M  V30 1624 C 158.412 1.626 -3.02351 0
M  V30 1625 C 157.498 1.08379 -4.10018 0
M  V30 1626 N 157.889 0.265004 -5.05105 0
M  V30 1627 C 156.187 1.35809 -4.2482 0
M  V30 1628 C 156.888 -0.0324755 -5.81691 0
M  V30 1629 N 155.864 0.566581 -5.40639 0
M  V30 1630 H 159.666 -0.142729 -2.93553 0
M  V30 1631 H 157.18 -0.179221 -1.61408 0
M  V30 1632 H 159.177 2.2547 -3.50669 0
M  V30 1633 H 157.837 2.26132 -2.33011 0
M  V30 1634 H 158.848 -0.0962352 -5.17811 0
M  V30 1635 H 155.525 1.9958 -3.66707 0
M  V30 1636 H 156.915 -0.69473 -6.68299 0
M  V30 1637 N 159.635 1.57281 -0.100228 0
M  V30 1638 C 160.582 2.14305 0.856858 0
M  V30 1639 C 161.552 1.06296 1.27634 0
M  V30 1640 O 162.737 1.34109 1.35718 0
M  V30 1641 C 159.877 2.73184 2.10866 0
M  V30 1642 C 158.99 3.95442 1.73925 0
M  V30 1643 C 158.125 4.42468 2.93931 0
M  V30 1644 C 157.164 5.57303 2.5314 0
M  V30 1645 N 156.301 5.99158 3.65997 0
M  V30 1646 H 161.141 2.95772 0.363726 0
M  V30 1647 H 158.678 1.46139 0.167858 0
M  V30 1648 H 160.636 3.05442 2.84185 0
M  V30 1649 H 159.266 1.94437 2.57671 0
M  V30 1650 H 158.318 3.69464 0.905554 0
M  V30 1651 H 159.63 4.78769 1.39935 0
M  V30 1652 H 158.784 4.76537 3.75496 0
M  V30 1653 H 157.523 3.58052 3.31134 0
M  V30 1654 H 156.528 5.22857 1.70003 0
M  V30 1655 H 157.753 6.43471 2.17075 0
M  V30 1656 H 155.699 5.17687 4.02909 0
M  V30 1657 H 155.616 6.77295 3.35869 0
M  V30 1658 H 156.884 6.3786 4.48057 0
M  V30 1659 N 161.113 -0.173488 1.56642 0
M  V30 1660 C 162.39 -0.917617 1.7274 0
M  V30 1661 C 162.77 -2.00484 0.661027 0
M  V30 1662 O 162.118 -2.26184 -0.32453 0
M  V30 1663 C 162.328 -1.48433 3.15862 0
M  V30 1664 C 163.676 -1.95809 3.76754 0
M  V30 1665 O 164.7 -1.58231 3.19126 0
M  V30 1666 O 163.559 -2.65024 4.77938 0
M  V30 1667 H 160.653 -0.431772 0.705338 0
M  V30 1668 H 163.199 -0.161487 1.6893 0
M  V30 1669 H 161.971 -0.701715 3.84957 0
M  V30 1670 H 161.594 -2.30471 3.23989 0
M  V30 1671 N 162.591 -1.51276 -0.441967 0
M  V30 1672 C 163.837 -1.6492 -1.1905 0
M  V30 1673 C 164.192 -0.358731 -1.89026 0
M  V30 1674 O 163.485 0.645193 -1.8041 0
M  V30 1675 C 163.679 -2.78746 -2.23686 0
M  V30 1676 C 163.508 -4.18737 -1.63979 0
M  V30 1677 C 162.278 -4.84739 -1.42674 0
M  V30 1678 C 164.476 -5.01988 -1.11858 0
M  V30 1679 N 162.458 -6.08858 -0.785159 0
M  V30 1680 C 163.829 -6.17071 -0.601989 0
M  V30 1681 C 165.884 -4.87551 -1.0099 0
M  V30 1682 C 164.587 -7.19299 0.0126012 0
M  V30 1683 C 166.613 -5.89983 -0.409206 0
M  V30 1684 C 165.975 -7.04333 0.0968651 0
M  V30 1685 H 162.074 -0.657416 -0.423471 0
M  V30 1686 H 164.658 -1.8849 -0.48782 0
M  V30 1687 H 162.829 -2.56848 -2.91348 0
M  V30 1688 H 164.561 -2.81595 -2.90666 0
M  V30 1689 H 161.316 -4.42528 -1.68719 0
M  V30 1690 H 161.74 -6.75282 -0.481942 0
M  V30 1691 H 166.382 -3.99401 -1.38703 0
M  V30 1692 H 164.1 -8.071 0.401879 0
M  V30 1693 H 167.686 -5.8088 -0.327079 0
M  V30 1694 H 166.566 -7.82238 0.554373 0
M  V30 1695 N 164.069 0.697108 -1.41344 0
M  V30 1696 C 165.017 1.83237 -1.43272 0
M  V30 1697 C 166.011 1.66522 -0.310947 0
M  V30 1698 O 167.217 1.73402 -0.482899 0
M  V30 1699 H 163.592 0.603802 -0.448249 0
M  V30 1700 H 165.563 1.78727 -2.38954 0
M  V30 1701 C 164.312 3.21245 -1.33029 0
M  V30 1702 H 163.635 3.34723 -2.18633 0
M  V30 1703 H 165.075 4.00763 -1.38439 0
M  V30 1704 C 163.534 3.36873 -0.0424635 0
M  V30 1705 O 164.064 3.91177 0.913421 0
M  V30 1706 N 162.27 2.90581 0.0331145 0
M  V30 1707 H 161.817 2.46577 -0.745506 0
M  V30 1708 H 161.775 3.01416 0.894199 0
M  V30 1709 N 165.547 1.27147 0.931209 0
M  V30 1710 C 166.772 1.16191 1.71797 0
M  V30 1711 C 167.197 -0.278004 1.86034 0
M  V30 1712 O 166.555 -1.20137 1.35782 0
M  V30 1713 C 166.603 1.84673 3.09723 0
M  V30 1714 O 165.707 1.14231 3.96264 0
M  V30 1715 H 165.048 0.404303 0.526721 0
M  V30 1716 H 167.578 1.68152 1.1656 0
M  V30 1717 H 167.588 1.91893 3.60057 0
M  V30 1718 H 166.263 2.89421 2.98677 0
M  V30 1719 H 164.84 1.15056 3.54706 0
M  V30 1720 N 167.025 -1.13721 1.09112 0
M  V30 1721 C 167.973 -2.21103 0.722219 0
M  V30 1722 C 168.967 -1.67147 -0.275374 0
M  V30 1723 O 170.173 -1.79477 -0.137176 0
M  V30 1724 H 166.548 -0.720445 0.215553 0
M  V30 1725 H 168.519 -2.49483 1.63709 0
M  V30 1726 C 167.268 -3.47352 0.15543 0
M  V30 1727 H 166.591 -3.89206 0.914246 0
M  V30 1728 H 168.031 -4.2395 -0.0647967 0
M  V30 1729 C 166.49 -3.1814 -1.10852 0
M  V30 1730 O 167.02 -3.36604 -2.19227 0
M  V30 1731 N 165.226 -2.72045 -1.02176 0
M  V30 1732 H 164.773 -2.57221 -0.139764 0
M  V30 1733 H 164.731 -2.52875 -1.8682 0
M  V30 1734 N 168.503 -0.877838 -1.30888 0
M  V30 1735 C 169.435 -0.296607 -2.27273 0
M  V30 1736 C 170.448 0.544799 -1.53414 0
M  V30 1737 O 171.637 0.365511 -1.74718 0
M  V30 1738 C 168.737 0.597481 -3.33592 0
M  V30 1739 C 167.91 -0.213251 -4.3688 0
M  V30 1740 C 166.969 0.610208 -5.2265 0
M  V30 1741 O 165.995 0.035441 -5.69189 0
M  V30 1742 N 167.197 1.92071 -5.47804 0
M  V30 1743 H 169.962 -1.12492 -2.77787 0
M  V30 1744 H 167.523 -0.740105 -1.43993 0
M  V30 1745 H 169.515 1.15425 -3.87891 0
M  V30 1746 H 168.085 1.32647 -2.83061 0
M  V30 1747 H 167.305 -0.951466 -3.82545 0
M  V30 1748 H 168.593 -0.769262 -5.02951 0
M  V30 1749 H 167.991 2.4107 -5.11763 0
M  V30 1750 H 166.548 2.42508 -6.05007 0
M  V30 1751 N 169.982 1.44106 -0.638065 0
M  V30 1752 C 171.231 2.01194 -0.142744 0
M  V30 1753 C 171.544 1.50835 1.24532 0
M  V30 1754 O 172.75 2.00096 1.83504 0
M  V30 1755 C 171.206 3.59319 -0.20442 0
M  V30 1756 C 170.814 4.18674 -1.59423 0
M  V30 1757 C 172.558 4.23854 0.234079 0
M  V30 1758 C 170.465 5.69045 -1.61065 0
M  V30 1759 H 169.395 0.752367 -0.0495998 0
M  V30 1760 H 172.046 1.65246 -0.797881 0
M  V30 1761 H 170.428 3.92598 0.517946 0
M  V30 1762 H 171.602 3.96921 -2.34074 0
M  V30 1763 H 169.917 3.66453 -1.97741 0
M  V30 1764 H 172.514 5.34155 0.241443 0
M  V30 1765 H 172.857 3.96688 1.2627 0
M  V30 1766 H 173.39 3.95403 -0.436025 0
M  V30 1767 H 170.129 6.00956 -2.61787 0
M  V30 1768 H 169.649 5.929 -0.90718 0
M  V30 1769 H 171.328 6.32809 -1.34766 0
M  V30 1770 N 171.46 0.379036 1.52974 0
M  V30 1771 C 172.685 -0.209353 2.06341 0
M  V30 1772 C 173.11 -1.40583 1.24972 0
M  V30 1773 O 172.468 -1.79246 0.272155 0
M  V30 1774 C 172.516 -0.567786 3.56102 0
M  V30 1775 O 171.62 -1.66318 3.77375 0
M  V30 1776 H 170.961 -0.0272919 0.663439 0
M  V30 1777 H 173.491 0.543536 1.97248 0
M  V30 1778 H 173.501 -0.835003 3.99364 0
M  V30 1779 H 172.176 0.307013 4.14765 0
M  V30 1780 H 170.753 -1.39048 3.46006 0
M  V30 1781 N 172.938 -1.57226 0.108567 0
M  V30 1782 C 173.885 -2.14756 -0.845481 0
M  V30 1783 C 174.855 -1.06971 -1.27068 0
M  V30 1784 O 176.04 -1.34827 -1.35005 0
M  V30 1785 C 173.18 -2.74298 -2.09415 0
M  V30 1786 C 172.293 -3.96358 -1.71826 0
M  V30 1787 C 171.428 -4.44021 -2.9158 0
M  V30 1788 C 170.467 -5.58637 -2.50181 0
M  V30 1789 N 169.604 -6.01091 -3.62814 0
M  V30 1790 H 174.444 -2.95961 -0.348035 0
M  V30 1791 H 171.981 -1.46226 -0.160106 0
M  V30 1792 H 173.939 -3.06945 -2.82561 0
M  V30 1793 H 172.569 -1.95801 -2.56636 0
M  V30 1794 H 171.621 -3.69939 -0.885947 0
M  V30 1795 H 172.933 -4.79504 -1.37394 0
M  V30 1796 H 172.087 -4.78522 -3.72963 0
M  V30 1797 H 170.826 -3.59803 -3.29231 0
M  V30 1798 H 169.831 -5.23751 -1.67228 0
M  V30 1799 H 171.056 -6.44613 -2.13659 0
M  V30 1800 H 169.002 -5.19817 -4.00158 0
M  V30 1801 H 168.919 -6.79066 -3.32273 0
M  V30 1802 H 170.187 -6.40227 -4.44668 0
M  V30 1803 N 174.416 0.165178 -1.56732 0
M  V30 1804 C 175.664 0.879068 -1.8198 0
M  V30 1805 C 175.985 1.82514 -0.686561 0
M  V30 1806 O 175.255 1.93694 0.293146 0
M  V30 1807 H 173.835 0.327608 -0.671329 0
M  V30 1808 H 176.497 0.163526 -1.94213 0
M  V30 1809 H 175.593 1.45228 -2.76252 0
M  V30 1810 N 175.894 1.51508 0.433938 0
M  V30 1811 C 176.842 1.73646 1.54757 0
M  V30 1812 C 177.836 0.602854 1.5831 0
M  V30 1813 O 179.042 0.784318 1.62014 0
M  V30 1814 H 175.417 0.548718 0.51421 0
M  V30 1815 H 177.388 2.66991 1.33261 0
M  V30 1816 C 176.137 1.88172 2.92381 0
M  V30 1817 H 175.46 2.74808 2.90381 0
M  V30 1818 H 176.9 2.07672 3.6966 0
M  V30 1819 C 175.359 0.64239 3.30719 0
M  V30 1820 O 175.889 -0.201362 4.01195 0
M  V30 1821 N 174.095 0.485489 2.86516 0
M  V30 1822 H 173.642 1.17318 2.29334 0
M  V30 1823 H 173.6 -0.342482 3.12529 0
M  V30 1824 N 177.372 -0.689602 1.41712 0
M  V30 1825 C 178.649 -1.44457 1.31877 0
M  V30 1826 C 179.029 -2.11039 -0.0508537 0
M  V30 1827 O 178.377 -2.02138 -1.06547 0
M  V30 1828 C 178.587 -2.45913 2.47645 0
M  V30 1829 C 179.935 -3.10991 2.89084 0
M  V30 1830 O 180.959 -2.56238 2.47428 0
M  V30 1831 O 179.818 -4.10174 3.61137 0
M  V30 1832 H 176.912 -0.64362 0.519309 0
M  V30 1833 H 179.458 -0.719576 1.53689 0
M  V30 1834 H 178.23 -1.95409 3.39015 0
M  V30 1835 H 177.853 -3.25913 2.27742 0
M  V30 1836 N 178.85 -1.27639 -0.924453 0
M  V30 1837 C 180.099 -1.13549 -1.66702 0
M  V30 1838 C 180.412 0.317487 -1.93006 0
M  V30 1839 O 181.618 0.579333 -2.65247 0
M  V30 1840 C 180.074 -1.98426 -3.00259 0
M  V30 1841 C 179.682 -3.484 -2.81641 0
M  V30 1842 C 181.426 -1.92993 -3.78092 0
M  V30 1843 C 179.333 -4.25464 -4.10773 0
M  V30 1844 H 178.263 -0.421351 -0.625283 0
M  V30 1845 H 180.914 -1.52085 -1.02676 0
M  V30 1846 H 179.296 -1.52736 -3.6536 0
M  V30 1847 H 180.47 -4.01973 -2.25287 0
M  V30 1848 H 178.785 -3.55245 -2.17232 0
M  V30 1849 H 181.382 -2.47844 -4.7379 0
M  V30 1850 H 181.725 -0.904281 -4.0636 0
M  V30 1851 H 182.258 -2.36595 -3.19793 0
M  V30 1852 H 178.997 -5.28566 -3.87683 0
M  V30 1853 H 178.517 -3.76667 -4.66779 0
M  V30 1854 H 180.196 -4.34812 -4.79111 0
M  V30 1855 N 180.328 1.1314 -1.09713 0
M  V30 1856 C 181.291 2.16831 -0.742751 0
M  V30 1857 C 182.291 1.59159 0.229129 0
M  V30 1858 O 183.481 1.74199 0.00693237 0
M  V30 1859 C 180.613 3.40756 -0.0989168 0
M  V30 1860 H 181.806 2.49695 -1.66109 0
M  V30 1861 H 179.359 1.2802 -0.896699 0
M  V30 1862 H 180.094 3.13485 0.830514 0
M  V30 1863 H 179.879 3.83888 -0.798265 0
M  V30 1864 H 181.369 4.17386 0.133524 0
M  V30 1865 N 181.806 0.884767 1.30421 0
M  V30 1866 C 182.736 0.367574 2.30589 0
M  V30 1867 C 183.717 -0.549464 1.60981 0
M  V30 1868 O 184.902 -0.46336 1.88591 0
M  V30 1869 C 182.032 -0.418944 3.44764 0
M  V30 1870 C 180.986 0.406316 4.26067 0
M  V30 1871 C 180.312 -0.506793 5.32293 0
M  V30 1872 C 181.612 1.64832 4.95608 0
M  V30 1873 H 183.306 1.20462 2.74097 0
M  V30 1874 H 180.852 0.580695 1.31772 0
M  V30 1875 H 182.805 -0.791395 4.13902 0
M  V30 1876 H 181.529 -1.28964 3.0006 0
M  V30 1877 H 180.188 0.760903 3.58617 0
M  V30 1878 H 179.836 -1.37519 4.83836 0
M  V30 1879 H 179.536 0.0415828 5.87585 0
M  V30 1880 H 181.06 -0.875764 6.04287 0
M  V30 1881 H 182.474 1.34646 5.57264 0
M  V30 1882 H 180.871 2.13688 5.60765 0
M  V30 1883 H 181.941 2.39284 4.21748 0
M  V30 1884 N 183.284 -1.43765 0.645699 0
M  V30 1885 C 184.214 -2.33471 -0.0370477 0
M  V30 1886 C 185.195 -1.49042 -0.819779 0
M  V30 1887 O 186.38 -1.77726 -0.782758 0
M  V30 1888 C 183.51 -3.32311 -1.0093 0
M  V30 1889 C 182.464 -4.2667 -0.337201 0
M  V30 1890 C 181.79 -5.1549 -1.42037 0
M  V30 1891 C 183.09 -5.16657 0.765706 0
M  V30 1892 H 184.784 -2.90809 0.712069 0
M  V30 1893 H 182.33 -1.39834 0.343876 0
M  V30 1894 H 184.283 -3.9396 -1.49578 0
M  V30 1895 H 183.007 -2.73213 -1.78948 0
M  V30 1896 H 181.666 -3.66374 0.128771 0
M  V30 1897 H 181.314 -4.52735 -2.1918 0
M  V30 1898 H 181.014 -5.79438 -0.975966 0
M  V30 1899 H 182.538 -5.80012 -1.90838 0
M  V30 1900 H 183.952 -5.72158 0.361702 0
M  V30 1901 H 182.349 -5.89286 1.13413 0
M  V30 1902 H 183.419 -4.56796 1.62683 0
M  V30 1903 N 184.763 -0.387143 -1.52771 0
M  V30 1904 C 185.71 0.449048 -2.26389 0
M  V30 1905 C 186.68 1.05961 -1.27912 0
M  V30 1906 O 187.865 1.08804 -1.56737 0
M  V30 1907 C 185.005 1.57155 -3.0724 0
M  V30 1908 C 184.118 0.984066 -4.20643 0
M  V30 1909 C 183.253 2.07745 -4.88892 0
M  V30 1910 C 182.292 1.46574 -5.94292 0
M  V30 1911 N 181.429 2.49834 -6.56146 0
M  V30 1912 H 186.269 -0.185205 -2.97424 0
M  V30 1913 H 183.806 -0.103164 -1.46738 0
M  V30 1914 H 185.764 2.23309 -3.52405 0
M  V30 1915 H 184.394 2.17615 -2.38419 0
M  V30 1916 H 183.446 0.212193 -3.79808 0
M  V30 1917 H 184.758 0.497029 -4.96318 0
M  V30 1918 H 183.912 2.81673 -5.3735 0
M  V30 1919 H 182.651 2.59807 -4.12737 0
M  V30 1920 H 181.656 0.711696 -5.45174 0
M  V30 1921 H 182.881 0.953088 -6.72379 0
M  V30 1922 H 180.827 3.0107 -5.82832 0
M  V30 1923 H 180.744 2.05879 -7.27427 0
M  V30 1924 H 182.012 3.23399 -7.09249 0
M  V30 1925 N 186.241 1.57166 -0.116904 0
M  V30 1926 C 187.171 2.18222 0.830759 0
M  V30 1927 C 188.152 1.12167 1.27877 0
M  V30 1928 O 189.337 1.40394 1.34176 0
M  V30 1929 C 186.467 2.77996 2.08172 0
M  V30 1930 C 185.421 3.89614 1.77157 0
M  V30 1931 C 184.747 4.36187 3.09265 0
M  V30 1932 C 186.047 5.1181 1.04151 0
M  V30 1933 H 187.741 2.97664 0.321992 0
M  V30 1934 H 185.287 1.4318 0.153434 0
M  V30 1935 H 187.24 3.19366 2.74924 0
M  V30 1936 H 185.964 1.9584 2.6137 0
M  V30 1937 H 184.623 3.48816 1.12796 0
M  V30 1938 H 184.271 3.50893 3.60393 0
M  V30 1939 H 183.971 5.11455 2.89288 0
M  V30 1940 H 185.495 4.80207 3.77139 0
M  V30 1941 H 186.909 5.50214 1.61052 0
M  V30 1942 H 185.306 5.92648 0.942762 0
M  V30 1943 H 186.376 4.84892 0.0279022 0
M  V30 1944 N 187.719 -0.156864 1.56817 0
M  V30 1945 C 188.682 -1.17781 1.96622 0
M  V30 1946 C 189.682 -1.36401 0.851555 0
M  V30 1947 O 190.872 -1.33561 1.11836 0
M  V30 1948 C 188.004 -2.54008 2.27361 0
M  V30 1949 H 189.197 -0.836564 2.87996 0
M  V30 1950 H 186.75 -0.39985 1.51099 0
M  V30 1951 H 187.485 -2.9312 1.38748 0
M  V30 1952 H 187.27 -2.41856 3.08623 0
M  V30 1953 H 188.76 -3.27558 2.59029 0
M  V30 1954 N 189.197 -1.51736 -0.425897 0
M  V30 1955 C 190.145 -1.74464 -1.53834 0
M  V30 1956 C 191.139 -0.611241 -1.57988 0
M  V30 1957 O 192.345 -0.792899 -1.61596 0
M  V30 1958 H 188.72 -0.551437 -0.511293 0
M  V30 1959 H 190.691 -2.67694 -1.31843 0
M  V30 1960 C 189.44 -1.8972 -2.91379 0
M  V30 1961 H 188.763 -2.76344 -2.88919 0
M  V30 1962 H 190.203 -2.09629 -3.68553 0
M  V30 1963 C 188.662 -0.65992 -3.30374 0
M  V30 1964 O 189.192 0.180083 -4.01296 0
M  V30 1965 N 187.398 -0.500677 -2.86254 0
M  V30 1966 H 186.945 -1.18532 -2.28709 0
M  V30 1967 H 186.903 0.325903 -3.12706 0
M  V30 1968 N 190.675 0.682077 -1.42076 0
M  V30 1969 C 192.086 1.26246 -1.37546 0
M  V30 1970 C 192.437 1.96092 -0.0651481 0
M  V30 1971 O 191.562 1.99587 0.836297 0
M  V30 1972 C 192.157 2.29594 -2.49143 0
M  V30 1973 C 190.716 2.83175 -2.47969 0
M  V30 1974 C 189.863 1.57395 -2.28303 0
M  V30 1975 H 192.814 0.475937 -1.51395 0
M  V30 1976 H 192.835 3.11175 -2.18976 0
M  V30 1977 H 192.347 1.78729 -3.44496 0
M  V30 1978 H 190.448 3.3818 -1.56413 0
M  V30 1979 H 190.561 3.32687 -3.44755 0
M  V30 1980 H 188.925 1.83699 -1.76428 0
M  V30 1981 H 189.708 1.08507 -3.25701 0
M  V30 1982 N 192.153 1.28127 0.917671 0
M  V30 1983 C 193.399 1.15223 1.66888 0
M  V30 1984 C 193.732 -0.299293 1.9188 0
M  V30 1985 O 193.007 -1.21805 1.51637 0
M  V30 1986 C 193.29 1.94706 3.02922 0
M  V30 1987 C 193.143 3.47898 2.85109 0
M  V30 1988 C 194.462 1.75939 4.03402 0
M  V30 1989 H 191.581 0.419946 0.605652 0
M  V30 1990 H 194.223 1.57398 1.06423 0
M  V30 1991 H 192.373 1.58864 3.54534 0
M  V30 1992 H 194.045 3.93624 2.40537 0
M  V30 1993 H 192.288 3.7373 2.20246 0
M  V30 1994 H 192.959 3.98765 3.81694 0
M  V30 1995 H 195.435 2.07209 3.60837 0
M  V30 1996 H 194.311 2.33931 4.96556 0
M  V30 1997 H 194.572 0.709877 4.36364 0
M  V30 1998 N 193.631 -1.12557 1.10312 0
M  V30 1999 C 194.856 -1.88405 0.867085 0
M  V30 2000 C 195.281 -1.79038 -0.576817 0
M  V30 2001 O 194.639 -1.14439 -1.40618 0
M  V30 2002 C 194.687 -3.3563 1.31851 0
M  V30 2003 O 193.791 -4.09565 0.482734 0
M  V30 2004 H 193.132 -0.585455 0.313271 0
M  V30 2005 H 195.662 -1.42352 1.4696 0
M  V30 2006 H 195.672 -3.86469 1.3079 0
M  V30 2007 H 194.347 -3.41765 2.37001 0
M  V30 2008 H 192.924 -3.68695 0.558448 0
M  V30 2009 N 195.109 -0.891671 -1.2995 0
M  V30 2010 C 196.039 -0.379797 -2.30391 0
M  V30 2011 C 197.02 0.540919 -1.6127 0
M  V30 2012 O 198.205 0.453352 -1.88834 0
M  V30 2013 C 195.335 0.400654 -3.44981 0
M  V30 2014 C 194.289 -0.428905 -4.25846 0
M  V30 2015 C 193.615 0.478557 -5.32554 0
M  V30 2016 C 194.915 -1.67458 -4.94727 0
M  V30 2017 H 196.609 -1.21914 -2.73454 0
M  V30 2018 H 194.155 -0.587675 -1.31462 0
M  V30 2019 H 196.108 0.769434 -4.14316 0
M  V30 2020 H 194.832 1.27371 -3.0074 0
M  V30 2021 H 193.491 -0.779911 -3.58208 0
M  V30 2022 H 193.139 1.34951 -4.84559 0
M  V30 2023 H 192.839 -0.0727433 -5.87555 0
M  V30 2024 H 194.363 0.843705 -6.04743 0
M  V30 2025 H 195.777 -1.376 -5.56542 0
M  V30 2026 H 194.174 -2.16659 -5.59624 0
M  V30 2027 H 195.244 -2.41518 -4.20473 0
M  V30 2028 N 196.587 1.43421 -0.653314 0
M  V30 2029 C 197.815 2.06163 -0.174491 0
M  V30 2030 C 198.23 1.48969 1.1599 0
M  V30 2031 O 197.587 0.621042 1.71608 0
M  V30 2032 C 197.638 3.61417 -0.0774865 0
M  V30 2033 O 197.359 4.16485 -1.35912 0
M  V30 2034 C 198.86 4.41235 0.427402 0
M  V30 2035 H 196.08 0.664946 -0.0899353 0
M  V30 2036 H 198.624 1.83924 -0.893988 0
M  V30 2037 H 196.779 3.82841 0.59257 0
M  V30 2038 H 197.193 5.10153 -1.21839 0
M  V30 2039 H 198.667 5.5021 0.44423 0
M  V30 2040 H 199.144 4.14268 1.45873 0
M  V30 2041 H 199.75 4.2478 -0.210167 0
M  V30 2042 N 198.065 0.39524 1.52563 0
M  V30 2043 C 199.342 -0.242908 1.94086 0
M  V30 2044 C 199.722 -1.63841 1.33114 0
M  V30 2045 O 199.07 -2.22928 0.501529 0
M  V30 2046 C 199.28 -0.26327 3.48006 0
M  V30 2047 C 200.628 -0.489354 4.21771 0
M  V30 2048 O 201.652 -0.343226 3.54543 0
M  V30 2049 O 200.511 -0.776169 5.4096 0
M  V30 2050 H 197.605 -0.152536 0.812811 0
M  V30 2051 H 200.151 0.450178 1.6362 0
M  V30 2052 H 198.923 0.713985 3.84731 0
M  V30 2053 H 198.546 -1.00103 3.84792 0
M  V30 2054 N 199.544 -1.57102 0.125237 0
M  V30 2055 C 200.491 -2.15641 -0.822655 0
M  V30 2056 C 201.461 -1.08313 -1.25927 0
M  V30 2057 O 202.646 -1.36251 -1.33567 0
M  V30 2058 C 199.786 -2.76504 -2.06494 0
M  V30 2059 C 198.899 -3.98158 -1.67612 0
M  V30 2060 C 198.034 -4.47088 -2.86854 0
M  V30 2061 C 197.073 -5.6126 -2.44242 0
M  V30 2062 N 196.21 -6.04905 -3.56419 0
M  V30 2063 H 201.05 -2.96313 -0.316625 0
M  V30 2064 H 198.587 -1.46388 -0.144588 0
M  V30 2065 H 200.545 -3.09925 -2.79289 0
M  V30 2066 H 199.175 -1.98512 -2.54545 0
M  V30 2067 H 198.227 -3.70858 -0.846661 0
M  V30 2068 H 199.539 -4.80934 -1.32301 0
M  V30 2069 H 198.693 -4.82451 -3.67867 0
M  V30 2070 H 197.432 -3.63275 -3.25396 0
M  V30 2071 H 196.437 -5.25495 -1.61663 0
M  V30 2072 H 197.662 -6.46843 -2.0681 0
M  V30 2073 H 195.608 -5.24032 -3.94623 0
M  V30 2074 H 195.525 -6.82552 -3.25051 0
M  V30 2075 H 196.793 -6.44907 -4.37853 0
M  V30 2076 N 201.022 0.148545 -1.56898 0
M  V30 2077 C 202.271 0.85984 -1.82454 0
M  V30 2078 C 202.584 1.82406 -0.706229 0
M  V30 2079 O 203.79 2.57938 -0.847349 0
M  V30 2080 C 202.246 1.57967 -3.2338 0
M  V30 2081 C 201.854 0.65794 -4.43142 0
M  V30 2082 C 203.598 2.27784 -3.58211 0
M  V30 2083 C 201.505 1.3793 -5.75091 0
M  V30 2084 H 200.435 0.324834 -0.68044 0
M  V30 2085 H 203.086 0.112588 -1.83154 0
M  V30 2086 H 201.468 2.37249 -3.17063 0
M  V30 2087 H 202.642 -0.0995497 -4.60692 0
M  V30 2088 H 200.957 0.0682643 -4.16344 0
M  V30 2089 H 203.554 2.8239 -4.54048 0
M  V30 2090 H 203.897 3.04204 -2.84193 0
M  V30 2091 H 204.43 1.55421 -3.66182 0
M  V30 2092 H 201.169 0.656982 -6.52199 0
M  V30 2093 H 200.689 2.10954 -5.61479 0
M  V30 2094 H 202.368 1.92063 -6.17835 0
M  V30 2095 N 202.5 1.5196 0.417844 0
M  V30 2096 C 203.432 1.70895 1.52733 0
M  V30 2097 C 204.445 0.589405 1.51756 0
M  V30 2098 O 205.634 0.864312 1.56179 0
M  V30 2099 C 202.734 1.72627 2.91639 0
M  V30 2100 C 201.907 3.01479 3.16905 0
M  V30 2101 C 200.966 2.95139 4.35637 0
M  V30 2102 O 199.992 3.69059 4.3334 0
M  V30 2103 N 201.194 2.12328 5.40275 0
M  V30 2104 H 203.959 2.66612 1.36888 0
M  V30 2105 H 201.52 1.50089 0.607037 0
M  V30 2106 H 203.512 1.65928 3.6912 0
M  V30 2107 H 202.082 0.844216 3.00985 0
M  V30 2108 H 201.302 3.21895 2.27546 0
M  V30 2109 H 202.59 3.86736 3.30625 0
M  V30 2110 H 201.988 1.51685 5.44985 0
M  V30 2111 H 200.545 2.11494 6.16534 0
M  V30 2112 N 203.978 -0.674533 1.42435 0
M  V30 2113 C 204.908 -1.80009 1.48724 0
M  V30 2114 C 205.889 -1.6659 0.343793 0
M  V30 2115 O 207.074 -1.86007 0.558137 0
M  V30 2116 C 204.204 -3.18306 1.38919 0
M  V30 2117 C 203.158 -3.46461 2.51294 0
M  V30 2118 C 202.484 -4.84335 2.26547 0
M  V30 2119 C 203.784 -3.43328 3.93603 0
M  V30 2120 H 205.478 -1.75004 2.42928 0
M  V30 2121 H 203.024 -0.840533 1.16923 0
M  V30 2122 H 204.977 -3.9678 1.41927 0
M  V30 2123 H 203.701 -3.2399 0.412094 0
M  V30 2124 H 202.36 -2.70348 2.47604 0
M  V30 2125 H 202.008 -4.86669 1.2713 0
M  V30 2126 H 201.708 -5.04136 3.01861 0
M  V30 2127 H 203.232 -5.65094 2.31304 0
M  V30 2128 H 204.646 -4.11772 3.98894 0
M  V30 2129 H 203.043 -3.74664 4.68771 0
M  V30 2130 H 204.113 -2.41897 4.20255 0
M  V30 2131 N 205.456 -1.28612 -0.910864 0
M  V30 2132 C 206.419 -1.12803 -1.9952 0
M  V30 2133 C 207.419 -0.0668264 -1.60661 0
M  V30 2134 O 208.609 -0.312847 -1.71368 0
M  V30 2135 C 205.741 -0.72254 -3.33155 0
M  V30 2136 H 206.934 -2.09109 -2.14973 0
M  V30 2137 H 204.487 -1.11639 -1.09391 0
M  V30 2138 H 205.222 0.241152 -3.23402 0
M  V30 2139 H 205.007 -1.48916 -3.62721 0
M  V30 2140 H 206.497 -0.634666 -4.12749 0
M  V30 2141 N 206.934 1.1197 -1.10907 0
M  V30 2142 C 208.174 1.85224 -0.864378 0
M  V30 2143 C 208.538 1.82411 0.599178 0
M  V30 2144 O 209.739 2.51057 0.960416 0
M  V30 2145 C 208.01 3.2868 -1.40371 0
M  V30 2146 S 209.569 4.1925 -1.29518 0
M  V30 2147 H 206.387 0.63878 -0.312219 0
M  V30 2148 H 208.989 1.3485 -1.41548 0
M  V30 2149 H 207.693 3.28289 -2.46281 0
M  V30 2150 H 207.224 3.84121 -0.849402 0
M  V30 2151 H 209.239 4.95539 -0.256059 0
M  V30 2152 N 208.412 0.89855 1.29475 0
M  V30 2153 C 209.342 0.39201 2.30186 0
M  V30 2154 C 210.323 -0.532359 1.61555 0
M  V30 2155 O 211.508 -0.443331 1.89072 0
M  V30 2156 C 208.638 -0.382353 3.45189 0
M  V30 2157 C 207.592 0.451483 4.25612 0
M  V30 2158 C 206.918 -0.450307 5.328 0
M  V30 2159 C 208.218 1.70079 4.93832 0
M  V30 2160 H 209.912 1.23362 2.72804 0
M  V30 2161 H 207.458 0.594638 1.31149 0
M  V30 2162 H 209.411 -0.747451 4.14718 0
M  V30 2163 H 208.135 -1.25774 3.01411 0
M  V30 2164 H 206.794 0.798897 3.57789 0
M  V30 2165 H 206.442 -1.32379 4.85268 0
M  V30 2166 H 206.142 0.103902 5.87508 0
M  V30 2167 H 207.666 -0.811623 6.05182 0
M  V30 2168 H 209.08 1.40549 5.55805 0
M  V30 2169 H 207.477 2.19623 5.58467 0
M  V30 2170 H 208.547 2.43744 4.19186 0
M  V30 2171 N 209.89 -1.43072 0.660911 0
M  V30 2172 C 211.301 -1.84932 0.256348 0
M  V30 2173 C 211.652 -1.55325 -1.19868 0
M  V30 2174 O 210.777 -1.00607 -1.91591 0
M  V30 2175 C 211.372 -3.35684 0.458475 0
M  V30 2176 C 209.931 -3.76245 0.108161 0
M  V30 2177 C 209.078 -2.66749 0.757641 0
M  V30 2178 H 212.029 -1.33116 0.864051 0
M  V30 2179 H 212.05 -3.79365 -0.293683 0
M  V30 2180 H 211.562 -3.572 1.51755 0
M  V30 2181 H 209.663 -3.60338 -0.948014 0
M  V30 2182 H 209.776 -4.76058 0.538992 0
M  V30 2183 H 208.14 -2.53989 0.190185 0
M  V30 2184 H 208.923 -2.91092 1.81989 0
M  V30 2185 N 211.368 -0.403325 -1.52352 0
M  V30 2186 C 212.779 0.0675782 -1.86578 0
M  V30 2187 C 213.13 1.44941 -1.32236 0
M  V30 2188 O 212.255 2.06112 -0.659307 0
M  V30 2189 C 212.85 0.129404 -3.38553 0
M  V30 2190 C 211.409 0.544629 -3.72439 0
M  V30 2191 C 210.556 -0.284551 -2.75836 0
M  V30 2192 H 213.507 -0.620631 -1.46061 0
M  V30 2193 H 213.528 0.94581 -3.68558 0
M  V30 2194 H 213.04 -0.87645 -3.78074 0
M  V30 2195 H 211.141 1.55734 -3.38493 0
M  V30 2196 H 211.254 0.293046 -4.78203 0
M  V30 2197 H 209.618 0.252258 -2.53448 0
M  V30 2198 H 210.401 -1.28865 -3.18196 0
M  V30 2199 N 212.846 1.57033 -0.133567 0
M  V30 2200 C 213.809 2.14897 0.796995 0
M  V30 2201 C 214.809 1.0874 1.18458 0
M  V30 2202 O 215.999 1.34446 1.1077 0
M  V30 2203 C 213.131 2.70112 2.07973 0
M  V30 2204 H 214.324 2.98457 0.293873 0
M  V30 2205 H 211.877 1.55871 0.115787 0
M  V30 2206 H 212.612 1.9018 2.62682 0
M  V30 2207 H 212.397 3.47764 1.81115 0
M  V30 2208 H 213.887 3.14738 2.74462 0
M  V30 2209 N 214.325 -0.140222 1.56975 0
M  V30 2210 C 215.573 -0.850005 1.83356 0
M  V30 2211 C 215.894 -1.81399 0.71551 0
M  V30 2212 O 215.164 -1.94136 -0.262294 0
M  V30 2213 H 213.744 -0.316886 0.676456 0
M  V30 2214 H 216.406 -0.132608 1.94448 0
M  V30 2215 H 215.502 -1.40814 2.78528 0
M  V30 2216 N 215.803 -1.52179 -0.40978 0
M  V30 2217 C 217.031 -1.70054 -1.17853 0
M  V30 2218 C 217.446 -0.409735 -1.843 0
M  V30 2219 O 216.803 0.614183 -1.71855 0
M  V30 2220 C 216.854 -2.83568 -2.24213 0
M  V30 2221 O 216.575 -4.0765 -1.60478 0
M  V30 2222 C 218.076 -3.12947 -3.13973 0
M  V30 2223 H 215.296 -0.569917 -0.354169 0
M  V30 2224 H 217.84 -1.98734 -0.482198 0
M  V30 2225 H 215.995 -2.57409 -2.89516 0
M  V30 2226 H 216.409 -4.70899 -2.30986 0
M  V30 2227 H 217.883 -3.95889 -3.84677 0
M  V30 2228 H 218.36 -2.26472 -3.76307 0
M  V30 2229 H 218.966 -3.40868 -2.5434 0
M  V30 2230 N 217.281 0.66697 -1.42791 0
M  V30 2231 C 218.53 1.42278 -1.42968 0
M  V30 2232 C 218.843 1.9553 -0.0524489 0
M  V30 2233 O 220.049 2.71414 0.068363 0
M  V30 2234 C 218.505 2.57418 -2.51524 0
M  V30 2235 C 218.113 2.10832 -3.9529 0
M  V30 2236 C 219.857 3.34878 -2.60877 0
M  V30 2237 C 217.764 3.23101 -4.95338 0
M  V30 2238 H 216.694 0.534533 -0.531781 0
M  V30 2239 H 219.345 0.721302 -1.68729 0
M  V30 2240 H 217.727 3.29971 -2.18941 0
M  V30 2241 H 218.901 1.4538 -4.37266 0
M  V30 2242 H 217.216 1.46289 -3.89857 0
M  V30 2243 H 219.813 4.18505 -3.32802 0
M  V30 2244 H 220.156 3.81993 -1.6549 0
M  V30 2245 H 220.689 2.69398 -2.92693 0
M  V30 2246 H 217.428 2.80969 -5.9223 0
M  V30 2247 H 216.948 3.87309 -4.57987 0
M  V30 2248 H 218.627 3.88447 -5.17415 0
M  V30 2249 N 218.759 1.29093 0.90403 0
M  V30 2250 C 219.689 1.16401 2.02418 0
M  V30 2251 C 220.67 0.0593085 1.69997 0
M  V30 2252 O 221.855 0.238021 1.92736 0
M  V30 2253 C 218.985 0.835233 3.37107 0
M  V30 2254 C 217.939 1.89578 3.83724 0
M  V30 2255 C 217.265 1.42041 5.15489 0
M  V30 2256 C 218.565 3.30394 4.04521 0
M  V30 2257 H 220.259 2.10109 2.13295 0
M  V30 2258 H 217.805 1.01157 1.02486 0
M  V30 2259 H 219.758 0.733169 4.14973 0
M  V30 2260 H 218.482 -0.137543 3.2631 0
M  V30 2261 H 217.141 1.98715 3.08071 0
M  V30 2262 H 216.789 0.436426 5.01103 0
M  V30 2263 H 216.489 2.12964 5.4765 0
M  V30 2264 H 218.013 1.33176 5.959 0
M  V30 2265 H 219.427 3.24123 4.72882 0
M  V30 2266 H 217.824 3.99237 4.48029 0
M  V30 2267 H 218.894 3.73692 3.09002 0
M  V30 2268 N 220.237 -1.11381 1.11499 0
M  V30 2269 C 221.648 -1.6465 0.880191 0
M  V30 2270 C 221.999 -1.87199 -0.587434 0
M  V30 2271 O 221.124 -1.60667 -1.44966 0
M  V30 2272 C 221.719 -2.99105 1.59128 0
M  V30 2273 C 220.278 -3.49279 1.40289 0
M  V30 2274 C 219.425 -2.24077 1.63354 0
M  V30 2275 H 222.376 -0.950123 1.27116 0
M  V30 2276 H 222.397 -3.66107 1.03664 0
M  V30 2277 H 221.909 -2.82661 2.65941 0
M  V30 2278 H 220.01 -3.70887 0.356888 0
M  V30 2279 H 220.123 -4.2803 2.15238 0
M  V30 2280 H 218.487 -2.31733 1.05698 0
M  V30 2281 H 219.27 -2.10175 2.71443 0
M  V30 2282 N 221.715 -0.905404 -1.28997 0
M  V30 2283 C 222.663 -0.377431 -2.29517 0
M  V30 2284 C 223.657 0.526461 -1.61012 0
M  V30 2285 O 224.863 0.40863 -1.753 0
M  V30 2286 H 221.238 -0.103437 -0.744852 0
M  V30 2287 H 223.209 -1.23848 -2.71485 0
M  V30 2288 C 221.958 0.374833 -3.45674 0
M  V30 2289 H 221.281 -0.311474 -3.98585 0
M  V30 2290 H 222.721 0.70903 -4.1803 0
M  V30 2291 C 221.18 1.57963 -2.97572 0
M  V30 2292 O 221.71 2.67886 -2.99333 0
M  V30 2293 N 219.916 1.42375 -2.53333 0
M  V30 2294 H 219.463 0.529466 -2.521 0
M  V30 2295 H 219.421 2.23117 -2.21509 0
M  V30 2296 N 223.193 1.4272 -0.668489 0
M  V30 2297 C 224.141 2.32586 0.0254857 0
M  V30 2298 C 225.135 1.49471 0.797176 0
M  V30 2299 O 226.341 1.65583 0.705853 0
M  V30 2300 H 222.716 0.751514 0.0270339 0
M  V30 2301 H 224.687 2.88823 -0.749936 0
M  V30 2302 C 223.436 3.3397 0.967427 0
M  V30 2303 H 222.759 3.97961 0.383048 0
M  V30 2304 H 224.199 3.9945 1.42181 0
M  V30 2305 C 222.658 2.65744 2.0708 0
M  V30 2306 O 223.188 2.48454 3.15648 0
M  V30 2307 N 221.394 2.2487 1.8407 0
M  V30 2308 H 220.941 2.39132 0.95778 0
M  V30 2309 H 220.899 1.79552 2.58086 0
M  V30 2310 N 224.671 0.411399 1.52136 0
M  V30 2311 C 225.901 -0.16284 2.05957 0
M  V30 2312 C 226.309 -1.3922 1.28119 0
M  V30 2313 O 225.652 -1.80768 0.326881 0
M  V30 2314 C 225.714 -0.575946 3.54856 0
M  V30 2315 C 225.378 0.542998 4.53763 0
M  V30 2316 C 226.375 1.40726 5.00492 0
M  V30 2317 C 224.06 0.716337 4.97166 0
M  V30 2318 C 226.054 2.4298 5.8927 0
M  V30 2319 C 223.741 1.74218 5.8574 0
M  V30 2320 C 224.739 2.59731 6.31687 0
M  V30 2321 O 224.427 3.60558 7.18507 0
M  V30 2322 H 224.159 -0.0229125 0.675612 0
M  V30 2323 H 226.713 0.581634 1.96993 0
M  V30 2324 H 224.943 -1.37274 3.61515 0
M  V30 2325 H 226.632 -1.07836 3.91313 0
M  V30 2326 H 227.398 1.28476 4.67674 0
M  V30 2327 H 223.277 0.0603857 4.6096 0
M  V30 2328 H 226.821 3.0976 6.25055 0
M  V30 2329 H 222.718 1.86498 6.17971 0
M  V30 2330 H 223.486 3.56829 7.36624 0
M  V30 2331 N 226.149 -1.5696 0.141893 0
M  V30 2332 C 227.56 -1.82797 -0.379776 0
M  V30 2333 C 227.911 -1.06033 -1.6508 0
M  V30 2334 O 227.036 -0.304011 -2.14254 0
M  V30 2335 C 227.631 -3.31578 -0.695802 0
M  V30 2336 C 226.19 -3.58014 -1.16201 0
M  V30 2337 C 225.337 -2.76699 -0.182455 0
M  V30 2338 H 228.288 -1.54406 0.366675 0
M  V30 2339 H 228.309 -3.47454 -1.55099 0
M  V30 2340 H 227.821 -3.87421 0.229449 0
M  V30 2341 H 225.922 -3.07553 -2.10338 0
M  V30 2342 H 226.035 -4.66501 -1.09151 0
M  V30 2343 H 224.399 -2.45618 -0.674072 0
M  V30 2344 H 225.182 -3.35311 0.736297 0
M  V30 2345 N 227.627 0.131896 -1.57047 0
M  V30 2346 C 228.867 0.847972 -1.85981 0
M  V30 2347 C 229.231 1.77655 -0.7282 0
M  V30 2348 O 230.432 2.53322 -0.898968 0
M  V30 2349 C 228.703 1.58919 -3.20124 0
M  V30 2350 S 230.262 2.34862 -3.70655 0
M  V30 2351 H 227.08 0.283273 -0.652133 0
M  V30 2352 H 229.682 0.107057 -1.95207 0
M  V30 2353 H 228.386 0.898771 -4.00438 0
M  V30 2354 H 227.917 2.37073 -3.13942 0
M  V30 2355 H 229.932 3.60344 -3.41126 0
M  V30 2356 N 229.106 1.52395 0.401703 0
M  V30 2357 C 230.336 1.70429 1.1678 0
M  V30 2358 C 230.744 0.416702 1.84554 0
M  V30 2359 O 230.087 -0.617697 1.73003 0
M  V30 2360 C 230.149 2.78919 2.26814 0
M  V30 2361 C 229.813 4.20437 1.79113 0
M  V30 2362 C 230.81 5.04028 1.27482 0
M  V30 2363 C 228.495 4.66704 1.85722 0
M  V30 2364 C 230.489 6.31961 0.830913 0
M  V30 2365 C 228.176 5.94625 1.40942 0
M  V30 2366 C 229.174 6.77082 0.897128 0
M  V30 2367 O 228.862 8.02607 0.455822 0
M  V30 2368 H 228.594 0.574272 0.356634 0
M  V30 2369 H 231.148 1.99767 0.477724 0
M  V30 2370 H 229.378 2.44973 2.99207 0
M  V30 2371 H 231.067 2.8548 2.88541 0
M  V30 2372 H 231.833 4.69471 1.21744 0
M  V30 2373 H 227.712 4.0262 2.24539 0
M  V30 2374 H 231.256 6.96271 0.430368 0
M  V30 2375 H 227.153 6.28688 1.46362 0
M  V30 2376 H 227.921 8.16453 0.578457 0
M  V30 2377 N 230.584 -0.659388 1.43143 0
M  V30 2378 C 231.83 -1.42145 1.44647 0
M  V30 2379 C 232.163 -1.9408 0.0681907 0
M  V30 2380 O 231.438 -1.71899 -0.910007 0
M  V30 2381 C 231.721 -2.60735 2.48373 0
M  V30 2382 C 231.574 -2.14332 3.95451 0
M  V30 2383 C 232.893 -3.62951 2.48906 0
M  V30 2384 H 230.012 -0.51552 0.526696 0
M  V30 2385 H 232.654 -0.748069 1.74654 0
M  V30 2386 H 230.804 -3.18184 2.22916 0
M  V30 2387 H 232.476 -1.61932 4.31944 0
M  V30 2388 H 230.719 -1.4576 4.08578 0
M  V30 2389 H 231.39 -2.99583 4.63631 0
M  V30 2390 H 233.866 -3.1525 2.71582 0
M  V30 2391 H 232.742 -4.43487 3.23435 0
M  V30 2392 H 233.003 -4.15126 1.52061 0
M  V30 2393 N 232.062 -1.29571 -0.897171 0
M  V30 2394 C 233.29 -1.20583 -1.68129 0
M  V30 2395 C 233.705 0.233181 -1.87354 0
M  V30 2396 O 233.062 1.15579 -1.41236 0
M  V30 2397 C 233.113 -1.91772 -3.06441 0
M  V30 2398 O 232.834 -3.30053 -2.88091 0
M  V30 2399 C 234.335 -1.89291 -4.00854 0
M  V30 2400 H 231.555 -0.417826 -0.525036 0
M  V30 2401 H 234.099 -1.70987 -1.12177 0
M  V30 2402 H 232.254 -1.45196 -3.59161 0
M  V30 2403 H 232.668 -3.65942 -3.75748 0
M  V30 2404 H 234.142 -2.43662 -4.95311 0
M  V30 2405 H 234.619 -0.869014 -4.30517 0
M  V30 2406 H 235.225 -2.35622 -3.54066 0
M  V30 2407 N 233.54 1.10788 -1.12088 0
M  V30 2408 C 234.788 1.8231 -0.872205 0
M  V30 2409 C 235.109 1.85419 0.603709 0
M  V30 2410 O 234.379 1.32963 1.43867 0
M  V30 2411 H 232.959 0.675137 -0.319686 0
M  V30 2412 H 235.621 1.34068 -1.41463 0
M  V30 2413 H 234.717 2.85955 -1.25045 0
M  V30 2414 N 235.018 0.912232 1.28515 0
M  V30 2415 C 236.264 0.554851 1.95686 0
M  V30 2416 C 236.619 -0.89138 1.70506 0
M  V30 2417 O 235.912 -1.62529 1.01464 0
M  V30 2418 C 236.106 0.798392 3.48368 0
M  V30 2419 C 235.935 2.26674 3.88393 0
M  V30 2420 C 234.705 2.91657 4.12631 0
M  V30 2421 C 236.903 3.24303 3.99164 0
M  V30 2422 N 234.885 4.28805 4.39317 0
M  V30 2423 C 236.256 4.4661 4.30046 0
M  V30 2424 C 238.311 3.19723 3.81683 0
M  V30 2425 C 237.014 5.64915 4.45268 0
M  V30 2426 C 239.04 4.37325 3.98121 0
M  V30 2427 C 238.402 5.58406 4.29375 0
M  V30 2428 H 234.501 0.252876 0.739985 0
M  V30 2429 H 237.085 1.17565 1.55199 0
M  V30 2430 H 235.256 0.20688 3.87849 0
M  V30 2431 H 236.988 0.405193 4.02666 0
M  V30 2432 H 233.743 2.42393 4.06869 0
M  V30 2433 H 234.167 4.99712 4.56746 0
M  V30 2434 H 238.809 2.27191 3.56573 0
M  V30 2435 H 236.527 6.57927 4.6921 0
M  V30 2436 H 240.113 4.35282 3.86033 0
M  V30 2437 H 238.993 6.47889 4.41825 0
M  V30 2438 N 236.496 -1.42363 0.676048 0
M  V30 2439 C 237.744 -2.01123 0.198437 0
M  V30 2440 C 238.065 -1.53731 -1.19966 0
M  V30 2441 O 237.335 -0.759518 -1.80577 0
M  V30 2442 H 235.915 -0.743678 0.0703721 0
M  V30 2443 H 238.577 -1.74263 0.872837 0
M  V30 2444 H 237.673 -3.11454 0.200686 0
M  V30 2445 N 237.974 -0.419461 -1.51915 0
M  V30 2446 C 239.39 -0.0708431 -1.59443 0
M  V30 2447 C 239.59 1.41796 -1.43164 0
M  V30 2448 O 238.646 2.18596 -1.26381 0
M  V30 2449 C 239.959 -0.574991 -2.95151 0
M  V30 2450 C 241.507 -0.533867 -3.08413 0
M  V30 2451 C 241.982 -1.01469 -4.46618 0
M  V30 2452 N 243.473 -0.971939 -4.52888 0
M  V30 2453 C 244.208 -1.31505 -5.58116 0
M  V30 2454 N 243.704 -1.73014 -6.70849 0
M  V30 2455 N 245.497 -1.23436 -5.48379 0
M  V30 2456 H 237.648 -1.38836 -1.60743 0
M  V30 2457 H 239.911 -0.570998 -0.756747 0
M  V30 2458 H 239.617 -1.61597 -3.12377 0
M  V30 2459 H 239.491 0.00979777 -3.77199 0
M  V30 2460 H 241.878 0.498086 -2.90866 0
M  V30 2461 H 241.959 -1.15484 -2.28248 0
M  V30 2462 H 241.603 -2.04502 -4.6491 0
M  V30 2463 H 241.533 -0.370433 -5.25295 0
M  V30 2464 H 244.024 -0.666893 -3.71969 0
M  V30 2465 H 244.337 -1.97479 -7.47143 0
M  V30 2466 H 242.682 -1.76926 -6.72103 0
M  V30 2467 H 245.873 -0.908869 -4.59192 0
M  V30 2468 H 246.046 -1.50506 -6.30279 0
M  V30 2469 N 239.452 1.56882 -0.150215 0
M  V30 2470 C 240.382 2.19935 0.784284 0
M  V30 2471 C 241.363 1.14854 1.25469 0
M  V30 2472 O 242.548 1.43209 1.31168 0
M  V30 2473 C 239.678 2.82349 2.02229 0
M  V30 2474 C 238.632 3.93285 1.68853 0
M  V30 2475 C 237.958 4.42649 2.99944 0
M  V30 2476 C 239.258 5.13904 0.932714 0
M  V30 2477 H 240.952 2.9828 0.258781 0
M  V30 2478 H 238.498 1.43473 0.123029 0
M  V30 2479 H 240.451 3.25126 2.68088 0
M  V30 2480 H 239.175 2.0134 2.57157 0
M  V30 2481 H 237.834 3.5113 1.05371 0
M  V30 2482 H 237.482 3.58458 3.52869 0
M  V30 2483 H 237.182 5.17476 2.78374 0
M  V30 2484 H 238.706 4.88099 3.66868 0
M  V30 2485 H 240.12 5.53506 1.49345 0
M  V30 2486 H 238.517 5.94515 0.81684 0
M  V30 2487 H 239.587 4.84842 -0.0749568 0
M  V30 2488 N 240.93 -0.123565 1.57115 0
M  V30 2489 C 241.862 -1.17739 1.96648 0
M  V30 2490 C 242.875 -1.37906 0.865201 0
M  V30 2491 O 244.064 -1.37062 1.14351 0
M  V30 2492 C 241.164 -2.53821 2.24562 0
M  V30 2493 C 240.337 -2.54317 3.55867 0
M  V30 2494 C 239.396 -3.72112 3.72047 0
M  V30 2495 O 238.422 -3.55907 4.44206 0
M  V30 2496 N 239.624 -4.90498 3.10471 0
M  V30 2497 H 242.389 -0.841147 2.87654 0
M  V30 2498 H 239.95 -0.31289 1.58848 0
M  V30 2499 H 241.942 -3.31175 2.32606 0
M  V30 2500 H 240.512 -2.79645 1.39705 0
M  V30 2501 H 239.732 -1.62711 3.59053 0
M  V30 2502 H 241.02 -2.51701 4.42181 0
M  V30 2503 H 240.418 -5.06567 2.51806 0
M  V30 2504 H 238.975 -5.65544 3.24043 0
M  V30 2505 N 242.408 -1.52605 -0.393616 0
M  V30 2506 C 243.636 -1.71294 -1.16043 0
M  V30 2507 C 244.051 -0.429259 -1.83855 0
M  V30 2508 O 243.408 0.595921 -1.72496 0
M  V30 2509 C 243.459 -2.8593 -2.21193 0
M  V30 2510 O 243.18 -4.09329 -1.56146 0
M  V30 2511 C 244.681 -3.16259 -3.10636 0
M  V30 2512 H 241.901 -0.573641 -0.348104 0
M  V30 2513 H 244.445 -1.99234 -0.461092 0
M  V30 2514 H 242.6 -2.60465 -2.86769 0
M  V30 2515 H 243.014 -4.73323 -2.25978 0
M  V30 2516 H 244.488 -3.99946 -3.80456 0
M  V30 2517 H 244.965 -2.3045 -3.73884 0
M  V30 2518 H 245.571 -3.43547 -2.50711 0
M  V30 2519 N 243.887 0.651787 -1.4349 0
M  V30 2520 C 244.835 1.78586 -1.49029 0
M  V30 2521 C 245.829 1.65448 -0.363767 0
M  V30 2522 O 247.035 1.71777 -0.537821 0
M  V30 2523 H 243.41 0.589236 -0.467231 0
M  V30 2524 H 245.381 1.71035 -2.44519 0
M  V30 2525 C 244.13 3.16851 -1.43181 0
M  V30 2526 H 243.453 3.27598 -2.29171 0
M  V30 2527 H 244.893 3.96156 -1.51118 0
M  V30 2528 C 243.352 3.36568 -0.149616 0
M  V30 2529 O 243.882 3.93885 0.788509 0
M  V30 2530 N 242.088 2.90539 -0.0593484 0
M  V30 2531 H 241.635 2.4408 -0.823575 0
M  V30 2532 H 241.593 3.04108 0.797853 0
M  V30 2533 N 245.365 1.30045 0.890287 0
M  V30 2534 C 246.613 1.18327 1.63839 0
M  V30 2535 C 246.934 -0.263455 1.93212 0
M  V30 2536 O 246.204 -1.17856 1.56482 0
M  V30 2537 H 244.784 0.434933 0.607324 0
M  V30 2538 H 247.446 1.631 1.06698 0
M  V30 2539 H 246.542 1.74024 2.59079 0
M  V30 2540 N 246.843 -1.10192 1.12674 0
M  V30 2541 C 247.806 -2.14786 0.799979 0
M  V30 2542 C 248.806 -1.59711 -0.18685 0
M  V30 2543 O 249.996 -1.74156 0.0392558 0
M  V30 2544 C 247.128 -3.40374 0.189228 0
M  V30 2545 H 248.321 -2.45203 1.72671 0
M  V30 2546 H 245.874 -1.25597 0.930326 0
M  V30 2547 H 246.609 -3.15577 -0.747107 0
M  V30 2548 H 246.394 -3.81637 0.899766 0
M  V30 2549 H 247.884 -4.17594 -0.0228143 0
M  V30 2550 N 248.321 -0.919034 -1.28029 0
M  V30 2551 C 249.567 -0.555757 -1.95036 0
M  V30 2552 C 249.9 0.899198 -1.72128 0
M  V30 2553 O 249.175 1.64023 -1.04531 0
M  V30 2554 C 249.458 -0.872024 -3.49382 0
M  V30 2555 C 249.311 -2.3801 -3.81669 0
M  V30 2556 C 250.63 -0.37185 -4.38526 0
M  V30 2557 H 247.749 -0.203386 -0.708381 0
M  V30 2558 H 250.391 -1.14924 -1.51303 0
M  V30 2559 H 248.541 -0.366946 -3.86763 0
M  V30 2560 H 250.213 -2.9562 -3.54128 0
M  V30 2561 H 248.456 -2.83289 -3.28526 0
M  V30 2562 H 249.127 -2.55192 -4.8947 0
M  V30 2563 H 251.603 -0.804602 -4.08247 0
M  V30 2564 H 250.479 -0.622173 -5.45362 0
M  V30 2565 H 250.74 0.727934 -4.36066 0
M  V30 2566 N 249.799 1.42003 -0.683588 0
M  V30 2567 C 251.21 1.84501 -0.285736 0
M  V30 2568 C 251.561 1.57213 1.17382 0
M  V30 2569 O 250.686 1.03642 1.89966 0
M  V30 2570 C 251.281 3.34912 -0.511821 0
M  V30 2571 C 249.84 3.76025 -0.168005 0
M  V30 2572 C 248.987 2.6551 -0.799983 0
M  V30 2573 H 251.938 1.31724 -0.885119 0
M  V30 2574 H 251.959 3.79784 0.233292 0
M  V30 2575 H 251.471 3.54741 -1.57418 0
M  V30 2576 H 249.572 3.61801 0.890567 0
M  V30 2577 H 249.685 4.75141 -0.614661 0
M  V30 2578 H 248.049 2.53654 -0.230568 0
M  V30 2579 H 248.832 2.8816 -1.86597 0
M  V30 2580 N 251.277 0.427512 1.51691 0
M  V30 2581 C 252.554 -0.201684 1.94557 0
M  V30 2582 C 252.934 -1.60981 1.36559 0
M  V30 2583 O 252.282 -2.21814 0.548702 0
M  V30 2584 C 252.492 -0.189394 3.48486 0
M  V30 2585 C 253.84 -0.39978 4.22714 0
M  V30 2586 O 254.864 -0.267945 3.55191 0
M  V30 2587 O 253.723 -0.661249 5.42485 0
M  V30 2588 H 250.817 -0.135261 0.815864 0
M  V30 2589 H 253.363 0.484782 1.62628 0
M  V30 2590 H 252.135 0.795431 3.8313 0
M  V30 2591 H 251.758 -0.919187 3.86829 0
M  V30 2592 N 252.755 -1.56801 0.158532 0
M  V30 2593 C 254.001 -1.96781 -0.490405 0
M  V30 2594 C 254.334 -1.04397 -1.63753 0
M  V30 2595 O 253.609 -0.0885805 -1.94298 0
M  V30 2596 C 253.892 -3.4635 -0.985594 0
M  V30 2597 C 253.745 -4.49512 0.160824 0
M  V30 2598 C 255.064 -3.98697 -1.86355 0
M  V30 2599 H 252.183 -0.715482 -0.176788 0
M  V30 2600 H 254.825 -1.88451 0.242088 0
M  V30 2601 H 252.975 -3.53579 -1.60978 0
M  V30 2602 H 254.647 -4.54353 0.797537 0
M  V30 2603 H 252.89 -4.26013 0.818256 0
M  V30 2604 H 253.561 -5.51531 -0.227569 0
M  V30 2605 H 256.037 -3.94019 -1.33746 0
M  V30 2606 H 254.913 -5.03792 -2.17909 0
M  V30 2607 H 255.174 -3.41744 -2.8047 0
M  V30 2608 N 254.233 0.115231 -1.57178 0
M  V30 2609 C 255.163 1.1423 -2.03651 0
M  V30 2610 C 256.144 1.42967 -0.921655 0
M  V30 2611 O 257.329 1.53343 -1.19162 0
M  V30 2612 C 254.459 2.4675 -2.44401 0
M  V30 2613 C 253.413 2.32467 -3.59365 0
M  V30 2614 C 252.739 3.69984 -3.86026 0
M  V30 2615 C 254.039 1.78203 -4.90959 0
M  V30 2616 H 255.733 0.755749 -2.89705 0
M  V30 2617 H 253.279 0.362093 -1.39373 0
M  V30 2618 H 255.232 3.18854 -2.75517 0
M  V30 2619 H 253.956 2.87302 -1.55322 0
M  V30 2620 H 252.615 1.62811 -3.28463 0
M  V30 2621 H 252.263 4.08028 -2.94147 0
M  V30 2622 H 251.963 3.61279 -4.63412 0
M  V30 2623 H 253.487 4.43587 -4.19599 0
M  V30 2624 H 254.901 2.40128 -5.20587 0
M  V30 2625 H 253.298 1.8031 -5.72371 0
M  V30 2626 H 254.368 0.739876 -4.79222 0
M  V30 2627 N 255.711 1.52812 0.385517 0
M  V30 2628 C 256.643 1.74096 1.49074 0
M  V30 2629 C 257.656 0.621462 1.50472 0
M  V30 2630 O 258.845 0.897245 1.54311 0
M  V30 2631 C 255.945 1.78774 2.87911 0
M  V30 2632 C 255.118 3.08134 3.10439 0
M  V30 2633 C 254.177 3.04313 4.29278 0
M  V30 2634 O 253.203 3.78168 4.25415 0
M  V30 2635 N 254.405 2.23741 5.35649 0
M  V30 2636 H 257.17 2.69455 1.31202 0
M  V30 2637 H 254.731 1.51343 0.575065 0
M  V30 2638 H 256.723 1.73721 3.65518 0
M  V30 2639 H 255.293 0.907869 2.99126 0
M  V30 2640 H 254.513 3.26649 2.20667 0
M  V30 2641 H 255.801 3.93662 3.22347 0
M  V30 2642 H 255.199 1.63211 5.41645 0
M  V30 2643 H 253.756 2.24524 6.11909 0
M  V30 2644 N 257.189 -0.644168 1.43834 0
M  V30 2645 C 258.121 -1.76955 1.45669 0
M  V30 2646 C 259.134 -1.58956 0.351666 0
M  V30 2647 O 260.323 -1.6751 0.616644 0
M  V30 2648 C 257.423 -3.14507 1.26248 0
M  V30 2649 C 256.596 -3.59083 2.49757 0
M  V30 2650 C 255.655 -4.75467 2.25427 0
M  V30 2651 O 254.681 -4.84444 2.98836 0
M  V30 2652 N 255.883 -5.66289 1.27661 0
M  V30 2653 H 258.648 -1.75856 2.42682 0
M  V30 2654 H 256.209 -0.828312 1.39106 0
M  V30 2655 H 258.201 -3.90067 1.0784 0
M  V30 2656 H 256.771 -3.10325 0.376478 0
M  V30 2657 H 255.991 -2.7387 2.8353 0
M  V30 2658 H 257.279 -3.85613 3.31934 0
M  V30 2659 H 256.677 -5.61718 0.670064 0
M  V30 2660 H 255.234 -6.41533 1.15234 0
M  V30 2661 N 258.668 -1.30515 -0.883378 0
M  V30 2662 C 259.916 -1.19194 -1.63209 0
M  V30 2663 C 260.237 0.253205 -1.93349 0
M  V30 2664 O 259.507 1.17025 -1.57105 0
M  V30 2665 H 258.087 -0.438148 -0.605009 0
M  V30 2666 H 260.749 -1.63663 -1.05832 0
M  V30 2667 H 259.845 -1.75396 -2.58153 0
M  V30 2668 N 260.146 1.09593 -1.13257 0
M  V30 2669 C 261.562 1.33775 -0.870423 0
M  V30 2670 C 261.762 1.95327 0.494926 0
M  V30 2671 O 260.818 2.19853 1.2418 0
M  V30 2672 C 262.131 2.25106 -1.99369 0
M  V30 2673 C 263.679 2.3862 -2.02558 0
M  V30 2674 C 264.154 3.33285 -3.14142 0
M  V30 2675 N 265.645 3.40857 -3.13641 0
M  V30 2676 C 266.38 4.14101 -3.96621 0
M  V30 2677 N 265.876 4.90157 -4.8961 0
M  V30 2678 N 267.669 4.09808 -3.84726 0
M  V30 2679 H 259.82 0.680136 -2.01216 0
M  V30 2680 H 262.083 0.362133 -0.876107 0
M  V30 2681 H 261.789 1.87103 -2.97801 0
M  V30 2682 H 261.663 3.25481 -1.90635 0
M  V30 2683 H 264.05 2.75887 -1.0474 0
M  V30 2684 H 264.131 1.38028 -2.15364 0
M  V30 2685 H 263.775 2.96741 -4.12198 0
M  V30 2686 H 263.705 4.33776 -2.98574 0
M  V30 2687 H 266.196 2.86624 -2.46282 0
M  V30 2688 H 266.509 5.4347 -5.49418 0
M  V30 2689 H 264.854 4.89251 -4.93617 0
M  V30 2690 H 268.045 3.4949 -3.11408 0
M  V30 2691 H 268.218 4.66629 -4.49623 0
M  V30 2692 N 261.624 0.925811 1.2754 0
M  V30 2693 C 262.554 0.440748 2.29303 0
M  V30 2694 C 263.535 -0.497971 1.62648 0
M  V30 2695 O 264.72 -0.403126 1.8997 0
M  V30 2696 C 261.85 -0.309048 3.45922 0
M  V30 2697 C 260.804 0.54166 4.24559 0
M  V30 2698 C 260.13 -0.337191 5.33636 0
M  V30 2699 C 261.43 1.80516 4.90114 0
M  V30 2700 H 263.124 1.29121 2.70126 0
M  V30 2701 H 260.67 0.622323 1.29858 0
M  V30 2702 H 262.623 -0.659315 4.1621 0
M  V30 2703 H 261.347 -1.19352 3.04011 0
M  V30 2704 H 260.006 0.874609 3.56014 0
M  V30 2705 H 259.654 -1.22056 4.87966 0
M  V30 2706 H 259.354 0.228497 5.87156 0
M  V30 2707 H 260.878 -0.683072 6.06767 0
M  V30 2708 H 262.292 1.52307 5.52698 0
M  V30 2709 H 260.689 2.3142 5.53683 0
M  V30 2710 H 261.759 2.52581 4.13921 0
M  V30 2711 N 263.102 -1.41638 0.69111 0
M  V30 2712 C 264.032 -2.3347 0.037248 0
M  V30 2713 C 265.013 -1.51575 -0.771947 0
M  V30 2714 O 266.198 -1.80126 -0.72582 0
M  V30 2715 C 263.328 -3.35354 -0.903064 0
M  V30 2716 C 262.282 -4.27526 -0.201288 0
M  V30 2717 C 261.608 -5.19747 -1.25565 0
M  V30 2718 C 262.908 -5.13959 0.929689 0
M  V30 2719 H 264.602 -2.88397 0.804227 0
M  V30 2720 H 262.148 -1.38669 0.388189 0
M  V30 2721 H 264.101 -3.98519 -1.36969 0
M  V30 2722 H 262.825 -2.78767 -1.70166 0
M  V30 2723 H 261.484 -3.65779 0.245265 0
M  V30 2724 H 261.132 -4.59479 -2.04666 0
M  V30 2725 H 260.832 -5.8225 -0.791128 0
M  V30 2726 H 262.356 -5.85789 -1.72288 0
M  V30 2727 H 263.77 -5.70718 0.543546 0
M  V30 2728 H 262.167 -5.85379 1.32103 0
M  V30 2729 H 263.237 -4.51389 1.77133 0
M  V30 2730 N 264.58 -0.43555 -1.51462 0
M  V30 2731 C 265.826 0.131709 -2.02372 0
M  V30 2732 C 266.159 1.42516 -1.3192 0
M  V30 2733 O 265.434 1.89606 -0.433573 0
M  V30 2734 C 265.717 0.352301 -3.58373 0
M  V30 2735 C 265.57 -0.959676 -4.39443 0
M  V30 2736 C 266.889 1.12286 -4.25535 0
M  V30 2737 H 264.008 0.0463936 -0.735538 0
M  V30 2738 H 266.65 -0.574197 -1.81116 0
M  V30 2739 H 264.8 0.9536 -3.76615 0
M  V30 2740 H 266.472 -1.59482 -4.32855 0
M  V30 2741 H 264.715 -1.56468 -4.04599 0
M  V30 2742 H 265.386 -0.759394 -5.46752 0
M  V30 2743 H 267.862 0.613545 -4.11552 0
M  V30 2744 H 266.738 1.24598 -5.34571 0
M  V30 2745 H 266.999 2.15048 -3.86273 0
M  V30 2746 N 266.058 1.56714 -0.166846 0
M  V30 2747 C 267.304 1.97039 0.479962 0
M  V30 2748 C 267.637 1.05264 1.63197 0
M  V30 2749 O 266.912 0.0988833 1.94248 0
M  V30 2750 C 267.195 3.46867 0.967212 0
M  V30 2751 C 267.048 4.49421 -0.18466 0
M  V30 2752 C 268.367 3.9968 1.84238 0
M  V30 2753 H 265.486 0.71641 0.172992 0
M  V30 2754 H 268.128 1.8832 -0.252079 0
M  V30 2755 H 266.278 3.54428 1.59101 0
M  V30 2756 H 267.95 4.53924 -0.821621 0
M  V30 2757 H 266.193 4.25573 -0.840837 0
M  V30 2758 H 266.864 5.51644 0.198317 0
M  V30 2759 H 269.34 3.94723 1.31655 0
M  V30 2760 H 268.216 5.04941 2.15234 0
M  V30 2761 H 268.477 3.43226 2.78654 0
M  V30 2762 N 267.536 -0.106894 1.57237 0
M  V30 2763 C 268.813 -0.843526 1.76477 0
M  V30 2764 C 269.193 -1.97499 0.745464 0
M  V30 2765 O 268.541 -2.27357 -0.228306 0
M  V30 2766 C 268.751 -1.34903 3.21873 0
M  V30 2767 C 270.099 -1.79654 3.8472 0
M  V30 2768 O 271.123 -1.44554 3.2555 0
M  V30 2769 O 269.982 -2.44515 4.88748 0
M  V30 2770 H 267.076 -0.401468 0.723016 0
M  V30 2771 H 269.622 -0.0896927 1.69463 0
M  V30 2772 H 268.394 -0.53781 3.87586 0
M  V30 2773 H 268.017 -2.16522 3.33473 0
M  V30 2774 N 269.014 -1.53014 -0.377408 0
M  V30 2775 C 270.244 -1.72265 -1.14054 0
M  V30 2776 C 270.652 -0.44601 -1.83868 0
M  V30 2777 O 269.995 0.590095 -1.73964 0
M  V30 2778 C 270.057 -2.82492 -2.22348 0
M  V30 2779 C 269.721 -4.23233 -1.72402 0
M  V30 2780 C 270.718 -5.05992 -1.19448 0
M  V30 2781 C 268.403 -4.696 -1.78273 0
M  V30 2782 C 270.397 -6.33203 -0.730268 0
M  V30 2783 C 268.084 -5.96792 -1.31464 0
M  V30 2784 C 269.082 -6.78424 -0.789297 0
M  V30 2785 O 268.77 -8.0323 -0.328077 0
M  V30 2786 H 268.502 -0.579873 -0.347453 0
M  V30 2787 H 271.056 -2.00502 -0.445882 0
M  V30 2788 H 269.286 -2.49702 -2.95272 0
M  V30 2789 H 270.975 -2.90034 -2.83963 0
M  V30 2790 H 271.741 -4.71349 -1.14259 0
M  V30 2791 H 267.62 -4.06142 -2.18106 0
M  V30 2792 H 271.164 -6.96868 -0.319542 0
M  V30 2793 H 267.061 -6.30937 -1.36342 0
M  V30 2794 H 267.829 -8.1727 -0.448493 0
M  V30 2795 N 270.492 0.636531 -1.44174 0
M  V30 2796 C 271.455 1.73063 -1.50273 0
M  V30 2797 C 272.455 1.56113 -0.385397 0
M  V30 2798 O 273.645 1.61707 -0.64781 0
M  V30 2799 C 270.777 3.12096 -1.37145 0
M  V30 2800 H 271.97 1.69031 -2.47727 0
M  V30 2801 H 269.523 0.849706 -1.31186 0
M  V30 2802 H 270.258 3.21728 -0.407636 0
M  V30 2803 H 270.043 3.25805 -2.18159 0
M  V30 2804 H 271.533 3.91846 -1.44382 0
M  V30 2805 N 271.97 1.30982 0.876444 0
M  V30 2806 C 273.198 1.23242 1.6619 0
M  V30 2807 C 273.613 -0.203345 1.87702 0
M  V30 2808 O 272.97 -1.13317 1.43057 0
M  V30 2809 C 273.021 1.96623 3.03351 0
M  V30 2810 O 272.742 3.34594 2.82804 0
M  V30 2811 C 274.243 1.95644 3.97792 0
M  V30 2812 H 271.463 0.426126 0.518322 0
M  V30 2813 H 274.007 1.7275 1.09442 0
M  V30 2814 H 272.162 1.50892 3.56806 0
M  V30 2815 H 272.576 3.71873 3.69879 0
M  V30 2816 H 274.05 2.51511 4.91372 0
M  V30 2817 H 274.527 0.937395 4.2908 0
M  V30 2818 H 275.133 2.41225 3.50272 0
M  V30 2819 N 273.449 -1.08991 1.13837 0
M  V30 2820 C 274.689 -1.82867 0.913183 0
M  V30 2821 C 275.053 -1.83936 -0.550604 0
M  V30 2822 O 276.254 -2.53515 -0.893515 0
M  V30 2823 C 274.525 -3.24843 1.49036 0
M  V30 2824 S 276.084 -4.15669 1.40588 0
M  V30 2825 H 272.902 -0.630278 0.329046 0
M  V30 2826 H 275.504 -1.31049 1.45073 0
M  V30 2827 H 274.208 -3.21644 2.54899 0
M  V30 2828 H 273.739 -3.81734 0.950947 0
M  V30 2829 H 275.754 -4.94686 0.387353 0
M  V30 2830 N 274.927 -0.932562 -1.27047 0
M  V30 2831 C 276.152 -0.591474 -1.98787 0
M  V30 2832 C 276.577 0.824601 -1.69062 0
M  V30 2833 O 275.935 1.5541 -0.933677 0
M  V30 2834 C 275.983 -0.829808 -3.50922 0
M  V30 2835 O 275.087 0.102266 -4.12273 0
M  V30 2836 H 274.428 -0.227185 -0.623926 0
M  V30 2837 H 276.958 -1.25314 -1.61733 0
M  V30 2838 H 276.968 -0.747292 -4.01098 0
M  V30 2839 H 275.643 -1.86201 -3.7189 0
M  V30 2840 H 274.22 -0.0305761 -3.72887 0
M  V30 2841 N 276.405 1.4127 -0.698611 0
M  V30 2842 C 277.63 2.06024 -0.238512 0
M  V30 2843 C 278.055 1.5224 1.10475 0
M  V30 2844 O 277.413 0.650623 1.69223 0
M  V30 2845 C 277.461 3.59988 -0.209952 0
M  V30 2846 O 276.565 4.04282 0.814235 0
M  V30 2847 H 275.906 0.653829 -0.115775 0
M  V30 2848 H 278.436 1.8098 -0.954326 0
M  V30 2849 H 278.446 4.07979 -0.0418436 0
M  V30 2850 H 277.121 3.98503 -1.1903 0
M  V30 2851 H 275.698 3.6779 0.615234 0
M  V30 2852 N 277.883 0.443576 1.51229 0
M  V30 2853 C 279.108 -0.121648 2.07043 0
M  V30 2854 C 279.533 -1.35156 1.30823 0
M  V30 2855 O 278.891 -1.7793 0.347934 0
M  V30 2856 C 278.939 -0.41624 3.5819 0
M  V30 2857 O 278.043 -1.50163 3.8409 0
M  V30 2858 H 277.384 0.000871367 0.663999 0
M  V30 2859 H 279.914 0.626706 1.94765 0
M  V30 2860 H 279.924 -0.664867 4.02546 0
M  V30 2861 H 278.599 0.482653 4.1309 0
M  V30 2862 H 277.176 -1.24248 3.51592 0
M  V30 2863 N 279.361 -1.56624 0.175154 0
M  V30 2864 C 280.324 -2.16934 -0.739738 0
M  V30 2865 C 281.324 -1.11842 -1.15533 0
M  V30 2866 O 282.514 -1.37335 -1.07167 0
M  V30 2867 C 279.646 -2.75531 -2.00738 0
M  V30 2868 H 280.839 -2.99131 -0.214639 0
M  V30 2869 H 278.392 -1.56123 -0.0744197 0
M  V30 2870 H 279.127 -1.97078 -2.57548 0
M  V30 2871 H 278.912 -3.52444 -1.71831 0
M  V30 2872 H 280.402 -3.21904 -2.66021 0
M  V30 2873 N 280.839 0.0985539 -1.57292 0
M  V30 2874 C 282.085 0.798769 -1.87059 0
M  V30 2875 C 282.44 1.76514 -0.76555 0
M  V30 2876 O 281.733 1.90181 0.232752 0
M  V30 2877 C 281.927 1.56927 -3.21105 0
M  V30 2878 C 281.756 0.679026 -4.44544 0
M  V30 2879 C 280.526 0.326071 -5.04247 0
M  V30 2880 C 282.724 -0.0124715 -5.14298 0
M  V30 2881 N 280.706 -0.572702 -6.11223 0
M  V30 2882 C 282.077 -0.769446 -6.15207 0
M  V30 2883 C 284.132 -0.0867545 -4.97824 0
M  V30 2884 C 282.835 -1.59376 -7.01421 0
M  V30 2885 C 284.861 -0.897955 -5.84543 0
M  V30 2886 C 284.223 -1.64306 -6.84969 0
M  V30 2887 H 280.322 0.268568 -0.734435 0
M  V30 2888 H 282.906 0.0614664 -1.94603 0
M  V30 2889 H 281.077 2.27748 -3.1462 0
M  V30 2890 H 282.809 2.21641 -3.38611 0
M  V30 2891 H 279.564 0.67295 -4.68795 0
M  V30 2892 H 279.988 -1.01454 -6.69355 0
M  V30 2893 H 284.63 0.474963 -4.20124 0
M  V30 2894 H 282.348 -2.16655 -7.78515 0
M  V30 2895 H 285.934 -0.958059 -5.73858 0
M  V30 2896 H 284.814 -2.26065 -7.50909 0
M  V30 2897 N 282.317 1.53212 0.369288 0
M  V30 2898 C 283.563 1.70413 1.11046 0
M  V30 2899 C 283.918 0.448509 1.87099 0
M  V30 2900 O 283.211 -0.558382 1.83283 0
M  V30 2901 C 283.405 2.89101 2.10132 0
M  V30 2902 C 283.234 4.26084 1.43814 0
M  V30 2903 C 282.004 4.90994 1.19384 0
M  V30 2904 C 284.202 5.06754 0.877802 0
M  V30 2905 N 282.184 6.11911 0.49377 0
M  V30 2906 C 283.555 6.1924 0.306891 0
M  V30 2907 C 285.61 4.91814 0.776129 0
M  V30 2908 C 284.313 7.1842 -0.355774 0
M  V30 2909 C 286.339 5.91263 0.127252 0
M  V30 2910 C 285.701 7.03069 -0.432801 0
M  V30 2911 H 281.8 0.676872 0.391623 0
M  V30 2912 H 284.384 1.90603 0.397334 0
M  V30 2913 H 282.555 2.70456 2.78761 0
M  V30 2914 H 284.287 2.95142 2.76899 0
M  V30 2915 H 281.042 4.50074 1.47413 0
M  V30 2916 H 281.466 6.76813 0.159207 0
M  V30 2917 H 286.108 4.05564 1.19489 0
M  V30 2918 H 283.826 8.04264 -0.786499 0
M  V30 2919 H 287.412 5.81779 0.0495613 0
M  V30 2920 H 286.292 7.78702 -0.926958 0
M  V30 2921 N 283.795 -0.628877 1.44509 0
M  V30 2922 C 285.043 -1.38565 1.4712 0
M  V30 2923 C 285.364 -1.94712 0.105899 0
M  V30 2924 O 284.634 -1.75912 -0.862079 0
M  V30 2925 H 283.214 -0.514333 0.541729 0
M  V30 2926 H 285.876 -0.740018 1.80305 0
M  V30 2927 H 284.972 -2.21583 2.19789 0
M  V30 2928 N 285.273 -1.31445 -0.869486 0
M  V30 2929 C 286.498 -1.24256 -1.66058 0
M  V30 2930 C 286.923 0.188928 -1.87149 0
M  V30 2931 O 286.281 1.13522 -1.4136 0
M  V30 2932 C 286.329 -1.9924 -3.00559 0
M  V30 2933 O 285.433 -1.33007 -3.90362 0
M  V30 2934 H 284.774 -0.428973 -0.506831 0
M  V30 2935 H 287.304 -1.73521 -1.08404 0
M  V30 2936 H 287.314 -2.08854 -3.50491 0
M  V30 2937 H 285.989 -3.03342 -2.84528 0
M  V30 2938 H 284.566 -1.31848 -3.48813 0
M  V30 2939 N 286.751 1.08385 -1.14413 0
M  V30 2940 C 287.976 1.85057 -0.936413 0
M  V30 2941 C 288.401 1.81055 0.509971 0
M  V30 2942 O 287.759 1.1958 1.36273 0
M  V30 2943 C 287.807 3.30505 -1.44217 0
M  V30 2944 O 286.911 4.07491 -0.634409 0
M  V30 2945 H 286.252 0.573425 -0.334784 0
M  V30 2946 H 288.782 1.36799 -1.52142 0
M  V30 2947 H 288.792 3.81348 -1.45043 0
M  V30 2948 H 287.467 3.32734 -2.49522 0
M  V30 2949 H 286.044 3.66368 -0.694902 0
M  V30 2950 N 288.23 0.939286 1.26551 0
M  V30 2951 C 289.476 0.586715 1.94128 0
M  V30 2952 C 289.809 -0.8717 1.73537 0
M  V30 2953 O 289.084 -1.62339 1.07127 0
M  V30 2954 C 289.367 0.927497 3.4795 0
M  V30 2955 C 289.22 2.44052 3.77834 0
M  V30 2956 C 290.539 0.441569 4.37879 0
M  V30 2957 H 287.658 0.21463 0.705055 0
M  V30 2958 H 290.3 1.17316 1.49455 0
M  V30 2959 H 288.45 0.428431 3.8613 0
M  V30 2960 H 290.122 3.01216 3.4938 0
M  V30 2961 H 288.365 2.8848 3.23978 0
M  V30 2962 H 289.036 2.62947 4.85348 0
M  V30 2963 H 291.512 0.869448 4.06915 0
M  V30 2964 H 290.388 0.708856 5.44304 0
M  V30 2965 H 290.649 -0.658467 4.37169 0
M  V30 2966 N 289.708 -1.40897 0.706093 0
M  V30 2967 C 290.655 -2.30751 0.0474474 0
M  V30 2968 C 291.625 -1.47678 -0.76029 0
M  V30 2969 O 292.81 -1.76441 -0.726177 0
M  V30 2970 C 289.95 -3.33815 -0.875309 0
M  V30 2971 C 289.063 -4.31961 -0.0580623 0
M  V30 2972 C 288.198 -5.22093 -0.979425 0
M  V30 2973 C 287.237 -6.11902 -0.155706 0
M  V30 2974 N 286.374 -6.94482 -1.03144 0
M  V30 2975 H 291.214 -2.86513 0.819413 0
M  V30 2976 H 288.751 -1.41102 0.415783 0
M  V30 2977 H 290.709 -3.92129 -1.42446 0
M  V30 2978 H 289.339 -2.79579 -1.61356 0
M  V30 2979 H 288.391 -3.75507 0.608147 0
M  V30 2980 H 289.703 -4.95415 0.580082 0
M  V30 2981 H 288.857 -5.85292 -1.59744 0
M  V30 2982 H 287.596 -4.5889 -1.65141 0
M  V30 2983 H 286.601 -5.47742 0.475309 0
M  V30 2984 H 287.826 -6.77162 0.512635 0
M  V30 2985 H 285.772 -6.33877 -1.68924 0
M  V30 2986 H 285.689 -7.54665 -0.449108 0
M  V30 2987 H 286.957 -7.6214 -1.63593 0
M  V30 2988 N 291.186 -0.45159 -1.50991 0
M  V30 2989 C 292.414 0.108334 -2.06616 0
M  V30 2990 C 292.829 1.35224 -1.31757 0
M  V30 2991 O 292.186 1.78475 -0.381174 0
M  V30 2992 C 292.237 0.41619 -3.59096 0
M  V30 2993 O 291.958 -0.778361 -4.3113 0
M  V30 2994 C 293.459 1.02523 -4.31282 0
M  V30 2995 H 290.679 0.00159995 -0.670998 0
M  V30 2996 H 293.223 -0.634771 -1.94399 0
M  V30 2997 H 291.378 1.10921 -3.71181 0
M  V30 2998 H 291.792 -0.511181 -5.22003 0
M  V30 2999 H 293.266 1.19053 -5.39009 0
M  V30 3000 H 293.743 2.01013 -3.905 0
M  V30 3001 H 294.349 0.371173 -4.23677 0
M  V30 3002 N 292.664 1.56529 -0.183458 0
M  V30 3003 C 293.889 2.02064 0.467428 0
M  V30 3004 C 294.314 1.06282 1.55196 0
M  V30 3005 O 293.672 0.0443565 1.81246 0
M  V30 3006 C 293.72 3.46122 1.01153 0
M  V30 3007 O 292.824 3.53437 2.12499 0
M  V30 3008 H 292.165 0.654726 0.110588 0
M  V30 3009 H 294.695 2.02521 -0.290917 0
M  V30 3010 H 294.705 3.85676 1.33108 0
M  V30 3011 H 293.38 4.15331 0.217533 0
M  V30 3012 H 291.957 3.2575 1.81497 0
M  V30 3013 N 294.142 -0.090211 1.57342 0
M  V30 3014 C 295.075 -1.14035 1.97664 0
M  V30 3015 C 296.053 -1.38576 0.850616 0
M  V30 3016 O 297.237 -1.52255 1.11134 0
M  V30 3017 C 294.364 -2.48854 2.2976 0
M  V30 3018 C 293.41 -2.40564 3.52181 0
M  V30 3019 S 294.243 -1.81745 5.03715 0
M  V30 3020 C 295.399 -3.18178 5.38993 0
M  V30 3021 H 295.632 -0.796636 2.86428 0
M  V30 3022 H 293.165 -0.298072 1.51496 0
M  V30 3023 H 295.123 -3.26413 2.48927 0
M  V30 3024 H 293.784 -2.80393 1.41558 0
M  V30 3025 H 292.977 -3.39942 3.72096 0
M  V30 3026 H 292.579 -1.71135 3.32549 0
M  V30 3027 H 294.871 -4.14461 5.35937 0
M  V30 3028 H 295.814 -3.03062 6.39968 0
M  V30 3029 H 296.222 -3.17935 4.66452 0
M  V30 3030 N 295.62 -1.53406 -0.361157 0
M  V30 3031 C 296.869 -1.69022 -1.10066 0
M  V30 3032 C 297.182 -0.450838 -1.90333 0
M  V30 3033 O 298.388 -0.487617 -2.67085 0
M  V30 3034 C 296.844 -2.98812 -2.00598 0
M  V30 3035 C 296.452 -4.30027 -1.25621 0
M  V30 3036 C 298.196 -3.23795 -2.74513 0
M  V30 3037 C 296.103 -5.50903 -2.1508 0
M  V30 3038 H 295.033 -0.629776 -0.414606 0
M  V30 3039 H 297.684 -1.79907 -0.361348 0
M  V30 3040 H 296.066 -2.8174 -2.78278 0
M  V30 3041 H 297.24 -4.57745 -0.529739 0
M  V30 3042 H 295.555 -4.11522 -0.635496 0
M  V30 3043 H 298.152 -4.11289 -3.41681 0
M  V30 3044 H 298.495 -2.40045 -3.40123 0
M  V30 3045 H 299.028 -3.41561 -2.03914 0
M  V30 3046 H 295.767 -6.37143 -1.54041 0
M  V30 3047 H 295.287 -5.27459 -2.85565 0
M  V30 3048 H 296.966 -5.85865 -2.74538 0
M  V30 3049 N 297.098 0.621204 -1.44841 0
M  V30 3050 C 298.338 1.39201 -1.49674 0
M  V30 3051 C 298.702 1.91561 -0.129764 0
M  V30 3052 O 299.903 2.68748 -0.0527814 0
M  V30 3053 C 298.174 2.519 -2.53537 0
M  V30 3054 S 299.733 3.39916 -2.77494 0
M  V30 3055 H 296.551 0.474758 -0.529269 0
M  V30 3056 H 299.153 0.718171 -1.81831 0
M  V30 3057 H 297.857 2.11761 -3.51547 0
M  V30 3058 H 297.388 3.241 -2.22986 0
M  V30 3059 H 299.403 4.49646 -2.0984 0
M  V30 3060 N 298.576 1.31904 0.862503 0
M  V30 3061 C 299.539 1.20131 1.95195 0
M  V30 3062 C 300.539 0.126409 1.60302 0
M  V30 3063 O 301.729 0.376234 1.70089 0
M  V30 3064 C 298.861 0.845691 3.30244 0
M  V30 3065 H 300.054 2.16943 2.07064 0
M  V30 3066 H 297.607 1.15622 1.05172 0
M  V30 3067 H 298.342 -0.120957 3.24074 0
M  V30 3068 H 298.127 1.62276 3.56944 0
M  V30 3069 H 299.617 0.787418 4.10109 0
M  V30 3070 N 300.054 -1.07777 1.14986 0
M  V30 3071 C 301.302 -1.79934 0.920235 0
M  V30 3072 C 301.623 -1.86955 -0.554336 0
M  V30 3073 O 300.893 -1.36731 -1.40291 0
M  V30 3074 H 299.473 -0.666424 0.337473 0
M  V30 3075 H 302.135 -1.3027 1.44968 0
M  V30 3076 H 301.231 -2.82539 1.32583 0
M  V30 3077 N 301.532 -0.945985 -1.26051 0
M  V30 3078 C 302.78 -0.594941 -1.93145 0
M  V30 3079 C 303.101 0.86953 -1.7454 0
M  V30 3080 O 302.371 1.61838 -1.10387 0
M  V30 3081 H 300.951 -0.217044 -0.714773 0
M  V30 3082 H 303.613 -1.20235 -1.53393 0
M  V30 3083 H 302.709 -0.816835 -3.01221 0
M  V30 3084 N 303.011 1.40521 -0.713556 0
M  V30 3085 C 304.288 1.94775 -0.17943 0
M  V30 3086 C 304.668 1.65184 1.31444 0
M  V30 3087 O 304.016 0.968429 2.06963 0
M  V30 3088 C 304.226 3.45543 -0.489986 0
M  V30 3089 C 305.574 4.22442 -0.427536 0
M  V30 3090 O 306.598 3.53644 -0.425929 0
M  V30 3091 O 305.457 5.4501 -0.403292 0
M  V30 3092 H 302.551 0.826606 -0.0255192 0
M  V30 3093 H 305.097 1.5014 -0.790949 0
M  V30 3094 H 303.869 3.60432 -1.5233 0
M  V30 3095 H 303.492 3.97311 0.151598 0
M  V30 3096 N 304.489 0.459591 1.5075 0
M  V30 3097 C 305.737 -0.0991532 2.01857 0
M  V30 3098 C 306.058 -1.41247 1.34441 0
M  V30 3099 O 305.328 -1.89775 0.486022 0
M  V30 3100 H 303.908 -0.039633 0.745948 0
M  V30 3101 H 306.57 0.607387 1.85194 0
M  V30 3102 H 305.666 -0.258998 3.11023 0
M  V30 3103 N 305.967 -1.56429 0.191757 0
M  V30 3104 C 307.213 -1.97777 -0.448554 0
M  V30 3105 C 307.546 -1.07847 -1.61501 0
M  V30 3106 O 306.821 -0.129774 -1.94067 0
M  V30 3107 C 307.104 -3.48362 -0.911906 0
M  V30 3108 C 306.957 -4.4907 0.256136 0
M  V30 3109 C 308.276 -4.02561 -1.77857 0
M  V30 3110 H 305.395 -0.719071 -0.161572 0
M  V30 3111 H 308.037 -1.87896 0.282007 0
M  V30 3112 H 306.187 -3.56914 -1.53442 0
M  V30 3113 H 307.859 -4.5256 0.893733 0
M  V30 3114 H 306.102 -4.24181 0.908436 0
M  V30 3115 H 306.773 -5.51889 -0.11053 0
M  V30 3116 H 309.249 -3.96767 -1.25359 0
M  V30 3117 H 308.125 -5.08301 -2.07174 0
M  V30 3118 H 308.386 -3.47616 -2.73158 0
M  V30 3119 N 307.445 0.0818655 -1.57387 0
M  V30 3120 C 308.694 0.781681 -1.85937 0
M  V30 3121 C 309.007 1.79246 -0.782957 0
M  V30 3122 O 310.213 2.54112 -0.955987 0
M  V30 3123 C 308.669 1.44109 -3.29789 0
M  V30 3124 C 308.277 0.469396 -4.45534 0
M  V30 3125 C 310.021 2.12386 -3.67549 0
M  V30 3126 C 307.928 1.13415 -5.80423 0
M  V30 3127 H 306.858 0.295682 -0.693605 0
M  V30 3128 H 309.509 0.0348051 -1.83467 0
M  V30 3129 H 307.891 2.23588 -3.2684 0
M  V30 3130 H 309.065 -0.294856 -4.59856 0
M  V30 3131 H 307.38 -0.108383 -4.16259 0
M  V30 3132 H 309.977 2.62878 -4.65617 0
M  V30 3133 H 310.32 2.91877 -2.96839 0
M  V30 3134 H 310.853 1.39751 -3.72444 0
M  V30 3135 H 307.592 0.379771 -6.54399 0
M  V30 3136 H 307.112 1.8695 -5.69921 0
M  V30 3137 H 308.791 1.65686 -6.25426 0
M  V30 3138 N 308.923 1.53595 0.353017 0
M  V30 3139 C 310.148 1.7462 1.11904 0
M  V30 3140 C 310.573 0.479721 1.8188 0
M  V30 3141 O 309.931 -0.567066 1.72204 0
M  V30 3142 C 309.979 2.92029 2.11545 0
M  V30 3143 O 309.083 2.61516 3.18878 0
M  V30 3144 H 308.424 0.579531 0.324099 0
M  V30 3145 H 310.954 2.00525 0.406301 0
M  V30 3146 H 310.964 3.18551 2.5493 0
M  V30 3147 H 309.639 3.83888 1.60008 0
M  V30 3148 H 308.216 2.45852 2.80377 0
M  V30 3149 N 310.401 -0.613514 1.45168 0
M  V30 3150 C 311.626 -1.40437 1.52618 0
M  V30 3151 C 312.051 -1.87438 0.157707 0
M  V30 3152 O 311.409 -1.59791 -0.856537 0
M  V30 3153 C 311.457 -2.58894 2.51011 0
M  V30 3154 O 310.561 -3.59326 2.02382 0
M  V30 3155 H 309.902 -0.419506 0.514695 0
M  V30 3156 H 312.432 -0.747215 1.90467 0
M  V30 3157 H 312.442 -3.06214 2.69624 0
M  V30 3158 H 311.117 -2.24032 3.50403 0
M  V30 3159 H 309.694 -3.18695 1.93618 0
M  V30 3160 N 311.879 -1.3236 -0.855495 0
M  V30 3161 C 313.119 -1.24187 -1.62348 0
M  V30 3162 C 313.483 0.193597 -1.91021 0
M  V30 3163 O 314.684 0.39904 -2.65822 0
M  V30 3164 C 312.955 -2.07661 -2.90881 0
M  V30 3165 S 314.514 -2.16505 -3.81669 0
M  V30 3166 H 311.332 -0.442076 -0.556857 0
M  V30 3167 H 313.934 -1.67198 -1.01317 0
M  V30 3168 H 312.638 -3.11018 -2.67761 0
M  V30 3169 H 312.169 -1.65425 -3.56929 0
M  V30 3170 H 314.184 -1.31394 -4.78487 0
M  V30 3171 N 313.357 1.07166 -1.15556 0
M  V30 3172 C 314.305 2.16517 -0.8499 0
M  V30 3173 C 315.299 1.68468 0.177454 0
M  V30 3174 O 316.505 1.79971 0.0323026 0
M  V30 3175 H 312.88 0.706652 -0.25719 0
M  V30 3176 H 314.851 2.39514 -1.77976 0
M  V30 3177 C 313.6 3.45855 -0.357682 0
M  V30 3178 H 312.923 3.83214 -1.13961 0
M  V30 3179 H 314.363 4.23607 -0.182489 0
M  V30 3180 C 312.822 3.24062 0.921152 0
M  V30 3181 O 313.352 3.48813 1.9923 0
M  V30 3182 N 311.558 2.77539 0.86141 0
M  V30 3183 H 311.105 2.57598 -0.0104408 0
M  V30 3184 H 311.063 2.63337 1.71758 0
M  V30 3185 N 314.835 0.952656 1.25548 0
M  V30 3186 C 316.083 0.605176 1.92826 0
M  V30 3187 C 316.404 -0.860261 1.74999 0
M  V30 3188 O 315.674 -1.6125 1.11244 0
M  V30 3189 H 314.254 0.220832 0.713612 0
M  V30 3190 H 316.916 1.21047 1.52754 0
M  V30 3191 H 316.012 0.832798 3.00784 0
M  V30 3192 N 316.313 -1.40141 0.720998 0
M  V30 3193 C 317.59 -1.94677 0.189757 0
M  V30 3194 C 317.97 -1.65879 -1.30566 0
M  V30 3195 O 317.318 -0.979391 -2.06447 0
M  V30 3196 C 317.528 -3.45279 0.508304 0
M  V30 3197 C 318.876 -4.22209 0.449934 0
M  V30 3198 O 319.9 -3.53413 0.444677 0
M  V30 3199 O 318.759 -5.44788 0.432189 0
M  V30 3200 H 315.853 -0.826459 0.0299026 0
M  V30 3201 H 318.399 -1.49719 0.7989 0
M  V30 3202 H 317.171 -3.59619 1.54239 0
M  V30 3203 H 316.794 -3.97386 -0.130525 0
M  V30 3204 N 317.792 -0.46758 -1.50504 0
M  V30 3205 C 319.017 0.0886943 -2.0721 0
M  V30 3206 C 319.442 1.33057 -1.32956 0
M  V30 3207 O 318.8 1.77354 -0.376197 0
M  V30 3208 C 318.848 0.359202 -3.58806 0
M  V30 3209 O 317.952 1.44034 -3.8643 0
M  V30 3210 H 317.293 -0.0114349 -0.663902 0
M  V30 3211 H 319.823 -0.657613 -1.93744 0
M  V30 3212 H 319.833 0.600742 -4.03553 0
M  V30 3213 H 318.508 -0.548311 -4.1227 0
M  V30 3214 H 317.085 1.18638 -3.53524 0
M  V30 3215 N 319.27 1.56325 -0.20005 0
M  V30 3216 C 320.518 1.97329 0.436547 0
M  V30 3217 C 320.839 1.08826 1.61808 0
M  V30 3218 O 320.109 0.160604 1.95241 0
M  V30 3219 H 318.689 0.728714 0.164272 0
M  V30 3220 H 321.351 1.92761 -0.287937 0
M  V30 3221 H 320.447 3.02264 0.777353 0
M  V30 3222 N 320.748 -0.0735177 1.57428 0
M  V30 3223 C 321.996 -0.771472 1.86796 0
M  V30 3224 C 322.317 -1.78201 0.791804 0
M  V30 3225 O 321.587 -1.95074 -0.179718 0
M  V30 3226 H 320.167 -0.28791 0.689287 0
M  V30 3227 H 322.829 -0.0500161 1.94836 0
M  V30 3228 H 321.925 -1.28874 2.8425 0
M  V30 3229 N 322.226 -1.5378 -0.344866 0
M  V30 3230 C 323.637 -1.62428 -0.920552 0
M  V30 3231 C 323.988 -0.504747 -1.89596 0
M  V30 3232 O 323.113 0.365711 -2.13287 0
M  V30 3233 C 323.708 -2.94419 -1.67639 0
M  V30 3234 C 322.267 -3.05333 -2.20111 0
M  V30 3235 C 321.414 -2.57866 -1.01982 0
M  V30 3236 H 324.365 -1.58222 -0.123042 0
M  V30 3237 H 324.386 -2.83384 -2.53917 0
M  V30 3238 H 323.898 -3.7588 -0.966224 0
M  V30 3239 H 321.999 -2.28502 -2.94308 0
M  V30 3240 H 322.112 -4.10778 -2.46573 0
M  V30 3241 H 320.476 -2.13241 -1.39285 0
M  V30 3242 H 321.259 -3.41765 -0.324308 0
M  V30 3243 N 323.704 0.605807 -1.45491 0
M  V30 3244 C 324.634 1.72709 -1.57143 0
M  V30 3245 C 325.615 1.6476 -0.422884 0
M  V30 3246 O 326.8 1.83132 -0.646247 0
M  V30 3247 C 323.93 3.11316 -1.53948 0
M  V30 3248 C 322.884 3.34077 -2.67537 0
M  V30 3249 C 322.21 4.72975 -2.49397 0
M  V30 3250 C 323.51 3.24158 -4.09535 0
M  V30 3251 H 325.204 1.63214 -2.51001 0
M  V30 3252 H 322.75 0.78379 -1.208 0
M  V30 3253 H 324.703 3.89557 -1.60696 0
M  V30 3254 H 323.427 3.21655 -0.566205 0
M  V30 3255 H 322.086 2.58227 -2.6022 0
M  V30 3256 H 321.734 4.8005 -1.50205 0
M  V30 3257 H 321.434 4.8916 -3.25571 0
M  V30 3258 H 322.958 5.53414 -2.58002 0
M  V30 3259 H 324.372 3.92271 -4.18086 0
M  V30 3260 H 322.769 3.51872 -4.86113 0
M  V30 3261 H 323.839 2.2157 -4.31317 0
M  V30 3262 N 325.182 1.32811 0.848464 0
M  V30 3263 C 326.13 1.22231 1.97895 0
M  V30 3264 C 327.124 0.125749 1.68933 0
M  V30 3265 O 328.33 0.289083 1.77663 0
M  V30 3266 H 324.705 0.379058 0.649476 0
M  V30 3267 H 326.676 2.17828 2.03945 0
M  V30 3268 C 325.425 0.968572 3.33937 0
M  V30 3269 H 324.748 1.80458 3.56756 0
M  V30 3270 H 326.188 0.934808 4.13567 0
M  V30 3271 C 324.647 -0.328628 3.35293 0
M  V30 3272 O 325.177 -1.33848 3.78745 0
M  V30 3273 N 323.383 -0.352788 2.88451 0
M  V30 3274 H 322.93 0.469541 2.53285 0
M  V30 3275 H 322.888 -1.22057 2.89741 0
M  V30 3276 N 326.66 -1.06551 1.16123 0
M  V30 3277 C 327.9 -1.80889 0.951766 0
M  V30 3278 C 328.264 -1.85062 -0.511465 0
M  V30 3279 O 329.465 -2.55353 -0.83954 0
M  V30 3280 C 327.736 -3.21609 1.55893 0
M  V30 3281 S 329.295 -4.12593 1.49373 0
M  V30 3282 H 326.113 -0.623156 0.342341 0
M  V30 3283 H 328.715 -1.27943 1.47821 0
M  V30 3284 H 327.419 -3.16165 2.61664 0
M  V30 3285 H 326.95 -3.79631 1.0317 0
M  V30 3286 H 328.965 -4.93753 0.492196 0
M  V30 3287 N 328.138 -0.959301 -1.25041 0
M  V30 3288 C 329.07 -0.440543 -2.24926 0
M  V30 3289 C 330.083 0.446131 -1.56568 0
M  V30 3290 O 331.272 0.253657 -1.76689 0
M  V30 3291 C 328.372 0.38412 -3.36716 0
M  V30 3292 C 327.545 -0.490658 -4.34639 0
M  V30 3293 C 326.604 0.276587 -5.25473 0
M  V30 3294 O 325.63 -0.326614 -5.68262 0
M  V30 3295 N 326.832 1.56844 -5.5891 0
M  V30 3296 H 329.597 -1.29931 -2.70071 0
M  V30 3297 H 327.158 -0.830181 -1.38995 0
M  V30 3298 H 329.15 0.905228 -3.94446 0
M  V30 3299 H 327.72 1.14377 -2.90924 0
M  V30 3300 H 326.94 -1.19282 -3.7572 0
M  V30 3301 H 328.228 -1.08756 -4.97041 0
M  V30 3302 H 327.626 2.08036 -5.26059 0
M  V30 3303 H 326.183 2.03541 -6.19205 0
M  V30 3304 N 329.616 1.39756 -0.72842 0
M  V30 3305 C 330.579 2.29012 -0.0927297 0
M  V30 3306 C 331.579 1.45992 0.674025 0
M  V30 3307 O 332.769 1.66749 0.50402 0
M  V30 3308 C 329.901 3.29396 0.878137 0
M  V30 3309 H 331.094 2.86729 -0.879011 0
M  V30 3310 H 328.647 1.48293 -0.493847 0
M  V30 3311 H 329.382 2.76722 1.69101 0
M  V30 3312 H 329.167 3.907 0.331051 0
M  V30 3313 H 330.657 3.96199 1.3197 0
M  V30 3314 N 331.094 0.475555 1.50254 0
M  V30 3315 C 332.319 -0.0777042 2.07254 0
M  V30 3316 C 332.744 -1.3235 1.3366 0
M  V30 3317 O 332.102 -1.77152 0.385597 0
M  V30 3318 C 332.15 -0.340169 3.58992 0
M  V30 3319 O 331.254 -1.41982 3.87188 0
M  V30 3320 H 330.595 0.0149556 0.663832 0
M  V30 3321 H 333.125 0.667878 1.93392 0
M  V30 3322 H 333.135 -0.579332 4.03866 0
M  V30 3323 H 331.81 0.570167 4.11973 0
M  V30 3324 H 330.387 -1.16762 3.54148 0
M  V30 3325 N 332.573 -1.56217 0.208337 0
M  V30 3326 C 333.85 -1.89739 -0.475234 0
M  V30 3327 C 334.23 -1.1238 -1.78701 0
M  V30 3328 O 333.578 -0.228979 -2.2735 0
M  V30 3329 C 333.788 -3.42289 -0.681101 0
M  V30 3330 C 335.136 -4.12789 -0.994507 0
M  V30 3331 O 336.16 -3.47814 -0.768357 0
M  V30 3332 O 335.019 -5.27649 -1.42299 0
M  V30 3333 H 332.113 -0.788478 -0.249461 0
M  V30 3334 H 334.659 -1.67855 0.249538 0
M  V30 3335 H 333.431 -3.90534 0.244722 0
M  V30 3336 H 333.054 -3.69909 -1.45785 0
M  V30 3337 N 334.051 0.0651679 -1.57465 0
M  V30 3338 C 335.299 0.761555 -1.87202 0
M  V30 3339 C 335.62 1.77778 -0.801243 0
M  V30 3340 O 334.89 1.95166 0.16937 0
M  V30 3341 H 333.47 0.284251 -0.690804 0
M  V30 3342 H 336.132 0.0396827 -1.9486 0
M  V30 3343 H 335.228 1.27365 -2.84929 0
M  V30 3344 N 335.529 1.53961 0.336706 0
M  V30 3345 C 336.945 1.44378 0.680241 0
M  V30 3346 C 337.145 0.606034 1.9217 0
M  V30 3347 O 336.201 0.099688 2.52303 0
M  V30 3348 C 337.514 2.87945 0.8665 0
M  V30 3349 C 339.062 2.97763 0.964682 0
M  V30 3350 C 339.537 4.42453 1.18321 0
M  V30 3351 N 341.028 4.46008 1.25025 0
M  V30 3352 C 341.763 5.55102 1.43697 0
M  V30 3353 N 341.259 6.7419 1.59498 0
M  V30 3354 N 343.052 5.42727 1.463 0
M  V30 3355 H 335.203 2.06918 -0.479455 0
M  V30 3356 H 337.466 0.935634 -0.152619 0
M  V30 3357 H 337.172 3.51691 0.0256937 0
M  V30 3358 H 337.046 3.33293 1.76623 0
M  V30 3359 H 339.433 2.34153 1.796 0
M  V30 3360 H 339.514 2.55766 0.041708 0
M  V30 3361 H 339.158 5.06645 0.356788 0
M  V30 3362 H 339.088 4.82048 2.11985 0
M  V30 3363 H 341.579 3.60196 1.14312 0
M  V30 3364 H 341.892 7.53095 1.734 0
M  V30 3365 H 340.237 6.77123 1.56621 0
M  V30 3366 H 343.428 4.48647 1.33543 0
M  V30 3367 H 343.601 6.27806 1.6051 0
M  V30 3368 N 337.007 -0.598083 1.45811 0
M  V30 3369 C 338.253 -1.35679 1.51535 0
M  V30 3370 C 338.608 -1.91745 0.15864 0
M  V30 3371 O 337.901 -1.72654 -0.830724 0
M  V30 3372 C 338.095 -2.51669 2.53766 0
M  V30 3373 C 337.924 -2.06963 3.99245 0
M  V30 3374 C 336.694 -1.92693 4.67116 0
M  V30 3375 C 338.892 -1.63855 4.875 0
M  V30 3376 N 336.874 -1.41897 5.97276 0
M  V30 3377 C 338.245 -1.24541 6.07363 0
M  V30 3378 C 340.3 -1.51533 4.74281 0
M  V30 3379 C 339.003 -0.741354 7.15469 0
M  V30 3380 C 341.029 -1.0253 5.82444 0
M  V30 3381 C 340.391 -0.641869 7.01469 0
M  V30 3382 H 336.49 -0.490042 0.609412 0
M  V30 3383 H 339.074 -0.682687 1.82339 0
M  V30 3384 H 337.245 -3.16663 2.24898 0
M  V30 3385 H 338.977 -3.18578 2.4958 0
M  V30 3386 H 335.732 -2.1417 4.22408 0
M  V30 3387 H 336.156 -1.18704 6.66512 0
M  V30 3388 H 340.798 -1.798 3.82664 0
M  V30 3389 H 338.516 -0.446243 8.06867 0
M  V30 3390 H 342.102 -0.934088 5.74253 0
M  V30 3391 H 340.982 -0.268531 7.8374 0
M  V30 3392 N 338.485 -1.33259 -0.841409 0
M  V30 3393 C 339.417 -1.19136 -1.95804 0
M  V30 3394 C 340.43 -0.122965 -1.62335 0
M  V30 3395 O 341.619 -0.373154 -1.74556 0
M  V30 3396 C 338.719 -0.804268 -3.29218 0
M  V30 3397 C 337.892 -1.96376 -3.90839 0
M  V30 3398 C 336.951 -1.55806 -5.02604 0
M  V30 3399 O 335.977 -2.27203 -5.21888 0
M  V30 3400 N 337.179 -0.461609 -5.78662 0
M  V30 3401 H 339.944 -2.15326 -2.08458 0
M  V30 3402 H 337.505 -1.25971 -1.017 0
M  V30 3403 H 339.497 -0.51501 -4.0141 0
M  V30 3404 H 338.067 0.0668809 -3.12528 0
M  V30 3405 H 337.287 -2.41879 -3.11269 0
M  V30 3406 H 338.575 -2.73966 -4.28742 0
M  V30 3407 H 337.973 0.132343 -5.65545 0
M  V30 3408 H 336.53 -0.232013 -6.51387 0
M  V30 3409 N 339.963 1.05934 -1.16686 0
M  V30 3410 C 341.209 1.79065 -0.95203 0
M  V30 3411 C 341.542 1.87147 0.518629 0
M  V30 3412 O 340.817 1.36574 1.38484 0
M  V30 3413 C 341.1 3.23359 -1.58464 0
M  V30 3414 C 340.953 3.23336 -3.12689 0
M  V30 3415 C 342.272 4.21004 -1.28232 0
M  V30 3416 H 339.391 0.65005 -0.34728 0
M  V30 3417 H 342.033 1.23868 -1.44072 0
M  V30 3418 H 340.183 3.70493 -1.16908 0
M  V30 3419 H 341.855 2.84336 -3.6325 0
M  V30 3420 H 340.098 2.61886 -3.4583 0
M  V30 3421 H 340.769 4.25144 -3.52075 0
M  V30 3422 H 343.245 3.8233 -1.64203 0
M  V30 3423 H 342.121 5.20225 -1.75092 0
M  V30 3424 H 342.382 4.41639 -0.201791 0
M  V30 3425 N 341.441 0.965919 1.2453 0
M  V30 3426 C 342.391 0.465731 2.23193 0
M  V30 3427 C 343.375 -0.451277 1.54442 0
M  V30 3428 O 344.567 -0.282489 1.74731 0
M  V30 3429 C 341.696 -0.244511 3.42428 0
M  V30 3430 C 340.782 0.691222 4.18429 0
M  V30 3431 N 341.173 1.82771 4.71623 0
M  V30 3432 C 339.471 0.501649 4.4317 0
M  V30 3433 C 340.172 2.41285 5.29298 0
M  V30 3434 N 339.148 1.69819 5.16394 0
M  V30 3435 H 342.95 1.33291 2.61937 0
M  V30 3436 H 340.464 0.824789 1.39896 0
M  V30 3437 H 342.461 -0.620056 4.12263 0
M  V30 3438 H 341.121 -1.10815 3.05205 0
M  V30 3439 H 342.132 2.20929 4.68413 0
M  V30 3440 H 338.809 -0.318177 4.16286 0
M  V30 3441 H 340.199 3.37181 5.8117 0
M  V30 3442 N 342.919 -1.39368 0.735821 0
M  V30 3443 C 344.167 -2.00101 0.283562 0
M  V30 3444 C 344.488 -1.5868 -1.13338 0
M  V30 3445 O 343.758 -0.835423 -1.77193 0
M  V30 3446 H 342.338 -0.740024 0.101851 0
M  V30 3447 H 345 -1.70404 0.945962 0
M  V30 3448 H 344.096 -3.10323 0.332604 0
M  V30 3449 N 344.397 -0.483516 -1.5 0
M  V30 3450 C 345.646 0.0689102 -2.01582 0
M  V30 3451 C 345.959 1.39655 -1.36952 0
M  V30 3452 O 347.165 2.03465 -1.79762 0
M  V30 3453 C 345.621 0.173302 -3.59483 0
M  V30 3454 C 345.229 -1.14665 -4.33077 0
M  V30 3455 C 346.973 0.677024 -4.19066 0
M  V30 3456 C 344.88 -1.00537 -5.82792 0
M  V30 3457 H 343.81 0.0295277 -0.753422 0
M  V30 3458 H 346.461 -0.620295 -1.72698 0
M  V30 3459 H 344.843 0.926569 -3.85007 0
M  V30 3460 H 346.017 -1.91184 -4.19268 0
M  V30 3461 H 344.332 -1.58244 -3.85159 0
M  V30 3462 H 346.929 0.799952 -5.28682 0
M  V30 3463 H 347.272 1.67151 -3.81269 0
M  V30 3464 H 347.805 -0.0192083 -3.97795 0
M  V30 3465 H 344.544 -1.9736 -6.25083 0
M  V30 3466 H 344.064 -0.280776 -5.99142 0
M  V30 3467 H 345.743 -0.677 -6.43448 0
M  V30 3468 N 345.875 1.56104 -0.216619 0
M  V30 3469 C 347.121 1.98466 0.417033 0
M  V30 3470 C 347.454 1.10403 1.59765 0
M  V30 3471 O 346.729 0.160632 1.93836 0
M  V30 3472 C 347.012 3.49769 0.85637 0
M  V30 3473 C 346.865 4.48606 -0.327546 0
M  V30 3474 C 348.184 4.05339 1.7143 0
M  V30 3475 H 345.303 0.721551 0.150112 0
M  V30 3476 H 347.945 1.87423 -0.311864 0
M  V30 3477 H 346.095 3.5931 1.47745 0
M  V30 3478 H 347.767 4.5108 -0.965618 0
M  V30 3479 H 346.01 4.22682 -0.975805 0
M  V30 3480 H 346.681 5.51995 0.0227149 0
M  V30 3481 H 349.157 3.98712 1.19031 0
M  V30 3482 H 348.033 5.11533 1.99061 0
M  V30 3483 H 348.294 3.51918 2.67593 0
M  V30 3484 N 347.353 -0.0568162 1.57498 0
M  V30 3485 C 348.578 -0.769402 1.92601 0
M  V30 3486 C 349.003 -1.69559 0.814336 0
M  V30 3487 O 348.361 -1.79811 -0.231903 0
M  V30 3488 C 348.409 -1.52634 3.26704 0
M  V30 3489 O 347.513 -2.63797 3.16994 0
M  V30 3490 H 346.854 -0.208909 0.63028 0
M  V30 3491 H 349.384 -0.0205798 2.0459 0
M  V30 3492 H 349.394 -1.90234 3.60936 0
M  V30 3493 H 348.069 -0.846875 4.07186 0
M  V30 3494 H 346.646 -2.28943 2.94346 0
M  V30 3495 N 348.832 -1.54138 -0.328536 0
M  V30 3496 C 350.079 -1.72105 -1.06706 0
M  V30 3497 C 350.407 -0.492111 -1.88171 0
M  V30 3498 O 349.662 0.526153 -1.88494 0
M  V30 3499 C 349.961 -2.9457 -2.02393 0
M  V30 3500 C 349.627 -4.29544 -1.37122 0
M  V30 3501 C 348.289 -4.6624 -1.19052 0
M  V30 3502 C 350.641 -5.1333 -0.902331 0
M  V30 3503 C 347.969 -5.84325 -0.527331 0
M  V30 3504 C 350.321 -6.32094 -0.252988 0
M  V30 3505 C 348.985 -6.67473 -0.0600901 0
M  V30 3506 H 348.255 -0.629775 -0.390466 0
M  V30 3507 H 350.902 -1.88372 -0.34473 0
M  V30 3508 H 349.207 -2.72969 -2.81061 0
M  V30 3509 H 350.904 -3.05665 -2.59557 0
M  V30 3510 H 347.494 -4.0067 -1.52188 0
M  V30 3511 H 351.678 -4.855 -1.02974 0
M  V30 3512 H 346.934 -6.103 -0.366634 0
M  V30 3513 H 351.108 -6.96299 0.118366 0
M  V30 3514 H 348.735 -7.58832 0.455828 0
M  V30 3515 N 350.31 0.590341 -1.46126 0
M  V30 3516 C 351.558 1.34616 -1.50742 0
M  V30 3517 C 351.879 1.94363 -0.157486 0
M  V30 3518 O 351.149 1.78136 0.815136 0
M  V30 3519 H 349.729 0.499789 -0.555175 0
M  V30 3520 H 352.391 0.691953 -1.82203 0
M  V30 3521 H 351.487 2.15678 -2.25587 0
M  V30 3522 N 351.788 1.33704 0.83433 0
M  V30 3523 C 353.013 1.28615 1.62705 0
M  V30 3524 C 353.438 -0.139242 1.87584 0
M  V30 3525 O 352.796 -1.09734 1.4432 0
M  V30 3526 C 352.844 2.07139 2.95171 0
M  V30 3527 O 351.948 1.4331 3.86699 0
M  V30 3528 H 351.289 0.44226 0.49528 0
M  V30 3529 H 353.819 1.76335 1.03766 0
M  V30 3530 H 353.829 2.18073 3.44831 0
M  V30 3531 H 352.504 3.10779 2.76386 0
M  V30 3532 H 351.081 1.4105 3.45195 0
M  V30 3533 N 353.266 -1.05314 1.17247 0
M  V30 3534 C 354.682 -1.30452 0.919473 0
M  V30 3535 C 354.882 -1.9703 -0.42209 0
M  V30 3536 O 353.938 -2.24311 -1.15935 0
M  V30 3537 C 355.251 -2.17551 2.07586 0
M  V30 3538 C 356.799 -2.30937 2.11275 0
M  V30 3539 C 357.274 -3.21396 3.26296 0
M  V30 3540 N 358.765 -3.28981 3.26076 0
M  V30 3541 C 359.5 -3.99095 4.11716 0
M  V30 3542 N 358.996 -4.71648 5.07465 0
M  V30 3543 N 360.789 -3.95247 3.9967 0
M  V30 3544 H 352.94 -0.604988 2.03602 0
M  V30 3545 H 355.203 -0.329368 0.888944 0
M  V30 3546 H 354.909 -1.75921 3.0454 0
M  V30 3547 H 354.783 -3.18182 2.02584 0
M  V30 3548 H 357.17 -2.71809 1.14907 0
M  V30 3549 H 357.251 -1.2994 2.20339 0
M  V30 3550 H 356.895 -2.81238 4.22927 0
M  V30 3551 H 356.825 -4.22395 3.14467 0
M  V30 3552 H 359.316 -2.77286 2.5675 0
M  V30 3553 H 359.629 -5.22705 5.6921 0
M  V30 3554 H 357.974 -4.70594 5.11435 0
M  V30 3555 H 361.165 -3.37691 3.24164 0
M  V30 3556 H 361.338 -4.4962 4.66632 0
M  V30 3557 N 354.744 -0.972509 -1.24016 0
M  V30 3558 C 355.674 -0.525548 -2.27509 0
M  V30 3559 C 356.655 0.437262 -1.64384 0
M  V30 3560 O 357.84 0.332343 -1.91335 0
M  V30 3561 C 354.97 0.180448 -3.46831 0
M  V30 3562 C 353.924 -0.698859 -4.22256 0
M  V30 3563 C 353.25 0.138903 -5.3452 0
M  V30 3564 C 354.55 -1.98582 -4.83076 0
M  V30 3565 H 356.244 -1.39058 -2.65148 0
M  V30 3566 H 353.79 -0.67009 -1.27459 0
M  V30 3567 H 355.743 0.504387 -4.18371 0
M  V30 3568 H 354.467 1.07987 -3.08231 0
M  V30 3569 H 353.126 -1.00614 -3.52523 0
M  V30 3570 H 352.774 1.03862 -4.9216 0
M  V30 3571 H 352.474 -0.446259 -5.85903 0
M  V30 3572 H 353.998 0.457404 -6.08884 0
M  V30 3573 H 355.412 -1.72715 -5.46665 0
M  V30 3574 H 353.809 -2.5181 -5.44713 0
M  V30 3575 H 354.879 -2.67769 -4.04262 0
M  V30 3576 N 356.222 1.38976 -0.743202 0
M  V30 3577 C 357.47 1.99948 -0.29417 0
M  V30 3578 C 357.791 1.59279 1.12495 0
M  V30 3579 O 357.061 0.844808 1.76748 0
M  V30 3580 H 355.641 0.739473 -0.105774 0
M  V30 3581 H 358.303 1.699 -0.954986 0
M  V30 3582 H 357.399 3.10142 -0.349056 0
M  V30 3583 N 357.7 0.491464 1.49741 0
M  V30 3584 C 358.94 -0.0549118 2.04326 0
M  V30 3585 C 359.304 -1.35148 1.36378 0
M  V30 3586 O 360.505 -1.9815 1.81631 0
M  V30 3587 C 358.776 -0.213841 3.5676 0
M  V30 3588 S 360.335 -0.715839 4.32922 0
M  V30 3589 H 357.153 -0.00630513 0.710972 0
M  V30 3590 H 359.755 0.663257 1.83905 0
M  V30 3591 H 358.459 0.73527 4.0376 0
M  V30 3592 H 357.99 -0.957529 3.81569 0
M  V30 3593 H 360.005 -1.9864 4.54705 0
M  V30 3594 N 359.178 -1.55987 0.224894 0
M  V30 3595 C 360.126 -2.21808 -0.700283 0
M  V30 3596 C 361.12 -1.19854 -1.19714 0
M  V30 3597 O 362.326 -1.37925 -1.15658 0
M  V30 3598 H 358.701 -0.711226 -0.244258 0
M  V30 3599 H 360.672 -2.98152 -0.121749 0
M  V30 3600 C 359.421 -2.91444 -1.8962 0
M  V30 3601 H 358.744 -3.69655 -1.52299 0
M  V30 3602 H 360.184 -3.40894 -2.52125 0
M  V30 3603 C 358.643 -1.94098 -2.75368 0
M  V30 3604 O 359.173 -1.46004 -3.74227 0
M  V30 3605 N 357.379 -1.61675 -2.41474 0
M  V30 3606 H 356.926 -2.00979 -1.61137 0
M  V30 3607 H 356.884 -0.968036 -2.99126 0
M  V30 3608 N 360.656 0.0484629 -1.57525 0
M  V30 3609 C 361.886 0.754326 -1.92337 0
M  V30 3610 C 362.294 1.70443 -0.82132 0
M  V30 3611 O 361.637 1.82466 0.21254 0
M  V30 3612 C 361.699 1.58231 -3.22805 0
M  V30 3613 C 361.363 0.799074 -4.4996 0
M  V30 3614 C 362.36 0.1079 -5.19788 0
M  V30 3615 C 360.045 0.759345 -4.96527 0
M  V30 3616 C 362.039 -0.612516 -6.3445 0
M  V30 3617 C 359.726 0.0351713 -6.1109 0
M  V30 3618 C 360.724 -0.649537 -6.79904 0
M  V30 3619 O 360.412 -1.36199 -7.92278 0
M  V30 3620 H 360.144 0.218257 -0.639797 0
M  V30 3621 H 362.698 0.0159295 -2.05394 0
M  V30 3622 H 360.928 2.36406 -3.06021 0
M  V30 3623 H 362.617 2.16898 -3.43089 0
M  V30 3624 H 363.383 0.129748 -4.84826 0
M  V30 3625 H 359.262 1.28177 -4.42822 0
M  V30 3626 H 362.806 -1.14751 -6.88097 0
M  V30 3627 H 358.703 0.0113314 -6.45499 0
M  V30 3628 H 359.471 -1.27366 -8.0853 0
M  V30 3629 N 362.134 1.5431 0.320358 0
M  V30 3630 C 363.364 1.7638 1.07582 0
M  V30 3631 C 363.772 0.513944 1.82086 0
M  V30 3632 O 363.115 -0.525123 1.76035 0
M  V30 3633 C 363.177 2.9055 2.1171 0
M  V30 3634 C 362.841 4.2934 1.56575 0
M  V30 3635 C 363.838 5.10077 1.00586 0
M  V30 3636 C 361.523 4.75893 1.60722 0
M  V30 3637 C 363.517 6.35477 0.494756 0
M  V30 3638 C 361.204 6.0126 1.09224 0
M  V30 3639 C 362.202 6.80886 0.53696 0
M  V30 3640 O 361.89 8.03894 0.0297371 0
M  V30 3641 H 361.622 0.592369 0.325692 0
M  V30 3642 H 364.176 2.02019 0.37116 0
M  V30 3643 H 362.406 2.60489 2.85801 0
M  V30 3644 H 364.095 3.00373 2.73003 0
M  V30 3645 H 364.861 4.75265 0.966869 0
M  V30 3646 H 360.74 4.13957 2.02882 0
M  V30 3647 H 364.284 6.97574 0.0606842 0
M  V30 3648 H 360.181 6.35562 1.12831 0
M  V30 3649 H 360.949 8.18372 0.14486 0
M  V30 3650 N 363.613 -0.582584 1.46437 0
M  V30 3651 C 364.563 -1.68654 1.53426 0
M  V30 3652 C 365.547 -1.55971 0.395194 0
M  V30 3653 O 366.739 -1.64884 0.643612 0
M  V30 3654 C 363.868 -3.07439 1.52762 0
M  V30 3655 C 362.954 -3.25418 2.71963 0
M  V30 3656 N 363.345 -3.13556 3.96883 0
M  V30 3657 C 361.643 -3.56357 2.68189 0
M  V30 3658 C 362.344 -3.33543 4.76575 0
M  V30 3659 N 361.32 -3.58704 4.08451 0
M  V30 3660 H 365.122 -1.58014 2.47808 0
M  V30 3661 H 362.636 -0.786617 1.42078 0
M  V30 3662 H 364.633 -3.86671 1.55857 0
M  V30 3663 H 363.293 -3.1921 0.594573 0
M  V30 3664 H 364.304 -2.9142 4.28129 0
M  V30 3665 H 360.981 -3.74812 1.83908 0
M  V30 3666 H 362.371 -3.29555 5.85528 0
M  V30 3667 N 365.091 -1.34144 -0.827227 0
M  V30 3668 C 366.038 -1.25364 -1.93785 0
M  V30 3669 C 367.008 -0.129774 -1.65592 0
M  V30 3670 O 368.193 -0.310024 -1.88264 0
M  V30 3671 C 365.333 -1.01064 -3.2997 0
M  V30 3672 C 364.446 -2.22185 -3.70484 0
M  V30 3673 C 363.581 -1.91203 -4.95595 0
M  V30 3674 C 362.62 -3.08491 -5.28677 0
M  V30 3675 N 361.757 -2.77421 -6.44967 0
M  V30 3676 H 366.597 -2.20347 -2.00627 0
M  V30 3677 H 364.134 -1.09558 -0.981608 0
M  V30 3678 H 366.092 -0.850139 -4.08446 0
M  V30 3679 H 364.722 -0.0975026 -3.22653 0
M  V30 3680 H 363.774 -2.4917 -2.87434 0
M  V30 3681 H 365.086 -3.0983 -3.90905 0
M  V30 3682 H 364.24 -1.71864 -5.81848 0
M  V30 3683 H 362.979 -1.00812 -4.77167 0
M  V30 3684 H 361.984 -3.28431 -4.40923 0
M  V30 3685 H 363.209 -3.99655 -5.49047 0
M  V30 3686 H 361.155 -1.89601 -6.28003 0
M  V30 3687 H 361.072 -3.58598 -6.6554 0
M  V30 3688 H 362.34 -2.61577 -7.34301 0
M  V30 3689 N 366.569 1.04691 -1.17803 0
M  V30 3690 C 367.98 1.59238 -0.974689 0
M  V30 3691 C 368.331 1.90306 0.477292 0
M  V30 3692 O 367.456 1.68846 1.35352 0
M  V30 3693 C 368.051 2.89318 -1.76296 0
M  V30 3694 C 366.61 3.40506 -1.60414 0
M  V30 3695 C 365.757 2.14172 -1.76141 0
M  V30 3696 H 368.708 0.874395 -1.32439 0
M  V30 3697 H 368.729 3.5944 -1.24833 0
M  V30 3698 H 368.241 2.66675 -2.81968 0
M  V30 3699 H 366.342 3.68175 -0.572519 0
M  V30 3700 H 366.455 4.14753 -2.39827 0
M  V30 3701 H 364.819 2.25176 -1.19028 0
M  V30 3702 H 365.602 1.93992 -2.83235 0
M  V30 3703 N 368.047 0.979072 1.23499 0
M  V30 3704 C 369.272 0.664845 1.96455 0
M  V30 3705 C 369.697 -0.761287 1.72006 0
M  V30 3706 O 369.055 -1.51837 0.990713 0
M  V30 3707 C 369.103 0.959479 3.47601 0
M  V30 3708 O 368.207 0.0508168 4.12369 0
M  V30 3709 H 367.548 0.250185 0.615064 0
M  V30 3710 H 370.078 1.31231 1.5697 0
M  V30 3711 H 370.088 0.895642 3.98048 0
M  V30 3712 H 368.763 1.99876 3.64723 0
M  V30 3713 H 367.34 0.16895 3.72517 0
M  V30 3714 N 369.525 -1.3858 0.750561 0
M  V30 3715 C 370.771 -2.00481 0.305825 0
M  V30 3716 C 371.104 -1.5944 -1.10872 0
M  V30 3717 O 370.379 -0.83052 -1.75877 0
M  V30 3718 C 370.662 -3.5758 0.425287 0
M  V30 3719 C 370.515 -4.08594 1.88072 0
M  V30 3720 C 371.834 -4.39719 -0.183122 0
M  V30 3721 H 368.953 -0.728348 0.112598 0
M  V30 3722 H 371.595 -1.64566 0.949638 0
M  V30 3723 H 369.745 -3.88306 -0.122828 0
M  V30 3724 H 371.417 -3.88523 2.48691 0
M  V30 3725 H 369.66 -3.61574 2.39681 0
M  V30 3726 H 370.331 -5.177 1.91548 0
M  V30 3727 H 372.807 -4.15128 0.284303 0
M  V30 3728 H 371.683 -5.48856 -0.0692757 0
M  V30 3729 H 371.944 -4.23434 -1.27106 0
M  V30 3730 N 371.003 -0.499398 -1.49478 0
M  V30 3731 C 372.25 0.0456899 -2.02448 0
M  V30 3732 C 372.578 1.37142 -1.37921 0
M  V30 3733 O 371.833 1.89111 -0.503544 0
M  V30 3734 C 372.132 0.248424 -3.56536 0
M  V30 3735 C 371.798 -0.999107 -4.39692 0
M  V30 3736 C 370.46 -1.34108 -4.62135 0
M  V30 3737 C 372.812 -1.82842 -4.88076 0
M  V30 3738 C 370.14 -2.51191 -5.30208 0
M  V30 3739 C 372.492 -2.99076 -5.57437 0
M  V30 3740 C 371.156 -3.33655 -5.78127 0
M  V30 3741 H 370.426 0.0167191 -0.740811 0
M  V30 3742 H 373.073 -0.65923 -1.79795 0
M  V30 3743 H 371.378 1.03586 -3.77859 0
M  V30 3744 H 373.075 0.684605 -3.95113 0
M  V30 3745 H 369.665 -0.722729 -4.22463 0
M  V30 3746 H 373.849 -1.57737 -4.70566 0
M  V30 3747 H 369.105 -2.78221 -5.44429 0
M  V30 3748 H 373.279 -3.63664 -5.93904 0
M  V30 3749 H 370.906 -4.24483 -6.30649 0
M  V30 3750 N 372.481 1.55866 -0.233164 0
M  V30 3751 C 373.709 2.02998 0.399905 0
M  V30 3752 C 374.124 1.11274 1.52524 0
M  V30 3753 O 373.481 0.124528 1.82075 0
M  V30 3754 C 373.532 3.4958 0.920639 0
M  V30 3755 O 373.253 4.37808 -0.159834 0
M  V30 3756 C 374.754 4.12411 1.62578 0
M  V30 3757 H 371.974 0.664006 0.0966281 0
M  V30 3758 H 374.518 2.0143 -0.353013 0
M  V30 3759 H 372.673 3.51727 1.62379 0
M  V30 3760 H 373.087 5.23981 0.23337 0
M  V30 3761 H 374.561 5.16711 1.94201 0
M  V30 3762 H 375.038 3.5809 2.54299 0
M  V30 3763 H 375.644 4.14148 0.967553 0
M  V30 3764 N 373.959 -0.0401083 1.57549 0
M  V30 3765 C 375.375 -0.395556 1.54621 0
M  V30 3766 C 375.575 -1.77281 0.957799 0
M  V30 3767 O 374.631 -2.45888 0.574031 0
M  V30 3768 C 375.944 -0.307535 2.99123 0
M  V30 3769 C 377.492 -0.385425 3.10618 0
M  V30 3770 C 377.967 -0.326973 4.56831 0
M  V30 3771 N 379.458 -0.386102 4.61588 0
M  V30 3772 C 380.193 -0.363591 5.72246 0
M  V30 3773 N 379.689 -0.29402 6.92176 0
M  V30 3774 N 381.482 -0.412503 5.60584 0
M  V30 3775 H 373.633 0.861325 1.94152 0
M  V30 3776 H 375.896 0.326445 0.890021 0
M  V30 3777 H 375.602 0.638461 3.45856 0
M  V30 3778 H 375.476 -1.10552 3.60636 0
M  V30 3779 H 377.863 -1.32185 2.63839 0
M  V30 3780 H 377.944 0.44171 2.51957 0
M  V30 3781 H 377.588 0.605738 5.04275 0
M  V30 3782 H 377.518 -1.17207 5.13391 0
M  V30 3783 H 380.009 -0.442832 3.75296 0
M  V30 3784 H 380.322 -0.28164 7.72287 0
M  V30 3785 H 378.667 -0.260232 6.94513 0
M  V30 3786 H 381.858 -0.464769 4.65787 0
M  V30 3787 H 382.031 -0.391492 6.46816 0
M  V30 3788 N 375.437 -1.54477 -0.31217 0
M  V30 3789 C 376.683 -1.73483 -1.0503 0
M  V30 3790 C 377.016 -0.513125 -1.87298 0
M  V30 3791 O 376.291 0.489864 -1.8823 0
M  V30 3792 C 376.574 -3.01723 -1.96558 0
M  V30 3793 C 376.427 -4.3417 -1.17545 0
M  V30 3794 C 377.746 -3.25772 -2.95907 0
M  V30 3795 H 374.865 -0.631222 -0.380432 0
M  V30 3796 H 377.507 -1.87184 -0.325932 0
M  V30 3797 H 375.657 -2.90174 -2.58324 0
M  V30 3798 H 377.329 -4.5762 -0.581513 0
M  V30 3799 H 375.572 -4.31159 -0.477925 0
M  V30 3800 H 376.243 -5.20143 -1.84811 0
M  V30 3801 H 378.719 -3.36857 -2.44267 0
M  V30 3802 H 377.595 -4.16838 -3.57123 0
M  V30 3803 H 377.856 -2.43537 -3.68974 0
M  V30 3804 N 376.915 0.57481 -1.46744 0
M  V30 3805 C 378.14 1.36341 -1.56288 0
M  V30 3806 C 378.565 1.86954 -0.207347 0
M  V30 3807 O 377.923 1.62006 0.813871 0
M  V30 3808 C 377.971 2.52147 -2.57787 0
M  V30 3809 O 377.075 3.53834 -2.11838 0
M  V30 3810 H 376.416 0.405713 -0.525636 0
M  V30 3811 H 378.946 0.696453 -1.92382 0
M  V30 3812 H 378.956 2.98958 -2.77648 0
M  V30 3813 H 377.631 2.14663 -3.5622 0
M  V30 3814 H 376.208 3.1345 -2.01999 0
M  V30 3815 N 378.394 1.34581 0.820102 0
M  V30 3816 C 379.342 1.26401 1.95258 0
M  V30 3817 C 380.336 0.161553 1.68628 0
M  V30 3818 O 381.542 0.326703 1.7701 0
M  V30 3819 H 377.917 0.392749 0.64129 0
M  V30 3820 H 379.888 2.22105 1.99279 0
M  V30 3821 C 378.637 1.03919 3.31807 0
M  V30 3822 H 377.96 1.87984 3.52848 0
M  V30 3823 H 379.4 1.02232 4.11491 0
M  V30 3824 C 377.859 -0.257433 3.35915 0
M  V30 3825 O 378.389 -1.25784 3.81499 0
M  V30 3826 N 376.595 -0.291524 2.89134 0
M  V30 3827 H 376.142 0.523161 2.52232 0
M  V30 3828 H 376.1 -1.15883 2.92264 0
M  V30 3829 N 379.872 -1.04064 1.18357 0
M  V30 3830 C 381.102 -1.80654 1.00238 0
M  V30 3831 C 381.51 -1.83713 -0.452362 0
M  V30 3832 O 380.853 -1.27135 -1.32599 0
M  V30 3833 C 380.915 -3.27582 1.48088 0
M  V30 3834 C 380.579 -3.48184 2.96002 0
M  V30 3835 C 381.576 -3.39372 3.93856 0
M  V30 3836 C 379.261 -3.7478 3.34433 0
M  V30 3837 C 381.255 -3.5686 5.28138 0
M  V30 3838 C 378.942 -3.91915 4.68877 0
M  V30 3839 C 379.94 -3.82956 5.65539 0
M  V30 3840 O 379.628 -3.996 6.97549 0
M  V30 3841 H 379.36 -0.575751 0.354241 0
M  V30 3842 H 381.914 -1.32044 1.57333 0
M  V30 3843 H 380.144 -3.77161 0.853588 0
M  V30 3844 H 381.833 -3.8573 1.2636 0
M  V30 3845 H 382.599 -3.18789 3.65511 0
M  V30 3846 H 378.478 -3.80852 2.59756 0
M  V30 3847 H 382.022 -3.49783 6.03571 0
M  V30 3848 H 377.919 -4.11992 4.96923 0
M  V30 3849 H 378.687 -4.1676 7.04452 0
M  V30 3850 N 381.35 -0.985608 -1.22978 0
M  V30 3851 C 382.599 -0.652881 -1.90841 0
M  V30 3852 C 382.912 0.817842 -1.77681 0
M  V30 3853 O 384.118 1.26185 -2.40395 0
M  V30 3854 C 382.574 -1.11717 -3.42122 0
M  V30 3855 C 382.182 -2.6126 -3.63933 0
M  V30 3856 C 383.926 -0.85843 -4.1573 0
M  V30 3857 C 381.833 -3.0133 -5.08876 0
M  V30 3858 H 380.763 -0.240491 -0.714619 0
M  V30 3859 H 383.414 -1.1942 -1.39324 0
M  V30 3860 H 381.796 -0.504027 -3.92779 0
M  V30 3861 H 382.97 -3.27858 -3.23799 0
M  V30 3862 H 381.285 -2.84937 -3.03644 0
M  V30 3863 H 383.882 -1.13359 -5.22546 0
M  V30 3864 H 384.225 0.205461 -4.15793 0
M  V30 3865 H 384.758 -1.43341 -3.71077 0
M  V30 3866 H 381.497 -4.06864 -5.13947 0
M  V30 3867 H 381.017 -2.3943 -5.49939 0
M  V30 3868 H 382.696 -2.92224 -5.77247 0
M  V30 3869 N 382.828 1.3818 -0.7579 0
M  V30 3870 C 384.105 1.94106 -0.241306 0
M  V30 3871 C 384.485 1.69282 1.26122 0
M  V30 3872 O 383.833 1.03378 2.03777 0
M  V30 3873 C 384.043 3.43809 -0.59967 0
M  V30 3874 C 385.391 4.20868 -0.561717 0
M  V30 3875 O 386.415 3.5211 -0.538222 0
M  V30 3876 O 385.274 5.43451 -0.576478 0
M  V30 3877 H 382.368 0.825376 -0.0518042 0
M  V30 3878 H 384.914 1.47548 -0.838315 0
M  V30 3879 H 383.686 3.55403 -1.6372 0
M  V30 3880 H 383.309 3.97592 0.0251197 0
M  V30 3881 N 384.306 0.507319 1.49211 0
M  V30 3882 C 385.552 -0.0269732 2.03382 0
M  V30 3883 C 385.907 -1.34111 1.37957 0
M  V30 3884 O 385.2 -1.84733 0.508351 0
M  V30 3885 C 385.394 -0.229513 3.56662 0
M  V30 3886 C 385.223 1.06344 4.36945 0
M  V30 3887 C 383.993 1.617 4.78729 0
M  V30 3888 C 386.191 1.96833 4.75143 0
M  V30 3889 N 384.173 2.8552 5.43463 0
M  V30 3890 C 385.544 3.0523 5.39661 0
M  V30 3891 C 387.599 1.97434 4.57082 0
M  V30 3892 C 386.302 4.14265 5.88028 0
M  V30 3893 C 388.328 3.05448 5.06414 0
M  V30 3894 C 387.69 4.12564 5.70938 0
M  V30 3895 H 383.789 0.0310673 0.781383 0
M  V30 3896 H 386.373 0.683579 1.82305 0
M  V30 3897 H 384.544 -0.909127 3.7761 0
M  V30 3898 H 386.276 -0.761377 3.97473 0
M  V30 3899 H 383.031 1.16132 4.59141 0
M  V30 3900 H 383.455 3.48499 5.80412 0
M  V30 3901 H 388.097 1.15924 4.06597 0
M  V30 3902 H 385.815 4.96569 6.3753 0
M  V30 3903 H 389.401 3.06941 4.94246 0
M  V30 3904 H 388.281 4.94767 6.0842 0
M  V30 3905 N 385.784 -1.5574 0.241426 0
M  V30 3906 C 387.033 -1.97986 -0.385295 0
M  V30 3907 C 387.346 -1.13267 -1.59468 0
M  V30 3908 O 388.552 -1.45501 -2.2922 0
M  V30 3909 C 387.008 -3.52275 -0.736884 0
M  V30 3910 C 386.616 -4.45726 0.450796 0
M  V30 3911 C 388.36 -4.03189 -1.3281 0
M  V30 3912 C 386.267 -5.91352 0.0756662 0
M  V30 3913 H 385.197 -0.739386 -0.147731 0
M  V30 3914 H 387.848 -1.80308 0.340779 0
M  V30 3915 H 386.23 -3.65628 -1.52094 0
M  V30 3916 H 387.404 -4.44131 1.22819 0
M  V30 3917 H 385.719 -4.05264 0.956573 0
M  V30 3918 H 388.316 -5.09505 -1.62201 0
M  V30 3919 H 388.659 -3.50212 -2.25071 0
M  V30 3920 H 389.192 -3.93141 -0.607069 0
M  V30 3921 H 385.931 -6.48354 0.965272 0
M  V30 3922 H 385.451 -5.96095 -0.665635 0
M  V30 3923 H 387.13 -6.46084 -0.344075 0
M  V30 3924 N 387.262 0.0317525 -1.57568 0
M  V30 3925 C 388.21 1.05165 -2.07468 0
M  V30 3926 C 389.204 1.3761 -0.98792 0
M  V30 3927 O 390.41 1.36546 -1.17282 0
M  V30 3928 H 386.785 0.35666 -0.66204 0
M  V30 3929 H 388.756 0.604958 -2.92203 0
M  V30 3930 C 387.505 2.34488 -2.56731 0
M  V30 3931 H 386.828 2.10383 -3.39969 0
M  V30 3932 H 388.268 3.04203 -2.95358 0
M  V30 3933 C 386.727 3.03266 -1.46736 0
M  V30 3934 O 387.257 3.92988 -0.832069 0
M  V30 3935 N 385.463 2.6455 -1.20256 0
M  V30 3936 H 385.01 1.91674 -1.72102 0
M  V30 3937 H 384.968 3.10886 -0.468737 0
M  V30 3938 N 388.74 1.54641 0.303973 0
M  V30 3939 C 389.965 1.78092 1.06292 0
M  V30 3940 C 390.39 0.537342 1.80262 0
M  V30 3941 O 389.748 -0.511993 1.7392 0
M  V30 3942 C 389.796 2.98612 2.02147 0
M  V30 3943 O 388.9 2.71528 3.10397 0
M  V30 3944 H 388.241 0.589548 0.305497 0
M  V30 3945 H 390.771 2.01716 0.3423 0
M  V30 3946 H 390.781 3.265 2.44667 0
M  V30 3947 H 389.456 3.88785 1.47714 0
M  V30 3948 H 388.033 2.54648 2.72413 0
M  V30 3949 N 390.218 -0.567019 1.47046 0
M  V30 3950 C 391.464 -1.32658 1.53394 0
M  V30 3951 C 391.797 -1.93254 0.19148 0
M  V30 3952 O 391.072 -1.77338 -0.798844 0
M  V30 3953 C 391.355 -2.44412 2.64452 0
M  V30 3954 C 391.208 -1.88749 4.08282 0
M  V30 3955 C 392.527 -3.46387 2.71485 0
M  V30 3956 H 389.646 -0.48098 0.558415 0
M  V30 3957 H 392.288 -0.635481 1.79058 0
M  V30 3958 H 390.438 -3.03363 2.427 0
M  V30 3959 H 392.11 -1.34134 4.41368 0
M  V30 3960 H 390.353 -1.19481 4.17021 0
M  V30 3961 H 391.024 -2.69491 4.81745 0
M  V30 3962 H 393.5 -2.9734 2.91081 0
M  V30 3963 H 392.376 -4.2202 3.50985 0
M  V30 3964 H 392.637 -4.04616 1.78153 0
M  V30 3965 N 391.696 -1.35014 -0.812953 0
M  V30 3966 C 392.945 -1.27269 -1.56479 0
M  V30 3967 C 393.258 0.152771 -1.95002 0
M  V30 3968 O 394.464 0.352451 -2.69203 0
M  V30 3969 C 392.92 -2.23159 -2.82362 0
M  V30 3970 C 392.528 -3.71016 -2.511 0
M  V30 3971 C 394.272 -2.24342 -3.60376 0
M  V30 3972 C 392.179 -4.58746 -3.73237 0
M  V30 3973 H 391.109 -0.472829 -0.587324 0
M  V30 3974 H 393.76 -1.6024 -0.894171 0
M  V30 3975 H 392.142 -1.83151 -3.51101 0
M  V30 3976 H 393.316 -4.1962 -1.90409 0
M  V30 3977 H 391.631 -3.72378 -1.86343 0
M  V30 3978 H 394.228 -2.87107 -4.51081 0
M  V30 3979 H 394.571 -1.24542 -3.97234 0
M  V30 3980 H 395.104 -2.62846 -2.98591 0
M  V30 3981 H 391.843 -5.59521 -3.41492 0
M  V30 3982 H 391.363 -4.14871 -4.33176 0
M  V30 3983 H 393.042 -4.73852 -4.40537 0
M  V30 3984 N 393.175 1.03435 -1.18907 0
M  V30 3985 C 394.138 2.09756 -0.923844 0
M  V30 3986 C 395.138 1.60528 0.093416 0
M  V30 3987 O 396.328 1.73631 -0.140727 0
M  V30 3988 C 393.46 3.38692 -0.387354 0
M  V30 3989 H 394.653 2.34719 -1.86674 0
M  V30 3990 H 392.206 1.19959 -1.00197 0
M  V30 3991 H 392.941 3.19396 0.561845 0
M  V30 3992 H 392.726 3.75742 -1.12074 0
M  V30 3993 H 394.216 4.17016 -0.220694 0
M  V30 3994 N 394.653 0.992116 1.22453 0
M  V30 3995 C 395.601 0.534644 2.26372 0
M  V30 3996 C 396.595 -0.414293 1.64256 0
M  V30 3997 O 397.801 -0.286899 1.77699 0
M  V30 3998 H 394.176 0.154502 0.735957 0
M  V30 3999 H 396.147 1.42256 2.62309 0
M  V30 4000 C 394.896 -0.135815 3.47435 0
M  V30 4001 H 394.219 0.585311 3.95492 0
M  V30 4002 H 395.659 -0.419374 4.21921 0
M  V30 4003 C 394.118 -1.37089 3.07747 0
M  V30 4004 O 394.648 -2.46629 3.17076 0
M  V30 4005 N 392.854 -1.24585 2.62539 0
M  V30 4006 H 392.401 -0.354542 2.55149 0
M  V30 4007 H 392.359 -2.07327 2.36353 0
M  V30 4008 N 396.131 -1.37776 0.765217 0
M  V30 4009 C 397.079 -2.32209 0.134798 0
M  V30 4010 C 398.073 -1.54607 -0.692315 0
M  V30 4011 O 399.279 -1.70052 -0.590109 0
M  V30 4012 H 395.654 -0.751591 0.0248005 0
M  V30 4013 H 397.625 -2.8297 0.947119 0
M  V30 4014 C 396.374 -3.39841 -0.735063 0
M  V30 4015 H 395.697 -3.99654 -0.107991 0
M  V30 4016 H 397.137 -4.08296 -1.14326 0
M  V30 4017 C 395.596 -2.79378 -1.88281 0
M  V30 4018 O 396.126 -2.69608 -2.97783 0
M  V30 4019 N 394.332 -2.37016 -1.68142 0
M  V30 4020 H 393.879 -2.45162 -0.790772 0
M  V30 4021 H 393.837 -1.96905 -2.45104 0
M  V30 4022 O 397.648 -0.656736 -1.47544 0
M  V30 4023 H 398.339 -0.183317 -1.92831 0
M  V30 END ATOM
M  V30 BEGIN BOND
M  V30 END BOND
M  V30 END CTAB
M  END
$$$$
