drugbank_target|P23083 Immunoglobulin heavy variable 1-2 (DB08273; DB08294; DB08295)
 OpenBabel12092120503D

  0  0  0     0  0            999 V3000
M  V30 BEGIN CTAB
M  V30 COUNTS 1807 1833 0 0 0
M  V30 BEGIN ATOM
M  V30 1 H -0.908 1.98254 -0.117106 0
M  V30 2 N 0 1.576 0 0
M  V30 3 C 0.933 2.03868 1.02534 0
M  V30 4 C 1.911 0.928543 1.3348 0
M  V30 5 O 3.095 1.19667 1.45644 0
M  V30 6 C 0.222 2.43627 2.35294 0
M  V30 7 C -0.732 3.65373 2.2001 0
M  V30 8 S 0.101 5.13292 1.52614 0
M  V30 9 C 1.257 5.56322 2.86805 0
M  V30 10 H 1.49 2.90518 0.631377 0
M  V30 11 H -0.977 1.52953 0.210867 0
M  V30 12 H 0.981 2.67203 3.11629 0
M  V30 13 H -0.358 1.57376 2.7183 0
M  V30 14 H -1.165 3.90944 3.18086 0
M  V30 15 H -1.563 3.418 1.51819 0
M  V30 16 H 0.729 5.58782 3.83104 0
M  V30 17 H 1.672 6.56266 2.65933 0
M  V30 18 H 2.08 4.83886 2.90714 0
M  V30 19 N 1.4781 -0.272755 1.55222 0
M  V30 20 C 2.7551 -1.02562 1.66555 0
M  V30 21 C 3.1351 -2.04282 0.532189 0
M  V30 22 O 2.4831 -2.23662 -0.467717 0
M  V30 23 C 2.6931 -1.6822 3.05782 0
M  V30 24 C 4.0411 -2.19373 3.63539 0
M  V30 25 O 5.0651 -1.78206 3.08417 0
M  V30 26 O 3.9241 -2.94883 4.60115 0
M  V30 27 H 1.0181 -0.475755 0.676451 0
M  V30 28 H 3.5641 -0.268593 1.67561 0
M  V30 29 H 2.3361 -0.945112 3.79715 0
M  V30 30 H 1.9591 -2.50609 3.08676 0
M  V30 31 N 2.9562 -1.48159 -0.537278 0
M  V30 32 C 4.2022 -1.57015 -1.29297 0
M  V30 33 C 4.5572 -0.237791 -1.90925 0
M  V30 34 O 3.8502 0.758621 -1.75942 0
M  V30 35 C 4.0442 -2.63956 -2.40961 0
M  V30 36 C 3.8732 -4.07461 -1.90278 0
M  V30 37 C 2.6432 -4.74685 -1.73213 0
M  V30 38 C 4.8412 -4.93858 -1.43556 0
M  V30 39 N 2.8232 -6.02633 -1.17078 0
M  V30 40 C 4.1942 -6.11993 -0.993204 0
M  V30 41 C 6.2492 -4.80141 -1.31792 0
M  V30 42 C 4.9522 -7.17923 -0.444872 0
M  V30 43 C 6.9782 -5.86186 -0.783585 0
M  V30 44 C 6.3402 -7.03524 -0.351261 0
M  V30 45 H 2.4392 -0.629154 -0.464423 0
M  V30 46 H 5.0232 -1.85006 -0.606705 0
M  V30 47 H 3.1942 -2.378 -3.07093 0
M  V30 48 H 4.9262 -2.62539 -3.07986 0
M  V30 49 H 1.6812 -4.30902 -1.9652 0
M  V30 50 H 2.1052 -6.7085 -0.910421 0
M  V30 51 H 6.7472 -3.89772 -1.63823 0
M  V30 52 H 4.4652 -8.08022 -0.11222 0
M  V30 53 H 8.0512 -5.77624 -0.695835 0
M  V30 54 H 6.9312 -7.8418 0.055777 0
M  V30 55 N 4.4343 0.785586 -1.36625 0
M  V30 56 C 5.6623 1.57448 -1.3423 0
M  V30 57 C 6.0773 1.88649 0.0755653 0
M  V30 58 O 5.4343 1.50414 1.03354 0
M  V30 59 C 5.4853 2.89316 -2.16745 0
M  V30 60 O 5.2063 2.59459 -3.53005 0
M  V30 61 C 6.7073 3.83606 -2.22174 0
M  V30 62 H 3.9273 0.488226 -0.4603 0
M  V30 63 H 6.4713 0.974733 -1.79775 0
M  V30 64 H 4.6263 3.4575 -1.74745 0
M  V30 65 H 5.0403 3.43804 -3.96105 0
M  V30 66 H 6.5143 4.73181 -2.8426 0
M  V30 67 H 6.9913 4.21734 -1.22627 0
M  V30 68 H 7.5973 3.33104 -2.64427 0
M  V30 69 N 5.9124 1.20967 1.01018 0
M  V30 70 C 7.1584 1.0353 1.7508 0
M  V30 71 C 7.5134 -0.42734 1.87594 0
M  V30 72 O 6.8064 -1.31298 1.3954 0
M  V30 73 C 7.0004 1.65997 3.16512 0
M  V30 74 C 6.8294 3.18184 3.17788 0
M  V30 75 C 5.5994 3.87198 3.24662 0
M  V30 76 C 7.7974 4.15334 3.03319 0
M  V30 77 N 5.7794 5.26618 3.15509 0
M  V30 78 C 7.1504 5.41472 3.02007 0
M  V30 79 C 9.2054 4.06449 2.87583 0
M  V30 80 C 7.9084 6.5975 2.86571 0
M  V30 81 C 9.9344 5.24357 2.73503 0
M  V30 82 C 9.2964 6.49404 2.72862 0
M  V30 83 H 5.3954 0.433137 0.651089 0
M  V30 84 H 7.9794 1.5324 1.20107 0
M  V30 85 H 6.1504 1.18863 3.69765 0
M  V30 86 H 7.8824 1.41816 3.79039 0
M  V30 87 H 4.6374 3.38093 3.31648 0
M  V30 88 H 5.0614 5.99626 3.14289 0
M  V30 89 H 9.7034 3.10573 2.86887 0
M  V30 90 H 7.4214 7.55792 2.86015 0
M  V30 91 H 11.0074 5.19299 2.62334 0
M  V30 92 H 9.8874 7.39105 2.62093 0
M  V30 93 N 7.3905 -1.2043 1.01659 0
M  V30 94 C 8.8065 -1.41852 0.731442 0
M  V30 95 C 9.0065 -1.89358 -0.688898 0
M  V30 96 O 8.0625 -2.06247 -1.45666 0
M  V30 97 C 9.3755 -2.44019 1.75714 0
M  V30 98 C 10.9235 -2.57785 1.77527 0
M  V30 99 C 11.3985 -3.63194 2.79023 0
M  V30 100 N 12.8895 -3.70678 2.77763 0
M  V30 101 C 13.6245 -4.51897 3.52954 0
M  V30 102 N 13.1205 -5.36921 4.37821 0
M  V30 103 N 14.9135 -4.4643 3.41551 0
M  V30 104 H 7.0645 -0.879093 1.93354 0
M  V30 105 H 9.3275 -0.448425 0.835236 0
M  V30 106 H 9.0335 -2.1611 2.77469 0
M  V30 107 H 8.9075 -3.43007 1.56927 0
M  V30 108 H 11.2945 -2.85023 0.764569 0
M  V30 109 H 11.3755 -1.58992 2.00387 0
M  V30 110 H 11.0195 -3.36699 3.80258 0
M  V30 111 H 10.9495 -4.61609 2.53425 0
M  V30 112 H 13.4405 -3.09944 2.16201 0
M  V30 113 H 13.7535 -5.95981 4.91962 0
M  V30 114 H 12.0985 -5.36424 4.41899 0
M  V30 115 H 15.2895 -3.79042 2.74672 0
M  V30 116 H 15.4625 -5.09491 4.00404 0
M  V30 117 N 8.8686 -0.792821 -1.36206 0
M  V30 118 C 10.1176 -0.363353 -1.984 0
M  V30 119 C 10.4306 1.07172 -1.63626 0
M  V30 120 O 11.6366 1.60362 -2.19081 0
M  V30 121 C 10.0926 -0.59872 -3.54885 0
M  V30 122 C 9.7006 -2.04543 -3.9858 0
M  V30 123 C 11.4446 -0.233926 -4.23855 0
M  V30 124 C 9.3516 -2.22727 -5.47856 0
M  V30 125 H 8.2816 -0.13212 -0.742334 0
M  V30 126 H 10.9326 -0.974935 -1.55458 0
M  V30 127 H 9.3146 0.0826222 -3.95914 0
M  V30 128 H 10.4886 -2.76345 -3.68741 0
M  V30 129 H 8.8036 -2.36879 -3.42458 0
M  V30 130 H 11.4006 -0.348027 -5.33566 0
M  V30 131 H 11.7436 0.818351 -4.08177 0
M  V30 132 H 12.2766 -0.868639 -3.882 0
M  V30 133 H 9.0156 -3.2635 -5.68486 0
M  V30 134 H 8.5356 -1.55434 -5.7931 0
M  V30 135 H 10.2146 -2.03607 -6.14128 0
M  V30 136 N 10.3467 1.47872 -0.545128 0
M  V30 137 C 11.2767 2.32661 0.197793 0
M  V30 138 C 12.2577 1.43041 0.920504 0
M  V30 139 O 13.4427 1.71912 0.90333 0
M  V30 140 C 10.5727 3.24569 1.23582 0
M  V30 141 C 9.5267 4.23333 0.630323 0
M  V30 142 C 8.8527 5.0448 1.77211 0
M  V30 143 C 10.1527 5.20704 -0.407974 0
M  V30 144 H 11.8467 2.95024 -0.510045 0
M  V30 145 H 9.3927 1.4187 -0.246731 0
M  V30 146 H 11.3457 3.8272 1.76362 0
M  V30 147 H 10.0697 2.60236 1.97344 0
M  V30 148 H 8.7287 3.6639 0.123922 0
M  V30 149 H 8.3767 4.36561 2.49847 0
M  V30 150 H 8.0767 5.71339 1.37281 0
M  V30 151 H 9.6007 5.65487 2.3034 0
M  V30 152 H 11.0147 5.7329 0.033305 0
M  V30 153 H 9.4117 5.95699 -0.725486 0
M  V30 154 H 10.4817 4.66917 -1.30828 0
M  V30 155 N 11.8248 0.280983 1.55075 0
M  V30 156 C 13.0718 -0.334115 1.99725 0
M  V30 157 C 13.3998 -1.5542 1.1694 0
M  V30 158 O 12.6548 -1.94361 0.228531 0
M  V30 159 C 12.9538 -0.754656 3.49342 0
M  V30 160 C 12.6198 0.361445 4.49449 0
M  V30 161 C 11.2818 0.667893 4.76542 0
M  V30 162 C 13.6338 1.11322 5.09173 0
M  V30 163 C 10.9618 1.7296 5.60626 0
M  V30 164 C 13.3138 2.1647 5.9441 0
M  V30 165 C 11.9778 2.47742 6.19822 0
M  V30 166 H 11.2478 -0.122261 0.730844 0
M  V30 167 H 13.8948 0.395917 1.87363 0
M  V30 168 H 12.1998 -1.56446 3.5921 0
M  V30 169 H 13.8968 -1.24142 3.813 0
M  V30 170 H 10.4868 0.112481 4.28452 0
M  V30 171 H 14.6708 0.88973 4.8826 0
M  V30 172 H 9.9268 1.97684 5.78559 0
M  V30 173 H 14.1008 2.75193 6.3972 0
M  V30 174 H 11.7278 3.30145 6.84769 0
M  V30 175 N 13.3029 -1.57598 0.00835791 0
M  V30 176 C 14.2329 -2.1198 -0.979113 0
M  V30 177 C 15.2139 -1.03091 -1.35301 0
M  V30 178 O 16.3989 -1.30818 -1.43528 0
M  V30 179 C 13.5289 -2.62995 -2.26828 0
M  V30 180 C 12.4829 -3.76485 -2.03576 0
M  V30 181 C 11.8089 -4.13846 -3.38579 0
M  V30 182 C 13.1089 -5.0342 -1.39161 0
M  V30 183 H 14.8029 -2.94738 -0.526281 0
M  V30 184 H 12.3489 -1.41783 -0.251704 0
M  V30 185 H 14.3019 -2.99669 -2.96271 0
M  V30 186 H 13.0259 -1.7737 -2.7424 0
M  V30 187 H 11.6849 -3.40217 -1.36557 0
M  V30 188 H 11.3329 -3.25232 -3.83709 0
M  V30 189 H 11.0329 -4.90312 -3.23834 0
M  V30 190 H 12.5569 -4.53086 -4.09323 0
M  V30 191 H 13.9709 -5.37812 -1.98573 0
M  V30 192 H 12.3679 -5.84746 -1.34878 0
M  V30 193 H 13.4379 -4.83548 -0.361868 0
M  V30 194 N 14.781 0.264519 -1.55364 0
M  V30 195 C 16.027 0.99646 -1.76631 0
M  V30 196 C 16.36 1.85632 -0.570478 0
M  V30 197 O 15.635 1.89647 0.43175 0
M  V30 198 C 15.918 1.87187 -3.07625 0
M  V30 199 C 15.771 1.04138 -4.37579 0
M  V30 200 C 17.09 2.85749 -3.34717 0
M  V30 201 H 14.209 0.360841 -0.642622 0
M  V30 202 H 16.851 0.268218 -1.88097 0
M  V30 203 H 15.001 2.49279 -2.9798 0
M  V30 204 H 16.673 0.440517 -4.59192 0
M  V30 205 H 14.916 0.345115 -4.32425 0
M  V30 206 H 15.587 1.68729 -5.2558 0
M  V30 207 H 18.063 2.33793 -3.4421 0
M  V30 208 H 16.939 3.44136 -4.27623 0
M  V30 209 H 17.2 3.61311 -2.54768 0
M  V30 210 N 16.2591 1.48442 0.529413 0
M  V30 211 C 17.2221 1.62524 1.61612 0
M  V30 212 C 18.2221 0.498509 1.52877 0
M  V30 213 O 19.4121 0.76431 1.56537 0
M  V30 214 C 16.5441 1.59597 3.01233 0
M  V30 215 H 17.7371 2.59423 1.50465 0
M  V30 216 H 15.2901 1.37047 0.751514 0
M  V30 217 H 16.0251 0.641781 3.17886 0
M  V30 218 H 15.8101 2.41397 3.08982 0
M  V30 219 H 17.3001 1.72646 3.80241 0
M  V30 220 N 17.7372 -0.778329 1.37039 0
M  V30 221 C 18.7002 -1.87301 1.32102 0
M  V30 222 C 19.7002 -1.59198 0.226405 0
M  V30 223 O 20.8902 -1.67403 0.481861 0
M  V30 224 C 18.0222 -3.24309 1.05055 0
M  V30 225 H 19.2152 -1.93093 2.29467 0
M  V30 226 H 16.7682 -0.977358 1.21973 0
M  V30 227 H 17.5032 -3.24196 0.0819373 0
M  V30 228 H 17.2882 -3.46098 1.84279 0
M  V30 229 H 18.7782 -4.04382 1.04234 0
M  V30 230 N 19.2153 -1.21501 -1.00376 0
M  V30 231 C 20.1783 -0.976927 -2.07337 0
M  V30 232 C 21.1783 0.0525322 -1.60714 0
M  V30 233 O 22.3683 -0.184869 -1.73216 0
M  V30 234 C 19.5003 -0.473423 -3.37597 0
M  V30 235 H 20.6933 -1.92587 -2.29892 0
M  V30 236 H 18.2463 -1.03217 -1.17371 0
M  V30 237 H 18.9813 0.480379 -3.20722 0
M  V30 238 H 18.7663 -1.216 -3.72768 0
M  V30 239 H 20.2563 -0.32675 -4.1632 0
M  V30 240 N 20.6934 1.19889 -1.02296 0
M  V30 241 C 21.9214 1.9339 -0.735399 0
M  V30 242 C 22.3364 1.75148 0.704887 0
M  V30 243 O 21.6934 1.06954 1.47875 0
M  V30 244 C 21.7444 3.45313 -1.06962 0
M  V30 245 O 21.4654 3.62964 -2.45334 0
M  V30 246 C 22.9664 4.35948 -0.804021 0
M  V30 247 H 20.1864 0.61448 -0.269546 0
M  V30 248 H 22.7304 1.522 -1.36585 0
M  V30 249 H 20.8854 3.84359 -0.484455 0
M  V30 250 H 21.2994 4.56886 -2.57595 0
M  V30 251 H 22.7734 5.41174 -1.0879 0
M  V30 252 H 23.2504 4.3842 0.261691 0
M  V30 253 H 23.8564 4.02574 -1.37164 0
M  V30 254 N 22.1715 0.800033 1.35784 0
M  V30 255 C 23.4195 0.376597 1.9856 0
M  V30 256 C 23.7405 -1.05812 1.63795 0
M  V30 257 O 23.0105 -1.73103 0.917171 0
M  V30 258 H 21.5905 0.136261 0.734467 0
M  V30 259 H 24.2525 1.02442 1.65806 0
M  V30 260 H 23.3485 0.477002 3.08433 0
M  V30 261 N 23.6496 -1.47581 0.552962 0
M  V30 262 C 24.6126 -2.28439 -0.186605 0
M  V30 263 C 25.6126 -1.36706 -0.84665 0
M  V30 264 O 26.8026 -1.59378 -0.703164 0
M  V30 265 C 23.9346 -3.16264 -1.2724 0
M  V30 266 H 25.1276 -2.95294 0.523609 0
M  V30 267 H 22.6806 -1.532 0.309745 0
M  V30 268 H 23.4156 -2.54091 -2.01514 0
M  V30 269 H 23.2006 -3.83769 -0.803968 0
M  V30 270 H 24.6906 -3.77198 -1.79196 0
M  V30 271 N 25.1277 -0.289203 -1.54924 0
M  V30 272 C 26.0777 0.606939 -2.19773 0
M  V30 273 C 27.0617 1.10783 -1.16687 0
M  V30 274 O 28.2537 1.05057 -1.4245 0
M  V30 275 C 25.3827 1.78398 -2.93307 0
M  V30 276 C 24.4687 1.29961 -4.03697 0
M  V30 277 N 24.8597 0.532377 -5.0299 0
M  V30 278 C 23.1577 1.58136 -4.17024 0
M  V30 279 C 23.8587 0.275912 -5.81045 0
M  V30 280 N 22.8347 0.852365 -5.36876 0
M  V30 281 H 26.6367 0.0130779 -2.93897 0
M  V30 282 H 24.1507 -0.09341 -1.62131 0
M  V30 283 H 26.1477 2.43741 -3.38225 0
M  V30 284 H 24.8077 2.38166 -2.20697 0
M  V30 285 H 25.8187 0.17838 -5.17593 0
M  V30 286 H 22.4957 2.18738 -3.55612 0
M  V30 287 H 23.8857 -0.339502 -6.71042 0
M  V30 288 N 26.6058 1.57591 -0.0167156 0
M  V30 289 C 27.8308 1.9598 0.67872 0
M  V30 290 C 28.2558 0.892546 1.65575 0
M  V30 291 O 27.6138 -0.147772 1.80697 0
M  V30 292 C 27.6618 3.33468 1.37227 0
M  V30 293 O 26.7658 3.28954 2.48722 0
M  V30 294 H 26.1068 0.639339 0.17928 0
M  V30 295 H 28.6368 2.04463 -0.0748802 0
M  V30 296 H 28.6468 3.69417 1.7319 0
M  V30 297 H 27.3218 4.10694 0.656007 0
M  V30 298 H 25.8988 3.04705 2.14963 0
M  V30 299 N 28.0839 -0.256276 1.55502 0
M  V30 300 C 29.0159 -1.33981 1.85962 0
M  V30 301 C 30.0289 -1.44743 0.745212 0
M  V30 302 O 31.2179 -1.4626 1.02324 0
M  V30 303 C 28.3179 -2.7194 2.02242 0
M  V30 304 C 27.4909 -2.83562 3.33033 0
M  V30 305 C 26.5499 -4.02304 3.39172 0
M  V30 306 O 25.5759 -3.92273 4.12444 0
M  V30 307 N 26.7779 -5.15045 2.67784 0
M  V30 308 H 29.5429 -1.08191 2.7949 0
M  V30 309 H 27.1039 -0.446388 1.55624 0
M  V30 310 H 29.0959 -3.49697 2.03701 0
M  V30 311 H 27.6659 -2.90479 1.15502 0
M  V30 312 H 26.8859 -1.92555 3.43971 0
M  V30 313 H 28.1739 -2.88271 4.19258 0
M  V30 314 H 27.5719 -5.26085 2.07968 0
M  V30 315 H 26.1289 -5.90972 2.74947 0
M  V30 316 N 29.562 -1.4872 -0.521534 0
M  V30 317 C 30.808 -1.574 -1.27879 0
M  V30 318 C 31.141 -0.250817 -1.92573 0
M  V30 319 O 30.416 0.743934 -1.79711 0
M  V30 320 C 30.699 -2.71843 -2.36164 0
M  V30 321 C 30.552 -4.13893 -1.76105 0
M  V30 322 C 31.871 -2.82008 -3.37875 0
M  V30 323 H 28.99 -0.572941 -0.463581 0
M  V30 324 H 31.632 -1.80927 -0.580119 0
M  V30 325 H 29.782 -2.51914 -2.95756 0
M  V30 326 H 31.454 -4.45284 -1.20499 0
M  V30 327 H 29.697 -4.20498 -1.06601 0
M  V30 328 H 30.368 -4.89804 -2.5455 0
M  V30 329 H 32.844 -3.00086 -2.88249 0
M  V30 330 H 31.72 -3.63796 -4.11028 0
M  V30 331 H 31.981 -1.90511 -3.98946 0
M  V30 332 N 31.0401 0.771051 -1.3745 0
M  V30 333 C 31.9721 1.89352 -1.29146 0
M  V30 334 C 32.9851 1.61477 -0.207124 0
M  V30 335 O 34.1741 1.72382 -0.463324 0
M  V30 336 C 31.2741 3.24596 -0.974195 0
M  V30 337 C 30.4471 3.80111 -2.16413 0
M  V30 338 C 29.5061 4.93832 -1.81703 0
M  V30 339 O 28.5321 5.09382 -2.54006 0
M  V30 340 N 29.7341 5.75483 -0.761573 0
M  V30 341 H 32.4991 1.96991 -2.25864 0
M  V30 342 H 30.0601 0.950191 -1.31084 0
M  V30 343 H 32.0521 3.98193 -0.722828 0
M  V30 344 H 30.6221 3.12454 -0.0955527 0
M  V30 345 H 29.8421 2.98284 -2.57721 0
M  V30 346 H 31.1301 4.13932 -2.95867 0
M  V30 347 H 30.5281 5.65469 -0.161609 0
M  V30 348 H 29.0851 6.49302 -0.570064 0
M  V30 349 N 32.5182 1.22032 0.997298 0
M  V30 350 C 33.4482 1.01065 2.10495 0
M  V30 351 C 34.4292 -0.0669542 1.69968 0
M  V30 352 O 35.6142 0.0943987 1.9397 0
M  V30 353 C 32.7442 0.582874 3.42374 0
M  V30 354 C 31.6982 1.60592 3.96729 0
M  V30 355 C 31.0242 1.03412 5.24605 0
M  V30 356 C 32.3242 2.99478 4.27914 0
M  V30 357 H 34.0182 1.93708 2.28292 0
M  V30 358 H 31.5642 0.932761 1.09707 0
M  V30 359 H 33.5172 0.423332 4.19268 0
M  V30 360 H 32.2412 -0.379213 3.24391 0
M  V30 361 H 30.9002 1.75316 3.21963 0
M  V30 362 H 30.5482 0.063518 5.0296 0
M  V30 363 H 30.2482 1.71754 5.61938 0
M  V30 364 H 31.7722 0.886066 6.04137 0
M  V30 365 H 33.1862 2.88153 4.95622 0
M  V30 366 H 31.5832 3.64903 4.76409 0
M  V30 367 H 32.6532 3.49742 3.3587 0
M  V30 368 N 33.9963 -1.19345 1.0293 0
M  V30 369 C 35.2423 -1.89318 0.727083 0
M  V30 370 C 35.5753 -1.79446 -0.742483 0
M  V30 371 O 34.8503 -1.1871 -1.54072 0
M  V30 372 C 35.1333 -3.40238 1.17942 0
M  V30 373 C 34.9863 -3.58979 2.71024 0
M  V30 374 C 36.3053 -4.33479 0.760548 0
M  V30 375 H 33.4243 -0.687475 0.265606 0
M  V30 376 H 36.0663 -1.40477 1.2793 0
M  V30 377 H 34.2163 -3.81964 0.709608 0
M  V30 378 H 35.8883 -3.26421 3.25955 0
M  V30 379 H 34.1313 -3.02018 3.11396 0
M  V30 380 H 34.8023 -4.64823 2.9773 0
M  V30 381 H 37.2783 -3.99469 1.16464 0
M  V30 382 H 36.1543 -5.37664 1.10493 0
M  V30 383 H 36.4153 -4.40813 -0.337063 0
M  V30 384 N 35.4744 -0.807222 -1.35358 0
M  V30 385 C 36.4064 -0.175717 -2.28525 0
M  V30 386 C 37.4194 0.625354 -1.5031 0
M  V30 387 O 38.6084 0.457611 -1.72535 0
M  V30 388 C 35.7084 0.773471 -3.29956 0
M  V30 389 C 34.8814 0.0186296 -4.37396 0
M  V30 390 C 33.9404 0.886395 -5.18681 0
M  V30 391 O 32.9664 0.337106 -5.68201 0
M  V30 392 N 34.1684 2.20839 -5.36852 0
M  V30 393 H 36.9334 -0.976091 -2.83359 0
M  V30 394 H 34.4944 -0.662737 -1.47714 0
M  V30 395 H 36.4864 1.35824 -3.81227 0
M  V30 396 H 35.0564 1.47465 -2.75632 0
M  V30 397 H 34.2764 -0.747349 -3.87051 0
M  V30 398 H 35.5644 -0.501577 -5.06322 0
M  V30 399 H 34.9624 2.67858 -4.98265 0
M  V30 400 H 33.5194 2.74237 -5.91301 0
M  V30 401 N 36.9525 1.47285 -0.560781 0
M  V30 402 C 38.1775 2.07359 -0.0410566 0
M  V30 403 C 38.6025 1.41017 1.24483 0
M  V30 404 O 37.9605 0.486368 1.74654 0
M  V30 405 C 38.0085 3.6035 0.134123 0
M  V30 406 O 37.1125 3.94681 1.19587 0
M  V30 407 H 36.4535 0.661887 -0.0529291 0
M  V30 408 H 38.9835 1.89252 -0.777482 0
M  V30 409 H 38.9935 4.0652 0.347207 0
M  V30 410 H 37.6685 4.08034 -0.805047 0
M  V30 411 H 36.2455 3.60251 0.962987 0
M  V30 412 N 38.4306 0.297415 1.54768 0
M  V30 413 C 39.6786 -0.312295 1.99673 0
M  V30 414 C 39.9996 -1.54686 1.18732 0
M  V30 415 O 39.2696 -1.93854 0.282382 0
M  V30 416 H 37.8496 -0.118381 0.73756 0
M  V30 417 H 40.5116 0.407915 1.90583 0
M  V30 418 H 39.6076 -0.586813 3.06534 0
M  V30 419 N 39.9087 -1.5758 0.0250728 0
M  V30 420 C 40.8717 -2.08896 -0.943139 0
M  V30 421 C 41.8717 -1.00321 -1.25668 0
M  V30 422 O 43.0617 -1.26495 -1.19769 0
M  V30 423 C 40.1937 -2.55143 -2.26086 0
M  V30 424 H 41.3867 -2.95723 -0.498775 0
M  V30 425 H 38.9397 -1.54703 -0.222888 0
M  V30 426 H 39.6747 -1.71633 -2.75159 0
M  V30 427 H 39.4597 -3.34461 -2.04641 0
M  V30 428 H 40.9497 -2.95083 -2.95492 0
M  V30 429 N 41.3868 0.248026 -1.55636 0
M  V30 430 C 42.2968 1.32859 -1.93354 0
M  V30 431 C 43.3128 1.52719 -0.833838 0
M  V30 432 O 44.4888 1.66363 -1.13513 0
M  V30 433 C 41.5538 2.66337 -2.21958 0
M  V30 434 C 40.6148 2.55008 -3.45354 0
M  V30 435 C 39.8478 3.82121 -3.72584 0
M  V30 436 O 40.0708 4.83951 -3.01907 0
M  V30 437 O 39.0048 3.80822 -4.6611 0
M  V30 438 H 42.8308 1.03862 -2.85388 0
M  V30 439 H 40.4158 0.448686 -1.42503 0
M  V30 440 H 42.2978 3.45216 -2.4167 0
M  V30 441 H 40.9728 2.95068 -1.33103 0
M  V30 442 H 39.8798 1.7442 -3.30951 0
M  V30 443 H 41.2128 2.31222 -4.34508 0
M  V30 444 N 42.8649 1.48995 0.513639 0
M  V30 445 C 44.1109 1.58076 1.27042 0
M  V30 446 C 44.4439 0.261026 1.92438 0
M  V30 447 O 43.7189 -0.734393 1.80103 0
M  V30 448 C 44.0019 2.73091 2.34719 0
M  V30 449 C 43.8549 4.14821 1.73907 0
M  V30 450 C 45.1739 2.83796 3.36375 0
M  V30 451 H 42.2929 0.575391 0.460536 0
M  V30 452 H 44.9349 1.81232 0.570516 0
M  V30 453 H 43.0849 2.53479 2.94416 0
M  V30 454 H 44.7569 4.45917 1.18135 0
M  V30 455 H 42.9999 4.21058 1.0437 0
M  V30 456 H 43.6709 4.91147 2.51949 0
M  V30 457 H 46.1469 3.01611 2.86653 0
M  V30 458 H 45.0229 3.65971 4.09093 0
M  V30 459 H 45.2839 1.92624 3.9793 0
M  V30 460 N 44.343 -0.763751 1.37857 0
M  V30 461 C 45.29 -1.87726 1.34267 0
M  V30 462 C 46.26 -1.64807 0.206879 0
M  V30 463 O 47.445 -1.86613 0.397508 0
M  V30 464 C 44.585 -3.24896 1.16346 0
M  V30 465 C 43.698 -3.59716 2.39225 0
M  V30 466 C 42.833 -4.86137 2.14114 0
M  V30 467 C 41.872 -5.13711 3.32817 0
M  V30 468 N 41.009 -6.31323 3.07206 0
M  V30 469 H 45.849 -1.90129 2.29466 0
M  V30 470 H 43.386 -0.929433 1.14017 0
M  V30 471 H 45.344 -4.04036 1.03975 0
M  V30 472 H 43.974 -3.21847 0.247909 0
M  V30 473 H 43.026 -2.75498 2.62307 0
M  V30 474 H 44.338 -3.76027 3.27728 0
M  V30 475 H 43.492 -5.73198 1.9882 0
M  V30 476 H 42.231 -4.71945 1.22961 0
M  V30 477 H 41.236 -4.25123 3.48641 0
M  V30 478 H 42.461 -5.29807 4.24832 0
M  V30 479 H 40.407 -6.18474 2.1869 0
M  V30 480 H 40.324 -6.48087 3.89254 0
M  V30 481 H 41.592 -7.213 2.95546 0
M  V30 482 N 45.8211 -1.22559 -0.990812 0
M  V30 483 C 46.7681 -0.997519 -2.0813 0
M  V30 484 C 47.7381 0.0814702 -1.659 0
M  V30 485 O 48.9231 -0.0685424 -1.90677 0
M  V30 486 C 46.0631 -0.583615 -3.40129 0
M  V30 487 C 45.1761 -1.7336 -3.9569 0
M  V30 488 C 44.3111 -1.26748 -5.15857 0
M  V30 489 C 43.3501 -2.38888 -5.63559 0
M  V30 490 N 42.4871 -1.93308 -6.74964 0
M  V30 491 H 47.3271 -1.93099 -2.26973 0
M  V30 492 H 44.8641 -0.962114 -1.11273 0
M  V30 493 H 46.8221 -0.324801 -4.15934 0
M  V30 494 H 45.4521 0.312845 -3.2128 0
M  V30 495 H 44.5041 -2.10669 -3.16738 0
M  V30 496 H 45.8161 -2.57704 -4.27071 0
M  V30 497 H 44.9701 -0.966173 -5.98957 0
M  V30 498 H 43.7091 -0.394272 -4.86104 0
M  V30 499 H 42.7141 -2.69805 -4.79046 0
M  V30 500 H 43.9391 -3.26728 -5.95336 0
M  V30 501 H 41.8851 -1.08352 -6.4699 0
M  V30 502 H 41.8021 -2.71217 -7.05675 0
M  V30 503 H 43.0701 -1.66252 -7.61564 0
M  V30 504 N 47.2992 1.18797 -1.03562 0
M  V30 505 C 48.7102 1.70322 -0.764676 0
M  V30 506 C 49.0612 1.82708 0.714996 0
M  V30 507 O 48.1862 1.50299 1.55689 0
M  V30 508 C 48.7812 3.09356 -1.38145 0
M  V30 509 C 47.3402 3.58114 -1.15895 0
M  V30 510 C 46.4872 2.34798 -1.4753 0
M  V30 511 H 49.4382 1.03543 -1.20268 0
M  V30 512 H 49.4592 3.72378 -0.781977 0
M  V30 513 H 48.9712 3.00309 -2.45837 0
M  V30 514 H 47.0722 3.72464 -0.100544 0
M  V30 515 H 47.1852 4.4184 -1.8524 0
M  V30 516 H 45.5492 2.38464 -0.894829 0
M  V30 517 H 46.3322 2.28375 -2.56319 0
M  V30 518 N 48.7773 0.814389 1.34928 0
M  V30 519 C 50.0253 0.397636 1.9815 0
M  V30 520 C 50.3463 -1.04069 1.64908 0
M  V30 521 O 49.6163 -1.72121 0.93548 0
M  V30 522 H 48.1963 0.144043 0.732981 0
M  V30 523 H 50.8583 1.04195 1.6471 0
M  V30 524 H 49.9543 0.509688 3.0791 0
M  V30 525 N 50.2554 -1.46986 0.568584 0
M  V30 526 C 51.2184 -2.28624 -0.162366 0
M  V30 527 C 52.2184 -1.37596 -0.832103 0
M  V30 528 O 53.4084 -1.60115 -0.68622 0
M  V30 529 C 50.5404 -3.17596 -1.23878 0
M  V30 530 H 51.7334 -2.94722 0.554899 0
M  V30 531 H 49.2864 -1.52863 0.325976 0
M  V30 532 H 50.0214 -2.56214 -1.98808 0
M  V30 533 H 49.8064 -3.846 -0.763219 0
M  V30 534 H 51.2964 -3.79078 -1.75185 0
M  V30 535 N 51.7335 -0.305618 -1.54608 0
M  V30 536 C 52.9585 0.307562 -2.05107 0
M  V30 537 C 53.3835 1.46385 -1.18123 0
M  V30 538 O 52.7415 1.8034 -0.186324 0
M  V30 539 C 52.7895 0.73704 -3.52987 0
M  V30 540 O 51.8935 1.84134 -3.6901 0
M  V30 541 H 51.2345 0.0589143 -0.661381 0
M  V30 542 H 53.7645 -0.448807 -1.99617 0
M  V30 543 H 53.7745 1.02459 -3.94925 0
M  V30 544 H 52.4495 -0.108773 -4.15758 0
M  V30 545 H 51.0265 1.55398 -3.38978 0
M  V30 546 N 53.2116 1.57565 -0.0334293 0
M  V30 547 C 54.4576 1.92262 0.645226 0
M  V30 548 C 54.7906 0.910543 1.71531 0
M  V30 549 O 54.0656 -0.066099 1.94388 0
M  V30 550 C 54.3486 3.37422 1.2577 0
M  V30 551 C 54.2016 4.49369 0.196891 0
M  V30 552 C 55.5206 3.82628 2.17449 0
M  V30 553 H 52.6396 0.699171 0.233085 0
M  V30 554 H 55.2816 1.89779 -0.0915694 0
M  V30 555 H 53.4316 3.39669 1.88566 0
M  V30 556 H 55.1036 4.59254 -0.433962 0
M  V30 557 H 53.3466 4.31168 -0.477137 0
M  V30 558 H 54.0176 5.47978 0.665124 0
M  V30 559 H 56.4936 3.82145 1.64634 0
M  V30 560 H 55.3696 4.84883 2.57254 0
M  V30 561 H 55.6306 3.18376 3.0674 0
M  V30 562 N 54.6897 -0.239769 1.55765 0
M  V30 563 C 55.6367 -1.29696 1.90913 0
M  V30 564 C 56.6067 -1.47478 0.764164 0
M  V30 565 O 57.7917 -1.61345 1.01845 0
M  V30 566 C 54.9317 -2.64598 2.21544 0
M  V30 567 C 54.0447 -2.54765 3.48882 0
M  V30 568 C 53.1797 -3.82069 3.69049 0
M  V30 569 C 52.2187 -3.66883 4.89963 0
M  V30 570 N 51.3557 -4.86094 5.06614 0
M  V30 571 H 56.1957 -0.990224 2.81067 0
M  V30 572 H 53.7327 -0.477684 1.39128 0
M  V30 573 H 55.6907 -3.43132 2.3731 0
M  V30 574 H 54.3207 -2.93405 1.34585 0
M  V30 575 H 53.3727 -1.67763 3.41409 0
M  V30 576 H 54.6847 -2.39457 4.37563 0
M  V30 577 H 53.8387 -4.69046 3.84812 0
M  V30 578 H 52.5777 -4.00282 2.78614 0
M  V30 579 H 51.5827 -2.78289 4.74168 0
M  V30 580 H 52.8077 -3.50157 5.81865 0
M  V30 581 H 50.7537 -5.04655 4.19117 0
M  V30 582 H 50.6707 -4.73443 5.89396 0
M  V30 583 H 51.9387 -5.74549 5.26795 0
M  V30 584 N 56.1678 -1.49265 -0.50573 0
M  V30 585 C 57.4138 -1.58748 -1.26202 0
M  V30 586 C 57.7468 -0.271227 -1.92297 0
M  V30 587 O 57.0218 0.724831 -1.80489 0
M  V30 588 C 57.3048 -2.74332 -2.33268 0
M  V30 589 C 57.1578 -4.15737 -1.71705 0
M  V30 590 C 58.4768 -2.85576 -3.34865 0
M  V30 591 H 55.5958 -0.577826 -0.457478 0
M  V30 592 H 58.2378 -1.81532 -0.560897 0
M  V30 593 H 56.3878 -2.55036 -2.93068 0
M  V30 594 H 58.0598 -4.46537 -1.15769 0
M  V30 595 H 56.3028 -4.21605 -1.02135 0
M  V30 596 H 56.9738 -4.92477 -2.49341 0
M  V30 597 H 59.4498 -3.03127 -2.8505 0
M  V30 598 H 58.3258 -3.68135 -4.07146 0
M  V30 599 H 58.5868 -1.94732 -3.96903 0
M  V30 600 N 57.6459 0.756429 -1.3826 0
M  V30 601 C 58.8709 1.55077 -1.37717 0
M  V30 602 C 59.2959 1.88073 0.03164 0
M  V30 603 O 58.6539 1.50364 1.01293 0
M  V30 604 C 58.7019 2.8283 -2.23695 0
M  V30 605 O 57.8059 3.77862 -1.6521 0
M  V30 606 H 57.1469 0.469152 -0.469885 0
M  V30 607 H 59.6769 0.935019 -1.81985 0
M  V30 608 H 59.6869 3.31783 -2.37453 0
M  V30 609 H 58.3619 2.58144 -3.2609 0
M  V30 610 H 56.9389 3.36555 -1.60578 0
M  V30 611 N 59.124 1.23083 0.984299 0
M  V30 612 C 60.364 1.07226 1.74017 0
M  V30 613 C 60.728 -0.384766 1.88105 0
M  V30 614 O 61.929 -0.664411 2.60459 0
M  V30 615 C 60.2 1.77348 3.10294 0
M  V30 616 S 61.759 1.77014 4.01512 0
M  V30 617 H 58.577 0.383819 0.598502 0
M  V30 618 H 61.179 1.56158 1.17622 0
M  V30 619 H 59.883 2.82506 2.97689 0
M  V30 620 H 59.414 1.28682 3.71759 0
M  V30 621 H 61.429 0.825956 4.89277 0
M  V30 622 N 60.6021 -1.18246 1.0419 0
M  V30 623 C 61.5491 -2.2192 0.634037 0
M  V30 624 C 62.5191 -1.62179 -0.358765 0
M  V30 625 O 63.7041 -1.89122 -0.252466 0
M  V30 626 C 60.8441 -3.451 0.00445535 0
M  V30 627 C 59.9571 -4.19174 1.04487 0
M  V30 628 C 59.0921 -5.29813 0.383676 0
M  V30 629 C 58.1311 -5.9566 1.4091 0
M  V30 630 N 57.2681 -6.97834 0.772784 0
M  V30 631 H 62.1081 -2.56164 1.52263 0
M  V30 632 H 59.6451 -1.25843 0.761701 0
M  V30 633 H 61.6031 -4.15485 -0.377919 0
M  V30 634 H 60.2331 -3.11472 -0.847652 0
M  V30 635 H 59.2851 -3.47604 1.54518 0
M  V30 636 H 60.5971 -4.64267 1.82368 0
M  V30 637 H 59.7511 -6.06677 -0.0528366 0
M  V30 638 H 58.4901 -4.85825 -0.427208 0
M  V30 639 H 57.4951 -5.17535 1.85574 0
M  V30 640 H 58.7201 -6.4173 2.22171 0
M  V30 641 H 56.6661 -6.55998 -0.0177708 0
M  V30 642 H 56.5831 -7.41186 1.48928 0
M  V30 643 H 57.8511 -7.78665 0.36071 0
M  V30 644 N 62.0802 -0.821533 -1.34494 0
M  V30 645 C 63.0432 -0.247847 -2.27856 0
M  V30 646 C 64.0432 0.573453 -1.50227 0
M  V30 647 O 65.2332 0.389759 -1.69784 0
M  V30 648 C 62.3652 0.652698 -3.34593 0
M  V30 649 H 63.5582 -1.07146 -2.80107 0
M  V30 650 H 61.1112 -0.593291 -1.44602 0
M  V30 651 H 61.8462 1.49943 -2.87555 0
M  V30 652 H 61.6312 0.065292 -3.92046 0
M  V30 653 H 63.1212 1.04793 -4.04238 0
M  V30 654 N 63.5583 1.46682 -0.576371 0
M  V30 655 C 64.7833 2.07304 -0.0630475 0
M  V30 656 C 65.2083 1.42329 1.2298 0
M  V30 657 O 64.5663 0.504865 1.74129 0
M  V30 658 C 64.6143 3.60472 0.095895 0
M  V30 659 O 63.7183 3.95927 1.15394 0
M  V30 660 H 63.0593 0.661288 -0.0599463 0
M  V30 661 H 65.5893 1.88417 -0.797511 0
M  V30 662 H 65.5993 4.06865 0.304071 0
M  V30 663 H 64.2743 4.07157 -0.84828 0
M  V30 664 H 62.8513 3.61252 0.924724 0
M  V30 665 N 65.0364 0.313813 1.54444 0
M  V30 666 C 66.2844 -0.291099 1.99993 0
M  V30 667 C 66.6054 -1.53418 1.20366 0
M  V30 668 O 65.8754 -1.93544 0.302927 0
M  V30 669 H 64.4554 -0.110552 0.738774 0
M  V30 670 H 67.1174 0.428106 1.9014 0
M  V30 671 H 66.2134 -0.554268 3.07139 0
M  V30 672 N 66.5145 -1.57545 0.0417849 0
M  V30 673 C 67.7445 -1.96339 -0.642995 0
M  V30 674 C 68.1525 -0.917536 -1.65463 0
M  V30 675 O 67.4955 0.107747 -1.83384 0
M  V30 676 C 67.5575 -3.31333 -1.39494 0
M  V30 677 C 67.2215 -4.53796 -0.540204 0
M  V30 678 C 68.2185 -5.19553 0.189806 0
M  V30 679 C 65.9035 -5.0006 -0.473886 0
M  V30 680 C 67.8975 -6.29904 0.974674 0
M  V30 681 C 65.5845 -6.10289 0.314677 0
M  V30 682 C 66.5825 -6.75072 1.03765 0
M  V30 683 O 66.2705 -7.83183 1.81327 0
M  V30 684 H 66.0025 -0.651241 -0.181277 0
M  V30 685 H 68.5565 -2.05148 0.101665 0
M  V30 686 H 66.7865 -3.19052 -2.18502 0
M  V30 687 H 68.4755 -3.54942 -1.96904 0
M  V30 688 H 69.2415 -4.84774 0.147981 0
M  V30 689 H 65.1205 -4.49433 -1.0262 0
M  V30 690 H 68.6645 -6.80401 1.5395 0
M  V30 691 H 64.5615 -6.44506 0.358174 0
M  V30 692 H 65.3295 -7.99913 1.73438 0
M  V30 693 N 67.9926 0.231505 -1.5589 0
M  V30 694 C 69.2206 0.974505 -1.82513 0
M  V30 695 C 69.6356 1.78344 -0.619591 0
M  V30 696 O 68.9926 1.77792 0.411848 0
M  V30 697 C 69.0436 1.90007 -3.07538 0
M  V30 698 O 68.7646 1.12385 -4.2344 0
M  V30 699 C 70.2656 2.75779 -3.47075 0
M  V30 700 H 67.4856 0.286065 -0.606966 0
M  V30 701 H 70.0296 0.249739 -2.02969 0
M  V30 702 H 68.1846 2.57891 -2.89086 0
M  V30 703 H 68.5986 1.75125 -4.944 0
M  V30 704 H 70.0726 3.36443 -4.37619 0
M  V30 705 H 70.5496 3.47672 -2.68367 0
M  V30 706 H 71.1556 2.13323 -3.67931 0
M  V30 707 N 69.4707 1.49531 0.497807 0
M  V30 708 C 70.7177 1.59179 1.25173 0
M  V30 709 C 71.0457 0.279932 1.92475 0
M  V30 710 O 70.3007 -0.732383 1.81479 0
M  V30 711 C 70.5997 2.70252 2.33878 0
M  V30 712 C 70.2657 4.11644 1.84012 0
M  V30 713 C 68.9277 4.50121 1.70132 0
M  V30 714 C 71.2797 5.00121 1.46725 0
M  V30 715 C 68.6077 5.74845 1.17348 0
M  V30 716 C 70.9597 6.25366 0.95392 0
M  V30 717 C 69.6237 6.6267 0.801538 0
M  V30 718 H 68.8937 0.582478 0.45804 0
M  V30 719 H 71.5407 1.83373 0.551948 0
M  V30 720 H 69.8457 2.40041 3.09657 0
M  V30 721 H 71.5427 2.74925 2.9192 0
M  V30 722 H 68.1327 3.81274 1.95775 0
M  V30 723 H 72.3167 4.71048 1.56294 0
M  V30 724 H 67.5727 6.02444 1.04264 0
M  V30 725 H 71.7467 6.93301 0.656225 0
M  V30 726 H 69.3737 7.59197 0.390351 0
M  V30 727 N 70.9488 -0.749086 1.3866 0
M  V30 728 C 72.1768 -1.53834 1.38358 0
M  V30 729 C 72.5918 -1.88783 -0.0255219 0
M  V30 730 O 71.9488 -1.53101 -0.993292 0
M  V30 731 C 71.9998 -2.83468 2.2434 0
M  V30 732 O 71.7208 -2.50008 3.5976 0
M  V30 733 C 73.2218 -3.7758 2.32267 0
M  V30 734 H 70.4418 -0.47585 0.473083 0
M  V30 735 H 72.9858 -0.926726 1.82297 0
M  V30 736 H 71.1408 -3.40995 1.83851 0
M  V30 737 H 71.5548 -3.33182 4.05081 0
M  V30 738 H 73.0288 -4.65478 2.96706 0
M  V30 739 H 73.5058 -4.18334 1.33765 0
M  V30 740 H 74.1118 -3.25976 2.73166 0
M  V30 741 N 72.4269 -1.23603 -0.977757 0
M  V30 742 C 73.6749 -1.06759 -1.71601 0
M  V30 743 C 73.9959 0.395929 -1.90938 0
M  V30 744 O 73.2659 1.28356 -1.47992 0
M  V30 745 H 71.8459 -0.392062 -0.635843 0
M  V30 746 H 74.5079 -1.55362 -1.1768 0
M  V30 747 H 73.6039 -1.55763 -2.70452 0
M  V30 748 N 73.905 1.17692 -1.04816 0
M  V30 749 C 75.135 1.91508 -0.775128 0
M  V30 750 C 75.543 1.76844 0.67253 0
M  V30 751 O 74.886 1.10057 1.47082 0
M  V30 752 C 74.948 3.43167 -1.0713 0
M  V30 753 C 74.612 3.81612 -2.51438 0
M  V30 754 C 75.609 3.84772 -3.49638 0
M  V30 755 C 73.294 4.12687 -2.86348 0
M  V30 756 C 75.288 4.18469 -4.80794 0
M  V30 757 C 72.975 4.46053 -4.17708 0
M  V30 758 C 73.973 4.48921 -5.14741 0
M  V30 759 O 73.661 4.81504 -6.43746 0
M  V30 760 H 73.393 0.614575 -0.281555 0
M  V30 761 H 75.947 1.50206 -1.40098 0
M  V30 762 H 74.177 3.84745 -0.388342 0
M  V30 763 H 75.866 3.98239 -0.784883 0
M  V30 764 H 76.632 3.60893 -3.24008 0
M  V30 765 H 72.511 4.09627 -2.11486 0
M  V30 766 H 76.055 4.20623 -5.56527 0
M  V30 767 H 71.952 4.69393 -4.43103 0
M  V30 768 H 72.72 4.99377 -6.4851 0
M  V30 769 N 75.3831 0.828654 1.34056 0
M  V30 770 C 76.6131 0.431993 2.02033 0
M  V30 771 C 77.0211 -0.96844 1.62536 0
M  V30 772 O 76.3641 -1.6391 0.829408 0
M  V30 773 C 76.4261 0.461224 3.56529 0
M  V30 774 C 76.0901 1.81599 4.1937 0
M  V30 775 C 77.0871 2.7777 4.39477 0
M  V30 776 C 74.7721 2.10604 4.56017 0
M  V30 777 C 76.7661 4.01115 4.95364 0
M  V30 778 C 74.4531 3.34207 5.11614 0
M  V30 779 C 75.4511 4.2928 5.31232 0
M  V30 780 O 75.1391 5.50699 5.8565 0
M  V30 781 H 74.8711 0.170943 0.654029 0
M  V30 782 H 77.4251 1.11988 1.72185 0
M  V30 783 H 75.6551 -0.283388 3.8566 0
M  V30 784 H 77.3441 0.0838149 4.05813 0
M  V30 785 H 78.1101 2.56659 4.11523 0
M  V30 786 H 73.9891 1.37402 4.40047 0
M  V30 787 H 77.5331 4.75333 5.10592 0
M  V30 788 H 73.4301 3.55179 5.38997 0
M  V30 789 H 74.1981 5.52298 6.04077 0
M  V30 790 N 76.8612 -1.46375 0.584142 0
M  V30 791 C 77.7942 -2.27351 -0.196676 0
M  V30 792 C 78.7722 -1.35715 -0.895561 0
M  V30 793 O 79.9562 -1.65126 -0.90916 0
M  V30 794 C 77.0832 -3.13486 -1.28235 0
M  V30 795 C 76.1292 -4.20896 -0.689145 0
M  V30 796 S 76.9622 -5.33299 0.48507 0
M  V30 797 C 78.1182 -6.23 -0.601767 0
M  V30 798 H 78.3512 -2.93228 0.490395 0
M  V30 799 H 75.8842 -1.49875 0.371071 0
M  V30 800 H 77.8422 -3.63676 -1.90395 0
M  V30 801 H 76.5032 -2.4692 -1.94138 0
M  V30 802 H 75.6962 -4.80997 -1.50527 0
M  V30 803 H 75.2982 -3.73726 -0.143181 0
M  V30 804 H 77.5902 -6.60979 -1.48705 0
M  V30 805 H 78.5332 -7.0809 -0.0374799 0
M  V30 806 H 78.9412 -5.57173 -0.906557 0
M  V30 807 N 78.3393 -0.321999 -1.54275 0
M  V30 808 C 79.2893 0.560185 -2.21011 0
M  V30 809 C 80.2733 1.08283 -1.19011 0
M  V30 810 O 81.4653 1.02011 -1.44647 0
M  V30 811 C 78.5943 1.72137 -2.97025 0
M  V30 812 C 77.6803 1.21369 -4.06363 0
M  V30 813 N 78.0713 0.425566 -5.04007 0
M  V30 814 C 76.3693 1.49255 -4.20284 0
M  V30 815 C 77.0703 0.152601 -5.815 0
M  V30 816 N 76.0463 0.738294 -5.38563 0
M  V30 817 H 79.8483 -0.049265 -2.93859 0
M  V30 818 H 77.3623 -0.127779 -1.61897 0
M  V30 819 H 79.3593 2.36512 -3.43319 0
M  V30 820 H 78.0193 2.33431 -2.25699 0
M  V30 821 H 79.0303 0.068551 -5.17855 0
M  V30 822 H 75.7073 2.11145 -3.60172 0
M  V30 823 H 77.0973 -0.481764 -6.70171 0
M  V30 824 N 79.8174 1.5752 -0.0501392 0
M  V30 825 C 81.0634 1.93755 0.618901 0
M  V30 826 C 81.4184 0.928514 1.68512 0
M  V30 827 O 80.7114 -0.0524613 1.91528 0
M  V30 828 C 80.9054 3.34467 1.25963 0
M  V30 829 C 80.7344 4.48965 0.257 0
M  V30 830 C 79.5044 5.05075 -0.150656 0
M  V30 831 C 81.7024 5.11891 -0.497166 0
M  V30 832 N 79.6844 6.03104 -1.14626 0
M  V30 833 C 81.0554 6.05216 -1.34588 0
M  V30 834 C 83.1104 4.9479 -0.55559 0
M  V30 835 C 81.8134 6.83277 -2.24778 0
M  V30 836 C 83.8394 5.73477 -1.44492 0
M  V30 837 C 83.2014 6.66433 -2.28136 0
M  V30 838 H 79.3004 0.756479 0.198149 0
M  V30 839 H 81.8844 1.94316 -0.122229 0
M  V30 840 H 80.0554 3.34685 1.97079 0
M  V30 841 H 81.7874 3.57994 1.88739 0
M  V30 842 H 78.5424 4.7305 0.228094 0
M  V30 843 H 78.9664 6.56813 -1.64092 0
M  V30 844 H 83.6084 4.2273 0.0768625 0
M  V30 845 H 81.3264 7.54629 -2.89069 0
M  V30 846 H 84.9124 5.62273 -1.49468 0
M  V30 847 H 83.7924 7.26258 -2.95835 0
M  V30 848 N 81.2955 -0.223234 1.56011 0
M  V30 849 C 82.5415 -0.949279 1.79211 0
M  V30 850 C 82.8745 -1.84054 0.619494 0
M  V30 851 O 82.1495 -1.90726 -0.381317 0
M  V30 852 C 82.4325 -1.78965 3.12479 0
M  V30 853 C 82.2855 -0.924997 4.40186 0
M  V30 854 C 83.6045 -2.76774 3.42175 0
M  V30 855 H 80.7235 -0.343676 0.651963 0
M  V30 856 H 83.3655 -0.218253 1.88742 0
M  V30 857 H 81.5155 -2.41291 3.04485 0
M  V30 858 H 83.1875 -0.318615 4.60198 0
M  V30 859 H 81.4305 -0.230344 4.33188 0
M  V30 860 H 82.1015 -1.54735 5.29869 0
M  V30 861 H 84.5775 -2.24584 3.50287 0
M  V30 862 H 83.4535 -3.32678 4.36597 0
M  V30 863 H 83.7145 -3.54429 2.64258 0
M  V30 864 N 82.7736 -1.49793 -0.48987 0
M  V30 865 C 84.1896 -1.36803 -0.822022 0
M  V30 866 C 84.3896 -0.409652 -1.97292 0
M  V30 867 O 83.4456 0.154614 -2.52026 0
M  V30 868 C 84.7586 -2.77768 -1.15175 0
M  V30 869 C 86.3066 -2.86549 -1.25931 0
M  V30 870 C 86.7816 -4.28306 -1.62228 0
M  V30 871 N 88.2726 -4.31169 -1.69256 0
M  V30 872 C 89.0076 -5.37832 -1.98807 0
M  V30 873 N 88.5036 -6.54726 -2.26507 0
M  V30 874 N 90.2966 -5.25258 -2.00152 0
M  V30 875 H 82.4476 -2.10691 0.268881 0
M  V30 876 H 84.7106 -0.946241 0.057728 0
M  V30 877 H 84.4166 -3.49648 -0.379335 0
M  V30 878 H 84.2906 -3.13836 -2.09253 0
M  V30 879 H 86.6776 -2.14899 -2.02243 0
M  V30 880 H 86.7586 -2.54049 -0.298776 0
M  V30 881 H 86.4026 -5.00486 -0.864622 0
M  V30 882 H 86.3326 -4.58279 -2.594 0
M  V30 883 H 88.8236 -3.4687 -1.49965 0
M  V30 884 H 89.1366 -7.31833 -2.48276 0
M  V30 885 H 87.4816 -6.57933 -2.23939 0
M  V30 886 H 90.6726 -4.32938 -1.77996 0
M  V30 887 H 90.8456 -6.08476 -2.22848 0
M  V30 888 N 84.2517 0.741722 -1.39055 0
M  V30 889 C 85.1837 1.8657 -1.33133 0
M  V30 890 C 86.1967 1.61001 -0.241329 0
M  V30 891 O 87.3857 1.7136 -0.499784 0
M  V30 892 C 84.4857 3.22457 -1.04283 0
M  V30 893 C 83.6587 3.75435 -2.24427 0
M  V30 894 C 82.7177 4.89867 -1.92138 0
M  V30 895 O 81.7437 5.03879 -2.64754 0
M  V30 896 N 82.9457 5.73738 -0.88347 0
M  V30 897 H 85.7107 1.92156 -2.29991 0
M  V30 898 H 83.2717 0.922172 -1.3307 0
M  V30 899 H 85.2637 3.9657 -0.807128 0
M  V30 900 H 83.8337 3.12181 -0.161807 0
M  V30 901 H 83.0537 2.92751 -2.6399 0
M  V30 902 H 84.3417 4.07563 -3.04581 0
M  V30 903 H 83.7397 5.64999 -0.281517 0
M  V30 904 H 82.2967 6.47947 -0.707662 0
M  V30 905 N 85.7298 1.2412 0.971189 0
M  V30 906 C 86.6928 1.03156 2.04674 0
M  V30 907 C 87.6928 -0.00990322 1.60797 0
M  V30 908 O 88.8828 0.230729 1.72665 0
M  V30 909 C 86.0148 0.562765 3.36223 0
M  V30 910 H 87.2078 1.98614 2.24705 0
M  V30 911 H 84.7608 1.06293 1.14593 0
M  V30 912 H 85.4958 -0.395176 3.21883 0
M  V30 913 H 85.2808 1.31441 3.69413 0
M  V30 914 H 86.7708 0.437015 4.15307 0
M  V30 915 N 87.2079 -1.17134 1.05439 0
M  V30 916 C 88.6189 -1.69084 0.791676 0
M  V30 917 C 88.9699 -1.83822 -0.685839 0
M  V30 918 O 88.0949 -1.52757 -1.53278 0
M  V30 919 C 88.6899 -3.07119 1.4305 0
M  V30 920 C 87.2489 -3.56225 1.21577 0
M  V30 921 C 86.3959 -2.32421 1.51247 0
M  V30 922 H 89.3469 -1.01617 1.219 0
M  V30 923 H 89.3679 -3.71087 0.84112 0
M  V30 924 H 88.8799 -2.9636 2.50584 0
M  V30 925 H 86.9809 -3.72257 0.159787 0
M  V30 926 H 87.0939 -4.38837 1.92246 0
M  V30 927 H 85.4579 -2.3701 0.932653 0
M  V30 928 H 86.2409 -2.24268 2.5992 0
M  V30 929 N 88.686 -0.835752 -1.33615 0
M  V30 930 C 89.934 -0.429109 -1.97492 0
M  V30 931 C 90.255 1.01433 -1.66543 0
M  V30 932 O 89.525 1.70611 -0.962744 0
M  V30 933 H 88.105 -0.155686 -0.730596 0
M  V30 934 H 90.767 -1.06802 -1.63031 0
M  V30 935 H 89.863 -0.55861 -3.0706 0
M  V30 936 N 90.1641 1.46063 -0.591896 0
M  V30 937 C 91.0961 2.28539 0.174001 0
M  V30 938 C 92.1091 1.39047 0.846753 0
M  V30 939 O 93.2981 1.63564 0.714774 0
M  V30 940 C 90.3981 3.14347 1.26645 0
M  V30 941 C 89.5711 4.32021 0.683856 0
M  V30 942 C 88.6301 4.99157 1.66518 0
M  V30 943 O 87.6561 5.56458 1.19763 0
M  V30 944 N 88.8581 4.97005 2.99943 0
M  V30 945 H 91.6231 2.94911 -0.533633 0
M  V30 946 H 89.1841 1.56077 -0.430294 0
M  V30 947 H 91.1761 3.56125 1.92242 0
M  V30 948 H 89.7461 2.49988 1.87682 0
M  V30 949 H 88.9661 3.93915 -0.1498 0
M  V30 950 H 90.2541 5.08059 0.274567 0
M  V30 951 H 89.6521 4.51714 3.40545 0
M  V30 952 H 88.2091 5.42696 3.61004 0
M  V30 953 N 91.6422 0.330177 1.54103 0
M  V30 954 C 92.8902 -0.269871 2.0029 0
M  V30 955 C 93.2112 -1.52133 1.21986 0
M  V30 956 O 92.4812 -1.93212 0.323438 0
M  V30 957 H 91.0612 -0.10271 0.739905 0
M  V30 958 H 93.7232 0.448249 1.89675 0
M  V30 959 H 92.8192 -0.52166 3.07709 0
M  V30 960 N 93.1203 -1.57491 0.0584922 0
M  V30 961 C 94.0503 -2.14988 -0.911178 0
M  V30 962 C 95.0313 -1.07343 -1.31952 0
M  V30 963 O 96.2163 -1.35318 -1.39294 0
M  V30 964 C 93.3463 -2.70078 -2.18347 0
M  V30 965 C 92.3003 -3.82771 -1.91495 0
M  V30 966 C 91.6263 -4.24408 -3.25241 0
M  V30 967 C 92.9263 -5.07592 -1.23075 0
M  V30 968 H 94.6203 -2.96263 -0.432246 0
M  V30 969 H 92.1663 -1.42512 -0.206469 0
M  V30 970 H 94.1193 -3.08943 -2.86587 0
M  V30 971 H 92.8433 -1.86005 -2.68458 0
M  V30 972 H 91.5023 -3.44389 -1.25664 0
M  V30 973 H 91.1503 -3.37275 -3.73168 0
M  V30 974 H 90.8503 -5.00366 -3.08071 0
M  V30 975 H 92.3743 -4.65879 -3.94701 0
M  V30 976 H 93.7883 -5.43857 -1.81362 0
M  V30 977 H 92.1853 -5.88741 -1.16207 0
M  V30 978 H 93.2553 -4.84454 -0.207847 0
M  V30 979 N 94.5984 0.214957 -1.56127 0
M  V30 980 C 95.5084 1.28727 -1.96129 0
M  V30 981 C 96.5244 1.50916 -0.866044 0
M  V30 982 O 97.7004 1.63918 -1.17016 0
M  V30 983 C 94.7654 2.61569 -2.27558 0
M  V30 984 C 93.8264 2.47625 -3.50685 0
M  V30 985 C 93.0594 3.74132 -3.80606 0
M  V30 986 O 93.2824 4.77438 -3.12104 0
M  V30 987 O 92.2164 3.70849 -4.74083 0
M  V30 988 H 96.0424 0.977855 -2.87527 0
M  V30 989 H 93.6274 0.418358 -1.43423 0
M  V30 990 H 95.5094 3.40012 -2.48938 0
M  V30 991 H 94.1844 2.92178 -1.39332 0
M  V30 992 H 93.0914 1.67361 -3.34576 0
M  V30 993 H 94.4244 2.21954 -4.39315 0
M  V30 994 N 96.0765 1.50051 0.48192 0
M  V30 995 C 97.3225 1.61706 1.2338 0
M  V30 996 C 97.6775 0.308488 1.89911 0
M  V30 997 O 96.9705 -0.692798 1.78636 0
M  V30 998 C 97.1645 2.72717 2.30998 0
M  V30 999 C 96.9935 4.14242 1.75024 0
M  V30 1000 C 95.7635 4.80786 1.55476 0
M  V30 1001 C 97.9615 4.98846 1.25128 0
M  V30 1002 N 95.9435 6.06563 0.946311 0
M  V30 1003 C 97.3145 6.15258 0.765382 0
M  V30 1004 C 99.3695 4.84702 1.13881 0
M  V30 1005 C 98.0725 7.19079 0.178113 0
M  V30 1006 C 100.098 5.8869 0.565486 0
M  V30 1007 C 99.4605 7.04343 0.0899105 0
M  V30 1008 H 95.5595 0.645958 0.440753 0
M  V30 1009 H 98.1435 1.8713 0.537624 0
M  V30 1010 H 96.3145 2.49033 2.98055 0
M  V30 1011 H 98.0465 2.73789 2.9803 0
M  V30 1012 H 94.8015 4.37899 1.80392 0
M  V30 1013 H 95.2255 6.73767 0.660812 0
M  V30 1014 H 99.8675 3.95583 1.49244 0
M  V30 1015 H 97.5855 8.07882 -0.187749 0
M  V30 1016 H 101.171 5.79808 0.480974 0
M  V30 1017 H 100.051 7.83433 -0.346782 0
M  V30 1018 N 97.5546 -0.734337 1.39446 0
M  V30 1019 C 98.4876 -1.85715 1.32609 0
M  V30 1020 C 99.4656 -1.6137 0.199636 0
M  V30 1021 O 100.65 -1.84626 0.380195 0
M  V30 1022 C 97.7766 -3.21709 1.05929 0
M  V30 1023 C 96.8226 -3.64913 2.20773 0
M  V30 1024 S 97.6556 -3.74203 3.83056 0
M  V30 1025 C 98.8116 -5.12986 3.58603 0
M  V30 1026 H 99.0446 -1.91232 2.27635 0
M  V30 1027 H 96.5776 -0.899263 1.25509 0
M  V30 1028 H 98.5356 -4.00236 0.912203 0
M  V30 1029 H 97.1966 -3.13848 0.125883 0
M  V30 1030 H 96.3896 -4.63606 1.97699 0
M  V30 1031 H 95.9916 -2.93593 2.31688 0
M  V30 1032 H 98.2836 -5.99339 3.15909 0
M  V30 1033 H 99.2266 -5.41088 4.5676 0
M  V30 1034 H 99.6346 -4.82694 2.9269 0
M  V30 1035 N 99.0327 -1.24633 -0.964593 0
M  V30 1036 C 100.281 -1.08573 -1.70459 0
M  V30 1037 C 100.602 0.375655 -1.91347 0
M  V30 1038 O 99.8717 1.26779 -1.49345 0
M  V30 1039 H 98.4517 -0.398784 -0.631649 0
M  V30 1040 H 101.114 -1.56601 -1.16026 0
M  V30 1041 H 100.21 -1.58623 -2.68785 0
M  V30 1042 N 100.511 1.16574 -1.06058 0
M  V30 1043 C 101.757 1.87565 -0.78683 0
M  V30 1044 C 102.112 1.80012 0.679214 0
M  V30 1045 O 101.405 1.20327 1.49104 0
M  V30 1046 C 101.599 3.36195 -1.21275 0
M  V30 1047 C 101.428 3.58216 -2.71866 0
M  V30 1048 C 100.198 3.7444 -3.39298 0
M  V30 1049 C 102.396 3.57134 -3.70081 0
M  V30 1050 N 100.378 3.84389 -4.78663 0
M  V30 1051 C 101.749 3.73038 -4.9522 0
M  V30 1052 C 103.804 3.40332 -3.63426 0
M  V30 1053 C 102.507 3.73879 -6.14497 0
M  V30 1054 C 104.533 3.42466 -4.82153 0
M  V30 1055 C 103.895 3.58887 -6.06118 0
M  V30 1056 H 99.9938 0.704081 -0.340284 0
M  V30 1057 H 102.578 1.39885 -1.35426 0
M  V30 1058 H 100.749 3.82522 -0.673179 0
M  V30 1059 H 102.481 3.94839 -0.887917 0
M  V30 1060 H 99.2358 3.74662 -2.89699 0
M  V30 1061 H 99.6598 3.93138 -5.51155 0
M  V30 1062 H 104.302 3.26566 -2.68541 0
M  V30 1063 H 102.02 3.86427 -7.09718 0
M  V30 1064 H 105.606 3.30712 -4.78666 0
M  V30 1065 H 104.486 3.60454 -6.9645 0
M  V30 1066 N 101.989 0.842826 1.3317 0
M  V30 1067 C 103.238 0.436738 1.96915 0
M  V30 1068 C 103.551 -1.01025 1.67491 0
M  V30 1069 O 104.757 -1.5212 2.24881 0
M  V30 1070 C 103.213 0.730021 3.52418 0
M  V30 1071 C 102.821 2.19195 3.90714 0
M  V30 1072 C 104.565 0.391076 4.22695 0
M  V30 1073 C 102.472 2.42907 5.39212 0
M  V30 1074 H 101.402 0.15958 0.736919 0
M  V30 1075 H 104.053 1.03196 1.51733 0
M  V30 1076 H 102.435 0.0643755 3.95948 0
M  V30 1077 H 103.609 2.8984 3.58231 0
M  V30 1078 H 101.924 2.49425 3.33431 0
M  V30 1079 H 104.521 0.545817 5.31907 0
M  V30 1080 H 104.864 -0.666294 4.10933 0
M  V30 1081 H 105.397 1.01212 3.84709 0
M  V30 1082 H 102.136 3.47224 5.55982 0
M  V30 1083 H 101.656 1.76827 5.73142 0
M  V30 1084 H 103.335 2.2626 6.06148 0
M  V30 1085 N 103.467 -1.45747 0.599634 0
M  V30 1086 C 104.415 -2.322 -0.136426 0
M  V30 1087 C 105.409 -1.45497 -0.867583 0
M  V30 1088 O 106.615 -1.62027 -0.78405 0
M  V30 1089 H 102.99 -0.749368 -0.0628588 0
M  V30 1090 H 104.961 -2.92072 0.611281 0
M  V30 1091 C 103.71 -3.28974 -1.12567 0
M  V30 1092 H 103.033 -3.9568 -0.572484 0
M  V30 1093 H 104.473 -3.92212 -1.61077 0
M  V30 1094 C 102.932 -2.55561 -2.19523 0
M  V30 1095 O 103.462 -2.33111 -3.27143 0
M  V30 1096 N 101.668 -2.15832 -1.94589 0
M  V30 1097 H 101.215 -2.3429 -1.07078 0
M  V30 1098 H 101.173 -1.67034 -2.66359 0
M  V30 1099 N 104.945 -0.338344 -1.53925 0
M  V30 1100 C 106.356 0.146651 -1.86123 0
M  V30 1101 C 106.707 1.5042 -1.2597 0
M  V30 1102 O 105.832 2.08723 -0.571294 0
M  V30 1103 C 106.427 0.272879 -3.37699 0
M  V30 1104 C 104.986 0.702103 -3.69794 0
M  V30 1105 C 104.133 -0.167304 -2.76795 0
M  V30 1106 H 107.084 -0.558123 -1.48562 0
M  V30 1107 H 107.105 1.10128 -3.64214 0
M  V30 1108 H 106.617 -0.715307 -3.81451 0
M  V30 1109 H 104.718 1.6995 -3.31584 0
M  V30 1110 H 104.831 0.495604 -4.7653 0
M  V30 1111 H 103.195 0.359527 -2.5215 0
M  V30 1112 H 103.978 -1.15253 -3.23375 0
M  V30 1113 N 106.423 1.57458 -0.0668435 0
M  V30 1114 C 107.371 2.13639 0.919851 0
M  V30 1115 C 108.365 1.07204 1.31163 0
M  V30 1116 O 109.571 1.25591 1.28945 0
M  V30 1117 H 105.946 0.683048 0.314562 0
M  V30 1118 H 107.917 2.95415 0.421047 0
M  V30 1119 C 106.666 2.70892 2.17975 0
M  V30 1120 H 105.989 3.5246 1.88711 0
M  V30 1121 H 107.429 3.13803 2.85138 0
M  V30 1122 C 105.888 1.65414 2.93496 0
M  V30 1123 O 106.418 1.07619 3.87015 0
M  V30 1124 N 104.624 1.36564 2.56512 0
M  V30 1125 H 104.171 1.83751 1.80536 0
M  V30 1126 H 104.129 0.66223 3.07347 0
M  V30 1127 N 107.901 -0.206675 1.56239 0
M  V30 1128 C 109.126 -0.949474 1.8439 0
M  V30 1129 C 109.551 -1.76549 0.649016 0
M  V30 1130 O 108.909 -1.76782 -0.402231 0
M  V30 1131 C 108.957 -1.83078 3.10668 0
M  V30 1132 O 108.061 -2.9281 2.90407 0
M  V30 1133 H 107.402 -0.268033 0.607499 0
M  V30 1134 H 109.932 -0.215488 2.03462 0
M  V30 1135 H 109.942 -2.2377 3.41161 0
M  V30 1136 H 108.617 -1.23112 3.97261 0
M  V30 1137 H 107.194 -2.55956 2.71184 0
M  V30 1138 N 109.379 -1.50304 -0.473955 0
M  V30 1139 C 110.627 -1.60832 -1.22382 0
M  V30 1140 C 110.948 -0.30939 -1.9253 0
M  V30 1141 O 110.218 0.67296 -1.83978 0
M  V30 1142 H 108.798 -0.592652 -0.454723 0
M  V30 1143 H 111.46 -1.87068 -0.546968 0
M  V30 1144 H 110.556 -2.41803 -1.97327 0
M  V30 1145 N 110.857 0.726932 -1.39834 0
M  V30 1146 C 112.105 1.4837 -1.37225 0
M  V30 1147 C 112.426 1.94979 0.0284857 0
M  V30 1148 O 111.696 1.69555 0.981213 0
M  V30 1149 H 110.276 0.55043 -0.505011 0
M  V30 1150 H 112.938 0.862468 -1.74778 0
M  V30 1151 H 112.034 2.36198 -2.04003 0
M  V30 1152 N 112.336 1.25143 0.95797 0
M  V30 1153 C 113.564 1.12424 1.73691 0
M  V30 1154 C 113.979 -0.322304 1.86029 0
M  V30 1155 O 113.336 -1.22186 1.35561 0
M  V30 1156 C 113.387 1.76933 3.15241 0
M  V30 1157 O 113.108 3.15932 3.03511 0
M  V30 1158 C 114.609 1.6995 4.09429 0
M  V30 1159 H 111.829 0.3923 0.544373 0
M  V30 1160 H 114.373 1.6544 1.20207 0
M  V30 1161 H 112.528 1.27895 3.6568 0
M  V30 1162 H 112.942 3.47598 3.9278 0
M  V30 1163 H 114.416 2.19753 5.06372 0
M  V30 1164 H 114.893 0.662619 4.34173 0
M  V30 1165 H 115.499 2.18461 3.64904 0
M  V30 1166 N 113.814 -1.1601 1.06675 0
M  V30 1167 C 114.762 -2.22586 0.675157 0
M  V30 1168 C 115.756 -1.66525 -0.310766 0
M  V30 1169 O 116.962 -1.79145 -0.175215 0
M  V30 1170 H 113.337 -0.724855 0.200223 0
M  V30 1171 H 115.308 -2.52899 1.58381 0
M  V30 1172 C 114.057 -3.47604 0.0817162 0
M  V30 1173 H 113.38 -3.91058 0.831484 0
M  V30 1174 H 114.82 -4.23718 -0.154708 0
M  V30 1175 C 113.279 -3.15718 -1.17576 0
M  V30 1176 O 113.809 -3.31878 -2.26318 0
M  V30 1177 N 112.015 -2.69816 -1.07923 0
M  V30 1178 H 111.562 -2.56866 -0.194293 0
M  V30 1179 H 111.52 -2.48855 -1.92141 0
M  V30 1180 N 115.292 -0.849877 -1.32721 0
M  V30 1181 C 116.522 -0.46408 -2.0132 0
M  V30 1182 C 116.93 0.94246 -1.64056 0
M  V30 1183 O 116.273 1.6257 -0.855379 0
M  V30 1184 C 116.335 -0.517887 -3.5575 0
M  V30 1185 C 115.999 -1.88248 -4.16427 0
M  V30 1186 C 116.996 -2.84726 -4.35002 0
M  V30 1187 C 114.681 -2.17832 -4.52609 0
M  V30 1188 C 116.675 -4.08945 -4.8892 0
M  V30 1189 C 114.362 -3.42304 -5.06232 0
M  V30 1190 C 115.36 -4.37677 -5.24335 0
M  V30 1191 O 115.048 -5.59946 -5.76815 0
M  V30 1192 H 114.78 -0.181327 -0.651227 0
M  V30 1193 H 117.334 -1.14713 -1.70382 0
M  V30 1194 H 115.564 0.221997 -3.86062 0
M  V30 1195 H 117.253 -0.148366 -4.05629 0
M  V30 1196 H 118.019 -2.63174 -4.07388 0
M  V30 1197 H 113.898 -1.44385 -4.37806 0
M  V30 1198 H 117.442 -4.83396 -5.02966 0
M  V30 1199 H 113.339 -3.63709 -5.33278 0
M  V30 1200 H 114.107 -5.61838 -5.95214 0
M  V30 1201 N 116.77 1.45427 -0.607355 0
M  V30 1202 C 117.733 2.28974 0.101693 0
M  V30 1203 C 118.733 1.39754 0.795329 0
M  V30 1204 O 119.923 1.61878 0.643527 0
M  V30 1205 C 117.055 3.20768 1.15414 0
M  V30 1206 H 118.248 2.93147 -0.632844 0
M  V30 1207 H 115.801 1.51945 -0.366391 0
M  V30 1208 H 116.536 2.61395 1.91945 0
M  V30 1209 H 116.321 3.86489 0.66098 0
M  V30 1210 H 117.811 3.83589 1.65073 0
M  V30 1211 N 118.248 0.346503 1.53744 0
M  V30 1212 C 119.18 -0.543316 2.22667 0
M  V30 1213 C 120.193 -1.06159 1.23427 0
M  V30 1214 O 121.382 -0.971235 1.49764 0
M  V30 1215 C 118.482 -1.76076 2.89569 0
M  V30 1216 C 117.655 -1.37727 4.15151 0
M  V30 1217 C 116.714 -2.45471 4.65436 0
M  V30 1218 O 115.74 -2.08655 5.29577 0
M  V30 1219 N 116.942 -3.7677 4.41616 0
M  V30 1220 H 119.707 0.0469703 2.99663 0
M  V30 1221 H 117.268 0.170766 1.60997 0
M  V30 1222 H 119.26 -2.47593 3.20125 0
M  V30 1223 H 117.83 -2.25835 2.16142 0
M  V30 1224 H 117.05 -0.492746 3.91108 0
M  V30 1225 H 118.338 -1.09708 4.96832 0
M  V30 1226 H 117.736 -4.09467 3.90325 0
M  V30 1227 H 116.293 -4.44448 4.7677 0
M  V30 1228 N 119.726 -1.57421 0.075193 0
M  V30 1229 C 120.673 -2.12915 -0.890843 0
M  V30 1230 C 121.643 -1.04252 -1.29309 0
M  V30 1231 O 122.828 -1.31933 -1.37834 0
M  V30 1232 C 119.968 -2.69795 -2.15186 0
M  V30 1233 C 119.081 -3.92624 -1.80194 0
M  V30 1234 C 118.216 -4.37736 -3.00933 0
M  V30 1235 C 117.255 -5.53205 -2.61974 0
M  V30 1236 N 116.392 -5.9326 -3.75483 0
M  V30 1237 H 121.232 -2.95156 -0.410735 0
M  V30 1238 H 118.769 -1.45854 -0.191086 0
M  V30 1239 H 120.727 -3.00883 -2.89008 0
M  V30 1240 H 119.357 -1.90313 -2.60731 0
M  V30 1241 H 118.409 -3.67977 -0.964218 0
M  V30 1242 H 119.721 -4.76482 -1.47534 0
M  V30 1243 H 118.875 -4.70503 -3.8303 0
M  V30 1244 H 117.614 -3.52739 -3.36789 0
M  V30 1245 H 116.619 -5.20086 -1.783 0
M  V30 1246 H 117.844 -6.39936 -2.27284 0
M  V30 1247 H 115.79 -5.11212 -4.11094 0
M  V30 1248 H 115.707 -6.71865 -3.46602 0
M  V30 1249 H 116.975 -6.30651 -4.58148 0
M  V30 1250 N 121.204 0.198386 -1.56346 0
M  V30 1251 C 122.451 0.919286 -1.80431 0
M  V30 1252 C 122.779 1.83393 -0.647866 0
M  V30 1253 O 122.034 1.92236 0.366556 0
M  V30 1254 C 122.333 1.77031 -3.10475 0
M  V30 1255 C 121.999 1.00693 -4.39513 0
M  V30 1256 C 120.661 0.796145 -4.74568 0
M  V30 1257 C 123.013 0.469559 -5.19081 0
M  V30 1258 C 120.341 0.0364588 -5.86689 0
M  V30 1259 C 122.693 -0.2769 -6.31994 0
M  V30 1260 C 121.357 -0.49873 -6.65634 0
M  V30 1261 H 120.627 0.336391 -0.660244 0
M  V30 1262 H 123.274 0.185872 -1.90596 0
M  V30 1263 H 121.579 2.5723 -2.95533 0
M  V30 1264 H 123.276 2.33065 -3.26315 0
M  V30 1265 H 119.866 1.18122 -4.12001 0
M  V30 1266 H 124.05 0.619816 -4.92414 0
M  V30 1267 H 119.306 -0.145412 -6.11227 0
M  V30 1268 H 123.48 -0.700684 -6.92866 0
M  V30 1269 H 121.107 -1.0893 -7.52355 0
M  V30 1270 N 122.682 1.50554 0.465978 0
M  V30 1271 C 123.614 1.65949 1.58093 0
M  V30 1272 C 124.627 0.540827 1.53554 0
M  V30 1273 O 125.816 0.814187 1.5885 0
M  V30 1274 C 122.916 1.63261 2.96983 0
M  V30 1275 C 122.089 2.91245 3.26336 0
M  V30 1276 C 121.148 2.8113 4.44806 0
M  V30 1277 O 120.174 3.55086 4.44862 0
M  V30 1278 N 121.376 1.95032 5.46756 0
M  V30 1279 H 124.141 2.62122 1.45301 0
M  V30 1280 H 121.702 1.48082 0.65448 0
M  V30 1281 H 123.694 1.54101 3.74212 0
M  V30 1282 H 122.264 0.748032 3.03518 0
M  V30 1283 H 121.484 3.14493 2.37672 0
M  V30 1284 H 122.772 3.76022 3.42761 0
M  V30 1285 H 122.17 1.3427 5.49534 0
M  V30 1286 H 120.727 1.91772 6.2295 0
M  V30 1287 N 124.16 -0.719506 1.40217 0
M  V30 1288 C 125.408 -1.47641 1.3801 0
M  V30 1289 C 125.729 -1.94992 -0.018145 0
M  V30 1290 O 124.999 -1.70073 -0.972207 0
M  V30 1291 H 123.579 -0.547744 0.507923 0
M  V30 1292 H 126.241 -0.853187 1.75233 0
M  V30 1293 H 125.337 -2.35112 2.05253 0
M  V30 1294 N 125.638 -1.25649 -0.95132 0
M  V30 1295 C 126.884 -1.11766 -1.69941 0
M  V30 1296 C 127.239 0.33735 -1.89419 0
M  V30 1297 O 126.532 1.24491 -1.45645 0
M  V30 1298 C 126.726 -1.80909 -3.08231 0
M  V30 1299 C 126.555 -3.32984 -3.02245 0
M  V30 1300 C 125.325 -4.02247 -3.05819 0
M  V30 1301 C 127.523 -4.29332 -2.83157 0
M  V30 1302 N 125.505 -5.41072 -2.90024 0
M  V30 1303 C 126.876 -5.55265 -2.75828 0
M  V30 1304 C 128.931 -4.19707 -2.67863 0
M  V30 1305 C 127.634 -6.72671 -2.54767 0
M  V30 1306 C 129.66 -5.36809 -2.48173 0
M  V30 1307 C 129.022 -6.61683 -2.41567 0
M  V30 1308 H 125.121 -0.463708 -0.629682 0
M  V30 1309 H 127.705 -1.58796 -1.12659 0
M  V30 1310 H 125.876 -1.36369 -3.63673 0
M  V30 1311 H 127.608 -1.59739 -3.71841 0
M  V30 1312 H 124.363 -3.53531 -3.15139 0
M  V30 1313 H 124.787 -6.13938 -2.85323 0
M  V30 1314 H 129.429 -3.23907 -2.71743 0
M  V30 1315 H 127.147 -7.68577 -2.49629 0
M  V30 1316 H 130.733 -5.31224 -2.37259 0
M  V30 1317 H 129.613 -7.50768 -2.26531 0
M  V30 1318 N 127.117 1.15442 -1.07289 0
M  V30 1319 C 128.363 1.86489 -0.796846 0
M  V30 1320 C 128.696 1.82078 0.675371 0
M  V30 1321 O 127.971 1.24346 1.4956 0
M  V30 1322 C 128.254 3.35626 -1.30489 0
M  V30 1323 C 128.107 3.48673 -2.84161 0
M  V30 1324 C 129.426 4.30357 -0.920907 0
M  V30 1325 H 126.545 0.677144 -0.290939 0
M  V30 1326 H 129.187 1.35633 -1.33056 0
M  V30 1327 H 127.337 3.79068 -0.850883 0
M  V30 1328 H 129.009 3.14099 -3.37846 0
M  V30 1329 H 127.252 2.90253 -3.22391 0
M  V30 1330 H 127.923 4.53453 -3.14777 0
M  V30 1331 H 130.399 3.94871 -1.3121 0
M  V30 1332 H 129.275 5.33193 -1.30372 0
M  V30 1333 H 129.536 4.4176 0.173226 0
M  V30 1334 N 128.595 0.856903 1.32268 0
M  V30 1335 C 129.823 0.475439 2.01363 0
M  V30 1336 C 130.238 -0.928486 1.64392 0
M  V30 1337 O 129.595 -1.60624 0.866387 0
M  V30 1338 C 129.646 0.607545 3.56358 0
M  V30 1339 O 129.367 1.95617 3.92002 0
M  V30 1340 C 130.868 0.225382 4.42727 0
M  V30 1341 H 128.088 0.186636 0.644521 0
M  V30 1342 H 130.632 1.15446 1.68797 0
M  V30 1343 H 128.787 -0.0237719 3.87393 0
M  V30 1344 H 129.201 1.95455 4.86721 0
M  V30 1345 H 130.675 0.368813 5.50767 0
M  V30 1346 H 131.152 -0.834369 4.31202 0
M  V30 1347 H 131.758 0.831864 4.17085 0
M  V30 1348 N 130.073 -1.45103 0.615059 0
M  V30 1349 C 131.006 -2.27717 -0.148408 0
M  V30 1350 C 131.984 -1.37584 -0.866572 0
M  V30 1351 O 133.168 -1.67017 -0.87393 0
M  V30 1352 C 130.295 -3.16136 -1.21557 0
M  V30 1353 C 129.341 -4.22263 -0.599712 0
M  V30 1354 S 130.174 -5.3215 0.598081 0
M  V30 1355 C 131.33 -6.24137 -0.469484 0
M  V30 1356 H 131.563 -2.92121 0.552483 0
M  V30 1357 H 129.096 -1.49054 0.402778 0
M  V30 1358 H 131.054 -3.67633 -1.82638 0
M  V30 1359 H 129.715 -2.50982 -1.88857 0
M  V30 1360 H 128.908 -4.84081 -1.4029 0
M  V30 1361 H 128.51 -3.73945 -0.063876 0
M  V30 1362 H 130.802 -6.63984 -1.34652 0
M  V30 1363 H 131.745 -7.0801 0.112725 0
M  V30 1364 H 132.153 -5.58971 -0.788168 0
M  V30 1365 N 131.551 -0.354651 -1.53558 0
M  V30 1366 C 132.779 0.239515 -2.05509 0
M  V30 1367 C 133.194 1.4333 -1.2289 0
M  V30 1368 O 132.551 1.80538 -0.266899 0
M  V30 1369 C 132.602 0.643719 -3.55723 0
M  V30 1370 O 132.323 -0.502602 -4.35207 0
M  V30 1371 C 133.824 1.29743 -4.23889 0
M  V30 1372 H 131.044 0.0442697 -0.669538 0
M  V30 1373 H 133.588 -0.509856 -1.98042 0
M  V30 1374 H 131.743 1.34302 -3.63376 0
M  V30 1375 H 132.157 -0.178172 -5.24197 0
M  V30 1376 H 133.631 1.53091 -5.30346 0
M  V30 1377 H 134.108 2.25441 -3.76926 0
M  V30 1378 H 134.714 0.639865 -4.20459 0
M  V30 1379 N 133.029 1.57378 -0.0835403 0
M  V30 1380 C 134.445 1.57246 0.273109 0
M  V30 1381 C 134.645 1.09385 1.69225 0
M  V30 1382 O 133.701 0.765051 2.40631 0
M  V30 1383 C 135.014 3.00614 0.0720628 0
M  V30 1384 C 136.562 3.12684 0.1407 0
M  V30 1385 C 137.037 4.57989 -0.0322094 0
M  V30 1386 N 138.528 4.63194 0.0230085 0
M  V30 1387 C 139.263 5.73335 -0.0861941 0
M  V30 1388 N 138.759 6.9235 -0.24958 0
M  V30 1389 N 140.552 5.62093 -0.0282886 0
M  V30 1390 H 132.703 1.86801 -1.0109 0
M  V30 1391 H 134.966 0.861687 -0.395222 0
M  V30 1392 H 134.672 3.39786 -0.907662 0
M  V30 1393 H 134.546 3.68193 0.81936 0
M  V30 1394 H 136.933 2.73391 1.11092 0
M  V30 1395 H 137.014 2.47719 -0.637896 0
M  V30 1396 H 136.658 4.97973 -0.999247 0
M  V30 1397 H 136.588 5.21 0.765937 0
M  V30 1398 H 139.079 3.77613 0.14722 0
M  V30 1399 H 139.392 7.72117 -0.324733 0
M  V30 1400 H 137.737 6.94415 -0.285097 0
M  V30 1401 H 140.928 4.67997 0.0981408 0
M  V30 1402 H 141.101 6.47895 -0.116845 0
M  V30 1403 N 134.507 -0.190092 1.56449 0
M  V30 1404 C 135.784 -0.935886 1.71757 0
M  V30 1405 C 136.164 -2.01173 0.639726 0
M  V30 1406 O 135.512 -2.25827 -0.348502 0
M  V30 1407 C 135.722 -1.51775 3.1427 0
M  V30 1408 C 137.07 -1.99794 3.74656 0
M  V30 1409 O 138.094 -1.61607 3.1743 0
M  V30 1410 O 136.953 -2.70079 4.751 0
M  V30 1411 H 134.047 -0.439229 0.700719 0
M  V30 1412 H 136.593 -0.179395 1.68749 0
M  V30 1413 H 135.365 -0.742505 3.84191 0
M  V30 1414 H 134.988 -2.33894 3.21527 0
M  V30 1415 N 135.985 -1.50799 -0.457987 0
M  V30 1416 C 137.213 -1.66218 -1.23203 0
M  V30 1417 C 137.628 -0.350894 -1.85511 0
M  V30 1418 O 136.985 0.668546 -1.69814 0
M  V30 1419 C 137.036 -2.76291 -2.33121 0
M  V30 1420 O 136.757 -4.02338 -1.73366 0
M  V30 1421 C 138.258 -3.028 -3.2377 0
M  V30 1422 H 135.478 -0.558361 -0.372121 0
M  V30 1423 H 138.022 -1.97099 -0.545179 0
M  V30 1424 H 136.177 -2.48068 -2.97558 0
M  V30 1425 H 136.591 -4.63312 -2.4585 0
M  V30 1426 H 138.065 -3.8345 -3.97077 0
M  V30 1427 H 138.542 -2.14385 -3.83322 0
M  V30 1428 H 139.148 -3.32604 -2.65056 0
M  V30 1429 N 137.463 0.71206 -1.40597 0
M  V30 1430 C 138.688 1.50617 -1.42581 0
M  V30 1431 C 139.113 1.88079 -0.0282102 0
M  V30 1432 O 138.471 1.53511 0.964579 0
M  V30 1433 C 138.519 2.7557 -2.3258 0
M  V30 1434 O 137.623 3.72414 -1.77148 0
M  V30 1435 H 136.964 0.453966 -0.484573 0
M  V30 1436 H 139.494 0.876649 -1.84868 0
M  V30 1437 H 139.504 3.2406 -2.47889 0
M  V30 1438 H 138.179 2.47639 -3.34138 0
M  V30 1439 H 136.756 3.31276 -1.71204 0
M  V30 1440 N 138.941 1.26152 0.944643 0
M  V30 1441 C 140.19 1.10883 1.68487 0
M  V30 1442 C 140.503 -0.348153 1.92477 0
M  V30 1443 O 141.709 -0.621459 2.64292 0
M  V30 1444 C 140.165 1.93624 3.03377 0
M  V30 1445 C 139.773 3.43875 2.87148 0
M  V30 1446 C 141.517 1.86954 3.81115 0
M  V30 1447 C 139.424 4.18875 4.1749 0
M  V30 1448 H 138.354 0.41135 0.631907 0
M  V30 1449 H 141.005 1.50433 1.05082 0
M  V30 1450 H 139.387 1.46904 3.67743 0
M  V30 1451 H 140.561 3.98338 2.31653 0
M  V30 1452 H 138.876 3.51744 2.22856 0
M  V30 1453 H 141.473 2.40275 4.77673 0
M  V30 1454 H 141.816 0.839518 4.07747 0
M  V30 1455 H 142.349 2.31477 3.23517 0
M  V30 1456 H 139.088 5.22332 3.96043 0
M  V30 1457 H 138.608 3.69193 4.72712 0
M  V30 1458 H 140.287 4.27134 4.85968 0
M  V30 1459 N 140.419 -1.14872 1.07899 0
M  V30 1460 C 141.644 -1.90202 0.826926 0
M  V30 1461 C 142.069 -1.77774 -0.614664 0
M  V30 1462 O 141.427 -1.11431 -1.43013 0
M  V30 1463 C 141.475 -3.38352 1.24702 0
M  V30 1464 O 140.579 -4.10497 0.39575 0
M  V30 1465 H 139.92 -0.591968 0.300782 0
M  V30 1466 H 142.45 -1.45437 1.43907 0
M  V30 1467 H 142.46 -3.89156 1.22563 0
M  V30 1468 H 141.135 -3.46715 2.29698 0
M  V30 1469 H 139.712 -3.69796 0.480117 0
M  V30 1470 N 141.898 -0.863906 -1.31812 0
M  V30 1471 C 143.126 -0.486111 -2.01108 0
M  V30 1472 C 143.541 0.919755 -1.64882 0
M  V30 1473 O 142.898 1.60162 -0.874893 0
M  V30 1474 C 142.949 -0.626435 -3.56031 0
M  V30 1475 O 142.67 -1.97693 -3.90959 0
M  V30 1476 C 144.171 -0.248857 -4.42601 0
M  V30 1477 H 141.391 -0.190052 -0.643523 0
M  V30 1478 H 143.935 -1.1634 -1.68182 0
M  V30 1479 H 142.09 0.00322717 -3.874 0
M  V30 1480 H 142.504 -1.98034 -4.85678 0
M  V30 1481 H 143.978 -0.398016 -5.50563 0
M  V30 1482 H 144.455 0.811489 -4.31638 0
M  V30 1483 H 145.061 -0.853971 -4.16638 0
M  V30 1484 N 143.376 1.44774 -0.622745 0
M  V30 1485 C 144.339 2.29069 0.0774015 0
M  V30 1486 C 145.339 1.4059 0.780461 0
M  V30 1487 O 146.529 1.62551 0.626322 0
M  V30 1488 C 143.661 3.21974 1.12006 0
M  V30 1489 H 144.854 2.92459 -0.663901 0
M  V30 1490 H 142.407 1.51548 -0.382486 0
M  V30 1491 H 143.142 2.63417 1.89162 0
M  V30 1492 H 142.927 3.87168 0.619951 0
M  V30 1493 H 144.417 3.85318 1.60995 0
M  V30 1494 N 144.854 0.36279 1.53368 0
M  V30 1495 C 146.084 -0.228281 2.05335 0
M  V30 1496 C 146.492 -1.43226 1.23625 0
M  V30 1497 O 145.835 -1.81717 0.269206 0
M  V30 1498 C 145.897 -0.688549 3.52845 0
M  V30 1499 C 145.561 0.398362 4.5526 0
M  V30 1500 C 146.558 1.24732 5.04716 0
M  V30 1501 C 144.243 0.557805 4.99193 0
M  V30 1502 C 146.237 2.2411 5.96702 0
M  V30 1503 C 143.924 1.55495 5.90986 0
M  V30 1504 C 144.922 2.39503 6.39631 0
M  V30 1505 O 144.61 3.37517 7.29615 0
M  V30 1506 H 144.342 -0.044395 0.674541 0
M  V30 1507 H 146.896 0.518668 1.98744 0
M  V30 1508 H 145.126 -1.48706 3.56964 0
M  V30 1509 H 146.815 -1.20231 3.87685 0
M  V30 1510 H 147.581 1.13532 4.71525 0
M  V30 1511 H 143.46 -0.0862959 4.60919 0
M  V30 1512 H 147.004 2.89718 6.34594 0
M  V30 1513 H 142.901 1.66744 6.23592 0
M  V30 1514 H 143.669 3.33213 7.47604 0
M  V30 1515 N 146.332 -1.57332 0.0918853 0
M  V30 1516 C 147.265 -2.09499 -0.904735 0
M  V30 1517 C 148.243 -1.00479 -1.27839 0
M  V30 1518 O 149.427 -1.27954 -1.38419 0
M  V30 1519 C 146.554 -2.56931 -2.2069 0
M  V30 1520 C 145.6 -3.77579 -1.98334 0
M  V30 1521 S 146.433 -5.21317 -1.22428 0
M  V30 1522 C 147.589 -5.72097 -2.53882 0
M  V30 1523 H 147.822 -2.93705 -0.460922 0
M  V30 1524 H 145.355 -1.53923 -0.121332 0
M  V30 1525 H 147.313 -2.84917 -2.95521 0
M  V30 1526 H 145.974 -1.72956 -2.62192 0
M  V30 1527 H 145.167 -4.08824 -2.94752 0
M  V30 1528 H 144.769 -3.5007 -1.31633 0
M  V30 1529 H 147.061 -5.80168 -3.49874 0
M  V30 1530 H 148.004 -6.70654 -2.27219 0
M  V30 1531 H 148.412 -5.00012 -2.62007 0
M  V30 1532 N 147.81 0.181792 -1.56548 0
M  V30 1533 C 148.72 1.24538 -1.98815 0
M  V30 1534 C 149.736 1.49045 -0.897861 0
M  V30 1535 O 150.912 1.61399 -1.20467 0
M  V30 1536 C 147.977 2.56683 -2.33055 0
M  V30 1537 C 147.038 2.40131 -3.55859 0
M  V30 1538 C 146.271 3.65975 -3.88456 0
M  V30 1539 O 146.494 4.70711 -3.22161 0
M  V30 1540 O 145.428 3.6071 -4.81842 0
M  V30 1541 H 149.254 0.916647 -2.89536 0
M  V30 1542 H 146.839 0.387842 -1.44278 0
M  V30 1543 H 148.721 3.34655 -2.56094 0
M  V30 1544 H 147.396 2.89157 -1.45498 0
M  V30 1545 H 146.303 1.60226 -3.38051 0
M  V30 1546 H 147.636 2.12585 -4.43924 0
M  V30 1547 N 149.288 1.51039 0.449983 0
M  V30 1548 C 150.218 1.74379 1.55288 0
M  V30 1549 C 151.199 0.593236 1.5942 0
M  V30 1550 O 152.384 0.834625 1.7535 0
M  V30 1551 C 149.514 1.85728 2.93466 0
M  V30 1552 C 148.468 3.01078 3.04197 0
M  V30 1553 C 147.794 2.97595 4.44231 0
M  V30 1554 C 149.094 4.41254 2.7945 0
M  V30 1555 H 150.788 2.66725 1.36008 0
M  V30 1556 H 148.334 1.2835 0.652864 0
M  V30 1557 H 150.287 2.0064 3.70569 0
M  V30 1558 H 149.011 0.900207 3.13949 0
M  V30 1559 H 147.67 2.85851 2.29531 0
M  V30 1560 H 147.318 1.99691 4.61663 0
M  V30 1561 H 147.018 3.75046 4.52343 0
M  V30 1562 H 148.542 3.14583 5.23326 0
M  V30 1563 H 149.956 4.56897 3.46292 0
M  V30 1564 H 148.353 5.20315 2.98985 0
M  V30 1565 H 149.423 4.52164 1.75144 0
M  V30 1566 N 150.766 -0.704594 1.40972 0
M  V30 1567 C 151.991 -1.49858 1.43378 0
M  V30 1568 C 152.416 -1.88061 0.038184 0
M  V30 1569 O 151.774 -1.5402 -0.956425 0
M  V30 1570 C 151.822 -2.74333 2.34038 0
M  V30 1571 O 150.926 -3.7147 1.7912 0
M  V30 1572 H 150.267 -0.45139 0.486974 0
M  V30 1573 H 152.797 -0.866832 1.8533 0
M  V30 1574 H 152.807 -3.22741 2.49604 0
M  V30 1575 H 151.482 -2.45863 3.35446 0
M  V30 1576 H 150.059 -3.30363 1.72958 0
M  V30 1577 N 152.244 -1.26651 -0.937939 0
M  V30 1578 C 153.66 -1.03834 -1.21205 0
M  V30 1579 C 153.86 0.234502 -2.00131 0
M  V30 1580 O 152.916 0.942767 -2.3424 0
M  V30 1581 C 154.229 -2.27167 -1.97017 0
M  V30 1582 C 155.777 -2.32101 -2.09996 0
M  V30 1583 C 156.252 -3.55136 -2.8921 0
M  V30 1584 N 157.743 -3.55632 -2.96783 0
M  V30 1585 C 158.478 -4.475 -3.58512 0
M  V30 1586 N 157.974 -5.4966 -4.21717 0
M  V30 1587 N 159.767 -4.35145 -3.55816 0
M  V30 1588 H 151.918 -2.08398 -0.410391 0
M  V30 1589 H 154.181 -0.916031 -0.244114 0
M  V30 1590 H 153.887 -3.19765 -1.46434 0
M  V30 1591 H 153.761 -2.31672 -2.97671 0
M  V30 1592 H 156.148 -1.40015 -2.59769 0
M  V30 1593 H 156.229 -2.31605 -1.08594 0
M  V30 1594 H 155.873 -4.47553 -2.40123 0
M  V30 1595 H 155.803 -3.5288 -3.90875 0
M  V30 1596 H 158.294 -2.81743 -2.51852 0
M  V30 1597 H 158.607 -6.15943 -4.66727 0
M  V30 1598 H 156.952 -5.53514 -4.20294 0
M  V30 1599 H 160.143 -3.5455 -3.05634 0
M  V30 1600 H 160.316 -5.06934 -4.03636 0
M  V30 1601 N 153.722 1.14298 -1.08507 0
M  V30 1602 C 154.652 2.21542 -0.737646 0
M  V30 1603 C 155.633 1.67773 0.280377 0
M  V30 1604 O 156.818 1.93616 0.150521 0
M  V30 1605 C 153.948 3.46988 -0.147259 0
M  V30 1606 C 152.902 4.13789 -1.09374 0
M  V30 1607 C 152.228 5.33449 -0.365524 0
M  V30 1608 C 153.528 4.62208 -2.4323 0
M  V30 1609 H 155.222 2.5086 -1.6343 0
M  V30 1610 H 152.768 1.20576 -0.787243 0
M  V30 1611 H 154.721 4.21262 0.107808 0
M  V30 1612 H 153.445 3.17037 0.784538 0
M  V30 1613 H 152.104 3.4147 -1.33393 0
M  V30 1614 H 151.752 4.99759 0.57011 0
M  V30 1615 H 151.452 5.79088 -0.996512 0
M  V30 1616 H 152.976 6.10485 -0.118534 0
M  V30 1617 H 154.39 5.27952 -2.23472 0
M  V30 1618 H 152.787 5.18553 -3.02031 0
M  V30 1619 H 153.857 3.77224 -3.04681 0
M  V30 1620 N 155.201 0.870884 1.31352 0
M  V30 1621 C 156.617 0.562932 1.49343 0
M  V30 1622 C 156.817 -0.902725 1.80148 0
M  V30 1623 O 155.873 -1.68484 1.88067 0
M  V30 1624 C 157.186 1.46393 2.62659 0
M  V30 1625 C 158.734 1.46607 2.76542 0
M  V30 1626 C 159.209 2.35266 3.92955 0
M  V30 1627 N 160.7 2.33151 4.00243 0
M  V30 1628 C 161.435 2.98471 4.89594 0
M  V30 1629 N 160.931 3.72964 5.8384 0
M  V30 1630 N 162.724 2.87775 4.82848 0
M  V30 1631 H 154.875 1.81923 1.09626 0
M  V30 1632 H 157.138 0.777934 0.541777 0
M  V30 1633 H 156.844 2.50689 2.46674 0
M  V30 1634 H 156.718 1.16314 3.58819 0
M  V30 1635 H 159.105 0.43069 2.9194 0
M  V30 1636 H 159.186 1.8071 1.81046 0
M  V30 1637 H 158.83 3.38881 3.78315 0
M  V30 1638 H 158.76 1.98487 4.87761 0
M  V30 1639 H 161.251 1.79006 3.32814 0
M  V30 1640 H 161.564 4.19932 6.4875 0
M  V30 1641 H 159.909 3.77073 5.83816 0
M  V30 1642 H 163.1 2.29116 4.08195 0
M  V30 1643 H 163.273 3.38961 5.52277 0
M  V30 1644 N 156.679 -1.44442 0.630414 0
M  V30 1645 C 157.904 -2.06927 0.139944 0
M  V30 1646 C 158.329 -1.46795 -1.17613 0
M  V30 1647 O 157.687 -0.569144 -1.72135 0
M  V30 1648 C 157.735 -3.6058 0.0379581 0
M  V30 1649 O 156.839 -3.99937 -1.0062 0
M  V30 1650 H 156.18 -0.658608 0.0844483 0
M  V30 1651 H 158.71 -1.85327 0.866891 0
M  V30 1652 H 158.72 -4.07714 -0.152856 0
M  V30 1653 H 157.395 -4.03728 0.998809 0
M  V30 1654 H 155.972 -3.64436 -0.79001 0
M  V30 1655 N 158.157 -0.370918 -1.53173 0
M  V30 1656 C 159.434 0.273754 -1.93675 0
M  V30 1657 C 159.814 1.65938 -1.3049 0
M  V30 1658 O 159.162 2.23698 -0.465999 0
M  V30 1659 C 159.372 0.318602 -3.47543 0
M  V30 1660 C 160.72 0.556392 -4.20939 0
M  V30 1661 O 161.744 0.399587 -3.53952 0
M  V30 1662 O 160.603 0.862133 -5.39657 0
M  V30 1663 H 157.697 0.165448 -0.810281 0
M  V30 1664 H 160.243 -0.42409 -1.64315 0
M  V30 1665 H 159.015 -0.652687 -3.85818 0
M  V30 1666 H 158.638 1.06212 -3.83151 0
M  V30 1667 N 159.635 1.57281 -0.100228 0
M  V30 1668 C 160.912 1.86014 0.604812 0
M  V30 1669 C 161.292 0.998025 1.86018 0
M  V30 1670 O 160.64 0.0718184 2.28387 0
M  V30 1671 C 160.85 3.36784 0.915278 0
M  V30 1672 C 162.198 4.04957 1.27651 0
M  V30 1673 O 163.222 3.41695 1.00613 0
M  V30 1674 O 162.081 5.16593 1.7831 0
M  V30 1675 H 159.175 0.76942 0.303185 0
M  V30 1676 H 161.721 1.69176 -0.133313 0
M  V30 1677 H 160.493 3.91292 0.0248896 0
M  V30 1678 H 160.116 3.58987 1.70921 0
M  V30 1679 N 161.113 -0.173488 1.56642 0
M  V30 1680 C 162.341 -0.906095 1.86004 0
M  V30 1681 C 162.756 -1.75921 0.685355 0
M  V30 1682 O 162.113 -1.79198 -0.345578 0
M  V30 1683 C 162.164 -1.78462 3.14378 0
M  V30 1684 O 161.885 -0.965914 4.27319 0
M  V30 1685 C 163.386 -2.62707 3.57071 0
M  V30 1686 H 160.606 -0.263341 0.617165 0
M  V30 1687 H 163.15 -0.174236 2.03756 0
M  V30 1688 H 161.305 -2.46984 2.98459 0
M  V30 1689 H 161.719 -1.56655 5.00559 0
M  V30 1690 H 163.193 -3.19969 4.49804 0
M  V30 1691 H 163.67 -3.37472 2.81086 0
M  V30 1692 H 164.276 -1.99521 3.75595 0
M  V30 1693 N 162.591 -1.51276 -0.441967 0
M  V30 1694 C 163.554 -1.7167 -1.51862 0
M  V30 1695 C 164.554 -0.586793 -1.49711 0
M  V30 1696 O 165.744 -0.854276 -1.51815 0
M  V30 1697 C 162.876 -1.76889 -2.91416 0
M  V30 1698 H 164.069 -2.67754 -1.35084 0
M  V30 1699 H 161.622 -1.41196 -0.670333 0
M  V30 1700 H 162.357 -0.826026 -3.13604 0
M  V30 1701 H 162.142 -2.59001 -2.94382 0
M  V30 1702 H 163.632 -1.94522 -3.69528 0
M  V30 1703 N 164.069 0.697108 -1.41344 0
M  V30 1704 C 165.315 1.4593 -1.40827 0
M  V30 1705 C 165.648 1.94193 -0.0167098 0
M  V30 1706 O 164.923 1.69425 0.955263 0
M  V30 1707 C 165.206 2.67229 -2.41373 0
M  V30 1708 C 165.059 2.24741 -3.8963 0
M  V30 1709 C 166.378 3.69423 -2.39196 0
M  V30 1710 H 163.497 0.529303 -0.512842 0
M  V30 1711 H 166.139 0.794112 -1.72609 0
M  V30 1712 H 164.289 3.23982 -2.14401 0
M  V30 1713 H 165.961 1.73327 -4.27499 0
M  V30 1714 H 164.204 1.56542 -4.0457 0
M  V30 1715 H 164.875 3.1177 -4.55525 0
M  V30 1716 H 167.351 3.2234 -2.63128 0
M  V30 1717 H 166.227 4.51907 -3.11563 0
M  V30 1718 H 166.488 4.19012 -1.41001 0
M  V30 1719 N 165.547 1.27147 0.931209 0
M  V30 1720 C 166.777 1.15914 1.71019 0
M  V30 1721 C 167.185 -0.287112 1.87009 0
M  V30 1722 O 166.528 -1.20761 1.38429 0
M  V30 1723 C 166.59 1.76647 3.13107 0
M  V30 1724 C 166.254 3.25807 3.20467 0
M  V30 1725 C 167.251 4.22489 3.02983 0
M  V30 1726 C 164.936 3.66452 3.43538 0
M  V30 1727 C 166.93 5.57794 3.08454 0
M  V30 1728 C 164.617 5.01888 3.48643 0
M  V30 1729 C 165.615 5.97369 3.31119 0
M  V30 1730 O 165.303 7.30337 3.35952 0
M  V30 1731 H 165.035 0.404062 0.54195 0
M  V30 1732 H 167.589 1.68457 1.17521 0
M  V30 1733 H 165.819 1.18578 3.68071 0
M  V30 1734 H 167.508 1.60179 3.72958 0
M  V30 1735 H 168.274 3.92425 2.85004 0
M  V30 1736 H 164.153 2.92611 3.5623 0
M  V30 1737 H 167.697 6.32298 2.94694 0
M  V30 1738 H 163.594 5.31609 3.66145 0
M  V30 1739 H 164.362 7.38739 3.5243 0
M  V30 1740 N 167.025 -1.13721 1.09112 0
M  V30 1741 C 168.255 -1.88499 0.845671 0
M  V30 1742 C 168.663 -1.79218 -0.606432 0
M  V30 1743 O 168.006 -1.1544 -1.42896 0
M  V30 1744 C 168.068 -3.38954 1.19793 0
M  V30 1745 C 167.732 -3.72018 2.65428 0
M  V30 1746 C 168.729 -3.7153 3.63677 0
M  V30 1747 C 166.414 -4.01775 3.01467 0
M  V30 1748 C 168.408 -4.00336 4.95994 0
M  V30 1749 C 166.095 -4.30243 4.33975 0
M  V30 1750 C 167.093 -4.29508 5.31048 0
M  V30 1751 O 166.781 -4.5728 6.61173 0
M  V30 1752 H 166.513 -0.603702 0.304171 0
M  V30 1753 H 169.067 -1.44903 1.45576 0
M  V30 1754 H 167.297 -3.83039 0.530871 0
M  V30 1755 H 168.986 -3.95052 0.932146 0
M  V30 1756 H 169.752 -3.4862 3.37179 0
M  V30 1757 H 165.631 -4.01496 2.26544 0
M  V30 1758 H 169.175 -3.99678 5.71755 0
M  V30 1759 H 165.072 -4.52625 4.60219 0
M  V30 1760 H 165.84 -4.74964 6.66597 0
M  V30 1761 N 168.503 -0.877838 -1.30888 0
M  V30 1762 C 169.743 -0.499301 -1.98208 0
M  V30 1763 C 170.107 0.932649 -1.67826 0
M  V30 1764 O 171.308 1.41694 -2.28421 0
M  V30 1765 C 169.579 -0.758221 -3.49265 0
M  V30 1766 S 171.138 -0.480719 -4.36159 0
M  V30 1767 H 167.956 -0.186062 -0.686223 0
M  V30 1768 H 170.558 -1.13556 -1.59139 0
M  V30 1769 H 169.262 -1.79903 -3.68867 0
M  V30 1770 H 168.793 -0.109247 -3.93248 0
M  V30 1771 H 170.808 0.683698 -4.91467 0
M  V30 1772 N 169.982 1.44106 -0.638065 0
M  V30 1773 C 170.945 2.29138 0.0531013 0
M  V30 1774 C 171.945 1.41409 0.765506 0
M  V30 1775 O 173.135 1.63206 0.609046 0
M  V30 1776 C 170.267 3.23144 1.08584 0
M  V30 1777 H 171.46 2.91739 -0.694883 0
M  V30 1778 H 169.013 1.51134 -0.398538 0
M  V30 1779 H 169.748 2.65408 1.86357 0
M  V30 1780 H 169.533 3.87804 0.578852 0
M  V30 1781 H 171.023 3.87004 1.56899 0
M  V30 1782 N 171.46 0.379036 1.52974 0
M  V30 1783 C 172.876 0.0285448 1.59574 0
M  V30 1784 C 173.076 -1.45542 1.39355 0
M  V30 1785 O 172.132 -2.2187 1.20541 0
M  V30 1786 C 173.445 0.496535 2.96572 0
M  V30 1787 C 174.993 0.451909 3.0972 0
M  V30 1788 C 175.468 0.895924 4.49152 0
M  V30 1789 N 176.959 0.851522 4.55306 0
M  V30 1790 C 177.694 1.16661 5.61407 0
M  V30 1791 N 177.19 1.55166 6.752 0
M  V30 1792 N 178.983 1.08853 5.51459 0
M  V30 1793 H 171.134 1.34525 1.64367 0
M  V30 1794 H 173.397 0.550733 0.771619 0
M  V30 1795 H 173.103 1.53258 3.16552 0
M  V30 1796 H 172.977 -0.109802 3.7704 0
M  V30 1797 H 175.364 -0.575029 2.89443 0
M  V30 1798 H 175.445 1.09392 2.3123 0
M  V30 1799 H 175.089 1.92104 4.70168 0
M  V30 1800 H 175.019 0.23103 5.26093 0
M  V30 1801 H 177.51 0.568038 3.73606 0
M  V30 1802 H 177.823 1.776 7.52116 0
M  V30 1803 H 176.168 1.59044 6.76557 0
M  V30 1804 H 179.359 0.786803 4.6144 0
M  V30 1805 H 179.532 1.33742 6.34048 0
M  V30 1806 O 172.977 -1.59572 0.248817 0
M  V30 1807 H 173.668 -1.9093 -0.326403 0
M  V30 END ATOM
M  V30 BEGIN BOND
M  V30 END BOND
M  V30 END CTAB
M  END
$$$$
