drugbank_target|P59998 Actin-related protein 2/3 complex subunit 4 (DB08235; DB08236)
 OpenBabel12092120503D

  0  0  0     0  0            999 V3000
M  V30 BEGIN CTAB
M  V30 COUNTS 2801 2823 0 0 0
M  V30 BEGIN ATOM
M  V30 1 H -0.908 1.98254 -0.117106 0
M  V30 2 N 0 1.576 0 0
M  V30 3 C 0.933 2.03868 1.02534 0
M  V30 4 C 1.911 0.928543 1.3348 0
M  V30 5 O 3.095 1.19667 1.45644 0
M  V30 6 C 0.222 2.43627 2.35294 0
M  V30 7 C -0.732 3.65373 2.2001 0
M  V30 8 S 0.101 5.13292 1.52614 0
M  V30 9 C 1.257 5.56322 2.86805 0
M  V30 10 H 1.49 2.90518 0.631377 0
M  V30 11 H -0.977 1.52953 0.210867 0
M  V30 12 H 0.981 2.67203 3.11629 0
M  V30 13 H -0.358 1.57376 2.7183 0
M  V30 14 H -1.165 3.90944 3.18086 0
M  V30 15 H -1.563 3.418 1.51819 0
M  V30 16 H 0.729 5.58782 3.83104 0
M  V30 17 H 1.672 6.56266 2.65933 0
M  V30 18 H 2.08 4.83886 2.90714 0
M  V30 19 N 1.4781 -0.272755 1.55222 0
M  V30 20 C 2.7061 -1.02255 1.79865 0
M  V30 21 C 3.1211 -1.79924 0.572088 0
M  V30 22 O 2.4781 -1.76638 -0.458842 0
M  V30 23 C 2.5291 -1.98094 3.02392 0
M  V30 24 O 2.2501 -1.23572 4.20311 0
M  V30 25 C 3.7511 -2.84884 3.39641 0
M  V30 26 H 0.9711 -0.302057 0.599168 0
M  V30 27 H 3.5151 -0.303465 2.02236 0
M  V30 28 H 1.6701 -2.65465 2.82147 0
M  V30 29 H 2.0841 -1.88172 4.89583 0
M  V30 30 H 3.5581 -3.47927 4.28545 0
M  V30 31 H 4.0351 -3.54665 2.59055 0
M  V30 32 H 4.6411 -2.23003 3.62146 0
M  V30 33 N 2.9562 -1.48159 -0.537278 0
M  V30 34 C 3.9192 -1.61665 -1.62472 0
M  V30 35 C 4.9192 -0.490395 -1.5314 0
M  V30 36 O 6.1092 -0.755998 -1.5694 0
M  V30 37 C 3.2412 -1.57997 -3.02076 0
M  V30 38 H 4.4342 -2.58621 -1.51839 0
M  V30 39 H 1.9872 -1.36647 -0.758771 0
M  V30 40 H 2.7222 -0.624913 -3.18222 0
M  V30 41 H 2.5072 -2.39755 -3.10258 0
M  V30 42 H 3.9972 -1.70627 -3.81151 0
M  V30 43 N 4.4343 0.785586 -1.36625 0
M  V30 44 C 5.6623 1.57448 -1.3423 0
M  V30 45 C 6.0773 1.88649 0.0755653 0
M  V30 46 O 5.4343 1.50414 1.03354 0
M  V30 47 C 5.4853 2.89316 -2.16745 0
M  V30 48 O 5.2063 2.59459 -3.53005 0
M  V30 49 C 6.7073 3.83606 -2.22174 0
M  V30 50 H 3.9273 0.488226 -0.4603 0
M  V30 51 H 6.4713 0.974733 -1.79775 0
M  V30 52 H 4.6263 3.4575 -1.74745 0
M  V30 53 H 5.0403 3.43804 -3.96105 0
M  V30 54 H 6.5143 4.73181 -2.8426 0
M  V30 55 H 6.9913 4.21734 -1.22627 0
M  V30 56 H 7.5973 3.33104 -2.64427 0
M  V30 57 N 5.9124 1.20967 1.01018 0
M  V30 58 C 6.8424 0.988272 2.11555 0
M  V30 59 C 7.8234 -0.0849778 1.69888 0
M  V30 60 O 9.0084 0.0738202 1.9406 0
M  V30 61 C 6.1384 0.546528 3.42973 0
M  V30 62 C 5.0924 1.56375 3.9841 0
M  V30 63 C 4.4184 0.97842 5.25672 0
M  V30 64 C 5.7184 2.94922 4.31066 0
M  V30 65 H 7.4124 1.91276 2.30334 0
M  V30 66 H 4.9584 0.921073 1.1069 0
M  V30 67 H 6.9114 0.378839 4.19694 0
M  V30 68 H 5.6354 -0.413598 3.23971 0
M  V30 69 H 4.2944 1.71891 3.23804 0
M  V30 70 H 3.9424 0.0101688 5.02999 0
M  V30 71 H 3.6424 1.65784 5.63728 0
M  V30 72 H 5.1664 0.821939 6.05043 0
M  V30 73 H 6.5804 2.8288 4.9865 0
M  V30 74 H 4.9774 3.5983 4.80253 0
M  V30 75 H 6.0474 3.4616 3.39561 0
M  V30 76 N 7.3905 -1.2043 1.01659 0
M  V30 77 C 8.8065 -1.41852 0.731442 0
M  V30 78 C 9.0065 -1.89358 -0.688898 0
M  V30 79 O 8.0625 -2.06247 -1.45666 0
M  V30 80 C 9.3755 -2.44019 1.75714 0
M  V30 81 C 10.9235 -2.57785 1.77527 0
M  V30 82 C 11.3985 -3.63194 2.79023 0
M  V30 83 N 12.8895 -3.70678 2.77763 0
M  V30 84 C 13.6245 -4.51897 3.52954 0
M  V30 85 N 13.1205 -5.36921 4.37821 0
M  V30 86 N 14.9135 -4.4643 3.41551 0
M  V30 87 H 7.0645 -0.879093 1.93354 0
M  V30 88 H 9.3275 -0.448425 0.835236 0
M  V30 89 H 9.0335 -2.1611 2.77469 0
M  V30 90 H 8.9075 -3.43007 1.56927 0
M  V30 91 H 11.2945 -2.85023 0.764569 0
M  V30 92 H 11.3755 -1.58992 2.00387 0
M  V30 93 H 11.0195 -3.36699 3.80258 0
M  V30 94 H 10.9495 -4.61609 2.53425 0
M  V30 95 H 13.4405 -3.09944 2.16201 0
M  V30 96 H 13.7535 -5.95981 4.91962 0
M  V30 97 H 12.0985 -5.36424 4.41899 0
M  V30 98 H 15.2895 -3.79042 2.74672 0
M  V30 99 H 15.4625 -5.09491 4.00404 0
M  V30 100 N 8.8686 -0.792821 -1.36206 0
M  V30 101 C 10.2796 -0.429513 -1.81692 0
M  V30 102 C 10.6306 1.04695 -1.65932 0
M  V30 103 O 9.7556 1.81256 -1.18218 0
M  V30 104 C 10.3506 -0.772831 -3.29868 0
M  V30 105 C 8.9096 -0.462307 -3.7355 0
M  V30 106 C 8.0566 -1.00569 -2.5842 0
M  V30 107 H 11.0076 -0.985672 -1.24379 0
M  V30 108 H 11.0286 -0.0651928 -3.80444 0
M  V30 109 H 10.5406 -1.84747 -3.41307 0
M  V30 110 H 8.6416 0.604158 -3.67669 0
M  V30 111 H 8.7546 -0.985299 -4.68859 0
M  V30 112 H 7.1186 -0.428734 -2.51066 0
M  V30 113 H 7.9016 -2.08616 -2.72643 0
M  V30 114 N 10.3467 1.47872 -0.545128 0
M  V30 115 C 11.5767 2.06589 -0.0210534 0
M  V30 116 C 11.9847 1.39997 1.27269 0
M  V30 117 O 11.3277 0.486421 1.77143 0
M  V30 118 C 11.3897 3.58574 0.257933 0
M  V30 119 C 11.0537 4.47132 -0.944573 0
M  V30 120 C 12.0507 4.85986 -1.84699 0
M  V30 121 C 9.7357 4.88821 -1.15584 0
M  V30 122 C 11.7297 5.65314 -2.94446 0
M  V30 123 C 9.4167 5.67916 -2.25642 0
M  V30 124 C 10.4147 6.06073 -3.14905 0
M  V30 125 O 10.1027 6.83578 -4.23057 0
M  V30 126 H 9.8347 0.674971 -0.0372899 0
M  V30 127 H 12.3887 1.91037 -0.754599 0
M  V30 128 H 10.6187 3.72295 1.04564 0
M  V30 129 H 12.3077 3.99356 0.72592 0
M  V30 130 H 13.0737 4.54388 -1.69577 0
M  V30 131 H 8.9527 4.58595 -0.470279 0
M  V30 132 H 12.4967 5.95016 -3.64145 0
M  V30 133 H 8.3937 5.98927 -2.40742 0
M  V30 134 H 9.1617 7.01954 -4.20954 0
M  V30 135 N 11.8248 0.280983 1.55075 0
M  V30 136 C 12.7548 -0.597469 2.25727 0
M  V30 137 C 13.7358 -1.15417 1.24952 0
M  V30 138 O 14.9208 -1.18722 1.53684 0
M  V30 139 C 12.0508 -1.7789 2.98283 0
M  V30 140 C 11.0048 -1.35347 4.06036 0
M  V30 141 C 10.3308 -2.61846 4.66198 0
M  V30 142 C 11.6308 -0.499354 5.19907 0
M  V30 143 H 13.3248 -0.00824265 2.99399 0
M  V30 144 H 10.8708 -0.0025244 1.44 0
M  V30 145 H 12.8238 -2.39937 3.46422 0
M  V30 146 H 11.5478 -2.39405 2.22155 0
M  V30 147 H 10.2068 -0.756156 3.58717 0
M  V30 148 H 9.8548 -3.21632 3.86732 0
M  V30 149 H 9.5548 -2.3409 5.38958 0
M  V30 150 H 11.0788 -3.24732 5.1709 0
M  V30 151 H 12.4928 -1.02498 5.64063 0
M  V30 152 H 10.8898 -0.316424 5.99265 0
M  V30 153 H 11.9598 0.480459 4.82514 0
M  V30 154 N 13.3029 -1.57598 0.00835791 0
M  V30 155 C 14.5279 -1.95617 -0.689103 0
M  V30 156 C 14.9529 -0.883753 -1.66046 0
M  V30 157 O 14.3109 0.157352 -1.80616 0
M  V30 158 C 14.3589 -3.32736 -1.38994 0
M  V30 159 O 13.4629 -3.27631 -2.50463 0
M  V30 160 H 12.8039 -0.638379 -0.182668 0
M  V30 161 H 15.3339 -2.045 0.064036 0
M  V30 162 H 15.3439 -3.68494 -1.75147 0
M  V30 163 H 14.0189 -4.1034 -0.677778 0
M  V30 164 H 12.5959 -3.03561 -2.16576 0
M  V30 165 N 14.781 0.264519 -1.55364 0
M  V30 166 C 15.744 1.31046 -1.88042 0
M  V30 167 C 16.744 1.41943 -0.755569 0
M  V30 168 O 17.934 1.40947 -1.02369 0
M  V30 169 C 15.066 2.69067 -2.09323 0
M  V30 170 H 16.259 1.03297 -2.81549 0
M  V30 171 H 13.812 0.502989 -1.47986 0
M  V30 172 H 14.547 3.01982 -1.18226 0
M  V30 173 H 14.332 2.62542 -2.91229 0
M  V30 174 H 15.822 3.44623 -2.35848 0
M  V30 175 N 16.2591 1.48442 0.529413 0
M  V30 176 C 17.5051 1.5672 1.28711 0
M  V30 177 C 17.8381 0.2406 1.92704 0
M  V30 178 O 17.1131 -0.753454 1.79313 0
M  V30 179 C 17.3961 2.70587 2.37603 0
M  V30 180 C 17.2491 4.12953 1.78297 0
M  V30 181 C 18.5681 2.80212 3.39366 0
M  V30 182 H 15.6871 0.570474 0.466613 0
M  V30 183 H 18.3291 1.80617 0.589706 0
M  V30 184 H 16.4791 2.50342 2.97088 0
M  V30 185 H 18.1511 4.44639 1.22858 0
M  V30 186 H 16.3941 4.19927 1.0883 0
M  V30 187 H 17.0651 4.88448 2.57144 0
M  V30 188 H 19.5411 2.98553 2.89836 0
M  V30 189 H 18.4171 3.61611 4.12951 0
M  V30 190 H 18.6781 1.88393 3.99951 0
M  V30 191 N 17.7372 -0.778329 1.37039 0
M  V30 192 C 19.1532 -1.07796 1.17695 0
M  V30 193 C 19.3532 -2.01498 0.00860115 0
M  V30 194 O 18.4092 -2.43901 -0.653352 0
M  V30 195 C 19.7222 -1.68178 2.49272 0
M  V30 196 C 21.2702 -1.80467 2.55735 0
M  V30 197 C 21.7452 -2.44263 3.87427 0
M  V30 198 N 23.2362 -2.51721 3.88833 0
M  V30 199 C 23.9712 -3.01919 4.87476 0
M  V30 200 N 23.4672 -3.5234 5.96513 0
M  V30 201 N 25.2602 -3.00733 4.74885 0
M  V30 202 H 17.4112 -0.156032 2.11826 0
M  V30 203 H 19.6742 -0.131844 0.938787 0
M  V30 204 H 19.3802 -1.06796 3.35093 0
M  V30 205 H 19.2542 -2.67554 2.65885 0
M  V30 206 H 21.6412 -2.40984 1.70325 0
M  V30 207 H 21.7222 -0.798656 2.43013 0
M  V30 208 H 21.3662 -1.84388 4.73248 0
M  V30 209 H 21.2962 -3.45458 3.9745 0
M  V30 210 H 23.7872 -2.1603 3.10063 0
M  V30 211 H 24.1002 -3.89027 6.67741 0
M  V30 212 H 22.4452 -3.50462 6.00168 0
M  V30 213 H 25.6362 -2.60638 3.88826 0
M  V30 214 H 25.8092 -3.39545 5.51918 0
M  V30 215 N 19.2153 -1.21501 -1.00376 0
M  V30 216 C 20.1783 -0.976927 -2.07337 0
M  V30 217 C 21.1783 0.0525322 -1.60714 0
M  V30 218 O 22.3683 -0.184869 -1.73216 0
M  V30 219 C 19.5003 -0.473423 -3.37597 0
M  V30 220 H 20.6933 -1.92587 -2.29892 0
M  V30 221 H 18.2463 -1.03217 -1.17371 0
M  V30 222 H 18.9813 0.480379 -3.20722 0
M  V30 223 H 18.7663 -1.216 -3.72768 0
M  V30 224 H 20.2563 -0.32675 -4.1632 0
M  V30 225 N 20.6934 1.19889 -1.02296 0
M  V30 226 C 21.9214 1.9339 -0.735399 0
M  V30 227 C 22.3364 1.75148 0.704887 0
M  V30 228 O 21.6934 1.06954 1.47875 0
M  V30 229 C 21.7444 3.45313 -1.06962 0
M  V30 230 O 21.4654 3.62964 -2.45334 0
M  V30 231 C 22.9664 4.35948 -0.804021 0
M  V30 232 H 20.1864 0.61448 -0.269546 0
M  V30 233 H 22.7304 1.522 -1.36585 0
M  V30 234 H 20.8854 3.84359 -0.484455 0
M  V30 235 H 21.2994 4.56886 -2.57595 0
M  V30 236 H 22.7734 5.41174 -1.0879 0
M  V30 237 H 23.2504 4.3842 0.261691 0
M  V30 238 H 23.8564 4.02574 -1.37164 0
M  V30 239 N 22.1715 0.800033 1.35784 0
M  V30 240 C 23.1015 0.220184 2.3246 0
M  V30 241 C 24.0825 -0.65073 1.57161 0
M  V30 242 O 25.2675 -0.582359 1.85263 0
M  V30 243 C 22.3975 -0.637353 3.41402 0
M  V30 244 C 21.3515 0.134531 4.27789 0
M  V30 245 C 20.6775 -0.844285 5.27992 0
M  V30 246 C 21.9775 1.32979 5.05088 0
M  V30 247 H 23.6715 1.02787 2.81203 0
M  V30 248 H 21.2175 0.495717 1.35199 0
M  V30 249 H 23.1705 -1.05302 4.08031 0
M  V30 250 H 21.8945 -1.47785 2.91251 0
M  V30 251 H 20.5535 0.531296 3.6273 0
M  V30 252 H 20.2015 -1.68011 4.74111 0
M  V30 253 H 19.9015 -0.332184 5.8666 0
M  V30 254 H 21.4255 -1.2583 5.97494 0
M  V30 255 H 22.8395 0.98934 5.64699 0
M  V30 256 H 21.2365 1.77593 5.7322 0
M  V30 257 H 22.3065 2.11978 4.36111 0
M  V30 258 N 23.6496 -1.47581 0.552962 0
M  V30 259 C 24.5816 -2.27997 -0.234533 0
M  V30 260 C 25.5946 -1.36753 -0.883321 0
M  V30 261 O 26.7836 -1.61612 -0.757889 0
M  V30 262 C 23.8836 -3.10879 -1.34935 0
M  V30 263 C 23.0566 -4.30056 -0.798158 0
M  V30 264 C 22.1156 -4.94567 -1.79694 0
M  V30 265 O 21.1416 -5.53087 -1.34474 0
M  V30 266 N 22.3436 -4.88878 -3.13015 0
M  V30 267 H 25.1086 -2.96222 0.455255 0
M  V30 268 H 22.6696 -1.57163 0.388761 0
M  V30 269 H 24.6616 -3.50903 -2.01616 0
M  V30 270 H 23.2316 -2.44924 -1.94244 0
M  V30 271 H 22.4516 -3.94174 0.0453079 0
M  V30 272 H 23.7396 -5.07152 -0.409173 0
M  V30 273 H 23.1376 -4.42526 -3.52402 0
M  V30 274 H 21.6946 -5.32934 -3.75266 0
M  V30 275 N 25.1277 -0.289203 -1.54924 0
M  V30 276 C 26.0907 0.579144 -2.21762 0
M  V30 277 C 27.0907 1.07047 -1.1999 0
M  V30 278 O 28.2807 0.968384 -1.44803 0
M  V30 279 C 25.4127 1.80055 -2.8947 0
M  V30 280 H 26.6057 -0.00464908 -2.999 0
M  V30 281 H 24.1587 -0.0399306 -1.56249 0
M  V30 282 H 24.8937 2.42449 -2.15381 0
M  V30 283 H 24.6787 1.45602 -3.64064 0
M  V30 284 H 26.1687 2.41773 -3.40493 0
M  V30 285 N 26.6058 1.57591 -0.0167156 0
M  V30 286 C 27.5688 2.08393 0.954204 0
M  V30 287 C 28.5688 0.996531 1.26198 0
M  V30 288 O 29.7588 1.25858 1.20438 0
M  V30 289 C 26.8908 2.5394 2.27436 0
M  V30 290 H 28.0838 2.95455 0.514451 0
M  V30 291 H 25.6368 1.54582 0.231089 0
M  V30 292 H 26.3718 1.70171 2.76066 0
M  V30 293 H 26.1568 3.33371 2.06412 0
M  V30 294 H 27.6468 2.93512 2.97053 0
M  V30 295 N 28.0839 -0.256276 1.55502 0
M  V30 296 C 29.0139 -1.32102 1.92539 0
M  V30 297 C 29.9949 -1.50684 0.789194 0
M  V30 298 O 31.1799 -1.63449 1.04872 0
M  V30 299 C 28.3099 -2.67752 2.21192 0
M  V30 300 C 27.2639 -2.63878 3.36975 0
M  V30 301 C 26.5899 -4.03236 3.51147 0
M  V30 302 C 27.8899 -2.21682 4.72921 0
M  V30 303 H 29.5839 -1.01351 2.81724 0
M  V30 304 H 27.1299 -0.486105 1.35547 0
M  V30 305 H 29.0829 -3.42365 2.45691 0
M  V30 306 H 27.8069 -3.0012 1.28824 0
M  V30 307 H 26.4659 -1.91722 3.12471 0
M  V30 308 H 26.1139 -4.32854 2.56216 0
M  V30 309 H 25.8139 -4.01535 4.29003 0
M  V30 310 H 27.3379 -4.79563 3.77957 0
M  V30 311 H 28.7519 -2.86023 4.96854 0
M  V30 312 H 27.1489 -2.3111 5.53812 0
M  V30 313 H 28.2189 -1.16833 4.70615 0
M  V30 314 N 29.562 -1.4872 -0.521534 0
M  V30 315 C 30.802 -1.58771 -1.28729 0
M  V30 316 C 31.166 -0.259394 -1.9024 0
M  V30 317 O 32.367 -0.234942 -2.67771 0
M  V30 318 C 30.638 -2.70039 -2.34124 0
M  V30 319 S 32.197 -2.9991 -3.20312 0
M  V30 320 H 29.015 -0.560251 -0.437767 0
M  V30 321 H 31.617 -1.86283 -0.593188 0
M  V30 322 H 30.321 -3.65101 -1.87429 0
M  V30 323 H 29.852 -2.44455 -3.08229 0
M  V30 324 H 31.867 -2.39855 -4.34378 0
M  V30 325 N 31.0401 0.771051 -1.3745 0
M  V30 326 C 31.9701 1.89827 -1.3597 0
M  V30 327 C 32.9511 1.68562 -0.228216 0
M  V30 328 O 34.1361 1.8941 -0.428675 0
M  V30 329 C 31.2661 3.2712 -1.16662 0
M  V30 330 C 30.2201 3.6295 -2.2683 0
M  V30 331 C 29.5461 4.98791 -1.92644 0
M  V30 332 C 30.8461 3.69627 -3.69017 0
M  V30 333 H 32.5401 1.91323 -2.30295 0
M  V30 334 H 30.0861 0.919082 -1.10855 0
M  V30 335 H 32.0391 4.05615 -1.14256 0
M  V30 336 H 30.7631 3.26059 -0.187926 0
M  V30 337 H 29.4221 2.86763 -2.28392 0
M  V30 338 H 29.0701 4.94271 -0.933021 0
M  V30 339 H 28.7701 5.23733 -2.66416 0
M  V30 340 H 30.2941 5.79685 -1.91826 0
M  V30 341 H 31.7081 4.38273 -3.69581 0
M  V30 342 H 30.1051 4.06067 -4.41848 0
M  V30 343 H 31.1751 2.70273 -4.02592 0
M  V30 344 N 32.5182 1.22032 0.997298 0
M  V30 345 C 33.4282 1.00271 2.12092 0
M  V30 346 C 34.4442 -0.047621 1.73935 0
M  V30 347 O 35.6202 0.144136 2.00884 0
M  V30 348 C 32.6852 0.578449 3.4184 0
M  V30 349 C 31.7462 1.70189 3.94125 0
M  V30 350 C 30.9792 1.29778 5.17681 0
M  V30 351 O 31.2022 0.174676 5.70132 0
M  V30 352 O 30.1362 2.11261 5.63607 0
M  V30 353 H 33.9622 1.94398 2.3333 0
M  V30 354 H 31.5472 1.00587 1.10465 0
M  V30 355 H 33.4292 0.351998 4.19927 0
M  V30 356 H 32.1042 -0.334019 3.21972 0
M  V30 357 H 31.0112 1.98282 3.1723 0
M  V30 358 H 32.3442 2.59206 4.18417 0
M  V30 359 N 33.9963 -1.19345 1.0293 0
M  V30 360 C 34.9443 -2.24621 0.604001 0
M  V30 361 C 35.9383 -1.65452 -0.363587 0
M  V30 362 O 37.1443 -1.78497 -0.23212 0
M  V30 363 H 33.5193 -0.730858 0.177061 0
M  V30 364 H 35.4903 -2.5781 1.50255 0
M  V30 365 C 34.2393 -3.47688 -0.0289127 0
M  V30 366 H 33.5623 -3.93505 0.706651 0
M  V30 367 H 35.0023 -4.23011 -0.289432 0
M  V30 368 C 33.4613 -3.11817 -1.2756 0
M  V30 369 O 33.9913 -3.2451 -2.36762 0
M  V30 370 N 32.1973 -2.66246 -1.16453 0
M  V30 371 H 31.7443 -2.56118 -0.275914 0
M  V30 372 H 31.7023 -2.42617 -1.99961 0
M  V30 373 N 35.4744 -0.807222 -1.35358 0
M  V30 374 C 36.7214 -0.387888 -1.9875 0
M  V30 375 C 37.0494 1.04509 -1.64037 0
M  V30 376 O 36.3044 1.73986 -0.895946 0
M  V30 377 C 36.6034 -0.519036 -3.53611 0
M  V30 378 C 36.2694 -1.91542 -4.08194 0
M  V30 379 C 34.9314 -2.29745 -4.22813 0
M  V30 380 C 37.2834 -2.82896 -4.37744 0
M  V30 381 C 34.6114 -3.58668 -4.643 0
M  V30 382 C 36.9634 -4.11265 -4.8067 0
M  V30 383 C 35.6274 -4.49466 -4.93494 0
M  V30 384 H 34.8974 -0.141938 -0.727279 0
M  V30 385 H 37.5444 -1.02814 -1.6156 0
M  V30 386 H 35.8494 0.204658 -3.91265 0
M  V30 387 H 37.5464 -0.175345 -4.00616 0
M  V30 388 H 34.1364 -1.60862 -3.97268 0
M  V30 389 H 38.3204 -2.54629 -4.26002 0
M  V30 390 H 33.5764 -3.88113 -4.72418 0
M  V30 391 H 37.7504 -4.82153 -5.02496 0
M  V30 392 H 35.3774 -5.49418 -5.25399 0
M  V30 393 N 36.9525 1.47285 -0.560781 0
M  V30 394 C 38.1775 2.07359 -0.0410566 0
M  V30 395 C 38.6025 1.41017 1.24483 0
M  V30 396 O 37.9605 0.486368 1.74654 0
M  V30 397 C 38.0085 3.6035 0.134123 0
M  V30 398 O 37.1125 3.94681 1.19587 0
M  V30 399 H 36.4535 0.661887 -0.0529291 0
M  V30 400 H 38.9835 1.89252 -0.777482 0
M  V30 401 H 38.9935 4.0652 0.347207 0
M  V30 402 H 37.6685 4.08034 -0.805047 0
M  V30 403 H 36.2455 3.60251 0.962987 0
M  V30 404 N 38.4306 0.297415 1.54768 0
M  V30 405 C 39.6556 -0.318435 2.04941 0
M  V30 406 C 40.0806 -1.4701 1.17345 0
M  V30 407 O 39.4386 -1.80436 0.176758 0
M  V30 408 C 39.4866 -0.755749 3.52592 0
M  V30 409 O 38.5906 -1.86088 3.68028 0
M  V30 410 H 37.9316 -0.062421 0.661059 0
M  V30 411 H 40.4616 0.438215 1.99852 0
M  V30 412 H 40.4716 -1.04552 3.94376 0
M  V30 413 H 39.1466 0.0867233 4.1581 0
M  V30 414 H 37.7236 -1.57193 3.38149 0
M  V30 415 N 39.9087 -1.5758 0.0250728 0
M  V30 416 C 40.8407 -2.06869 -0.986796 0
M  V30 417 C 41.8537 -0.991332 -1.29137 0
M  V30 418 O 43.0427 -1.26761 -1.25674 0
M  V30 419 C 40.1427 -2.47486 -2.31525 0
M  V30 420 C 39.3157 -3.78253 -2.19643 0
M  V30 421 C 38.3747 -4.05464 -3.35388 0
M  V30 422 O 37.4007 -4.75774 -3.12454 0
M  V30 423 N 38.6027 -3.55321 -4.59051 0
M  V30 424 H 41.3677 -2.94302 -0.566276 0
M  V30 425 H 38.9287 -1.6109 -0.161776 0
M  V30 426 H 40.9207 -2.62785 -3.07776 0
M  V30 427 H 39.4907 -1.65441 -2.65232 0
M  V30 428 H 38.7107 -3.7279 -1.28144 0
M  V30 429 H 39.9987 -4.63936 -2.08903 0
M  V30 430 H 39.3967 -2.98431 -4.80578 0
M  V30 431 H 37.9537 -3.75905 -5.32483 0
M  V30 432 N 41.3868 0.248026 -1.55636 0
M  V30 433 C 42.6328 0.97767 -1.77678 0
M  V30 434 C 42.9658 1.85016 -0.590135 0
M  V30 435 O 42.2408 1.90095 0.411611 0
M  V30 436 C 42.5238 1.83914 -3.09593 0
M  V30 437 C 42.3768 0.99491 -4.38659 0
M  V30 438 C 43.6958 2.82183 -3.37729 0
M  V30 439 H 40.8148 0.354005 -0.646413 0
M  V30 440 H 43.4568 0.248253 -1.88371 0
M  V30 441 H 41.6068 2.46104 -3.00608 0
M  V30 442 H 43.2788 0.391789 -4.59633 0
M  V30 443 H 41.5218 0.299231 -4.32767 0
M  V30 444 H 42.1928 1.63145 -5.2734 0
M  V30 445 H 44.6688 2.30129 -3.4667 0
M  V30 446 H 43.5448 3.39582 -4.31249 0
M  V30 447 H 43.8058 3.58588 -2.58586 0
M  V30 448 N 42.8649 1.48995 0.513639 0
M  V30 449 C 44.1109 1.58076 1.27042 0
M  V30 450 C 44.4439 0.261026 1.92438 0
M  V30 451 O 43.7189 -0.734393 1.80103 0
M  V30 452 C 44.0019 2.73091 2.34719 0
M  V30 453 C 43.8549 4.14821 1.73907 0
M  V30 454 C 45.1739 2.83796 3.36375 0
M  V30 455 H 42.2929 0.575391 0.460536 0
M  V30 456 H 44.9349 1.81232 0.570516 0
M  V30 457 H 43.0849 2.53479 2.94416 0
M  V30 458 H 44.7569 4.45917 1.18135 0
M  V30 459 H 42.9999 4.21058 1.0437 0
M  V30 460 H 43.6709 4.91147 2.51949 0
M  V30 461 H 46.1469 3.01611 2.86653 0
M  V30 462 H 45.0229 3.65971 4.09093 0
M  V30 463 H 45.2839 1.92624 3.9793 0
M  V30 464 N 44.343 -0.763751 1.37857 0
M  V30 465 C 45.253 -1.90817 1.36478 0
M  V30 466 C 46.269 -1.71997 0.263248 0
M  V30 467 O 47.445 -1.95095 0.499979 0
M  V30 468 C 44.51 -3.2605 1.17864 0
M  V30 469 C 43.571 -3.57467 2.3773 0
M  V30 470 C 42.804 -4.86249 2.19995 0
M  V30 471 O 43.027 -5.57884 1.18836 0
M  V30 472 O 41.961 -5.16911 3.08361 0
M  V30 473 H 45.787 -1.94933 2.32884 0
M  V30 474 H 43.372 -0.907619 1.1867 0
M  V30 475 H 45.254 -4.06924 1.09504 0
M  V30 476 H 43.929 -3.22769 0.245372 0
M  V30 477 H 42.836 -2.76796 2.51664 0
M  V30 478 H 44.169 -3.655 3.29652 0
M  V30 479 N 45.8211 -1.22559 -0.990812 0
M  V30 480 C 47.2371 -0.985996 -1.255 0
M  V30 481 C 47.4371 0.319173 -1.98956 0
M  V30 482 O 46.4931 1.04127 -2.3003 0
M  V30 483 C 47.8061 -2.18607 -2.06474 0
M  V30 484 C 49.3541 -2.22985 -2.19651 0
M  V30 485 C 49.8291 -3.4255 -3.04012 0
M  V30 486 N 51.3201 -3.42725 -3.11599 0
M  V30 487 C 52.0551 -4.31892 -3.7717 0
M  V30 488 N 51.5511 -5.31279 -4.44651 0
M  V30 489 N 53.3441 -4.19662 -3.73952 0
M  V30 490 H 45.4951 -2.06469 -0.49841 0
M  V30 491 H 47.7581 -0.904853 -0.282747 0
M  V30 492 H 47.4641 -3.13267 -1.59865 0
M  V30 493 H 47.3381 -2.18838 -3.07229 0
M  V30 494 H 49.7251 -1.28871 -2.65474 0
M  V30 495 H 49.8061 -2.26791 -1.18319 0
M  V30 496 H 49.4501 -4.36965 -2.58889 0
M  V30 497 H 49.3801 -3.35984 -4.0549 0
M  V30 498 H 51.8711 -2.70807 -2.63575 0
M  V30 499 H 52.1841 -5.95593 -4.92431 0
M  V30 500 H 50.5291 -5.3519 -4.43392 0
M  V30 501 H 53.7201 -3.41268 -3.20396 0
M  V30 502 H 53.8931 -4.89358 -4.24774 0
M  V30 503 N 47.2992 1.18797 -1.03562 0
M  V30 504 C 48.2492 2.20161 -0.592724 0
M  V30 505 C 49.2332 1.56772 0.362133 0
M  V30 506 O 50.4252 1.76062 0.182009 0
M  V30 507 C 47.5542 3.43266 0.0481024 0
M  V30 508 C 46.6402 4.13786 -0.9296 0
M  V30 509 N 47.0312 4.60388 -2.09467 0
M  V30 510 C 45.3292 4.39572 -0.754499 0
M  V30 511 C 46.0302 5.14619 -2.71187 0
M  V30 512 N 45.0062 5.05826 -1.991 0
M  V30 513 H 48.8082 2.53877 -1.48066 0
M  V30 514 H 46.3222 1.34946 -0.903514 0
M  V30 515 H 48.3192 4.15136 0.383058 0
M  V30 516 H 46.9792 3.11048 0.931636 0
M  V30 517 H 47.9902 4.54999 -2.47379 0
M  V30 518 H 44.6672 4.17425 0.0793713 0
M  V30 519 H 46.0572 5.60917 -3.69895 0
M  V30 520 N 48.7773 0.814389 1.34928 0
M  V30 521 C 49.7253 0.218424 2.31572 0
M  V30 522 C 50.7193 -0.636128 1.57002 0
M  V30 523 O 51.9253 -0.52842 1.72069 0
M  V30 524 H 48.3003 0.0518799 0.750208 0
M  V30 525 H 50.2713 1.04852 2.79372 0
M  V30 526 C 49.0203 -0.61207 3.4227 0
M  V30 527 H 48.3433 0.0361578 3.99784 0
M  V30 528 H 49.7833 -0.995317 4.12152 0
M  V30 529 C 48.2423 -1.78087 2.85984 0
M  V30 530 O 48.7723 -2.8787 2.80168 0
M  V30 531 N 46.9783 -1.59488 2.42924 0
M  V30 532 H 46.5253 -0.701874 2.47854 0
M  V30 533 H 46.4833 -2.37846 2.05613 0
M  V30 534 N 50.2554 -1.46986 0.568584 0
M  V30 535 C 51.2024 -2.30153 -0.172707 0
M  V30 536 C 52.1724 -1.39759 -0.897586 0
M  V30 537 O 53.3574 -1.68716 -0.891044 0
M  V30 538 C 50.4974 -3.23952 -1.1895 0
M  V30 539 C 49.6104 -4.29441 -0.469517 0
M  V30 540 C 48.7454 -5.1038 -1.47259 0
M  V30 541 C 47.7844 -6.07632 -0.738225 0
M  V30 542 N 46.9214 -6.8149 -1.68868 0
M  V30 543 H 51.7614 -2.93019 0.542596 0
M  V30 544 H 49.2984 -1.44422 0.279401 0
M  V30 545 H 51.2564 -3.76767 -1.79173 0
M  V30 546 H 49.8864 -2.62926 -1.87269 0
M  V30 547 H 48.9384 -3.79594 0.247467 0
M  V30 548 H 50.2504 -4.98689 0.105241 0
M  V30 549 H 49.4044 -5.67402 -2.14803 0
M  V30 550 H 48.1434 -4.4106 -2.08128 0
M  V30 551 H 47.1484 -5.49778 -0.0489293 0
M  V30 552 H 48.3734 -6.78966 -0.135129 0
M  V30 553 H 46.3194 -6.14891 -2.28573 0
M  V30 554 H 46.2364 -7.46948 -1.16636 0
M  V30 555 H 47.5044 -7.43078 -2.3549 0
M  V30 556 N 51.7335 -0.305618 -1.54608 0
M  V30 557 C 53.1445 0.186098 -1.8577 0
M  V30 558 C 53.4955 1.53058 -1.22751 0
M  V30 559 O 52.6205 2.09888 -0.526893 0
M  V30 560 C 53.2155 0.344449 -3.37044 0
M  V30 561 C 51.7745 0.780384 -3.68221 0
M  V30 562 C 50.9215 -0.108554 -2.77087 0
M  V30 563 H 53.8725 -0.526485 -1.49712 0
M  V30 564 H 53.8935 1.17828 -3.61796 0
M  V30 565 H 53.4055 -0.634235 -3.82883 0
M  V30 566 H 51.5065 1.76945 -3.27904 0
M  V30 567 H 51.6195 0.596572 -4.75371 0
M  V30 568 H 49.9835 0.412931 -2.5133 0
M  V30 569 H 50.7665 -1.08368 -3.25747 0
M  V30 570 N 53.2116 1.57565 -0.0334293 0
M  V30 571 C 54.1216 2.13943 0.962572 0
M  V30 572 C 55.1376 1.09276 1.35406 0
M  V30 573 O 56.3136 1.41355 1.4346 0
M  V30 574 C 53.3786 2.65887 2.22497 0
M  V30 575 C 52.4396 3.85286 1.8935 0
M  V30 576 C 51.6726 4.34743 3.09571 0
M  V30 577 O 51.8956 3.83352 4.22371 0
M  V30 578 O 50.8296 5.26538 2.91618 0
M  V30 579 H 54.6556 2.99333 0.513169 0
M  V30 580 H 52.2406 1.4822 0.18743 0
M  V30 581 H 54.1226 2.99346 2.96598 0
M  V30 582 H 52.7976 1.83578 2.6661 0
M  V30 583 H 51.7046 3.56746 1.1262 0
M  V30 584 H 53.0376 4.68771 1.5005 0
M  V30 585 N 54.6897 -0.239769 1.55765 0
M  V30 586 C 55.9357 -0.968234 1.78194 0
M  V30 587 C 56.2687 -1.84701 0.599938 0
M  V30 588 O 55.5437 -1.9031 -0.401524 0
M  V30 589 C 55.8267 -1.8227 3.10564 0
M  V30 590 C 55.6797 -0.971633 4.3918 0
M  V30 591 C 56.9987 -2.80388 3.39221 0
M  V30 592 H 54.1177 -0.350572 0.648281 0
M  V30 593 H 56.7597 -0.238259 1.885 0
M  V30 594 H 54.9097 -2.44507 3.01908 0
M  V30 595 H 56.5817 -0.367408 4.59835 0
M  V30 596 H 54.8247 -0.276276 4.32919 0
M  V30 597 H 55.4957 -1.60346 5.28198 0
M  V30 598 H 57.9717 -2.28287 3.47885 0
M  V30 599 H 56.8477 -3.3729 4.33044 0
M  V30 600 H 57.1087 -3.57212 2.60484 0
M  V30 601 N 56.1678 -1.49265 -0.50573 0
M  V30 602 C 57.0778 -1.68312 -1.63427 0
M  V30 603 C 58.0938 -0.565682 -1.64548 0
M  V30 604 O 59.2698 -0.839801 -1.83055 0
M  V30 605 C 56.3348 -1.74107 -2.99813 0
M  V30 606 C 55.3958 -2.97653 -3.09356 0
M  V30 607 C 54.6288 -3.03163 -4.39236 0
M  V30 608 O 54.8518 -2.16396 -5.27758 0
M  V30 609 O 53.7858 -3.9558 -4.53652 0
M  V30 610 H 57.6118 -2.63907 -1.50289 0
M  V30 611 H 55.1968 -1.32951 -0.681502 0
M  V30 612 H 57.0788 -1.803 -3.80881 0
M  V30 613 H 55.7538 -0.816901 -3.13223 0
M  V30 614 H 54.6608 -2.96981 -2.27493 0
M  V30 615 H 55.9938 -3.89535 -3.00871 0
M  V30 616 N 57.6459 0.756429 -1.3826 0
M  V30 617 C 58.8919 1.51772 -1.34511 0
M  V30 618 C 59.2249 1.94089 0.0656691 0
M  V30 619 O 58.4999 1.65221 1.02626 0
M  V30 620 C 58.7829 2.77226 -2.29821 0
M  V30 621 C 58.6359 2.41065 -3.79747 0
M  V30 622 C 59.9549 3.79236 -2.23312 0
M  V30 623 H 57.0739 0.550578 -0.489931 0
M  V30 624 H 59.7159 0.866607 -1.69086 0
M  V30 625 H 57.8659 3.32784 -2.00467 0
M  V30 626 H 59.5379 1.91303 -4.19763 0
M  V30 627 H 57.7809 1.7356 -3.97567 0
M  V30 628 H 58.4519 3.3081 -4.41892 0
M  V30 629 H 60.9279 3.3321 -2.49219 0
M  V30 630 H 59.8039 4.64714 -2.92116 0
M  V30 631 H 60.0649 4.24615 -1.23102 0
M  V30 632 N 59.124 1.23083 0.984299 0
M  V30 633 C 60.54 0.992637 1.24975 0
M  V30 634 C 60.74 -0.308618 1.99123 0
M  V30 635 O 59.796 -1.02905 2.30579 0
M  V30 636 C 61.109 2.19698 2.05312 0
M  V30 637 C 62.657 2.24147 2.18465 0
M  V30 638 C 63.132 3.44157 3.02192 0
M  V30 639 N 64.623 3.44372 3.09777 0
M  V30 640 C 65.358 4.33886 3.74874 0
M  V30 641 N 64.854 5.3363 4.41827 0
M  V30 642 N 66.647 4.21639 3.71721 0
M  V30 643 H 58.798 2.06731 0.487453 0
M  V30 644 H 61.061 0.906339 0.277944 0
M  V30 645 H 60.767 3.1411 1.58201 0
M  V30 646 H 60.641 2.20465 3.06064 0
M  V30 647 H 63.028 1.30277 2.64786 0
M  V30 648 H 63.109 2.27415 1.17115 0
M  V30 649 H 62.753 4.38332 2.56568 0
M  V30 650 H 62.683 3.3813 4.03702 0
M  V30 651 H 65.174 2.72201 2.62135 0
M  V30 652 H 65.487 5.98196 4.89266 0
M  V30 653 H 63.832 5.37534 4.40548 0
M  V30 654 H 67.023 3.42962 3.18582 0
M  V30 655 H 67.196 4.91604 4.22173 0
M  V30 656 N 60.6021 -1.18246 1.0419 0
M  V30 657 C 61.8271 -1.92736 0.765996 0
M  V30 658 C 62.2521 -1.75728 -0.67091 0
M  V30 659 O 61.6101 -1.06825 -1.46486 0
M  V30 660 C 61.6581 -3.42148 1.13875 0
M  V30 661 O 60.7621 -4.11548 0.264954 0
M  V30 662 H 60.1031 -0.601238 0.281797 0
M  V30 663 H 62.6331 -1.49942 1.39207 0
M  V30 664 H 62.6431 -3.92858 1.1012 0
M  V30 665 H 61.3181 -3.53848 2.18551 0
M  V30 666 H 59.8951 -3.71137 0.362226 0
M  V30 667 N 62.0802 -0.821533 -1.34494 0
M  V30 668 C 63.3052 -0.420873 -2.03085 0
M  V30 669 C 63.7302 0.964915 -1.61465 0
M  V30 670 O 63.0882 1.62763 -0.798607 0
M  V30 671 C 63.1362 -0.529414 -3.56693 0
M  V30 672 O 62.2402 0.451302 -4.09923 0
M  V30 673 H 61.5812 -0.173489 -0.640935 0
M  V30 674 H 64.1112 -1.11157 -1.71771 0
M  V30 675 H 64.1212 -0.404671 -4.05988 0
M  V30 676 H 62.7962 -1.54014 -3.86332 0
M  V30 677 H 61.3732 0.285558 -3.71805 0
M  V30 678 N 63.5583 1.46682 -0.576371 0
M  V30 679 C 64.5053 2.30241 0.160499 0
M  V30 680 C 65.4753 1.40233 0.890162 0
M  V30 681 O 66.6603 1.69186 0.882084 0
M  V30 682 C 63.8003 3.24578 1.1723 0
M  V30 683 C 62.9133 4.29684 0.446736 0
M  V30 684 C 62.0483 5.11154 1.44551 0
M  V30 685 C 61.0873 6.08015 0.70599 0
M  V30 686 N 60.2243 6.82376 1.65251 0
M  V30 687 H 65.0643 2.92727 -0.558127 0
M  V30 688 H 62.6013 1.44272 -0.287056 0
M  V30 689 H 64.5593 3.77711 1.77172 0
M  V30 690 H 63.1893 2.63916 1.85872 0
M  V30 691 H 62.2413 3.79458 -0.267594 0
M  V30 692 H 63.5533 4.98626 -0.131686 0
M  V30 693 H 62.7073 5.68533 2.11791 0
M  V30 694 H 61.4463 4.42158 2.05786 0
M  V30 695 H 60.4513 5.49796 0.0197725 0
M  V30 696 H 61.6763 6.79028 0.09912 0
M  V30 697 H 59.6223 6.16094 2.25308 0
M  V30 698 H 59.5393 7.47556 1.12673 0
M  V30 699 H 60.8073 7.44316 2.31546 0
M  V30 700 N 65.0364 0.313813 1.54444 0
M  V30 701 C 65.9464 -0.565714 2.27677 0
M  V30 702 C 66.9624 -1.13754 1.31666 0
M  V30 703 O 68.1384 -1.15959 1.64668 0
M  V30 704 C 65.2034 -1.71528 3.01296 0
M  V30 705 C 64.2644 -1.17624 4.12872 0
M  V30 706 C 63.4974 -2.27102 4.8297 0
M  V30 707 O 63.7204 -3.47256 4.52514 0
M  V30 708 O 62.6544 -1.9307 5.70094 0
M  V30 709 H 66.4804 0.0287296 3.03686 0
M  V30 710 H 64.0654 0.0798312 1.49187 0
M  V30 711 H 65.9474 -2.38476 3.4743 0
M  V30 712 H 64.6224 -2.29608 2.2817 0
M  V30 713 H 63.5294 -0.472124 3.71109 0
M  V30 714 H 64.8624 -0.640695 4.88012 0
M  V30 715 N 66.5145 -1.57545 0.0417849 0
M  V30 716 C 67.4445 -2.14009 -0.933929 0
M  V30 717 C 68.4255 -1.05938 -1.33083 0
M  V30 718 O 69.6105 -1.33833 -1.40721 0
M  V30 719 C 66.7405 -2.67747 -2.21199 0
M  V30 720 C 65.6945 -3.80718 -1.95544 0
M  V30 721 C 65.0205 -4.20935 -3.29724 0
M  V30 722 C 66.3205 -5.06258 -1.28452 0
M  V30 723 H 68.0145 -2.95788 -0.463645 0
M  V30 724 H 65.5605 -1.42285 -0.221573 0
M  V30 725 H 67.5135 -3.05886 -2.89848 0
M  V30 726 H 66.2375 -1.83147 -2.70416 0
M  V30 727 H 64.8965 -3.43037 -1.2931 0
M  V30 728 H 64.5445 -3.33298 -3.76724 0
M  V30 729 H 64.2445 -4.9707 -3.13361 0
M  V30 730 H 65.7685 -4.61666 -3.9962 0
M  V30 731 H 67.1825 -5.41903 -1.8712 0
M  V30 732 H 65.5795 -5.87475 -1.22445 0
M  V30 733 H 66.6495 -4.84207 -0.259219 0
M  V30 734 N 67.9926 0.231505 -1.5589 0
M  V30 735 C 68.9226 1.29022 -1.94617 0
M  V30 736 C 69.9036 1.4941 -0.813067 0
M  V30 737 O 71.0886 1.6176 -1.07459 0
M  V30 738 C 68.2186 2.64199 -2.25424 0
M  V30 739 C 67.1726 2.58484 -3.41131 0
M  V30 740 C 66.4986 3.97599 -3.57518 0
M  V30 741 C 67.7986 2.1413 -4.76388 0
M  V30 742 H 69.4926 0.968563 -2.83301 0
M  V30 743 H 67.0386 0.464479 -1.36303 0
M  V30 744 H 68.9916 3.38413 -2.51107 0
M  V30 745 H 67.7156 2.98032 -1.33583 0
M  V30 746 H 66.3746 1.86727 -3.15481 0
M  V30 747 H 66.0226 4.28723 -2.6307 0
M  V30 748 H 65.7226 3.94659 -4.35337 0
M  V30 749 H 67.2466 4.7349 -3.85538 0
M  V30 750 H 68.6606 2.78083 -5.01341 0
M  V30 751 H 67.0576 2.2227 -5.57419 0
M  V30 752 H 68.1276 1.09331 -4.72414 0
M  V30 753 N 69.4707 1.49531 0.497807 0
M  V30 754 C 70.4007 1.6935 1.60757 0
M  V30 755 C 71.3817 0.542218 1.61227 0
M  V30 756 O 72.5667 0.778417 1.77917 0
M  V30 757 C 69.6967 1.76298 2.99226 0
M  V30 758 C 68.6507 2.91248 3.13622 0
M  V30 759 C 67.9767 2.83312 4.53474 0
M  V30 760 C 69.2767 4.3214 2.93346 0
M  V30 761 H 70.9707 2.62263 1.44425 0
M  V30 762 H 68.5167 1.26208 0.693367 0
M  V30 763 H 70.4697 1.88749 3.76765 0
M  V30 764 H 69.1937 0.799871 3.16654 0
M  V30 765 H 67.8527 2.78404 2.38509 0
M  V30 766 H 67.5007 1.84902 4.67782 0
M  V30 767 H 67.2007 3.60465 4.64046 0
M  V30 768 H 68.7247 2.97775 5.33069 0
M  V30 769 H 70.1387 4.45649 3.60652 0
M  V30 770 H 68.5357 5.1054 3.15387 0
M  V30 771 H 69.6057 4.46363 1.89441 0
M  V30 772 N 70.9488 -0.749086 1.3866 0
M  V30 773 C 71.8808 -1.87273 1.32142 0
M  V30 774 C 72.8938 -1.61127 0.232787 0
M  V30 775 O 74.0828 -1.71623 0.49069 0
M  V30 776 C 71.1828 -3.23005 1.02571 0
M  V30 777 C 70.3558 -3.7662 2.22433 0
M  V30 778 C 69.4148 -4.90879 1.89537 0
M  V30 779 O 68.4408 -5.05276 2.62078 0
M  V30 780 N 69.6428 -5.74198 0.853031 0
M  V30 781 H 72.4078 -1.93373 2.28969 0
M  V30 782 H 69.9688 -0.929216 1.32579 0
M  V30 783 H 71.9608 -3.96992 0.786085 0
M  V30 784 H 70.5308 -3.12262 0.145249 0
M  V30 785 H 69.7508 -2.94147 2.62434 0
M  V30 786 H 71.0388 -4.09173 3.02415 0
M  V30 787 H 70.4368 -5.6514 0.25155 0
M  V30 788 H 68.9938 -6.48313 0.67329 0
M  V30 789 N 72.4269 -1.23603 -0.977757 0
M  V30 790 C 73.8379 -1.06424 -1.53398 0
M  V30 791 C 74.1889 0.367578 -1.92726 0
M  V30 792 O 73.3139 1.25465 -1.76316 0
M  V30 793 C 73.9089 -1.92568 -2.78753 0
M  V30 794 C 72.4679 -1.79642 -3.30765 0
M  V30 795 C 71.6149 -1.88111 -2.03739 0
M  V30 796 H 74.5659 -1.37227 -0.797152 0
M  V30 797 H 74.5869 -1.45203 -3.51705 0
M  V30 798 H 74.0989 -2.96771 -2.50098 0
M  V30 799 H 72.1999 -0.782325 -3.64294 0
M  V30 800 H 72.3129 -2.63174 -4.00345 0
M  V30 801 H 70.6769 -1.31723 -2.17994 0
M  V30 802 H 71.4599 -2.93875 -1.77461 0
M  V30 803 N 73.905 1.17692 -1.04816 0
M  V30 804 C 75.151 1.88137 -0.75711 0
M  V30 805 C 75.484 1.80604 0.713841 0
M  V30 806 O 74.759 1.21146 1.52164 0
M  V30 807 C 75.042 3.38318 -1.2334 0
M  V30 808 C 74.895 3.54622 -2.76701 0
M  V30 809 C 76.214 4.32214 -0.829415 0
M  V30 810 H 73.333 0.683163 -0.27651 0
M  V30 811 H 75.975 1.38424 -1.30149 0
M  V30 812 H 74.125 3.80787 -0.770286 0
M  V30 813 H 75.797 3.21194 -3.31107 0
M  V30 814 H 74.04 2.97026 -3.16161 0
M  V30 815 H 74.711 4.60028 -3.05088 0
M  V30 816 H 77.187 3.97565 -1.22805 0
M  V30 817 H 76.063 5.35838 -1.19033 0
M  V30 818 H 76.324 4.41294 0.266891 0
M  V30 819 N 75.3831 0.828654 1.34056 0
M  V30 820 C 76.6111 0.43262 2.02326 0
M  V30 821 C 77.0261 -0.963147 1.62385 0
M  V30 822 O 76.3831 -1.62425 0.832121 0
M  V30 823 C 76.4341 0.53182 3.57567 0
M  V30 824 O 76.1551 1.87258 3.96063 0
M  V30 825 C 77.6561 0.131422 4.43105 0
M  V30 826 H 74.8761 0.172923 0.648335 0
M  V30 827 H 77.4201 1.1184 1.71208 0
M  V30 828 H 75.5751 -0.105938 3.87255 0
M  V30 829 H 75.9891 1.85087 4.90758 0
M  V30 830 H 77.4631 0.251904 5.51425 0
M  V30 831 H 77.9401 -0.925645 4.29335 0
M  V30 832 H 78.5461 0.743207 4.18756 0
M  V30 833 N 76.8612 -1.46375 0.584142 0
M  V30 834 C 78.1102 -2.01585 0.0679741 0
M  V30 835 C 78.4232 -1.46109 -1.30045 0
M  V30 836 O 79.6292 -1.93148 -1.90804 0
M  V30 837 C 78.0852 -3.5983 0.0709207 0
M  V30 838 C 77.6932 -4.24303 1.43775 0
M  V30 839 C 79.4372 -4.22693 -0.391228 0
M  V30 840 C 77.3442 -5.74631 1.39834 0
M  V30 841 H 76.2742 -0.753689 0.0216421 0
M  V30 842 H 78.9252 -1.68093 0.736001 0
M  V30 843 H 77.3072 -3.90405 -0.663299 0
M  V30 844 H 78.4812 -4.05335 2.19181 0
M  V30 845 H 76.7962 -3.73539 1.84004 0
M  V30 846 H 79.3932 -5.3289 -0.439524 0
M  V30 847 H 79.7362 -3.91728 -1.40906 0
M  V30 848 H 80.2692 -3.96749 0.288974 0
M  V30 849 H 77.0082 -6.10258 2.39303 0
M  V30 850 H 76.5282 -5.95858 0.686505 0
M  V30 851 H 78.2072 -6.37375 1.11187 0
M  V30 852 N 78.3393 -0.321999 -1.54275 0
M  V30 853 C 79.5643 0.285791 -2.05422 0
M  V30 854 C 79.9893 1.45124 -1.19669 0
M  V30 855 O 79.3473 1.80132 -0.205441 0
M  V30 856 C 79.3953 0.69956 -3.53749 0
M  V30 857 O 78.4993 1.8021 -3.70942 0
M  V30 858 H 77.8403 0.0518962 -0.661969 0
M  V30 859 H 80.3703 -0.469954 -1.9913 0
M  V30 860 H 80.3803 0.982649 -3.9599 0
M  V30 861 H 79.0553 -0.152864 -4.15619 0
M  V30 862 H 77.6323 1.51794 -3.40607 0
M  V30 863 N 79.8174 1.5752 -0.0501392 0
M  V30 864 C 81.2334 1.56631 0.306402 0
M  V30 865 C 81.4334 1.0577 1.71508 0
M  V30 866 O 80.4894 0.713837 2.422 0
M  V30 867 C 81.8024 3.00393 0.135811 0
M  V30 868 C 83.3504 3.12315 0.206993 0
M  V30 869 C 83.8254 4.57954 0.064944 0
M  V30 870 N 85.3164 4.63041 0.121254 0
M  V30 871 C 86.0514 5.73389 0.0354381 0
M  V30 872 N 85.5474 6.92724 -0.102666 0
M  V30 873 N 87.3404 5.62026 0.090946 0
M  V30 874 H 79.4914 1.88903 -0.971046 0
M  V30 875 H 81.7544 0.869876 -0.376855 0
M  V30 876 H 81.4604 3.41635 -0.835384 0
M  V30 877 H 81.3344 3.66373 0.897275 0
M  V30 878 H 83.7214 2.70973 1.16866 0
M  V30 879 H 83.8024 2.49016 -0.585208 0
M  V30 880 H 83.4464 4.99981 -0.893394 0
M  V30 881 H 83.3764 5.19258 0.876277 0
M  V30 882 H 85.8674 3.77216 0.227284 0
M  V30 883 H 86.1804 7.72633 -0.160882 0
M  V30 884 H 84.5254 6.94864 -0.137737 0
M  V30 885 H 87.7164 4.67684 0.197388 0
M  V30 886 H 87.8894 6.47997 0.0206089 0
M  V30 887 N 81.2955 -0.223234 1.56011 0
M  V30 888 C 82.2435 -1.29627 1.93131 0
M  V30 889 C 83.2375 -1.48608 0.813146 0
M  V30 890 O 84.4435 -1.49802 0.997966 0
M  V30 891 H 80.8185 -0.434563 0.613726 0
M  V30 892 H 82.7895 -0.955995 2.82672 0
M  V30 893 C 81.5385 -2.63983 2.26292 0
M  V30 894 H 80.8615 -2.50185 3.11846 0
M  V30 895 H 82.3015 -3.3788 2.56151 0
M  V30 896 C 80.7605 -3.18866 1.08747 0
M  V30 897 O 81.2905 -4.00192 0.347727 0
M  V30 898 N 79.4965 -2.77217 0.871743 0
M  V30 899 H 79.0435 -2.1119 1.47501 0
M  V30 900 H 79.0015 -3.1428 0.0869905 0
M  V30 901 N 82.7736 -1.49793 -0.48987 0
M  V30 902 C 83.6836 -1.70036 -1.61632 0
M  V30 903 C 84.6996 -0.583102 -1.63939 0
M  V30 904 O 85.8756 -0.859169 -1.82154 0
M  V30 905 C 82.9406 -1.77277 -2.97949 0
M  V30 906 C 82.0016 -3.00918 -3.06181 0
M  V30 907 C 81.2346 -3.07804 -4.35996 0
M  V30 908 O 81.4576 -2.21982 -5.25433 0
M  V30 909 O 80.3916 -4.00369 -4.49431 0
M  V30 910 H 84.2176 -2.65486 -1.47482 0
M  V30 911 H 81.8026 -1.33666 -0.667362 0
M  V30 912 H 83.6846 -1.84329 -3.78947 0
M  V30 913 H 82.3596 -0.850076 -3.12339 0
M  V30 914 H 81.2666 -2.99377 -2.2433 0
M  V30 915 H 82.5996 -3.92704 -2.96723 0
M  V30 916 N 84.2517 0.741722 -1.39055 0
M  V30 917 C 85.1987 1.85566 -1.37237 0
M  V30 918 C 86.1687 1.64457 -0.233072 0
M  V30 919 O 87.3537 1.85957 -0.427147 0
M  V30 920 C 84.4937 3.23004 -1.215 0
M  V30 921 C 83.6067 3.55864 -2.44918 0
M  V30 922 C 82.7417 4.82669 -2.21821 0
M  V30 923 C 81.7807 5.08351 -3.40948 0
M  V30 924 N 80.9177 6.26356 -3.17211 0
M  V30 925 H 85.7577 1.86455 -2.32462 0
M  V30 926 H 83.2947 0.911176 -1.15482 0
M  V30 927 H 85.2527 4.02331 -1.10389 0
M  V30 928 H 83.8827 3.21411 -0.29908 0
M  V30 929 H 82.9347 2.7129 -2.66657 0
M  V30 930 H 84.2467 3.70765 -3.33668 0
M  V30 931 H 83.4007 5.69962 -2.07914 0
M  V30 932 H 82.1397 4.69929 -1.30454 0
M  V30 933 H 81.1447 4.19522 -3.55361 0
M  V30 934 H 82.3697 5.22981 -4.33207 0
M  V30 935 H 80.3157 6.14917 -2.28502 0
M  V30 936 H 80.2327 6.41813 -3.99515 0
M  V30 937 H 81.5007 7.16506 -3.06984 0
M  V30 938 N 85.7298 1.2412 0.971189 0
M  V30 939 C 86.6398 1.04747 2.09917 0
M  V30 940 C 87.6558 -0.0107162 1.73997 0
M  V30 941 O 88.8318 0.186714 2.00533 0
M  V30 942 C 85.8968 0.650828 3.40537 0
M  V30 943 C 84.9578 1.7851 3.90426 0
M  V30 944 C 84.1908 1.40729 5.14812 0
M  V30 945 O 84.4138 0.29557 5.69634 0
M  V30 946 O 83.3478 2.23168 5.58999 0
M  V30 947 H 87.1738 1.99304 2.29154 0
M  V30 948 H 84.7588 1.02908 1.08307 0
M  V30 949 H 86.6408 0.440992 4.19086 0
M  V30 950 H 85.3158 -0.265649 3.22608 0
M  V30 951 H 84.2228 2.04966 3.12953 0
M  V30 952 H 85.5558 2.68023 4.12825 0
M  V30 953 N 87.2079 -1.17134 1.05439 0
M  V30 954 C 88.1549 -2.21235 0.657539 0
M  V30 955 C 89.1249 -1.62551 -0.341543 0
M  V30 956 O 90.3099 -1.89379 -0.232393 0
M  V30 957 C 87.4499 -3.45076 0.0410575 0
M  V30 958 C 86.5629 -4.18042 1.08927 0
M  V30 959 C 85.6979 -5.29376 0.439848 0
M  V30 960 C 84.7369 -5.94132 1.4722 0
M  V30 961 N 83.8739 -6.96975 0.846756 0
M  V30 962 H 88.7139 -2.54534 1.54972 0
M  V30 963 H 86.2509 -1.25028 0.775006 0
M  V30 964 H 88.2089 -4.15862 -0.33383 0
M  V30 965 H 86.8389 -3.12353 -0.814568 0
M  V30 966 H 85.8909 -3.45945 1.58196 0
M  V30 967 H 87.2029 -4.62306 1.87282 0
M  V30 968 H 86.3569 -6.06699 0.0115125 0
M  V30 969 H 85.0959 -4.86251 -0.375656 0
M  V30 970 H 84.1009 -5.15538 1.91052 0
M  V30 971 H 85.3259 -6.39337 2.28965 0
M  V30 972 H 83.2719 -6.5598 0.0518075 0
M  V30 973 H 83.1889 -7.39565 1.5678 0
M  V30 974 H 84.4569 -7.78239 0.443277 0
M  V30 975 N 88.686 -0.835752 -1.33615 0
M  V30 976 C 89.932 -0.430596 -1.98176 0
M  V30 977 C 90.265 1.00684 -1.66061 0
M  V30 978 O 89.54 1.70339 -0.938877 0
M  V30 979 C 89.823 -0.648065 -3.5422 0
M  V30 980 C 89.676 -2.13255 -3.96033 0
M  V30 981 C 90.995 -0.0922113 -4.40003 0
M  V30 982 H 88.114 -0.157924 -0.719881 0
M  V30 983 H 90.756 -1.05069 -1.58305 0
M  V30 984 H 88.906 -0.120237 -3.88314 0
M  V30 985 H 90.578 -2.725 -3.72211 0
M  V30 986 H 88.821 -2.61823 -3.45878 0
M  V30 987 H 89.492 -2.23547 -5.04708 0
M  V30 988 H 91.968 -0.543343 -4.12537 0
M  V30 989 H 90.844 -0.274083 -5.48215 0
M  V30 990 H 91.105 1.00378 -4.30554 0
M  V30 991 N 90.1641 1.46063 -0.591896 0
M  V30 992 C 91.0941 2.33172 0.123673 0
M  V30 993 C 92.0751 1.45897 0.87453 0
M  V30 994 O 93.2601 1.74698 0.848181 0
M  V30 995 C 90.3901 3.28336 1.13194 0
M  V30 996 C 89.3441 4.25124 0.495324 0
M  V30 997 C 88.6701 5.09863 1.61071 0
M  V30 998 C 89.9701 5.19143 -0.573425 0
M  V30 999 H 91.6641 2.93252 -0.603646 0
M  V30 1000 H 89.2101 1.41014 -0.291741 0
M  V30 1001 H 91.1631 3.88137 1.64097 0
M  V30 1002 H 89.8871 2.66383 1.88965 0
M  V30 1003 H 88.5461 3.66599 0.00729452 0
M  V30 1004 H 88.1941 4.44288 2.35832 0
M  V30 1005 H 87.8941 5.75417 1.19035 0
M  V30 1006 H 89.4181 5.72529 2.12233 0
M  V30 1007 H 90.8321 5.73106 -0.1491 0
M  V30 1008 H 89.2291 5.93089 -0.914636 0
M  V30 1009 H 90.2991 4.62519 -1.45617 0
M  V30 1010 N 91.6422 0.330177 1.54103 0
M  V30 1011 C 92.8912 -0.271336 1.99867 0
M  V30 1012 C 93.2042 -1.52723 1.22209 0
M  V30 1013 O 94.4102 -2.20515 1.58383 0
M  V30 1014 C 92.8662 -0.534032 3.55916 0
M  V30 1015 C 92.4742 0.705193 4.42415 0
M  V30 1016 C 94.2182 -1.09514 4.1013 0
M  V30 1017 C 92.1252 0.414035 5.89949 0
M  V30 1018 H 91.0552 -0.105166 0.74663 0
M  V30 1019 H 93.7062 0.443429 1.78062 0
M  V30 1020 H 92.0882 -1.30915 3.73734 0
M  V30 1021 H 93.2622 1.4804 4.36372 0
M  V30 1022 H 91.5772 1.18698 3.99124 0
M  V30 1023 H 94.1742 -1.3277 5.17954 0
M  V30 1024 H 94.5172 -2.04656 3.62521 0
M  V30 1025 H 95.0502 -0.381038 3.95971 0
M  V30 1026 H 91.7892 1.33481 6.41766 0
M  V30 1027 H 91.3092 -0.323336 5.98928 0
M  V30 1028 H 92.9882 0.0263105 6.46995 0
M  V30 1029 N 93.1203 -1.57491 0.0584922 0
M  V30 1030 C 94.0303 -2.15448 -0.928414 0
M  V30 1031 C 95.0463 -1.11416 -1.3365 0
M  V30 1032 O 96.2223 -1.4362 -1.41193 0
M  V30 1033 C 93.2873 -2.69393 -2.18239 0
M  V30 1034 C 92.3483 -3.88249 -1.83196 0
M  V30 1035 C 91.5813 -4.39613 -3.02616 0
M  V30 1036 O 91.8043 -3.90023 -4.16219 0
M  V30 1037 O 90.7383 -5.31111 -2.83204 0
M  V30 1038 H 94.5643 -3.00112 -0.465483 0
M  V30 1039 H 92.1493 -1.48499 -0.163826 0
M  V30 1040 H 94.0313 -3.04026 -2.91798 0
M  V30 1041 H 92.7063 -1.87796 -2.63656 0
M  V30 1042 H 91.6133 -3.58492 -1.06931 0
M  V30 1043 H 92.9463 -4.71098 -1.42573 0
M  V30 1044 N 94.5984 0.214957 -1.56127 0
M  V30 1045 C 95.8464 0.936518 -1.79091 0
M  V30 1046 C 96.1674 1.84606 -0.628148 0
M  V30 1047 O 95.4374 1.92664 0.35462 0
M  V30 1048 H 94.0174 0.3488 -0.660566 0
M  V30 1049 H 96.6794 0.22523 -1.93594 0
M  V30 1050 H 95.7754 1.53943 -2.71492 0
M  V30 1051 N 96.0765 1.50051 0.48192 0
M  V30 1052 C 97.3015 1.64508 1.26301 0
M  V30 1053 C 97.7265 0.323851 1.85291 0
M  V30 1054 O 97.0845 -0.710969 1.66778 0
M  V30 1055 C 97.1325 2.7305 2.35533 0
M  V30 1056 O 96.2365 2.3355 3.39895 0
M  V30 1057 H 95.5775 0.549978 0.372048 0
M  V30 1058 H 98.1075 1.9636 0.574786 0
M  V30 1059 H 98.1175 2.95799 2.8101 0
M  V30 1060 H 96.7925 3.68946 1.91967 0
M  V30 1061 H 95.3695 2.21205 3.00204 0
M  V30 1062 N 97.5546 -0.734337 1.39446 0
M  V30 1063 C 98.8036 -1.48937 1.36017 0
M  V30 1064 C 99.1166 -1.95557 -0.0409005 0
M  V30 1065 O 100.323 -2.70779 -0.19778 0
M  V30 1066 C 98.7786 -2.69125 2.38955 0
M  V30 1067 C 98.3866 -2.29452 3.8478 0
M  V30 1068 C 100.131 -3.46944 2.44603 0
M  V30 1069 C 98.0376 -3.46366 4.79358 0
M  V30 1070 H 96.9676 -0.559296 0.505672 0
M  V30 1071 H 99.6186 -0.800983 1.65095 0
M  V30 1072 H 98.0006 -3.40041 2.02948 0
M  V30 1073 H 99.1746 -1.66077 4.29831 0
M  V30 1074 H 97.4896 -1.64723 3.82433 0
M  V30 1075 H 100.087 -4.33907 3.12456 0
M  V30 1076 H 100.43 -3.89454 1.47076 0
M  V30 1077 H 100.963 -2.83056 2.79507 0
M  V30 1078 H 97.7016 -3.08905 5.78151 0
M  V30 1079 H 97.2216 -4.08719 4.38986 0
M  V30 1080 H 98.9006 -4.12691 4.98292 0
M  V30 1081 N 99.0327 -1.24633 -0.964593 0
M  V30 1082 C 99.9807 -1.03917 -2.08096 0
M  V30 1083 C 100.975 0.0268581 -1.69379 0
M  V30 1084 O 102.181 -0.127952 -1.79545 0
M  V30 1085 H 98.5557 -0.319044 -0.680966 0
M  V30 1086 H 100.527 -1.98581 -2.22729 0
M  V30 1087 C 99.2757 -0.663983 -3.41301 0
M  V30 1088 H 98.5987 -1.47605 -3.71555 0
M  V30 1089 H 100.039 -0.558663 -4.20303 0
M  V30 1090 C 98.4977 0.629169 -3.30973 0
M  V30 1091 O 99.0277 1.67404 -3.65156 0
M  V30 1092 N 97.2337 0.611057 -2.84103 0
M  V30 1093 H 96.7807 -0.239593 -2.56483 0
M  V30 1094 H 96.7387 1.47647 -2.77575 0
M  V30 1095 N 100.511 1.16574 -1.06058 0
M  V30 1096 C 101.736 1.91493 -0.796562 0
M  V30 1097 C 102.161 1.76773 0.642868 0
M  V30 1098 O 101.519 1.09142 1.44768 0
M  V30 1099 C 101.567 3.40293 -1.19303 0
M  V30 1100 O 100.671 4.11074 -0.330394 0
M  V30 1101 H 100.012 0.596678 -0.291326 0
M  V30 1102 H 102.542 1.47708 -1.41575 0
M  V30 1103 H 102.552 3.91057 -1.16356 0
M  V30 1104 H 101.227 3.50326 -2.24153 0
M  V30 1105 H 99.8038 3.70513 -0.421225 0
M  V30 1106 N 101.989 0.842826 1.3317 0
M  V30 1107 C 103.235 0.441099 1.97945 0
M  V30 1108 C 103.568 -0.998024 1.66593 0
M  V30 1109 O 102.843 -1.69839 0.947898 0
M  V30 1110 C 103.126 0.666841 3.53872 0
M  V30 1111 C 102.979 2.15352 3.94897 0
M  V30 1112 C 104.298 0.115544 4.39948 0
M  V30 1113 H 101.417 0.161739 0.719034 0
M  V30 1114 H 104.059 1.05907 1.57746 0
M  V30 1115 H 102.209 0.140828 3.88245 0
M  V30 1116 H 103.881 2.7447 3.70761 0
M  V30 1117 H 102.124 2.63653 3.44484 0
M  V30 1118 H 102.795 2.26221 5.03516 0
M  V30 1119 H 105.271 0.565213 4.12243 0
M  V30 1120 H 104.147 0.303152 5.48062 0
M  V30 1121 H 104.408 -0.980935 4.3108 0
M  V30 1122 N 103.467 -1.45747 0.599634 0
M  V30 1123 C 104.883 -1.57424 0.26264 0
M  V30 1124 C 105.083 -1.59222 -1.23493 0
M  V30 1125 O 104.139 -1.51825 -2.01756 0
M  V30 1126 C 105.452 -2.86061 0.926795 0
M  V30 1127 C 107 -2.99722 0.901967 0
M  V30 1128 C 107.475 -4.31119 1.54598 0
M  V30 1129 N 108.966 -4.37858 1.5111 0
M  V30 1130 C 109.701 -5.3818 1.97863 0
M  V30 1131 N 109.197 -6.45083 2.52666 0
M  V30 1132 N 110.99 -5.29487 1.88679 0
M  V30 1133 H 103.141 -1.42823 1.57211 0
M  V30 1134 H 105.404 -0.68235 0.658105 0
M  V30 1135 H 105.11 -2.90605 1.98095 0
M  V30 1136 H 104.984 -3.74563 0.445238 0
M  V30 1137 H 107.371 -2.9475 -0.143617 0
M  V30 1138 H 107.452 -2.12652 1.42171 0
M  V30 1139 H 107.096 -4.36849 2.59085 0
M  V30 1140 H 107.026 -5.16992 1.00132 0
M  V30 1141 H 109.517 -3.61209 1.11068 0
M  V30 1142 H 109.83 -7.17869 2.86155 0
M  V30 1143 H 108.175 -6.45856 2.56701 0
M  V30 1144 H 111.366 -4.44877 1.4561 0
M  V30 1145 H 111.539 -6.07524 2.25429 0
M  V30 1146 N 104.945 -0.338344 -1.53925 0
M  V30 1147 C 106.191 0.260143 -2.01125 0
M  V30 1148 C 106.524 1.50617 -1.22589 0
M  V30 1149 O 105.799 1.91979 -0.312113 0
M  V30 1150 C 106.082 0.579499 -3.55407 0
M  V30 1151 C 105.935 -0.678264 -4.44657 0
M  V30 1152 C 107.254 1.39122 -4.17532 0
M  V30 1153 H 104.373 0.0930772 -0.731099 0
M  V30 1154 H 107.015 -0.457852 -1.84401 0
M  V30 1155 H 105.165 1.19118 -3.69788 0
M  V30 1156 H 106.837 -1.31631 -4.42121 0
M  V30 1157 H 105.08 -1.3042 -4.13731 0
M  V30 1158 H 105.751 -0.410143 -5.50474 0
M  V30 1159 H 108.227 0.874035 -4.06817 0
M  V30 1160 H 107.103 1.58342 -5.25565 0
M  V30 1161 H 107.364 2.39178 -3.71815 0
M  V30 1162 N 106.423 1.57458 -0.0668435 0
M  V30 1163 C 107.648 1.9804 0.616027 0
M  V30 1164 C 108.073 0.944771 1.62652 0
M  V30 1165 O 107.431 -0.0902094 1.81075 0
M  V30 1166 C 107.479 3.37665 1.26549 0
M  V30 1167 O 106.583 3.36701 2.38131 0
M  V30 1168 H 105.924 0.644719 0.158849 0
M  V30 1169 H 108.454 2.04121 -0.139891 0
M  V30 1170 H 108.464 3.7474 1.6135 0
M  V30 1171 H 107.139 4.12573 0.525016 0
M  V30 1172 H 105.716 3.1139 2.0516 0
M  V30 1173 N 107.901 -0.206675 1.56239 0
M  V30 1174 C 109.15 -0.926964 1.79138 0
M  V30 1175 C 109.463 -1.84901 0.638043 0
M  V30 1176 O 110.669 -2.60906 0.751033 0
M  V30 1177 C 109.125 -1.6986 3.17294 0
M  V30 1178 C 108.733 -0.821956 4.40395 0
M  V30 1179 C 110.477 -2.40922 3.4951 0
M  V30 1180 C 108.384 -1.59179 5.69575 0
M  V30 1181 H 107.314 -0.349864 0.667915 0
M  V30 1182 H 109.965 -0.180487 1.8261 0
M  V30 1183 H 108.347 -2.48853 3.08039 0
M  V30 1184 H 109.521 -0.0715019 4.60745 0
M  V30 1185 H 107.836 -0.222741 4.15804 0
M  V30 1186 H 110.433 -2.99047 4.43255 0
M  V30 1187 H 110.776 -3.14542 2.72707 0
M  V30 1188 H 111.309 -1.68905 3.60161 0
M  V30 1189 H 108.048 -0.898589 6.49312 0
M  V30 1190 H 107.568 -2.31648 5.53262 0
M  V30 1191 H 109.247 -2.14862 6.10281 0
M  V30 1192 N 109.379 -1.50304 -0.473955 0
M  V30 1193 C 110.342 -1.6841 -1.55469 0
M  V30 1194 C 111.342 -0.554905 -1.50922 0
M  V30 1195 O 112.532 -0.821882 -1.53593 0
M  V30 1196 C 109.664 -1.70667 -2.95102 0
M  V30 1197 H 110.857 -2.64828 -1.40733 0
M  V30 1198 H 108.41 -1.39742 -0.700132 0
M  V30 1199 H 109.145 -0.75932 -3.15285 0
M  V30 1200 H 108.93 -2.52698 -2.9981 0
M  V30 1201 H 110.42 -1.8664 -3.73571 0
M  V30 1202 N 110.857 0.726932 -1.39834 0
M  V30 1203 C 112.103 1.48884 -1.377 0
M  V30 1204 C 112.436 1.94185 0.0244852 0
M  V30 1205 O 111.711 1.67361 0.990986 0
M  V30 1206 C 111.994 2.72288 -2.3565 0
M  V30 1207 C 111.847 2.32956 -3.84775 0
M  V30 1208 C 113.166 3.74414 -2.31306 0
M  V30 1209 H 110.285 0.540062 -0.5015 0
M  V30 1210 H 112.927 0.830547 -1.70886 0
M  V30 1211 H 111.077 3.28457 -2.07481 0
M  V30 1212 H 112.749 1.82356 -4.23726 0
M  V30 1213 H 110.992 1.65088 -4.01159 0
M  V30 1214 H 111.663 3.21362 -4.4881 0
M  V30 1215 H 114.139 3.27849 -2.56231 0
M  V30 1216 H 113.015 4.58414 -3.01907 0
M  V30 1217 H 113.276 4.21909 -1.32081 0
M  V30 1218 N 112.336 1.25143 0.95797 0
M  V30 1219 C 113.283 1.05235 2.05412 0
M  V30 1220 C 114.253 -0.0374561 1.66058 0
M  V30 1221 O 115.438 0.119073 1.90428 0
M  V30 1222 C 112.578 0.673589 3.38462 0
M  V30 1223 C 111.691 1.8379 3.90954 0
M  V30 1224 C 110.826 1.40381 5.12315 0
M  V30 1225 C 109.865 2.53746 5.57027 0
M  V30 1226 N 109.002 2.11136 6.69601 0
M  V30 1227 H 113.842 1.99048 2.21774 0
M  V30 1228 H 111.379 0.991277 1.08683 0
M  V30 1229 H 113.337 0.434964 4.14926 0
M  V30 1230 H 111.967 -0.227554 3.21997 0
M  V30 1231 H 111.019 2.18992 3.11041 0
M  V30 1232 H 112.331 2.68937 4.20089 0
M  V30 1233 H 111.485 1.12464 5.96185 0
M  V30 1234 H 110.224 0.523015 4.84887 0
M  V30 1235 H 109.229 2.82412 4.71724 0
M  V30 1236 H 110.454 3.42398 5.86464 0
M  V30 1237 H 108.4 1.25468 6.4389 0
M  V30 1238 H 108.317 2.89832 6.98236 0
M  V30 1239 H 109.585 1.86385 7.56889 0
M  V30 1240 N 113.814 -1.1601 1.06675 0
M  V30 1241 C 114.746 -2.20115 0.638921 0
M  V30 1242 C 115.759 -1.59916 -0.305057 0
M  V30 1243 O 116.948 -1.78245 -0.0954446 0
M  V30 1244 C 114.048 -3.38798 -0.0830083 0
M  V30 1245 C 113.221 -4.2855 0.875426 0
M  V30 1246 C 112.28 -5.25849 0.192042 0
M  V30 1247 O 111.306 -5.63102 0.830921 0
M  V30 1248 N 112.508 -5.70648 -1.06493 0
M  V30 1249 H 115.273 -2.57439 1.53444 0
M  V30 1250 H 112.834 -1.31057 0.950557 0
M  V30 1251 H 114.826 -4.00936 -0.550685 0
M  V30 1252 H 113.396 -2.99947 -0.880386 0
M  V30 1253 H 112.616 -3.63617 1.52238 0
M  V30 1254 H 113.904 -4.85393 1.52548 0
M  V30 1255 H 113.302 -5.42482 -1.60405 0
M  V30 1256 H 111.859 -6.34859 -1.47641 0
M  V30 1257 N 115.292 -0.849877 -1.32721 0
M  V30 1258 C 116.255 -0.296122 -2.27279 0
M  V30 1259 C 117.255 0.541458 -1.5141 0
M  V30 1260 O 118.445 0.353658 -1.70572 0
M  V30 1261 C 115.577 0.581579 -3.35902 0
M  V30 1262 H 116.77 -1.13064 -2.77771 0
M  V30 1263 H 114.323 -0.62383 -1.43311 0
M  V30 1264 H 115.058 1.43809 -2.9067 0
M  V30 1265 H 114.843 -0.0178814 -3.92096 0
M  V30 1266 H 116.333 0.961951 -4.0637 0
M  V30 1267 N 116.77 1.45427 -0.607355 0
M  V30 1268 C 118.047 1.9557 -0.0344566 0
M  V30 1269 C 118.427 1.54979 1.43334 0
M  V30 1270 O 117.775 0.812241 2.13576 0
M  V30 1271 C 117.985 3.48226 -0.232321 0
M  V30 1272 C 119.333 4.2445 -0.113001 0
M  V30 1273 O 120.357 3.55829 -0.162431 0
M  V30 1274 O 119.216 5.465 0.00209442 0
M  V30 1275 H 116.31 0.826222 0.0358667 0
M  V30 1276 H 118.856 1.55594 -0.6774 0
M  V30 1277 H 117.628 3.70739 -1.25174 0
M  V30 1278 H 117.251 3.95092 0.445896 0
M  V30 1279 N 118.248 0.346503 1.53744 0
M  V30 1280 C 119.158 -0.517293 2.28826 0
M  V30 1281 C 120.174 -1.10935 1.3405 0
M  V30 1282 O 121.35 -1.1244 1.6709 0
M  V30 1283 C 118.415 -1.65098 3.04866 0
M  V30 1284 C 117.476 -1.0884 4.15274 0
M  V30 1285 C 116.709 -2.16806 4.87679 0
M  V30 1286 O 116.932 -3.3758 4.59778 0
M  V30 1287 O 115.866 -1.80934 5.74061 0
M  V30 1288 H 119.692 0.0931396 3.03557 0
M  V30 1289 H 117.277 0.111458 1.48984 0
M  V30 1290 H 119.159 -2.31053 3.5241 0
M  V30 1291 H 117.834 -2.24717 2.32989 0
M  V30 1292 H 116.741 -0.3933 3.72027 0
M  V30 1293 H 118.074 -0.537036 4.89261 0
M  V30 1294 N 119.726 -1.57421 0.075193 0
M  V30 1295 C 120.975 -1.92794 -0.592731 0
M  V30 1296 C 121.288 -0.957478 -1.70563 0
M  V30 1297 O 122.494 -1.20417 -2.43335 0
M  V30 1298 C 120.95 -3.42495 -1.10569 0
M  V30 1299 C 120.558 -4.47994 -0.0236121 0
M  V30 1300 C 122.302 -3.86864 -1.74748 0
M  V30 1301 C 120.209 -5.88829 -0.550803 0
M  V30 1302 H 119.139 -0.719591 -0.225177 0
M  V30 1303 H 121.79 -1.82902 0.147978 0
M  V30 1304 H 120.172 -3.47471 -1.89947 0
M  V30 1305 H 121.346 -4.54637 0.751099 0
M  V30 1306 H 119.661 -4.13113 0.522159 0
M  V30 1307 H 122.258 -4.8947 -2.15229 0
M  V30 1308 H 122.601 -3.24417 -2.60882 0
M  V30 1309 H 123.134 -3.84504 -1.01986 0
M  V30 1310 H 119.873 -6.54929 0.273457 0
M  V30 1311 H 119.393 -5.85698 -1.29296 0
M  V30 1312 H 121.072 -6.38811 -1.02613 0
M  V30 1313 N 121.204 0.198386 -1.56346 0
M  V30 1314 C 122.114 1.2664 -1.97483 0
M  V30 1315 C 123.13 1.49989 -0.882002 0
M  V30 1316 O 124.306 1.62668 -1.18748 0
M  V30 1317 C 121.371 2.59141 -2.30319 0
M  V30 1318 C 120.432 2.43892 -3.53292 0
M  V30 1319 C 119.665 3.70074 -3.84553 0
M  V30 1320 O 119.888 4.74101 -3.1715 0
M  V30 1321 O 118.822 3.658 -4.7799 0
M  V30 1322 H 122.648 0.947304 -2.88548 0
M  V30 1323 H 120.233 0.403123 -1.43859 0
M  V30 1324 H 122.115 3.37352 -2.5253 0
M  V30 1325 H 120.79 2.90684 -1.42423 0
M  V30 1326 H 119.697 1.63803 -3.36332 0
M  V30 1327 H 121.03 2.17282 -4.41644 0
M  V30 1328 N 122.682 1.50554 0.465978 0
M  V30 1329 C 123.629 1.6979 1.56333 0
M  V30 1330 C 124.599 0.539239 1.57103 0
M  V30 1331 O 125.784 0.770401 1.74555 0
M  V30 1332 C 122.924 1.80273 2.94271 0
M  V30 1333 C 122.037 3.07674 3.0325 0
M  V30 1334 C 121.172 3.08922 4.32135 0
M  V30 1335 C 120.211 4.30755 4.34875 0
M  V30 1336 N 119.348 4.29714 5.55239 0
M  V30 1337 H 124.188 2.63472 1.39235 0
M  V30 1338 H 121.725 1.30602 0.676873 0
M  V30 1339 H 123.683 1.84332 3.74269 0
M  V30 1340 H 122.313 0.900258 3.09992 0
M  V30 1341 H 121.365 3.13062 2.16094 0
M  V30 1342 H 122.677 3.97642 3.01135 0
M  V30 1343 H 121.831 3.11738 5.20485 0
M  V30 1344 H 120.57 2.16792 4.36866 0
M  V30 1345 H 119.575 4.28146 3.44922 0
M  V30 1346 H 120.8 5.24117 4.31831 0
M  V30 1347 H 118.746 3.4044 5.60746 0
M  V30 1348 H 118.663 5.13456 5.54886 0
M  V30 1349 H 119.931 4.36683 6.457 0
M  V30 1350 N 124.16 -0.719506 1.40217 0
M  V30 1351 C 125.409 -1.47486 1.37589 0
M  V30 1352 C 125.722 -1.9559 -0.0201568 0
M  V30 1353 O 126.928 -2.70973 -0.169049 0
M  V30 1354 C 125.384 -2.66575 2.41796 0
M  V30 1355 C 124.992 -2.25358 3.87192 0
M  V30 1356 C 126.736 -3.4433 2.48269 0
M  V30 1357 C 124.643 -3.41262 4.83005 0
M  V30 1358 H 123.573 -0.553901 0.511576 0
M  V30 1359 H 126.224 -0.783427 1.65936 0
M  V30 1360 H 124.606 -3.3787 2.06543 0
M  V30 1361 H 125.78 -1.61509 4.31569 0
M  V30 1362 H 124.095 -1.60657 3.84159 0
M  V30 1363 H 126.692 -4.30569 3.17041 0
M  V30 1364 H 127.035 -3.87872 1.51198 0
M  V30 1365 H 127.568 -2.80076 2.82493 0
M  V30 1366 H 124.307 -3.02755 5.81394 0
M  V30 1367 H 123.827 -4.0404 4.43297 0
M  V30 1368 H 125.506 -4.07383 5.02641 0
M  V30 1369 N 125.638 -1.25649 -0.95132 0
M  V30 1370 C 126.568 -1.08808 -2.06599 0
M  V30 1371 C 127.549 0.00382547 -1.701 0
M  V30 1372 O 128.734 -0.166325 -1.93486 0
M  V30 1373 C 125.864 -0.709542 -3.39975 0
M  V30 1374 C 124.818 -1.75206 -3.90496 0
M  V30 1375 C 124.144 -1.22811 -5.20405 0
M  V30 1376 C 125.444 -3.15153 -4.16504 0
M  V30 1377 H 127.138 -2.02048 -2.20946 0
M  V30 1378 H 124.684 -0.972835 -1.06169 0
M  V30 1379 H 126.637 -0.578649 -4.17408 0
M  V30 1380 H 125.361 0.258556 -3.25575 0
M  V30 1381 H 124.02 -1.87145 -3.15234 0
M  V30 1382 H 123.668 -0.250145 -5.02378 0
M  V30 1383 H 123.368 -1.92492 -5.55176 0
M  V30 1384 H 124.892 -1.10968 -6.00432 0
M  V30 1385 H 126.306 -3.06349 -4.84586 0
M  V30 1386 H 124.703 -3.82333 -4.62538 0
M  V30 1387 H 125.773 -3.61966 -3.22658 0
M  V30 1388 N 127.117 1.15442 -1.07289 0
M  V30 1389 C 128.357 1.8788 -0.805012 0
M  V30 1390 C 128.721 1.80413 0.656907 0
M  V30 1391 O 129.922 2.47874 1.0398 0
M  V30 1392 C 128.193 3.3298 -1.29843 0
M  V30 1393 S 129.752 4.23158 -1.16114 0
M  V30 1394 H 126.57 0.64839 -0.291739 0
M  V30 1395 H 129.172 1.39285 -1.37186 0
M  V30 1396 H 127.876 3.35958 -2.35712 0
M  V30 1397 H 127.407 3.86629 -0.726767 0
M  V30 1398 H 129.422 4.96103 -0.0982778 0
M  V30 1399 N 128.595 0.856903 1.32268 0
M  V30 1400 C 129.545 0.274899 2.26337 0
M  V30 1401 C 130.529 -0.580543 1.50062 0
M  V30 1402 O 131.721 -0.429559 1.71708 0
M  V30 1403 C 128.85 -0.533841 3.39124 0
M  V30 1404 C 127.936 0.334114 4.22782 0
M  V30 1405 N 128.327 1.42143 4.85416 0
M  V30 1406 C 126.625 0.124256 4.45827 0
M  V30 1407 C 127.326 1.95559 5.47843 0
M  V30 1408 N 126.302 1.25444 5.28928 0
M  V30 1409 H 130.104 1.10612 2.72291 0
M  V30 1410 H 127.618 0.703258 1.46383 0
M  V30 1411 H 129.615 -0.96722 4.05525 0
M  V30 1412 H 128.275 -1.36283 2.94715 0
M  V30 1413 H 129.286 1.80436 4.85451 0
M  V30 1414 H 125.963 -0.669837 4.12092 0
M  V30 1415 H 127.353 2.86714 6.07655 0
M  V30 1416 N 130.073 -1.45103 0.615059 0
M  V30 1417 C 131.02 -2.30586 -0.0993978 0
M  V30 1418 C 131.99 -1.42544 -0.852669 0
M  V30 1419 O 133.175 -1.71465 -0.836917 0
M  V30 1420 C 130.315 -3.27572 -1.08583 0
M  V30 1421 C 129.428 -4.30717 -0.332656 0
M  V30 1422 C 128.563 -5.14807 -1.30947 0
M  V30 1423 C 127.602 -6.09673 -0.544538 0
M  V30 1424 N 126.739 -6.86517 -1.47101 0
M  V30 1425 H 131.579 -2.91144 0.635542 0
M  V30 1426 H 129.116 -1.4346 0.325206 0
M  V30 1427 H 131.074 -3.82276 -1.67095 0
M  V30 1428 H 129.704 -2.68751 -1.78809 0
M  V30 1429 H 128.756 -3.78615 0.368107 0
M  V30 1430 H 130.068 -4.98102 0.263842 0
M  V30 1431 H 129.222 -5.73948 -1.96643 0
M  V30 1432 H 127.961 -4.47458 -1.9399 0
M  V30 1433 H 126.966 -5.49656 0.126003 0
M  V30 1434 H 128.191 -6.79052 0.080947 0
M  V30 1435 H 126.137 -6.21851 -2.08895 0
M  V30 1436 H 126.054 -7.50281 -0.928137 0
M  V30 1437 H 127.322 -7.50194 -2.11731 0
M  V30 1438 N 131.551 -0.354651 -1.53558 0
M  V30 1439 C 132.798 0.238443 -2.01091 0
M  V30 1440 C 133.126 1.49663 -1.24222 0
M  V30 1441 O 132.381 1.93049 -0.321003 0
M  V30 1442 C 132.68 0.587121 -3.52545 0
M  V30 1443 C 132.346 -0.575472 -4.47213 0
M  V30 1444 C 131.008 -0.894497 -4.72813 0
M  V30 1445 C 133.36 -1.35489 -5.03281 0
M  V30 1446 C 130.688 -1.99511 -5.51736 0
M  V30 1447 C 133.04 -2.44583 -5.83405 0
M  V30 1448 C 131.704 -2.77033 -6.07296 0
M  V30 1449 H 130.974 0.0872526 -0.735845 0
M  V30 1450 H 133.621 -0.484859 -1.8526 0
M  V30 1451 H 131.926 1.39129 -3.66265 0
M  V30 1452 H 133.623 1.05809 -3.86789 0
M  V30 1453 H 130.213 -0.316774 -4.27428 0
M  V30 1454 H 134.397 -1.12167 -4.83459 0
M  V30 1455 H 129.653 -2.25063 -5.68469 0
M  V30 1456 H 133.827 -3.05401 -6.25862 0
M  V30 1457 H 131.454 -3.6244 -6.68237 0
M  V30 1458 N 133.029 1.57378 -0.0835403 0
M  V30 1459 C 133.962 2.09016 0.915833 0
M  V30 1460 C 134.94 0.997993 1.2837 0
M  V30 1461 O 136.124 1.27219 1.39096 0
M  V30 1462 C 133.251 2.55757 2.22049 0
M  V30 1463 C 132.297 3.76522 2.00333 0
M  V30 1464 S 133.13 5.20661 1.25191 0
M  V30 1465 C 134.286 5.70743 2.56912 0
M  V30 1466 H 134.519 2.93457 0.476492 0
M  V30 1467 H 132.052 1.53856 0.129493 0
M  V30 1468 H 134.01 2.83346 2.97027 0
M  V30 1469 H 132.671 1.71564 2.63106 0
M  V30 1470 H 131.864 4.07256 2.96916 0
M  V30 1471 H 131.466 3.49367 1.33488 0
M  V30 1472 H 133.758 5.78304 3.52946 0
M  V30 1473 H 134.701 6.6944 2.30772 0
M  V30 1474 H 135.109 4.98616 2.64655 0
M  V30 1475 N 134.507 -0.190092 1.56449 0
M  V30 1476 C 135.923 -0.54113 1.50146 0
M  V30 1477 C 136.123 -1.85603 0.784465 0
M  V30 1478 O 135.179 -2.5024 0.337051 0
M  V30 1479 C 136.492 -0.591241 2.9483 0
M  V30 1480 C 138.04 -0.679732 3.0553 0
M  V30 1481 C 138.515 -0.760908 4.51635 0
M  V30 1482 N 140.006 -0.824302 4.55806 0
M  V30 1483 C 140.741 -0.907365 5.66175 0
M  V30 1484 N 140.237 -0.952422 6.86222 0
M  V30 1485 N 142.03 -0.94494 5.541 0
M  V30 1486 H 134.181 0.67235 2.01478 0
M  V30 1487 H 136.444 0.240127 0.917084 0
M  V30 1488 H 136.15 0.305905 3.50367 0
M  V30 1489 H 136.024 -1.44422 3.48457 0
M  V30 1490 H 138.411 -1.56731 2.50039 0
M  V30 1491 H 138.492 0.199549 2.5502 0
M  V30 1492 H 138.136 0.122336 5.07753 0
M  V30 1493 H 138.066 -1.65606 4.99882 0
M  V30 1494 H 140.557 -0.798526 3.69367 0
M  V30 1495 H 140.87 -1.01645 7.66086 0
M  V30 1496 H 139.215 -0.921014 6.8887 0
M  V30 1497 H 142.406 -0.906612 4.59236 0
M  V30 1498 H 142.579 -1.00622 6.4014 0
M  V30 1499 N 135.985 -1.50799 -0.457987 0
M  V30 1500 C 137.232 -1.62442 -1.20908 0
M  V30 1501 C 137.56 -0.330865 -1.91665 0
M  V30 1502 O 136.815 0.68401 -1.83357 0
M  V30 1503 C 137.114 -2.76358 -2.2663 0
M  V30 1504 C 136.78 -4.16378 -1.73033 0
M  V30 1505 C 135.442 -4.54473 -1.58138 0
M  V30 1506 C 137.794 -5.03836 -1.33413 0
M  V30 1507 C 135.122 -5.77754 -1.02065 0
M  V30 1508 C 137.474 -6.27676 -0.78778 0
M  V30 1509 C 136.138 -6.64562 -0.625561 0
M  V30 1510 H 135.408 -0.594417 -0.442435 0
M  V30 1511 H 138.055 -1.84772 -0.503136 0
M  V30 1512 H 136.36 -2.48167 -3.03184 0
M  V30 1513 H 138.057 -2.82568 -2.84528 0
M  V30 1514 H 134.647 -3.86331 -1.85598 0
M  V30 1515 H 138.831 -4.75026 -1.4375 0
M  V30 1516 H 134.087 -6.04997 -0.882547 0
M  V30 1517 H 138.261 -6.94797 -0.472177 0
M  V30 1518 H 135.888 -7.59965 -0.188926 0
M  V30 1519 N 137.463 0.71206 -1.40597 0
M  V30 1520 C 138.396 1.83582 -1.35546 0
M  V30 1521 C 139.374 1.61032 -0.225284 0
M  V30 1522 O 140.558 1.83998 -0.409519 0
M  V30 1523 C 137.685 3.19983 -1.11034 0
M  V30 1524 C 136.731 3.61355 -2.2655 0
M  V30 1525 S 137.564 3.68062 -3.88961 0
M  V30 1526 C 138.72 5.07216 -3.66719 0
M  V30 1527 H 138.953 1.87586 -2.30648 0
M  V30 1528 H 136.486 0.879182 -1.26924 0
M  V30 1529 H 138.444 3.98734 -0.975761 0
M  V30 1530 H 137.105 3.13608 -0.175798 0
M  V30 1531 H 136.298 4.60403 -2.0505 0
M  V30 1532 H 135.9 2.8987 -2.36329 0
M  V30 1533 H 138.192 5.94238 -3.25404 0
M  V30 1534 H 139.135 5.33753 -4.6531 0
M  V30 1535 H 139.543 4.77976 -3.00332 0
M  V30 1536 N 138.941 1.26152 0.944643 0
M  V30 1537 C 139.874 1.01729 2.04271 0
M  V30 1538 C 140.852 -0.0568101 1.62501 0
M  V30 1539 O 142.036 0.0848987 1.88309 0
M  V30 1540 C 139.163 0.539792 3.34371 0
M  V30 1541 C 138.209 1.60593 3.9511 0
M  V30 1542 S 139.042 3.19392 4.29825 0
M  V30 1543 C 140.198 2.73402 5.63029 0
M  V30 1544 H 140.431 1.94703 2.24673 0
M  V30 1545 H 137.964 1.09793 1.08558 0
M  V30 1546 H 139.922 0.270956 4.09605 0
M  V30 1547 H 138.583 -0.369609 3.11918 0
M  V30 1548 H 137.776 1.22275 4.88943 0
M  V30 1549 H 137.378 1.82596 3.26397 0
M  V30 1550 H 139.67 2.1765 6.41588 0
M  V30 1551 H 140.613 3.65913 6.06229 0
M  V30 1552 H 141.021 2.13077 5.22741 0
M  V30 1553 N 140.419 -1.14872 1.07899 0
M  V30 1554 C 141.352 -2.18794 0.64841 0
M  V30 1555 C 142.33 -1.59065 -0.337189 0
M  V30 1556 O 143.514 -1.86936 -0.242284 0
M  V30 1557 C 140.641 -3.38667 -0.0470417 0
M  V30 1558 C 139.687 -4.16942 0.897884 0
M  V30 1559 S 140.52 -4.78615 2.40183 0
M  V30 1560 C 141.676 -6.0185 1.71834 0
M  V30 1561 H 141.909 -2.5498 1.52881 0
M  V30 1562 H 139.442 -1.25922 0.893484 0
M  V30 1563 H 141.4 -4.08113 -0.442027 0
M  V30 1564 H 140.061 -3.00814 -0.903861 0
M  V30 1565 H 139.254 -5.02726 0.358096 0
M  V30 1566 H 138.856 -3.53073 1.23352 0
M  V30 1567 H 141.148 -6.69574 1.03328 0
M  V30 1568 H 142.091 -6.60408 2.55473 0
M  V30 1569 H 142.499 -5.5173 1.19392 0
M  V30 1570 N 141.898 -0.863906 -1.31812 0
M  V30 1571 C 143.314 -0.555004 -1.49639 0
M  V30 1572 C 143.514 0.912266 -1.79666 0
M  V30 1573 O 142.57 1.69479 -1.87171 0
M  V30 1574 C 143.883 -1.44998 -2.63431 0
M  V30 1575 C 145.431 -1.45138 -2.77316 0
M  V30 1576 C 145.906 -2.33179 -3.94197 0
M  V30 1577 N 147.397 -2.31025 -4.01474 0
M  V30 1578 C 148.132 -2.95871 -4.9117 0
M  V30 1579 N 147.628 -3.69863 -5.8581 0
M  V30 1580 N 149.421 -2.85211 -4.84367 0
M  V30 1581 H 141.572 -1.81339 -1.10589 0
M  V30 1582 H 143.835 -0.77505 -0.545895 0
M  V30 1583 H 143.541 -2.49377 -2.48 0
M  V30 1584 H 143.415 -1.14409 -3.59431 0
M  V30 1585 H 145.802 -0.415201 -2.92164 0
M  V30 1586 H 145.883 -1.79747 -1.82001 0
M  V30 1587 H 145.527 -3.3687 -3.80107 0
M  V30 1588 H 145.457 -1.95897 -4.88807 0
M  V30 1589 H 147.948 -1.77238 -3.33759 0
M  V30 1590 H 148.261 -4.16486 -6.50968 0
M  V30 1591 H 146.606 -3.73971 -5.85808 0
M  V30 1592 H 149.797 -2.26948 -4.09405 0
M  V30 1593 H 149.97 -3.36027 -5.54066 0
M  V30 1594 N 143.376 1.44774 -0.622745 0
M  V30 1595 C 144.339 2.29069 0.0774015 0
M  V30 1596 C 145.339 1.4059 0.780461 0
M  V30 1597 O 146.529 1.62551 0.626322 0
M  V30 1598 C 143.661 3.21974 1.12006 0
M  V30 1599 H 144.854 2.92459 -0.663901 0
M  V30 1600 H 142.407 1.51548 -0.382486 0
M  V30 1601 H 143.142 2.63417 1.89162 0
M  V30 1602 H 142.927 3.87168 0.619951 0
M  V30 1603 H 144.417 3.85318 1.60995 0
M  V30 1604 N 144.854 0.36279 1.53368 0
M  V30 1605 C 145.764 -0.492994 2.29362 0
M  V30 1606 C 146.78 -1.09507 1.35219 0
M  V30 1607 O 147.956 -1.10662 1.68273 0
M  V30 1608 C 145.021 -1.61855 3.066 0
M  V30 1609 C 144.082 -1.04429 4.16405 0
M  V30 1610 C 143.315 -2.11621 4.89951 0
M  V30 1611 O 143.538 -3.32684 4.63333 0
M  V30 1612 O 142.472 -1.74835 5.75948 0
M  V30 1613 H 146.298 0.125331 3.03441 0
M  V30 1614 H 143.883 0.127253 1.48857 0
M  V30 1615 H 145.765 -2.27302 3.54841 0
M  V30 1616 H 144.44 -2.22233 2.3536 0
M  V30 1617 H 143.347 -0.353819 3.72423 0
M  V30 1618 H 144.68 -0.485113 4.89804 0
M  V30 1619 N 146.332 -1.57332 0.0918853 0
M  V30 1620 C 147.28 -2.15075 -0.885747 0
M  V30 1621 C 148.274 -1.09277 -1.29441 0
M  V30 1622 O 149.48 -1.27627 -1.26931 0
M  V30 1623 H 145.855 -0.687966 -0.303656 0
M  V30 1624 H 147.826 -2.96047 -0.373995 0
M  V30 1625 C 146.575 -2.74325 -2.13638 0
M  V30 1626 H 145.898 -3.55418 -1.8308 0
M  V30 1627 H 147.338 -3.183 -2.80109 0
M  V30 1628 C 145.797 -1.70062 -2.90827 0
M  V30 1629 O 146.327 -1.13763 -3.85254 0
M  V30 1630 N 144.533 -1.40628 -2.54307 0
M  V30 1631 H 144.08 -1.866 -1.7759 0
M  V30 1632 H 144.038 -0.711043 -3.06254 0
M  V30 1633 N 147.81 0.181792 -1.56548 0
M  V30 1634 C 149.057 0.900097 -1.81396 0
M  V30 1635 C 149.385 1.82695 -0.667281 0
M  V30 1636 O 148.64 1.92614 0.346146 0
M  V30 1637 C 148.939 1.73728 -3.12335 0
M  V30 1638 C 148.605 0.960255 -4.40556 0
M  V30 1639 C 147.267 0.745766 -4.75386 0
M  V30 1640 C 149.619 0.414477 -5.19549 0
M  V30 1641 C 146.947 -0.0257694 -5.86694 0
M  V30 1642 C 149.299 -0.343916 -6.31664 0
M  V30 1643 C 147.963 -0.569301 -6.65068 0
M  V30 1644 H 147.233 0.329369 -0.663775 0
M  V30 1645 H 149.88 0.165647 -1.90782 0
M  V30 1646 H 148.185 2.54081 -2.98245 0
M  V30 1647 H 149.882 2.29591 -3.28769 0
M  V30 1648 H 146.472 1.13746 -4.13231 0
M  V30 1649 H 150.656 0.567554 -4.93044 0
M  V30 1650 H 145.912 -0.210233 -6.11038 0
M  V30 1651 H 150.086 -0.774133 -6.92084 0
M  V30 1652 H 147.713 -1.16903 -7.51158 0
M  V30 1653 N 149.288 1.51039 0.449983 0
M  V30 1654 C 150.535 1.63081 1.20045 0
M  V30 1655 C 150.863 0.341024 1.91487 0
M  V30 1656 O 150.118 -0.674276 1.83717 0
M  V30 1657 C 150.417 2.77556 2.25161 0
M  V30 1658 C 150.083 4.17289 1.70823 0
M  V30 1659 C 148.745 4.55305 1.55725 0
M  V30 1660 C 151.097 5.04536 1.3074 0
M  V30 1661 C 148.425 5.78287 0.989999 0
M  V30 1662 C 150.777 6.28085 0.754482 0
M  V30 1663 C 149.441 6.64885 0.590308 0
M  V30 1664 H 148.711 0.596755 0.439277 0
M  V30 1665 H 151.358 1.85037 0.49333 0
M  V30 1666 H 149.663 2.49771 3.01863 0
M  V30 1667 H 151.36 2.84073 2.83026 0
M  V30 1668 H 147.95 3.8731 1.83546 0
M  V30 1669 H 152.134 4.75782 1.41229 0
M  V30 1670 H 147.39 6.05456 0.850451 0
M  V30 1671 H 151.564 6.95038 0.435324 0
M  V30 1672 H 149.191 7.60055 0.14862 0
M  V30 1673 N 150.766 -0.704594 1.40972 0
M  V30 1674 C 152.015 -1.46018 1.39146 0
M  V30 1675 C 152.328 -1.956 0.000589254 0
M  V30 1676 O 153.534 -2.71137 -0.1403 0
M  V30 1677 C 151.99 -2.63996 2.4461 0
M  V30 1678 C 151.598 -2.21238 3.89561 0
M  V30 1679 C 153.342 -3.41677 2.51907 0
M  V30 1680 C 151.249 -3.3612 4.86598 0
M  V30 1681 H 150.179 -0.548444 0.517422 0
M  V30 1682 H 152.83 -0.765784 1.66757 0
M  V30 1683 H 151.212 -3.3566 2.10115 0
M  V30 1684 H 152.386 -1.56923 4.33257 0
M  V30 1685 H 150.701 -1.56574 3.85841 0
M  V30 1686 H 153.298 -4.27182 3.2159 0
M  V30 1687 H 153.641 -3.86247 1.55303 0
M  V30 1688 H 154.174 -2.77064 2.85448 0
M  V30 1689 H 150.913 -2.96572 5.84573 0
M  V30 1690 H 150.433 -3.99315 4.47557 0
M  V30 1691 H 152.112 -4.02029 5.06934 0
M  V30 1692 N 152.244 -1.26651 -0.937939 0
M  V30 1693 C 153.174 -1.10993 -2.05433 0
M  V30 1694 C 154.155 -0.0142161 -1.70094 0
M  V30 1695 O 155.34 -0.186837 -1.93299 0
M  V30 1696 C 152.47 -0.745561 -3.39203 0
M  V30 1697 C 151.424 -1.79337 -3.88616 0
M  V30 1698 C 150.75 -1.28324 -5.19073 0
M  V30 1699 C 152.05 -3.19553 -4.13138 0
M  V30 1700 H 153.744 -2.0438 -2.1879 0
M  V30 1701 H 151.29 -0.984041 -1.05131 0
M  V30 1702 H 153.243 -0.622888 -4.16771 0
M  V30 1703 H 151.967 0.22401 -3.25831 0
M  V30 1704 H 150.626 -1.90477 -3.13231 0
M  V30 1705 H 150.274 -0.303414 -5.02084 0
M  V30 1706 H 149.974 -1.98369 -5.53103 0
M  V30 1707 H 151.498 -1.1733 -5.99221 0
M  V30 1708 H 152.912 -3.11471 -4.81309 0
M  V30 1709 H 151.309 -3.87218 -4.58457 0
M  V30 1710 H 152.379 -3.65368 -3.18801 0
M  V30 1711 N 153.722 1.14298 -1.08507 0
M  V30 1712 C 155.138 1.37347 -0.812901 0
M  V30 1713 C 155.338 1.93052 0.577325 0
M  V30 1714 O 154.394 2.14389 1.33393 0
M  V30 1715 C 155.707 2.33359 -1.89642 0
M  V30 1716 C 157.255 2.46996 -1.92255 0
M  V30 1717 C 157.73 3.46309 -2.99724 0
M  V30 1718 N 159.221 3.53853 -2.98902 0
M  V30 1719 C 159.956 4.3055 -3.787 0
M  V30 1720 N 159.452 5.10482 -4.6838 0
M  V30 1721 N 161.245 4.25757 -3.66998 0
M  V30 1722 H 153.396 0.764867 -1.9815 0
M  V30 1723 H 155.659 0.398966 -0.859959 0
M  V30 1724 H 155.365 1.99565 -2.89597 0
M  V30 1725 H 155.239 3.33274 -1.76659 0
M  V30 1726 H 157.626 2.80081 -0.929445 0
M  V30 1727 H 157.707 1.47039 -2.09316 0
M  V30 1728 H 157.351 3.13957 -3.99241 0
M  V30 1729 H 157.281 4.46049 -2.79907 0
M  V30 1730 H 159.772 2.96812 -2.33904 0
M  V30 1731 H 160.085 5.66284 -5.25873 0
M  V30 1732 H 158.43 5.09747 -4.72422 0
M  V30 1733 H 161.621 3.62383 -2.96304 0
M  V30 1734 H 161.794 4.85279 -4.29427 0
M  V30 1735 N 155.201 0.870884 1.31352 0
M  V30 1736 C 156.617 0.562932 1.49343 0
M  V30 1737 C 156.817 -0.902725 1.80148 0
M  V30 1738 O 155.873 -1.68484 1.88067 0
M  V30 1739 C 157.186 1.46393 2.62659 0
M  V30 1740 C 158.734 1.46607 2.76542 0
M  V30 1741 C 159.209 2.35266 3.92955 0
M  V30 1742 N 160.7 2.33151 4.00243 0
M  V30 1743 C 161.435 2.98471 4.89594 0
M  V30 1744 N 160.931 3.72964 5.8384 0
M  V30 1745 N 162.724 2.87775 4.82848 0
M  V30 1746 H 154.875 1.81923 1.09626 0
M  V30 1747 H 157.138 0.777934 0.541777 0
M  V30 1748 H 156.844 2.50689 2.46674 0
M  V30 1749 H 156.718 1.16314 3.58819 0
M  V30 1750 H 159.105 0.43069 2.9194 0
M  V30 1751 H 159.186 1.8071 1.81046 0
M  V30 1752 H 158.83 3.38881 3.78315 0
M  V30 1753 H 158.76 1.98487 4.87761 0
M  V30 1754 H 161.251 1.79006 3.32814 0
M  V30 1755 H 161.564 4.19932 6.4875 0
M  V30 1756 H 159.909 3.77073 5.83816 0
M  V30 1757 H 163.1 2.29116 4.08195 0
M  V30 1758 H 163.273 3.38961 5.52277 0
M  V30 1759 N 156.679 -1.44442 0.630414 0
M  V30 1760 C 157.626 -2.30678 -0.0749355 0
M  V30 1761 C 158.596 -1.4344 -0.837502 0
M  V30 1762 O 159.781 -1.72343 -0.818684 0
M  V30 1763 C 156.921 -3.28706 -1.05103 0
M  V30 1764 C 156.034 -4.31046 -0.286954 0
M  V30 1765 C 155.169 -5.16167 -1.2548 0
M  V30 1766 C 154.208 -6.10216 -0.479843 0
M  V30 1767 N 153.345 -6.88039 -1.39811 0
M  V30 1768 H 158.185 -2.90454 0.666386 0
M  V30 1769 H 155.722 -1.43107 0.340404 0
M  V30 1770 H 157.68 -3.84027 -1.63031 0
M  V30 1771 H 156.31 -2.70632 -1.75949 0
M  V30 1772 H 155.362 -3.78203 0.408243 0
M  V30 1773 H 156.674 -4.97794 0.316657 0
M  V30 1774 H 155.828 -5.76002 -1.90544 0
M  V30 1775 H 154.567 -4.49491 -1.89233 0
M  V30 1776 H 153.572 -5.49491 0.184295 0
M  V30 1777 H 154.797 -6.78928 0.152965 0
M  V30 1778 H 152.743 -6.24032 -2.02287 0
M  V30 1779 H 152.66 -7.51223 -0.848508 0
M  V30 1780 H 153.928 -7.52397 -2.03762 0
M  V30 1781 N 158.157 -0.370918 -1.53173 0
M  V30 1782 C 159.568 0.107139 -1.86392 0
M  V30 1783 C 159.919 1.47714 -1.29132 0
M  V30 1784 O 159.044 2.07464 -0.615439 0
M  V30 1785 C 159.639 0.201187 -3.38202 0
M  V30 1786 C 158.198 0.623507 -3.712 0
M  V30 1787 C 157.345 -0.225978 -2.76378 0
M  V30 1788 H 160.296 -0.58951 -1.47345 0
M  V30 1789 H 160.317 1.02377 -3.66468 0
M  V30 1790 H 159.829 -0.796058 -3.79848 0
M  V30 1791 H 157.93 1.62879 -3.35114 0
M  V30 1792 H 158.043 0.394414 -4.77474 0
M  V30 1793 H 156.407 0.305962 -2.52856 0
M  V30 1794 H 157.19 -1.22086 -3.20858 0
M  V30 1795 N 159.635 1.57281 -0.100228 0
M  V30 1796 C 160.881 1.94826 0.563101 0
M  V30 1797 C 161.214 0.982475 1.67514 0
M  V30 1798 O 160.489 0.0164069 1.94493 0
M  V30 1799 C 160.772 3.42453 1.11346 0
M  V30 1800 C 160.625 4.498 0.00612081 0
M  V30 1801 C 161.944 3.91506 2.01024 0
M  V30 1802 H 159.063 0.708428 0.203221 0
M  V30 1803 H 161.705 1.8922 -0.171979 0
M  V30 1804 H 159.855 3.47361 1.7399 0
M  V30 1805 H 161.527 4.57 -0.628357 0
M  V30 1806 H 159.77 4.28756 -0.659581 0
M  V30 1807 H 160.441 5.50306 0.432109 0
M  V30 1808 H 162.917 3.88784 1.48278 0
M  V30 1809 H 161.793 4.95358 2.36457 0
M  V30 1810 H 162.054 3.31099 2.92961 0
M  V30 1811 N 161.113 -0.173488 1.56642 0
M  V30 1812 C 162.023 -1.23482 1.99473 0
M  V30 1813 C 163.039 -1.48567 0.905752 0
M  V30 1814 O 164.215 -1.60758 1.21321 0
M  V30 1815 C 161.28 -2.55444 2.34413 0
M  V30 1816 C 160.341 -2.38241 3.57127 0
M  V30 1817 C 159.574 -3.63909 3.90392 0
M  V30 1818 O 159.797 -4.68996 3.24653 0
M  V30 1819 O 158.731 -3.58149 4.83749 0
M  V30 1820 H 162.557 -0.901279 2.90018 0
M  V30 1821 H 160.142 -0.380185 1.44482 0
M  V30 1822 H 162.024 -3.33292 2.57865 0
M  V30 1823 H 160.699 -2.88382 1.4703 0
M  V30 1824 H 159.606 -1.58431 3.38896 0
M  V30 1825 H 160.939 -2.10228 4.45045 0
M  V30 1826 N 162.591 -1.51276 -0.441967 0
M  V30 1827 C 163.839 -1.63392 -1.18943 0
M  V30 1828 C 164.16 -0.350159 -1.9183 0
M  V30 1829 O 163.43 0.633784 -1.85364 0
M  V30 1830 H 162.01 -0.602164 -0.442049 0
M  V30 1831 H 164.672 -1.88186 -0.507165 0
M  V30 1832 H 163.768 -2.45934 -1.92154 0
M  V30 1833 N 164.069 0.697108 -1.41344 0
M  V30 1834 C 165.299 1.48377 -1.43763 0
M  V30 1835 C 165.707 1.89156 -0.0408726 0
M  V30 1836 O 165.05 1.57239 0.949812 0
M  V30 1837 C 165.112 2.7781 -2.2817 0
M  V30 1838 C 164.776 2.59244 -3.76353 0
M  V30 1839 C 165.773 2.25292 -4.68551 0
M  V30 1840 C 163.458 2.74933 -4.20378 0
M  V30 1841 C 165.452 2.07264 -6.02761 0
M  V30 1842 C 163.139 2.56521 -5.54653 0
M  V30 1843 C 164.137 2.22737 -6.4566 0
M  V30 1844 O 163.825 2.04485 -7.77458 0
M  V30 1845 H 163.557 0.463842 -0.491759 0
M  V30 1846 H 166.111 0.865934 -1.86255 0
M  V30 1847 H 164.341 3.41995 -1.8049 0
M  V30 1848 H 166.03 3.39608 -2.22309 0
M  V30 1849 H 166.796 2.12787 -4.35829 0
M  V30 1850 H 162.675 3.00213 -3.49848 0
M  V30 1851 H 166.219 1.80817 -6.73759 0
M  V30 1852 H 162.116 2.68616 -5.86955 0
M  V30 1853 H 162.884 2.1926 -7.88586 0
M  V30 1854 N 165.547 1.27147 0.931209 0
M  V30 1855 C 166.824 1.0401 1.65654 0
M  V30 1856 C 167.204 -0.426297 2.06751 0
M  V30 1857 O 166.552 -1.40879 1.79904 0
M  V30 1858 C 166.762 1.99834 2.86125 0
M  V30 1859 C 168.11 2.29007 3.57549 0
M  V30 1860 O 169.134 1.97779 2.96246 0
M  V30 1861 O 167.993 2.82222 4.67989 0
M  V30 1862 H 165.087 0.396239 0.725895 0
M  V30 1863 H 167.633 1.38397 0.982056 0
M  V30 1864 H 166.405 2.98744 2.52721 0
M  V30 1865 H 166.028 1.65987 3.61295 0
M  V30 1866 N 167.025 -1.13721 1.09112 0
M  V30 1867 C 168.274 -1.84275 0.82009 0
M  V30 1868 C 168.587 -1.84253 -0.656509 0
M  V30 1869 O 169.793 -2.50668 -1.04296 0
M  V30 1870 C 168.249 -3.30825 1.41714 0
M  V30 1871 C 167.857 -3.39244 2.92605 0
M  V30 1872 C 169.601 -4.06443 1.22492 0
M  V30 1873 C 167.508 -4.80047 3.45411 0
M  V30 1874 H 166.438 -0.690387 0.30312 0
M  V30 1875 H 169.089 -1.28146 1.31343 0
M  V30 1876 H 167.471 -3.86737 0.851498 0
M  V30 1877 H 168.645 -2.93344 3.55367 0
M  V30 1878 H 166.96 -2.77088 3.10823 0
M  V30 1879 H 169.557 -5.10387 1.59402 0
M  V30 1880 H 169.9 -4.15972 0.165299 0
M  V30 1881 H 170.433 -3.56852 1.75788 0
M  V30 1882 H 167.172 -4.75709 4.50978 0
M  V30 1883 H 166.692 -5.26455 2.87411 0
M  V30 1884 H 168.371 -5.48957 3.42425 0
M  V30 1885 N 168.503 -0.877838 -1.30888 0
M  V30 1886 C 169.728 -0.506629 -2.01117 0
M  V30 1887 C 170.153 0.895564 -1.65412 0
M  V30 1888 O 169.511 1.5923 -0.866922 0
M  V30 1889 C 169.559 -0.680223 -3.54126 0
M  V30 1890 O 168.663 0.277033 -4.11468 0
M  V30 1891 H 168.004 -0.200518 -0.633 0
M  V30 1892 H 170.534 -1.18342 -1.66902 0
M  V30 1893 H 170.544 -0.5765 -4.03907 0
M  V30 1894 H 169.219 -1.70261 -3.79452 0
M  V30 1895 H 167.796 0.127606 -3.72682 0
M  V30 1896 N 169.982 1.44106 -0.638065 0
M  V30 1897 C 171.229 2.01978 -0.14533 0
M  V30 1898 C 171.557 1.50234 1.23532 0
M  V30 1899 O 170.812 0.679548 1.83523 0
M  V30 1900 C 171.111 3.5729 -0.0887327 0
M  V30 1901 C 170.777 4.28317 -1.40909 0
M  V30 1902 C 169.439 4.47437 -1.77069 0
M  V30 1903 C 171.791 4.6867 -2.28031 0
M  V30 1904 C 169.119 5.04171 -3.00047 0
M  V30 1905 C 171.471 5.26766 -3.50286 0
M  V30 1906 C 170.135 5.44104 -3.86661 0
M  V30 1907 H 169.405 0.739089 -0.0531801 0
M  V30 1908 H 172.052 1.72781 -0.825761 0
M  V30 1909 H 170.357 3.8594 0.675095 0
M  V30 1910 H 172.054 3.99807 0.309145 0
M  V30 1911 H 168.644 4.1377 -1.1177 0
M  V30 1912 H 172.828 4.53604 -2.01388 0
M  V30 1913 H 168.084 5.15782 -3.28298 0
M  V30 1914 H 172.258 5.56983 -4.18023 0
M  V30 1915 H 169.885 5.87832 -4.82034 0
M  V30 1916 N 171.46 0.379036 1.52974 0
M  V30 1917 C 172.39 -0.452706 2.29069 0
M  V30 1918 C 173.371 -1.07237 1.32039 0
M  V30 1919 O 174.556 -1.08708 1.60923 0
M  V30 1920 C 171.686 -1.5856 3.08992 0
M  V30 1921 C 170.64 -1.0925 4.13822 0
M  V30 1922 C 169.966 -2.31668 4.81907 0
M  V30 1923 C 171.266 -0.167702 5.22031 0
M  V30 1924 H 172.96 0.182181 2.98845 0
M  V30 1925 H 170.506 0.0890592 1.43724 0
M  V30 1926 H 172.459 -2.1742 3.6098 0
M  V30 1927 H 171.183 -2.24792 2.36931 0
M  V30 1928 H 169.842 -0.526494 3.628 0
M  V30 1929 H 169.49 -2.96386 4.06404 0
M  V30 1930 H 169.19 -1.9934 5.52754 0
M  V30 1931 H 170.714 -2.91189 5.36695 0
M  V30 1932 H 172.128 -0.664186 5.6944 0
M  V30 1933 H 170.525 0.0653265 6.00064 0
M  V30 1934 H 171.595 0.786347 4.78482 0
M  V30 1935 N 172.938 -1.57226 0.108567 0
M  V30 1936 C 174.187 -1.94008 -0.551703 0
M  V30 1937 C 174.5 -0.993442 -1.68494 0
M  V30 1938 O 175.706 -1.25551 -2.40726 0
M  V30 1939 C 174.162 -3.44763 -1.03279 0
M  V30 1940 C 173.77 -4.47943 0.0714193 0
M  V30 1941 C 175.514 -3.90483 -1.66503 0
M  V30 1942 C 173.421 -5.89865 -0.425779 0
M  V30 1943 H 172.351 -0.724206 -0.209863 0
M  V30 1944 H 175.002 -1.82547 0.186741 0
M  V30 1945 H 173.384 -3.51422 -1.82533 0
M  V30 1946 H 174.558 -4.52942 0.847365 0
M  V30 1947 H 172.873 -4.11913 0.609669 0
M  V30 1948 H 175.47 -4.93925 -2.04798 0
M  V30 1949 H 175.813 -3.29877 -2.53942 0
M  V30 1950 H 176.346 -3.86581 -0.938074 0
M  V30 1951 H 173.085 -6.54202 0.412316 0
M  V30 1952 H 172.605 -5.88309 -1.16843 0
M  V30 1953 H 174.284 -6.40844 -0.890397 0
M  V30 1954 N 174.416 0.165178 -1.56732 0
M  V30 1955 C 175.644 0.896218 -1.86482 0
M  V30 1956 C 176.059 1.75555 -0.694675 0
M  V30 1957 O 175.416 1.79379 0.33607 0
M  V30 1958 C 175.467 1.76792 -3.1532 0
M  V30 1959 O 175.188 0.943239 -4.27825 0
M  V30 1960 C 176.689 2.6081 -3.58459 0
M  V30 1961 H 173.909 0.260064 -0.618553 0
M  V30 1962 H 176.453 0.163428 -2.03846 0
M  V30 1963 H 174.608 2.45398 -2.99764 0
M  V30 1964 H 175.022 1.53998 -5.01383 0
M  V30 1965 H 176.496 3.17579 -4.51495 0
M  V30 1966 H 176.973 3.35977 -2.82872 0
M  V30 1967 H 177.579 1.97526 -3.76648 0
M  V30 1968 N 175.894 1.51508 0.433938 0
M  V30 1969 C 176.842 1.73646 1.54757 0
M  V30 1970 C 177.836 0.602854 1.5831 0
M  V30 1971 O 179.042 0.784318 1.62014 0
M  V30 1972 H 175.417 0.548718 0.51421 0
M  V30 1973 H 177.388 2.66991 1.33261 0
M  V30 1974 C 176.137 1.88172 2.92381 0
M  V30 1975 H 175.46 2.74808 2.90381 0
M  V30 1976 H 176.9 2.07672 3.6966 0
M  V30 1977 C 175.359 0.64239 3.30719 0
M  V30 1978 O 175.889 -0.201362 4.01195 0
M  V30 1979 N 174.095 0.485489 2.86516 0
M  V30 1980 H 173.642 1.17318 2.29334 0
M  V30 1981 H 173.6 -0.342482 3.12529 0
M  V30 1982 N 177.372 -0.689602 1.41712 0
M  V30 1983 C 178.619 -1.44966 1.4139 0
M  V30 1984 C 178.947 -1.94484 0.025105 0
M  V30 1985 O 178.202 -1.70307 -0.964048 0
M  V30 1986 C 178.501 -2.67298 2.37247 0
M  V30 1987 C 178.167 -2.36405 3.83958 0
M  V30 1988 C 176.829 -2.27691 4.23923 0
M  V30 1989 C 179.181 -2.11043 4.76561 0
M  V30 1990 C 176.509 -1.91719 5.54492 0
M  V30 1991 C 178.861 -1.76578 6.07456 0
M  V30 1992 C 177.525 -1.66363 6.46436 0
M  V30 1993 H 176.795 -0.53047 0.517381 0
M  V30 1994 H 179.442 -0.787655 1.74552 0
M  V30 1995 H 177.747 -3.38461 1.9736 0
M  V30 1996 H 179.444 -3.25452 2.34269 0
M  V30 1997 H 176.034 -2.44085 3.52308 0
M  V30 1998 H 180.218 -2.16717 4.46483 0
M  V30 1999 H 175.474 -1.82367 5.83568 0
M  V30 2000 H 179.648 -1.55974 6.78708 0
M  V30 2001 H 177.275 -1.38258 7.47522 0
M  V30 2002 N 178.85 -1.27639 -0.924453 0
M  V30 2003 C 179.8 -1.07295 -2.01176 0
M  V30 2004 C 180.784 5.77352e-05 -1.609 0
M  V30 2005 O 181.976 -0.218855 -1.75642 0
M  V30 2006 C 179.105 -0.725592 -3.35544 0
M  V30 2007 C 178.191 -1.83691 -3.82254 0
M  V30 2008 N 178.582 -3.07697 -4.01443 0
M  V30 2009 C 176.88 -1.72433 -4.11319 0
M  V30 2010 C 177.581 -3.80037 -4.40394 0
M  V30 2011 N 176.557 -3.0782 -4.48049 0
M  V30 2012 H 180.359 -2.01399 -2.14046 0
M  V30 2013 H 177.873 -1.18401 -1.11153 0
M  V30 2014 H 179.87 -0.560959 -4.13109 0
M  V30 2015 H 178.53 0.207782 -3.24034 0
M  V30 2016 H 179.541 -3.43424 -3.8766 0
M  V30 2017 H 176.218 -0.862005 -4.08504 0
M  V30 2018 H 177.608 -4.86632 -4.63291 0
M  V30 2019 N 180.328 1.1314 -1.09713 0
M  V30 2020 C 181.556 1.88321 -0.856898 0
M  V30 2021 C 181.971 1.79276 0.592073 0
M  V30 2022 O 181.328 1.16142 1.40774 0
M  V30 2023 C 181.379 3.37812 -1.28706 0
M  V30 2024 O 181.1 3.46627 -2.67921 0
M  V30 2025 C 182.601 4.29952 -1.07964 0
M  V30 2026 H 179.821 0.596094 -0.308079 0
M  V30 2027 H 182.365 1.43205 -1.45988 0
M  V30 2028 H 180.52 3.805 -0.727912 0
M  V30 2029 H 180.934 4.39579 -2.8613 0
M  V30 2030 H 182.408 5.33159 -1.42986 0
M  V30 2031 H 182.885 4.39196 -0.0176577 0
M  V30 2032 H 183.491 3.93036 -1.62489 0
M  V30 2033 N 181.806 0.884767 1.30421 0
M  V30 2034 C 182.716 0.355398 2.31892 0
M  V30 2035 C 183.732 -0.542261 1.65335 0
M  V30 2036 O 184.908 -0.435432 1.96637 0
M  V30 2037 C 181.973 -0.421661 3.44126 0
M  V30 2038 C 181.034 0.505727 4.26311 0
M  V30 2039 C 180.267 -0.234343 5.33185 0
M  V30 2040 O 180.49 -1.46045 5.51386 0
M  V30 2041 O 179.424 0.415443 6.00465 0
M  V30 2042 H 183.25 1.19685 2.79122 0
M  V30 2043 H 180.835 0.648596 1.34587 0
M  V30 2044 H 182.717 -0.861641 4.12497 0
M  V30 2045 H 181.392 -1.23942 2.99032 0
M  V30 2046 H 180.299 0.994513 3.60639 0
M  V30 2047 H 181.632 1.28948 4.75009 0
M  V30 2048 N 183.284 -1.43765 0.645699 0
M  V30 2049 C 184.216 -2.29027 -0.0890605 0
M  V30 2050 C 185.229 -1.42093 -0.794563 0
M  V30 2051 O 186.418 -1.66104 -0.653575 0
M  V30 2052 C 183.518 -3.18831 -1.14891 0
M  V30 2053 C 182.691 -4.34261 -0.523043 0
M  V30 2054 C 181.75 -5.04994 -1.47878 0
M  V30 2055 O 180.776 -5.6052 -0.990277 0
M  V30 2056 N 181.978 -5.07795 -2.81291 0
M  V30 2057 H 184.743 -2.92727 0.64272 0
M  V30 2058 H 182.304 -1.54373 0.487924 0
M  V30 2059 H 184.296 -3.63015 -1.78892 0
M  V30 2060 H 182.866 -2.56782 -1.78275 0
M  V30 2061 H 182.086 -3.93088 0.295896 0
M  V30 2062 H 183.374 -5.08728 -0.0858147 0
M  V30 2063 H 182.772 -4.64042 -3.23546 0
M  V30 2064 H 181.329 -5.55721 -3.40614 0
M  V30 2065 N 184.763 -0.387143 -1.52771 0
M  V30 2066 C 185.696 0.493123 -2.22808 0
M  V30 2067 C 186.674 1.0658 -1.22798 0
M  V30 2068 O 187.858 1.11785 -1.51777 0
M  V30 2069 C 184.985 1.68238 -2.93962 0
M  V30 2070 C 184.031 1.23515 -4.08223 0
M  V30 2071 S 184.864 0.21848 -5.35054 0
M  V30 2072 C 186.02 1.41357 -6.09729 0
M  V30 2073 H 186.253 -0.101625 -2.97126 0
M  V30 2074 H 183.786 -0.171323 -1.53447 0
M  V30 2075 H 185.744 2.36443 -3.35567 0
M  V30 2076 H 184.405 2.24842 -2.19328 0
M  V30 2077 H 183.598 2.12304 -4.57103 0
M  V30 2078 H 183.2 0.632044 -3.68621 0
M  V30 2079 H 185.492 2.34101 -6.3577 0
M  V30 2080 H 186.435 0.965736 -7.01484 0
M  V30 2081 H 186.843 1.6294 -5.40473 0
M  V30 2082 N 186.241 1.57166 -0.116904 0
M  V30 2083 C 187.471 1.99184 0.548586 0
M  V30 2084 C 187.879 0.995436 1.60897 0
M  V30 2085 O 187.222 -0.0201293 1.83689 0
M  V30 2086 C 187.284 3.37611 1.23526 0
M  V30 2087 C 186.948 4.55857 0.323077 0
M  V30 2088 C 187.945 5.18056 -0.437476 0
M  V30 2089 C 185.63 5.01751 0.234761 0
M  V30 2090 C 187.624 6.24536 -1.2741 0
M  V30 2091 C 185.311 6.08093 -0.605496 0
M  V30 2092 C 186.309 6.69352 -1.35856 0
M  V30 2093 O 185.997 7.7364 -2.18487 0
M  V30 2094 H 185.729 0.659148 0.149999 0
M  V30 2095 H 188.283 2.0443 -0.199428 0
M  V30 2096 H 186.513 3.29113 2.0303 0
M  V30 2097 H 188.202 3.63932 1.79745 0
M  V30 2098 H 188.968 4.83516 -0.379105 0
M  V30 2099 H 184.847 4.53817 0.810601 0
M  V30 2100 H 188.391 6.72281 -1.86237 0
M  V30 2101 H 184.288 6.42063 -0.665268 0
M  V30 2102 H 185.056 7.90727 -2.11406 0
M  V30 2103 N 187.719 -0.156864 1.56817 0
M  V30 2104 C 188.666 -1.19394 1.97519 0
M  V30 2105 C 189.636 -1.4322 0.841265 0
M  V30 2106 O 190.821 -1.55719 1.10255 0
M  V30 2107 C 187.961 -2.52483 2.35258 0
M  V30 2108 C 187.074 -2.35914 3.61896 0
M  V30 2109 C 186.209 -3.61969 3.88782 0
M  V30 2110 C 185.248 -3.40395 5.08722 0
M  V30 2111 N 184.385 -4.58556 5.31668 0
M  V30 2112 H 189.225 -0.839845 2.85921 0
M  V30 2113 H 186.762 -0.403264 1.41464 0
M  V30 2114 H 188.72 -3.30071 2.55165 0
M  V30 2115 H 187.35 -2.85859 1.49949 0
M  V30 2116 H 186.402 -1.49429 3.49821 0
M  V30 2117 H 187.714 -2.15926 4.49641 0
M  V30 2118 H 186.868 -4.47989 4.09135 0
M  V30 2119 H 185.607 -3.84951 2.9944 0
M  V30 2120 H 184.612 -2.52763 4.88253 0
M  V30 2121 H 185.837 -3.18822 5.99608 0
M  V30 2122 H 183.783 -4.81729 4.45279 0
M  V30 2123 H 183.7 -4.41535 6.13664 0
M  V30 2124 H 184.968 -5.45817 5.5651 0
M  V30 2125 N 189.197 -1.51736 -0.425897 0
M  V30 2126 C 190.147 -1.70258 -1.51645 0
M  V30 2127 C 191.131 -0.556488 -1.5097 0
M  V30 2128 O 192.323 -0.812879 -1.5723 0
M  V30 2129 C 189.452 -1.84143 -2.89735 0
M  V30 2130 C 188.538 -3.04572 -2.95122 0
M  V30 2131 N 188.929 -4.2756 -2.70233 0
M  V30 2132 C 187.227 -3.04061 -3.26286 0
M  V30 2133 C 187.928 -5.08908 -2.81757 0
M  V30 2134 N 186.904 -4.43797 -3.13919 0
M  V30 2135 H 190.706 -2.63004 -1.31172 0
M  V30 2136 H 188.22 -1.4954 -0.633375 0
M  V30 2137 H 190.217 -1.95525 -3.68206 0
M  V30 2138 H 188.877 -0.925857 -3.1122 0
M  V30 2139 H 189.888 -4.56315 -2.44943 0
M  V30 2140 H 186.565 -2.22179 -3.53473 0
M  V30 2141 H 187.955 -6.16843 -2.66372 0
M  V30 2142 N 190.675 0.682077 -1.42076 0
M  V30 2143 C 191.622 1.79578 -1.44984 0
M  V30 2144 C 192.592 1.6332 -0.302614 0
M  V30 2145 O 193.777 1.83978 -0.505633 0
M  V30 2146 C 190.917 3.1756 -1.35091 0
M  V30 2147 C 190.03 3.45156 -2.59791 0
M  V30 2148 C 189.165 4.72826 -2.42093 0
M  V30 2149 C 188.204 4.93433 -3.62202 0
M  V30 2150 N 187.341 6.12338 -3.43491 0
M  V30 2151 H 192.181 1.76427 -2.40161 0
M  V30 2152 H 189.718 0.861376 -1.19242 0
M  V30 2153 H 191.676 3.97287 -1.27354 0
M  V30 2154 H 190.306 3.19854 -0.435133 0
M  V30 2155 H 189.358 2.59736 -2.77923 0
M  V30 2156 H 190.67 3.5628 -3.49094 0
M  V30 2157 H 189.824 5.60631 -2.319 0
M  V30 2158 H 188.563 4.63973 -1.50268 0
M  V30 2159 H 187.568 4.04073 -3.72834 0
M  V30 2160 H 188.793 5.04136 -4.54998 0
M  V30 2161 H 186.739 6.04672 -2.54377 0
M  V30 2162 H 186.656 6.2429 -4.26377 0
M  V30 2163 H 187.924 7.02841 -3.37097 0
M  V30 2164 N 192.153 1.28127 0.917671 0
M  V30 2165 C 193.083 1.14248 2.03641 0
M  V30 2166 C 194.064 0.0412748 1.7005 0
M  V30 2167 O 195.249 0.217566 1.92977 0
M  V30 2168 C 192.379 0.799431 3.37974 0
M  V30 2169 C 191.333 1.85497 3.85713 0
M  V30 2170 C 190.659 1.36565 5.16966 0
M  V30 2171 C 191.959 3.26085 4.08002 0
M  V30 2172 H 193.653 2.07835 2.15511 0
M  V30 2173 H 191.199 1.00064 1.03553 0
M  V30 2174 H 193.152 0.689114 4.15727 0
M  V30 2175 H 191.876 -0.172145 3.26146 0
M  V30 2176 H 190.535 1.95437 3.10161 0
M  V30 2177 H 190.183 0.383253 5.01538 0
M  V30 2178 H 189.883 2.07143 5.49878 0
M  V30 2179 H 191.407 1.26848 5.97279 0
M  V30 2180 H 192.821 3.19089 4.76293 0
M  V30 2181 H 191.218 3.94462 4.52238 0
M  V30 2182 H 192.288 3.70394 3.12948 0
M  V30 2183 N 193.631 -1.12557 1.10312 0
M  V30 2184 C 194.877 -1.84311 0.846011 0
M  V30 2185 C 195.21 -1.83805 -0.626859 0
M  V30 2186 O 194.485 -1.28268 -1.46211 0
M  V30 2187 C 194.768 -3.32048 1.39341 0
M  V30 2188 C 194.621 -3.41016 2.93305 0
M  V30 2189 C 195.94 -4.27764 1.03468 0
M  V30 2190 H 193.059 -0.669192 0.30879 0
M  V30 2191 H 195.701 -1.32057 1.36605 0
M  V30 2192 H 193.851 -3.76678 0.951087 0
M  V30 2193 H 195.523 -3.05031 3.46055 0
M  V30 2194 H 193.766 -2.81603 3.29973 0
M  V30 2195 H 194.437 -4.44948 3.26689 0
M  V30 2196 H 196.913 -3.91253 1.41633 0
M  V30 2197 H 195.789 -5.29549 1.44463 0
M  V30 2198 H 196.05 -4.42064 -0.0560404 0
M  V30 2199 N 195.109 -0.891671 -1.2995 0
M  V30 2200 C 196.386 -0.433307 -1.9074 0
M  V30 2201 C 196.766 1.08646 -1.80995 0
M  V30 2202 O 196.114 1.92476 -1.23147 0
M  V30 2203 C 196.324 -0.938895 -3.36134 0
M  V30 2204 C 197.672 -0.977829 -4.13187 0
M  V30 2205 O 198.696 -0.886015 -3.45005 0
M  V30 2206 O 197.555 -1.11453 -5.35015 0
M  V30 2207 H 194.649 -0.133699 -0.816121 0
M  V30 2208 H 197.195 -0.981011 -1.38471 0
M  V30 2209 H 195.967 -1.98281 -3.37343 0
M  V30 2210 H 195.59 -0.37074 -3.95868 0
M  V30 2211 N 196.587 1.43421 -0.653314 0
M  V30 2212 C 197.834 2.01812 -0.166745 0
M  V30 2213 C 198.162 1.51535 1.21931 0
M  V30 2214 O 197.417 0.698975 1.82792 0
M  V30 2215 C 197.716 3.57176 -0.126623 0
M  V30 2216 C 197.382 4.26798 -1.45444 0
M  V30 2217 C 196.044 4.45534 -1.81805 0
M  V30 2218 C 198.396 4.66225 -2.32989 0
M  V30 2219 C 195.724 5.00961 -3.05377 0
M  V30 2220 C 198.076 5.23021 -3.55853 0
M  V30 2221 C 196.74 5.39973 -3.9241 0
M  V30 2222 H 196.01 0.738484 -0.0610162 0
M  V30 2223 H 198.657 1.71896 -0.84404 0
M  V30 2224 H 196.962 3.86634 0.634123 0
M  V30 2225 H 198.659 4.00112 0.266723 0
M  V30 2226 H 195.249 4.12561 -1.16153 0
M  V30 2227 H 199.433 4.51443 -2.06187 0
M  V30 2228 H 194.689 5.12271 -3.3375 0
M  V30 2229 H 198.863 5.52518 -4.23907 0
M  V30 2230 H 196.49 5.82687 -4.88242 0
M  V30 2231 N 198.065 0.39524 1.52563 0
M  V30 2232 C 199.311 -0.185318 2.01952 0
M  V30 2233 C 199.644 -1.45964 1.28095 0
M  V30 2234 O 198.919 -1.90689 0.38315 0
M  V30 2235 C 199.202 -0.447193 3.57312 0
M  V30 2236 C 199.055 0.842828 4.41833 0
M  V30 2237 C 200.374 -1.23529 4.22408 0
M  V30 2238 H 197.493 -0.0658788 0.73405 0
M  V30 2239 H 200.135 0.525975 1.82575 0
M  V30 2240 H 198.285 -1.05312 3.73954 0
M  V30 2241 H 199.957 1.4795 4.36931 0
M  V30 2242 H 198.2 1.45686 4.08605 0
M  V30 2243 H 198.871 0.614165 5.48573 0
M  V30 2244 H 201.347 -0.722445 4.0978 0
M  V30 2245 H 200.223 -1.38727 5.3108 0
M  V30 2246 H 200.484 -2.25213 3.80436 0
M  V30 2247 N 199.544 -1.57102 0.125237 0
M  V30 2248 C 200.793 -1.94582 -0.531095 0
M  V30 2249 C 201.106 -1.01126 -1.6743 0
M  V30 2250 O 202.312 -1.28097 -2.39381 0
M  V30 2251 C 200.768 -3.45839 -0.996164 0
M  V30 2252 C 200.376 -4.47842 0.118926 0
M  V30 2253 C 202.12 -3.92227 -1.62352 0
M  V30 2254 C 200.027 -5.90284 -0.363192 0
M  V30 2255 H 198.957 -0.726391 -0.20217 0
M  V30 2256 H 201.608 -1.82339 0.206092 0
M  V30 2257 H 199.99 -3.53338 -1.78796 0
M  V30 2258 H 201.164 -4.52018 0.895358 0
M  V30 2259 H 199.479 -4.11243 0.653324 0
M  V30 2260 H 202.076 -4.96069 -1.99548 0
M  V30 2261 H 202.419 -3.32552 -2.50429 0
M  V30 2262 H 202.952 -3.87554 -0.897019 0
M  V30 2263 H 199.691 -6.53728 0.481679 0
M  V30 2264 H 199.211 -5.89515 -1.10597 0
M  V30 2265 H 200.89 -6.41752 -0.822377 0
M  V30 2266 N 201.022 0.148545 -1.56898 0
M  V30 2267 C 201.972 1.1886 -1.94567 0
M  V30 2268 C 202.956 1.3863 -0.816735 0
M  V30 2269 O 204.148 1.40218 -1.08018 0
M  V30 2270 C 201.277 2.52262 -2.32849 0
M  V30 2271 C 200.363 2.36092 -3.52309 0
M  V30 2272 N 200.754 1.89674 -4.6889 0
M  V30 2273 C 199.052 2.66848 -3.57363 0
M  V30 2274 C 199.753 1.86511 -5.50989 0
M  V30 2275 N 198.729 2.29766 -4.92655 0
M  V30 2276 H 202.531 0.821793 -2.82177 0
M  V30 2277 H 200.045 0.356615 -1.58436 0
M  V30 2278 H 202.042 3.27447 -2.58039 0
M  V30 2279 H 200.702 2.89727 -1.46589 0
M  V30 2280 H 201.713 1.59663 -4.92674 0
M  V30 2281 H 198.39 3.08198 -2.81639 0
M  V30 2282 H 199.78 1.52128 -6.54452 0
M  V30 2283 N 202.5 1.5196 0.417844 0
M  V30 2284 C 203.747 1.65591 1.16559 0
M  V30 2285 C 204.075 0.381565 1.90721 0
M  V30 2286 O 203.33 -0.635156 1.85106 0
M  V30 2287 C 203.629 2.82269 2.19223 0
M  V30 2288 C 203.295 4.20819 1.61933 0
M  V30 2289 C 201.957 4.58506 1.46033 0
M  V30 2290 C 204.309 5.07196 1.20008 0
M  V30 2291 C 201.637 5.80257 0.867113 0
M  V30 2292 C 203.989 6.29544 0.621086 0
M  V30 2293 C 202.653 6.65987 0.449144 0
M  V30 2294 H 201.923 0.605939 0.42652 0
M  V30 2295 H 204.57 1.86041 0.45397 0
M  V30 2296 H 202.875 2.56118 2.96498 0
M  V30 2297 H 204.572 2.90012 2.76936 0
M  V30 2298 H 201.162 3.91116 1.7529 0
M  V30 2299 H 205.346 4.7867 1.31105 0
M  V30 2300 H 200.602 6.07124 0.721833 0
M  V30 2301 H 204.776 6.95805 0.287798 0
M  V30 2302 H 202.403 7.60199 -0.012632 0
M  V30 2303 N 203.978 -0.674533 1.42435 0
M  V30 2304 C 204.911 -1.79924 1.40366 0
M  V30 2305 C 205.889 -1.60378 0.267899 0
M  V30 2306 O 207.073 -1.82847 0.458159 0
M  V30 2307 C 204.2 -3.16927 1.19478 0
M  V30 2308 C 203.246 -3.55221 2.36051 0
M  V30 2309 S 204.079 -3.5762 3.98583 0
M  V30 2310 C 205.235 -4.97315 3.80038 0
M  V30 2311 H 205.468 -1.81405 2.35541 0
M  V30 2312 H 203.001 -0.845221 1.29211 0
M  V30 2313 H 204.959 -3.96007 1.08114 0
M  V30 2314 H 203.62 -3.13031 0.258883 0
M  V30 2315 H 202.813 -4.54804 2.17185 0
M  V30 2316 H 202.415 -2.83502 2.43932 0
M  V30 2317 H 204.707 -5.85401 3.41045 0
M  V30 2318 H 205.65 -5.21228 4.79298 0
M  V30 2319 H 206.058 -4.69845 3.12899 0
M  V30 2320 N 205.456 -1.28612 -0.910864 0
M  V30 2321 C 206.366 -1.14643 -2.0468 0
M  V30 2322 C 207.382 -0.0723121 -1.7385 0
M  V30 2323 O 208.558 -0.282178 -1.99413 0
M  V30 2324 C 205.623 -0.812561 -3.37044 0
M  V30 2325 C 204.684 -1.96935 -3.81465 0
M  V30 2326 C 203.917 -1.65131 -5.07511 0
M  V30 2327 O 204.14 -0.567013 -5.67575 0
M  V30 2328 O 203.074 -2.49585 -5.47714 0
M  V30 2329 H 206.9 -2.1001 -2.19384 0
M  V30 2330 H 204.485 -1.07958 -1.03274 0
M  V30 2331 H 206.367 -0.640441 -4.16505 0
M  V30 2332 H 205.042 0.111426 -3.23508 0
M  V30 2333 H 203.949 -2.19664 -3.02818 0
M  V30 2334 H 205.282 -2.87414 -3.99567 0
M  V30 2335 N 206.934 1.1197 -1.10907 0
M  V30 2336 C 207.844 2.21433 -0.774896 0
M  V30 2337 C 208.86 1.72478 0.229657 0
M  V30 2338 O 210.036 2.01288 0.0672008 0
M  V30 2339 C 207.101 3.4602 -0.216986 0
M  V30 2340 C 206.162 4.09791 -1.27944 0
M  V30 2341 C 205.395 5.28431 -0.748055 0
M  V30 2342 O 205.618 5.68823 0.423833 0
M  V30 2343 O 204.552 5.82644 -1.51027 0
M  V30 2344 H 208.378 2.5242 -1.68873 0
M  V30 2345 H 205.963 1.20399 -0.884555 0
M  V30 2346 H 207.845 4.21304 0.090059 0
M  V30 2347 H 206.52 3.16698 0.669633 0
M  V30 2348 H 205.427 3.36265 -1.63941 0
M  V30 2349 H 206.76 4.4328 -2.13925 0
M  V30 2350 N 208.412 0.89855 1.29475 0
M  V30 2351 C 209.661 0.519863 1.94885 0
M  V30 2352 C 209.974 -0.9383 1.71625 0
M  V30 2353 O 211.18 -1.42445 2.31131 0
M  V30 2354 C 209.636 0.878836 3.49005 0
M  V30 2355 C 209.244 2.35569 3.81066 0
M  V30 2356 C 210.988 0.570004 4.20656 0
M  V30 2357 C 208.895 2.65558 5.28425 0
M  V30 2358 H 207.825 0.190692 0.729488 0
M  V30 2359 H 210.476 1.09539 1.47219 0
M  V30 2360 H 208.858 0.232253 3.95318 0
M  V30 2361 H 210.032 3.04773 3.45616 0
M  V30 2362 H 208.347 2.63343 3.22552 0
M  V30 2363 H 210.944 0.770925 5.29113 0
M  V30 2364 H 211.287 -0.491404 4.1339 0
M  V30 2365 H 211.82 1.17438 3.8007 0
M  V30 2366 H 208.559 3.70493 5.40754 0
M  V30 2367 H 208.079 2.00977 5.65127 0
M  V30 2368 H 209.758 2.51765 5.96006 0
M  V30 2369 N 209.89 -1.43072 0.660911 0
M  V30 2370 C 211.167 -1.95307 0.107017 0
M  V30 2371 C 211.547 -1.60192 -1.37484 0
M  V30 2372 O 210.895 -0.890949 -2.10415 0
M  V30 2373 C 211.105 -3.47124 0.361402 0
M  V30 2374 C 212.453 -4.23738 0.270455 0
M  V30 2375 O 213.477 -3.54981 0.294382 0
M  V30 2376 O 212.336 -5.46131 0.200737 0
M  V30 2377 H 209.43 -0.826984 -0.00517729 0
M  V30 2378 H 211.976 -1.52972 0.734681 0
M  V30 2379 H 210.748 -3.65837 1.38848 0
M  V30 2380 H 210.371 -3.96475 -0.298953 0
M  V30 2381 N 211.368 -0.403325 -1.52352 0
M  V30 2382 C 212.315 0.425011 -2.26853 0
M  V30 2383 C 213.285 1.04598 -1.29029 0
M  V30 2384 O 214.47 1.07135 -1.57882 0
M  V30 2385 C 211.61 1.53888 -3.08889 0
M  V30 2386 C 210.723 0.939396 -4.21663 0
M  V30 2387 C 209.858 2.02547 -4.91068 0
M  V30 2388 C 208.897 1.40263 -5.95813 0
M  V30 2389 N 208.034 2.4286 -6.58759 0
M  V30 2390 H 212.874 -0.21674 -2.97211 0
M  V30 2391 H 210.411 -0.118722 -1.4662 0
M  V30 2392 H 212.369 2.19558 -3.54753 0
M  V30 2393 H 210.999 2.15074 -2.40714 0
M  V30 2394 H 210.051 0.171898 -3.80011 0
M  V30 2395 H 211.363 0.44436 -4.96817 0
M  V30 2396 H 210.517 2.75958 -5.40308 0
M  V30 2397 H 209.256 2.55415 -4.15469 0
M  V30 2398 H 208.261 0.653833 -5.45898 0
M  V30 2399 H 209.486 0.881719 -6.73352 0
M  V30 2400 H 207.432 2.94871 -5.85992 0
M  V30 2401 H 207.349 1.98152 -7.2957 0
M  V30 2402 H 208.617 3.15858 -7.12639 0
M  V30 2403 N 212.846 1.57033 -0.133567 0
M  V30 2404 C 213.756 2.19632 0.824564 0
M  V30 2405 C 214.772 1.17666 1.28182 0
M  V30 2406 O 215.948 1.50193 1.3418 0
M  V30 2407 C 213.013 2.79499 2.05137 0
M  V30 2408 C 212.074 3.96548 1.64464 0
M  V30 2409 C 211.307 4.5355 2.81297 0
M  V30 2410 O 211.53 4.09438 3.97136 0
M  V30 2411 O 210.464 5.44018 2.57542 0
M  V30 2412 H 214.29 3.01991 0.321766 0
M  V30 2413 H 211.875 1.49112 0.0927889 0
M  V30 2414 H 213.757 3.17602 2.7696 0
M  V30 2415 H 212.432 2.00162 2.54395 0
M  V30 2416 H 211.339 3.63186 0.897048 0
M  V30 2417 H 212.672 4.77364 1.19934 0
M  V30 2418 N 214.325 -0.140222 1.56975 0
M  V30 2419 C 215.574 -0.850152 1.82908 0
M  V30 2420 C 215.887 -1.82028 0.715892 0
M  V30 2421 O 217.093 -2.57485 0.861016 0
M  V30 2422 C 215.549 -1.5625 3.24213 0
M  V30 2423 C 215.157 -0.63443 4.43485 0
M  V30 2424 C 216.901 -2.25881 3.59413 0
M  V30 2425 C 214.808 -1.34879 5.75814 0
M  V30 2426 H 213.738 -0.321221 0.682153 0
M  V30 2427 H 216.389 -0.102874 1.83211 0
M  V30 2428 H 214.771 -2.35565 3.18316 0
M  V30 2429 H 215.945 0.12398 4.60633 0
M  V30 2430 H 214.26 -0.0461836 4.16374 0
M  V30 2431 H 216.857 -2.79978 4.5554 0
M  V30 2432 H 217.2 -3.02693 2.85802 0
M  V30 2433 H 217.733 -1.53477 3.67001 0
M  V30 2434 H 214.472 -0.622385 6.52539 0
M  V30 2435 H 213.992 -2.07974 5.6259 0
M  V30 2436 H 215.671 -1.88784 6.18845 0
M  V30 2437 N 215.803 -1.52179 -0.40978 0
M  V30 2438 C 217.028 -1.70347 -1.18308 0
M  V30 2439 C 217.453 -0.411887 -1.83535 0
M  V30 2440 O 216.811 0.630587 -1.6998 0
M  V30 2441 C 216.859 -2.83977 -2.22238 0
M  V30 2442 O 215.963 -2.495 -3.28365 0
M  V30 2443 H 215.304 -0.567103 -0.345384 0
M  V30 2444 H 217.834 -1.98879 -0.480445 0
M  V30 2445 H 217.844 -3.0887 -2.66577 0
M  V30 2446 H 216.519 -3.77685 -1.74146 0
M  V30 2447 H 215.096 -2.35277 -2.89308 0
M  V30 2448 N 217.281 0.66697 -1.42791 0
M  V30 2449 C 218.191 1.80962 -1.49299 0
M  V30 2450 C 219.207 1.69775 -0.381108 0
M  V30 2451 O 220.383 1.91188 -0.633188 0
M  V30 2452 C 217.448 3.17156 -1.40045 0
M  V30 2453 C 216.509 3.40242 -2.6179 0
M  V30 2454 C 215.742 4.69939 -2.52969 0
M  V30 2455 O 215.965 5.48372 -1.56985 0
M  V30 2456 O 214.899 4.94441 -3.43237 0
M  V30 2457 H 218.725 1.78427 -2.45759 0
M  V30 2458 H 216.31 0.823713 -1.24641 0
M  V30 2459 H 218.192 3.98413 -1.37276 0
M  V30 2460 H 216.867 3.20312 -0.467138 0
M  V30 2461 H 215.774 2.58802 -2.70134 0
M  V30 2462 H 217.107 3.41923 -3.54047 0
M  V30 2463 N 218.759 1.29093 0.90403 0
M  V30 2464 C 219.692 1.08176 2.00931 0
M  V30 2465 C 220.67 -0.005083 1.62599 0
M  V30 2466 O 221.854 0.144765 1.87943 0
M  V30 2467 C 218.981 0.645897 3.32484 0
M  V30 2468 C 218.027 1.73081 3.89801 0
M  V30 2469 S 218.86 3.32905 4.19446 0
M  V30 2470 C 220.016 2.91176 5.54046 0
M  V30 2471 H 220.249 2.01752 2.18365 0
M  V30 2472 H 217.782 1.13191 1.0501 0
M  V30 2473 H 219.74 0.401131 4.08535 0
M  V30 2474 H 218.401 -0.270188 3.12936 0
M  V30 2475 H 217.594 1.37768 4.84805 0
M  V30 2476 H 217.196 1.92888 3.20422 0
M  V30 2477 H 219.488 2.37952 6.34338 0
M  V30 2478 H 220.431 3.85014 5.94281 0
M  V30 2479 H 220.839 2.296 5.15698 0
M  V30 2480 N 220.237 -1.11381 1.11499 0
M  V30 2481 C 221.184 -2.17439 0.773887 0
M  V30 2482 C 222.154 -1.64132 -0.254899 0
M  V30 2483 O 223.339 -1.90345 -0.13168 0
M  V30 2484 C 220.479 -3.44373 0.223917 0
M  V30 2485 C 219.592 -4.1168 1.30934 0
M  V30 2486 C 218.727 -5.263 0.71984 0
M  V30 2487 C 217.766 -5.85493 1.78507 0
M  V30 2488 N 216.903 -6.91507 1.21502 0
M  V30 2489 H 221.743 -2.45962 1.68246 0
M  V30 2490 H 219.28 -1.20744 0.840191 0
M  V30 2491 H 221.238 -4.17047 -0.112921 0
M  V30 2492 H 219.868 -3.16232 -0.647851 0
M  V30 2493 H 218.92 -3.37073 1.76312 0
M  V30 2494 H 220.232 -4.51729 2.11524 0
M  V30 2495 H 219.386 -6.05785 0.333094 0
M  V30 2496 H 218.125 -4.87559 -0.117377 0
M  V30 2497 H 217.13 -5.04686 2.18111 0
M  V30 2498 H 218.355 -6.26301 2.62533 0
M  V30 2499 H 216.301 -6.54783 0.399455 0
M  V30 2500 H 216.218 -7.30214 1.95763 0
M  V30 2501 H 217.486 -7.74795 0.855181 0
M  V30 2502 N 221.715 -0.905404 -1.28997 0
M  V30 2503 C 222.645 -0.404212 -2.29975 0
M  V30 2504 C 223.626 0.523784 -1.61835 0
M  V30 2505 O 224.811 0.433298 -1.89304 0
M  V30 2506 C 221.941 0.364042 -3.45387 0
M  V30 2507 C 220.895 -0.474048 -4.25367 0
M  V30 2508 C 220.221 0.422045 -5.33032 0
M  V30 2509 C 221.521 -1.72696 -4.92923 0
M  V30 2510 H 223.215 -1.24807 -2.72146 0
M  V30 2511 H 220.761 -0.601585 -1.30832 0
M  V30 2512 H 222.714 0.725447 -4.15109 0
M  V30 2513 H 221.438 1.24174 -3.02074 0
M  V30 2514 H 220.097 -0.81786 -3.57361 0
M  V30 2515 H 219.745 1.29804 -4.85963 0
M  V30 2516 H 219.445 -0.135057 -5.87445 0
M  V30 2517 H 220.969 0.779517 -6.05604 0
M  V30 2518 H 222.383 -1.43495 -5.55051 0
M  V30 2519 H 220.78 -2.22582 -5.57295 0
M  V30 2520 H 221.85 -2.45964 -4.17887 0
M  V30 2521 N 223.193 1.4272 -0.668489 0
M  V30 2522 C 224.418 2.06484 -0.194758 0
M  V30 2523 C 224.843 1.49862 1.13679 0
M  V30 2524 O 224.201 0.614582 1.70565 0
M  V30 2525 C 224.249 3.60353 -0.133546 0
M  V30 2526 O 223.353 4.02464 0.899806 0
M  V30 2527 H 222.694 0.656137 -0.10188 0
M  V30 2528 H 225.224 1.82964 -0.915722 0
M  V30 2529 H 225.234 4.07976 0.0447041 0
M  V30 2530 H 223.909 4.00938 -1.1055 0
M  V30 2531 H 222.486 3.66402 0.693109 0
M  V30 2532 N 224.671 0.411399 1.52136 0
M  V30 2533 C 225.917 -0.163888 2.02137 0
M  V30 2534 C 226.25 -1.44597 1.29636 0
M  V30 2535 O 225.525 -1.90272 0.403353 0
M  V30 2536 C 225.808 -0.40927 3.57767 0
M  V30 2537 C 225.661 0.889643 4.40914 0
M  V30 2538 C 226.98 -1.19042 4.23694 0
M  V30 2539 H 224.099 -0.0580896 0.734707 0
M  V30 2540 H 226.741 0.54531 1.82007 0
M  V30 2541 H 224.891 -1.0134 3.7505 0
M  V30 2542 H 226.563 1.52575 4.35337 0
M  V30 2543 H 224.806 1.50011 4.07037 0
M  V30 2544 H 225.477 0.672314 5.4789 0
M  V30 2545 H 227.953 -0.678942 4.10524 0
M  V30 2546 H 226.829 -1.33086 5.32522 0
M  V30 2547 H 227.09 -2.21166 3.82803 0
M  V30 2548 N 226.149 -1.5696 0.141893 0
M  V30 2549 C 227.097 -2.17784 -0.816874 0
M  V30 2550 C 228.091 -1.1334 -1.25899 0
M  V30 2551 O 229.297 -1.316 -1.22806 0
M  V30 2552 H 225.672 -0.697278 -0.281615 0
M  V30 2553 H 227.643 -2.97087 -0.279621 0
M  V30 2554 C 226.392 -2.80983 -2.04802 0
M  V30 2555 H 225.715 -3.61062 -1.7168 0
M  V30 2556 H 227.155 -3.2705 -2.69841 0
M  V30 2557 C 225.614 -1.79228 -2.8527 0
M  V30 2558 O 226.144 -1.25962 -3.8144 0
M  V30 2559 N 224.35 -1.48647 -2.49704 0
M  V30 2560 H 223.897 -1.92155 -1.71564 0
M  V30 2561 H 223.855 -0.808115 -3.03837 0
M  V30 2562 N 227.627 0.131896 -1.57047 0
M  V30 2563 C 228.59 1.14638 -1.98471 0
M  V30 2564 C 229.59 1.35029 -0.873148 0
M  V30 2565 O 230.78 1.31764 -1.13946 0
M  V30 2566 C 227.912 2.50358 -2.31373 0
M  V30 2567 H 229.105 0.79064 -2.8929 0
M  V30 2568 H 226.658 0.375761 -1.51716 0
M  V30 2569 H 227.393 2.90876 -1.43393 0
M  V30 2570 H 227.178 2.36915 -3.12432 0
M  V30 2571 H 228.668 3.23395 -2.64207 0
M  V30 2572 N 229.106 1.52395 0.401703 0
M  V30 2573 C 230.522 1.41363 0.740864 0
M  V30 2574 C 230.722 0.523982 1.94568 0
M  V30 2575 O 229.778 -0.00741204 2.52499 0
M  V30 2576 C 231.091 2.84011 0.987847 0
M  V30 2577 C 232.639 2.93404 1.09011 0
M  V30 2578 C 233.114 4.37036 1.3698 0
M  V30 2579 N 234.605 4.40304 1.43829 0
M  V30 2580 C 235.34 5.48508 1.67112 0
M  V30 2581 N 234.836 6.66819 1.87949 0
M  V30 2582 N 236.629 5.36034 1.69187 0
M  V30 2583 H 228.78 2.08765 -0.391262 0
M  V30 2584 H 231.043 0.941265 -0.112798 0
M  V30 2585 H 230.749 3.51265 0.174835 0
M  V30 2586 H 230.623 3.25502 1.906 0
M  V30 2587 H 233.01 2.26325 1.8937 0
M  V30 2588 H 233.091 2.55359 0.15015 0
M  V30 2589 H 232.735 5.04676 0.571353 0
M  V30 2590 H 232.665 4.72623 2.3224 0
M  V30 2591 H 235.156 3.55024 1.29486 0
M  V30 2592 H 235.469 7.45063 2.05185 0
M  V30 2593 H 233.814 6.6987 1.85199 0
M  V30 2594 H 237.005 4.42579 1.52451 0
M  V30 2595 H 237.178 6.20434 1.86993 0
M  V30 2596 N 230.584 -0.659388 1.43143 0
M  V30 2597 C 231.547 -1.75432 1.47501 0
M  V30 2598 C 232.547 -1.56707 0.360512 0
M  V30 2599 O 233.737 -1.62717 0.622002 0
M  V30 2600 C 230.869 -3.14239 1.32162 0
M  V30 2601 H 232.062 -1.7295 2.45006 0
M  V30 2602 H 229.615 -0.870469 1.29817 0
M  V30 2603 H 230.35 -3.22336 0.356401 0
M  V30 2604 H 230.135 -3.29235 2.12948 0
M  V30 2605 H 231.625 -3.94094 1.3813 0
M  V30 2606 N 232.062 -1.29571 -0.897171 0
M  V30 2607 C 233.478 -1.07637 -1.17841 0
M  V30 2608 C 233.678 0.170713 -2.00776 0
M  V30 2609 O 232.734 0.867768 -2.3712 0
M  V30 2610 C 234.047 -2.3332 -1.8969 0
M  V30 2611 C 235.595 -2.38664 -2.02505 0
M  V30 2612 C 236.07 -3.64157 -2.77765 0
M  V30 2613 N 237.561 -3.64894 -2.85318 0
M  V30 2614 C 238.296 -4.58679 -3.44094 0
M  V30 2615 N 237.792 -5.62799 -4.04017 0
M  V30 2616 N 239.585 -4.46245 -3.41793 0
M  V30 2617 H 231.736 -2.09598 -0.343883 0
M  V30 2618 H 233.999 -0.923333 -0.214848 0
M  V30 2619 H 233.705 -3.24262 -1.36187 0
M  V30 2620 H 233.579 -2.41025 -2.9015 0
M  V30 2621 H 235.966 -1.48208 -2.55183 0
M  V30 2622 H 236.047 -2.34943 -1.01171 0
M  V30 2623 H 235.691 -4.54965 -2.25763 0
M  V30 2624 H 235.621 -3.65137 -3.7945 0
M  V30 2625 H 238.112 -2.89613 -2.42761 0
M  V30 2626 H 238.425 -6.3048 -4.46895 0
M  V30 2627 H 236.77 -5.66605 -4.02472 0
M  V30 2628 H 239.961 -3.64094 -2.94199 0
M  V30 2629 H 240.134 -5.19518 -3.87304 0
M  V30 2630 N 233.54 1.10788 -1.12088 0
M  V30 2631 C 234.789 1.82036 -0.868659 0
M  V30 2632 C 235.102 1.85929 0.607426 0
M  V30 2633 O 236.308 2.53346 0.97613 0
M  V30 2634 C 234.764 3.26951 -1.50435 0
M  V30 2635 C 234.372 3.31367 -3.01496 0
M  V30 2636 C 236.116 4.03053 -1.33225 0
M  V30 2637 C 234.023 4.7072 -3.58017 0
M  V30 2638 H 232.953 0.682108 -0.321318 0
M  V30 2639 H 235.604 1.24618 -1.34694 0
M  V30 2640 H 233.986 3.84343 -0.953735 0
M  V30 2641 H 235.16 2.83819 -3.6302 0
M  V30 2642 H 233.475 2.6875 -3.18061 0
M  V30 2643 H 236.072 5.05981 -1.72878 0
M  V30 2644 H 236.415 4.15387 -0.275529 0
M  V30 2645 H 236.948 3.52066 -1.85188 0
M  V30 2646 H 233.687 4.63585 -4.63432 0
M  V30 2647 H 233.207 5.1865 -3.01268 0
M  V30 2648 H 234.886 5.39685 -3.56859 0
M  V30 2649 N 235.018 0.912232 1.28515 0
M  V30 2650 C 236.264 0.545405 1.95328 0
M  V30 2651 C 236.597 -0.908313 1.71649 0
M  V30 2652 O 235.872 -1.64575 1.03659 0
M  V30 2653 C 236.155 0.853483 3.4984 0
M  V30 2654 C 236.008 2.35982 3.82926 0
M  V30 2655 C 237.327 0.348589 4.38717 0
M  V30 2656 H 234.446 0.199626 0.709449 0
M  V30 2657 H 237.088 1.1412 1.5191 0
M  V30 2658 H 235.238 0.34643 3.86952 0
M  V30 2659 H 236.91 2.93738 3.55691 0
M  V30 2660 H 235.153 2.81543 3.30024 0
M  V30 2661 H 235.824 2.52593 4.90816 0
M  V30 2662 H 238.3 0.78294 4.08668 0
M  V30 2663 H 237.176 0.593242 5.45685 0
M  V30 2664 H 237.437 -0.751049 4.35674 0
M  V30 2665 N 236.496 -1.42363 0.676048 0
M  V30 2666 C 237.459 -2.29199 0.00766941 0
M  V30 2667 C 238.459 -1.43389 -0.727745 0
M  V30 2668 O 239.649 -1.64764 -0.56556 0
M  V30 2669 C 236.781 -3.2591 -0.999785 0
M  V30 2670 H 237.974 -2.89794 0.771988 0
M  V30 2671 H 235.527 -1.50024 0.438468 0
M  V30 2672 H 236.262 -2.70256 -1.79255 0
M  V30 2673 H 236.047 -3.89202 -0.475829 0
M  V30 2674 H 237.537 -3.91028 -1.46583 0
M  V30 2675 N 237.974 -0.419461 -1.51915 0
M  V30 2676 C 238.884 0.407528 -2.31033 0
M  V30 2677 C 239.9 1.04413 -1.3919 0
M  V30 2678 O 241.076 1.0434 -1.72265 0
M  V30 2679 C 238.141 1.50365 -3.12396 0
M  V30 2680 C 237.202 0.889029 -4.19994 0
M  V30 2681 C 236.435 1.93291 -4.97468 0
M  V30 2682 O 236.658 3.15259 -4.75361 0
M  V30 2683 O 235.592 1.53339 -5.8204 0
M  V30 2684 H 239.418 -0.237865 -3.02767 0
M  V30 2685 H 237.003 -0.182413 -1.48282 0
M  V30 2686 H 238.885 2.13975 -3.63032 0
M  V30 2687 H 237.56 2.13345 -2.43445 0
M  V30 2688 H 236.467 0.215353 -3.7348 0
M  V30 2689 H 237.8 0.302991 -4.91267 0
M  V30 2690 N 239.452 1.56882 -0.150215 0
M  V30 2691 C 240.362 2.20494 0.801222 0
M  V30 2692 C 241.378 1.19019 1.26927 0
M  V30 2693 O 242.554 1.51607 1.32579 0
M  V30 2694 C 239.619 2.81659 2.02161 0
M  V30 2695 C 238.68 3.9827 1.60249 0
M  V30 2696 C 237.913 4.56508 2.7647 0
M  V30 2697 O 238.136 4.13627 3.92771 0
M  V30 2698 O 237.07 5.46719 2.51757 0
M  V30 2699 H 240.896 3.02315 0.289717 0
M  V30 2700 H 238.481 1.49202 0.0769684 0
M  V30 2701 H 240.363 3.20522 2.73576 0
M  V30 2702 H 239.038 2.02849 2.52258 0
M  V30 2703 H 237.945 3.64117 0.858477 0
M  V30 2704 H 239.278 4.78609 1.14864 0
M  V30 2705 N 240.93 -0.123565 1.57115 0
M  V30 2706 C 242.177 -0.832153 1.84612 0
M  V30 2707 C 242.505 -1.80093 0.734627 0
M  V30 2708 O 241.76 -1.93766 -0.27442 0
M  V30 2709 C 242.059 -1.62016 3.18568 0
M  V30 2710 C 241.725 -0.796084 4.43817 0
M  V30 2711 C 240.387 -0.568816 4.77826 0
M  V30 2712 C 242.739 -0.221364 5.2073 0
M  V30 2713 C 240.067 0.243499 5.86194 0
M  V30 2714 C 242.419 0.578117 6.29953 0
M  V30 2715 C 241.083 0.815744 6.62497 0
M  V30 2716 H 240.353 -0.304507 0.675542 0
M  V30 2717 H 243 -0.0947248 1.91266 0
M  V30 2718 H 241.305 -2.42837 3.0747 0
M  V30 2719 H 243.002 -2.17231 3.37064 0
M  V30 2720 H 239.592 -0.983307 4.17168 0
M  V30 2721 H 243.776 -0.384173 4.94811 0
M  V30 2722 H 239.032 0.436871 6.09837 0
M  V30 2723 H 243.206 1.03046 6.88734 0
M  V30 2724 H 240.833 1.44701 7.46301 0
M  V30 2725 N 242.408 -1.52605 -0.393616 0
M  V30 2726 C 243.338 -1.80022 -1.48709 0
M  V30 2727 C 244.319 -0.651995 -1.57108 0
M  V30 2728 O 245.504 -0.89913 -1.72132 0
M  V30 2729 C 242.634 -1.96492 -2.86371 0
M  V30 2730 C 241.588 -3.12161 -2.92813 0
M  V30 2731 C 240.914 -3.13877 -4.3288 0
M  V30 2732 C 242.214 -4.51322 -2.6288 0
M  V30 2733 H 243.908 -2.71589 -1.26015 0
M  V30 2734 H 241.454 -1.30684 -0.604778 0
M  V30 2735 H 243.407 -2.14255 -3.62867 0
M  V30 2736 H 242.131 -1.01611 -3.10391 0
M  V30 2737 H 240.79 -2.94173 -2.18764 0
M  V30 2738 H 240.438 -2.16687 -4.53933 0
M  V30 2739 H 240.138 -3.91576 -4.38112 0
M  V30 2740 H 241.662 -3.33789 -5.1129 0
M  V30 2741 H 243.076 -4.69435 -3.29096 0
M  V30 2742 H 241.473 -5.31053 -2.79468 0
M  V30 2743 H 242.543 -4.58353 -1.58242 0
M  V30 2744 N 243.887 0.651787 -1.4349 0
M  V30 2745 C 244.834 1.76462 -1.4876 0
M  V30 2746 C 245.804 1.62641 -0.337189 0
M  V30 2747 O 246.989 1.82864 -0.544544 0
M  V30 2748 C 244.129 3.14623 -1.41796 0
M  V30 2749 C 243.242 3.39568 -2.67053 0
M  V30 2750 C 242.377 4.67585 -2.52068 0
M  V30 2751 C 241.416 4.85639 -3.72587 0
M  V30 2752 N 240.553 6.04915 -3.56402 0
M  V30 2753 H 245.393 1.71293 -2.43849 0
M  V30 2754 H 242.93 0.835889 -1.21043 0
M  V30 2755 H 244.888 3.94496 -1.35753 0
M  V30 2756 H 243.518 3.18859 -0.50288 0
M  V30 2757 H 242.57 2.53783 -2.8337 0
M  V30 2758 H 243.882 3.48795 -3.56572 0
M  V30 2759 H 243.036 5.55586 -2.4374 0
M  V30 2760 H 241.775 4.60681 -1.60075 0
M  V30 2761 H 240.78 3.96073 -3.81321 0
M  V30 2762 H 242.005 4.94372 -4.65589 0
M  V30 2763 H 239.951 5.9914 -2.67146 0
M  V30 2764 H 239.868 6.15106 -4.39524 0
M  V30 2765 H 241.136 6.95533 -3.51929 0
M  V30 2766 N 245.365 1.30045 0.890287 0
M  V30 2767 C 246.313 1.15873 2.01683 0
M  V30 2768 C 247.307 0.0719403 1.69247 0
M  V30 2769 O 248.513 0.232414 1.78493 0
M  V30 2770 H 244.888 0.358203 0.661207 0
M  V30 2771 H 246.859 2.11229 2.10772 0
M  V30 2772 C 245.608 0.861842 3.36849 0
M  V30 2773 H 244.931 1.69016 3.62317 0
M  V30 2774 H 246.371 0.802762 4.16331 0
M  V30 2775 C 244.83 -0.435132 3.34078 0
M  V30 2776 O 245.36 -1.4583 3.74295 0
M  V30 2777 N 243.566 -0.444377 2.87182 0
M  V30 2778 H 243.113 0.388723 2.5465 0
M  V30 2779 H 243.071 -1.31213 2.85711 0
M  V30 2780 N 246.843 -1.10192 1.12674 0
M  V30 2781 C 248.09 -1.82205 0.883606 0
M  V30 2782 C 248.418 -1.8532 -0.590492 0
M  V30 2783 O 247.673 -1.31137 -1.45264 0
M  V30 2784 C 247.972 -3.28552 1.4067 0
M  V30 2785 C 247.638 -3.45582 2.89627 0
M  V30 2786 C 246.3 -3.49937 3.30299 0
M  V30 2787 C 248.652 -3.50768 3.85501 0
M  V30 2788 C 245.98 -3.57049 4.65546 0
M  V30 2789 C 248.332 -3.59414 5.20581 0
M  V30 2790 C 246.996 -3.62034 5.60792 0
M  V30 2791 H 246.266 -0.666735 0.323334 0
M  V30 2792 H 248.913 -1.29868 1.40736 0
M  V30 2793 H 247.218 -3.83473 0.80347 0
M  V30 2794 H 248.915 -3.82788 1.19475 0
M  V30 2795 H 245.505 -3.42871 2.57172 0
M  V30 2796 H 249.689 -3.46651 3.55171 0
M  V30 2797 H 244.945 -3.57361 4.96088 0
M  V30 2798 H 249.119 -3.62371 5.94693 0
M  V30 2799 H 246.746 -3.67298 6.6558 0
M  V30 2800 O 248.36 -1.05067 -1.22651 0
M  V30 2801 H 249.051 -0.726261 -1.79569 0
M  V30 END ATOM
M  V30 BEGIN BOND
M  V30 END BOND
M  V30 END CTAB
M  END
$$$$
