drugbank_target|O43612 Orexin (DB03088)
 OpenBabel12092120533D

  0  0  0     0  0            999 V3000
M  V30 BEGIN CTAB
M  V30 COUNTS 1917 1934 0 0 0
M  V30 BEGIN ATOM
M  V30 1 H -0.908 1.98254 -0.117106 0
M  V30 2 N 0 1.576 0 0
M  V30 3 C 0.933 2.03868 1.02534 0
M  V30 4 C 1.911 0.928543 1.3348 0
M  V30 5 O 3.095 1.19667 1.45644 0
M  V30 6 C 0.222 2.43627 2.35294 0
M  V30 7 C -0.732 3.65373 2.2001 0
M  V30 8 S 0.101 5.13292 1.52614 0
M  V30 9 C 1.257 5.56322 2.86805 0
M  V30 10 H 1.49 2.90518 0.631377 0
M  V30 11 H -0.977 1.52953 0.210867 0
M  V30 12 H 0.981 2.67203 3.11629 0
M  V30 13 H -0.358 1.57376 2.7183 0
M  V30 14 H -1.165 3.90944 3.18086 0
M  V30 15 H -1.563 3.418 1.51819 0
M  V30 16 H 0.729 5.58782 3.83104 0
M  V30 17 H 1.672 6.56266 2.65933 0
M  V30 18 H 2.08 4.83886 2.90714 0
M  V30 19 N 1.4781 -0.272755 1.55222 0
M  V30 20 C 2.4261 -1.35705 1.88909 0
M  V30 21 C 3.4201 -1.5112 0.765456 0
M  V30 22 O 4.6261 -1.52901 0.949802 0
M  V30 23 H 1.0011 -0.453868 0.59959 0
M  V30 24 H 2.9721 -1.04544 2.79487 0
M  V30 25 C 1.7211 -2.71049 2.17779 0
M  V30 26 H 1.0441 -2.59979 3.03728 0
M  V30 27 H 2.4841 -3.45858 2.45272 0
M  V30 28 C 0.9431 -3.22165 0.985473 0
M  V30 29 O 1.4731 -4.01096 0.220233 0
M  V30 30 N -0.3209 -2.7985 0.783108 0
M  V30 31 H -0.7739 -2.15775 1.40708 0
M  V30 32 H -0.8159 -3.14397 -0.0130392 0
M  V30 33 N 2.9562 -1.48159 -0.537278 0
M  V30 34 C 3.8862 -1.65029 -1.6519 0
M  V30 35 C 4.8672 -0.499281 -1.62607 0
M  V30 36 O 6.0522 -0.730972 -1.79918 0
M  V30 37 C 3.1822 -1.68303 -3.03795 0
M  V30 38 C 2.1362 -2.8283 -3.21234 0
M  V30 39 C 1.4622 -2.71189 -4.60826 0
M  V30 40 C 2.7622 -4.24211 -3.04701 0
M  V30 41 H 4.4562 -2.58341 -1.51328 0
M  V30 42 H 2.0022 -1.24325 -0.726585 0
M  V30 43 H 3.9552 -1.78693 -3.81637 0
M  V30 44 H 2.6792 -0.715635 -3.18663 0
M  V30 45 H 1.3382 -2.71983 -2.45807 0
M  V30 46 H 0.9862 -1.72435 -4.7252 0
M  V30 47 H 0.6862 -3.48035 -4.7344 0
M  V30 48 H 2.2102 -2.83537 -5.40777 0
M  V30 49 H 3.6242 -4.3593 -3.72341 0
M  V30 50 H 2.0212 -5.01998 -3.28813 0
M  V30 51 H 3.0912 -4.41184 -2.01209 0
M  V30 52 N 4.4343 0.785586 -1.36625 0
M  V30 53 C 5.8453 1.36101 -1.27803 0
M  V30 54 C 6.1963 1.96035 0.0804875 0
M  V30 55 O 5.3213 1.92834 0.982042 0
M  V30 56 C 5.9163 2.47442 -2.31426 0
M  V30 57 C 4.4753 3.00789 -2.26281 0
M  V30 58 C 3.6223 1.73896 -2.15999 0
M  V30 59 H 6.5733 0.586928 -1.47448 0
M  V30 60 H 6.5943 3.2656 -1.95291 0
M  V30 61 H 6.1063 2.03791 -3.30289 0
M  V30 62 H 4.2073 3.48851 -1.30896 0
M  V30 63 H 4.3203 3.57343 -3.19128 0
M  V30 64 H 2.6843 1.9628 -1.62316 0
M  V30 65 H 3.4673 1.32368 -3.16755 0
M  V30 66 N 5.9124 1.20967 1.01018 0
M  V30 67 C 7.1374 1.0503 1.78839 0
M  V30 68 C 7.5624 -0.395752 1.8389 0
M  V30 69 O 6.9204 -1.28529 1.27867 0
M  V30 70 C 6.9684 1.64602 3.2084 0
M  V30 71 O 6.0724 0.887988 4.02726 0
M  V30 72 H 5.4134 0.369987 0.551367 0
M  V30 73 H 7.9434 1.60399 1.27018 0
M  V30 74 H 7.9534 1.68607 3.71532 0
M  V30 75 H 6.6284 2.69841 3.16479 0
M  V30 76 H 5.2054 0.922648 3.61305 0
M  V30 77 N 7.3905 -1.2043 1.01659 0
M  V30 78 C 8.6185 -1.93777 0.725132 0
M  V30 79 C 9.0335 -1.74772 -0.714166 0
M  V30 80 O 8.3905 -1.06169 -1.4844 0
M  V30 81 C 8.4415 -3.45876 1.05129 0
M  V30 82 O 8.1625 -3.6426 2.43406 0
M  V30 83 C 9.6635 -4.36368 0.780891 0
M  V30 84 H 6.8835 -0.615901 0.266284 0
M  V30 85 H 9.4275 -1.52922 1.35776 0
M  V30 86 H 7.5825 -3.8461 0.464065 0
M  V30 87 H 7.9965 -4.58246 2.55169 0
M  V30 88 H 9.4705 -5.41743 1.05918 0
M  V30 89 H 9.9475 -4.38275 -0.284937 0
M  V30 90 H 10.5535 -4.03296 1.35027 0
M  V30 91 N 8.8686 -0.792821 -1.36206 0
M  V30 92 C 9.8156 -0.191653 -2.30003 0
M  V30 93 C 10.7856 0.666453 -1.52143 0
M  V30 94 O 11.9706 0.61442 -1.80636 0
M  V30 95 C 9.1106 0.664848 -3.38635 0
M  V30 96 C 8.2236 -0.212175 -4.31479 0
M  V30 97 C 7.3586 0.651022 -5.27196 0
M  V30 98 C 6.3976 -0.227247 -6.11678 0
M  V30 99 N 5.5346 0.595127 -6.99573 0
M  V30 100 H 10.3746 -0.996978 -2.80828 0
M  V30 101 H 7.9116 -0.503206 -1.38225 0
M  V30 102 H 9.8696 1.17645 -4.00269 0
M  V30 103 H 8.4996 1.43557 -2.89122 0
M  V30 104 H 7.5516 -0.841777 -3.70969 0
M  V30 105 H 8.8636 -0.888751 -4.90818 0
M  V30 106 H 8.0176 1.2283 -5.94136 0
M  V30 107 H 6.7566 1.36121 -4.68319 0
M  V30 108 H 5.7616 -0.816904 -5.43697 0
M  V30 109 H 6.9866 -0.93509 -6.72631 0
M  V30 110 H 4.9326 1.28955 -6.432 0
M  V30 111 H 4.8496 -0.0236952 -7.55996 0
M  V30 112 H 6.1176 1.15613 -7.70879 0
M  V30 113 N 10.3467 1.47872 -0.545128 0
M  V30 114 C 11.5927 2.02793 -0.0166104 0
M  V30 115 C 11.9257 1.41987 1.32489 0
M  V30 116 O 11.2007 0.571045 1.85928 0
M  V30 117 C 11.4837 3.59989 0.0893294 0
M  V30 118 C 11.3367 4.3125 -1.27841 0
M  V30 119 C 12.6557 4.32606 0.808724 0
M  V30 120 H 9.7747 0.736962 -0.00751035 0
M  V30 121 H 12.4167 1.76433 -0.705085 0
M  V30 122 H 10.5667 3.82579 0.675681 0
M  V30 123 H 12.2387 4.20035 -1.90704 0
M  V30 124 H 10.4817 3.92076 -1.85632 0
M  V30 125 H 11.1527 5.39736 -1.15713 0
M  V30 126 H 13.6287 4.14936 0.310992 0
M  V30 127 H 12.5047 5.42251 0.851782 0
M  V30 128 H 12.7657 4.00963 1.86229 0
M  V30 129 N 11.8248 0.280983 1.55075 0
M  V30 130 C 13.0498 -0.340154 2.04592 0
M  V30 131 C 13.4748 -1.48246 1.15779 0
M  V30 132 O 12.8328 -1.80614 0.15761 0
M  V30 133 C 12.8808 -0.793104 3.5177 0
M  V30 134 O 11.9848 -1.89981 3.66034 0
M  V30 135 H 11.3258 -0.0694289 0.66036 0
M  V30 136 H 13.8558 0.416993 2.00306 0
M  V30 137 H 13.8658 -1.08729 3.93245 0
M  V30 138 H 12.5408 0.0426163 4.15878 0
M  V30 139 H 11.1178 -1.60771 3.36463 0
M  V30 140 N 13.3029 -1.57598 0.00835791 0
M  V30 141 C 14.5489 -1.92046 -0.670055 0
M  V30 142 C 14.9039 -0.88351 -1.70915 0
M  V30 143 O 14.1969 0.103223 -1.91322 0
M  V30 144 C 14.3909 -3.3101 -1.34787 0
M  V30 145 C 14.2199 -4.48126 -0.375945 0
M  V30 146 C 12.9899 -5.05297 0.0166914 0
M  V30 147 C 15.1879 -5.1303 0.361272 0
M  V30 148 N 13.1699 -6.05931 0.985952 0
M  V30 149 C 14.5409 -6.08571 1.18495 0
M  V30 150 C 16.5959 -4.9609 0.42421 0
M  V30 151 C 15.2989 -6.88996 2.06584 0
M  V30 152 C 17.3249 -5.77107 1.29236 0
M  V30 153 C 16.6869 -6.72248 2.10386 0
M  V30 154 H 12.7859 -0.75096 -0.218136 0
M  V30 155 H 15.3699 -1.94572 0.0706669 0
M  V30 156 H 13.5409 -3.29342 -2.05884 0
M  V30 157 H 15.2729 -3.52864 -1.98164 0
M  V30 158 H 12.0279 -4.72279 -0.353435 0
M  V30 159 H 12.4519 -6.60932 1.4662 0
M  V30 160 H 17.0939 -4.22378 -0.188915 0
M  V30 161 H 14.8119 -7.62028 2.6896 0
M  V30 162 H 18.3979 -5.66038 1.34508 0
M  V30 163 H 17.2779 -7.33846 2.76476 0
M  V30 164 N 14.781 0.264519 -1.55364 0
M  V30 165 C 15.744 1.31046 -1.88042 0
M  V30 166 C 16.744 1.41943 -0.755569 0
M  V30 167 O 17.934 1.40947 -1.02369 0
M  V30 168 C 15.066 2.69067 -2.09323 0
M  V30 169 H 16.259 1.03297 -2.81549 0
M  V30 170 H 13.812 0.502989 -1.47986 0
M  V30 171 H 14.547 3.01982 -1.18226 0
M  V30 172 H 14.332 2.62542 -2.91229 0
M  V30 173 H 15.822 3.44623 -2.35848 0
M  V30 174 N 16.2591 1.48442 0.529413 0
M  V30 175 C 17.2221 1.62524 1.61612 0
M  V30 176 C 18.2221 0.498509 1.52877 0
M  V30 177 O 19.4121 0.76431 1.56537 0
M  V30 178 C 16.5441 1.59597 3.01233 0
M  V30 179 H 17.7371 2.59423 1.50465 0
M  V30 180 H 15.2901 1.37047 0.751514 0
M  V30 181 H 16.0251 0.641781 3.17886 0
M  V30 182 H 15.8101 2.41397 3.08982 0
M  V30 183 H 17.3001 1.72646 3.80241 0
M  V30 184 N 17.7372 -0.778329 1.37039 0
M  V30 185 C 18.9832 -1.53892 1.32079 0
M  V30 186 C 19.3162 -1.9396 -0.0965386 0
M  V30 187 O 18.5912 -1.63568 -1.05242 0
M  V30 188 C 18.8742 -2.80847 2.25382 0
M  V30 189 C 18.7272 -2.47076 3.75864 0
M  V30 190 C 20.0462 -3.82741 2.1725 0
M  V30 191 H 17.1652 -0.558303 0.48111 0
M  V30 192 H 19.8072 -0.893397 1.67685 0
M  V30 193 H 17.9572 -3.35931 1.95148 0
M  V30 194 H 19.6292 -1.97957 4.16666 0
M  V30 195 H 17.8722 -1.79863 3.94755 0
M  V30 196 H 18.5432 -3.37798 4.36574 0
M  V30 197 H 21.0192 -3.37133 2.43887 0
M  V30 198 H 19.8952 -4.69303 2.84686 0
M  V30 199 H 20.1562 -4.2652 1.16331 0
M  V30 200 N 19.2153 -1.21501 -1.00376 0
M  V30 201 C 20.4433 -1.059 -1.77744 0
M  V30 202 C 20.8583 0.391125 -1.84704 0
M  V30 203 O 20.2153 1.27133 -1.30933 0
M  V30 204 C 20.2663 -1.65111 -3.21591 0
M  V30 205 O 19.9873 -3.0445 -3.15027 0
M  V30 206 C 21.4883 -1.54637 -4.15454 0
M  V30 207 H 18.7083 -0.371825 -0.558558 0
M  V30 208 H 21.2523 -1.60865 -1.26264 0
M  V30 209 H 19.4073 -1.14235 -3.70175 0
M  V30 210 H 19.8213 -3.3278 -4.0541 0
M  V30 211 H 21.2953 -2.00808 -5.14179 0
M  V30 212 H 21.7723 -0.501022 -4.36333 0
M  V30 213 H 22.3783 -2.04767 -3.72761 0
M  V30 214 N 20.6934 1.19889 -1.02296 0
M  V30 215 C 21.6234 2.25141 -0.619174 0
M  V30 216 C 22.6044 1.66051 0.368915 0
M  V30 217 O 23.7894 1.92546 0.252941 0
M  V30 218 C 20.9194 3.4728 0.0368783 0
M  V30 219 C 19.8734 4.19005 -0.872865 0
M  V30 220 C 19.1994 5.34637 -0.0822402 0
M  V30 221 C 20.4994 4.74452 -2.18387 0
M  V30 222 H 22.1934 2.59171 -1.49903 0
M  V30 223 H 19.7394 1.24579 -0.722222 0
M  V30 224 H 21.6924 4.20098 0.330958 0
M  V30 225 H 20.4164 3.12433 0.95149 0
M  V30 226 H 19.0754 3.48061 -1.15105 0
M  V30 227 H 18.7234 4.96034 0.83422 0
M  V30 228 H 18.4234 5.83557 -0.688149 0
M  V30 229 H 19.9474 6.10255 0.205238 0
M  V30 230 H 21.3614 5.39055 -1.95172 0
M  V30 231 H 19.7584 5.33834 -2.74119 0
M  V30 232 H 20.8284 3.92844 -2.84257 0
M  V30 233 N 22.1715 0.800033 1.35784 0
M  V30 234 C 23.1015 0.220184 2.3246 0
M  V30 235 C 24.0825 -0.65073 1.57161 0
M  V30 236 O 25.2675 -0.582359 1.85263 0
M  V30 237 C 22.3975 -0.637353 3.41402 0
M  V30 238 C 21.3515 0.134531 4.27789 0
M  V30 239 C 20.6775 -0.844285 5.27992 0
M  V30 240 C 21.9775 1.32979 5.05088 0
M  V30 241 H 23.6715 1.02787 2.81203 0
M  V30 242 H 21.2175 0.495717 1.35199 0
M  V30 243 H 23.1705 -1.05302 4.08031 0
M  V30 244 H 21.8945 -1.47785 2.91251 0
M  V30 245 H 20.5535 0.531296 3.6273 0
M  V30 246 H 20.2015 -1.68011 4.74111 0
M  V30 247 H 19.9015 -0.332184 5.8666 0
M  V30 248 H 21.4255 -1.2583 5.97494 0
M  V30 249 H 22.8395 0.98934 5.64699 0
M  V30 250 H 21.2365 1.77593 5.7322 0
M  V30 251 H 22.3065 2.11978 4.36111 0
M  V30 252 N 23.6496 -1.47581 0.552962 0
M  V30 253 C 24.5796 -2.32762 -0.185451 0
M  V30 254 C 25.5606 -1.43527 -0.912905 0
M  V30 255 O 26.7456 -1.72388 -0.894201 0
M  V30 256 C 23.8756 -3.25219 -1.21859 0
M  V30 257 C 22.8296 -4.23661 -0.607864 0
M  V30 258 C 22.1556 -5.05413 -1.74533 0
M  V30 259 C 23.4556 -5.20481 0.435582 0
M  V30 260 H 25.1496 -2.94749 0.525684 0
M  V30 261 H 22.6956 -1.41738 0.254251 0
M  V30 262 H 24.6486 -3.8365 -1.7433 0
M  V30 263 H 23.3726 -2.61279 -1.95961 0
M  V30 264 H 22.0316 -3.66451 -0.104489 0
M  V30 265 H 21.6796 -4.3788 -2.47529 0
M  V30 266 H 21.3796 -5.72059 -1.34249 0
M  V30 267 H 22.9036 -5.66701 -2.27338 0
M  V30 268 H 24.3176 -5.733 -0.00290157 0
M  V30 269 H 22.7146 -5.95305 0.757067 0
M  V30 270 H 23.7846 -4.66217 1.33303 0
M  V30 271 N 25.1277 -0.289203 -1.54924 0
M  V30 272 C 26.0577 0.58549 -2.2604 0
M  V30 273 C 27.0387 1.14753 -1.25562 0
M  V30 274 O 28.2237 1.17906 -1.54311 0
M  V30 275 C 25.3537 1.76305 -2.99222 0
M  V30 276 C 24.3077 1.33191 -4.06748 0
M  V30 277 C 23.6337 2.5937 -4.6758 0
M  V30 278 C 24.9337 0.471775 -5.20165 0
M  V30 279 H 26.6277 -0.00763532 -2.99399 0
M  V30 280 H 24.1737 -0.00511229 -1.43999 0
M  V30 281 H 26.1267 2.38097 -3.47689 0
M  V30 282 H 24.8507 2.38223 -2.23422 0
M  V30 283 H 23.5097 0.737121 -3.59113 0
M  V30 284 H 23.1577 3.19576 -3.88433 0
M  V30 285 H 22.8577 2.31228 -5.40192 0
M  V30 286 H 24.3817 3.21985 -5.18804 0
M  V30 287 H 25.7957 0.995056 -5.64599 0
M  V30 288 H 24.1927 0.284639 -5.99425 0
M  V30 289 H 25.2627 -0.506041 -4.82252 0
M  V30 290 N 26.6058 1.57591 -0.0167156 0
M  V30 291 C 27.5358 2.12496 0.967858 0
M  V30 292 C 28.5168 1.03807 1.34752 0
M  V30 293 O 29.7018 1.31577 1.42833 0
M  V30 294 C 26.8318 2.64194 2.25431 0
M  V30 295 C 25.7858 3.77559 2.01576 0
M  V30 296 C 25.1118 4.15636 3.36379 0
M  V30 297 C 26.4118 5.04151 1.36489 0
M  V30 298 H 28.1058 2.95013 0.510643 0
M  V30 299 H 25.6518 1.41915 0.244181 0
M  V30 300 H 27.6048 3.01236 2.94678 0
M  V30 301 H 26.3288 1.78821 2.73296 0
M  V30 302 H 24.9878 3.40937 1.34751 0
M  V30 303 H 24.6358 3.27263 3.81979 0
M  V30 304 H 24.3358 4.92022 3.21229 0
M  V30 305 H 25.8598 4.5525 4.06915 0
M  V30 306 H 27.2738 5.38857 1.95718 0
M  V30 307 H 25.6708 5.85453 1.31776 0
M  V30 308 H 26.7408 4.83733 0.336219 0
M  V30 309 N 28.0839 -0.256276 1.55502 0
M  V30 310 C 29.0139 -1.32102 1.92539 0
M  V30 311 C 29.9949 -1.50684 0.789194 0
M  V30 312 O 31.1799 -1.63449 1.04872 0
M  V30 313 C 28.3099 -2.67752 2.21192 0
M  V30 314 C 27.2639 -2.63878 3.36975 0
M  V30 315 C 26.5899 -4.03236 3.51147 0
M  V30 316 C 27.8899 -2.21682 4.72921 0
M  V30 317 H 29.5839 -1.01351 2.81724 0
M  V30 318 H 27.1299 -0.486105 1.35547 0
M  V30 319 H 29.0829 -3.42365 2.45691 0
M  V30 320 H 27.8069 -3.0012 1.28824 0
M  V30 321 H 26.4659 -1.91722 3.12471 0
M  V30 322 H 26.1139 -4.32854 2.56216 0
M  V30 323 H 25.8139 -4.01535 4.29003 0
M  V30 324 H 27.3379 -4.79563 3.77957 0
M  V30 325 H 28.7519 -2.86023 4.96854 0
M  V30 326 H 27.1489 -2.3111 5.53812 0
M  V30 327 H 28.2189 -1.16833 4.70615 0
M  V30 328 N 29.562 -1.4872 -0.521534 0
M  V30 329 C 30.492 -1.66771 -1.63431 0
M  V30 330 C 31.473 -0.516499 -1.62069 0
M  V30 331 O 32.658 -0.750013 -1.79132 0
M  V30 332 C 29.788 -1.71515 -3.01993 0
M  V30 333 C 28.742 -2.86222 -3.18216 0
M  V30 334 C 28.068 -2.76061 -4.57924 0
M  V30 335 C 29.368 -4.27419 -3.00184 0
M  V30 336 H 31.062 -2.59932 -1.48579 0
M  V30 337 H 28.608 -1.25089 -0.713358 0
M  V30 338 H 30.561 -1.82731 -3.7972 0
M  V30 339 H 29.285 -0.749393 -3.17886 0
M  V30 340 H 27.944 -2.74575 -2.42908 0
M  V30 341 H 27.592 -1.77437 -4.70665 0
M  V30 342 H 27.292 -3.53037 -4.69722 0
M  V30 343 H 28.816 -2.89256 -5.37739 0
M  V30 344 H 30.23 -4.39855 -3.67697 0
M  V30 345 H 28.627 -5.05458 -3.2347 0
M  V30 346 H 29.697 -4.43293 -1.96518 0
M  V30 347 N 31.0401 0.771051 -1.3745 0
M  V30 348 C 31.9701 1.89827 -1.3597 0
M  V30 349 C 32.9511 1.68562 -0.228216 0
M  V30 350 O 34.1361 1.8941 -0.428675 0
M  V30 351 C 31.2661 3.2712 -1.16662 0
M  V30 352 C 30.2201 3.6295 -2.2683 0
M  V30 353 C 29.5461 4.98791 -1.92644 0
M  V30 354 C 30.8461 3.69627 -3.69017 0
M  V30 355 H 32.5401 1.91323 -2.30295 0
M  V30 356 H 30.0861 0.919082 -1.10855 0
M  V30 357 H 32.0391 4.05615 -1.14256 0
M  V30 358 H 30.7631 3.26059 -0.187926 0
M  V30 359 H 29.4221 2.86763 -2.28392 0
M  V30 360 H 29.0701 4.94271 -0.933021 0
M  V30 361 H 28.7701 5.23733 -2.66416 0
M  V30 362 H 30.2941 5.79685 -1.91826 0
M  V30 363 H 31.7081 4.38273 -3.69581 0
M  V30 364 H 30.1051 4.06067 -4.41848 0
M  V30 365 H 31.1751 2.70273 -4.02592 0
M  V30 366 N 32.5182 1.22032 0.997298 0
M  V30 367 C 33.9292 1.0397 1.55071 0
M  V30 368 C 34.2802 -0.398192 1.92117 0
M  V30 369 O 33.4052 -1.28254 1.74298 0
M  V30 370 C 34.0002 1.88109 2.81781 0
M  V30 371 C 32.5592 1.74357 3.33581 0
M  V30 372 C 31.7062 1.84846 2.06706 0
M  V30 373 H 34.6572 1.35941 0.818883 0
M  V30 374 H 34.6782 1.39589 3.53971 0
M  V30 375 H 34.1902 2.92754 2.54787 0
M  V30 376 H 32.2912 0.72427 3.65493 0
M  V30 377 H 32.4042 2.56772 4.04481 0
M  V30 378 H 30.7682 1.28238 2.20062 0
M  V30 379 H 31.5512 2.91014 1.82114 0
M  V30 380 N 33.9963 -1.19345 1.0293 0
M  V30 381 C 35.4073 -1.70725 0.755633 0
M  V30 382 C 35.7583 -1.82326 -0.724676 0
M  V30 383 O 34.8833 -1.49471 -1.56484 0
M  V30 384 C 35.4783 -3.10084 1.36503 0
M  V30 385 C 34.0373 -3.58723 1.13994 0
M  V30 386 C 33.1843 -2.35577 1.46283 0
M  V30 387 H 36.1353 -1.0418 1.19718 0
M  V30 388 H 36.1563 -3.72787 0.762217 0
M  V30 389 H 35.6683 -3.01609 2.44241 0
M  V30 390 H 33.7693 -3.72512 0.0807901 0
M  V30 391 H 33.8823 -4.42816 1.82894 0
M  V30 392 H 32.2463 -2.38935 0.88217 0
M  V30 393 H 33.0293 -2.29731 2.55105 0
M  V30 394 N 35.4744 -0.807222 -1.35358 0
M  V30 395 C 36.4374 -0.223665 -2.28106 0
M  V30 396 C 37.4374 0.589354 -1.4961 0
M  V30 397 O 38.6274 0.407745 -1.69361 0
M  V30 398 C 35.7594 0.688149 -3.33882 0
M  V30 399 H 36.9524 -1.04169 -2.81227 0
M  V30 400 H 34.5054 -0.577921 -1.45223 0
M  V30 401 H 35.2404 1.52984 -2.85948 0
M  V30 402 H 35.0254 0.10687 -3.91954 0
M  V30 403 H 36.5154 1.09075 -4.03104 0
M  V30 404 N 36.9525 1.47285 -0.560781 0
M  V30 405 C 37.8825 2.32857 0.173105 0
M  V30 406 C 38.8635 1.44009 0.905281 0
M  V30 407 O 40.0485 1.7286 0.885046 0
M  V30 408 C 37.1785 3.25861 1.20133 0
M  V30 409 C 36.1325 4.23978 0.585388 0
M  V30 410 C 35.4585 5.06332 1.7185 0
M  V30 411 C 36.7585 5.20242 -0.463178 0
M  V30 412 H 38.4525 2.94466 -0.541307 0
M  V30 413 H 35.9985 1.41601 -0.261764 0
M  V30 414 H 37.9515 3.84569 1.72293 0
M  V30 415 H 36.6755 2.62315 1.94573 0
M  V30 416 H 35.3345 3.66501 0.085054 0
M  V30 417 H 34.9825 4.39186 2.45203 0
M  V30 418 H 34.6825 5.72762 1.31213 0
M  V30 419 H 36.2065 5.67899 2.24329 0
M  V30 420 H 37.6205 5.73293 -0.027502 0
M  V30 421 H 36.0175 5.94896 -0.788627 0
M  V30 422 H 37.0875 4.65504 -1.35773 0
M  V30 423 N 38.4306 0.297415 1.54768 0
M  V30 424 C 39.3606 -0.573494 2.26348 0
M  V30 425 C 40.3416 -1.14085 1.26169 0
M  V30 426 O 41.5266 -1.17086 1.54934 0
M  V30 427 C 38.6566 -1.74716 3.00153 0
M  V30 428 C 37.6106 -1.31032 4.07449 0
M  V30 429 C 36.9366 -2.56887 4.68949 0
M  V30 430 C 38.2366 -0.444183 5.20408 0
M  V30 431 H 39.9306 0.0235131 2.99391 0
M  V30 432 H 37.4766 0.0127488 1.43994 0
M  V30 433 H 39.4296 -2.3625 3.48947 0
M  V30 434 H 38.1536 -2.37035 2.24682 0
M  V30 435 H 36.8126 -0.718066 3.59499 0
M  V30 436 H 36.4606 -3.17512 3.90122 0
M  V30 437 H 36.1606 -2.2836 5.41411 0
M  V30 438 H 37.6846 -3.19229 5.20505 0
M  V30 439 H 39.0986 -0.9651 5.65118 0
M  V30 440 H 37.4956 -0.252846 5.99567 0
M  V30 441 H 38.5656 0.531609 4.81977 0
M  V30 442 N 39.9087 -1.5758 0.0250728 0
M  V30 443 C 41.1337 -1.96337 -0.668317 0
M  V30 444 C 41.5587 -0.901314 -1.651 0
M  V30 445 O 40.9167 0.138187 -1.80773 0
M  V30 446 C 40.9647 -3.34191 -1.35457 0
M  V30 447 O 40.0687 -3.30269 -2.46974 0
M  V30 448 H 39.4097 -0.640281 -0.175887 0
M  V30 449 H 41.9397 -2.0442 0.0857224 0
M  V30 450 H 41.9497 -3.70331 -1.71228 0
M  V30 451 H 40.6247 -4.11036 -0.634218 0
M  V30 452 H 39.2017 -3.05841 -2.13344 0
M  V30 453 N 41.3868 0.248026 -1.55636 0
M  V30 454 C 42.6118 0.998028 -1.81808 0
M  V30 455 C 43.0368 1.78207 -0.601979 0
M  V30 456 O 42.3948 1.75653 0.448961 0
M  V30 457 C 42.4428 1.9125 -3.05705 0
M  V30 458 O 41.5468 3.00406 -2.82542 0
M  V30 459 H 40.8878 0.284045 -0.600179 0
M  V30 460 H 43.4178 0.269357 -2.02819 0
M  V30 461 H 43.4278 2.32737 -3.35108 0
M  V30 462 H 42.1028 1.33602 -3.93857 0
M  V30 463 H 40.6798 2.63056 -2.64303 0
M  V30 464 N 42.8649 1.48995 0.513639 0
M  V30 465 C 44.1129 1.57531 1.26604 0
M  V30 466 C 44.4339 0.258236 1.93283 0
M  V30 467 O 43.7039 -0.721502 1.8213 0
M  V30 468 H 42.2839 0.580387 0.470276 0
M  V30 469 H 44.9459 1.85552 0.596373 0
M  V30 470 H 44.0419 2.36486 2.03669 0
M  V30 471 N 44.343 -0.763751 1.37857 0
M  V30 472 C 45.306 -1.85889 1.34081 0
M  V30 473 C 46.306 -1.58949 0.243277 0
M  V30 474 O 47.496 -1.66882 0.499589 0
M  V30 475 C 44.628 -3.23176 1.08489 0
M  V30 476 H 45.821 -1.90648 2.31502 0
M  V30 477 H 43.374 -0.964367 1.23003 0
M  V30 478 H 44.109 -3.24091 0.116318 0
M  V30 479 H 43.894 -3.44124 1.8794 0
M  V30 480 H 45.384 -4.03254 1.08517 0
M  V30 481 N 45.8211 -1.22559 -0.990812 0
M  V30 482 C 46.7841 -0.998863 -2.0629 0
M  V30 483 C 47.7841 0.0354834 -1.60761 0
M  V30 484 O 48.9741 -0.203231 -1.7301 0
M  V30 485 C 46.1061 -0.509203 -3.37076 0
M  V30 486 H 47.2991 -1.95014 -2.27837 0
M  V30 487 H 44.8521 -1.04456 -1.16269 0
M  V30 488 H 45.5871 0.446335 -3.21214 0
M  V30 489 H 45.3721 -1.25547 -3.71457 0
M  V30 490 H 46.8621 -0.370888 -4.1595 0
M  V30 491 N 47.2992 1.18797 -1.03562 0
M  V30 492 C 48.2622 2.20464 -0.626769 0
M  V30 493 C 49.2622 1.57721 0.313173 0
M  V30 494 O 50.4522 1.73917 0.0992615 0
M  V30 495 C 47.5842 3.40802 0.0818498 0
M  V30 496 H 48.7772 2.58149 -1.5264 0
M  V30 497 H 46.3302 1.32593 -0.827578 0
M  V30 498 H 47.0652 3.08642 0.995518 0
M  V30 499 H 46.8502 3.8758 -0.593652 0
M  V30 500 H 48.3402 4.16092 0.354584 0
M  V30 501 N 48.7773 0.814389 1.34928 0
M  V30 502 C 49.7093 0.187834 2.28429 0
M  V30 503 C 50.7223 -0.617374 1.5064 0
M  V30 504 O 51.9113 -0.448454 1.72775 0
M  V30 505 C 49.0113 -0.755962 3.30361 0
M  V30 506 C 48.1843 0.00456686 4.374 0
M  V30 507 C 47.2433 -0.858876 5.19143 0
M  V30 508 O 46.2693 -0.306968 5.68372 0
M  V30 509 N 47.4713 -2.17988 5.38016 0
M  V30 510 H 50.2363 0.991105 2.82838 0
M  V30 511 H 47.7973 0.670561 1.4736 0
M  V30 512 H 49.7893 -1.338 3.81942 0
M  V30 513 H 48.3593 -1.46001 2.7641 0
M  V30 514 H 47.5793 0.767865 3.86649 0
M  V30 515 H 48.8673 0.528422 5.06049 0
M  V30 516 H 48.2653 -2.65212 4.99679 0
M  V30 517 H 46.8223 -2.71098 5.92747 0
M  V30 518 N 50.2554 -1.46986 0.568584 0
M  V30 519 C 51.6664 -1.86188 0.138219 0
M  V30 520 C 52.0174 -1.47388 -1.29504 0
M  V30 521 O 51.1424 -0.88219 -1.97602 0
M  V30 522 C 51.7374 -3.3792 0.244065 0
M  V30 523 C 50.2964 -3.76171 -0.131335 0
M  V30 524 C 49.4434 -2.71027 0.586465 0
M  V30 525 H 52.3944 -1.38342 0.777645 0
M  V30 526 H 52.4154 -3.76729 -0.534351 0
M  V30 527 H 51.9274 -3.66128 1.28731 0
M  V30 528 H 50.0284 -3.5358 -1.17526 0
M  V30 529 H 50.1414 -4.78523 0.235146 0
M  V30 530 H 48.5054 -2.54684 0.0282722 0
M  V30 531 H 49.2884 -3.02077 1.63109 0
M  V30 532 N 51.7335 -0.305618 -1.54608 0
M  V30 533 C 52.6635 0.561482 -2.26649 0
M  V30 534 C 53.6445 1.13415 -1.26772 0
M  V30 535 O 54.8295 1.16262 -1.55553 0
M  V30 536 C 51.9595 1.73122 -3.01075 0
M  V30 537 C 50.9135 1.2887 -4.08138 0
M  V30 538 C 50.2395 2.54396 -4.70305 0
M  V30 539 C 51.5395 0.416578 -5.20636 0
M  V30 540 H 53.2335 -0.0393902 -2.99374 0
M  V30 541 H 50.7795 -0.020385 -1.43986 0
M  V30 542 H 52.7325 2.34396 -3.50195 0
M  V30 543 H 51.4565 2.3584 -2.25936 0
M  V30 544 H 50.1155 0.698991 -3.59875 0
M  V30 545 H 49.7635 3.15439 -3.918 0
M  V30 546 H 49.4635 2.25486 -5.42614 0
M  V30 547 H 50.9875 3.16464 -5.2219 0
M  V30 548 H 52.4015 0.935116 -5.65622 0
M  V30 549 H 50.7985 0.221046 -5.99693 0
M  V30 550 H 51.8685 -0.557162 -4.81688 0
M  V30 551 N 53.2116 1.57565 -0.0334293 0
M  V30 552 C 54.6226 1.79746 0.504798 0
M  V30 553 C 54.9736 0.944091 1.71992 0
M  V30 554 O 54.0986 0.155694 2.15839 0
M  V30 555 C 54.6936 3.25997 0.922567 0
M  V30 556 C 53.2526 3.49159 1.40588 0
M  V30 557 C 52.3996 2.74785 0.372633 0
M  V30 558 H 55.3506 1.56565 -0.259436 0
M  V30 559 H 55.3716 3.35945 1.78666 0
M  V30 560 H 54.8836 3.88081 0.0379825 0
M  V30 561 H 52.9846 2.92332 2.31025 0
M  V30 562 H 53.0976 4.57873 1.41028 0
M  V30 563 H 51.4616 2.40391 0.841672 0
M  V30 564 H 52.2446 3.39587 -0.503559 0
M  V30 565 N 54.6897 -0.239769 1.55765 0
M  V30 566 C 55.9667 -0.990056 1.68693 0
M  V30 567 C 56.3467 -2.03107 0.5754 0
M  V30 568 O 55.6947 -2.24604 -0.42017 0
M  V30 569 C 55.9047 -1.61696 3.09282 0
M  V30 570 C 57.2527 -2.11613 3.6811 0
M  V30 571 O 58.2767 -1.71624 3.12127 0
M  V30 572 O 57.1357 -2.85057 4.66267 0
M  V30 573 H 54.2297 -0.461299 0.686391 0
M  V30 574 H 56.7757 -0.232991 1.68093 0
M  V30 575 H 55.5477 -0.864357 3.81634 0
M  V30 576 H 55.1707 -2.44005 3.13923 0
M  V30 577 N 56.1678 -1.49265 -0.50573 0
M  V30 578 C 57.4078 -1.60128 -1.27038 0
M  V30 579 C 57.7718 -0.279557 -1.89954 0
M  V30 580 O 58.9728 -0.263329 -2.67507 0
M  V30 581 C 57.2438 -2.72507 -2.31246 0
M  V30 582 S 58.8028 -3.0329 -3.17113 0
M  V30 583 H 55.6208 -0.564863 -0.4318 0
M  V30 584 H 58.2228 -1.86902 -0.573397 0
M  V30 585 H 56.9268 -3.67068 -1.83546 0
M  V30 586 H 56.4578 -2.4771 -3.05619 0
M  V30 587 H 58.4728 -2.44448 -4.31809 0
M  V30 588 N 57.6459 0.756429 -1.3826 0
M  V30 589 C 58.8859 1.52833 -1.35725 0
M  V30 590 C 59.2499 1.91926 0.0534106 0
M  V30 591 O 60.4509 2.68028 0.203613 0
M  V30 592 C 58.7219 2.74919 -2.28373 0
M  V30 593 S 60.2809 3.64817 -2.43832 0
M  V30 594 H 57.0989 0.523043 -0.481608 0
M  V30 595 H 59.7009 0.888212 -1.74158 0
M  V30 596 H 58.4049 2.44304 -3.29763 0
M  V30 597 H 57.9359 3.43878 -1.91079 0
M  V30 598 H 59.9509 4.676 -1.66027 0
M  V30 599 N 59.124 1.23083 0.984299 0
M  V30 600 C 60.54 0.992637 1.24975 0
M  V30 601 C 60.74 -0.308618 1.99123 0
M  V30 602 O 59.796 -1.02905 2.30579 0
M  V30 603 C 61.109 2.19698 2.05312 0
M  V30 604 C 62.657 2.24147 2.18465 0
M  V30 605 C 63.132 3.44157 3.02192 0
M  V30 606 N 64.623 3.44372 3.09777 0
M  V30 607 C 65.358 4.33886 3.74874 0
M  V30 608 N 64.854 5.3363 4.41827 0
M  V30 609 N 66.647 4.21639 3.71721 0
M  V30 610 H 58.798 2.06731 0.487453 0
M  V30 611 H 61.061 0.906339 0.277944 0
M  V30 612 H 60.767 3.1411 1.58201 0
M  V30 613 H 60.641 2.20465 3.06064 0
M  V30 614 H 63.028 1.30277 2.64786 0
M  V30 615 H 63.109 2.27415 1.17115 0
M  V30 616 H 62.753 4.38332 2.56568 0
M  V30 617 H 62.683 3.3813 4.03702 0
M  V30 618 H 65.174 2.72201 2.62135 0
M  V30 619 H 65.487 5.98196 4.89266 0
M  V30 620 H 63.832 5.37534 4.40548 0
M  V30 621 H 67.023 3.42962 3.18582 0
M  V30 622 H 67.196 4.91604 4.22173 0
M  V30 623 N 60.6021 -1.18246 1.0419 0
M  V30 624 C 61.5341 -2.2142 0.592088 0
M  V30 625 C 62.5471 -1.59233 -0.338909 0
M  V30 626 O 63.7361 -1.78002 -0.133231 0
M  V30 627 C 60.8361 -3.38546 -0.154854 0
M  V30 628 C 60.0091 -4.3031 0.784328 0
M  V30 629 C 59.0681 -5.26138 0.0804583 0
M  V30 630 O 58.0941 -5.64738 0.711292 0
M  V30 631 N 59.2961 -5.68261 -1.18574 0
M  V30 632 H 62.0611 -2.60636 1.47949 0
M  V30 633 H 59.6221 -1.33044 0.922544 0
M  V30 634 H 61.6141 -3.99678 -0.635606 0
M  V30 635 H 60.1841 -2.98012 -0.943811 0
M  V30 636 H 59.4041 -3.66764 1.44491 0
M  V30 637 H 60.6921 -4.8852 1.42218 0
M  V30 638 H 60.0901 -5.38957 -1.71876 0
M  V30 639 H 58.6471 -6.31584 -1.61074 0
M  V30 640 N 62.0802 -0.821533 -1.34494 0
M  V30 641 C 63.0272 -0.240397 -2.29545 0
M  V30 642 C 63.9972 0.634031 -1.53523 0
M  V30 643 O 65.1822 0.575966 -1.81899 0
M  V30 644 C 62.3222 0.592869 -3.39969 0
M  V30 645 C 61.4352 -0.30365 -4.30932 0
M  V30 646 C 60.5702 0.539049 -5.28458 0
M  V30 647 C 59.6092 -0.356942 -6.11058 0
M  V30 648 N 58.7462 0.446603 -7.00678 0
M  V30 649 H 63.5862 -1.05632 -2.7865 0
M  V30 650 H 61.1232 -0.532413 -1.37127 0
M  V30 651 H 63.0812 1.09129 -4.02675 0
M  V30 652 H 61.7112 1.37392 -2.92102 0
M  V30 653 H 60.7632 -0.920276 -3.691 0
M  V30 654 H 62.0752 -0.992661 -4.88823 0
M  V30 655 H 61.2292 1.102 -5.96608 0
M  V30 656 H 59.9682 1.26157 -4.71101 0
M  V30 657 H 58.9732 -0.932047 -5.41842 0
M  V30 658 H 60.1982 -1.07755 -6.70497 0
M  V30 659 H 58.1442 1.15282 -6.45791 0
M  V30 660 H 58.0612 -0.184048 -7.55776 0
M  V30 661 H 59.3292 0.992352 -7.73158 0
M  V30 662 N 63.5583 1.46682 -0.576371 0
M  V30 663 C 64.7863 2.06798 -0.0649635 0
M  V30 664 C 65.2013 1.42612 1.23723 0
M  V30 665 O 64.5583 0.529203 1.74659 0
M  V30 666 C 64.6093 3.6132 0.114202 0
M  V30 667 O 64.3303 4.23104 -1.13644 0
M  V30 668 C 65.8313 4.38349 0.66069 0
M  V30 669 H 63.0513 0.668778 -0.0545616 0
M  V30 670 H 65.5953 1.88404 -0.795237 0
M  V30 671 H 63.7503 3.79162 0.794673 0
M  V30 672 H 64.1643 5.15894 -0.946253 0
M  V30 673 H 65.6383 5.47081 0.73526 0
M  V30 674 H 66.1153 4.05953 1.67627 0
M  V30 675 H 66.7213 4.25297 0.0152951 0
M  V30 676 N 65.0364 0.313813 1.54444 0
M  V30 677 C 66.2764 -0.292389 2.02298 0
M  V30 678 C 66.6404 -1.50105 1.19719 0
M  V30 679 O 67.8414 -2.17947 1.5733 0
M  V30 680 C 66.1124 -0.627682 3.51845 0
M  V30 681 S 67.6714 -1.21493 4.21646 0
M  V30 682 H 64.4894 -0.0890247 0.705405 0
M  V30 683 H 67.0914 0.444668 1.90376 0
M  V30 684 H 65.7954 0.260265 4.09574 0
M  V30 685 H 65.3264 -1.39519 3.67829 0
M  V30 686 H 67.3414 -2.5022 4.28491 0
M  V30 687 N 66.5145 -1.57545 0.0417849 0
M  V30 688 C 67.7395 -1.97035 -0.647455 0
M  V30 689 C 68.1645 -0.918775 -1.64135 0
M  V30 690 O 67.5225 0.119006 -1.80909 0
M  V30 691 C 67.5705 -3.35609 -1.31905 0
M  V30 692 O 66.6745 -3.3287 -2.43457 0
M  V30 693 H 66.0155 -0.64211 -0.169086 0
M  V30 694 H 68.5455 -2.04318 0.107399 0
M  V30 695 H 68.5555 -3.72126 -1.67291 0
M  V30 696 H 67.2305 -4.11685 -0.590586 0
M  V30 697 H 65.8075 -3.08087 -2.10088 0
M  V30 698 N 67.9926 0.231505 -1.5589 0
M  V30 699 C 69.2326 0.964533 -1.80211 0
M  V30 700 C 69.5966 1.81926 -0.613744 0
M  V30 701 O 70.7976 2.58526 -0.736045 0
M  V30 702 C 69.0686 1.78956 -3.09369 0
M  V30 703 S 70.6276 2.57959 -3.54969 0
M  V30 704 H 67.4456 0.324173 -0.632798 0
M  V30 705 H 70.0476 0.230985 -1.94131 0
M  V30 706 H 68.7516 1.15161 -3.93911 0
M  V30 707 H 68.2826 2.56559 -2.9823 0
M  V30 708 H 70.2976 3.81309 -3.17519 0
M  V30 709 N 69.4707 1.49531 0.497807 0
M  V30 710 C 70.8867 1.36365 0.829266 0
M  V30 711 C 71.0867 0.399184 1.97506 0
M  V30 712 O 70.1427 -0.167977 2.51941 0
M  V30 713 C 71.4557 2.77153 1.16647 0
M  V30 714 C 73.0037 2.85877 1.27449 0
M  V30 715 C 73.4787 4.2744 1.64497 0
M  V30 716 N 74.9697 4.30265 1.7154 0
M  V30 717 C 75.7047 5.3677 2.01656 0
M  V30 718 N 75.2007 6.53516 2.29976 0
M  V30 719 N 76.9937 5.24189 2.02934 0
M  V30 720 H 69.1447 2.10831 -0.257703 0
M  V30 721 H 71.4077 0.946534 -0.0527091 0
M  V30 722 H 71.1137 3.49442 0.397872 0
M  V30 723 H 70.9877 3.12722 2.10915 0
M  V30 724 H 73.3747 2.13824 2.0338 0
M  V30 725 H 73.4557 2.53887 0.312244 0
M  V30 726 H 73.0997 5.00021 0.891151 0
M  V30 727 H 73.0297 4.56896 2.61827 0
M  V30 728 H 75.5207 3.4607 1.51802 0
M  V30 729 H 75.8337 7.30506 2.52153 0
M  V30 730 H 74.1787 6.56737 2.27425 0
M  V30 731 H 77.3697 4.31988 1.80289 0
M  V30 732 H 77.5427 6.07286 2.26071 0
M  V30 733 N 70.9488 -0.749086 1.3866 0
M  V30 734 C 71.8788 -1.8764 1.38973 0
M  V30 735 C 72.8598 -1.68178 0.255004 0
M  V30 736 O 74.0448 -1.88704 0.458754 0
M  V30 737 C 71.1748 -3.25222 1.21851 0
M  V30 738 C 70.1288 -3.59295 2.32575 0
M  V30 739 C 69.4548 -4.95663 2.00555 0
M  V30 740 C 70.7548 -3.63709 3.7485 0
M  V30 741 H 72.4488 -1.87635 2.3331 0
M  V30 742 H 69.9948 -0.901329 1.12303 0
M  V30 743 H 71.9478 -4.03746 1.20695 0
M  V30 744 H 70.6718 -3.25719 0.239775 0
M  V30 745 H 69.3308 -2.83093 2.32925 0
M  V30 746 H 68.9788 -4.92724 1.01154 0
M  V30 747 H 68.6788 -5.19429 2.74714 0
M  V30 748 H 70.2028 -5.7656 2.01024 0
M  V30 749 H 71.6168 -4.32338 3.76506 0
M  V30 750 H 70.0138 -3.98986 4.48252 0
M  V30 751 H 71.0838 -2.63834 4.06841 0
M  V30 752 N 72.4269 -1.23603 -0.977757 0
M  V30 753 C 73.6569 -1.09487 -1.75203 0
M  V30 754 C 74.0649 0.356321 -1.85814 0
M  V30 755 O 73.4079 1.25816 -1.33851 0
M  V30 756 C 73.4699 -1.64905 -3.19447 0
M  V30 757 C 73.1339 -3.13688 -3.32338 0
M  V30 758 C 74.1309 -4.10953 -3.18455 0
M  V30 759 C 71.8159 -3.53449 -3.56902 0
M  V30 760 C 73.8099 -5.45962 -3.28944 0
M  V30 761 C 71.4969 -4.88602 -3.6703 0
M  V30 762 C 72.4949 -5.84668 -3.53062 0
M  V30 763 O 72.1829 -7.17365 -3.62826 0
M  V30 764 H 71.9149 -0.38367 -0.556573 0
M  V30 765 H 74.4689 -1.6398 -1.23693 0
M  V30 766 H 72.6989 -1.04835 -3.72218 0
M  V30 767 H 74.3879 -1.46226 -3.78646 0
M  V30 768 H 75.1539 -3.81577 -2.99372 0
M  V30 769 H 71.0329 -2.79188 -3.66844 0
M  V30 770 H 74.5769 -6.20925 -3.17958 0
M  V30 771 H 70.4739 -5.17653 -3.85623 0
M  V30 772 H 71.2419 -7.2515 -3.79605 0
M  V30 773 N 73.905 1.17692 -1.04816 0
M  V30 774 C 74.815 2.25229 -0.65643 0
M  V30 775 C 75.831 1.71018 0.320761 0
M  V30 776 O 77.007 2.00649 0.173805 0
M  V30 777 C 74.072 3.46684 -0.0332629 0
M  V30 778 C 73.133 4.15997 -1.06042 0
M  V30 779 C 72.366 5.31654 -0.466893 0
M  V30 780 O 72.589 5.65777 0.724758 0
M  V30 781 O 71.523 5.89831 -1.1993 0
M  V30 782 H 75.349 2.61016 -1.55255 0
M  V30 783 H 72.934 1.24919 -0.81949 0
M  V30 784 H 74.816 4.20234 0.313256 0
M  V30 785 H 73.491 3.12703 0.836566 0
M  V30 786 H 72.398 3.44482 -1.45886 0
M  V30 787 H 73.731 4.53996 -1.90127 0
M  V30 788 N 75.3831 0.828654 1.34056 0
M  V30 789 C 76.3131 0.269443 2.3194 0
M  V30 790 C 77.2941 -0.617247 1.58506 0
M  V30 791 O 78.4791 -0.542931 1.86456 0
M  V30 792 C 75.6091 -0.564793 3.42677 0
M  V30 793 C 74.5631 0.225241 4.27407 0
M  V30 794 C 73.8891 -0.7321 5.29664 0
M  V30 795 C 75.1891 1.43663 5.02154 0
M  V30 796 H 76.8831 1.08728 2.7896 0
M  V30 797 H 74.4291 0.524283 1.34117 0
M  V30 798 H 76.3821 -0.966233 4.10173 0
M  V30 799 H 75.1061 -1.41574 2.9432 0
M  V30 800 H 73.7651 0.608117 3.61521 0
M  V30 801 H 73.4131 -1.57916 4.77568 0
M  V30 802 H 73.1131 -0.20767 5.87233 0
M  V30 803 H 74.6371 -1.13128 6.00029 0
M  V30 804 H 76.0511 1.1089 5.62473 0
M  V30 805 H 74.4481 1.89711 5.69324 0
M  V30 806 H 75.5181 2.21181 4.31517 0
M  V30 807 N 76.8612 -1.46375 0.584142 0
M  V30 808 C 77.7912 -2.33103 -0.136037 0
M  V30 809 C 78.7722 -1.45431 -0.882255 0
M  V30 810 O 79.9572 -1.74246 -0.857434 0
M  V30 811 C 77.0872 -3.27731 -1.14933 0
M  V30 812 C 76.0412 -4.24855 -0.517862 0
M  V30 813 C 75.3672 -5.09001 -1.63773 0
M  V30 814 C 76.6672 -5.19439 0.545886 0
M  V30 815 H 78.3612 -2.93568 0.588086 0
M  V30 816 H 75.9072 -1.41166 0.284259 0
M  V30 817 H 77.8602 -3.87261 -1.66153 0
M  V30 818 H 76.5842 -2.65377 -1.90375 0
M  V30 819 H 75.2432 -3.6659 -0.0267361 0
M  V30 820 H 74.8912 -4.43031 -2.38185 0
M  V30 821 H 74.5912 -5.74777 -1.22085 0
M  V30 822 H 76.1152 -5.71396 -2.15266 0
M  V30 823 H 77.5292 -5.73177 0.118704 0
M  V30 824 H 75.9262 -5.93566 0.88317 0
M  V30 825 H 76.9962 -4.63285 1.43162 0
M  V30 826 N 78.3393 -0.321999 -1.54275 0
M  V30 827 C 79.2893 0.560185 -2.21011 0
M  V30 828 C 80.2733 1.08283 -1.19011 0
M  V30 829 O 81.4653 1.02011 -1.44647 0
M  V30 830 C 78.5943 1.72137 -2.97025 0
M  V30 831 C 77.6803 1.21369 -4.06363 0
M  V30 832 N 78.0713 0.425566 -5.04007 0
M  V30 833 C 76.3693 1.49255 -4.20284 0
M  V30 834 C 77.0703 0.152601 -5.815 0
M  V30 835 N 76.0463 0.738294 -5.38563 0
M  V30 836 H 79.8483 -0.049265 -2.93859 0
M  V30 837 H 77.3623 -0.127779 -1.61897 0
M  V30 838 H 79.3593 2.36512 -3.43319 0
M  V30 839 H 78.0193 2.33431 -2.25699 0
M  V30 840 H 79.0303 0.068551 -5.17855 0
M  V30 841 H 75.7073 2.11145 -3.60172 0
M  V30 842 H 77.0973 -0.481764 -6.70171 0
M  V30 843 N 79.8174 1.5752 -0.0501392 0
M  V30 844 C 81.0654 1.9227 0.622642 0
M  V30 845 C 81.3864 0.929083 1.71444 0
M  V30 846 O 80.6564 -0.0262186 1.95882 0
M  V30 847 H 79.2364 0.709739 0.232981 0
M  V30 848 H 81.8984 1.94628 -0.102898 0
M  V30 849 H 80.9944 2.93479 1.06191 0
M  V30 850 N 81.2955 -0.223234 1.56011 0
M  V30 851 C 82.2585 -1.26014 1.9145 0
M  V30 852 C 83.2585 -1.3989 0.792937 0
M  V30 853 O 84.4485 -1.38184 1.0607 0
M  V30 854 C 81.5805 -2.63422 2.16383 0
M  V30 855 H 82.7735 -0.95796 2.84189 0
M  V30 856 H 80.3265 -0.463576 1.49267 0
M  V30 857 H 81.0615 -2.98741 1.2619 0
M  V30 858 H 80.8465 -2.54728 2.98088 0
M  V30 859 H 82.3365 -3.38249 2.44903 0
M  V30 860 N 82.7736 -1.49793 -0.48987 0
M  V30 861 C 84.0216 -1.59525 -1.24081 0
M  V30 862 C 84.3426 -0.288953 -1.92847 0
M  V30 863 O 83.6126 0.692436 -1.83254 0
M  V30 864 H 82.1926 -0.587796 -0.460983 0
M  V30 865 H 84.8546 -1.86477 -0.566778 0
M  V30 866 H 83.9506 -2.39696 -1.99881 0
M  V30 867 N 84.2517 0.741722 -1.39055 0
M  V30 868 C 85.1997 1.87702 -1.3737 0
M  V30 869 C 86.1937 1.67427 -0.257812 0
M  V30 870 O 87.3997 1.7485 -0.427489 0
M  V30 871 H 83.7747 0.617757 -0.428812 0
M  V30 872 H 85.7457 1.86239 -2.33147 0
M  V30 873 C 84.4947 3.25315 -1.22741 0
M  V30 874 H 83.8177 3.41509 -2.07873 0
M  V30 875 H 85.2577 4.04964 -1.25618 0
M  V30 876 C 83.7167 3.36838 0.0647316 0
M  V30 877 O 84.2467 3.88073 1.03741 0
M  V30 878 N 82.4527 2.90329 0.125544 0
M  V30 879 H 81.9997 2.48823 -0.666682 0
M  V30 880 H 81.9577 2.98418 0.989639 0
M  V30 881 N 85.7298 1.2412 0.971189 0
M  V30 882 C 86.6798 0.997551 2.05019 0
M  V30 883 C 87.6638 -0.0597747 1.60789 0
M  V30 884 O 88.8558 0.153516 1.76333 0
M  V30 885 C 85.9848 0.600557 3.38006 0
M  V30 886 C 85.0708 1.69377 3.88809 0
M  V30 887 N 85.4618 2.92586 4.12586 0
M  V30 888 C 83.7598 1.57048 4.17435 0
M  V30 889 C 84.4608 3.63431 4.54195 0
M  V30 890 N 83.4368 2.90979 4.59165 0
M  V30 891 H 87.2388 1.93316 2.21374 0
M  V30 892 H 84.7528 1.14194 1.1547 0
M  V30 893 H 86.7498 0.40725 4.14906 0
M  V30 894 H 85.4098 -0.327903 3.2304 0
M  V30 895 H 86.4208 3.288 4.00139 0
M  V30 896 H 83.0978 0.709798 4.11422 0
M  V30 897 H 84.4878 4.69102 4.81033 0
M  V30 898 N 87.2079 -1.17134 1.05439 0
M  V30 899 C 88.1709 -2.19439 0.661764 0
M  V30 900 C 89.1709 -1.58199 -0.288042 0
M  V30 901 O 90.3609 -1.74053 -0.0715803 0
M  V30 902 C 87.4929 -3.40889 -0.0276209 0
M  V30 903 H 88.6859 -2.55688 1.56728 0
M  V30 904 H 86.2389 -1.31259 0.848567 0
M  V30 905 H 86.9739 -3.10187 -0.94629 0
M  V30 906 H 86.7589 -3.86586 0.655238 0
M  V30 907 H 88.2489 -4.16603 -0.288342 0
M  V30 908 N 88.686 -0.835752 -1.33615 0
M  V30 909 C 89.649 -0.272 -2.2758 0
M  V30 910 C 90.649 0.557487 -1.50827 0
M  V30 911 O 91.839 0.37173 -1.70188 0
M  V30 912 C 88.971 0.617173 -3.35267 0
M  V30 913 H 90.164 -1.10111 -2.78954 0
M  V30 914 H 87.717 -0.608594 -1.43965 0
M  V30 915 H 88.452 1.46884 -2.89129 0
M  V30 916 H 88.237 0.0237066 -3.92093 0
M  V30 917 H 89.727 1.005 -4.05326 0
M  V30 918 N 90.1641 1.46063 -0.591896 0
M  V30 919 C 91.4121 2.01938 -0.0808391 0
M  V30 920 C 91.7331 1.46475 1.28725 0
M  V30 921 O 91.0031 0.652944 1.84698 0
M  V30 922 H 89.5831 0.746516 -0.0268938 0
M  V30 923 H 92.2451 1.79055 -0.769752 0
M  V30 924 H 91.3411 3.12094 -0.0187578 0
M  V30 925 N 91.6422 0.330177 1.54103 0
M  V30 926 C 92.8912 -0.271336 1.99867 0
M  V30 927 C 93.2042 -1.52723 1.22209 0
M  V30 928 O 94.4102 -2.20515 1.58383 0
M  V30 929 C 92.8662 -0.534032 3.55916 0
M  V30 930 C 92.4742 0.705193 4.42415 0
M  V30 931 C 94.2182 -1.09514 4.1013 0
M  V30 932 C 92.1252 0.414035 5.89949 0
M  V30 933 H 91.0552 -0.105166 0.74663 0
M  V30 934 H 93.7062 0.443429 1.78062 0
M  V30 935 H 92.0882 -1.30915 3.73734 0
M  V30 936 H 93.2622 1.4804 4.36372 0
M  V30 937 H 91.5772 1.18698 3.99124 0
M  V30 938 H 94.1742 -1.3277 5.17954 0
M  V30 939 H 94.5172 -2.04656 3.62521 0
M  V30 940 H 95.0502 -0.381038 3.95971 0
M  V30 941 H 91.7892 1.33481 6.41766 0
M  V30 942 H 91.3092 -0.323336 5.98928 0
M  V30 943 H 92.9882 0.0263105 6.46995 0
M  V30 944 N 93.1203 -1.57491 0.0584922 0
M  V30 945 C 94.0503 -2.14988 -0.911178 0
M  V30 946 C 95.0313 -1.07343 -1.31952 0
M  V30 947 O 96.2163 -1.35318 -1.39294 0
M  V30 948 C 93.3463 -2.70078 -2.18347 0
M  V30 949 C 92.3003 -3.82771 -1.91495 0
M  V30 950 C 91.6263 -4.24408 -3.25241 0
M  V30 951 C 92.9263 -5.07592 -1.23075 0
M  V30 952 H 94.6203 -2.96263 -0.432246 0
M  V30 953 H 92.1663 -1.42512 -0.206469 0
M  V30 954 H 94.1193 -3.08943 -2.86587 0
M  V30 955 H 92.8433 -1.86005 -2.68458 0
M  V30 956 H 91.5023 -3.44389 -1.25664 0
M  V30 957 H 91.1503 -3.37275 -3.73168 0
M  V30 958 H 90.8503 -5.00366 -3.08071 0
M  V30 959 H 92.3743 -4.65879 -3.94701 0
M  V30 960 H 93.7883 -5.43857 -1.81362 0
M  V30 961 H 92.1853 -5.88741 -1.16207 0
M  V30 962 H 93.2553 -4.84454 -0.207847 0
M  V30 963 N 94.5984 0.214957 -1.56127 0
M  V30 964 C 95.8264 0.955092 -1.83536 0
M  V30 965 C 96.2414 1.77677 -0.638472 0
M  V30 966 O 95.5984 1.78219 0.392968 0
M  V30 967 C 95.6494 1.86734 -3.09536 0
M  V30 968 O 95.3704 1.07887 -4.24608 0
M  V30 969 C 96.8714 2.72082 -3.4998 0
M  V30 970 H 94.0914 0.279611 -0.609966 0
M  V30 971 H 96.6354 0.228197 -2.03223 0
M  V30 972 H 94.7904 2.5481 -2.91806 0
M  V30 973 H 95.2044 1.69872 -4.9623 0
M  V30 974 H 96.6784 3.31782 -4.41163 0
M  V30 975 H 97.1554 3.44806 -2.7204 0
M  V30 976 H 97.7614 2.09409 -3.70173 0
M  V30 977 N 96.0765 1.50051 0.48192 0
M  V30 978 C 97.0065 1.71046 1.58951 0
M  V30 979 C 97.9875 0.559288 1.60642 0
M  V30 980 O 99.1725 0.797243 1.77081 0
M  V30 981 C 96.3025 1.79462 2.97339 0
M  V30 982 C 95.2565 2.94558 3.10515 0
M  V30 983 C 94.5825 2.88105 4.50444 0
M  V30 984 C 95.8825 4.35227 2.88747 0
M  V30 985 H 97.5765 2.6378 1.41635 0
M  V30 986 H 95.1225 1.26936 0.679942 0
M  V30 987 H 97.0755 1.92734 3.74742 0
M  V30 988 H 95.7995 0.833412 3.15788 0
M  V30 989 H 94.4585 2.80918 2.35543 0
M  V30 990 H 94.1065 1.89853 4.65795 0
M  V30 991 H 93.8065 3.65366 4.60197 0
M  V30 992 H 95.3305 3.03412 5.29881 0
M  V30 993 H 96.7445 4.49449 3.55905 0
M  V30 994 H 95.1415 5.13856 3.09955 0
M  V30 995 H 96.2115 4.48347 1.84696 0
M  V30 996 N 97.5546 -0.734337 1.39446 0
M  V30 997 C 98.8026 -1.49096 1.36436 0
M  V30 998 C 99.1236 -1.94961 -0.0388255 0
M  V30 999 O 98.3936 -1.69033 -0.990191 0
M  V30 1000 H 96.9736 -0.5531 0.502085 0
M  V30 1001 H 99.6356 -0.871725 1.74319 0
M  V30 1002 H 98.7316 -2.37276 2.02747 0
M  V30 1003 N 99.0327 -1.24633 -0.964593 0
M  V30 1004 C 99.9797 -1.04144 -2.05968 0
M  V30 1005 C 100.95 0.046262 -1.66036 0
M  V30 1006 O 102.135 -0.108972 -1.90489 0
M  V30 1007 C 99.2747 -0.65563 -3.38815 0
M  V30 1008 C 98.3877 -1.81714 -3.91923 0
M  V30 1009 C 97.5227 -1.37662 -5.13052 0
M  V30 1010 C 96.5617 -2.50788 -5.58365 0
M  V30 1011 N 95.6987 -2.07582 -6.70712 0
M  V30 1012 H 100.539 -1.9787 -2.22827 0
M  V30 1013 H 98.0757 -0.9855 -1.09208 0
M  V30 1014 H 100.034 -0.412954 -4.15151 0
M  V30 1015 H 98.6637 0.244627 -3.21872 0
M  V30 1016 H 97.7157 -2.1734 -3.12198 0
M  V30 1017 H 99.0277 -2.66705 -4.21509 0
M  V30 1018 H 98.1817 -1.093 -5.96773 0
M  V30 1019 H 96.9207 -0.497293 -4.85158 0
M  V30 1020 H 95.9257 -2.79906 -4.73215 0
M  V30 1021 H 97.1507 -3.39283 -5.88272 0
M  V30 1022 H 95.0967 -1.22051 -6.44546 0
M  V30 1023 H 95.0137 -2.86125 -6.99763 0
M  V30 1024 H 96.2817 -1.82369 -7.57867 0
M  V30 1025 N 100.511 1.16574 -1.06058 0
M  V30 1026 C 101.927 1.3904 -0.783585 0
M  V30 1027 C 102.127 1.91784 0.618145 0
M  V30 1028 O 101.183 2.11511 1.37911 0
M  V30 1029 C 102.496 2.37329 -1.84649 0
M  V30 1030 C 104.044 2.51018 -1.86973 0
M  V30 1031 C 104.519 3.52588 -2.92311 0
M  V30 1032 N 106.01 3.60113 -2.91329 0
M  V30 1033 C 106.745 4.38486 -3.69482 0
M  V30 1034 N 106.241 5.20302 -4.57447 0
M  V30 1035 N 108.034 4.33446 -3.57885 0
M  V30 1036 H 100.185 0.806725 -1.96483 0
M  V30 1037 H 102.448 0.417117 -0.851303 0
M  V30 1038 H 102.154 2.05663 -2.85299 0
M  V30 1039 H 102.028 3.36946 -1.6955 0
M  V30 1040 H 104.415 2.81989 -0.869827 0
M  V30 1041 H 104.496 1.51445 -2.0615 0
M  V30 1042 H 104.14 3.22354 -3.92492 0
M  V30 1043 H 104.07 4.51886 -2.70383 0
M  V30 1044 H 106.561 3.01707 -2.27555 0
M  V30 1045 H 106.874 5.77311 -5.13743 0
M  V30 1046 H 105.219 5.19653 -4.61503 0
M  V30 1047 H 108.41 3.68586 -2.88551 0
M  V30 1048 H 108.583 4.94279 -4.19037 0
M  V30 1049 N 101.989 0.842826 1.3317 0
M  V30 1050 C 103.405 0.531128 1.50503 0
M  V30 1051 C 103.605 -0.940734 1.78192 0
M  V30 1052 O 102.661 -1.72436 1.84451 0
M  V30 1053 C 103.974 1.40789 2.65705 0
M  V30 1054 C 105.522 1.40708 2.79589 0
M  V30 1055 C 105.997 2.26878 3.97857 0
M  V30 1056 N 107.488 2.24609 4.05099 0
M  V30 1057 C 108.223 2.88019 4.95815 0
M  V30 1058 N 107.719 3.60496 5.9162 0
M  V30 1059 N 109.512 2.77469 4.88843 0
M  V30 1060 H 101.663 1.79557 1.1346 0
M  V30 1061 H 103.926 0.766267 0.558156 0
M  V30 1062 H 103.632 2.454 2.51936 0
M  V30 1063 H 103.506 1.08677 3.61205 0
M  V30 1064 H 105.893 0.368668 2.92788 0
M  V30 1065 H 105.974 1.76829 1.84838 0
M  V30 1066 H 105.618 3.3078 3.85418 0
M  V30 1067 H 105.548 1.88096 4.91861 0
M  V30 1068 H 108.039 1.71906 3.36536 0
M  V30 1069 H 108.352 4.06076 6.57512 0
M  V30 1070 H 106.697 3.64604 5.91683 0
M  V30 1071 H 109.888 2.20406 4.12963 0
M  V30 1072 H 110.061 3.2717 5.59342 0
M  V30 1073 N 103.467 -1.45747 0.599634 0
M  V30 1074 C 104.692 -2.07178 0.0960198 0
M  V30 1075 C 105.117 -1.44268 -1.207 0
M  V30 1076 O 104.475 -0.532503 -1.73303 0
M  V30 1077 C 104.523 -3.60579 -0.0385348 0
M  V30 1078 O 103.627 -3.97713 -1.0908 0
M  V30 1079 H 102.968 -0.660251 0.0704593 0
M  V30 1080 H 105.498 -1.87124 0.827385 0
M  V30 1081 H 105.508 -4.07298 -0.239304 0
M  V30 1082 H 104.183 -4.05756 0.912947 0
M  V30 1083 H 102.76 -3.62678 -0.867135 0
M  V30 1084 N 104.945 -0.338344 -1.53925 0
M  V30 1085 C 106.193 0.259245 -2.0043 0
M  V30 1086 C 106.514 1.51484 -1.22791 0
M  V30 1087 O 105.784 1.93037 -0.33368 0
M  V30 1088 H 104.364 0.0987845 -0.740439 0
M  V30 1089 H 107.026 -0.458302 -1.89435 0
M  V30 1090 H 106.122 0.505334 -3.07982 0
M  V30 1091 N 106.423 1.57458 -0.0668435 0
M  V30 1092 C 107.834 1.80776 0.466558 0
M  V30 1093 C 108.185 0.980361 1.69951 0
M  V30 1094 O 107.31 0.201441 2.1546 0
M  V30 1095 C 107.905 3.27881 0.85321 0
M  V30 1096 C 106.464 3.52062 1.3315 0
M  V30 1097 C 105.611 2.75513 0.314264 0
M  V30 1098 H 108.562 1.5598 -0.292588 0
M  V30 1099 H 108.583 3.39659 1.715 0
M  V30 1100 H 108.095 3.88075 -0.0443439 0
M  V30 1101 H 106.196 2.97167 2.24772 0
M  V30 1102 H 106.309 4.60762 1.31285 0
M  V30 1103 H 104.673 2.42123 0.790492 0
M  V30 1104 H 105.456 3.38442 -0.575477 0
M  V30 1105 N 107.901 -0.206675 1.56239 0
M  V30 1106 C 109.312 -0.772383 1.69974 0
M  V30 1107 C 109.663 -1.84353 0.671436 0
M  V30 1108 O 108.788 -2.15695 -0.174491 0
M  V30 1109 C 109.383 -1.40779 3.08167 0
M  V30 1110 C 107.942 -1.92072 3.23706 0
M  V30 1111 C 107.089 -0.786347 2.65917 0
M  V30 1112 H 110.04 0.0182223 1.5869 0
M  V30 1113 H 110.061 -2.27696 3.04852 0
M  V30 1114 H 109.573 -0.627958 3.82986 0
M  V30 1115 H 107.674 -2.7281 2.53782 0
M  V30 1116 H 107.787 -2.09046 4.31087 0
M  V30 1117 H 106.151 -1.1976 2.24788 0
M  V30 1118 H 106.934 -0.0189416 3.43295 0
M  V30 1119 N 109.379 -1.50304 -0.473955 0
M  V30 1120 C 110.627 -1.60832 -1.22382 0
M  V30 1121 C 110.948 -0.30939 -1.9253 0
M  V30 1122 O 110.218 0.67296 -1.83978 0
M  V30 1123 H 108.798 -0.592652 -0.454723 0
M  V30 1124 H 111.46 -1.87068 -0.546968 0
M  V30 1125 H 110.556 -2.41803 -1.97327 0
M  V30 1126 N 110.857 0.726932 -1.39834 0
M  V30 1127 C 111.787 1.85405 -1.41941 0
M  V30 1128 C 112.768 1.67751 -0.281728 0
M  V30 1129 O 113.953 1.8795 -0.488717 0
M  V30 1130 C 111.083 3.23243 -1.2701 0
M  V30 1131 C 110.037 3.55549 -2.38262 0
M  V30 1132 C 109.363 4.9241 -2.08415 0
M  V30 1133 C 110.663 3.577 -3.80589 0
M  V30 1134 H 112.357 1.83899 -2.36266 0
M  V30 1135 H 109.903 0.883349 -1.13723 0
M  V30 1136 H 111.856 4.01775 -1.27103 0
M  V30 1137 H 110.58 3.25296 -0.291564 0
M  V30 1138 H 109.239 2.79351 -2.37399 0
M  V30 1139 H 108.887 4.91052 -1.0898 0
M  V30 1140 H 108.587 5.14992 -2.82943 0
M  V30 1141 H 110.111 5.73289 -2.10171 0
M  V30 1142 H 111.525 4.26293 -3.83337 0
M  V30 1143 H 109.922 3.91804 -4.54543 0
M  V30 1144 H 110.992 2.57328 -4.10987 0
M  V30 1145 N 112.336 1.25143 0.95797 0
M  V30 1146 C 113.268 1.01023 2.05735 0
M  V30 1147 C 114.281 -0.0236902 1.62783 0
M  V30 1148 O 115.47 0.21448 1.77207 0
M  V30 1149 C 112.57 0.504595 3.35122 0
M  V30 1150 C 111.743 1.6039 4.06932 0
M  V30 1151 C 110.802 1.09922 5.14591 0
M  V30 1152 O 109.828 1.79293 5.40225 0
M  V30 1153 N 111.03 -0.0612545 5.80468 0
M  V30 1154 H 113.795 1.95683 2.26998 0
M  V30 1155 H 111.356 1.16303 1.12629 0
M  V30 1156 H 113.348 0.151516 4.04416 0
M  V30 1157 H 111.918 -0.347989 3.10657 0
M  V30 1158 H 111.138 2.12872 3.31782 0
M  V30 1159 H 112.426 2.34252 4.51667 0
M  V30 1160 H 111.824 -0.640985 5.62057 0
M  V30 1161 H 110.381 -0.355395 6.5083 0
M  V30 1162 N 113.814 -1.1601 1.06675 0
M  V30 1163 C 115.062 -1.86264 0.784229 0
M  V30 1164 C 115.383 -1.82328 -0.691488 0
M  V30 1165 O 114.653 -1.25947 -1.50047 0
M  V30 1166 H 113.233 -0.689621 0.28711 0
M  V30 1167 H 115.895 -1.40664 1.34906 0
M  V30 1168 H 114.991 -2.91595 1.11259 0
M  V30 1169 N 115.292 -0.849877 -1.32721 0
M  V30 1170 C 116.708 -0.539102 -1.50219 0
M  V30 1171 C 116.908 0.931271 -1.78689 0
M  V30 1172 O 115.964 1.71455 -1.85363 0
M  V30 1173 C 117.277 -1.42196 -2.64954 0
M  V30 1174 C 118.825 -1.42189 -2.78839 0
M  V30 1175 C 119.3 -2.28985 -3.96648 0
M  V30 1176 N 120.791 -2.26754 -4.03902 0
M  V30 1177 C 121.526 -2.90644 -4.94281 0
M  V30 1178 N 121.022 -3.63629 -5.897 0
M  V30 1179 N 122.815 -2.80057 -4.87365 0
M  V30 1180 H 114.966 -1.80156 -1.12506 0
M  V30 1181 H 117.229 -0.769217 -0.554085 0
M  V30 1182 H 116.935 -2.46733 -2.50631 0
M  V30 1183 H 116.809 -1.10591 -3.60624 0
M  V30 1184 H 119.196 -0.38419 -2.92588 0
M  V30 1185 H 119.277 -1.77807 -1.83898 0
M  V30 1186 H 118.921 -3.32819 -3.83658 0
M  V30 1187 H 118.851 -1.90702 -4.90857 0
M  V30 1188 H 121.342 -1.73688 -3.3562 0
M  V30 1189 H 121.655 -4.09558 -6.55349 0
M  V30 1190 H 120 -3.67737 -5.89741 0
M  V30 1191 H 123.191 -2.22593 -4.11789 0
M  V30 1192 H 123.364 -3.30132 -5.57599 0
M  V30 1193 N 116.77 1.45427 -0.607355 0
M  V30 1194 C 117.7 2.3329 0.0989352 0
M  V30 1195 C 118.681 1.46816 0.859007 0
M  V30 1196 O 119.866 1.75588 0.829604 0
M  V30 1197 C 116.996 3.29518 1.09705 0
M  V30 1198 C 115.95 4.25626 0.450206 0
M  V30 1199 C 115.276 5.11542 1.55655 0
M  V30 1200 C 116.576 5.18505 -0.628455 0
M  V30 1201 H 118.27 2.92595 -0.634716 0
M  V30 1202 H 115.816 1.40696 -0.306681 0
M  V30 1203 H 117.769 3.89855 1.59971 0
M  V30 1204 H 116.493 2.68372 1.86129 0
M  V30 1205 H 115.152 3.66586 -0.0315886 0
M  V30 1206 H 114.8 4.46765 2.31107 0
M  V30 1207 H 114.5 5.76647 1.12925 0
M  V30 1208 H 116.024 5.74748 2.06148 0
M  V30 1209 H 117.438 5.72916 -0.209877 0
M  V30 1210 H 115.835 5.92085 -0.977489 0
M  V30 1211 H 116.905 4.60948 -1.50514 0
M  V30 1212 N 118.248 0.346503 1.53744 0
M  V30 1213 C 119.18 -0.543316 2.22667 0
M  V30 1214 C 120.193 -1.06159 1.23427 0
M  V30 1215 O 121.382 -0.971235 1.49764 0
M  V30 1216 C 118.482 -1.76076 2.89569 0
M  V30 1217 C 117.655 -1.37727 4.15151 0
M  V30 1218 C 116.714 -2.45471 4.65436 0
M  V30 1219 O 115.74 -2.08655 5.29577 0
M  V30 1220 N 116.942 -3.7677 4.41616 0
M  V30 1221 H 119.707 0.0469703 2.99663 0
M  V30 1222 H 117.268 0.170766 1.60997 0
M  V30 1223 H 119.26 -2.47593 3.20125 0
M  V30 1224 H 117.83 -2.25835 2.16142 0
M  V30 1225 H 117.05 -0.492746 3.91108 0
M  V30 1226 H 118.338 -1.09708 4.96832 0
M  V30 1227 H 117.736 -4.09467 3.90325 0
M  V30 1228 H 116.293 -4.44448 4.7677 0
M  V30 1229 N 119.726 -1.57421 0.075193 0
M  V30 1230 C 121.142 -1.57099 -0.281444 0
M  V30 1231 C 121.342 -1.08486 -1.69803 0
M  V30 1232 O 120.398 -0.752279 -2.41033 0
M  V30 1233 C 121.711 -3.00571 -0.0880041 0
M  V30 1234 C 123.259 -3.12605 -0.157281 0
M  V30 1235 C 123.734 -4.57999 0.0079207 0
M  V30 1236 N 125.225 -4.63176 -0.0475725 0
M  V30 1237 C 125.96 -5.73373 0.0557876 0
M  V30 1238 N 125.456 -6.92473 0.21286 0
M  V30 1239 N 127.249 -5.621 -0.00152098 0
M  V30 1240 H 119.4 -1.87335 1.00098 0
M  V30 1241 H 121.663 -0.86377 0.390646 0
M  V30 1242 H 121.369 -3.40262 0.889629 0
M  V30 1243 H 121.243 -3.67754 -0.838875 0
M  V30 1244 H 123.63 -2.72798 -1.1254 0
M  V30 1245 H 123.711 -2.48053 0.62475 0
M  V30 1246 H 123.355 -4.98496 0.972824 0
M  V30 1247 H 123.285 -5.20586 -0.793556 0
M  V30 1248 H 125.776 -3.7753 -0.167244 0
M  V30 1249 H 126.089 -7.72279 0.283781 0
M  V30 1250 H 124.434 -6.94556 0.248267 0
M  V30 1251 H 127.625 -4.67938 -0.122958 0
M  V30 1252 H 127.798 -6.47948 0.0824844 0
M  V30 1253 N 121.204 0.198386 -1.56346 0
M  V30 1254 C 122.134 1.24865 -1.9731 0
M  V30 1255 C 123.115 1.47651 -0.844576 0
M  V30 1256 O 124.3 1.59444 -1.10866 0
M  V30 1257 C 121.43 2.59358 -2.30977 0
M  V30 1258 C 120.384 2.5119 -3.46537 0
M  V30 1259 C 119.71 3.89926 -3.65871 0
M  V30 1260 C 121.01 2.03977 -4.80823 0
M  V30 1261 H 122.704 0.908252 -2.85291 0
M  V30 1262 H 120.25 0.435462 -1.37258 0
M  V30 1263 H 122.203 3.33011 -2.58228 0
M  V30 1264 H 120.927 2.95132 -1.39874 0
M  V30 1265 H 119.586 1.79993 -3.19371 0
M  V30 1266 H 119.234 4.23046 -2.72105 0
M  V30 1267 H 118.934 3.85336 -4.4361 0
M  V30 1268 H 120.458 4.65205 -3.95495 0
M  V30 1269 H 121.872 2.67386 -5.07127 0
M  V30 1270 H 120.269 2.10397 -5.62008 0
M  V30 1271 H 121.339 0.992861 -4.74626 0
M  V30 1272 N 122.682 1.50554 0.465978 0
M  V30 1273 C 123.612 1.72722 1.57128 0
M  V30 1274 C 124.593 0.576294 1.6004 0
M  V30 1275 O 125.778 0.81598 1.76225 0
M  V30 1276 C 122.908 1.82605 2.95419 0
M  V30 1277 C 121.862 2.97835 3.07373 0
M  V30 1278 C 121.188 2.92867 4.47363 0
M  V30 1279 C 122.488 4.38265 2.84114 0
M  V30 1280 H 124.182 2.65267 1.38829 0
M  V30 1281 H 121.728 1.2765 0.666441 0
M  V30 1282 H 123.681 1.96698 3.72677 0
M  V30 1283 H 122.405 0.866858 3.14886 0
M  V30 1284 H 121.064 2.83401 2.3255 0
M  V30 1285 H 120.712 1.94783 4.63755 0
M  V30 1286 H 120.412 3.70227 4.56296 0
M  V30 1287 H 121.936 3.09015 5.26633 0
M  V30 1288 H 123.35 4.53198 3.51118 0
M  V30 1289 H 121.747 5.17115 3.04487 0
M  V30 1290 H 122.817 4.50281 1.7993 0
M  V30 1291 N 124.16 -0.719506 1.40217 0
M  V30 1292 C 125.092 -1.84428 1.36084 0
M  V30 1293 C 126.105 -1.60597 0.266913 0
M  V30 1294 O 127.294 -1.70544 0.526983 0
M  V30 1295 C 124.394 -3.20757 1.094 0
M  V30 1296 C 123.567 -3.71817 2.30372 0
M  V30 1297 C 122.626 -4.86748 1.99907 0
M  V30 1298 O 121.652 -4.99603 2.72737 0
M  V30 1299 N 122.854 -5.7226 0.974635 0
M  V30 1300 H 125.619 -1.88473 2.33019 0
M  V30 1301 H 123.18 -0.900885 1.3452 0
M  V30 1302 H 125.172 -3.95235 0.870116 0
M  V30 1303 H 123.742 -3.11884 0.211452 0
M  V30 1304 H 122.962 -2.88514 2.68614 0
M  V30 1305 H 124.25 -4.02666 3.11026 0
M  V30 1306 H 123.648 -5.6448 0.371368 0
M  V30 1307 H 122.205 -6.46739 0.810656 0
M  V30 1308 N 125.638 -1.25649 -0.95132 0
M  V30 1309 C 126.601 -1.06399 -2.03007 0
M  V30 1310 C 127.601 -0.0156794 -1.60792 0
M  V30 1311 O 128.791 -0.25817 -1.72276 0
M  V30 1312 C 125.923 -0.616184 -3.35285 0
M  V30 1313 H 127.116 -2.02164 -2.21517 0
M  V30 1314 H 124.669 -1.08103 -1.12887 0
M  V30 1315 H 125.404 0.343917 -3.22471 0
M  V30 1316 H 125.189 -1.37301 -3.67275 0
M  V30 1317 H 126.679 -0.503032 -4.14559 0
M  V30 1318 N 127.117 1.15442 -1.07289 0
M  V30 1319 C 128.342 1.90638 -0.816828 0
M  V30 1320 C 128.767 1.77445 0.624083 0
M  V30 1321 O 128.125 1.10671 1.43602 0
M  V30 1322 C 128.173 3.39008 -1.22906 0
M  V30 1323 O 127.277 4.10701 -0.373975 0
M  V30 1324 H 126.618 0.593555 -0.297638 0
M  V30 1325 H 129.148 1.46198 -1.43134 0
M  V30 1326 H 129.158 3.89801 -1.20497 0
M  V30 1327 H 127.833 3.47929 -2.27856 0
M  V30 1328 H 126.41 3.70046 -0.460499 0
M  V30 1329 N 128.595 0.856903 1.32268 0
M  V30 1330 C 129.843 0.460474 1.96784 0
M  V30 1331 C 130.164 -0.987701 1.68135 0
M  V30 1332 O 129.434 -1.69058 0.989765 0
M  V30 1333 H 128.014 0.167289 0.728027 0
M  V30 1334 H 130.676 1.09383 1.61312 0
M  V30 1335 H 129.772 0.60739 3.06133 0
M  V30 1336 N 130.073 -1.45103 0.615059 0
M  V30 1337 C 131.021 -2.32331 -0.111791 0
M  V30 1338 C 132.015 -1.46409 -0.852102 0
M  V30 1339 O 133.221 -1.62849 -0.766821 0
M  V30 1340 H 129.596 -0.749993 -0.0549072 0
M  V30 1341 H 131.567 -2.91407 0.642225 0
M  V30 1342 C 130.316 -3.3015 -1.09071 0
M  V30 1343 H 129.639 -3.96265 -0.530485 0
M  V30 1344 H 131.079 -3.93898 -1.56908 0
M  V30 1345 C 129.538 -2.57875 -2.168 0
M  V30 1346 O 130.068 -2.36567 -3.24652 0
M  V30 1347 N 128.274 -2.17884 -1.92289 0
M  V30 1348 H 127.821 -2.35413 -1.04587 0
M  V30 1349 H 127.779 -1.6985 -2.64572 0
M  V30 1350 N 131.551 -0.354651 -1.53558 0
M  V30 1351 C 132.501 0.513179 -2.2215 0
M  V30 1352 C 133.485 1.05734 -1.21281 0
M  V30 1353 O 134.677 0.989202 -1.46778 0
M  V30 1354 C 131.806 1.65798 -3.00609 0
M  V30 1355 C 130.892 1.12722 -4.08845 0
M  V30 1356 N 131.283 0.318563 -5.04796 0
M  V30 1357 C 129.581 1.40307 -4.23356 0
M  V30 1358 C 130.282 0.0292224 -5.81693 0
M  V30 1359 N 129.258 0.623891 -5.40008 0
M  V30 1360 H 133.06 -0.111586 -2.93688 0
M  V30 1361 H 130.574 -0.162091 -1.61589 0
M  V30 1362 H 132.571 2.29176 -3.48258 0
M  V30 1363 H 131.231 2.28591 -2.306 0
M  V30 1364 H 132.242 -0.0413091 -5.17884 0
M  V30 1365 H 128.919 2.03458 -3.6457 0
M  V30 1366 H 130.309 -0.623808 -6.68998 0
M  V30 1367 N 133.029 1.57378 -0.0835403 0
M  V30 1368 C 133.992 2.12252 0.864959 0
M  V30 1369 C 134.992 1.04916 1.21858 0
M  V30 1370 O 136.182 1.30853 1.14991 0
M  V30 1371 C 133.314 2.63358 2.16461 0
M  V30 1372 H 134.507 2.97371 0.388676 0
M  V30 1373 H 132.06 1.55423 0.165317 0
M  V30 1374 H 132.795 1.81727 2.686 0
M  V30 1375 H 132.58 3.41826 1.92087 0
M  V30 1376 H 134.07 3.05847 2.84337 0
M  V30 1377 N 134.507 -0.190092 1.56449 0
M  V30 1378 C 135.47 -1.21925 1.9408 0
M  V30 1379 C 136.47 -1.38176 0.822431 0
M  V30 1380 O 137.66 -1.35903 1.08977 0
M  V30 1381 C 134.792 -2.58773 2.21922 0
M  V30 1382 H 135.985 -0.897464 2.86157 0
M  V30 1383 H 133.538 -0.43181 1.50217 0
M  V30 1384 H 134.273 -2.95998 1.32499 0
M  V30 1385 H 134.058 -2.48348 3.03424 0
M  V30 1386 H 135.548 -3.32978 2.52022 0
M  V30 1387 N 135.985 -1.50799 -0.457987 0
M  V30 1388 C 137.233 -1.62121 -1.2067 0
M  V30 1389 C 137.554 -0.329793 -1.92191 0
M  V30 1390 O 136.824 0.653409 -1.84682 0
M  V30 1391 H 135.404 -0.597441 -0.448411 0
M  V30 1392 H 138.066 -1.87637 -0.527096 0
M  V30 1393 H 137.162 -2.43882 -1.94751 0
M  V30 1394 N 137.463 0.71206 -1.40597 0
M  V30 1395 C 138.712 1.46754 -1.38369 0
M  V30 1396 C 139.025 1.95598 0.0097839 0
M  V30 1397 O 140.231 2.71059 0.154677 0
M  V30 1398 C 138.687 2.65289 -2.43207 0
M  V30 1399 C 138.295 2.23301 -3.88382 0
M  V30 1400 C 140.039 3.43008 -2.50091 0
M  V30 1401 C 137.946 3.38696 -4.84808 0
M  V30 1402 H 136.876 0.55118 -0.514506 0
M  V30 1403 H 139.527 0.774616 -1.66349 0
M  V30 1404 H 137.909 3.36769 -2.08332 0
M  V30 1405 H 139.083 1.59218 -4.32419 0
M  V30 1406 H 137.398 1.58618 -3.85006 0
M  V30 1407 H 139.995 4.28881 -3.1932 0
M  V30 1408 H 140.338 3.87065 -1.53253 0
M  V30 1409 H 140.871 2.78574 -2.83974 0
M  V30 1410 H 137.61 2.99668 -5.82992 0
M  V30 1411 H 137.13 4.01683 -4.45433 0
M  V30 1412 H 138.809 4.04712 -5.04794 0
M  V30 1413 N 138.941 1.26152 0.944643 0
M  V30 1414 C 139.871 1.09902 2.06019 0
M  V30 1415 C 140.852 0.00519538 1.70099 0
M  V30 1416 O 142.037 0.176583 1.93396 0
M  V30 1417 C 139.167 0.727562 3.39594 0
M  V30 1418 C 138.121 1.77274 3.89561 0
M  V30 1419 C 137.447 1.25569 5.19747 0
M  V30 1420 C 138.747 3.17357 4.14827 0
M  V30 1421 H 140.441 2.03217 2.19871 0
M  V30 1422 H 137.987 0.978452 1.05652 0
M  V30 1423 H 139.94 0.600777 4.17095 0
M  V30 1424 H 138.664 -0.241287 3.25707 0
M  V30 1425 H 137.323 1.88814 3.14237 0
M  V30 1426 H 136.971 0.276783 5.02238 0
M  V30 1427 H 136.671 1.95433 5.54148 0
M  V30 1428 H 138.195 1.1415 5.99835 0
M  V30 1429 H 139.609 3.08914 4.82954 0
M  V30 1430 H 138.006 3.84781 4.60504 0
M  V30 1431 H 139.076 3.63673 3.20734 0
M  V30 1432 N 140.419 -1.14872 1.07899 0
M  V30 1433 C 141.647 -1.89661 0.82683 0
M  V30 1434 C 142.062 -1.78312 -0.620519 0
M  V30 1435 O 141.419 -1.13888 -1.42604 0
M  V30 1436 C 141.47 -3.39817 1.23316 0
M  V30 1437 O 141.191 -3.50845 2.62372 0
M  V30 1438 C 142.692 -4.31615 1.0111 0
M  V30 1439 H 139.912 -0.60092 0.298557 0
M  V30 1440 H 142.456 -1.4551 1.43691 0
M  V30 1441 H 140.611 -3.8161 0.667286 0
M  V30 1442 H 141.025 -4.44076 2.79101 0
M  V30 1443 H 142.499 -5.35367 1.34486 0
M  V30 1444 H 142.976 -4.39169 -0.0522168 0
M  V30 1445 H 143.582 -3.95572 1.56215 0
M  V30 1446 N 141.898 -0.863906 -1.31812 0
M  V30 1447 C 142.831 -0.259963 -2.26714 0
M  V30 1448 C 143.809 0.607392 -1.50829 0
M  V30 1449 O 144.993 0.562155 -1.79922 0
M  V30 1450 C 142.12 0.632456 -3.32743 0
M  V30 1451 C 141.166 -0.162743 -4.26189 0
M  V30 1452 S 141.999 -1.53726 -5.12961 0
M  V30 1453 C 143.155 -0.650803 -6.22507 0
M  V30 1454 H 143.388 -1.06445 -2.77591 0
M  V30 1455 H 140.921 -0.662071 -1.39485 0
M  V30 1456 H 142.879 1.14167 -3.94305 0
M  V30 1457 H 141.54 1.41083 -2.80632 0
M  V30 1458 H 140.733 0.517366 -5.01338 0
M  V30 1459 H 140.335 -0.60385 -3.69093 0
M  V30 1460 H 142.627 0.141134 -6.77353 0
M  V30 1461 H 143.57 -1.37322 -6.94657 0
M  V30 1462 H 143.978 -0.221041 -5.64067 0
M  V30 1463 N 143.376 1.44774 -0.622745 0
M  V30 1464 C 144.624 2.01721 -0.123655 0
M  V30 1465 C 144.945 1.49172 1.25589 0
M  V30 1466 O 144.215 0.691974 1.83272 0
M  V30 1467 H 142.795 0.745777 -0.0427225 0
M  V30 1468 H 145.457 1.77382 -0.807559 0
M  V30 1469 H 144.553 3.11984 -0.0849534 0
M  V30 1470 N 144.854 0.36279 1.53368 0
M  V30 1471 C 146.27 0.0116182 1.59596 0
M  V30 1472 C 146.47 -1.47012 1.37803 0
M  V30 1473 O 145.526 -2.23136 1.18181 0
M  V30 1474 C 146.839 0.465052 2.97082 0
M  V30 1475 C 148.387 0.419033 3.10182 0
M  V30 1476 C 148.862 0.848235 4.50077 0
M  V30 1477 N 150.353 0.803183 4.56183 0
M  V30 1478 C 151.088 1.107 5.62613 0
M  V30 1479 N 150.584 1.47996 6.76808 0
M  V30 1480 N 152.377 1.02998 5.52583 0
M  V30 1481 H 144.528 1.32775 1.65785 0
M  V30 1482 H 146.791 0.542518 0.777417 0
M  V30 1483 H 146.497 1.49892 3.18159 0
M  V30 1484 H 146.371 -0.149786 3.76902 0
M  V30 1485 H 148.758 -0.605696 2.88817 0
M  V30 1486 H 148.839 1.06933 2.32377 0
M  V30 1487 H 148.483 1.87107 4.7218 0
M  V30 1488 H 148.413 0.175218 5.26308 0
M  V30 1489 H 150.904 0.52838 3.74188 0
M  V30 1490 H 151.217 1.69613 7.53957 0
M  V30 1491 H 149.562 1.51859 6.78206 0
M  V30 1492 H 152.753 0.737817 4.62249 0
M  V30 1493 H 152.926 1.2701 6.35431 0
M  V30 1494 N 146.332 -1.57332 0.0918853 0
M  V30 1495 C 147.748 -1.57389 -0.264766 0
M  V30 1496 C 147.948 -1.10281 -1.68643 0
M  V30 1497 O 147.004 -0.777801 -2.40222 0
M  V30 1498 C 148.317 -3.00648 -0.0561195 0
M  V30 1499 C 149.865 -3.12754 -0.124116 0
M  V30 1500 C 150.34 -4.57965 0.0564972 0
M  V30 1501 N 151.831 -4.632 0.00155611 0
M  V30 1502 C 152.566 -5.73281 0.116598 0
M  V30 1503 N 152.062 -6.92208 0.286294 0
M  V30 1504 N 153.855 -5.6207 0.0580973 0
M  V30 1505 H 146.006 -1.86262 1.02079 0
M  V30 1506 H 148.269 -0.859579 0.399786 0
M  V30 1507 H 147.975 -3.393 0.925669 0
M  V30 1508 H 147.849 -3.68623 -0.799823 0
M  V30 1509 H 150.236 -2.73976 -1.09641 0
M  V30 1510 H 150.317 -2.47377 0.651024 0
M  V30 1511 H 149.961 -4.97436 1.02564 0
M  V30 1512 H 149.891 -5.21399 -0.738297 0
M  V30 1513 H 152.382 -3.77686 -0.127192 0
M  V30 1514 H 152.695 -7.71934 0.365676 0
M  V30 1515 H 151.04 -6.94254 0.32192 0
M  V30 1516 H 154.231 -4.68043 -0.0733204 0
M  V30 1517 H 154.404 -6.47824 0.151203 0
M  V30 1518 N 147.81 0.181792 -1.56548 0
M  V30 1519 C 148.773 1.20894 -1.94724 0
M  V30 1520 C 149.773 1.37738 -0.829747 0
M  V30 1521 O 150.963 1.35323 -1.09697 0
M  V30 1522 C 148.095 2.57593 -2.23291 0
M  V30 1523 H 149.288 0.882275 -2.86629 0
M  V30 1524 H 146.841 0.423838 -1.50444 0
M  V30 1525 H 147.576 2.95291 -1.34067 0
M  V30 1526 H 147.361 2.46735 -3.04736 0
M  V30 1527 H 148.851 3.31637 -2.53785 0
M  V30 1528 N 149.288 1.51039 0.449983 0
M  V30 1529 C 150.536 1.62759 1.19808 0
M  V30 1530 C 150.857 0.339981 1.92013 0
M  V30 1531 O 150.127 -0.643606 1.85026 0
M  V30 1532 H 148.707 0.599811 0.445237 0
M  V30 1533 H 151.369 1.87914 0.517138 0
M  V30 1534 H 150.465 2.44911 1.93455 0
M  V30 1535 N 150.766 -0.704594 1.40972 0
M  V30 1536 C 151.729 -1.80035 1.41845 0
M  V30 1537 C 152.729 -1.57774 0.310474 0
M  V30 1538 O 153.919 -1.64613 0.56992 0
M  V30 1539 C 151.051 -3.18284 1.22098 0
M  V30 1540 H 152.244 -1.80658 2.3938 0
M  V30 1541 H 149.797 -0.911329 1.26982 0
M  V30 1542 H 150.532 -3.23306 0.253672 0
M  V30 1543 H 150.317 -3.35843 2.02366 0
M  V30 1544 H 151.807 -3.98289 1.25522 0
M  V30 1545 N 152.244 -1.26651 -0.937939 0
M  V30 1546 C 153.154 -1.10276 -2.07066 0
M  V30 1547 C 154.17 -0.0354197 -1.73964 0
M  V30 1548 O 155.346 -0.239816 -1.99967 0
M  V30 1549 C 152.411 -0.740887 -3.38691 0
M  V30 1550 C 151.472 -1.88799 -3.85556 0
M  V30 1551 C 150.705 -1.54329 -5.10899 0
M  V30 1552 O 150.928 -0.446494 -5.6865 0
M  V30 1553 O 149.862 -2.37911 -5.52885 0
M  V30 1554 H 153.688 -2.05309 -2.23789 0
M  V30 1555 H 151.273 -1.05743 -1.0554 0
M  V30 1556 H 153.155 -0.55195 -4.1777 0
M  V30 1557 H 151.83 0.180022 -3.23199 0
M  V30 1558 H 150.737 -2.13191 -3.07409 0
M  V30 1559 H 152.07 -2.78874 -4.05574 0
M  V30 1560 N 153.722 1.14298 -1.08507 0
M  V30 1561 C 155.133 1.66926 -0.836227 0
M  V30 1562 C 155.484 1.85576 0.63686 0
M  V30 1563 O 154.609 1.56767 1.49175 0
M  V30 1564 C 155.204 3.03219 -1.51142 0
M  V30 1565 C 153.763 3.52876 -1.30979 0
M  V30 1566 C 152.91 2.2833 -1.57356 0
M  V30 1567 H 155.861 0.983491 -1.24552 0
M  V30 1568 H 155.882 3.68726 -0.939211 0
M  V30 1569 H 155.394 2.89612 -2.58353 0
M  V30 1570 H 153.495 3.71703 -0.258429 0
M  V30 1571 H 153.608 4.33586 -2.03814 0
M  V30 1572 H 151.972 2.34454 -0.995164 0
M  V30 1573 H 152.755 2.17298 -2.65775 0
M  V30 1574 N 155.201 0.870884 1.31352 0
M  V30 1575 C 156.164 0.332243 2.26779 0
M  V30 1576 C 157.164 -0.517302 1.52252 0
M  V30 1577 O 158.354 -0.326477 1.71113 0
M  V30 1578 C 155.486 -0.528066 3.36785 0
M  V30 1579 H 156.679 1.17469 2.75937 0
M  V30 1580 H 154.232 0.64655 1.423 0
M  V30 1581 H 154.967 -1.39167 2.92922 0
M  V30 1582 H 154.752 0.0802582 3.92018 0
M  V30 1583 H 156.242 -0.897179 4.07849 0
M  V30 1584 N 156.679 -1.44442 0.630414 0
M  V30 1585 C 158.09 -1.85434 0.217063 0
M  V30 1586 C 158.441 -1.52748 -1.23136 0
M  V30 1587 O 157.566 -0.965205 -1.93682 0
M  V30 1588 C 158.161 -3.36581 0.387168 0
M  V30 1589 C 156.72 -3.76389 0.0283297 0
M  V30 1590 C 155.867 -2.68296 0.700889 0
M  V30 1591 H 158.818 -1.34919 0.83562 0
M  V30 1592 H 158.839 -3.78657 -0.374086 0
M  V30 1593 H 158.351 -3.60339 1.44144 0
M  V30 1594 H 156.452 -3.58246 -1.02423 0
M  V30 1595 H 156.565 -4.77095 0.437892 0
M  V30 1596 H 154.929 -2.54335 0.136267 0
M  V30 1597 H 155.712 -2.94887 1.75774 0
M  V30 1598 N 158.157 -0.370918 -1.53173 0
M  V30 1599 C 159.573 -0.0200818 -1.59587 0
M  V30 1600 C 159.773 1.46279 -1.38581 0
M  V30 1601 O 158.829 2.22506 -1.19363 0
M  V30 1602 C 160.142 -0.4808 -2.96831 0
M  V30 1603 C 161.69 -0.435477 -3.09956 0
M  V30 1604 C 162.165 -0.872092 -4.4962 0
M  V30 1605 N 163.656 -0.827364 -4.55751 0
M  V30 1606 C 164.391 -1.13683 -5.62018 0
M  V30 1607 N 163.887 -1.51584 -6.76014 0
M  V30 1608 N 165.68 -1.05927 -5.52029 0
M  V30 1609 H 157.831 -1.33652 -1.65079 0
M  V30 1610 H 160.094 -0.546634 -0.774529 0
M  V30 1611 H 159.8 -1.51577 -3.1736 0
M  V30 1612 H 159.674 0.129796 -3.76977 0
M  V30 1613 H 162.061 0.590371 -2.89134 0
M  V30 1614 H 162.142 -1.08164 -2.31806 0
M  V30 1615 H 161.786 -1.89608 -4.71181 0
M  V30 1616 H 161.716 -0.203127 -5.26208 0
M  V30 1617 H 164.207 -0.548216 -3.73902 0
M  V30 1618 H 164.52 -1.73609 -7.53047 0
M  V30 1619 H 162.865 -1.55454 -6.77391 0
M  V30 1620 H 166.056 -0.762321 -4.61851 0
M  V30 1621 H 166.229 -1.30378 -6.34749 0
M  V30 1622 N 159.635 1.57281 -0.100228 0
M  V30 1623 C 161.046 1.81725 0.428107 0
M  V30 1624 C 161.397 1.01619 1.67833 0
M  V30 1625 O 160.522 0.247098 2.14985 0
M  V30 1626 C 161.117 3.29617 0.78347 0
M  V30 1627 C 159.676 3.54808 1.25653 0
M  V30 1628 C 158.823 2.76118 0.255752 0
M  V30 1629 H 161.774 1.55324 -0.325608 0
M  V30 1630 H 161.795 3.4322 1.64256 0
M  V30 1631 H 161.307 3.87893 -0.12665 0
M  V30 1632 H 159.408 3.01868 2.18418 0
M  V30 1633 H 159.521 4.63443 1.21482 0
M  V30 1634 H 157.885 2.43745 0.738956 0
M  V30 1635 H 158.668 3.37145 -0.647136 0
M  V30 1636 N 161.113 -0.173488 1.56642 0
M  V30 1637 C 162.353 -0.896984 1.83667 0
M  V30 1638 C 162.717 -1.79523 0.680842 0
M  V30 1639 O 163.918 -2.55616 0.831488 0
M  V30 1640 C 162.189 -1.67351 3.15798 0
M  V30 1641 S 163.748 -2.44607 3.64298 0
M  V30 1642 H 160.566 -0.300464 0.644393 0
M  V30 1643 H 163.168 -0.158775 1.94854 0
M  V30 1644 H 161.872 -1.00462 3.97914 0
M  V30 1645 H 161.403 -2.45313 3.07546 0
M  V30 1646 H 163.418 -3.69261 3.31452 0
M  V30 1647 N 162.591 -1.51276 -0.441967 0
M  V30 1648 C 163.521 -1.752 -1.54361 0
M  V30 1649 C 164.502 -0.601682 -1.59103 0
M  V30 1650 O 165.687 -0.843913 -1.74905 0
M  V30 1651 C 162.817 -1.87282 -2.92477 0
M  V30 1652 C 161.771 -3.02687 -3.02596 0
M  V30 1653 C 161.097 -2.99947 -4.42647 0
M  V30 1654 C 162.397 -4.4273 -2.77106 0
M  V30 1655 H 164.091 -2.67442 -1.34592 0
M  V30 1656 H 161.637 -1.28694 -0.646048 0
M  V30 1657 H 163.59 -2.02602 -3.695 0
M  V30 1658 H 162.314 -0.916844 -3.13467 0
M  V30 1659 H 160.973 -2.87065 -2.28012 0
M  V30 1660 H 160.621 -2.02136 -4.60597 0
M  V30 1661 H 160.321 -3.77439 -4.50348 0
M  V30 1662 H 161.845 -3.17354 -5.2165 0
M  V30 1663 H 163.259 -4.58727 -3.43864 0
M  V30 1664 H 161.656 -5.21893 -2.96222 0
M  V30 1665 H 162.726 -4.53087 -1.72744 0
M  V30 1666 N 164.069 0.697108 -1.41344 0
M  V30 1667 C 165.317 1.45426 -1.40341 0
M  V30 1668 C 165.638 1.94996 -0.0128787 0
M  V30 1669 O 164.908 1.71599 0.945027 0
M  V30 1670 H 163.488 0.539594 -0.516573 0
M  V30 1671 H 166.15 0.825201 -1.76569 0
M  V30 1672 H 165.246 2.31817 -2.08967 0
M  V30 1673 N 165.547 1.27147 0.931209 0
M  V30 1674 C 166.963 1.04475 1.20653 0
M  V30 1675 C 167.163 -0.223885 2.00252 0
M  V30 1676 O 166.219 -0.930332 2.34736 0
M  V30 1677 C 167.532 2.28209 1.95809 0
M  V30 1678 C 169.08 2.33211 2.08762 0
M  V30 1679 C 169.555 3.56665 2.87323 0
M  V30 1680 N 171.046 3.57201 2.94892 0
M  V30 1681 C 171.781 4.49395 3.56134 0
M  V30 1682 N 171.277 5.51889 4.18796 0
M  V30 1683 N 173.07 4.37026 3.53504 0
M  V30 1684 H 165.221 2.08612 0.399333 0
M  V30 1685 H 167.484 0.917312 0.239253 0
M  V30 1686 H 167.19 3.20538 1.44736 0
M  V30 1687 H 167.064 2.33247 2.96438 0
M  V30 1688 H 169.451 1.41391 2.59023 0
M  V30 1689 H 169.532 2.32178 1.07364 0
M  V30 1690 H 169.176 4.4882 2.37746 0
M  V30 1691 H 169.106 3.54948 3.88998 0
M  V30 1692 H 171.597 2.83074 2.50354 0
M  V30 1693 H 171.91 6.18409 4.63454 0
M  V30 1694 H 170.255 5.55735 4.17353 0
M  V30 1695 H 173.446 3.56166 3.03749 0
M  V30 1696 H 173.619 5.09067 4.00942 0
M  V30 1697 N 167.025 -1.13721 1.09112 0
M  V30 1698 C 168.441 -1.36914 0.820174 0
M  V30 1699 C 168.641 -1.93356 -0.567079 0
M  V30 1700 O 167.697 -2.15093 -1.32255 0
M  V30 1701 C 169.01 -2.3235 1.90877 0
M  V30 1702 C 170.558 -2.45973 1.93562 0
M  V30 1703 C 171.033 -3.44714 3.01556 0
M  V30 1704 N 172.524 -3.52263 3.00775 0
M  V30 1705 C 173.259 -4.28536 3.80978 0
M  V30 1706 N 172.755 -5.07991 4.71081 0
M  V30 1707 N 174.548 -4.23804 3.69251 0
M  V30 1708 H 166.699 -0.754348 1.98553 0
M  V30 1709 H 168.962 -0.3944 0.862063 0
M  V30 1710 H 168.668 -1.98027 2.90651 0
M  V30 1711 H 168.542 -3.32332 1.78424 0
M  V30 1712 H 170.929 -2.79584 0.944286 0
M  V30 1713 H 171.01 -1.45926 2.10093 0
M  V30 1714 H 170.654 -3.11835 4.00901 0
M  V30 1715 H 170.584 -4.44558 2.82269 0
M  V30 1716 H 173.075 -2.95567 2.35475 0
M  V30 1717 H 173.388 -5.63487 5.28869 0
M  V30 1718 H 171.733 -5.07235 4.75119 0
M  V30 1719 H 174.924 -3.60806 2.98222 0
M  V30 1720 H 175.097 -4.82995 4.31995 0
M  V30 1721 N 168.503 -0.877838 -1.30888 0
M  V30 1722 C 169.743 -0.499301 -1.98208 0
M  V30 1723 C 170.107 0.932649 -1.67826 0
M  V30 1724 O 171.308 1.41694 -2.28421 0
M  V30 1725 C 169.579 -0.758221 -3.49265 0
M  V30 1726 S 171.138 -0.480719 -4.36159 0
M  V30 1727 H 167.956 -0.186062 -0.686223 0
M  V30 1728 H 170.558 -1.13556 -1.59139 0
M  V30 1729 H 169.262 -1.79903 -3.68867 0
M  V30 1730 H 168.793 -0.109247 -3.93248 0
M  V30 1731 H 170.808 0.683698 -4.91467 0
M  V30 1732 N 169.982 1.44106 -0.638065 0
M  V30 1733 C 171.207 2.0685 -0.150916 0
M  V30 1734 C 171.632 1.47417 1.16833 0
M  V30 1735 O 170.99 0.578264 1.71831 0
M  V30 1736 C 171.038 3.60555 -0.05708 0
M  V30 1737 O 170.142 4.00465 0.984972 0
M  V30 1738 H 169.483 0.658151 -0.0879399 0
M  V30 1739 H 172.013 1.84865 -0.876707 0
M  V30 1740 H 172.023 4.07789 0.131232 0
M  V30 1741 H 170.698 4.03193 -1.02021 0
M  V30 1742 H 169.275 3.64849 0.770672 0
M  V30 1743 N 171.46 0.379036 1.52974 0
M  V30 1744 C 172.423 -0.448865 2.24762 0
M  V30 1745 C 173.423 -0.998689 1.26027 0
M  V30 1746 O 174.613 -0.882313 1.50203 0
M  V30 1747 C 171.745 -1.62872 2.99476 0
M  V30 1748 H 172.938 0.179491 2.99362 0
M  V30 1749 H 170.491 0.13096 1.5575 0
M  V30 1750 H 171.226 -2.29479 2.29151 0
M  V30 1751 H 171.011 -1.24128 3.71934 0
M  V30 1752 H 172.501 -2.2151 3.5401 0
M  V30 1753 N 172.938 -1.57226 0.108567 0
M  V30 1754 C 174.349 -1.8195 -0.418464 0
M  V30 1755 C 174.7 -1.02508 -1.67292 0
M  V30 1756 O 173.825 -0.258496 -2.14851 0
M  V30 1757 C 174.42 -3.30028 -0.765979 0
M  V30 1758 C 172.979 -3.55469 -1.23769 0
M  V30 1759 C 172.126 -2.7625 -0.241106 0
M  V30 1760 H 175.077 -1.55149 0.33384 0
M  V30 1761 H 175.098 -3.44086 -1.62434 0
M  V30 1762 H 174.61 -3.87821 0.147219 0
M  V30 1763 H 172.711 -3.03022 -2.16814 0
M  V30 1764 H 172.824 -4.6408 -1.19022 0
M  V30 1765 H 171.188 -2.44133 -0.72602 0
M  V30 1766 H 171.971 -3.36797 0.665007 0
M  V30 1767 N 174.416 0.165178 -1.56732 0
M  V30 1768 C 175.379 1.18822 -1.95995 0
M  V30 1769 C 176.379 1.3685 -0.84431 0
M  V30 1770 O 177.569 1.34152 -1.11126 0
M  V30 1771 C 174.701 2.5521 -2.26011 0
M  V30 1772 H 175.894 0.851825 -2.87548 0
M  V30 1773 H 173.447 0.407857 -1.50885 0
M  V30 1774 H 174.182 2.93852 -1.37191 0
M  V30 1775 H 173.967 2.43489 -3.07336 0
M  V30 1776 H 175.457 3.28927 -2.57288 0
M  V30 1777 N 175.894 1.51508 0.433938 0
M  V30 1778 C 176.857 1.72473 1.50949 0
M  V30 1779 C 177.857 0.594725 1.49398 0
M  V30 1780 O 179.047 0.862315 1.5136 0
M  V30 1781 C 176.179 1.78431 2.90474 0
M  V30 1782 H 177.372 2.68467 1.33662 0
M  V30 1783 H 174.925 1.41549 0.662836 0
M  V30 1784 H 175.66 0.842645 3.13161 0
M  V30 1785 H 175.445 2.60558 2.93005 0
M  V30 1786 H 176.935 1.96479 3.68491 0
M  V30 1787 N 177.372 -0.689602 1.41712 0
M  V30 1788 C 178.335 -1.78521 1.43746 0
M  V30 1789 C 179.335 -1.57436 0.327191 0
M  V30 1790 O 180.525 -1.64 0.587348 0
M  V30 1791 C 177.657 -3.16971 1.25467 0
M  V30 1792 H 178.85 -1.78108 2.41283 0
M  V30 1793 H 176.403 -0.89781 1.27942 0
M  V30 1794 H 177.138 -3.23019 0.287948 0
M  V30 1795 H 176.923 -3.33678 2.05917 0
M  V30 1796 H 178.413 -3.96935 1.2974 0
M  V30 1797 N 178.85 -1.27639 -0.924453 0
M  V30 1798 C 180.075 -1.17101 -1.71179 0
M  V30 1799 C 180.5 0.268134 -1.86179 0
M  V30 1800 O 179.858 1.19415 -1.36418 0
M  V30 1801 C 179.906 -1.86313 -3.08739 0
M  V30 1802 O 179.01 -1.16331 -3.95652 0
M  V30 1803 H 178.351 -0.407091 -0.524569 0
M  V30 1804 H 180.881 -1.68767 -1.15666 0
M  V30 1805 H 180.891 -1.938 -3.59034 0
M  V30 1806 H 179.566 -2.91001 -2.97138 0
M  V30 1807 H 178.143 -1.16935 -3.54091 0
M  V30 1808 N 180.328 1.1314 -1.09713 0
M  V30 1809 C 181.574 1.84757 -0.836224 0
M  V30 1810 C 181.907 1.8347 0.636598 0
M  V30 1811 O 181.182 1.27491 1.46889 0
M  V30 1812 C 181.465 3.32782 -1.37578 0
M  V30 1813 C 181.318 3.42567 -2.91493 0
M  V30 1814 C 182.637 4.28307 -1.01198 0
M  V30 1815 H 179.756 0.67082 -0.305236 0
M  V30 1816 H 182.398 1.3278 -1.35903 0
M  V30 1817 H 180.548 3.77177 -0.931097 0
M  V30 1818 H 182.22 3.06862 -3.44432 0
M  V30 1819 H 180.463 2.83349 -3.28475 0
M  V30 1820 H 181.134 4.46674 -3.24324 0
M  V30 1821 H 183.61 3.91999 -1.39556 0
M  V30 1822 H 182.486 5.30307 -1.41653 0
M  V30 1823 H 182.747 4.42029 0.0794833 0
M  V30 1824 N 181.806 0.884767 1.30421 0
M  V30 1825 C 182.769 0.356277 2.26414 0
M  V30 1826 C 183.769 -0.501124 1.52792 0
M  V30 1827 O 184.959 -0.30831 1.7145 0
M  V30 1828 C 182.091 -0.492316 3.37326 0
M  V30 1829 H 183.284 1.20389 2.74675 0
M  V30 1830 H 180.837 0.661607 1.41607 0
M  V30 1831 H 181.572 -1.36052 2.94381 0
M  V30 1832 H 181.357 0.121832 3.91911 0
M  V30 1833 H 182.847 -0.853871 4.08777 0
M  V30 1834 N 183.284 -1.43765 0.645699 0
M  V30 1835 C 184.695 -1.85193 0.236719 0
M  V30 1836 C 185.046 -1.54045 -1.21509 0
M  V30 1837 O 184.171 -0.985694 -1.92647 0
M  V30 1838 C 184.766 -3.36151 0.422845 0
M  V30 1839 C 183.325 -3.76338 0.0682492 0
M  V30 1840 C 182.472 -2.67538 0.729306 0
M  V30 1841 H 185.423 -1.34025 0.849883 0
M  V30 1842 H 185.444 -3.79032 -0.333904 0
M  V30 1843 H 184.956 -3.5879 1.47958 0
M  V30 1844 H 183.057 -3.59312 -0.986179 0
M  V30 1845 H 183.17 -4.76603 0.488469 0
M  V30 1846 H 181.534 -2.54176 0.163235 0
M  V30 1847 H 182.317 -2.93006 1.78892 0
M  V30 1848 N 184.763 -0.387143 -1.52771 0
M  V30 1849 C 186.011 0.195349 -2.01154 0
M  V30 1850 C 186.332 1.475 -1.27549 0
M  V30 1851 O 185.602 1.91878 -0.394924 0
M  V30 1852 H 184.182 0.075178 -0.743207 0
M  V30 1853 H 186.844 -0.518337 -1.87881 0
M  V30 1854 H 185.94 0.407096 -3.09434 0
M  V30 1855 N 186.241 1.57166 -0.116904 0
M  V30 1856 C 187.489 1.94737 0.540533 0
M  V30 1857 C 187.81 1.00096 1.67349 0
M  V30 1858 O 187.08 0.0568854 1.95817 0
M  V30 1859 H 185.66 0.718981 0.202669 0
M  V30 1860 H 188.322 1.94017 -0.185353 0
M  V30 1861 H 187.418 2.97719 0.936483 0
M  V30 1862 N 187.719 -0.156864 1.56817 0
M  V30 1863 C 188.651 -1.21883 1.94106 0
M  V30 1864 C 189.664 -1.3971 0.835754 0
M  V30 1865 O 190.853 -1.39457 1.11418 0
M  V30 1866 C 187.953 -2.58527 2.19127 0
M  V30 1867 C 187.126 -2.61809 3.50393 0
M  V30 1868 C 186.185 -3.7992 3.64071 0
M  V30 1869 O 185.211 -3.65249 4.36557 0
M  V30 1870 N 186.413 -4.96973 2.99997 0
M  V30 1871 H 189.178 -0.901974 2.85805 0
M  V30 1872 H 186.739 -0.346513 1.58148 0
M  V30 1873 H 188.731 -3.36034 2.25529 0
M  V30 1874 H 187.301 -2.82545 1.33742 0
M  V30 1875 H 186.521 -1.7029 3.5552 0
M  V30 1876 H 187.809 -2.61024 4.36742 0
M  V30 1877 H 187.207 -5.11794 2.41004 0
M  V30 1878 H 185.764 -5.7229 3.11974 0
M  V30 1879 N 189.197 -1.51736 -0.425897 0
M  V30 1880 C 190.422 -1.69082 -1.20108 0
M  V30 1881 C 190.847 -0.392398 -1.83962 0
M  V30 1882 O 190.205 0.64858 -1.69302 0
M  V30 1883 C 190.253 -2.81604 -2.25237 0
M  V30 1884 O 189.357 -2.46004 -3.30992 0
M  V30 1885 H 188.698 -0.563408 -0.35138 0
M  V30 1886 H 191.228 -1.98358 -0.501512 0
M  V30 1887 H 191.238 -3.06025 -2.69838 0
M  V30 1888 H 189.913 -3.75817 -1.78142 0
M  V30 1889 H 188.49 -2.32195 -2.91787 0
M  V30 1890 N 190.675 0.682077 -1.42076 0
M  V30 1891 C 191.923 1.4393 -1.41876 0
M  V30 1892 C 192.244 1.94971 -0.0335599 0
M  V30 1893 O 191.514 1.72591 0.926773 0
M  V30 1894 H 190.094 0.534085 -0.522267 0
M  V30 1895 H 192.756 0.806427 -1.77434 0
M  V30 1896 H 191.852 2.29588 -2.11414 0
M  V30 1897 N 192.153 1.28127 0.917671 0
M  V30 1898 C 193.402 1.14432 1.66097 0
M  V30 1899 C 193.715 -0.307247 1.93172 0
M  V30 1900 O 194.921 -0.565259 2.65551 0
M  V30 1901 C 193.377 2.00015 2.99202 0
M  V30 1902 C 192.985 3.49889 2.79789 0
M  V30 1903 C 194.729 1.94996 3.77064 0
M  V30 1904 C 192.636 4.27636 4.08511 0
M  V30 1905 H 191.566 0.424662 0.62304 0
M  V30 1906 H 194.217 1.52628 1.01868 0
M  V30 1907 H 192.599 1.54672 3.64544 0
M  V30 1908 H 193.773 4.03162 2.23152 0
M  V30 1909 H 192.088 3.56392 2.15345 0
M  V30 1910 H 194.685 2.50354 4.72469 0
M  V30 1911 H 195.028 0.925819 4.05875 0
M  V30 1912 H 195.561 2.38287 3.18534 0
M  V30 1913 H 192.3 5.30615 3.84874 0
M  V30 1914 H 191.82 3.79137 4.64774 0
M  V30 1915 H 193.499 4.37346 4.76799 0
M  V30 1916 O 193.67 -1.05238 1.22504 0
M  V30 1917 H 194.361 -1.6643 0.990999 0
M  V30 END ATOM
M  V30 BEGIN BOND
M  V30 END BOND
M  V30 END CTAB
M  END
$$$$
