drugbank_drug|DB09126 Beta Chain
 OpenBabel12092119113D

  0  0  0     0  0            999 V3000
M  V30 BEGIN CTAB
M  V30 COUNTS 2175 2202 0 0 0
M  V30 BEGIN ATOM
M  V30 1 H -0.908 1.98254 -0.117106 0
M  V30 2 N 0 1.576 0 0
M  V30 3 C 1.225 1.95249 0.699468 0
M  V30 4 C 1.65 0.874934 1.66513 0
M  V30 5 O 1.008 -0.166929 1.8053 0
M  V30 6 C 1.056 3.31994 1.40756 0
M  V30 7 O 0.16 3.26298 2.52197 0
M  V30 8 H -0.499 0.637402 0.186051 0
M  V30 9 H 2.031 2.04531 -0.05319 0
M  V30 10 H 2.041 3.6756 1.77098 0
M  V30 11 H 0.716 4.09975 0.69953 0
M  V30 12 H -0.707 3.02408 2.18183 0
M  V30 13 N 1.4781 -0.272755 1.55222 0
M  V30 14 C 2.4251 -1.33716 1.88119 0
M  V30 15 C 3.3951 -1.49066 0.73271 0
M  V30 16 O 4.5801 -1.63469 0.984002 0
M  V30 17 C 1.7201 -2.69238 2.15882 0
M  V30 18 C 0.8331 -2.62108 3.43399 0
M  V30 19 C -0.0319 -3.89811 3.60861 0
M  V30 20 C -0.9929 -3.77193 4.8207 0
M  V30 21 N -1.8559 -4.9673 4.96189 0
M  V30 22 H 2.9841 -1.04962 2.78903 0
M  V30 23 H 0.5211 -0.507088 1.38083 0
M  V30 24 H 2.4791 -3.48089 2.29978 0
M  V30 25 H 1.1091 -2.96194 1.28331 0
M  V30 26 H 0.1611 -1.74967 3.37773 0
M  V30 27 H 1.4731 -2.48685 4.32386 0
M  V30 28 H 0.6271 -4.77103 3.74777 0
M  V30 29 H -0.6339 -4.06102 2.7006 0
M  V30 30 H -1.6289 -2.88284 4.68159 0
M  V30 31 H -0.4039 -3.62421 5.74307 0
M  V30 32 H -2.4579 -5.13431 4.08319 0
M  V30 33 H -2.5409 -4.85839 5.79221 0
M  V30 34 H -1.2729 -5.85594 5.1449 0
M  V30 35 N 2.9562 -1.48159 -0.537278 0
M  V30 36 C 3.8662 -1.64807 -1.6696 0
M  V30 37 C 4.8822 -0.530651 -1.65711 0
M  V30 38 O 6.0582 -0.800784 -1.84796 0
M  V30 39 C 3.1232 -1.67708 -3.03438 0
M  V30 40 C 2.1842 -2.91025 -3.156 0
M  V30 41 C 1.4172 -2.93778 -4.45567 0
M  V30 42 O 1.6402 -2.05153 -5.3223 0
M  V30 43 O 0.5742 -3.85868 -4.61941 0
M  V30 44 H 4.4002 -2.6066 -1.55853 0
M  V30 45 H 1.9852 -1.31475 -0.709549 0
M  V30 46 H 3.8672 -1.7218 -3.84619 0
M  V30 47 H 2.5422 -0.750278 -3.14885 0
M  V30 48 H 1.4492 -2.92089 -2.33741 0
M  V30 49 H 2.7822 -3.83065 -3.09066 0
M  V30 50 N 4.4343 0.785586 -1.36625 0
M  V30 51 C 5.8453 1.36101 -1.27803 0
M  V30 52 C 6.1963 1.96035 0.0804875 0
M  V30 53 O 5.3213 1.92834 0.982042 0
M  V30 54 C 5.9163 2.47442 -2.31426 0
M  V30 55 C 4.4753 3.00789 -2.26281 0
M  V30 56 C 3.6223 1.73896 -2.15999 0
M  V30 57 H 6.5733 0.586928 -1.47448 0
M  V30 58 H 6.5943 3.2656 -1.95291 0
M  V30 59 H 6.1063 2.03791 -3.30289 0
M  V30 60 H 4.2073 3.48851 -1.30896 0
M  V30 61 H 4.3203 3.57343 -3.19128 0
M  V30 62 H 2.6843 1.9628 -1.62316 0
M  V30 63 H 3.4673 1.32368 -3.16755 0
M  V30 64 N 5.9124 1.20967 1.01018 0
M  V30 65 C 6.8424 0.988272 2.11555 0
M  V30 66 C 7.8234 -0.0849778 1.69888 0
M  V30 67 O 9.0084 0.0738202 1.9406 0
M  V30 68 C 6.1384 0.546528 3.42973 0
M  V30 69 C 5.0924 1.56375 3.9841 0
M  V30 70 C 4.4184 0.97842 5.25672 0
M  V30 71 C 5.7184 2.94922 4.31066 0
M  V30 72 H 7.4124 1.91276 2.30334 0
M  V30 73 H 4.9584 0.921073 1.1069 0
M  V30 74 H 6.9114 0.378839 4.19694 0
M  V30 75 H 5.6354 -0.413598 3.23971 0
M  V30 76 H 4.2944 1.71891 3.23804 0
M  V30 77 H 3.9424 0.0101688 5.02999 0
M  V30 78 H 3.6424 1.65784 5.63728 0
M  V30 79 H 5.1664 0.821939 6.05043 0
M  V30 80 H 6.5804 2.8288 4.9865 0
M  V30 81 H 4.9774 3.5983 4.80253 0
M  V30 82 H 6.0474 3.4616 3.39561 0
M  V30 83 N 7.3905 -1.2043 1.01659 0
M  V30 84 C 8.8065 -1.41852 0.731442 0
M  V30 85 C 9.0065 -1.89358 -0.688898 0
M  V30 86 O 8.0625 -2.06247 -1.45666 0
M  V30 87 C 9.3755 -2.44019 1.75714 0
M  V30 88 C 10.9235 -2.57785 1.77527 0
M  V30 89 C 11.3985 -3.63194 2.79023 0
M  V30 90 N 12.8895 -3.70678 2.77763 0
M  V30 91 C 13.6245 -4.51897 3.52954 0
M  V30 92 N 13.1205 -5.36921 4.37821 0
M  V30 93 N 14.9135 -4.4643 3.41551 0
M  V30 94 H 7.0645 -0.879093 1.93354 0
M  V30 95 H 9.3275 -0.448425 0.835236 0
M  V30 96 H 9.0335 -2.1611 2.77469 0
M  V30 97 H 8.9075 -3.43007 1.56927 0
M  V30 98 H 11.2945 -2.85023 0.764569 0
M  V30 99 H 11.3755 -1.58992 2.00387 0
M  V30 100 H 11.0195 -3.36699 3.80258 0
M  V30 101 H 10.9495 -4.61609 2.53425 0
M  V30 102 H 13.4405 -3.09944 2.16201 0
M  V30 103 H 13.7535 -5.95981 4.91962 0
M  V30 104 H 12.0985 -5.36424 4.41899 0
M  V30 105 H 15.2895 -3.79042 2.74672 0
M  V30 106 H 15.4625 -5.09491 4.00404 0
M  V30 107 N 8.8686 -0.792821 -1.36206 0
M  V30 108 C 10.2796 -0.429513 -1.81692 0
M  V30 109 C 10.6306 1.04695 -1.65932 0
M  V30 110 O 9.7556 1.81256 -1.18218 0
M  V30 111 C 10.3506 -0.772831 -3.29868 0
M  V30 112 C 8.9096 -0.462307 -3.7355 0
M  V30 113 C 8.0566 -1.00569 -2.5842 0
M  V30 114 H 11.0076 -0.985672 -1.24379 0
M  V30 115 H 11.0286 -0.0651928 -3.80444 0
M  V30 116 H 10.5406 -1.84747 -3.41307 0
M  V30 117 H 8.6416 0.604158 -3.67669 0
M  V30 118 H 8.7546 -0.985299 -4.68859 0
M  V30 119 H 7.1186 -0.428734 -2.51066 0
M  V30 120 H 7.9016 -2.08616 -2.72643 0
M  V30 121 N 10.3467 1.47872 -0.545128 0
M  V30 122 C 11.7627 1.5829 -0.204032 0
M  V30 123 C 11.9627 1.54529 1.29317 0
M  V30 124 O 11.0187 1.44232 2.07252 0
M  V30 125 C 12.3317 2.89304 -0.819987 0
M  V30 126 C 13.8797 3.02864 -0.790105 0
M  V30 127 C 14.3547 4.3656 -1.38491 0
M  V30 128 N 15.8457 4.43165 -1.34755 0
M  V30 129 C 16.5807 5.45153 -1.77753 0
M  V30 130 N 16.0767 6.54016 -2.2855 0
M  V30 131 N 17.8697 5.36125 -1.68897 0
M  V30 132 H 10.0207 1.4856 -1.51802 0
M  V30 133 H 12.2837 0.706305 -0.632327 0
M  V30 134 H 11.9897 2.97757 -1.87173 0
M  V30 135 H 11.8637 3.75957 -0.305915 0
M  V30 136 H 14.2507 2.94014 0.252913 0
M  V30 137 H 14.3317 2.17782 -1.34181 0
M  V30 138 H 13.9757 4.46164 -2.42693 0
M  V30 139 H 13.9057 5.20353 -0.808754 0
M  V30 140 H 16.3967 3.65083 -0.975855 0
M  V30 141 H 16.7097 7.27994 -2.59314 0
M  V30 142 H 15.0547 6.54938 -2.32553 0
M  V30 143 H 18.2457 4.49975 -1.28998 0
M  V30 144 H 18.4187 6.15472 -2.02726 0
M  V30 145 N 11.8248 0.280983 1.55075 0
M  V30 146 C 13.0648 -0.335234 2.01632 0
M  V30 147 C 13.4288 -1.5261 1.16508 0
M  V30 148 O 14.6298 -2.21235 1.52672 0
M  V30 149 C 12.9008 -0.702172 3.50434 0
M  V30 150 S 14.4598 -1.30409 4.18974 0
M  V30 151 H 11.2778 -0.103967 0.703358 0
M  V30 152 H 13.8798 0.404187 1.91276 0
M  V30 153 H 12.5838 0.17333 4.10034 0
M  V30 154 H 12.1148 -1.4729 3.64786 0
M  V30 155 H 14.1298 -2.59253 4.23087 0
M  V30 156 N 13.3029 -1.57598 0.00835791 0
M  V30 157 C 14.7189 -1.55764 -0.347822 0
M  V30 158 C 14.9189 -1.01186 -1.74252 0
M  V30 159 O 13.9749 -0.649371 -2.44007 0
M  V30 160 C 15.2879 -2.99927 -0.215407 0
M  V30 161 C 16.8359 -3.11656 -0.289725 0
M  V30 162 C 17.3109 -4.57621 -0.18634 0
M  V30 163 N 18.8019 -4.62557 -0.243978 0
M  V30 164 C 19.5369 -5.73094 -0.18745 0
M  V30 165 N 19.0329 -6.92753 -0.0810331 0
M  V30 166 N 20.8259 -5.61588 -0.239925 0
M  V30 167 H 12.9769 -1.91411 0.92062 0
M  V30 168 H 15.2399 -0.879562 0.353659 0
M  V30 169 H 14.9459 -3.43729 0.744512 0
M  V30 170 H 14.8199 -3.63865 -0.994097 0
M  V30 171 H 17.2069 -2.67779 -1.24009 0
M  V30 172 H 17.2879 -2.5048 0.51898 0
M  V30 173 H 16.9319 -5.02174 0.760519 0
M  V30 174 H 16.8619 -5.16752 -1.01364 0
M  V30 175 H 19.3529 -3.76481 -0.327217 0
M  V30 176 H 19.6659 -7.72787 -0.0440241 0
M  V30 177 H 18.0109 -6.94984 -0.0465419 0
M  V30 178 H 21.2019 -4.66996 -0.321317 0
M  V30 179 H 21.3749 -6.47714 -0.192407 0
M  V30 180 N 14.781 0.264519 -1.55364 0
M  V30 181 C 16.192 0.834936 -1.6699 0
M  V30 182 C 16.543 1.86718 -0.602552 0
M  V30 183 O 15.668 2.14899 0.254425 0
M  V30 184 C 16.263 1.5212 -3.02729 0
M  V30 185 C 14.822 2.03954 -3.16354 0
M  V30 186 C 13.969 0.884498 -2.62815 0
M  V30 187 H 16.92 0.0406869 -1.58648 0
M  V30 188 H 16.941 2.38853 -2.96191 0
M  V30 189 H 16.453 0.769668 -3.80392 0
M  V30 190 H 14.554 2.82041 -2.43482 0
M  V30 191 H 14.667 2.24902 -4.23032 0
M  V30 192 H 13.031 1.2802 -2.20188 0
M  V30 193 H 13.814 0.14634 -3.42988 0
M  V30 194 N 16.2591 1.48442 0.529413 0
M  V30 195 C 17.5081 1.55742 1.28169 0
M  V30 196 C 17.8211 0.236511 1.94165 0
M  V30 197 O 19.0271 0.187761 2.7085 0
M  V30 198 C 17.4831 2.74667 2.32564 0
M  V30 199 C 17.0911 4.13402 1.72636 0
M  V30 200 C 18.8351 2.9128 3.08798 0
M  V30 201 C 16.7421 5.23587 2.74975 0
M  V30 202 H 15.6721 0.579796 0.48203 0
M  V30 203 H 18.3231 1.74776 0.559056 0
M  V30 204 H 16.7051 2.49067 3.07866 0
M  V30 205 H 17.8791 4.49022 1.03519 0
M  V30 206 H 16.1941 4.0191 1.08892 0
M  V30 207 H 18.7911 3.70767 3.85274 0
M  V30 208 H 19.1341 2.00757 3.64695 0
M  V30 209 H 19.6671 3.16782 2.40611 0
M  V30 210 H 16.4061 6.16076 2.23897 0
M  V30 211 H 15.9261 4.92454 3.42417 0
M  V30 212 H 17.6051 5.51724 3.37949 0
M  V30 213 N 17.7372 -0.778329 1.37039 0
M  V30 214 C 18.6852 -1.91278 1.32345 0
M  V30 215 C 19.6792 -1.68051 0.213331 0
M  V30 216 O 20.8852 -1.75922 0.38098 0
M  V30 217 H 17.2602 -0.628909 0.412283 0
M  V30 218 H 19.2312 -1.92355 2.28127 0
M  V30 219 C 17.9802 -3.28455 1.14073 0
M  V30 220 H 17.3032 -3.46901 1.98746 0
M  V30 221 H 18.7432 -4.08152 1.14837 0
M  V30 222 C 17.2022 -3.36548 -0.154015 0
M  V30 223 O 17.7322 -3.85186 -1.13993 0
M  V30 224 N 15.9382 -2.89894 -0.202475 0
M  V30 225 H 15.4852 -2.50504 0.600476 0
M  V30 226 H 15.4432 -2.9569 -1.06841 0
M  V30 227 N 19.2153 -1.21501 -1.00376 0
M  V30 228 C 20.1783 -0.976927 -2.07337 0
M  V30 229 C 21.1783 0.0525322 -1.60714 0
M  V30 230 O 22.3683 -0.184869 -1.73216 0
M  V30 231 C 19.5003 -0.473423 -3.37597 0
M  V30 232 H 20.6933 -1.92587 -2.29892 0
M  V30 233 H 18.2463 -1.03217 -1.17371 0
M  V30 234 H 18.9813 0.480379 -3.20722 0
M  V30 235 H 18.7663 -1.216 -3.72768 0
M  V30 236 H 20.2563 -0.32675 -4.1632 0
M  V30 237 N 20.6934 1.19889 -1.02296 0
M  V30 238 C 21.9214 1.9339 -0.735399 0
M  V30 239 C 22.3364 1.75148 0.704887 0
M  V30 240 O 21.6934 1.06954 1.47875 0
M  V30 241 C 21.7444 3.45313 -1.06962 0
M  V30 242 O 21.4654 3.62964 -2.45334 0
M  V30 243 C 22.9664 4.35948 -0.804021 0
M  V30 244 H 20.1864 0.61448 -0.269546 0
M  V30 245 H 22.7304 1.522 -1.36585 0
M  V30 246 H 20.8854 3.84359 -0.484455 0
M  V30 247 H 21.2994 4.56886 -2.57595 0
M  V30 248 H 22.7734 5.41174 -1.0879 0
M  V30 249 H 23.2504 4.3842 0.261691 0
M  V30 250 H 23.8564 4.02574 -1.37164 0
M  V30 251 N 22.1715 0.800033 1.35784 0
M  V30 252 C 23.1015 0.220184 2.3246 0
M  V30 253 C 24.0825 -0.65073 1.57161 0
M  V30 254 O 25.2675 -0.582359 1.85263 0
M  V30 255 C 22.3975 -0.637353 3.41402 0
M  V30 256 C 21.3515 0.134531 4.27789 0
M  V30 257 C 20.6775 -0.844285 5.27992 0
M  V30 258 C 21.9775 1.32979 5.05088 0
M  V30 259 H 23.6715 1.02787 2.81203 0
M  V30 260 H 21.2175 0.495717 1.35199 0
M  V30 261 H 23.1705 -1.05302 4.08031 0
M  V30 262 H 21.8945 -1.47785 2.91251 0
M  V30 263 H 20.5535 0.531296 3.6273 0
M  V30 264 H 20.2015 -1.68011 4.74111 0
M  V30 265 H 19.9015 -0.332184 5.8666 0
M  V30 266 H 21.4255 -1.2583 5.97494 0
M  V30 267 H 22.8395 0.98934 5.64699 0
M  V30 268 H 21.2365 1.77593 5.7322 0
M  V30 269 H 22.3065 2.11978 4.36111 0
M  V30 270 N 23.6496 -1.47581 0.552962 0
M  V30 271 C 24.6126 -2.28439 -0.186605 0
M  V30 272 C 25.6126 -1.36706 -0.84665 0
M  V30 273 O 26.8026 -1.59378 -0.703164 0
M  V30 274 C 23.9346 -3.16264 -1.2724 0
M  V30 275 H 25.1276 -2.95294 0.523609 0
M  V30 276 H 22.6806 -1.532 0.309745 0
M  V30 277 H 23.4156 -2.54091 -2.01514 0
M  V30 278 H 23.2006 -3.83769 -0.803968 0
M  V30 279 H 24.6906 -3.77198 -1.79196 0
M  V30 280 N 25.1277 -0.289203 -1.54924 0
M  V30 281 C 26.3737 0.323998 -2.00195 0
M  V30 282 C 26.7067 1.54441 -1.17735 0
M  V30 283 O 25.9817 1.92875 -0.250878 0
M  V30 284 C 26.2647 0.692276 -3.53383 0
M  V30 285 C 26.1177 -0.536457 -4.46589 0
M  V30 286 C 27.4367 1.52335 -4.12895 0
M  V30 287 H 24.5557 0.116289 -0.727768 0
M  V30 288 H 27.1977 -0.398954 -1.85764 0
M  V30 289 H 25.3477 1.30822 -3.65811 0
M  V30 290 H 27.0197 -1.17499 -4.46085 0
M  V30 291 H 25.2627 -1.17192 -4.1767 0
M  V30 292 H 25.9337 -0.234806 -5.515 0
M  V30 293 H 28.4097 1.00302 -4.0383 0
M  V30 294 H 27.2857 1.74982 -5.20262 0
M  V30 295 H 27.5467 2.50886 -3.64018 0
M  V30 296 N 26.6058 1.57591 -0.0167156 0
M  V30 297 C 27.5158 2.1291 0.98521 0
M  V30 298 C 28.5318 1.07834 1.36557 0
M  V30 299 O 29.7078 1.39826 1.44951 0
M  V30 300 C 26.7728 2.63512 2.25305 0
M  V30 301 C 25.8338 3.83256 1.93426 0
M  V30 302 C 25.0668 4.31435 3.14165 0
M  V30 303 O 25.2898 3.78851 4.26413 0
M  V30 304 O 24.2238 5.23416 2.97186 0
M  V30 305 H 28.0498 2.98772 0.544888 0
M  V30 306 H 25.6348 1.48012 0.203141 0
M  V30 307 H 27.5168 2.96183 2.99756 0
M  V30 308 H 26.1918 1.8074 2.68542 0
M  V30 309 H 25.0988 3.55531 1.16398 0
M  V30 310 H 26.4318 4.67153 1.55013 0
M  V30 311 N 28.0839 -0.256276 1.55502 0
M  V30 312 C 29.0309 -1.31714 1.89526 0
M  V30 313 C 30.0009 -1.4828 0.748479 0
M  V30 314 O 31.1859 -1.62416 1.00128 0
M  V30 315 C 28.3259 -2.66933 2.18725 0
M  V30 316 C 27.4389 -2.58452 3.4616 0
M  V30 317 C 26.5739 -3.85961 3.64976 0
M  V30 318 C 25.6129 -3.72059 4.86044 0
M  V30 319 N 24.7499 -4.9144 5.01429 0
M  V30 320 H 29.5899 -1.01998 2.80001 0
M  V30 321 H 27.1269 -0.492413 1.38613 0
M  V30 322 H 29.0849 -3.4563 2.33657 0
M  V30 323 H 27.7149 -2.94816 1.31466 0
M  V30 324 H 26.7669 -1.71374 3.3961 0
M  V30 325 H 28.0789 -2.44085 4.34999 0
M  V30 326 H 27.2329 -4.73101 3.79816 0
M  V30 327 H 25.9719 -4.03215 2.74353 0
M  V30 328 H 24.9769 -2.83302 4.7119 0
M  V30 329 H 26.2019 -3.56309 5.78118 0
M  V30 330 H 24.1479 -5.09072 4.13741 0
M  V30 331 H 24.0649 -4.79668 5.84341 0
M  V30 332 H 25.3329 -5.80104 5.20672 0
M  V30 333 N 29.562 -1.4872 -0.521534 0
M  V30 334 C 30.472 -1.66569 -1.65203 0
M  V30 335 C 31.488 -0.548197 -1.65139 0
M  V30 336 O 32.664 -0.820339 -1.83936 0
M  V30 337 C 29.729 -1.70917 -3.01642 0
M  V30 338 C 28.79 -2.94356 -3.12495 0
M  V30 339 C 28.023 -2.98487 -4.42426 0
M  V30 340 O 28.246 -2.10786 -5.30024 0
M  V30 341 O 27.18 -3.90746 -4.57822 0
M  V30 342 H 31.006 -2.62298 -1.5308 0
M  V30 343 H 28.591 -1.3222 -0.695565 0
M  V30 344 H 30.473 -1.7625 -3.82771 0
M  V30 345 H 29.148 -0.783633 -3.14071 0
M  V30 346 H 28.055 -2.94552 -2.3063 0
M  V30 347 H 29.388 -3.86322 -3.04986 0
M  V30 348 N 31.0401 0.771051 -1.3745 0
M  V30 349 C 32.2881 1.52661 -1.32435 0
M  V30 350 C 32.6091 1.9479 0.0905024 0
M  V30 351 O 31.8791 1.66348 1.03466 0
M  V30 352 H 30.4591 0.566218 -0.487244 0
M  V30 353 H 33.1211 0.917636 -1.71946 0
M  V30 354 H 32.2171 2.42568 -1.96385 0
M  V30 355 N 32.5182 1.22032 0.997298 0
M  V30 356 C 33.7582 1.05375 1.75144 0
M  V30 357 C 34.1222 -0.404696 1.87686 0
M  V30 358 O 35.3232 -0.691998 2.5974 0
M  V30 359 C 33.5942 1.74046 3.12158 0
M  V30 360 S 35.1532 1.72745 4.03366 0
M  V30 361 H 31.9712 0.377449 0.602539 0
M  V30 362 H 34.5732 1.54902 1.19272 0
M  V30 363 H 33.2772 2.79332 3.00669 0
M  V30 364 H 32.8082 1.24731 3.73103 0
M  V30 365 H 34.8232 0.774015 4.90126 0
M  V30 366 N 33.9963 -1.19345 1.0293 0
M  V30 367 C 35.4073 -1.70725 0.755633 0
M  V30 368 C 35.7583 -1.82326 -0.724676 0
M  V30 369 O 34.8833 -1.49471 -1.56484 0
M  V30 370 C 35.4783 -3.10084 1.36503 0
M  V30 371 C 34.0373 -3.58723 1.13994 0
M  V30 372 C 33.1843 -2.35577 1.46283 0
M  V30 373 H 36.1353 -1.0418 1.19718 0
M  V30 374 H 36.1563 -3.72787 0.762217 0
M  V30 375 H 35.6683 -3.01609 2.44241 0
M  V30 376 H 33.7693 -3.72512 0.0807901 0
M  V30 377 H 33.8823 -4.42816 1.82894 0
M  V30 378 H 32.2463 -2.38935 0.88217 0
M  V30 379 H 33.0293 -2.29731 2.55105 0
M  V30 380 N 35.4744 -0.807222 -1.35358 0
M  V30 381 C 36.7204 -0.388463 -1.99045 0
M  V30 382 C 37.0534 1.04184 -1.63888 0
M  V30 383 O 36.3284 1.72292 -0.902535 0
M  V30 384 C 36.6114 -0.572783 -3.55515 0
M  V30 385 C 36.4644 -2.04807 -4.00468 0
M  V30 386 C 37.7834 0.00114064 -4.401 0
M  V30 387 H 34.9024 -0.142619 -0.723069 0
M  V30 388 H 37.5444 -1.01687 -1.60498 0
M  V30 389 H 35.6944 -0.0378425 -3.88482 0
M  V30 390 H 37.3664 -2.64544 -3.77908 0
M  V30 391 H 35.6094 -2.54427 -3.51353 0
M  V30 392 H 36.2804 -2.12792 -5.09337 0
M  V30 393 H 38.7564 -0.455716 -4.13597 0
M  V30 394 H 37.6324 -0.157737 -5.48673 0
M  V30 395 H 37.8934 1.09488 -4.28328 0
M  V30 396 N 36.9525 1.47285 -0.560781 0
M  V30 397 C 38.1925 2.0436 -0.0404627 0
M  V30 398 C 38.5565 1.42534 1.28639 0
M  V30 399 O 39.7575 1.90677 1.89462 0
M  V30 400 C 38.0285 3.57369 0.0471856 0
M  V30 401 S 39.5875 4.3579 0.513109 0
M  V30 402 H 36.4055 0.710492 -0.0268674 0
M  V30 403 H 39.0075 1.80611 -0.748323 0
M  V30 404 H 37.7115 3.9989 -0.922817 0
M  V30 405 H 37.2425 3.8562 0.778491 0
M  V30 406 H 39.2575 4.63476 1.77212 0
M  V30 407 N 38.4306 0.297415 1.54768 0
M  V30 408 C 39.6796 -0.313669 1.99246 0
M  V30 409 C 39.9926 -1.55281 1.18942 0
M  V30 410 O 41.1986 -2.23825 1.5367 0
M  V30 411 C 39.6546 -0.609407 3.54703 0
M  V30 412 C 39.2626 0.611192 4.43811 0
M  V30 413 C 41.0066 -1.18188 4.07715 0
M  V30 414 C 38.9136 0.288805 5.90694 0
M  V30 415 H 37.8436 -0.120979 0.744231 0
M  V30 416 H 40.4946 0.40556 1.78962 0
M  V30 417 H 38.8766 -1.38813 3.70873 0
M  V30 418 H 40.0506 1.3875 4.39414 0
M  V30 419 H 38.3656 1.10205 4.01552 0
M  V30 420 H 40.9626 -1.43727 5.15021 0
M  V30 421 H 41.3056 -2.12299 3.58099 0
M  V30 422 H 41.8386 -0.464944 3.95074 0
M  V30 423 H 38.5776 1.19838 6.44453 0
M  V30 424 H 38.0976 -0.450305 5.98107 0
M  V30 425 H 39.7766 -0.110933 6.46905 0
M  V30 426 N 39.9087 -1.5758 0.0250728 0
M  V30 427 C 41.1367 -1.9593 -0.664747 0
M  V30 428 C 41.5517 -0.901352 -1.65895 0
M  V30 429 O 40.9087 0.117255 -1.82123 0
M  V30 430 C 40.9597 -3.34342 -1.37468 0
M  V30 431 O 40.6807 -4.36079 -0.420324 0
M  V30 432 C 42.1817 -3.873 -2.1567 0
M  V30 433 H 39.4017 -0.645405 -0.183557 0
M  V30 434 H 41.9457 -2.04329 0.0836372 0
M  V30 435 H 40.1007 -3.27175 -2.0745 0
M  V30 436 H 40.5147 -5.16297 -0.923991 0
M  V30 437 H 41.9887 -4.86504 -2.60803 0
M  V30 438 H 42.4657 -3.21331 -2.99405 0
M  V30 439 H 43.0717 -3.97723 -1.50654 0
M  V30 440 N 41.3868 0.248026 -1.55636 0
M  V30 441 C 42.6328 0.97767 -1.77678 0
M  V30 442 C 42.9658 1.85016 -0.590135 0
M  V30 443 O 42.2408 1.90095 0.411611 0
M  V30 444 C 42.5238 1.83914 -3.09593 0
M  V30 445 C 42.3768 0.99491 -4.38659 0
M  V30 446 C 43.6958 2.82183 -3.37729 0
M  V30 447 H 40.8148 0.354005 -0.646413 0
M  V30 448 H 43.4568 0.248253 -1.88371 0
M  V30 449 H 41.6068 2.46104 -3.00608 0
M  V30 450 H 43.2788 0.391789 -4.59633 0
M  V30 451 H 41.5218 0.299231 -4.32767 0
M  V30 452 H 42.1928 1.63145 -5.2734 0
M  V30 453 H 44.6688 2.30129 -3.4667 0
M  V30 454 H 43.5448 3.39582 -4.31249 0
M  V30 455 H 43.8058 3.58588 -2.58586 0
M  V30 456 N 42.8649 1.48995 0.513639 0
M  V30 457 C 43.8129 1.65199 1.63744 0
M  V30 458 C 44.8069 0.51809 1.61283 0
M  V30 459 O 46.0129 0.697335 1.65943 0
M  V30 460 H 42.3879 0.52069 0.542574 0
M  V30 461 H 44.3589 2.59552 1.47226 0
M  V30 462 C 43.1079 1.72409 3.01945 0
M  V30 463 H 42.4309 2.59029 3.04539 0
M  V30 464 H 43.8709 1.87785 3.80148 0
M  V30 465 C 42.3299 0.46618 3.33659 0
M  V30 466 O 42.8599 -0.413744 3.99564 0
M  V30 467 N 41.0659 0.332931 2.88687 0
M  V30 468 H 40.6129 1.04996 2.35231 0
M  V30 469 H 40.5709 -0.507665 3.10274 0
M  V30 470 N 44.343 -0.763751 1.37857 0
M  V30 471 C 45.571 -1.55293 1.36718 0
M  V30 472 C 45.986 -1.88745 -0.0455434 0
M  V30 473 O 45.343 -1.52039 -1.00947 0
M  V30 474 C 45.394 -2.85831 2.2132 0
M  V30 475 O 45.115 -2.5381 3.57089 0
M  V30 476 C 46.616 -3.80023 2.28249 0
M  V30 477 H 43.836 -0.480841 0.468009 0
M  V30 478 H 46.38 -0.946009 1.81303 0
M  V30 479 H 44.535 -3.42926 1.80223 0
M  V30 480 H 44.949 -3.37459 4.01524 0
M  V30 481 H 46.423 -4.68599 2.91752 0
M  V30 482 H 46.9 -4.1973 1.2932 0
M  V30 483 H 47.506 -3.28855 2.69693 0
M  V30 484 N 45.8211 -1.22559 -0.990812 0
M  V30 485 C 47.0491 -1.07779 -1.76611 0
M  V30 486 C 47.4641 0.371513 -1.85109 0
M  V30 487 O 46.8211 1.25737 -1.32274 0
M  V30 488 C 46.8721 -1.68512 -3.19822 0
M  V30 489 O 46.5931 -3.07774 -3.1178 0
M  V30 490 C 48.0941 -1.59035 -4.13791 0
M  V30 491 H 45.3141 -0.377729 -0.554583 0
M  V30 492 H 47.8581 -1.62195 -1.24551 0
M  V30 493 H 46.0131 -1.18154 -3.68942 0
M  V30 494 H 46.4271 -3.37062 -4.01858 0
M  V30 495 H 47.9011 -2.0625 -5.1202 0
M  V30 496 H 48.3781 -0.547273 -4.35777 0
M  V30 497 H 48.9841 -2.08709 -3.70568 0
M  V30 498 N 47.2992 1.18797 -1.03562 0
M  V30 499 C 48.5482 1.87978 -0.731235 0
M  V30 500 C 48.8612 1.80911 0.743671 0
M  V30 501 O 50.0672 2.45407 1.16137 0
M  V30 502 C 48.5232 3.3721 -1.25768 0
M  V30 503 C 48.1312 3.52818 -2.76085 0
M  V30 504 C 49.8752 4.11825 -1.0296 0
M  V30 505 C 47.7822 4.9598 -3.22114 0
M  V30 506 H 46.7122 0.704063 -0.269835 0
M  V30 507 H 49.3632 1.34266 -1.25079 0
M  V30 508 H 47.7452 3.90359 -0.666011 0
M  V30 509 H 48.9192 3.09965 -3.40966 0
M  V30 510 H 47.2342 2.91602 -2.97249 0
M  V30 511 H 49.8312 5.17411 -1.34869 0
M  V30 512 H 50.1742 4.16287 0.0333546 0
M  V30 513 H 50.7072 3.64833 -1.58562 0
M  V30 514 H 47.4462 4.96684 -4.27768 0
M  V30 515 H 46.9662 5.39569 -2.61965 0
M  V30 516 H 48.6452 5.6467 -3.15844 0
M  V30 517 N 48.7773 0.814389 1.34928 0
M  V30 518 C 50.0173 0.404165 2.00364 0
M  V30 519 C 50.3813 -1.01166 1.63185 0
M  V30 520 O 51.5823 -1.52431 2.21401 0
M  V30 521 C 49.8533 0.590718 3.52484 0
M  V30 522 S 51.4123 0.272075 4.37956 0
M  V30 523 H 48.2303 0.15311 0.694319 0
M  V30 524 H 50.8323 1.05834 1.64376 0
M  V30 525 H 49.5363 1.62099 3.77031 0
M  V30 526 H 49.0673 -0.0785013 3.93322 0
M  V30 527 H 51.0823 -0.917405 4.87645 0
M  V30 528 N 50.2554 -1.46986 0.568584 0
M  V30 529 C 51.2184 -2.28624 -0.162366 0
M  V30 530 C 52.2184 -1.37596 -0.832103 0
M  V30 531 O 53.4084 -1.60115 -0.68622 0
M  V30 532 C 50.5404 -3.17596 -1.23878 0
M  V30 533 H 51.7334 -2.94722 0.554899 0
M  V30 534 H 49.2864 -1.52863 0.325976 0
M  V30 535 H 50.0214 -2.56214 -1.98808 0
M  V30 536 H 49.8064 -3.846 -0.763219 0
M  V30 537 H 51.2964 -3.79078 -1.75185 0
M  V30 538 N 51.7335 -0.305618 -1.54608 0
M  V30 539 C 52.9815 0.301701 -1.99835 0
M  V30 540 C 53.3025 1.54054 -1.19551 0
M  V30 541 O 52.5725 1.93702 -0.292658 0
M  V30 542 H 51.1525 0.114468 -0.738178 0
M  V30 543 H 53.8145 -0.418016 -1.90364 0
M  V30 544 H 52.9105 0.570548 -3.06841 0
M  V30 545 N 53.2116 1.57565 -0.0334293 0
M  V30 546 C 54.4416 1.95996 0.653398 0
M  V30 547 C 54.8496 0.908749 1.65947 0
M  V30 548 O 54.1926 -0.117471 1.83324 0
M  V30 549 C 54.2546 3.30589 1.41249 0
M  V30 550 C 53.9186 4.53503 0.564263 0
M  V30 551 C 54.9156 5.19647 -0.16225 0
M  V30 552 C 52.6006 4.99801 0.500398 0
M  V30 553 C 54.5946 6.30412 -0.941255 0
M  V30 554 C 52.2816 6.10448 -0.282308 0
M  V30 555 C 53.2796 6.75612 -1.00184 0
M  V30 556 O 52.9676 7.84134 -1.77171 0
M  V30 557 H 52.6996 0.65027 0.184728 0
M  V30 558 H 55.2536 2.05199 -0.0907841 0
M  V30 559 H 53.4836 3.17888 2.20191 0
M  V30 560 H 55.1726 3.53892 1.98784 0
M  V30 561 H 55.9386 4.84846 -0.12227 0
M  V30 562 H 51.8176 4.48883 1.05002 0
M  V30 563 H 55.3616 6.81208 -1.50339 0
M  V30 564 H 51.2586 6.44686 -0.323989 0
M  V30 565 H 52.0266 8.00822 -1.69194 0
M  V30 566 N 54.6897 -0.239769 1.55765 0
M  V30 567 C 55.9297 -0.974076 1.79697 0
M  V30 568 C 56.2937 -1.82249 0.604088 0
M  V30 569 O 57.4947 -2.58913 0.722324 0
M  V30 570 C 55.7657 -1.80595 3.08416 0
M  V30 571 S 57.3247 -2.59838 3.53596 0
M  V30 572 H 54.1427 -0.327524 0.63107 0
M  V30 573 H 56.7447 -0.241277 1.94005 0
M  V30 574 H 55.4487 -1.17249 3.93295 0
M  V30 575 H 54.9797 -2.58137 2.96865 0
M  V30 576 H 56.9947 -3.82987 3.15492 0
M  V30 577 N 56.1678 -1.49265 -0.50573 0
M  V30 578 C 57.5788 -1.51769 -1.08734 0
M  V30 579 C 57.9298 -0.301192 -1.93874 0
M  V30 580 O 57.0548 0.589456 -2.08217 0
M  V30 581 C 57.6498 -2.75017 -1.97867 0
M  V30 582 C 56.2088 -2.80314 -2.51199 0
M  V30 583 C 55.3558 -2.4562 -1.28709 0
M  V30 584 H 58.3068 -1.56031 -0.289855 0
M  V30 585 H 58.3278 -2.5491 -2.82491 0
M  V30 586 H 57.8398 -3.63539 -1.35873 0
M  V30 587 H 55.9408 -1.96061 -3.16845 0
M  V30 588 H 56.0538 -3.82366 -2.88675 0
M  V30 589 H 54.4178 -1.97297 -1.61078 0
M  V30 590 H 55.2008 -3.36411 -0.6843 0
M  V30 591 N 57.6459 0.756429 -1.3826 0
M  V30 592 C 58.8739 1.54565 -1.3754 0
M  V30 593 C 59.2889 1.88767 0.0355331 0
M  V30 594 O 58.6459 1.52572 1.0014 0
M  V30 595 C 58.6969 2.84654 -2.22833 0
M  V30 596 O 58.4179 2.51912 -3.5843 0
M  V30 597 C 59.9189 3.78807 -2.30261 0
M  V30 598 H 57.1389 0.478353 -0.470553 0
M  V30 599 H 59.6829 0.936381 -1.81803 0
M  V30 600 H 57.8379 3.41965 -1.8204 0
M  V30 601 H 58.2519 3.35325 -4.03308 0
M  V30 602 H 59.7259 4.67045 -2.94233 0
M  V30 603 H 60.2029 4.19038 -1.31545 0
M  V30 604 H 60.8089 3.2742 -2.71433 0
M  V30 605 N 59.124 1.23083 0.984299 0
M  V30 606 C 60.057 0.951786 2.07404 0
M  V30 607 C 61.035 -0.10848 1.62238 0
M  V30 608 O 62.219 0.0249467 1.88483 0
M  V30 609 C 59.346 0.433142 3.35919 0
M  V30 610 C 58.392 1.47941 4.0002 0
M  V30 611 S 59.225 3.05556 4.39768 0
M  V30 612 C 60.381 2.55351 5.71442 0
M  V30 613 H 60.614 1.87456 2.30754 0
M  V30 614 H 58.147 1.06284 1.11996 0
M  V30 615 H 60.105 0.140506 4.10259 0
M  V30 616 H 58.766 -0.468656 3.10584 0
M  V30 617 H 57.959 1.06658 4.92585 0
M  V30 618 H 57.561 1.7212 3.3204 0
M  V30 619 H 59.853 1.97128 6.48187 0
M  V30 620 H 60.796 3.46441 6.17563 0
M  V30 621 H 61.204 1.96339 5.29255 0
M  V30 622 N 60.6021 -1.18246 1.0419 0
M  V30 623 C 61.8301 -1.92195 0.766072 0
M  V30 624 C 62.2451 -1.76247 -0.676933 0
M  V30 625 O 61.6021 -1.09293 -1.46155 0
M  V30 626 C 61.6531 -3.43568 1.12442 0
M  V30 627 O 61.3741 -3.59015 2.51078 0
M  V30 628 C 62.8751 -4.34613 0.873275 0
M  V30 629 H 60.0951 -0.610114 0.279288 0
M  V30 630 H 62.6391 -1.50007 1.38989 0
M  V30 631 H 60.7941 -3.8354 0.545542 0
M  V30 632 H 61.2081 -4.5273 2.64831 0
M  V30 633 H 62.6821 -5.39374 1.17385 0
M  V30 634 H 63.1591 -4.38781 -0.191909 0
M  V30 635 H 63.7651 -4.00341 1.43551 0
M  V30 636 N 62.0802 -0.821533 -1.34494 0
M  V30 637 C 63.4962 -0.507117 -1.51329 0
M  V30 638 C 63.6962 0.968964 -1.76673 0
M  V30 639 O 62.7522 1.75348 -1.81685 0
M  V30 640 C 64.0652 -1.36544 -2.67911 0
M  V30 641 C 65.6132 -1.36242 -2.81793 0
M  V30 642 C 66.0882 -2.2052 -4.01416 0
M  V30 643 N 67.5792 -2.18136 -4.08621 0
M  V30 644 C 68.3142 -2.80095 -5.00334 0
M  V30 645 N 67.8102 -3.51039 -5.9728 0
M  V30 646 N 69.6032 -2.69656 -4.93196 0
M  V30 647 H 61.7542 -1.77729 -1.16302 0
M  V30 648 H 64.0172 -0.757291 -0.570276 0
M  V30 649 H 63.7232 -2.41361 -2.55808 0
M  V30 650 H 63.5972 -1.02917 -3.62888 0
M  V30 651 H 65.9842 -0.322041 -2.93338 0
M  V30 652 H 66.0652 -1.73866 -1.87628 0
M  V30 653 H 65.7092 -3.24607 -3.90631 0
M  V30 654 H 65.6392 -1.80247 -4.94791 0
M  V30 655 H 68.1302 -1.6653 -3.39229 0
M  V30 656 H 68.4432 -3.95565 -6.63889 0
M  V30 657 H 66.7882 -3.55145 -5.97409 0
M  V30 658 H 69.9792 -2.13808 -4.16418 0
M  V30 659 H 70.1522 -3.1823 -5.64476 0
M  V30 660 N 63.5583 1.46682 -0.576371 0
M  V30 661 C 64.8043 2.02712 -0.0596221 0
M  V30 662 C 65.1373 1.44765 1.29448 0
M  V30 663 O 64.4123 0.610355 1.84675 0
M  V30 664 C 64.6953 3.60098 0.0129503 0
M  V30 665 C 64.5483 4.28441 -1.3696 0
M  V30 666 C 65.8673 4.34224 0.71678 0
M  V30 667 H 62.9863 0.736637 -0.0231407 0
M  V30 668 H 65.6283 1.74898 -0.742351 0
M  V30 669 H 63.7783 3.83926 0.594378 0
M  V30 670 H 65.4503 4.15896 -1.9957 0
M  V30 671 H 63.6933 3.8805 -1.93907 0
M  V30 672 H 64.3643 5.3716 -1.27135 0
M  V30 673 H 66.8403 4.15503 0.222908 0
M  V30 674 H 65.7163 5.43936 0.73657 0
M  V30 675 H 65.9773 4.04823 1.77682 0
M  V30 676 N 65.0364 0.313813 1.54444 0
M  V30 677 C 65.9664 -0.549454 2.26943 0
M  V30 678 C 66.9474 -1.12741 1.27372 0
M  V30 679 O 68.1324 -1.15436 1.56167 0
M  V30 680 C 65.2624 -1.71523 3.01989 0
M  V30 681 C 64.2164 -1.26703 4.08816 0
M  V30 682 C 63.5424 -2.51898 4.71647 0
M  V30 683 C 64.8424 -0.388962 5.2085 0
M  V30 684 H 66.5364 0.0552661 2.99349 0
M  V30 685 H 64.0824 0.0280207 1.43973 0
M  V30 686 H 66.0354 -2.32535 3.51433 0
M  V30 687 H 64.7594 -2.34639 2.27183 0
M  V30 688 H 63.4184 -0.679896 3.6024 0
M  V30 689 H 63.0664 -3.13356 3.93468 0
M  V30 690 H 62.7664 -2.22605 5.43802 0
M  V30 691 H 64.2904 -3.1369 5.23861 0
M  V30 692 H 65.7044 -0.905107 5.6611 0
M  V30 693 H 64.1014 -0.18924 5.99802 0
M  V30 694 H 65.1714 0.582699 4.81386 0
M  V30 695 N 66.5145 -1.57545 0.0417849 0
M  V30 696 C 67.4465 -2.07904 -0.964799 0
M  V30 697 C 68.4595 -1.00497 -1.28079 0
M  V30 698 O 69.6485 -1.28087 -1.24322 0
M  V30 699 C 66.7485 -2.49928 -2.28887 0
M  V30 700 C 65.9215 -3.80562 -2.15619 0
M  V30 701 C 64.9805 -4.08999 -3.31069 0
M  V30 702 O 64.0065 -4.79061 -3.0739 0
M  V30 703 N 65.2085 -3.6017 -4.55256 0
M  V30 704 H 67.9735 -2.94886 -0.535029 0
M  V30 705 H 65.5345 -1.61252 -0.144681 0
M  V30 706 H 67.5265 -2.66034 -3.04972 0
M  V30 707 H 66.0965 -1.68245 -2.63463 0
M  V30 708 H 65.3165 -3.74129 -1.24183 0
M  V30 709 H 66.6045 -4.66126 -2.03971 0
M  V30 710 H 66.0025 -3.03512 -4.77386 0
M  V30 711 H 64.5595 -3.81532 -5.28466 0
M  V30 712 N 67.9926 0.231505 -1.5589 0
M  V30 713 C 69.2406 0.955461 -1.78088 0
M  V30 714 C 69.5616 1.85262 -0.608533 0
M  V30 715 O 68.8316 1.92277 0.375035 0
M  V30 716 H 67.4116 0.355787 -0.656829 0
M  V30 717 H 70.0736 0.245751 -1.93344 0
M  V30 718 H 69.1696 1.56814 -2.69844 0
M  V30 719 N 69.4707 1.49531 0.497807 0
M  V30 720 C 70.7167 1.59415 1.25358 0
M  V30 721 C 71.0497 0.281422 1.9215 0
M  V30 722 O 70.3247 -0.715249 1.80871 0
M  V30 723 C 70.6077 2.75566 2.3181 0
M  V30 724 C 70.4607 4.16642 1.69498 0
M  V30 725 C 71.7797 2.87347 3.33346 0
M  V30 726 H 68.8987 0.580244 0.454408 0
M  V30 727 H 71.5407 1.81827 0.551262 0
M  V30 728 H 69.6907 2.56587 2.91711 0
M  V30 729 H 71.3627 4.47145 1.13399 0
M  V30 730 H 69.6057 4.22141 0.998978 0
M  V30 731 H 70.2767 4.93792 2.46725 0
M  V30 732 H 72.7527 3.04634 2.83438 0
M  V30 733 H 71.6287 3.70289 4.05188 0
M  V30 734 H 71.8897 1.96834 3.95865 0
M  V30 735 N 70.9488 -0.749086 1.3866 0
M  V30 736 C 71.8788 -1.8764 1.38973 0
M  V30 737 C 72.8598 -1.68178 0.255004 0
M  V30 738 O 74.0448 -1.88704 0.458754 0
M  V30 739 C 71.1748 -3.25222 1.21851 0
M  V30 740 C 70.1288 -3.59295 2.32575 0
M  V30 741 C 69.4548 -4.95663 2.00555 0
M  V30 742 C 70.7548 -3.63709 3.7485 0
M  V30 743 H 72.4488 -1.87635 2.3331 0
M  V30 744 H 69.9948 -0.901329 1.12303 0
M  V30 745 H 71.9478 -4.03746 1.20695 0
M  V30 746 H 70.6718 -3.25719 0.239775 0
M  V30 747 H 69.3308 -2.83093 2.32925 0
M  V30 748 H 68.9788 -4.92724 1.01154 0
M  V30 749 H 68.6788 -5.19429 2.74714 0
M  V30 750 H 70.2028 -5.7656 2.01024 0
M  V30 751 H 71.6168 -4.32338 3.76506 0
M  V30 752 H 70.0138 -3.98986 4.48252 0
M  V30 753 H 71.0838 -2.63834 4.06841 0
M  V30 754 N 72.4269 -1.23603 -0.977757 0
M  V30 755 C 73.8379 -1.06424 -1.53398 0
M  V30 756 C 74.1889 0.367578 -1.92726 0
M  V30 757 O 73.3139 1.25465 -1.76316 0
M  V30 758 C 73.9089 -1.92568 -2.78753 0
M  V30 759 C 72.4679 -1.79642 -3.30765 0
M  V30 760 C 71.6149 -1.88111 -2.03739 0
M  V30 761 H 74.5659 -1.37227 -0.797152 0
M  V30 762 H 74.5869 -1.45203 -3.51705 0
M  V30 763 H 74.0989 -2.96771 -2.50098 0
M  V30 764 H 72.1999 -0.782325 -3.64294 0
M  V30 765 H 72.3129 -2.63174 -4.00345 0
M  V30 766 H 70.6769 -1.31723 -2.17994 0
M  V30 767 H 71.4599 -2.93875 -1.77461 0
M  V30 768 N 73.905 1.17692 -1.04816 0
M  V30 769 C 74.868 2.19787 -0.650117 0
M  V30 770 C 75.868 1.58044 0.296427 0
M  V30 771 O 77.058 1.74012 0.0808097 0
M  V30 772 C 74.19 3.40869 0.0456987 0
M  V30 773 H 75.383 2.56516 -1.5537 0
M  V30 774 H 72.936 1.31708 -0.841594 0
M  V30 775 H 73.671 3.09681 0.962726 0
M  V30 776 H 73.456 3.86928 -0.634727 0
M  V30 777 H 74.946 4.16445 0.310432 0
M  V30 778 N 75.3831 0.828654 1.34056 0
M  V30 779 C 76.3131 0.269443 2.3194 0
M  V30 780 C 77.2941 -0.617247 1.58506 0
M  V30 781 O 78.4791 -0.542931 1.86456 0
M  V30 782 C 75.6091 -0.564793 3.42677 0
M  V30 783 C 74.5631 0.225241 4.27407 0
M  V30 784 C 73.8891 -0.7321 5.29664 0
M  V30 785 C 75.1891 1.43663 5.02154 0
M  V30 786 H 76.8831 1.08728 2.7896 0
M  V30 787 H 74.4291 0.524283 1.34117 0
M  V30 788 H 76.3821 -0.966233 4.10173 0
M  V30 789 H 75.1061 -1.41574 2.9432 0
M  V30 790 H 73.7651 0.608117 3.61521 0
M  V30 791 H 73.4131 -1.57916 4.77568 0
M  V30 792 H 73.1131 -0.20767 5.87233 0
M  V30 793 H 74.6371 -1.13128 6.00029 0
M  V30 794 H 76.0511 1.1089 5.62473 0
M  V30 795 H 74.4481 1.89711 5.69324 0
M  V30 796 H 75.5181 2.21181 4.31517 0
M  V30 797 N 76.8612 -1.46375 0.584142 0
M  V30 798 C 78.2722 -1.86031 0.157959 0
M  V30 799 C 78.6232 -1.48753 -1.27933 0
M  V30 800 O 77.7482 -0.903098 -1.96655 0
M  V30 801 C 78.3432 -3.37642 0.279892 0
M  V30 802 C 76.9022 -3.76289 -0.09143 0
M  V30 803 C 76.0492 -2.7039 0.615178 0
M  V30 804 H 79.0002 -1.37509 0.792274 0
M  V30 805 H 79.0212 -3.77275 -0.494364 0
M  V30 806 H 78.5332 -3.64742 1.32607 0
M  V30 807 H 76.6342 -3.54806 -1.13769 0
M  V30 808 H 76.7472 -4.78246 0.285886 0
M  V30 809 H 75.1112 -2.5464 0.0552833 0
M  V30 810 H 75.8942 -3.0033 1.66303 0
M  V30 811 N 78.3393 -0.321999 -1.54275 0
M  V30 812 C 79.2713 0.578671 -2.21775 0
M  V30 813 C 80.2843 1.08109 -1.21722 0
M  V30 814 O 81.4733 0.994938 -1.482 0
M  V30 815 C 78.5733 1.80661 -2.86731 0
M  V30 816 C 77.7463 1.44314 -4.12907 0
M  V30 817 C 76.8053 2.52845 -4.61472 0
M  V30 818 O 75.8313 2.17054 -5.2619 0
M  V30 819 N 77.0333 3.83748 -4.35566 0
M  V30 820 H 79.7983 0.000709447 -2.997 0
M  V30 821 H 77.3593 -0.145132 -1.61248 0
M  V30 822 H 79.3513 2.52655 -3.16145 0
M  V30 823 H 77.9213 2.29245 -2.12521 0
M  V30 824 H 77.1413 0.554906 -3.90275 0
M  V30 825 H 78.4293 1.17598 -4.95023 0
M  V30 826 H 77.8273 4.15625 -3.83761 0
M  V30 827 H 76.3843 4.51977 -4.69638 0
M  V30 828 N 79.8174 1.5752 -0.0501392 0
M  V30 829 C 81.0634 1.92936 0.624798 0
M  V30 830 C 81.3964 0.928685 1.70555 0
M  V30 831 O 80.6714 -0.0454779 1.94447 0
M  V30 832 C 80.9544 3.38737 1.22185 0
M  V30 833 C 80.8074 4.49552 0.149218 0
M  V30 834 C 82.1264 3.84913 2.13378 0
M  V30 835 H 79.2454 0.701604 0.225657 0
M  V30 836 H 81.8874 1.89671 -0.111693 0
M  V30 837 H 80.0374 3.4165 1.84953 0
M  V30 838 H 81.7094 4.58768 -0.482648 0
M  V30 839 H 79.9524 4.30638 -0.522841 0
M  V30 840 H 80.6234 5.48653 0.606966 0
M  V30 841 H 83.0994 3.8387 1.60572 0
M  V30 842 H 81.9754 4.87584 2.52097 0
M  V30 843 H 82.2364 3.21611 3.03346 0
M  V30 844 N 81.2955 -0.223234 1.56011 0
M  V30 845 C 82.5415 -0.949279 1.79211 0
M  V30 846 C 82.8745 -1.84054 0.619494 0
M  V30 847 O 82.1495 -1.90726 -0.381317 0
M  V30 848 C 82.4325 -1.78965 3.12479 0
M  V30 849 C 82.2855 -0.924997 4.40186 0
M  V30 850 C 83.6045 -2.76774 3.42175 0
M  V30 851 H 80.7235 -0.343676 0.651963 0
M  V30 852 H 83.3655 -0.218253 1.88742 0
M  V30 853 H 81.5155 -2.41291 3.04485 0
M  V30 854 H 83.1875 -0.318615 4.60198 0
M  V30 855 H 81.4305 -0.230344 4.33188 0
M  V30 856 H 82.1015 -1.54735 5.29869 0
M  V30 857 H 84.5775 -2.24584 3.50287 0
M  V30 858 H 83.4535 -3.32678 4.36597 0
M  V30 859 H 83.7145 -3.54429 2.64258 0
M  V30 860 N 82.7736 -1.49793 -0.48987 0
M  V30 861 C 84.0136 -1.61466 -1.25332 0
M  V30 862 C 84.3776 -0.299688 -1.89647 0
M  V30 863 O 85.5786 -0.291687 -2.67213 0
M  V30 864 C 83.8496 -2.74944 -2.28343 0
M  V30 865 S 85.4086 -3.06637 -3.13878 0
M  V30 866 H 82.2266 -0.569411 -0.425784 0
M  V30 867 H 84.8286 -1.875 -0.553541 0
M  V30 868 H 83.5326 -3.68994 -1.79643 0
M  V30 869 H 83.0636 -2.50938 -3.02975 0
M  V30 870 H 85.0786 -2.49015 -4.29192 0
M  V30 871 N 84.2517 0.741722 -1.39055 0
M  V30 872 C 85.1997 1.87702 -1.3737 0
M  V30 873 C 86.1937 1.67427 -0.257812 0
M  V30 874 O 87.3997 1.7485 -0.427489 0
M  V30 875 H 83.7747 0.617757 -0.428812 0
M  V30 876 H 85.7457 1.86239 -2.33147 0
M  V30 877 C 84.4947 3.25315 -1.22741 0
M  V30 878 H 83.8177 3.41509 -2.07873 0
M  V30 879 H 85.2577 4.04964 -1.25618 0
M  V30 880 C 83.7167 3.36838 0.0647316 0
M  V30 881 O 84.2467 3.88073 1.03741 0
M  V30 882 N 82.4527 2.90329 0.125544 0
M  V30 883 H 81.9997 2.48823 -0.666682 0
M  V30 884 H 81.9577 2.98418 0.989639 0
M  V30 885 N 85.7298 1.2412 0.971189 0
M  V30 886 C 86.9598 1.10415 1.7462 0
M  V30 887 C 87.3678 -0.346462 1.86001 0
M  V30 888 O 86.7108 -1.25104 1.34517 0
M  V30 889 C 86.7728 1.66596 3.18568 0
M  V30 890 C 86.4368 3.15446 3.3067 0
M  V30 891 C 87.4338 4.12636 3.16271 0
M  V30 892 C 85.1188 3.55337 3.55022 0
M  V30 893 C 87.1128 5.47699 3.26044 0
M  V30 894 C 84.7998 4.90542 3.64434 0
M  V30 895 C 85.7978 5.86532 3.49956 0
M  V30 896 O 85.4858 7.19279 3.59017 0
M  V30 897 H 85.2178 0.386616 0.55453 0
M  V30 898 H 87.7718 1.64633 1.22821 0
M  V30 899 H 86.0018 1.06808 3.71657 0
M  V30 900 H 87.6908 1.48232 3.77865 0
M  V30 901 H 88.4568 3.8316 2.97344 0
M  V30 902 H 84.3358 2.8113 3.65359 0
M  V30 903 H 87.8798 6.22603 3.14661 0
M  V30 904 H 83.7768 5.19691 3.82873 0
M  V30 905 H 84.5448 7.27153 3.75754 0
M  V30 906 N 87.2079 -1.17134 1.05439 0
M  V30 907 C 88.6239 -1.39454 0.776201 0
M  V30 908 C 88.8239 -1.91454 -0.628307 0
M  V30 909 O 87.8799 -2.10777 -1.39031 0
M  V30 910 C 89.1929 -2.38305 1.83388 0
M  V30 911 C 90.7409 -2.52006 1.85639 0
M  V30 912 C 91.2159 -3.54133 2.90437 0
M  V30 913 N 92.7069 -3.61653 2.89415 0
M  V30 914 C 93.4419 -4.4044 3.67152 0
M  V30 915 N 92.9379 -5.22721 4.54681 0
M  V30 916 N 94.7309 -4.35337 3.55581 0
M  V30 917 H 86.8819 -0.817134 1.96053 0
M  V30 918 H 89.1449 -0.421626 0.849079 0
M  V30 919 H 88.8509 -2.07173 2.84204 0
M  V30 920 H 88.7249 -3.37841 1.67761 0
M  V30 921 H 91.1119 -2.82447 0.85486 0
M  V30 922 H 91.1929 -1.52537 2.05344 0
M  V30 923 H 90.8369 -3.24431 3.90777 0
M  V30 924 H 90.7669 -4.53313 2.67983 0
M  V30 925 H 93.2579 -3.02909 2.25952 0
M  V30 926 H 93.5709 -5.80027 5.10674 0
M  V30 927 H 91.9159 -5.22093 4.58741 0
M  V30 928 H 95.1069 -3.70112 2.86592 0
M  V30 929 H 95.2799 -4.96494 4.1641 0
M  V30 930 N 88.686 -0.835752 -1.33615 0
M  V30 931 C 89.963 -0.352017 -1.92406 0
M  V30 932 C 90.343 1.16225 -1.76224 0
M  V30 933 O 89.691 1.97526 -1.14873 0
M  V30 934 C 89.901 -0.795485 -3.39813 0
M  V30 935 C 91.249 -0.801703 -4.16963 0
M  V30 936 O 92.273 -0.738889 -3.48452 0
M  V30 937 O 91.132 -0.886607 -5.3926 0
M  V30 938 H 88.226 -0.0989641 -0.821057 0
M  V30 939 H 90.772 -0.921397 -1.42507 0
M  V30 940 H 89.544 -1.83795 -3.45449 0
M  V30 941 H 89.167 -0.202505 -3.97084 0
M  V30 942 N 90.1641 1.46063 -0.591896 0
M  V30 943 C 91.4101 2.02638 -0.0811191 0
M  V30 944 C 91.7431 1.4613 1.27905 0
M  V30 945 O 91.0181 0.629908 1.84017 0
M  V30 946 C 91.3011 3.60091 -0.0252436 0
M  V30 947 C 91.1541 4.26965 -1.41496 0
M  V30 948 C 92.4731 4.3496 0.670685 0
M  V30 949 H 89.5921 0.73635 -0.0309524 0
M  V30 950 H 92.2341 1.741 -0.760859 0
M  V30 951 H 90.3841 3.84535 0.553624 0
M  V30 952 H 92.0561 4.13756 -2.0397 0
M  V30 953 H 90.2991 3.85971 -1.98011 0
M  V30 954 H 90.9701 5.35781 -1.32825 0
M  V30 955 H 93.4461 4.15716 0.178825 0
M  V30 956 H 92.3221 5.44686 0.678837 0
M  V30 957 H 92.5831 4.06685 1.73379 0
M  V30 958 N 91.6422 0.330177 1.54103 0
M  V30 959 C 93.0582 -0.0222371 1.59585 0
M  V30 960 C 93.2582 -1.49902 1.34654 0
M  V30 961 O 92.3142 -2.25592 1.13421 0
M  V30 962 C 93.6272 0.401932 2.98002 0
M  V30 963 C 95.1752 0.353145 3.11001 0
M  V30 964 C 95.6502 0.752576 4.51775 0
M  V30 965 N 97.1412 0.706239 4.57784 0
M  V30 966 C 97.8762 0.987417 5.64834 0
M  V30 967 N 97.3722 1.33607 6.79795 0
M  V30 968 N 99.1652 0.91254 5.54643 0
M  V30 969 H 91.3162 1.29228 1.68564 0
M  V30 970 H 93.5792 0.525906 0.78875 0
M  V30 971 H 93.2852 1.4311 3.21267 0
M  V30 972 H 93.1592 -0.229699 3.765 0
M  V30 973 H 95.5462 -0.666822 2.87467 0
M  V30 974 H 95.6272 1.0198 2.34593 0
M  V30 975 H 95.2712 1.77049 4.76042 0
M  V30 976 H 95.2012 0.0635409 5.26562 0
M  V30 977 H 97.6922 0.44889 3.75224 0
M  V30 978 H 98.0052 1.53582 7.57385 0
M  V30 979 H 96.3502 1.37439 6.81275 0
M  V30 980 H 99.5412 0.639601 4.6371 0
M  V30 981 H 99.7142 1.13503 6.37982 0
M  V30 982 N 93.1203 -1.57491 0.0584922 0
M  V30 983 C 94.3673 -1.92978 -0.613648 0
M  V30 984 C 94.6953 -0.937461 -1.70417 0
M  V30 985 O 93.9503 0.049078 -1.95638 0
M  V30 986 C 94.2493 -3.3513 -1.24188 0
M  V30 987 C 93.9153 -4.50037 -0.278826 0
M  V30 988 C 92.5773 -4.81198 -0.0138447 0
M  V30 989 C 94.9293 -5.19807 0.380777 0
M  V30 990 C 92.2573 -5.79473 0.918052 0
M  V30 991 C 94.6093 -6.19079 1.30091 0
M  V30 992 C 93.2733 -6.48665 1.57449 0
M  V30 993 H 92.5433 -0.706157 -0.22455 0
M  V30 994 H 95.1903 -1.91082 0.126533 0
M  V30 995 H 93.4953 -3.33429 -2.05749 0
M  V30 996 H 95.1923 -3.59871 -1.769 0
M  V30 997 H 91.7823 -4.25726 -0.495539 0
M  V30 998 H 95.9663 -4.95939 0.189158 0
M  V30 999 H 91.2223 -6.00727 1.1374 0
M  V30 1000 H 95.3963 -6.7225 1.81804 0
M  V30 1001 H 93.0233 -7.24628 2.29822 0
M  V30 1002 N 94.5984 0.214957 -1.56127 0
M  V30 1003 C 95.5084 1.28727 -1.96129 0
M  V30 1004 C 96.5244 1.50916 -0.866044 0
M  V30 1005 O 97.7004 1.63918 -1.17016 0
M  V30 1006 C 94.7654 2.61569 -2.27558 0
M  V30 1007 C 93.8264 2.47625 -3.50685 0
M  V30 1008 C 93.0594 3.74132 -3.80606 0
M  V30 1009 O 93.2824 4.77438 -3.12104 0
M  V30 1010 O 92.2164 3.70849 -4.74083 0
M  V30 1011 H 96.0424 0.977855 -2.87527 0
M  V30 1012 H 93.6274 0.418358 -1.43423 0
M  V30 1013 H 95.5094 3.40012 -2.48938 0
M  V30 1014 H 94.1844 2.92178 -1.39332 0
M  V30 1015 H 93.0914 1.67361 -3.34576 0
M  V30 1016 H 94.4244 2.21954 -4.39315 0
M  V30 1017 N 96.0765 1.50051 0.48192 0
M  V30 1018 C 97.3015 1.64508 1.26301 0
M  V30 1019 C 97.7265 0.323851 1.85291 0
M  V30 1020 O 97.0845 -0.710969 1.66778 0
M  V30 1021 C 97.1325 2.7305 2.35533 0
M  V30 1022 O 96.2365 2.3355 3.39895 0
M  V30 1023 H 95.5775 0.549978 0.372048 0
M  V30 1024 H 98.1075 1.9636 0.574786 0
M  V30 1025 H 98.1175 2.95799 2.8101 0
M  V30 1026 H 96.7925 3.68946 1.91967 0
M  V30 1027 H 95.3695 2.21205 3.00204 0
M  V30 1028 N 97.5546 -0.734337 1.39446 0
M  V30 1029 C 98.8036 -1.48937 1.36017 0
M  V30 1030 C 99.1166 -1.95557 -0.0409005 0
M  V30 1031 O 100.323 -2.70779 -0.19778 0
M  V30 1032 C 98.7786 -2.69125 2.38955 0
M  V30 1033 C 98.3866 -2.29452 3.8478 0
M  V30 1034 C 100.131 -3.46944 2.44603 0
M  V30 1035 C 98.0376 -3.46366 4.79358 0
M  V30 1036 H 96.9676 -0.559296 0.505672 0
M  V30 1037 H 99.6186 -0.800983 1.65095 0
M  V30 1038 H 98.0006 -3.40041 2.02948 0
M  V30 1039 H 99.1746 -1.66077 4.29831 0
M  V30 1040 H 97.4896 -1.64723 3.82433 0
M  V30 1041 H 100.087 -4.33907 3.12456 0
M  V30 1042 H 100.43 -3.89454 1.47076 0
M  V30 1043 H 100.963 -2.83056 2.79507 0
M  V30 1044 H 97.7016 -3.08905 5.78151 0
M  V30 1045 H 97.2216 -4.08719 4.38986 0
M  V30 1046 H 98.9006 -4.12691 4.98292 0
M  V30 1047 N 99.0327 -1.24633 -0.964593 0
M  V30 1048 C 100.449 -1.01239 -1.2338 0
M  V30 1049 C 100.649 0.2769 -1.99588 0
M  V30 1050 O 99.7047 0.992241 -2.32187 0
M  V30 1051 C 101.018 -2.22937 -2.01791 0
M  V30 1052 C 102.566 -2.27594 -2.14872 0
M  V30 1053 C 103.041 -3.48921 -2.96678 0
M  V30 1054 N 104.532 -3.49257 -3.04259 0
M  V30 1055 C 105.267 -4.39795 -3.67924 0
M  V30 1056 N 104.763 -5.40591 -4.33281 0
M  V30 1057 N 106.556 -4.275 -3.64966 0
M  V30 1058 H 98.7067 -2.0748 -0.454502 0
M  V30 1059 H 100.97 -0.910647 -0.26349 0
M  V30 1060 H 100.676 -3.16587 -1.53184 0
M  V30 1061 H 100.55 -2.25306 -3.02518 0
M  V30 1062 H 102.937 -1.34473 -2.6268 0
M  V30 1063 H 103.018 -2.2925 -1.13482 0
M  V30 1064 H 102.662 -4.42359 -2.49562 0
M  V30 1065 H 102.592 -3.4451 -3.98272 0
M  V30 1066 H 105.083 -2.76337 -2.57771 0
M  V30 1067 H 105.396 -6.05904 -4.79687 0
M  V30 1068 H 103.741 -5.44475 -4.3194 0
M  V30 1069 H 106.932 -3.47987 -3.13086 0
M  V30 1070 H 107.105 -4.98258 -4.14298 0
M  V30 1071 N 100.511 1.16574 -1.06058 0
M  V30 1072 C 101.441 2.23057 -0.690488 0
M  V30 1073 C 102.422 1.67141 0.315901 0
M  V30 1074 O 103.607 1.93253 0.191556 0
M  V30 1075 C 100.737 3.47222 -0.073625 0
M  V30 1076 C 99.6908 4.16016 -1.00573 0
M  V30 1077 C 99.0168 5.34104 -0.252289 0
M  V30 1078 C 100.317 4.67264 -2.33371 0
M  V30 1079 H 102.011 2.54271 -1.58072 0
M  V30 1080 H 99.5568 1.22218 -0.76149 0
M  V30 1081 H 101.51 4.20939 0.19714 0
M  V30 1082 H 100.234 3.15302 0.85161 0
M  V30 1083 H 98.8928 3.44223 -1.2612 0
M  V30 1084 H 98.5408 4.98437 0.675988 0
M  V30 1085 H 98.2408 5.81072 -0.873455 0
M  V30 1086 H 99.7648 6.10599 0.0109857 0
M  V30 1087 H 101.179 5.32573 -2.12223 0
M  V30 1088 H 99.5758 5.24843 -2.90963 0
M  V30 1089 H 100.646 3.83602 -2.96611 0
M  V30 1090 N 101.989 0.842826 1.3317 0
M  V30 1091 C 103.4 0.496651 1.79973 0
M  V30 1092 C 103.751 -0.984641 1.69703 0
M  V30 1093 O 102.876 -1.76743 1.24863 0
M  V30 1094 C 103.471 0.894727 3.26772 0
M  V30 1095 C 102.03 0.600629 3.71577 0
M  V30 1096 C 101.177 1.10091 2.5451 0
M  V30 1097 H 104.128 1.03116 1.20635 0
M  V30 1098 H 104.149 0.206347 3.7994 0
M  V30 1099 H 103.661 1.97287 3.34215 0
M  V30 1100 H 101.762 -0.467284 3.69658 0
M  V30 1101 H 101.875 1.15863 4.64879 0
M  V30 1102 H 100.239 0.52162 2.49301 0
M  V30 1103 H 101.022 2.18591 2.64713 0
M  V30 1104 N 103.467 -1.45747 0.599634 0
M  V30 1105 C 104.715 -2.01893 0.0915472 0
M  V30 1106 C 105.036 -1.47155 -1.27946 0
M  V30 1107 O 104.306 -0.66273 -1.84349 0
M  V30 1108 H 102.886 -0.746363 0.0308524 0
M  V30 1109 H 105.548 -1.78645 0.779237 0
M  V30 1110 H 104.644 -3.1208 0.0353086 0
M  V30 1111 N 104.945 -0.338344 -1.53925 0
M  V30 1112 C 106.185 0.260168 -2.02737 0
M  V30 1113 C 106.549 1.48181 -1.22092 0
M  V30 1114 O 107.75 2.15416 -1.60777 0
M  V30 1115 C 106.021 0.571627 -3.52799 0
M  V30 1116 S 107.58 1.14769 -4.23525 0
M  V30 1117 H 104.398 0.077791 -0.706732 0
M  V30 1118 H 107 -0.474899 -1.89644 0
M  V30 1119 H 105.704 -0.325392 -4.09108 0
M  V30 1120 H 105.235 1.3365 -3.70002 0
M  V30 1121 H 107.25 2.43372 -4.32417 0
M  V30 1122 N 106.423 1.57458 -0.0668435 0
M  V30 1123 C 107.834 1.80776 0.466558 0
M  V30 1124 C 108.185 0.980361 1.69951 0
M  V30 1125 O 107.31 0.201441 2.1546 0
M  V30 1126 C 107.905 3.27881 0.85321 0
M  V30 1127 C 106.464 3.52062 1.3315 0
M  V30 1128 C 105.611 2.75513 0.314264 0
M  V30 1129 H 108.562 1.5598 -0.292588 0
M  V30 1130 H 108.583 3.39659 1.715 0
M  V30 1131 H 108.095 3.88075 -0.0443439 0
M  V30 1132 H 106.196 2.97167 2.24772 0
M  V30 1133 H 106.309 4.60762 1.31285 0
M  V30 1134 H 104.673 2.42123 0.790492 0
M  V30 1135 H 105.456 3.38442 -0.575477 0
M  V30 1136 N 107.901 -0.206675 1.56239 0
M  V30 1137 C 109.317 -0.557025 1.49564 0
M  V30 1138 C 109.517 -1.86424 0.764735 0
M  V30 1139 O 108.573 -2.50584 0.310491 0
M  V30 1140 C 109.886 -0.622478 2.94186 0
M  V30 1141 C 111.434 -0.712099 3.04792 0
M  V30 1142 C 111.909 -0.808767 4.50803 0
M  V30 1143 N 113.4 -0.8726 4.54907 0
M  V30 1144 C 114.135 -0.967365 5.65181 0
M  V30 1145 N 113.631 -1.02515 6.85173 0
M  V30 1146 N 115.424 -1.00366 5.53067 0
M  V30 1147 H 107.575 0.650943 2.02179 0
M  V30 1148 H 109.838 0.230387 0.919579 0
M  V30 1149 H 109.544 0.268727 3.50672 0
M  V30 1150 H 109.418 -1.4811 3.46905 0
M  V30 1151 H 111.805 -1.59374 2.48363 0
M  V30 1152 H 111.886 0.172489 2.55218 0
M  V30 1153 H 111.53 0.0684754 5.07854 0
M  V30 1154 H 111.46 -1.70899 4.98098 0
M  V30 1155 H 113.951 -0.837657 3.68499 0
M  V30 1156 H 114.264 -1.09765 7.64965 0
M  V30 1157 H 112.609 -0.994026 6.87855 0
M  V30 1158 H 115.8 -0.95527 4.58249 0
M  V30 1159 H 115.973 -1.07405 6.39037 0
M  V30 1160 N 109.379 -1.50304 -0.473955 0
M  V30 1161 C 110.627 -1.60832 -1.22382 0
M  V30 1162 C 110.948 -0.30939 -1.9253 0
M  V30 1163 O 110.218 0.67296 -1.83978 0
M  V30 1164 H 108.798 -0.592652 -0.454723 0
M  V30 1165 H 111.46 -1.87068 -0.546968 0
M  V30 1166 H 110.556 -2.41803 -1.97327 0
M  V30 1167 N 110.857 0.726932 -1.39834 0
M  V30 1168 C 112.103 1.48884 -1.377 0
M  V30 1169 C 112.436 1.94185 0.0244852 0
M  V30 1170 O 111.711 1.67361 0.990986 0
M  V30 1171 C 111.994 2.72288 -2.3565 0
M  V30 1172 C 111.847 2.32956 -3.84775 0
M  V30 1173 C 113.166 3.74414 -2.31306 0
M  V30 1174 H 110.285 0.540062 -0.5015 0
M  V30 1175 H 112.927 0.830547 -1.70886 0
M  V30 1176 H 111.077 3.28457 -2.07481 0
M  V30 1177 H 112.749 1.82356 -4.23726 0
M  V30 1178 H 110.992 1.65088 -4.01159 0
M  V30 1179 H 111.663 3.21362 -4.4881 0
M  V30 1180 H 114.139 3.27849 -2.56231 0
M  V30 1181 H 113.015 4.58414 -3.01907 0
M  V30 1182 H 113.276 4.21909 -1.32081 0
M  V30 1183 N 112.336 1.25143 0.95797 0
M  V30 1184 C 113.284 1.05019 2.07542 0
M  V30 1185 C 114.278 -0.0178751 1.69391 0
M  V30 1186 O 115.484 0.137472 1.79474 0
M  V30 1187 H 111.859 0.32265 0.679265 0
M  V30 1188 H 113.83 1.99759 2.21673 0
M  V30 1189 C 112.579 0.682074 3.40944 0
M  V30 1190 H 111.902 1.49573 3.70767 0
M  V30 1191 H 113.342 0.580945 4.20001 0
M  V30 1192 C 111.801 -0.611608 3.31302 0
M  V30 1193 O 112.331 -1.65465 3.66038 0
M  V30 1194 N 110.537 -0.595982 2.84423 0
M  V30 1195 H 110.084 0.253192 2.56353 0
M  V30 1196 H 110.042 -1.46173 2.78354 0
M  V30 1197 N 113.814 -1.1601 1.06675 0
M  V30 1198 C 115.225 -1.68235 0.809565 0
M  V30 1199 C 115.576 -1.8454 -0.666303 0
M  V30 1200 O 114.701 -1.54374 -1.5165 0
M  V30 1201 C 115.296 -3.05585 1.46299 0
M  V30 1202 C 113.855 -3.54915 1.25349 0
M  V30 1203 C 113.002 -2.30804 1.53703 0
M  V30 1204 H 115.953 -1.00318 1.22971 0
M  V30 1205 H 115.974 -3.70174 0.880431 0
M  V30 1206 H 115.486 -2.93686 2.53713 0
M  V30 1207 H 113.587 -3.72067 0.199261 0
M  V30 1208 H 113.7 -4.36774 1.9689 0
M  V30 1209 H 112.064 -2.36007 0.957739 0
M  V30 1210 H 112.847 -2.21499 2.62284 0
M  V30 1211 N 115.292 -0.849877 -1.32721 0
M  V30 1212 C 116.538 -0.451591 -1.97708 0
M  V30 1213 C 116.871 0.989175 -1.6712 0
M  V30 1214 O 116.146 1.69334 -0.956891 0
M  V30 1215 C 116.429 -0.685598 -3.53513 0
M  V30 1216 C 116.282 -2.17444 -3.93749 0
M  V30 1217 C 117.601 -0.138874 -4.39881 0
M  V30 1218 H 114.72 -0.16555 -0.718166 0
M  V30 1219 H 117.362 -1.06742 -1.57182 0
M  V30 1220 H 115.512 -0.161416 -3.88165 0
M  V30 1221 H 117.184 -2.76433 -3.693 0
M  V30 1222 H 115.427 -2.65476 -3.43081 0
M  V30 1223 H 116.098 -2.28888 -5.02309 0
M  V30 1224 H 118.574 -0.587068 -4.11938 0
M  V30 1225 H 117.45 -0.332213 -5.47894 0
M  V30 1226 H 117.711 0.95806 -4.31594 0
M  V30 1227 N 116.77 1.45427 -0.607355 0
M  V30 1228 C 118.016 2.0254 -0.102607 0
M  V30 1229 C 118.349 1.47478 1.26348 0
M  V30 1230 O 117.624 0.64939 1.83339 0
M  V30 1231 C 117.907 3.60044 -0.0634347 0
M  V30 1232 C 117.76 4.2544 -1.46017 0
M  V30 1233 C 119.079 4.35646 0.624514 0
M  V30 1234 H 116.198 0.73598 -0.0387607 0
M  V30 1235 H 118.84 1.73284 -0.779282 0
M  V30 1236 H 116.99 3.85101 0.512808 0
M  V30 1237 H 118.662 4.11569 -2.08347 0
M  V30 1238 H 116.905 3.83849 -2.02094 0
M  V30 1239 H 117.576 5.34342 -1.385 0
M  V30 1240 H 120.052 4.15882 0.134723 0
M  V30 1241 H 118.928 5.45376 0.621028 0
M  V30 1242 H 119.189 4.08501 1.69055 0
M  V30 1243 N 118.248 0.346503 1.53744 0
M  V30 1244 C 119.473 -0.253074 2.0585 0
M  V30 1245 C 119.898 -1.43202 1.21962 0
M  V30 1246 O 119.256 -1.79783 0.234073 0
M  V30 1247 C 119.304 -0.643193 3.54817 0
M  V30 1248 O 118.408 -1.74286 3.73762 0
M  V30 1249 H 117.749 -0.0413583 0.662711 0
M  V30 1250 H 120.279 0.501574 1.98357 0
M  V30 1251 H 120.289 -0.919526 3.97503 0
M  V30 1252 H 118.964 0.218966 4.15323 0
M  V30 1253 H 117.541 -1.46356 3.42979 0
M  V30 1254 N 119.726 -1.57421 0.075193 0
M  V30 1255 C 120.956 -1.97659 -0.601203 0
M  V30 1256 C 121.364 -0.952427 -1.63479 0
M  V30 1257 O 120.707 0.0688241 -1.83571 0
M  V30 1258 C 120.769 -3.34218 -1.32434 0
M  V30 1259 C 120.433 -4.5484 -0.443826 0
M  V30 1260 C 121.43 -5.19034 0.299969 0
M  V30 1261 C 119.115 -5.00952 -0.367709 0
M  V30 1262 C 121.109 -6.27695 1.10807 0
M  V30 1263 C 118.796 -6.09484 0.444058 0
M  V30 1264 C 119.794 -6.72719 1.18061 0
M  V30 1265 O 119.482 -7.79161 1.97898 0
M  V30 1266 H 119.214 -0.65494 -0.167422 0
M  V30 1267 H 121.768 -2.04886 0.145157 0
M  V30 1268 H 119.998 -3.23615 -2.11685 0
M  V30 1269 H 121.687 -3.59038 -1.89331 0
M  V30 1270 H 122.453 -4.84351 0.250776 0
M  V30 1271 H 118.332 -4.51509 -0.930638 0
M  V30 1272 H 121.876 -6.76982 1.68347 0
M  V30 1273 H 117.773 -6.43601 0.494803 0
M  V30 1274 H 118.541 -7.96055 1.90367 0
M  V30 1275 N 121.204 0.198386 -1.56346 0
M  V30 1276 C 122.167 1.22952 -1.93431 0
M  V30 1277 C 123.167 1.38611 -0.815092 0
M  V30 1278 O 124.357 1.36479 -1.08255 0
M  V30 1279 C 121.489 2.59946 -2.20546 0
M  V30 1280 H 122.682 0.912626 -2.85677 0
M  V30 1281 H 120.235 0.43977 -1.49986 0
M  V30 1282 H 120.97 2.96696 -1.30927 0
M  V30 1283 H 120.755 2.49953 -3.02102 0
M  V30 1284 H 122.245 3.3431 -2.50253 0
M  V30 1285 N 122.682 1.50554 0.465978 0
M  V30 1286 C 123.928 1.62038 1.21949 0
M  V30 1287 C 124.261 0.322116 1.9151 0
M  V30 1288 O 123.536 -0.676723 1.82348 0
M  V30 1289 C 123.819 2.80421 2.25912 0
M  V30 1290 C 123.672 4.20144 1.60622 0
M  V30 1291 C 124.991 2.94354 3.27176 0
M  V30 1292 H 122.11 0.589752 0.441998 0
M  V30 1293 H 124.752 1.82956 0.51257 0
M  V30 1294 H 122.902 2.62717 2.86203 0
M  V30 1295 H 124.574 4.49449 1.03889 0
M  V30 1296 H 122.817 4.24165 0.909211 0
M  V30 1297 H 123.488 4.98914 2.36196 0
M  V30 1298 H 125.964 3.10578 2.76913 0
M  V30 1299 H 124.84 3.788 3.97242 0
M  V30 1300 H 125.101 2.05186 3.916 0
M  V30 1301 N 124.16 -0.719506 1.40217 0
M  V30 1302 C 125.123 -1.8153 1.39927 0
M  V30 1303 C 126.123 -1.58095 0.293723 0
M  V30 1304 O 127.313 -1.65209 0.552429 0
M  V30 1305 C 124.445 -3.19561 1.18716 0
M  V30 1306 H 125.638 -1.83186 2.37451 0
M  V30 1307 H 123.191 -0.924746 1.26008 0
M  V30 1308 H 123.926 -3.23557 0.219366 0
M  V30 1309 H 123.711 -3.3797 1.98793 0
M  V30 1310 H 125.201 -3.99598 1.21291 0
M  V30 1311 N 125.638 -1.25649 -0.95132 0
M  V30 1312 C 126.568 -1.08808 -2.06599 0
M  V30 1313 C 127.549 0.00382547 -1.701 0
M  V30 1314 O 128.734 -0.166325 -1.93486 0
M  V30 1315 C 125.864 -0.709542 -3.39975 0
M  V30 1316 C 124.818 -1.75206 -3.90496 0
M  V30 1317 C 124.144 -1.22811 -5.20405 0
M  V30 1318 C 125.444 -3.15153 -4.16504 0
M  V30 1319 H 127.138 -2.02048 -2.20946 0
M  V30 1320 H 124.684 -0.972835 -1.06169 0
M  V30 1321 H 126.637 -0.578649 -4.17408 0
M  V30 1322 H 125.361 0.258556 -3.25575 0
M  V30 1323 H 124.02 -1.87145 -3.15234 0
M  V30 1324 H 123.668 -0.250145 -5.02378 0
M  V30 1325 H 123.368 -1.92492 -5.55176 0
M  V30 1326 H 124.892 -1.10968 -6.00432 0
M  V30 1327 H 126.306 -3.06349 -4.84586 0
M  V30 1328 H 124.703 -3.82333 -4.62538 0
M  V30 1329 H 125.773 -3.61966 -3.22658 0
M  V30 1330 N 127.117 1.15442 -1.07289 0
M  V30 1331 C 128.342 1.90638 -0.816828 0
M  V30 1332 C 128.767 1.77445 0.624083 0
M  V30 1333 O 128.125 1.10671 1.43602 0
M  V30 1334 C 128.173 3.39008 -1.22906 0
M  V30 1335 O 127.277 4.10701 -0.373975 0
M  V30 1336 H 126.618 0.593555 -0.297638 0
M  V30 1337 H 129.148 1.46198 -1.43134 0
M  V30 1338 H 129.158 3.89801 -1.20497 0
M  V30 1339 H 127.833 3.47929 -2.27856 0
M  V30 1340 H 126.41 3.70046 -0.460499 0
M  V30 1341 N 128.595 0.856903 1.32268 0
M  V30 1342 C 129.835 0.467705 1.98977 0
M  V30 1343 C 130.199 -0.959231 1.66321 0
M  V30 1344 O 131.4 -1.4531 2.26138 0
M  V30 1345 C 129.671 0.70256 3.50427 0
M  V30 1346 S 131.23 0.411269 4.36868 0
M  V30 1347 H 128.048 0.175121 0.689096 0
M  V30 1348 H 130.65 1.1101 1.60925 0
M  V30 1349 H 129.354 1.74012 3.71683 0
M  V30 1350 H 128.885 0.0466707 3.93372 0
M  V30 1351 H 130.9 -0.761799 4.90317 0
M  V30 1352 N 130.073 -1.45103 0.615059 0
M  V30 1353 C 131.005 -2.28786 -0.13762 0
M  V30 1354 C 132.018 -1.40376 -0.824525 0
M  V30 1355 O 133.207 -1.64681 -0.688662 0
M  V30 1356 C 130.307 -3.16322 -1.21628 0
M  V30 1357 C 129.48 -4.33054 -0.615039 0
M  V30 1358 C 128.539 -5.01743 -1.58556 0
M  V30 1359 O 127.565 -5.58293 -1.10895 0
M  V30 1360 N 128.767 -5.01714 -2.91998 0
M  V30 1361 H 131.532 -2.94025 0.580483 0
M  V30 1362 H 129.093 -1.55373 0.45507 0
M  V30 1363 H 131.085 -3.59139 -1.86552 0
M  V30 1364 H 129.655 -2.52943 -1.83681 0
M  V30 1365 H 128.875 -3.93627 0.21245 0
M  V30 1366 H 130.163 -5.08431 -0.193704 0
M  V30 1367 H 129.561 -4.57075 -3.33316 0
M  V30 1368 H 128.118 -5.48371 -3.52325 0
M  V30 1369 N 131.551 -0.354651 -1.53558 0
M  V30 1370 C 132.791 0.238651 -2.03002 0
M  V30 1371 C 133.155 1.46878 -1.23656 0
M  V30 1372 O 134.356 2.13699 -1.63053 0
M  V30 1373 C 132.627 0.534175 -3.53386 0
M  V30 1374 S 134.186 1.10271 -4.24719 0
M  V30 1375 H 131.004 0.0702908 -0.707517 0
M  V30 1376 H 133.606 -0.494987 -1.8913 0
M  V30 1377 H 132.31 -0.368765 -4.0874 0
M  V30 1378 H 131.841 1.29718 -3.71398 0
M  V30 1379 H 133.856 2.38772 -4.34974 0
M  V30 1380 N 133.029 1.57378 -0.0835403 0
M  V30 1381 C 133.992 2.12252 0.864959 0
M  V30 1382 C 134.992 1.04916 1.21858 0
M  V30 1383 O 136.182 1.30853 1.14991 0
M  V30 1384 C 133.314 2.63358 2.16461 0
M  V30 1385 H 134.507 2.97371 0.388676 0
M  V30 1386 H 132.06 1.55423 0.165317 0
M  V30 1387 H 132.795 1.81727 2.686 0
M  V30 1388 H 132.58 3.41826 1.92087 0
M  V30 1389 H 134.07 3.05847 2.84337 0
M  V30 1390 N 134.507 -0.190092 1.56449 0
M  V30 1391 C 135.437 -1.23816 1.97969 0
M  V30 1392 C 136.418 -1.47201 0.852395 0
M  V30 1393 O 137.603 -1.58854 1.1171 0
M  V30 1394 C 134.733 -2.5813 2.3235 0
M  V30 1395 C 133.687 -2.49348 3.47864 0
M  V30 1396 C 133.013 -3.8798 3.67934 0
M  V30 1397 C 134.313 -2.01424 4.81898 0
M  V30 1398 H 136.007 -0.89311 2.85769 0
M  V30 1399 H 133.553 -0.428177 1.37487 0
M  V30 1400 H 135.506 -3.31637 2.59991 0
M  V30 1401 H 134.23 -2.94386 1.41438 0
M  V30 1402 H 132.889 -1.78297 3.20321 0
M  V30 1403 H 132.537 -4.21597 2.74344 0
M  V30 1404 H 132.237 -3.82978 4.45648 0
M  V30 1405 H 133.761 -4.63101 3.97957 0
M  V30 1406 H 135.175 -2.64693 5.08538 0
M  V30 1407 H 133.572 -2.07413 5.63116 0
M  V30 1408 H 134.642 -0.967677 4.75146 0
M  V30 1409 N 135.985 -1.50799 -0.457987 0
M  V30 1410 C 137.225 -1.64088 -1.21879 0
M  V30 1411 C 137.589 -0.339848 -1.88968 0
M  V30 1412 O 138.79 -0.348301 -2.66534 0
M  V30 1413 C 137.061 -2.79726 -2.2246 0
M  V30 1414 S 138.62 -3.13225 -3.07303 0
M  V30 1415 H 135.438 -0.578314 -0.41361 0
M  V30 1416 H 138.04 -1.88632 -0.513645 0
M  V30 1417 H 136.744 -3.72722 -1.71775 0
M  V30 1418 H 136.275 -2.57308 -2.97584 0
M  V30 1419 H 138.29 -2.58062 -4.23814 0
M  V30 1420 N 137.463 0.71206 -1.40597 0
M  V30 1421 C 138.879 1.02058 -1.22704 0
M  V30 1422 C 139.079 2.01228 -0.104729 0
M  V30 1423 O 138.135 2.4674 0.53624 0
M  V30 1424 C 139.448 1.56094 -2.57012 0
M  V30 1425 C 140.996 1.6806 -2.64054 0
M  V30 1426 C 141.471 2.25501 -3.9864 0
M  V30 1427 N 142.962 2.32882 -4.004 0
M  V30 1428 C 143.697 2.78317 -5.01325 0
M  V30 1429 N 143.193 3.23478 -6.12645 0
M  V30 1430 N 144.986 2.77733 -4.88693 0
M  V30 1431 H 137.137 0.0547896 -2.12329 0
M  V30 1432 H 139.4 0.0869027 -0.944008 0
M  V30 1433 H 139.106 0.906865 -3.39807 0
M  V30 1434 H 138.98 2.54564 -2.78347 0
M  V30 1435 H 141.367 2.32583 -1.81629 0
M  V30 1436 H 141.448 0.681802 -2.46546 0
M  V30 1437 H 141.092 1.61598 -4.81506 0
M  V30 1438 H 141.022 3.26102 -4.13479 0
M  V30 1439 H 143.513 2.00991 -3.20017 0
M  V30 1440 H 143.826 3.56725 -6.85542 0
M  V30 1441 H 142.171 3.21429 -6.16205 0
M  V30 1442 H 145.362 2.4179 -4.00818 0
M  V30 1443 H 145.535 3.12826 -5.67489 0
M  V30 1444 N 138.941 1.26152 0.944643 0
M  V30 1445 C 140.357 1.03189 1.21754 0
M  V30 1446 C 140.557 -0.245112 2.00004 0
M  V30 1447 O 139.613 -0.955176 2.33736 0
M  V30 1448 C 140.926 2.26119 1.98219 0
M  V30 1449 C 142.474 2.30984 2.11224 0
M  V30 1450 C 142.949 3.53597 2.91089 0
M  V30 1451 N 144.44 3.54053 2.98664 0
M  V30 1452 C 145.175 4.45593 3.60881 0
M  V30 1453 N 144.671 5.47416 4.24626 0
M  V30 1454 N 146.464 4.33252 3.58119 0
M  V30 1455 H 138.615 2.08177 0.421437 0
M  V30 1456 H 140.878 0.914723 0.248969 0
M  V30 1457 H 140.584 3.18984 1.48128 0
M  V30 1458 H 140.458 2.3009 2.98895 0
M  V30 1459 H 142.845 1.38635 2.60508 0
M  V30 1460 H 142.926 2.31026 1.09821 0
M  V30 1461 H 142.57 4.46273 2.42493 0
M  V30 1462 H 142.5 3.50802 3.92741 0
M  V30 1463 H 144.991 2.80403 2.53343 0
M  V30 1464 H 145.304 6.13459 4.69987 0
M  V30 1465 H 143.649 5.51278 4.23223 0
M  V30 1466 H 146.84 3.52924 3.0751 0
M  V30 1467 H 147.013 5.04786 4.06319 0
M  V30 1468 N 140.419 -1.14872 1.07899 0
M  V30 1469 C 141.644 -1.90202 0.826926 0
M  V30 1470 C 142.069 -1.77774 -0.614664 0
M  V30 1471 O 141.427 -1.11431 -1.43013 0
M  V30 1472 C 141.475 -3.38352 1.24702 0
M  V30 1473 O 140.579 -4.10497 0.39575 0
M  V30 1474 H 139.92 -0.591968 0.300782 0
M  V30 1475 H 142.45 -1.45437 1.43907 0
M  V30 1476 H 142.46 -3.89156 1.22563 0
M  V30 1477 H 141.135 -3.46715 2.29698 0
M  V30 1478 H 139.712 -3.69796 0.480117 0
M  V30 1479 N 141.898 -0.863906 -1.31812 0
M  V30 1480 C 143.126 -0.486111 -2.01108 0
M  V30 1481 C 143.541 0.919755 -1.64882 0
M  V30 1482 O 142.898 1.60162 -0.874893 0
M  V30 1483 C 142.949 -0.626435 -3.56031 0
M  V30 1484 O 142.67 -1.97693 -3.90959 0
M  V30 1485 C 144.171 -0.248857 -4.42601 0
M  V30 1486 H 141.391 -0.190052 -0.643523 0
M  V30 1487 H 143.935 -1.1634 -1.68182 0
M  V30 1488 H 142.09 0.00322717 -3.874 0
M  V30 1489 H 142.504 -1.98034 -4.85678 0
M  V30 1490 H 143.978 -0.398016 -5.50563 0
M  V30 1491 H 144.455 0.811489 -4.31638 0
M  V30 1492 H 145.061 -0.853971 -4.16638 0
M  V30 1493 N 143.376 1.44774 -0.622745 0
M  V30 1494 C 144.604 2.06487 -0.130722 0
M  V30 1495 C 145.019 1.46476 1.19123 0
M  V30 1496 O 144.376 0.584502 1.72887 0
M  V30 1497 C 144.427 3.615 -0.000807207 0
M  V30 1498 O 144.148 4.19274 -1.27048 0
M  V30 1499 C 145.649 4.40229 0.520898 0
M  V30 1500 H 142.869 0.666704 -0.0758106 0
M  V30 1501 H 145.413 1.85779 -0.854774 0
M  V30 1502 H 143.568 3.81498 0.673643 0
M  V30 1503 H 143.982 5.12622 -1.1099 0
M  V30 1504 H 145.456 5.49144 0.560838 0
M  V30 1505 H 145.933 4.1108 1.54627 0
M  V30 1506 H 146.539 4.25131 -0.120018 0
M  V30 1507 N 144.854 0.36279 1.53368 0
M  V30 1508 C 146.131 -0.284021 1.93527 0
M  V30 1509 C 146.511 -1.66628 1.29608 0
M  V30 1510 O 145.859 -2.23942 0.45413 0
M  V30 1511 C 146.069 -0.337028 3.47369 0
M  V30 1512 C 147.417 -0.578708 4.20638 0
M  V30 1513 O 148.441 -0.418352 3.53735 0
M  V30 1514 O 147.3 -0.89074 5.39192 0
M  V30 1515 H 144.394 -0.169743 0.809393 0
M  V30 1516 H 146.94 0.41537 1.64538 0
M  V30 1517 H 145.712 0.632217 3.86159 0
M  V30 1518 H 145.335 -1.08243 3.82582 0
M  V30 1519 N 146.332 -1.57332 0.0918853 0
M  V30 1520 C 147.572 -1.96117 -0.575988 0
M  V30 1521 C 147.936 -0.972499 -1.65549 0
M  V30 1522 O 149.137 -1.24872 -2.38034 0
M  V30 1523 C 147.408 -3.39407 -1.11973 0
M  V30 1524 S 148.967 -4.00185 -1.79992 0
M  V30 1525 H 145.785 -0.685682 -0.188045 0
M  V30 1526 H 148.387 -1.94755 0.170525 0
M  V30 1527 H 147.091 -4.09131 -0.322504 0
M  V30 1528 H 146.622 -3.44358 -1.90214 0
M  V30 1529 H 148.637 -3.88728 -3.08391 0
M  V30 1530 N 147.81 0.181792 -1.56548 0
M  V30 1531 C 149.058 0.89832 -1.81038 0
M  V30 1532 C 149.379 1.83232 -0.667164 0
M  V30 1533 O 148.649 1.93372 0.313673 0
M  V30 1534 H 147.229 0.33471 -0.667816 0
M  V30 1535 H 149.891 0.184116 -1.94028 0
M  V30 1536 H 148.987 1.4815 -2.74696 0
M  V30 1537 N 149.288 1.51039 0.449983 0
M  V30 1538 C 150.536 1.62759 1.19808 0
M  V30 1539 C 150.857 0.339981 1.92013 0
M  V30 1540 O 150.127 -0.643606 1.85026 0
M  V30 1541 H 148.707 0.599811 0.445237 0
M  V30 1542 H 151.369 1.87914 0.517138 0
M  V30 1543 H 150.465 2.44911 1.93455 0
M  V30 1544 N 150.766 -0.704594 1.40972 0
M  V30 1545 C 152.177 -1.28418 1.3552 0
M  V30 1546 C 152.528 -1.96171 0.0339434 0
M  V30 1547 O 151.653 -1.98231 -0.867944 0
M  V30 1548 C 152.248 -2.33528 2.45459 0
M  V30 1549 C 150.807 -2.87085 2.43433 0
M  V30 1550 C 149.954 -1.61007 2.2577 0
M  V30 1551 H 152.905 -0.499963 1.50619 0
M  V30 1552 H 152.926 -3.14619 2.13998 0
M  V30 1553 H 152.438 -1.84187 3.41609 0
M  V30 1554 H 150.539 -3.40626 1.51013 0
M  V30 1555 H 150.652 -3.3813 3.39419 0
M  V30 1556 H 149.016 -1.86482 1.73483 0
M  V30 1557 H 149.799 -1.13675 3.23933 0
M  V30 1558 N 152.244 -1.26651 -0.937939 0
M  V30 1559 C 153.191 -1.0849 -2.03712 0
M  V30 1560 C 154.161 0.011033 -1.66096 0
M  V30 1561 O 155.346 -0.149353 -1.90215 0
M  V30 1562 C 152.486 -0.72735 -3.37348 0
M  V30 1563 C 151.599 -1.89986 -3.87981 0
M  V30 1564 C 150.734 -1.48513 -5.10017 0
M  V30 1565 C 149.773 -2.62575 -5.5292 0
M  V30 1566 N 148.91 -2.21762 -6.66158 0
M  V30 1567 H 153.75 -2.02551 -2.18579 0
M  V30 1568 H 151.287 -1.00844 -1.07093 0
M  V30 1569 H 153.245 -0.50092 -4.14182 0
M  V30 1570 H 151.875 0.176298 -3.22318 0
M  V30 1571 H 150.927 -2.23913 -3.07518 0
M  V30 1572 H 152.239 -2.75586 -4.15757 0
M  V30 1573 H 151.393 -1.21934 -5.94321 0
M  V30 1574 H 150.132 -0.60009 -4.83994 0
M  V30 1575 H 149.137 -2.8988 -4.67172 0
M  V30 1576 H 150.362 -3.51685 -5.80943 0
M  V30 1577 H 148.308 -1.35696 -6.41812 0
M  V30 1578 H 148.225 -3.00903 -6.93537 0
M  V30 1579 H 149.493 -1.98403 -7.53828 0
M  V30 1580 N 153.722 1.14298 -1.08507 0
M  V30 1581 C 154.999 1.81544 -0.728088 0
M  V30 1582 C 155.379 1.95838 0.78808 0
M  V30 1583 O 154.727 1.51904 1.70697 0
M  V30 1584 C 154.937 3.17169 -1.45619 0
M  V30 1585 C 156.285 3.9265 -1.61591 0
M  V30 1586 O 157.309 3.26762 -1.41793 0
M  V30 1587 O 156.168 5.10807 -1.94263 0
M  V30 1588 H 153.262 0.78491 -0.260471 0
M  V30 1589 H 155.808 1.21307 -1.18671 0
M  V30 1590 H 154.58 3.01934 -2.489 0
M  V30 1591 H 154.203 3.851 -0.989124 0
M  V30 1592 N 155.201 0.870884 1.31352 0
M  V30 1593 C 156.151 0.298889 2.26032 0
M  V30 1594 C 157.135 -0.564595 1.50669 0
M  V30 1595 O 158.327 -0.411323 1.72154 0
M  V30 1596 C 155.456 -0.497842 3.39671 0
M  V30 1597 C 154.542 0.378937 4.22404 0
M  V30 1598 N 154.933 1.47284 4.83881 0
M  V30 1599 C 153.231 0.171535 4.4567 0
M  V30 1600 C 153.932 2.01359 5.45738 0
M  V30 1601 N 152.908 1.31047 5.27568 0
M  V30 1602 H 156.71 1.13494 2.71102 0
M  V30 1603 H 154.224 0.718745 1.45629 0
M  V30 1604 H 156.221 -0.924155 4.06528 0
M  V30 1605 H 154.881 -1.33149 2.96144 0
M  V30 1606 H 155.892 1.85575 4.8351 0
M  V30 1607 H 152.569 -0.626091 4.12779 0
M  V30 1608 H 153.959 2.93143 6.0458 0
M  V30 1609 N 156.679 -1.44442 0.630414 0
M  V30 1610 C 158.09 -1.85434 0.217063 0
M  V30 1611 C 158.441 -1.52748 -1.23136 0
M  V30 1612 O 157.566 -0.965205 -1.93682 0
M  V30 1613 C 158.161 -3.36581 0.387168 0
M  V30 1614 C 156.72 -3.76389 0.0283297 0
M  V30 1615 C 155.867 -2.68296 0.700889 0
M  V30 1616 H 158.818 -1.34919 0.83562 0
M  V30 1617 H 158.839 -3.78657 -0.374086 0
M  V30 1618 H 158.351 -3.60339 1.44144 0
M  V30 1619 H 156.452 -3.58246 -1.02423 0
M  V30 1620 H 156.565 -4.77095 0.437892 0
M  V30 1621 H 154.929 -2.54335 0.136267 0
M  V30 1622 H 155.712 -2.94887 1.75774 0
M  V30 1623 N 158.157 -0.370918 -1.53173 0
M  V30 1624 C 159.087 0.464847 -2.28826 0
M  V30 1625 C 160.068 1.07936 -1.31468 0
M  V30 1626 O 161.253 1.0956 -1.60344 0
M  V30 1627 C 158.383 1.60196 -3.08147 0
M  V30 1628 C 157.337 1.11443 -4.13237 0
M  V30 1629 C 156.663 2.3422 -4.80672 0
M  V30 1630 C 157.963 0.195384 -5.21934 0
M  V30 1631 H 159.657 -0.166329 -2.98938 0
M  V30 1632 H 157.203 -0.0814359 -1.4377 0
M  V30 1633 H 159.156 2.19332 -3.59822 0
M  V30 1634 H 157.88 2.26045 -2.35735 0
M  V30 1635 H 156.539 0.545727 -3.62515 0
M  V30 1636 H 156.187 2.98537 -4.04827 0
M  V30 1637 H 155.887 2.02269 -5.51689 0
M  V30 1638 H 157.411 2.94032 -5.35143 0
M  V30 1639 H 158.825 0.694375 -5.69079 0
M  V30 1640 H 157.222 -0.0335027 -6.00091 0
M  V30 1641 H 158.292 -0.760961 -4.78892 0
M  V30 1642 N 159.635 1.57281 -0.100228 0
M  V30 1643 C 160.863 1.98879 0.570509 0
M  V30 1644 C 161.278 0.979476 1.61405 0
M  V30 1645 O 160.635 -0.0302288 1.82475 0
M  V30 1646 C 160.686 3.4052 1.2136 0
M  V30 1647 O 160.407 4.37588 0.211786 0
M  V30 1648 C 161.908 3.97149 1.96945 0
M  V30 1649 H 159.128 0.653428 0.152555 0
M  V30 1650 H 161.672 2.03697 -0.18103 0
M  V30 1651 H 159.827 3.367 1.91603 0
M  V30 1652 H 160.241 5.20118 0.676607 0
M  V30 1653 H 161.715 4.98393 2.37294 0
M  V30 1654 H 162.192 3.3525 2.83733 0
M  V30 1655 H 162.798 4.04458 1.31506 0
M  V30 1656 N 161.113 -0.173488 1.56642 0
M  V30 1657 C 162.353 -0.896984 1.83667 0
M  V30 1658 C 162.717 -1.79523 0.680842 0
M  V30 1659 O 163.918 -2.55616 0.831488 0
M  V30 1660 C 162.189 -1.67351 3.15798 0
M  V30 1661 S 163.748 -2.44607 3.64298 0
M  V30 1662 H 160.566 -0.300464 0.644393 0
M  V30 1663 H 163.168 -0.158775 1.94854 0
M  V30 1664 H 161.872 -1.00462 3.97914 0
M  V30 1665 H 161.403 -2.45313 3.07546 0
M  V30 1666 H 163.418 -3.69261 3.31452 0
M  V30 1667 N 162.591 -1.51276 -0.441967 0
M  V30 1668 C 163.868 -1.54252 -1.20273 0
M  V30 1669 C 164.248 -0.30408 -2.08898 0
M  V30 1670 O 163.596 0.711084 -2.17154 0
M  V30 1671 C 163.806 -2.85406 -2.00859 0
M  V30 1672 C 165.154 -3.37181 -2.58059 0
M  V30 1673 O 166.178 -2.86925 -2.11074 0
M  V30 1674 O 165.037 -4.24858 -3.43741 0
M  V30 1675 H 162.131 -0.619969 -0.547328 0
M  V30 1676 H 164.677 -1.63586 -0.451413 0
M  V30 1677 H 163.449 -3.67003 -1.35736 0
M  V30 1678 H 163.072 -2.79213 -2.83065 0
M  V30 1679 N 164.069 0.697108 -1.41344 0
M  V30 1680 C 165.346 1.45154 -1.31109 0
M  V30 1681 C 165.726 2.11009 0.0620449 0
M  V30 1682 O 165.074 2.01571 1.07618 0
M  V30 1683 C 165.284 2.47223 -2.46337 0
M  V30 1684 C 166.632 3.1252 -2.87431 0
M  V30 1685 O 167.656 2.57547 -2.46065 0
M  V30 1686 O 166.515 4.12083 -3.58957 0
M  V30 1687 H 163.609 0.646365 -0.515889 0
M  V30 1688 H 166.155 0.727716 -1.53305 0
M  V30 1689 H 164.927 1.97204 -3.37974 0
M  V30 1690 H 164.55 3.27116 -2.2601 0
M  V30 1691 N 165.547 1.27147 0.931209 0
M  V30 1692 C 166.958 1.12044 1.49342 0
M  V30 1693 C 167.309 -0.295795 1.93957 0
M  V30 1694 O 166.434 -1.18835 1.80852 0
M  V30 1695 C 167.029 2.02781 2.71414 0
M  V30 1696 C 165.588 1.91794 3.2387 0
M  V30 1697 C 164.735 1.95543 1.96617 0
M  V30 1698 H 167.686 1.40091 0.745672 0
M  V30 1699 H 167.707 1.58156 3.46074 0
M  V30 1700 H 167.219 3.05848 2.38911 0
M  V30 1701 H 165.32 0.916992 3.6114 0
M  V30 1702 H 165.433 2.77852 3.90302 0
M  V30 1703 H 163.797 1.39722 2.12955 0
M  V30 1704 H 164.58 3.00259 1.66432 0
M  V30 1705 N 167.025 -1.13721 1.09112 0
M  V30 1706 C 168.441 -1.36914 0.820174 0
M  V30 1707 C 168.641 -1.93356 -0.567079 0
M  V30 1708 O 167.697 -2.15093 -1.32255 0
M  V30 1709 C 169.01 -2.3235 1.90877 0
M  V30 1710 C 170.558 -2.45973 1.93562 0
M  V30 1711 C 171.033 -3.44714 3.01556 0
M  V30 1712 N 172.524 -3.52263 3.00775 0
M  V30 1713 C 173.259 -4.28536 3.80978 0
M  V30 1714 N 172.755 -5.07991 4.71081 0
M  V30 1715 N 174.548 -4.23804 3.69251 0
M  V30 1716 H 166.699 -0.754348 1.98553 0
M  V30 1717 H 168.962 -0.3944 0.862063 0
M  V30 1718 H 168.668 -1.98027 2.90651 0
M  V30 1719 H 168.542 -3.32332 1.78424 0
M  V30 1720 H 170.929 -2.79584 0.944286 0
M  V30 1721 H 171.01 -1.45926 2.10093 0
M  V30 1722 H 170.654 -3.11835 4.00901 0
M  V30 1723 H 170.584 -4.44558 2.82269 0
M  V30 1724 H 173.075 -2.95567 2.35475 0
M  V30 1725 H 173.388 -5.63487 5.28869 0
M  V30 1726 H 171.733 -5.07235 4.75119 0
M  V30 1727 H 174.924 -3.60806 2.98222 0
M  V30 1728 H 175.097 -4.82995 4.31995 0
M  V30 1729 N 168.503 -0.877838 -1.30888 0
M  V30 1730 C 169.75 -0.492696 -1.96415 0
M  V30 1731 C 170.078 0.956671 -1.69346 0
M  V30 1732 O 169.333 1.68993 -0.986913 0
M  V30 1733 C 169.632 -0.705748 -3.50363 0
M  V30 1734 C 169.298 -2.1291 -3.97467 0
M  V30 1735 C 167.96 -2.51834 -4.1004 0
M  V30 1736 C 170.312 -3.05702 -4.22132 0
M  V30 1737 C 167.64 -3.82775 -4.44635 0
M  V30 1738 C 169.992 -4.36166 -4.58194 0
M  V30 1739 C 168.656 -4.74993 -4.68975 0
M  V30 1740 H 167.926 -0.18029 -0.718733 0
M  V30 1741 H 170.573 -1.11233 -1.55883 0
M  V30 1742 H 168.878 -0.00303058 -3.918 0
M  V30 1743 H 170.575 -0.387456 -3.99124 0
M  V30 1744 H 167.165 -1.81694 -3.88182 0
M  V30 1745 H 171.349 -2.76853 -4.11906 0
M  V30 1746 H 166.605 -4.12609 -4.51181 0
M  V30 1747 H 170.779 -5.08111 -4.76231 0
M  V30 1748 H 168.406 -5.76495 -4.95537 0
M  V30 1749 N 169.982 1.44106 -0.638065 0
M  V30 1750 C 170.914 2.28976 0.101205 0
M  V30 1751 C 171.927 1.4167 0.802088 0
M  V30 1752 O 173.116 1.65755 0.662375 0
M  V30 1753 C 170.216 3.18217 1.16581 0
M  V30 1754 C 169.389 4.33978 0.546066 0
M  V30 1755 C 168.448 5.04202 1.50554 0
M  V30 1756 O 167.474 5.59986 1.01999 0
M  V30 1757 N 168.676 5.06296 2.8398 0
M  V30 1758 H 171.441 2.93064 -0.627186 0
M  V30 1759 H 169.002 1.54629 -0.479731 0
M  V30 1760 H 170.994 3.62061 1.80815 0
M  V30 1761 H 169.564 2.55833 1.79634 0
M  V30 1762 H 168.784 3.93239 -0.275046 0
M  V30 1763 H 170.072 5.08675 0.112793 0
M  V30 1764 H 169.47 4.62319 3.26002 0
M  V30 1765 H 168.027 5.53907 3.43556 0
M  V30 1766 N 171.46 0.379036 1.52974 0
M  V30 1767 C 172.737 -0.263479 1.93817 0
M  V30 1768 C 173.117 -1.65244 1.31368 0
M  V30 1769 O 172.465 -2.23448 0.477856 0
M  V30 1770 C 172.675 -0.300166 3.47707 0
M  V30 1771 C 174.023 -0.534061 4.21228 0
M  V30 1772 O 175.047 -0.38081 3.54159 0
M  V30 1773 O 173.906 -0.833501 5.40106 0
M  V30 1774 H 171 -0.161149 0.811147 0
M  V30 1775 H 173.546 0.432798 1.64088 0
M  V30 1776 H 172.318 0.673138 3.85467 0
M  V30 1777 H 171.941 -1.04179 3.83709 0
M  V30 1778 N 172.938 -1.57226 0.108567 0
M  V30 1779 C 174.163 -1.99604 -0.563303 0
M  V30 1780 C 174.588 -0.987563 -1.6009 0
M  V30 1781 O 173.946 0.0421687 -1.81251 0
M  V30 1782 C 173.994 -3.40902 -1.17552 0
M  V30 1783 O 173.098 -3.42896 -2.2912 0
M  V30 1784 H 172.439 -0.648704 -0.1417 0
M  V30 1785 H 174.969 -2.03679 0.193961 0
M  V30 1786 H 174.979 -3.78886 -1.51357 0
M  V30 1787 H 173.654 -4.1382 -0.415445 0
M  V30 1788 H 172.231 -3.1672 -1.96832 0
M  V30 1789 N 174.416 0.165178 -1.56732 0
M  V30 1790 C 175.641 0.900253 -1.86843 0
M  V30 1791 C 176.066 1.74766 -0.695596 0
M  V30 1792 O 175.424 1.77786 0.35522 0
M  V30 1793 C 175.472 1.74777 -3.15413 0
M  V30 1794 O 174.576 2.85007 -2.98068 0
M  V30 1795 H 173.917 0.251832 -0.614391 0
M  V30 1796 H 176.447 0.161468 -2.03962 0
M  V30 1797 H 176.457 2.14646 -3.46974 0
M  V30 1798 H 175.132 1.12537 -4.00385 0
M  V30 1799 H 173.709 2.48676 -2.77875 0
M  V30 1800 N 175.894 1.51508 0.433938 0
M  V30 1801 C 177.119 1.68443 1.21003 0
M  V30 1802 C 177.544 0.382636 1.84167 0
M  V30 1803 O 176.902 -0.65755 1.68956 0
M  V30 1804 C 176.95 2.80405 2.26727 0
M  V30 1805 O 176.054 2.44245 3.32292 0
M  V30 1806 H 175.395 0.561536 0.354363 0
M  V30 1807 H 177.925 1.9809 0.512024 0
M  V30 1808 H 177.935 3.0459 2.71457 0
M  V30 1809 H 176.61 3.74867 1.80132 0
M  V30 1810 H 175.187 2.30644 2.93015 0
M  V30 1811 N 177.372 -0.689602 1.41712 0
M  V30 1812 C 178.597 -1.48329 1.44959 0
M  V30 1813 C 179.022 -1.8801 0.0581283 0
M  V30 1814 O 178.38 -1.55026 -0.940035 0
M  V30 1815 C 178.428 -2.71835 2.36935 0
M  V30 1816 O 177.532 -3.69549 1.8305 0
M  V30 1817 H 176.873 -0.446199 0.491734 0
M  V30 1818 H 179.403 -0.847127 1.86239 0
M  V30 1819 H 179.413 -3.20076 2.53013 0
M  V30 1820 H 178.088 -2.42291 3.38035 0
M  V30 1821 H 176.665 -3.2851 1.76452 0
M  V30 1822 N 178.85 -1.27639 -0.924453 0
M  V30 1823 C 179.797 -1.10644 -2.0255 0
M  V30 1824 C 180.767 -0.00658438 -1.66099 0
M  V30 1825 O 181.952 -0.16952 -1.90045 0
M  V30 1826 C 179.092 -0.76309 -3.36557 0
M  V30 1827 C 178.205 -1.94091 -3.85944 0
M  V30 1828 C 177.34 -1.53914 -5.08413 0
M  V30 1829 C 176.379 -2.68425 -5.50104 0
M  V30 1830 N 175.516 -2.28815 -6.63768 0
M  V30 1831 H 180.356 -2.04858 -2.16419 0
M  V30 1832 H 177.893 -1.01974 -1.06017 0
M  V30 1833 H 179.851 -0.544822 -4.13627 0
M  V30 1834 H 178.481 0.142102 -3.22487 0
M  V30 1835 H 177.533 -2.27162 -3.05125 0
M  V30 1836 H 178.845 -2.7998 -4.12811 0
M  V30 1837 H 177.999 -1.28231 -5.92994 0
M  V30 1838 H 176.738 -0.651391 -4.8333 0
M  V30 1839 H 175.743 -2.94819 -4.64071 0
M  V30 1840 H 176.968 -3.57826 -5.7718 0
M  V30 1841 H 174.914 -1.42495 -6.40337 0
M  V30 1842 H 174.831 -3.08242 -6.90306 0
M  V30 1843 H 176.099 -2.06387 -7.51681 0
M  V30 1844 N 180.328 1.1314 -1.09713 0
M  V30 1845 C 181.291 2.16831 -0.742751 0
M  V30 1846 C 182.291 1.59159 0.229129 0
M  V30 1847 O 183.481 1.74199 0.00693237 0
M  V30 1848 C 180.613 3.40756 -0.0989168 0
M  V30 1849 H 181.806 2.49695 -1.66109 0
M  V30 1850 H 179.359 1.2802 -0.896699 0
M  V30 1851 H 180.094 3.13485 0.830514 0
M  V30 1852 H 179.879 3.83888 -0.798265 0
M  V30 1853 H 181.369 4.17386 0.133524 0
M  V30 1854 N 181.806 0.884767 1.30421 0
M  V30 1855 C 183.217 0.553656 1.78302 0
M  V30 1856 C 183.568 -0.930153 1.7275 0
M  V30 1857 O 182.693 -1.72681 1.30423 0
M  V30 1858 C 183.288 0.998234 3.2376 0
M  V30 1859 C 181.847 0.71854 3.69478 0
M  V30 1860 C 180.994 1.18132 2.50879 0
M  V30 1861 H 183.945 1.06901 1.17294 0
M  V30 1862 H 183.966 0.327118 3.79091 0
M  V30 1863 H 183.478 2.0782 3.27769 0
M  V30 1864 H 181.579 -0.349444 3.70958 0
M  V30 1865 H 181.692 1.30595 4.60958 0
M  V30 1866 H 180.056 0.600669 2.47516 0
M  V30 1867 H 180.839 2.26902 2.57624 0
M  V30 1868 N 183.284 -1.43765 0.645699 0
M  V30 1869 C 184.695 -1.85193 0.236719 0
M  V30 1870 C 185.046 -1.54045 -1.21509 0
M  V30 1871 O 184.171 -0.985694 -1.92647 0
M  V30 1872 C 184.766 -3.36151 0.422845 0
M  V30 1873 C 183.325 -3.76338 0.0682492 0
M  V30 1874 C 182.472 -2.67538 0.729306 0
M  V30 1875 H 185.423 -1.34025 0.849883 0
M  V30 1876 H 185.444 -3.79032 -0.333904 0
M  V30 1877 H 184.956 -3.5879 1.47958 0
M  V30 1878 H 183.057 -3.59312 -0.986179 0
M  V30 1879 H 183.17 -4.76603 0.488469 0
M  V30 1880 H 181.534 -2.54176 0.163235 0
M  V30 1881 H 182.317 -2.93006 1.78892 0
M  V30 1882 N 184.763 -0.387143 -1.52771 0
M  V30 1883 C 186.174 0.0873634 -1.86495 0
M  V30 1884 C 186.525 1.46336 -1.30691 0
M  V30 1885 O 185.65 2.068 -0.637409 0
M  V30 1886 C 186.245 0.165305 -3.38396 0
M  V30 1887 C 184.804 0.584101 -3.7184 0
M  V30 1888 C 183.951 -0.255279 -2.76122 0
M  V30 1889 H 186.902 -0.605104 -1.46711 0
M  V30 1890 H 186.923 0.984848 -3.67534 0
M  V30 1891 H 186.435 -0.836301 -3.78982 0
M  V30 1892 H 184.536 1.59315 -3.36823 0
M  V30 1893 H 184.649 0.343749 -4.77865 0
M  V30 1894 H 183.013 0.279126 -2.53166 0
M  V30 1895 H 183.796 -1.25482 -3.19545 0
M  V30 1896 N 186.241 1.57166 -0.116904 0
M  V30 1897 C 187.466 1.999 0.55271 0
M  V30 1898 C 187.891 0.996039 1.59564 0
M  V30 1899 O 187.249 -0.032556 1.81271 0
M  V30 1900 C 187.297 3.4152 1.15742 0
M  V30 1901 O 186.401 3.44106 2.27299 0
M  V30 1902 H 185.742 0.649447 0.138258 0
M  V30 1903 H 188.272 2.03573 -0.204759 0
M  V30 1904 H 188.282 3.79684 1.49346 0
M  V30 1905 H 186.957 4.14034 0.393493 0
M  V30 1906 H 185.534 3.17759 1.9515 0
M  V30 1907 N 187.719 -0.156864 1.56817 0
M  V30 1908 C 188.649 -1.19589 2.00551 0
M  V30 1909 C 189.63 -1.4536 0.883426 0
M  V30 1910 O 190.815 -1.56449 1.15054 0
M  V30 1911 C 187.945 -2.53143 2.37773 0
M  V30 1912 C 186.899 -2.41913 3.53075 0
M  V30 1913 C 186.225 -3.80088 3.76081 0
M  V30 1914 C 187.525 -1.91157 4.86062 0
M  V30 1915 H 189.219 -0.832293 2.87599 0
M  V30 1916 H 186.765 -0.398918 1.38364 0
M  V30 1917 H 188.718 -3.26047 2.66967 0
M  V30 1918 H 187.442 -2.91319 1.4765 0
M  V30 1919 H 186.101 -1.71462 3.24031 0
M  V30 1920 H 185.749 -4.15683 2.83225 0
M  V30 1921 H 185.449 -3.73439 4.53671 0
M  V30 1922 H 186.973 -4.54556 4.0769 0
M  V30 1923 H 188.387 -2.53846 5.14038 0
M  V30 1924 H 186.784 -1.95422 5.67389 0
M  V30 1925 H 187.854 -0.866673 4.77092 0
M  V30 1926 N 189.197 -1.51736 -0.425897 0
M  V30 1927 C 190.608 -1.5732 -1.00536 0
M  V30 1928 C 190.959 -0.403537 -1.92005 0
M  V30 1929 O 190.084 0.478256 -2.11049 0
M  V30 1930 C 190.679 -2.85119 -1.8301 0
M  V30 1931 C 189.238 -2.93236 -2.35987 0
M  V30 1932 C 188.385 -2.52098 -1.15508 0
M  V30 1933 H 191.336 -1.57348 -0.206739 0
M  V30 1934 H 191.357 -2.69526 -2.68581 0
M  V30 1935 H 190.869 -3.7023 -1.16411 0
M  V30 1936 H 188.97 -2.12581 -3.06007 0
M  V30 1937 H 189.083 -3.9713 -2.68001 0
M  V30 1938 H 187.447 -2.05558 -1.50393 0
M  V30 1939 H 188.23 -3.39565 -0.505014 0
M  V30 1940 N 190.675 0.682077 -1.42076 0
M  V30 1941 C 191.9 1.47558 -1.45744 0
M  V30 1942 C 192.325 1.87977 -0.0680981 0
M  V30 1943 O 191.683 1.55522 0.9318 0
M  V30 1944 C 191.731 2.70575 -2.38373 0
M  V30 1945 O 190.835 3.68573 -1.85007 0
M  V30 1946 H 190.176 0.443585 -0.494093 0
M  V30 1947 H 192.706 0.837238 -1.86686 0
M  V30 1948 H 192.716 3.18729 -2.54707 0
M  V30 1949 H 191.391 2.40495 -3.39315 0
M  V30 1950 H 189.968 3.2757 -1.78192 0
M  V30 1951 N 192.153 1.28127 0.917671 0
M  V30 1952 C 193.564 1.13622 1.48145 0
M  V30 1953 C 193.915 -0.275207 1.9426 0
M  V30 1954 O 193.04 -1.1691 1.82102 0
M  V30 1955 C 193.635 2.05648 2.69248 0
M  V30 1956 C 192.194 1.95219 3.21818 0
M  V30 1957 C 191.341 1.97618 1.94532 0
M  V30 1958 H 194.292 1.40874 0.730772 0
M  V30 1959 H 194.313 1.61818 3.44377 0
M  V30 1960 H 193.825 3.08365 2.35653 0
M  V30 1961 H 191.926 0.955244 3.60147 0
M  V30 1962 H 192.039 2.81976 3.87333 0
M  V30 1963 H 190.403 1.41973 2.11461 0
M  V30 1964 H 191.186 3.02007 1.63238 0
M  V30 1965 N 193.631 -1.12557 1.10312 0
M  V30 1966 C 194.856 -1.88405 0.867085 0
M  V30 1967 C 195.281 -1.79038 -0.576817 0
M  V30 1968 O 194.639 -1.14439 -1.40618 0
M  V30 1969 C 194.687 -3.3563 1.31851 0
M  V30 1970 O 193.791 -4.09565 0.482734 0
M  V30 1971 H 193.132 -0.585455 0.313271 0
M  V30 1972 H 195.662 -1.42352 1.4696 0
M  V30 1973 H 195.672 -3.86469 1.3079 0
M  V30 1974 H 194.347 -3.41765 2.37001 0
M  V30 1975 H 192.924 -3.68695 0.558448 0
M  V30 1976 N 195.109 -0.891671 -1.2995 0
M  V30 1977 C 196.525 -0.58662 -1.48428 0
M  V30 1978 C 196.725 0.873951 -1.81561 0
M  V30 1979 O 195.781 1.65471 -1.90724 0
M  V30 1980 C 197.094 -1.50553 -2.60296 0
M  V30 1981 C 198.642 -1.50988 -2.74175 0
M  V30 1982 C 199.117 -2.41488 -3.89163 0
M  V30 1983 N 200.608 -2.39489 -3.96483 0
M  V30 1984 C 201.343 -3.06223 -4.84784 0
M  V30 1985 N 200.839 -3.82206 -5.77833 0
M  V30 1986 N 202.632 -2.95421 -4.78208 0
M  V30 1987 H 194.783 -1.83644 -1.06718 0
M  V30 1988 H 197.046 -0.786455 -0.529332 0
M  V30 1989 H 196.752 -2.54581 -2.42654 0
M  V30 1990 H 196.626 -1.22008 -3.56923 0
M  V30 1991 H 199.013 -0.47708 -2.91218 0
M  V30 1992 H 199.094 -1.83567 -1.78148 0
M  V30 1993 H 198.738 -3.44857 -3.72876 0
M  V30 1994 H 198.668 -2.06222 -4.84541 0
M  V30 1995 H 201.159 -1.84278 -3.29924 0
M  V30 1996 H 201.472 -4.302 -6.41988 0
M  V30 1997 H 199.817 -3.86313 -5.77743 0
M  V30 1998 H 203.008 -2.35581 -4.04499 0
M  V30 1999 H 203.181 -3.47704 -5.46814 0
M  V30 2000 N 196.587 1.43421 -0.653314 0
M  V30 2001 C 197.517 2.33487 0.0246656 0
M  V30 2002 C 198.498 1.49475 0.811863 0
M  V30 2003 O 199.683 1.78139 0.773322 0
M  V30 2004 C 196.813 3.32841 0.99166 0
M  V30 2005 C 195.767 4.26842 0.314568 0
M  V30 2006 C 195.093 5.16236 1.39302 0
M  V30 2007 C 196.393 5.16243 -0.793095 0
M  V30 2008 H 198.087 2.90427 -0.727481 0
M  V30 2009 H 195.633 1.39649 -0.351287 0
M  V30 2010 H 197.586 3.94747 1.47487 0
M  V30 2011 H 196.31 2.74158 1.77497 0
M  V30 2012 H 194.969 3.663 -0.148199 0
M  V30 2013 H 194.617 4.53891 2.16776 0
M  V30 2014 H 194.317 5.79948 0.945223 0
M  V30 2015 H 195.841 5.81015 1.87759 0
M  V30 2016 H 197.255 5.71958 -0.392039 0
M  V30 2017 H 195.652 5.88676 -1.16536 0
M  V30 2018 H 196.722 4.55927 -1.65103 0
M  V30 2019 N 198.065 0.39524 1.52563 0
M  V30 2020 C 199.476 -0.0774719 1.86539 0
M  V30 2021 C 199.827 -1.45641 1.31466 0
M  V30 2022 O 198.952 -2.06459 0.648367 0
M  V30 2023 C 199.547 -0.147356 3.38479 0
M  V30 2024 C 198.106 -0.564373 3.72145 0
M  V30 2025 C 197.253 0.269919 2.75983 0
M  V30 2026 H 200.204 0.612876 1.46388 0
M  V30 2027 H 200.225 -0.965343 3.68051 0
M  V30 2028 H 199.737 0.856387 3.78534 0
M  V30 2029 H 197.838 -1.57527 3.37663 0
M  V30 2030 H 197.951 -0.318402 4.78041 0
M  V30 2031 H 196.315 -0.265696 2.5331 0
M  V30 2032 H 197.098 1.27175 3.18875 0
M  V30 2033 N 199.544 -1.57102 0.125237 0
M  V30 2034 C 200.792 -1.95021 -0.530198 0
M  V30 2035 C 201.113 -1.00982 -1.66816 0
M  V30 2036 O 200.383 -0.0672693 -1.95784 0
M  V30 2037 H 198.963 -0.720046 -0.198853 0
M  V30 2038 H 201.625 -1.93916 0.19564 0
M  V30 2039 H 200.721 -2.98211 -0.920681 0
M  V30 2040 N 201.022 0.148545 -1.56898 0
M  V30 2041 C 202.433 0.708766 -1.72723 0
M  V30 2042 C 202.784 1.81734 -0.739395 0
M  V30 2043 O 201.909 2.16194 0.0943169 0
M  V30 2044 C 202.504 1.29245 -3.13179 0
M  V30 2045 C 201.063 1.79925 -3.30611 0
M  V30 2046 C 200.21 0.687111 -2.68652 0
M  V30 2047 H 203.161 -0.0771063 -1.58513 0
M  V30 2048 H 203.182 2.16224 -3.13093 0
M  V30 2049 H 202.694 0.485382 -3.85053 0
M  V30 2050 H 200.795 2.63203 -2.63732 0
M  V30 2051 H 200.908 1.92903 -4.38549 0
M  V30 2052 H 199.272 1.11335 -2.29078 0
M  V30 2053 H 200.055 -0.108483 -3.43129 0
M  V30 2054 N 202.5 1.5196 0.417844 0
M  V30 2055 C 203.725 1.69717 1.1921 0
M  V30 2056 C 204.15 0.402148 1.83751 0
M  V30 2057 O 203.508 -0.639593 1.69643 0
M  V30 2058 C 203.556 2.82794 2.2374 0
M  V30 2059 O 202.66 2.47756 3.29683 0
M  V30 2060 H 202.001 0.565263 0.348387 0
M  V30 2061 H 204.531 1.98621 0.490985 0
M  V30 2062 H 204.541 3.07452 2.68212 0
M  V30 2063 H 203.216 3.76756 1.76146 0
M  V30 2064 H 201.793 2.33739 2.90552 0
M  V30 2065 N 203.978 -0.674533 1.42435 0
M  V30 2066 C 205.255 -1.4305 1.33402 0
M  V30 2067 C 205.635 -2.11081 -0.0284674 0
M  V30 2068 O 204.983 -2.03257 -1.04397 0
M  V30 2069 C 205.193 -2.43272 2.50239 0
M  V30 2070 C 206.541 -3.07907 2.92367 0
M  V30 2071 O 207.565 -2.53599 2.50132 0
M  V30 2072 O 206.424 -4.0632 3.65467 0
M  V30 2073 H 203.518 -0.638076 0.526106 0
M  V30 2074 H 206.064 -0.703235 1.54443 0
M  V30 2075 H 204.836 -1.91803 3.41068 0
M  V30 2076 H 204.459 -3.23479 2.31186 0
M  V30 2077 N 205.456 -1.28612 -0.910864 0
M  V30 2078 C 206.684 -1.18792 -1.69399 0
M  V30 2079 C 207.099 0.253039 -1.87097 0
M  V30 2080 O 206.456 1.17071 -1.40003 0
M  V30 2081 C 206.507 -1.88511 -3.08457 0
M  V30 2082 O 206.228 -3.26979 -2.91576 0
M  V30 2083 C 207.729 -1.85029 -4.02839 0
M  V30 2084 H 204.949 -0.412233 -0.529438 0
M  V30 2085 H 207.493 -1.69788 -1.13984 0
M  V30 2086 H 205.648 -1.41379 -3.60681 0
M  V30 2087 H 206.062 -3.61936 -3.79608 0
M  V30 2088 H 207.536 -2.38395 -4.97867 0
M  V30 2089 H 208.013 -0.823303 -4.31414 0
M  V30 2090 H 208.619 -2.31853 -3.56545 0
M  V30 2091 N 206.934 1.1197 -1.10907 0
M  V30 2092 C 208.345 1.65114 -0.871446 0
M  V30 2093 C 208.696 1.86885 0.597353 0
M  V30 2094 O 207.821 1.59896 1.45816 0
M  V30 2095 C 208.416 2.99944 -1.5754 0
M  V30 2096 C 206.975 3.50018 -1.38435 0
M  V30 2097 C 206.122 2.24941 -1.62164 0
M  V30 2098 H 209.073 0.956851 -1.2661 0
M  V30 2099 H 209.094 3.66651 -1.01721 0
M  V30 2100 H 208.606 2.84067 -2.64438 0
M  V30 2101 H 206.707 3.71071 -0.337214 0
M  V30 2102 H 206.82 4.29165 -2.12965 0
M  V30 2103 H 205.184 2.3229 -1.04467 0
M  V30 2104 H 205.967 2.11612 -2.70324 0
M  V30 2105 N 208.412 0.89855 1.29475 0
M  V30 2106 C 209.661 0.519863 1.94885 0
M  V30 2107 C 209.974 -0.9383 1.71625 0
M  V30 2108 O 211.18 -1.42445 2.31131 0
M  V30 2109 C 209.636 0.878836 3.49005 0
M  V30 2110 C 209.244 2.35569 3.81066 0
M  V30 2111 C 210.988 0.570004 4.20656 0
M  V30 2112 C 208.895 2.65558 5.28425 0
M  V30 2113 H 207.825 0.190692 0.729488 0
M  V30 2114 H 210.476 1.09539 1.47219 0
M  V30 2115 H 208.858 0.232253 3.95318 0
M  V30 2116 H 210.032 3.04773 3.45616 0
M  V30 2117 H 208.347 2.63343 3.22552 0
M  V30 2118 H 210.944 0.770925 5.29113 0
M  V30 2119 H 211.287 -0.491404 4.1339 0
M  V30 2120 H 211.82 1.17438 3.8007 0
M  V30 2121 H 208.559 3.70493 5.40754 0
M  V30 2122 H 208.079 2.00977 5.65127 0
M  V30 2123 H 209.758 2.51765 5.96006 0
M  V30 2124 N 209.89 -1.43072 0.660911 0
M  V30 2125 C 210.82 -2.33497 -0.0122829 0
M  V30 2126 C 211.801 -1.49903 -0.803925 0
M  V30 2127 O 212.986 -1.78546 -0.763864 0
M  V30 2128 C 210.116 -3.33363 -0.973994 0
M  V30 2129 C 209.07 -4.27003 -0.291928 0
M  V30 2130 C 208.396 -5.16967 -1.36562 0
M  V30 2131 C 209.696 -5.15816 0.820462 0
M  V30 2132 H 211.39 -2.90038 0.742873 0
M  V30 2133 H 208.936 -1.39461 0.358688 0
M  V30 2134 H 210.889 -3.95524 -1.45392 0
M  V30 2135 H 209.613 -2.75095 -1.7604 0
M  V30 2136 H 208.272 -3.66217 0.167623 0
M  V30 2137 H 207.92 -4.55034 -2.14366 0
M  V30 2138 H 207.62 -5.80441 -0.914454 0
M  V30 2139 H 209.144 -5.82003 -1.84675 0
M  V30 2140 H 210.558 -5.71742 0.422366 0
M  V30 2141 H 208.955 -5.8805 1.19656 0
M  V30 2142 H 210.025 -4.55045 1.67518 0
M  V30 2143 N 211.368 -0.403325 -1.52352 0
M  V30 2144 C 212.779 0.0675782 -1.86578 0
M  V30 2145 C 213.13 1.44941 -1.32236 0
M  V30 2146 O 212.255 2.06112 -0.659307 0
M  V30 2147 C 212.85 0.129404 -3.38553 0
M  V30 2148 C 211.409 0.544629 -3.72439 0
M  V30 2149 C 210.556 -0.284551 -2.75836 0
M  V30 2150 H 213.507 -0.620631 -1.46061 0
M  V30 2151 H 213.528 0.94581 -3.68558 0
M  V30 2152 H 213.04 -0.87645 -3.78074 0
M  V30 2153 H 211.141 1.55734 -3.38493 0
M  V30 2154 H 211.254 0.293046 -4.78203 0
M  V30 2155 H 209.618 0.252258 -2.53448 0
M  V30 2156 H 210.401 -1.28865 -3.18196 0
M  V30 2157 N 212.846 1.57033 -0.133567 0
M  V30 2158 C 213.778 2.13176 0.841944 0
M  V30 2159 C 214.791 1.07794 1.22001 0
M  V30 2160 O 215.98 1.35117 1.16643 0
M  V30 2161 C 213.08 2.62847 2.13926 0
M  V30 2162 C 212.253 3.92486 1.93064 0
M  V30 2163 C 211.312 4.27605 3.0666 0
M  V30 2164 O 210.338 4.96168 2.78937 0
M  V30 2165 N 211.54 3.861 4.33483 0
M  V30 2166 H 214.305 2.97503 0.362192 0
M  V30 2167 H 211.866 1.61821 0.05042 0
M  V30 2168 H 213.858 2.83363 2.88942 0
M  V30 2169 H 212.428 1.83319 2.53205 0
M  V30 2170 H 211.648 3.80732 1.02159 0
M  V30 2171 H 212.936 4.77225 1.76447 0
M  V30 2172 H 212.334 3.30828 4.58878 0
M  V30 2173 H 210.891 4.11694 5.05323 0
M  V30 2174 O 214.363 -0.00541248 1.61499 0
M  V30 2175 H 215.054 -0.622816 1.83414 0
M  V30 END ATOM
M  V30 BEGIN BOND
M  V30 END BOND
M  V30 END CTAB
M  END
$$$$
