drugbank_target|P22073 Beta-glucosidase A (DB02658; DB04282; DB04304)
 OpenBabel12092120003D

  0  0  0     0  0            999 V3000
M  V30 BEGIN CTAB
M  V30 COUNTS 7083 7193 0 0 0
M  V30 BEGIN ATOM
M  V30 1 H -0.908 1.98254 -0.117106 0
M  V30 2 N 0 1.576 0 0
M  V30 3 C 0.933 2.03868 1.02534 0
M  V30 4 C 1.911 0.928543 1.3348 0
M  V30 5 O 3.095 1.19667 1.45644 0
M  V30 6 C 0.222 2.43627 2.35294 0
M  V30 7 C -0.732 3.65373 2.2001 0
M  V30 8 S 0.101 5.13292 1.52614 0
M  V30 9 C 1.257 5.56322 2.86805 0
M  V30 10 H 1.49 2.90518 0.631377 0
M  V30 11 H -0.977 1.52953 0.210867 0
M  V30 12 H 0.981 2.67203 3.11629 0
M  V30 13 H -0.358 1.57376 2.7183 0
M  V30 14 H -1.165 3.90944 3.18086 0
M  V30 15 H -1.563 3.418 1.51819 0
M  V30 16 H 0.729 5.58782 3.83104 0
M  V30 17 H 1.672 6.56266 2.65933 0
M  V30 18 H 2.08 4.83886 2.90714 0
M  V30 19 N 1.4781 -0.272755 1.55222 0
M  V30 20 C 2.7061 -1.02255 1.79865 0
M  V30 21 C 3.1211 -1.79924 0.572088 0
M  V30 22 O 2.4781 -1.76638 -0.458842 0
M  V30 23 C 2.5291 -1.98094 3.02392 0
M  V30 24 O 2.2501 -1.23572 4.20311 0
M  V30 25 C 3.7511 -2.84884 3.39641 0
M  V30 26 H 0.9711 -0.302057 0.599168 0
M  V30 27 H 3.5151 -0.303465 2.02236 0
M  V30 28 H 1.6701 -2.65465 2.82147 0
M  V30 29 H 2.0841 -1.88172 4.89583 0
M  V30 30 H 3.5581 -3.47927 4.28545 0
M  V30 31 H 4.0351 -3.54665 2.59055 0
M  V30 32 H 4.6411 -2.23003 3.62146 0
M  V30 33 N 2.9562 -1.48159 -0.537278 0
M  V30 34 C 4.2052 -1.5506 -1.28993 0
M  V30 35 C 4.5182 -0.226211 -1.94288 0
M  V30 36 O 5.7242 -0.173395 -2.70946 0
M  V30 37 C 4.1802 -2.73429 -2.34018 0
M  V30 38 C 3.7882 -4.1248 -1.74825 0
M  V30 39 C 5.5322 -2.89638 -3.10339 0
M  V30 40 C 3.4392 -5.22121 -2.77747 0
M  V30 41 H 2.3692 -0.577231 -0.485098 0
M  V30 42 H 5.0202 -1.74478 -0.568317 0
M  V30 43 H 3.4022 -2.47431 -3.09182 0
M  V30 44 H 4.5762 -4.48466 -1.05899 0
M  V30 45 H 2.8912 -4.01327 -1.11022 0
M  V30 46 H 5.4882 -3.68718 -3.87235 0
M  V30 47 H 5.8312 -1.9882 -3.65754 0
M  V30 48 H 6.3642 -3.15502 -2.42288 0
M  V30 49 H 3.1032 -6.1488 -2.27161 0
M  V30 50 H 2.6232 -4.90631 -3.45024 0
M  V30 51 H 4.3022 -5.49924 -3.4087 0
M  V30 52 N 4.4343 0.785586 -1.36625 0
M  V30 53 C 5.6813 1.54362 -1.31067 0
M  V30 54 C 6.0093 1.94195 0.10893 0
M  V30 55 O 5.2643 1.63262 1.07908 0
M  V30 56 C 5.5633 2.83007 -2.1827 0
M  V30 57 C 5.2293 2.62294 -3.6676 0
M  V30 58 C 3.8913 2.56353 -4.0723 0
M  V30 59 C 6.2433 2.43371 -4.6089 0
M  V30 60 C 3.5713 2.29461 -5.39967 0
M  V30 61 C 5.9233 2.18005 -5.93849 0
M  V30 62 C 4.5873 2.105 -6.3344 0
M  V30 63 H 3.8573 0.564851 -0.479609 0
M  V30 64 H 6.5043 0.906028 -1.68711 0
M  V30 65 H 4.8093 3.51253 -1.73576 0
M  V30 66 H 6.5063 3.40817 -2.11292 0
M  V30 67 H 3.0963 2.67774 -3.34656 0
M  V30 68 H 7.2803 2.46959 -4.30494 0
M  V30 69 H 2.5363 2.22135 -5.69619 0
M  V30 70 H 6.7103 2.02359 -6.66351 0
M  V30 71 H 4.3373 1.89425 -7.36222 0
M  V30 72 N 5.9124 1.20967 1.01018 0
M  V30 73 C 6.8444 0.922059 2.09835 0
M  V30 74 C 7.8574 -0.0927106 1.62536 0
M  V30 75 O 9.0464 0.139127 1.77957 0
M  V30 76 C 6.1464 0.362004 3.36961 0
M  V30 77 C 5.3194 1.42986 4.13369 0
M  V30 78 C 4.3784 0.879976 5.1879 0
M  V30 79 O 3.4044 1.56219 5.47343 0
M  V30 80 N 4.6064 -0.307396 5.79686 0
M  V30 81 H 7.3714 1.8588 2.35093 0
M  V30 82 H 4.9324 1.11422 1.1746 0
M  V30 83 H 6.9244 -0.0201474 4.04695 0
M  V30 84 H 5.4944 -0.479437 3.08902 0
M  V30 85 H 4.7144 1.98608 3.40512 0
M  V30 86 H 6.0024 2.14885 4.61196 0
M  V30 87 H 5.4004 -0.878796 5.58832 0
M  V30 88 H 3.9574 -0.631115 6.48737 0
M  V30 89 N 7.3905 -1.2043 1.01659 0
M  V30 90 C 8.6375 -1.89797 0.705917 0
M  V30 91 C 8.9655 -1.78848 -0.764439 0
M  V30 92 O 8.2205 -1.16694 -1.57102 0
M  V30 93 C 8.5195 -3.40464 1.08714 0
M  V30 94 C 8.1855 -3.71614 2.5537 0
M  V30 95 C 6.8475 -3.79826 2.95441 0
M  V30 96 C 9.1995 -3.85915 3.50313 0
M  V30 97 C 6.5275 -3.99797 4.29394 0
M  V30 98 C 8.8795 -4.07396 4.83954 0
M  V30 99 C 7.5435 -4.13837 5.23732 0
M  V30 100 H 6.8135 -0.694518 0.258313 0
M  V30 101 H 9.4605 -1.42691 1.27717 0
M  V30 102 H 7.7655 -3.89385 0.434309 0
M  V30 103 H 9.4625 -3.92433 0.824461 0
M  V30 104 H 6.0525 -3.65822 2.23321 0
M  V30 105 H 10.2365 -3.78926 3.20513 0
M  V30 106 H 5.4925 -4.03018 4.59768 0
M  V30 107 H 9.6665 -4.17404 5.57447 0
M  V30 108 H 7.2935 -4.29064 6.27541 0
M  V30 109 N 8.8686 -0.792821 -1.36206 0
M  V30 110 C 10.2796 -0.429513 -1.81692 0
M  V30 111 C 10.6306 1.04695 -1.65932 0
M  V30 112 O 9.7556 1.81256 -1.18218 0
M  V30 113 C 10.3506 -0.772831 -3.29868 0
M  V30 114 C 8.9096 -0.462307 -3.7355 0
M  V30 115 C 8.0566 -1.00569 -2.5842 0
M  V30 116 H 11.0076 -0.985672 -1.24379 0
M  V30 117 H 11.0286 -0.0651928 -3.80444 0
M  V30 118 H 10.5406 -1.84747 -3.41307 0
M  V30 119 H 8.6416 0.604158 -3.67669 0
M  V30 120 H 8.7546 -0.985299 -4.68859 0
M  V30 121 H 7.1186 -0.428734 -2.51066 0
M  V30 122 H 7.9016 -2.08616 -2.72643 0
M  V30 123 N 10.3467 1.47872 -0.545128 0
M  V30 124 C 11.2787 2.27869 0.246621 0
M  V30 125 C 12.2917 1.36282 0.890561 0
M  V30 126 O 13.4807 1.61207 0.766449 0
M  V30 127 C 10.5807 3.10159 1.36582 0
M  V30 128 C 9.7537 4.29627 0.820954 0
M  V30 129 C 8.8127 4.93607 1.82314 0
M  V30 130 O 7.8387 5.52366 1.37406 0
M  V30 131 N 9.0407 4.87211 3.15603 0
M  V30 132 H 11.8057 2.96459 -0.439539 0
M  V30 133 H 9.3667 1.57367 -0.380421 0
M  V30 134 H 11.3587 3.49829 2.03474 0
M  V30 135 H 9.9287 2.43891 1.9554 0
M  V30 136 H 9.1487 3.94192 -0.0244032 0
M  V30 137 H 10.4367 5.06928 0.436063 0
M  V30 138 H 9.8347 4.40651 3.54744 0
M  V30 139 H 8.3917 5.30937 3.78087 0
M  V30 140 N 11.8248 0.280983 1.55075 0
M  V30 141 C 13.1018 -0.386207 1.91749 0
M  V30 142 C 13.4818 -1.73264 1.20594 0
M  V30 143 O 12.8298 -2.26034 0.334784 0
M  V30 144 C 13.0398 -0.520687 3.45094 0
M  V30 145 C 14.3878 -0.800865 4.16979 0
M  V30 146 O 15.4118 -0.605271 3.5102 0
M  V30 147 O 14.2708 -1.1753 5.33712 0
M  V30 148 H 11.3648 -0.212408 0.799257 0
M  V30 149 H 13.9108 0.327568 1.66509 0
M  V30 150 H 12.6828 0.426633 3.88967 0
M  V30 151 H 12.3058 -1.2837 3.76307 0
M  V30 152 N 13.3029 -1.57598 0.00835791 0
M  V30 153 C 14.5499 -1.90928 -0.674732 0
M  V30 154 C 14.8779 -0.88277 -1.73313 0
M  V30 155 O 14.1329 0.111294 -1.95383 0
M  V30 156 C 14.4319 -3.3101 -1.34787 0
M  V30 157 C 14.0979 -4.48922 -0.421861 0
M  V30 158 C 12.7599 -4.8091 -0.166927 0
M  V30 159 C 15.1119 -5.20755 0.215211 0
M  V30 160 C 12.4399 -5.821 0.733232 0
M  V30 161 C 14.7919 -6.22905 1.1033 0
M  V30 162 C 13.4559 -6.53346 1.36733 0
M  V30 163 H 12.7259 -0.698656 -0.246902 0
M  V30 164 H 15.3729 -1.91387 0.0656779 0
M  V30 165 H 13.6779 -3.26714 -2.16253 0
M  V30 166 H 15.3749 -3.54061 -1.8826 0
M  V30 167 H 11.9649 -4.23934 -0.630729 0
M  V30 168 H 16.1489 -4.9629 0.0312829 0
M  V30 169 H 11.4049 -6.04042 0.945712 0
M  V30 170 H 15.5789 -6.77694 1.60325 0
M  V30 171 H 13.2059 -7.31573 2.06652 0
M  V30 172 N 14.781 0.264519 -1.55364 0
M  V30 173 C 15.714 1.35297 -1.83766 0
M  V30 174 C 16.692 1.47171 -0.691336 0
M  V30 175 O 17.876 1.63663 -0.935238 0
M  V30 176 C 15.003 2.72847 -2.00679 0
M  V30 177 C 14.049 2.78214 -3.23263 0
M  V30 178 S 14.882 2.36601 -4.80396 0
M  V30 179 C 16.038 3.7611 -5.00292 0
M  V30 180 H 16.271 1.11003 -2.758 0
M  V30 181 H 13.804 0.464596 -1.47244 0
M  V30 182 H 15.762 3.52057 -2.11108 0
M  V30 183 H 14.423 2.94388 -1.09518 0
M  V30 184 H 13.616 3.7919 -3.3201 0
M  V30 185 H 13.218 2.07034 -3.11469 0
M  V30 186 H 15.51 4.71457 -4.86554 0
M  V30 187 H 16.453 3.7231 -6.02321 0
M  V30 188 H 16.861 3.67806 -4.28228 0
M  V30 189 N 16.2591 1.48442 0.529413 0
M  V30 190 C 17.5051 1.57699 1.28463 0
M  V30 191 C 17.8601 0.247913 1.90796 0
M  V30 192 O 17.1531 -0.749279 1.76342 0
M  V30 193 C 17.3471 2.6523 2.39558 0
M  V30 194 C 17.1761 4.08464 1.88114 0
M  V30 195 C 15.9461 4.75596 1.70693 0
M  V30 196 C 18.1441 4.94613 1.40935 0
M  V30 197 N 16.1261 6.03245 1.13881 0
M  V30 198 C 17.4971 6.12511 0.960734 0
M  V30 199 C 19.5521 4.80833 1.29243 0
M  V30 200 C 18.2551 7.18149 0.406792 0
M  V30 201 C 20.2811 5.86593 0.752487 0
M  V30 202 C 19.6431 7.037 0.313946 0
M  V30 203 H 15.7421 0.631608 0.46108 0
M  V30 204 H 18.3261 1.85325 0.596886 0
M  V30 205 H 16.4971 2.39425 3.05827 0
M  V30 206 H 18.2291 2.64169 3.06589 0
M  V30 207 H 14.9841 4.31938 1.94232 0
M  V30 208 H 15.4081 6.71324 0.874831 0
M  V30 209 H 20.0501 3.90635 1.61754 0
M  V30 210 H 17.7681 8.0807 0.0693671 0
M  V30 211 H 21.3541 5.77985 0.665192 0
M  V30 212 H 20.2341 7.8414 -0.0973632 0
M  V30 213 N 17.7372 -0.778329 1.37039 0
M  V30 214 C 18.9852 -1.53361 1.31623 0
M  V30 215 C 19.3062 -1.94739 -0.100831 0
M  V30 216 O 18.5762 -1.65797 -1.04347 0
M  V30 217 H 17.1562 -0.568794 0.484234 0
M  V30 218 H 19.8182 -0.926742 1.71457 0
M  V30 219 H 18.9142 -2.43606 1.95096 0
M  V30 220 N 19.2153 -1.21501 -1.00376 0
M  V30 221 C 20.4433 -1.059 -1.77744 0
M  V30 222 C 20.8583 0.391125 -1.84704 0
M  V30 223 O 20.2153 1.27133 -1.30933 0
M  V30 224 C 20.2663 -1.65111 -3.21591 0
M  V30 225 O 19.9873 -3.0445 -3.15027 0
M  V30 226 C 21.4883 -1.54637 -4.15454 0
M  V30 227 H 18.7083 -0.371825 -0.558558 0
M  V30 228 H 21.2523 -1.60865 -1.26264 0
M  V30 229 H 19.4073 -1.14235 -3.70175 0
M  V30 230 H 19.8213 -3.3278 -4.0541 0
M  V30 231 H 21.2953 -2.00808 -5.14179 0
M  V30 232 H 21.7723 -0.501022 -4.36333 0
M  V30 233 H 22.3783 -2.04767 -3.72761 0
M  V30 234 N 20.6934 1.19889 -1.02296 0
M  V30 235 C 21.6564 2.21116 -0.603351 0
M  V30 236 C 22.6564 1.5738 0.329884 0
M  V30 237 O 23.8464 1.73802 0.117702 0
M  V30 238 C 20.9784 3.40696 0.117992 0
M  V30 239 H 22.1714 2.59754 -1.49893 0
M  V30 240 H 19.7244 1.33463 -0.813468 0
M  V30 241 H 20.4594 3.07569 1.0282 0
M  V30 242 H 20.2444 3.88188 -0.552511 0
M  V30 243 H 21.7344 4.15692 0.398696 0
M  V30 244 N 22.1715 0.800033 1.35784 0
M  V30 245 C 23.3995 0.389606 2.03199 0
M  V30 246 C 23.8145 -0.997375 1.60306 0
M  V30 247 O 23.1715 -1.64154 0.797481 0
M  V30 248 C 23.2225 0.455855 3.58614 0
M  V30 249 O 22.9435 1.78815 3.99946 0
M  V30 250 C 24.4445 0.0374032 4.43284 0
M  V30 251 H 21.6645 0.159132 0.651857 0
M  V30 252 H 24.2085 1.08183 1.73541 0
M  V30 253 H 22.3635 -0.188057 3.86943 0
M  V30 254 H 22.7775 1.74636 4.94573 0
M  V30 255 H 24.2515 0.134882 5.51835 0
M  V30 256 H 24.7285 -1.01651 4.27275 0
M  V30 257 H 25.3345 0.654215 4.20238 0
M  V30 258 N 23.6496 -1.47581 0.552962 0
M  V30 259 C 24.6126 -2.28439 -0.186605 0
M  V30 260 C 25.6126 -1.36706 -0.84665 0
M  V30 261 O 26.8026 -1.59378 -0.703164 0
M  V30 262 C 23.9346 -3.16264 -1.2724 0
M  V30 263 H 25.1276 -2.95294 0.523609 0
M  V30 264 H 22.6806 -1.532 0.309745 0
M  V30 265 H 23.4156 -2.54091 -2.01514 0
M  V30 266 H 23.2006 -3.83769 -0.803968 0
M  V30 267 H 24.6906 -3.77198 -1.79196 0
M  V30 268 N 25.1277 -0.289203 -1.54924 0
M  V30 269 C 26.0907 0.579144 -2.21762 0
M  V30 270 C 27.0907 1.07047 -1.1999 0
M  V30 271 O 28.2807 0.968384 -1.44803 0
M  V30 272 C 25.4127 1.80055 -2.8947 0
M  V30 273 H 26.6057 -0.00464908 -2.999 0
M  V30 274 H 24.1587 -0.0399306 -1.56249 0
M  V30 275 H 24.8937 2.42449 -2.15381 0
M  V30 276 H 24.6787 1.45602 -3.64064 0
M  V30 277 H 26.1687 2.41773 -3.40493 0
M  V30 278 N 26.6058 1.57591 -0.0167156 0
M  V30 279 C 27.8358 1.95292 0.674149 0
M  V30 280 C 28.2438 0.891097 1.66901 0
M  V30 281 O 27.5868 -0.136908 1.83189 0
M  V30 282 C 27.6488 3.29072 1.44747 0
M  V30 283 C 27.3128 4.52879 0.612331 0
M  V30 284 C 28.3098 5.1979 -0.107126 0
M  V30 285 C 25.9948 4.99242 0.553381 0
M  V30 286 C 27.9888 6.31375 -0.874339 0
M  V30 287 C 25.6758 6.10713 -0.217546 0
M  V30 288 C 26.6738 6.76637 -0.930123 0
M  V30 289 O 26.3618 7.85969 -1.68844 0
M  V30 290 H 26.0938 0.648275 0.191615 0
M  V30 291 H 28.6478 2.05284 -0.0690148 0
M  V30 292 H 26.8778 3.15535 2.2355 0
M  V30 293 H 28.5668 3.51764 2.02526 0
M  V30 294 H 29.3328 4.84948 -0.0708392 0
M  V30 295 H 25.2118 4.47744 1.09757 0
M  V30 296 H 28.7558 6.82764 -1.43106 0
M  V30 297 H 24.6528 6.44994 -0.255593 0
M  V30 298 H 25.4208 8.02571 -1.6069 0
M  V30 299 N 28.0839 -0.256276 1.55502 0
M  V30 300 C 29.0159 -1.33981 1.85962 0
M  V30 301 C 30.0289 -1.44743 0.745212 0
M  V30 302 O 31.2179 -1.4626 1.02324 0
M  V30 303 C 28.3179 -2.7194 2.02242 0
M  V30 304 C 27.4909 -2.83562 3.33033 0
M  V30 305 C 26.5499 -4.02304 3.39172 0
M  V30 306 O 25.5759 -3.92273 4.12444 0
M  V30 307 N 26.7779 -5.15045 2.67784 0
M  V30 308 H 29.5429 -1.08191 2.7949 0
M  V30 309 H 27.1039 -0.446388 1.55624 0
M  V30 310 H 29.0959 -3.49697 2.03701 0
M  V30 311 H 27.6659 -2.90479 1.15502 0
M  V30 312 H 26.8859 -1.92555 3.43971 0
M  V30 313 H 28.1739 -2.88271 4.19258 0
M  V30 314 H 27.5719 -5.26085 2.07968 0
M  V30 315 H 26.1289 -5.90972 2.74947 0
M  V30 316 N 29.562 -1.4872 -0.521534 0
M  V30 317 C 30.811 -1.56419 -1.27341 0
M  V30 318 C 31.124 -0.246805 -1.94037 0
M  V30 319 O 32.33 -0.202122 -2.70747 0
M  V30 320 C 30.786 -2.75896 -2.31105 0
M  V30 321 C 30.394 -4.14311 -1.70441 0
M  V30 322 C 32.138 -2.92913 -3.07249 0
M  V30 323 C 30.045 -5.25038 -2.72194 0
M  V30 324 H 28.975 -0.582344 -0.478949 0
M  V30 325 H 31.626 -1.75071 -0.549779 0
M  V30 326 H 30.008 -2.50697 -3.06541 0
M  V30 327 H 31.182 -4.49564 -1.01136 0
M  V30 328 H 29.497 -4.02482 -1.06759 0
M  V30 329 H 32.094 -3.72805 -3.83302 0
M  V30 330 H 32.437 -2.02689 -3.63625 0
M  V30 331 H 32.97 -3.18054 -2.38928 0
M  V30 332 H 29.709 -6.17255 -2.20627 0
M  V30 333 H 29.229 -4.94263 -3.39801 0
M  V30 334 H 30.908 -5.53508 -3.35019 0
M  V30 335 N 31.0401 0.771051 -1.3745 0
M  V30 336 C 31.9501 1.91538 -1.35464 0
M  V30 337 C 32.9661 1.72134 -0.254123 0
M  V30 338 O 34.1421 1.95358 -0.489626 0
M  V30 339 C 31.2071 3.26671 -1.16134 0
M  V30 340 C 30.2681 3.58723 -2.35831 0
M  V30 341 C 29.5011 4.87409 -2.17413 0
M  V30 342 O 29.7241 5.58506 -1.15876 0
M  V30 343 O 28.6581 5.18539 -3.05615 0
M  V30 344 H 32.4841 1.96165 -2.31847 0
M  V30 345 H 30.0691 0.9139 -1.18187 0
M  V30 346 H 31.9511 4.07499 -1.07345 0
M  V30 347 H 30.6261 3.22894 -0.228251 0
M  V30 348 H 29.5331 2.78127 -2.50192 0
M  V30 349 H 30.8661 3.67243 -3.27709 0
M  V30 350 N 32.5182 1.22032 0.997298 0
M  V30 351 C 33.7662 1.04016 1.73278 0
M  V30 352 C 34.0872 -0.426255 1.90284 0
M  V30 353 O 33.3572 -1.30694 1.45931 0
M  V30 354 H 31.9372 0.381897 0.642 0
M  V30 355 H 34.5992 1.5347 1.20137 0
M  V30 356 H 33.6952 1.51441 2.72896 0
M  V30 357 N 33.9963 -1.19345 1.0293 0
M  V30 358 C 34.9593 -2.20793 0.615069 0
M  V30 359 C 35.9593 -1.57553 -0.321533 0
M  V30 360 O 37.1493 -1.73862 -0.108483 0
M  V30 361 C 34.2813 -3.40754 -0.0999222 0
M  V30 362 H 35.4743 -2.58955 1.51269 0
M  V30 363 H 33.0273 -1.3303 0.820534 0
M  V30 364 H 33.7623 -3.0811 -1.01187 0
M  V30 365 H 33.5473 -3.87889 0.57309 0
M  V30 366 H 35.0373 -4.15898 -0.376645 0
M  V30 367 N 35.4744 -0.807222 -1.35358 0
M  V30 368 C 36.7044 -0.399796 -2.02695 0
M  V30 369 C 37.1124 0.994176 -1.60974 0
M  V30 370 O 36.4554 1.65209 -0.803226 0
M  V30 371 C 36.5174 -0.404445 -3.57218 0
M  V30 372 C 36.1814 -1.74904 -4.22206 0
M  V30 373 C 37.1784 -2.70743 -4.4384 0
M  V30 374 C 34.8634 -2.03322 -4.5931 0
M  V30 375 C 36.8574 -3.93183 -5.01683 0
M  V30 376 C 34.5444 -3.26026 -5.16866 0
M  V30 377 C 35.5424 -4.20774 -5.37994 0
M  V30 378 O 35.2304 -5.41312 -5.94337 0
M  V30 379 H 34.9624 -0.160517 -0.656666 0
M  V30 380 H 37.5164 -1.09235 -1.73945 0
M  V30 381 H 35.7464 0.344707 -3.85161 0
M  V30 382 H 37.4354 -0.0192429 -4.05895 0
M  V30 383 H 38.2014 -2.5008 -4.15554 0
M  V30 384 H 34.0804 -1.30384 -4.42178 0
M  V30 385 H 37.6244 -4.6715 -5.1809 0
M  V30 386 H 33.5214 -3.46559 -5.44579 0
M  V30 387 H 34.2894 -5.42618 -6.12787 0
M  V30 388 N 36.9525 1.47285 -0.560781 0
M  V30 389 C 37.8845 2.28118 0.222438 0
M  V30 390 C 38.8975 1.37219 0.876056 0
M  V30 391 O 40.0865 1.62011 0.749307 0
M  V30 392 C 37.1865 3.1159 1.33285 0
M  V30 393 C 36.3595 4.30473 0.77534 0
M  V30 394 C 35.4185 4.95513 1.77069 0
M  V30 395 O 34.4445 5.53792 1.31539 0
M  V30 396 N 35.6465 4.90531 3.10418 0
M  V30 397 H 38.4115 2.95976 -0.470958 0
M  V30 398 H 35.9725 1.56955 -0.39709 0
M  V30 399 H 37.9645 3.51967 1.99752 0
M  V30 400 H 36.5345 2.45951 1.92943 0
M  V30 401 H 35.7545 3.94144 -0.0662113 0
M  V30 402 H 37.0425 5.07362 0.382272 0
M  V30 403 H 36.4405 4.44389 3.5005 0
M  V30 404 H 34.9975 5.34917 3.72434 0
M  V30 405 N 38.4306 0.297415 1.54768 0
M  V30 406 C 39.3406 -0.58983 2.27064 0
M  V30 407 C 40.3566 -1.15144 1.30453 0
M  V30 408 O 41.5326 -1.17699 1.63428 0
M  V30 409 C 38.5976 -1.74714 2.9946 0
M  V30 410 C 37.6586 -1.21997 4.11601 0
M  V30 411 C 36.8916 -2.32212 4.80535 0
M  V30 412 O 37.1146 -3.52036 4.48806 0
M  V30 413 O 36.0486 -1.99106 5.68014 0
M  V30 414 H 39.8746 -0.00348199 3.037 0
M  V30 415 H 37.4596 0.0640035 1.49263 0
M  V30 416 H 39.3416 -2.42147 3.44881 0
M  V30 417 H 38.0166 -2.32016 2.25722 0
M  V30 418 H 36.9236 -0.511458 3.70587 0
M  V30 419 H 38.2566 -0.692419 4.87305 0
M  V30 420 N 39.9087 -1.5758 0.0250728 0
M  V30 421 C 41.1857 -1.82917 -0.692873 0
M  V30 422 C 41.5657 -0.908137 -1.90568 0
M  V30 423 O 40.9137 0.0372298 -2.2847 0
M  V30 424 C 41.1237 -3.32034 -1.07492 0
M  V30 425 C 42.4717 -3.98406 -1.46826 0
M  V30 426 O 43.4957 -3.36505 -1.16801 0
M  V30 427 O 42.3547 -5.07497 -2.02754 0
M  V30 428 H 39.4487 -0.754079 -0.33955 0
M  V30 429 H 41.9947 -1.69619 0.0524456 0
M  V30 430 H 40.7667 -3.90728 -0.211552 0
M  V30 431 H 40.3897 -3.50424 -1.87854 0
M  V30 432 N 41.3868 0.248026 -1.55636 0
M  V30 433 C 42.6348 0.974295 -1.77065 0
M  V30 434 C 42.9558 1.85897 -0.588849 0
M  V30 435 O 42.2258 1.91868 0.395407 0
M  V30 436 H 40.8058 0.362733 -0.653019 0
M  V30 437 H 43.4678 0.266244 -1.93073 0
M  V30 438 H 42.5638 1.59667 -2.68166 0
M  V30 439 N 42.8649 1.48995 0.513639 0
M  V30 440 C 44.2809 1.35478 0.843682 0
M  V30 441 C 44.4809 0.378213 1.97919 0
M  V30 442 O 43.5369 -0.194689 2.51748 0
M  V30 443 C 44.8499 2.75901 1.1958 0
M  V30 444 C 46.3979 2.84509 1.30474 0
M  V30 445 C 46.8729 4.25671 1.69021 0
M  V30 446 N 48.3639 4.28422 1.76094 0
M  V30 447 C 49.0989 5.34601 2.07338 0
M  V30 448 N 48.5949 6.5104 2.36894 0
M  V30 449 N 50.3879 5.22007 2.08483 0
M  V30 450 H 42.5389 2.11092 -0.235328 0
M  V30 451 H 44.8019 0.947039 -0.0426669 0
M  V30 452 H 44.5079 3.49001 0.434913 0
M  V30 453 H 44.3819 3.10467 2.1422 0
M  V30 454 H 46.7689 2.11655 2.05637 0
M  V30 455 H 46.8499 2.53542 0.339155 0
M  V30 456 H 46.4939 4.99048 0.944135 0
M  V30 457 H 46.4239 4.54094 2.66658 0
M  V30 458 H 48.9149 3.44441 1.55464 0
M  V30 459 H 49.2279 7.2779 2.59887 0
M  V30 460 H 47.5729 6.54287 2.34378 0
M  V30 461 H 50.7639 4.30051 1.84861 0
M  V30 462 H 50.9369 6.04854 2.325 0
M  V30 463 N 44.343 -0.763751 1.37857 0
M  V30 464 C 45.591 -1.51957 1.33243 0
M  V30 465 C 45.912 -1.94835 -0.0801709 0
M  V30 466 O 45.182 -1.66894 -1.02582 0
M  V30 467 H 43.762 -0.563626 0.49024 0
M  V30 468 H 46.424 -0.908504 1.7243 0
M  V30 469 H 45.52 -2.41523 1.97669 0
M  V30 470 N 45.8211 -1.22559 -0.990812 0
M  V30 471 C 46.7511 -1.0218 -2.09956 0
M  V30 472 C 47.7321 0.0579394 -1.70001 0
M  V30 473 O 48.9171 -0.104684 -1.93918 0
M  V30 474 C 46.0471 -0.601023 -3.4206 0
M  V30 475 C 45.0011 -1.62694 -3.95872 0
M  V30 476 C 44.3271 -1.06193 -5.24049 0
M  V30 477 C 45.6271 -3.01743 -4.2632 0
M  V30 478 H 47.3211 -1.94916 -2.27262 0
M  V30 479 H 44.8671 -0.938566 -1.09211 0
M  V30 480 H 46.8201 -0.445561 -4.19038 0
M  V30 481 H 45.5441 0.362005 -3.24588 0
M  V30 482 H 44.2031 -1.77021 -3.21028 0
M  V30 483 H 43.8511 -0.0901903 -5.02919 0
M  V30 484 H 43.5511 -1.74732 -5.61019 0
M  V30 485 H 45.0751 -0.918092 -6.03658 0
M  V30 486 H 46.4891 -2.90777 -4.94087 0
M  V30 487 H 44.8861 -3.67425 -4.74467 0
M  V30 488 H 45.9561 -3.51518 -3.34011 0
M  V30 489 N 47.2992 1.18797 -1.03562 0
M  V30 490 C 48.5242 1.9314 -0.755764 0
M  V30 491 C 48.9492 1.7537 0.68022 0
M  V30 492 O 48.3072 1.06046 1.47051 0
M  V30 493 C 48.3552 3.42747 -1.12058 0
M  V30 494 O 47.4592 4.11683 -0.243124 0
M  V30 495 H 46.8002 0.602724 -0.278604 0
M  V30 496 H 49.3302 1.50678 -1.3841 0
M  V30 497 H 49.3402 3.93437 -1.08035 0
M  V30 498 H 48.0152 3.55002 -2.16672 0
M  V30 499 H 46.5922 3.71323 -0.342539 0
M  V30 500 N 48.7773 0.814389 1.34928 0
M  V30 501 C 50.0263 0.394871 1.97797 0
M  V30 502 C 50.3393 -1.04555 1.65311 0
M  V30 503 O 51.5453 -1.56856 2.21604 0
M  V30 504 C 50.0013 0.655103 3.53888 0
M  V30 505 C 49.6093 2.10858 3.95276 0
M  V30 506 C 51.3533 0.301329 4.23429 0
M  V30 507 C 49.2603 2.31415 5.44244 0
M  V30 508 H 48.1903 0.143913 0.740139 0
M  V30 509 H 50.8413 0.999544 1.53888 0
M  V30 510 H 49.2233 -0.0196253 3.95995 0
M  V30 511 H 50.3973 2.82176 3.64298 0
M  V30 512 H 48.7123 2.42297 3.38646 0
M  V30 513 H 51.3093 0.432869 5.32945 0
M  V30 514 H 51.6523 -0.75331 4.09428 0
M  V30 515 H 52.1853 0.930288 3.86769 0
M  V30 516 H 48.9243 3.35353 5.63222 0
M  V30 517 H 48.4443 1.6463 5.76764 0
M  V30 518 H 50.1233 2.13352 6.10811 0
M  V30 519 N 50.2554 -1.46986 0.568584 0
M  V30 520 C 51.5014 -2.0332 0.0571487 0
M  V30 521 C 51.8564 -1.43384 -1.28291 0
M  V30 522 O 51.1494 -0.584304 -1.82473 0
M  V30 523 C 51.3434 -3.57306 -0.081836 0
M  V30 524 C 51.1724 -4.32174 1.24321 0
M  V30 525 C 49.9424 -4.71633 1.81358 0
M  V30 526 C 52.1404 -4.66598 2.16312 0
M  V30 527 N 50.1224 -5.31191 3.07748 0
M  V30 528 C 51.4934 -5.26578 3.27285 0
M  V30 529 C 53.5484 -4.48527 2.16166 0
M  V30 530 C 52.2514 -5.70395 4.38226 0
M  V30 531 C 54.2774 -4.93351 3.26127 0
M  V30 532 C 53.6394 -5.5339 4.3582 0
M  V30 533 H 49.7384 -0.77943 0.063351 0
M  V30 534 H 52.3224 -1.79323 0.758378 0
M  V30 535 H 50.4934 -3.81046 -0.752207 0
M  V30 536 H 52.2254 -4.00282 -0.59637 0
M  V30 537 H 48.9804 -4.53946 1.35019 0
M  V30 538 H 49.4044 -5.65505 3.72201 0
M  V30 539 H 54.0464 -4.01456 1.32638 0
M  V30 540 H 51.7644 -6.16452 5.22506 0
M  V30 541 H 55.3504 -4.81131 3.27115 0
M  V30 542 H 54.2304 -5.87441 5.19503 0
M  V30 543 N 51.7335 -0.305618 -1.54608 0
M  V30 544 C 53.0105 0.355652 -1.92339 0
M  V30 545 C 53.3905 1.71324 -1.23335 0
M  V30 546 O 52.7385 2.25473 -0.370702 0
M  V30 547 C 52.9485 0.46572 -3.45879 0
M  V30 548 C 54.2965 0.734426 -4.182 0
M  V30 549 O 55.3205 0.54935 -3.51938 0
M  V30 550 O 54.1795 1.09024 -5.35515 0
M  V30 551 H 51.2735 0.199666 -0.802535 0
M  V30 552 H 53.8195 -0.354017 -1.65966 0
M  V30 553 H 52.5915 -0.488461 -3.88239 0
M  V30 554 H 52.2145 1.22367 -3.78301 0
M  V30 555 N 53.2116 1.57565 -0.0334293 0
M  V30 556 C 54.4396 1.9628 0.654347 0
M  V30 557 C 54.8546 0.910138 1.65414 0
M  V30 558 O 54.2116 -0.107595 1.82183 0
M  V30 559 C 54.2626 3.35067 1.35693 0
M  V30 560 O 53.9836 4.36296 0.397191 0
M  V30 561 C 55.4846 3.88439 2.13613 0
M  V30 562 H 52.7046 0.646369 0.180132 0
M  V30 563 H 55.2486 2.04282 -0.0944721 0
M  V30 564 H 53.4036 3.2827 2.05712 0
M  V30 565 H 53.8176 5.1678 0.896597 0
M  V30 566 H 55.2916 4.8788 2.58219 0
M  V30 567 H 55.7686 3.22914 2.97696 0
M  V30 568 H 56.3746 3.98516 1.48543 0
M  V30 569 N 54.6897 -0.239769 1.55765 0
M  V30 570 C 55.9367 -0.966801 1.7793 0
M  V30 571 C 56.2647 -1.85046 0.599015 0
M  V30 572 O 55.5197 -1.91197 -0.417395 0
M  V30 573 C 55.8187 -1.852 3.05672 0
M  V30 574 C 55.4847 -1.1231 4.36689 0
M  V30 575 C 54.1467 -0.921689 4.72291 0
M  V30 576 C 56.4987 -0.607019 5.17653 0
M  V30 577 C 53.8267 -0.191996 5.86386 0
M  V30 578 C 56.1787 0.109241 6.32506 0
M  V30 579 C 54.8427 0.322073 6.66723 0
M  V30 580 H 54.1127 -0.353778 0.651093 0
M  V30 581 H 56.7597 -0.23634 1.90036 0
M  V30 582 H 55.0647 -2.64975 2.8861 0
M  V30 583 H 56.7617 -2.41635 3.20021 0
M  V30 584 H 53.3517 -1.29004 4.08725 0
M  V30 585 H 57.5357 -0.750153 4.90598 0
M  V30 586 H 52.7917 -0.0166949 6.11398 0
M  V30 587 H 56.9657 0.516737 6.9448 0
M  V30 588 H 54.5927 0.88944 7.54979 0
M  V30 589 N 56.1678 -1.49265 -0.50573 0
M  V30 590 C 57.1308 -1.65075 -1.59006 0
M  V30 591 C 58.1308 -0.522768 -1.52065 0
M  V30 592 O 59.3208 -0.789117 -1.55302 0
M  V30 593 C 56.4528 -1.64369 -2.98656 0
M  V30 594 H 57.6458 -2.61784 -1.46319 0
M  V30 595 H 55.1988 -1.38226 -0.729616 0
M  V30 596 H 55.9338 -0.692272 -3.16825 0
M  V30 597 H 55.7188 -2.46282 -3.05103 0
M  V30 598 H 57.2088 -1.78674 -3.77446 0
M  V30 599 N 57.6459 0.756429 -1.3826 0
M  V30 600 C 58.5959 1.86069 -1.31766 0
M  V30 601 C 59.5799 1.59621 -0.202483 0
M  V30 602 O 60.7719 1.7149 -0.438211 0
M  V30 603 C 57.9009 3.23742 -1.1422 0
M  V30 604 C 56.9869 3.56091 -2.30348 0
M  V30 605 N 57.3779 3.59517 -3.55783 0
M  V30 606 C 55.6759 3.86341 -2.22838 0
M  V30 607 C 56.3769 3.89052 -4.32451 0
M  V30 608 N 55.3529 4.05736 -3.61772 0
M  V30 609 H 59.1549 1.86992 -2.26741 0
M  V30 610 H 56.6689 0.953643 -1.31451 0
M  V30 611 H 58.6659 4.02761 -1.07652 0
M  V30 612 H 57.3259 3.24073 -0.201763 0
M  V30 613 H 58.3369 3.41347 -3.89491 0
M  V30 614 H 55.0139 3.94404 -1.36937 0
M  V30 615 H 56.4039 3.98349 -5.4108 0
M  V30 616 N 59.124 1.23083 0.984299 0
M  V30 617 C 60.352 1.08714 1.76037 0
M  V30 618 C 60.767 -0.361691 1.85303 0
M  V30 619 O 60.124 -1.25034 1.32939 0
M  V30 620 C 60.175 1.70206 3.18923 0
M  V30 621 O 59.896 3.09423 3.10144 0
M  V30 622 C 61.397 1.61227 4.12941 0
M  V30 623 H 58.617 0.380664 0.552572 0
M  V30 624 H 61.161 1.62853 1.23689 0
M  V30 625 H 59.316 1.20109 3.6831 0
M  V30 626 H 59.73 3.39188 4.00065 0
M  V30 627 H 61.204 2.08962 5.10919 0
M  V30 628 H 61.681 0.570375 4.35481 0
M  V30 629 H 62.287 2.10671 3.69456 0
M  V30 630 N 60.6021 -1.18246 1.0419 0
M  V30 631 C 62.0131 -1.69914 0.773698 0
M  V30 632 C 62.3641 -1.83085 -0.705297 0
M  V30 633 O 61.4891 -1.51123 -1.5489 0
M  V30 634 C 62.0841 -3.08619 1.39784 0
M  V30 635 C 60.6431 -3.57494 1.17792 0
M  V30 636 C 59.7901 -2.34013 1.48773 0
M  V30 637 H 62.7411 -1.02904 1.20816 0
M  V30 638 H 62.7621 -3.71958 0.801714 0
M  V30 639 H 62.2741 -2.99001 2.47426 0
M  V30 640 H 60.3751 -3.72406 0.120295 0
M  V30 641 H 60.4881 -4.40852 1.87581 0
M  V30 642 H 58.8521 -2.37986 0.907463 0
M  V30 643 H 59.6351 -2.27013 2.57527 0
M  V30 644 N 62.0802 -0.821533 -1.34494 0
M  V30 645 C 63.3282 -0.408139 -1.97936 0
M  V30 646 C 63.6492 1.03193 -1.65457 0
M  V30 647 O 62.9192 1.71622 -0.944595 0
M  V30 648 H 61.4992 -0.147928 -0.732206 0
M  V30 649 H 64.1612 -1.05067 -1.64155 0
M  V30 650 H 63.2572 -0.52601 -3.07635 0
M  V30 651 N 63.5583 1.46682 -0.576371 0
M  V30 652 C 64.5053 2.30241 0.160499 0
M  V30 653 C 65.4753 1.40233 0.890162 0
M  V30 654 O 66.6603 1.69186 0.882084 0
M  V30 655 C 63.8003 3.24578 1.1723 0
M  V30 656 C 62.9133 4.29684 0.446736 0
M  V30 657 C 62.0483 5.11154 1.44551 0
M  V30 658 C 61.0873 6.08015 0.70599 0
M  V30 659 N 60.2243 6.82376 1.65251 0
M  V30 660 H 65.0643 2.92727 -0.558127 0
M  V30 661 H 62.6013 1.44272 -0.287056 0
M  V30 662 H 64.5593 3.77711 1.77172 0
M  V30 663 H 63.1893 2.63916 1.85872 0
M  V30 664 H 62.2413 3.79458 -0.267594 0
M  V30 665 H 63.5533 4.98626 -0.131686 0
M  V30 666 H 62.7073 5.68533 2.11791 0
M  V30 667 H 61.4463 4.42158 2.05786 0
M  V30 668 H 60.4513 5.49796 0.0197725 0
M  V30 669 H 61.6763 6.79028 0.09912 0
M  V30 670 H 59.6223 6.16094 2.25308 0
M  V30 671 H 59.5393 7.47556 1.12673 0
M  V30 672 H 60.8073 7.44316 2.31546 0
M  V30 673 N 65.0364 0.313813 1.54444 0
M  V30 674 C 66.2824 -0.292108 2.00685 0
M  V30 675 C 66.6154 -1.52548 1.20177 0
M  V30 676 O 65.8904 -1.92452 0.281531 0
M  V30 677 C 66.1734 -0.635968 3.5444 0
M  V30 678 C 66.0264 0.607437 4.4568 0
M  V30 679 C 67.3454 -1.45747 4.15266 0
M  V30 680 H 64.4644 -0.104697 0.729526 0
M  V30 681 H 67.1064 0.428457 1.85106 0
M  V30 682 H 65.2564 -1.24986 3.67846 0
M  V30 683 H 66.9284 1.24581 4.44159 0
M  V30 684 H 65.1714 1.23822 4.15753 0
M  V30 685 H 65.8424 0.322515 5.51057 0
M  V30 686 H 68.3184 -0.938645 4.05375 0
M  V30 687 H 67.1944 -1.66683 5.2298 0
M  V30 688 H 67.4554 -2.45063 3.67963 0
M  V30 689 N 66.5145 -1.57545 0.0417849 0
M  V30 690 C 67.7615 -1.92317 -0.634082 0
M  V30 691 C 68.0895 -0.919334 -1.71402 0
M  V30 692 O 67.3445 0.0698253 -1.95575 0
M  V30 693 C 67.6435 -3.33794 -1.27735 0
M  V30 694 C 67.3095 -4.49716 -0.326543 0
M  V30 695 C 65.9715 -4.81156 -0.0648814 0
M  V30 696 C 68.3235 -5.20182 0.325623 0
M  V30 697 C 65.6515 -5.80414 0.856539 0
M  V30 698 C 68.0035 -6.20424 1.23518 0
M  V30 699 C 66.6675 -6.50298 1.5056 0
M  V30 700 H 65.9375 -0.703736 -0.232027 0
M  V30 701 H 68.5845 -1.91205 0.106259 0
M  V30 702 H 66.8895 -3.31228 -2.09274 0
M  V30 703 H 68.5865 -3.57975 -1.80707 0
M  V30 704 H 65.1765 -4.25176 -0.540665 0
M  V30 705 H 69.3605 -4.96112 0.136546 0
M  V30 706 H 64.6165 -6.019 1.07363 0
M  V30 707 H 68.7905 -6.74141 1.74664 0
M  V30 708 H 66.4175 -7.27025 2.22123 0
M  V30 709 N 67.9926 0.231505 -1.5589 0
M  V30 710 C 68.9406 1.30649 -1.92441 0
M  V30 711 C 69.9346 1.49037 -0.805254 0
M  V30 712 O 71.1406 1.50329 -0.990007 0
M  V30 713 H 67.5156 0.437812 -0.611412 0
M  V30 714 H 69.4866 0.970973 -2.82161 0
M  V30 715 C 68.2356 2.65179 -2.24889 0
M  V30 716 H 67.5586 2.51835 -3.10514 0
M  V30 717 H 68.9986 3.39234 -2.54355 0
M  V30 718 C 67.4576 3.19439 -1.07054 0
M  V30 719 O 67.9876 4.00371 -0.326499 0
M  V30 720 N 66.1936 2.77675 -0.85703 0
M  V30 721 H 65.7406 2.11969 -1.46379 0
M  V30 722 H 65.6986 3.14321 -0.0703223 0
M  V30 723 N 69.4707 1.49531 0.497807 0
M  V30 724 C 70.7187 1.58865 1.24926 0
M  V30 725 C 71.0397 0.278721 1.92998 0
M  V30 726 O 70.3097 -0.702144 1.82885 0
M  V30 727 H 68.8897 0.585343 0.464094 0
M  V30 728 H 71.5517 1.86174 0.57666 0
M  V30 729 H 70.6477 2.38633 2.01149 0
M  V30 730 N 70.9488 -0.749086 1.3866 0
M  V30 731 C 72.2258 -1.4992 1.25632 0
M  V30 732 C 72.6058 -2.10633 -0.140317 0
M  V30 733 O 71.9538 -1.97437 -1.15025 0
M  V30 734 C 72.1638 -2.56195 2.36992 0
M  V30 735 C 73.5118 -3.22972 2.75634 0
M  V30 736 O 74.5358 -2.66502 2.36337 0
M  V30 737 O 73.3948 -4.25122 3.43415 0
M  V30 738 H 70.4888 -0.665067 0.491544 0
M  V30 739 H 73.0348 -0.784113 1.50498 0
M  V30 740 H 71.8068 -2.09612 3.30422 0
M  V30 741 H 71.4298 -3.35279 2.13714 0
M  V30 742 N 72.4269 -1.23603 -0.977757 0
M  V30 743 C 73.3749 -1.01704 -2.09187 0
M  V30 744 C 74.3689 0.0448214 -1.69341 0
M  V30 745 O 75.5749 -0.108902 -1.7967 0
M  V30 746 H 71.9499 -0.311803 -0.684312 0
M  V30 747 H 73.9209 -1.96207 -2.24823 0
M  V30 748 C 72.6699 -0.627746 -3.41986 0
M  V30 749 H 71.9929 -1.43656 -3.73099 0
M  V30 750 H 73.4329 -0.514053 -4.20872 0
M  V30 751 C 71.8919 0.664238 -3.30287 0
M  V30 752 O 72.4219 1.71268 -3.6336 0
M  V30 753 N 70.6279 0.641156 -2.83439 0
M  V30 754 H 70.1749 -0.212376 -2.56723 0
M  V30 755 H 70.1329 1.50583 -2.75993 0
M  V30 756 N 73.905 1.17692 -1.04816 0
M  V30 757 C 75.153 1.87488 -0.754497 0
M  V30 758 C 75.474 1.81205 0.720407 0
M  V30 759 O 74.744 1.23544 1.52032 0
M  V30 760 H 73.324 0.694101 -0.276102 0
M  V30 761 H 75.986 1.42793 -1.32651 0
M  V30 762 H 75.082 2.93328 -1.06606 0
M  V30 763 N 75.3831 0.828654 1.34056 0
M  V30 764 C 76.3311 0.242973 2.31327 0
M  V30 765 C 77.3251 -0.61944 1.57668 0
M  V30 766 O 78.5311 -0.51014 1.7262 0
M  V30 767 H 74.9061 0.059834 0.749616 0
M  V30 768 H 76.8771 1.07809 2.78244 0
M  V30 769 C 75.6261 -0.575733 3.429 0
M  V30 770 H 74.9491 0.0785582 3.99723 0
M  V30 771 H 76.3891 -0.951547 4.13185 0
M  V30 772 C 74.8481 -1.75044 2.87856 0
M  V30 773 O 75.3781 -2.84882 2.83205 0
M  V30 774 N 73.5841 -1.56903 2.44602 0
M  V30 775 H 73.1311 -0.675547 2.48584 0
M  V30 776 H 73.0891 -2.35652 2.08124 0
M  V30 777 N 76.8612 -1.46375 0.584142 0
M  V30 778 C 78.1072 -2.02678 0.0703716 0
M  V30 779 C 78.4402 -1.4545 -1.28678 0
M  V30 780 O 77.7152 -0.62014 -1.84349 0
M  V30 781 C 77.9982 -3.60099 0.00614674 0
M  V30 782 C 77.8512 -4.27709 1.3923 0
M  V30 783 C 79.1702 -4.34598 -0.693742 0
M  V30 784 H 76.2892 -0.736504 0.027047 0
M  V30 785 H 78.9312 -1.74501 0.751615 0
M  V30 786 H 77.0812 -3.84236 -0.574009 0
M  V30 787 H 78.7532 -4.14832 2.01773 0
M  V30 788 H 76.9962 -3.87016 1.95962 0
M  V30 789 H 77.6672 -5.36478 1.29982 0
M  V30 790 H 80.1432 -4.15615 -0.200869 0
M  V30 791 H 79.0192 -5.44318 -0.707714 0
M  V30 792 H 79.2802 -4.05759 -1.75533 0
M  V30 793 N 78.3393 -0.321999 -1.54275 0
M  V30 794 C 79.3023 0.531975 -2.22941 0
M  V30 795 C 80.3023 1.04478 -1.22234 0
M  V30 796 O 81.4923 0.937452 -1.46825 0
M  V30 797 C 78.6243 1.73874 -2.93224 0
M  V30 798 H 79.8173 -0.0682612 -2.99822 0
M  V30 799 H 77.3703 -0.0730644 -1.56129 0
M  V30 800 H 78.1053 2.37825 -2.20476 0
M  V30 801 H 77.8903 1.37847 -3.6707 0
M  V30 802 H 79.3803 2.34496 -3.45545 0
M  V30 803 N 79.8174 1.5752 -0.0501392 0
M  V30 804 C 81.0574 1.94521 0.627783 0
M  V30 805 C 81.4214 0.928265 1.68069 0
M  V30 806 O 82.6224 1.18517 2.41261 0
M  V30 807 C 80.8934 3.36319 1.20932 0
M  V30 808 S 82.4524 3.95272 1.90539 0
M  V30 809 H 79.2704 0.680456 0.206158 0
M  V30 810 H 81.8724 1.95139 -0.118829 0
M  V30 811 H 80.5764 4.08132 0.430865 0
M  V30 812 H 80.1074 3.39193 1.99277 0
M  V30 813 H 82.1224 3.80415 3.18589 0
M  V30 814 N 81.2955 -0.223234 1.56011 0
M  V30 815 C 82.5725 -0.972108 1.69733 0
M  V30 816 C 82.9525 -2.02485 0.59691 0
M  V30 817 O 82.3005 -2.25037 -0.396324 0
M  V30 818 C 82.5105 -1.58407 3.10979 0
M  V30 819 C 83.8585 -2.07696 3.70334 0
M  V30 820 O 84.8825 -1.68304 3.1393 0
M  V30 821 O 83.7415 -2.80096 4.69264 0
M  V30 822 H 80.8355 -0.453993 0.691245 0
M  V30 823 H 83.3815 -0.215149 1.68331 0
M  V30 824 H 82.1535 -0.823831 3.82529 0
M  V30 825 H 81.7765 -2.40661 3.16493 0
M  V30 826 N 82.7736 -1.49793 -0.48987 0
M  V30 827 C 83.9986 -1.63836 -1.27172 0
M  V30 828 C 84.4236 -0.31402 -1.8546 0
M  V30 829 O 83.7816 0.719803 -1.66399 0
M  V30 830 C 83.8296 -2.71797 -2.36978 0
M  V30 831 O 82.9336 -2.31744 -3.41128 0
M  V30 832 H 82.2746 -0.547997 -0.37496 0
M  V30 833 H 84.8046 -1.96053 -0.585191 0
M  V30 834 H 84.8146 -2.94305 -2.82575 0
M  V30 835 H 83.4896 -3.67923 -1.93921 0
M  V30 836 H 82.0666 -2.1961 -3.01373 0
M  V30 837 N 84.2517 0.741722 -1.39055 0
M  V30 838 C 85.4817 1.52876 -1.3897 0
M  V30 839 C 85.8897 1.8919 0.0193266 0
M  V30 840 O 85.2327 1.54138 0.999356 0
M  V30 841 C 85.2947 2.84929 -2.19216 0
M  V30 842 C 84.9587 2.71086 -3.67915 0
M  V30 843 C 85.9557 2.40084 -4.61146 0
M  V30 844 C 83.6407 2.88168 -4.11418 0
M  V30 845 C 85.6347 2.26335 -5.95862 0
M  V30 846 C 83.3217 2.74037 -5.46211 0
M  V30 847 C 84.3197 2.43166 -6.38247 0
M  V30 848 O 84.0077 2.29115 -7.70559 0
M  V30 849 H 83.7397 0.479252 -0.476753 0
M  V30 850 H 86.2937 0.924751 -1.83405 0
M  V30 851 H 84.5237 3.47564 -1.69518 0
M  V30 852 H 86.2127 3.46509 -2.11392 0
M  V30 853 H 86.9787 2.26545 -4.28838 0
M  V30 854 H 82.8577 3.11191 -3.40119 0
M  V30 855 H 86.4017 2.0216 -6.67665 0
M  V30 856 H 82.2987 2.87153 -5.78112 0
M  V30 857 H 83.0667 2.44237 -7.81211 0
M  V30 858 N 85.7298 1.2412 0.971189 0
M  V30 859 C 86.6798 0.997551 2.05019 0
M  V30 860 C 87.6638 -0.0597747 1.60789 0
M  V30 861 O 88.8558 0.153516 1.76333 0
M  V30 862 C 85.9848 0.600557 3.38006 0
M  V30 863 C 85.0708 1.69377 3.88809 0
M  V30 864 N 85.4618 2.92586 4.12586 0
M  V30 865 C 83.7598 1.57048 4.17435 0
M  V30 866 C 84.4608 3.63431 4.54195 0
M  V30 867 N 83.4368 2.90979 4.59165 0
M  V30 868 H 87.2388 1.93316 2.21374 0
M  V30 869 H 84.7528 1.14194 1.1547 0
M  V30 870 H 86.7498 0.40725 4.14906 0
M  V30 871 H 85.4098 -0.327903 3.2304 0
M  V30 872 H 86.4208 3.288 4.00139 0
M  V30 873 H 83.0978 0.709798 4.11422 0
M  V30 874 H 84.4878 4.69102 4.81033 0
M  V30 875 N 87.2079 -1.17134 1.05439 0
M  V30 876 C 88.6239 -1.39454 0.776201 0
M  V30 877 C 88.8239 -1.91454 -0.628307 0
M  V30 878 O 87.8799 -2.10777 -1.39031 0
M  V30 879 C 89.1929 -2.38305 1.83388 0
M  V30 880 C 90.7409 -2.52006 1.85639 0
M  V30 881 C 91.2159 -3.54133 2.90437 0
M  V30 882 N 92.7069 -3.61653 2.89415 0
M  V30 883 C 93.4419 -4.4044 3.67152 0
M  V30 884 N 92.9379 -5.22721 4.54681 0
M  V30 885 N 94.7309 -4.35337 3.55581 0
M  V30 886 H 86.8819 -0.817134 1.96053 0
M  V30 887 H 89.1449 -0.421626 0.849079 0
M  V30 888 H 88.8509 -2.07173 2.84204 0
M  V30 889 H 88.7249 -3.37841 1.67761 0
M  V30 890 H 91.1119 -2.82447 0.85486 0
M  V30 891 H 91.1929 -1.52537 2.05344 0
M  V30 892 H 90.8369 -3.24431 3.90777 0
M  V30 893 H 90.7669 -4.53313 2.67983 0
M  V30 894 H 93.2579 -3.02909 2.25952 0
M  V30 895 H 93.5709 -5.80027 5.10674 0
M  V30 896 H 91.9159 -5.22093 4.58741 0
M  V30 897 H 95.1069 -3.70112 2.86592 0
M  V30 898 H 95.2799 -4.96494 4.1641 0
M  V30 899 N 88.686 -0.835752 -1.33615 0
M  V30 900 C 89.916 -0.442701 -2.01801 0
M  V30 901 C 90.324 0.959807 -1.63047 0
M  V30 902 O 89.667 1.63468 -0.838088 0
M  V30 903 C 89.729 -0.480125 -3.56279 0
M  V30 904 C 89.393 -1.8382 -4.18401 0
M  V30 905 C 90.39 -2.80097 -4.37998 0
M  V30 906 C 88.075 -2.13019 -4.54894 0
M  V30 907 C 90.069 -4.03736 -4.9323 0
M  V30 908 C 87.756 -3.36916 -5.09834 0
M  V30 909 C 88.754 -4.32091 -5.28948 0
M  V30 910 O 88.442 -5.53797 -5.82721 0
M  V30 911 H 88.174 -0.17441 -0.653114 0
M  V30 912 H 90.728 -1.129 -1.71589 0
M  V30 913 H 88.958 0.262931 -3.85805 0
M  V30 914 H 90.647 -0.105335 -4.05763 0
M  V30 915 H 91.413 -2.58838 -4.10156 0
M  V30 916 H 87.292 -1.39733 -4.39313 0
M  V30 917 H 90.836 -4.78034 -5.08064 0
M  V30 918 H 86.733 -3.58033 -5.37106 0
M  V30 919 H 87.501 -5.55494 -6.0114 0
M  V30 920 N 90.1641 1.46063 -0.591896 0
M  V30 921 C 91.0741 2.34192 0.13831 0
M  V30 922 C 92.0901 1.50305 0.876608 0
M  V30 923 O 93.2661 1.8315 0.837728 0
M  V30 924 C 90.3311 3.27656 1.13326 0
M  V30 925 C 89.3921 4.27445 0.39863 0
M  V30 926 C 88.6251 5.16443 1.34618 0
M  V30 927 O 88.8481 5.08553 2.58321 0
M  V30 928 O 87.7821 5.95843 0.851768 0
M  V30 929 H 91.6081 2.98002 -0.58552 0
M  V30 930 H 89.1931 1.45188 -0.352239 0
M  V30 931 H 91.0751 3.85291 1.70671 0
M  V30 932 H 89.7501 2.6643 1.83839 0
M  V30 933 H 88.6571 3.73471 -0.216895 0
M  V30 934 H 89.9901 4.91482 -0.265709 0
M  V30 935 N 91.6422 0.330177 1.54103 0
M  V30 936 C 92.5522 -0.541534 2.28264 0
M  V30 937 C 93.5682 -1.12351 1.32866 0
M  V30 938 O 94.7442 -1.14206 1.65888 0
M  V30 939 C 91.8092 -1.68322 3.03098 0
M  V30 940 C 90.8702 -1.13238 4.14096 0
M  V30 941 C 90.1032 -2.21966 4.85352 0
M  V30 942 O 90.3262 -3.42437 4.56172 0
M  V30 943 O 89.2602 -1.87013 5.7211 0
M  V30 944 H 93.0862 0.060938 3.03639 0
M  V30 945 H 90.6712 0.09565 1.49093 0
M  V30 946 H 92.5532 -2.34777 3.49939 0
M  V30 947 H 91.2282 -2.27176 2.30593 0
M  V30 948 H 90.1352 -0.432736 3.71589 0
M  V30 949 H 91.4682 -0.588898 4.88664 0
M  V30 950 N 93.1203 -1.57491 0.0584922 0
M  V30 951 C 94.3973 -1.84346 -0.653918 0
M  V30 952 C 94.7773 -0.948355 -1.88599 0
M  V30 953 O 94.1253 -0.0112403 -2.28497 0
M  V30 954 C 94.3353 -3.34239 -1.00425 0
M  V30 955 C 95.6833 -4.01431 -1.38342 0
M  V30 956 O 96.7073 -3.38907 -1.09637 0
M  V30 957 O 95.5663 -5.11683 -1.91943 0
M  V30 958 H 92.6603 -0.761112 -0.323478 0
M  V30 959 H 95.2063 -1.6947 0.0884125 0
M  V30 960 H 93.9783 -3.91089 -0.128625 0
M  V30 961 H 93.6013 -3.54329 -1.80378 0
M  V30 962 N 94.5984 0.214957 -1.56127 0
M  V30 963 C 95.8474 0.936451 -1.78643 0
M  V30 964 C 96.1604 1.85237 -0.628229 0
M  V30 965 O 97.3664 2.613 -0.737186 0
M  V30 966 C 95.8224 1.7154 -3.16389 0
M  V30 967 C 95.4304 0.845299 -4.39953 0
M  V30 968 C 97.1744 2.42772 -3.48227 0
M  V30 969 C 95.0814 1.62198 -5.68723 0
M  V30 970 H 94.0114 0.353401 -0.666051 0
M  V30 971 H 96.6624 0.190169 -1.82512 0
M  V30 972 H 95.0444 2.50484 -3.06715 0
M  V30 973 H 96.2184 0.0959353 -4.607 0
M  V30 974 H 94.5334 0.244789 -4.1568 0
M  V30 975 H 97.1304 3.01394 -4.41663 0
M  V30 976 H 97.4734 3.15984 -2.71035 0
M  V30 977 H 98.0064 1.70813 -3.5926 0
M  V30 978 H 94.7454 0.933011 -6.48826 0
M  V30 979 H 94.2654 2.34579 -5.52026 0
M  V30 980 H 95.9444 2.18095 -6.09133 0
M  V30 981 N 96.0765 1.50051 0.48192 0
M  V30 982 C 97.4925 1.37237 0.814756 0
M  V30 983 C 97.6925 0.420109 1.97072 0
M  V30 984 O 96.7485 -0.141246 2.52105 0
M  V30 985 C 98.0615 2.78375 1.13701 0
M  V30 986 C 99.6095 2.87213 1.2441 0
M  V30 987 C 100.084 4.29161 1.59954 0
M  V30 988 N 101.575 4.32061 1.66967 0
M  V30 989 C 102.31 5.38879 1.95952 0
M  V30 990 N 101.806 6.55918 2.23031 0
M  V30 991 N 103.599 5.26312 1.97363 0
M  V30 992 H 95.7505 2.10546 -0.28005 0
M  V30 993 H 98.0135 0.945921 -0.0627454 0
M  V30 994 H 97.7195 3.49845 0.360787 0
M  V30 995 H 97.5935 3.14941 2.07586 0
M  V30 996 H 99.9805 2.15969 2.01101 0
M  V30 997 H 100.061 2.54204 0.285299 0
M  V30 998 H 99.7055 5.00938 0.838067 0
M  V30 999 H 99.6355 4.59648 2.56966 0
M  V30 1000 H 102.126 3.47661 1.48123 0
M  V30 1001 H 102.439 7.33139 2.44391 0
M  V30 1002 H 100.784 6.59112 2.20447 0
M  V30 1003 H 103.975 4.33876 1.75697 0
M  V30 1004 H 104.148 6.09649 2.19618 0
M  V30 1005 N 97.5546 -0.734337 1.39446 0
M  V30 1006 C 98.4846 -1.86155 1.40955 0
M  V30 1007 C 99.4656 -1.67898 0.272827 0
M  V30 1008 O 100.651 -1.88207 0.478743 0
M  V30 1009 C 97.7806 -3.23912 1.25294 0
M  V30 1010 C 96.7346 -3.56808 2.36373 0
M  V30 1011 C 96.0606 -4.93508 2.058 0
M  V30 1012 C 97.3606 -3.59713 3.78687 0
M  V30 1013 H 99.0546 -1.8515 2.35287 0
M  V30 1014 H 96.6006 -0.889367 1.13253 0
M  V30 1015 H 98.5536 -4.02443 1.2497 0
M  V30 1016 H 97.2776 -3.25446 0.274308 0
M  V30 1017 H 95.9366 -2.80606 2.35914 0
M  V30 1018 H 95.5846 -4.91623 1.06374 0
M  V30 1019 H 95.2846 -5.16486 2.80208 0
M  V30 1020 H 96.8086 -5.74396 2.07128 0
M  V30 1021 H 98.2226 -4.2832 3.81071 0
M  V30 1022 H 96.6196 -3.94209 4.52459 0
M  V30 1023 H 97.6896 -2.59504 4.09617 0
M  V30 1024 N 99.0327 -1.24633 -0.964593 0
M  V30 1025 C 99.9657 -0.984662 -2.05863 0
M  V30 1026 C 100.944 0.0826554 -1.6239 0
M  V30 1027 O 102.128 -0.0549296 -1.8842 0
M  V30 1028 C 99.2547 -0.486529 -3.35187 0
M  V30 1029 C 98.3007 -1.54286 -3.97615 0
M  V30 1030 S 99.1337 -3.12513 -4.34851 0
M  V30 1031 C 100.29 -2.6441 -5.67308 0
M  V30 1032 H 100.523 -1.91104 -2.27743 0
M  V30 1033 H 98.0557 -1.08052 -1.10291 0
M  V30 1034 H 100.014 -0.205757 -4.09984 0
M  V30 1035 H 98.6747 0.419186 -3.1129 0
M  V30 1036 H 97.8677 -1.14481 -4.90826 0
M  V30 1037 H 97.4697 -1.7738 -3.2926 0
M  V30 1038 H 99.7617 -2.07416 -6.44969 0
M  V30 1039 H 100.705 -3.56222 -6.11973 0
M  V30 1040 H 101.113 -2.04734 -5.26065 0
M  V30 1041 N 100.511 1.16574 -1.06058 0
M  V30 1042 C 101.458 2.20883 -0.669263 0
M  V30 1043 C 102.428 1.62729 0.332918 0
M  V30 1044 O 103.613 1.895 0.222346 0
M  V30 1045 C 100.753 3.45049 -0.0593572 0
M  V30 1046 C 99.8658 4.17458 -1.11143 0
M  V30 1047 C 99.0008 5.29135 -0.467916 0
M  V30 1048 C 98.0398 5.93343 -1.50369 0
M  V30 1049 N 97.1768 6.96516 -0.883706 0
M  V30 1050 H 102.017 2.53709 -1.5632 0
M  V30 1051 H 99.5538 1.24616 -0.781625 0
M  V30 1052 H 101.512 4.16033 0.311771 0
M  V30 1053 H 100.142 3.12781 0.797992 0
M  V30 1054 H 99.1938 3.45101 -1.60029 0
M  V30 1055 H 100.506 4.61307 -1.89731 0
M  V30 1056 H 99.6598 6.06684 -0.0436871 0
M  V30 1057 H 98.3988 4.86443 0.349864 0
M  V30 1058 H 97.4038 5.14517 -1.93784 0
M  V30 1059 H 98.6288 6.38114 -2.32352 0
M  V30 1060 H 96.5748 6.55943 -0.086595 0
M  V30 1061 H 96.4918 7.38723 -1.607 0
M  V30 1062 H 97.7598 7.77993 -0.484543 0
M  V30 1063 N 101.989 0.842826 1.3317 0
M  V30 1064 C 102.899 0.281444 2.32906 0
M  V30 1065 C 103.915 -0.594587 1.63526 0
M  V30 1066 O 105.091 -0.49777 1.95152 0
M  V30 1067 C 102.156 -0.530929 3.42611 0
M  V30 1068 C 101.217 0.369843 4.27704 0
M  V30 1069 C 100.45 -0.403853 5.3217 0
M  V30 1070 O 100.673 -1.63513 5.46461 0
M  V30 1071 O 99.6069 0.224199 6.01482 0
M  V30 1072 H 103.433 1.10744 2.82789 0
M  V30 1073 H 101.018 0.60545 1.36582 0
M  V30 1074 H 102.9 -0.992437 4.09547 0
M  V30 1075 H 101.575 -1.33392 2.94938 0
M  V30 1076 H 100.482 0.879275 3.6362 0
M  V30 1077 H 101.815 1.13771 4.78871 0
M  V30 1078 N 103.467 -1.45747 0.599634 0
M  V30 1079 C 104.397 -2.33235 -0.111306 0
M  V30 1080 C 105.378 -1.46359 -0.866781 0
M  V30 1081 O 106.563 -1.75146 -0.838904 0
M  V30 1082 C 103.693 -3.28932 -1.11451 0
M  V30 1083 C 102.647 -4.25381 -0.472772 0
M  V30 1084 C 101.973 -5.1071 -1.58365 0
M  V30 1085 C 103.273 -5.18831 0.600948 0
M  V30 1086 H 104.967 -2.92927 0.61919 0
M  V30 1087 H 102.513 -1.40857 0.299215 0
M  V30 1088 H 104.466 -3.89002 -1.62036 0
M  V30 1089 H 103.19 -2.67381 -1.8755 0
M  V30 1090 H 101.849 -3.66598 0.0121472 0
M  V30 1091 H 101.497 -4.45533 -2.33473 0
M  V30 1092 H 101.197 -5.7604 -1.15982 0
M  V30 1093 H 102.721 -5.73647 -2.09194 0
M  V30 1094 H 104.135 -5.73019 0.179491 0
M  V30 1095 H 102.532 -5.92595 0.946076 0
M  V30 1096 H 103.602 -4.6174 1.48068 0
M  V30 1097 N 104.945 -0.338344 -1.53925 0
M  V30 1098 C 106.193 0.259245 -2.0043 0
M  V30 1099 C 106.514 1.51484 -1.22791 0
M  V30 1100 O 105.784 1.93037 -0.33368 0
M  V30 1101 H 104.364 0.0987845 -0.740439 0
M  V30 1102 H 107.026 -0.458302 -1.89435 0
M  V30 1103 H 106.122 0.505334 -3.07982 0
M  V30 1104 N 106.423 1.57458 -0.0668435 0
M  V30 1105 C 107.672 1.92477 0.602947 0
M  V30 1106 C 107.985 0.948419 1.71068 0
M  V30 1107 O 109.191 1.19124 2.43971 0
M  V30 1108 C 107.647 3.41903 1.12383 0
M  V30 1109 C 107.255 4.47975 0.04737 0
M  V30 1110 C 108.999 3.85931 1.76797 0
M  V30 1111 C 106.906 5.88529 0.582022 0
M  V30 1112 H 105.836 0.718387 0.22899 0
M  V30 1113 H 108.487 1.82978 -0.138276 0
M  V30 1114 H 106.869 3.46459 1.91787 0
M  V30 1115 H 108.043 4.55029 -0.726978 0
M  V30 1116 H 106.358 4.13384 -0.500243 0
M  V30 1117 H 108.955 4.88322 2.17821 0
M  V30 1118 H 109.298 3.23029 2.62599 0
M  V30 1119 H 109.831 3.83958 1.04024 0
M  V30 1120 H 106.57 6.55065 -0.238721 0
M  V30 1121 H 106.09 5.85004 1.324 0
M  V30 1122 H 107.769 6.38258 1.05999 0
M  V30 1123 N 107.901 -0.206675 1.56239 0
M  V30 1124 C 109.317 -0.557025 1.49564 0
M  V30 1125 C 109.517 -1.86424 0.764735 0
M  V30 1126 O 108.573 -2.50584 0.310491 0
M  V30 1127 C 109.886 -0.622478 2.94186 0
M  V30 1128 C 111.434 -0.712099 3.04792 0
M  V30 1129 C 111.909 -0.808767 4.50803 0
M  V30 1130 N 113.4 -0.8726 4.54907 0
M  V30 1131 C 114.135 -0.967365 5.65181 0
M  V30 1132 N 113.631 -1.02515 6.85173 0
M  V30 1133 N 115.424 -1.00366 5.53067 0
M  V30 1134 H 107.575 0.650943 2.02179 0
M  V30 1135 H 109.838 0.230387 0.919579 0
M  V30 1136 H 109.544 0.268727 3.50672 0
M  V30 1137 H 109.418 -1.4811 3.46905 0
M  V30 1138 H 111.805 -1.59374 2.48363 0
M  V30 1139 H 111.886 0.172489 2.55218 0
M  V30 1140 H 111.53 0.0684754 5.07854 0
M  V30 1141 H 111.46 -1.70899 4.98098 0
M  V30 1142 H 113.951 -0.837657 3.68499 0
M  V30 1143 H 114.264 -1.09765 7.64965 0
M  V30 1144 H 112.609 -0.994026 6.87855 0
M  V30 1145 H 115.8 -0.95527 4.58249 0
M  V30 1146 H 115.973 -1.07405 6.39037 0
M  V30 1147 N 109.379 -1.50304 -0.473955 0
M  V30 1148 C 110.607 -1.64902 -1.24959 0
M  V30 1149 C 111.022 -0.331198 -1.85872 0
M  V30 1150 O 110.379 0.68652 -1.69095 0
M  V30 1151 C 110.43 -2.73803 -2.36038 0
M  V30 1152 O 110.151 -4.00477 -1.77624 0
M  V30 1153 C 111.652 -2.99349 -3.26964 0
M  V30 1154 H 108.872 -0.554383 -0.378022 0
M  V30 1155 H 111.416 -1.9651 -0.566054 0
M  V30 1156 H 109.571 -2.44898 -3.00173 0
M  V30 1157 H 109.985 -4.60678 -2.5075 0
M  V30 1158 H 111.459 -3.79217 -4.01121 0
M  V30 1159 H 111.936 -2.10307 -3.85574 0
M  V30 1160 H 112.542 -3.29774 -2.68569 0
M  V30 1161 N 110.857 0.726932 -1.39834 0
M  V30 1162 C 112.087 1.51393 -1.40583 0
M  V30 1163 C 112.495 1.892 -0.000740625 0
M  V30 1164 O 111.838 1.55189 0.982951 0
M  V30 1165 C 111.9 2.82588 -2.22226 0
M  V30 1166 C 111.564 2.67169 -3.70769 0
M  V30 1167 C 112.561 2.3518 -4.63666 0
M  V30 1168 C 110.246 2.83788 -4.14451 0
M  V30 1169 C 112.24 2.20002 -5.98229 0
M  V30 1170 C 109.927 2.68229 -5.49087 0
M  V30 1171 C 110.925 2.36382 -6.4079 0
M  V30 1172 O 110.613 2.2093 -7.72946 0
M  V30 1173 H 110.345 0.474168 -0.48181 0
M  V30 1174 H 112.899 0.905247 -1.84376 0
M  V30 1175 H 111.129 3.45746 -1.73195 0
M  V30 1176 H 112.818 3.44247 -2.15055 0
M  V30 1177 H 113.584 2.21984 -4.31217 0
M  V30 1178 H 109.463 3.07566 -3.43401 0
M  V30 1179 H 113.007 1.95067 -6.69772 0
M  V30 1180 H 108.904 2.81006 -5.81125 0
M  V30 1181 H 109.672 2.35937 -7.83757 0
M  V30 1182 N 112.336 1.25143 0.95797 0
M  V30 1183 C 113.752 1.01892 1.22842 0
M  V30 1184 C 113.952 -0.266311 1.99732 0
M  V30 1185 O 113.008 -0.979913 2.3271 0
M  V30 1186 C 114.321 2.24004 2.00606 0
M  V30 1187 C 115.869 2.28731 2.13662 0
M  V30 1188 C 116.344 3.5049 2.94823 0
M  V30 1189 N 117.835 3.50866 3.02403 0
M  V30 1190 C 118.57 4.4174 3.65586 0
M  V30 1191 N 118.066 5.42882 4.30408 0
M  V30 1192 N 119.859 4.29429 3.62694 0
M  V30 1193 H 112.01 2.07718 0.443493 0
M  V30 1194 H 114.273 0.912031 0.258657 0
M  V30 1195 H 113.979 3.17395 1.51503 0
M  V30 1196 H 113.853 2.26907 3.01319 0
M  V30 1197 H 116.24 1.35865 2.61963 0
M  V30 1198 H 116.321 2.29848 1.12265 0
M  V30 1199 H 115.965 4.43676 2.47213 0
M  V30 1200 H 115.895 3.46617 3.96439 0
M  V30 1201 H 118.386 2.777 2.56302 0
M  V30 1202 H 118.699 6.0844 4.76467 0
M  V30 1203 H 117.044 5.46758 4.29047 0
M  V30 1204 H 120.235 3.49643 3.11236 0
M  V30 1205 H 120.408 5.00448 4.1165 0
M  V30 1206 N 113.814 -1.1601 1.06675 0
M  V30 1207 C 115.061 -1.86633 0.785781 0
M  V30 1208 C 115.389 -1.81929 -0.687896 0
M  V30 1209 O 114.644 -1.23253 -1.52011 0
M  V30 1210 C 114.943 -3.35547 1.23057 0
M  V30 1211 C 114.609 -3.60448 2.70902 0
M  V30 1212 C 113.271 -3.66954 3.11285 0
M  V30 1213 C 115.623 -3.7071 3.66365 0
M  V30 1214 C 112.951 -3.81225 4.45965 0
M  V30 1215 C 115.303 -3.86503 5.00797 0
M  V30 1216 C 113.967 -3.91252 5.40813 0
M  V30 1217 H 113.237 -0.682937 0.287538 0
M  V30 1218 H 115.884 -1.37146 1.33654 0
M  V30 1219 H 114.189 -3.87193 0.59907 0
M  V30 1220 H 115.886 -3.88583 0.990163 0
M  V30 1221 H 112.476 -3.56021 2.38636 0
M  V30 1222 H 116.66 -3.64991 3.36296 0
M  V30 1223 H 111.916 -3.83155 4.76447 0
M  V30 1224 H 116.09 -3.93385 5.74649 0
M  V30 1225 H 113.717 -4.02062 6.45174 0
M  V30 1226 N 115.292 -0.849877 -1.32721 0
M  V30 1227 C 116.517 -0.463856 -2.02146 0
M  V30 1228 C 116.942 0.930449 -1.63476 0
M  V30 1229 O 116.3 1.61033 -0.832952 0
M  V30 1230 C 116.348 -0.604955 -3.55489 0
M  V30 1231 O 115.452 0.36425 -4.10788 0
M  V30 1232 H 114.793 -0.187046 -0.637111 0
M  V30 1233 H 117.323 -1.14775 -1.69375 0
M  V30 1234 H 117.333 -0.490696 -4.05038 0
M  V30 1235 H 116.008 -1.62174 -3.82978 0
M  V30 1236 H 114.585 0.206628 -3.72327 0
M  V30 1237 N 116.77 1.45427 -0.607355 0
M  V30 1238 C 118.016 2.0254 -0.102607 0
M  V30 1239 C 118.349 1.47478 1.26348 0
M  V30 1240 O 117.624 0.64939 1.83339 0
M  V30 1241 C 117.907 3.60044 -0.0634347 0
M  V30 1242 C 117.76 4.2544 -1.46017 0
M  V30 1243 C 119.079 4.35646 0.624514 0
M  V30 1244 H 116.198 0.73598 -0.0387607 0
M  V30 1245 H 118.84 1.73284 -0.779282 0
M  V30 1246 H 116.99 3.85101 0.512808 0
M  V30 1247 H 118.662 4.11569 -2.08347 0
M  V30 1248 H 116.905 3.83849 -2.02094 0
M  V30 1249 H 117.576 5.34342 -1.385 0
M  V30 1250 H 120.052 4.15882 0.134723 0
M  V30 1251 H 118.928 5.45376 0.621028 0
M  V30 1252 H 119.189 4.08501 1.69055 0
M  V30 1253 N 118.248 0.346503 1.53744 0
M  V30 1254 C 119.473 -0.253074 2.0585 0
M  V30 1255 C 119.898 -1.43202 1.21962 0
M  V30 1256 O 119.256 -1.79783 0.234073 0
M  V30 1257 C 119.304 -0.643193 3.54817 0
M  V30 1258 O 118.408 -1.74286 3.73762 0
M  V30 1259 H 117.749 -0.0413583 0.662711 0
M  V30 1260 H 120.279 0.501574 1.98357 0
M  V30 1261 H 120.289 -0.919526 3.97503 0
M  V30 1262 H 118.964 0.218966 4.15323 0
M  V30 1263 H 117.541 -1.46356 3.42979 0
M  V30 1264 N 119.726 -1.57421 0.075193 0
M  V30 1265 C 120.972 -1.94716 -0.587998 0
M  V30 1266 C 121.327 -0.955205 -1.67014 0
M  V30 1267 O 120.62 0.0219842 -1.91587 0
M  V30 1268 C 120.814 -3.36428 -1.20626 0
M  V30 1269 C 120.643 -4.49317 -0.185541 0
M  V30 1270 C 119.413 -5.04772 0.23099 0
M  V30 1271 C 121.611 -5.11036 0.57854 0
M  V30 1272 N 119.593 -6.01204 1.24206 0
M  V30 1273 C 120.964 -6.02998 1.44199 0
M  V30 1274 C 123.019 -4.93844 0.634237 0
M  V30 1275 C 121.722 -6.79614 2.3562 0
M  V30 1276 C 123.748 -5.71106 1.53597 0
M  V30 1277 C 123.11 -6.6272 2.38709 0
M  V30 1278 H 119.209 -0.759536 -0.186089 0
M  V30 1279 H 121.793 -1.94097 0.153128 0
M  V30 1280 H 119.964 -3.37778 -1.9173 0
M  V30 1281 H 121.696 -3.60951 -1.8302 0
M  V30 1282 H 118.451 -4.73353 -0.152807 0
M  V30 1283 H 118.875 -6.54119 1.74521 0
M  V30 1284 H 123.517 -4.22799 -0.00960004 0
M  V30 1285 H 121.235 -7.49934 3.01038 0
M  V30 1286 H 124.821 -5.59824 1.58394 0
M  V30 1287 H 123.701 -7.2146 3.07352 0
M  V30 1288 N 121.204 0.198386 -1.56346 0
M  V30 1289 C 122.615 0.763358 -1.70381 0
M  V30 1290 C 122.966 1.83995 -0.681203 0
M  V30 1291 O 122.091 2.15785 0.16305 0
M  V30 1292 C 122.686 1.39143 -3.08909 0
M  V30 1293 C 121.245 1.90352 -3.2472 0
M  V30 1294 C 120.392 0.772233 -2.6633 0
M  V30 1295 H 123.343 -0.0266377 -1.58678 0
M  V30 1296 H 123.364 2.26076 -3.06055 0
M  V30 1297 H 122.876 0.607638 -3.83314 0
M  V30 1298 H 120.977 2.71461 -2.55225 0
M  V30 1299 H 121.09 2.06757 -4.3219 0
M  V30 1300 H 119.454 1.18566 -2.2542 0
M  V30 1301 H 120.237 0.00073556 -3.433 0
M  V30 1302 N 122.682 1.50554 0.465978 0
M  V30 1303 C 124.098 1.38093 0.800154 0
M  V30 1304 C 124.298 0.440988 1.96615 0
M  V30 1305 O 123.354 -0.114499 2.5224 0
M  V30 1306 C 124.667 2.79565 1.10742 0
M  V30 1307 C 126.215 2.88516 1.21357 0
M  V30 1308 C 126.69 4.30833 1.55393 0
M  V30 1309 N 128.181 4.33807 1.62375 0
M  V30 1310 C 128.916 5.40927 1.90225 0
M  V30 1311 N 128.412 6.58247 2.16062 0
M  V30 1312 N 130.205 5.28376 1.9177 0
M  V30 1313 H 122.356 2.10237 -0.302366 0
M  V30 1314 H 124.619 0.945203 -0.0727746 0
M  V30 1315 H 124.325 3.50208 0.323661 0
M  V30 1316 H 124.199 3.17125 2.04234 0
M  V30 1317 H 126.586 2.1809 1.98799 0
M  V30 1318 H 126.667 2.54492 0.258321 0
M  V30 1319 H 126.311 5.01799 0.784889 0
M  V30 1320 H 126.241 4.62347 2.52076 0
M  V30 1321 H 128.732 3.49212 1.44427 0
M  V30 1322 H 129.045 7.3569 2.36601 0
M  V30 1323 H 127.39 6.61413 2.13444 0
M  V30 1324 H 130.581 4.35715 1.71085 0
M  V30 1325 H 130.754 6.11944 2.13139 0
M  V30 1326 N 124.16 -0.719506 1.40217 0
M  V30 1327 C 125.409 -1.47486 1.37589 0
M  V30 1328 C 125.722 -1.9559 -0.0201568 0
M  V30 1329 O 126.928 -2.70973 -0.169049 0
M  V30 1330 C 125.384 -2.66575 2.41796 0
M  V30 1331 C 124.992 -2.25358 3.87192 0
M  V30 1332 C 126.736 -3.4433 2.48269 0
M  V30 1333 C 124.643 -3.41262 4.83005 0
M  V30 1334 H 123.573 -0.553901 0.511576 0
M  V30 1335 H 126.224 -0.783427 1.65936 0
M  V30 1336 H 124.606 -3.3787 2.06543 0
M  V30 1337 H 125.78 -1.61509 4.31569 0
M  V30 1338 H 124.095 -1.60657 3.84159 0
M  V30 1339 H 126.692 -4.30569 3.17041 0
M  V30 1340 H 127.035 -3.87872 1.51198 0
M  V30 1341 H 127.568 -2.80076 2.82493 0
M  V30 1342 H 124.307 -3.02755 5.81394 0
M  V30 1343 H 123.827 -4.0404 4.43297 0
M  V30 1344 H 125.506 -4.07383 5.02641 0
M  V30 1345 N 125.638 -1.25649 -0.95132 0
M  V30 1346 C 126.885 -1.10594 -1.69633 0
M  V30 1347 C 127.213 0.352515 -1.91279 0
M  V30 1348 O 126.468 1.27601 -1.4838 0
M  V30 1349 C 126.767 -1.80909 -3.08231 0
M  V30 1350 C 126.433 -3.30825 -3.06375 0
M  V30 1351 C 125.095 -3.71722 -3.05576 0
M  V30 1352 C 127.447 -4.26589 -2.99452 0
M  V30 1353 C 124.775 -5.06788 -2.95606 0
M  V30 1354 C 127.127 -5.61683 -2.91024 0
M  V30 1355 C 125.791 -6.01904 -2.88562 0
M  V30 1356 H 125.061 -0.404691 -0.620731 0
M  V30 1357 H 127.708 -1.55964 -1.11119 0
M  V30 1358 H 126.013 -1.27979 -3.70309 0
M  V30 1359 H 127.71 -1.6671 -3.64704 0
M  V30 1360 H 124.3 -2.98287 -3.07771 0
M  V30 1361 H 128.484 -3.95982 -2.99185 0
M  V30 1362 H 123.74 -5.37126 -2.92071 0
M  V30 1363 H 127.914 -6.35578 -2.84629 0
M  V30 1364 H 125.541 -7.06521 -2.80593 0
M  V30 1365 N 127.117 1.15442 -1.07289 0
M  V30 1366 C 128.528 1.67803 -0.818475 0
M  V30 1367 C 128.879 1.8489 0.656507 0
M  V30 1368 O 128.004 1.55176 1.50829 0
M  V30 1369 C 128.599 3.04805 -1.47917 0
M  V30 1370 C 127.158 3.54245 -1.27229 0
M  V30 1371 C 126.305 2.29986 -1.54925 0
M  V30 1372 H 129.256 0.996646 -1.23502 0
M  V30 1373 H 129.277 3.69702 -0.90005 0
M  V30 1374 H 128.789 2.92336 -2.55267 0
M  V30 1375 H 126.89 3.71956 -0.21899 0
M  V30 1376 H 127.003 4.35723 -1.99203 0
M  V30 1377 H 125.367 2.35496 -0.970242 0
M  V30 1378 H 126.15 2.20105 -2.63455 0
M  V30 1379 N 128.595 0.856903 1.32268 0
M  V30 1380 C 129.543 0.291987 2.3076 0
M  V30 1381 C 130.537 -0.585857 1.58947 0
M  V30 1382 O 131.743 -0.47341 1.73663 0
M  V30 1383 H 128.118 0.075721 0.748178 0
M  V30 1384 H 130.089 1.13687 2.75895 0
M  V30 1385 C 128.838 -0.502869 3.44044 0
M  V30 1386 H 128.161 0.163328 3.99466 0
M  V30 1387 H 129.601 -0.863691 4.1511 0
M  V30 1388 C 128.06 -1.68898 2.91505 0
M  V30 1389 O 128.59 -2.78811 2.89184 0
M  V30 1390 N 126.796 -1.51679 2.47875 0
M  V30 1391 H 126.343 -0.622666 2.49961 0
M  V30 1392 H 126.301 -2.31184 2.13076 0
M  V30 1393 N 130.073 -1.45103 0.615059 0
M  V30 1394 C 131.321 -2.01784 0.112955 0
M  V30 1395 C 131.642 -1.48504 -1.26378 0
M  V30 1396 O 130.912 -0.682245 -1.83636 0
M  V30 1397 H 129.492 -0.745993 0.0387668 0
M  V30 1398 H 132.154 -1.77808 0.798141 0
M  V30 1399 H 131.25 -3.12025 0.0684069 0
M  V30 1400 N 131.551 -0.354651 -1.53558 0
M  V30 1401 C 132.828 0.294281 -1.93374 0
M  V30 1402 C 133.208 1.67313 -1.28723 0
M  V30 1403 O 132.556 2.24179 -0.442247 0
M  V30 1404 C 132.766 0.355445 -3.47185 0
M  V30 1405 C 134.114 0.601007 -4.20325 0
M  V30 1406 O 135.138 0.437106 -3.53508 0
M  V30 1407 O 133.997 0.919322 -5.38712 0
M  V30 1408 H 131.091 0.174033 -0.808481 0
M  V30 1409 H 133.637 -0.406638 -1.64756 0
M  V30 1410 H 132.409 -0.611729 -3.86489 0
M  V30 1411 H 132.032 1.1027 -3.82003 0
M  V30 1412 N 133.029 1.57378 -0.0835403 0
M  V30 1413 C 134.277 1.93547 0.581718 0
M  V30 1414 C 134.598 0.96524 1.69435 0
M  V30 1415 O 133.868 0.0153369 1.95894 0
M  V30 1416 H 132.448 0.714521 0.217874 0
M  V30 1417 H 135.11 1.94366 -0.144158 0
M  V30 1418 H 134.206 2.95665 0.999423 0
M  V30 1419 N 134.507 -0.190092 1.56449 0
M  V30 1420 C 135.417 -1.25591 1.98152 0
M  V30 1421 C 136.433 -1.49519 0.889944 0
M  V30 1422 O 137.609 -1.62036 1.19609 0
M  V30 1423 C 134.674 -2.57916 2.3169 0
M  V30 1424 C 133.735 -2.42015 3.5458 0
M  V30 1425 C 132.968 -3.6803 3.8651 0
M  V30 1426 O 133.191 -4.72413 3.1966 0
M  V30 1427 O 132.125 -3.6326 4.79923 0
M  V30 1428 H 135.951 -0.931988 2.89046 0
M  V30 1429 H 133.536 -0.395488 1.4407 0
M  V30 1430 H 135.418 -3.36008 2.54316 0
M  V30 1431 H 134.093 -2.89925 1.43963 0
M  V30 1432 H 133 -1.62017 3.37196 0
M  V30 1433 H 134.333 -2.14937 4.4279 0
M  V30 1434 N 135.985 -1.50799 -0.457987 0
M  V30 1435 C 137.231 -1.62683 -1.21088 0
M  V30 1436 C 137.564 -0.332268 -1.91336 0
M  V30 1437 O 136.839 0.667043 -1.82704 0
M  V30 1438 C 137.122 -2.81615 -2.24422 0
M  V30 1439 C 136.975 -4.20989 -1.58392 0
M  V30 1440 C 138.294 -2.96085 -3.2561 0
M  V30 1441 H 135.413 -0.592087 -0.438864 0
M  V30 1442 H 138.055 -1.83225 -0.50286 0
M  V30 1443 H 136.205 -2.64231 -2.84806 0
M  V30 1444 H 137.877 -4.49994 -1.01504 0
M  V30 1445 H 136.12 -4.24641 -0.886704 0
M  V30 1446 H 136.791 -5.0016 -2.33547 0
M  V30 1447 H 139.267 -3.12042 -2.75262 0
M  V30 1448 H 138.143 -3.80902 -3.95228 0
M  V30 1449 H 138.404 -2.0726 -3.90507 0
M  V30 1450 N 137.463 0.71206 -1.40597 0
M  V30 1451 C 138.411 1.84746 -1.41321 0
M  V30 1452 C 139.405 1.66842 -0.293268 0
M  V30 1453 O 140.611 1.73904 -0.464481 0
M  V30 1454 H 136.986 0.608522 -0.441819 0
M  V30 1455 H 138.957 1.81252 -2.37045 0
M  V30 1456 C 137.706 3.22638 -1.29614 0
M  V30 1457 H 137.029 3.37023 -2.15071 0
M  V30 1458 H 138.469 4.02209 -1.3418 0
M  V30 1459 C 136.928 3.36899 -0.00673121 0
M  V30 1460 O 137.458 3.90186 0.954859 0
M  V30 1461 N 135.664 2.9053 0.0639327 0
M  V30 1462 H 135.211 2.47353 -0.719311 0
M  V30 1463 H 135.169 3.0045 0.926118 0
M  V30 1464 N 138.941 1.26152 0.944643 0
M  V30 1465 C 139.873 1.03199 2.04652 0
M  V30 1466 C 140.886 -0.00642356 1.62799 0
M  V30 1467 O 142.075 0.233263 1.76969 0
M  V30 1468 C 139.175 0.540111 3.34568 0
M  V30 1469 C 138.348 1.64697 4.05208 0
M  V30 1470 C 137.407 1.15374 5.13396 0
M  V30 1471 O 136.433 1.85013 5.38293 0
M  V30 1472 N 137.635 0.00031529 5.805 0
M  V30 1473 H 140.4 1.9808 2.2491 0
M  V30 1474 H 137.961 1.17491 1.11389 0
M  V30 1475 H 139.953 0.194401 4.04233 0
M  V30 1476 H 138.523 -0.315021 3.11009 0
M  V30 1477 H 137.743 2.16379 3.29506 0
M  V30 1478 H 139.031 2.3903 4.49157 0
M  V30 1479 H 138.429 -0.581336 5.62705 0
M  V30 1480 H 136.986 -0.286346 6.51171 0
M  V30 1481 N 140.419 -1.14872 1.07899 0
M  V30 1482 C 141.329 -2.2341 0.715915 0
M  V30 1483 C 142.345 -1.71808 -0.275306 0
M  V30 1484 O 143.521 -2.01039 -0.120545 0
M  V30 1485 C 140.586 -3.46474 0.125168 0
M  V30 1486 C 139.647 -4.13039 1.17034 0
M  V30 1487 C 138.88 -5.30229 0.607688 0
M  V30 1488 O 139.103 -5.675 -0.574497 0
M  V30 1489 O 138.037 -5.86444 1.35526 0
M  V30 1490 H 141.863 -2.56808 1.62121 0
M  V30 1491 H 139.448 -1.22702 0.852322 0
M  V30 1492 H 141.33 -4.20917 -0.201729 0
M  V30 1493 H 140.005 -3.14811 -0.753364 0
M  V30 1494 H 138.912 -3.40493 1.54968 0
M  V30 1495 H 140.245 -4.48796 2.02097 0
M  V30 1496 N 141.898 -0.863906 -1.31812 0
M  V30 1497 C 143.146 -0.470904 -1.96537 0
M  V30 1498 C 143.467 0.978771 -1.68657 0
M  V30 1499 O 142.737 1.6853 -0.998717 0
M  V30 1500 H 141.317 -0.171148 -0.72713 0
M  V30 1501 H 143.979 -1.10236 -1.60729 0
M  V30 1502 H 143.075 -0.623616 -3.05806 0
M  V30 1503 N 143.376 1.44774 -0.622745 0
M  V30 1504 C 144.306 2.33382 0.0741861 0
M  V30 1505 C 145.287 1.47719 0.843387 0
M  V30 1506 O 146.472 1.76458 0.810934 0
M  V30 1507 C 143.602 3.30663 1.06204 0
M  V30 1508 C 142.556 4.26079 0.405037 0
M  V30 1509 C 141.882 5.13165 1.5022 0
M  V30 1510 C 143.182 5.1781 -0.683414 0
M  V30 1511 H 144.876 2.91905 -0.665713 0
M  V30 1512 H 142.422 1.40363 -0.321587 0
M  V30 1513 H 144.375 3.9153 1.55827 0
M  V30 1514 H 143.099 2.70331 1.83272 0
M  V30 1515 H 141.758 3.66532 -0.0704683 0
M  V30 1516 H 141.406 4.49191 2.26355 0
M  V30 1517 H 141.106 5.77812 1.06803 0
M  V30 1518 H 142.63 5.76902 2.00041 0
M  V30 1519 H 144.044 5.72661 -0.270631 0
M  V30 1520 H 142.441 5.91015 -1.04023 0
M  V30 1521 H 143.511 4.59326 -1.55395 0
M  V30 1522 N 144.854 0.36279 1.53368 0
M  V30 1523 C 146.131 -0.284021 1.93527 0
M  V30 1524 C 146.511 -1.66628 1.29608 0
M  V30 1525 O 145.859 -2.23942 0.45413 0
M  V30 1526 C 146.069 -0.337028 3.47369 0
M  V30 1527 C 147.417 -0.578708 4.20638 0
M  V30 1528 O 148.441 -0.418352 3.53735 0
M  V30 1529 O 147.3 -0.89074 5.39192 0
M  V30 1530 H 144.394 -0.169743 0.809393 0
M  V30 1531 H 146.94 0.41537 1.64538 0
M  V30 1532 H 145.712 0.632217 3.86159 0
M  V30 1533 H 145.335 -1.08243 3.82582 0
M  V30 1534 N 146.332 -1.57332 0.0918853 0
M  V30 1535 C 147.562 -1.98286 -0.580205 0
M  V30 1536 C 147.97 -0.969713 -1.6246 0
M  V30 1537 O 147.313 0.0493501 -1.83634 0
M  V30 1538 C 147.375 -3.35603 -1.28882 0
M  V30 1539 C 147.039 -4.55285 -0.395559 0
M  V30 1540 C 148.036 -5.18687 0.355002 0
M  V30 1541 C 145.721 -5.01314 -0.314556 0
M  V30 1542 C 147.715 -6.26484 1.17458 0
M  V30 1543 C 145.402 -6.08979 0.508677 0
M  V30 1544 C 146.4 -6.71429 1.2519 0
M  V30 1545 O 146.088 -7.77018 2.06151 0
M  V30 1546 H 145.82 -0.656678 -0.160466 0
M  V30 1547 H 148.374 -2.04721 0.16688 0
M  V30 1548 H 146.604 -3.25842 -2.08241 0
M  V30 1549 H 148.293 -3.61026 -1.85512 0
M  V30 1550 H 149.059 -4.84058 0.302134 0
M  V30 1551 H 144.938 -4.5247 -0.882697 0
M  V30 1552 H 148.482 -6.75159 1.75518 0
M  V30 1553 H 144.379 -6.4304 0.563037 0
M  V30 1554 H 145.147 -7.93991 1.98799 0
M  V30 1555 N 147.81 0.181792 -1.56548 0
M  V30 1556 C 149.04 0.914618 -1.85252 0
M  V30 1557 C 149.448 1.76791 -0.673914 0
M  V30 1558 O 148.791 1.80009 0.366416 0
M  V30 1559 C 148.853 1.85019 -3.08234 0
M  V30 1560 C 148.517 1.17754 -4.41569 0
M  V30 1561 C 149.514 0.548035 -5.17003 0
M  V30 1562 C 147.199 1.17742 -4.88305 0
M  V30 1563 C 149.193 -0.0726128 -6.37359 0
M  V30 1564 C 146.88 0.552946 -6.08593 0
M  V30 1565 C 147.878 -0.070978 -6.82963 0
M  V30 1566 O 147.566 -0.685635 -8.00971 0
M  V30 1567 H 147.298 0.271695 -0.618998 0
M  V30 1568 H 149.852 0.189944 -2.0452 0
M  V30 1569 H 148.082 2.61491 -2.84885 0
M  V30 1570 H 149.771 2.45195 -3.23472 0
M  V30 1571 H 150.537 0.540174 -4.81982 0
M  V30 1572 H 146.416 1.65246 -4.30366 0
M  V30 1573 H 149.96 -0.560213 -6.95347 0
M  V30 1574 H 145.857 0.558354 -6.43081 0
M  V30 1575 H 146.625 -0.58385 -8.16415 0
M  V30 1576 N 149.288 1.51039 0.449983 0
M  V30 1577 C 150.238 1.67824 1.54335 0
M  V30 1578 C 151.222 0.5324 1.51836 0
M  V30 1579 O 152.414 0.787762 1.58503 0
M  V30 1580 C 149.543 1.7951 2.92628 0
M  V30 1581 C 148.629 2.99838 2.9993 0
M  V30 1582 N 149.02 4.23207 2.77001 0
M  V30 1583 C 147.318 2.98832 3.31082 0
M  V30 1584 C 148.019 5.04361 2.89818 0
M  V30 1585 N 146.995 4.38746 3.2094 0
M  V30 1586 H 150.797 2.60884 1.35339 0
M  V30 1587 H 148.311 1.48513 0.657085 0
M  V30 1588 H 150.308 1.89642 3.7127 0
M  V30 1589 H 148.968 0.876227 3.12654 0
M  V30 1590 H 149.979 4.5236 2.52172 0
M  V30 1591 H 146.656 2.16527 3.56963 0
M  V30 1592 H 148.046 6.12528 2.76151 0
M  V30 1593 N 150.766 -0.704594 1.40972 0
M  V30 1594 C 152.182 -1.01406 1.23244 0
M  V30 1595 C 152.382 -2.01169 0.115399 0
M  V30 1596 O 151.438 -2.47021 -0.523147 0
M  V30 1597 C 152.751 -1.54728 2.57836 0
M  V30 1598 C 154.299 -1.66658 2.64942 0
M  V30 1599 C 154.774 -2.23383 3.9983 0
M  V30 1600 N 156.265 -2.30756 4.01629 0
M  V30 1601 C 157 -2.75655 5.02794 0
M  V30 1602 N 156.496 -3.20225 6.14352 0
M  V30 1603 N 158.289 -2.75138 4.90159 0
M  V30 1604 H 150.44 -0.0435285 2.12355 0
M  V30 1605 H 152.703 -0.0818951 0.944456 0
M  V30 1606 H 152.409 -0.888832 3.40283 0
M  V30 1607 H 152.283 -2.53084 2.79693 0
M  V30 1608 H 154.67 -2.31617 1.8286 0
M  V30 1609 H 154.751 -0.668717 2.46904 0
M  V30 1610 H 154.395 -1.59043 4.82357 0
M  V30 1611 H 154.325 -3.23904 4.15203 0
M  V30 1612 H 156.816 -1.99291 3.21079 0
M  V30 1613 H 157.129 -3.53084 6.87424 0
M  V30 1614 H 155.474 -3.18156 6.17901 0
M  V30 1615 H 158.665 -2.39661 4.02095 0
M  V30 1616 H 158.838 -3.09812 5.6914 0
M  V30 1617 N 152.244 -1.26651 -0.937939 0
M  V30 1618 C 153.49 -1.12553 -1.687 0
M  V30 1619 C 153.823 0.329782 -1.91379 0
M  V30 1620 O 153.098 1.24202 -1.4968 0
M  V30 1621 C 153.381 -1.89862 -3.05981 0
M  V30 1622 C 153.234 -3.43318 -2.90607 0
M  V30 1623 C 154.553 -1.69499 -4.0615 0
M  V30 1624 H 151.672 -0.410257 -0.612257 0
M  V30 1625 H 154.314 -1.55685 -1.08913 0
M  V30 1626 H 152.464 -1.53204 -3.57017 0
M  V30 1627 H 154.136 -3.89747 -2.46769 0
M  V30 1628 H 152.379 -3.70179 -2.26164 0
M  V30 1629 H 153.05 -3.92642 -3.8799 0
M  V30 1630 H 155.526 -2.01442 -3.64088 0
M  V30 1631 H 154.402 -2.26002 -5.00214 0
M  V30 1632 H 154.663 -0.640365 -4.37438 0
M  V30 1633 N 153.722 1.14298 -1.08507 0
M  V30 1634 C 154.968 1.85633 -0.816581 0
M  V30 1635 C 155.301 1.82784 0.656021 0
M  V30 1636 O 154.576 1.25926 1.48233 0
M  V30 1637 C 154.859 3.34223 -1.34041 0
M  V30 1638 C 154.712 3.45639 -2.87843 0
M  V30 1639 C 156.031 4.29356 -0.9665 0
M  V30 1640 H 153.15 0.67402 -0.298104 0
M  V30 1641 H 155.792 1.34214 -1.34487 0
M  V30 1642 H 153.942 3.78144 -0.89104 0
M  V30 1643 H 155.614 3.10498 -3.41158 0
M  V30 1644 H 153.857 2.86817 -3.25451 0
M  V30 1645 H 154.528 4.50089 -3.19569 0
M  V30 1646 H 157.004 3.93457 -1.35391 0
M  V30 1647 H 155.88 5.3178 -1.3602 0
M  V30 1648 H 156.141 4.41919 0.126362 0
M  V30 1649 N 155.201 0.870884 1.31352 0
M  V30 1650 C 156.478 0.402907 1.91405 0
M  V30 1651 C 156.858 -1.11512 1.79244 0
M  V30 1652 O 156.206 -1.94411 1.2007 0
M  V30 1653 C 156.416 0.885301 3.37585 0
M  V30 1654 C 157.764 0.911971 4.14691 0
M  V30 1655 O 158.788 0.831016 3.46371 0
M  V30 1656 O 157.647 1.02927 5.3672 0
M  V30 1657 H 154.741 0.120698 0.818145 0
M  V30 1658 H 157.287 0.958857 1.40014 0
M  V30 1659 H 156.059 1.92889 3.40455 0
M  V30 1660 H 155.682 0.307714 3.96407 0
M  V30 1661 N 156.679 -1.44442 0.630414 0
M  V30 1662 C 157.609 -2.33418 -0.0618083 0
M  V30 1663 C 158.59 -1.48165 -0.835541 0
M  V30 1664 O 159.775 -1.76886 -0.801564 0
M  V30 1665 C 156.905 -3.31222 -1.04449 0
M  V30 1666 C 155.859 -4.26288 -0.382436 0
M  V30 1667 C 155.185 -5.13954 -1.47497 0
M  V30 1668 C 156.485 -5.1744 0.710865 0
M  V30 1669 H 158.179 -2.91548 0.681184 0
M  V30 1670 H 155.725 -1.40191 0.329026 0
M  V30 1671 H 157.678 -3.92351 -1.53748 0
M  V30 1672 H 156.402 -2.71299 -1.81836 0
M  V30 1673 H 155.061 -3.6649 0.0899054 0
M  V30 1674 H 154.709 -4.50385 -2.2397 0
M  V30 1675 H 154.409 -5.7837 -1.03737 0
M  V30 1676 H 155.933 -5.77955 -1.96979 0
M  V30 1677 H 157.347 -5.72509 0.300996 0
M  V30 1678 H 155.744 -5.90455 1.07156 0
M  V30 1679 H 156.814 -4.58496 1.57829 0
M  V30 1680 N 158.157 -0.370918 -1.53173 0
M  V30 1681 C 159.087 0.464847 -2.28826 0
M  V30 1682 C 160.068 1.07936 -1.31468 0
M  V30 1683 O 161.253 1.0956 -1.60344 0
M  V30 1684 C 158.383 1.60196 -3.08147 0
M  V30 1685 C 157.337 1.11443 -4.13237 0
M  V30 1686 C 156.663 2.3422 -4.80672 0
M  V30 1687 C 157.963 0.195384 -5.21934 0
M  V30 1688 H 159.657 -0.166329 -2.98938 0
M  V30 1689 H 157.203 -0.0814359 -1.4377 0
M  V30 1690 H 159.156 2.19332 -3.59822 0
M  V30 1691 H 157.88 2.26045 -2.35735 0
M  V30 1692 H 156.539 0.545727 -3.62515 0
M  V30 1693 H 156.187 2.98537 -4.04827 0
M  V30 1694 H 155.887 2.02269 -5.51689 0
M  V30 1695 H 157.411 2.94032 -5.35143 0
M  V30 1696 H 158.825 0.694375 -5.69079 0
M  V30 1697 H 157.222 -0.0335027 -6.00091 0
M  V30 1698 H 158.292 -0.760961 -4.78892 0
M  V30 1699 N 159.635 1.57281 -0.100228 0
M  V30 1700 C 160.583 2.15542 0.874328 0
M  V30 1701 C 161.577 1.09962 1.28859 0
M  V30 1702 O 162.783 1.28298 1.26252 0
M  V30 1703 H 159.158 0.689567 0.300003 0
M  V30 1704 H 161.129 2.96241 0.35829 0
M  V30 1705 C 159.878 2.75454 2.1218 0
M  V30 1706 H 159.201 3.56384 1.81193 0
M  V30 1707 H 160.641 3.19781 2.78417 0
M  V30 1708 C 159.1 1.71602 2.89921 0
M  V30 1709 O 159.63 1.15804 3.84646 0
M  V30 1710 N 157.836 1.41975 2.53558 0
M  V30 1711 H 157.383 1.87539 1.76598 0
M  V30 1712 H 157.341 0.727274 3.05873 0
M  V30 1713 N 161.113 -0.173488 1.56642 0
M  V30 1714 C 162.39 -0.917617 1.7274 0
M  V30 1715 C 162.77 -2.00484 0.661027 0
M  V30 1716 O 162.118 -2.26184 -0.32453 0
M  V30 1717 C 162.328 -1.48433 3.15862 0
M  V30 1718 C 163.676 -1.95809 3.76754 0
M  V30 1719 O 164.7 -1.58231 3.19126 0
M  V30 1720 O 163.559 -2.65024 4.77938 0
M  V30 1721 H 160.653 -0.431772 0.705338 0
M  V30 1722 H 163.199 -0.161487 1.6893 0
M  V30 1723 H 161.971 -0.701715 3.84957 0
M  V30 1724 H 161.594 -2.30471 3.23989 0
M  V30 1725 N 162.591 -1.51276 -0.441967 0
M  V30 1726 C 163.539 -1.72823 -1.55676 0
M  V30 1727 C 164.533 -0.59445 -1.58627 0
M  V30 1728 O 165.739 -0.775715 -1.62427 0
M  V30 1729 H 162.114 -0.545983 -0.517113 0
M  V30 1730 H 164.085 -2.6628 -1.34675 0
M  V30 1731 C 162.834 -1.86619 -2.93375 0
M  V30 1732 H 162.157 -2.73264 -2.91834 0
M  V30 1733 H 163.597 -2.05709 -3.70756 0
M  V30 1734 C 162.056 -0.624842 -3.31055 0
M  V30 1735 O 162.586 0.222636 -4.01083 0
M  V30 1736 N 160.792 -0.470288 -2.86769 0
M  V30 1737 H 160.339 -1.161 -2.29953 0
M  V30 1738 H 160.297 0.359051 -3.12343 0
M  V30 1739 N 164.069 0.697108 -1.41344 0
M  V30 1740 C 165.317 1.45426 -1.40341 0
M  V30 1741 C 165.638 1.94996 -0.0128787 0
M  V30 1742 O 164.908 1.71599 0.945027 0
M  V30 1743 H 163.488 0.539594 -0.516573 0
M  V30 1744 H 166.15 0.825201 -1.76569 0
M  V30 1745 H 165.246 2.31817 -2.08967 0
M  V30 1746 N 165.547 1.27147 0.931209 0
M  V30 1747 C 166.796 1.12664 1.67302 0
M  V30 1748 C 167.109 -0.327718 1.92835 0
M  V30 1749 O 168.315 -0.593392 2.64936 0
M  V30 1750 C 166.771 1.9683 3.01307 0
M  V30 1751 C 166.379 3.46901 2.83485 0
M  V30 1752 C 168.123 1.90985 3.79111 0
M  V30 1753 C 166.03 4.23279 4.13024 0
M  V30 1754 H 164.96 0.41803 0.627509 0
M  V30 1755 H 167.611 1.51539 1.03481 0
M  V30 1756 H 165.993 1.50797 3.66164 0
M  V30 1757 H 167.167 4.00773 2.27415 0
M  V30 1758 H 165.482 3.54088 2.19113 0
M  V30 1759 H 168.079 2.45328 4.75098 0
M  V30 1760 H 168.422 0.882718 4.06834 0
M  V30 1761 H 168.955 2.34895 3.21044 0
M  V30 1762 H 165.694 5.26503 3.90481 0
M  V30 1763 H 165.214 3.74186 4.6877 0
M  V30 1764 H 166.893 4.32265 4.81411 0
M  V30 1765 N 167.025 -1.13721 1.09112 0
M  V30 1766 C 167.935 -2.22638 0.73957 0
M  V30 1767 C 168.951 -1.72091 -0.257068 0
M  V30 1768 O 170.127 -2.01155 -0.0992154 0
M  V30 1769 C 167.192 -3.46322 0.16191 0
M  V30 1770 C 166.253 -4.11775 1.21408 0
M  V30 1771 C 165.486 -5.29555 0.663891 0
M  V30 1772 O 165.709 -5.68077 -0.514274 0
M  V30 1773 O 164.643 -5.84973 1.41738 0
M  V30 1774 H 168.469 -2.55074 1.64836 0
M  V30 1775 H 166.054 -1.21791 0.865289 0
M  V30 1776 H 167.936 -4.21107 -0.157073 0
M  V30 1777 H 166.611 -3.15593 -0.719932 0
M  V30 1778 H 165.518 -3.3883 1.58571 0
M  V30 1779 H 166.851 -4.46627 2.06845 0
M  V30 1780 N 168.503 -0.877838 -1.30888 0
M  V30 1781 C 169.914 -0.544193 -1.78593 0
M  V30 1782 C 170.265 0.939301 -1.72254 0
M  V30 1783 O 169.39 1.7337 -1.29505 0
M  V30 1784 C 169.985 -0.98105 -3.24285 0
M  V30 1785 C 168.544 -0.698935 -3.69854 0
M  V30 1786 C 167.691 -1.168 -2.51502 0
M  V30 1787 H 170.642 -1.06278 -1.17859 0
M  V30 1788 H 170.663 -0.307009 -3.79259 0
M  V30 1789 H 170.175 -2.06079 -3.28866 0
M  V30 1790 H 168.276 0.369112 -3.70767 0
M  V30 1791 H 168.389 -1.28148 -4.61644 0
M  V30 1792 H 166.753 -0.587535 -2.47831 0
M  V30 1793 H 167.536 -2.25533 -2.58824 0
M  V30 1794 N 169.982 1.44106 -0.638065 0
M  V30 1795 C 171.229 2.01978 -0.14533 0
M  V30 1796 C 171.557 1.50234 1.23532 0
M  V30 1797 O 170.812 0.679548 1.83523 0
M  V30 1798 C 171.111 3.5729 -0.0887327 0
M  V30 1799 C 170.777 4.28317 -1.40909 0
M  V30 1800 C 169.439 4.47437 -1.77069 0
M  V30 1801 C 171.791 4.6867 -2.28031 0
M  V30 1802 C 169.119 5.04171 -3.00047 0
M  V30 1803 C 171.471 5.26766 -3.50286 0
M  V30 1804 C 170.135 5.44104 -3.86661 0
M  V30 1805 H 169.405 0.739089 -0.0531801 0
M  V30 1806 H 172.052 1.72781 -0.825761 0
M  V30 1807 H 170.357 3.8594 0.675095 0
M  V30 1808 H 172.054 3.99807 0.309145 0
M  V30 1809 H 168.644 4.1377 -1.1177 0
M  V30 1810 H 172.828 4.53604 -2.01388 0
M  V30 1811 H 168.084 5.15782 -3.28298 0
M  V30 1812 H 172.258 5.56983 -4.18023 0
M  V30 1813 H 169.885 5.87832 -4.82034 0
M  V30 1814 N 171.46 0.379036 1.52974 0
M  V30 1815 C 172.7 -0.206325 2.03356 0
M  V30 1816 C 173.064 -1.44892 1.25977 0
M  V30 1817 O 174.265 -2.11078 1.66432 0
M  V30 1818 C 172.536 -0.477887 3.54191 0
M  V30 1819 S 174.095 -1.035 4.26419 0
M  V30 1820 H 170.913 -0.0590259 0.708546 0
M  V30 1821 H 173.515 0.525013 1.88319 0
M  V30 1822 H 172.219 0.433745 4.08101 0
M  V30 1823 H 171.75 -1.23793 3.73415 0
M  V30 1824 H 173.765 -2.31821 4.38718 0
M  V30 1825 N 172.938 -1.57226 0.108567 0
M  V30 1826 C 174.166 -1.99179 -0.559954 0
M  V30 1827 C 174.581 -0.988022 -1.60884 0
M  V30 1828 O 173.938 0.0205512 -1.82488 0
M  V30 1829 C 173.989 -3.41159 -1.19552 0
M  V30 1830 O 173.71 -4.37694 -0.188577 0
M  V30 1831 C 175.211 -3.98188 -1.94837 0
M  V30 1832 H 172.431 -0.654228 -0.149088 0
M  V30 1833 H 174.975 -2.03598 0.19183 0
M  V30 1834 H 173.13 -3.37711 -1.89815 0
M  V30 1835 H 173.544 -5.20469 -0.649014 0
M  V30 1836 H 175.018 -4.99644 -2.34648 0
M  V30 1837 H 175.495 -3.3675 -2.81951 0
M  V30 1838 H 176.101 -4.0515 -1.2936 0
M  V30 1839 N 174.416 0.165178 -1.56732 0
M  V30 1840 C 175.346 1.20651 -1.99914 0
M  V30 1841 C 176.327 1.45827 -0.875705 0
M  V30 1842 O 177.512 1.57057 -1.14223 0
M  V30 1843 C 174.642 2.54401 -2.36427 0
M  V30 1844 C 173.596 2.43782 -3.51787 0
M  V30 1845 C 172.922 3.82078 -3.7406 0
M  V30 1846 C 174.222 1.93732 -4.85041 0
M  V30 1847 H 175.916 0.847534 -2.87154 0
M  V30 1848 H 173.462 0.40625 -1.38151 0
M  V30 1849 H 175.415 3.27458 -2.65234 0
M  V30 1850 H 174.139 2.92098 -1.46103 0
M  V30 1851 H 172.798 1.73178 -3.23117 0
M  V30 1852 H 172.446 4.17179 -2.81017 0
M  V30 1853 H 172.146 3.7584 -4.51684 0
M  V30 1854 H 173.67 4.56712 -4.05274 0
M  V30 1855 H 175.084 2.56569 -5.12684 0
M  V30 1856 H 173.481 1.98428 -5.66345 0
M  V30 1857 H 174.551 0.891962 -4.76626 0
M  V30 1858 N 175.894 1.51508 0.433938 0
M  V30 1859 C 177.124 1.67914 1.20369 0
M  V30 1860 C 177.532 0.377461 1.85397 0
M  V30 1861 O 176.875 -0.654255 1.71654 0
M  V30 1862 C 176.937 2.74045 2.32679 0
M  V30 1863 C 176.601 4.16543 1.87991 0
M  V30 1864 C 177.598 5.01211 1.38145 0
M  V30 1865 C 175.283 4.6266 1.95579 0
M  V30 1866 C 177.277 6.30056 0.964774 0
M  V30 1867 C 174.964 5.91501 1.53523 0
M  V30 1868 C 175.962 6.75027 1.04055 0
M  V30 1869 O 175.65 8.01459 0.625964 0
M  V30 1870 H 175.382 0.566578 0.368735 0
M  V30 1871 H 177.936 1.98709 0.51999 0
M  V30 1872 H 176.166 2.38572 3.04336 0
M  V30 1873 H 177.855 2.79295 2.94532 0
M  V30 1874 H 178.621 4.66783 1.31675 0
M  V30 1875 H 174.5 3.97767 2.33029 0
M  V30 1876 H 178.044 6.95202 0.57796 0
M  V30 1877 H 173.941 6.25442 1.59665 0
M  V30 1878 H 174.709 8.15043 0.751509 0
M  V30 1879 N 177.372 -0.689602 1.41712 0
M  V30 1880 C 178.322 -1.79571 1.40493 0
M  V30 1881 C 179.306 -1.58473 0.278409 0
M  V30 1882 O 180.498 -1.69204 0.519532 0
M  V30 1883 C 177.627 -3.17923 1.29536 0
M  V30 1884 C 176.713 -3.44695 2.47075 0
M  V30 1885 N 177.104 -3.42132 3.72531 0
M  V30 1886 C 175.402 -3.75269 2.41017 0
M  V30 1887 C 176.103 -3.67976 4.50521 0
M  V30 1888 N 175.079 -3.88014 3.80718 0
M  V30 1889 H 178.881 -1.75961 2.35404 0
M  V30 1890 H 176.395 -0.889839 1.35851 0
M  V30 1891 H 178.392 -3.97167 1.26745 0
M  V30 1892 H 177.052 -3.22741 0.356153 0
M  V30 1893 H 178.063 -3.22375 4.05333 0
M  V30 1894 H 174.74 -3.87421 1.55599 0
M  V30 1895 H 176.13 -3.7208 5.59469 0
M  V30 1896 N 178.85 -1.27639 -0.924453 0
M  V30 1897 C 180.096 -1.15345 -1.67532 0
M  V30 1898 C 180.451 0.297096 -1.90092 0
M  V30 1899 O 179.744 1.21374 -1.48253 0
M  V30 1900 C 179.938 -1.87407 -3.04325 0
M  V30 1901 C 179.767 -3.3932 -2.95114 0
M  V30 1902 C 178.537 -4.08644 -2.97218 0
M  V30 1903 C 180.735 -4.35242 -2.73987 0
M  V30 1904 N 178.717 -5.47102 -2.78482 0
M  V30 1905 C 180.088 -5.6099 -2.63988 0
M  V30 1906 C 182.143 -4.25294 -2.589 0
M  V30 1907 C 180.846 -6.77924 -2.40442 0
M  V30 1908 C 182.872 -5.41952 -2.36731 0
M  V30 1909 C 182.234 -6.66658 -2.27478 0
M  V30 1910 H 178.333 -0.47696 -0.619704 0
M  V30 1911 H 180.917 -1.6115 -1.09265 0
M  V30 1912 H 179.088 -1.44053 -3.60699 0
M  V30 1913 H 180.82 -1.6759 -3.68369 0
M  V30 1914 H 177.575 -3.60136 -3.07569 0
M  V30 1915 H 177.999 -6.19852 -2.72236 0
M  V30 1916 H 182.641 -3.29598 -2.64811 0
M  V30 1917 H 180.359 -7.73699 -2.3327 0
M  V30 1918 H 183.945 -5.36137 -2.25938 0
M  V30 1919 H 182.825 -7.55405 -2.10555 0
M  V30 1920 N 180.328 1.1314 -1.09713 0
M  V30 1921 C 181.605 1.80762 -0.747302 0
M  V30 1922 C 181.985 1.96663 0.767265 0
M  V30 1923 O 181.333 1.53706 1.69076 0
M  V30 1924 C 181.543 3.15606 -1.48975 0
M  V30 1925 C 182.891 3.90914 -1.65746 0
M  V30 1926 O 183.915 3.25239 -1.45251 0
M  V30 1927 O 182.774 5.08718 -1.9967 0
M  V30 1928 H 179.868 0.782103 -0.268782 0
M  V30 1929 H 182.414 1.20041 -1.19951 0
M  V30 1930 H 181.186 2.99278 -2.52088 0
M  V30 1931 H 180.809 3.84029 -1.02991 0
M  V30 1932 N 181.806 0.884767 1.30421 0
M  V30 1933 C 182.736 0.367574 2.30589 0
M  V30 1934 C 183.717 -0.549464 1.60981 0
M  V30 1935 O 184.902 -0.46336 1.88591 0
M  V30 1936 C 182.032 -0.418944 3.44764 0
M  V30 1937 C 180.986 0.406316 4.26067 0
M  V30 1938 C 180.312 -0.506793 5.32293 0
M  V30 1939 C 181.612 1.64832 4.95608 0
M  V30 1940 H 183.306 1.20462 2.74097 0
M  V30 1941 H 180.852 0.580695 1.31772 0
M  V30 1942 H 182.805 -0.791395 4.13902 0
M  V30 1943 H 181.529 -1.28964 3.0006 0
M  V30 1944 H 180.188 0.760903 3.58617 0
M  V30 1945 H 179.836 -1.37519 4.83836 0
M  V30 1946 H 179.536 0.0415828 5.87585 0
M  V30 1947 H 181.06 -0.875764 6.04287 0
M  V30 1948 H 182.474 1.34646 5.57264 0
M  V30 1949 H 180.871 2.13688 5.60765 0
M  V30 1950 H 181.941 2.39284 4.21748 0
M  V30 1951 N 183.284 -1.43765 0.645699 0
M  V30 1952 C 184.695 -1.85193 0.236719 0
M  V30 1953 C 185.046 -1.54045 -1.21509 0
M  V30 1954 O 184.171 -0.985694 -1.92647 0
M  V30 1955 C 184.766 -3.36151 0.422845 0
M  V30 1956 C 183.325 -3.76338 0.0682492 0
M  V30 1957 C 182.472 -2.67538 0.729306 0
M  V30 1958 H 185.423 -1.34025 0.849883 0
M  V30 1959 H 185.444 -3.79032 -0.333904 0
M  V30 1960 H 184.956 -3.5879 1.47958 0
M  V30 1961 H 183.057 -3.59312 -0.986179 0
M  V30 1962 H 183.17 -4.76603 0.488469 0
M  V30 1963 H 181.534 -2.54176 0.163235 0
M  V30 1964 H 182.317 -2.93006 1.78892 0
M  V30 1965 N 184.763 -0.387143 -1.52771 0
M  V30 1966 C 185.695 0.484089 -2.2403 0
M  V30 1967 C 186.708 1.02849 -1.26198 0
M  V30 1968 O 187.897 0.931186 -1.52286 0
M  V30 1969 C 184.997 1.68337 -2.94136 0
M  V30 1970 C 184.17 1.26672 -4.18656 0
M  V30 1971 C 183.229 2.33045 -4.7178 0
M  V30 1972 O 182.255 1.94541 -5.34923 0
M  V30 1973 N 183.457 3.64929 -4.5145 0
M  V30 1974 H 186.222 -0.126404 -2.99433 0
M  V30 1975 H 183.783 -0.213392 -1.60488 0
M  V30 1976 H 185.775 2.39019 -3.26577 0
M  V30 1977 H 184.345 2.20025 -2.22053 0
M  V30 1978 H 183.565 0.388878 -3.92277 0
M  V30 1979 H 184.853 0.964964 -4.99566 0
M  V30 1980 H 184.251 3.98974 -4.01044 0
M  V30 1981 H 182.808 4.31651 -4.88386 0
M  V30 1982 N 186.241 1.57166 -0.116904 0
M  V30 1983 C 187.204 2.14039 0.819742 0
M  V30 1984 C 188.204 1.07477 1.19605 0
M  V30 1985 O 189.394 1.33263 1.1219 0
M  V30 1986 C 186.526 2.67891 2.10826 0
M  V30 1987 H 187.719 2.98128 0.325511 0
M  V30 1988 H 185.272 1.55739 0.132312 0
M  V30 1989 H 186.007 1.87384 2.64685 0
M  V30 1990 H 185.792 3.45823 1.84793 0
M  V30 1991 H 187.282 3.11809 2.77785 0
M  V30 1992 N 187.719 -0.156864 1.56817 0
M  V30 1993 C 188.649 -1.19589 2.00551 0
M  V30 1994 C 189.63 -1.4536 0.883426 0
M  V30 1995 O 190.815 -1.56449 1.15054 0
M  V30 1996 C 187.945 -2.53143 2.37773 0
M  V30 1997 C 186.899 -2.41913 3.53075 0
M  V30 1998 C 186.225 -3.80088 3.76081 0
M  V30 1999 C 187.525 -1.91157 4.86062 0
M  V30 2000 H 189.219 -0.832293 2.87599 0
M  V30 2001 H 186.765 -0.398918 1.38364 0
M  V30 2002 H 188.718 -3.26047 2.66967 0
M  V30 2003 H 187.442 -2.91319 1.4765 0
M  V30 2004 H 186.101 -1.71462 3.24031 0
M  V30 2005 H 185.749 -4.15683 2.83225 0
M  V30 2006 H 185.449 -3.73439 4.53671 0
M  V30 2007 H 186.973 -4.54556 4.0769 0
M  V30 2008 H 188.387 -2.53846 5.14038 0
M  V30 2009 H 186.784 -1.95422 5.67389 0
M  V30 2010 H 187.854 -0.866673 4.77092 0
M  V30 2011 N 189.197 -1.51736 -0.425897 0
M  V30 2012 C 190.129 -1.70083 -1.53638 0
M  V30 2013 C 191.142 -0.581349 -1.52066 0
M  V30 2014 O 192.331 -0.856017 -1.56635 0
M  V30 2015 C 189.431 -1.71078 -2.9255 0
M  V30 2016 C 188.604 -2.99795 -3.185 0
M  V30 2017 C 187.663 -2.92825 -4.37196 0
M  V30 2018 O 186.689 -3.66756 -4.35291 0
M  V30 2019 N 187.891 -2.0946 -5.41393 0
M  V30 2020 H 190.656 -2.65882 -1.383 0
M  V30 2021 H 188.217 -1.49765 -0.614988 0
M  V30 2022 H 190.209 -1.63969 -3.69995 0
M  V30 2023 H 188.779 -0.828242 -3.01428 0
M  V30 2024 H 187.999 -3.20684 -2.2925 0
M  V30 2025 H 189.287 -3.84977 -3.32671 0
M  V30 2026 H 188.685 -1.48792 -5.45781 0
M  V30 2027 H 187.242 -2.08221 -6.17647 0
M  V30 2028 N 190.675 0.682077 -1.42076 0
M  V30 2029 C 191.952 1.43755 -1.32642 0
M  V30 2030 C 192.332 2.11063 0.0396611 0
M  V30 2031 O 191.68 2.02701 1.05474 0
M  V30 2032 C 191.89 2.44596 -2.48946 0
M  V30 2033 C 193.238 3.09454 -2.9073 0
M  V30 2034 O 194.262 2.54922 -2.48783 0
M  V30 2035 O 193.121 4.08253 -3.63307 0
M  V30 2036 H 190.215 0.640857 -0.522715 0
M  V30 2037 H 192.761 0.711415 -1.54068 0
M  V30 2038 H 191.533 1.93609 -3.40046 0
M  V30 2039 H 191.156 3.24701 -2.29467 0
M  V30 2040 N 192.153 1.28127 0.917671 0
M  V30 2041 C 193.116 1.11744 2.00115 0
M  V30 2042 C 194.116 0.0583052 1.60694 0
M  V30 2043 O 195.306 0.303755 1.71531 0
M  V30 2044 C 192.438 0.704862 3.33533 0
M  V30 2045 H 193.631 2.07966 2.16079 0
M  V30 2046 H 191.184 1.11058 1.09981 0
M  V30 2047 H 191.919 -0.258299 3.2327 0
M  V30 2048 H 191.704 1.4699 3.63505 0
M  V30 2049 H 193.194 0.612768 4.1308 0
M  V30 2050 N 193.631 -1.12557 1.10312 0
M  V30 2051 C 194.879 -1.83675 0.843091 0
M  V30 2052 C 195.2 -1.84435 -0.633131 0
M  V30 2053 O 194.47 -1.30657 -1.45964 0
M  V30 2054 H 193.05 -0.680138 0.308904 0
M  V30 2055 H 195.712 -1.36301 1.39313 0
M  V30 2056 H 194.808 -2.87908 1.2048 0
M  V30 2057 N 195.109 -0.891671 -1.2995 0
M  V30 2058 C 196.357 -0.512486 -1.95494 0
M  V30 2059 C 196.678 0.942776 -1.70695 0
M  V30 2060 O 195.948 1.66374 -1.03424 0
M  V30 2061 H 194.528 -0.186533 -0.723336 0
M  V30 2062 H 197.19 -1.13621 -1.58355 0
M  V30 2063 H 196.286 -0.688342 -3.04415 0
M  V30 2064 N 196.587 1.43421 -0.653314 0
M  V30 2065 C 197.833 2.02641 -0.175593 0
M  V30 2066 C 198.188 1.5062 1.19713 0
M  V30 2067 O 197.481 0.689697 1.78756 0
M  V30 2068 C 197.675 3.57176 -0.126623 0
M  V30 2069 C 197.504 4.24191 -1.49306 0
M  V30 2070 C 196.274 4.60257 -2.08547 0
M  V30 2071 C 198.472 4.53193 -2.43148 0
M  V30 2072 N 196.454 5.12345 -3.38194 0
M  V30 2073 C 197.825 5.06601 -3.57429 0
M  V30 2074 C 199.88 4.35161 -2.41949 0
M  V30 2075 C 198.583 5.43875 -4.70736 0
M  V30 2076 C 200.609 4.73498 -3.54336 0
M  V30 2077 C 199.971 5.27039 -4.67343 0
M  V30 2078 H 196.07 0.77441 -0.108686 0
M  V30 2079 H 198.654 1.74596 -0.861638 0
M  V30 2080 H 196.825 3.84784 0.528766 0
M  V30 2081 H 198.557 4.03078 0.36198 0
M  V30 2082 H 195.312 4.45302 -1.61255 0
M  V30 2083 H 195.736 5.42842 -4.04538 0
M  V30 2084 H 200.378 3.9304 -1.55818 0
M  V30 2085 H 198.096 5.8494 -5.57558 0
M  V30 2086 H 201.682 4.61241 -3.5461 0
M  V30 2087 H 200.562 5.56153 -5.52868 0
M  V30 2088 N 198.065 0.39524 1.52563 0
M  V30 2089 C 199.313 -0.184678 2.01254 0
M  V30 2090 C 199.634 -1.46822 1.28329 0
M  V30 2091 O 198.904 -1.91666 0.405094 0
M  V30 2092 H 197.484 -0.0712355 0.743596 0
M  V30 2093 H 200.146 0.528293 1.87603 0
M  V30 2094 H 199.242 -0.390681 3.09645 0
M  V30 2095 N 199.544 -1.57102 0.125237 0
M  V30 2096 C 200.492 -2.16905 -0.839927 0
M  V30 2097 C 201.486 -1.11998 -1.27094 0
M  V30 2098 O 202.692 -1.3029 -1.24195 0
M  V30 2099 H 199.067 -0.694252 -0.288995 0
M  V30 2100 H 201.038 -2.96774 -0.311115 0
M  V30 2101 C 199.787 -2.78795 -2.07771 0
M  V30 2102 H 199.11 -3.59221 -1.755 0
M  V30 2103 H 200.55 -3.2417 -2.73295 0
M  V30 2104 C 199.009 -1.76193 -2.87155 0
M  V30 2105 O 199.539 -1.21909 -3.82755 0
M  V30 2106 N 197.745 -1.45991 -2.51267 0
M  V30 2107 H 197.292 -1.90325 -1.73592 0
M  V30 2108 H 197.25 -0.775844 -3.04677 0
M  V30 2109 N 201.022 0.148545 -1.56898 0
M  V30 2110 C 202.438 0.501131 -1.51528 0
M  V30 2111 C 202.638 1.83458 -0.833399 0
M  V30 2112 O 201.694 2.49259 -0.40328 0
M  V30 2113 C 203.007 0.512864 -2.96294 0
M  V30 2114 C 204.555 0.598487 -3.07225 0
M  V30 2115 C 205.03 0.640897 -4.53494 0
M  V30 2116 N 206.521 0.703163 -4.57832 0
M  V30 2117 C 207.256 0.756935 -5.68382 0
M  V30 2118 N 206.752 0.770147 -6.88506 0
M  V30 2119 N 208.545 0.797698 -5.56411 0
M  V30 2120 H 200.696 -0.725532 -1.99624 0
M  V30 2121 H 202.959 -0.264358 -0.910395 0
M  V30 2122 H 202.665 -0.398691 -3.49433 0
M  V30 2123 H 202.539 1.35133 -3.52163 0
M  V30 2124 H 204.926 1.50046 -2.54106 0
M  V30 2125 H 205.007 -0.267093 -2.54402 0
M  V30 2126 H 204.651 -0.256915 -5.0725 0
M  V30 2127 H 204.581 1.52295 -5.04097 0
M  V30 2128 H 207.072 0.700314 -3.71354 0
M  V30 2129 H 207.385 0.812983 -7.68512 0
M  V30 2130 H 205.73 0.738049 -6.9107 0
M  V30 2131 H 208.921 0.784535 -4.61479 0
M  V30 2132 H 209.094 0.83614 -6.42583 0
M  V30 2133 N 202.5 1.5196 0.417844 0
M  V30 2134 C 203.916 1.40569 0.755816 0
M  V30 2135 C 204.116 0.503316 1.95113 0
M  V30 2136 O 203.172 -0.0341925 2.52477 0
M  V30 2137 C 204.485 2.82947 1.01791 0
M  V30 2138 C 206.033 2.92231 1.12116 0
M  V30 2139 C 206.508 4.35559 1.41608 0
M  V30 2140 N 207.999 4.38753 1.48491 0
M  V30 2141 C 208.734 5.46705 1.7292 0
M  V30 2142 N 208.23 6.64788 1.95011 0
M  V30 2143 N 210.023 5.34209 1.74863 0
M  V30 2144 H 202.174 2.09168 -0.369098 0
M  V30 2145 H 204.437 0.942409 -0.102809 0
M  V30 2146 H 204.143 3.5106 0.212081 0
M  V30 2147 H 204.017 3.23462 1.94042 0
M  V30 2148 H 206.404 2.24304 1.9176 0
M  V30 2149 H 206.485 2.55185 0.177225 0
M  V30 2150 H 206.129 5.04042 0.624848 0
M  V30 2151 H 206.059 4.70133 2.37239 0
M  V30 2152 H 208.55 3.5363 1.33244 0
M  V30 2153 H 208.863 7.42845 2.13076 0
M  V30 2154 H 207.208 6.67869 1.92293 0
M  V30 2155 H 210.399 4.40937 1.57137 0
M  V30 2156 H 210.572 6.18415 1.93563 0
M  V30 2157 N 203.978 -0.674533 1.42435 0
M  V30 2158 C 205.206 -1.46283 1.46317 0
M  V30 2159 C 205.621 -1.88653 0.0745836 0
M  V30 2160 O 204.978 -1.58151 -0.91074 0
M  V30 2161 C 205.029 -2.71178 2.3905 0
M  V30 2162 O 204.75 -2.30586 3.72507 0
M  V30 2163 C 206.251 -3.64738 2.51955 0
M  V30 2164 H 203.471 -0.450104 0.497642 0
M  V30 2165 H 206.015 -0.828792 1.86953 0
M  V30 2166 H 204.17 -3.3077 2.01667 0
M  V30 2167 H 204.584 -3.11241 4.22172 0
M  V30 2168 H 206.058 -4.49096 3.20962 0
M  V30 2169 H 206.535 -4.10656 1.55752 0
M  V30 2170 H 207.141 -3.11038 2.90061 0
M  V30 2171 N 205.456 -1.28612 -0.910864 0
M  V30 2172 C 206.705 -1.15311 -1.65488 0
M  V30 2173 C 207.018 0.296999 -1.93332 0
M  V30 2174 O 208.224 0.551168 -2.65847 0
M  V30 2175 C 206.68 -2.01599 -2.98137 0
M  V30 2176 C 206.288 -3.51367 -2.7793 0
M  V30 2177 C 208.032 -1.96993 -3.76024 0
M  V30 2178 C 205.939 -4.29797 -4.06237 0
M  V30 2179 H 204.869 -0.42796 -0.620779 0
M  V30 2180 H 207.52 -1.53166 -1.01057 0
M  V30 2181 H 205.902 -1.56603 -3.63719 0
M  V30 2182 H 207.076 -4.0434 -2.21011 0
M  V30 2183 H 205.391 -3.57529 -2.13452 0
M  V30 2184 H 207.988 -2.52856 -4.71135 0
M  V30 2185 H 208.331 -0.94733 -4.05378 0
M  V30 2186 H 208.864 -2.39973 -3.17266 0
M  V30 2187 H 205.603 -5.32648 -3.82055 0
M  V30 2188 H 205.123 -3.81596 -4.62757 0
M  V30 2189 H 206.802 -4.39869 -4.74473 0
M  V30 2190 N 206.934 1.1197 -1.10907 0
M  V30 2191 C 207.866 2.17592 -0.720175 0
M  V30 2192 C 208.879 1.60938 0.245495 0
M  V30 2193 O 210.068 1.78476 0.0292245 0
M  V30 2194 C 207.168 3.38873 -0.0427917 0
M  V30 2195 C 206.341 4.25006 -1.03388 0
M  V30 2196 C 205.4 5.24774 -0.387075 0
M  V30 2197 O 204.426 5.59631 -1.03934 0
M  V30 2198 N 205.628 5.74208 0.852407 0
M  V30 2199 H 208.393 2.51567 -1.62893 0
M  V30 2200 H 205.954 1.27439 -0.998543 0
M  V30 2201 H 207.946 4.02703 0.401501 0
M  V30 2202 H 206.516 3.03007 0.768456 0
M  V30 2203 H 205.736 3.57716 -1.65629 0
M  V30 2204 H 207.024 4.79397 -1.70458 0
M  V30 2205 H 206.422 5.48062 1.40161 0
M  V30 2206 H 204.979 6.39901 1.23977 0
M  V30 2207 N 208.412 0.89855 1.29475 0
M  V30 2208 C 209.375 0.380272 2.26023 0
M  V30 2209 C 210.375 -0.484891 1.53315 0
M  V30 2210 O 211.565 -0.290108 1.71767 0
M  V30 2211 C 208.697 -0.45651 3.3783 0
M  V30 2212 H 209.89 1.23295 2.73383 0
M  V30 2213 H 207.443 0.676589 1.40897 0
M  V30 2214 H 208.178 -1.32922 2.95808 0
M  V30 2215 H 207.963 0.163393 3.91759 0
M  V30 2216 H 209.453 -0.810466 4.0966 0
M  V30 2217 N 209.89 -1.43072 0.660911 0
M  V30 2218 C 211.137 -2.01721 0.177445 0
M  V30 2219 C 211.465 -1.5218 -1.21126 0
M  V30 2220 O 210.72 -0.708659 -1.82419 0
M  V30 2221 C 211.019 -3.57103 0.145563 0
M  V30 2222 C 210.685 -4.26021 1.47705 0
M  V30 2223 C 209.347 -4.44563 1.84165 0
M  V30 2224 C 211.699 -4.64983 2.35458 0
M  V30 2225 C 209.027 -4.99334 3.0803 0
M  V30 2226 C 211.379 -5.21127 3.58622 0
M  V30 2227 C 210.043 -5.37884 3.95268 0
M  V30 2228 H 209.313 -0.73815 0.0649317 0
M  V30 2229 H 211.96 -1.71446 0.853144 0
M  V30 2230 H 210.265 -3.86965 -0.61361 0
M  V30 2231 H 211.962 -4.00248 -0.2455 0
M  V30 2232 H 208.552 -4.11939 1.18339 0
M  V30 2233 H 212.736 -4.50343 2.08579 0
M  V30 2234 H 207.992 -5.10493 3.36462 0
M  V30 2235 H 212.166 -5.50262 4.26831 0
M  V30 2236 H 209.793 -5.80089 4.91325 0
M  V30 2237 N 211.368 -0.403325 -1.52352 0
M  V30 2238 C 212.614 0.174605 -2.02047 0
M  V30 2239 C 212.947 1.45282 -1.28867 0
M  V30 2240 O 212.222 1.90483 -0.393257 0
M  V30 2241 C 212.505 0.428238 -3.57545 0
M  V30 2242 C 212.358 -0.866248 -4.4138 0
M  V30 2243 C 213.677 1.21287 -4.23057 0
M  V30 2244 H 210.796 0.0619851 -0.734389 0
M  V30 2245 H 213.438 -0.53565 -1.82293 0
M  V30 2246 H 211.588 1.03327 -3.74507 0
M  V30 2247 H 213.26 -1.50265 -4.3614 0
M  V30 2248 H 211.503 -1.47851 -4.07827 0
M  V30 2249 H 212.174 -0.643249 -5.48239 0
M  V30 2250 H 214.65 0.700703 -4.10158 0
M  V30 2251 H 213.526 1.35909 -5.31808 0
M  V30 2252 H 213.787 2.23193 -3.81625 0
M  V30 2253 N 212.846 1.57033 -0.133567 0
M  V30 2254 C 213.778 2.13176 0.841944 0
M  V30 2255 C 214.791 1.07794 1.22001 0
M  V30 2256 O 215.98 1.35117 1.16643 0
M  V30 2257 C 213.08 2.62847 2.13926 0
M  V30 2258 C 212.253 3.92486 1.93064 0
M  V30 2259 C 211.312 4.27605 3.0666 0
M  V30 2260 O 210.338 4.96168 2.78937 0
M  V30 2261 N 211.54 3.861 4.33483 0
M  V30 2262 H 214.305 2.97503 0.362192 0
M  V30 2263 H 211.866 1.61821 0.05042 0
M  V30 2264 H 213.858 2.83363 2.88942 0
M  V30 2265 H 212.428 1.83319 2.53205 0
M  V30 2266 H 211.648 3.80732 1.02159 0
M  V30 2267 H 212.936 4.77225 1.76447 0
M  V30 2268 H 212.334 3.30828 4.58878 0
M  V30 2269 H 210.891 4.11694 5.05323 0
M  V30 2270 N 214.325 -0.140222 1.56975 0
M  V30 2271 C 215.572 -0.851687 1.83719 0
M  V30 2272 C 215.9 -1.80862 0.715485 0
M  V30 2273 O 215.155 -1.93464 -0.294956 0
M  V30 2274 C 215.454 -1.65386 3.16832 0
M  V30 2275 C 215.12 -0.843112 4.42947 0
M  V30 2276 C 213.782 -0.619464 4.77196 0
M  V30 2277 C 216.134 -0.276582 5.20466 0
M  V30 2278 C 213.462 0.181312 5.8642 0
M  V30 2279 C 215.814 0.51127 6.30531 0
M  V30 2280 C 214.478 0.745432 6.63325 0
M  V30 2281 H 213.748 -0.311654 0.672274 0
M  V30 2282 H 216.395 -0.115006 1.91154 0
M  V30 2283 H 214.7 -2.46084 3.04877 0
M  V30 2284 H 216.397 -2.20793 3.34741 0
M  V30 2285 H 212.987 -1.0275 4.16101 0
M  V30 2286 H 217.171 -0.436632 4.94376 0
M  V30 2287 H 212.427 0.372165 6.10266 0
M  V30 2288 H 216.601 0.957354 6.89788 0
M  V30 2289 H 214.228 1.36778 7.47794 0
M  V30 2290 N 215.803 -1.52179 -0.40978 0
M  V30 2291 C 216.766 -1.74853 -1.48186 0
M  V30 2292 C 217.766 -0.618417 -1.48433 0
M  V30 2293 O 218.956 -0.886286 -1.49969 0
M  V30 2294 C 216.088 -1.8303 -2.87598 0
M  V30 2295 H 217.281 -2.70559 -1.29374 0
M  V30 2296 H 214.834 -1.42586 -0.640233 0
M  V30 2297 H 215.569 -0.89236 -3.11781 0
M  V30 2298 H 215.354 -2.65187 -2.88822 0
M  V30 2299 H 216.844 -2.02316 -3.65319 0
M  V30 2300 N 217.281 0.66697 -1.42791 0
M  V30 2301 C 218.191 1.80962 -1.49299 0
M  V30 2302 C 219.207 1.69775 -0.381108 0
M  V30 2303 O 220.383 1.91188 -0.633188 0
M  V30 2304 C 217.448 3.17156 -1.40045 0
M  V30 2305 C 216.509 3.40242 -2.6179 0
M  V30 2306 C 215.742 4.69939 -2.52969 0
M  V30 2307 O 215.965 5.48372 -1.56985 0
M  V30 2308 O 214.899 4.94441 -3.43237 0
M  V30 2309 H 218.725 1.78427 -2.45759 0
M  V30 2310 H 216.31 0.823713 -1.24641 0
M  V30 2311 H 218.192 3.98413 -1.37276 0
M  V30 2312 H 216.867 3.20312 -0.467138 0
M  V30 2313 H 215.774 2.58802 -2.70134 0
M  V30 2314 H 217.107 3.41923 -3.54047 0
M  V30 2315 N 218.759 1.29093 0.90403 0
M  V30 2316 C 219.987 1.19689 1.68766 0
M  V30 2317 C 220.402 -0.243113 1.87228 0
M  V30 2318 O 219.759 -1.16326 1.40621 0
M  V30 2319 C 219.81 1.90144 3.07453 0
M  V30 2320 O 219.531 3.2852 2.89838 0
M  V30 2321 C 221.032 1.87162 4.01852 0
M  V30 2322 H 218.252 0.415035 0.527244 0
M  V30 2323 H 220.796 1.7039 1.13082 0
M  V30 2324 H 218.951 1.43289 3.59926 0
M  V30 2325 H 219.365 3.63944 3.77684 0
M  V30 2326 H 220.839 2.41032 4.96596 0
M  V30 2327 H 221.316 0.84617 4.30972 0
M  V30 2328 H 221.922 2.33741 3.5531 0
M  V30 2329 N 220.237 -1.11381 1.11499 0
M  V30 2330 C 221.17 -2.16621 0.71769 0
M  V30 2331 C 222.148 -1.60058 -0.286413 0
M  V30 2332 O 223.332 -1.87613 -0.182689 0
M  V30 2333 C 220.459 -3.38646 0.0607265 0
M  V30 2334 C 219.505 -4.13874 1.03008 0
M  V30 2335 S 220.338 -4.70731 2.55289 0
M  V30 2336 C 221.494 -5.96079 1.90895 0
M  V30 2337 H 221.727 -2.49987 1.60915 0
M  V30 2338 H 219.26 -1.23015 0.933092 0
M  V30 2339 H 221.218 -4.09313 -0.311965 0
M  V30 2340 H 219.879 -3.03537 -0.807702 0
M  V30 2341 H 219.072 -5.01333 0.517853 0
M  V30 2342 H 218.674 -3.4897 1.34522 0
M  V30 2343 H 220.966 -6.65948 1.24577 0
M  V30 2344 H 221.909 -6.51946 2.76354 0
M  V30 2345 H 222.317 -5.47652 1.36885 0
M  V30 2346 N 221.715 -0.905404 -1.28997 0
M  V30 2347 C 222.962 -0.534248 -1.95325 0
M  V30 2348 C 223.29 0.920535 -1.71337 0
M  V30 2349 O 222.545 1.66861 -1.02254 0
M  V30 2350 C 222.844 -0.779906 -3.48787 0
M  V30 2351 C 222.51 -2.21293 -3.92861 0
M  V30 2352 C 221.172 -2.60475 -4.04606 0
M  V30 2353 C 223.524 -3.14587 -4.15553 0
M  V30 2354 C 220.852 -3.9212 -4.36416 0
M  V30 2355 C 223.204 -4.45787 -4.48839 0
M  V30 2356 C 221.868 -4.84834 -4.58794 0
M  V30 2357 H 221.138 -0.195495 -0.714747 0
M  V30 2358 H 223.785 -1.14514 -1.53488 0
M  V30 2359 H 222.09 -0.0861365 -3.91705 0
M  V30 2360 H 223.787 -0.472029 -3.98212 0
M  V30 2361 H 220.377 -1.89887 -3.84241 0
M  V30 2362 H 224.561 -2.85528 -4.0594 0
M  V30 2363 H 219.817 -4.22086 -4.42327 0
M  V30 2364 H 223.991 -5.18098 -4.65346 0
M  V30 2365 H 221.618 -5.86877 -4.83197 0
M  V30 2366 N 223.193 1.4272 -0.668489 0
M  V30 2367 C 224.609 1.55992 -0.33745 0
M  V30 2368 C 224.809 1.64933 1.15756 0
M  V30 2369 O 223.865 1.61278 1.94282 0
M  V30 2370 C 225.178 2.81314 -1.06222 0
M  V30 2371 C 226.726 2.95078 -1.04394 0
M  V30 2372 C 227.201 4.23252 -1.74991 0
M  V30 2373 N 228.692 4.3015 -1.71829 0
M  V30 2374 C 229.427 5.28127 -2.23315 0
M  V30 2375 N 228.923 6.32293 -2.83156 0
M  V30 2376 N 230.716 5.19882 -2.13726 0
M  V30 2377 H 222.867 1.3516 -1.63846 0
M  V30 2378 H 225.13 0.650174 -0.689912 0
M  V30 2379 H 224.836 2.80823 -2.11734 0
M  V30 2380 H 224.71 3.72012 -0.62344 0
M  V30 2381 H 227.097 2.951 0.0028244 0
M  V30 2382 H 227.178 2.05627 -1.52155 0
M  V30 2383 H 226.822 4.2399 -2.79633 0
M  V30 2384 H 226.752 5.11626 -1.24685 0
M  V30 2385 H 229.243 3.55499 -1.28175 0
M  V30 2386 H 229.556 7.03398 -3.20079 0
M  V30 2387 H 227.901 6.32873 -2.87223 0
M  V30 2388 H 231.092 4.37423 -1.66669 0
M  V30 2389 H 231.265 5.96077 -2.54158 0
M  V30 2390 N 224.671 0.411399 1.52136 0
M  V30 2391 C 225.581 -0.419774 2.30814 0
M  V30 2392 C 226.597 -1.0515 1.38634 0
M  V30 2393 O 227.773 -1.05252 1.71709 0
M  V30 2394 C 224.838 -1.52019 3.11594 0
M  V30 2395 C 223.899 -0.91129 4.19516 0
M  V30 2396 C 223.132 -1.95927 4.96436 0
M  V30 2397 O 223.355 -3.17775 4.73683 0
M  V30 2398 O 222.289 -1.56423 5.81219 0
M  V30 2399 H 226.115 0.221805 3.02889 0
M  V30 2400 H 223.7 0.174547 1.48377 0
M  V30 2401 H 225.582 -2.15898 3.61892 0
M  V30 2402 H 224.257 -2.14633 2.42311 0
M  V30 2403 H 223.164 -0.235157 3.7336 0
M  V30 2404 H 224.497 -0.32904 4.91099 0
M  V30 2405 N 226.149 -1.5696 0.141893 0
M  V30 2406 C 227.396 -1.9596 -0.510492 0
M  V30 2407 C 227.724 -1.02648 -1.65208 0
M  V30 2408 O 226.979 -0.0546947 -1.95624 0
M  V30 2409 C 227.278 -3.41242 -1.06249 0
M  V30 2410 C 226.944 -4.50882 -0.0398791 0
M  V30 2411 C 225.606 -4.80595 0.241247 0
M  V30 2412 C 227.958 -5.17058 0.65578 0
M  V30 2413 C 225.286 -5.73792 1.22393 0
M  V30 2414 C 227.638 -6.11313 1.62724 0
M  V30 2415 C 226.302 -6.39407 1.91612 0
M  V30 2416 H 225.572 -0.717068 -0.186802 0
M  V30 2417 H 228.219 -1.90142 0.227643 0
M  V30 2418 H 226.524 -3.43866 -1.87785 0
M  V30 2419 H 228.221 -3.68742 -1.57576 0
M  V30 2420 H 224.811 -4.27754 -0.269174 0
M  V30 2421 H 228.995 -4.94239 0.451779 0
M  V30 2422 H 224.251 -5.93853 1.45424 0
M  V30 2423 H 228.425 -6.61668 2.17183 0
M  V30 2424 H 226.052 -7.11427 2.6791 0
M  V30 2425 N 227.627 0.131896 -1.57047 0
M  V30 2426 C 228.577 1.1679 -1.95816 0
M  V30 2427 C 229.561 1.37756 -0.831393 0
M  V30 2428 O 230.753 1.39065 -1.09499 0
M  V30 2429 C 227.882 2.49778 -2.35512 0
M  V30 2430 C 226.968 2.32342 -3.54793 0
M  V30 2431 N 227.359 1.8469 -4.70875 0
M  V30 2432 C 225.657 2.63043 -3.60173 0
M  V30 2433 C 226.358 1.80656 -5.52936 0
M  V30 2434 N 225.334 2.24528 -4.95064 0
M  V30 2435 H 229.136 0.791818 -2.83033 0
M  V30 2436 H 226.65 0.339791 -1.58805 0
M  V30 2437 H 228.647 3.24692 -2.61498 0
M  V30 2438 H 227.307 2.88156 -1.49654 0
M  V30 2439 H 228.318 1.54429 -4.9434 0
M  V30 2440 H 224.995 3.05193 -2.84892 0
M  V30 2441 H 226.385 1.45178 -6.56028 0
M  V30 2442 N 229.106 1.52395 0.401703 0
M  V30 2443 C 230.354 1.66488 1.14569 0
M  V30 2444 C 230.675 0.400897 1.90835 0
M  V30 2445 O 229.945 -0.584415 1.8698 0
M  V30 2446 H 228.525 0.613672 0.425929 0
M  V30 2447 H 231.187 1.89464 0.457093 0
M  V30 2448 H 230.283 2.50942 1.85566 0
M  V30 2449 N 230.584 -0.659388 1.43143 0
M  V30 2450 C 231.531 -1.77249 1.47822 0
M  V30 2451 C 232.501 -1.62818 0.328558 0
M  V30 2452 O 233.686 -1.83151 0.534838 0
M  V30 2453 C 230.826 -3.15371 1.40126 0
M  V30 2454 C 229.939 -3.4098 2.65249 0
M  V30 2455 C 229.074 -4.68915 2.49584 0
M  V30 2456 C 228.113 -4.87608 3.70006 0
M  V30 2457 N 227.25 -6.06796 3.53189 0
M  V30 2458 H 232.09 -1.72584 2.42938 0
M  V30 2459 H 229.627 -0.842297 1.20598 0
M  V30 2460 H 231.585 -3.9521 1.33659 0
M  V30 2461 H 230.215 -3.19121 0.485964 0
M  V30 2462 H 229.267 -2.55282 2.8202 0
M  V30 2463 H 230.579 -3.50681 3.54717 0
M  V30 2464 H 229.733 -5.56871 2.4079 0
M  V30 2465 H 228.472 -4.61524 1.5763 0
M  V30 2466 H 227.477 -3.9809 3.79215 0
M  V30 2467 H 228.702 -4.96834 4.62961 0
M  V30 2468 H 226.648 -6.00549 2.63965 0
M  V30 2469 H 226.565 -6.17428 4.36255 0
M  V30 2470 H 227.833 -6.9739 3.48236 0
M  V30 2471 N 232.062 -1.29571 -0.897171 0
M  V30 2472 C 233.311 -1.1706 -1.64256 0
M  V30 2473 C 233.624 0.276476 -1.93636 0
M  V30 2474 O 234.83 0.52294 -2.66416 0
M  V30 2475 C 233.286 -2.0475 -2.95982 0
M  V30 2476 C 232.894 -3.54295 -2.74187 0
M  V30 2477 C 234.638 -2.0097 -3.73914 0
M  V30 2478 C 232.545 -4.34081 -4.01656 0
M  V30 2479 H 231.475 -0.43452 -0.616205 0
M  V30 2480 H 234.126 -1.54229 -0.994268 0
M  V30 2481 H 232.508 -1.60452 -3.62038 0
M  V30 2482 H 233.682 -4.06662 -2.1671 0
M  V30 2483 H 231.997 -3.59773 -2.09648 0
M  V30 2484 H 234.594 -2.57838 -4.68427 0
M  V30 2485 H 234.937 -0.990273 -4.0435 0
M  V30 2486 H 235.47 -2.43325 -3.14703 0
M  V30 2487 H 232.209 -5.36671 -3.76384 0
M  V30 2488 H 231.729 -3.86483 -4.58684 0
M  V30 2489 H 233.408 -4.44877 -4.69781 0
M  V30 2490 N 233.54 1.10788 -1.12088 0
M  V30 2491 C 234.472 2.16816 -0.743213 0
M  V30 2492 C 235.485 1.6119 0.228412 0
M  V30 2493 O 236.674 1.78497 0.0102931 0
M  V30 2494 C 233.774 3.38809 -0.0787313 0
M  V30 2495 C 232.947 4.23885 -1.0789 0
M  V30 2496 C 232.006 5.24334 -0.442713 0
M  V30 2497 O 231.032 5.58497 -1.09864 0
M  V30 2498 N 232.234 5.75079 0.791457 0
M  V30 2499 H 234.999 2.49825 -1.65552 0
M  V30 2500 H 232.56 1.26373 -1.012 0
M  V30 2501 H 234.552 4.03107 0.358766 0
M  V30 2502 H 233.122 3.03805 0.736275 0
M  V30 2503 H 232.342 3.55939 -1.69414 0
M  V30 2504 H 233.63 4.77562 -1.75533 0
M  V30 2505 H 233.028 5.49517 1.3434 0
M  V30 2506 H 231.585 6.4118 1.17183 0
M  V30 2507 N 235.018 0.912232 1.28515 0
M  V30 2508 C 235.968 0.370649 2.24967 0
M  V30 2509 C 236.952 -0.516375 1.52389 0
M  V30 2510 O 238.144 -0.356345 1.73376 0
M  V30 2511 C 235.273 -0.389526 3.41083 0
M  V30 2512 C 234.359 0.51313 4.20984 0
M  V30 2513 N 234.75 1.62604 4.78951 0
M  V30 2514 C 233.048 0.313235 4.44899 0
M  V30 2515 C 233.749 2.18619 5.39055 0
M  V30 2516 N 232.725 1.47765 5.23132 0
M  V30 2517 H 236.527 1.22061 2.67354 0
M  V30 2518 H 234.041 0.764712 1.43269 0
M  V30 2519 H 236.038 -0.794353 4.09262 0
M  V30 2520 H 234.698 -1.2366 3.0023 0
M  V30 2521 H 235.709 2.00864 4.77362 0
M  V30 2522 H 232.386 -0.494452 4.14562 0
M  V30 2523 H 233.776 3.12228 5.94948 0
M  V30 2524 N 236.496 -1.42363 0.676048 0
M  V30 2525 C 237.742 -2.02336 0.207809 0
M  V30 2526 C 238.097 -1.52506 -1.17302 0
M  V30 2527 O 237.39 -0.718048 -1.77636 0
M  V30 2528 C 237.584 -3.56929 0.183431 0
M  V30 2529 C 237.413 -4.21762 1.56036 0
M  V30 2530 C 236.183 -4.56881 2.15842 0
M  V30 2531 C 238.381 -4.49267 2.50327 0
M  V30 2532 N 236.363 -5.069 3.46303 0
M  V30 2533 C 237.734 -5.00851 3.65443 0
M  V30 2534 C 239.789 -4.31257 2.48841 0
M  V30 2535 C 238.492 -5.36317 4.79329 0
M  V30 2536 C 240.518 -4.678 3.61824 0
M  V30 2537 C 239.88 -5.19537 4.75668 0
M  V30 2538 H 235.979 -0.772583 0.120993 0
M  V30 2539 H 238.563 -1.73203 0.889306 0
M  V30 2540 H 236.734 -3.85576 -0.467483 0
M  V30 2541 H 238.466 -4.03603 -0.297808 0
M  V30 2542 H 235.221 -4.4268 1.68319 0
M  V30 2543 H 235.645 -5.36338 4.13123 0
M  V30 2544 H 240.287 -3.90511 1.62051 0
M  V30 2545 H 238.005 -5.75995 5.66794 0
M  V30 2546 H 241.591 -4.55541 3.61903 0
M  V30 2547 H 240.471 -5.47287 5.61646 0
M  V30 2548 N 237.974 -0.419461 -1.51915 0
M  V30 2549 C 238.904 0.391813 -2.30189 0
M  V30 2550 C 239.885 1.03699 -1.34836 0
M  V30 2551 O 241.07 1.04403 -1.63748 0
M  V30 2552 C 238.2 1.50312 -3.13087 0
M  V30 2553 C 237.154 0.9824 -4.16573 0
M  V30 2554 C 236.48 2.18809 -4.8788 0
M  V30 2555 C 237.78 0.0292356 -5.22292 0
M  V30 2556 H 239.474 -0.26135 -2.98257 0
M  V30 2557 H 237.02 -0.127134 -1.43438 0
M  V30 2558 H 238.973 2.07773 -3.66617 0
M  V30 2559 H 237.697 2.18431 -2.42807 0
M  V30 2560 H 236.356 0.430119 -3.64068 0
M  V30 2561 H 236.004 2.85507 -4.14119 0
M  V30 2562 H 235.704 1.84615 -5.57845 0
M  V30 2563 H 237.228 2.76858 -5.44226 0
M  V30 2564 H 238.642 0.512976 -5.71 0
M  V30 2565 H 237.039 -0.2244 -5.9968 0
M  V30 2566 H 238.109 -0.912931 -4.76228 0
M  V30 2567 N 239.452 1.56882 -0.150215 0
M  V30 2568 C 240.68 2.00593 0.506948 0
M  V30 2569 C 241.095 1.03033 1.58208 0
M  V30 2570 O 240.452 0.0278396 1.82479 0
M  V30 2571 C 240.503 3.44209 1.10465 0
M  V30 2572 O 240.224 4.3804 0.0724636 0
M  V30 2573 C 241.725 4.03214 1.84211 0
M  V30 2574 H 238.945 0.65795 0.13169 0
M  V30 2575 H 241.489 2.03018 -0.245743 0
M  V30 2576 H 239.644 3.42625 1.80795 0
M  V30 2577 H 240.058 5.22007 0.510793 0
M  V30 2578 H 241.532 5.0569 2.21318 0
M  V30 2579 H 242.009 3.44107 2.72923 0
M  V30 2580 H 242.615 4.08437 1.18572 0
M  V30 2581 N 240.93 -0.123565 1.57115 0
M  V30 2582 C 242.177 -0.832153 1.84612 0
M  V30 2583 C 242.505 -1.80093 0.734627 0
M  V30 2584 O 241.76 -1.93766 -0.27442 0
M  V30 2585 C 242.059 -1.62016 3.18568 0
M  V30 2586 C 241.725 -0.796084 4.43817 0
M  V30 2587 C 240.387 -0.568816 4.77826 0
M  V30 2588 C 242.739 -0.221364 5.2073 0
M  V30 2589 C 240.067 0.243499 5.86194 0
M  V30 2590 C 242.419 0.578117 6.29953 0
M  V30 2591 C 241.083 0.815744 6.62497 0
M  V30 2592 H 240.353 -0.304507 0.675542 0
M  V30 2593 H 243 -0.0947248 1.91266 0
M  V30 2594 H 241.305 -2.42837 3.0747 0
M  V30 2595 H 243.002 -2.17231 3.37064 0
M  V30 2596 H 239.592 -0.983307 4.17168 0
M  V30 2597 H 243.776 -0.384173 4.94811 0
M  V30 2598 H 239.032 0.436871 6.09837 0
M  V30 2599 H 243.206 1.03046 6.88734 0
M  V30 2600 H 240.833 1.44701 7.46301 0
M  V30 2601 N 242.408 -1.52605 -0.393616 0
M  V30 2602 C 243.356 -1.77688 -1.50099 0
M  V30 2603 C 244.35 -0.644615 -1.56656 0
M  V30 2604 O 245.556 -0.826997 -1.59877 0
M  V30 2605 H 241.931 -0.562159 -0.499481 0
M  V30 2606 H 243.902 -2.7043 -1.26135 0
M  V30 2607 C 242.651 -1.95858 -2.87289 0
M  V30 2608 H 241.974 -2.8241 -2.82992 0
M  V30 2609 H 243.414 -2.174 -3.64024 0
M  V30 2610 C 241.873 -0.729848 -3.28899 0
M  V30 2611 O 242.403 0.0949217 -4.01588 0
M  V30 2612 N 240.609 -0.561283 -2.85128 0
M  V30 2613 H 240.156 -1.23357 -2.26143 0
M  V30 2614 H 240.114 0.2595 -3.13327 0
M  V30 2615 N 243.887 0.651787 -1.4349 0
M  V30 2616 C 244.797 1.79368 -1.5121 0
M  V30 2617 C 245.813 1.69361 -0.399093 0
M  V30 2618 O 246.989 1.90505 -0.653431 0
M  V30 2619 C 244.054 3.15653 -1.43401 0
M  V30 2620 C 243.115 3.37446 -2.65384 0
M  V30 2621 C 242.348 4.67229 -2.57939 0
M  V30 2622 O 242.571 5.46676 -1.62792 0
M  V30 2623 O 241.505 4.90773 -3.48462 0
M  V30 2624 H 245.331 1.7581 -2.47638 0
M  V30 2625 H 242.916 0.810447 -1.25507 0
M  V30 2626 H 244.798 3.96935 -1.41494 0
M  V30 2627 H 243.473 3.19798 -0.501085 0
M  V30 2628 H 242.38 2.55923 -2.72863 0
M  V30 2629 H 243.713 3.38148 -3.57654 0
M  V30 2630 N 245.365 1.30045 0.890287 0
M  V30 2631 C 246.776 1.16738 1.45702 0
M  V30 2632 C 247.127 -0.233939 1.948 0
M  V30 2633 O 246.252 -1.13021 1.84541 0
M  V30 2634 C 246.847 2.11313 2.64825 0
M  V30 2635 C 245.406 2.02001 3.17604 0
M  V30 2636 C 244.553 2.01699 1.90296 0
M  V30 2637 H 247.504 1.42392 0.700726 0
M  V30 2638 H 247.525 1.69086 3.40867 0
M  V30 2639 H 247.037 3.13294 2.2906 0
M  V30 2640 H 245.138 1.03142 3.5804 0
M  V30 2641 H 245.251 2.90128 3.81264 0
M  V30 2642 H 243.615 1.46427 2.08402 0
M  V30 2643 H 244.398 3.05402 1.56795 0
M  V30 2644 N 246.843 -1.10192 1.12674 0
M  V30 2645 C 248.089 -1.82658 0.894847 0
M  V30 2646 C 248.444 -1.83666 -0.573107 0
M  V30 2647 O 247.737 -1.28816 -1.41835 0
M  V30 2648 C 247.931 -3.28552 1.4067 0
M  V30 2649 C 247.76 -3.41756 2.92289 0
M  V30 2650 C 246.53 -3.54021 3.60551 0
M  V30 2651 C 248.728 -3.34949 3.90274 0
M  V30 2652 N 246.71 -3.55827 5.0026 0
M  V30 2653 C 248.081 -3.43531 5.16127 0
M  V30 2654 C 250.136 -3.18565 3.8265 0
M  V30 2655 C 248.839 -3.37416 6.3525 0
M  V30 2656 C 250.865 -3.13772 5.01299 0
M  V30 2657 C 250.227 -3.22938 6.26012 0
M  V30 2658 H 246.326 -0.683044 0.380756 0
M  V30 2659 H 248.91 -1.31752 1.43351 0
M  V30 2660 H 247.081 -3.77946 0.895055 0
M  V30 2661 H 248.813 -3.88991 1.11661 0
M  V30 2662 H 245.568 -3.57135 3.1105 0
M  V30 2663 H 245.992 -3.60335 5.73138 0
M  V30 2664 H 250.634 -3.10354 2.87124 0
M  V30 2665 H 248.352 -3.44391 7.3104 0
M  V30 2666 H 251.938 -3.02242 4.97133 0
M  V30 2667 H 250.818 -3.19235 7.16281 0
M  V30 2668 N 248.321 -0.919034 -1.28029 0
M  V30 2669 C 249.561 -0.562107 -1.96519 0
M  V30 2670 C 249.925 0.878784 -1.70708 0
M  V30 2671 O 251.126 1.34355 -2.32813 0
M  V30 2672 C 249.397 -0.868953 -3.46676 0
M  V30 2673 S 250.956 -0.619237 -4.34409 0
M  V30 2674 H 247.774 -0.2078 -0.679956 0
M  V30 2675 H 250.376 -1.18562 -1.55446 0
M  V30 2676 H 249.08 -1.91547 -3.62957 0
M  V30 2677 H 248.611 -0.234301 -3.92702 0
M  V30 2678 H 250.626 0.526995 -4.93394 0
M  V30 2679 N 249.799 1.42003 -0.683588 0
M  V30 2680 C 251.048 2.00638 -0.206681 0
M  V30 2681 C 251.361 1.5472 1.19671 0
M  V30 2682 O 252.567 2.05833 1.77045 0
M  V30 2683 C 251.023 3.58487 -0.318632 0
M  V30 2684 C 250.631 4.1339 -1.72663 0
M  V30 2685 C 252.375 4.24384 0.0991141 0
M  V30 2686 C 250.282 5.63633 -1.79087 0
M  V30 2687 H 249.212 0.750408 -0.0735107 0
M  V30 2688 H 251.863 1.62624 -0.850048 0
M  V30 2689 H 250.245 3.94047 0.392781 0
M  V30 2690 H 251.419 3.89273 -2.46583 0
M  V30 2691 H 249.734 3.59976 -2.09299 0
M  V30 2692 H 252.331 5.34652 0.0713833 0
M  V30 2693 H 252.674 4.00505 1.13586 0
M  V30 2694 H 253.207 3.93816 -0.561599 0
M  V30 2695 H 249.946 5.92323 -2.80774 0
M  V30 2696 H 249.466 5.89714 -1.09535 0
M  V30 2697 H 251.145 6.28201 -1.5483 0
M  V30 2698 N 251.277 0.427512 1.51691 0
M  V30 2699 C 252.24 -0.377132 2.26076 0
M  V30 2700 C 253.24 -0.958089 1.29141 0
M  V30 2701 O 254.43 -0.83408 1.52934 0
M  V30 2702 C 251.562 -1.53262 3.04506 0
M  V30 2703 H 252.755 0.27464 2.9864 0
M  V30 2704 H 250.308 0.180445 1.55255 0
M  V30 2705 H 251.043 -2.22072 2.36335 0
M  V30 2706 H 250.828 -1.12232 3.75694 0
M  V30 2707 H 252.318 -2.10135 3.60878 0
M  V30 2708 N 252.755 -1.56801 0.158532 0
M  V30 2709 C 254.002 -1.9649 -0.489679 0
M  V30 2710 C 254.33 -1.04394 -1.6411 0
M  V30 2711 O 253.585 -0.0754401 -1.95555 0
M  V30 2712 C 253.884 -3.4235 -1.02623 0
M  V30 2713 C 253.55 -4.50899 0.00794526 0
M  V30 2714 C 252.212 -4.80312 0.292207 0
M  V30 2715 C 254.564 -5.16333 0.710584 0
M  V30 2716 C 251.892 -5.72461 1.28472 0
M  V30 2717 C 254.244 -6.09553 1.69199 0
M  V30 2718 C 252.908 -6.37339 1.98383 0
M  V30 2719 H 252.178 -0.719009 -0.179186 0
M  V30 2720 H 254.825 -1.8989 0.247798 0
M  V30 2721 H 253.13 -3.45838 -1.84128 0
M  V30 2722 H 254.827 -3.70393 -1.53656 0
M  V30 2723 H 251.417 -4.28015 -0.22379 0
M  V30 2724 H 255.601 -4.93732 0.504174 0
M  V30 2725 H 250.857 -5.92278 1.51714 0
M  V30 2726 H 255.031 -6.59327 2.24189 0
M  V30 2727 H 252.658 -7.08546 2.7544 0
M  V30 2728 N 254.233 0.115231 -1.57178 0
M  V30 2729 C 255.163 1.1423 -2.03651 0
M  V30 2730 C 256.144 1.42967 -0.921655 0
M  V30 2731 O 257.329 1.53343 -1.19162 0
M  V30 2732 C 254.459 2.4675 -2.44401 0
M  V30 2733 C 253.413 2.32467 -3.59365 0
M  V30 2734 C 252.739 3.69984 -3.86026 0
M  V30 2735 C 254.039 1.78203 -4.90959 0
M  V30 2736 H 255.733 0.755749 -2.89705 0
M  V30 2737 H 253.279 0.362093 -1.39373 0
M  V30 2738 H 255.232 3.18854 -2.75517 0
M  V30 2739 H 253.956 2.87302 -1.55322 0
M  V30 2740 H 252.615 1.62811 -3.28463 0
M  V30 2741 H 252.263 4.08028 -2.94147 0
M  V30 2742 H 251.963 3.61279 -4.63412 0
M  V30 2743 H 253.487 4.43587 -4.19599 0
M  V30 2744 H 254.901 2.40128 -5.20587 0
M  V30 2745 H 253.298 1.8031 -5.72371 0
M  V30 2746 H 254.368 0.739876 -4.79222 0
M  V30 2747 N 255.711 1.52812 0.385517 0
M  V30 2748 C 256.936 1.72207 1.15583 0
M  V30 2749 C 257.361 0.441034 1.82857 0
M  V30 2750 O 256.719 -0.603465 1.70962 0
M  V30 2751 C 256.767 2.87476 2.17692 0
M  V30 2752 O 255.871 2.54693 3.24354 0
M  V30 2753 H 255.212 0.572526 0.336319 0
M  V30 2754 H 257.742 1.99618 0.448744 0
M  V30 2755 H 257.752 3.13072 2.6163 0
M  V30 2756 H 256.427 3.80408 1.68115 0
M  V30 2757 H 255.004 2.3985 2.85529 0
M  V30 2758 N 257.189 -0.644168 1.43834 0
M  V30 2759 C 258.137 -1.77793 1.49974 0
M  V30 2760 C 259.131 -1.65253 0.372536 0
M  V30 2761 O 260.337 -1.7149 0.546924 0
M  V30 2762 H 256.712 -0.58675 0.47035 0
M  V30 2763 H 258.683 -1.69736 2.45423 0
M  V30 2764 C 257.432 -3.16087 1.4486 0
M  V30 2765 H 256.755 -3.26378 2.30905 0
M  V30 2766 H 258.195 -3.95349 1.53217 0
M  V30 2767 C 256.654 -3.36484 0.167463 0
M  V30 2768 O 257.184 -3.94298 -0.767609 0
M  V30 2769 N 255.39 -2.90504 0.0747556 0
M  V30 2770 H 254.937 -2.4364 0.836507 0
M  V30 2771 H 254.895 -3.04527 -0.781714 0
M  V30 2772 N 258.668 -1.30515 -0.883378 0
M  V30 2773 C 259.601 -1.11359 -1.99184 0
M  V30 2774 C 260.579 -0.0207858 -1.62587 0
M  V30 2775 O 261.763 -0.174646 -1.87689 0
M  V30 2776 C 258.89 -0.69871 -3.31415 0
M  V30 2777 C 257.936 -1.79261 -3.86998 0
M  V30 2778 S 258.769 -3.39536 -4.14096 0
M  V30 2779 C 259.925 -2.99954 -5.49344 0
M  V30 2780 H 260.158 -2.052 -2.15128 0
M  V30 2781 H 257.691 -1.14847 -1.03196 0
M  V30 2782 H 259.649 -0.466075 -4.07846 0
M  V30 2783 H 258.31 0.220368 -3.13326 0
M  V30 2784 H 257.503 -1.45464 -4.82552 0
M  V30 2785 H 257.105 -1.97961 -3.17313 0
M  V30 2786 H 259.397 -2.48013 -6.30473 0
M  V30 2787 H 260.34 -3.9442 -5.8808 0
M  V30 2788 H 260.748 -2.37775 -5.1198 0
M  V30 2789 N 260.146 1.09593 -1.13257 0
M  V30 2790 C 261.076 2.18214 -0.830946 0
M  V30 2791 C 262.057 1.68812 0.208966 0
M  V30 2792 O 263.242 1.9408 0.0682666 0
M  V30 2793 C 260.372 3.46051 -0.294296 0
M  V30 2794 C 259.326 4.08778 -1.26826 0
M  V30 2795 C 258.652 5.31419 -0.591449 0
M  V30 2796 C 259.952 4.51476 -2.62615 0
M  V30 2797 H 261.646 2.43703 -1.73923 0
M  V30 2798 H 259.192 1.17128 -0.837675 0
M  V30 2799 H 261.145 4.2134 -0.0709606 0
M  V30 2800 H 259.869 3.20079 0.649366 0
M  V30 2801 H 258.528 3.35505 -1.47756 0
M  V30 2802 H 258.176 5.01727 0.357633 0
M  V30 2803 H 257.876 5.74341 -1.24123 0
M  V30 2804 H 259.4 6.09433 -0.377355 0
M  V30 2805 H 260.814 5.17999 -2.45663 0
M  V30 2806 H 259.211 5.05277 -3.23752 0
M  V30 2807 H 260.281 3.63962 -3.20406 0
M  V30 2808 N 261.624 0.925811 1.2754 0
M  V30 2809 C 262.872 0.564138 1.94067 0
M  V30 2810 C 263.193 -0.897188 1.73134 0
M  V30 2811 O 262.463 -1.63573 1.07799 0
M  V30 2812 H 261.043 0.205645 0.718136 0
M  V30 2813 H 263.705 1.1778 1.55287 0
M  V30 2814 H 262.801 0.76881 3.02483 0
M  V30 2815 N 263.102 -1.41638 0.69111 0
M  V30 2816 C 264.348 -2.01598 0.220519 0
M  V30 2817 C 264.681 -1.54594 -1.17535 0
M  V30 2818 O 263.956 -0.755177 -1.79241 0
M  V30 2819 C 264.239 -3.59062 0.273243 0
M  V30 2820 C 264.092 -4.16203 1.70573 0
M  V30 2821 C 265.411 -4.38546 -0.369457 0
M  V30 2822 H 262.53 -0.732468 0.0816045 0
M  V30 2823 H 265.172 -1.68445 0.878986 0
M  V30 2824 H 263.322 -3.87435 -0.287411 0
M  V30 2825 H 264.994 -3.98722 2.31989 0
M  V30 2826 H 263.237 -3.71414 2.2413 0
M  V30 2827 H 263.908 -5.25358 1.69419 0
M  V30 2828 H 266.384 -4.1596 0.107977 0
M  V30 2829 H 265.26 -5.48069 -0.302002 0
M  V30 2830 H 265.521 -4.17662 -1.44951 0
M  V30 2831 N 264.58 -0.43555 -1.51462 0
M  V30 2832 C 265.53 0.394701 -2.24558 0
M  V30 2833 C 266.514 0.99157 -1.26715 0
M  V30 2834 O 267.706 0.910007 -1.51815 0
M  V30 2835 C 264.835 1.4963 -3.08975 0
M  V30 2836 C 263.921 0.908912 -4.14246 0
M  V30 2837 N 264.312 0.0505335 -5.05775 0
M  V30 2838 C 262.61 1.17668 -4.30198 0
M  V30 2839 C 263.311 -0.279161 -5.8103 0
M  V30 2840 N 262.287 0.336767 -5.42556 0
M  V30 2841 H 266.089 -0.267106 -2.92684 0
M  V30 2842 H 263.603 -0.247518 -1.60503 0
M  V30 2843 H 265.6 2.10394 -3.59917 0
M  V30 2844 H 264.26 2.16046 -2.42393 0
M  V30 2845 H 265.271 -0.31577 -5.16936 0
M  V30 2846 H 261.948 1.83847 -3.74842 0
M  V30 2847 H 263.338 -0.977553 -6.64751 0
M  V30 2848 N 266.058 1.56714 -0.166846 0
M  V30 2849 C 267.021 2.16539 0.751232 0
M  V30 2850 C 268.021 1.11228 1.16125 0
M  V30 2851 O 269.211 1.36765 1.07894 0
M  V30 2852 C 266.343 2.74462 2.02196 0
M  V30 2853 H 267.536 2.99013 0.230499 0
M  V30 2854 H 265.089 1.56081 0.0826982 0
M  V30 2855 H 265.824 1.95709 2.58589 0
M  V30 2856 H 265.609 3.51527 1.73698 0
M  V30 2857 H 267.099 3.20489 2.67725 0
M  V30 2858 N 267.536 -0.106894 1.57237 0
M  V30 2859 C 268.947 -0.662723 1.74542 0
M  V30 2860 C 269.298 -1.7971 0.787319 0
M  V30 2861 O 268.423 -2.16368 -0.0369636 0
M  V30 2862 C 269.018 -1.20896 3.16496 0
M  V30 2863 C 267.577 -1.71096 3.35266 0
M  V30 2864 C 266.724 -0.615642 2.7038 0
M  V30 2865 H 269.675 0.119106 1.58252 0
M  V30 2866 H 269.696 -2.07847 3.18716 0
M  V30 2867 H 269.208 -0.383122 3.86204 0
M  V30 2868 H 267.309 -2.56119 2.70618 0
M  V30 2869 H 267.422 -1.81208 4.43509 0
M  V30 2870 H 265.786 -1.05222 2.31949 0
M  V30 2871 H 266.569 0.199419 3.4272 0
M  V30 2872 N 269.014 -1.53014 -0.377408 0
M  V30 2873 C 270.262 -1.6829 -1.11906 0
M  V30 2874 C 270.583 -0.431206 -1.90173 0
M  V30 2875 O 269.853 0.554595 -1.87886 0
M  V30 2876 H 268.433 -0.620371 -0.416112 0
M  V30 2877 H 271.095 -1.90167 -0.426893 0
M  V30 2878 H 270.191 -2.53862 -1.8155 0
M  V30 2879 N 270.492 0.636531 -1.44174 0
M  V30 2880 C 271.422 1.76003 -1.53444 0
M  V30 2881 C 272.403 1.65619 -0.387841 0
M  V30 2882 O 273.588 1.84461 -0.607257 0
M  V30 2883 C 270.718 3.14511 -1.4731 0
M  V30 2884 C 269.672 3.39677 -2.60391 0
M  V30 2885 C 268.998 4.78159 -2.39308 0
M  V30 2886 C 270.298 3.32772 -4.02567 0
M  V30 2887 H 271.992 1.68501 -2.47483 0
M  V30 2888 H 269.538 0.809237 -1.19111 0
M  V30 2889 H 271.491 3.92878 -1.52397 0
M  V30 2890 H 270.215 3.22783 -0.49785 0
M  V30 2891 H 268.874 2.63688 -2.54684 0
M  V30 2892 H 268.522 4.83128 -1.39988 0
M  V30 2893 H 268.222 4.95956 -3.15122 0
M  V30 2894 H 269.746 5.58762 -2.46205 0
M  V30 2895 H 271.16 4.01051 -4.09672 0
M  V30 2896 H 269.557 3.62104 -4.7854 0
M  V30 2897 H 270.627 2.30669 -4.2652 0
M  V30 2898 N 271.97 1.30982 0.876444 0
M  V30 2899 C 273.198 1.23242 1.6619 0
M  V30 2900 C 273.613 -0.203345 1.87702 0
M  V30 2901 O 272.97 -1.13317 1.43057 0
M  V30 2902 C 273.021 1.96623 3.03351 0
M  V30 2903 O 272.742 3.34594 2.82804 0
M  V30 2904 C 274.243 1.95644 3.97792 0
M  V30 2905 H 271.463 0.426126 0.518322 0
M  V30 2906 H 274.007 1.7275 1.09442 0
M  V30 2907 H 272.162 1.50892 3.56806 0
M  V30 2908 H 272.576 3.71873 3.69879 0
M  V30 2909 H 274.05 2.51511 4.91372 0
M  V30 2910 H 274.527 0.937395 4.2908 0
M  V30 2911 H 275.133 2.41225 3.50272 0
M  V30 2912 N 273.449 -1.08991 1.13837 0
M  V30 2913 C 274.397 -2.17841 0.815347 0
M  V30 2914 C 275.391 -1.68164 -0.204233 0
M  V30 2915 O 276.597 -1.79897 -0.0609304 0
M  V30 2916 H 272.972 -0.710654 0.245915 0
M  V30 2917 H 274.943 -2.42315 1.74143 0
M  V30 2918 C 273.692 -3.46381 0.302614 0
M  V30 2919 H 273.015 -3.84979 1.0785 0
M  V30 2920 H 274.455 -4.23844 0.115074 0
M  V30 2921 C 272.914 -3.22556 -0.972591 0
M  V30 2922 O 273.444 -3.45599 -2.04754 0
M  V30 2923 N 271.65 -2.76134 -0.905455 0
M  V30 2924 H 271.197 -2.57582 -0.0305421 0
M  V30 2925 H 271.155 -2.60571 -1.75926 0
M  V30 2926 N 274.927 -0.932562 -1.27047 0
M  V30 2927 C 275.857 -0.452902 -2.29066 0
M  V30 2928 C 276.838 0.489338 -1.62909 0
M  V30 2929 O 278.023 0.393046 -1.90181 0
M  V30 2930 C 275.153 0.290698 -3.46081 0
M  V30 2931 C 274.107 -0.564168 -4.24265 0
M  V30 2932 C 273.433 0.308886 -5.33807 0
M  V30 2933 C 274.733 -1.83112 -4.89149 0
M  V30 2934 H 276.427 -1.30552 -2.69437 0
M  V30 2935 H 273.973 -0.629201 -1.29526 0
M  V30 2936 H 275.926 0.637233 -4.16554 0
M  V30 2937 H 274.65 1.17738 -3.0464 0
M  V30 2938 H 273.309 -0.893477 -3.55545 0
M  V30 2939 H 272.957 1.19467 -4.88607 0
M  V30 2940 H 272.657 -0.259633 -5.87026 0
M  V30 2941 H 274.181 0.650884 -6.07121 0
M  V30 2942 H 275.595 -1.55236 -5.51883 0
M  V30 2943 H 273.992 -2.34353 -5.52448 0
M  V30 2944 H 275.062 -2.54772 -4.12576 0
M  V30 2945 N 276.405 1.4127 -0.698611 0
M  V30 2946 C 277.337 2.292 0.00399731 0
M  V30 2947 C 278.35 1.44944 0.741279 0
M  V30 2948 O 279.539 1.68416 0.591477 0
M  V30 2949 C 276.639 3.22875 1.02979 0
M  V30 2950 C 275.812 4.35904 0.36151 0
M  V30 2951 C 274.871 5.10134 1.29033 0
M  V30 2952 O 273.897 5.63809 0.781562 0
M  V30 2953 N 275.099 5.17885 2.6225 0
M  V30 2954 H 277.864 2.9014 -0.750921 0
M  V30 2955 H 275.425 1.52455 -0.544882 0
M  V30 2956 H 277.417 3.69404 1.65296 0
M  V30 2957 H 275.987 2.63221 1.68622 0
M  V30 2958 H 275.207 3.91719 -0.441584 0
M  V30 2959 H 276.495 5.08696 -0.103055 0
M  V30 2960 H 275.893 4.7573 3.061 0
M  V30 2961 H 274.45 5.6798 3.19754 0
M  V30 2962 N 277.883 0.443576 1.51229 0
M  V30 2963 C 279.111 -0.11929 2.06556 0
M  V30 2964 C 279.526 -1.35921 1.31038 0
M  V30 2965 O 278.883 -1.78675 0.371704 0
M  V30 2966 C 278.934 -0.435228 3.5887 0
M  V30 2967 O 278.655 0.755486 4.31537 0
M  V30 2968 C 280.156 -1.04808 4.30732 0
M  V30 2969 H 277.376 -0.0051584 0.67098 0
M  V30 2970 H 279.92 0.624453 1.94733 0
M  V30 2971 H 278.075 -1.12887 3.70588 0
M  V30 2972 H 278.489 0.483491 5.22267 0
M  V30 2973 H 279.963 -1.2191 5.3837 0
M  V30 2974 H 280.44 -2.03081 3.89429 0
M  V30 2975 H 281.046 -0.393637 4.23474 0
M  V30 2976 N 279.361 -1.56624 0.175154 0
M  V30 2977 C 280.324 -2.16934 -0.739738 0
M  V30 2978 C 281.324 -1.11842 -1.15533 0
M  V30 2979 O 282.514 -1.37335 -1.07167 0
M  V30 2980 C 279.646 -2.75531 -2.00738 0
M  V30 2981 H 280.839 -2.99131 -0.214639 0
M  V30 2982 H 278.392 -1.56123 -0.0744197 0
M  V30 2983 H 279.127 -1.97078 -2.57548 0
M  V30 2984 H 278.912 -3.52444 -1.71831 0
M  V30 2985 H 280.402 -3.21904 -2.66021 0
M  V30 2986 N 280.839 0.0985539 -1.57292 0
M  V30 2987 C 282.088 0.801358 -1.85098 0
M  V30 2988 C 282.401 1.80066 -0.763902 0
M  V30 2989 O 283.607 2.55112 -0.928981 0
M  V30 2990 C 282.063 1.47599 -3.28242 0
M  V30 2991 C 281.671 0.516624 -4.45011 0
M  V30 2992 C 283.415 2.16272 -3.65276 0
M  V30 2993 C 281.322 1.19564 -5.79188 0
M  V30 2994 H 280.252 0.303022 -0.69043 0
M  V30 2995 H 282.903 0.0542623 -1.8342 0
M  V30 2996 H 281.285 2.27042 -3.2445 0
M  V30 2997 H 282.459 -0.246065 -4.60143 0
M  V30 2998 H 280.774 -0.064227 -4.1635 0
M  V30 2999 H 283.371 2.67802 -4.62803 0
M  V30 3000 H 283.714 2.95009 -2.93727 0
M  V30 3001 H 284.247 1.43693 -3.70941 0
M  V30 3002 H 280.986 0.449157 -6.53959 0
M  V30 3003 H 280.506 1.92984 -5.67906 0
M  V30 3004 H 282.185 1.7231 -6.23633 0
M  V30 3005 N 282.317 1.53212 0.369288 0
M  V30 3006 C 283.594 1.59815 1.12776 0
M  V30 3007 C 283.974 0.403402 2.0721 0
M  V30 3008 O 283.322 -0.606667 2.20299 0
M  V30 3009 C 283.532 2.94664 1.87013 0
M  V30 3010 C 284.88 3.49109 2.41677 0
M  V30 3011 O 285.904 2.96669 1.97144 0
M  V30 3012 O 284.763 4.40775 3.23079 0
M  V30 3013 H 281.857 0.645376 0.517125 0
M  V30 3014 H 284.403 1.65553 0.37285 0
M  V30 3015 H 283.175 3.73061 1.18071 0
M  V30 3016 H 282.798 2.92401 2.69421 0
M  V30 3017 N 283.795 -0.628877 1.44509 0
M  V30 3018 C 285.041 -1.39045 1.47629 0
M  V30 3019 C 285.374 -1.93892 0.109343 0
M  V30 3020 O 284.649 -1.7379 -0.87334 0
M  V30 3021 C 284.932 -2.55408 2.53848 0
M  V30 3022 C 284.785 -2.05896 3.99909 0
M  V30 3023 C 286.104 -3.5759 2.56549 0
M  V30 3024 H 283.223 -0.504232 0.537512 0
M  V30 3025 H 285.865 -0.710854 1.76201 0
M  V30 3026 H 284.015 -3.13384 2.29615 0
M  V30 3027 H 285.687 -1.52734 4.35282 0
M  V30 3028 H 283.93 -1.37061 4.11578 0
M  V30 3029 H 284.601 -2.89681 4.69882 0
M  V30 3030 H 287.077 -3.09419 2.78207 0
M  V30 3031 H 285.953 -4.36527 3.32769 0
M  V30 3032 H 286.214 -4.11808 1.60832 0
M  V30 3033 N 285.273 -1.31445 -0.869486 0
M  V30 3034 C 286.521 -1.20918 -1.61936 0
M  V30 3035 C 286.842 0.232683 -1.93607 0
M  V30 3036 O 286.112 1.15352 -1.58338 0
M  V30 3037 H 284.692 -0.44454 -0.600328 0
M  V30 3038 H 287.354 -1.64776 -1.0409 0
M  V30 3039 H 286.45 -1.78124 -2.56278 0
M  V30 3040 N 286.751 1.08385 -1.14413 0
M  V30 3041 C 287.701 2.13509 -0.79987 0
M  V30 3042 C 288.685 1.5951 0.211059 0
M  V30 3043 O 289.877 1.76995 0.0133694 0
M  V30 3044 C 287.006 3.42162 -0.279297 0
M  V30 3045 C 286.092 4.03042 -1.31976 0
M  V30 3046 N 286.483 4.38327 -2.52395 0
M  V30 3047 C 284.781 4.30379 -1.17004 0
M  V30 3048 C 285.482 4.86428 -3.19003 0
M  V30 3049 N 284.458 4.84547 -2.46405 0
M  V30 3050 H 288.26 2.38609 -1.7159 0
M  V30 3051 H 285.774 1.2572 -1.02802 0
M  V30 3052 H 287.771 4.16898 -0.0143688 0
M  V30 3053 H 286.431 3.18511 0.630923 0
M  V30 3054 H 287.442 4.29349 -2.89621 0
M  V30 3055 H 284.119 4.16281 -0.318854 0
M  V30 3056 H 285.509 5.23107 -4.21674 0
M  V30 3057 N 288.23 0.939286 1.26551 0
M  V30 3058 C 289.18 0.418284 2.2413 0
M  V30 3059 C 290.164 -0.483935 1.5345 0
M  V30 3060 O 291.356 -0.319489 1.74093 0
M  V30 3061 C 288.485 -0.31709 3.41832 0
M  V30 3062 C 287.571 0.602311 4.19801 0
M  V30 3063 N 287.962 1.72726 4.75394 0
M  V30 3064 C 286.26 0.407534 4.44134 0
M  V30 3065 C 286.961 2.30004 5.34297 0
M  V30 3066 N 285.937 1.58828 5.1988 0
M  V30 3067 H 289.739 1.27705 2.64705 0
M  V30 3068 H 287.253 0.794929 1.41614 0
M  V30 3069 H 289.25 -0.707364 4.10855 0
M  V30 3070 H 287.91 -1.17264 3.02786 0
M  V30 3071 H 288.921 2.10944 4.72994 0
M  V30 3072 H 285.598 -0.406406 4.15517 0
M  V30 3073 H 286.988 3.24778 5.88191 0
M  V30 3074 N 289.708 -1.40897 0.706093 0
M  V30 3075 C 290.638 -2.33418 0.0620085 0
M  V30 3076 C 291.619 -1.52385 -0.755827 0
M  V30 3077 O 292.804 -1.80886 -0.706674 0
M  V30 3078 C 289.934 -3.36293 -0.867445 0
M  V30 3079 C 288.888 -4.27716 -0.155932 0
M  V30 3080 C 288.214 -5.2105 -1.20046 0
M  V30 3081 C 289.514 -5.12944 0.984149 0
M  V30 3082 H 291.208 -2.87527 0.83477 0
M  V30 3083 H 288.754 -1.38249 0.402875 0
M  V30 3084 H 290.707 -3.99949 -1.32735 0
M  V30 3085 H 289.431 -2.80556 -1.67199 0
M  V30 3086 H 288.09 -3.65498 0.284047 0
M  V30 3087 H 287.738 -4.61624 -1.99781 0
M  V30 3088 H 287.438 -5.83056 -0.729328 0
M  V30 3089 H 288.962 -5.87584 -1.66066 0
M  V30 3090 H 290.376 -5.70109 0.604048 0
M  V30 3091 H 288.773 -5.83945 1.38304 0
M  V30 3092 H 289.843 -4.49485 1.81911 0
M  V30 3093 N 291.186 -0.45159 -1.50991 0
M  V30 3094 C 292.116 0.342898 -2.30969 0
M  V30 3095 C 293.097 1.00815 -1.37005 0
M  V30 3096 O 294.282 1.00907 -1.65926 0
M  V30 3097 C 291.412 1.43637 -3.16205 0
M  V30 3098 C 290.366 0.893818 -4.18563 0
M  V30 3099 C 289.692 2.08411 -4.92411 0
M  V30 3100 C 290.992 -0.0815568 -5.22236 0
M  V30 3101 H 292.686 -0.324556 -2.97636 0
M  V30 3102 H 290.232 -0.157531 -1.43136 0
M  V30 3103 H 292.185 1.9995 -3.70942 0
M  V30 3104 H 290.909 2.13232 -2.47386 0
M  V30 3105 H 289.568 0.352798 -3.64898 0
M  V30 3106 H 289.216 2.76658 -4.20082 0
M  V30 3107 H 288.916 1.72741 -5.61636 0
M  V30 3108 H 290.44 2.65251 -5.49976 0
M  V30 3109 H 291.854 0.391742 -5.7196 0
M  V30 3110 H 290.251 -0.351551 -5.99069 0
M  V30 3111 H 291.321 -1.01374 -4.74185 0
M  V30 3112 N 292.664 1.56529 -0.183458 0
M  V30 3113 C 293.91 1.97537 0.459036 0
M  V30 3114 C 294.243 1.06989 1.62071 0
M  V30 3115 O 293.518 0.11948 1.94133 0
M  V30 3116 C 293.801 3.47874 0.930368 0
M  V30 3117 C 293.654 4.492 -0.232317 0
M  V30 3118 C 294.973 4.01612 1.79989 0
M  V30 3119 H 292.092 0.718204 0.165383 0
M  V30 3120 H 294.734 1.88042 -0.272038 0
M  V30 3121 H 292.884 3.56095 1.55333 0
M  V30 3122 H 294.556 4.53027 -0.86972 0
M  V30 3123 H 292.799 4.24657 -0.885928 0
M  V30 3124 H 293.47 5.51823 0.139796 0
M  V30 3125 H 295.946 3.96097 1.27461 0
M  V30 3126 H 294.822 5.07195 2.09867 0
M  V30 3127 H 295.083 3.46163 2.74998 0
M  V30 3128 N 294.142 -0.090211 1.57342 0
M  V30 3129 C 295.105 -1.09335 2.01441 0
M  V30 3130 C 296.105 -1.32666 0.908641 0
M  V30 3131 O 297.295 -1.28697 1.174 0
M  V30 3132 C 294.427 -2.44136 2.3793 0
M  V30 3133 H 295.62 -0.713662 2.91285 0
M  V30 3134 H 293.173 -0.335404 1.52659 0
M  V30 3135 H 293.908 -2.86972 1.51055 0
M  V30 3136 H 293.693 -2.28548 3.18603 0
M  V30 3137 H 295.183 -3.16277 2.72688 0
M  V30 3138 N 295.62 -1.53406 -0.361157 0
M  V30 3139 C 296.57 -1.76536 -1.44287 0
M  V30 3140 C 297.554 -0.620019 -1.48474 0
M  V30 3141 O 298.746 -0.878834 -1.53641 0
M  V30 3142 C 295.875 -1.96266 -2.81664 0
M  V30 3143 C 294.961 -3.16815 -2.81938 0
M  V30 3144 N 295.352 -4.38637 -2.51855 0
M  V30 3145 C 293.65 -3.17627 -3.13096 0
M  V30 3146 C 294.351 -5.20401 -2.59919 0
M  V30 3147 N 293.327 -4.56712 -2.94814 0
M  V30 3148 H 297.129 -2.68331 -1.19899 0
M  V30 3149 H 294.643 -1.52091 -0.56938 0
M  V30 3150 H 296.64 -2.10966 -3.59582 0
M  V30 3151 H 295.3 -1.05702 -3.07013 0
M  V30 3152 H 296.311 -4.66293 -2.25369 0
M  V30 3153 H 292.988 -2.36971 -3.43731 0
M  V30 3154 H 294.378 -6.27586 -2.39969 0
M  V30 3155 N 297.098 0.621204 -1.44841 0
M  V30 3156 C 298.346 1.37783 -1.47852 0
M  V30 3157 C 298.667 1.94653 -0.116224 0
M  V30 3158 O 297.937 1.76367 0.852737 0
M  V30 3159 H 296.517 0.511453 -0.544449 0
M  V30 3160 H 299.179 0.730446 -1.80694 0
M  V30 3161 H 298.275 2.20414 -2.20961 0
M  V30 3162 N 298.576 1.31904 0.862503 0
M  V30 3163 C 299.506 1.22782 1.98612 0
M  V30 3164 C 300.487 0.113362 1.69722 0
M  V30 3165 O 301.672 0.299218 1.91881 0
M  V30 3166 C 298.802 0.942058 3.34279 0
M  V30 3167 C 297.756 2.0169 3.77499 0
M  V30 3168 C 297.082 1.58369 5.10709 0
M  V30 3169 C 298.382 3.43096 3.93805 0
M  V30 3170 H 300.076 2.16788 2.06502 0
M  V30 3171 H 297.622 1.04366 0.992154 0
M  V30 3172 H 299.575 0.864818 4.1243 0
M  V30 3173 H 298.299 -0.0336603 3.26583 0
M  V30 3174 H 296.958 2.08416 3.01593 0
M  V30 3175 H 296.606 0.595628 4.99461 0
M  V30 3176 H 296.306 2.30279 5.40597 0
M  V30 3177 H 297.83 1.52067 5.91361 0
M  V30 3178 H 299.244 3.39003 4.62331 0
M  V30 3179 H 297.641 4.13288 4.35101 0
M  V30 3180 H 298.711 3.83334 2.96957 0
M  V30 3181 N 300.054 -1.07777 1.14986 0
M  V30 3182 C 301.279 -1.84558 0.946213 0
M  V30 3183 C 301.704 -1.81323 -0.500362 0
M  V30 3184 O 301.062 -1.20301 -1.35637 0
M  V30 3185 C 301.11 -3.29736 1.45968 0
M  V30 3186 O 300.214 -4.07149 0.65601 0
M  V30 3187 H 299.555 -0.571641 0.33782 0
M  V30 3188 H 302.085 -1.35991 1.52865 0
M  V30 3189 H 302.095 -3.80574 1.47063 0
M  V30 3190 H 300.77 -3.31406 2.51283 0
M  V30 3191 H 299.347 -3.65994 0.714322 0
M  V30 3192 N 301.532 -0.945985 -1.26051 0
M  V30 3193 C 302.778 -0.597002 -1.93814 0
M  V30 3194 C 303.111 0.862484 -1.73997 0
M  V30 3195 O 302.386 1.61769 -1.07986 0
M  V30 3196 C 302.669 -0.945937 -3.47454 0
M  V30 3197 C 302.522 -2.46052 -3.76535 0
M  V30 3198 C 303.841 -0.464785 -4.37639 0
M  V30 3199 H 300.96 -0.218366 -0.703907 0
M  V30 3200 H 303.602 -1.18107 -1.48831 0
M  V30 3201 H 301.752 -0.448902 -3.85898 0
M  V30 3202 H 303.424 -3.03065 -3.47778 0
M  V30 3203 H 301.667 -2.90194 -3.22444 0
M  V30 3204 H 302.338 -2.65517 -4.83947 0
M  V30 3205 H 304.814 -0.891016 -4.06448 0
M  V30 3206 H 303.69 -0.737712 -5.4392 0
M  V30 3207 H 303.951 0.635274 -4.37512 0
M  V30 3208 N 303.011 1.40521 -0.713556 0
M  V30 3209 C 304.427 1.54839 -0.386907 0
M  V30 3210 C 304.627 1.68532 1.1045 0
M  V30 3211 O 303.683 1.67377 1.89053 0
M  V30 3212 C 304.996 2.77792 -1.15118 0
M  V30 3213 C 306.544 2.91607 -1.13729 0
M  V30 3214 C 307.019 4.1747 -1.88368 0
M  V30 3215 N 308.51 4.24466 -1.85427 0
M  V30 3216 C 309.245 5.20755 -2.40004 0
M  V30 3217 N 308.741 6.22965 -3.03129 0
M  V30 3218 N 310.534 5.1282 -2.30158 0
M  V30 3219 H 302.685 1.29879 -1.68063 0
M  V30 3220 H 304.948 0.627896 -0.710247 0
M  V30 3221 H 304.654 2.73944 -2.20561 0
M  V30 3222 H 304.528 3.6984 -0.741477 0
M  V30 3223 H 306.915 2.94959 -0.0910608 0
M  V30 3224 H 306.996 2.00682 -1.5862 0
M  V30 3225 H 306.64 4.1488 -2.9298 0
M  V30 3226 H 306.57 5.074 -1.40898 0
M  V30 3227 H 309.061 3.51241 -1.3942 0
M  V30 3228 H 309.374 6.92859 -3.42295 0
M  V30 3229 H 307.719 6.23415 -3.07212 0
M  V30 3230 H 310.91 4.31899 -1.80501 0
M  V30 3231 H 311.083 5.87689 -2.72993 0
M  V30 3232 N 304.489 0.459591 1.5075 0
M  V30 3233 C 305.905 0.113092 1.59199 0
M  V30 3234 C 306.105 -1.37951 1.46874 0
M  V30 3235 O 305.161 -2.15168 1.32132 0
M  V30 3236 C 306.474 0.653043 2.93523 0
M  V30 3237 C 308.022 0.615449 3.0689 0
M  V30 3238 C 308.497 1.13275 4.43771 0
M  V30 3239 N 309.988 1.09167 4.50152 0
M  V30 3240 C 310.723 1.46256 5.54434 0
M  V30 3241 N 310.219 1.90739 6.66026 0
M  V30 3242 N 312.012 1.37932 5.44914 0
M  V30 3243 H 304.163 1.43049 1.57005 0
M  V30 3244 H 306.426 0.590861 0.741341 0
M  V30 3245 H 306.132 1.69822 3.07983 0
M  V30 3246 H 306.006 0.0902132 3.77092 0
M  V30 3247 H 308.393 -0.420793 2.92084 0
M  V30 3248 H 308.474 1.21495 2.25106 0
M  V30 3249 H 308.118 2.16757 4.59324 0
M  V30 3250 H 308.048 0.509576 5.24129 0
M  V30 3251 H 310.539 0.76528 3.7007 0
M  V30 3252 H 310.852 2.17218 7.41644 0
M  V30 3253 H 309.197 1.94683 6.67176 0
M  V30 3254 H 312.388 1.0303 4.56621 0
M  V30 3255 H 312.561 1.67164 6.26067 0
M  V30 3256 N 305.967 -1.56429 0.191757 0
M  V30 3257 C 307.214 -1.97485 -0.447891 0
M  V30 3258 C 307.542 -1.07852 -1.61859 0
M  V30 3259 O 306.797 -0.116903 -1.95351 0
M  V30 3260 C 307.096 -3.44449 -0.953384 0
M  V30 3261 C 306.762 -4.50781 0.103586 0
M  V30 3262 C 305.424 -4.79584 0.394023 0
M  V30 3263 C 307.776 -5.1471 0.819946 0
M  V30 3264 C 305.104 -5.69607 1.40585 0
M  V30 3265 C 307.456 -6.05827 1.8209 0
M  V30 3266 C 306.12 -6.32987 2.11857 0
M  V30 3267 H 305.39 -0.722648 -0.163895 0
M  V30 3268 H 308.037 -1.89322 0.28802 0
M  V30 3269 H 306.342 -3.49666 -1.76751 0
M  V30 3270 H 308.039 -3.73569 -1.45765 0
M  V30 3271 H 304.629 -4.28394 -0.132951 0
M  V30 3272 H 308.813 -4.92552 0.608789 0
M  V30 3273 H 304.069 -5.88926 1.64243 0
M  V30 3274 H 308.243 -6.54424 2.38123 0
M  V30 3275 H 305.87 -7.02544 2.90407 0
M  V30 3276 N 307.445 0.0818655 -1.57387 0
M  V30 3277 C 308.861 0.436412 -1.53517 0
M  V30 3278 C 309.061 1.79758 -0.910459 0
M  V30 3279 O 308.117 2.47324 -0.508636 0
M  V30 3280 C 309.43 0.386734 -2.98203 0
M  V30 3281 C 310.978 0.467644 -3.09487 0
M  V30 3282 C 311.453 0.447978 -4.55804 0
M  V30 3283 N 312.944 0.508348 -4.60402 0
M  V30 3284 C 313.679 0.515184 -5.71081 0
M  V30 3285 N 313.175 0.477435 -6.91153 0
M  V30 3286 N 314.968 0.560988 -5.59294 0
M  V30 3287 H 307.119 -0.809546 -1.96367 0
M  V30 3288 H 309.382 -0.302733 -0.898363 0
M  V30 3289 H 309.088 -0.546539 -3.47427 0
M  V30 3290 H 308.962 1.20075 -3.57578 0
M  V30 3291 H 311.349 1.39134 -2.60242 0
M  V30 3292 H 311.43 -0.374753 -2.5304 0
M  V30 3293 H 311.074 -0.471826 -5.05704 0
M  V30 3294 H 311.004 1.30777 -5.10103 0
M  V30 3295 H 313.495 0.54218 -3.7399 0
M  V30 3296 H 313.808 0.486299 -7.71268 0
M  V30 3297 H 312.153 0.444278 -6.93579 0
M  V30 3298 H 315.344 0.5881 -4.64391 0
M  V30 3299 H 315.517 0.562846 -6.45551 0
M  V30 3300 N 308.923 1.53595 0.353017 0
M  V30 3301 C 309.833 1.83897 1.45667 0
M  V30 3302 C 310.849 0.728334 1.58023 0
M  V30 3303 O 312.025 1.01968 1.73679 0
M  V30 3304 C 309.09 2.03383 2.80778 0
M  V30 3305 C 308.151 3.27262 2.77845 0
M  V30 3306 C 307.384 3.45809 4.06512 0
M  V30 3307 O 307.607 2.68387 5.03314 0
M  V30 3308 O 306.541 4.39207 4.11559 0
M  V30 3309 H 310.367 2.77686 1.2298 0
M  V30 3310 H 307.952 1.39132 0.544308 0
M  V30 3311 H 309.834 2.17698 3.60812 0
M  V30 3312 H 308.509 1.12783 3.03417 0
M  V30 3313 H 307.416 3.18359 1.96465 0
M  V30 3314 H 308.749 4.17824 2.60161 0
M  V30 3315 N 310.401 -0.613514 1.45168 0
M  V30 3316 C 311.331 -1.7354 1.56225 0
M  V30 3317 C 312.312 -1.64981 0.41414 0
M  V30 3318 O 313.497 -1.83472 0.636526 0
M  V30 3319 C 310.627 -3.12128 1.52295 0
M  V30 3320 C 309.581 -3.35491 2.65762 0
M  V30 3321 C 308.907 -4.74291 2.46885 0
M  V30 3322 C 310.207 -3.26325 4.0781 0
M  V30 3323 H 311.901 -1.64543 2.50132 0
M  V30 3324 H 309.447 -0.790185 1.20383 0
M  V30 3325 H 311.4 -3.90404 1.58628 0
M  V30 3326 H 310.124 -3.2195 0.549139 0
M  V30 3327 H 308.783 -2.59603 2.58847 0
M  V30 3328 H 308.431 -4.80839 1.47657 0
M  V30 3329 H 308.131 -4.9088 3.22972 0
M  V30 3330 H 309.655 -5.54775 2.55063 0
M  V30 3331 H 311.069 -3.94483 4.16 0
M  V30 3332 H 309.466 -3.54445 4.8424 0
M  V30 3333 H 310.536 -2.23855 4.30136 0
M  V30 3334 N 311.879 -1.3236 -0.855495 0
M  V30 3335 C 313.127 -1.22629 -1.60644 0
M  V30 3336 C 313.448 0.212136 -1.93843 0
M  V30 3337 O 312.718 1.13666 -1.59552 0
M  V30 3338 H 311.298 -0.450882 -0.595579 0
M  V30 3339 H 313.96 -1.65871 -1.02337 0
M  V30 3340 H 313.056 -1.80832 -2.54374 0
M  V30 3341 N 313.357 1.07166 -1.15556 0
M  V30 3342 C 314.585 1.83514 -0.955519 0
M  V30 3343 C 315 1.82163 0.49621 0
M  V30 3344 O 314.357 1.23441 1.34419 0
M  V30 3345 C 314.408 3.30515 -1.46432 0
M  V30 3346 O 314.129 3.31937 -2.85918 0
M  V30 3347 C 315.63 4.23625 -1.30603 0
M  V30 3348 H 312.85 0.578926 -0.339244 0
M  V30 3349 H 315.394 1.35265 -1.53374 0
M  V30 3350 H 313.549 3.76106 -0.928584 0
M  V30 3351 H 313.963 4.23794 -3.09029 0
M  V30 3352 H 315.437 5.24831 -1.71047 0
M  V30 3353 H 315.914 4.38485 -0.250441 0
M  V30 3354 H 316.52 3.83871 -1.83094 0
M  V30 3355 N 314.835 0.952656 1.25548 0
M  V30 3356 C 316.06 0.623025 1.97821 0
M  V30 3357 C 316.485 -0.7976 1.70352 0
M  V30 3358 O 315.843 -1.53905 0.958283 0
M  V30 3359 C 315.891 0.885532 3.49558 0
M  V30 3360 O 314.995 -0.0366641 4.12384 0
M  V30 3361 H 314.336 0.237082 0.620232 0
M  V30 3362 H 316.866 1.27871 1.59719 0
M  V30 3363 H 316.876 0.811009 3.99858 0
M  V30 3364 H 315.551 1.92094 3.6888 0
M  V30 3365 H 314.128 0.0898954 3.72792 0
M  V30 3366 N 316.313 -1.40141 0.720998 0
M  V30 3367 C 317.561 -2.0039 0.262323 0
M  V30 3368 C 317.882 -1.57469 -1.15015 0
M  V30 3369 O 317.152 -0.816582 -1.78069 0
M  V30 3370 H 315.732 -0.741063 0.093996 0
M  V30 3371 H 318.394 -1.71398 0.927835 0
M  V30 3372 H 317.49 -3.10658 0.299671 0
M  V30 3373 N 317.792 -0.46758 -1.50504 0
M  V30 3374 C 318.724 0.364655 -2.26281 0
M  V30 3375 C 319.737 0.960151 -1.31472 0
M  V30 3376 O 320.926 0.849153 -1.57008 0
M  V30 3377 C 318.026 1.52509 -3.02645 0
M  V30 3378 C 317.199 1.04302 -4.24782 0
M  V30 3379 C 316.258 2.07709 -4.8347 0
M  V30 3380 O 315.284 1.65913 -5.44483 0
M  V30 3381 N 316.486 3.40485 -4.70159 0
M  V30 3382 H 319.251 -0.28495 -2.98342 0
M  V30 3383 H 316.812 -0.298163 -1.59131 0
M  V30 3384 H 318.804 2.21371 -3.38787 0
M  V30 3385 H 317.374 2.07945 -2.33404 0
M  V30 3386 H 316.594 0.180393 -3.93787 0
M  V30 3387 H 317.882 0.698798 -5.03978 0
M  V30 3388 H 317.28 3.77155 -4.21629 0
M  V30 3389 H 315.837 4.05156 -5.1058 0
M  V30 3390 N 319.27 1.56325 -0.20005 0
M  V30 3391 C 320.519 1.96895 0.437652 0
M  V30 3392 C 320.832 1.08999 1.62415 0
M  V30 3393 O 322.038 1.39372 2.32997 0
M  V30 3394 C 320.494 3.50198 0.830025 0
M  V30 3395 C 320.102 4.46765 -0.332461 0
M  V30 3396 C 321.846 3.99526 1.43453 0
M  V30 3397 C 319.753 5.91344 0.0811468 0
M  V30 3398 H 318.683 0.735209 0.167282 0
M  V30 3399 H 321.334 1.81148 -0.292853 0
M  V30 3400 H 319.716 3.61467 1.61734 0
M  V30 3401 H 320.89 4.47231 -1.11 0
M  V30 3402 H 319.205 4.07657 -0.848789 0
M  V30 3403 H 321.802 5.05025 1.75652 0
M  V30 3404 H 322.145 3.44122 2.34277 0
M  V30 3405 H 322.678 3.91393 0.71109 0
M  V30 3406 H 319.417 6.50685 -0.793033 0
M  V30 3407 H 318.937 5.94121 0.823445 0
M  V30 3408 H 320.616 6.44945 0.515252 0
M  V30 3409 N 320.748 -0.0735177 1.57428 0
M  V30 3410 C 321.996 -0.771472 1.86796 0
M  V30 3411 C 322.317 -1.78201 0.791804 0
M  V30 3412 O 321.587 -1.95074 -0.179718 0
M  V30 3413 H 320.167 -0.28791 0.689287 0
M  V30 3414 H 322.829 -0.0500161 1.94836 0
M  V30 3415 H 321.925 -1.28874 2.8425 0
M  V30 3416 N 322.226 -1.5378 -0.344866 0
M  V30 3417 C 323.475 -1.7018 -1.08267 0
M  V30 3418 C 323.788 -0.471 -1.89845 0
M  V30 3419 O 324.994 -0.515917 -2.66553 0
M  V30 3420 C 323.45 -3.00923 -1.97417 0
M  V30 3421 C 323.058 -4.31335 -1.21053 0
M  V30 3422 C 324.802 -3.26688 -2.71063 0
M  V30 3423 C 322.709 -5.53153 -2.09225 0
M  V30 3424 H 321.639 -0.634138 -0.407903 0
M  V30 3425 H 324.29 -1.8028 -0.342246 0
M  V30 3426 H 322.672 -2.84676 -2.75274 0
M  V30 3427 H 323.846 -4.58281 -0.481159 0
M  V30 3428 H 322.161 -4.12173 -0.591813 0
M  V30 3429 H 324.758 -4.1489 -3.37299 0
M  V30 3430 H 325.101 -2.43639 -3.37558 0
M  V30 3431 H 325.634 -3.43705 -2.0028 0
M  V30 3432 H 322.373 -6.38741 -1.47274 0
M  V30 3433 H 321.893 -5.30458 -2.79955 0
M  V30 3434 H 323.572 -5.88744 -2.68308 0
M  V30 3435 N 323.704 0.605807 -1.45491 0
M  V30 3436 C 324.667 1.69836 -1.5391 0
M  V30 3437 C 325.667 1.55261 -0.418424 0
M  V30 3438 O 326.857 1.60296 -0.681965 0
M  V30 3439 C 323.989 3.09117 -1.43734 0
M  V30 3440 H 325.182 1.63738 -2.51257 0
M  V30 3441 H 322.735 0.821689 -1.32959 0
M  V30 3442 H 323.47 3.20791 -0.475788 0
M  V30 3443 H 323.255 3.21104 -2.25021 0
M  V30 3444 H 324.745 3.88696 -1.52661 0
M  V30 3445 N 325.182 1.32811 0.848464 0
M  V30 3446 C 326.593 1.21315 1.41914 0
M  V30 3447 C 326.944 -0.171847 1.95446 0
M  V30 3448 O 326.069 -1.07093 1.88043 0
M  V30 3449 C 326.664 2.19631 2.57968 0
M  V30 3450 C 325.223 2.12003 3.11017 0
M  V30 3451 C 324.37 2.07651 1.83783 0
M  V30 3452 H 327.321 1.44549 0.655071 0
M  V30 3453 H 327.342 1.79845 3.35315 0
M  V30 3454 H 326.854 3.20423 2.18976 0
M  V30 3455 H 324.955 1.14481 3.54577 0
M  V30 3456 H 325.068 3.02111 3.71841 0
M  V30 3457 H 323.432 1.52983 2.03638 0
M  V30 3458 H 324.215 3.10235 1.47 0
M  V30 3459 N 326.66 -1.06551 1.16123 0
M  V30 3460 C 327.608 -2.16063 0.861371 0
M  V30 3461 C 328.602 -1.6856 -0.168517 0
M  V30 3462 O 329.808 -1.79986 -0.0227579 0
M  V30 3463 H 326.183 -0.705278 0.260934 0
M  V30 3464 H 328.154 -2.38567 1.79244 0
M  V30 3465 C 326.903 -3.45661 0.376018 0
M  V30 3466 H 326.226 -3.82604 1.15992 0
M  V30 3467 H 327.666 -4.23504 0.204951 0
M  V30 3468 C 326.125 -3.24546 -0.903954 0
M  V30 3469 O 326.655 -3.49865 -1.97377 0
M  V30 3470 N 324.861 -2.77992 -0.846679 0
M  V30 3471 H 324.408 -2.57589 0.0241017 0
M  V30 3472 H 324.366 -2.64244 -1.70359 0
M  V30 3473 N 328.138 -0.959301 -1.25041 0
M  V30 3474 C 329.384 -0.617525 -1.9317 0
M  V30 3475 C 329.717 0.843981 -1.74902 0
M  V30 3476 O 328.992 1.60615 -1.09696 0
M  V30 3477 C 329.275 -0.982736 -3.46431 0
M  V30 3478 C 329.128 -2.50032 -3.73904 0
M  V30 3479 C 330.447 -0.511176 -4.37121 0
M  V30 3480 H 327.566 -0.22582 -0.701552 0
M  V30 3481 H 330.208 -1.19679 -1.4757 0
M  V30 3482 H 328.358 -0.489806 -3.854 0
M  V30 3483 H 330.03 -3.06737 -3.44544 0
M  V30 3484 H 328.273 -2.93598 -3.19348 0
M  V30 3485 H 328.944 -2.70635 -4.81103 0
M  V30 3486 H 331.42 -0.934075 -4.0548 0
M  V30 3487 H 330.296 -0.795361 -5.43107 0
M  V30 3488 H 330.557 0.588834 -4.38161 0
M  V30 3489 N 329.616 1.39756 -0.72842 0
M  V30 3490 C 330.841 2.05472 -0.282159 0
M  V30 3491 C 331.266 1.54549 1.07221 0
M  V30 3492 O 330.624 0.686372 1.67805 0
M  V30 3493 C 330.672 3.59462 -0.286264 0
M  V30 3494 O 329.776 4.05918 0.728298 0
M  V30 3495 H 329.117 0.651226 -0.129618 0
M  V30 3496 H 331.647 1.78915 -0.992499 0
M  V30 3497 H 331.657 4.07798 -0.128373 0
M  V30 3498 H 330.332 3.95889 -1.27456 0
M  V30 3499 H 328.909 3.69012 0.537081 0
M  V30 3500 N 331.094 0.475555 1.50254 0
M  V30 3501 C 332.34 -0.0701075 2.03279 0
M  V30 3502 C 332.695 -1.37007 1.35081 0
M  V30 3503 O 331.988 -1.8577 0.469052 0
M  V30 3504 C 332.182 -0.305114 3.56095 0
M  V30 3505 C 332.011 0.970515 4.39103 0
M  V30 3506 C 330.781 1.51509 4.82051 0
M  V30 3507 C 332.979 1.8671 4.79212 0
M  V30 3508 N 330.961 2.73928 5.49397 0
M  V30 3509 C 332.332 2.93715 5.46014 0
M  V30 3510 C 334.387 1.87695 4.61167 0
M  V30 3511 C 333.09 4.01699 5.96683 0
M  V30 3512 C 335.116 2.94637 5.12779 0
M  V30 3513 C 334.478 4.00361 5.79561 0
M  V30 3514 H 330.577 0.014486 0.781866 0
M  V30 3515 H 333.161 0.644755 1.83714 0
M  V30 3516 H 331.332 -0.989019 3.75597 0
M  V30 3517 H 333.064 -0.845516 3.95769 0
M  V30 3518 H 329.819 1.06367 4.61501 0
M  V30 3519 H 330.243 3.36109 5.87673 0
M  V30 3520 H 334.885 1.07273 4.08965 0
M  V30 3521 H 332.603 4.82934 6.4792 0
M  V30 3522 H 336.189 2.96388 5.00645 0
M  V30 3523 H 335.069 4.81751 6.18778 0
M  V30 3524 N 332.573 -1.56217 0.208337 0
M  V30 3525 C 333.536 -2.18455 -0.693557 0
M  V30 3526 C 334.536 -1.14268 -1.13135 0
M  V30 3527 O 335.726 -1.39577 -1.0423 0
M  V30 3528 C 332.858 -2.79727 -1.94848 0
M  V30 3529 H 334.051 -2.99519 -0.15114 0
M  V30 3530 H 331.604 -1.56245 -0.041287 0
M  V30 3531 H 332.339 -2.02497 -2.53309 0
M  V30 3532 H 332.124 -3.56009 -1.64316 0
M  V30 3533 H 333.614 -3.27475 -2.59133 0
M  V30 3534 N 334.051 0.0651679 -1.57465 0
M  V30 3535 C 335.297 0.764193 -1.87851 0
M  V30 3536 C 335.63 1.76889 -0.801495 0
M  V30 3537 O 334.905 1.93594 0.187528 0
M  V30 3538 C 335.188 1.46625 -3.28897 0
M  V30 3539 C 335.041 0.477515 -4.47258 0
M  V30 3540 C 336.36 2.4095 -3.68281 0
M  V30 3541 H 333.479 0.276351 -0.683227 0
M  V30 3542 H 336.121 0.0272868 -1.8998 0
M  V30 3543 H 334.271 2.09438 -3.27212 0
M  V30 3544 H 335.943 -0.145922 -4.61069 0
M  V30 3545 H 334.186 -0.206576 -4.33308 0
M  V30 3546 H 334.857 1.0065 -5.42746 0
M  V30 3547 H 337.333 1.88209 -3.71102 0
M  V30 3548 H 336.209 2.87072 -4.67847 0
M  V30 3549 H 336.47 3.26049 -2.98571 0
M  V30 3550 N 335.529 1.53961 0.336706 0
M  V30 3551 C 336.94 1.62914 0.911925 0
M  V30 3552 C 337.291 0.514795 1.89326 0
M  V30 3553 O 336.416 -0.354395 2.13478 0
M  V30 3554 C 337.011 2.95304 1.66076 0
M  V30 3555 C 335.57 3.06496 2.18489 0
M  V30 3556 C 334.717 2.58403 1.00613 0
M  V30 3557 H 337.668 1.58285 0.114649 0
M  V30 3558 H 337.689 2.84727 2.5241 0
M  V30 3559 H 337.201 3.76387 0.946276 0
M  V30 3560 H 335.302 2.3006 2.93092 0
M  V30 3561 H 335.415 4.1208 2.44391 0
M  V30 3562 H 333.779 2.13977 1.38152 0
M  V30 3563 H 334.562 3.41932 0.306179 0
M  V30 3564 N 337.007 -0.598083 1.45811 0
M  V30 3565 C 338.237 -1.38121 1.53643 0
M  V30 3566 C 338.645 -1.88425 0.171081 0
M  V30 3567 O 337.988 -1.63409 -0.839237 0
M  V30 3568 C 338.05 -2.61432 2.46766 0
M  V30 3569 C 337.714 -2.32702 3.93318 0
M  V30 3570 C 338.711 -1.92479 4.82957 0
M  V30 3571 C 336.396 -2.45321 4.38318 0
M  V30 3572 C 338.39 -1.65248 6.15607 0
M  V30 3573 C 336.077 -2.17703 5.71007 0
M  V30 3574 C 337.075 -1.7773 6.5947 0
M  V30 3575 O 336.763 -1.50441 7.89698 0
M  V30 3576 H 336.495 -0.428863 0.522544 0
M  V30 3577 H 339.049 -0.73557 1.91777 0
M  V30 3578 H 337.279 -3.28749 2.0362 0
M  V30 3579 H 338.968 -3.23487 2.45175 0
M  V30 3580 H 339.734 -1.82258 4.49452 0
M  V30 3581 H 335.613 -2.75399 3.69697 0
M  V30 3582 H 339.157 -1.33973 6.84614 0
M  V30 3583 H 335.054 -2.27544 6.04065 0
M  V30 3584 H 335.822 -1.64415 8.01817 0
M  V30 3585 N 338.485 -1.33259 -0.841409 0
M  V30 3586 C 339.71 -1.2775 -1.63385 0
M  V30 3587 C 340.135 0.149188 -1.87507 0
M  V30 3588 O 339.493 1.10498 -1.43736 0
M  V30 3589 C 339.541 -2.05571 -2.96265 0
M  V30 3590 O 338.645 -1.41257 -3.87453 0
M  V30 3591 H 337.986 -0.439627 -0.497618 0
M  V30 3592 H 340.516 -1.75782 -1.04699 0
M  V30 3593 H 340.526 -2.16241 -3.45982 0
M  V30 3594 H 339.201 -3.09309 -2.7803 0
M  V30 3595 H 337.778 -1.39217 -3.45938 0
M  V30 3596 N 339.963 1.05934 -1.16686 0
M  V30 3597 C 341.191 1.8249 -0.974929 0
M  V30 3598 C 341.606 1.82679 0.476861 0
M  V30 3599 O 340.963 1.2486 1.33103 0
M  V30 3600 C 341.014 3.28943 -1.49929 0
M  V30 3601 O 340.735 3.28886 -2.89423 0
M  V30 3602 C 342.236 4.22215 -1.35089 0
M  V30 3603 H 339.456 0.575295 -0.345365 0
M  V30 3604 H 342 1.33631 -1.548 0
M  V30 3605 H 340.155 3.751 -0.968423 0
M  V30 3606 H 340.569 4.20493 -3.13506 0
M  V30 3607 H 342.043 5.22987 -1.76603 0
M  V30 3608 H 342.52 4.38195 -0.296935 0
M  V30 3609 H 343.126 3.81907 -1.87155 0
M  V30 3610 N 341.441 0.965919 1.2453 0
M  V30 3611 C 342.666 0.643971 1.97149 0
M  V30 3612 C 343.091 -0.779487 1.71189 0
M  V30 3613 O 342.449 -1.5288 0.974553 0
M  V30 3614 C 342.497 0.922557 3.48599 0
M  V30 3615 O 341.601 0.00707672 4.12399 0
M  V30 3616 H 340.942 0.243647 0.617683 0
M  V30 3617 H 343.472 1.29558 1.58353 0
M  V30 3618 H 343.482 0.853373 3.98976 0
M  V30 3619 H 342.157 1.95996 3.66822 0
M  V30 3620 H 340.734 0.12943 3.72675 0
M  V30 3621 N 342.919 -1.39368 0.735821 0
M  V30 3622 C 343.829 -2.34395 0.0979693 0
M  V30 3623 C 344.845 -1.58361 -0.720968 0
M  V30 3624 O 346.021 -1.90648 -0.649245 0
M  V30 3625 C 343.086 -3.37393 -0.797916 0
M  V30 3626 C 342.147 -4.29287 0.0333662 0
M  V30 3627 C 341.38 -5.27365 -0.819854 0
M  V30 3628 O 341.603 -5.31959 -2.05855 0
M  V30 3629 O 340.537 -6.01389 -0.248079 0
M  V30 3630 H 344.363 -2.90601 0.882315 0
M  V30 3631 H 341.948 -1.40909 0.4965 0
M  V30 3632 H 343.83 -4.00505 -1.31048 0
M  V30 3633 H 342.505 -2.83571 -1.56106 0
M  V30 3634 H 341.412 -3.69395 0.591475 0
M  V30 3635 H 342.745 -4.86317 0.758752 0
M  V30 3636 N 344.397 -0.483516 -1.5 0
M  V30 3637 C 345.307 0.309172 -2.32554 0
M  V30 3638 C 346.323 0.984159 -1.43493 0
M  V30 3639 O 347.499 0.969399 -1.76535 0
M  V30 3640 C 344.564 1.36979 -3.18493 0
M  V30 3641 C 343.625 0.710095 -4.23387 0
M  V30 3642 C 342.858 1.72018 -5.05218 0
M  V30 3643 O 343.081 2.94813 -4.88305 0
M  V30 3644 O 342.015 1.28515 -5.8802 0
M  V30 3645 H 345.841 -0.366064 -3.01486 0
M  V30 3646 H 343.426 -0.24514 -1.47375 0
M  V30 3647 H 345.308 1.98385 -3.71781 0
M  V30 3648 H 343.983 2.02828 -2.52275 0
M  V30 3649 H 342.89 0.0567539 -3.74057 0
M  V30 3650 H 344.223 0.0943557 -4.9211 0
M  V30 3651 N 345.875 1.56104 -0.216619 0
M  V30 3652 C 347.152 1.89988 0.465165 0
M  V30 3653 C 347.532 1.13326 1.78102 0
M  V30 3654 O 346.88 0.241033 2.27225 0
M  V30 3655 C 347.09 3.42646 0.662939 0
M  V30 3656 C 348.438 4.13311 0.972602 0
M  V30 3657 O 349.462 3.48217 0.749901 0
M  V30 3658 O 348.321 5.28396 1.39499 0
M  V30 3659 H 345.415 0.78979 0.245276 0
M  V30 3660 H 347.961 1.67721 -0.258436 0
M  V30 3661 H 346.733 3.90399 -0.26543 0
M  V30 3662 H 346.356 3.70677 1.43821 0
M  V30 3663 N 347.353 -0.0568162 1.57498 0
M  V30 3664 C 348.3 -1.06591 2.04712 0
M  V30 3665 C 349.27 -1.3758 0.930644 0
M  V30 3666 O 350.455 -1.48392 1.19935 0
M  V30 3667 C 347.595 -2.3701 2.50839 0
M  V30 3668 C 346.708 -2.12421 3.76167 0
M  V30 3669 C 345.843 -3.36511 4.11015 0
M  V30 3670 C 344.882 -3.07353 5.2934 0
M  V30 3671 N 344.019 -4.23816 5.59754 0
M  V30 3672 H 348.859 -0.65631 2.90683 0
M  V30 3673 H 346.396 -0.312481 1.43743 0
M  V30 3674 H 348.354 -3.13175 2.7564 0
M  V30 3675 H 346.984 -2.75744 1.67825 0
M  V30 3676 H 346.036 -1.2688 3.58616 0
M  V30 3677 H 347.348 -1.86894 4.62463 0
M  V30 3678 H 346.502 -4.21062 4.36797 0
M  V30 3679 H 345.241 -3.65128 3.23315 0
M  V30 3680 H 344.246 -2.212 5.03339 0
M  V30 3681 H 345.471 -2.80043 6.1867 0
M  V30 3682 H 343.417 -4.52436 4.75014 0
M  V30 3683 H 343.334 -4.01614 6.40501 0
M  V30 3684 H 344.602 -5.0932 5.90096 0
M  V30 3685 N 348.832 -1.54138 -0.328536 0
M  V30 3686 C 349.795 -1.82462 -1.38709 0
M  V30 3687 C 350.795 -0.696229 -1.44946 0
M  V30 3688 O 351.985 -0.964535 -1.4506 0
M  V30 3689 C 349.117 -1.98018 -2.77492 0
M  V30 3690 H 350.31 -2.77037 -1.14851 0
M  V30 3691 H 347.863 -1.45779 -0.563751 0
M  V30 3692 H 348.598 -1.05637 -3.06613 0
M  V30 3693 H 348.383 -2.80124 -2.74359 0
M  V30 3694 H 349.873 -2.21396 -3.54081 0
M  V30 3695 N 350.31 0.590341 -1.46126 0
M  V30 3696 C 351.273 1.68194 -1.55703 0
M  V30 3697 C 352.273 1.54808 -0.434868 0
M  V30 3698 O 353.463 1.59564 -0.698928 0
M  V30 3699 C 350.595 3.07575 -1.47005 0
M  V30 3700 H 351.788 1.61064 -2.52979 0
M  V30 3701 H 349.341 0.807541 -1.33823 0
M  V30 3702 H 350.076 3.20268 -0.509785 0
M  V30 3703 H 349.861 3.187 -2.28414 0
M  V30 3704 H 351.351 3.87055 -1.56776 0
M  V30 3705 N 351.788 1.33704 0.83433 0
M  V30 3706 C 353.028 1.26754 1.60352 0
M  V30 3707 C 353.392 -0.163182 1.91305 0
M  V30 3708 O 354.593 -0.3567 2.66423 0
M  V30 3709 C 352.864 2.12262 2.8754 0
M  V30 3710 S 354.423 2.22549 3.78176 0
M  V30 3711 H 351.241 0.450879 0.549753 0
M  V30 3712 H 353.843 1.68788 0.986444 0
M  V30 3713 H 352.547 3.15238 2.62779 0
M  V30 3714 H 352.078 1.71082 3.54252 0
M  V30 3715 H 354.093 1.3899 4.76336 0
M  V30 3716 N 353.266 -1.05314 1.17247 0
M  V30 3717 C 354.229 -2.112 0.890357 0
M  V30 3718 C 355.229 -1.60359 -0.118943 0
M  V30 3719 O 356.419 -1.73833 0.113086 0
M  V30 3720 C 353.551 -3.39266 0.333422 0
M  V30 3721 H 354.744 -2.37659 1.82916 0
M  V30 3722 H 352.297 -1.21538 0.982758 0
M  V30 3723 H 353.032 -3.18462 -0.612587 0
M  V30 3724 H 352.817 -3.77477 1.06082 0
M  V30 3725 H 354.307 -4.17315 0.154322 0
M  V30 3726 N 354.744 -0.972509 -1.24016 0
M  V30 3727 C 356.16 -0.679827 -1.44397 0
M  V30 3728 C 356.36 0.756716 -1.86751 0
M  V30 3729 O 355.416 1.53007 -2.00861 0
M  V30 3730 C 356.729 -1.66803 -2.50195 0
M  V30 3731 C 358.277 -1.68119 -2.64017 0
M  V30 3732 C 358.752 -2.65748 -3.73017 0
M  V30 3733 N 360.243 -2.64219 -3.8045 0
M  V30 3734 C 360.978 -3.36433 -4.64328 0
M  V30 3735 N 360.474 -4.1818 -5.52356 0
M  V30 3736 N 362.267 -3.25235 -4.58453 0
M  V30 3737 H 354.418 -1.90059 -0.948228 0
M  V30 3738 H 356.681 -0.818527 -0.478245 0
M  V30 3739 H 356.387 -2.69498 -2.25973 0
M  V30 3740 H 356.261 -1.4446 -3.48441 0
M  V30 3741 H 358.648 -0.661319 -2.87594 0
M  V30 3742 H 358.729 -1.94525 -1.66113 0
M  V30 3743 H 358.373 -3.67872 -3.50189 0
M  V30 3744 H 358.303 -2.36619 -4.70446 0
M  V30 3745 H 360.794 -2.04887 -3.17537 0
M  V30 3746 H 361.107 -4.70157 -6.13329 0
M  V30 3747 H 359.452 -4.22273 -5.52006 0
M  V30 3748 H 362.643 -2.60829 -3.88698 0
M  V30 3749 H 362.816 -3.81776 -5.23594 0
M  V30 3750 N 356.222 1.38976 -0.743202 0
M  V30 3751 C 357.45 2.04636 -0.30525 0
M  V30 3752 C 357.865 1.56044 1.06281 0
M  V30 3753 O 357.222 0.728921 1.67311 0
M  V30 3754 C 357.273 3.60193 -0.307177 0
M  V30 3755 O 356.994 4.06998 -1.62124 0
M  V30 3756 C 358.495 4.4306 0.145928 0
M  V30 3757 H 355.715 0.65788 -0.132041 0
M  V30 3758 H 358.259 1.77866 -1.00915 0
M  V30 3759 H 356.414 3.85835 0.347898 0
M  V30 3760 H 356.828 5.01371 -1.54036 0
M  V30 3761 H 358.302 5.51921 0.0934183 0
M  V30 3762 H 358.779 4.22706 1.19231 0
M  V30 3763 H 359.385 4.22584 -0.479886 0
M  V30 3764 N 357.7 0.491464 1.49741 0
M  V30 3765 C 358.949 -0.0582189 2.01616 0
M  V30 3766 C 359.262 -1.38927 1.3769 0
M  V30 3767 O 360.468 -2.02509 1.80838 0
M  V30 3768 C 358.924 -0.154235 3.59569 0
M  V30 3769 C 358.532 1.1696 4.32463 0
M  V30 3770 C 360.276 -0.65479 4.1942 0
M  V30 3771 C 358.183 1.03627 5.8225 0
M  V30 3772 H 357.113 -0.0255317 0.753568 0
M  V30 3773 H 359.764 0.629445 1.72367 0
M  V30 3774 H 358.146 -0.906138 3.85493 0
M  V30 3775 H 359.32 1.93405 4.18248 0
M  V30 3776 H 357.635 1.60285 3.84315 0
M  V30 3777 H 360.232 -0.771903 5.29099 0
M  V30 3778 H 360.575 -1.65127 3.8215 0
M  V30 3779 H 361.108 0.040304 3.9778 0
M  V30 3780 H 357.847 2.00672 6.24028 0
M  V30 3781 H 357.367 0.312546 5.98985 0
M  V30 3782 H 359.046 0.711114 6.4308 0
M  V30 3783 N 359.178 -1.55987 0.224894 0
M  V30 3784 C 360.403 -2.03232 -0.41369 0
M  V30 3785 C 360.828 -1.10359 -1.52323 0
M  V30 3786 O 360.186 -0.092395 -1.81064 0
M  V30 3787 C 360.234 -3.48682 -0.919405 0
M  V30 3788 O 359.338 -3.58947 -2.03054 0
M  V30 3789 H 358.679 -0.657428 -0.0931903 0
M  V30 3790 H 361.209 -2.01679 0.34451 0
M  V30 3791 H 361.219 -3.8907 -1.22835 0
M  V30 3792 H 359.894 -4.15761 -0.107339 0
M  V30 3793 H 358.471 -3.30448 -1.72796 0
M  V30 3794 N 360.656 0.0484629 -1.57525 0
M  V30 3795 C 361.586 1.0549 -2.08313 0
M  V30 3796 C 362.567 1.38929 -0.981463 0
M  V30 3797 O 363.752 1.48151 -1.25558 0
M  V30 3798 C 360.882 2.36162 -2.54646 0
M  V30 3799 C 359.836 2.17016 -3.68901 0
M  V30 3800 C 359.162 3.53278 -4.01371 0
M  V30 3801 C 360.462 1.57219 -4.98076 0
M  V30 3802 H 362.156 0.632195 -2.92649 0
M  V30 3803 H 359.702 0.302654 -1.40784 0
M  V30 3804 H 361.655 3.06882 -2.88793 0
M  V30 3805 H 360.379 2.80456 -1.67368 0
M  V30 3806 H 359.038 1.48733 -3.35073 0
M  V30 3807 H 358.686 3.95185 -3.11188 0
M  V30 3808 H 358.386 3.41299 -4.78318 0
M  V30 3809 H 359.91 4.25391 -4.38035 0
M  V30 3810 H 361.324 2.17832 -5.30304 0
M  V30 3811 H 359.721 1.55871 -5.79503 0
M  V30 3812 H 360.791 0.535956 -4.81929 0
M  V30 3813 N 362.134 1.5431 0.320358 0
M  V30 3814 C 363.084 1.803 1.39556 0
M  V30 3815 C 364.068 0.659166 1.46778 0
M  V30 3816 O 365.26 0.91926 1.51257 0
M  V30 3817 C 362.389 2.03665 2.76361 0
M  V30 3818 C 361.475 3.24178 2.73439 0
M  V30 3819 N 361.866 4.4516 2.40137 0
M  V30 3820 C 360.164 3.25816 3.04565 0
M  V30 3821 C 360.865 5.27109 2.4603 0
M  V30 3822 N 359.841 4.64368 2.82601 0
M  V30 3823 H 363.643 2.71416 1.12742 0
M  V30 3824 H 361.157 1.53548 0.528856 0
M  V30 3825 H 363.154 2.20425 3.53862 0
M  V30 3826 H 361.814 1.13805 3.04103 0
M  V30 3827 H 362.825 4.72104 2.12927 0
M  V30 3828 H 359.502 2.46001 3.37328 0
M  V30 3829 H 360.892 6.33728 2.23246 0
M  V30 3830 N 363.613 -0.582584 1.46437 0
M  V30 3831 C 364.838 -1.37168 1.55563 0
M  V30 3832 C 365.263 -1.87061 0.19743 0
M  V30 3833 O 364.621 -1.61572 -0.822451 0
M  V30 3834 C 364.669 -2.53511 2.56446 0
M  V30 3835 O 363.773 -3.54953 2.09958 0
M  V30 3836 H 363.114 -0.408494 0.523477 0
M  V30 3837 H 365.644 -0.706646 1.9201 0
M  V30 3838 H 365.654 -3.00426 2.76058 0
M  V30 3839 H 364.329 -2.16549 3.55076 0
M  V30 3840 H 362.906 -3.14516 2.00334 0
M  V30 3841 N 365.091 -1.34144 -0.827227 0
M  V30 3842 C 366.368 -1.16844 -1.56865 0
M  V30 3843 C 366.748 0.260654 -2.09485 0
M  V30 3844 O 366.096 1.26138 -1.9053 0
M  V30 3845 C 366.306 -2.21939 -2.6934 0
M  V30 3846 C 367.654 -2.56695 -3.3822 0
M  V30 3847 O 368.678 -2.20695 -2.79593 0
M  V30 3848 O 367.537 -3.18518 -4.44082 0
M  V30 3849 H 364.631 -0.452669 -0.692112 0
M  V30 3850 H 367.177 -1.45763 -0.868973 0
M  V30 3851 H 365.949 -3.17882 -2.28182 0
M  V30 3852 H 365.572 -1.94172 -3.46962 0
M  V30 3853 N 366.569 1.04691 -1.17803 0
M  V30 3854 C 367.815 1.78181 -0.980977 0
M  V30 3855 C 368.17 1.86191 0.484825 0
M  V30 3856 O 367.463 1.35436 1.35527 0
M  V30 3857 C 367.657 3.21467 -1.56186 0
M  V30 3858 C 367.486 3.27422 -3.08261 0
M  V30 3859 C 366.256 3.36415 -3.77032 0
M  V30 3860 C 368.454 3.15947 -4.0581 0
M  V30 3861 N 366.436 3.31554 -5.16667 0
M  V30 3862 C 367.807 3.18514 -5.31929 0
M  V30 3863 C 369.862 2.99945 -3.97413 0
M  V30 3864 C 368.565 3.06723 -6.50625 0
M  V30 3865 C 370.591 2.89497 -5.15699 0
M  V30 3866 C 369.953 2.92702 -6.40706 0
M  V30 3867 H 366.052 0.6641 -0.412911 0
M  V30 3868 H 368.636 1.24762 -1.49474 0
M  V30 3869 H 366.807 3.73245 -1.07436 0
M  V30 3870 H 368.539 3.8322 -1.30093 0
M  V30 3871 H 365.294 3.41887 -3.27735 0
M  V30 3872 H 365.718 3.3258 -5.89678 0
M  V30 3873 H 370.36 2.96302 -3.01604 0
M  V30 3874 H 368.078 3.0912 -7.46639 0
M  V30 3875 H 371.664 2.78179 -5.10987 0
M  V30 3876 H 370.544 2.84697 -7.30696 0
M  V30 3877 N 368.047 0.979072 1.23499 0
M  V30 3878 C 369.294 0.647219 1.91878 0
M  V30 3879 C 369.622 -0.819074 1.76413 0
M  V30 3880 O 368.877 -1.60616 1.11808 0
M  V30 3881 C 369.176 0.981932 3.43646 0
M  V30 3882 C 368.842 2.43822 3.79291 0
M  V30 3883 C 367.504 2.83622 3.88731 0
M  V30 3884 C 369.856 3.3828 3.96505 0
M  V30 3885 C 367.184 4.16897 4.12812 0
M  V30 3886 C 369.536 4.71197 4.22085 0
M  V30 3887 C 368.2 5.10758 4.29747 0
M  V30 3888 H 367.47 0.236834 0.702133 0
M  V30 3889 H 370.117 1.23268 1.46551 0
M  V30 3890 H 368.422 0.314365 3.90537 0
M  V30 3891 H 370.119 0.703395 3.94783 0
M  V30 3892 H 366.709 2.11966 3.72516 0
M  V30 3893 H 370.893 3.0871 3.88603 0
M  V30 3894 H 366.149 4.47157 4.16966 0
M  V30 3895 H 370.323 5.44348 4.34348 0
M  V30 3896 H 367.95 6.1405 4.48159 0
M  V30 3897 N 369.525 -1.3858 0.750561 0
M  V30 3898 C 370.455 -2.33102 0.136237 0
M  V30 3899 C 371.436 -1.54713 -0.706965 0
M  V30 3900 O 372.621 -1.83043 -0.648769 0
M  V30 3901 C 369.751 -3.38882 -0.760017 0
M  V30 3902 C 368.705 -4.27995 -0.0197785 0
M  V30 3903 C 368.031 -5.24605 -1.03408 0
M  V30 3904 C 369.331 -5.09554 1.14684 0
M  V30 3905 H 371.025 -2.84726 0.925822 0
M  V30 3906 H 368.571 -1.36898 0.446654 0
M  V30 3907 H 370.524 -4.0397 -1.19943 0
M  V30 3908 H 369.248 -2.85734 -1.58189 0
M  V30 3909 H 367.907 -3.64409 0.400184 0
M  V30 3910 H 367.555 -4.67746 -1.84994 0
M  V30 3911 H 367.255 -5.85081 -0.543464 0
M  V30 3912 H 368.779 -5.9257 -1.47288 0
M  V30 3913 H 370.193 -5.67899 0.785118 0
M  V30 3914 H 368.59 -5.7925 1.56812 0
M  V30 3915 H 369.66 -4.4347 1.96118 0
M  V30 3916 N 371.003 -0.499398 -1.49478 0
M  V30 3917 C 371.935 0.316575 -2.27003 0
M  V30 3918 C 372.948 0.932047 -1.33479 0
M  V30 3919 O 374.137 0.815658 -1.58774 0
M  V30 3920 C 371.237 1.46055 -3.05812 0
M  V30 3921 C 370.41 0.952679 -4.26899 0
M  V30 3922 C 369.469 1.97407 -4.87767 0
M  V30 3923 O 368.495 1.54326 -5.4788 0
M  V30 3924 N 369.697 3.30436 -4.77276 0
M  V30 3925 H 372.462 -0.348168 -2.97671 0
M  V30 3926 H 370.023 -0.33185 -1.58463 0
M  V30 3927 H 372.015 2.14135 -3.43407 0
M  V30 3928 H 370.585 2.02948 -2.37762 0
M  V30 3929 H 369.805 0.0968248 -3.94081 0
M  V30 3930 H 371.093 0.59174 -5.05347 0
M  V30 3931 H 370.491 3.68126 -4.29534 0
M  V30 3932 H 369.048 3.94235 -5.19059 0
M  V30 3933 N 372.481 1.55866 -0.233164 0
M  V30 3934 C 373.892 1.847 0.272554 0
M  V30 3935 C 374.243 1.15477 1.58617 0
M  V30 3936 O 373.368 0.42841 2.12117 0
M  V30 3937 C 373.963 3.35071 0.501299 0
M  V30 3938 C 372.522 3.6418 0.951304 0
M  V30 3939 C 371.669 2.77292 0.0208209 0
M  V30 3940 H 374.62 1.52005 -0.456074 0
M  V30 3941 H 374.641 3.55906 1.34577 0
M  V30 3942 H 374.153 3.85424 -0.454936 0
M  V30 3943 H 372.254 3.19293 1.92049 0
M  V30 3944 H 372.367 4.72071 0.817675 0
M  V30 3945 H 370.731 2.49131 0.529723 0
M  V30 3946 H 371.514 3.30448 -0.93054 0
M  V30 3947 N 373.959 -0.0401083 1.57549 0
M  V30 3948 C 375.208 -0.732108 1.87944 0
M  V30 3949 C 375.521 -1.77107 0.830206 0
M  V30 3950 O 376.727 -2.51488 1.02302 0
M  V30 3951 C 375.183 -1.35315 3.33494 0
M  V30 3952 C 374.791 -0.351105 4.46622 0
M  V30 3953 C 376.535 -2.02566 3.73051 0
M  V30 3954 C 374.442 -0.979859 5.83226 0
M  V30 3955 H 373.372 -0.277188 0.701201 0
M  V30 3956 H 376.023 0.0138501 1.83495 0
M  V30 3957 H 374.405 -2.14844 3.32653 0
M  V30 3958 H 375.579 0.416674 4.58912 0
M  V30 3959 H 373.894 0.218708 4.15825 0
M  V30 3960 H 376.491 -2.50441 4.72423 0
M  V30 3961 H 376.834 -2.83904 3.04474 0
M  V30 3962 H 377.367 -1.29827 3.76018 0
M  V30 3963 H 374.106 -0.206135 6.55176 0
M  V30 3964 H 373.626 -1.71774 5.74677 0
M  V30 3965 H 375.305 -1.49046 6.29599 0
M  V30 3966 N 375.437 -1.54477 -0.31217 0
M  V30 3967 C 376.667 -1.76948 -1.06645 0
M  V30 3968 C 377.075 -0.523593 -1.81811 0
M  V30 3969 O 376.418 0.51578 -1.76311 0
M  V30 3970 C 376.48 -2.91668 -2.10166 0
M  V30 3971 C 376.144 -4.30165 -1.54296 0
M  V30 3972 C 377.141 -5.10603 -0.978793 0
M  V30 3973 C 374.826 -4.76738 -1.58196 0
M  V30 3974 C 376.82 -6.3573 -0.461048 0
M  V30 3975 C 374.507 -6.01831 -1.06034 0
M  V30 3976 C 375.505 -6.81161 -0.500844 0
M  V30 3977 O 375.193 -8.03899 0.0128958 0
M  V30 3978 H 374.925 -0.594088 -0.322546 0
M  V30 3979 H 377.479 -2.02213 -0.360441 0
M  V30 3980 H 375.709 -2.62001 -2.84416 0
M  V30 3981 H 377.398 -3.01817 -2.71406 0
M  V30 3982 H 378.164 -4.75771 -0.941651 0
M  V30 3983 H 374.043 -4.15027 -2.00683 0
M  V30 3984 H 377.587 -6.97596 -0.0236894 0
M  V30 3985 H 373.484 -6.36152 -1.09459 0
M  V30 3986 H 374.252 -8.18437 -0.101457 0
M  V30 3987 N 376.915 0.57481 -1.46744 0
M  V30 3988 C 377.847 1.69804 -1.53946 0
M  V30 3989 C 378.86 1.57098 -0.427106 0
M  V30 3990 O 380.049 1.64378 -0.695863 0
M  V30 3991 C 377.149 3.08125 -1.4111 0
M  V30 3992 C 376.322 3.46757 -2.66605 0
M  V30 3993 C 375.381 4.6417 -2.47855 0
M  V30 3994 O 374.407 4.69634 -3.21609 0
M  V30 3995 N 375.609 5.59553 -1.54534 0
M  V30 3996 H 378.374 1.64077 -2.50796 0
M  V30 3997 H 375.935 0.761 -1.429 0
M  V30 3998 H 377.927 3.84478 -1.26328 0
M  V30 3999 H 376.497 3.08175 -0.524109 0
M  V30 4000 H 375.717 2.6003 -2.96274 0
M  V30 4001 H 377.005 3.69337 -3.49954 0
M  V30 4002 H 376.403 5.57881 -0.937304 0
M  V30 4003 H 374.96 6.35304 -1.45711 0
M  V30 4004 N 378.394 1.34581 0.820102 0
M  V30 4005 C 379.642 1.26845 1.57336 0
M  V30 4006 C 379.963 -0.160667 1.94337 0
M  V30 4007 O 379.233 -1.09396 1.6251 0
M  V30 4008 H 377.813 0.466514 0.583415 0
M  V30 4009 H 380.475 1.68526 0.979027 0
M  V30 4010 H 379.571 1.87513 2.4949 0
M  V30 4011 N 379.872 -1.04064 1.18357 0
M  V30 4012 C 381.097 -1.81454 1.00445 0
M  V30 4013 C 381.522 -1.82823 -0.442423 0
M  V30 4014 O 380.88 -1.24555 -1.31741 0
M  V30 4015 C 380.928 -3.24925 1.56384 0
M  V30 4016 O 380.032 -4.04856 0.785209 0
M  V30 4017 H 379.373 -0.560604 0.355835 0
M  V30 4018 H 381.903 -1.31059 1.57114 0
M  V30 4019 H 381.913 -3.75702 1.59097 0
M  V30 4020 H 380.588 -3.23244 2.61699 0
M  V30 4021 H 379.165 -3.63537 0.830399 0
M  V30 4022 N 381.35 -0.985608 -1.22978 0
M  V30 4023 C 382.58 -0.674603 -1.95276 0
M  V30 4024 C 382.988 0.763483 -1.73111 0
M  V30 4025 O 382.331 1.52601 -1.02268 0
M  V30 4026 C 382.393 -0.891597 -3.48268 0
M  V30 4027 C 382.057 -2.31275 -3.94158 0
M  V30 4028 C 383.054 -3.29179 -4.02415 0
M  V30 4029 C 380.739 -2.64524 -4.27004 0
M  V30 4030 C 382.733 -4.58407 -4.42879 0
M  V30 4031 C 380.42 -3.93974 -4.67149 0
M  V30 4032 C 381.418 -4.90727 -4.75053 0
M  V30 4033 O 381.106 -6.17865 -5.14294 0
M  V30 4034 H 380.838 -0.249251 -0.628371 0
M  V30 4035 H 383.392 -1.32106 -1.5728 0
M  V30 4036 H 381.622 -0.187962 -3.86243 0
M  V30 4037 H 383.311 -0.576957 -4.01779 0
M  V30 4038 H 384.077 -3.04823 -3.77237 0
M  V30 4039 H 379.956 -1.89923 -4.2006 0
M  V30 4040 H 383.5 -5.33926 -4.48964 0
M  V30 4041 H 379.397 -4.18122 -4.91777 0
M  V30 4042 H 380.165 -6.21694 -5.32389 0
M  V30 4043 N 382.828 1.3818 -0.7579 0
M  V30 4044 C 384.239 1.82726 -0.383134 0
M  V30 4045 C 384.59 1.63214 1.08884 0
M  V30 4046 O 383.715 1.13566 1.84205 0
M  V30 4047 C 384.31 3.31728 -0.688631 0
M  V30 4048 C 382.869 3.74606 -0.367091 0
M  V30 4049 C 382.016 2.60896 -0.939599 0
M  V30 4050 H 384.967 1.26847 -0.953699 0
M  V30 4051 H 384.988 3.80487 0.0316492 0
M  V30 4052 H 384.5 3.45898 -1.76001 0
M  V30 4053 H 382.601 3.66013 0.697532 0
M  V30 4054 H 382.714 4.71215 -0.865658 0
M  V30 4055 H 381.078 2.52075 -0.3647 0
M  V30 4056 H 381.861 2.77864 -2.0161 0
M  V30 4057 N 384.306 0.507319 1.49211 0
M  V30 4058 C 385.238 -0.304532 2.27168 0
M  V30 4059 C 386.251 -0.924956 1.33972 0
M  V30 4060 O 387.44 -0.807227 1.59205 0
M  V30 4061 C 384.54 -1.44431 3.06583 0
M  V30 4062 C 383.713 -0.930026 4.27398 0
M  V30 4063 C 382.772 -1.94817 4.88807 0
M  V30 4064 O 381.798 -1.51418 5.4869 0
M  V30 4065 N 383 -3.279 4.79022 0
M  V30 4066 H 385.765 0.36395 2.97482 0
M  V30 4067 H 383.326 0.340249 1.58284 0
M  V30 4068 H 385.318 -2.12311 3.44537 0
M  V30 4069 H 383.888 -2.01684 2.38835 0
M  V30 4070 H 383.108 -0.0759244 3.94127 0
M  V30 4071 H 384.396 -0.564932 5.05654 0
M  V30 4072 H 383.794 -3.65843 4.3148 0
M  V30 4073 H 382.351 -3.91476 5.21142 0
M  V30 4074 N 385.784 -1.5574 0.241426 0
M  V30 4075 C 387.031 -1.9881 -0.384836 0
M  V30 4076 C 387.359 -1.12947 -1.58346 0
M  V30 4077 O 386.614 -0.178993 -1.9488 0
M  V30 4078 C 386.913 -3.47308 -0.843317 0
M  V30 4079 C 386.579 -4.50223 0.246946 0
M  V30 4080 C 385.241 -4.78088 0.546399 0
M  V30 4081 C 387.593 -5.11841 0.983282 0
M  V30 4082 C 384.921 -5.64846 1.58636 0
M  V30 4083 C 387.273 -5.99727 2.01272 0
M  V30 4084 C 385.937 -6.25927 2.31888 0
M  V30 4085 H 385.207 -0.727496 -0.140821 0
M  V30 4086 H 387.854 -1.8831 0.348106 0
M  V30 4087 H 386.159 -3.55112 -1.65537 0
M  V30 4088 H 387.856 -3.78017 -1.33806 0
M  V30 4089 H 384.446 -4.286 0.00340639 0
M  V30 4090 H 388.63 -4.90366 0.765182 0
M  V30 4091 H 383.886 -5.83403 1.82896 0
M  V30 4092 H 388.06 -6.46517 2.58823 0
M  V30 4093 H 385.687 -6.92949 3.12611 0
M  V30 4094 N 387.262 0.0317525 -1.57568 0
M  V30 4095 C 388.192 1.03274 -2.0942 0
M  V30 4096 C 389.173 1.3788 -0.996143 0
M  V30 4097 O 390.358 1.46811 -1.27122 0
M  V30 4098 C 387.488 2.33448 -2.57137 0
M  V30 4099 C 386.442 2.13091 -3.71182 0
M  V30 4100 C 385.768 3.49001 -4.05095 0
M  V30 4101 C 387.068 1.51928 -4.99715 0
M  V30 4102 H 388.762 0.60112 -2.93303 0
M  V30 4103 H 386.308 0.287705 -1.41097 0
M  V30 4104 H 388.261 3.03802 -2.92032 0
M  V30 4105 H 386.985 2.78665 -1.70333 0
M  V30 4106 H 385.644 1.45171 -3.36632 0
M  V30 4107 H 385.292 3.91862 -3.15362 0
M  V30 4108 H 384.992 3.36207 -4.81911 0
M  V30 4109 H 386.516 4.20721 -4.42522 0
M  V30 4110 H 387.93 2.12196 -5.32584 0
M  V30 4111 H 386.327 1.49716 -5.81124 0
M  V30 4112 H 387.397 0.484811 -4.8247 0
M  V30 4113 N 388.74 1.54641 0.303973 0
M  V30 4114 C 389.986 1.74038 1.04109 0
M  V30 4115 C 390.319 0.523051 1.87024 0
M  V30 4116 O 389.594 -0.479874 1.88487 0
M  V30 4117 C 389.877 3.02761 1.94955 0
M  V30 4118 C 389.73 4.34787 1.1524 0
M  V30 4119 C 391.049 3.27336 2.94175 0
M  V30 4120 H 388.168 0.63323 0.377079 0
M  V30 4121 H 390.81 1.87354 0.316001 0
M  V30 4122 H 388.96 2.9154 2.56782 0
M  V30 4123 H 390.632 4.57922 0.557236 0
M  V30 4124 H 388.875 4.31407 0.455053 0
M  V30 4125 H 389.546 5.21116 1.8205 0
M  V30 4126 H 392.022 3.38148 2.42477 0
M  V30 4127 H 390.898 4.18726 3.54908 0
M  V30 4128 H 391.159 2.45491 3.67677 0
M  V30 4129 N 390.218 -0.567019 1.47046 0
M  V30 4130 C 391.495 -1.3276 1.43646 0
M  V30 4131 C 391.875 -2.1071 0.128186 0
M  V30 4132 O 391.223 -2.10441 -0.890326 0
M  V30 4133 C 391.433 -2.2404 2.67595 0
M  V30 4134 C 392.781 -2.85372 3.14401 0
M  V30 4135 O 393.805 -2.34346 2.68254 0
M  V30 4136 O 392.664 -3.78091 3.946 0
M  V30 4137 H 389.758 -0.597293 0.571988 0
M  V30 4138 H 392.304 -0.586735 1.59234 0
M  V30 4139 H 391.076 -1.65975 3.54356 0
M  V30 4140 H 390.699 -3.05439 2.54544 0
M  V30 4141 N 391.696 -1.35014 -0.812953 0
M  V30 4142 C 392.942 -1.29129 -1.57154 0
M  V30 4143 C 393.297 0.134922 -1.91926 0
M  V30 4144 O 392.59 1.08373 -1.58006 0
M  V30 4145 C 392.784 -2.12524 -2.87347 0
M  V30 4146 C 392.613 -3.6311 -2.65294 0
M  V30 4147 C 391.383 -4.32363 -2.61516 0
M  V30 4148 C 393.581 -4.56897 -2.36114 0
M  V30 4149 N 391.563 -5.68735 -2.31113 0
M  V30 4150 C 392.934 -5.81345 -2.15494 0
M  V30 4151 C 394.989 -4.45706 -2.21925 0
M  V30 4152 C 393.692 -6.95862 -1.82122 0
M  V30 4153 C 395.718 -5.60066 -1.89948 0
M  V30 4154 C 395.08 -6.83539 -1.7016 0
M  V30 4155 H 391.179 -0.527764 -0.577052 0
M  V30 4156 H 393.763 -1.6983 -0.952146 0
M  V30 4157 H 391.934 -1.74104 -3.47192 0
M  V30 4158 H 393.666 -1.98207 -3.5284 0
M  V30 4159 H 390.421 -3.84907 -2.75941 0
M  V30 4160 H 390.845 -6.40694 -2.18724 0
M  V30 4161 H 395.487 -3.50855 -2.35925 0
M  V30 4162 H 393.205 -7.90685 -1.6686 0
M  V30 4163 H 396.791 -5.53357 -1.79687 0
M  V30 4164 H 395.671 -7.70531 -1.45777 0
M  V30 4165 N 393.175 1.03435 -1.18907 0
M  V30 4166 C 394.422 1.76743 -0.988334 0
M  V30 4167 C 394.75 1.88447 0.481441 0
M  V30 4168 O 394.005 1.39383 1.37371 0
M  V30 4169 C 394.304 3.19792 -1.59586 0
M  V30 4170 C 393.97 3.28108 -3.09283 0
M  V30 4171 C 392.632 3.30084 -3.5014 0
M  V30 4172 C 394.984 3.27696 -4.05296 0
M  V30 4173 C 392.312 3.29299 -4.85571 0
M  V30 4174 C 394.664 3.28451 -5.4065 0
M  V30 4175 C 393.328 3.28723 -5.80946 0
M  V30 4176 H 392.598 0.64675 -0.361657 0
M  V30 4177 H 395.245 1.21442 -1.48068 0
M  V30 4178 H 393.55 3.78136 -1.02568 0
M  V30 4179 H 395.247 3.75171 -1.41589 0
M  V30 4180 H 391.837 3.27294 -2.76725 0
M  V30 4181 H 396.021 3.25354 -3.74778 0
M  V30 4182 H 391.277 3.2783 -5.16079 0
M  V30 4183 H 395.451 3.27082 -6.14809 0
M  V30 4184 H 393.078 3.27868 -6.85862 0
M  V30 4185 N 394.653 0.992116 1.22453 0
M  V30 4186 C 395.616 0.546883 2.2258 0
M  V30 4187 C 396.616 -0.369829 1.56489 0
M  V30 4188 O 397.806 -0.161896 1.73446 0
M  V30 4189 C 394.938 -0.204659 3.40285 0
M  V30 4190 H 396.131 1.43234 2.63484 0
M  V30 4191 H 393.684 0.779239 1.3549 0
M  V30 4192 H 394.419 -1.10614 3.04853 0
M  V30 4193 H 394.204 0.45354 3.89468 0
M  V30 4194 H 395.694 -0.504358 4.14543 0
M  V30 4195 N 396.131 -1.37776 0.765217 0
M  V30 4196 C 397.041 -2.34135 0.147666 0
M  V30 4197 C 398.057 -1.59854 -0.687215 0
M  V30 4198 O 399.233 -1.91983 -0.608659 0
M  V30 4199 C 396.298 -3.3901 -0.72617 0
M  V30 4200 C 395.359 -4.2912 0.124417 0
M  V30 4201 C 394.592 -5.28986 -0.707807 0
M  V30 4202 O 394.815 -5.36205 -1.94525 0
M  V30 4203 O 393.749 -6.01779 -0.12046 0
M  V30 4204 H 397.575 -2.88664 0.943758 0
M  V30 4205 H 395.16 -1.39824 0.526277 0
M  V30 4206 H 397.042 -4.03195 -1.22524 0
M  V30 4207 H 395.717 -2.86819 -1.50056 0
M  V30 4208 H 394.624 -3.68057 0.669696 0
M  V30 4209 H 395.957 -4.84598 0.861736 0
M  V30 4210 N 397.609 -0.515225 -1.4894 0
M  V30 4211 C 398.541 0.292481 -2.27326 0
M  V30 4212 C 399.554 0.917838 -1.3446 0
M  V30 4213 O 400.743 0.798772 -1.5963 0
M  V30 4214 C 397.843 1.42803 -3.07344 0
M  V30 4215 C 397.016 0.907347 -4.27885 0
M  V30 4216 C 396.075 1.92222 -4.89834 0
M  V30 4217 O 395.101 1.48506 -5.49486 0
M  V30 4218 N 396.303 3.25355 -4.80754 0
M  V30 4219 H 399.068 -0.379721 -2.97285 0
M  V30 4220 H 396.629 -0.348638 -1.58102 0
M  V30 4221 H 398.621 2.10481 -3.45658 0
M  V30 4222 H 397.191 2.00414 -2.39902 0
M  V30 4223 H 396.411 0.0550218 -3.94162 0
M  V30 4224 H 397.699 0.538108 -5.05946 0
M  V30 4225 H 397.097 3.6355 -4.33414 0
M  V30 4226 H 395.654 3.88707 -5.23211 0
M  V30 4227 N 399.087 1.5561 -0.249682 0
M  V30 4228 C 400.335 1.98618 0.373548 0
M  V30 4229 C 400.656 1.13919 1.58264 0
M  V30 4230 O 399.926 0.222637 1.94631 0
M  V30 4231 H 398.506 0.733571 0.141006 0
M  V30 4232 H 401.168 1.91748 -0.349117 0
M  V30 4233 H 400.264 3.04584 0.680796 0
M  V30 4234 N 400.565 -0.0233959 1.57583 0
M  V30 4235 C 401.528 -1.00693 2.05897 0
M  V30 4236 C 402.528 -1.28693 0.964092 0
M  V30 4237 O 403.718 -1.23602 1.22753 0
M  V30 4238 C 400.85 -2.33825 2.4807 0
M  V30 4239 H 402.043 -0.589476 2.9405 0
M  V30 4240 H 399.596 -0.270354 1.53944 0
M  V30 4241 H 400.331 -2.80307 1.6309 0
M  V30 4242 H 400.116 -2.1483 3.2801 0
M  V30 4243 H 401.606 -3.04426 2.85857 0
M  V30 4244 N 402.043 -1.548 -0.295768 0
M  V30 4245 C 403.271 -1.78327 -1.04914 0
M  V30 4246 C 403.686 -0.545316 -1.80753 0
M  V30 4247 O 403.043 0.485013 -1.75937 0
M  V30 4248 C 403.094 -2.99418 -2.02561 0
M  V30 4249 O 402.815 -4.18431 -1.29798 0
M  V30 4250 C 404.316 -3.35375 -2.89895 0
M  V30 4251 H 401.536 -0.594618 -0.310918 0
M  V30 4252 H 404.08 -2.01763 -0.333454 0
M  V30 4253 H 402.235 -2.78175 -2.69624 0
M  V30 4254 H 402.649 -4.86736 -1.95419 0
M  V30 4255 H 404.123 -4.23332 -3.54251 0
M  V30 4256 H 404.6 -2.53761 -3.58472 0
M  V30 4257 H 405.206 -3.58796 -2.28355 0
M  V30 4258 N 403.521 0.559213 -1.47345 0
M  V30 4259 C 404.767 1.31843 -1.54095 0
M  V30 4260 C 405.1 1.93149 -0.201726 0
M  V30 4261 O 404.375 1.77759 0.789428 0
M  V30 4262 C 404.658 2.43006 -2.65744 0
M  V30 4263 C 404.511 1.86581 -4.09277 0
M  V30 4264 C 405.83 3.44943 -2.73318 0
M  V30 4265 H 402.949 0.478012 -0.560957 0
M  V30 4266 H 405.591 0.625977 -1.79392 0
M  V30 4267 H 403.741 3.02072 -2.44305 0
M  V30 4268 H 405.413 1.31792 -4.42073 0
M  V30 4269 H 403.656 1.17268 -4.17649 0
M  V30 4270 H 404.327 2.66933 -4.83168 0
M  V30 4271 H 406.803 2.95793 -2.92653 0
M  V30 4272 H 405.679 4.20153 -3.53218 0
M  V30 4273 H 405.94 4.03665 -1.80296 0
M  V30 4274 N 404.999 1.35443 0.805782 0
M  V30 4275 C 406.41 1.25768 1.37983 0
M  V30 4276 C 406.761 -0.10958 1.95894 0
M  V30 4277 O 405.886 -1.01056 1.91355 0
M  V30 4278 C 406.481 2.27727 2.5085 0
M  V30 4279 C 405.04 2.2179 3.04115 0
M  V30 4280 C 404.187 2.13393 1.77084 0
M  V30 4281 H 407.138 1.4656 0.608752 0
M  V30 4282 H 407.159 1.90422 3.29424 0
M  V30 4283 H 406.671 3.27227 2.08671 0
M  V30 4284 H 404.772 1.25703 3.50756 0
M  V30 4285 H 404.885 3.13788 3.62042 0
M  V30 4286 H 403.249 1.59384 1.98668 0
M  V30 4287 H 404.032 3.14755 1.37056 0
M  V30 4288 N 406.477 -1.02803 1.19454 0
M  V30 4289 C 407.726 -1.7562 0.991996 0
M  V30 4290 C 408.039 -1.89672 -0.477901 0
M  V30 4291 O 409.245 -2.59468 -0.799287 0
M  V30 4292 C 407.701 -3.15812 1.72601 0
M  V30 4293 C 407.309 -3.0981 3.23607 0
M  V30 4294 C 409.053 -3.92918 1.60674 0
M  V30 4295 C 406.96 -4.44939 3.89594 0
M  V30 4296 H 405.89 -0.658352 0.367543 0
M  V30 4297 H 408.541 -1.15044 1.42959 0
M  V30 4298 H 406.923 -3.7686 1.21624 0
M  V30 4299 H 408.097 -2.58138 3.81709 0
M  V30 4300 H 406.412 -2.46201 3.35819 0
M  V30 4301 H 409.009 -4.9287 2.07323 0
M  V30 4302 H 409.352 -4.12502 0.561025 0
M  V30 4303 H 409.885 -3.38472 2.09001 0
M  V30 4304 H 406.624 -4.30559 4.94267 0
M  V30 4305 H 406.144 -4.96664 3.36281 0
M  V30 4306 H 407.823 -5.1382 3.93189 0
M  V30 4307 N 407.956 -0.998596 -1.21925 0
M  V30 4308 C 408.888 -0.511879 -2.23411 0
M  V30 4309 C 409.901 0.396094 -1.57908 0
M  V30 4310 O 411.09 0.197316 -1.77406 0
M  V30 4311 C 408.19 0.276802 -3.37768 0
M  V30 4312 C 407.363 -0.628687 -4.32858 0
M  V30 4313 C 406.422 0.109272 -5.26087 0
M  V30 4314 O 405.448 -0.507237 -5.66935 0
M  V30 4315 N 406.65 1.38983 -5.63617 0
M  V30 4316 H 409.415 -1.38457 -2.658 0
M  V30 4317 H 406.976 -0.873981 -1.36283 0
M  V30 4318 H 408.968 0.77928 -3.97126 0
M  V30 4319 H 407.538 1.05063 -2.94415 0
M  V30 4320 H 406.758 -1.31175 -3.71735 0
M  V30 4321 H 408.046 -1.24514 -4.93329 0
M  V30 4322 H 407.444 1.91194 -5.32411 0
M  V30 4323 H 406.001 1.83739 -6.25367 0
M  V30 4324 N 409.434 1.37368 -0.772513 0
M  V30 4325 C 410.711 1.93839 -0.26188 0
M  V30 4326 C 411.091 1.7061 1.24319 0
M  V30 4327 O 410.439 1.05534 2.02669 0
M  V30 4328 C 410.649 3.43154 -0.636102 0
M  V30 4329 C 411.997 4.20249 -0.606324 0
M  V30 4330 O 413.021 3.5152 -0.575538 0
M  V30 4331 O 411.88 5.42809 -0.634086 0
M  V30 4332 H 408.974 0.82478 -0.0605555 0
M  V30 4333 H 411.52 1.4665 -0.853917 0
M  V30 4334 H 410.292 3.53647 -1.6748 0
M  V30 4335 H 409.915 3.97596 -0.0170516 0
M  V30 4336 N 410.912 0.523116 1.48665 0
M  V30 4337 C 412.16 -0.0134497 2.02096 0
M  V30 4338 C 412.481 -1.35418 1.40311 0
M  V30 4339 O 411.751 -1.87543 0.566074 0
M  V30 4340 H 410.331 -0.00795915 0.746958 0
M  V30 4341 H 412.993 0.685388 1.82451 0
M  V30 4342 H 412.089 -0.126849 3.11842 0
M  V30 4343 N 412.39 -1.55475 0.257931 0
M  V30 4344 C 413.667 -1.91155 -0.414629 0
M  V30 4345 C 414.047 -1.18008 -1.75035 0
M  V30 4346 O 413.395 -0.301193 -2.26506 0
M  V30 4347 C 413.605 -3.44283 -0.571859 0
M  V30 4348 C 414.953 -4.15744 -0.862678 0
M  V30 4349 O 415.977 -3.50083 -0.657314 0
M  V30 4350 O 414.836 -5.31909 -1.2544 0
M  V30 4351 H 411.93 -0.796016 -0.22425 0
M  V30 4352 H 414.476 -1.66976 0.302814 0
M  V30 4353 H 413.248 -3.89558 0.368844 0
M  V30 4354 H 412.871 -3.7436 -1.33943 0
M  V30 4355 N 413.868 0.0150385 -1.57593 0
M  V30 4356 C 414.801 1.04475 -2.0288 0
M  V30 4357 C 415.779 1.3436 -0.915764 0
M  V30 4358 O 416.963 1.46779 -1.18271 0
M  V30 4359 C 414.09 2.37608 -2.41371 0
M  V30 4360 C 413.136 2.23487 -3.63257 0
M  V30 4361 S 413.969 1.57505 -5.11813 0
M  V30 4362 C 415.125 2.921 -5.5356 0
M  V30 4363 H 415.358 0.65907 -2.89903 0
M  V30 4364 H 412.891 0.225452 -1.52745 0
M  V30 4365 H 414.849 3.14165 -2.64217 0
M  V30 4366 H 413.51 2.7332 -1.54775 0
M  V30 4367 H 412.703 3.21802 -3.87891 0
M  V30 4368 H 412.305 1.55074 -3.40335 0
M  V30 4369 H 414.597 3.88419 -5.55101 0
M  V30 4370 H 415.54 2.72184 -6.53698 0
M  V30 4371 H 415.948 2.95318 -4.8109 0
M  V30 4372 N 415.346 1.54954 0.287554 0
M  V30 4373 C 416.623 1.65569 1.04146 0
M  V30 4374 C 417.003 0.512672 2.0478 0
M  V30 4375 O 416.351 -0.489038 2.23205 0
M  V30 4376 C 416.561 3.04163 1.71131 0
M  V30 4377 C 417.909 3.61429 2.22832 0
M  V30 4378 O 418.933 3.06702 1.81141 0
M  V30 4379 O 417.792 4.57281 2.9926 0
M  V30 4380 H 414.886 0.671881 0.482188 0
M  V30 4381 H 417.432 1.67297 0.28457 0
M  V30 4382 H 416.204 3.78796 0.981303 0
M  V30 4383 H 415.827 3.06271 2.53543 0
M  V30 4384 N 416.824 -0.551391 1.4764 0
M  V30 4385 C 418.073 -1.30467 1.53822 0
M  V30 4386 C 418.386 -1.94495 0.207661 0
M  V30 4387 O 419.592 -2.71099 0.147533 0
M  V30 4388 C 418.048 -2.36616 2.71184 0
M  V30 4389 C 417.656 -1.78754 4.10793 0
M  V30 4390 C 419.4 -3.13088 2.86663 0
M  V30 4391 C 417.307 -2.82717 5.19447 0
M  V30 4392 H 416.237 -0.490584 0.572576 0
M  V30 4393 H 418.888 -0.58494 1.73927 0
M  V30 4394 H 417.27 -3.11529 2.4447 0
M  V30 4395 H 418.444 -1.10173 4.47435 0
M  V30 4396 H 416.759 -1.14846 4.00249 0
M  V30 4397 H 419.356 -3.90736 3.65007 0
M  V30 4398 H 419.699 -3.67635 1.95321 0
M  V30 4399 H 420.232 -2.45288 3.13175 0
M  V30 4400 H 416.971 -2.33018 6.12685 0
M  V30 4401 H 416.491 -3.4969 4.87316 0
M  V30 4402 H 418.17 -3.46102 5.46646 0
M  V30 4403 N 418.302 -1.35869 -0.798587 0
M  V30 4404 C 419.551 -1.28921 -1.5512 0
M  V30 4405 C 419.864 0.13208 -1.95154 0
M  V30 4406 O 421.07 0.323879 -2.69561 0
M  V30 4407 C 419.526 -2.26141 -2.79979 0
M  V30 4408 C 419.134 -3.73658 -2.47151 0
M  V30 4409 C 420.878 -2.28152 -3.57976 0
M  V30 4410 C 418.785 -4.62679 -3.6835 0
M  V30 4411 H 417.715 -0.479031 -0.582276 0
M  V30 4412 H 420.366 -1.61179 -0.877125 0
M  V30 4413 H 418.748 -1.86865 -3.49138 0
M  V30 4414 H 419.922 -4.21616 -1.85947 0
M  V30 4415 H 418.237 -3.74333 -1.82383 0
M  V30 4416 H 420.834 -2.91875 -4.4801 0
M  V30 4417 H 421.177 -1.28748 -3.95891 0
M  V30 4418 H 421.71 -2.65998 -2.95787 0
M  V30 4419 H 418.449 -5.63111 -3.35538 0
M  V30 4420 H 417.969 -4.19442 -4.28752 0
M  V30 4421 H 419.648 -4.78498 -4.35487 0
M  V30 4422 N 419.78 1.02168 -1.19998 0
M  V30 4423 C 421.028 1.75338 -1.00504 0
M  V30 4424 C 421.349 1.89387 0.464506 0
M  V30 4425 O 420.619 1.43268 1.33608 0
M  V30 4426 H 419.199 0.649564 -0.368885 0
M  V30 4427 H 421.861 1.23205 -1.51018 0
M  V30 4428 H 420.957 2.75892 -1.45912 0
M  V30 4429 N 421.258 1.00505 1.21394 0
M  V30 4430 C 422.168 0.574806 2.27449 0
M  V30 4431 C 423.184 -0.382206 1.6975 0
M  V30 4432 O 424.36 -0.246027 1.99892 0
M  V30 4433 C 421.425 -0.0917414 3.46579 0
M  V30 4434 C 420.486 0.909758 4.1955 0
M  V30 4435 C 419.719 0.274924 5.32991 0
M  V30 4436 O 419.942 -0.928254 5.62796 0
M  V30 4437 O 418.876 0.985877 5.93771 0
M  V30 4438 H 422.702 1.45744 2.66444 0
M  V30 4439 H 420.287 0.773923 1.27792 0
M  V30 4440 H 422.169 -0.464551 4.18832 0
M  V30 4441 H 420.844 -0.948755 3.09484 0
M  V30 4442 H 419.751 1.33372 3.49518 0
M  V30 4443 H 421.084 1.73636 4.60555 0
M  V30 4444 N 422.737 -1.36956 0.779787 0
M  V30 4445 C 424.148 -1.82094 0.412156 0
M  V30 4446 C 424.499 -1.64926 -1.06273 0
M  V30 4447 O 423.624 -1.16483 -1.82375 0
M  V30 4448 C 424.219 -3.3059 0.741319 0
M  V30 4449 C 422.778 -3.73974 0.426641 0
M  V30 4450 C 421.925 -2.59368 0.980987 0
M  V30 4451 H 424.876 -1.25314 0.973758 0
M  V30 4452 H 424.897 -3.80489 0.028887 0
M  V30 4453 H 424.409 -3.43054 1.81482 0
M  V30 4454 H 422.51 -3.67076 -0.639215 0
M  V30 4455 H 422.623 -4.69778 0.940515 0
M  V30 4456 H 420.987 -2.51463 0.404757 0
M  V30 4457 H 421.77 -2.74621 2.06005 0
M  V30 4458 N 424.215 -0.530993 -1.48385 0
M  V30 4459 C 425.464 0.00474348 -2.01699 0
M  V30 4460 C 425.777 1.35227 -1.41325 0
M  V30 4461 O 426.983 1.97643 -1.86144 0
M  V30 4462 C 425.439 0.0588473 -3.59852 0
M  V30 4463 C 425.047 -1.28385 -4.2921 0
M  V30 4464 C 426.791 0.543358 -4.21008 0
M  V30 4465 C 424.698 -1.19028 -5.79298 0
M  V30 4466 H 423.628 0.00554317 -0.75398 0
M  V30 4467 H 426.279 -0.674924 -1.70637 0
M  V30 4468 H 424.661 0.803612 -3.8776 0
M  V30 4469 H 425.835 -2.04426 -4.12973 0
M  V30 4470 H 424.15 -1.70418 -3.7993 0
M  V30 4471 H 426.747 0.631351 -5.3096 0
M  V30 4472 H 427.09 1.54937 -3.86394 0
M  V30 4473 H 427.623 -0.145754 -3.97533 0
M  V30 4474 H 424.362 -2.17147 -6.18488 0
M  V30 4475 H 423.882 -0.471246 -5.97946 0
M  V30 4476 H 425.561 -0.881365 -6.40969 0
M  V30 4477 N 425.693 1.55336 -0.266172 0
M  V30 4478 C 426.97 1.91372 0.404486 0
M  V30 4479 C 427.35 1.18935 1.74407 0
M  V30 4480 O 426.698 0.3132 2.26343 0
M  V30 4481 C 426.908 3.44581 0.553593 0
M  V30 4482 C 428.256 4.16196 0.840618 0
M  V30 4483 O 429.28 3.50426 0.638739 0
M  V30 4484 O 428.139 5.32567 1.22618 0
M  V30 4485 H 425.233 0.797194 0.220025 0
M  V30 4486 H 427.779 1.66813 -0.311664 0
M  V30 4487 H 426.551 3.89357 -0.389498 0
M  V30 4488 H 426.174 3.75065 1.31955 0
M  V30 4489 N 427.171 -0.0066808 1.57599 0
M  V30 4490 C 428.104 -1.03397 2.03431 0
M  V30 4491 C 429.082 -1.33872 0.922877 0
M  V30 4492 O 430.266 -1.4615 1.19048 0
M  V30 4493 C 427.393 -2.36325 2.42628 0
M  V30 4494 C 426.439 -2.21557 3.64438 0
M  V30 4495 S 427.272 -1.54789 5.12641 0
M  V30 4496 C 428.428 -2.8916 5.55101 0
M  V30 4497 H 428.661 -0.643687 2.90248 0
M  V30 4498 H 426.194 -0.217349 1.52863 0
M  V30 4499 H 428.152 -3.12759 2.65879 0
M  V30 4500 H 426.813 -2.72495 1.56222 0
M  V30 4501 H 426.006 -3.1974 3.89592 0
M  V30 4502 H 425.608 -1.53267 3.41153 0
M  V30 4503 H 427.9 -3.8547 5.57153 0
M  V30 4504 H 428.843 -2.68713 6.55133 0
M  V30 4505 H 429.251 -2.92762 4.82649 0
M  V30 4506 N 428.649 -1.55105 -0.279332 0
M  V30 4507 C 429.898 -1.74618 -1.00952 0
M  V30 4508 C 430.211 -0.551096 -1.87676 0
M  V30 4509 O 431.417 -0.628507 -2.64125 0
M  V30 4510 C 429.873 -3.09025 -1.84476 0
M  V30 4511 C 429.481 -4.36081 -1.0265 0
M  V30 4512 C 431.225 -3.37891 -2.56963 0
M  V30 4513 C 429.132 -5.6153 -1.85576 0
M  V30 4514 H 428.062 -0.650868 -0.38064 0
M  V30 4515 H 430.713 -1.81569 -0.265475 0
M  V30 4516 H 429.095 -2.96095 -2.62952 0
M  V30 4517 H 430.269 -4.59909 -0.286354 0
M  V30 4518 H 428.584 -4.14312 -0.416464 0
M  V30 4519 H 431.181 -4.28822 -3.19399 0
M  V30 4520 H 431.524 -2.57737 -3.26921 0
M  V30 4521 H 432.057 -3.5189 -1.85522 0
M  V30 4522 H 428.796 -6.44413 -1.2005 0
M  V30 4523 H 428.316 -5.41854 -2.57204 0
M  V30 4524 H 429.995 -5.99594 -2.43096 0
M  V30 4525 N 430.127 0.543554 -1.4793 0
M  V30 4526 C 431.375 1.29752 -1.54948 0
M  V30 4527 C 431.696 1.93764 -0.219242 0
M  V30 4528 O 430.966 1.80639 0.75805 0
M  V30 4529 H 429.546 0.481874 -0.570795 0
M  V30 4530 H 432.208 0.633636 -1.84312 0
M  V30 4531 H 431.304 2.08392 -2.32334 0
M  V30 4532 N 431.605 1.3629 0.791371 0
M  V30 4533 C 432.854 1.29742 1.54434 0
M  V30 4534 C 433.167 -0.121729 1.95221 0
M  V30 4535 O 434.373 -0.309579 2.69729 0
M  V30 4536 C 432.829 2.27623 2.78776 0
M  V30 4537 C 432.437 3.74963 2.45166 0
M  V30 4538 C 434.181 2.30047 3.56761 0
M  V30 4539 C 432.088 4.64626 3.65891 0
M  V30 4540 H 431.018 0.482113 0.579727 0
M  V30 4541 H 433.669 1.61642 0.868565 0
M  V30 4542 H 432.051 1.88714 3.48142 0
M  V30 4543 H 433.225 4.22596 1.83709 0
M  V30 4544 H 431.54 3.75295 1.80396 0
M  V30 4545 H 434.137 2.94247 4.46456 0
M  V30 4546 H 434.48 1.30846 3.95203 0
M  V30 4547 H 435.013 2.67563 2.94372 0
M  V30 4548 H 431.752 5.64883 3.32547 0
M  V30 4549 H 431.272 4.2171 4.26521 0
M  V30 4550 H 432.951 4.80801 4.32943 0
M  V30 4551 N 433.083 -1.0153 1.20538 0
M  V30 4552 C 434.031 -2.12215 0.952235 0
M  V30 4553 C 435.025 -1.69123 -0.0968735 0
M  V30 4554 O 436.231 -1.7992 0.0536006 0
M  V30 4555 H 432.606 -0.693576 0.290613 0
M  V30 4556 H 434.577 -2.3075 1.89201 0
M  V30 4557 C 433.326 -3.43755 0.522287 0
M  V30 4558 H 432.649 -3.7734 1.32115 0
M  V30 4559 H 434.089 -4.22254 0.384389 0
M  V30 4560 C 432.548 -3.28088 -0.765489 0
M  V30 4561 O 433.078 -3.57921 -1.8236 0
M  V30 4562 N 431.284 -2.81333 -0.728011 0
M  V30 4563 H 430.831 -2.57255 0.133332 0
M  V30 4564 H 430.789 -2.71232 -1.58999 0
M  V30 4565 N 434.561 -1.01147 -1.20859 0
M  V30 4566 C 435.791 -0.715872 -1.93801 0
M  V30 4567 C 436.199 0.726592 -1.74692 0
M  V30 4568 O 435.542 1.50397 -1.05482 0
M  V30 4569 C 435.604 -0.965269 -3.46299 0
M  V30 4570 C 435.268 -2.39584 -3.89164 0
M  V30 4571 C 436.265 -3.3764 -3.95342 0
M  V30 4572 C 433.95 -2.73522 -4.21297 0
M  V30 4573 C 435.944 -4.67698 -4.33056 0
M  V30 4574 C 433.631 -4.03794 -4.58687 0
M  V30 4575 C 434.629 -5.00693 -4.64538 0
M  V30 4576 O 434.317 -6.28635 -5.01072 0
M  V30 4577 H 434.049 -0.262524 -0.622942 0
M  V30 4578 H 436.603 -1.35413 -1.54443 0
M  V30 4579 H 434.833 -0.269847 -3.85757 0
M  V30 4580 H 436.522 -0.662051 -4.00464 0
M  V30 4581 H 437.288 -3.12757 -3.70686 0
M  V30 4582 H 433.167 -1.9879 -4.15937 0
M  V30 4583 H 436.711 -5.4333 -4.37537 0
M  V30 4584 H 432.608 -4.28459 -4.82797 0
M  V30 4585 H 433.376 -6.32847 -5.19083 0
M  V30 4586 N 436.039 1.36541 -0.78704 0
M  V30 4587 C 437.269 2.03266 -0.369662 0
M  V30 4588 C 437.677 1.59481 1.01796 0
M  V30 4589 O 437.02 0.778612 1.66383 0
M  V30 4590 C 437.082 3.57779 -0.351371 0
M  V30 4591 C 436.746 4.24756 -1.68617 0
M  V30 4592 C 437.743 4.47811 -2.64124 0
M  V30 4593 C 435.428 4.62277 -1.96481 0
M  V30 4594 C 437.422 5.07464 -3.85693 0
M  V30 4595 C 435.109 5.21649 -3.18317 0
M  V30 4596 C 436.107 5.44182 -4.12741 0
M  V30 4597 O 435.795 6.02307 -5.32429 0
M  V30 4598 H 435.527 0.658977 -0.150751 0
M  V30 4599 H 438.081 1.75548 -1.0664 0
M  V30 4600 H 436.311 3.84606 0.401847 0
M  V30 4601 H 438 4.05879 0.0410147 0
M  V30 4602 H 438.766 4.19221 -2.43883 0
M  V30 4603 H 434.645 4.44065 -1.23805 0
M  V30 4604 H 438.189 5.24968 -4.59407 0
M  V30 4605 H 434.086 5.49664 -3.38437 0
M  V30 4606 H 434.854 6.20775 -5.33461 0
M  V30 4607 N 437.518 0.538854 1.48102 0
M  V30 4608 C 438.743 0.0102694 2.07397 0
M  V30 4609 C 439.168 -1.26562 1.39153 0
M  V30 4610 O 438.526 -1.75357 0.460387 0
M  V30 4611 C 438.574 -0.187602 3.60112 0
M  V30 4612 O 437.678 -1.25432 3.92862 0
M  V30 4613 H 437.019 0.0430975 0.6626 0
M  V30 4614 H 439.549 0.749301 1.90385 0
M  V30 4615 H 439.559 -0.407517 4.0596 0
M  V30 4616 H 438.234 0.744386 4.09184 0
M  V30 4617 H 436.811 -1.01636 3.58782 0
M  V30 4618 N 438.996 -1.55193 0.274407 0
M  V30 4619 C 439.929 -2.18606 -0.654712 0
M  V30 4620 C 440.907 -1.14677 -1.15273 0
M  V30 4621 O 442.091 -1.43198 -1.22583 0
M  V30 4622 C 439.218 -2.80875 -1.89281 0
M  V30 4623 C 438.264 -3.981 -1.53032 0
M  V30 4624 S 439.097 -5.32025 -0.609107 0
M  V30 4625 C 440.253 -5.97761 -1.85559 0
M  V30 4626 H 440.486 -2.97074 -0.115894 0
M  V30 4627 H 438.019 -1.54288 0.05867 0
M  V30 4628 H 439.977 -3.17381 -2.60345 0
M  V30 4629 H 438.638 -2.02302 -2.40277 0
M  V30 4630 H 437.831 -4.40356 -2.45158 0
M  V30 4631 H 437.433 -3.63013 -0.899874 0
M  V30 4632 H 439.725 -6.16951 -2.7996 0
M  V30 4633 H 440.668 -6.92545 -1.47605 0
M  V30 4634 H 441.076 -5.27113 -2.02021 0
M  V30 4635 N 440.474 -0.00167713 -1.576 0
M  V30 4636 C 441.699 0.69739 -1.95323 0
M  V30 4637 C 442.124 1.6642 -0.876706 0
M  V30 4638 O 441.482 1.80548 0.165007 0
M  V30 4639 C 441.53 1.40403 -3.32144 0
M  V30 4640 O 440.634 2.5185 -3.26566 0
M  V30 4641 H 439.975 0.185373 -0.637599 0
M  V30 4642 H 442.505 -0.0553665 -2.04525 0
M  V30 4643 H 442.515 1.76707 -3.67748 0
M  V30 4644 H 441.19 0.695167 -4.10049 0
M  V30 4645 H 439.767 2.17861 -3.0264 0
M  V30 4646 N 441.952 1.55251 0.271103 0
M  V30 4647 C 443.198 1.76207 1.00394 0
M  V30 4648 C 443.531 0.562604 1.85872 0
M  V30 4649 O 442.806 -0.439785 1.89463 0
M  V30 4650 C 443.089 3.06828 1.8849 0
M  V30 4651 C 442.942 4.37134 1.05992 0
M  V30 4652 C 444.261 3.33503 2.87165 0
M  V30 4653 H 441.38 0.641086 0.363562 0
M  V30 4654 H 444.022 1.87982 0.276189 0
M  V30 4655 H 442.172 2.96921 2.5054 0
M  V30 4656 H 443.844 4.59001 0.459978 0
M  V30 4657 H 442.087 4.32275 0.363443 0
M  V30 4658 H 442.758 5.2486 1.70955 0
M  V30 4659 H 445.234 3.43215 2.3525 0
M  V30 4660 H 444.11 4.2616 3.45946 0
M  V30 4661 H 444.371 2.53235 3.62387 0
M  V30 4662 N 443.43 -0.535701 1.48216 0
M  V30 4663 C 444.378 -1.66179 1.62749 0
M  V30 4664 C 445.372 -1.62034 0.49409 0
M  V30 4665 O 446.578 -1.6696 0.672624 0
M  V30 4666 H 442.953 -0.550244 0.512578 0
M  V30 4667 H 444.924 -1.51063 2.57337 0
M  V30 4668 C 443.673 -3.04471 1.67907 0
M  V30 4669 H 442.996 -3.08351 2.54479 0
M  V30 4670 H 444.436 -3.82894 1.82121 0
M  V30 4671 C 442.895 -3.34314 0.416596 0
M  V30 4672 O 443.425 -3.98905 -0.473014 0
M  V30 4673 N 441.631 -2.89149 0.290038 0
M  V30 4674 H 441.178 -2.36764 1.01493 0
M  V30 4675 H 441.136 -3.09486 -0.55367 0
M  V30 4676 N 444.908 -1.36708 -0.784132 0
M  V30 4677 C 446.324 -1.17237 -1.08294 0
M  V30 4678 C 446.524 -5.93947e-05 -2.015 0
M  V30 4679 O 445.58 0.663686 -2.43622 0
M  V30 4680 C 446.893 -2.48557 -1.69233 0
M  V30 4681 C 448.441 -2.54968 -1.8155 0
M  V30 4682 C 448.916 -3.86388 -2.45904 0
M  V30 4683 N 450.407 -3.87762 -2.53367 0
M  V30 4684 C 451.142 -4.86191 -3.03983 0
M  V30 4685 N 450.638 -5.95015 -3.54866 0
M  V30 4686 N 452.431 -4.73606 -3.02743 0
M  V30 4687 H 444.582 -2.11758 -0.16501 0
M  V30 4688 H 446.845 -0.93822 -0.135822 0
M  V30 4689 H 446.551 -3.34638 -1.08215 0
M  V30 4690 H 446.425 -2.64748 -2.68679 0
M  V30 4691 H 448.812 -1.69302 -2.41704 0
M  V30 4692 H 448.893 -2.42672 -0.80895 0
M  V30 4693 H 448.537 -4.72462 -1.86392 0
M  V30 4694 H 448.467 -3.95982 -3.4714 0
M  V30 4695 H 450.958 -3.09145 -2.17343 0
M  V30 4696 H 451.271 -6.66086 -3.91854 0
M  V30 4697 H 449.616 -5.98676 -3.53003 0
M  V30 4698 H 452.807 -3.87717 -2.62284 0
M  V30 4699 H 452.98 -5.50473 -3.41881 0
M  V30 4700 N 446.386 1.0089 -1.21074 0
M  V30 4701 C 447.633 1.74607 -1.0256 0
M  V30 4702 C 447.961 1.89426 0.44136 0
M  V30 4703 O 447.216 1.42266 1.34384 0
M  V30 4704 C 447.515 3.16335 -1.66334 0
M  V30 4705 C 447.181 3.21474 -3.16173 0
M  V30 4706 C 445.843 3.22583 -3.57062 0
M  V30 4707 C 448.195 3.19025 -4.12156 0
M  V30 4708 C 445.523 3.18925 -4.92446 0
M  V30 4709 C 447.875 3.16909 -5.47496 0
M  V30 4710 C 446.539 3.16326 -5.87787 0
M  V30 4711 H 445.809 0.638933 -0.375294 0
M  V30 4712 H 448.456 1.18274 -1.50611 0
M  V30 4713 H 446.761 3.75876 -1.10566 0
M  V30 4714 H 448.458 3.72083 -1.49516 0
M  V30 4715 H 445.048 3.2135 -2.83605 0
M  V30 4716 H 449.232 3.17332 -3.81595 0
M  V30 4717 H 444.488 3.16809 -5.22917 0
M  V30 4718 H 448.662 3.13968 -6.21609 0
M  V30 4719 H 446.289 3.13246 -6.92662 0
M  V30 4720 N 447.864 1.01787 1.20321 0
M  V30 4721 C 448.812 0.58254 2.25187 0
M  V30 4722 C 449.806 -0.379359 1.65098 0
M  V30 4723 O 451.012 -0.249142 1.78267 0
M  V30 4724 H 447.387 0.170078 0.732514 0
M  V30 4725 H 449.358 1.47788 2.59232 0
M  V30 4726 C 448.107 -0.0620885 3.47645 0
M  V30 4727 H 447.43 0.669069 3.94162 0
M  V30 4728 H 448.87 -0.329784 4.22716 0
M  V30 4729 C 447.329 -1.3053 3.10586 0
M  V30 4730 O 447.859 -2.39848 3.22236 0
M  V30 4731 N 446.065 -1.18988 2.65123 0
M  V30 4732 H 445.612 -0.300341 2.55843 0
M  V30 4733 H 445.57 -2.02267 2.40698 0
M  V30 4734 N 449.342 -1.36122 0.79427 0
M  V30 4735 C 450.753 -1.81646 0.431446 0
M  V30 4736 C 451.104 -1.66043 -1.04518 0
M  V30 4737 O 450.229 -1.1841 -1.8113 0
M  V30 4738 C 450.824 -3.29785 0.776341 0
M  V30 4739 C 449.383 -3.73501 0.466282 0
M  V30 4740 C 448.53 -2.58313 1.00844 0
M  V30 4741 H 451.481 -1.24274 0.986995 0
M  V30 4742 H 451.502 -3.80437 0.0692413 0
M  V30 4743 H 451.014 -3.4111 1.8511 0
M  V30 4744 H 449.115 -3.67733 -0.600245 0
M  V30 4745 H 449.228 -4.68754 0.990288 0
M  V30 4746 H 447.592 -2.5102 0.431406 0
M  V30 4747 H 448.375 -2.72421 2.08906 0
M  V30 4748 N 450.82 -0.546701 -1.47814 0
M  V30 4749 C 451.73 0.21026 -2.33656 0
M  V30 4750 C 452.746 0.922413 -1.47538 0
M  V30 4751 O 453.922 0.893652 -1.80488 0
M  V30 4752 C 450.987 1.23348 -3.24016 0
M  V30 4753 C 450.048 0.529883 -4.26017 0
M  V30 4754 C 449.281 1.50435 -5.12059 0
M  V30 4755 O 449.504 2.73837 -5.00369 0
M  V30 4756 O 448.438 1.03459 -5.92942 0
M  V30 4757 H 452.264 -0.493605 -2.99662 0
M  V30 4758 H 449.849 -0.307427 -1.46203 0
M  V30 4759 H 451.731 1.82438 -3.79861 0
M  V30 4760 H 450.406 1.91945 -2.60651 0
M  V30 4761 H 449.313 -0.101948 -3.73961 0
M  V30 4762 H 450.646 -0.11445 -4.92067 0
M  V30 4763 N 452.299 1.55045 -0.282633 0
M  V30 4764 C 453.262 2.21515 0.588539 0
M  V30 4765 C 454.262 1.19535 1.07554 0
M  V30 4766 O 455.452 1.44391 0.974514 0
M  V30 4767 C 452.584 2.88704 1.8128 0
M  V30 4768 H 453.777 2.99899 0.00806397 0
M  V30 4769 H 451.33 1.56265 -0.0333067 0
M  V30 4770 H 452.065 2.14352 2.43359 0
M  V30 4771 H 451.85 3.63443 1.47144 0
M  V30 4772 H 453.34 3.39465 2.43214 0
M  V30 4773 N 453.777 0.010035 1.57597 0
M  V30 4774 C 455.025 -0.671371 1.90623 0
M  V30 4775 C 455.346 -1.73753 0.885151 0
M  V30 4776 O 454.616 -1.95752 -0.0760611 0
M  V30 4777 H 453.196 -0.250968 0.703579 0
M  V30 4778 H 455.858 0.0533325 1.94827 0
M  V30 4779 H 454.954 -1.13626 2.90681 0
M  V30 4780 N 455.255 -1.55392 -0.262866 0
M  V30 4781 C 456.502 -1.76476 -0.993109 0
M  V30 4782 C 456.83 -0.571479 -1.85915 0
M  V30 4783 O 456.085 0.445733 -1.90556 0
M  V30 4784 C 456.384 -3.02889 -1.89718 0
M  V30 4785 C 456.05 -4.34974 -1.18781 0
M  V30 4786 C 454.712 -4.7087 -0.991699 0
M  V30 4787 C 457.064 -5.16695 -0.683798 0
M  V30 4788 C 454.392 -5.86036 -0.279024 0
M  V30 4789 C 456.744 -6.32598 0.0153327 0
M  V30 4790 C 455.408 -6.67127 0.223062 0
M  V30 4791 H 454.678 -0.64577 -0.363404 0
M  V30 4792 H 457.325 -1.89664 -0.264525 0
M  V30 4793 H 455.63 -2.84644 -2.6923 0
M  V30 4794 H 457.327 -3.16399 -2.46359 0
M  V30 4795 H 453.917 -4.06765 -1.35058 0
M  V30 4796 H 458.101 -4.8943 -0.8229 0
M  V30 4797 H 453.357 -6.11306 -0.107456 0
M  V30 4798 H 457.531 -6.95171 0.413584 0
M  V30 4799 H 455.158 -7.56216 0.777265 0
M  V30 4800 N 456.733 0.527833 -1.48498 0
M  V30 4801 C 457.663 1.64136 -1.66077 0
M  V30 4802 C 458.644 1.62286 -0.509625 0
M  V30 4803 O 459.829 1.79449 -0.742413 0
M  V30 4804 C 456.959 3.02717 -1.70234 0
M  V30 4805 C 455.913 3.19426 -2.8487 0
M  V30 4806 C 455.239 4.5909 -2.74118 0
M  V30 4807 C 456.539 3.01993 -4.26142 0
M  V30 4808 H 458.233 1.4968 -2.593 0
M  V30 4809 H 455.779 0.718654 -1.24785 0
M  V30 4810 H 457.732 3.80491 -1.8112 0
M  V30 4811 H 456.456 3.18201 -0.735911 0
M  V30 4812 H 455.115 2.4407 -2.73542 0
M  V30 4813 H 454.763 4.71413 -1.7544 0
M  V30 4814 H 454.463 4.71214 -3.51042 0
M  V30 4815 H 455.987 5.3896 -2.86974 0
M  V30 4816 H 457.401 3.69558 -4.38292 0
M  V30 4817 H 455.798 3.2561 -5.04082 0
M  V30 4818 H 456.868 1.98396 -4.42456 0
M  V30 4819 N 458.211 1.37122 0.776871 0
M  V30 4820 C 459.143 1.28342 1.89897 0
M  V30 4821 C 460.156 0.200277 1.61563 0
M  V30 4822 O 461.345 0.456012 1.72577 0
M  V30 4823 C 458.445 0.960427 3.25006 0
M  V30 4824 C 457.618 2.148 3.81025 0
M  V30 4825 C 456.677 1.79608 4.94598 0
M  V30 4826 O 455.703 2.51845 5.10454 0
M  V30 4827 N 456.905 0.737171 5.758 0
M  V30 4828 H 459.67 2.25027 1.97947 0
M  V30 4829 H 457.231 1.3068 0.955739 0
M  V30 4830 H 459.223 0.705942 3.98495 0
M  V30 4831 H 457.793 0.0823066 3.12492 0
M  V30 4832 H 457.013 2.56454 2.99374 0
M  V30 4833 H 458.301 2.9411 4.15183 0
M  V30 4834 H 457.699 0.137637 5.65533 0
M  V30 4835 H 456.256 0.542534 6.49538 0
M  V30 4836 N 459.689 -1.00246 1.21608 0
M  V30 4837 C 460.914 -1.78167 1.06167 0
M  V30 4838 C 461.339 -1.84138 -0.384035 0
M  V30 4839 O 460.697 -1.28683 -1.27712 0
M  V30 4840 C 460.745 -3.19786 1.66642 0
M  V30 4841 O 459.849 -4.02153 0.913613 0
M  V30 4842 H 459.19 -0.549 0.37349 0
M  V30 4843 H 461.72 -1.25994 1.61204 0
M  V30 4844 H 461.73 -3.70451 1.70969 0
M  V30 4845 H 460.405 -3.14754 2.7185 0
M  V30 4846 H 458.982 -3.60711 0.945635 0
M  V30 4847 N 461.167 -1.02423 -1.1978 0
M  V30 4848 C 462.077 -0.610919 -2.26506 0
M  V30 4849 C 463.093 0.355152 -1.70337 0
M  V30 4850 O 464.269 0.214195 -2.00258 0
M  V30 4851 C 461.334 0.0365921 -3.46681 0
M  V30 4852 C 460.395 -0.976389 -4.18049 0
M  V30 4853 C 459.628 -0.359683 -5.32487 0
M  V30 4854 O 459.851 0.838601 -5.64202 0
M  V30 4855 O 458.785 -1.08022 -5.92127 0
M  V30 4856 H 462.611 -1.49965 -2.64091 0
M  V30 4857 H 460.196 -0.794156 -1.26545 0
M  V30 4858 H 462.078 0.39786 -4.19518 0
M  V30 4859 H 460.753 0.899398 -3.10954 0
M  V30 4860 H 459.66 -1.38916 -3.47352 0
M  V30 4861 H 460.993 -1.80941 -4.57735 0
M  V30 4862 N 462.645 1.35699 -0.801477 0
M  V30 4863 C 463.555 2.33661 -0.209691 0
M  V30 4864 C 464.571 1.6162 0.644591 0
M  V30 4865 O 465.747 1.93529 0.557545 0
M  V30 4866 C 462.812 3.40816 0.636033 0
M  V30 4867 C 461.873 4.28639 -0.238147 0
M  V30 4868 C 461.106 5.30676 0.567307 0
M  V30 4869 O 461.329 5.41174 1.8024 0
M  V30 4870 O 460.263 6.01887 -0.0391336 0
M  V30 4871 H 464.089 2.8606 -1.01996 0
M  V30 4872 H 461.674 1.38379 -0.563164 0
M  V30 4873 H 463.556 4.06301 1.11791 0
M  V30 4874 H 462.231 2.90696 1.42399 0
M  V30 4875 H 461.138 3.66152 -0.767044 0
M  V30 4876 H 462.471 4.82143 -0.989915 0
M  V30 4877 N 464.123 0.554532 1.47522 0
M  V30 4878 C 465.372 0.0273458 2.01681 0
M  V30 4879 C 465.685 -1.32962 1.43459 0
M  V30 4880 O 466.891 -1.94657 1.89265 0
M  V30 4881 C 465.347 -0.00159057 3.599 0
M  V30 4882 C 464.955 1.35197 4.27113 0
M  V30 4883 C 466.699 -0.476311 4.21819 0
M  V30 4884 C 464.606 1.28229 5.77331 0
M  V30 4885 H 463.536 0.00645269 0.753972 0
M  V30 4886 H 466.187 0.701985 1.69542 0
M  V30 4887 H 464.569 -0.741821 3.8899 0
M  V30 4888 H 465.743 2.1097 4.09668 0
M  V30 4889 H 464.058 1.76441 3.77171 0
M  V30 4890 H 466.655 -0.5468 5.31897 0
M  V30 4891 H 466.998 -1.4877 3.8881 0
M  V30 4892 H 467.531 0.20898 3.97251 0
M  V30 4893 H 464.27 2.26959 6.14955 0
M  V30 4894 H 463.79 0.566314 5.97121 0
M  V30 4895 H 465.469 0.983226 6.39485 0
M  V30 4896 N 465.601 -1.54893 0.290851 0
M  V30 4897 C 466.549 -2.24579 -0.605576 0
M  V30 4898 C 467.543 -1.24824 -1.14522 0
M  V30 4899 O 468.749 -1.42706 -1.09704 0
M  V30 4900 H 465.124 -0.720946 -0.213872 0
M  V30 4901 H 467.095 -2.984 0.0048173 0
M  V30 4902 C 465.844 -2.99224 -1.77088 0
M  V30 4903 H 465.167 -3.75782 -1.36484 0
M  V30 4904 H 466.607 -3.51281 -2.3744 0
M  V30 4905 C 465.066 -2.05602 -2.66888 0
M  V30 4906 O 465.596 -1.61745 -3.67698 0
M  V30 4907 N 463.802 -1.71771 -2.34399 0
M  V30 4908 H 463.349 -2.07633 -1.52468 0
M  V30 4909 H 463.307 -1.09403 -2.94751 0
M  V30 4910 N 467.08 -0.0183926 -1.57589 0
M  V30 4911 C 468.013 1.00148 -2.0505 0
M  V30 4912 C 468.991 1.32387 -0.944058 0
M  V30 4913 O 470.175 1.44237 -1.21358 0
M  V30 4914 C 467.302 2.32435 -2.46357 0
M  V30 4915 C 466.348 2.15731 -3.67916 0
M  V30 4916 S 467.181 1.46613 -5.15039 0
M  V30 4917 C 468.337 2.80293 -5.59631 0
M  V30 4918 H 468.57 0.597429 -2.91235 0
M  V30 4919 H 466.103 0.193002 -1.53189 0
M  V30 4920 H 468.061 3.0849 -2.70822 0
M  V30 4921 H 466.722 2.69975 -1.60537 0
M  V30 4922 H 465.915 3.13502 -3.9463 0
M  V30 4923 H 465.517 1.4782 -3.43548 0
M  V30 4924 H 467.809 3.76557 -5.63215 0
M  V30 4925 H 468.752 2.58256 -6.59325 0
M  V30 4926 H 469.16 2.85047 -4.87246 0
M  V30 4927 N 468.558 1.5553 0.254621 0
M  V30 4928 C 469.806 1.7665 0.981793 0
M  V30 4929 C 470.127 0.580963 1.86145 0
M  V30 4930 O 469.397 -0.403537 1.91699 0
M  V30 4931 H 467.977 0.651475 0.365498 0
M  V30 4932 H 470.639 1.92958 0.274426 0
M  V30 4933 H 469.735 2.67486 1.60802 0
M  V30 4934 N 470.036 -0.519951 1.48776 0
M  V30 4935 C 470.966 -1.63253 1.66945 0
M  V30 4936 C 471.947 -1.62014 0.518224 0
M  V30 4937 O 473.132 -1.79053 0.751919 0
M  V30 4938 C 470.262 -3.0181 1.71836 0
M  V30 4939 C 469.216 -3.17911 2.8656 0
M  V30 4940 C 468.542 -4.5763 2.76548 0
M  V30 4941 C 469.842 -2.99729 4.27738 0
M  V30 4942 H 471.536 -1.48302 2.6009 0
M  V30 4943 H 469.082 -0.712026 1.25165 0
M  V30 4944 H 471.035 -3.79525 1.83135 0
M  V30 4945 H 469.759 -3.17806 0.752775 0
M  V30 4946 H 468.418 -2.42616 2.74833 0
M  V30 4947 H 468.066 -4.70476 1.77937 0
M  V30 4948 H 467.766 -4.69346 3.53536 0
M  V30 4949 H 469.29 -5.37431 2.89828 0
M  V30 4950 H 470.704 -3.67228 4.40246 0
M  V30 4951 H 469.101 -3.22932 5.05801 0
M  V30 4952 H 470.171 -1.96047 4.43502 0
M  V30 4953 N 471.514 -1.37532 -0.769588 0
M  V30 4954 C 472.925 -1.29382 -1.346 0
M  V30 4955 C 473.276 0.0576039 -1.96115 0
M  V30 4956 O 472.401 0.95947 -1.93967 0
M  V30 4957 C 472.996 -2.34298 -2.44724 0
M  V30 4958 C 471.555 -2.29776 -2.98128 0
M  V30 4959 C 470.702 -2.18013 -1.71364 0
M  V30 4960 H 473.653 -1.48123 -0.56968 0
M  V30 4961 H 473.674 -1.99089 -3.24259 0
M  V30 4962 H 473.186 -3.32645 -1.99922 0
M  V30 4963 H 471.287 -1.34959 -3.47299 0
M  V30 4964 H 471.4 -3.23276 -3.53595 0
M  V30 4965 H 469.764 -1.64595 -1.94372 0
M  V30 4966 H 470.547 -3.18278 -1.28662 0
M  V30 4967 N 472.992 0.995999 -1.22138 0
M  V30 4968 C 474.238 1.73767 -1.04561 0
M  V30 4969 C 474.571 1.89633 0.418698 0
M  V30 4970 O 473.846 1.43723 1.3105 0
M  V30 4971 C 474.129 3.14505 -1.75382 0
M  V30 4972 C 473.982 3.06306 -3.29388 0
M  V30 4973 C 475.301 4.13615 -1.50369 0
M  V30 4974 H 472.42 0.630728 -0.38125 0
M  V30 4975 H 475.062 1.16057 -1.50435 0
M  V30 4976 H 473.212 3.63775 -1.36383 0
M  V30 4977 H 474.884 2.64681 -3.77812 0
M  V30 4978 H 473.127 2.43186 -3.59226 0
M  V30 4979 H 473.798 4.05884 -3.74116 0
M  V30 4980 H 476.274 3.73089 -1.84239 0
M  V30 4981 H 475.15 5.10212 -2.02421 0
M  V30 4982 H 475.411 4.39949 -0.435611 0
M  V30 4983 N 474.47 1.03057 1.19235 0
M  V30 4984 C 475.698 0.747697 1.92917 0
M  V30 4985 C 476.113 -0.69372 1.75593 0
M  V30 4986 O 475.47 -1.47191 1.07894 0
M  V30 4987 C 475.521 1.09159 3.44625 0
M  V30 4988 O 475.242 2.47641 3.61394 0
M  V30 4989 C 476.743 0.831763 4.35427 0
M  V30 4990 H 473.963 0.273453 0.612751 0
M  V30 4991 H 476.507 1.37552 1.51327 0
M  V30 4992 H 474.662 0.508919 3.84043 0
M  V30 4993 H 475.076 2.60499 4.55237 0
M  V30 4994 H 476.55 1.12233 5.4047 0
M  V30 4995 H 477.027 -0.233769 4.38577 0
M  V30 4996 H 477.633 1.39725 4.01693 0
M  V30 4997 N 475.948 -1.35272 0.808662 0
M  V30 4998 C 477.225 -1.93077 0.313181 0
M  V30 4999 C 477.605 -1.73847 -1.19752 0
M  V30 5000 O 476.953 -1.1087 -1.998 0
M  V30 5001 C 477.163 -3.41347 0.726859 0
M  V30 5002 C 478.511 -4.18493 0.717532 0
M  V30 5003 O 479.535 -3.4987 0.668535 0
M  V30 5004 O 478.394 -5.40937 0.777779 0
M  V30 5005 H 475.488 -0.822885 0.0824018 0
M  V30 5006 H 478.034 -1.44335 0.892499 0
M  V30 5007 H 476.806 -3.49082 1.76797 0
M  V30 5008 H 476.429 -3.97411 0.122461 0
M  V30 5009 N 477.426 -0.562348 -1.47226 0
M  V30 5010 C 478.675 -0.038041 -2.01664 0
M  V30 5011 C 478.988 1.32199 -1.44162 0
M  V30 5012 O 480.194 1.9365 -1.90294 0
M  V30 5013 C 478.65 -0.0174958 -3.59896 0
M  V30 5014 C 478.258 -1.3746 -4.2639 0
M  V30 5015 C 480.002 0.453934 -4.22066 0
M  V30 5016 C 477.909 -1.31289 -5.76643 0
M  V30 5017 H 476.839 -0.0104511 -0.753928 0
M  V30 5018 H 479.49 -0.710966 -1.69167 0
M  V30 5019 H 477.872 0.721182 -3.89378 0
M  V30 5020 H 479.046 -2.1314 -4.08544 0
M  V30 5021 H 477.361 -1.78438 -3.7623 0
M  V30 5022 H 479.958 0.518584 -5.32179 0
M  V30 5023 H 480.301 1.46706 -3.89594 0
M  V30 5024 H 480.834 -0.230044 -3.97134 0
M  V30 5025 H 477.573 -2.30217 -6.13743 0
M  V30 5026 H 477.093 -0.597973 -5.96812 0
M  V30 5027 H 478.772 -1.01713 -6.38955 0
M  V30 5028 N 478.904 1.54736 -0.299062 0
M  V30 5029 C 480.152 1.99706 0.31017 0
M  V30 5030 C 480.473 1.18896 1.54559 0
M  V30 5031 O 479.743 0.284445 1.93824 0
M  V30 5032 H 478.323 0.737686 0.117596 0
M  V30 5033 H 480.985 1.9054 -0.409943 0
M  V30 5034 H 480.081 3.06596 0.58355 0
M  V30 5035 N 480.382 0.0267497 1.57577 0
M  V30 5036 C 481.628 -0.647596 1.92815 0
M  V30 5037 C 481.983 -1.69872 0.903396 0
M  V30 5038 O 481.276 -1.91429 -0.0808881 0
M  V30 5039 C 481.47 -1.30914 3.3256 0
M  V30 5040 C 481.299 -0.323621 4.48534 0
M  V30 5041 C 480.069 0.0756607 5.05243 0
M  V30 5042 C 482.267 0.42112 5.12573 0
M  V30 5043 N 480.249 1.0566 6.04739 0
M  V30 5044 C 481.62 1.25589 6.07147 0
M  V30 5045 C 483.675 0.482077 4.95561 0
M  V30 5046 C 482.378 2.1461 6.86538 0
M  V30 5047 C 484.404 1.35962 5.75559 0
M  V30 5048 C 483.766 2.18217 6.69747 0
M  V30 5049 H 479.865 -0.209357 0.753454 0
M  V30 5050 H 482.449 0.0933695 1.94476 0
M  V30 5051 H 480.62 -2.02026 3.31723 0
M  V30 5052 H 482.352 -1.94033 3.55153 0
M  V30 5053 H 479.107 -0.298294 4.7266 0
M  V30 5054 H 479.531 1.54324 6.59176 0
M  V30 5055 H 484.173 -0.139609 4.22569 0
M  V30 5056 H 481.891 2.77835 7.58837 0
M  V30 5057 H 485.477 1.41105 5.6443 0
M  V30 5058 H 484.357 2.85022 7.3057 0
M  V30 5059 N 481.861 -1.55662 -0.24637 0
M  V30 5060 C 483.272 -1.67953 -0.81539 0
M  V30 5061 C 483.623 -0.624302 -1.86002 0
M  V30 5062 O 482.748 0.229328 -2.15181 0
M  V30 5063 C 483.343 -3.04484 -1.48576 0
M  V30 5064 C 481.902 -3.18713 -2.00248 0
M  V30 5065 C 481.049 -2.6383 -0.853766 0
M  V30 5066 H 484 -1.58685 -0.0221692 0
M  V30 5067 H 484.021 -2.98959 -2.3538 0
M  V30 5068 H 483.533 -3.81264 -0.725222 0
M  V30 5069 H 481.634 -2.46757 -2.79181 0
M  V30 5070 H 481.747 -4.25628 -2.1995 0
M  V30 5071 H 480.111 -2.21667 -1.25442 0
M  V30 5072 H 480.894 -3.43135 -0.106302 0
M  V30 5073 N 483.339 0.512053 -1.4905 0
M  V30 5074 C 484.585 1.26874 -1.58212 0
M  V30 5075 C 484.918 1.9241 -0.263073 0
M  V30 5076 O 484.193 1.80181 0.732476 0
M  V30 5077 C 484.476 2.34428 -2.73341 0
M  V30 5078 C 484.329 1.73466 -4.15006 0
M  V30 5079 C 485.648 3.36073 -2.84154 0
M  V30 5080 H 482.767 0.459924 -0.575881 0
M  V30 5081 H 485.409 0.568587 -1.81293 0
M  V30 5082 H 483.559 2.94146 -2.53792 0
M  V30 5083 H 485.231 1.17661 -4.46042 0
M  V30 5084 H 483.474 1.03921 -4.21168 0
M  V30 5085 H 484.145 2.51426 -4.91415 0
M  V30 5086 H 486.621 2.86332 -3.01916 0
M  V30 5087 H 485.497 4.08703 -3.66406 0
M  V30 5088 H 485.758 3.97725 -1.93048 0
M  V30 5089 N 484.817 1.37938 0.762283 0
M  V30 5090 C 485.727 1.36681 1.90671 0
M  V30 5091 C 486.743 0.265078 1.71969 0
M  V30 5092 O 487.919 0.502055 1.95042 0
M  V30 5093 C 484.984 1.18211 3.25925 0
M  V30 5094 C 484.045 2.3811 3.57214 0
M  V30 5095 C 483.278 2.20512 4.86014 0
M  V30 5096 O 483.501 1.19429 5.57757 0
M  V30 5097 O 482.435 3.08911 5.16583 0
M  V30 5098 H 486.261 2.33091 1.94685 0
M  V30 5099 H 483.846 1.18767 0.906356 0
M  V30 5100 H 485.728 1.09937 4.06807 0
M  V30 5101 H 484.403 0.248807 3.22742 0
M  V30 5102 H 483.31 2.51958 2.76529 0
M  V30 5103 H 484.643 3.30041 3.65149 0
M  V30 5104 N 486.295 -0.989507 1.22664 0
M  V30 5105 C 487.52 -1.77031 1.08051 0
M  V30 5106 C 487.945 -1.84535 -0.364483 0
M  V30 5107 O 487.303 -1.3003 -1.2634 0
M  V30 5108 C 487.351 -3.18 1.70024 0
M  V30 5109 O 486.455 -4.01161 0.956216 0
M  V30 5110 H 485.796 -0.545008 0.379292 0
M  V30 5111 H 488.326 -1.24277 1.62531 0
M  V30 5112 H 488.336 -3.68616 1.74888 0
M  V30 5113 H 487.011 -3.11853 2.75174 0
M  V30 5114 H 485.588 -3.59687 0.98384 0
M  V30 5115 N 487.773 -1.03688 -1.18687 0
M  V30 5116 C 489.189 -0.755413 -1.4059 0
M  V30 5117 C 489.389 0.656659 -1.905 0
M  V30 5118 O 488.445 1.42144 -2.08689 0
M  V30 5119 C 489.758 -1.7983 -2.41001 0
M  V30 5120 C 491.306 -1.81877 -2.54735 0
M  V30 5121 C 491.781 -2.85148 -3.58406 0
M  V30 5122 N 493.272 -2.84015 -3.6591 0
M  V30 5123 C 494.007 -3.60573 -4.45841 0
M  V30 5124 N 493.503 -4.46871 -5.29413 0
M  V30 5125 N 495.296 -3.49079 -4.40568 0
M  V30 5126 H 487.447 -1.94818 -0.846148 0
M  V30 5127 H 489.71 -0.842727 -0.434184 0
M  V30 5128 H 489.416 -2.81097 -2.1137 0
M  V30 5129 H 489.29 -1.62727 -3.40294 0
M  V30 5130 H 491.677 -0.812836 -2.83685 0
M  V30 5131 H 491.758 -2.03057 -1.55568 0
M  V30 5132 H 491.402 -3.85918 -3.30197 0
M  V30 5133 H 491.332 -2.61224 -4.57241 0
M  V30 5134 H 493.823 -2.21431 -3.0623 0
M  V30 5135 H 494.136 -5.02007 -5.87545 0
M  V30 5136 H 492.481 -4.5094 -5.28846 0
M  V30 5137 H 495.672 -2.81066 -3.74325 0
M  V30 5138 H 495.845 -4.08994 -5.02621 0
M  V30 5139 N 489.251 1.34841 -0.815825 0
M  V30 5140 C 490.499 1.98107 -0.399744 0
M  V30 5141 C 490.82 1.65019 1.03894 0
M  V30 5142 O 490.09 0.937311 1.72021 0
M  V30 5143 H 488.67 0.732827 -0.144823 0
M  V30 5144 H 491.332 1.64599 -1.0437 0
M  V30 5145 H 490.428 3.07856 -0.512965 0
M  V30 5146 N 490.729 0.570148 1.46925 0
M  V30 5147 C 491.659 -0.158274 2.32963 0
M  V30 5148 C 492.64 -0.896093 1.44583 0
M  V30 5149 O 493.825 -0.874022 1.7342 0
M  V30 5150 C 490.955 -1.18055 3.26619 0
M  V30 5151 C 489.909 -0.558379 4.24342 0
M  V30 5152 C 489.235 -1.68623 5.07415 0
M  V30 5153 C 490.535 0.496295 5.19937 0
M  V30 5154 H 492.229 0.560046 2.94115 0
M  V30 5155 H 489.775 0.270775 1.41431 0
M  V30 5156 H 491.728 -1.69841 3.85658 0
M  V30 5157 H 490.452 -1.92899 2.63548 0
M  V30 5158 H 489.111 -0.0617157 3.66548 0
M  V30 5159 H 488.759 -2.42402 4.40738 0
M  V30 5160 H 488.459 -1.27564 5.73586 0
M  V30 5161 H 489.983 -2.20709 5.69315 0
M  V30 5162 H 491.397 0.0640052 5.73264 0
M  V30 5163 H 489.794 0.82649 5.94381 0
M  V30 5164 H 490.864 1.38735 4.6463 0
M  V30 5165 N 492.207 -1.54576 0.307264 0
M  V30 5166 C 493.437 -2.04378 -0.302158 0
M  V30 5167 C 493.845 -1.18381 -1.47589 0
M  V30 5168 O 493.188 -0.20352 -1.82569 0
M  V30 5169 C 493.25 -3.50133 -0.815305 0
M  V30 5170 C 492.914 -4.56401 0.233977 0
M  V30 5171 C 493.911 -5.08884 1.06456 0
M  V30 5172 C 491.596 -5.0088 0.377478 0
M  V30 5173 C 493.59 -6.04394 2.02452 0
M  V30 5174 C 491.277 -5.96208 1.34088 0
M  V30 5175 C 492.275 -6.47849 2.16288 0
M  V30 5176 O 491.963 -7.41308 3.10994 0
M  V30 5177 H 491.695 -0.672502 -0.0686839 0
M  V30 5178 H 494.249 -2.00484 0.446682 0
M  V30 5179 H 492.479 -3.51371 -1.61478 0
M  V30 5180 H 494.168 -3.83098 -1.34129 0
M  V30 5181 H 494.934 -4.75311 0.964596 0
M  V30 5182 H 490.813 -4.60309 -0.252405 0
M  V30 5183 H 494.357 -6.44626 2.66652 0
M  V30 5184 H 490.254 -6.29198 1.44154 0
M  V30 5185 H 491.022 -7.5913 3.06045 0
M  V30 5186 N 493.685 -0.035106 -1.57561 0
M  V30 5187 C 494.595 0.960295 -2.14046 0
M  V30 5188 C 495.611 1.3529 -1.0942 0
M  V30 5189 O 496.787 1.43309 -1.41508 0
M  V30 5190 C 493.852 2.22214 -2.66124 0
M  V30 5191 C 492.913 1.8894 -3.85487 0
M  V30 5192 C 492.146 3.09109 -4.35072 0
M  V30 5193 O 492.369 4.21963 -3.83802 0
M  V30 5194 O 491.303 2.91058 -5.26848 0
M  V30 5195 H 495.129 0.509983 -2.99387 0
M  V30 5196 H 492.714 0.185853 -1.48239 0
M  V30 5197 H 494.596 2.96279 -2.99661 0
M  V30 5198 H 493.271 2.66414 -1.83862 0
M  V30 5199 H 492.178 1.12241 -3.56865 0
M  V30 5200 H 493.511 1.49551 -4.6893 0
M  V30 5201 N 495.163 1.55791 0.238111 0
M  V30 5202 C 496.409 1.78297 0.966337 0
M  V30 5203 C 496.742 0.601903 1.84637 0
M  V30 5204 O 496.017 -0.399499 1.90353 0
M  V30 5205 C 496.3 3.10758 1.81939 0
M  V30 5206 C 496.153 4.39283 0.966958 0
M  V30 5207 C 497.472 3.39519 2.80027 0
M  V30 5208 H 494.591 0.648654 0.349882 0
M  V30 5209 H 497.233 1.88525 0.236253 0
M  V30 5210 H 495.383 3.02168 2.44185 0
M  V30 5211 H 497.055 4.59873 0.362514 0
M  V30 5212 H 495.298 4.32948 0.271669 0
M  V30 5213 H 495.969 5.28368 1.59784 0
M  V30 5214 H 498.445 3.48128 2.27917 0
M  V30 5215 H 497.321 4.33402 3.36829 0
M  V30 5216 H 497.582 2.60864 3.56934 0
M  V30 5217 N 496.642 -0.504142 1.49319 0
M  V30 5218 C 497.572 -1.61473 1.68667 0
M  V30 5219 C 498.553 -1.61455 0.535378 0
M  V30 5220 O 499.738 -1.78245 0.770868 0
M  V30 5221 C 496.868 -2.99971 1.75028 0
M  V30 5222 C 495.822 -3.14854 2.89916 0
M  V30 5223 C 495.148 -4.54671 2.81387 0
M  V30 5224 C 496.448 -2.95176 4.30893 0
M  V30 5225 H 498.142 -1.45535 2.61648 0
M  V30 5226 H 495.688 -0.698711 1.25913 0
M  V30 5227 H 497.641 -3.77562 1.8715 0
M  V30 5228 H 496.365 -3.1699 0.786441 0
M  V30 5229 H 495.024 -2.39687 2.77391 0
M  V30 5230 H 494.672 -4.68562 1.82917 0
M  V30 5231 H 494.372 -4.6557 3.58494 0
M  V30 5232 H 495.896 -5.34327 2.95512 0
M  V30 5233 H 497.31 -3.62538 4.44116 0
M  V30 5234 H 495.707 -3.17549 5.09198 0
M  V30 5235 H 496.777 -1.91332 4.45556 0
M  V30 5236 N 498.12 -1.38341 -0.754957 0
M  V30 5237 C 499.07 -1.31964 -1.85929 0
M  V30 5238 C 500.054 -0.204181 -1.59599 0
M  V30 5239 O 501.246 -0.440036 -1.71443 0
M  V30 5240 C 498.375 -1.14565 -3.2362 0
M  V30 5241 C 497.461 -2.30727 -3.55846 0
M  V30 5242 N 497.852 -3.56165 -3.59138 0
M  V30 5243 C 496.15 -2.23249 -3.86104 0
M  V30 5244 C 496.851 -4.32865 -3.88591 0
M  V30 5245 N 495.827 -3.62203 -4.05351 0
M  V30 5246 H 499.629 -2.2694 -1.8675 0
M  V30 5247 H 497.143 -1.31553 -0.952243 0
M  V30 5248 H 499.14 -1.0808 -4.02647 0
M  V30 5249 H 497.8 -0.205212 -3.24051 0
M  V30 5250 H 498.811 -3.89854 -3.40932 0
M  V30 5251 H 495.488 -1.37357 -3.94258 0
M  V30 5252 H 496.878 -5.41504 -3.97773 0
M  V30 5253 N 499.598 0.982988 -1.23187 0
M  V30 5254 C 500.828 1.75666 -1.08743 0
M  V30 5255 C 501.236 1.85662 0.364195 0
M  V30 5256 O 500.579 1.33317 1.26382 0
M  V30 5257 C 500.641 3.20144 -1.63549 0
M  V30 5258 C 500.305 3.33665 -3.12277 0
M  V30 5259 C 501.302 3.20194 -4.096 0
M  V30 5260 C 498.987 3.58397 -3.51933 0
M  V30 5261 C 500.981 3.31256 -5.44563 0
M  V30 5262 C 498.668 3.69098 -4.87042 0
M  V30 5263 C 499.666 3.55537 -5.83166 0
M  V30 5264 O 499.354 3.65864 -7.1582 0
M  V30 5265 H 499.086 0.558194 -0.381307 0
M  V30 5266 H 501.64 1.24387 -1.63454 0
M  V30 5267 H 499.87 3.72659 -1.03256 0
M  V30 5268 H 501.559 3.79262 -1.4462 0
M  V30 5269 H 502.325 3.00987 -3.80305 0
M  V30 5270 H 498.204 3.68025 -2.77631 0
M  V30 5271 H 501.748 3.20588 -6.19572 0
M  V30 5272 H 497.645 3.87814 -5.16014 0
M  V30 5273 H 498.413 3.82675 -7.23534 0
M  V30 5274 N 501.076 1.04316 1.18135 0
M  V30 5275 C 502.006 0.657299 2.24058 0
M  V30 5276 C 502.987 -0.340678 1.66654 0
M  V30 5277 O 504.172 -0.220223 1.92947 0
M  V30 5278 C 501.302 0.0220715 3.47293 0
M  V30 5279 C 500.256 0.943857 4.17463 0
M  V30 5280 C 499.582 0.172973 5.3442 0
M  V30 5281 C 500.882 2.26409 4.70677 0
M  V30 5282 H 502.576 1.5428 2.56589 0
M  V30 5283 H 500.122 0.743263 1.23335 0
M  V30 5284 H 502.075 -0.259607 4.206 0
M  V30 5285 H 500.799 -0.898323 3.14003 0
M  V30 5286 H 499.458 1.20996 3.46057 0
M  V30 5287 H 499.106 -0.749907 4.97379 0
M  V30 5288 H 498.806 0.787098 5.82304 0
M  V30 5289 H 500.33 -0.101628 6.10515 0
M  V30 5290 H 501.744 2.04294 5.35665 0
M  V30 5291 H 500.141 2.8314 5.29105 0
M  V30 5292 H 501.211 2.90883 3.87962 0
M  V30 5293 N 502.554 -1.34406 0.822964 0
M  V30 5294 C 503.486 -2.28305 0.202375 0
M  V30 5295 C 504.499 -1.5103 -0.60777 0
M  V30 5296 O 505.688 -1.73057 -0.437444 0
M  V30 5297 C 502.788 -3.30836 -0.734911 0
M  V30 5298 C 501.961 -4.37388 0.0324177 0
M  V30 5299 C 501.02 -5.1968 -0.825803 0
M  V30 5300 O 500.046 -5.68556 -0.270771 0
M  V30 5301 N 501.248 -5.39393 -2.14558 0
M  V30 5302 H 504.013 -2.82201 1.00909 0
M  V30 5303 H 501.574 -1.4693 0.67993 0
M  V30 5304 H 503.566 -3.82786 -1.31365 0
M  V30 5305 H 502.136 -2.77334 -1.44238 0
M  V30 5306 H 501.356 -3.86152 0.792469 0
M  V30 5307 H 502.644 -5.05702 0.560633 0
M  V30 5308 H 502.042 -5.01357 -2.62025 0
M  V30 5309 H 500.599 -5.94461 -2.67318 0
M  V30 5310 N 504.032 -0.577932 -1.46621 0
M  V30 5311 C 504.979 0.158048 -2.30258 0
M  V30 5312 C 505.949 0.888669 -1.40328 0
M  V30 5313 O 507.134 0.880283 -1.6928 0
M  V30 5314 C 504.274 1.16884 -3.24703 0
M  V30 5315 C 503.387 0.442163 -4.29731 0
M  V30 5316 C 502.522 1.44007 -5.11308 0
M  V30 5317 C 501.561 0.69952 -6.0809 0
M  V30 5318 N 500.698 1.64525 -6.82551 0
M  V30 5319 H 505.538 -0.561242 -2.92667 0
M  V30 5320 H 503.075 -0.288591 -1.44241 0
M  V30 5321 H 505.033 1.7677 -3.779 0
M  V30 5322 H 503.663 1.85591 -2.64113 0
M  V30 5323 H 502.715 -0.271632 -3.79429 0
M  V30 5324 H 504.027 -0.136992 -4.98612 0
M  V30 5325 H 503.181 2.11186 -5.68758 0
M  V30 5326 H 501.92 2.05315 -4.42377 0
M  V30 5327 H 500.925 0.0139217 -5.49798 0
M  V30 5328 H 502.15 0.091894 -6.79038 0
M  V30 5329 H 500.096 2.24653 -6.16334 0
M  V30 5330 H 500.013 1.11878 -7.47676 0
M  V30 5331 H 501.281 2.30754 -7.44562 0
M  V30 5332 N 505.51 1.54411 -0.315457 0
M  V30 5333 C 506.74 2.04536 0.291315 0
M  V30 5334 C 507.148 1.19162 1.4696 0
M  V30 5335 O 506.491 0.213199 1.82459 0
M  V30 5336 C 506.553 3.5056 0.796725 0
M  V30 5337 C 506.217 4.5627 -0.258178 0
M  V30 5338 C 507.214 5.08312 -1.09153 0
M  V30 5339 C 504.899 5.00672 -0.404036 0
M  V30 5340 C 506.893 6.03312 -2.05655 0
M  V30 5341 C 504.58 5.95488 -1.37248 0
M  V30 5342 C 505.578 6.46693 -2.19721 0
M  V30 5343 O 505.266 7.39648 -3.14921 0
M  V30 5344 H 504.998 0.672856 0.0651165 0
M  V30 5345 H 507.552 2.00244 -0.457308 0
M  V30 5346 H 505.782 3.52223 1.59612 0
M  V30 5347 H 507.471 3.83804 1.32096 0
M  V30 5348 H 508.237 4.74793 -0.98979 0
M  V30 5349 H 504.116 4.60436 0.22799 0
M  V30 5350 H 507.66 6.43203 -2.70067 0
M  V30 5351 H 503.557 6.28424 -1.47489 0
M  V30 5352 H 504.325 7.57496 -3.10067 0
M  V30 5353 N 506.988 0.0434614 1.5754 0
M  V30 5354 C 508.236 -0.630786 1.92004 0
M  V30 5355 C 508.557 -1.71836 0.921807 0
M  V30 5356 O 507.827 -1.9587 -0.034522 0
M  V30 5357 H 506.407 -0.235988 0.708745 0
M  V30 5358 H 509.069 0.0946462 1.9467 0
M  V30 5359 H 508.165 -1.07434 2.93026 0
M  V30 5360 N 508.466 -1.55915 -0.229846 0
M  V30 5361 C 509.414 -1.9258 -1.30444 0
M  V30 5362 C 510.408 -0.806839 -1.48951 0
M  V30 5363 O 511.614 -0.991606 -1.50224 0
M  V30 5364 H 507.989 -0.611878 -0.437161 0
M  V30 5365 H 509.96 -2.82264 -0.96797 0
M  V30 5366 C 508.709 -2.25171 -2.6494 0
M  V30 5367 H 508.032 -3.10782 -2.51504 0
M  V30 5368 H 509.472 -2.54716 -3.38963 0
M  V30 5369 C 507.931 -1.07394 -3.19324 0
M  V30 5370 O 508.461 -0.330759 -4.00336 0
M  V30 5371 N 506.667 -0.859984 -2.77584 0
M  V30 5372 H 506.214 -1.46605 -2.11813 0
M  V30 5373 H 506.172 -0.0736671 -3.14314 0
M  V30 5374 N 509.944 0.496216 -1.49584 0
M  V30 5375 C 511.193 1.24668 -1.58558 0
M  V30 5376 C 511.506 1.9359 -0.279703 0
M  V30 5377 O 512.712 2.70365 -0.248048 0
M  V30 5378 C 511.168 2.26388 -2.79779 0
M  V30 5379 C 510.776 1.63384 -4.17145 0
M  V30 5380 C 512.52 3.02233 -2.98086 0
M  V30 5381 C 510.427 2.63243 -5.29582 0
M  V30 5382 H 509.357 0.468995 -0.590389 0
M  V30 5383 H 512.008 0.519985 -1.75978 0
M  V30 5384 H 510.39 3.02241 -2.55863 0
M  V30 5385 H 511.564 0.93491 -4.51216 0
M  V30 5386 H 509.879 0.999121 -4.04236 0
M  V30 5387 H 512.476 3.76919 -3.79257 0
M  V30 5388 H 512.819 3.60132 -2.08831 0
M  V30 5389 H 513.352 2.33495 -3.22063 0
M  V30 5390 H 510.091 2.10119 -6.20911 0
M  V30 5391 H 509.611 3.31363 -4.99959 0
M  V30 5392 H 511.29 3.25575 -5.59115 0
M  V30 5393 N 511.423 1.38739 0.74761 0
M  V30 5394 C 512.7 1.25791 1.49786 0
M  V30 5395 C 513.08 -0.138075 2.10648 0
M  V30 5396 O 512.428 -1.14815 1.9756 0
M  V30 5397 C 512.638 2.37265 2.55942 0
M  V30 5398 C 513.986 2.75978 3.22679 0
M  V30 5399 O 515.01 2.36621 2.6625 0
M  V30 5400 O 513.869 3.43867 4.24756 0
M  V30 5401 H 510.963 0.492251 0.664543 0
M  V30 5402 H 513.509 1.50582 0.782511 0
M  V30 5403 H 512.281 3.30644 2.0926 0
M  V30 5404 H 511.904 2.14071 3.35051 0
M  V30 5405 N 512.901 -0.976442 1.23707 0
M  V30 5406 C 514.15 -1.71254 1.06559 0
M  V30 5407 C 514.463 -1.91528 -0.397024 0
M  V30 5408 O 515.669 -2.62625 -0.688518 0
M  V30 5409 C 514.125 -3.08207 1.8584 0
M  V30 5410 C 513.733 -2.95806 3.36456 0
M  V30 5411 C 515.477 -3.85749 1.77194 0
M  V30 5412 C 513.384 -4.28015 4.08114 0
M  V30 5413 H 512.314 -0.642171 0.395136 0
M  V30 5414 H 514.965 -1.08877 1.4771 0
M  V30 5415 H 513.347 -3.71363 1.37498 0
M  V30 5416 H 514.521 -2.41716 3.92314 0
M  V30 5417 H 512.836 -2.31736 3.45959 0
M  V30 5418 H 515.433 -4.83633 2.28041 0
M  V30 5419 H 515.776 -4.09752 0.735477 0
M  V30 5420 H 516.309 -3.29303 2.23169 0
M  V30 5421 H 513.048 -4.09208 5.12083 0
M  V30 5422 H 512.568 -4.81955 3.57043 0
M  V30 5423 H 514.247 -4.96681 4.14629 0
M  V30 5424 N 514.379 -1.04941 -1.1758 0
M  V30 5425 C 515.609 -0.777166 -1.91425 0
M  V30 5426 C 516.017 0.670647 -1.76915 0
M  V30 5427 O 515.36 1.46965 -1.10213 0
M  V30 5428 C 515.422 -1.07495 -3.43052 0
M  V30 5429 C 515.086 -2.51844 -3.81345 0
M  V30 5430 C 516.083 -3.50047 -3.844 0
M  V30 5431 C 513.768 -2.86787 -4.12382 0
M  V30 5432 C 515.762 -4.81239 -4.17957 0
M  V30 5433 C 513.449 -4.18182 -4.45608 0
M  V30 5434 C 514.447 -5.15219 -4.48373 0
M  V30 5435 O 514.135 -6.44258 -4.80819 0
M  V30 5436 H 513.867 -0.282209 -0.614275 0
M  V30 5437 H 516.421 -1.40258 -1.50056 0
M  V30 5438 H 514.651 -0.392437 -3.84704 0
M  V30 5439 H 516.34 -0.78912 -3.98155 0
M  V30 5440 H 517.106 -3.24391 -3.60548 0
M  V30 5441 H 512.985 -2.11922 -4.09402 0
M  V30 5442 H 516.529 -5.56974 -4.2003 0
M  V30 5443 H 512.426 -4.43602 -4.68922 0
M  V30 5444 H 513.194 -6.49041 -4.98686 0
M  V30 5445 N 515.857 1.33968 -0.830081 0
M  V30 5446 C 517.106 1.97323 -0.417928 0
M  V30 5447 C 517.419 1.6652 1.02618 0
M  V30 5448 O 518.625 2.2342 1.54259 0
M  V30 5449 C 517.081 3.53099 -0.696359 0
M  V30 5450 C 516.689 3.92788 -2.15457 0
M  V30 5451 C 518.433 4.23049 -0.350724 0
M  V30 5452 C 516.34 5.41506 -2.37751 0
M  V30 5453 H 515.27 0.738409 -0.152541 0
M  V30 5454 H 517.921 1.52711 -1.01744 0
M  V30 5455 H 516.303 3.95991 -0.0265904 0
M  V30 5456 H 517.477 3.6098 -2.86408 0
M  V30 5457 H 515.792 3.35795 -2.46232 0
M  V30 5458 H 518.389 5.32403 -0.495036 0
M  V30 5459 H 518.732 4.10279 0.705476 0
M  V30 5460 H 519.265 3.85657 -0.975362 0
M  V30 5461 H 516.004 5.5927 -3.41903 0
M  V30 5462 H 515.524 5.74804 -1.7135 0
M  V30 5463 H 517.203 6.0828 -2.20465 0
M  V30 5464 N 517.335 0.585699 1.46312 0
M  V30 5465 C 518.563 0.0781299 2.06752 0
M  V30 5466 C 518.978 -1.22812 1.43396 0
M  V30 5467 O 518.335 -1.74318 0.540314 0
M  V30 5468 C 518.386 -0.0911927 3.61385 0
M  V30 5469 O 518.107 1.16336 4.22371 0
M  V30 5470 C 519.608 -0.632765 4.38761 0
M  V30 5471 H 516.828 0.0588188 0.668417 0
M  V30 5472 H 519.372 0.807218 1.87894 0
M  V30 5473 H 517.527 -0.770514 3.7966 0
M  V30 5474 H 517.941 0.979082 5.15281 0
M  V30 5475 H 519.415 -0.70041 5.47538 0
M  V30 5476 H 519.892 -1.65039 4.07012 0
M  V30 5477 H 520.498 0.0117856 4.25298 0
M  V30 5478 N 518.813 -1.54241 0.323641 0
M  V30 5479 C 519.723 -2.28033 -0.551205 0
M  V30 5480 C 520.739 -1.32388 -1.12913 0
M  V30 5481 O 521.915 -1.65403 -1.14908 0
M  V30 5482 C 518.98 -3.02382 -1.69606 0
M  V30 5483 C 518.041 -4.13612 -1.14993 0
M  V30 5484 C 517.274 -4.84407 -2.24022 0
M  V30 5485 O 517.497 -4.54716 -3.44368 0
M  V30 5486 O 516.431 -5.71312 -1.89436 0
M  V30 5487 H 520.257 -3.03662 0.048066 0
M  V30 5488 H 517.842 -1.49133 0.0893289 0
M  V30 5489 H 519.724 -3.48941 -2.36259 0
M  V30 5490 H 518.399 -2.29628 -2.28151 0
M  V30 5491 H 517.306 -3.71402 -0.448484 0
M  V30 5492 H 518.639 -4.8841 -0.609608 0
M  V30 5493 N 520.291 -0.0518155 -1.57515 0
M  V30 5494 C 521.239 0.940195 -2.12751 0
M  V30 5495 C 522.233 1.3218 -1.05948 0
M  V30 5496 O 523.439 1.30138 -1.24355 0
M  V30 5497 H 519.814 0.321066 -0.680015 0
M  V30 5498 H 521.785 0.449217 -2.94999 0
M  V30 5499 C 520.534 2.2055 -2.68799 0
M  V30 5500 H 519.857 1.92066 -3.50643 0
M  V30 5501 H 521.297 2.88119 -3.11068 0
M  V30 5502 C 519.756 2.95061 -1.62605 0
M  V30 5503 O 520.286 3.88025 -1.03921 0
M  V30 5504 N 518.492 2.57804 -1.34111 0
M  V30 5505 H 518.039 1.82281 -1.8202 0
M  V30 5506 H 517.997 3.07964 -0.632872 0
M  V30 5507 N 521.769 1.56035 0.221574 0
M  V30 5508 C 523.017 1.78693 0.944102 0
M  V30 5509 C 523.338 0.620317 1.8487 0
M  V30 5510 O 522.608 -0.362784 1.92512 0
M  V30 5511 H 521.188 0.659082 0.351597 0
M  V30 5512 H 523.85 1.93497 0.233435 0
M  V30 5513 H 522.946 2.70837 1.55093 0
M  V30 5514 N 523.247 -0.488276 1.49845 0
M  V30 5515 C 524.21 -1.57069 1.66919 0
M  V30 5516 C 525.21 -1.51445 0.540479 0
M  V30 5517 O 526.4 -1.5437 0.807188 0
M  V30 5518 C 523.532 -2.96718 1.67844 0
M  V30 5519 H 524.725 -1.43254 2.63474 0
M  V30 5520 H 522.278 -0.713435 1.39068 0
M  V30 5521 H 523.013 -3.15996 0.7292 0
M  V30 5522 H 522.798 -3.02208 2.49826 0
M  V30 5523 H 524.288 -3.75335 1.83066 0
M  V30 5524 N 524.725 -1.39134 -0.740242 0
M  V30 5525 C 525.965 -1.37499 -1.51239 0
M  V30 5526 C 526.329 0.0310084 -1.91975 0
M  V30 5527 O 527.53 0.172319 -2.68247 0
M  V30 5528 C 525.801 -2.31566 -2.72235 0
M  V30 5529 S 527.36 -2.48073 -3.61947 0
M  V30 5530 H 524.178 -0.48768 -0.517387 0
M  V30 5531 H 526.78 -1.75183 -0.867826 0
M  V30 5532 H 525.484 -3.32592 -2.40439 0
M  V30 5533 H 525.015 -1.9508 -3.41625 0
M  V30 5534 H 527.03 -1.71473 -4.6563 0
M  V30 5535 N 526.204 0.969867 -1.24223 0
M  V30 5536 C 527.453 1.70687 -1.07466 0
M  V30 5537 C 527.766 1.91736 0.386861 0
M  V30 5538 O 528.972 2.62986 0.674581 0
M  V30 5539 C 527.428 3.07217 -1.87472 0
M  V30 5540 C 527.036 2.94018 -3.3802 0
M  V30 5541 C 528.78 3.84804 -1.79237 0
M  V30 5542 C 526.687 4.25844 -4.10379 0
M  V30 5543 H 525.617 0.640067 -0.398536 0
M  V30 5544 H 528.268 1.08092 -1.48285 0
M  V30 5545 H 526.65 3.70628 -1.39466 0
M  V30 5546 H 527.824 2.39632 -3.9359 0
M  V30 5547 H 526.139 2.29898 -3.47183 0
M  V30 5548 H 528.736 4.82417 -2.30603 0
M  V30 5549 H 529.079 4.09356 -0.757197 0
M  V30 5550 H 529.612 3.28115 -2.24912 0
M  V30 5551 H 526.351 4.06486 -5.14246 0
M  V30 5552 H 525.871 4.80054 -3.59594 0
M  V30 5553 H 527.55 4.94475 -4.17257 0
M  V30 5554 N 527.682 1.05563 1.17022 0
M  V30 5555 C 528.63 0.653887 2.2322 0
M  V30 5556 C 529.624 -0.326642 1.66221 0
M  V30 5557 O 530.83 -0.192301 1.7897 0
M  V30 5558 H 527.205 0.193297 0.726733 0
M  V30 5559 H 529.176 1.5596 2.54399 0
M  V30 5560 C 527.925 0.0485434 3.47666 0
M  V30 5561 H 527.248 0.79413 3.91834 0
M  V30 5562 H 528.688 -0.195133 4.23551 0
M  V30 5563 C 527.147 -1.20583 3.14581 0
M  V30 5564 O 527.677 -2.29475 3.29703 0
M  V30 5565 N 525.883 -1.10493 2.68774 0
M  V30 5566 H 525.43 -0.218795 2.56669 0
M  V30 5567 H 525.388 -1.94507 2.47011 0
M  V30 5568 N 529.16 -1.33526 0.837174 0
M  V30 5569 C 530.437 -1.92369 0.354065 0
M  V30 5570 C 530.817 -1.76348 -1.16038 0
M  V30 5571 O 530.165 -1.15083 -1.97403 0
M  V30 5572 C 530.375 -3.39728 0.799101 0
M  V30 5573 C 531.723 -4.16877 0.806139 0
M  V30 5574 O 532.747 -3.48373 0.742597 0
M  V30 5575 O 531.606 -5.39166 0.892345 0
M  V30 5576 H 528.7 -0.820952 0.0998378 0
M  V30 5577 H 531.246 -1.42409 0.922913 0
M  V30 5578 H 530.018 -3.45254 1.84162 0
M  V30 5579 H 529.641 -3.97062 0.206731 0
M  V30 5580 N 530.638 -0.59345 -1.46 0
M  V30 5581 C 531.548 0.135817 -2.34207 0
M  V30 5582 C 532.564 0.875008 -1.50398 0
M  V30 5583 O 533.74 0.835778 -1.83239 0
M  V30 5584 C 530.805 1.12977 -3.27776 0
M  V30 5585 C 529.866 0.394081 -4.27487 0
M  V30 5586 C 529.099 1.34068 -5.16586 0
M  V30 5587 O 529.322 2.5778 -5.08828 0
M  V30 5588 O 528.256 0.845426 -5.95933 0
M  V30 5589 H 532.082 -0.588691 -2.9794 0
M  V30 5590 H 529.667 -0.353784 -1.45151 0
M  V30 5591 H 531.549 1.70261 -3.85473 0
M  V30 5592 H 530.224 1.83556 -2.66625 0
M  V30 5593 H 529.131 -0.220869 -3.73447 0
M  V30 5594 H 530.464 -0.270939 -4.91454 0
M  V30 5595 N 532.116 1.54067 -0.331816 0
M  V30 5596 C 533.362 2.01012 0.268667 0
M  V30 5597 C 533.695 1.2195 1.51136 0
M  V30 5598 O 532.97 0.303972 1.9211 0
M  V30 5599 C 533.253 3.55158 0.59456 0
M  V30 5600 C 533.106 4.4494 -0.659409 0
M  V30 5601 C 534.425 4.16939 1.4089 0
M  V30 5602 H 531.544 0.730698 0.0961756 0
M  V30 5603 H 534.186 1.84593 -0.450031 0
M  V30 5604 H 532.336 3.6928 1.20685 0
M  V30 5605 H 534.008 4.42675 -1.29756 0
M  V30 5606 H 532.251 4.1428 -1.28665 0
M  V30 5607 H 532.922 5.50643 -0.386804 0
M  V30 5608 H 535.398 4.06443 0.891272 0
M  V30 5609 H 534.274 5.24889 1.60569 0
M  V30 5610 H 534.535 3.70798 2.40752 0
M  V30 5611 N 533.594 0.0601682 1.57485 0
M  V30 5612 C 534.84 -0.612501 1.93329 0
M  V30 5613 C 535.173 -1.6996 0.939526 0
M  V30 5614 O 534.448 -1.94472 -0.0330957 0
M  V30 5615 C 534.731 -1.20025 3.39508 0
M  V30 5616 C 534.584 -0.12059 4.49638 0
M  V30 5617 C 535.903 -2.10923 3.86264 0
M  V30 5618 H 533.022 -0.221185 0.703027 0
M  V30 5619 H 535.664 0.123768 1.89596 0
M  V30 5620 H 533.814 -1.82774 3.42821 0
M  V30 5621 H 535.486 0.51185 4.58452 0
M  V30 5622 H 533.729 0.550251 4.30296 0
M  V30 5623 H 534.4 -0.572019 5.49028 0
M  V30 5624 H 536.876 -1.58124 3.84884 0
M  V30 5625 H 535.752 -2.48987 4.8918 0
M  V30 5626 H 536.013 -3.01292 3.23536 0
M  V30 5627 N 535.072 -1.5615 -0.213296 0
M  V30 5628 C 536.02 -1.93953 -1.28394 0
M  V30 5629 C 537.014 -0.822592 -1.48087 0
M  V30 5630 O 538.22 -1.00748 -1.49164 0
M  V30 5631 H 534.595 -0.61648 -0.430646 0
M  V30 5632 H 536.566 -2.83275 -0.937977 0
M  V30 5633 C 535.315 -2.27969 -2.62537 0
M  V30 5634 H 534.638 -3.13432 -2.48194 0
M  V30 5635 H 536.078 -2.58297 -3.36242 0
M  V30 5636 C 534.537 -1.10775 -3.18167 0
M  V30 5637 O 535.067 -0.373201 -3.99963 0
M  V30 5638 N 533.273 -0.889377 -2.76656 0
M  V30 5639 H 532.82 -1.48843 -2.10246 0
M  V30 5640 H 532.778 -0.107 -3.14218 0
M  V30 5641 N 536.55 0.480323 -1.50102 0
M  V30 5642 C 537.798 1.23063 -1.60312 0
M  V30 5643 C 538.119 1.92659 -0.301226 0
M  V30 5644 O 537.389 1.83691 0.680753 0
M  V30 5645 H 535.969 0.457231 -0.590719 0
M  V30 5646 H 538.631 0.554893 -1.86834 0
M  V30 5647 H 537.727 1.9835 -2.40964 0
M  V30 5648 N 538.028 1.39524 0.732853 0
M  V30 5649 C 538.975 1.38416 1.84688 0
M  V30 5650 C 539.945 0.243539 1.64305 0
M  V30 5651 O 541.13 0.438979 1.85681 0
M  V30 5652 C 538.27 1.23555 3.22224 0
M  V30 5653 C 537.383 2.47179 3.54298 0
M  V30 5654 C 536.518 2.2489 4.81246 0
M  V30 5655 C 535.557 3.44178 5.0617 0
M  V30 5656 N 534.694 3.21192 6.24323 0
M  V30 5657 H 539.534 2.33645 1.84971 0
M  V30 5658 H 537.071 1.16059 0.903804 0
M  V30 5659 H 539.029 1.12949 4.0162 0
M  V30 5660 H 537.659 0.31954 3.21215 0
M  V30 5661 H 536.711 2.68379 2.69587 0
M  V30 5662 H 538.023 3.36022 3.68633 0
M  V30 5663 H 537.177 2.11538 5.68627 0
M  V30 5664 H 535.916 1.33443 4.69089 0
M  V30 5665 H 534.921 3.58025 4.17251 0
M  V30 5666 H 536.146 4.36528 5.20212 0
M  V30 5667 H 534.092 2.32413 6.1345 0
M  V30 5668 H 534.009 4.03594 6.39256 0
M  V30 5669 H 535.277 3.1154 7.14537 0
M  V30 5670 N 539.506 -0.963266 1.24736 0
M  V30 5671 C 540.752 -1.70933 1.09131 0
M  V30 5672 C 541.085 -1.90676 -0.368273 0
M  V30 5673 O 540.36 -1.47147 -1.27193 0
M  V30 5674 C 540.643 -3.09744 1.83658 0
M  V30 5675 C 540.496 -2.97465 3.37394 0
M  V30 5676 C 541.815 -4.09483 1.61282 0
M  V30 5677 H 538.934 -0.620398 0.397838 0
M  V30 5678 H 541.576 -1.12028 1.53459 0
M  V30 5679 H 539.726 -3.60031 1.4598 0
M  V30 5680 H 541.398 -2.54571 3.84696 0
M  V30 5681 H 539.641 -2.33576 3.65547 0
M  V30 5682 H 540.312 -3.95822 3.84745 0
M  V30 5683 H 542.788 -3.68073 1.94066 0
M  V30 5684 H 541.664 -5.04666 2.15878 0
M  V30 5685 H 541.925 -4.38639 0.552102 0
M  V30 5686 N 540.985 -1.06182 -1.16461 0
M  V30 5687 C 541.917 -0.629584 -2.20383 0
M  V30 5688 C 542.93 0.311834 -1.59786 0
M  V30 5689 O 544.119 0.103 -1.78203 0
M  V30 5690 C 541.219 0.0973695 -3.3876 0
M  V30 5691 C 540.392 -0.857252 -4.28917 0
M  V30 5692 C 539.451 -0.169749 -5.25926 0
M  V30 5693 O 538.477 -0.807044 -5.6345 0
M  V30 5694 N 539.679 1.08911 -5.70192 0
M  V30 5695 H 542.444 -1.52352 -2.58087 0
M  V30 5696 H 540.005 -0.944993 -1.31459 0
M  V30 5697 H 541.997 0.567676 -4.00699 0
M  V30 5698 H 540.567 0.893093 -2.99571 0
M  V30 5699 H 539.787 -1.50696 -3.64259 0
M  V30 5700 H 541.075 -1.50489 -4.86035 0
M  V30 5701 H 540.473 1.62703 -5.41797 0
M  V30 5702 H 539.03 1.50331 -6.34227 0
M  V30 5703 N 542.463 1.3308 -0.844243 0
M  V30 5704 C 543.74 1.92178 -0.364261 0
M  V30 5705 C 544.12 1.76961 1.15101 0
M  V30 5706 O 543.468 1.16128 1.9679 0
M  V30 5707 C 543.678 3.393 -0.817106 0
M  V30 5708 C 545.026 4.16444 -0.828236 0
M  V30 5709 O 546.05 3.47975 -0.761062 0
M  V30 5710 O 544.909 5.38685 -0.920926 0
M  V30 5711 H 542.003 0.820411 -0.10419 0
M  V30 5712 H 544.549 1.41918 -0.930453 0
M  V30 5713 H 543.321 3.44272 -1.85991 0
M  V30 5714 H 542.944 3.96947 -0.227785 0
M  V30 5715 N 543.941 0.601185 1.45683 0
M  V30 5716 C 545.218 0.0261659 1.95582 0
M  V30 5717 C 545.598 -1.4399 1.5437 0
M  V30 5718 O 544.946 -2.13919 0.80318 0
M  V30 5719 C 545.156 0.217557 3.48321 0
M  V30 5720 C 546.504 0.0950076 4.24494 0
M  V30 5721 O 547.528 0.147345 3.55895 0
M  V30 5722 O 546.387 -0.025261 5.46494 0
M  V30 5723 H 543.481 -0.0393688 0.826062 0
M  V30 5724 H 546.027 0.670798 1.55879 0
M  V30 5725 H 544.799 1.23601 3.71266 0
M  V30 5726 H 544.422 -0.46264 3.94899 0
M  V30 5727 N 545.419 -1.53889 0.339982 0
M  V30 5728 C 546.835 -1.59595 -0.0120752 0
M  V30 5729 C 547.035 -1.35605 -1.49042 0
M  V30 5730 O 546.091 -1.14856 -2.24865 0
M  V30 5731 C 547.404 -2.9774 0.420898 0
M  V30 5732 C 548.952 -3.1077 0.37294 0
M  V30 5733 C 549.427 -4.51286 0.781327 0
M  V30 5734 N 550.918 -4.57325 0.735374 0
M  V30 5735 C 551.653 -5.64194 1.02336 0
M  V30 5736 N 551.149 -6.7893 1.37933 0
M  V30 5737 N 552.942 -5.54051 0.947838 0
M  V30 5738 H 545.093 -1.67738 1.30299 0
M  V30 5739 H 547.356 -0.785385 0.530918 0
M  V30 5740 H 547.062 -3.20349 1.45152 0
M  V30 5741 H 546.936 -3.76639 -0.205721 0
M  V30 5742 H 549.323 -2.87886 -0.648505 0
M  V30 5743 H 549.404 -2.33939 1.03472 0
M  V30 5744 H 549.048 -4.74905 1.80077 0
M  V30 5745 H 548.978 -5.26511 0.0970679 0
M  V30 5746 H 551.469 -3.74931 0.472773 0
M  V30 5747 H 551.782 -7.56392 1.58402 0
M  V30 5748 H 550.127 -6.80386 1.41774 0
M  V30 5749 H 553.318 -4.63293 0.669115 0
M  V30 5750 H 553.491 -6.37246 1.17563 0
M  V30 5751 N 546.897 -0.0685191 -1.57451 0
M  V30 5752 C 548.313 0.288101 -1.56978 0
M  V30 5753 C 548.513 1.70262 -1.07765 0
M  V30 5754 O 547.569 2.4135 -0.742054 0
M  V30 5755 C 548.882 0.100745 -3.00531 0
M  V30 5756 C 550.43 0.170531 -3.12535 0
M  V30 5757 C 550.905 0.0114944 -4.57999 0
M  V30 5758 N 552.396 0.0672065 -4.63151 0
M  V30 5759 C 553.131 -0.0314813 -5.73391 0
M  V30 5760 N 552.627 -0.183503 -6.92557 0
M  V30 5761 N 554.42 0.0253489 -5.62094 0
M  V30 5762 H 546.571 -0.993026 -1.87757 0
M  V30 5763 H 548.834 -0.386981 -0.865419 0
M  V30 5764 H 548.54 -0.875197 -3.40636 0
M  V30 5765 H 548.414 0.854457 -3.67395 0
M  V30 5766 H 550.801 1.13696 -2.72318 0
M  V30 5767 H 550.882 -0.614229 -2.48316 0
M  V30 5768 H 550.526 -0.951684 -4.98904 0
M  V30 5769 H 550.456 0.815617 -5.20245 0
M  V30 5770 H 552.947 0.183246 -3.77455 0
M  V30 5771 H 553.26 -0.251041 -7.72392 0
M  V30 5772 H 551.605 -0.218822 -6.94655 0
M  V30 5773 H 554.796 0.142794 -4.67882 0
M  V30 5774 H 554.969 -0.0550166 -6.47977 0
M  V30 5775 N 548.375 1.56261 0.205012 0
M  V30 5776 C 549.624 1.79236 0.925058 0
M  V30 5777 C 549.937 0.640011 1.84833 0
M  V30 5778 O 551.143 0.753809 2.60826 0
M  V30 5779 C 549.599 3.17475 1.69522 0
M  V30 5780 C 549.207 4.40482 0.817269 0
M  V30 5781 C 550.951 3.49766 2.4055 0
M  V30 5782 C 548.858 5.69744 1.58573 0
M  V30 5783 H 547.788 0.668287 0.349153 0
M  V30 5784 H 550.439 1.82629 0.178544 0
M  V30 5785 H 548.821 3.08304 2.48526 0
M  V30 5786 H 549.995 4.60752 0.0665988 0
M  V30 5787 H 548.31 4.15827 0.218316 0
M  V30 5788 H 550.907 4.43573 2.98575 0
M  V30 5789 H 551.25 2.73041 3.14252 0
M  V30 5790 H 551.783 3.60341 1.68522 0
M  V30 5791 H 548.522 6.49407 0.891679 0
M  V30 5792 H 548.042 5.53509 2.31059 0
M  V30 5793 H 549.721 6.1051 2.14212 0
M  V30 5794 N 549.853 -0.472356 1.50355 0
M  V30 5795 C 551.078 -1.25251 1.65309 0
M  V30 5796 C 551.503 -1.85081 0.335643 0
M  V30 5797 O 550.861 -1.67227 -0.700335 0
M  V30 5798 C 550.909 -2.3379 2.74544 0
M  V30 5799 O 550.013 -3.38401 2.35709 0
M  V30 5800 H 549.354 -0.368539 0.552336 0
M  V30 5801 H 551.884 -0.562271 1.96722 0
M  V30 5802 H 551.894 -2.79121 2.97583 0
M  V30 5803 H 550.569 -1.89614 3.70161 0
M  V30 5804 H 549.146 -2.9879 2.23112 0
M  V30 5805 N 551.331 -1.39911 -0.725443 0
M  V30 5806 C 552.561 -1.40744 -1.51244 0
M  V30 5807 C 552.969 -0.00275403 -1.892 0
M  V30 5808 O 552.312 0.981299 -1.55294 0
M  V30 5809 C 552.374 -2.22527 -2.82351 0
M  V30 5810 C 552.038 -3.71053 -2.66774 0
M  V30 5811 C 553.035 -4.63916 -2.34686 0
M  V30 5812 C 550.72 -4.14753 -2.83347 0
M  V30 5813 C 552.714 -5.98463 -2.19366 0
M  V30 5814 C 550.401 -5.49372 -2.67644 0
M  V30 5815 C 551.399 -6.41042 -2.357 0
M  V30 5816 O 551.087 -7.73181 -2.20107 0
M  V30 5817 H 550.819 -0.482314 -0.473655 0
M  V30 5818 H 553.373 -1.84472 -0.903284 0
M  V30 5819 H 551.603 -1.73563 -3.45562 0
M  V30 5820 H 553.292 -2.15421 -3.44018 0
M  V30 5821 H 554.058 -4.31453 -2.21525 0
M  V30 5822 H 549.937 -3.43728 -3.072 0
M  V30 5823 H 553.481 -6.69979 -1.94354 0
M  V30 5824 H 549.378 -5.81424 -2.80387 0
M  V30 5825 H 550.146 -7.84008 -2.35103 0
M  V30 5826 N 552.809 0.956637 -1.25245 0
M  V30 5827 C 553.742 2.05232 -0.99775 0
M  V30 5828 C 554.72 1.62439 0.0723137 0
M  V30 5829 O 555.904 1.88381 -0.066926 0
M  V30 5830 C 553.031 3.34871 -0.507861 0
M  V30 5831 C 552.077 3.96625 -1.56815 0
M  V30 5832 S 552.91 4.32853 -3.15276 0
M  V30 5833 C 554.066 5.65613 -2.68017 0
M  V30 5834 H 554.299 2.26521 -1.9255 0
M  V30 5835 H 551.832 1.09601 -1.08752 0
M  V30 5836 H 553.79 4.09845 -0.231858 0
M  V30 5837 H 552.451 3.11551 0.399356 0
M  V30 5838 H 551.644 4.90087 -1.17604 0
M  V30 5839 H 551.246 3.28124 -1.79473 0
M  V30 5840 H 553.538 6.43635 -2.11518 0
M  V30 5841 H 554.481 6.09693 -3.60112 0
M  V30 5842 H 554.889 5.24751 -2.0808 0
M  V30 5843 N 554.287 1.06798 1.15896 0
M  V30 5844 C 555.219 0.641263 2.20046 0
M  V30 5845 C 556.232 -0.303355 1.59949 0
M  V30 5846 O 557.421 -0.0935478 1.78255 0
M  V30 5847 C 554.521 -0.0794029 3.38807 0
M  V30 5848 C 553.694 0.879986 4.28457 0
M  V30 5849 C 552.753 0.197638 5.25829 0
M  V30 5850 O 551.779 0.836913 5.63014 0
M  V30 5851 N 552.981 -1.05886 5.70761 0
M  V30 5852 H 555.746 1.53718 2.57276 0
M  V30 5853 H 553.307 0.951951 1.30956 0
M  V30 5854 H 555.299 -0.546418 4.00994 0
M  V30 5855 H 553.869 -0.877193 3.0004 0
M  V30 5856 H 553.089 1.52625 3.63454 0
M  V30 5857 H 554.377 1.53065 4.8523 0
M  V30 5858 H 553.775 -1.59828 5.42652 0
M  V30 5859 H 552.332 -1.46965 6.35015 0
M  V30 5860 N 555.766 -1.3263 0.851289 0
M  V30 5861 C 556.698 -2.27824 0.250757 0
M  V30 5862 C 557.711 -1.52285 -0.575598 0
M  V30 5863 O 558.9 -1.73946 -0.400638 0
M  V30 5864 C 556 -3.3232 -0.664571 0
M  V30 5865 C 555.173 -4.37221 0.125187 0
M  V30 5866 C 554.232 -5.21314 -0.715385 0
M  V30 5867 O 553.258 -5.69002 -0.150111 0
M  V30 5868 N 554.46 -5.43823 -2.03069 0
M  V30 5869 H 557.225 -2.79997 1.06873 0
M  V30 5870 H 554.786 -1.45455 0.710943 0
M  V30 5871 H 556.778 -3.85486 -1.23216 0
M  V30 5872 H 555.348 -2.80331 -1.38323 0
M  V30 5873 H 554.568 -3.84384 0.874199 0
M  V30 5874 H 555.856 -5.04399 0.667774 0
M  V30 5875 H 555.254 -5.06803 -2.51332 0
M  V30 5876 H 553.811 -5.99998 -2.54648 0
M  V30 5877 N 557.244 -0.608902 -1.45362 0
M  V30 5878 C 558.194 0.130616 -2.27626 0
M  V30 5879 C 559.178 0.837323 -1.37396 0
M  V30 5880 O 560.37 0.727096 -1.61376 0
M  V30 5881 C 557.499 1.12646 -3.24293 0
M  V30 5882 C 556.585 0.42052 -4.2201 0
M  V30 5883 N 556.976 -0.538569 -5.02925 0
M  V30 5884 C 555.274 0.667901 -4.40971 0
M  V30 5885 C 555.975 -0.953625 -5.7383 0
M  V30 5886 N 554.951 -0.297097 -5.42788 0
M  V30 5887 H 558.753 -0.605996 -2.87585 0
M  V30 5888 H 556.267 -0.432672 -1.5653 0
M  V30 5889 H 558.264 1.67066 -3.81961 0
M  V30 5890 H 556.924 1.86361 -2.65894 0
M  V30 5891 H 557.935 -0.915375 -5.09746 0
M  V30 5892 H 554.612 1.38963 -3.93695 0
M  V30 5893 H 556.002 -1.74473 -6.48852 0
M  V30 5894 N 558.722 1.53707 -0.348139 0
M  V30 5895 C 559.652 2.28111 0.498766 0
M  V30 5896 C 560.633 1.29851 1.09876 0
M  V30 5897 O 561.818 1.587 1.11928 0
M  V30 5898 C 558.948 3.05735 1.64753 0
M  V30 5899 C 557.902 4.11537 1.17565 0
M  V30 5900 C 557.228 4.77142 2.4133 0
M  V30 5901 C 558.528 5.21587 0.272844 0
M  V30 5902 H 560.222 2.99152 -0.121934 0
M  V30 5903 H 557.768 1.43875 -0.0600842 0
M  V30 5904 H 559.721 3.56526 2.24649 0
M  V30 5905 H 558.445 2.32354 2.2952 0
M  V30 5906 H 557.104 3.61665 0.599483 0
M  V30 5907 H 556.752 4.0035 3.04514 0
M  V30 5908 H 556.452 5.48626 2.10436 0
M  V30 5909 H 557.976 5.30719 3.01943 0
M  V30 5910 H 559.39 5.67986 0.778779 0
M  V30 5911 H 557.787 6.00074 0.0555849 0
M  V30 5912 H 558.857 4.79969 -0.689785 0
M  V30 5913 N 560.2 0.0768682 1.57412 0
M  V30 5914 C 561.446 -0.591961 1.93968 0
M  V30 5915 C 561.779 -1.68954 0.9575 0
M  V30 5916 O 561.054 -1.94496 -0.0124675 0
M  V30 5917 C 561.337 -1.16418 3.40762 0
M  V30 5918 C 561.19 -0.0728933 4.49741 0
M  V30 5919 C 562.509 -2.06814 3.88479 0
M  V30 5920 H 559.628 -0.213716 0.705333 0
M  V30 5921 H 562.27 0.14387 1.89455 0
M  V30 5922 H 560.42 -1.79128 3.4474 0
M  V30 5923 H 562.092 0.560446 4.57883 0
M  V30 5924 H 560.335 0.595859 4.29688 0
M  V30 5925 H 561.006 -0.513755 5.49604 0
M  V30 5926 H 563.482 -1.54033 3.8654 0
M  V30 5927 H 562.358 -2.43785 4.91793 0
M  V30 5928 H 562.619 -2.97844 3.26713 0
M  V30 5929 N 561.678 -1.56367 -0.196722 0
M  V30 5930 C 562.61 -1.90941 -1.26784 0
M  V30 5931 C 563.623 -0.799928 -1.41792 0
M  V30 5932 O 564.812 -1.07833 -1.42247 0
M  V30 5933 C 561.912 -2.12477 -2.6402 0
M  V30 5934 C 561.085 -3.43616 -2.70641 0
M  V30 5935 C 560.144 -3.54284 -3.89062 0
M  V30 5936 O 559.17 -4.2712 -3.76241 0
M  V30 5937 N 560.372 -2.87252 -5.04447 0
M  V30 5938 H 563.137 -2.83417 -0.974417 0
M  V30 5939 H 560.698 -1.57215 -0.386649 0
M  V30 5940 H 562.69 -2.16904 -3.41665 0
M  V30 5941 H 561.26 -1.26508 -2.85857 0
M  V30 5942 H 560.48 -3.51072 -1.79283 0
M  V30 5943 H 561.768 -4.29958 -2.72054 0
M  V30 5944 H 561.166 -2.27901 -5.17762 0
M  V30 5945 H 559.723 -2.97308 -5.80044 0
M  V30 5946 N 563.156 0.464375 -1.50603 0
M  V30 5947 C 564.402 1.21776 -1.62168 0
M  V30 5948 C 564.735 1.91476 -0.324154 0
M  V30 5949 O 564.01 1.8242 0.674782 0
M  V30 5950 C 564.293 2.25614 -2.80661 0
M  V30 5951 C 564.146 1.60175 -4.20314 0
M  V30 5952 C 565.465 3.26862 -2.94702 0
M  V30 5953 H 562.584 0.44137 -0.590222 0
M  V30 5954 H 565.226 0.510623 -1.8301 0
M  V30 5955 H 563.376 2.85923 -2.63021 0
M  V30 5956 H 565.048 1.03411 -4.4956 0
M  V30 5957 H 563.291 0.904697 -4.24261 0
M  V30 5958 H 563.962 2.35665 -4.99165 0
M  V30 5959 H 566.438 2.76582 -3.10872 0
M  V30 5960 H 565.314 3.96839 -3.79223 0
M  V30 5961 H 565.575 3.91382 -2.05603 0
M  V30 5962 N 564.634 1.40294 0.718013 0
M  V30 5963 C 565.584 1.36847 1.82365 0
M  V30 5964 C 566.568 0.246424 1.59002 0
M  V30 5965 O 567.76 0.485336 1.70216 0
M  V30 5966 C 564.889 1.23105 3.20469 0
M  V30 5967 C 563.975 2.4008 3.49603 0
M  V30 5968 N 564.366 3.65562 3.49568 0
M  V30 5969 C 562.664 2.33407 3.80049 0
M  V30 5970 C 563.365 4.43015 3.76978 0
M  V30 5971 N 562.341 3.72823 3.95606 0
M  V30 5972 H 566.143 2.31811 1.80668 0
M  V30 5973 H 563.657 1.34031 0.91703 0
M  V30 5974 H 565.654 1.18718 3.9964 0
M  V30 5975 H 564.314 0.291056 3.23393 0
M  V30 5976 H 565.325 3.98756 3.30476 0
M  V30 5977 H 562.002 1.47762 3.90478 0
M  V30 5978 H 563.392 5.51859 3.83276 0
M  V30 5979 N 566.112 -0.949982 1.2575 0
M  V30 5980 C 567.528 -1.22191 1.02672 0
M  V30 5981 C 567.728 -1.99898 -0.253588 0
M  V30 5982 O 566.784 -2.33329 -0.965076 0
M  V30 5983 C 568.097 -1.99175 2.25277 0
M  V30 5984 C 569.645 -2.12201 2.30087 0
M  V30 5985 C 570.12 -2.92586 3.5236 0
M  V30 5986 N 571.611 -3.00163 3.52784 0
M  V30 5987 C 572.346 -3.62766 4.44059 0
M  V30 5988 N 571.842 -4.26943 5.45611 0
M  V30 5989 N 573.635 -3.59953 4.3173 0
M  V30 5990 H 565.786 -0.430258 2.07996 0
M  V30 5991 H 568.049 -0.252844 0.91366 0
M  V30 5992 H 567.755 -1.49479 3.18354 0
M  V30 5993 H 567.629 -2.99868 2.28821 0
M  V30 5994 H 570.016 -2.61093 1.3753 0
M  V30 5995 H 570.097 -1.10799 2.30559 0
M  V30 5996 H 569.741 -2.44383 4.45241 0
M  V30 5997 H 569.671 -3.94224 3.49134 0
M  V30 5998 H 572.162 -2.54529 2.79327 0
M  V30 5999 H 572.475 -4.72583 6.11461 0
M  V30 6000 H 570.82 -4.25557 5.49478 0
M  V30 6001 H 574.011 -3.09003 3.51617 0
M  V30 6002 H 574.184 -4.08455 5.03059 0
M  V30 6003 N 567.59 -1.07411 -1.15328 0
M  V30 6004 C 568.818 -0.818782 -1.90009 0
M  V30 6005 C 569.233 0.628072 -1.78047 0
M  V30 6006 O 568.59 1.43085 -1.13282 0
M  V30 6007 C 568.641 -1.21874 -3.40337 0
M  V30 6008 O 568.362 -2.60883 -3.51954 0
M  V30 6009 C 569.863 -0.992796 -4.3204 0
M  V30 6010 H 567.083 -0.296007 -0.60218 0
M  V30 6011 H 569.627 -1.43073 -1.46117 0
M  V30 6012 H 567.782 -0.651103 -3.81889 0
M  V30 6013 H 568.196 -2.77216 -4.45255 0
M  V30 6014 H 569.67 -1.32215 -5.35932 0
M  V30 6015 H 570.147 0.0708331 -4.39143 0
M  V30 6016 H 570.753 -1.54537 -3.9623 0
M  V30 6017 N 569.068 1.32177 -0.85831 0
M  V30 6018 C 570.317 1.96392 -0.459689 0
M  V30 6019 C 570.63 1.68659 0.990632 0
M  V30 6020 O 571.836 2.26641 1.49485 0
M  V30 6021 C 570.292 3.51542 -0.7711 0
M  V30 6022 C 569.9 3.8813 -2.2374 0
M  V30 6023 C 571.644 4.2221 -0.44038 0
M  V30 6024 C 569.551 5.36341 -2.49183 0
M  V30 6025 H 568.481 0.735007 -0.168169 0
M  V30 6026 H 571.132 1.50518 -1.0496 0
M  V30 6027 H 569.514 3.95846 -0.11058 0
M  V30 6028 H 570.688 3.54824 -2.94001 0
M  V30 6029 H 569.003 3.30497 -2.533 0
M  V30 6030 H 571.6 5.31234 -0.607855 0
M  V30 6031 H 571.943 4.11683 0.618291 0
M  V30 6032 H 572.476 3.83502 -1.05695 0
M  V30 6033 H 569.215 5.51892 -3.53689 0
M  V30 6034 H 568.735 5.7104 -1.83504 0
M  V30 6035 H 570.414 6.03466 -2.33318 0
M  V30 6036 N 570.547 0.616602 1.45037 0
M  V30 6037 C 571.497 -0.118543 2.27692 0
M  V30 6038 C 572.481 -0.830025 1.37838 0
M  V30 6039 O 573.673 -0.718528 1.6176 0
M  V30 6040 C 570.802 -1.10924 3.24886 0
M  V30 6041 C 569.888 -0.398134 4.22227 0
M  V30 6042 N 570.279 0.565233 5.02632 0
M  V30 6043 C 568.577 -0.644506 4.41319 0
M  V30 6044 C 569.278 0.984043 5.73316 0
M  V30 6045 N 568.254 0.325879 5.42622 0
M  V30 6046 H 572.056 0.621239 2.87259 0
M  V30 6047 H 569.57 0.440968 1.56299 0
M  V30 6048 H 571.567 -1.65038 3.82842 0
M  V30 6049 H 570.227 -1.84948 2.66879 0
M  V30 6050 H 571.238 0.942395 5.09254 0
M  V30 6051 H 567.915 -1.36873 3.94426 0
M  V30 6052 H 569.305 1.77911 6.47918 0
M  V30 6053 N 572.025 -1.5352 0.356285 0
M  V30 6054 C 573.302 -1.93405 -0.292223 0
M  V30 6055 C 573.682 -1.28901 -1.67176 0
M  V30 6056 O 573.03 -0.444632 -2.24132 0
M  V30 6057 C 573.24 -3.47223 -0.35175 0
M  V30 6058 C 574.588 -4.20389 -0.596534 0
M  V30 6059 O 575.612 -3.53554 -0.433344 0
M  V30 6060 O 574.471 -5.3881 -0.913589 0
M  V30 6061 H 571.565 -0.808666 -0.173172 0
M  V30 6062 H 574.111 -1.64713 0.408391 0
M  V30 6063 H 572.883 -3.86423 0.615841 0
M  V30 6064 H 572.506 -3.8212 -1.09864 0
M  V30 6065 N 573.503 -0.0852151 -1.57369 0
M  V30 6066 C 574.751 0.579658 -1.93609 0
M  V30 6067 C 575.072 1.69332 -0.967043 0
M  V30 6068 O 574.342 1.95892 -0.0174215 0
M  V30 6069 H 572.922 0.217113 -0.714752 0
M  V30 6070 H 575.584 -0.146226 -1.94351 0
M  V30 6071 H 574.68 0.996276 -2.95771 0
M  V30 6072 N 574.981 1.5647 0.188427 0
M  V30 6073 C 575.911 1.98101 1.23606 0
M  V30 6074 C 576.892 0.853961 1.47111 0
M  V30 6075 O 578.077 1.11879 1.58735 0
M  V30 6076 C 575.207 2.32624 2.57882 0
M  V30 6077 C 574.161 3.48129 2.48978 0
M  V30 6078 C 573.487 3.68347 3.87588 0
M  V30 6079 C 574.787 4.82112 2.00911 0
M  V30 6080 H 576.481 2.85864 0.890068 0
M  V30 6081 H 574.027 1.37532 0.426714 0
M  V30 6082 H 575.98 2.60343 3.3136 0
M  V30 6083 H 574.704 1.41751 2.94235 0
M  V30 6084 H 573.363 3.20511 1.77956 0
M  V30 6085 H 573.011 2.74793 4.21305 0
M  V30 6086 H 572.711 4.46055 3.82503 0
M  V30 6087 H 574.235 3.98449 4.62678 0
M  V30 6088 H 575.649 5.08819 2.64151 0
M  V30 6089 H 574.046 5.63337 2.06814 0
M  V30 6090 H 575.116 4.75249 0.96262 0
M  V30 6091 N 576.459 -0.456382 1.50847 0
M  V30 6092 C 577.409 -1.55045 1.67168 0
M  V30 6093 C 578.393 -1.52061 0.525958 0
M  V30 6094 O 579.585 -1.58836 0.781036 0
M  V30 6095 C 576.714 -2.93386 1.78268 0
M  V30 6096 C 575.8 -3.01198 2.98564 0
M  V30 6097 N 576.191 -2.78792 4.22029 0
M  V30 6098 C 574.489 -3.32346 2.97426 0
M  V30 6099 C 575.19 -2.91953 5.03128 0
M  V30 6100 N 574.166 -3.22797 4.37382 0
M  V30 6101 H 577.968 -1.36444 2.60308 0
M  V30 6102 H 575.482 -0.663375 1.48233 0
M  V30 6103 H 577.479 -3.72071 1.88067 0
M  V30 6104 H 576.139 -3.13022 0.862965 0
M  V30 6105 H 577.15 -2.54087 4.51287 0
M  V30 6106 H 573.827 -3.57877 2.15012 0
M  V30 6107 H 575.217 -2.78745 6.11351 0
M  V30 6108 N 577.937 -1.40673 -0.710563 0
M  V30 6109 C 579.183 -1.39428 -1.47267 0
M  V30 6110 C 579.516 0.00182129 -1.942 0
M  V30 6111 O 578.791 0.971387 -1.68506 0
M  V30 6112 C 579.074 -2.38812 -2.6952 0
M  V30 6113 C 578.927 -3.87467 -2.28449 0
M  V30 6114 C 580.246 -2.3566 -3.71689 0
M  V30 6115 H 577.365 -0.507768 -0.534173 0
M  V30 6116 H 580.007 -1.71843 -0.810547 0
M  V30 6117 H 578.157 -2.113 -3.26013 0
M  V30 6118 H 579.829 -4.25825 -1.77399 0
M  V30 6119 H 578.072 -4.03058 -1.60395 0
M  V30 6120 H 578.743 -4.5253 -3.16103 0
M  V30 6121 H 581.219 -2.6004 -3.24836 0
M  V30 6122 H 580.095 -3.07237 -4.54859 0
M  V30 6123 H 580.356 -1.36996 -4.20339 0
M  V30 6124 N 579.415 0.9433 -1.26252 0
M  V30 6125 C 580.362 2.0417 -1.07625 0
M  V30 6126 C 581.332 1.6609 0.0180738 0
M  V30 6127 O 582.517 1.90276 -0.141289 0
M  V30 6128 C 579.657 3.37653 -0.713043 0
M  V30 6129 C 578.77 3.88783 -1.8834 0
M  V30 6130 C 577.905 5.10642 -1.4635 0
M  V30 6131 C 576.944 5.54028 -2.60229 0
M  V30 6132 N 576.081 6.67092 -2.18936 0
M  V30 6133 H 580.921 2.19436 -2.01623 0
M  V30 6134 H 578.458 1.07519 -1.00389 0
M  V30 6135 H 580.416 4.14391 -0.483358 0
M  V30 6136 H 579.046 3.22241 0.18996 0
M  V30 6137 H 578.098 3.08464 -2.22608 0
M  V30 6138 H 579.41 4.16922 -2.73821 0
M  V30 6139 H 578.564 5.94832 -1.19414 0
M  V30 6140 H 577.303 4.84244 -0.579568 0
M  V30 6141 H 576.308 4.68396 -2.87898 0
M  V30 6142 H 577.533 5.82429 -3.49219 0
M  V30 6143 H 575.479 6.42381 -1.32974 0
M  V30 6144 H 575.396 6.94806 -2.97961 0
M  V30 6145 H 576.664 7.54662 -1.95206 0
M  V30 6146 N 580.893 1.08022 1.14757 0
M  V30 6147 C 582.141 0.805913 1.85336 0
M  V30 6148 C 582.462 -0.670162 1.83122 0
M  V30 6149 O 581.732 -1.48567 1.2769 0
M  V30 6150 H 580.312 0.295138 0.686223 0
M  V30 6151 H 582.974 1.36538 1.3908 0
M  V30 6152 H 582.07 1.14655 2.90277 0
M  V30 6153 N 582.371 -1.3172 0.865308 0
M  V30 6154 C 583.601 -2.00765 0.487543 0
M  V30 6155 C 584.009 -1.65145 -0.92325 0
M  V30 6156 O 583.352 -0.874294 -1.61561 0
M  V30 6157 C 583.414 -3.55122 0.559369 0
M  V30 6158 C 583.078 -4.14202 1.93095 0
M  V30 6159 C 584.075 -4.3165 2.89784 0
M  V30 6160 C 581.76 -4.50036 2.23099 0
M  V30 6161 C 583.754 -4.84114 4.14623 0
M  V30 6162 C 581.441 -5.02203 3.48189 0
M  V30 6163 C 582.439 -5.19192 4.43767 0
M  V30 6164 O 582.127 -5.70241 5.6664 0
M  V30 6165 H 581.859 -0.649066 0.188915 0
M  V30 6166 H 584.413 -1.69032 1.16694 0
M  V30 6167 H 582.643 -3.86295 -0.176926 0
M  V30 6168 H 584.332 -4.05428 0.195694 0
M  V30 6169 H 585.098 -4.04288 2.6791 0
M  V30 6170 H 580.977 -4.36091 1.49485 0
M  V30 6171 H 584.521 -4.9729 4.89233 0
M  V30 6172 H 580.418 -5.28997 3.69908 0
M  V30 6173 H 581.186 -5.88617 5.68746 0
M  V30 6174 N 583.85 -0.624285 -1.44708 0
M  V30 6175 C 584.783 0.133905 -2.27807 0
M  V30 6176 C 585.76 0.857794 -1.38133 0
M  V30 6177 O 586.945 0.863277 -1.6757 0
M  V30 6178 C 584.072 1.19541 -3.16903 0
M  V30 6179 C 583.118 0.572813 -4.22636 0
M  V30 6180 S 583.951 -0.631953 -5.31758 0
M  V30 6181 C 585.106 0.429733 -6.24423 0
M  V30 6182 H 585.34 -0.571072 -2.91764 0
M  V30 6183 H 582.873 -0.412261 -1.48794 0
M  V30 6184 H 584.831 1.80293 -3.68788 0
M  V30 6185 H 583.492 1.87255 -2.5218 0
M  V30 6186 H 582.685 1.37205 -4.84965 0
M  V30 6187 H 582.287 0.0400641 -3.73979 0
M  V30 6188 H 584.579 1.30421 -6.64828 0
M  V30 6189 H 585.522 -0.157804 -7.07924 0
M  V30 6190 H 585.93 0.75256 -5.59461 0
M  V30 6191 N 585.328 1.53329 -0.364422 0
M  V30 6192 C 586.291 2.24323 0.470292 0
M  V30 6193 C 587.291 1.25068 1.01067 0
M  V30 6194 O 588.481 1.49354 0.896605 0
M  V30 6195 C 585.613 2.97908 1.65722 0
M  V30 6196 H 586.806 2.9952 -0.150917 0
M  V30 6197 H 584.359 1.55868 -0.116092 0
M  V30 6198 H 585.094 2.2695 2.31655 0
M  V30 6199 H 584.879 3.70732 1.27671 0
M  V30 6200 H 586.369 3.5188 2.24878 0
M  V30 6201 N 586.806 0.0935595 1.57322 0
M  V30 6202 C 588.052 -0.565234 1.95388 0
M  V30 6203 C 588.407 -1.65888 0.974632 0
M  V30 6204 O 587.7 -1.916 0.000376385 0
M  V30 6205 C 587.894 -1.16692 3.37813 0
M  V30 6206 C 587.723 -0.133091 4.49503 0
M  V30 6207 C 586.493 0.289884 5.04468 0
M  V30 6208 C 588.691 0.638141 5.10326 0
M  V30 6209 N 586.673 1.31214 5.99713 0
M  V30 6210 C 588.044 1.51227 6.01274 0
M  V30 6211 C 590.099 0.691827 4.9307 0
M  V30 6212 C 588.802 2.43536 6.76818 0
M  V30 6213 C 590.828 1.60251 5.69274 0
M  V30 6214 C 590.19 2.46427 6.59889 0
M  V30 6215 H 586.289 -0.177212 0.761656 0
M  V30 6216 H 588.873 0.175769 1.93905 0
M  V30 6217 H 587.044 -1.87775 3.39993 0
M  V30 6218 H 588.776 -1.78795 3.63063 0
M  V30 6219 H 585.531 -0.0975541 4.735 0
M  V30 6220 H 585.955 1.82143 6.52038 0
M  V30 6221 H 590.597 0.0397431 4.22781 0
M  V30 6222 H 588.315 3.0977 7.4637 0
M  V30 6223 H 591.901 1.64917 5.57937 0
M  V30 6224 H 590.781 3.15751 7.17824 0
M  V30 6225 N 588.284 -1.56567 -0.180126 0
M  V30 6226 C 589.509 -1.85975 -0.918041 0
M  V30 6227 C 589.934 -0.678888 -1.75422 0
M  V30 6228 O 589.292 0.372168 -1.77439 0
M  V30 6229 C 589.34 -3.13731 -1.77779 0
M  V30 6230 O 588.444 -2.95335 -2.87838 0
M  V30 6231 H 587.785 -0.61196 -0.257683 0
M  V30 6232 H 590.315 -2.03798 -0.180923 0
M  V30 6233 H 590.325 -3.4491 -2.17948 0
M  V30 6234 H 589 -3.99293 -1.16352 0
M  V30 6235 H 587.577 -2.7549 -2.51316 0
M  V30 6236 N 589.762 0.448376 -1.51087 0
M  V30 6237 C 590.692 1.55102 -1.74544 0
M  V30 6238 C 591.673 1.59357 -0.594932 0
M  V30 6239 O 592.858 1.75261 -0.836491 0
M  V30 6240 C 589.988 2.93268 -1.86041 0
M  V30 6241 C 588.942 3.03877 -3.01402 0
M  V30 6242 C 588.268 4.43914 -2.98068 0
M  V30 6243 C 589.568 2.7898 -4.41551 0
M  V30 6244 H 591.262 1.35724 -2.66869 0
M  V30 6245 H 588.808 0.651498 -1.28419 0
M  V30 6246 H 590.761 3.70356 -2.01034 0
M  V30 6247 H 589.485 3.13853 -0.903548 0
M  V30 6248 H 588.144 2.29227 -2.86096 0
M  V30 6249 H 587.792 4.6145 -2.00182 0
M  V30 6250 H 587.492 4.51944 -3.75527 0
M  V30 6251 H 589.016 5.22991 -3.1514 0
M  V30 6252 H 590.43 3.45805 -4.57265 0
M  V30 6253 H 588.827 2.98431 -5.20633 0
M  V30 6254 H 589.897 1.74663 -4.5235 0
M  V30 6255 N 591.24 1.41047 0.703093 0
M  V30 6256 C 592.17 1.45067 1.82969 0
M  V30 6257 C 593.151 0.31016 1.67248 0
M  V30 6258 O 594.336 0.520548 1.87093 0
M  V30 6259 C 591.466 1.32478 3.2104 0
M  V30 6260 C 590.42 2.44262 3.51454 0
M  V30 6261 C 589.746 2.16742 4.88801 0
M  V30 6262 C 591.046 3.86606 3.51189 0
M  V30 6263 H 592.74 2.39353 1.79863 0
M  V30 6264 H 590.286 1.15206 0.863919 0
M  V30 6265 H 592.239 1.33904 3.99559 0
M  V30 6266 H 590.963 0.346735 3.24754 0
M  V30 6267 H 589.622 2.42107 2.75282 0
M  V30 6268 H 589.27 1.17299 4.89132 0
M  V30 6269 H 588.97 2.91643 5.10116 0
M  V30 6270 H 590.494 2.19872 5.69639 0
M  V30 6271 H 591.908 3.90517 4.19725 0
M  V30 6272 H 590.305 4.61128 3.84033 0
M  V30 6273 H 591.375 4.15296 2.50315 0
M  V30 6274 N 592.718 -0.936591 1.26751 0
M  V30 6275 C 593.995 -1.66094 1.03306 0
M  V30 6276 C 594.375 -2.06568 -0.435058 0
M  V30 6277 O 593.723 -1.79305 -1.41641 0
M  V30 6278 C 593.933 -2.86969 1.98619 0
M  V30 6279 C 595.281 -3.58516 2.27489 0
M  V30 6280 O 596.305 -2.97082 1.96522 0
M  V30 6281 O 595.164 -4.69181 2.80235 0
M  V30 6282 H 592.258 -0.727568 0.393158 0
M  V30 6283 H 594.804 -0.987914 1.3798 0
M  V30 6284 H 593.576 -2.53985 2.9767 0
M  V30 6285 H 593.199 -3.61996 1.64454 0
M  V30 6286 N 594.196 -1.08629 -1.14182 0
M  V30 6287 C 595.144 -0.71284 -2.21408 0
M  V30 6288 C 596.138 0.282457 -1.67029 0
M  V30 6289 O 597.344 0.144783 -1.79417 0
M  V30 6290 H 593.719 -0.212497 -0.721352 0
M  V30 6291 H 595.69 -1.6265 -2.50175 0
M  V30 6292 C 594.439 -0.140704 -3.47415 0
M  V30 6293 H 593.762 -0.897739 -3.8959 0
M  V30 6294 H 595.202 0.0827677 -4.23919 0
M  V30 6295 C 593.661 1.122 -3.17668 0
M  V30 6296 O 594.191 2.20652 -3.35672 0
M  V30 6297 N 592.397 1.03328 -2.71609 0
M  V30 6298 H 591.944 0.150666 -2.57159 0
M  V30 6299 H 591.902 1.8789 -2.52081 0
M  V30 6300 N 595.674 1.31259 -0.872281 0
M  V30 6301 C 596.921 1.96622 -0.484365 0
M  V30 6302 C 597.249 1.68939 0.963841 0
M  V30 6303 O 596.504 0.97974 1.6941 0
M  V30 6304 C 596.803 3.50659 -0.690889 0
M  V30 6305 C 596.469 3.98366 -2.11224 0
M  V30 6306 C 595.131 4.11104 -2.50094 0
M  V30 6307 C 597.483 4.23425 -3.0391 0
M  V30 6308 C 594.811 4.46254 -3.80887 0
M  V30 6309 C 597.163 4.60039 -4.3422 0
M  V30 6310 C 595.827 4.70984 -4.73001 0
M  V30 6311 H 595.097 0.71949 -0.177242 0
M  V30 6312 H 597.744 1.56353 -1.10571 0
M  V30 6313 H 596.049 3.91798 0.0135782 0
M  V30 6314 H 597.746 3.99284 -0.370534 0
M  V30 6315 H 594.336 3.88949 -1.80047 0
M  V30 6316 H 598.52 4.13075 -2.75104 0
M  V30 6317 H 593.776 4.52926 -4.10692 0
M  V30 6318 H 597.95 4.78381 -5.06088 0
M  V30 6319 H 595.577 4.97977 -5.7439 0
M  V30 6320 N 597.152 0.631951 1.44375 0
M  V30 6321 C 598.062 -0.073674 2.34484 0
M  V30 6322 C 599.078 -0.834825 1.52665 0
M  V30 6323 O 600.254 -0.786902 1.85391 0
M  V30 6324 C 597.319 -1.04247 3.30656 0
M  V30 6325 C 596.38 -0.280602 4.28382 0
M  V30 6326 C 595.613 -1.20325 5.19959 0
M  V30 6327 O 595.836 -2.44199 5.15484 0
M  V30 6328 O 594.77 -0.687128 5.97965 0
M  V30 6329 H 598.596 0.667477 2.96274 0
M  V30 6330 H 596.181 0.392144 1.44162 0
M  V30 6331 H 598.063 -1.59981 3.89851 0
M  V30 6332 H 596.738 -1.76422 2.71398 0
M  V30 6333 H 595.645 0.319804 3.72731 0
M  V30 6334 H 596.978 0.401144 4.90563 0
M  V30 6335 N 598.631 -1.53133 0.372548 0
M  V30 6336 C 599.877 -2.02336 -0.207823 0
M  V30 6337 C 600.232 -1.25477 -1.45853 0
M  V30 6338 O 599.525 -0.341971 -1.88524 0
M  V30 6339 C 599.719 -3.53206 -0.545938 0
M  V30 6340 C 599.548 -4.44674 0.670454 0
M  V30 6341 C 598.318 -4.91217 1.18465 0
M  V30 6342 C 600.516 -4.90772 1.53777 0
M  V30 6343 N 598.498 -5.66711 2.36034 0
M  V30 6344 C 599.869 -5.64678 2.56004 0
M  V30 6345 C 601.924 -4.72836 1.55983 0
M  V30 6346 C 600.627 -6.22555 3.60303 0
M  V30 6347 C 602.653 -5.31583 2.59179 0
M  V30 6348 C 602.015 -6.05381 3.6013 0
M  V30 6349 H 598.114 -0.781048 -0.0385783 0
M  V30 6350 H 600.698 -1.87665 0.518664 0
M  V30 6351 H 598.869 -3.68024 -1.24149 0
M  V30 6352 H 600.601 -3.89123 -1.112 0
M  V30 6353 H 597.356 -4.67652 0.748205 0
M  V30 6354 H 597.78 -6.09117 2.95475 0
M  V30 6355 H 602.422 -4.15299 0.792877 0
M  V30 6356 H 600.14 -6.79183 4.37876 0
M  V30 6357 H 603.726 -5.19595 2.61749 0
M  V30 6358 H 602.606 -6.50028 4.38672 0
M  V30 6359 N 600.109 -0.101901 -1.5727 0
M  V30 6360 C 601.072 0.840129 -2.13247 0
M  V30 6361 C 602.072 1.20625 -1.06331 0
M  V30 6362 O 603.262 1.13456 -1.32186 0
M  V30 6363 C 600.394 2.13372 -2.65867 0
M  V30 6364 H 601.587 0.353945 -2.97804 0
M  V30 6365 H 599.14 0.147167 -1.55606 0
M  V30 6366 H 599.875 2.66461 -1.84849 0
M  V30 6367 H 599.66 1.88085 -3.44044 0
M  V30 6368 H 601.15 2.80748 -3.09145 0
M  V30 6369 N 601.587 1.56661 0.17182 0
M  V30 6370 C 602.497 1.99604 1.2327 0
M  V30 6371 C 603.513 0.907333 1.4847 0
M  V30 6372 O 604.689 1.21492 1.60629 0
M  V30 6373 C 601.754 2.34685 2.55194 0
M  V30 6374 C 600.815 3.57381 2.3786 0
M  V30 6375 C 600.048 3.90779 3.63494 0
M  V30 6376 O 600.271 3.25152 4.6865 0
M  V30 6377 O 599.205 4.84129 3.57634 0
M  V30 6378 H 603.031 2.90114 0.898192 0
M  V30 6379 H 600.616 1.44522 0.378647 0
M  V30 6380 H 602.498 2.5822 3.33017 0
M  V30 6381 H 601.173 1.47336 2.88225 0
M  V30 6382 H 600.08 3.39064 1.5807 0
M  V30 6383 H 601.413 4.45268 2.09754 0
M  V30 6384 N 603.065 -0.440357 1.51323 0
M  V30 6385 C 604.313 -1.18769 1.63518 0
M  V30 6386 C 604.634 -1.91793 0.352201 0
M  V30 6387 O 603.904 -1.85432 -0.631811 0
M  V30 6388 H 602.484 -0.441408 0.602634 0
M  V30 6389 H 605.146 -0.505162 1.8824 0
M  V30 6390 H 604.242 -1.91892 2.46138 0
M  V30 6391 N 604.543 -1.41418 -0.695603 0
M  V30 6392 C 605.773 -1.43921 -1.48224 0
M  V30 6393 C 606.181 -0.0428855 -1.89151 0
M  V30 6394 O 605.524 0.948138 -1.5734 0
M  V30 6395 C 605.586 -2.28466 -2.77567 0
M  V30 6396 C 605.25 -3.76629 -2.58844 0
M  V30 6397 C 606.247 -4.6879 -2.24793 0
M  V30 6398 C 603.932 -4.2067 -2.74485 0
M  V30 6399 C 605.926 -6.02981 -2.06622 0
M  V30 6400 C 603.613 -5.54926 -2.55931 0
M  V30 6401 C 604.611 -6.45897 -2.2205 0
M  V30 6402 O 604.299 -7.77675 -2.03657 0
M  V30 6403 H 604.031 -0.492252 -0.463318 0
M  V30 6404 H 606.585 -1.86347 -0.863952 0
M  V30 6405 H 604.815 -1.80853 -3.41802 0
M  V30 6406 H 606.504 -2.2267 -3.39371 0
M  V30 6407 H 607.27 -4.36055 -2.12323 0
M  V30 6408 H 603.149 -3.50167 -2.9984 0
M  V30 6409 H 606.693 -6.73951 -1.80099 0
M  V30 6410 H 602.59 -5.8724 -2.67991 0
M  V30 6411 H 603.358 -7.88819 -2.1842 0
M  V30 6412 N 606.021 0.929856 -1.27246 0
M  V30 6413 C 606.969 2.05151 -1.09616 0
M  V30 6414 C 607.963 1.69388 -0.0198617 0
M  V30 6415 O 609.169 1.79124 -0.177417 0
M  V30 6416 H 605.544 0.671909 -0.337701 0
M  V30 6417 H 607.515 2.17168 -2.04648 0
M  V30 6418 C 606.264 3.3934 -0.757851 0
M  V30 6419 H 605.587 3.67343 -1.57795 0
M  V30 6420 H 607.027 4.18603 -0.674358 0
M  V30 6421 C 605.486 3.32582 0.537658 0
M  V30 6422 O 606.016 3.69633 1.57271 0
M  V30 6423 N 604.222 2.8568 0.532478 0
M  V30 6424 H 603.769 2.55725 -0.310233 0
M  V30 6425 H 603.727 2.81541 1.39936 0
M  V30 6426 N 607.499 1.09233 1.13605 0
M  V30 6427 C 608.432 0.6739 2.18023 0
M  V30 6428 C 609.41 -0.318603 1.59448 0
M  V30 6429 O 610.594 -0.220452 1.87206 0
M  V30 6430 C 607.721 -0.00751458 3.38699 0
M  V30 6431 C 606.767 0.946481 4.15865 0
M  V30 6432 S 607.6 2.45753 4.75779 0
M  V30 6433 C 608.756 1.78846 5.99804 0
M  V30 6434 H 608.989 1.55846 2.53178 0
M  V30 6435 H 606.522 0.908118 1.2487 0
M  V30 6436 H 608.48 -0.394368 4.08601 0
M  V30 6437 H 607.141 -0.868693 3.01849 0
M  V30 6438 H 606.334 0.416742 5.02274 0
M  V30 6439 H 605.936 1.27464 3.51609 0
M  V30 6440 H 608.228 1.11135 6.68323 0
M  V30 6441 H 609.171 2.63163 6.57382 0
M  V30 6442 H 609.579 1.25823 5.50299 0
M  V30 6443 N 608.977 -1.30795 0.87923 0
M  V30 6444 C 610.393 -1.48981 0.57243 0
M  V30 6445 C 610.593 -1.80719 -0.891236 0
M  V30 6446 O 609.649 -1.89136 -1.67283 0
M  V30 6447 C 610.962 -2.61721 1.48063 0
M  V30 6448 C 612.51 -2.75603 1.48365 0
M  V30 6449 C 612.985 -3.91449 2.37763 0
M  V30 6450 N 614.476 -3.98751 2.35695 0
M  V30 6451 C 615.211 -4.87684 3.01583 0
M  V30 6452 N 614.707 -5.81454 3.76674 0
M  V30 6453 N 616.5 -4.81005 2.90844 0
M  V30 6454 H 608.651 -1.08465 1.82617 0
M  V30 6455 H 610.914 -0.536813 0.781368 0
M  V30 6456 H 610.62 -2.45073 2.52254 0
M  V30 6457 H 610.494 -3.58071 1.18596 0
M  V30 6458 H 612.881 -2.9166 0.44927 0
M  V30 6459 H 612.962 -1.79891 1.81859 0
M  V30 6460 H 612.606 -3.76149 3.41283 0
M  V30 6461 H 612.536 -4.86487 2.01589 0
M  V30 6462 H 615.027 -3.31668 1.81121 0
M  V30 6463 H 615.34 -6.46063 4.24054 0
M  V30 6464 H 613.685 -5.81403 3.80782 0
M  V30 6465 H 616.876 -4.06728 2.31711 0
M  V30 6466 H 617.049 -5.50107 3.42471 0
M  V30 6467 N 610.455 -0.639598 -1.44038 0
M  V30 6468 C 611.702 -0.14748 -2.01962 0
M  V30 6469 C 612.03 1.23372 -1.50365 0
M  V30 6470 O 611.285 1.8345 -0.681501 0
M  V30 6471 C 611.584 -0.0925348 -3.5728 0
M  V30 6472 C 611.25 -1.41365 -4.28167 0
M  V30 6473 C 609.912 -1.77545 -4.47248 0
M  V30 6474 C 612.264 -2.2853 -4.68427 0
M  V30 6475 C 609.592 -3.00583 -5.03852 0
M  V30 6476 C 611.944 -3.50846 -5.26393 0
M  V30 6477 C 610.608 -3.8724 -5.43692 0
M  V30 6478 H 609.878 -0.0539666 -0.739032 0
M  V30 6479 H 612.525 -0.827599 -1.72694 0
M  V30 6480 H 610.83 0.670987 -3.86012 0
M  V30 6481 H 612.527 0.304891 -3.99839 0
M  V30 6482 H 609.117 -1.1221 -4.13651 0
M  V30 6483 H 613.301 -2.0187 -4.5339 0
M  V30 6484 H 608.557 -3.28846 -5.15432 0
M  V30 6485 H 612.731 -4.18616 -5.56537 0
M  V30 6486 H 610.358 -4.8266 -5.87319 0
M  V30 6487 N 611.933 1.52934 -0.380664 0
M  V30 6488 C 613.181 2.01069 0.203874 0
M  V30 6489 C 613.502 1.26922 1.4804 0
M  V30 6490 O 612.772 0.386787 1.92044 0
M  V30 6491 H 611.352 0.742882 0.0783279 0
M  V30 6492 H 614.014 1.88099 -0.510368 0
M  V30 6493 H 613.11 3.09258 0.42021 0
M  V30 6494 N 613.412 0.11024 1.57214 0
M  V30 6495 C 614.345 -0.880224 2.1054 0
M  V30 6496 C 615.323 -1.26658 1.01964 0
M  V30 6497 O 616.507 -1.36917 1.29561 0
M  V30 6498 C 613.634 -2.17676 2.59489 0
M  V30 6499 C 612.68 -1.93914 3.79868 0
M  V30 6500 S 613.513 -1.16336 5.2271 0
M  V30 6501 C 614.669 -2.47188 5.75021 0
M  V30 6502 H 614.902 -0.426614 2.94223 0
M  V30 6503 H 612.435 -0.10336 1.54054 0
M  V30 6504 H 614.393 -2.92175 2.88347 0
M  V30 6505 H 613.054 -2.60156 1.76005 0
M  V30 6506 H 612.247 -2.8996 4.12236 0
M  V30 6507 H 611.849 -1.27539 3.51582 0
M  V30 6508 H 614.141 -3.43079 5.84211 0
M  V30 6509 H 615.084 -2.19377 6.7326 0
M  V30 6510 H 615.492 -2.56154 5.03036 0
M  V30 6511 N 614.89 -1.56749 -0.16351 0
M  V30 6512 C 616.139 -1.81626 -0.877211 0
M  V30 6513 C 616.452 -0.688791 -1.83071 0
M  V30 6514 O 617.658 -0.822697 -2.58735 0
M  V30 6515 C 616.114 -3.21858 -1.61045 0
M  V30 6516 C 615.722 -4.42494 -0.700195 0
M  V30 6517 C 617.466 -3.56021 -2.31192 0
M  V30 6518 C 615.373 -5.73748 -1.43412 0
M  V30 6519 H 614.303 -0.67731 -0.331312 0
M  V30 6520 H 616.954 -1.83039 -0.13006 0
M  V30 6521 H 615.336 -3.14784 -2.40264 0
M  V30 6522 H 616.51 -4.60766 0.0555849 0
M  V30 6523 H 614.825 -4.1626 -0.10799 0
M  V30 6524 H 617.422 -4.51333 -2.8671 0
M  V30 6525 H 617.765 -2.81277 -3.06902 0
M  V30 6526 H 618.298 -3.64682 -1.58909 0
M  V30 6527 H 615.037 -6.51543 -0.719186 0
M  V30 6528 H 614.557 -5.5944 -2.16302 0
M  V30 6529 H 616.236 -6.15975 -1.9795 0
M  V30 6530 N 616.368 0.432326 -1.51554 0
M  V30 6531 C 617.318 1.52366 -1.69614 0
M  V30 6532 C 618.302 1.51205 -0.550083 0
M  V30 6533 O 619.494 1.57573 -0.806206 0
M  V30 6534 C 616.623 2.90513 -1.82913 0
M  V30 6535 C 615.709 2.9641 -3.03318 0
M  V30 6536 N 616.1 2.72043 -4.26411 0
M  V30 6537 C 614.398 3.27572 -3.02675 0
M  V30 6538 C 615.099 2.83912 -5.07709 0
M  V30 6539 N 614.075 3.15798 -4.42462 0
M  V30 6540 H 617.877 1.32285 -2.62446 0
M  V30 6541 H 615.391 0.639708 -1.4927 0
M  V30 6542 H 617.388 3.69032 -1.93962 0
M  V30 6543 H 616.048 3.1161 -0.912655 0
M  V30 6544 H 617.059 2.46876 -4.55272 0
M  V30 6545 H 613.736 3.54411 -2.20678 0
M  V30 6546 H 615.126 2.68984 -6.15709 0
M  V30 6547 N 617.846 1.41785 0.688094 0
M  V30 6548 C 619.092 1.41753 1.4503 0
M  V30 6549 C 619.425 0.0290745 1.94178 0
M  V30 6550 O 618.7 -0.944456 1.7003 0
M  V30 6551 C 618.983 2.43069 2.65686 0
M  V30 6552 C 618.836 3.91053 2.22256 0
M  V30 6553 C 620.155 2.41543 3.67893 0
M  V30 6554 H 617.274 0.516202 0.526027 0
M  V30 6555 H 619.916 1.73111 0.783105 0
M  V30 6556 H 618.066 2.1646 3.2261 0
M  V30 6557 H 619.738 4.28594 1.70602 0
M  V30 6558 H 617.981 4.05559 1.53963 0
M  V30 6559 H 618.652 4.57501 3.08863 0
M  V30 6560 H 621.128 2.65175 3.20658 0
M  V30 6561 H 620.004 3.14434 4.49914 0
M  V30 6562 H 620.265 1.43666 4.18106 0
M  V30 6563 N 619.324 -0.923095 1.27737 0
M  V30 6564 C 620.601 -1.64989 1.05062 0
M  V30 6565 C 620.981 -2.07018 -0.413124 0
M  V30 6566 O 620.329 -1.80797 -1.39731 0
M  V30 6567 C 620.539 -2.84847 2.01652 0
M  V30 6568 C 621.887 -3.56083 2.31279 0
M  V30 6569 O 622.911 -2.94981 1.99662 0
M  V30 6570 O 621.77 -4.66182 2.85196 0
M  V30 6571 H 618.864 -0.723357 0.400853 0
M  V30 6572 H 621.41 -0.973224 1.3902 0
M  V30 6573 H 620.182 -2.50814 3.00347 0
M  V30 6574 H 619.805 -3.60231 1.68284 0
M  V30 6575 N 620.802 -1.09834 -1.13024 0
M  V30 6576 C 622.049 -0.83695 -1.84395 0
M  V30 6577 C 622.377 0.637463 -1.83757 0
M  V30 6578 O 621.632 1.48554 -1.27398 0
M  V30 6579 C 621.931 -1.32263 -3.32026 0
M  V30 6580 C 621.597 -2.80739 -3.52841 0
M  V30 6581 C 620.259 -3.21286 -3.5823 0
M  V30 6582 C 622.611 -3.76449 -3.60466 0
M  V30 6583 C 619.939 -4.56308 -3.68781 0
M  V30 6584 C 622.291 -5.11266 -3.72546 0
M  V30 6585 C 620.955 -5.51397 -3.76189 0
M  V30 6586 H 620.225 -0.306262 -0.674748 0
M  V30 6587 H 622.872 -1.37385 -1.33408 0
M  V30 6588 H 621.177 -0.705618 -3.85394 0
M  V30 6589 H 622.874 -1.09695 -3.85705 0
M  V30 6590 H 619.464 -2.48363 -3.49305 0
M  V30 6591 H 623.648 -3.46234 -3.55578 0
M  V30 6592 H 618.904 -4.86832 -3.69871 0
M  V30 6593 H 623.078 -5.85279 -3.77388 0
M  V30 6594 H 620.705 -6.56017 -3.84117 0
M  V30 6595 N 622.28 1.30327 -0.886154 0
M  V30 6596 C 623.696 1.48676 -0.580323 0
M  V30 6597 C 623.896 1.81189 0.881639 0
M  V30 6598 O 622.952 1.90021 1.66278 0
M  V30 6599 C 624.265 2.60932 -1.49449 0
M  V30 6600 C 625.813 2.74812 -1.49824 0
M  V30 6601 C 626.288 3.90183 -2.39836 0
M  V30 6602 N 627.779 3.97495 -2.37806 0
M  V30 6603 C 628.514 4.86078 -3.04165 0
M  V30 6604 N 628.01 5.79448 -3.79753 0
M  V30 6605 N 629.803 4.79456 -2.93391 0
M  V30 6606 H 621.954 1.07495 -1.8319 0
M  V30 6607 H 624.217 0.532661 -0.784204 0
M  V30 6608 H 623.923 2.43731 -2.5355 0
M  V30 6609 H 623.797 3.57437 -1.20494 0
M  V30 6610 H 626.184 2.91418 -0.464731 0
M  V30 6611 H 626.265 1.78924 -1.82811 0
M  V30 6612 H 625.909 3.74334 -3.43273 0
M  V30 6613 H 625.839 4.85411 -2.04166 0
M  V30 6614 H 628.33 3.30703 -1.82877 0
M  V30 6615 H 628.643 6.43805 -4.27475 0
M  V30 6616 H 626.988 5.79376 -3.8386 0
M  V30 6617 H 630.179 4.05494 -2.33864 0
M  V30 6618 H 630.352 5.48283 -3.45383 0
M  V30 6619 N 623.758 0.647228 1.43697 0
M  V30 6620 C 624.986 0.16575 2.06235 0
M  V30 6621 C 625.401 -1.1662 1.48476 0
M  V30 6622 O 624.758 -1.7187 0.613762 0
M  V30 6623 C 624.809 0.0621651 3.61447 0
M  V30 6624 O 624.53 1.34146 4.17057 0
M  V30 6625 C 626.031 -0.446102 4.4105 0
M  V30 6626 H 623.251 0.0871158 0.665321 0
M  V30 6627 H 625.795 0.886183 1.84301 0
M  V30 6628 H 623.95 -0.608794 3.82587 0
M  V30 6629 H 624.364 1.19675 5.10664 0
M  V30 6630 H 625.838 -0.46755 5.50016 0
M  V30 6631 H 626.315 -1.47627 4.13646 0
M  V30 6632 H 626.921 0.192159 4.24866 0
M  V30 6633 N 625.236 -1.5273 0.388769 0
M  V30 6634 C 626.168 -2.24081 -0.481704 0
M  V30 6635 C 627.181 -1.26307 -1.02715 0
M  V30 6636 O 628.37 -1.52386 -0.929565 0
M  V30 6637 C 625.47 -2.94315 -1.68024 0
M  V30 6638 C 624.643 -4.18791 -1.26226 0
M  V30 6639 C 623.702 -4.72028 -2.32542 0
M  V30 6640 O 622.728 -5.35129 -1.93972 0
M  V30 6641 N 623.93 -4.51838 -3.64448 0
M  V30 6642 H 626.695 -2.9942 0.129591 0
M  V30 6643 H 624.256 -1.60465 0.2151 0
M  V30 6644 H 626.248 -3.26831 -2.38671 0
M  V30 6645 H 624.818 -2.22287 -2.19789 0
M  V30 6646 H 624.038 -3.92318 -0.384703 0
M  V30 6647 H 625.326 -4.99668 -0.959647 0
M  V30 6648 H 624.724 -4.01468 -3.98547 0
M  V30 6649 H 623.281 -4.88845 -4.31131 0
M  V30 6650 N 626.714 -0.118576 -1.57153 0
M  V30 6651 C 627.96 0.540326 -1.95469 0
M  V30 6652 C 628.293 1.66356 -1.00196 0
M  V30 6653 O 627.568 1.94461 -0.039104 0
M  V30 6654 C 627.851 1.07342 -3.43729 0
M  V30 6655 C 627.704 -0.0463732 -4.49776 0
M  V30 6656 C 629.023 1.96442 -3.93826 0
M  V30 6657 H 626.142 0.19494 -0.710751 0
M  V30 6658 H 628.784 -0.19405 -1.89006 0
M  V30 6659 H 626.934 1.69925 -3.49368 0
M  V30 6660 H 628.606 -0.681648 -4.56236 0
M  V30 6661 H 626.849 -0.709574 -4.27957 0
M  V30 6662 H 627.52 0.367856 -5.50773 0
M  V30 6663 H 629.996 1.43731 -3.90488 0
M  V30 6664 H 628.872 2.3066 -4.98084 0
M  V30 6665 H 629.133 2.89077 -3.34495 0
M  V30 6666 N 628.193 1.56834 0.155195 0
M  V30 6667 C 629.609 1.51315 0.50755 0
M  V30 6668 C 629.809 0.825614 1.83809 0
M  V30 6669 O 628.865 0.39271 2.49427 0
M  V30 6670 C 630.178 2.96074 0.52542 0
M  V30 6671 C 631.726 3.06968 0.611505 0
M  V30 6672 C 632.201 4.53218 0.660115 0
M  V30 6673 N 633.692 4.5753 0.722564 0
M  V30 6674 C 634.427 5.68056 0.781023 0
M  V30 6675 N 633.923 6.88173 0.799327 0
M  V30 6676 N 635.716 5.56068 0.821278 0
M  V30 6677 H 627.867 1.9993 -0.717063 0
M  V30 6678 H 630.13 0.911507 -0.260496 0
M  V30 6679 H 629.836 3.49599 -0.383875 0
M  V30 6680 H 629.71 3.51587 1.36624 0
M  V30 6681 H 632.097 2.53468 1.51122 0
M  V30 6682 H 632.178 2.54513 -0.256306 0
M  V30 6683 H 631.822 5.07354 -0.23541 0
M  V30 6684 H 631.752 5.03447 1.5443 0
M  V30 6685 H 634.243 3.71054 0.716049 0
M  V30 6686 H 634.556 7.6816 0.845553 0
M  V30 6687 H 632.901 6.90751 0.767337 0
M  V30 6688 H 636.092 4.61142 0.804091 0
M  V30 6689 H 636.265 6.42223 0.863372 0
M  V30 6690 N 629.671 -0.424282 1.51781 0
M  V30 6691 C 630.899 -1.1947 1.68921 0
M  V30 6692 C 631.314 -1.84683 0.39213 0
M  V30 6693 O 630.671 -1.71261 -0.630554 0
M  V30 6694 C 630.722 -2.26909 2.81416 0
M  V30 6695 O 630.443 -1.64361 4.061 0
M  V30 6696 C 631.944 -3.16945 3.09937 0
M  V30 6697 H 629.164 -0.359591 0.566511 0
M  V30 6698 H 631.708 -0.501139 1.98265 0
M  V30 6699 H 629.863 -2.91959 2.54635 0
M  V30 6700 H 630.277 -2.35468 4.68674 0
M  V30 6701 H 631.751 -3.88437 3.922 0
M  V30 6702 H 632.228 -3.78451 2.22871 0
M  V30 6703 H 632.834 -2.57581 3.38426 0
M  V30 6704 N 631.149 -1.42148 -0.680565 0
M  V30 6705 C 632.56 -1.3768 -1.26099 0
M  V30 6706 C 632.911 -0.0672348 -1.96085 0
M  V30 6707 O 632.036 0.834172 -1.99676 0
M  V30 6708 C 632.631 -2.49387 -2.29328 0
M  V30 6709 C 631.19 -2.4827 -2.82911 0
M  V30 6710 C 630.337 -2.2847 -1.57152 0
M  V30 6711 H 633.288 -1.51446 -0.474326 0
M  V30 6712 H 633.309 -2.19307 -3.10941 0
M  V30 6713 H 632.821 -3.44686 -1.78363 0
M  V30 6714 H 630.922 -1.56773 -3.38013 0
M  V30 6715 H 631.035 -3.45109 -3.3232 0
M  V30 6716 H 629.399 -1.76623 -1.83511 0
M  V30 6717 H 630.182 -3.25816 -1.0816 0
M  V30 6718 N 632.627 0.916307 -1.28225 0
M  V30 6719 C 633.574 2.01841 -1.11932 0
M  V30 6720 C 634.544 1.66091 -0.0171604 0
M  V30 6721 O 635.729 1.89934 -0.181617 0
M  V30 6722 C 632.869 3.36065 -0.784504 0
M  V30 6723 C 631.982 3.847 -1.96544 0
M  V30 6724 C 631.117 5.07423 -1.57149 0
M  V30 6725 C 630.156 5.48384 -2.71922 0
M  V30 6726 N 629.293 6.62298 -2.33037 0
M  V30 6727 H 634.133 2.1511 -2.06232 0
M  V30 6728 H 631.67 1.05366 -1.02647 0
M  V30 6729 H 633.628 4.13272 -0.571148 0
M  V30 6730 H 632.258 3.22571 0.121565 0
M  V30 6731 H 631.31 3.03673 -2.291 0
M  V30 6732 H 632.622 4.1102 -2.82603 0
M  V30 6733 H 631.776 5.92165 -1.32004 0
M  V30 6734 H 630.515 4.82906 -0.682153 0
M  V30 6735 H 629.52 4.62184 -2.97768 0
M  V30 6736 H 630.745 5.7489 -3.61494 0
M  V30 6737 H 628.691 6.39416 -1.4657 0
M  V30 6738 H 628.608 6.8833 -3.12631 0
M  V30 6739 H 629.876 7.50352 -2.11169 0
M  V30 6740 N 634.105 1.10431 1.1244 0
M  V30 6741 C 635.015 0.765502 2.21759 0
M  V30 6742 C 636.031 -0.236966 1.72379 0
M  V30 6743 O 637.207 -0.0757329 2.01258 0
M  V30 6744 C 634.272 0.202316 3.46109 0
M  V30 6745 C 633.333 1.26205 4.1033 0
M  V30 6746 C 632.566 0.725648 5.28744 0
M  V30 6747 O 632.789 -0.447942 5.68638 0
M  V30 6748 O 631.723 1.48555 5.83279 0
M  V30 6749 H 635.549 1.67801 2.53133 0
M  V30 6750 H 633.134 0.879443 1.20773 0
M  V30 6751 H 635.016 -0.107918 4.21262 0
M  V30 6752 H 633.691 -0.683052 3.16411 0
M  V30 6753 H 632.598 1.62514 3.36957 0
M  V30 6754 H 633.931 2.12044 4.44183 0
M  V30 6755 N 635.583 -1.29855 0.893053 0
M  V30 6756 C 636.808 -2.00512 0.530066 0
M  V30 6757 C 637.233 -1.66446 -0.876199 0
M  V30 6758 O 636.591 -0.885446 -1.58207 0
M  V30 6759 C 636.639 -3.53308 0.721505 0
M  V30 6760 O 635.743 -4.11764 -0.228994 0
M  V30 6761 H 635.084 -0.630617 0.207891 0
M  V30 6762 H 637.614 -1.6551 1.20282 0
M  V30 6763 H 637.624 -4.03206 0.623599 0
M  V30 6764 H 636.299 -3.77439 1.74678 0
M  V30 6765 H 634.876 -3.72805 -0.0841034 0
M  V30 6766 N 637.061 -0.65484 -1.43351 0
M  V30 6767 C 638.291 -0.176429 -2.05845 0
M  V30 6768 C 638.699 1.16375 -1.49176 0
M  V30 6769 O 638.042 1.72981 -0.618322 0
M  V30 6770 C 638.104 -0.0125844 -3.59498 0
M  V30 6771 C 637.768 -1.27831 -4.38758 0
M  V30 6772 C 638.765 -2.2074 -4.70712 0
M  V30 6773 C 636.45 -1.52035 -4.78739 0
M  V30 6774 C 638.444 -3.36145 -5.41558 0
M  V30 6775 C 636.131 -2.67732 -5.49329 0
M  V30 6776 C 637.129 -3.59612 -5.80662 0
M  V30 6777 O 636.817 -4.73289 -6.4981 0
M  V30 6778 H 636.549 -0.0879682 -0.670252 0
M  V30 6779 H 639.103 -0.896193 -1.84818 0
M  V30 6780 H 637.333 0.762567 -3.79107 0
M  V30 6781 H 639.022 0.423392 -4.03686 0
M  V30 6782 H 639.788 -2.03284 -4.40341 0
M  V30 6783 H 635.667 -0.813987 -4.53757 0
M  V30 6784 H 639.211 -4.07881 -5.65932 0
M  V30 6785 H 635.108 -2.85122 -5.79116 0
M  V30 6786 H 635.876 -4.72575 -6.68293 0
M  V30 6787 N 638.539 1.52521 -0.396863 0
M  V30 6788 C 639.769 2.05792 0.182485 0
M  V30 6789 C 640.177 1.26784 1.40436 0
M  V30 6790 O 639.52 0.309617 1.81072 0
M  V30 6791 C 639.582 3.54291 0.609781 0
M  V30 6792 C 639.246 4.5426 -0.499674 0
M  V30 6793 C 640.243 5.01812 -1.35944 0
M  V30 6794 C 637.928 4.97827 -0.668864 0
M  V30 6795 C 639.922 5.91562 -2.37346 0
M  V30 6796 C 637.609 5.87376 -1.68621 0
M  V30 6797 C 638.607 6.34137 -2.53692 0
M  V30 6798 O 638.295 7.21915 -3.53686 0
M  V30 6799 H 638.027 0.675362 0.0293583 0
M  V30 6800 H 640.581 1.97539 -0.56281 0
M  V30 6801 H 638.811 3.60188 1.40717 0
M  V30 6802 H 640.5 3.90267 1.11565 0
M  V30 6803 H 641.266 4.68879 -1.24008 0
M  V30 6804 H 637.145 4.60997 -0.0163971 0
M  V30 6805 H 640.689 6.27983 -3.03782 0
M  V30 6806 H 636.586 6.19723 -1.80593 0
M  V30 6807 H 637.354 7.39996 -3.49784 0
M  V30 6808 N 640.017 0.126909 1.57088 0
M  V30 6809 C 641.263 -0.523662 1.96543 0
M  V30 6810 C 641.618 -1.63783 1.0096 0
M  V30 6811 O 640.911 -1.91556 0.0410175 0
M  V30 6812 C 641.105 -1.095 3.40212 0
M  V30 6813 C 640.934 -0.037715 4.49684 0
M  V30 6814 C 639.704 0.396823 5.03739 0
M  V30 6815 C 641.902 0.746245 5.08857 0
M  V30 6816 N 639.884 1.43905 5.96795 0
M  V30 6817 C 641.255 1.63947 5.97931 0
M  V30 6818 C 643.31 0.796259 4.91492 0
M  V30 6819 C 642.013 2.57837 6.715 0
M  V30 6820 C 644.039 1.7229 5.65747 0
M  V30 6821 C 643.401 2.60369 6.54513 0
M  V30 6822 H 639.5 -0.161016 0.765244 0
M  V30 6823 H 642.084 0.21686 1.93489 0
M  V30 6824 H 640.255 -1.80521 3.43899 0
M  V30 6825 H 641.987 -1.71054 3.66773 0
M  V30 6826 H 638.742 0.00290406 4.736 0
M  V30 6827 H 639.166 1.95932 6.48027 0
M  V30 6828 H 643.808 0.129412 4.22602 0
M  V30 6829 H 641.526 3.25532 7.39631 0
M  V30 6830 H 645.112 1.76715 5.54313 0
M  V30 6831 H 643.992 3.30906 7.10965 0
M  V30 6832 N 641.495 -1.56914 -0.146875 0
M  V30 6833 C 642.725 -1.87243 -0.873126 0
M  V30 6834 C 643.133 -0.713127 -1.75246 0
M  V30 6835 O 642.476 0.326228 -1.8078 0
M  V30 6836 C 642.538 -3.12279 -1.78107 0
M  V30 6837 C 642.202 -4.44082 -1.07889 0
M  V30 6838 C 643.199 -5.18096 -0.432734 0
M  V30 6839 C 640.884 -4.90807 -1.06836 0
M  V30 6840 C 642.878 -6.37039 0.214569 0
M  V30 6841 C 640.565 -6.09674 -0.417243 0
M  V30 6842 C 641.563 -6.82636 0.223093 0
M  V30 6843 O 641.251 -7.99245 0.863884 0
M  V30 6844 H 640.983 -0.624896 -0.257839 0
M  V30 6845 H 643.537 -2.04892 -0.14434 0
M  V30 6846 H 641.767 -2.90639 -2.5508 0
M  V30 6847 H 643.456 -3.28854 -2.37929 0
M  V30 6848 H 644.222 -4.83066 -0.432677 0
M  V30 6849 H 640.101 -4.3394 -1.55618 0
M  V30 6850 H 643.645 -6.93927 0.714965 0
M  V30 6851 H 639.542 -6.44165 -0.414967 0
M  V30 6852 H 640.31 -8.14912 0.765564 0
M  V30 6853 N 642.974 0.416227 -1.52004 0
M  V30 6854 C 644.39 0.754319 -1.40649 0
M  V30 6855 C 644.59 1.95059 -0.505392 0
M  V30 6856 O 643.646 2.5248 0.0315057 0
M  V30 6857 C 644.959 1.0149 -2.83055 0
M  V30 6858 C 646.507 1.11805 -2.9235 0
M  V30 6859 C 646.982 1.41144 -4.35709 0
M  V30 6860 N 648.473 1.48024 -4.38911 0
M  V30 6861 C 649.208 1.72338 -5.46889 0
M  V30 6862 N 648.704 1.94303 -6.64995 0
M  V30 6863 N 650.497 1.74294 -5.34395 0
M  V30 6864 H 642.648 -0.371324 -2.09129 0
M  V30 6865 H 644.911 -0.103811 -0.942299 0
M  V30 6866 H 644.617 0.208345 -3.51082 0
M  V30 6867 H 644.491 1.93697 -3.23668 0
M  V30 6868 H 646.878 1.91521 -2.24508 0
M  V30 6869 H 646.959 0.17451 -2.55204 0
M  V30 6870 H 646.603 0.619484 -5.04108 0
M  V30 6871 H 646.533 2.36739 -4.70385 0
M  V30 6872 H 649.024 1.32868 -3.53772 0
M  V30 6873 H 649.337 2.12286 -7.43071 0
M  V30 6874 H 647.682 1.91582 -6.68073 0
M  V30 6875 H 650.873 1.56667 -4.41104 0
M  V30 6876 H 651.046 1.92904 -6.18621 0
M  V30 6877 N 644.452 1.42507 0.673017 0
M  V30 6878 C 645.4 1.46362 1.80779 0
M  V30 6879 C 646.394 0.339166 1.6597 0
M  V30 6880 O 647.6 0.512262 1.72557 0
M  V30 6881 H 643.975 0.458433 0.596107 0
M  V30 6882 H 645.946 2.41953 1.74646 0
M  V30 6883 C 644.695 1.38462 3.18941 0
M  V30 6884 H 644.018 2.24283 3.30964 0
M  V30 6885 H 645.458 1.45221 3.98355 0
M  V30 6886 C 643.917 0.0996354 3.36753 0
M  V30 6887 O 644.447 -0.846894 3.92671 0
M  V30 6888 N 642.653 0.016211 2.90595 0
M  V30 6889 H 642.2 0.78725 2.45276 0
M  V30 6890 H 642.158 -0.84291 3.0289 0
M  V30 6891 N 645.93 -0.909495 1.28709 0
M  V30 6892 C 647.176 -1.66151 1.16283 0
M  V30 6893 C 647.509 -1.92067 -0.287069 0
M  V30 6894 O 646.784 -1.52409 -1.20837 0
M  V30 6895 C 647.067 -3.01676 1.9663 0
M  V30 6896 C 646.92 -2.82888 3.49707 0
M  V30 6897 C 648.239 -4.02274 1.78504 0
M  V30 6898 H 645.358 -0.602966 0.423793 0
M  V30 6899 H 648 -1.05418 1.58073 0
M  V30 6900 H 646.15 -3.53515 1.61119 0
M  V30 6901 H 647.822 -2.38026 3.95147 0
M  V30 6902 H 646.065 -2.17862 3.75125 0
M  V30 6903 H 646.736 -3.79147 4.01187 0
M  V30 6904 H 649.212 -3.59511 2.09503 0
M  V30 6905 H 648.088 -4.95056 2.37088 0
M  V30 6906 H 648.349 -4.35903 0.737647 0
M  V30 6907 N 647.408 -1.11026 -1.11852 0
M  V30 6908 C 648.654 -0.857729 -1.83768 0
M  V30 6909 C 648.987 0.615143 -1.842 0
M  V30 6910 O 648.262 1.45391 -1.29196 0
M  V30 6911 C 648.545 -1.41453 -3.31154 0
M  V30 6912 C 648.398 -2.95471 -3.39142 0
M  V30 6913 C 649.717 -1.0619 -4.27097 0
M  V30 6914 H 646.836 -0.313044 -0.667212 0
M  V30 6915 H 649.478 -1.37443 -1.31185 0
M  V30 6916 H 647.628 -0.975052 -3.76065 0
M  V30 6917 H 649.3 -3.4799 -3.02821 0
M  V30 6918 H 647.543 -3.31759 -2.79497 0
M  V30 6919 H 648.214 -3.29515 -4.42859 0
M  V30 6920 H 650.69 -1.44122 -3.90344 0
M  V30 6921 H 649.566 -1.47832 -5.28618 0
M  V30 6922 H 649.827 0.0278912 -4.42091 0
M  V30 6923 N 648.886 1.2938 -0.899927 0
M  V30 6924 C 650.111 2.00228 -0.540692 0
M  V30 6925 C 650.536 1.66909 0.867359 0
M  V30 6926 O 649.894 0.893824 1.57735 0
M  V30 6927 C 649.942 3.52921 -0.740232 0
M  V30 6928 O 649.046 4.11879 0.207154 0
M  V30 6929 H 648.387 0.629505 -0.211233 0
M  V30 6930 H 650.917 1.6487 -1.21158 0
M  V30 6931 H 650.927 4.0287 -0.644973 0
M  V30 6932 H 649.602 3.76508 -1.76677 0
M  V30 6933 H 648.179 3.72845 0.0643315 0
M  V30 6934 N 650.364 0.662433 1.43002 0
M  V30 6935 C 651.312 -0.035345 2.32573 0
M  V30 6936 C 652.306 -0.803505 1.49131 0
M  V30 6937 O 653.512 -0.712865 1.65282 0
M  V30 6938 H 649.887 -0.0302194 0.751393 0
M  V30 6939 H 651.858 0.737686 2.89138 0
M  V30 6940 C 650.607 -0.981575 3.33557 0
M  V30 6941 H 649.93 -0.399914 3.97795 0
M  V30 6942 H 651.37 -1.43873 3.98844 0
M  V30 6943 C 649.829 -2.08204 2.64863 0
M  V30 6944 O 650.359 -3.16698 2.47113 0
M  V30 6945 N 648.565 -1.85022 2.24088 0
M  V30 6946 H 648.112 -0.967909 2.38724 0
M  V30 6947 H 648.07 -2.58845 1.78457 0
M  V30 6948 N 651.842 -1.52309 0.404946 0
M  V30 6949 C 652.79 -2.28452 -0.437321 0
M  V30 6950 C 653.784 -1.32975 -1.04948 0
M  V30 6951 O 654.99 -1.50451 -0.988159 0
M  V30 6952 H 651.365 -0.734824 -0.159805 0
M  V30 6953 H 653.336 -2.97542 0.22615 0
M  V30 6954 C 652.085 -3.11536 -1.54404 0
M  V30 6955 H 651.408 -3.84871 -1.08233 0
M  V30 6956 H 652.848 -3.67926 -2.10729 0
M  V30 6957 C 651.307 -2.24833 -2.50902 0
M  V30 6958 O 651.837 -1.88574 -3.54687 0
M  V30 6959 N 650.043 -1.88685 -2.21012 0
M  V30 6960 H 649.59 -2.18371 -1.36646 0
M  V30 6961 H 649.548 -1.30966 -2.85824 0
M  V30 6962 N 653.32 -0.135238 -1.57019 0
M  V30 6963 C 654.566 0.513232 -1.96818 0
M  V30 6964 C 654.921 1.63245 -1.01827 0
M  V30 6965 O 654.214 1.91532 -0.0511756 0
M  V30 6966 C 654.408 1.07694 -3.40788 0
M  V30 6967 C 654.237 0.0138667 -4.49698 0
M  V30 6968 C 653.007 -0.423532 -5.03522 0
M  V30 6969 C 655.205 -0.77322 -5.08454 0
M  V30 6970 N 653.187 -1.47068 -5.96024 0
M  V30 6971 C 654.558 -1.67115 -5.97053 0
M  V30 6972 C 656.613 -0.822313 -4.91063 0
M  V30 6973 C 655.316 -2.61395 -6.70123 0
M  V30 6974 C 657.342 -1.75288 -5.64826 0
M  V30 6975 C 656.704 -2.63836 -6.53123 0
M  V30 6976 H 652.803 0.156956 -0.766087 0
M  V30 6977 H 655.387 -0.227118 -1.93371 0
M  V30 6978 H 653.558 1.78694 -3.44852 0
M  V30 6979 H 655.29 1.69106 -3.67675 0
M  V30 6980 H 652.045 -0.0280202 -4.73592 0
M  V30 6981 H 652.469 -1.99366 -6.46979 0
M  V30 6982 H 657.111 -0.151822 -4.22527 0
M  V30 6983 H 654.829 -3.2945 -7.37895 0
M  V30 6984 H 658.415 -1.79652 -5.53368 0
M  V30 6985 H 657.295 -3.34672 -7.092 0
M  V30 6986 N 654.798 1.5699 0.138552 0
M  V30 6987 C 655.728 2.01933 1.17241 0
M  V30 6988 C 656.709 0.90033 1.44319 0
M  V30 6989 O 657.894 1.16872 1.55095 0
M  V30 6990 C 655.024 2.40711 2.50351 0
M  V30 6991 C 653.978 3.55874 2.37776 0
M  V30 6992 C 653.304 3.80491 3.75674 0
M  V30 6993 C 654.604 4.8826 1.85472 0
M  V30 6994 H 656.298 2.88551 0.798672 0
M  V30 6995 H 653.844 1.3882 0.382743 0
M  V30 6996 H 655.797 2.70754 3.22909 0
M  V30 6997 H 654.521 1.5104 2.89576 0
M  V30 6998 H 653.18 3.2601 1.67669 0
M  V30 6999 H 652.828 2.88057 4.12349 0
M  V30 7000 H 652.528 4.57998 3.68119 0
M  V30 7001 H 654.052 4.12967 4.49767 0
M  V30 7002 H 655.466 5.16965 2.4783 0
M  V30 7003 H 653.863 5.69631 1.88787 0
M  V30 7004 H 654.933 4.78071 0.810935 0
M  V30 7005 N 656.276 -0.40816 1.52223 0
M  V30 7006 C 657.186 -1.52202 1.78526 0
M  V30 7007 C 658.202 -1.60546 0.670892 0
M  V30 7008 O 659.378 -1.77242 0.956404 0
M  V30 7009 C 656.443 -2.87928 1.93128 0
M  V30 7010 C 655.504 -2.89463 3.17033 0
M  V30 7011 C 654.737 -4.18715 3.30929 0
M  V30 7012 O 654.96 -5.12662 2.50067 0
M  V30 7013 O 653.894 -4.27125 4.24084 0
M  V30 7014 H 657.72 -1.32911 2.73072 0
M  V30 7015 H 655.305 -0.594112 1.37079 0
M  V30 7016 H 657.187 -3.68426 2.04549 0
M  V30 7017 H 655.862 -3.07285 1.01772 0
M  V30 7018 H 654.769 -2.07815 3.11069 0
M  V30 7019 H 656.102 -2.75055 4.08174 0
M  V30 7020 N 657.755 -1.42862 -0.66545 0
M  V30 7021 C 658.983 -1.47246 -1.45349 0
M  V30 7022 C 659.398 -0.0865944 -1.88601 0
M  V30 7023 O 658.755 0.900652 -1.58728 0
M  V30 7024 C 658.806 -2.40772 -2.6965 0
M  V30 7025 O 658.527 -3.73968 -2.2821 0
M  V30 7026 C 660.028 -2.54272 -3.63126 0
M  V30 7027 H 657.248 -0.500497 -0.446927 0
M  V30 7028 H 659.792 -1.87477 -0.816871 0
M  V30 7029 H 657.947 -2.0377 -3.29479 0
M  V30 7030 H 658.361 -4.24146 -3.08546 0
M  V30 7031 H 659.835 -3.23815 -4.47043 0
M  V30 7032 H 660.312 -1.58364 -4.09656 0
M  V30 7033 H 660.918 -2.92036 -3.09185 0
M  V30 7034 N 659.233 0.902656 -1.29189 0
M  V30 7035 C 660.649 1.18296 -1.07137 0
M  V30 7036 C 660.849 2.00701 0.179223 0
M  V30 7037 O 659.905 2.3675 0.877812 0
M  V30 7038 C 661.218 1.90677 -2.32514 0
M  V30 7039 C 662.766 2.03515 -2.37804 0
M  V30 7040 C 663.241 2.79307 -3.62976 0
M  V30 7041 N 664.732 2.86862 -3.63681 0
M  V30 7042 C 665.467 3.46035 -4.57217 0
M  V30 7043 N 664.963 4.06399 -5.61081 0
M  V30 7044 N 666.756 3.43681 -4.44792 0
M  V30 7045 H 658.907 0.352765 -2.0945 0
M  V30 7046 H 661.17 0.21876 -0.922414 0
M  V30 7047 H 660.876 1.3756 -3.23682 0
M  V30 7048 H 660.75 2.91169 -2.39793 0
M  V30 7049 H 663.137 2.55809 -1.47125 0
M  V30 7050 H 663.218 1.02166 -2.34512 0
M  V30 7051 H 662.862 2.2769 -4.54004 0
M  V30 7052 H 662.792 3.80995 -3.63525 0
M  V30 7053 H 665.283 2.43987 -2.88581 0
M  V30 7054 H 665.596 4.49564 -6.2858 0
M  V30 7055 H 663.941 4.0487 -5.64894 0
M  V30 7056 H 667.132 2.9574 -3.62843 0
M  V30 7057 H 667.305 3.89503 -5.17872 0
M  V30 7058 N 660.711 1.11618 1.11262 0
M  V30 7059 C 662.127 0.850468 1.35053 0
M  V30 7060 C 662.327 -0.523868 1.94571 0
M  V30 7061 O 661.383 -1.2743 2.17986 0
M  V30 7062 C 662.696 1.96005 2.28041 0
M  V30 7063 C 664.244 1.98993 2.416 0
M  V30 7064 C 664.719 3.0916 3.37911 0
M  V30 7065 N 666.21 3.08547 3.45475 0
M  V30 7066 C 666.945 3.9043 4.19943 0
M  V30 7067 N 666.441 4.8228 4.97371 0
M  V30 7068 N 668.234 3.786 4.15474 0
M  V30 7069 H 660.385 2.00184 0.709932 0
M  V30 7070 H 662.648 0.870635 0.375099 0
M  V30 7071 H 662.354 2.9499 1.91503 0
M  V30 7072 H 662.228 1.85782 3.28275 0
M  V30 7073 H 664.615 1.00633 2.77411 0
M  V30 7074 H 664.696 2.13292 1.4121 0
M  V30 7075 H 664.34 4.07748 3.02827 0
M  V30 7076 H 664.27 2.92102 4.3816 0
M  V30 7077 H 666.761 2.42 2.90249 0
M  V30 7078 H 667.074 5.41289 5.51567 0
M  V30 7079 H 665.419 4.863 4.96525 0
M  V30 7080 H 668.61 3.06185 3.54074 0
M  V30 7081 H 668.783 4.42647 4.73253 0
M  V30 7082 O 662.228 -1.23648 1.03892 0
M  V30 7083 H 662.919 -1.80254 0.709093 0
M  V30 END ATOM
M  V30 BEGIN BOND
M  V30 END BOND
M  V30 END CTAB
M  END
$$$$
