drugbank_target|P06709 Bifunctional ligase/repressor BirA (DB04651)
 OpenBabel12092120303D

  0  0  0     0  0            999 V3000
M  V30 BEGIN CTAB
M  V30 COUNTS 5052 5092 0 0 0
M  V30 BEGIN ATOM
M  V30 1 H -0.908 1.98254 -0.117106 0
M  V30 2 N 0 1.576 0 0
M  V30 3 C 0.933 2.03868 1.02534 0
M  V30 4 C 1.911 0.928543 1.3348 0
M  V30 5 O 3.095 1.19667 1.45644 0
M  V30 6 C 0.222 2.43627 2.35294 0
M  V30 7 C -0.732 3.65373 2.2001 0
M  V30 8 S 0.101 5.13292 1.52614 0
M  V30 9 C 1.257 5.56322 2.86805 0
M  V30 10 H 1.49 2.90518 0.631377 0
M  V30 11 H -0.977 1.52953 0.210867 0
M  V30 12 H 0.981 2.67203 3.11629 0
M  V30 13 H -0.358 1.57376 2.7183 0
M  V30 14 H -1.165 3.90944 3.18086 0
M  V30 15 H -1.563 3.418 1.51819 0
M  V30 16 H 0.729 5.58782 3.83104 0
M  V30 17 H 1.672 6.56266 2.65933 0
M  V30 18 H 2.08 4.83886 2.90714 0
M  V30 19 N 1.4781 -0.272755 1.55222 0
M  V30 20 C 2.4251 -1.33716 1.88119 0
M  V30 21 C 3.3951 -1.49066 0.73271 0
M  V30 22 O 4.5801 -1.63469 0.984002 0
M  V30 23 C 1.7201 -2.69238 2.15882 0
M  V30 24 C 0.8331 -2.62108 3.43399 0
M  V30 25 C -0.0319 -3.89811 3.60861 0
M  V30 26 C -0.9929 -3.77193 4.8207 0
M  V30 27 N -1.8559 -4.9673 4.96189 0
M  V30 28 H 2.9841 -1.04962 2.78903 0
M  V30 29 H 0.5211 -0.507088 1.38083 0
M  V30 30 H 2.4791 -3.48089 2.29978 0
M  V30 31 H 1.1091 -2.96194 1.28331 0
M  V30 32 H 0.1611 -1.74967 3.37773 0
M  V30 33 H 1.4731 -2.48685 4.32386 0
M  V30 34 H 0.6271 -4.77103 3.74777 0
M  V30 35 H -0.6339 -4.06102 2.7006 0
M  V30 36 H -1.6289 -2.88284 4.68159 0
M  V30 37 H -0.4039 -3.62421 5.74307 0
M  V30 38 H -2.4579 -5.13431 4.08319 0
M  V30 39 H -2.5409 -4.85839 5.79221 0
M  V30 40 H -1.2729 -5.85594 5.1449 0
M  V30 41 N 2.9562 -1.48159 -0.537278 0
M  V30 42 C 4.2332 -1.46291 -1.29839 0
M  V30 43 C 4.6132 -0.170613 -2.10409 0
M  V30 44 O 3.9612 0.847746 -2.12192 0
M  V30 45 C 4.1712 -2.72055 -2.18603 0
M  V30 46 C 5.5192 -3.20087 -2.7898 0
M  V30 47 O 6.5432 -2.72921 -2.28894 0
M  V30 48 O 5.4022 -4.02138 -3.70064 0
M  V30 49 H 2.4962 -0.583906 -0.585647 0
M  V30 50 H 5.0422 -1.60384 -0.554534 0
M  V30 51 H 3.8142 -3.57628 -1.58801 0
M  V30 52 H 3.4372 -2.60646 -3.00249 0
M  V30 53 N 4.4343 0.785586 -1.36625 0
M  V30 54 C 5.3823 1.91978 -1.31329 0
M  V30 55 C 6.3763 1.68162 -0.204416 0
M  V30 56 O 7.5823 1.76122 -0.371645 0
M  V30 57 H 3.9573 0.631087 -0.408942 0
M  V30 58 H 5.9283 1.93562 -2.27104 0
M  V30 59 C 4.6773 3.29055 -1.12329 0
M  V30 60 H 4.0003 3.4795 -1.96903 0
M  V30 61 H 5.4403 4.08756 -1.12671 0
M  V30 62 C 3.8993 3.36461 0.171861 0
M  V30 63 O 4.4293 3.84576 1.16035 0
M  V30 64 N 2.6353 2.89782 0.217846 0
M  V30 65 H 2.1823 2.50819 -0.587183 0
M  V30 66 H 2.1403 2.95119 1.08408 0
M  V30 67 N 5.9124 1.20967 1.01018 0
M  V30 68 C 7.1404 1.04956 1.78303 0
M  V30 69 C 7.5554 -0.400915 1.84494 0
M  V30 70 O 6.9124 -1.27826 1.30257 0
M  V30 71 C 6.9634 1.63403 3.22462 0
M  V30 72 O 6.6844 3.02775 3.16637 0
M  V30 73 C 8.1854 1.52432 4.16268 0
M  V30 74 H 5.4054 0.368858 0.560522 0
M  V30 75 H 7.9494 1.60193 1.27116 0
M  V30 76 H 6.1044 1.1227 3.70775 0
M  V30 77 H 6.5184 3.30626 4.07169 0
M  V30 78 H 7.9924 1.98078 5.15237 0
M  V30 79 H 8.4694 0.477875 4.36592 0
M  V30 80 H 9.0754 2.02787 3.73841 0
M  V30 81 N 7.3905 -1.2043 1.01659 0
M  V30 82 C 8.6365 -1.90079 0.706963 0
M  V30 83 C 8.9695 -1.78648 -0.761474 0
M  V30 84 O 8.2445 -1.17069 -1.55323 0
M  V30 85 C 8.5275 -3.41469 1.14327 0
M  V30 86 C 8.3805 -3.61833 2.67201 0
M  V30 87 C 9.6995 -4.34261 0.714529 0
M  V30 88 H 6.8185 -0.690254 0.2583 0
M  V30 89 H 9.4605 -1.41826 1.26433 0
M  V30 90 H 7.6105 -3.82696 0.669056 0
M  V30 91 H 9.2825 -3.2986 3.22475 0
M  V30 92 H 7.5255 -3.05304 3.08175 0
M  V30 93 H 8.1965 -4.67955 2.92783 0
M  V30 94 H 10.6725 -4.00682 1.12221 0
M  V30 95 H 9.5485 -5.38806 1.04784 0
M  V30 96 H 9.8095 -4.40431 -0.383799 0
M  V30 97 N 8.8686 -0.792821 -1.36206 0
M  V30 98 C 10.2796 -0.429513 -1.81692 0
M  V30 99 C 10.6306 1.04695 -1.65932 0
M  V30 100 O 9.7556 1.81256 -1.18218 0
M  V30 101 C 10.3506 -0.772831 -3.29868 0
M  V30 102 C 8.9096 -0.462307 -3.7355 0
M  V30 103 C 8.0566 -1.00569 -2.5842 0
M  V30 104 H 11.0076 -0.985672 -1.24379 0
M  V30 105 H 11.0286 -0.0651928 -3.80444 0
M  V30 106 H 10.5406 -1.84747 -3.41307 0
M  V30 107 H 8.6416 0.604158 -3.67669 0
M  V30 108 H 8.7546 -0.985299 -4.68859 0
M  V30 109 H 7.1186 -0.428734 -2.51066 0
M  V30 110 H 7.9016 -2.08616 -2.72643 0
M  V30 111 N 10.3467 1.47872 -0.545128 0
M  V30 112 C 11.2767 2.32661 0.197793 0
M  V30 113 C 12.2577 1.43041 0.920504 0
M  V30 114 O 13.4427 1.71912 0.90333 0
M  V30 115 C 10.5727 3.24569 1.23582 0
M  V30 116 C 9.5267 4.23333 0.630323 0
M  V30 117 C 8.8527 5.0448 1.77211 0
M  V30 118 C 10.1527 5.20704 -0.407974 0
M  V30 119 H 11.8467 2.95024 -0.510045 0
M  V30 120 H 9.3927 1.4187 -0.246731 0
M  V30 121 H 11.3457 3.8272 1.76362 0
M  V30 122 H 10.0697 2.60236 1.97344 0
M  V30 123 H 8.7287 3.6639 0.123922 0
M  V30 124 H 8.3767 4.36561 2.49847 0
M  V30 125 H 8.0767 5.71339 1.37281 0
M  V30 126 H 9.6007 5.65487 2.3034 0
M  V30 127 H 11.0147 5.7329 0.033305 0
M  V30 128 H 9.4117 5.95699 -0.725486 0
M  V30 129 H 10.4817 4.66917 -1.30828 0
M  V30 130 N 11.8248 0.280983 1.55075 0
M  V30 131 C 12.7718 -0.603937 2.22758 0
M  V30 132 C 13.7418 -1.1452 1.20309 0
M  V30 133 O 14.9268 -1.19343 1.48869 0
M  V30 134 C 12.0668 -1.77947 2.95684 0
M  V30 135 C 11.1798 -1.2715 4.12864 0
M  V30 136 C 10.3148 -2.4093 4.7342 0
M  V30 137 C 9.3538 -1.87165 5.82783 0
M  V30 138 N 8.4908 -2.94441 6.37377 0
M  V30 139 H 13.3308 -0.020124 2.97993 0
M  V30 140 H 10.8678 0.00183425 1.471 0
M  V30 141 H 12.8258 -2.47055 3.36184 0
M  V30 142 H 11.4558 -2.33522 2.22861 0
M  V30 143 H 10.5078 -0.473331 3.77444 0
M  V30 144 H 11.8198 -0.837751 4.91715 0
M  V30 145 H 10.9738 -3.18021 5.1667 0
M  V30 146 H 9.7128 -2.87623 3.93859 0
M  V30 147 H 8.7178 -1.08556 5.38976 0
M  V30 148 H 9.9428 -1.41401 6.64216 0
M  V30 149 H 7.8888 -3.40505 5.60707 0
M  V30 150 H 7.8058 -2.55501 7.11516 0
M  V30 151 H 9.0738 -3.71489 6.85285 0
M  V30 152 N 13.3029 -1.57598 0.00835791 0
M  V30 153 C 14.2329 -2.1198 -0.979113 0
M  V30 154 C 15.2139 -1.03091 -1.35301 0
M  V30 155 O 16.3989 -1.30818 -1.43528 0
M  V30 156 C 13.5289 -2.62995 -2.26828 0
M  V30 157 C 12.4829 -3.76485 -2.03576 0
M  V30 158 C 11.8089 -4.13846 -3.38579 0
M  V30 159 C 13.1089 -5.0342 -1.39161 0
M  V30 160 H 14.8029 -2.94738 -0.526281 0
M  V30 161 H 12.3489 -1.41783 -0.251704 0
M  V30 162 H 14.3019 -2.99669 -2.96271 0
M  V30 163 H 13.0259 -1.7737 -2.7424 0
M  V30 164 H 11.6849 -3.40217 -1.36557 0
M  V30 165 H 11.3329 -3.25232 -3.83709 0
M  V30 166 H 11.0329 -4.90312 -3.23834 0
M  V30 167 H 12.5569 -4.53086 -4.09323 0
M  V30 168 H 13.9709 -5.37812 -1.98573 0
M  V30 169 H 12.3679 -5.84746 -1.34878 0
M  V30 170 H 13.4379 -4.83548 -0.361868 0
M  V30 171 N 14.781 0.264519 -1.55364 0
M  V30 172 C 16.03 0.992812 -1.75574 0
M  V30 173 C 16.343 1.87142 -0.568979 0
M  V30 174 O 17.549 2.63513 -0.653682 0
M  V30 175 C 16.005 1.81519 -3.10771 0
M  V30 176 C 15.613 0.984839 -4.37041 0
M  V30 177 C 17.357 2.53727 -3.40327 0
M  V30 178 C 15.264 1.80209 -5.63275 0
M  V30 179 H 14.194 0.374412 -0.65447 0
M  V30 180 H 16.845 0.248138 -1.81815 0
M  V30 181 H 15.227 2.60115 -2.98591 0
M  V30 182 H 16.401 0.242455 -4.60162 0
M  V30 183 H 14.716 0.37691 -4.14691 0
M  V30 184 H 17.313 3.15292 -4.3185 0
M  V30 185 H 17.656 3.24447 -2.60845 0
M  V30 186 H 18.189 1.82156 -3.53644 0
M  V30 187 H 14.928 1.13896 -6.45529 0
M  V30 188 H 14.448 2.52022 -5.44284 0
M  V30 189 H 16.127 2.37364 -6.01887 0
M  V30 190 N 16.2591 1.48442 0.529413 0
M  V30 191 C 17.2221 1.62524 1.61612 0
M  V30 192 C 18.2221 0.498509 1.52877 0
M  V30 193 O 19.4121 0.76431 1.56537 0
M  V30 194 C 16.5441 1.59597 3.01233 0
M  V30 195 H 17.7371 2.59423 1.50465 0
M  V30 196 H 15.2901 1.37047 0.751514 0
M  V30 197 H 16.0251 0.641781 3.17886 0
M  V30 198 H 15.8101 2.41397 3.08982 0
M  V30 199 H 17.3001 1.72646 3.80241 0
M  V30 200 N 17.7372 -0.778329 1.37039 0
M  V30 201 C 18.6672 -1.90546 1.34962 0
M  V30 202 C 19.6482 -1.68681 0.219274 0
M  V30 203 O 20.8332 -1.89634 0.418624 0
M  V30 204 C 17.9632 -3.27734 1.14925 0
M  V30 205 C 16.9172 -3.64147 2.24902 0
M  V30 206 C 16.2432 -4.99806 1.89996 0
M  V30 207 C 17.5432 -3.71579 3.67051 0
M  V30 208 H 19.2372 -1.92541 2.29277 0
M  V30 209 H 16.7832 -0.924948 1.10366 0
M  V30 210 H 18.7362 -4.06215 1.12104 0
M  V30 211 H 17.4602 -3.26154 0.170631 0
M  V30 212 H 16.1192 -2.8797 2.26868 0
M  V30 213 H 15.7672 -4.94759 0.906796 0
M  V30 214 H 15.4672 -5.25139 2.63634 0
M  V30 215 H 16.9912 -5.80694 1.88749 0
M  V30 216 H 18.4052 -4.40227 3.67251 0
M  V30 217 H 16.8022 -4.08405 4.39688 0
M  V30 218 H 17.8722 -2.72404 4.01154 0
M  V30 219 N 19.2153 -1.21501 -1.00376 0
M  V30 220 C 20.1453 -0.999478 -2.11028 0
M  V30 221 C 21.1263 0.0759671 -1.6993 0
M  V30 222 O 22.3113 -0.0841106 -1.94018 0
M  V30 223 C 19.4413 -0.564709 -3.42678 0
M  V30 224 C 18.3953 -1.58486 -3.97576 0
M  V30 225 C 17.7213 -1.00628 -5.25146 0
M  V30 226 C 19.0213 -2.97204 -4.29496 0
M  V30 227 H 20.7153 -1.92495 -2.29317 0
M  V30 228 H 18.2613 -0.92693 -1.102 0
M  V30 229 H 20.2143 -0.401091 -4.19487 0
M  V30 230 H 18.9383 0.396411 -3.24185 0
M  V30 231 H 17.5973 -1.73606 -3.22888 0
M  V30 232 H 17.2453 -0.0368439 -5.02987 0
M  V30 233 H 16.9453 -1.68771 -5.62841 0
M  V30 234 H 18.4693 -0.854015 -6.04598 0
M  V30 235 H 19.8833 -2.8552 -4.97143 0
M  V30 236 H 18.2803 -3.62372 -4.78338 0
M  V30 237 H 19.3503 -3.47956 -3.3772 0
M  V30 238 N 20.6934 1.19889 -1.02296 0
M  V30 239 C 21.6564 2.21116 -0.603351 0
M  V30 240 C 22.6564 1.5738 0.329884 0
M  V30 241 O 23.8464 1.73802 0.117702 0
M  V30 242 C 20.9784 3.40696 0.117992 0
M  V30 243 H 22.1714 2.59754 -1.49893 0
M  V30 244 H 19.7244 1.33463 -0.813468 0
M  V30 245 H 20.4594 3.07569 1.0282 0
M  V30 246 H 20.2444 3.88188 -0.552511 0
M  V30 247 H 21.7344 4.15692 0.398696 0
M  V30 248 N 22.1715 0.800033 1.35784 0
M  V30 249 C 23.1195 0.193851 2.31791 0
M  V30 250 C 24.1135 -0.652744 1.56319 0
M  V30 251 O 25.3195 -0.546641 1.71499 0
M  V30 252 H 21.6945 0.04392 0.750716 0
M  V30 253 H 23.6655 1.01883 2.80468 0
M  V30 254 C 22.4145 -0.648338 3.41602 0
M  V30 255 H 21.7375 -0.00624665 3.998 0
M  V30 256 H 23.1775 -1.03898 4.11073 0
M  V30 257 C 21.6365 -1.8111 2.84079 0
M  V30 258 O 22.1665 -2.90825 2.77099 0
M  V30 259 N 20.3725 -1.62056 2.41218 0
M  V30 260 H 19.9195 -0.728123 2.47095 0
M  V30 261 H 19.8775 -2.40013 2.03079 0
M  V30 262 N 23.6496 -1.47581 0.552962 0
M  V30 263 C 24.8976 -2.02082 0.0272703 0
M  V30 264 C 25.2186 -1.4301 -1.32563 0
M  V30 265 O 24.4886 -0.603745 -1.86365 0
M  V30 266 H 23.0686 -0.746966 0.00709182 0
M  V30 267 H 25.7306 -1.81033 0.722008 0
M  V30 268 H 24.8266 -3.12034 -0.0639951 0
M  V30 269 N 25.1277 -0.289203 -1.54924 0
M  V30 270 C 26.0377 0.601863 -2.26748 0
M  V30 271 C 27.0537 1.15834 -1.2984 0
M  V30 272 O 28.2297 1.18564 -1.62802 0
M  V30 273 C 25.2947 1.76299 -2.98529 0
M  V30 274 C 24.3557 1.24178 -4.10948 0
M  V30 275 C 23.5887 2.34757 -4.79296 0
M  V30 276 O 23.8117 3.54411 -4.46933 0
M  V30 277 O 22.7457 2.02115 -5.66951 0
M  V30 278 H 26.5717 0.0195879 -3.03694 0
M  V30 279 H 24.1567 -0.0560868 -1.49295 0
M  V30 280 H 26.0387 2.43973 -3.43592 0
M  V30 281 H 24.7137 2.33209 -2.24488 0
M  V30 282 H 23.6207 0.531104 -3.70311 0
M  V30 283 H 24.9537 0.718252 -4.86931 0
M  V30 284 N 26.6058 1.57591 -0.0167156 0
M  V30 285 C 27.8528 1.91283 0.664597 0
M  V30 286 C 28.1808 0.891949 1.72842 0
M  V30 287 O 27.4358 -0.100931 1.9544 0
M  V30 288 C 27.7348 3.3172 1.33029 0
M  V30 289 C 27.4008 4.4914 0.398047 0
M  V30 290 C 26.0628 4.80992 0.141421 0
M  V30 291 C 28.4148 5.20634 -0.242825 0
M  V30 292 C 25.7428 5.81703 -0.764092 0
M  V30 293 C 28.0948 6.22311 -1.13632 0
M  V30 294 C 26.7588 6.52611 -1.40196 0
M  V30 295 H 26.0288 0.699956 0.243193 0
M  V30 296 H 28.6758 1.9135 -0.0758267 0
M  V30 297 H 26.9808 3.27856 2.14517 0
M  V30 298 H 28.6778 3.55055 1.86379 0
M  V30 299 H 25.2678 4.24262 0.608238 0
M  V30 300 H 29.4518 4.96267 -0.0576019 0
M  V30 301 H 24.7078 6.03532 -0.977732 0
M  V30 302 H 28.8818 6.76834 -1.63917 0
M  V30 303 H 26.5088 7.30467 -2.10529 0
M  V30 304 N 28.0839 -0.256276 1.55502 0
M  V30 305 C 29.0339 -1.31981 1.85916 0
M  V30 306 C 30.0179 -1.43927 0.719296 0
M  V30 307 O 31.2099 -1.47326 0.981019 0
M  V30 308 C 28.3389 -2.67703 2.14918 0
M  V30 309 C 27.4249 -2.59801 3.35208 0
M  V30 310 N 27.8159 -2.21524 4.54709 0
M  V30 311 C 26.1139 -2.90832 3.38131 0
M  V30 312 C 26.8149 -2.24024 5.36832 0
M  V30 313 N 25.7909 -2.63158 4.75656 0
M  V30 314 H 29.5929 -1.01423 2.75845 0
M  V30 315 H 27.1069 -0.464911 1.55603 0
M  V30 316 H 29.1039 -3.44445 2.34869 0
M  V30 317 H 27.7639 -2.99137 1.26282 0
M  V30 318 H 28.7749 -1.93223 4.80505 0
M  V30 319 H 25.4519 -3.26867 2.59739 0
M  V30 320 H 26.8419 -1.9685 6.42417 0
M  V30 321 N 29.562 -1.4872 -0.521534 0
M  V30 322 C 30.787 -1.61101 -1.30618 0
M  V30 323 C 31.212 -0.274611 -1.86085 0
M  V30 324 O 30.57 0.754937 -1.64834 0
M  V30 325 C 30.618 -2.66709 -2.4269 0
M  V30 326 O 29.722 -2.24456 -3.45967 0
M  V30 327 H 29.063 -0.539921 -0.386499 0
M  V30 328 H 31.593 -1.94767 -0.626645 0
M  V30 329 H 31.603 -2.88245 -2.88754 0
M  V30 330 H 30.278 -3.63727 -2.01682 0
M  V30 331 H 28.855 -2.13168 -3.05964 0
M  V30 332 N 31.0401 0.771051 -1.3745 0
M  V30 333 C 32.2881 1.52661 -1.32435 0
M  V30 334 C 32.6091 1.9479 0.0905024 0
M  V30 335 O 31.8791 1.66348 1.03466 0
M  V30 336 H 30.4591 0.566218 -0.487244 0
M  V30 337 H 33.1211 0.917636 -1.71946 0
M  V30 338 H 32.2171 2.42568 -1.96385 0
M  V30 339 N 32.5182 1.22032 0.997298 0
M  V30 340 C 33.4282 1.00271 2.12092 0
M  V30 341 C 34.4442 -0.047621 1.73935 0
M  V30 342 O 35.6202 0.144136 2.00884 0
M  V30 343 C 32.6852 0.578449 3.4184 0
M  V30 344 C 31.7462 1.70189 3.94125 0
M  V30 345 C 30.9792 1.29778 5.17681 0
M  V30 346 O 31.2022 0.174676 5.70132 0
M  V30 347 O 30.1362 2.11261 5.63607 0
M  V30 348 H 33.9622 1.94398 2.3333 0
M  V30 349 H 31.5472 1.00587 1.10465 0
M  V30 350 H 33.4292 0.351998 4.19927 0
M  V30 351 H 32.1042 -0.334019 3.21972 0
M  V30 352 H 31.0112 1.98282 3.1723 0
M  V30 353 H 32.3442 2.59206 4.18417 0
M  V30 354 N 33.9963 -1.19345 1.0293 0
M  V30 355 C 34.9283 -2.22036 0.56857 0
M  V30 356 C 35.9413 -1.58865 -0.355779 0
M  V30 357 O 37.1303 -1.77851 -0.152103 0
M  V30 358 C 34.2303 -3.38363 -0.190752 0
M  V30 359 C 33.4033 -4.31118 0.738643 0
M  V30 360 C 32.4623 -5.26194 0.0246497 0
M  V30 361 O 31.4883 -5.65461 0.651354 0
M  V30 362 N 32.6903 -5.66971 -1.24594 0
M  V30 363 H 35.4553 -2.6219 1.45177 0
M  V30 364 H 33.0163 -1.34015 0.908381 0
M  V30 365 H 35.0083 -3.98981 -0.677961 0
M  V30 366 H 33.5783 -2.96994 -0.975366 0
M  V30 367 H 32.7983 -3.68276 1.40593 0
M  V30 368 H 34.0863 -4.90001 1.37029 0
M  V30 369 H 33.4843 -5.37104 -1.77583 0
M  V30 370 H 32.0413 -6.2984 -1.67764 0
M  V30 371 N 35.4744 -0.807222 -1.35358 0
M  V30 372 C 36.4044 -0.232509 -2.3234 0
M  V30 373 C 37.3854 0.642386 -1.57504 0
M  V30 374 O 38.5704 0.572526 -1.85569 0
M  V30 375 C 35.7004 0.619238 -3.41735 0
M  V30 376 C 34.6544 -0.157215 -4.27711 0
M  V30 377 C 33.9804 0.816273 -5.28433 0
M  V30 378 C 35.2804 -1.35656 -5.04376 0
M  V30 379 H 36.9744 -1.04276 -2.80654 0
M  V30 380 H 34.5204 -0.50288 -1.34934 0
M  V30 381 H 36.4734 1.03137 -4.08584 0
M  V30 382 H 35.1974 1.46239 -2.92031 0
M  V30 383 H 33.8564 -0.550525 -3.62443 0
M  V30 384 H 33.5044 1.65494 -4.74996 0
M  V30 385 H 33.2044 0.301067 -5.86828 0
M  V30 386 H 34.7284 1.22659 -5.98153 0
M  V30 387 H 36.1424 -1.01927 -5.64166 0
M  V30 388 H 34.5394 -1.8063 -5.7227 0
M  V30 389 H 35.6094 -2.14288 -4.34981 0
M  V30 390 N 36.9525 1.47285 -0.560781 0
M  V30 391 C 38.2005 2.02064 -0.0379868 0
M  V30 392 C 38.5215 1.43711 1.31803 0
M  V30 393 O 37.7915 0.61362 1.86042 0
M  V30 394 H 36.3715 0.746918 -0.0110531 0
M  V30 395 H 39.0335 1.80648 -0.731598 0
M  V30 396 H 38.1295 3.12064 0.0474463 0
M  V30 397 N 38.4306 0.297415 1.54768 0
M  V30 398 C 39.3406 -0.58983 2.27064 0
M  V30 399 C 40.3566 -1.15144 1.30453 0
M  V30 400 O 41.5326 -1.17699 1.63428 0
M  V30 401 C 38.5976 -1.74714 2.9946 0
M  V30 402 C 37.6586 -1.21997 4.11601 0
M  V30 403 C 36.8916 -2.32212 4.80535 0
M  V30 404 O 37.1146 -3.52036 4.48806 0
M  V30 405 O 36.0486 -1.99106 5.68014 0
M  V30 406 H 39.8746 -0.00348199 3.037 0
M  V30 407 H 37.4596 0.0640035 1.49263 0
M  V30 408 H 39.3416 -2.42147 3.44881 0
M  V30 409 H 38.0166 -2.32016 2.25722 0
M  V30 410 H 36.9236 -0.511458 3.70587 0
M  V30 411 H 38.2566 -0.692419 4.87305 0
M  V30 412 N 39.9087 -1.5758 0.0250728 0
M  V30 413 C 41.1367 -1.9593 -0.664747 0
M  V30 414 C 41.5517 -0.901352 -1.65895 0
M  V30 415 O 40.9087 0.117255 -1.82123 0
M  V30 416 C 40.9597 -3.34342 -1.37468 0
M  V30 417 O 40.6807 -4.36079 -0.420324 0
M  V30 418 C 42.1817 -3.873 -2.1567 0
M  V30 419 H 39.4017 -0.645405 -0.183557 0
M  V30 420 H 41.9457 -2.04329 0.0836372 0
M  V30 421 H 40.1007 -3.27175 -2.0745 0
M  V30 422 H 40.5147 -5.16297 -0.923991 0
M  V30 423 H 41.9887 -4.86504 -2.60803 0
M  V30 424 H 42.4657 -3.21331 -2.99405 0
M  V30 425 H 43.0717 -3.97723 -1.50654 0
M  V30 426 N 41.3868 0.248026 -1.55636 0
M  V30 427 C 42.3168 1.31079 -1.93237 0
M  V30 428 C 43.2978 1.50264 -0.797174 0
M  V30 429 O 44.4828 1.62891 -1.05737 0
M  V30 430 C 41.6128 2.66575 -2.22609 0
M  V30 431 C 40.5668 2.62087 -3.3837 0
M  V30 432 C 39.8928 4.01369 -3.53281 0
M  V30 433 C 41.1928 2.19171 -4.7409 0
M  V30 434 H 42.8868 0.998556 -2.82257 0
M  V30 435 H 40.4328 0.47891 -1.35803 0
M  V30 436 H 42.3858 3.41057 -2.47503 0
M  V30 437 H 41.1098 2.99432 -1.30414 0
M  V30 438 H 39.7688 1.90063 -3.13483 0
M  V30 439 H 39.4168 4.31489 -2.58508 0
M  V30 440 H 39.1168 3.99254 -4.31127 0
M  V30 441 H 40.6408 4.77552 -3.80495 0
M  V30 442 H 42.0548 2.83384 -4.98363 0
M  V30 443 H 40.4518 2.2817 -5.5503 0
M  V30 444 H 41.5218 1.14336 -4.71227 0
M  V30 445 N 42.8649 1.48995 0.513639 0
M  V30 446 C 44.1129 1.57531 1.26604 0
M  V30 447 C 44.4339 0.258236 1.93283 0
M  V30 448 O 43.7039 -0.721502 1.8213 0
M  V30 449 H 42.2839 0.580387 0.470276 0
M  V30 450 H 44.9459 1.85552 0.596373 0
M  V30 451 H 44.0419 2.36486 2.03669 0
M  V30 452 N 44.343 -0.763751 1.37857 0
M  V30 453 C 45.276 -1.88486 1.28639 0
M  V30 454 C 46.254 -1.61757 0.165363 0
M  V30 455 O 47.438 -1.85391 0.340948 0
M  V30 456 C 44.565 -3.23884 0.990811 0
M  V30 457 C 43.611 -3.69514 2.12983 0
M  V30 458 S 44.444 -3.82244 3.75033 0
M  V30 459 C 45.6 -5.20477 3.47641 0
M  V30 460 H 45.833 -1.96017 2.23527 0
M  V30 461 H 43.366 -0.925684 1.23574 0
M  V30 462 H 45.324 -4.02081 0.827101 0
M  V30 463 H 43.985 -3.14044 0.0592832 0
M  V30 464 H 43.178 -4.67696 1.87821 0
M  V30 465 H 42.78 -2.98441 2.25408 0
M  V30 466 H 45.072 -6.05905 3.03125 0
M  V30 467 H 46.015 -5.50655 4.4518 0
M  V30 468 H 46.423 -4.88793 2.82385 0
M  V30 469 N 45.8211 -1.22559 -0.990812 0
M  V30 470 C 47.0461 -1.07862 -1.77145 0
M  V30 471 C 47.4711 0.366447 -1.84496 0
M  V30 472 O 46.8291 1.26478 -1.29896 0
M  V30 473 C 46.8771 -1.69686 -3.18181 0
M  V30 474 O 45.9811 -0.951946 -4.01263 0
M  V30 475 H 45.3221 -0.378712 -0.545411 0
M  V30 476 H 47.8521 -1.62399 -1.2445 0
M  V30 477 H 47.8621 -1.74496 -3.68802 0
M  V30 478 H 46.5371 -2.74841 -3.12146 0
M  V30 479 H 45.1141 -0.980011 -3.59792 0
M  V30 480 N 47.2992 1.18797 -1.03562 0
M  V30 481 C 48.7152 1.40671 -0.753917 0
M  V30 482 C 48.9152 1.9043 0.658686 0
M  V30 483 O 47.9712 2.08538 1.42366 0
M  V30 484 C 49.2842 2.41192 -1.79574 0
M  V30 485 C 50.8322 2.54928 -1.81606 0
M  V30 486 C 51.3072 3.58709 -2.84766 0
M  V30 487 N 52.7982 3.66212 -2.83625 0
M  V30 488 C 53.5332 4.46225 -3.60098 0
M  V30 489 N 53.0292 5.29888 -4.46308 0
M  V30 490 N 54.8222 4.40939 -3.4861 0
M  V30 491 H 46.9732 0.848221 -1.94728 0
M  V30 492 H 49.2362 0.435081 -0.842264 0
M  V30 493 H 48.9422 2.11669 -2.80872 0
M  V30 494 H 48.8162 3.40467 -1.62365 0
M  V30 495 H 51.2032 2.83771 -0.809817 0
M  V30 496 H 51.2842 1.55784 -2.02891 0
M  V30 497 H 50.9282 3.30607 -3.85566 0
M  V30 498 H 50.8582 4.57519 -2.60737 0
M  V30 499 H 53.3492 3.06466 -2.21105 0
M  V30 500 H 53.6622 5.88078 -5.01382 0
M  V30 501 H 52.0072 5.29326 -4.50377 0
M  V30 502 H 55.1982 3.74624 -2.80668 0
M  V30 503 H 55.3712 5.03056 -4.08459 0
M  V30 504 N 48.7773 0.814389 1.34928 0
M  V30 505 C 49.7403 0.235759 2.27984 0
M  V30 506 C 50.7403 -0.581412 1.49921 0
M  V30 507 O 51.9303 -0.398758 1.69575 0
M  V30 508 C 49.0623 -0.670433 3.34242 0
M  V30 509 H 50.2553 1.05659 2.80671 0
M  V30 510 H 47.8083 0.585614 1.44915 0
M  V30 511 H 48.5433 -1.51466 2.86755 0
M  V30 512 H 48.3283 -0.0860822 3.92005 0
M  V30 513 H 49.8183 -1.06935 4.03676 0
M  V30 514 N 50.2554 -1.46986 0.568584 0
M  V30 515 C 51.2184 -2.28624 -0.162366 0
M  V30 516 C 52.2184 -1.37596 -0.832103 0
M  V30 517 O 53.4084 -1.60115 -0.68622 0
M  V30 518 C 50.5404 -3.17596 -1.23878 0
M  V30 519 H 51.7334 -2.94722 0.554899 0
M  V30 520 H 49.2864 -1.52863 0.325976 0
M  V30 521 H 50.0214 -2.56214 -1.98808 0
M  V30 522 H 49.8064 -3.846 -0.763219 0
M  V30 523 H 51.2964 -3.79078 -1.75185 0
M  V30 524 N 51.7335 -0.305618 -1.54608 0
M  V30 525 C 52.9825 0.303098 -1.9941 0
M  V30 526 C 53.2955 1.54648 -1.19764 0
M  V30 527 O 54.5015 2.23007 -1.54855 0
M  V30 528 C 52.9575 0.590588 -3.55021 0
M  V30 529 C 52.5655 -0.634719 -4.43481 0
M  V30 530 C 54.3095 1.16025 -4.08336 0
M  V30 531 C 52.2165 -0.320126 -5.90533 0
M  V30 532 H 51.1465 0.117031 -0.744862 0
M  V30 533 H 53.7975 -0.415045 -1.78745 0
M  V30 534 H 52.1795 1.36845 -3.71604 0
M  V30 535 H 53.3535 -1.41079 -4.38672 0
M  V30 536 H 51.6685 -1.12333 -4.00962 0
M  V30 537 H 54.2655 1.40994 -5.15776 0
M  V30 538 H 54.6085 2.10397 -3.5922 0
M  V30 539 H 55.1415 0.443985 -3.95315 0
M  V30 540 H 51.8805 -1.23254 -6.43808 0
M  V30 541 H 51.4005 0.418579 -5.98338 0
M  V30 542 H 53.0795 0.0766241 -6.46955 0
M  V30 543 N 53.2116 1.57565 -0.0334293 0
M  V30 544 C 54.1596 2.1164 0.96496 0
M  V30 545 C 55.1536 1.04398 1.33407 0
M  V30 546 O 56.3596 1.22828 1.3158 0
M  V30 547 H 52.7346 0.676222 0.32898 0
M  V30 548 H 54.7056 2.94455 0.483614 0
M  V30 549 C 53.4546 2.66207 2.23672 0
M  V30 550 H 52.7776 3.48378 1.96145 0
M  V30 551 H 54.2176 3.07685 2.9173 0
M  V30 552 C 52.6766 1.59151 2.96939 0
M  V30 553 O 53.2066 0.993858 3.89211 0
M  V30 554 N 51.4126 1.31093 2.59351 0
M  V30 555 H 50.9596 1.7988 1.84393 0
M  V30 556 H 50.9176 0.596889 3.08682 0
M  V30 557 N 54.6897 -0.239769 1.55765 0
M  V30 558 C 55.6367 -1.29696 1.90913 0
M  V30 559 C 56.6067 -1.47478 0.764164 0
M  V30 560 O 57.7917 -1.61345 1.01845 0
M  V30 561 C 54.9317 -2.64598 2.21544 0
M  V30 562 C 54.0447 -2.54765 3.48882 0
M  V30 563 C 53.1797 -3.82069 3.69049 0
M  V30 564 C 52.2187 -3.66883 4.89963 0
M  V30 565 N 51.3557 -4.86094 5.06614 0
M  V30 566 H 56.1957 -0.990224 2.81067 0
M  V30 567 H 53.7327 -0.477684 1.39128 0
M  V30 568 H 55.6907 -3.43132 2.3731 0
M  V30 569 H 54.3207 -2.93405 1.34585 0
M  V30 570 H 53.3727 -1.67763 3.41409 0
M  V30 571 H 54.6847 -2.39457 4.37563 0
M  V30 572 H 53.8387 -4.69046 3.84812 0
M  V30 573 H 52.5777 -4.00282 2.78614 0
M  V30 574 H 51.5827 -2.78289 4.74168 0
M  V30 575 H 52.8077 -3.50157 5.81865 0
M  V30 576 H 50.7537 -5.04655 4.19117 0
M  V30 577 H 50.6707 -4.73443 5.89396 0
M  V30 578 H 51.9387 -5.74549 5.26795 0
M  V30 579 N 56.1678 -1.49265 -0.50573 0
M  V30 580 C 57.1178 -1.6198 -1.60457 0
M  V30 581 C 58.1018 -0.47568 -1.53708 0
M  V30 582 O 59.2938 -0.728392 -1.61318 0
M  V30 583 C 56.4228 -1.68526 -2.99089 0
M  V30 584 C 55.5088 -2.885 -3.10852 0
M  V30 585 N 55.8998 -4.12635 -2.92517 0
M  V30 586 C 54.1978 -2.86338 -3.41945 0
M  V30 587 C 54.8988 -4.93258 -3.08337 0
M  V30 588 N 53.8748 -4.26533 -3.37003 0
M  V30 589 H 57.6768 -2.55681 -1.44928 0
M  V30 590 H 55.1908 -1.45972 -0.711752 0
M  V30 591 H 57.1878 -1.75732 -3.78053 0
M  V30 592 H 55.8478 -0.759584 -3.1569 0
M  V30 593 H 56.8588 -4.42689 -2.68787 0
M  V30 594 H 53.5358 -2.03129 -3.64753 0
M  V30 595 H 54.9258 -6.01856 -2.98695 0
M  V30 596 N 57.6459 0.756429 -1.3826 0
M  V30 597 C 58.8949 1.51082 -1.3363 0
M  V30 598 C 59.2079 1.95467 0.0720068 0
M  V30 599 O 60.4139 2.7043 0.240834 0
M  V30 600 C 58.8699 2.72893 -2.34644 0
M  V30 601 C 58.4779 2.35544 -3.81081 0
M  V30 602 C 60.2219 3.50791 -2.39052 0
M  V30 603 C 58.1289 3.53948 -4.73787 0
M  V30 604 H 57.0589 0.56727 -0.49671 0
M  V30 605 H 59.7099 0.827147 -1.638 0
M  V30 606 H 58.0919 3.43227 -1.97513 0
M  V30 607 H 59.2659 1.72894 -4.27135 0
M  V30 608 H 57.5809 1.70786 -3.79764 0
M  V30 609 H 60.1779 4.38823 -3.05513 0
M  V30 610 H 60.5209 3.91745 -1.40861 0
M  V30 611 H 61.0539 2.87467 -2.74968 0
M  V30 612 H 57.7929 3.18064 -5.73163 0
M  V30 613 H 57.3129 4.15651 -4.32428 0
M  V30 614 H 58.9919 4.20566 -4.91663 0
M  V30 615 N 59.124 1.23083 0.984299 0
M  V30 616 C 60.056 0.96636 2.07832 0
M  V30 617 C 61.069 -0.0582135 1.62696 0
M  V30 618 O 62.258 0.176843 1.77622 0
M  V30 619 C 59.358 0.433397 3.36117 0
M  V30 620 C 58.531 1.51722 4.10243 0
M  V30 621 C 57.59 0.989821 5.16807 0
M  V30 622 O 56.616 1.67794 5.43906 0
M  V30 623 N 57.818 -0.184367 5.80207 0
M  V30 624 H 60.583 1.90824 2.31098 0
M  V30 625 H 58.144 1.13888 1.1507 0
M  V30 626 H 60.136 0.065699 4.04647 0
M  V30 627 H 58.706 -0.413806 3.09849 0
M  V30 628 H 57.926 2.05786 3.36223 0
M  V30 629 H 59.214 2.24619 4.56534 0
M  V30 630 H 58.612 -0.760062 5.60571 0
M  V30 631 H 57.169 -0.493366 6.4993 0
M  V30 632 N 60.6021 -1.18246 1.0419 0
M  V30 633 C 61.8301 -1.92195 0.766072 0
M  V30 634 C 62.2451 -1.76247 -0.676933 0
M  V30 635 O 61.6021 -1.09293 -1.46155 0
M  V30 636 C 61.6531 -3.43568 1.12442 0
M  V30 637 O 61.3741 -3.59015 2.51078 0
M  V30 638 C 62.8751 -4.34613 0.873275 0
M  V30 639 H 60.0951 -0.610114 0.279288 0
M  V30 640 H 62.6391 -1.50007 1.38989 0
M  V30 641 H 60.7941 -3.8354 0.545542 0
M  V30 642 H 61.2081 -4.5273 2.64831 0
M  V30 643 H 62.6821 -5.39374 1.17385 0
M  V30 644 H 63.1591 -4.38781 -0.191909 0
M  V30 645 H 63.7651 -4.00341 1.43551 0
M  V30 646 N 62.0802 -0.821533 -1.34494 0
M  V30 647 C 63.0102 -0.257138 -2.3208 0
M  V30 648 C 63.9912 0.625645 -1.58176 0
M  V30 649 O 65.1762 0.552811 -1.86166 0
M  V30 650 C 62.3062 0.582958 -3.42372 0
M  V30 651 C 61.2602 -0.202571 -4.2752 0
M  V30 652 C 60.5862 0.760179 -5.29269 0
M  V30 653 C 61.8862 -1.40998 -5.02908 0
M  V30 654 H 63.5802 -1.07247 -2.79532 0
M  V30 655 H 61.1262 -0.517163 -1.34393 0
M  V30 656 H 63.0792 0.987972 -4.09655 0
M  V30 657 H 61.8032 1.43133 -2.93565 0
M  V30 658 H 60.4622 -0.588936 -3.61838 0
M  V30 659 H 60.1102 1.60447 -4.76724 0
M  V30 660 H 59.8102 0.238809 -5.87115 0
M  V30 661 H 61.3342 1.16308 -5.9942 0
M  V30 662 H 62.7482 -1.07905 -5.63054 0
M  V30 663 H 61.1452 -1.86689 -5.70322 0
M  V30 664 H 62.2152 -2.1889 -4.32684 0
M  V30 665 N 63.5583 1.46682 -0.576371 0
M  V30 666 C 64.9743 1.57822 -0.237562 0
M  V30 667 C 65.1743 1.57237 1.26011 0
M  V30 668 O 64.2303 1.48596 2.04146 0
M  V30 669 C 65.5433 2.87499 -0.881168 0
M  V30 670 C 67.0913 3.01119 -0.85417 0
M  V30 671 C 67.5663 4.33524 -1.4772 0
M  V30 672 N 69.0573 4.40207 -1.44125 0
M  V30 673 C 69.7923 5.4126 -1.89276 0
M  V30 674 N 69.2883 6.49021 -2.42371 0
M  V30 675 N 71.0813 5.32422 -1.80231 0
M  V30 676 H 63.2323 1.45306 -1.54919 0
M  V30 677 H 65.4953 0.692733 -0.647167 0
M  V30 678 H 65.2013 2.9372 -1.93447 0
M  V30 679 H 65.0753 3.75224 -0.385592 0
M  V30 680 H 67.4623 2.94485 0.190491 0
M  V30 681 H 67.5433 2.14887 -1.3877 0
M  V30 682 H 67.1873 4.40916 -2.52103 0
M  V30 683 H 67.1173 5.1852 -0.918947 0
M  V30 684 H 69.6083 3.62931 -1.05307 0
M  V30 685 H 69.9213 7.2233 -2.74698 0
M  V30 686 H 68.2663 6.49858 -2.46393 0
M  V30 687 H 71.4573 4.47137 -1.38514 0
M  V30 688 H 71.6303 6.11034 -2.15735 0
M  V30 689 N 65.0364 0.313813 1.54444 0
M  V30 690 C 66.3134 -0.345447 1.92525 0
M  V30 691 C 66.6934 -1.70667 1.24242 0
M  V30 692 O 66.0414 -2.25273 0.382654 0
M  V30 693 C 66.2514 -0.44737 3.46121 0
M  V30 694 C 67.5994 -0.712238 4.18584 0
M  V30 695 O 68.6234 -0.530678 3.52225 0
M  V30 696 O 67.4824 -1.06183 5.36085 0
M  V30 697 H 64.5764 -0.195407 0.803583 0
M  V30 698 H 67.1224 0.362813 1.65776 0
M  V30 699 H 65.8944 0.509043 3.87975 0
M  V30 700 H 65.5174 -1.20359 3.78945 0
M  V30 701 N 66.5145 -1.57545 0.0417849 0
M  V30 702 C 67.7605 -1.93424 -0.629168 0
M  V30 703 C 68.1155 -0.919564 -1.69002 0
M  V30 704 O 67.4085 0.0626178 -1.91498 0
M  V30 705 C 67.6025 -3.33794 -1.27735 0
M  V30 706 C 67.4315 -4.48822 -0.280806 0
M  V30 707 C 66.2015 -5.05148 0.123869 0
M  V30 708 C 68.3995 -5.12148 0.470012 0
M  V30 709 N 66.3815 -6.03703 1.11426 0
M  V30 710 C 67.7525 -6.05921 1.31377 0
M  V30 711 C 69.8075 -4.95078 0.529343 0
M  V30 712 C 68.5105 -6.84459 2.21152 0
M  V30 713 C 70.5365 -5.74235 1.41448 0
M  V30 714 C 69.8985 -6.67634 2.24598 0
M  V30 715 H 65.9975 -0.755418 -0.202158 0
M  V30 716 H 68.5815 -1.94378 0.111923 0
M  V30 717 H 66.7525 -3.33635 -1.98852 0
M  V30 718 H 68.4845 -3.56988 -1.90635 0
M  V30 719 H 65.2395 -4.72923 -0.253178 0
M  V30 720 H 65.6635 -6.57674 1.60607 0
M  V30 721 H 70.3055 -4.22683 -0.0992798 0
M  V30 722 H 68.0235 -7.56151 2.85063 0
M  V30 723 H 71.6095 -5.63057 1.46484 0
M  V30 724 H 70.4895 -7.27817 2.9198 0
M  V30 725 N 67.9926 0.231505 -1.5589 0
M  V30 726 C 69.2406 0.955461 -1.78088 0
M  V30 727 C 69.5616 1.85262 -0.608533 0
M  V30 728 O 68.8316 1.92277 0.375035 0
M  V30 729 H 67.4116 0.355787 -0.656829 0
M  V30 730 H 70.0736 0.245751 -1.93344 0
M  V30 731 H 69.1696 1.56814 -2.69844 0
M  V30 732 N 69.4707 1.49531 0.497807 0
M  V30 733 C 70.7167 1.59415 1.25358 0
M  V30 734 C 71.0497 0.281422 1.9215 0
M  V30 735 O 70.3247 -0.715249 1.80871 0
M  V30 736 C 70.6077 2.75566 2.3181 0
M  V30 737 C 70.4607 4.16642 1.69498 0
M  V30 738 C 71.7797 2.87347 3.33346 0
M  V30 739 H 68.8987 0.580244 0.454408 0
M  V30 740 H 71.5407 1.81827 0.551262 0
M  V30 741 H 69.6907 2.56587 2.91711 0
M  V30 742 H 71.3627 4.47145 1.13399 0
M  V30 743 H 69.6057 4.22141 0.998978 0
M  V30 744 H 70.2767 4.93792 2.46725 0
M  V30 745 H 72.7527 3.04634 2.83438 0
M  V30 746 H 71.6287 3.70289 4.05188 0
M  V30 747 H 71.8897 1.96834 3.95865 0
M  V30 748 N 70.9488 -0.749086 1.3866 0
M  V30 749 C 72.2258 -1.4992 1.25632 0
M  V30 750 C 72.6058 -2.10633 -0.140317 0
M  V30 751 O 71.9538 -1.97437 -1.15025 0
M  V30 752 C 72.1638 -2.56195 2.36992 0
M  V30 753 C 73.5118 -3.22972 2.75634 0
M  V30 754 O 74.5358 -2.66502 2.36337 0
M  V30 755 O 73.3948 -4.25122 3.43415 0
M  V30 756 H 70.4888 -0.665067 0.491544 0
M  V30 757 H 73.0348 -0.784113 1.50498 0
M  V30 758 H 71.8068 -2.09612 3.30422 0
M  V30 759 H 71.4298 -3.35279 2.13714 0
M  V30 760 N 72.4269 -1.23603 -0.977757 0
M  V30 761 C 73.6729 -1.07129 -1.72195 0
M  V30 762 C 74.0059 0.390501 -1.90233 0
M  V30 763 O 73.2809 1.28902 -1.45653 0
M  V30 764 C 73.5639 -1.80031 -3.11867 0
M  V30 765 C 73.4169 -3.33899 -3.01383 0
M  V30 766 C 74.7359 -1.56492 -4.11337 0
M  V30 767 H 71.8549 -0.390571 -0.624999 0
M  V30 768 H 74.4969 -1.52142 -1.13811 0
M  V30 769 H 72.6469 -1.41768 -3.6171 0
M  V30 770 H 74.3189 -3.81699 -2.59043 0
M  V30 771 H 72.5619 -3.62796 -2.37827 0
M  V30 772 H 73.2329 -3.801 -4.00285 0
M  V30 773 H 75.7089 -1.89757 -3.70313 0
M  V30 774 H 74.5849 -2.09973 -5.07151 0
M  V30 775 H 74.8459 -0.500874 -4.39254 0
M  V30 776 N 73.905 1.17692 -1.04816 0
M  V30 777 C 75.152 1.87859 -0.75599 0
M  V30 778 C 75.48 1.80812 0.716752 0
M  V30 779 O 74.735 1.20819 1.53952 0
M  V30 780 C 75.034 3.37462 -1.17703 0
M  V30 781 C 74.7 3.64713 -2.65133 0
M  V30 782 C 73.362 3.71859 -3.05408 0
M  V30 783 C 75.714 3.76492 -3.60421 0
M  V30 784 C 73.042 3.88271 -4.39843 0
M  V30 785 C 75.394 3.94421 -4.94585 0
M  V30 786 C 74.058 3.99806 -5.3452 0
M  V30 787 H 73.328 0.687425 -0.276636 0
M  V30 788 H 75.975 1.39255 -1.31455 0
M  V30 789 H 74.28 3.88097 -0.537395 0
M  V30 790 H 75.977 3.90109 -0.928218 0
M  V30 791 H 72.567 3.59772 -2.32942 0
M  V30 792 H 76.751 3.70295 -3.30447 0
M  V30 793 H 72.007 3.90687 -4.70291 0
M  V30 794 H 76.181 4.02477 -5.68318 0
M  V30 795 H 73.808 4.12276 -6.38696 0
M  V30 796 N 75.3831 0.828654 1.34056 0
M  V30 797 C 76.6111 0.43262 2.02326 0
M  V30 798 C 77.0261 -0.963147 1.62385 0
M  V30 799 O 76.3831 -1.62425 0.832121 0
M  V30 800 C 76.4341 0.53182 3.57567 0
M  V30 801 O 76.1551 1.87258 3.96063 0
M  V30 802 C 77.6561 0.131422 4.43105 0
M  V30 803 H 74.8761 0.172923 0.648335 0
M  V30 804 H 77.4201 1.1184 1.71208 0
M  V30 805 H 75.5751 -0.105938 3.87255 0
M  V30 806 H 75.9891 1.85087 4.90758 0
M  V30 807 H 77.4631 0.251904 5.51425 0
M  V30 808 H 77.9401 -0.925645 4.29335 0
M  V30 809 H 78.5461 0.743207 4.18756 0
M  V30 810 N 76.8612 -1.46375 0.584142 0
M  V30 811 C 78.1072 -2.02678 0.0703716 0
M  V30 812 C 78.4402 -1.4545 -1.28678 0
M  V30 813 O 77.7152 -0.62014 -1.84349 0
M  V30 814 C 77.9982 -3.60099 0.00614674 0
M  V30 815 C 77.8512 -4.27709 1.3923 0
M  V30 816 C 79.1702 -4.34598 -0.693742 0
M  V30 817 H 76.2892 -0.736504 0.027047 0
M  V30 818 H 78.9312 -1.74501 0.751615 0
M  V30 819 H 77.0812 -3.84236 -0.574009 0
M  V30 820 H 78.7532 -4.14832 2.01773 0
M  V30 821 H 76.9962 -3.87016 1.95962 0
M  V30 822 H 77.6672 -5.36478 1.29982 0
M  V30 823 H 80.1432 -4.15615 -0.200869 0
M  V30 824 H 79.0192 -5.44318 -0.707714 0
M  V30 825 H 79.2802 -4.05759 -1.75533 0
M  V30 826 N 78.3393 -0.321999 -1.54275 0
M  V30 827 C 79.7503 0.166384 -1.85957 0
M  V30 828 C 80.1013 1.51747 -1.24367 0
M  V30 829 O 79.2263 2.09317 -0.549124 0
M  V30 830 C 79.8213 0.308681 -3.37391 0
M  V30 831 C 78.3803 0.741286 -3.69028 0
M  V30 832 C 77.5273 -0.137937 -2.76957 0
M  V30 833 H 80.4783 -0.542335 -1.49146 0
M  V30 834 H 80.4993 1.13984 -3.63026 0
M  V30 835 H 80.0113 -0.674809 -3.82188 0
M  V30 836 H 78.1123 1.73458 -3.29762 0
M  V30 837 H 78.2253 0.546118 -4.75977 0
M  V30 838 H 76.5893 0.386251 -2.51754 0
M  V30 839 H 77.3723 -1.11816 -3.2458 0
M  V30 840 N 79.8174 1.5752 -0.0501392 0
M  V30 841 C 81.0654 1.9227 0.622642 0
M  V30 842 C 81.3864 0.929083 1.71444 0
M  V30 843 O 80.6564 -0.0262186 1.95882 0
M  V30 844 H 79.2364 0.709739 0.232981 0
M  V30 845 H 81.8984 1.94628 -0.102898 0
M  V30 846 H 80.9944 2.93479 1.06191 0
M  V30 847 N 81.2955 -0.223234 1.56011 0
M  V30 848 C 82.2425 -1.27664 1.92277 0
M  V30 849 C 83.2125 -1.46659 0.779763 0
M  V30 850 O 84.3975 -1.60256 1.03551 0
M  V30 851 C 81.5375 -2.62234 2.24338 0
M  V30 852 C 80.6505 -2.51051 3.51564 0
M  V30 853 C 79.7855 -3.78133 3.7308 0
M  V30 854 C 78.8245 -3.61665 4.93827 0
M  V30 855 N 77.9615 -4.80693 5.11741 0
M  V30 856 H 82.8015 -0.960358 2.82101 0
M  V30 857 H 80.3385 -0.462901 1.39627 0
M  V30 858 H 82.2965 -3.40596 2.40936 0
M  V30 859 H 80.9265 -2.91961 1.3769 0
M  V30 860 H 79.9785 -1.64132 3.43169 0
M  V30 861 H 81.2905 -2.34803 4.40079 0
M  V30 862 H 80.4445 -4.64938 3.89766 0
M  V30 863 H 79.1835 -3.97304 2.82844 0
M  V30 864 H 78.1885 -2.73244 4.77093 0
M  V30 865 H 79.4135 -3.43966 5.85546 0
M  V30 866 H 77.3595 -5.00181 4.24446 0
M  V30 867 H 77.2765 -4.67165 5.94384 0
M  V30 868 H 78.5445 -5.6893 5.3286 0
M  V30 869 N 82.7736 -1.49793 -0.48987 0
M  V30 870 C 84.0216 -1.59525 -1.24081 0
M  V30 871 C 84.3426 -0.288953 -1.92847 0
M  V30 872 O 83.6126 0.692436 -1.83254 0
M  V30 873 H 82.1926 -0.587796 -0.460983 0
M  V30 874 H 84.8546 -1.86477 -0.566778 0
M  V30 875 H 83.9506 -2.39696 -1.99881 0
M  V30 876 N 84.2517 0.741722 -1.39055 0
M  V30 877 C 85.4817 1.52876 -1.3897 0
M  V30 878 C 85.8897 1.8919 0.0193266 0
M  V30 879 O 85.2327 1.54138 0.999356 0
M  V30 880 C 85.2947 2.84929 -2.19216 0
M  V30 881 C 84.9587 2.71086 -3.67915 0
M  V30 882 C 85.9557 2.40084 -4.61146 0
M  V30 883 C 83.6407 2.88168 -4.11418 0
M  V30 884 C 85.6347 2.26335 -5.95862 0
M  V30 885 C 83.3217 2.74037 -5.46211 0
M  V30 886 C 84.3197 2.43166 -6.38247 0
M  V30 887 O 84.0077 2.29115 -7.70559 0
M  V30 888 H 83.7397 0.479252 -0.476753 0
M  V30 889 H 86.2937 0.924751 -1.83405 0
M  V30 890 H 84.5237 3.47564 -1.69518 0
M  V30 891 H 86.2127 3.46509 -2.11392 0
M  V30 892 H 86.9787 2.26545 -4.28838 0
M  V30 893 H 82.8577 3.11191 -3.40119 0
M  V30 894 H 86.4017 2.0216 -6.67665 0
M  V30 895 H 82.2987 2.87153 -5.78112 0
M  V30 896 H 83.0667 2.44237 -7.81211 0
M  V30 897 N 85.7298 1.2412 0.971189 0
M  V30 898 C 86.9548 1.10667 1.75407 0
M  V30 899 C 87.3798 -0.337048 1.85056 0
M  V30 900 O 86.7378 -1.24396 1.31892 0
M  V30 901 C 86.7858 1.74726 3.15441 0
M  V30 902 O 85.8898 1.01566 3.99697 0
M  V30 903 H 85.2308 0.387341 0.539317 0
M  V30 904 H 87.7608 1.64358 1.2185 0
M  V30 905 H 87.7708 1.80341 3.6598 0
M  V30 906 H 86.4458 2.79773 3.07734 0
M  V30 907 H 85.0228 1.03713 3.58187 0
M  V30 908 N 87.2079 -1.17134 1.05439 0
M  V30 909 C 88.1379 -2.2342 0.678649 0
M  V30 910 C 89.1189 -1.66971 -0.32476 0
M  V30 911 O 90.3039 -1.93149 -0.201802 0
M  V30 912 C 87.4339 -3.47256 0.0552099 0
M  V30 913 C 86.3879 -4.16543 0.98365 0
M  V30 914 C 85.7139 -5.34231 0.223961 0
M  V30 915 C 87.0139 -4.68495 2.3089 0
M  V30 916 H 88.7079 -2.55105 1.56722 0
M  V30 917 H 86.2539 -1.2262 0.754998 0
M  V30 918 H 88.2069 -4.20828 -0.21946 0
M  V30 919 H 86.9309 -3.14846 -0.868319 0
M  V30 920 H 85.5899 -3.44887 1.24293 0
M  V30 921 H 85.2379 -4.98071 -0.702412 0
M  V30 922 H 84.9379 -5.81527 0.842627 0
M  V30 923 H 86.4619 -6.10585 -0.0433671 0
M  V30 924 H 87.8759 -5.33691 2.09396 0
M  V30 925 H 86.2729 -5.26379 2.88176 0
M  V30 926 H 87.3429 -3.85169 2.94572 0
M  V30 927 N 88.686 -0.835752 -1.33615 0
M  V30 928 C 90.097 -0.487099 -1.80234 0
M  V30 929 C 90.448 0.993627 -1.69179 0
M  V30 930 O 89.573 1.77403 -1.23924 0
M  V30 931 C 90.168 -0.877385 -3.27242 0
M  V30 932 C 88.727 -0.580915 -3.7189 0
M  V30 933 C 87.874 -1.0874 -2.5509 0
M  V30 934 H 90.825 -1.02474 -1.2118 0
M  V30 935 H 90.846 -0.186195 -3.80044 0
M  V30 936 H 90.358 -1.95512 -3.35256 0
M  V30 937 H 88.459 0.486881 -3.69405 0
M  V30 938 H 88.572 -1.13396 -4.65487 0
M  V30 939 H 86.936 -0.508392 -2.49575 0
M  V30 940 H 87.719 -2.17184 -2.65868 0
M  V30 941 N 90.1641 1.46063 -0.591896 0
M  V30 942 C 91.0741 2.34192 0.13831 0
M  V30 943 C 92.0901 1.50305 0.876608 0
M  V30 944 O 93.2661 1.8315 0.837728 0
M  V30 945 C 90.3311 3.27656 1.13326 0
M  V30 946 C 89.3921 4.27445 0.39863 0
M  V30 947 C 88.6251 5.16443 1.34618 0
M  V30 948 O 88.8481 5.08553 2.58321 0
M  V30 949 O 87.7821 5.95843 0.851768 0
M  V30 950 H 91.6081 2.98002 -0.58552 0
M  V30 951 H 89.1931 1.45188 -0.352239 0
M  V30 952 H 91.0751 3.85291 1.70671 0
M  V30 953 H 89.7501 2.6643 1.83839 0
M  V30 954 H 88.6571 3.73471 -0.216895 0
M  V30 955 H 89.9901 4.91482 -0.265709 0
M  V30 956 N 91.6422 0.330177 1.54103 0
M  V30 957 C 93.0532 -0.15652 1.86043 0
M  V30 958 C 93.4042 -1.51086 1.2517 0
M  V30 959 O 92.5292 -2.09023 0.560217 0
M  V30 960 C 93.1242 -0.290784 3.3755 0
M  V30 961 C 91.6832 -0.721705 3.69416 0
M  V30 962 C 90.8302 0.152622 2.7688 0
M  V30 963 H 93.7812 0.550237 1.48856 0
M  V30 964 H 93.8022 -1.12058 3.63625 0
M  V30 965 H 93.3142 0.695068 3.81825 0
M  V30 966 H 91.4152 -1.71706 3.30678 0
M  V30 967 H 91.5282 -0.520869 4.7626 0
M  V30 968 H 89.8922 -0.372894 2.51956 0
M  V30 969 H 90.6752 1.13536 3.23982 0
M  V30 970 N 93.1203 -1.57491 0.0584922 0
M  V30 971 C 94.3693 -1.92155 -0.613146 0
M  V30 972 C 94.6823 -0.939334 -1.71569 0
M  V30 973 O 95.8883 -1.17829 -2.44599 0
M  V30 974 C 94.3443 -3.41303 -1.14195 0
M  V30 975 C 93.9523 -4.47944 -0.0711265 0
M  V30 976 C 95.6963 -3.84988 -1.78841 0
M  V30 977 C 93.6033 -5.88212 -0.613225 0
M  V30 978 H 92.5333 -0.717162 -0.232796 0
M  V30 979 H 95.1843 -1.83049 0.12857 0
M  V30 980 H 93.5663 -3.45437 -1.93621 0
M  V30 981 H 94.7403 -4.55408 0.702836 0
M  V30 982 H 93.0553 -4.13644 0.478313 0
M  V30 983 H 95.6523 -4.87159 -2.20408 0
M  V30 984 H 95.9953 -3.21632 -2.64308 0
M  V30 985 H 96.5283 -3.83401 -1.06059 0
M  V30 986 H 93.2673 -6.55183 0.203978 0
M  V30 987 H 92.7873 -5.84294 -1.35501 0
M  V30 988 H 94.4663 -6.37687 -1.09383 0
M  V30 989 N 94.5984 0.214957 -1.56127 0
M  V30 990 C 95.5304 1.29004 -1.89448 0
M  V30 991 C 96.5434 1.42716 -0.783326 0
M  V30 992 O 97.7324 1.43496 -1.06166 0
M  V30 993 C 94.8324 2.66482 -2.09381 0
M  V30 994 C 94.0054 2.74633 -3.40434 0
M  V30 995 C 93.0644 3.9317 -3.49719 0
M  V30 996 O 92.0904 3.812 -4.227 0
M  V30 997 N 93.2924 5.07765 -2.81346 0
M  V30 998 H 96.0574 1.00743 -2.82261 0
M  V30 999 H 93.6184 0.40497 -1.56753 0
M  V30 1000 H 95.6104 3.44173 -2.12901 0
M  V30 1001 H 94.1804 2.87314 -1.23163 0
M  V30 1002 H 93.4004 1.83368 -3.48955 0
M  V30 1003 H 94.6884 2.77054 -4.26754 0
M  V30 1004 H 94.0864 5.20386 -2.21843 0
M  V30 1005 H 92.6434 5.83474 -2.90519 0
M  V30 1006 N 96.0765 1.50051 0.48192 0
M  V30 1007 C 97.0065 1.71046 1.58951 0
M  V30 1008 C 97.9875 0.559288 1.60642 0
M  V30 1009 O 99.1725 0.797243 1.77081 0
M  V30 1010 C 96.3025 1.79462 2.97339 0
M  V30 1011 C 95.2565 2.94558 3.10515 0
M  V30 1012 C 94.5825 2.88105 4.50444 0
M  V30 1013 C 95.8825 4.35227 2.88747 0
M  V30 1014 H 97.5765 2.6378 1.41635 0
M  V30 1015 H 95.1225 1.26936 0.679942 0
M  V30 1016 H 97.0755 1.92734 3.74742 0
M  V30 1017 H 95.7995 0.833412 3.15788 0
M  V30 1018 H 94.4585 2.80918 2.35543 0
M  V30 1019 H 94.1065 1.89853 4.65795 0
M  V30 1020 H 93.8065 3.65366 4.60197 0
M  V30 1021 H 95.3305 3.03412 5.29881 0
M  V30 1022 H 96.7445 4.49449 3.55905 0
M  V30 1023 H 95.1415 5.13856 3.09955 0
M  V30 1024 H 96.2115 4.48347 1.84696 0
M  V30 1025 N 97.5546 -0.734337 1.39446 0
M  V30 1026 C 98.4846 -1.86155 1.40955 0
M  V30 1027 C 99.4656 -1.67898 0.272827 0
M  V30 1028 O 100.651 -1.88207 0.478743 0
M  V30 1029 C 97.7806 -3.23912 1.25294 0
M  V30 1030 C 96.7346 -3.56808 2.36373 0
M  V30 1031 C 96.0606 -4.93508 2.058 0
M  V30 1032 C 97.3606 -3.59713 3.78687 0
M  V30 1033 H 99.0546 -1.8515 2.35287 0
M  V30 1034 H 96.6006 -0.889367 1.13253 0
M  V30 1035 H 98.5536 -4.02443 1.2497 0
M  V30 1036 H 97.2776 -3.25446 0.274308 0
M  V30 1037 H 95.9366 -2.80606 2.35914 0
M  V30 1038 H 95.5846 -4.91623 1.06374 0
M  V30 1039 H 95.2846 -5.16486 2.80208 0
M  V30 1040 H 96.8086 -5.74396 2.07128 0
M  V30 1041 H 98.2226 -4.2832 3.81071 0
M  V30 1042 H 96.6196 -3.94209 4.52459 0
M  V30 1043 H 97.6896 -2.59504 4.09617 0
M  V30 1044 N 99.0327 -1.24633 -0.964593 0
M  V30 1045 C 99.9807 -1.03917 -2.08096 0
M  V30 1046 C 100.975 0.0268581 -1.69379 0
M  V30 1047 O 102.181 -0.127952 -1.79545 0
M  V30 1048 H 98.5557 -0.319044 -0.680966 0
M  V30 1049 H 100.527 -1.98581 -2.22729 0
M  V30 1050 C 99.2757 -0.663983 -3.41301 0
M  V30 1051 H 98.5987 -1.47605 -3.71555 0
M  V30 1052 H 100.039 -0.558663 -4.20303 0
M  V30 1053 C 98.4977 0.629169 -3.30973 0
M  V30 1054 O 99.0277 1.67404 -3.65156 0
M  V30 1055 N 97.2337 0.611057 -2.84103 0
M  V30 1056 H 96.7807 -0.239593 -2.56483 0
M  V30 1057 H 96.7387 1.47647 -2.77575 0
M  V30 1058 N 100.511 1.16574 -1.06058 0
M  V30 1059 C 101.474 2.19085 -0.673392 0
M  V30 1060 C 102.474 1.5835 0.279648 0
M  V30 1061 O 103.664 1.74088 0.0623488 0
M  V30 1062 C 100.796 3.40899 0.00954234 0
M  V30 1063 H 101.989 2.54853 -1.58081 0
M  V30 1064 H 99.5418 1.30808 -0.855516 0
M  V30 1065 H 100.277 3.10684 0.929826 0
M  V30 1066 H 100.062 3.86233 -0.67573 0
M  V30 1067 H 101.552 4.1675 0.266245 0
M  V30 1068 N 101.989 0.842826 1.3317 0
M  V30 1069 C 102.936 0.276885 2.29133 0
M  V30 1070 C 103.906 -0.609527 1.54512 0
M  V30 1071 O 105.091 -0.546955 1.82792 0
M  V30 1072 C 102.231 -0.538707 3.40869 0
M  V30 1073 C 101.344 0.372169 4.30394 0
M  V30 1074 C 100.479 -0.454908 5.29249 0
M  V30 1075 C 99.5179 0.45411 6.10413 0
M  V30 1076 N 98.6549 -0.335075 7.013 0
M  V30 1077 H 103.495 1.10052 2.76934 0
M  V30 1078 H 101.032 0.554161 1.36262 0
M  V30 1079 H 102.99 -1.02709 4.0436 0
M  V30 1080 H 101.62 -1.32727 2.9425 0
M  V30 1081 H 100.672 0.97888 3.6759 0
M  V30 1082 H 101.984 1.0703 4.87182 0
M  V30 1083 H 101.138 -1.00695 5.98285 0
M  V30 1084 H 99.8769 -1.18646 4.73048 0
M  V30 1085 H 98.8819 1.01813 5.40291 0
M  V30 1086 H 100.107 1.18409 6.68697 0
M  V30 1087 H 98.0529 -1.04994 6.47543 0
M  V30 1088 H 97.9699 0.304262 7.55387 0
M  V30 1089 H 99.2379 -0.869224 7.74638 0
M  V30 1090 N 103.467 -1.45747 0.599634 0
M  V30 1091 C 104.399 -2.28628 -0.161879 0
M  V30 1092 C 105.412 -1.39494 -0.839367 0
M  V30 1093 O 106.601 -1.63941 -0.706089 0
M  V30 1094 C 103.701 -3.15014 -1.24976 0
M  V30 1095 C 102.874 -4.32378 -0.660935 0
M  V30 1096 C 101.933 -5.00033 -1.63869 0
M  V30 1097 O 100.959 -5.57085 -1.1681 0
M  V30 1098 N 102.161 -4.98589 -2.97303 0
M  V30 1099 H 104.926 -2.94624 0.549265 0
M  V30 1100 H 102.487 -1.55847 0.438565 0
M  V30 1101 H 104.479 -3.5714 -1.9035 0
M  V30 1102 H 103.049 -2.5098 -1.86354 0
M  V30 1103 H 102.269 -3.9383 0.170688 0
M  V30 1104 H 103.557 -5.08197 -0.247619 0
M  V30 1105 H 102.955 -4.53514 -3.38145 0
M  V30 1106 H 101.512 -5.44603 -3.58121 0
M  V30 1107 N 104.945 -0.338344 -1.53925 0
M  V30 1108 C 106.194 0.260732 -2.00008 0
M  V30 1109 C 106.507 1.52073 -1.23017 0
M  V30 1110 O 107.713 2.19672 -1.5955 0
M  V30 1111 C 106.169 0.51515 -3.56194 0
M  V30 1112 C 105.777 -0.728645 -4.42035 0
M  V30 1113 C 107.521 1.07337 -4.10706 0
M  V30 1114 C 105.428 -0.445315 -5.89721 0
M  V30 1115 H 104.358 0.101205 -0.747177 0
M  V30 1116 H 107.009 -0.452866 -1.77824 0
M  V30 1117 H 105.391 1.28932 -3.74423 0
M  V30 1118 H 106.565 -1.50352 -4.35581 0
M  V30 1119 H 104.88 -1.20813 -3.98489 0
M  V30 1120 H 107.477 1.30022 -5.18651 0
M  V30 1121 H 107.82 2.0273 -3.63602 0
M  V30 1122 H 108.353 0.360034 -3.96167 0
M  V30 1123 H 105.092 -1.36883 -6.41049 0
M  V30 1124 H 104.612 0.291569 -5.99091 0
M  V30 1125 H 106.291 -0.0606218 -6.46972 0
M  V30 1126 N 106.423 1.57458 -0.0668435 0
M  V30 1127 C 107.353 2.15468 0.899764 0
M  V30 1128 C 108.334 1.08042 1.31381 0
M  V30 1129 O 109.519 1.36054 1.38574 0
M  V30 1130 C 106.649 2.71232 2.16911 0
M  V30 1131 C 105.603 3.83781 1.89463 0
M  V30 1132 C 104.929 4.26127 3.22986 0
M  V30 1133 C 106.229 5.08238 1.20381 0
M  V30 1134 H 107.923 2.96488 0.416529 0
M  V30 1135 H 105.469 1.4262 0.198908 0
M  V30 1136 H 107.422 3.10458 2.84945 0
M  V30 1137 H 106.146 1.87426 2.67468 0
M  V30 1138 H 104.805 3.45051 1.23836 0
M  V30 1139 H 104.453 3.39249 3.71374 0
M  V30 1140 H 104.153 5.01993 3.05413 0
M  V30 1141 H 105.677 4.67966 3.92225 0
M  V30 1142 H 107.091 5.44811 1.78475 0
M  V30 1143 H 105.488 5.89349 1.13083 0
M  V30 1144 H 106.558 4.84558 0.182153 0
M  V30 1145 N 107.901 -0.206675 1.56239 0
M  V30 1146 C 109.149 -0.927007 1.79586 0
M  V30 1147 C 109.47 -1.8427 0.637929 0
M  V30 1148 O 108.74 -1.92849 -0.344398 0
M  V30 1149 H 107.32 -0.345292 0.662407 0
M  V30 1150 H 109.982 -0.21496 1.93711 0
M  V30 1151 H 109.078 -1.52501 2.72305 0
M  V30 1152 N 109.379 -1.50304 -0.473955 0
M  V30 1153 C 110.311 -1.65109 -1.58971 0
M  V30 1154 C 111.324 -0.532676 -1.53839 0
M  V30 1155 O 112.513 -0.805751 -1.59279 0
M  V30 1156 C 109.613 -1.61684 -2.97845 0
M  V30 1157 C 108.786 -2.8951 -3.27876 0
M  V30 1158 C 107.845 -2.78768 -4.4629 0
M  V30 1159 O 106.871 -3.52722 -4.46739 0
M  V30 1160 N 108.073 -1.9213 -5.47783 0
M  V30 1161 H 110.838 -2.61347 -1.46689 0
M  V30 1162 H 108.399 -1.47732 -0.662324 0
M  V30 1163 H 110.391 -1.52114 -3.75024 0
M  V30 1164 H 108.961 -0.731925 -3.03911 0
M  V30 1165 H 108.181 -3.13228 -2.39336 0
M  V30 1166 H 109.469 -3.74199 -3.4475 0
M  V30 1167 H 108.867 -1.31353 -5.50239 0
M  V30 1168 H 107.424 -1.88466 -6.23958 0
M  V30 1169 N 110.857 0.726932 -1.39834 0
M  V30 1170 C 111.787 1.85405 -1.41941 0
M  V30 1171 C 112.768 1.67751 -0.281728 0
M  V30 1172 O 113.953 1.8795 -0.488717 0
M  V30 1173 C 111.083 3.23243 -1.2701 0
M  V30 1174 C 110.037 3.55549 -2.38262 0
M  V30 1175 C 109.363 4.9241 -2.08415 0
M  V30 1176 C 110.663 3.577 -3.80589 0
M  V30 1177 H 112.357 1.83899 -2.36266 0
M  V30 1178 H 109.903 0.883349 -1.13723 0
M  V30 1179 H 111.856 4.01775 -1.27103 0
M  V30 1180 H 110.58 3.25296 -0.291564 0
M  V30 1181 H 109.239 2.79351 -2.37399 0
M  V30 1182 H 108.887 4.91052 -1.0898 0
M  V30 1183 H 108.587 5.14992 -2.82943 0
M  V30 1184 H 110.111 5.73289 -2.10171 0
M  V30 1185 H 111.525 4.26293 -3.83337 0
M  V30 1186 H 109.922 3.91804 -4.54543 0
M  V30 1187 H 110.992 2.57328 -4.10987 0
M  V30 1188 N 112.336 1.25143 0.95797 0
M  V30 1189 C 113.613 1.00472 1.67823 0
M  V30 1190 C 113.993 -0.470056 2.058 0
M  V30 1191 O 113.341 -1.44663 1.76875 0
M  V30 1192 C 113.551 1.9372 2.90299 0
M  V30 1193 C 114.899 2.21371 3.62326 0
M  V30 1194 O 115.923 1.91451 3.00375 0
M  V30 1195 O 114.782 2.72231 4.7387 0
M  V30 1196 H 111.876 0.380752 0.734137 0
M  V30 1197 H 114.422 1.36283 1.01119 0
M  V30 1198 H 113.194 2.93316 2.59001 0
M  V30 1199 H 112.817 1.58286 3.64735 0
M  V30 1200 N 113.814 -1.1601 1.06675 0
M  V30 1201 C 115.062 -1.86264 0.784229 0
M  V30 1202 C 115.383 -1.82328 -0.691488 0
M  V30 1203 O 114.653 -1.25947 -1.50047 0
M  V30 1204 H 113.233 -0.689621 0.28711 0
M  V30 1205 H 115.895 -1.40664 1.34906 0
M  V30 1206 H 114.991 -2.91595 1.11259 0
M  V30 1207 N 115.292 -0.849877 -1.32721 0
M  V30 1208 C 116.54 -0.450032 -1.97026 0
M  V30 1209 C 116.861 0.996604 -1.67609 0
M  V30 1210 O 116.131 1.6958 -0.980786 0
M  V30 1211 H 114.711 -0.163426 -0.728904 0
M  V30 1212 H 117.373 -1.08526 -1.6189 0
M  V30 1213 H 116.469 -0.591146 -3.0645 0
M  V30 1214 N 116.77 1.45427 -0.607355 0
M  V30 1215 C 117.995 2.07124 -0.107006 0
M  V30 1216 C 118.42 1.44906 1.19933 0
M  V30 1217 O 117.778 0.541687 1.73019 0
M  V30 1218 C 117.826 3.60595 0.0194119 0
M  V30 1219 O 116.93 3.98285 1.0697 0
M  V30 1220 H 116.271 0.659868 -0.0739597 0
M  V30 1221 H 118.801 1.86683 -0.837297 0
M  V30 1222 H 118.811 4.07419 0.2177 0
M  V30 1223 H 117.486 4.05266 -0.934453 0
M  V30 1224 H 116.063 3.63133 0.847889 0
M  V30 1225 N 118.248 0.346503 1.53744 0
M  V30 1226 C 119.494 -0.249473 2.0126 0
M  V30 1227 C 119.827 -1.49965 1.23386 0
M  V30 1228 O 119.102 -1.91811 0.32229 0
M  V30 1229 C 119.385 -0.560643 3.55709 0
M  V30 1230 C 119.238 0.701836 4.44291 0
M  V30 1231 C 120.557 -1.36905 4.18264 0
M  V30 1232 H 117.676 -0.0891987 0.731582 0
M  V30 1233 H 120.318 0.467624 1.84156 0
M  V30 1234 H 118.468 -1.17156 3.70414 0
M  V30 1235 H 120.14 1.33974 4.41417 0
M  V30 1236 H 118.383 1.32612 4.13033 0
M  V30 1237 H 119.054 0.43933 5.50249 0
M  V30 1238 H 121.53 -0.852448 4.07275 0
M  V30 1239 H 120.406 -1.55553 5.26398 0
M  V30 1240 H 120.667 -2.37203 3.73078 0
M  V30 1241 N 119.726 -1.57421 0.075193 0
M  V30 1242 C 120.689 -2.11791 -0.876203 0
M  V30 1243 C 121.689 -1.04268 -1.22412 0
M  V30 1244 O 122.879 -1.30242 -1.15684 0
M  V30 1245 C 120.011 -2.62207 -2.17854 0
M  V30 1246 H 121.204 -2.9716 -0.40444 0
M  V30 1247 H 118.757 -1.55333 -0.173557 0
M  V30 1248 H 119.492 -1.803 -2.6956 0
M  V30 1249 H 119.277 -3.40802 -1.93897 0
M  V30 1250 H 120.767 -3.04335 -2.85955 0
M  V30 1251 N 121.204 0.198386 -1.56346 0
M  V30 1252 C 122.45 0.920648 -1.80698 0
M  V30 1253 C 122.783 1.83045 -0.648697 0
M  V30 1254 O 122.058 1.91308 0.350925 0
M  V30 1255 C 122.341 1.73971 -3.15287 0
M  V30 1256 C 122.194 0.85485 -4.41602 0
M  V30 1257 C 123.513 2.71296 -3.46535 0
M  V30 1258 H 120.632 0.333261 -0.657348 0
M  V30 1259 H 123.274 0.188198 -1.89066 0
M  V30 1260 H 121.424 2.36416 -3.08285 0
M  V30 1261 H 123.096 0.245362 -4.60647 0
M  V30 1262 H 121.339 0.161398 -4.335 0
M  V30 1263 H 122.01 1.46286 -5.32264 0
M  V30 1264 H 124.486 2.18983 -3.53816 0
M  V30 1265 H 123.362 3.2569 -4.41834 0
M  V30 1266 H 123.623 3.5018 -2.69864 0
M  V30 1267 N 122.682 1.50554 0.465978 0
M  V30 1268 C 123.612 1.72722 1.57128 0
M  V30 1269 C 124.593 0.576294 1.6004 0
M  V30 1270 O 125.778 0.81598 1.76225 0
M  V30 1271 C 122.908 1.82605 2.95419 0
M  V30 1272 C 121.862 2.97835 3.07373 0
M  V30 1273 C 121.188 2.92867 4.47363 0
M  V30 1274 C 122.488 4.38265 2.84114 0
M  V30 1275 H 124.182 2.65267 1.38829 0
M  V30 1276 H 121.728 1.2765 0.666441 0
M  V30 1277 H 123.681 1.96698 3.72677 0
M  V30 1278 H 122.405 0.866858 3.14886 0
M  V30 1279 H 121.064 2.83401 2.3255 0
M  V30 1280 H 120.712 1.94783 4.63755 0
M  V30 1281 H 120.412 3.70227 4.56296 0
M  V30 1282 H 121.936 3.09015 5.26633 0
M  V30 1283 H 123.35 4.53198 3.51118 0
M  V30 1284 H 121.747 5.17115 3.04487 0
M  V30 1285 H 122.817 4.50281 1.7993 0
M  V30 1286 N 124.16 -0.719506 1.40217 0
M  V30 1287 C 125.571 -1.29848 1.34151 0
M  V30 1288 C 125.922 -1.96196 0.0131349 0
M  V30 1289 O 125.047 -1.973 -0.88892 0
M  V30 1290 C 125.642 -2.36118 2.42968 0
M  V30 1291 C 124.201 -2.8965 2.40374 0
M  V30 1292 C 123.348 -1.63393 2.24049 0
M  V30 1293 H 126.299 -0.51591 1.5008 0
M  V30 1294 H 126.32 -3.16871 2.10649 0
M  V30 1295 H 125.832 -1.878 3.39636 0
M  V30 1296 H 123.933 -3.42208 1.47392 0
M  V30 1297 H 124.046 -3.4171 3.35814 0
M  V30 1298 H 122.41 -1.88312 1.71495 0
M  V30 1299 H 123.193 -1.17104 3.2271 0
M  V30 1300 N 125.638 -1.25649 -0.95132 0
M  V30 1301 C 126.884 -1.10757 -1.69884 0
M  V30 1302 C 127.217 0.350061 -1.91019 0
M  V30 1303 O 126.492 1.25783 -1.48354 0
M  V30 1304 C 126.775 -1.86606 -3.07978 0
M  V30 1305 C 126.628 -3.40217 -2.94232 0
M  V30 1306 C 127.947 -1.65182 -4.07925 0
M  V30 1307 H 125.066 -0.40374 -0.616574 0
M  V30 1308 H 127.708 -1.54521 -1.10558 0
M  V30 1309 H 125.858 -1.49409 -3.58621 0
M  V30 1310 H 127.53 -3.87108 -2.50889 0
M  V30 1311 H 125.773 -3.67759 -2.30078 0
M  V30 1312 H 126.444 -3.88505 -3.92133 0
M  V30 1313 H 128.92 -1.9757 -3.66204 0
M  V30 1314 H 127.796 -2.20683 -5.02583 0
M  V30 1315 H 128.057 -0.593933 -4.38092 0
M  V30 1316 N 127.117 1.15442 -1.07289 0
M  V30 1317 C 128.366 1.85557 -0.790669 0
M  V30 1318 C 128.679 1.83186 0.685739 0
M  V30 1319 O 129.885 2.48977 1.0827 0
M  V30 1320 C 128.341 3.33038 -1.36433 0
M  V30 1321 C 127.949 3.43856 -2.8717 0
M  V30 1322 C 129.693 4.0834 -1.1601 0
M  V30 1323 C 127.6 4.85482 -3.3773 0
M  V30 1324 H 126.53 0.695122 -0.292098 0
M  V30 1325 H 129.181 1.30219 -1.29287 0
M  V30 1326 H 127.563 3.88043 -0.789864 0
M  V30 1327 H 128.737 2.98961 -3.50655 0
M  V30 1328 H 127.052 2.81998 -3.06376 0
M  V30 1329 H 129.649 5.12859 -1.51262 0
M  V30 1330 H 129.992 4.16182 -0.0991007 0
M  V30 1331 H 130.525 3.59603 -1.70089 0
M  V30 1332 H 127.264 4.82823 -4.43353 0
M  V30 1333 H 126.784 5.30961 -2.78999 0
M  V30 1334 H 128.463 5.54335 -3.33648 0
M  V30 1335 N 128.595 0.856903 1.32268 0
M  V30 1336 C 129.872 0.382583 1.91822 0
M  V30 1337 C 130.252 -1.13407 1.78051 0
M  V30 1338 O 129.6 -1.95673 1.18001 0
M  V30 1339 C 129.81 0.849446 3.38505 0
M  V30 1340 C 131.158 0.867936 4.15634 0
M  V30 1341 O 132.182 0.794232 3.47232 0
M  V30 1342 O 131.041 0.972286 5.37781 0
M  V30 1343 H 128.135 0.112014 0.819379 0
M  V30 1344 H 130.681 0.943952 1.41024 0
M  V30 1345 H 129.453 1.89267 3.42482 0
M  V30 1346 H 129.076 0.265652 3.96712 0
M  V30 1347 N 130.073 -1.45103 0.615059 0
M  V30 1348 C 131.298 -2.07064 0.117988 0
M  V30 1349 C 131.723 -1.4554 -1.19163 0
M  V30 1350 O 131.081 -0.550855 -1.72729 0
M  V30 1351 C 131.129 -3.606 -0.000288387 0
M  V30 1352 O 130.233 -3.98847 -1.04856 0
M  V30 1353 H 129.574 -0.659467 0.0774581 0
M  V30 1354 H 132.104 -1.86236 0.847186 0
M  V30 1355 H 132.114 -4.07529 -0.196091 0
M  V30 1356 H 130.789 -4.04765 0.955932 0
M  V30 1357 H 129.366 -3.63577 -0.828619 0
M  V30 1358 N 131.551 -0.354651 -1.53558 0
M  V30 1359 C 132.779 0.239515 -2.05509 0
M  V30 1360 C 133.194 1.4333 -1.2289 0
M  V30 1361 O 132.551 1.80538 -0.266899 0
M  V30 1362 C 132.602 0.643719 -3.55723 0
M  V30 1363 O 132.323 -0.502602 -4.35207 0
M  V30 1364 C 133.824 1.29743 -4.23889 0
M  V30 1365 H 131.044 0.0442697 -0.669538 0
M  V30 1366 H 133.588 -0.509856 -1.98042 0
M  V30 1367 H 131.743 1.34302 -3.63376 0
M  V30 1368 H 132.157 -0.178172 -5.24197 0
M  V30 1369 H 133.631 1.53091 -5.30346 0
M  V30 1370 H 134.108 2.25441 -3.76926 0
M  V30 1371 H 134.714 0.639865 -4.20459 0
M  V30 1372 N 133.029 1.57378 -0.0835403 0
M  V30 1373 C 133.977 2.14602 0.89714 0
M  V30 1374 C 134.971 1.08589 1.30018 0
M  V30 1375 O 136.177 1.26952 1.27606 0
M  V30 1376 H 132.552 0.686346 0.3073 0
M  V30 1377 H 134.523 2.95845 0.38969 0
M  V30 1378 C 133.272 2.73188 2.15089 0
M  V30 1379 H 132.595 3.54442 1.84962 0
M  V30 1380 H 134.035 3.1681 2.81793 0
M  V30 1381 C 132.494 1.68517 2.91725 0
M  V30 1382 O 133.024 1.11718 3.85852 0
M  V30 1383 N 131.23 1.39277 2.55049 0
M  V30 1384 H 130.777 1.85655 1.78577 0
M  V30 1385 H 130.735 0.694791 3.06627 0
M  V30 1386 N 134.507 -0.190092 1.56449 0
M  V30 1387 C 135.439 -1.25973 1.91477 0
M  V30 1388 C 136.452 -1.41452 0.805931 0
M  V30 1389 O 137.641 -1.41789 1.08435 0
M  V30 1390 C 134.741 -2.63117 2.13594 0
M  V30 1391 C 133.914 -2.69182 3.4476 0
M  V30 1392 C 132.973 -3.87557 3.5593 0
M  V30 1393 O 131.999 -3.74427 4.28711 0
M  V30 1394 N 133.201 -5.03224 2.89388 0
M  V30 1395 H 135.966 -0.962394 2.83828 0
M  V30 1396 H 133.527 -0.379981 1.57378 0
M  V30 1397 H 135.519 -3.40742 2.1835 0
M  V30 1398 H 134.089 -2.85319 1.27719 0
M  V30 1399 H 133.309 -1.77793 3.51828 0
M  V30 1400 H 134.597 -2.70229 4.31107 0
M  V30 1401 H 133.995 -5.16791 2.30094 0
M  V30 1402 H 132.552 -5.78778 2.99764 0
M  V30 1403 N 135.985 -1.50799 -0.457987 0
M  V30 1404 C 137.215 -1.65977 -1.23025 0
M  V30 1405 C 137.623 -0.347918 -1.85974 0
M  V30 1406 O 136.966 0.68148 -1.70592 0
M  V30 1407 C 137.028 -2.70309 -2.3701 0
M  V30 1408 C 136.692 -4.135 -1.94594 0
M  V30 1409 C 137.689 -4.98949 -1.46101 0
M  V30 1410 C 135.374 -4.5949 -2.02915 0
M  V30 1411 C 137.368 -6.28442 -1.06489 0
M  V30 1412 C 135.055 -5.88984 -1.62914 0
M  V30 1413 C 136.053 -6.73286 -1.1478 0
M  V30 1414 O 135.741 -8.00362 -0.75339 0
M  V30 1415 H 135.473 -0.56064 -0.377702 0
M  V30 1416 H 138.027 -1.97857 -0.551537 0
M  V30 1417 H 136.257 -2.337 -3.08093 0
M  V30 1418 H 137.946 -2.74574 -2.98938 0
M  V30 1419 H 138.712 -4.6463 -1.39084 0
M  V30 1420 H 134.591 -3.94009 -2.39328 0
M  V30 1421 H 138.135 -6.94194 -0.688488 0
M  V30 1422 H 134.032 -6.22822 -1.69595 0
M  V30 1423 H 134.8 -8.13744 -0.88108 0
M  V30 1424 N 137.463 0.71206 -1.40597 0
M  V30 1425 C 138.393 1.83889 -1.43899 0
M  V30 1426 C 139.374 1.67442 -0.299504 0
M  V30 1427 O 140.559 1.87421 -0.508624 0
M  V30 1428 C 137.689 3.21877 -1.30431 0
M  V30 1429 C 136.643 3.53002 -2.42019 0
M  V30 1430 C 135.969 4.90172 -2.13626 0
M  V30 1431 C 137.269 3.53643 -3.84362 0
M  V30 1432 H 138.963 1.81383 -2.38203 0
M  V30 1433 H 136.509 0.871237 -1.14654 0
M  V30 1434 H 138.462 4.00404 -1.31357 0
M  V30 1435 H 137.186 3.24968 -0.326049 0
M  V30 1436 H 135.845 2.76818 -2.40349 0
M  V30 1437 H 135.493 4.89869 -1.14182 0
M  V30 1438 H 135.193 5.11962 -2.88389 0
M  V30 1439 H 136.717 5.71028 -2.1624 0
M  V30 1440 H 138.131 4.22203 -3.87837 0
M  V30 1441 H 136.528 3.86961 -4.58673 0
M  V30 1442 H 137.598 2.52954 -4.13693 0
M  V30 1443 N 138.941 1.26152 0.944643 0
M  V30 1444 C 139.871 1.09902 2.06019 0
M  V30 1445 C 140.852 0.00519538 1.70099 0
M  V30 1446 O 142.037 0.176583 1.93396 0
M  V30 1447 C 139.167 0.727562 3.39594 0
M  V30 1448 C 138.121 1.77274 3.89561 0
M  V30 1449 C 137.447 1.25569 5.19747 0
M  V30 1450 C 138.747 3.17357 4.14827 0
M  V30 1451 H 140.441 2.03217 2.19871 0
M  V30 1452 H 137.987 0.978452 1.05652 0
M  V30 1453 H 139.94 0.600777 4.17095 0
M  V30 1454 H 138.664 -0.241287 3.25707 0
M  V30 1455 H 137.323 1.88814 3.14237 0
M  V30 1456 H 136.971 0.276783 5.02238 0
M  V30 1457 H 136.671 1.95433 5.54148 0
M  V30 1458 H 138.195 1.1415 5.99835 0
M  V30 1459 H 139.609 3.08914 4.82954 0
M  V30 1460 H 138.006 3.84781 4.60504 0
M  V30 1461 H 139.076 3.63673 3.20734 0
M  V30 1462 N 140.419 -1.14872 1.07899 0
M  V30 1463 C 141.696 -1.81928 0.71845 0
M  V30 1464 C 142.076 -1.95417 -0.798455 0
M  V30 1465 O 141.424 -1.50997 -1.715 0
M  V30 1466 C 141.634 -3.17937 1.43935 0
M  V30 1467 C 142.982 -3.93501 1.59506 0
M  V30 1468 O 144.006 -3.27509 1.40058 0
M  V30 1469 O 142.865 -5.1183 1.91551 0
M  V30 1470 H 139.959 -0.78628 0.256305 0
M  V30 1471 H 142.505 -1.21934 1.18026 0
M  V30 1472 H 141.277 -3.0325 2.47295 0
M  V30 1473 H 140.9 -3.85619 0.968687 0
M  V30 1474 N 141.898 -0.863906 -1.31812 0
M  V30 1475 C 143.314 -0.555004 -1.49639 0
M  V30 1476 C 143.514 0.912266 -1.79666 0
M  V30 1477 O 142.57 1.69479 -1.87171 0
M  V30 1478 C 143.883 -1.44998 -2.63431 0
M  V30 1479 C 145.431 -1.45138 -2.77316 0
M  V30 1480 C 145.906 -2.33179 -3.94197 0
M  V30 1481 N 147.397 -2.31025 -4.01474 0
M  V30 1482 C 148.132 -2.95871 -4.9117 0
M  V30 1483 N 147.628 -3.69863 -5.8581 0
M  V30 1484 N 149.421 -2.85211 -4.84367 0
M  V30 1485 H 141.572 -1.81339 -1.10589 0
M  V30 1486 H 143.835 -0.77505 -0.545895 0
M  V30 1487 H 143.541 -2.49377 -2.48 0
M  V30 1488 H 143.415 -1.14409 -3.59431 0
M  V30 1489 H 145.802 -0.415201 -2.92164 0
M  V30 1490 H 145.883 -1.79747 -1.82001 0
M  V30 1491 H 145.527 -3.3687 -3.80107 0
M  V30 1492 H 145.457 -1.95897 -4.88807 0
M  V30 1493 H 147.948 -1.77238 -3.33759 0
M  V30 1494 H 148.261 -4.16486 -6.50968 0
M  V30 1495 H 146.606 -3.73971 -5.85808 0
M  V30 1496 H 149.797 -2.26948 -4.09405 0
M  V30 1497 H 149.97 -3.36027 -5.54066 0
M  V30 1498 N 143.376 1.44774 -0.622745 0
M  V30 1499 C 144.625 2.01334 -0.121397 0
M  V30 1500 C 144.938 1.49505 1.26125 0
M  V30 1501 O 146.144 1.98139 1.85616 0
M  V30 1502 C 144.6 3.59516 -0.166298 0
M  V30 1503 C 144.208 4.20342 -1.54974 0
M  V30 1504 C 145.952 4.23582 0.279021 0
M  V30 1505 C 143.859 5.70721 -1.55021 0
M  V30 1506 H 142.789 0.752851 -0.0416172 0
M  V30 1507 H 145.44 1.66083 -0.780309 0
M  V30 1508 H 143.822 3.92027 0.559557 0
M  V30 1509 H 144.996 3.99381 -2.29851 0
M  V30 1510 H 143.311 3.68529 -1.93843 0
M  V30 1511 H 145.908 5.33868 0.298083 0
M  V30 1512 H 146.251 3.95327 1.30471 0
M  V30 1513 H 146.784 3.95843 -0.394063 0
M  V30 1514 H 143.523 6.03698 -2.55399 0
M  V30 1515 H 143.043 5.93829 -0.844245 0
M  V30 1516 H 144.722 6.34203 -1.28047 0
M  V30 1517 N 144.854 0.36279 1.53368 0
M  V30 1518 C 146.102 -0.227326 2.00817 0
M  V30 1519 C 146.423 -1.49511 1.25186 0
M  V30 1520 O 145.693 -1.92482 0.364348 0
M  V30 1521 H 144.273 -0.0869923 0.741917 0
M  V30 1522 H 146.935 0.488381 1.88682 0
M  V30 1523 H 146.031 -0.456273 3.08747 0
M  V30 1524 N 146.332 -1.57332 0.0918853 0
M  V30 1525 C 147.242 -2.17368 -0.882505 0
M  V30 1526 C 148.258 -1.14226 -1.31257 0
M  V30 1527 O 149.434 -1.46582 -1.38115 0
M  V30 1528 C 146.499 -2.73962 -2.12476 0
M  V30 1529 C 145.56 -3.92048 -1.7492 0
M  V30 1530 C 144.793 -4.45933 -2.93223 0
M  V30 1531 O 145.016 -3.98764 -4.07852 0
M  V30 1532 O 143.95 -5.36999 -2.71875 0
M  V30 1533 H 147.776 -3.01031 -0.40172 0
M  V30 1534 H 145.361 -1.48813 -0.132291 0
M  V30 1535 H 147.243 -3.10147 -2.85283 0
M  V30 1536 H 145.918 -1.93347 -2.59613 0
M  V30 1537 H 144.825 -3.6068 -0.993025 0
M  V30 1538 H 146.158 -4.74017 -1.32548 0
M  V30 1539 N 147.81 0.181792 -1.56548 0
M  V30 1540 C 148.74 1.22765 -1.98623 0
M  V30 1541 C 149.721 1.46747 -0.860189 0
M  V30 1542 O 150.906 1.58259 -1.12551 0
M  V30 1543 C 148.036 2.56894 -2.33715 0
M  V30 1544 C 146.99 2.475 -3.49182 0
M  V30 1545 C 146.316 3.86023 -3.69986 0
M  V30 1546 C 147.616 1.98866 -4.82959 0
M  V30 1547 H 149.31 0.877942 -2.86239 0
M  V30 1548 H 146.856 0.42088 -1.37712 0
M  V30 1549 H 148.809 3.30253 -2.61746 0
M  V30 1550 H 147.533 2.93632 -1.42997 0
M  V30 1551 H 146.192 1.76596 -3.21262 0
M  V30 1552 H 145.84 4.20136 -2.76576 0
M  V30 1553 H 145.54 3.80609 -4.47672 0
M  V30 1554 H 147.064 4.60984 -4.00407 0
M  V30 1555 H 148.478 2.61992 -5.09934 0
M  V30 1556 H 146.875 2.04424 -5.64208 0
M  V30 1557 H 147.945 0.942465 -4.75653 0
M  V30 1558 N 149.288 1.51039 0.449983 0
M  V30 1559 C 150.235 1.71439 1.54523 0
M  V30 1560 C 151.205 0.555871 1.56522 0
M  V30 1561 O 152.39 0.788871 1.73728 0
M  V30 1562 C 149.53 1.83384 2.92343 0
M  V30 1563 C 148.643 3.10873 2.9997 0
M  V30 1564 C 147.778 3.13488 4.28834 0
M  V30 1565 C 146.817 4.35343 4.30282 0
M  V30 1566 N 145.954 4.35579 5.5065 0
M  V30 1567 H 150.794 2.64934 1.36433 0
M  V30 1568 H 148.331 1.31312 0.662982 0
M  V30 1569 H 150.289 1.88291 3.72293 0
M  V30 1570 H 148.919 0.933086 3.0902 0
M  V30 1571 H 147.971 3.15336 2.12761 0
M  V30 1572 H 149.283 4.00814 2.96901 0
M  V30 1573 H 148.437 3.17241 5.17149 0
M  V30 1574 H 147.176 2.21414 4.34543 0
M  V30 1575 H 146.181 4.3178 3.40362 0
M  V30 1576 H 147.406 5.28668 4.26248 0
M  V30 1577 H 145.352 3.46369 5.57104 0
M  V30 1578 H 145.269 5.19313 5.49409 0
M  V30 1579 H 146.537 4.43507 6.41032 0
M  V30 1580 N 150.766 -0.704594 1.40972 0
M  V30 1581 C 151.991 -1.49858 1.43378 0
M  V30 1582 C 152.416 -1.88061 0.038184 0
M  V30 1583 O 151.774 -1.5402 -0.956425 0
M  V30 1584 C 151.822 -2.74333 2.34038 0
M  V30 1585 O 150.926 -3.7147 1.7912 0
M  V30 1586 H 150.267 -0.45139 0.486974 0
M  V30 1587 H 152.797 -0.866832 1.8533 0
M  V30 1588 H 152.807 -3.22741 2.49604 0
M  V30 1589 H 151.482 -2.45863 3.35446 0
M  V30 1590 H 150.059 -3.30363 1.72958 0
M  V30 1591 N 152.244 -1.26651 -0.937939 0
M  V30 1592 C 153.492 -1.12165 -1.68118 0
M  V30 1593 C 153.813 0.334983 -1.92101 0
M  V30 1594 O 153.083 1.23583 -1.52 0
M  V30 1595 H 151.663 -0.412093 -0.623048 0
M  V30 1596 H 154.325 -1.59027 -1.12678 0
M  V30 1597 H 153.421 -1.64289 -2.6536 0
M  V30 1598 N 153.722 1.14298 -1.08507 0
M  V30 1599 C 154.999 1.81544 -0.728088 0
M  V30 1600 C 155.379 1.95838 0.78808 0
M  V30 1601 O 154.727 1.51904 1.70697 0
M  V30 1602 C 154.937 3.17169 -1.45619 0
M  V30 1603 C 156.285 3.9265 -1.61591 0
M  V30 1604 O 157.309 3.26762 -1.41793 0
M  V30 1605 O 156.168 5.10807 -1.94263 0
M  V30 1606 H 153.262 0.78491 -0.260471 0
M  V30 1607 H 155.808 1.21307 -1.18671 0
M  V30 1608 H 154.58 3.01934 -2.489 0
M  V30 1609 H 154.203 3.851 -0.989124 0
M  V30 1610 N 155.201 0.870884 1.31352 0
M  V30 1611 C 156.164 0.332243 2.26779 0
M  V30 1612 C 157.164 -0.517302 1.52252 0
M  V30 1613 O 158.354 -0.326477 1.71113 0
M  V30 1614 C 155.486 -0.528066 3.36785 0
M  V30 1615 H 156.679 1.17469 2.75937 0
M  V30 1616 H 154.232 0.64655 1.423 0
M  V30 1617 H 154.967 -1.39167 2.92922 0
M  V30 1618 H 154.752 0.0802582 3.92018 0
M  V30 1619 H 156.242 -0.897179 4.07849 0
M  V30 1620 N 156.679 -1.44442 0.630414 0
M  V30 1621 C 157.919 -2.03934 0.137919 0
M  V30 1622 C 158.283 -1.48509 -1.21692 0
M  V30 1623 O 159.484 -1.99499 -1.80149 0
M  V30 1624 C 157.755 -3.57187 0.123373 0
M  V30 1625 S 159.314 -4.37741 -0.304604 0
M  V30 1626 H 156.132 -0.708401 0.0607353 0
M  V30 1627 H 158.734 -1.76835 0.833643 0
M  V30 1628 H 157.438 -3.95032 1.11256 0
M  V30 1629 H 156.969 -3.88895 -0.59362 0
M  V30 1630 H 158.984 -4.71403 -1.54897 0
M  V30 1631 N 158.157 -0.370918 -1.53173 0
M  V30 1632 C 159.406 0.218249 -2.00516 0
M  V30 1633 C 159.719 1.49429 -1.26215 0
M  V30 1634 O 160.925 2.16239 -1.64174 0
M  V30 1635 C 159.381 0.43948 -3.57207 0
M  V30 1636 C 158.989 -0.822244 -4.4039 0
M  V30 1637 C 160.733 0.986012 -4.1289 0
M  V30 1638 C 158.64 -0.570304 -5.88644 0
M  V30 1639 H 157.57 0.0853333 -0.749156 0
M  V30 1640 H 160.221 -0.490483 -1.76823 0
M  V30 1641 H 158.603 1.20961 -3.77074 0
M  V30 1642 H 159.777 -1.59557 -4.32294 0
M  V30 1643 H 158.092 -1.29238 -3.95836 0
M  V30 1644 H 160.689 1.18991 -5.21292 0
M  V30 1645 H 161.032 1.94972 -3.6782 0
M  V30 1646 H 161.565 0.27592 -3.96842 0
M  V30 1647 H 158.304 -1.50449 -6.38001 0
M  V30 1648 H 157.824 0.164427 -5.99575 0
M  V30 1649 H 159.503 -0.19784 -6.46697 0
M  V30 1650 N 159.635 1.57281 -0.100228 0
M  V30 1651 C 160.598 2.13158 0.842398 0
M  V30 1652 C 161.598 1.06202 1.20738 0
M  V30 1653 O 162.788 1.32066 1.13597 0
M  V30 1654 C 159.92 2.65639 2.13655 0
M  V30 1655 H 161.113 2.97766 0.357114 0
M  V30 1656 H 158.666 1.5559 0.148823 0
M  V30 1657 H 159.401 1.84566 2.66657 0
M  V30 1658 H 159.186 3.43844 1.88451 0
M  V30 1659 H 160.676 3.08846 2.81077 0
M  V30 1660 N 161.113 -0.173488 1.56642 0
M  V30 1661 C 162.023 -1.23482 1.99473 0
M  V30 1662 C 163.039 -1.48567 0.905752 0
M  V30 1663 O 164.215 -1.60758 1.21321 0
M  V30 1664 C 161.28 -2.55444 2.34413 0
M  V30 1665 C 160.341 -2.38241 3.57127 0
M  V30 1666 C 159.574 -3.63909 3.90392 0
M  V30 1667 O 159.797 -4.68996 3.24653 0
M  V30 1668 O 158.731 -3.58149 4.83749 0
M  V30 1669 H 162.557 -0.901279 2.90018 0
M  V30 1670 H 160.142 -0.380185 1.44482 0
M  V30 1671 H 162.024 -3.33292 2.57865 0
M  V30 1672 H 160.699 -2.88382 1.4703 0
M  V30 1673 H 159.606 -1.58431 3.38896 0
M  V30 1674 H 160.939 -2.10228 4.45045 0
M  V30 1675 N 162.591 -1.51276 -0.441967 0
M  V30 1676 C 163.821 -1.67273 -1.21257 0
M  V30 1677 C 164.229 -0.367624 -1.85594 0
M  V30 1678 O 163.572 0.663349 -1.71305 0
M  V30 1679 C 163.634 -2.72807 -2.34129 0
M  V30 1680 C 163.298 -4.1554 -1.90198 0
M  V30 1681 C 164.295 -5.00471 -1.40801 0
M  V30 1682 C 161.98 -4.61616 -1.9803 0
M  V30 1683 C 163.974 -6.29536 -0.998174 0
M  V30 1684 C 161.661 -5.90679 -1.56658 0
M  V30 1685 C 162.659 -6.74466 -1.07633 0
M  V30 1686 O 162.347 -8.01116 -0.668459 0
M  V30 1687 H 162.079 -0.564614 -0.371734 0
M  V30 1688 H 164.633 -1.9843 -0.530521 0
M  V30 1689 H 162.863 -2.36954 -3.05597 0
M  V30 1690 H 164.552 -2.77729 -2.96009 0
M  V30 1691 H 165.318 -4.66079 -1.34148 0
M  V30 1692 H 161.197 -3.96526 -2.35135 0
M  V30 1693 H 164.741 -6.94885 -0.61482 0
M  V30 1694 H 160.638 -6.24586 -1.62979 0
M  V30 1695 H 161.406 -8.14633 -0.794722 0
M  V30 1696 N 164.069 0.697108 -1.41344 0
M  V30 1697 C 165.001 1.8224 -1.39001 0
M  V30 1698 C 166.014 1.60152 -0.292428 0
M  V30 1699 O 167.203 1.69684 -0.554048 0
M  V30 1700 C 164.303 3.18976 -1.14489 0
M  V30 1701 C 163.476 3.68105 -2.36258 0
M  V30 1702 C 162.535 4.83506 -2.07625 0
M  V30 1703 O 161.561 4.95201 -2.8065 0
M  V30 1704 N 162.763 5.70637 -1.06555 0
M  V30 1705 H 165.528 1.84742 -2.35988 0
M  V30 1706 H 163.089 0.87937 -1.35936 0
M  V30 1707 H 165.081 3.93801 -0.932885 0
M  V30 1708 H 163.651 3.11508 -0.261043 0
M  V30 1709 H 162.871 2.84204 -2.7317 0
M  V30 1710 H 164.159 3.97667 -3.17393 0
M  V30 1711 H 163.557 5.63817 -0.461125 0
M  V30 1712 H 162.114 6.45368 -0.913444 0
M  V30 1713 N 165.547 1.27147 0.931209 0
M  V30 1714 C 166.479 1.05364 2.03546 0
M  V30 1715 C 167.492 0.0108438 1.62796 0
M  V30 1716 O 168.681 0.25202 1.76712 0
M  V30 1717 C 165.781 0.575566 3.33977 0
M  V30 1718 C 164.954 1.68985 4.03439 0
M  V30 1719 C 164.013 1.20813 5.12143 0
M  V30 1720 O 163.039 1.90712 5.363 0
M  V30 1721 N 164.241 0.0618851 5.80467 0
M  V30 1722 H 167.006 2.00454 2.22796 0
M  V30 1723 H 164.567 1.18666 1.10136 0
M  V30 1724 H 166.559 0.237264 4.04004 0
M  V30 1725 H 165.129 -0.282016 3.11325 0
M  V30 1726 H 164.349 2.19861 3.27192 0
M  V30 1727 H 165.637 2.4378 4.46597 0
M  V30 1728 H 165.035 -0.521621 5.6329 0
M  V30 1729 H 163.592 -0.217264 6.51438 0
M  V30 1730 N 167.025 -1.13721 1.09112 0
M  V30 1731 C 167.988 -2.17222 0.731241 0
M  V30 1732 C 168.988 -1.59035 -0.237566 0
M  V30 1733 O 170.178 -1.74192 -0.0161704 0
M  V30 1734 C 167.31 -3.40804 0.0808443 0
M  V30 1735 H 168.503 -2.50573 1.64783 0
M  V30 1736 H 166.056 -1.28493 0.889897 0
M  V30 1737 H 166.791 -3.1304 -0.847127 0
M  V30 1738 H 166.576 -3.84306 0.777896 0
M  V30 1739 H 168.066 -4.1731 -0.155657 0
M  V30 1740 N 168.503 -0.877838 -1.30888 0
M  V30 1741 C 169.751 -0.491723 -1.96027 0
M  V30 1742 C 170.072 0.960827 -1.69685 0
M  V30 1743 O 169.342 1.67462 -1.01654 0
M  V30 1744 H 167.922 -0.17885 -0.725273 0
M  V30 1745 H 170.584 -1.11935 -1.59551 0
M  V30 1746 H 169.68 -0.656016 -3.05128 0
M  V30 1747 N 169.982 1.44106 -0.638065 0
M  V30 1748 C 171.398 1.56672 -0.304286 0
M  V30 1749 C 171.598 1.6244 1.19228 0
M  V30 1750 O 170.654 1.57121 1.9766 0
M  V30 1751 C 171.967 2.83503 -1.00231 0
M  V30 1752 C 173.515 2.97226 -0.981116 0
M  V30 1753 C 173.99 4.26868 -1.65974 0
M  V30 1754 N 175.481 4.33698 -1.62666 0
M  V30 1755 C 176.216 5.32745 -2.12063 0
M  V30 1756 N 175.712 6.38157 -2.6968 0
M  V30 1757 N 177.505 5.24299 -2.02651 0
M  V30 1758 H 169.656 1.38605 -1.60942 0
M  V30 1759 H 171.919 0.664661 -0.675965 0
M  V30 1760 H 171.625 2.85251 -2.0573 0
M  V30 1761 H 171.499 3.73251 -0.54439 0
M  V30 1762 H 173.886 2.95027 0.0654188 0
M  V30 1763 H 173.967 2.08808 -1.47759 0
M  V30 1764 H 173.611 4.29826 -2.70576 0
M  V30 1765 H 173.541 5.14156 -1.13804 0
M  V30 1766 H 176.032 3.58138 -1.20606 0
M  V30 1767 H 176.345 7.10029 -3.05087 0
M  V30 1768 H 174.69 6.38823 -2.73734 0
M  V30 1769 H 177.881 4.4086 -1.57353 0
M  V30 1770 H 178.054 6.01334 -2.41457 0
M  V30 1771 N 171.46 0.379036 1.52974 0
M  V30 1772 C 172.708 -0.206014 2.01047 0
M  V30 1773 C 173.029 -1.48175 1.26765 0
M  V30 1774 O 172.299 -1.92085 0.384743 0
M  V30 1775 H 170.879 -0.0791184 0.742798 0
M  V30 1776 H 173.541 0.508366 1.88153 0
M  V30 1777 H 172.637 -0.423501 3.09213 0
M  V30 1778 N 172.938 -1.57226 0.108567 0
M  V30 1779 C 174.354 -1.5766 -0.248058 0
M  V30 1780 C 174.554 -1.12063 -1.67464 0
M  V30 1781 O 173.61 -0.803236 -2.39383 0
M  V30 1782 C 174.923 -3.0069 -0.0242287 0
M  V30 1783 C 176.471 -3.12868 -0.0909372 0
M  V30 1784 C 176.946 -4.57879 0.105067 0
M  V30 1785 N 178.437 -4.63172 0.0506846 0
M  V30 1786 C 179.172 -5.73126 0.177396 0
M  V30 1787 N 178.668 -6.91866 0.359696 0
M  V30 1788 N 180.461 -5.61977 0.117709 0
M  V30 1789 H 172.612 -1.85169 1.04049 0
M  V30 1790 H 174.875 -0.85529 0.40888 0
M  V30 1791 H 174.581 -3.38299 0.961604 0
M  V30 1792 H 174.455 -3.6945 -0.76068 0
M  V30 1793 H 176.842 -2.75124 -1.06729 0
M  V30 1794 H 176.923 -2.46672 0.677225 0
M  V30 1795 H 176.567 -4.96321 1.07834 0
M  V30 1796 H 176.497 -5.22153 -0.682954 0
M  V30 1797 H 178.988 -3.778 -0.0871266 0
M  V30 1798 H 179.301 -7.71503 0.447529 0
M  V30 1799 H 177.646 -6.93874 0.395536 0
M  V30 1800 H 180.837 -4.68094 -0.0236741 0
M  V30 1801 H 181.01 -6.47627 0.219905 0
M  V30 1802 N 174.416 0.165178 -1.56732 0
M  V30 1803 C 175.832 0.517174 -1.50988 0
M  V30 1804 C 176.032 1.84331 -0.813894 0
M  V30 1805 O 175.088 2.49672 -0.37682 0
M  V30 1806 C 176.401 0.544261 -2.95733 0
M  V30 1807 C 177.949 0.631039 -3.06573 0
M  V30 1808 C 178.424 0.68896 -4.52788 0
M  V30 1809 N 179.915 0.751683 -4.5706 0
M  V30 1810 C 180.65 0.817177 -5.67547 0
M  V30 1811 N 180.146 0.843129 -6.8765 0
M  V30 1812 N 181.939 0.856668 -5.55534 0
M  V30 1813 H 174.09 -0.704318 -2.00382 0
M  V30 1814 H 176.353 -0.254687 -0.913148 0
M  V30 1815 H 176.059 -0.361607 -3.49836 0
M  V30 1816 H 175.933 1.3886 -3.5071 0
M  V30 1817 H 178.32 1.52733 -2.52501 0
M  V30 1818 H 178.401 -0.240095 -2.54671 0
M  V30 1819 H 178.045 -0.2031 -5.07494 0
M  V30 1820 H 177.975 1.57633 -5.02454 0
M  V30 1821 H 180.466 0.739661 -3.70591 0
M  V30 1822 H 180.779 0.894448 -7.67606 0
M  V30 1823 H 179.124 0.811304 -6.90248 0
M  V30 1824 H 182.315 0.833437 -4.60621 0
M  V30 1825 H 182.488 0.904247 -6.4166 0
M  V30 1826 N 175.894 1.51508 0.433938 0
M  V30 1827 C 177.142 1.6402 1.18075 0
M  V30 1828 C 177.463 0.360328 1.91642 0
M  V30 1829 O 176.733 -0.623945 1.85698 0
M  V30 1830 H 175.313 0.6045 0.43885 0
M  V30 1831 H 177.975 1.88452 0.497178 0
M  V30 1832 H 177.071 2.46949 1.90847 0
M  V30 1833 N 177.372 -0.689602 1.41712 0
M  V30 1834 C 178.788 -1.00093 1.24312 0
M  V30 1835 C 178.988 -2.01036 0.136729 0
M  V30 1836 O 178.044 -2.47562 -0.496918 0
M  V30 1837 C 179.357 -1.51985 2.59463 0
M  V30 1838 C 180.905 -1.63838 2.66695 0
M  V30 1839 C 181.38 -2.1913 4.02177 0
M  V30 1840 N 182.871 -2.26483 4.04054 0
M  V30 1841 C 183.606 -2.70306 5.0569 0
M  V30 1842 N 183.102 -3.13691 6.17713 0
M  V30 1843 N 184.895 -2.69923 4.9305 0
M  V30 1844 H 177.046 -0.0210029 2.1239 0
M  V30 1845 H 179.309 -0.0718733 0.945272 0
M  V30 1846 H 179.015 -0.85269 3.41207 0
M  V30 1847 H 178.889 -2.50103 2.82362 0
M  V30 1848 H 181.276 -2.29664 1.85306 0
M  V30 1849 H 181.357 -0.642492 2.476 0
M  V30 1850 H 181.001 -1.53918 4.84016 0
M  V30 1851 H 180.931 -3.19482 4.18615 0
M  V30 1852 H 183.422 -1.95874 3.23174 0
M  V30 1853 H 183.735 -3.45773 6.9113 0
M  V30 1854 H 182.08 -3.11585 6.21241 0
M  V30 1855 H 185.271 -2.35382 4.04614 0
M  V30 1856 H 185.444 -3.03758 5.72394 0
M  V30 1857 N 178.85 -1.27639 -0.924453 0
M  V30 1858 C 179.797 -1.10644 -2.0255 0
M  V30 1859 C 180.767 -0.00658438 -1.66099 0
M  V30 1860 O 181.952 -0.16952 -1.90045 0
M  V30 1861 C 179.092 -0.76309 -3.36557 0
M  V30 1862 C 178.205 -1.94091 -3.85944 0
M  V30 1863 C 177.34 -1.53914 -5.08413 0
M  V30 1864 C 176.379 -2.68425 -5.50104 0
M  V30 1865 N 175.516 -2.28815 -6.63768 0
M  V30 1866 H 180.356 -2.04858 -2.16419 0
M  V30 1867 H 177.893 -1.01974 -1.06017 0
M  V30 1868 H 179.851 -0.544822 -4.13627 0
M  V30 1869 H 178.481 0.142102 -3.22487 0
M  V30 1870 H 177.533 -2.27162 -3.05125 0
M  V30 1871 H 178.845 -2.7998 -4.12811 0
M  V30 1872 H 177.999 -1.28231 -5.92994 0
M  V30 1873 H 176.738 -0.651391 -4.8333 0
M  V30 1874 H 175.743 -2.94819 -4.64071 0
M  V30 1875 H 176.968 -3.57826 -5.7718 0
M  V30 1876 H 174.914 -1.42495 -6.40337 0
M  V30 1877 H 174.831 -3.08242 -6.90306 0
M  V30 1878 H 176.099 -2.06387 -7.51681 0
M  V30 1879 N 180.328 1.1314 -1.09713 0
M  V30 1880 C 181.574 1.84967 -0.846104 0
M  V30 1881 C 181.929 1.82082 0.621601 0
M  V30 1882 O 181.222 1.2501 1.452 0
M  V30 1883 C 181.416 3.32167 -1.3191 0
M  V30 1884 C 181.245 3.49386 -2.83125 0
M  V30 1885 C 180.015 3.63456 -3.51038 0
M  V30 1886 C 182.213 3.45179 -3.81256 0
M  V30 1887 N 180.195 3.68966 -4.9065 0
M  V30 1888 C 181.566 3.57094 -5.06837 0
M  V30 1889 C 183.621 3.28598 -3.74069 0
M  V30 1890 C 182.324 3.5414 -6.26081 0
M  V30 1891 C 184.35 3.26953 -4.92804 0
M  V30 1892 C 183.712 3.39422 -6.17229 0
M  V30 1893 H 179.811 0.692899 -0.362512 0
M  V30 1894 H 182.395 1.35506 -1.39808 0
M  V30 1895 H 180.566 3.80186 -0.794535 0
M  V30 1896 H 182.298 3.91815 -1.01308 0
M  V30 1897 H 179.053 3.65256 -3.01471 0
M  V30 1898 H 179.477 3.75404 -5.63383 0
M  V30 1899 H 184.119 3.17858 -2.78794 0
M  V30 1900 H 181.837 3.63653 -7.21653 0
M  V30 1901 H 185.423 3.15316 -4.88945 0
M  V30 1902 H 184.303 3.38114 -7.07565 0
M  V30 1903 N 181.806 0.884767 1.30421 0
M  V30 1904 C 183.053 0.503105 1.96151 0
M  V30 1905 C 183.381 -0.947676 1.69851 0
M  V30 1906 O 182.636 -1.68467 0.995861 0
M  V30 1907 C 182.935 0.724318 3.49983 0
M  V30 1908 C 182.601 2.15015 3.96332 0
M  V30 1909 C 181.263 2.54005 4.08699 0
M  V30 1910 C 183.615 3.07936 4.20505 0
M  V30 1911 C 180.943 3.85128 4.42599 0
M  V30 1912 C 183.295 4.3859 4.55874 0
M  V30 1913 C 181.959 4.77474 4.66449 0
M  V30 1914 H 181.229 0.184099 0.717766 0
M  V30 1915 H 183.876 1.12058 1.55291 0
M  V30 1916 H 182.181 0.0238086 3.91793 0
M  V30 1917 H 183.878 0.408617 3.98913 0
M  V30 1918 H 180.468 1.8375 3.87213 0
M  V30 1919 H 184.652 2.79033 4.10431 0
M  V30 1920 H 179.908 4.14996 4.48986 0
M  V30 1921 H 184.082 5.10629 4.7353 0
M  V30 1922 H 181.709 5.79115 4.92473 0
M  V30 1923 N 183.284 -1.43765 0.645699 0
M  V30 1924 C 184.509 -2.06767 0.161883 0
M  V30 1925 C 184.934 -1.48034 -1.16049 0
M  V30 1926 O 184.292 -0.587369 -1.71522 0
M  V30 1927 C 184.34 -3.60519 0.0762003 0
M  V30 1928 O 183.444 -4.00982 -0.963721 0
M  V30 1929 H 182.785 -0.657675 0.091429 0
M  V30 1930 H 185.315 -1.84397 0.886499 0
M  V30 1931 H 185.325 -4.07853 -0.109604 0
M  V30 1932 H 184 -4.02646 1.04157 0
M  V30 1933 H 182.577 -3.65253 -0.751312 0
M  V30 1934 N 184.763 -0.387143 -1.52771 0
M  V30 1935 C 186.174 0.0873634 -1.86495 0
M  V30 1936 C 186.525 1.46336 -1.30691 0
M  V30 1937 O 185.65 2.068 -0.637409 0
M  V30 1938 C 186.245 0.165305 -3.38396 0
M  V30 1939 C 184.804 0.584101 -3.7184 0
M  V30 1940 C 183.951 -0.255279 -2.76122 0
M  V30 1941 H 186.902 -0.605104 -1.46711 0
M  V30 1942 H 186.923 0.984848 -3.67534 0
M  V30 1943 H 186.435 -0.836301 -3.78982 0
M  V30 1944 H 184.536 1.59315 -3.36823 0
M  V30 1945 H 184.649 0.343749 -4.77865 0
M  V30 1946 H 183.013 0.279126 -2.53166 0
M  V30 1947 H 183.796 -1.25482 -3.19545 0
M  V30 1948 N 186.241 1.57166 -0.116904 0
M  V30 1949 C 187.488 1.95123 0.541603 0
M  V30 1950 C 187.816 1.00006 1.6682 0
M  V30 1951 O 187.071 0.0235658 1.95686 0
M  V30 1952 C 187.37 3.39508 1.11664 0
M  V30 1953 C 187.036 4.50762 0.111606 0
M  V30 1954 C 185.698 4.80918 -0.164758 0
M  V30 1955 C 188.05 5.18036 -0.573438 0
M  V30 1956 C 185.378 5.75666 -1.13249 0
M  V30 1957 C 187.73 6.13824 -1.52978 0
M  V30 1958 C 186.394 6.42374 -1.81415 0
M  V30 1959 H 185.664 0.714005 0.198187 0
M  V30 1960 H 188.311 1.9048 -0.197365 0
M  V30 1961 H 186.616 3.40835 1.93232 0
M  V30 1962 H 188.313 3.66189 1.63422 0
M  V30 1963 H 184.903 4.27272 0.337192 0
M  V30 1964 H 189.087 4.94896 -0.373092 0
M  V30 1965 H 184.343 5.96092 -1.35958 0
M  V30 1966 H 188.517 6.65039 -2.06629 0
M  V30 1967 H 186.144 7.15599 -2.56557 0
M  V30 1968 N 187.719 -0.156864 1.56817 0
M  V30 1969 C 188.967 -0.869404 1.82444 0
M  V30 1970 C 189.288 -1.82147 0.69623 0
M  V30 1971 O 188.558 -1.93847 -0.28287 0
M  V30 1972 H 187.138 -0.324043 0.673056 0
M  V30 1973 H 189.8 -0.153224 1.94297 0
M  V30 1974 H 188.896 -1.43761 2.77019 0
M  V30 1975 N 189.197 -1.51736 -0.425897 0
M  V30 1976 C 190.16 -1.73271 -1.50032 0
M  V30 1977 C 191.16 -0.602639 -1.4908 0
M  V30 1978 O 192.35 -0.87033 -1.509 0
M  V30 1979 C 189.482 -1.79969 -2.89523 0
M  V30 1980 H 190.675 -2.69172 -1.32237 0
M  V30 1981 H 188.228 -1.41899 -0.65532 0
M  V30 1982 H 188.963 -0.859241 -3.1271 0
M  V30 1983 H 188.748 -2.62109 -2.91619 0
M  V30 1984 H 190.238 -1.9843 -3.67444 0
M  V30 1985 N 190.675 0.682077 -1.42076 0
M  V30 1986 C 191.623 1.81707 -1.45208 0
M  V30 1987 C 192.617 1.66183 -0.328591 0
M  V30 1988 O 193.823 1.7288 -0.501264 0
M  V30 1989 H 190.198 0.599014 -0.454628 0
M  V30 1990 H 192.169 1.76183 -2.40836 0
M  V30 1991 C 190.918 3.19816 -1.36428 0
M  V30 1992 H 190.241 3.32385 -2.22171 0
M  V30 1993 H 191.681 3.99272 -1.42681 0
M  V30 1994 C 190.14 3.36809 -0.078191 0
M  V30 1995 O 190.67 3.92124 0.87188 0
M  V30 1996 N 188.876 2.906 0.00229266 0
M  V30 1997 H 188.423 2.45772 -0.771616 0
M  V30 1998 H 188.381 3.02347 0.862179 0
M  V30 1999 N 192.153 1.28127 0.917671 0
M  V30 2000 C 193.083 1.14248 2.03641 0
M  V30 2001 C 194.064 0.0412748 1.7005 0
M  V30 2002 O 195.249 0.217566 1.92977 0
M  V30 2003 C 192.379 0.799431 3.37974 0
M  V30 2004 C 191.333 1.85497 3.85713 0
M  V30 2005 C 190.659 1.36565 5.16966 0
M  V30 2006 C 191.959 3.26085 4.08002 0
M  V30 2007 H 193.653 2.07835 2.15511 0
M  V30 2008 H 191.199 1.00064 1.03553 0
M  V30 2009 H 193.152 0.689114 4.15727 0
M  V30 2010 H 191.876 -0.172145 3.26146 0
M  V30 2011 H 190.535 1.95437 3.10161 0
M  V30 2012 H 190.183 0.383253 5.01538 0
M  V30 2013 H 189.883 2.07143 5.49878 0
M  V30 2014 H 191.407 1.26848 5.97279 0
M  V30 2015 H 192.821 3.19089 4.76293 0
M  V30 2016 H 191.218 3.94462 4.52238 0
M  V30 2017 H 192.288 3.70394 3.12948 0
M  V30 2018 N 193.631 -1.12557 1.10312 0
M  V30 2019 C 194.861 -1.87592 0.865617 0
M  V30 2020 C 195.269 -1.79851 -0.587389 0
M  V30 2021 O 194.612 -1.16949 -1.41664 0
M  V30 2022 C 194.674 -3.37665 1.23381 0
M  V30 2023 C 194.338 -3.69181 2.69359 0
M  V30 2024 C 195.335 -3.67652 3.67597 0
M  V30 2025 C 193.02 -3.98555 3.05711 0
M  V30 2026 C 195.014 -3.95053 5.00212 0
M  V30 2027 C 192.701 -4.25616 4.38514 0
M  V30 2028 C 193.699 -4.23851 5.35574 0
M  V30 2029 O 193.387 -4.50242 6.65986 0
M  V30 2030 H 193.119 -0.600442 0.310557 0
M  V30 2031 H 195.673 -1.4335 1.47105 0
M  V30 2032 H 193.903 -3.82454 0.571467 0
M  V30 2033 H 195.592 -3.94041 0.973994 0
M  V30 2034 H 196.358 -3.45024 3.40857 0
M  V30 2035 H 192.237 -3.99071 2.30789 0
M  V30 2036 H 195.781 -3.93591 5.75962 0
M  V30 2037 H 191.678 -4.47718 4.64994 0
M  V30 2038 H 192.446 -4.67867 6.71597 0
M  V30 2039 N 195.109 -0.891671 -1.2995 0
M  V30 2040 C 196.039 -0.379797 -2.30391 0
M  V30 2041 C 197.02 0.540919 -1.6127 0
M  V30 2042 O 198.205 0.453352 -1.88834 0
M  V30 2043 C 195.335 0.400654 -3.44981 0
M  V30 2044 C 194.289 -0.428905 -4.25846 0
M  V30 2045 C 193.615 0.478557 -5.32554 0
M  V30 2046 C 194.915 -1.67458 -4.94727 0
M  V30 2047 H 196.609 -1.21914 -2.73454 0
M  V30 2048 H 194.155 -0.587675 -1.31462 0
M  V30 2049 H 196.108 0.769434 -4.14316 0
M  V30 2050 H 194.832 1.27371 -3.0074 0
M  V30 2051 H 193.491 -0.779911 -3.58208 0
M  V30 2052 H 193.139 1.34951 -4.84559 0
M  V30 2053 H 192.839 -0.0727433 -5.87555 0
M  V30 2054 H 194.363 0.843705 -6.04743 0
M  V30 2055 H 195.777 -1.376 -5.56542 0
M  V30 2056 H 194.174 -2.16659 -5.59624 0
M  V30 2057 H 195.244 -2.41518 -4.20473 0
M  V30 2058 N 196.587 1.43421 -0.653314 0
M  V30 2059 C 197.812 2.06678 -0.172846 0
M  V30 2060 C 198.237 1.48648 1.15262 0
M  V30 2061 O 197.595 0.596457 1.71208 0
M  V30 2062 C 197.643 3.60474 -0.0953184 0
M  V30 2063 O 196.747 4.01487 0.942442 0
M  V30 2064 H 196.088 0.657181 -0.0949155 0
M  V30 2065 H 198.618 1.83925 -0.896265 0
M  V30 2066 H 198.628 4.07905 0.0879728 0
M  V30 2067 H 197.303 4.02088 -1.06291 0
M  V30 2068 H 195.88 3.65646 0.731932 0
M  V30 2069 N 198.065 0.39524 1.52563 0
M  V30 2070 C 198.998 -0.4813 2.23067 0
M  V30 2071 C 199.976 -1.05927 1.23362 0
M  V30 2072 O 201.16 -1.10979 1.52368 0
M  V30 2073 C 198.287 -1.66676 2.9485 0
M  V30 2074 C 197.333 -1.21348 4.08873 0
M  V30 2075 S 198.166 -0.190102 5.35162 0
M  V30 2076 C 199.322 -1.38121 6.1047 0
M  V30 2077 H 199.555 0.117381 2.97068 0
M  V30 2078 H 197.088 0.179458 1.53354 0
M  V30 2079 H 199.046 -2.3466 3.36816 0
M  V30 2080 H 197.707 -2.23676 2.20518 0
M  V30 2081 H 196.9 -2.09877 4.58222 0
M  V30 2082 H 196.502 -0.612486 3.68951 0
M  V30 2083 H 198.794 -2.30726 6.37002 0
M  V30 2084 H 199.737 -0.928521 7.01986 0
M  V30 2085 H 200.145 -1.60071 5.41329 0
M  V30 2086 N 199.544 -1.57102 0.125237 0
M  V30 2087 C 200.791 -1.95407 -0.531248 0
M  V30 2088 C 201.119 -1.0089 -1.66287 0
M  V30 2089 O 200.374 -0.0339431 -1.95671 0
M  V30 2090 C 200.673 -3.40096 -1.09862 0
M  V30 2091 C 200.339 -4.50815 -0.0876989 0
M  V30 2092 C 199.001 -4.80824 0.19026 0
M  V30 2093 C 201.353 -5.17724 0.600902 0
M  V30 2094 C 198.681 -5.75058 1.163 0
M  V30 2095 C 201.033 -6.13005 1.56231 0
M  V30 2096 C 199.697 -6.41403 1.8482 0
M  V30 2097 H 198.967 -0.715046 -0.194397 0
M  V30 2098 H 201.614 -1.90373 0.207463 0
M  V30 2099 H 199.919 -3.41855 -1.91422 0
M  V30 2100 H 201.616 -3.6705 -1.61478 0
M  V30 2101 H 198.206 -4.27444 -0.314528 0
M  V30 2102 H 202.39 -4.94691 0.399333 0
M  V30 2103 H 197.646 -5.95362 1.39117 0
M  V30 2104 H 201.82 -6.63934 2.10153 0
M  V30 2105 H 199.447 -7.14229 2.60349 0
M  V30 2106 N 201.022 0.148545 -1.56898 0
M  V30 2107 C 202.268 0.857877 -1.84424 0
M  V30 2108 C 202.623 1.7886 -0.709006 0
M  V30 2109 O 201.916 1.89344 0.293139 0
M  V30 2110 C 202.11 1.67064 -3.1595 0
M  V30 2111 C 201.939 0.82011 -4.42159 0
M  V30 2112 C 200.709 0.486328 -5.02954 0
M  V30 2113 C 202.907 0.151155 -5.14078 0
M  V30 2114 N 200.889 -0.377956 -6.12735 0
M  V30 2115 C 202.26 -0.573333 -6.17343 0
M  V30 2116 C 204.315 0.0716685 -4.97848 0
M  V30 2117 C 203.018 -1.3698 -7.06137 0
M  V30 2118 C 205.044 -0.711532 -5.87104 0
M  V30 2119 C 204.406 -1.42431 -6.8985 0
M  V30 2120 H 200.505 0.291798 -0.725519 0
M  V30 2121 H 203.089 0.123347 -1.94309 0
M  V30 2122 H 201.26 2.37642 -3.07215 0
M  V30 2123 H 202.992 2.32302 -3.31388 0
M  V30 2124 H 199.747 0.821753 -4.66416 0
M  V30 2125 H 200.171 -0.801077 -6.72244 0
M  V30 2126 H 204.813 0.608381 -4.184 0
M  V30 2127 H 202.531 -1.91778 -7.85014 0
M  V30 2128 H 206.117 -0.775005 -5.76615 0
M  V30 2129 H 204.997 -2.02061 -7.57721 0
M  V30 2130 N 202.5 1.5196 0.417844 0
M  V30 2131 C 203.916 1.40569 0.755816 0
M  V30 2132 C 204.116 0.503316 1.95113 0
M  V30 2133 O 203.172 -0.0341925 2.52477 0
M  V30 2134 C 204.485 2.82947 1.01791 0
M  V30 2135 C 206.033 2.92231 1.12116 0
M  V30 2136 C 206.508 4.35559 1.41608 0
M  V30 2137 N 207.999 4.38753 1.48491 0
M  V30 2138 C 208.734 5.46705 1.7292 0
M  V30 2139 N 208.23 6.64788 1.95011 0
M  V30 2140 N 210.023 5.34209 1.74863 0
M  V30 2141 H 202.174 2.09168 -0.369098 0
M  V30 2142 H 204.437 0.942409 -0.102809 0
M  V30 2143 H 204.143 3.5106 0.212081 0
M  V30 2144 H 204.017 3.23462 1.94042 0
M  V30 2145 H 206.404 2.24304 1.9176 0
M  V30 2146 H 206.485 2.55185 0.177225 0
M  V30 2147 H 206.129 5.04042 0.624848 0
M  V30 2148 H 206.059 4.70133 2.37239 0
M  V30 2149 H 208.55 3.5363 1.33244 0
M  V30 2150 H 208.863 7.42845 2.13076 0
M  V30 2151 H 207.208 6.67869 1.92293 0
M  V30 2152 H 210.399 4.40937 1.57137 0
M  V30 2153 H 210.572 6.18415 1.93563 0
M  V30 2154 N 203.978 -0.674533 1.42435 0
M  V30 2155 C 204.908 -1.80009 1.48724 0
M  V30 2156 C 205.889 -1.6659 0.343793 0
M  V30 2157 O 207.074 -1.86007 0.558137 0
M  V30 2158 C 204.204 -3.18306 1.38919 0
M  V30 2159 C 203.158 -3.46461 2.51294 0
M  V30 2160 C 202.484 -4.84335 2.26547 0
M  V30 2161 C 203.784 -3.43328 3.93603 0
M  V30 2162 H 205.478 -1.75004 2.42928 0
M  V30 2163 H 203.024 -0.840533 1.16923 0
M  V30 2164 H 204.977 -3.9678 1.41927 0
M  V30 2165 H 203.701 -3.2399 0.412094 0
M  V30 2166 H 202.36 -2.70348 2.47604 0
M  V30 2167 H 202.008 -4.86669 1.2713 0
M  V30 2168 H 201.708 -5.04136 3.01861 0
M  V30 2169 H 203.232 -5.65094 2.31304 0
M  V30 2170 H 204.646 -4.11772 3.98894 0
M  V30 2171 H 203.043 -3.74664 4.68771 0
M  V30 2172 H 204.113 -2.41897 4.20255 0
M  V30 2173 N 205.456 -1.28612 -0.910864 0
M  V30 2174 C 206.366 -1.14643 -2.0468 0
M  V30 2175 C 207.382 -0.0723121 -1.7385 0
M  V30 2176 O 208.558 -0.282178 -1.99413 0
M  V30 2177 C 205.623 -0.812561 -3.37044 0
M  V30 2178 C 204.684 -1.96935 -3.81465 0
M  V30 2179 C 203.917 -1.65131 -5.07511 0
M  V30 2180 O 204.14 -0.567013 -5.67575 0
M  V30 2181 O 203.074 -2.49585 -5.47714 0
M  V30 2182 H 206.9 -2.1001 -2.19384 0
M  V30 2183 H 204.485 -1.07958 -1.03274 0
M  V30 2184 H 206.367 -0.640441 -4.16505 0
M  V30 2185 H 205.042 0.111426 -3.23508 0
M  V30 2186 H 203.949 -2.19664 -3.02818 0
M  V30 2187 H 205.282 -2.87414 -3.99567 0
M  V30 2188 N 206.934 1.1197 -1.10907 0
M  V30 2189 C 207.866 2.17592 -0.720175 0
M  V30 2190 C 208.879 1.60938 0.245495 0
M  V30 2191 O 210.068 1.78476 0.0292245 0
M  V30 2192 C 207.168 3.38873 -0.0427917 0
M  V30 2193 C 206.341 4.25006 -1.03388 0
M  V30 2194 C 205.4 5.24774 -0.387075 0
M  V30 2195 O 204.426 5.59631 -1.03934 0
M  V30 2196 N 205.628 5.74208 0.852407 0
M  V30 2197 H 208.393 2.51567 -1.62893 0
M  V30 2198 H 205.954 1.27439 -0.998543 0
M  V30 2199 H 207.946 4.02703 0.401501 0
M  V30 2200 H 206.516 3.03007 0.768456 0
M  V30 2201 H 205.736 3.57716 -1.65629 0
M  V30 2202 H 207.024 4.79397 -1.70458 0
M  V30 2203 H 206.422 5.48062 1.40161 0
M  V30 2204 H 204.979 6.39901 1.23977 0
M  V30 2205 N 208.412 0.89855 1.29475 0
M  V30 2206 C 209.66 0.522847 1.9522 0
M  V30 2207 C 209.981 -0.93371 1.71192 0
M  V30 2208 O 209.251 -1.65823 1.04305 0
M  V30 2209 H 207.831 0.190366 0.722336 0
M  V30 2210 H 210.493 1.14459 1.5775 0
M  V30 2211 H 209.589 0.704476 3.04045 0
M  V30 2212 N 209.89 -1.43072 0.660911 0
M  V30 2213 C 211.301 -1.84932 0.256348 0
M  V30 2214 C 211.652 -1.55325 -1.19868 0
M  V30 2215 O 210.777 -1.00607 -1.91591 0
M  V30 2216 C 211.372 -3.35684 0.458475 0
M  V30 2217 C 209.931 -3.76245 0.108161 0
M  V30 2218 C 209.078 -2.66749 0.757641 0
M  V30 2219 H 212.029 -1.33116 0.864051 0
M  V30 2220 H 212.05 -3.79365 -0.293683 0
M  V30 2221 H 211.562 -3.572 1.51755 0
M  V30 2222 H 209.663 -3.60338 -0.948014 0
M  V30 2223 H 209.776 -4.76058 0.538992 0
M  V30 2224 H 208.14 -2.53989 0.190185 0
M  V30 2225 H 208.923 -2.91092 1.81989 0
M  V30 2226 N 211.368 -0.403325 -1.52352 0
M  V30 2227 C 212.331 0.413051 -2.25447 0
M  V30 2228 C 213.331 0.978513 -1.276 0
M  V30 2229 O 214.521 0.858305 -1.51587 0
M  V30 2230 C 211.653 1.58087 -3.02029 0
M  V30 2231 H 212.846 -0.227094 -2.99039 0
M  V30 2232 H 210.399 -0.155722 -1.55522 0
M  V30 2233 H 211.134 2.25804 -2.32772 0
M  V30 2234 H 210.919 1.18195 -3.73861 0
M  V30 2235 H 212.409 2.1585 -3.57489 0
M  V30 2236 N 212.846 1.57033 -0.133567 0
M  V30 2237 C 213.809 2.14897 0.796995 0
M  V30 2238 C 214.809 1.0874 1.18458 0
M  V30 2239 O 215.999 1.34446 1.1077 0
M  V30 2240 C 213.131 2.70112 2.07973 0
M  V30 2241 H 214.324 2.98457 0.293873 0
M  V30 2242 H 211.877 1.55871 0.115787 0
M  V30 2243 H 212.612 1.9018 2.62682 0
M  V30 2244 H 212.397 3.47764 1.81115 0
M  V30 2245 H 213.887 3.14738 2.74462 0
M  V30 2246 N 214.325 -0.140222 1.56975 0
M  V30 2247 C 215.288 -1.15689 1.97861 0
M  V30 2248 C 216.288 -1.3549 0.865974 0
M  V30 2249 O 217.478 -1.32367 1.13246 0
M  V30 2250 C 214.61 -2.51582 2.30042 0
M  V30 2251 H 215.803 -0.805971 2.88867 0
M  V30 2252 H 213.356 -0.383801 1.51515 0
M  V30 2253 H 214.091 -2.91632 1.41849 0
M  V30 2254 H 213.876 -2.38569 3.11171 0
M  V30 2255 H 215.366 -3.24792 2.62488 0
M  V30 2256 N 215.803 -1.52179 -0.40978 0
M  V30 2257 C 217.052 -1.65434 -1.15388 0
M  V30 2258 C 217.365 -0.390056 -1.91671 0
M  V30 2259 O 218.571 -0.402399 -2.68501 0
M  V30 2260 C 217.027 -2.92279 -2.10003 0
M  V30 2261 C 216.635 -4.25813 -1.39239 0
M  V30 2262 C 218.379 -3.14897 -2.84675 0
M  V30 2263 C 216.286 -5.43782 -2.32498 0
M  V30 2264 H 215.216 -0.616267 -0.434432 0
M  V30 2265 H 217.867 -1.78666 -0.418401 0
M  V30 2266 H 216.249 -2.72744 -2.871 0
M  V30 2267 H 217.423 -4.55828 -0.675099 0
M  V30 2268 H 215.738 -4.09292 -0.766097 0
M  V30 2269 H 218.335 -4.0021 -3.54593 0
M  V30 2270 H 218.678 -2.29103 -3.47588 0
M  V30 2271 H 219.211 -3.34901 -2.14677 0
M  V30 2272 H 215.95 -6.3192 -1.74233 0
M  V30 2273 H 215.47 -5.18106 -3.02201 0
M  V30 2274 H 217.149 -5.76834 -2.93038 0
M  V30 2275 N 217.281 0.66697 -1.42791 0
M  V30 2276 C 218.529 1.42417 -1.43394 0
M  V30 2277 C 218.85 1.94925 -0.0542373 0
M  V30 2278 O 218.12 1.73564 0.908415 0
M  V30 2279 H 216.7 0.528515 -0.527902 0
M  V30 2280 H 219.362 0.787562 -1.78279 0
M  V30 2281 H 218.458 2.27333 -2.13837 0
M  V30 2282 N 218.759 1.29093 0.90403 0
M  V30 2283 C 219.689 1.16401 2.02418 0
M  V30 2284 C 220.67 0.0593085 1.69997 0
M  V30 2285 O 221.855 0.238021 1.92736 0
M  V30 2286 C 218.985 0.835233 3.37107 0
M  V30 2287 C 217.939 1.89578 3.83724 0
M  V30 2288 C 217.265 1.42041 5.15489 0
M  V30 2289 C 218.565 3.30394 4.04521 0
M  V30 2290 H 220.259 2.10109 2.13295 0
M  V30 2291 H 217.805 1.01157 1.02486 0
M  V30 2292 H 219.758 0.733169 4.14973 0
M  V30 2293 H 218.482 -0.137543 3.2631 0
M  V30 2294 H 217.141 1.98715 3.08071 0
M  V30 2295 H 216.789 0.436426 5.01103 0
M  V30 2296 H 216.489 2.12964 5.4765 0
M  V30 2297 H 218.013 1.33176 5.959 0
M  V30 2298 H 219.427 3.24123 4.72882 0
M  V30 2299 H 217.824 3.99237 4.48029 0
M  V30 2300 H 218.894 3.73692 3.09002 0
M  V30 2301 N 220.237 -1.11381 1.11499 0
M  V30 2302 C 221.462 -1.87475 0.887019 0
M  V30 2303 C 221.887 -1.79639 -0.557796 0
M  V30 2304 O 221.245 -1.15924 -1.39396 0
M  V30 2305 C 221.293 -3.34213 1.35403 0
M  V30 2306 O 220.397 -4.0903 0.526146 0
M  V30 2307 H 219.738 -0.582099 0.319463 0
M  V30 2308 H 222.268 -1.40785 1.48461 0
M  V30 2309 H 222.278 -3.8506 1.34881 0
M  V30 2310 H 220.953 -3.39232 2.40612 0
M  V30 2311 H 219.53 -3.68082 0.597522 0
M  V30 2312 N 221.715 -0.905404 -1.28997 0
M  V30 2313 C 222.645 -0.404212 -2.29975 0
M  V30 2314 C 223.626 0.523784 -1.61835 0
M  V30 2315 O 224.811 0.433298 -1.89304 0
M  V30 2316 C 221.941 0.364042 -3.45387 0
M  V30 2317 C 220.895 -0.474048 -4.25367 0
M  V30 2318 C 220.221 0.422045 -5.33032 0
M  V30 2319 C 221.521 -1.72696 -4.92923 0
M  V30 2320 H 223.215 -1.24807 -2.72146 0
M  V30 2321 H 220.761 -0.601585 -1.30832 0
M  V30 2322 H 222.714 0.725447 -4.15109 0
M  V30 2323 H 221.438 1.24174 -3.02074 0
M  V30 2324 H 220.097 -0.81786 -3.57361 0
M  V30 2325 H 219.745 1.29804 -4.85963 0
M  V30 2326 H 219.445 -0.135057 -5.87445 0
M  V30 2327 H 220.969 0.779517 -6.05604 0
M  V30 2328 H 222.383 -1.43495 -5.55051 0
M  V30 2329 H 220.78 -2.22582 -5.57295 0
M  V30 2330 H 221.85 -2.45964 -4.17887 0
M  V30 2331 N 223.193 1.4272 -0.668489 0
M  V30 2332 C 224.439 2.01923 -0.188419 0
M  V30 2333 C 224.772 1.52704 1.19979 0
M  V30 2334 O 224.047 0.726566 1.8042 0
M  V30 2335 C 224.33 3.59451 -0.216085 0
M  V30 2336 C 224.183 4.18864 -1.6393 0
M  V30 2337 C 225.502 4.37903 0.439179 0
M  V30 2338 H 222.621 0.733674 -0.0699412 0
M  V30 2339 H 225.263 1.69822 -0.852076 0
M  V30 2340 H 223.413 3.86929 0.349012 0
M  V30 2341 H 225.085 4.02362 -2.25616 0
M  V30 2342 H 223.328 3.74933 -2.18193 0
M  V30 2343 H 223.999 5.27987 -1.61039 0
M  V30 2344 H 226.475 4.16079 -0.0417878 0
M  V30 2345 H 225.351 5.47519 0.389157 0
M  V30 2346 H 225.612 4.15303 1.51577 0
M  V30 2347 N 224.671 0.411399 1.52136 0
M  V30 2348 C 225.92 -0.165009 2.01024 0
M  V30 2349 C 226.233 -1.4603 1.30133 0
M  V30 2350 O 227.439 -2.1181 1.69849 0
M  V30 2351 C 225.895 -0.344618 3.58246 0
M  V30 2352 C 225.503 0.938716 4.38055 0
M  V30 2353 C 227.247 -0.876195 4.15359 0
M  V30 2354 C 225.154 0.726172 5.86925 0
M  V30 2355 H 224.084 -0.0654407 0.751155 0
M  V30 2356 H 226.735 0.537192 1.75461 0
M  V30 2357 H 225.117 -1.10921 3.80148 0
M  V30 2358 H 226.291 1.70963 4.27912 0
M  V30 2359 H 224.606 1.39688 3.92271 0
M  V30 2360 H 227.203 -1.05128 5.24263 0
M  V30 2361 H 227.546 -1.85152 3.7286 0
M  V30 2362 H 228.079 -0.170607 3.97434 0
M  V30 2363 H 224.818 1.67312 6.33788 0
M  V30 2364 H 224.338 -0.00540283 5.998 0
M  V30 2365 H 226.017 0.369231 6.45946 0
M  V30 2366 N 226.149 -1.5696 0.141893 0
M  V30 2367 C 227.397 -1.95573 -0.509484 0
M  V30 2368 C 227.718 -1.02746 -1.65736 0
M  V30 2369 O 226.988 -0.0880311 -1.95702 0
M  V30 2370 H 225.568 -0.722115 -0.191205 0
M  V30 2371 H 228.23 -1.93697 0.216196 0
M  V30 2372 H 227.326 -2.99171 -0.889 0
M  V30 2373 N 227.627 0.131896 -1.57047 0
M  V30 2374 C 228.876 0.84044 -1.83356 0
M  V30 2375 C 229.189 1.81646 -0.725535 0
M  V30 2376 O 230.395 2.57025 -0.874659 0
M  V30 2377 C 228.851 1.54528 -3.25037 0
M  V30 2378 C 228.459 0.610902 -4.43815 0
M  V30 2379 C 230.203 2.23972 -3.60606 0
M  V30 2380 C 228.11 1.31823 -5.76521 0
M  V30 2381 H 227.04 0.317599 -0.683847 0
M  V30 2382 H 229.691 0.0931561 -1.83263 0
M  V30 2383 H 228.073 2.33873 -3.19561 0
M  V30 2384 H 229.247 -0.148407 -4.60561 0
M  V30 2385 H 227.562 0.0241016 -4.16393 0
M  V30 2386 H 230.159 2.77558 -4.57018 0
M  V30 2387 H 230.502 3.01173 -2.87403 0
M  V30 2388 H 231.035 1.51529 -3.6781 0
M  V30 2389 H 227.774 0.587771 -6.52859 0
M  V30 2390 H 227.294 2.04987 -5.63685 0
M  V30 2391 H 228.973 1.855 -6.19838 0
M  V30 2392 N 229.106 1.52395 0.401703 0
M  V30 2393 C 230.352 1.67065 1.14966 0
M  V30 2394 C 230.685 0.403052 1.89971 0
M  V30 2395 O 229.96 -0.598774 1.85054 0
M  V30 2396 C 230.243 2.8975 2.13815 0
M  V30 2397 C 230.096 4.26578 1.42658 0
M  V30 2398 C 231.415 3.07965 3.14397 0
M  V30 2399 H 228.534 0.607968 0.416587 0
M  V30 2400 H 231.176 1.84965 0.434511 0
M  V30 2401 H 229.326 2.74619 2.74803 0
M  V30 2402 H 230.998 4.53451 0.847329 0
M  V30 2403 H 229.241 4.27639 0.72849 0
M  V30 2404 H 229.912 5.08483 2.14823 0
M  V30 2405 H 232.388 3.22043 2.63491 0
M  V30 2406 H 231.264 3.95308 3.80819 0
M  V30 2407 H 231.525 2.21611 3.82545 0
M  V30 2408 N 230.584 -0.659388 1.43143 0
M  V30 2409 C 231.517 -1.78425 1.42267 0
M  V30 2410 C 232.495 -1.60085 0.284894 0
M  V30 2411 O 233.679 -1.82351 0.477527 0
M  V30 2412 C 230.806 -3.15642 1.22833 0
M  V30 2413 C 229.852 -3.52698 2.39806 0
M  V30 2414 S 230.685 -3.53372 4.02353 0
M  V30 2415 C 231.841 -4.93256 3.85291 0
M  V30 2416 H 232.074 -1.78897 2.37452 0
M  V30 2417 H 229.607 -0.831469 1.301 0
M  V30 2418 H 231.565 -3.94838 1.12308 0
M  V30 2419 H 230.226 -3.12739 0.29207 0
M  V30 2420 H 229.419 -4.52475 2.21996 0
M  V30 2421 H 229.021 -2.80899 2.46925 0
M  V30 2422 H 231.313 -5.81751 3.47235 0
M  V30 2423 H 232.256 -5.16115 4.84799 0
M  V30 2424 H 232.664 -4.665 3.17865 0
M  V30 2425 N 232.062 -1.29571 -0.897171 0
M  V30 2426 C 233.025 -1.14913 -1.98312 0
M  V30 2427 C 234.025 -0.0838629 -1.60581 0
M  V30 2428 O 235.215 -0.331006 -1.71026 0
M  V30 2429 C 232.347 -0.757835 -3.3237 0
M  V30 2430 H 233.54 -2.11377 -2.12743 0
M  V30 2431 H 231.093 -1.12793 -1.08201 0
M  V30 2432 H 231.828 0.206837 -3.2364 0
M  V30 2433 H 231.613 -1.52755 -3.61121 0
M  V30 2434 H 233.103 -0.678408 -4.12053 0
M  V30 2435 N 233.54 1.10788 -1.12088 0
M  V30 2436 C 234.45 2.20599 -0.798338 0
M  V30 2437 C 235.466 1.72712 0.21135 0
M  V30 2438 O 236.642 2.01348 0.0458477 0
M  V30 2439 C 233.707 3.45771 -0.253674 0
M  V30 2440 C 232.768 4.08411 -1.32283 0
M  V30 2441 C 232.001 5.27608 -0.80406 0
M  V30 2442 O 232.224 5.69241 0.363478 0
M  V30 2443 O 231.158 5.8101 -1.57198 0
M  V30 2444 H 234.984 2.50614 -1.7154 0
M  V30 2445 H 232.569 1.19454 -0.897275 0
M  V30 2446 H 234.451 4.21376 0.0453691 0
M  V30 2447 H 233.126 3.1739 0.636005 0
M  V30 2448 H 232.033 3.34507 -1.67499 0
M  V30 2449 H 233.366 4.40986 -2.18614 0
M  V30 2450 N 235.018 0.912232 1.28515 0
M  V30 2451 C 236.264 0.545405 1.95328 0
M  V30 2452 C 236.597 -0.908313 1.71649 0
M  V30 2453 O 235.872 -1.64575 1.03659 0
M  V30 2454 C 236.155 0.853483 3.4984 0
M  V30 2455 C 236.008 2.35982 3.82926 0
M  V30 2456 C 237.327 0.348589 4.38717 0
M  V30 2457 H 234.446 0.199626 0.709449 0
M  V30 2458 H 237.088 1.1412 1.5191 0
M  V30 2459 H 235.238 0.34643 3.86952 0
M  V30 2460 H 236.91 2.93738 3.55691 0
M  V30 2461 H 235.153 2.81543 3.30024 0
M  V30 2462 H 235.824 2.52593 4.90816 0
M  V30 2463 H 238.3 0.78294 4.08668 0
M  V30 2464 H 237.176 0.593242 5.45685 0
M  V30 2465 H 237.437 -0.751049 4.35674 0
M  V30 2466 N 236.496 -1.42363 0.676048 0
M  V30 2467 C 237.426 -2.33497 0.0124832 0
M  V30 2468 C 238.407 -1.50748 -0.787981 0
M  V30 2469 O 239.592 -1.79346 -0.744884 0
M  V30 2470 C 236.722 -3.34377 -0.938582 0
M  V30 2471 C 235.676 -4.27289 -0.246622 0
M  V30 2472 C 235.002 -5.18386 -1.31071 0
M  V30 2473 C 236.302 -5.14916 0.875125 0
M  V30 2474 H 237.996 -2.89233 0.773593 0
M  V30 2475 H 235.542 -1.39073 0.37346 0
M  V30 2476 H 237.495 -3.97044 -1.41188 0
M  V30 2477 H 236.219 -2.76947 -1.73113 0
M  V30 2478 H 234.878 -3.66018 0.206456 0
M  V30 2479 H 234.526 -4.57282 -2.09528 0
M  V30 2480 H 234.226 -5.81378 -0.852839 0
M  V30 2481 H 235.75 -5.83929 -1.78492 0
M  V30 2482 H 237.164 -5.71262 0.482983 0
M  V30 2483 H 235.561 -5.86747 1.25887 0
M  V30 2484 H 236.631 -4.53242 1.72335 0
M  V30 2485 N 237.974 -0.419461 -1.51915 0
M  V30 2486 C 239.39 -0.0708431 -1.59443 0
M  V30 2487 C 239.59 1.41796 -1.43164 0
M  V30 2488 O 238.646 2.18596 -1.26381 0
M  V30 2489 C 239.959 -0.574991 -2.95151 0
M  V30 2490 C 241.507 -0.533867 -3.08413 0
M  V30 2491 C 241.982 -1.01469 -4.46618 0
M  V30 2492 N 243.473 -0.971939 -4.52888 0
M  V30 2493 C 244.208 -1.31505 -5.58116 0
M  V30 2494 N 243.704 -1.73014 -6.70849 0
M  V30 2495 N 245.497 -1.23436 -5.48379 0
M  V30 2496 H 237.648 -1.38836 -1.60743 0
M  V30 2497 H 239.911 -0.570998 -0.756747 0
M  V30 2498 H 239.617 -1.61597 -3.12377 0
M  V30 2499 H 239.491 0.00979777 -3.77199 0
M  V30 2500 H 241.878 0.498086 -2.90866 0
M  V30 2501 H 241.959 -1.15484 -2.28248 0
M  V30 2502 H 241.603 -2.04502 -4.6491 0
M  V30 2503 H 241.533 -0.370433 -5.25295 0
M  V30 2504 H 244.024 -0.666893 -3.71969 0
M  V30 2505 H 244.337 -1.97479 -7.47143 0
M  V30 2506 H 242.682 -1.76926 -6.72103 0
M  V30 2507 H 245.873 -0.908869 -4.59192 0
M  V30 2508 H 246.046 -1.50506 -6.30279 0
M  V30 2509 N 239.452 1.56882 -0.150215 0
M  V30 2510 C 240.399 2.16922 0.788244 0
M  V30 2511 C 241.369 1.10303 1.24187 0
M  V30 2512 O 242.554 1.38359 1.31383 0
M  V30 2513 C 239.694 2.79754 2.02068 0
M  V30 2514 C 238.807 4.00775 1.61257 0
M  V30 2515 C 237.942 4.51595 2.79705 0
M  V30 2516 C 236.981 5.65074 2.35282 0
M  V30 2517 N 236.118 6.10499 3.4675 0
M  V30 2518 H 240.958 2.96779 0.269444 0
M  V30 2519 H 238.495 1.46599 0.12128 0
M  V30 2520 H 240.453 3.14329 2.74323 0
M  V30 2521 H 239.083 2.02536 2.51354 0
M  V30 2522 H 238.135 3.72158 0.787553 0
M  V30 2523 H 239.447 4.82978 1.24633 0
M  V30 2524 H 238.601 4.88242 3.60145 0
M  V30 2525 H 237.34 3.68406 3.19576 0
M  V30 2526 H 236.345 5.28 1.53283 0
M  V30 2527 H 237.57 6.50052 1.96493 0
M  V30 2528 H 235.516 5.30243 3.86236 0
M  V30 2529 H 235.433 6.87637 3.14152 0
M  V30 2530 H 236.701 6.51791 4.27537 0
M  V30 2531 N 240.93 -0.123565 1.57115 0
M  V30 2532 C 241.86 -1.15309 2.03042 0
M  V30 2533 C 242.841 -1.43454 0.914061 0
M  V30 2534 O 244.026 -1.53973 1.18347 0
M  V30 2535 C 241.156 -2.48043 2.43089 0
M  V30 2536 C 240.11 -2.3437 3.58127 0
M  V30 2537 C 239.436 -3.72026 3.84059 0
M  V30 2538 C 240.736 -1.80804 4.90007 0
M  V30 2539 H 242.43 -0.771102 2.893 0
M  V30 2540 H 239.976 -0.369479 1.39179 0
M  V30 2541 H 241.929 -3.20311 2.73823 0
M  V30 2542 H 240.653 -2.88122 1.53796 0
M  V30 2543 H 239.312 -1.64551 3.27595 0
M  V30 2544 H 238.96 -4.09582 2.91979 0
M  V30 2545 H 238.66 -3.63732 4.6149 0
M  V30 2546 H 240.184 -4.45806 4.1724 0
M  V30 2547 H 241.598 -2.42886 5.19307 0
M  V30 2548 H 239.995 -1.83343 5.71407 0
M  V30 2549 H 241.065 -0.76528 4.78823 0
M  V30 2550 N 242.408 -1.52605 -0.393616 0
M  V30 2551 C 243.656 -1.67093 -1.13685 0
M  V30 2552 C 243.977 -0.411011 -1.90619 0
M  V30 2553 O 243.247 0.574491 -1.87287 0
M  V30 2554 H 241.827 -0.615923 -0.422668 0
M  V30 2555 H 244.489 -1.89704 -0.447039 0
M  V30 2556 H 243.585 -2.51922 -1.84232 0
M  V30 2557 N 243.887 0.651787 -1.4349 0
M  V30 2558 C 244.85 1.74647 -1.48429 0
M  V30 2559 C 245.85 1.56513 -0.368817 0
M  V30 2560 O 247.04 1.62385 -0.630623 0
M  V30 2561 C 244.172 3.13533 -1.33827 0
M  V30 2562 H 245.365 1.71649 -2.4592 0
M  V30 2563 H 242.918 0.863573 -1.30277 0
M  V30 2564 H 243.653 3.22142 -0.37349 0
M  V30 2565 H 243.438 3.28101 -2.14691 0
M  V30 2566 H 244.928 3.93356 -1.40218 0
M  V30 2567 N 245.365 1.30045 0.890287 0
M  V30 2568 C 246.642 1.09227 1.62262 0
M  V30 2569 C 247.022 -0.360305 2.08002 0
M  V30 2570 O 246.37 -1.35084 1.84295 0
M  V30 2571 C 246.58 2.08835 2.79623 0
M  V30 2572 C 247.928 2.40266 3.50082 0
M  V30 2573 O 248.952 2.07104 2.89804 0
M  V30 2574 O 247.811 2.96967 4.58773 0
M  V30 2575 H 244.905 0.419132 0.712922 0
M  V30 2576 H 247.451 1.41451 0.937529 0
M  V30 2577 H 246.223 3.06633 2.43089 0
M  V30 2578 H 245.846 1.77397 3.55832 0
M  V30 2579 N 246.843 -1.10192 1.12674 0
M  V30 2580 C 247.79 -2.16606 0.796906 0
M  V30 2581 C 248.76 -1.64394 -0.237476 0
M  V30 2582 O 249.945 -1.90474 -0.111484 0
M  V30 2583 C 247.085 -3.44116 0.26043 0
M  V30 2584 C 246.198 -4.10268 1.35293 0
M  V30 2585 C 245.333 -5.25507 0.775621 0
M  V30 2586 C 244.372 -5.83567 1.84706 0
M  V30 2587 N 243.509 -6.90179 1.28829 0
M  V30 2588 H 248.349 -2.44163 1.70846 0
M  V30 2589 H 245.886 -1.19846 0.85295 0
M  V30 2590 H 247.844 -4.17143 -0.0686814 0
M  V30 2591 H 246.474 -3.16901 -0.614274 0
M  V30 2592 H 245.526 -3.35184 1.79877 0
M  V30 2593 H 246.838 -4.4946 2.16303 0
M  V30 2594 H 245.992 -6.05398 0.397327 0
M  V30 2595 H 244.731 -4.87656 -0.0656581 0
M  V30 2596 H 243.736 -5.02344 2.23452 0
M  V30 2597 H 244.961 -6.23482 2.69161 0
M  V30 2598 H 242.907 -6.54322 0.468881 0
M  V30 2599 H 242.824 -7.28097 2.03497 0
M  V30 2600 H 244.092 -7.73844 0.937311 0
M  V30 2601 N 248.321 -0.919034 -1.28029 0
M  V30 2602 C 249.567 -0.555757 -1.95036 0
M  V30 2603 C 249.9 0.899198 -1.72128 0
M  V30 2604 O 249.175 1.64023 -1.04531 0
M  V30 2605 C 249.458 -0.872024 -3.49382 0
M  V30 2606 C 249.311 -2.3801 -3.81669 0
M  V30 2607 C 250.63 -0.37185 -4.38526 0
M  V30 2608 H 247.749 -0.203386 -0.708381 0
M  V30 2609 H 250.391 -1.14924 -1.51303 0
M  V30 2610 H 248.541 -0.366946 -3.86763 0
M  V30 2611 H 250.213 -2.9562 -3.54128 0
M  V30 2612 H 248.456 -2.83289 -3.28526 0
M  V30 2613 H 249.127 -2.55192 -4.8947 0
M  V30 2614 H 251.603 -0.804602 -4.08247 0
M  V30 2615 H 250.479 -0.622173 -5.45362 0
M  V30 2616 H 250.74 0.727934 -4.36066 0
M  V30 2617 N 249.799 1.42003 -0.683588 0
M  V30 2618 C 251.215 1.55625 -0.353976 0
M  V30 2619 C 251.415 1.66151 1.14 0
M  V30 2620 O 250.471 1.63329 1.92561 0
M  V30 2621 C 251.784 2.80171 -1.092 0
M  V30 2622 C 253.332 2.93954 -1.07518 0
M  V30 2623 C 253.807 4.21372 -1.79471 0
M  V30 2624 N 255.298 4.28303 -1.76381 0
M  V30 2625 C 256.033 5.25729 -2.28904 0
M  V30 2626 N 255.529 6.29254 -2.89846 0
M  V30 2627 N 257.322 5.17586 -2.19228 0
M  V30 2628 H 249.473 1.33415 -1.6527 0
M  V30 2629 H 251.736 0.64282 -0.696769 0
M  V30 2630 H 251.442 2.78561 -2.14701 0
M  V30 2631 H 251.316 3.7133 -0.662862 0
M  V30 2632 H 253.703 2.95086 -0.028475 0
M  V30 2633 H 253.784 2.04002 -1.54328 0
M  V30 2634 H 253.428 4.21001 -2.84114 0
M  V30 2635 H 253.358 5.10275 -1.30104 0
M  V30 2636 H 255.849 3.54119 -1.31939 0
M  V30 2637 H 256.162 6.99964 -3.27522 0
M  V30 2638 H 254.507 6.29791 -2.93919 0
M  V30 2639 H 257.698 4.35631 -1.71299 0
M  V30 2640 H 257.871 5.93348 -2.60466 0
M  V30 2641 N 251.277 0.427512 1.51691 0
M  V30 2642 C 252.523 -0.142439 2.02299 0
M  V30 2643 C 252.856 -1.43214 1.31162 0
M  V30 2644 O 252.131 -1.89833 0.423511 0
M  V30 2645 C 252.414 -0.371301 3.58181 0
M  V30 2646 C 252.267 0.936358 4.39946 0
M  V30 2647 C 253.586 -1.14542 4.24933 0
M  V30 2648 H 250.705 -0.0502937 0.735282 0
M  V30 2649 H 253.347 0.564584 1.81418 0
M  V30 2650 H 251.497 -0.973559 3.76104 0
M  V30 2651 H 253.169 1.57184 4.33694 0
M  V30 2652 H 251.412 1.5432 4.05423 0
M  V30 2653 H 252.083 0.730388 5.47147 0
M  V30 2654 H 254.559 -0.635362 4.11221 0
M  V30 2655 H 253.435 -1.27431 5.33903 0
M  V30 2656 H 253.696 -2.17093 3.85127 0
M  V30 2657 N 252.755 -1.56801 0.158532 0
M  V30 2658 C 253.702 -2.17337 -0.776729 0
M  V30 2659 C 254.672 -1.1096 -1.23601 0
M  V30 2660 O 255.857 -1.39054 -1.30647 0
M  V30 2661 C 252.997 -2.80822 -2.00582 0
M  V30 2662 C 252.11 -4.01624 -1.59129 0
M  V30 2663 C 251.245 -4.53072 -2.77306 0
M  V30 2664 C 250.284 -5.66314 -2.32282 0
M  V30 2665 N 249.421 -6.12329 -3.43508 0
M  V30 2666 H 254.261 -2.96918 -0.253701 0
M  V30 2667 H 251.798 -1.46661 -0.113504 0
M  V30 2668 H 253.756 -3.15779 -2.72652 0
M  V30 2669 H 252.386 -2.03866 -2.50277 0
M  V30 2670 H 251.438 -3.72571 -0.767806 0
M  V30 2671 H 252.75 -4.83633 -1.2207 0
M  V30 2672 H 251.904 -4.90145 -3.57551 0
M  V30 2673 H 250.643 -3.70095 -3.17617 0
M  V30 2674 H 249.648 -5.28806 -1.5048 0
M  V30 2675 H 250.873 -6.51085 -1.93043 0
M  V30 2676 H 248.819 -5.32284 -3.83418 0
M  V30 2677 H 248.736 -6.89293 -3.105 0
M  V30 2678 H 250.004 -6.5405 -4.24075 0
M  V30 2679 N 254.233 0.115231 -1.57178 0
M  V30 2680 C 255.479 0.818565 -1.86202 0
M  V30 2681 C 255.834 1.77316 -0.746785 0
M  V30 2682 O 255.127 1.89923 0.25291 0
M  V30 2683 C 255.321 1.60324 -3.19423 0
M  V30 2684 C 255.15 0.726138 -4.43799 0
M  V30 2685 C 253.92 0.379535 -5.03873 0
M  V30 2686 C 256.118 0.0420774 -5.14283 0
M  V30 2687 N 254.1 -0.507841 -6.11796 0
M  V30 2688 C 255.471 -0.704152 -6.15988 0
M  V30 2689 C 257.526 -0.0339486 -4.97888 0
M  V30 2690 C 256.229 -1.51927 -7.03072 0
M  V30 2691 C 258.255 -0.835906 -5.85463 0
M  V30 2692 C 257.617 -1.57031 -6.86673 0
M  V30 2693 H 253.716 0.276343 -0.731545 0
M  V30 2694 H 256.3 0.0821032 -1.94527 0
M  V30 2695 H 254.471 2.31072 -3.12186 0
M  V30 2696 H 256.203 2.2522 -3.36241 0
M  V30 2697 H 252.958 0.722634 -4.68054 0
M  V30 2698 H 253.382 -0.94349 -6.70393 0
M  V30 2699 H 258.024 0.519496 -4.19596 0
M  V30 2700 H 255.742 -2.08386 -7.80769 0
M  V30 2701 H 259.328 -0.89714 -5.74841 0
M  V30 2702 H 258.208 -2.18088 -7.53264 0
M  V30 2703 N 255.711 1.52812 0.385517 0
M  V30 2704 C 257.122 1.5993 0.963293 0
M  V30 2705 C 257.473 0.454302 1.90868 0
M  V30 2706 O 256.598 -0.422132 2.12243 0
M  V30 2707 C 257.193 2.89871 1.75387 0
M  V30 2708 C 255.752 2.99389 2.28129 0
M  V30 2709 C 254.899 2.55071 1.08783 0
M  V30 2710 H 257.85 1.5784 0.164948 0
M  V30 2711 H 257.871 2.76553 2.61341 0
M  V30 2712 H 257.383 3.73186 1.06554 0
M  V30 2713 H 255.484 2.20619 3.00263 0
M  V30 2714 H 255.597 4.04096 2.57377 0
M  V30 2715 H 253.961 2.09473 1.4489 0
M  V30 2716 H 254.744 3.40785 0.414807 0
M  V30 2717 N 257.189 -0.644168 1.43834 0
M  V30 2718 C 258.137 -1.77793 1.49974 0
M  V30 2719 C 259.131 -1.65253 0.372536 0
M  V30 2720 O 260.337 -1.7149 0.546924 0
M  V30 2721 H 256.712 -0.58675 0.47035 0
M  V30 2722 H 258.683 -1.69736 2.45423 0
M  V30 2723 C 257.432 -3.16087 1.4486 0
M  V30 2724 H 256.755 -3.26378 2.30905 0
M  V30 2725 H 258.195 -3.95349 1.53217 0
M  V30 2726 C 256.654 -3.36484 0.167463 0
M  V30 2727 O 257.184 -3.94298 -0.767609 0
M  V30 2728 N 255.39 -2.90504 0.0747556 0
M  V30 2729 H 254.937 -2.4364 0.836507 0
M  V30 2730 H 254.895 -3.04527 -0.781714 0
M  V30 2731 N 258.668 -1.30515 -0.883378 0
M  V30 2732 C 259.945 -1.10086 -1.6168 0
M  V30 2733 C 260.325 0.349269 -2.08191 0
M  V30 2734 O 259.673 1.34105 -1.85008 0
M  V30 2735 C 259.883 -2.10315 -2.78511 0
M  V30 2736 C 261.231 -2.42119 -3.48803 0
M  V30 2737 O 262.255 -2.08638 -2.88702 0
M  V30 2738 O 261.114 -2.99396 -4.57192 0
M  V30 2739 H 258.208 -0.422907 -0.710689 0
M  V30 2740 H 260.754 -1.41947 -0.930015 0
M  V30 2741 H 259.526 -3.07917 -2.41459 0
M  V30 2742 H 259.149 -1.79282 -3.54886 0
M  V30 2743 N 260.146 1.09593 -1.13257 0
M  V30 2744 C 261.076 2.18214 -0.830946 0
M  V30 2745 C 262.057 1.68812 0.208966 0
M  V30 2746 O 263.242 1.9408 0.0682666 0
M  V30 2747 C 260.372 3.46051 -0.294296 0
M  V30 2748 C 259.326 4.08778 -1.26826 0
M  V30 2749 C 258.652 5.31419 -0.591449 0
M  V30 2750 C 259.952 4.51476 -2.62615 0
M  V30 2751 H 261.646 2.43703 -1.73923 0
M  V30 2752 H 259.192 1.17128 -0.837675 0
M  V30 2753 H 261.145 4.2134 -0.0709606 0
M  V30 2754 H 259.869 3.20079 0.649366 0
M  V30 2755 H 258.528 3.35505 -1.47756 0
M  V30 2756 H 258.176 5.01727 0.357633 0
M  V30 2757 H 257.876 5.74341 -1.24123 0
M  V30 2758 H 259.4 6.09433 -0.377355 0
M  V30 2759 H 260.814 5.17999 -2.45663 0
M  V30 2760 H 259.211 5.05277 -3.23752 0
M  V30 2761 H 260.281 3.63962 -3.20406 0
M  V30 2762 N 261.624 0.925811 1.2754 0
M  V30 2763 C 262.854 0.580666 1.98272 0
M  V30 2764 C 263.262 -0.845207 1.69272 0
M  V30 2765 O 262.605 -1.57306 0.948707 0
M  V30 2766 C 262.667 0.724418 3.52126 0
M  V30 2767 C 262.331 2.12206 4.04744 0
M  V30 2768 C 263.328 3.09604 4.17662 0
M  V30 2769 C 261.013 2.4385 4.39138 0
M  V30 2770 C 263.007 4.36755 4.64246 0
M  V30 2771 C 260.694 3.71237 4.85414 0
M  V30 2772 C 261.692 4.67503 4.97926 0
M  V30 2773 O 261.38 5.92624 5.43187 0
M  V30 2774 H 261.112 0.218987 0.639547 0
M  V30 2775 H 263.666 1.24452 1.63404 0
M  V30 2776 H 261.896 0.0034663 3.867 0
M  V30 2777 H 263.585 0.384607 4.04074 0
M  V30 2778 H 264.351 2.86478 3.91351 0
M  V30 2779 H 260.23 1.69665 4.28643 0
M  V30 2780 H 263.774 5.11898 4.73927 0
M  V30 2781 H 259.671 3.94182 5.11166 0
M  V30 2782 H 260.439 5.95585 5.61445 0
M  V30 2783 N 263.102 -1.41638 0.69111 0
M  V30 2784 C 264.032 -2.3347 0.037248 0
M  V30 2785 C 265.013 -1.51575 -0.771947 0
M  V30 2786 O 266.198 -1.80126 -0.72582 0
M  V30 2787 C 263.328 -3.35354 -0.903064 0
M  V30 2788 C 262.282 -4.27526 -0.201288 0
M  V30 2789 C 261.608 -5.19747 -1.25565 0
M  V30 2790 C 262.908 -5.13959 0.929689 0
M  V30 2791 H 264.602 -2.88397 0.804227 0
M  V30 2792 H 262.148 -1.38669 0.388189 0
M  V30 2793 H 264.101 -3.98519 -1.36969 0
M  V30 2794 H 262.825 -2.78767 -1.70166 0
M  V30 2795 H 261.484 -3.65779 0.245265 0
M  V30 2796 H 261.132 -4.59479 -2.04666 0
M  V30 2797 H 260.832 -5.8225 -0.791128 0
M  V30 2798 H 262.356 -5.85789 -1.72288 0
M  V30 2799 H 263.77 -5.70718 0.543546 0
M  V30 2800 H 262.167 -5.85379 1.32103 0
M  V30 2801 H 263.237 -4.51389 1.77133 0
M  V30 2802 N 264.58 -0.43555 -1.51462 0
M  V30 2803 C 265.512 0.41257 -2.25456 0
M  V30 2804 C 266.525 0.987822 -1.29406 0
M  V30 2805 O 267.714 0.882266 -1.55172 0
M  V30 2806 C 264.814 1.58894 -2.99342 0
M  V30 2807 C 263.987 1.13288 -4.22474 0
M  V30 2808 C 263.046 2.17917 -4.78956 0
M  V30 2809 O 262.072 1.77425 -5.40841 0
M  V30 2810 N 263.274 3.50382 -4.62832 0
M  V30 2811 H 266.039 -0.221603 -2.9888 0
M  V30 2812 H 263.6 -0.264342 -1.59727 0
M  V30 2813 H 265.592 2.28508 -3.34015 0
M  V30 2814 H 264.162 2.12849 -2.28941 0
M  V30 2815 H 263.382 0.263881 -3.93316 0
M  V30 2816 H 264.67 0.805542 -5.02383 0
M  V30 2817 H 264.068 3.86013 -4.13534 0
M  V30 2818 H 262.625 4.15895 -5.01871 0
M  V30 2819 N 266.058 1.56714 -0.166846 0
M  V30 2820 C 267.335 1.88412 0.525373 0
M  V30 2821 C 267.715 1.07602 1.81618 0
M  V30 2822 O 267.063 0.168621 2.27877 0
M  V30 2823 C 267.273 3.40363 0.771613 0
M  V30 2824 C 268.621 4.10007 1.1036 0
M  V30 2825 O 269.645 3.45655 0.860304 0
M  V30 2826 O 268.504 5.2369 1.56239 0
M  V30 2827 H 265.598 0.781587 0.270278 0
M  V30 2828 H 268.144 1.68458 -0.204946 0
M  V30 2829 H 266.916 3.91046 -0.141093 0
M  V30 2830 H 266.539 3.65914 1.55541 0
M  V30 2831 N 267.536 -0.106894 1.57237 0
M  V30 2832 C 268.952 -0.46078 1.52804 0
M  V30 2833 C 269.152 -1.81184 0.881746 0
M  V30 2834 O 268.208 -2.48102 0.469224 0
M  V30 2835 C 269.521 -0.434127 2.9755 0
M  V30 2836 C 271.069 -0.516821 3.08704 0
M  V30 2837 C 271.544 -0.520436 4.55033 0
M  V30 2838 N 273.035 -0.58153 4.59535 0
M  V30 2839 C 273.77 -0.605973 5.70189 0
M  V30 2840 N 273.266 -0.587331 6.90306 0
M  V30 2841 N 275.059 -0.649895 5.5833 0
M  V30 2842 H 267.21 0.778203 1.9763 0
M  V30 2843 H 269.473 0.288403 0.903066 0
M  V30 2844 H 269.179 0.491197 3.48253 0
M  V30 2845 H 269.053 -1.25748 3.55622 0
M  V30 2846 H 271.44 -1.43256 2.57995 0
M  V30 2847 H 271.521 0.334449 2.53604 0
M  V30 2848 H 271.165 0.391313 5.0639 0
M  V30 2849 H 271.095 -1.38876 5.07958 0
M  V30 2850 H 273.586 -0.60161 3.73081 0
M  V30 2851 H 273.899 -0.60894 7.70397 0
M  V30 2852 H 272.244 -0.554564 6.92784 0
M  V30 2853 H 275.435 -0.661907 4.63397 0
M  V30 2854 H 275.608 -0.665476 6.44574 0
M  V30 2855 N 269.014 -1.53014 -0.377408 0
M  V30 2856 C 269.961 -1.78616 -1.46168 0
M  V30 2857 C 270.931 -0.629917 -1.53692 0
M  V30 2858 O 272.116 -0.870861 -1.69766 0
M  V30 2859 C 269.256 -1.97123 -2.8326 0
M  V30 2860 C 268.369 -3.24831 -2.84796 0
M  V30 2861 C 267.504 -3.33591 -4.13389 0
M  V30 2862 C 266.543 -4.55377 -4.09021 0
M  V30 2863 N 265.68 -4.61355 -5.29241 0
M  V30 2864 H 270.52 -2.71142 -1.23637 0
M  V30 2865 H 268.057 -1.34326 -0.599577 0
M  V30 2866 H 270.015 -2.05839 -3.62886 0
M  V30 2867 H 268.645 -1.07946 -3.04216 0
M  V30 2868 H 267.697 -3.25128 -1.97474 0
M  V30 2869 H 269.009 -4.14523 -2.77439 0
M  V30 2870 H 268.163 -3.41554 -5.01424 0
M  V30 2871 H 266.902 -2.41894 -4.23484 0
M  V30 2872 H 265.907 -4.47527 -3.19373 0
M  V30 2873 H 267.132 -5.48402 -4.00539 0
M  V30 2874 H 265.078 -3.72554 -5.39944 0
M  V30 2875 H 264.995 -5.44935 -5.24006 0
M  V30 2876 H 266.263 -4.73586 -6.19141 0
M  V30 2877 N 270.492 0.636531 -1.44174 0
M  V30 2878 C 271.422 1.76003 -1.53444 0
M  V30 2879 C 272.403 1.65619 -0.387841 0
M  V30 2880 O 273.588 1.84461 -0.607257 0
M  V30 2881 C 270.718 3.14511 -1.4731 0
M  V30 2882 C 269.672 3.39677 -2.60391 0
M  V30 2883 C 268.998 4.78159 -2.39308 0
M  V30 2884 C 270.298 3.32772 -4.02567 0
M  V30 2885 H 271.992 1.68501 -2.47483 0
M  V30 2886 H 269.538 0.809237 -1.19111 0
M  V30 2887 H 271.491 3.92878 -1.52397 0
M  V30 2888 H 270.215 3.22783 -0.49785 0
M  V30 2889 H 268.874 2.63688 -2.54684 0
M  V30 2890 H 268.522 4.83128 -1.39988 0
M  V30 2891 H 268.222 4.95956 -3.15122 0
M  V30 2892 H 269.746 5.58762 -2.46205 0
M  V30 2893 H 271.16 4.01051 -4.09672 0
M  V30 2894 H 269.557 3.62104 -4.7854 0
M  V30 2895 H 270.627 2.30669 -4.2652 0
M  V30 2896 N 271.97 1.30982 0.876444 0
M  V30 2897 C 272.933 1.18054 1.96459 0
M  V30 2898 C 273.933 0.109399 1.60427 0
M  V30 2899 O 275.123 0.358173 1.70478 0
M  V30 2900 C 272.255 0.810616 3.31122 0
M  V30 2901 H 273.448 2.14735 2.09354 0
M  V30 2902 H 271.001 1.145 1.06392 0
M  V30 2903 H 271.736 -0.155322 3.23928 0
M  V30 2904 H 271.521 1.58481 3.58645 0
M  V30 2905 H 273.011 0.743876 4.10921 0
M  V30 2906 N 273.449 -1.08991 1.13837 0
M  V30 2907 C 274.697 -1.80899 0.901098 0
M  V30 2908 C 275.018 -1.86356 -0.574134 0
M  V30 2909 O 274.288 -1.35235 -1.41733 0
M  V30 2910 H 272.868 -0.669966 0.330386 0
M  V30 2911 H 275.53 -1.318 1.43578 0
M  V30 2912 H 274.626 -2.83929 1.29578 0
M  V30 2913 N 274.927 -0.932562 -1.27047 0
M  V30 2914 C 276.176 -0.571351 -1.93439 0
M  V30 2915 C 276.489 0.892467 -1.74053 0
M  V30 2916 O 277.695 1.36267 -2.34826 0
M  V30 2917 C 276.151 -0.97106 -3.46552 0
M  V30 2918 C 275.759 -2.4559 -3.74686 0
M  V30 2919 C 277.503 -0.681333 -4.18997 0
M  V30 2920 C 275.41 -2.79475 -5.21198 0
M  V30 2921 H 274.34 -0.209966 -0.724176 0
M  V30 2922 H 276.991 -1.13403 -1.44263 0
M  V30 2923 H 275.373 -0.336983 -3.94564 0
M  V30 2924 H 276.547 -3.13829 -3.37414 0
M  V30 2925 H 274.862 -2.71802 -3.15456 0
M  V30 2926 H 277.459 -0.910939 -5.26883 0
M  V30 2927 H 277.802 0.381628 -4.14547 0
M  V30 2928 H 278.335 -1.27473 -3.76823 0
M  V30 2929 H 275.074 -3.847 -5.30741 0
M  V30 2930 H 274.594 -2.1589 -5.596 0
M  V30 2931 H 276.273 -2.67478 -5.89122 0
M  V30 2932 N 276.405 1.4127 -0.698611 0
M  V30 2933 C 277.335 2.33447 -0.049629 0
M  V30 2934 C 278.316 1.51982 0.763898 0
M  V30 2935 O 279.501 1.80509 0.716257 0
M  V30 2936 C 276.631 3.35828 0.885267 0
M  V30 2937 C 275.585 4.27627 0.178613 0
M  V30 2938 C 274.911 5.20406 1.22807 0
M  V30 2939 C 276.211 5.13459 -0.956933 0
M  V30 2940 H 277.905 2.87966 -0.81951 0
M  V30 2941 H 275.451 1.38461 -0.395538 0
M  V30 2942 H 277.404 3.9924 1.34854 0
M  V30 2943 H 276.128 2.79666 1.68685 0
M  V30 2944 H 274.787 3.65643 -0.26466 0
M  V30 2945 H 274.435 4.60558 2.02226 0
M  V30 2946 H 274.135 5.82661 0.760239 0
M  V30 2947 H 275.659 5.86695 1.69179 0
M  V30 2948 H 277.073 5.70421 -0.573805 0
M  V30 2949 H 275.47 5.8467 -1.35205 0
M  V30 2950 H 276.54 4.50443 -1.79524 0
M  V30 2951 N 277.883 0.443576 1.51229 0
M  V30 2952 C 279.129 -0.120975 2.02439 0
M  V30 2953 C 279.462 -1.41815 1.32674 0
M  V30 2954 O 278.737 -1.89373 0.443622 0
M  V30 2955 C 279.02 -0.333291 3.58554 0
M  V30 2956 C 278.873 0.982968 4.38928 0
M  V30 2957 C 280.192 -1.10028 4.26124 0
M  V30 2958 H 277.311 -0.0424923 0.735774 0
M  V30 2959 H 279.953 0.583794 1.80809 0
M  V30 2960 H 278.103 -0.933614 3.77115 0
M  V30 2961 H 279.775 1.61775 4.32003 0
M  V30 2962 H 278.018 1.58611 4.03763 0
M  V30 2963 H 278.689 0.788379 5.46341 0
M  V30 2964 H 281.165 -0.591711 4.11871 0
M  V30 2965 H 280.041 -1.21761 5.35225 0
M  V30 2966 H 280.302 -2.12996 3.87408 0
M  V30 2967 N 279.361 -1.56624 0.175154 0
M  V30 2968 C 280.271 -2.21741 -0.766042 0
M  V30 2969 C 281.287 -1.21023 -1.25018 0
M  V30 2970 O 282.463 -1.53697 -1.3015 0
M  V30 2971 C 279.528 -2.84839 -1.97655 0
M  V30 2972 C 278.589 -4.00769 -1.53892 0
M  V30 2973 C 277.822 -4.60849 -2.69173 0
M  V30 2974 O 278.045 -4.19823 -3.86141 0
M  V30 2975 O 276.979 -5.50655 -2.43028 0
M  V30 2976 H 280.805 -3.02738 -0.241585 0
M  V30 2977 H 278.39 -1.49305 -0.053222 0
M  V30 2978 H 280.272 -3.24834 -2.68442 0
M  V30 2979 H 278.947 -2.06836 -2.48999 0
M  V30 2980 H 277.854 -3.65436 -0.80044 0
M  V30 2981 H 279.187 -4.80376 -1.07236 0
M  V30 2982 N 280.839 0.0985539 -1.57292 0
M  V30 2983 C 281.769 1.12064 -2.04851 0
M  V30 2984 C 282.75 1.41981 -0.936767 0
M  V30 2985 O 283.935 1.52071 -1.20781 0
M  V30 2986 C 281.065 2.44144 -2.47004 0
M  V30 2987 C 280.019 2.28643 -3.6181 0
M  V30 2988 C 279.345 3.65869 -3.89929 0
M  V30 2989 C 280.645 1.72986 -4.92822 0
M  V30 2990 H 282.339 0.724979 -2.9049 0
M  V30 2991 H 279.885 0.34729 -1.39749 0
M  V30 2992 H 281.838 3.15914 -2.78884 0
M  V30 2993 H 280.562 2.85639 -1.5836 0
M  V30 2994 H 279.221 1.59318 -3.30172 0
M  V30 2995 H 278.869 4.04885 -2.98458 0
M  V30 2996 H 278.569 3.56344 -4.67218 0
M  V30 2997 H 280.093 4.39112 -4.2428 0
M  V30 2998 H 281.507 2.34593 -5.23105 0
M  V30 2999 H 279.904 1.74229 -5.74251 0
M  V30 3000 H 280.974 0.689007 -4.7998 0
M  V30 3001 N 282.317 1.53212 0.369288 0
M  V30 3002 C 283.545 1.73119 1.13303 0
M  V30 3003 C 283.96 0.458455 1.83149 0
M  V30 3004 O 283.317 -0.568403 1.73423 0
M  V30 3005 C 283.368 2.89413 2.16616 0
M  V30 3006 O 283.089 4.11761 1.49614 0
M  V30 3007 C 284.59 3.21161 3.05566 0
M  V30 3008 H 281.81 0.579107 0.338934 0
M  V30 3009 H 284.354 1.99942 0.429338 0
M  V30 3010 H 282.509 2.64994 2.82589 0
M  V30 3011 H 282.923 4.76858 2.18419 0
M  V30 3012 H 284.397 4.05949 3.74045 0
M  V30 3013 H 284.874 2.36369 3.70171 0
M  V30 3014 H 285.48 3.47492 2.45213 0
M  V30 3015 N 283.795 -0.628877 1.44509 0
M  V30 3016 C 285.043 -1.38565 1.4712 0
M  V30 3017 C 285.364 -1.94712 0.105899 0
M  V30 3018 O 284.634 -1.75912 -0.862079 0
M  V30 3019 H 283.214 -0.514333 0.541729 0
M  V30 3020 H 285.876 -0.740018 1.80305 0
M  V30 3021 H 284.972 -2.21583 2.19789 0
M  V30 3022 N 285.273 -1.31445 -0.869486 0
M  V30 3023 C 286.22 -1.19135 -1.97675 0
M  V30 3024 C 287.19 -0.0770266 -1.65921 0
M  V30 3025 O 288.375 -0.249972 -1.89155 0
M  V30 3026 C 285.515 -0.905149 -3.33018 0
M  V30 3027 C 284.628 -2.10285 -3.77365 0
M  V30 3028 C 283.763 -1.75339 -5.01427 0
M  V30 3029 C 282.802 -2.91515 -5.38224 0
M  V30 3030 N 281.939 -2.56762 -6.53466 0
M  V30 3031 H 286.779 -2.13853 -2.07535 0
M  V30 3032 H 284.316 -1.06379 -1.01597 0
M  V30 3033 H 286.274 -0.719765 -4.10944 0
M  V30 3034 H 284.904 0.00519624 -3.228 0
M  V30 3035 H 283.956 -2.39899 -2.95216 0
M  V30 3036 H 285.268 -2.97237 -4.00564 0
M  V30 3037 H 284.422 -1.53266 -5.87022 0
M  V30 3038 H 283.161 -0.855801 -4.80133 0
M  V30 3039 H 282.166 -3.14237 -4.51149 0
M  V30 3040 H 283.391 -3.81985 -5.61484 0
M  V30 3041 H 281.337 -1.69526 -6.33717 0
M  V30 3042 H 281.254 -3.37243 -6.76612 0
M  V30 3043 H 282.522 -2.38083 -7.42251 0
M  V30 3044 N 286.751 1.08385 -1.14413 0
M  V30 3045 C 287.979 1.84517 -0.936001 0
M  V30 3046 C 288.394 1.81626 0.515503 0
M  V30 3047 O 287.751 1.22008 1.35721 0
M  V30 3048 C 287.802 3.32049 -1.42918 0
M  V30 3049 O 287.523 3.34951 -2.82381 0
M  V30 3050 C 289.024 4.24986 -1.26103 0
M  V30 3051 H 286.244 0.582491 -0.333084 0
M  V30 3052 H 288.788 1.36885 -1.5193 0
M  V30 3053 H 286.943 3.7707 -0.888641 0
M  V30 3054 H 287.357 4.27048 -3.04517 0
M  V30 3055 H 288.831 5.26615 -1.6547 0
M  V30 3056 H 289.308 4.38726 -0.20392 0
M  V30 3057 H 289.914 3.85791 -1.79012 0
M  V30 3058 N 288.23 0.939286 1.26551 0
M  V30 3059 C 289.478 0.58469 1.93457 0
M  V30 3060 C 289.799 -0.878774 1.74076 0
M  V30 3061 O 289.069 -1.62421 1.09528 0
M  V30 3062 H 287.649 0.21325 0.715914 0
M  V30 3063 H 290.311 1.1942 1.54029 0
M  V30 3064 H 289.407 0.800849 3.0165 0
M  V30 3065 N 289.708 -1.40897 0.706093 0
M  V30 3066 C 290.985 -1.94868 0.169099 0
M  V30 3067 C 291.365 -1.64485 -1.32318 0
M  V30 3068 O 290.713 -0.95744 -2.07474 0
M  V30 3069 C 290.923 -3.45798 0.471654 0
M  V30 3070 C 292.271 -4.22663 0.405127 0
M  V30 3071 O 293.295 -3.53865 0.407168 0
M  V30 3072 O 292.154 -5.45216 0.374383 0
M  V30 3073 H 289.248 -0.82673 0.0211352 0
M  V30 3074 H 291.794 -1.50558 0.782976 0
M  V30 3075 H 290.566 -3.61235 1.50416 0
M  V30 3076 H 290.189 -3.97225 -0.172666 0
M  V30 3077 N 291.186 -0.45159 -1.50991 0
M  V30 3078 C 292.149 0.341117 -2.26647 0
M  V30 3079 C 293.149 0.937422 -1.30649 0
M  V30 3080 O 294.339 0.809644 -1.54241 0
M  V30 3081 C 291.471 1.48398 -3.06905 0
M  V30 3082 H 292.664 -0.322117 -2.98165 0
M  V30 3083 H 290.217 -0.205122 -1.54948 0
M  V30 3084 H 290.952 2.18284 -2.39838 0
M  V30 3085 H 290.737 1.06241 -3.77432 0
M  V30 3086 H 292.227 2.04367 -3.64176 0
M  V30 3087 N 292.664 1.56529 -0.183458 0
M  V30 3088 C 293.627 2.17324 0.728223 0
M  V30 3089 C 294.627 1.12453 1.14939 0
M  V30 3090 O 295.817 1.37902 1.06437 0
M  V30 3091 C 292.949 2.76591 1.99274 0
M  V30 3092 H 294.142 2.99241 0.198772 0
M  V30 3093 H 291.695 1.5616 0.0661391 0
M  V30 3094 H 292.43 1.98441 2.56499 0
M  V30 3095 H 292.215 3.5335 1.69959 0
M  V30 3096 H 293.705 3.23311 2.6431 0
M  V30 3097 N 294.142 -0.090211 1.57342 0
M  V30 3098 C 295.074 -1.13541 1.99101 0
M  V30 3099 C 296.087 -1.3604 0.894258 0
M  V30 3100 O 297.276 -1.34606 1.17233 0
M  V30 3101 C 294.376 -2.49001 2.29895 0
M  V30 3102 C 293.549 -2.46712 3.61182 0
M  V30 3103 C 292.608 -3.64136 3.79857 0
M  V30 3104 O 291.634 -3.46405 4.51655 0
M  V30 3105 N 292.836 -4.83802 3.20806 0
M  V30 3106 H 295.601 -0.779942 2.89373 0
M  V30 3107 H 293.162 -0.279125 1.59476 0
M  V30 3108 H 295.154 -3.26166 2.39578 0
M  V30 3109 H 293.724 -2.76619 1.45605 0
M  V30 3110 H 292.944 -1.55058 3.62423 0
M  V30 3111 H 294.232 -2.42265 4.4742 0
M  V30 3112 H 293.63 -5.01112 2.62494 0
M  V30 3113 H 292.187 -5.58543 3.35966 0
M  V30 3114 N 295.62 -1.53406 -0.361157 0
M  V30 3115 C 296.869 -1.69022 -1.10066 0
M  V30 3116 C 297.182 -0.450838 -1.90333 0
M  V30 3117 O 298.388 -0.487617 -2.67085 0
M  V30 3118 C 296.844 -2.98812 -2.00598 0
M  V30 3119 C 296.452 -4.30027 -1.25621 0
M  V30 3120 C 298.196 -3.23795 -2.74513 0
M  V30 3121 C 296.103 -5.50903 -2.1508 0
M  V30 3122 H 295.033 -0.629776 -0.414606 0
M  V30 3123 H 297.684 -1.79907 -0.361348 0
M  V30 3124 H 296.066 -2.8174 -2.78278 0
M  V30 3125 H 297.24 -4.57745 -0.529739 0
M  V30 3126 H 295.555 -4.11522 -0.635496 0
M  V30 3127 H 298.152 -4.11289 -3.41681 0
M  V30 3128 H 298.495 -2.40045 -3.40123 0
M  V30 3129 H 299.028 -3.41561 -2.03914 0
M  V30 3130 H 295.767 -6.37143 -1.54041 0
M  V30 3131 H 295.287 -5.27459 -2.85565 0
M  V30 3132 H 296.966 -5.85865 -2.74538 0
M  V30 3133 N 297.098 0.621204 -1.44841 0
M  V30 3134 C 298.344 1.3826 -1.48365 0
M  V30 3135 C 298.677 1.93831 -0.119624 0
M  V30 3136 O 297.952 1.74251 0.864111 0
M  V30 3137 C 298.235 2.54058 -2.55199 0
M  V30 3138 C 298.088 2.03772 -4.00995 0
M  V30 3139 C 299.407 3.56225 -2.58442 0
M  V30 3140 H 296.526 0.501374 -0.540179 0
M  V30 3141 H 299.168 0.7015 -1.76576 0
M  V30 3142 H 297.318 3.12162 -2.31274 0
M  V30 3143 H 298.99 1.50423 -4.36086 0
M  V30 3144 H 297.233 1.34876 -4.12299 0
M  V30 3145 H 297.904 2.87185 -4.71411 0
M  V30 3146 H 300.38 3.07939 -2.79844 0
M  V30 3147 H 299.256 4.34756 -3.3508 0
M  V30 3148 H 299.517 4.10949 -1.63013 0
M  V30 3149 N 298.576 1.31904 0.862503 0
M  V30 3150 C 299.825 1.21373 1.61094 0
M  V30 3151 C 300.138 -0.22504 1.94301 0
M  V30 3152 O 301.344 -0.452121 2.67709 0
M  V30 3153 C 299.8 2.12525 2.9045 0
M  V30 3154 C 299.408 3.61441 2.64697 0
M  V30 3155 C 301.152 2.10813 3.68454 0
M  V30 3156 C 299.059 4.44578 3.90006 0
M  V30 3157 H 297.989 0.450705 0.604468 0
M  V30 3158 H 300.64 1.56811 0.953027 0
M  V30 3159 H 299.022 1.69994 3.57656 0
M  V30 3160 H 300.196 4.12264 2.05851 0
M  V30 3161 H 298.511 3.65205 2.00036 0
M  V30 3162 H 301.108 2.70167 4.61426 0
M  V30 3163 H 301.451 1.09713 4.01583 0
M  V30 3164 H 301.984 2.51583 3.08141 0
M  V30 3165 H 298.723 5.46461 3.62023 0
M  V30 3166 H 298.243 3.98508 4.48276 0
M  V30 3167 H 299.922 4.57176 4.5782 0
M  V30 3168 N 300.054 -1.07777 1.14986 0
M  V30 3169 C 301.302 -1.79934 0.920235 0
M  V30 3170 C 301.623 -1.86955 -0.554336 0
M  V30 3171 O 300.893 -1.36731 -1.40291 0
M  V30 3172 H 299.473 -0.666424 0.337473 0
M  V30 3173 H 302.135 -1.3027 1.44968 0
M  V30 3174 H 301.231 -2.82539 1.32583 0
M  V30 3175 N 301.532 -0.945985 -1.26051 0
M  V30 3176 C 302.495 -0.463897 -2.24456 0
M  V30 3177 C 303.495 0.427655 -1.55009 0
M  V30 3178 O 304.685 0.226157 -1.72726 0
M  V30 3179 C 301.817 0.330812 -3.39291 0
M  V30 3180 H 303.01 -1.33357 -2.68619 0
M  V30 3181 H 300.563 -0.728416 -1.38289 0
M  V30 3182 H 301.298 1.21852 -3.00537 0
M  V30 3183 H 301.083 -0.308679 -3.90883 0
M  V30 3184 H 302.573 0.657865 -4.12386 0
M  V30 3185 N 303.011 1.40521 -0.713556 0
M  V30 3186 C 304.259 2.00527 -0.251692 0
M  V30 3187 C 304.58 1.56857 1.15848 0
M  V30 3188 O 303.85 0.807127 1.785 0
M  V30 3189 H 302.43 0.741551 -0.0900646 0
M  V30 3190 H 305.092 1.71887 -0.918733 0
M  V30 3191 H 304.188 3.10813 -0.283192 0
M  V30 3192 N 304.489 0.459591 1.5075 0
M  V30 3193 C 305.738 -0.100971 2.01447 0
M  V30 3194 C 306.051 -1.41816 1.34713 0
M  V30 3195 O 307.257 -2.06299 1.76502 0
M  V30 3196 C 305.713 -0.23047 3.59161 0
M  V30 3197 C 305.321 1.0776 4.34847 0
M  V30 3198 C 307.065 -0.743608 4.17936 0
M  V30 3199 C 304.972 0.91253 5.84317 0
M  V30 3200 H 303.902 -0.0415102 0.752856 0
M  V30 3201 H 306.553 0.592742 1.73663 0
M  V30 3202 H 304.935 -0.987703 3.83485 0
M  V30 3203 H 306.109 1.8449 4.22256 0
M  V30 3204 H 304.424 1.52097 3.87628 0
M  V30 3205 H 307.021 -0.883959 5.27343 0
M  V30 3206 H 307.364 -1.73196 3.78562 0
M  V30 3207 H 307.897 -0.04408 3.97776 0
M  V30 3208 H 304.636 1.87391 6.28144 0
M  V30 3209 H 304.156 0.185422 5.99513 0
M  V30 3210 H 305.835 0.574547 6.44444 0
M  V30 3211 N 305.967 -1.56429 0.191757 0
M  V30 3212 C 306.915 -2.20273 -0.747174 0
M  V30 3213 C 307.909 -1.17288 -1.22229 0
M  V30 3214 O 309.115 -1.35441 -1.18557 0
M  V30 3215 H 305.49 -0.705885 -0.259289 0
M  V30 3216 H 307.461 -2.97826 -0.184963 0
M  V30 3217 C 306.21 -2.87356 -1.95759 0
M  V30 3218 H 305.533 -3.66341 -1.60106 0
M  V30 3219 H 306.973 -3.3547 -2.59299 0
M  V30 3220 C 305.432 -1.88213 -2.79423 0
M  V30 3221 O 305.962 -1.38033 -3.7724 0
M  V30 3222 N 304.168 -1.56516 -2.44849 0
M  V30 3223 H 303.715 -1.97516 -1.65364 0
M  V30 3224 H 303.673 -0.904369 -3.01112 0
M  V30 3225 N 307.445 0.0818655 -1.57387 0
M  V30 3226 C 308.378 1.12986 -1.98266 0
M  V30 3227 C 309.356 1.38123 -0.857954 0
M  V30 3228 O 310.54 1.51663 -1.1194 0
M  V30 3229 C 307.667 2.47632 -2.31076 0
M  V30 3230 C 306.713 2.38693 -3.53452 0
M  V30 3231 S 307.546 1.79071 -5.04672 0
M  V30 3232 C 308.702 3.15316 -5.40673 0
M  V30 3233 H 308.935 0.781435 -2.86846 0
M  V30 3234 H 306.468 0.290034 -1.51651 0
M  V30 3235 H 308.426 3.25089 -2.50654 0
M  V30 3236 H 307.087 2.79638 -1.43043 0
M  V30 3237 H 306.28 3.37964 -3.73893 0
M  V30 3238 H 305.882 1.69369 -3.33452 0
M  V30 3239 H 308.174 4.11613 -5.38127 0
M  V30 3240 H 309.117 2.99664 -6.41566 0
M  V30 3241 H 309.525 3.15457 -4.68132 0
M  V30 3242 N 308.923 1.53595 0.353017 0
M  V30 3243 C 309.886 1.80232 1.41594 0
M  V30 3244 C 310.886 0.673081 1.46035 0
M  V30 3245 O 312.076 0.941335 1.46576 0
M  V30 3246 C 309.208 1.93578 2.80607 0
M  V30 3247 H 310.401 2.75174 1.19244 0
M  V30 3248 H 307.954 1.44864 0.586872 0
M  V30 3249 H 308.689 1.00746 3.08254 0
M  V30 3250 H 308.474 2.75724 2.78781 0
M  V30 3251 H 309.964 2.15735 3.57558 0
M  V30 3252 N 310.401 -0.613514 1.45168 0
M  V30 3253 C 311.334 -1.73809 1.47871 0
M  V30 3254 C 312.312 -1.59097 0.33568 0
M  V30 3255 O 313.496 -1.8074 0.535299 0
M  V30 3256 C 310.623 -3.11574 1.32813 0
M  V30 3257 C 309.669 -3.4489 2.50905 0
M  V30 3258 S 310.502 -3.40393 4.13392 0
M  V30 3259 C 311.658 -4.80749 4.00789 0
M  V30 3260 H 311.891 -1.71252 2.43023 0
M  V30 3261 H 309.424 -0.789658 1.32679 0
M  V30 3262 H 311.382 -3.91065 1.24812 0
M  V30 3263 H 310.043 -3.11652 0.391418 0
M  V30 3264 H 309.236 -4.45183 2.36279 0
M  V30 3265 H 308.838 -2.72901 2.55736 0
M  V30 3266 H 311.13 -5.7041 3.65567 0
M  V30 3267 H 312.073 -5.00431 5.00974 0
M  V30 3268 H 312.481 -4.56151 3.32545 0
M  V30 3269 N 311.879 -1.3236 -0.855495 0
M  V30 3270 C 313.295 -1.11332 -1.14356 0
M  V30 3271 C 313.495 0.106751 -2.01217 0
M  V30 3272 O 312.551 0.791891 -2.39761 0
M  V30 3273 C 313.864 -2.39237 -1.82171 0
M  V30 3274 C 315.412 -2.44986 -1.9481 0
M  V30 3275 C 315.887 -3.7281 -2.66039 0
M  V30 3276 N 317.378 -3.73787 -2.73565 0
M  V30 3277 C 318.113 -4.69394 -3.29327 0
M  V30 3278 N 317.609 -5.75367 -3.85907 0
M  V30 3279 N 319.402 -4.56893 -3.27423 0
M  V30 3280 H 311.553 -2.10586 -0.277027 0
M  V30 3281 H 313.816 -0.929701 -0.185364 0
M  V30 3282 H 313.522 -3.28431 -1.25802 0
M  V30 3283 H 313.396 -2.50134 -2.82335 0
M  V30 3284 H 315.783 -1.56252 -2.50338 0
M  V30 3285 H 315.864 -2.38043 -0.936448 0
M  V30 3286 H 315.508 -4.61918 -2.11174 0
M  V30 3287 H 315.438 -3.77024 -3.67642 0
M  V30 3288 H 317.929 -2.97189 -2.33424 0
M  V30 3289 H 318.242 -6.44378 -4.26611 0
M  V30 3290 H 316.587 -5.79123 -3.84242 0
M  V30 3291 H 319.778 -3.73269 -2.82467 0
M  V30 3292 H 319.951 -5.31577 -3.7058 0
M  V30 3293 N 313.357 1.07166 -1.15556 0
M  V30 3294 C 314.773 1.31899 -0.898603 0
M  V30 3295 C 314.973 1.96333 0.453383 0
M  V30 3296 O 314.029 2.22438 1.19489 0
M  V30 3297 C 315.342 2.20826 -2.04099 0
M  V30 3298 C 316.89 2.34269 -2.07574 0
M  V30 3299 C 317.365 3.26546 -3.21141 0
M  V30 3300 N 318.856 3.34127 -3.20801 0
M  V30 3301 C 319.591 4.05595 -4.05315 0
M  V30 3302 N 319.087 4.79661 -4.99897 0
M  V30 3303 N 320.88 4.01555 -3.93332 0
M  V30 3304 H 313.031 0.637302 -2.02613 0
M  V30 3305 H 315.294 0.343468 -0.883591 0
M  V30 3306 H 315 1.80744 -3.01703 0
M  V30 3307 H 314.874 3.21364 -1.97496 0
M  V30 3308 H 317.261 2.73603 -1.10568 0
M  V30 3309 H 317.342 1.33429 -2.18244 0
M  V30 3310 H 316.986 2.87931 -4.184 0
M  V30 3311 H 316.916 4.27345 -3.07708 0
M  V30 3312 H 319.407 2.81336 -2.52306 0
M  V30 3313 H 319.72 5.31694 -5.60822 0
M  V30 3314 H 318.065 4.78671 -5.03884 0
M  V30 3315 H 321.256 3.42806 -3.18751 0
M  V30 3316 H 321.429 4.56987 -4.5942 0
M  V30 3317 N 314.835 0.952656 1.25548 0
M  V30 3318 C 316.081 0.607272 1.93494 0
M  V30 3319 C 316.414 -0.853245 1.74452 0
M  V30 3320 O 315.689 -1.61194 1.08843 0
M  V30 3321 C 315.972 0.96435 3.46947 0
M  V30 3322 C 315.825 2.48045 3.75225 0
M  V30 3323 C 317.144 0.487987 4.37386 0
M  V30 3324 H 314.263 0.222096 0.702739 0
M  V30 3325 H 316.905 1.18895 1.48203 0
M  V30 3326 H 315.055 0.469361 3.85654 0
M  V30 3327 H 316.727 3.04905 3.46166 0
M  V30 3328 H 314.97 2.919 3.209 0
M  V30 3329 H 315.641 2.6808 4.82532 0
M  V30 3330 H 318.117 0.912558 4.0597 0
M  V30 3331 H 316.993 0.766547 5.43521 0
M  V30 3332 H 317.254 -0.612063 4.37843 0
M  V30 3333 N 316.313 -1.40141 0.720998 0
M  V30 3334 C 317.223 -2.34486 0.0731031 0
M  V30 3335 C 318.239 -1.57587 -0.737723 0
M  V30 3336 O 319.415 -1.89949 -0.669429 0
M  V30 3337 C 316.48 -3.36528 -0.833656 0
M  V30 3338 C 315.541 -4.29298 -0.0121673 0
M  V30 3339 C 314.774 -5.26466 -0.875742 0
M  V30 3340 O 314.997 -5.29745 -2.11485 0
M  V30 3341 O 313.931 -6.01092 -0.31185 0
M  V30 3342 H 317.757 -2.9152 0.851444 0
M  V30 3343 H 315.342 -1.41427 0.481527 0
M  V30 3344 H 317.224 -3.99093 -1.35289 0
M  V30 3345 H 315.899 -2.81899 -1.59105 0
M  V30 3346 H 314.806 -3.70001 0.552262 0
M  V30 3347 H 316.139 -4.87094 0.707129 0
M  V30 3348 N 317.792 -0.46758 -1.50504 0
M  V30 3349 C 318.702 0.33382 -2.32213 0
M  V30 3350 C 319.718 0.999323 -1.42441 0
M  V30 3351 O 320.894 0.988068 -1.75497 0
M  V30 3352 C 317.959 1.4035 -3.17022 0
M  V30 3353 C 317.02 0.754961 -4.2261 0
M  V30 3354 C 316.253 1.77367 -5.03365 0
M  V30 3355 O 316.476 2.99976 -4.8515 0
M  V30 3356 O 315.41 1.34744 -5.86624 0
M  V30 3357 H 319.236 -0.334067 -3.01857 0
M  V30 3358 H 316.821 -0.229496 -1.47627 0
M  V30 3359 H 318.703 2.02318 -3.69656 0
M  V30 3360 H 317.378 2.05492 -2.5011 0
M  V30 3361 H 316.285 0.0964244 -3.73976 0
M  V30 3362 H 317.618 0.146545 -4.91982 0
M  V30 3363 N 319.27 1.56325 -0.20005 0
M  V30 3364 C 320.495 2.02548 0.44597 0
M  V30 3365 C 320.92 1.07922 1.5406 0
M  V30 3366 O 320.278 0.0635775 1.81188 0
M  V30 3367 C 320.326 3.47175 0.974761 0
M  V30 3368 O 319.43 3.55671 2.08739 0
M  V30 3369 H 318.771 0.655862 0.103638 0
M  V30 3370 H 321.301 2.02201 -0.312381 0
M  V30 3371 H 321.311 3.87067 1.2901 0
M  V30 3372 H 319.986 4.15538 0.17347 0
M  V30 3373 H 318.563 3.27657 1.78032 0
M  V30 3374 N 320.748 -0.0735177 1.57428 0
M  V30 3375 C 321.994 -0.774145 1.87443 0
M  V30 3376 C 322.327 -1.77311 0.792103 0
M  V30 3377 O 321.602 -1.93492 -0.197793 0
M  V30 3378 C 321.885 -1.48367 3.28115 0
M  V30 3379 C 321.738 -0.501227 4.46999 0
M  V30 3380 C 323.057 -2.429 3.66998 0
M  V30 3381 H 320.176 -0.279971 0.681752 0
M  V30 3382 H 322.818 -0.0373616 1.89963 0
M  V30 3383 H 320.968 -2.11171 3.26097 0
M  V30 3384 H 322.64 0.121468 4.6114 0
M  V30 3385 H 320.883 0.183593 4.33411 0
M  V30 3386 H 321.554 -1.03526 5.42205 0
M  V30 3387 H 324.03 -1.90175 3.70098 0
M  V30 3388 H 322.906 -2.89549 4.66318 0
M  V30 3389 H 323.167 -3.27628 2.96837 0
M  V30 3390 N 322.226 -1.5378 -0.344866 0
M  V30 3391 C 323.472 -1.71216 -1.08687 0
M  V30 3392 C 323.805 -0.473281 -1.88345 0
M  V30 3393 O 323.08 0.52968 -1.87149 0
M  V30 3394 C 323.363 -2.97486 -2.02914 0
M  V30 3395 C 323.216 -4.31579 -1.26727 0
M  V30 3396 C 324.535 -3.19422 -3.0275 0
M  V30 3397 H 321.654 -0.62301 -0.393735 0
M  V30 3398 H 324.296 -1.8645 -0.365563 0
M  V30 3399 H 322.446 -2.84629 -2.64421 0
M  V30 3400 H 324.118 -4.56284 -0.67845 0
M  V30 3401 H 322.361 -4.30049 -0.569273 0
M  V30 3402 H 323.032 -5.16106 -1.95803 0
M  V30 3403 H 325.508 -3.316 -2.51357 0
M  V30 3404 H 324.384 -4.09169 -3.65885 0
M  V30 3405 H 324.645 -2.35656 -3.74057 0
M  V30 3406 N 323.704 0.605807 -1.45491 0
M  V30 3407 C 324.652 1.73754 -1.54636 0
M  V30 3408 C 325.646 1.64207 -0.416219 0
M  V30 3409 O 326.852 1.69979 -0.592199 0
M  V30 3410 H 323.227 0.574073 -0.485741 0
M  V30 3411 H 325.198 1.63169 -2.49837 0
M  V30 3412 C 323.947 3.12135 -1.53189 0
M  V30 3413 H 323.27 3.20141 -2.39478 0
M  V30 3414 H 324.71 3.91147 -1.63645 0
M  V30 3415 C 323.169 3.35921 -0.256616 0
M  V30 3416 O 323.699 3.96194 0.662798 0
M  V30 3417 N 321.905 2.90204 -0.151751 0
M  V30 3418 H 321.452 2.41336 -0.90081 0
M  V30 3419 H 321.41 3.06492 0.700699 0
M  V30 3420 N 325.182 1.32811 0.848464 0
M  V30 3421 C 326.114 1.18095 1.96433 0
M  V30 3422 C 327.127 0.114354 1.62398 0
M  V30 3423 O 328.316 0.363892 1.74751 0
M  V30 3424 C 325.416 0.786798 3.2964 0
M  V30 3425 C 324.589 1.943 3.91875 0
M  V30 3426 C 323.648 1.53138 5.03423 0
M  V30 3427 O 322.674 2.24432 5.23086 0
M  V30 3428 N 323.876 0.430915 5.78898 0
M  V30 3429 H 326.641 2.14218 2.09597 0
M  V30 3430 H 324.202 1.2543 1.02367 0
M  V30 3431 H 326.194 0.493715 4.01677 0
M  V30 3432 H 324.764 -0.0834541 3.12489 0
M  V30 3433 H 323.984 2.40224 3.12547 0
M  V30 3434 H 325.272 2.71689 4.30189 0
M  V30 3435 H 324.67 -0.162333 5.65467 0
M  V30 3436 H 323.227 0.197466 6.51501 0
M  V30 3437 N 326.66 -1.06551 1.16123 0
M  V30 3438 C 327.908 -1.78947 0.939267 0
M  V30 3439 C 328.229 -1.87532 -0.534476 0
M  V30 3440 O 327.499 -1.38211 -1.38833 0
M  V30 3441 H 326.079 -0.662807 0.344523 0
M  V30 3442 H 328.741 -1.28725 1.46342 0
M  V30 3443 H 327.837 -2.81117 1.35572 0
M  V30 3444 N 328.138 -0.959301 -1.25041 0
M  V30 3445 C 329.384 -0.627096 -1.93492 0
M  V30 3446 C 329.739 0.827484 -1.73696 0
M  V30 3447 O 329.032 1.58651 -1.07427 0
M  V30 3448 C 329.226 -0.927136 -3.45165 0
M  V30 3449 C 329.055 -2.40933 -3.79712 0
M  V30 3450 C 327.825 -3.0677 -4.01522 0
M  V30 3451 C 330.023 -3.38894 -3.86853 0
M  V30 3452 N 328.005 -4.44815 -4.231 0
M  V30 3453 C 329.376 -4.62263 -4.13174 0
M  V30 3454 C 331.431 -3.33668 -3.69554 0
M  V30 3455 C 330.134 -5.81052 -4.23995 0
M  V30 3456 C 332.16 -4.518 -3.81616 0
M  V30 3457 C 331.522 -5.73957 -4.08354 0
M  V30 3458 H 327.621 -0.280166 -0.73009 0
M  V30 3459 H 330.205 -1.23244 -1.50729 0
M  V30 3460 H 328.376 -0.350685 -3.86814 0
M  V30 3461 H 330.108 -0.554361 -4.00885 0
M  V30 3462 H 326.863 -2.57327 -3.97593 0
M  V30 3463 H 327.287 -5.16319 -4.37885 0
M  V30 3464 H 331.929 -2.40268 -3.47895 0
M  V30 3465 H 329.647 -6.74888 -4.44468 0
M  V30 3466 H 333.233 -4.49309 -3.69612 0
M  V30 3467 H 332.113 -6.6384 -4.17475 0
M  V30 3468 N 329.616 1.39756 -0.72842 0
M  V30 3469 C 330.865 1.99879 -0.270407 0
M  V30 3470 C 331.178 1.58449 1.14688 0
M  V30 3471 O 332.384 2.11362 1.70407 0
M  V30 3472 C 330.84 3.57292 -0.43252 0
M  V30 3473 C 330.448 4.07688 -1.85727 0
M  V30 3474 C 332.192 4.24485 -0.0359507 0
M  V30 3475 C 330.099 5.5765 -1.96928 0
M  V30 3476 H 329.029 0.747689 -0.0973472 0
M  V30 3477 H 331.68 1.59837 -0.901355 0
M  V30 3478 H 330.062 3.95097 0.267219 0
M  V30 3479 H 331.236 3.81231 -2.58843 0
M  V30 3480 H 329.551 3.53135 -2.20646 0
M  V30 3481 H 332.148 5.34609 -0.0987484 0
M  V30 3482 H 332.491 4.03915 1.00787 0
M  V30 3483 H 333.024 3.9183 -0.686604 0
M  V30 3484 H 329.763 5.8309 -2.99476 0
M  V30 3485 H 329.283 5.8593 -1.28241 0
M  V30 3486 H 330.962 6.22957 -1.74737 0
M  V30 3487 N 331.094 0.475555 1.50254 0
M  V30 3488 C 332.322 -0.0754493 2.06762 0
M  V30 3489 C 332.737 -1.33111 1.33891 0
M  V30 3490 O 332.094 -1.77846 0.40952 0
M  V30 3491 C 332.145 -0.359008 3.59713 0
M  V30 3492 O 331.866 0.846851 4.29837 0
M  V30 3493 C 333.367 -0.956484 4.32858 0
M  V30 3494 H 330.587 0.00907525 0.670939 0
M  V30 3495 H 333.131 0.665618 1.93364 0
M  V30 3496 H 331.286 -1.05001 3.72899 0
M  V30 3497 H 331.7 0.594162 5.21124 0
M  V30 3498 H 333.174 -1.10463 5.40834 0
M  V30 3499 H 333.651 -1.94775 3.93649 0
M  V30 3500 H 334.257 -0.303723 4.24214 0
M  V30 3501 N 332.573 -1.56217 0.208337 0
M  V30 3502 C 333.503 -2.22694 -0.702116 0
M  V30 3503 C 334.484 -1.19432 -1.2112 0
M  V30 3504 O 335.669 -1.47978 -1.25762 0
M  V30 3505 C 332.799 -2.8966 -1.9161 0
M  V30 3506 C 331.753 -3.9928 -1.5414 0
M  V30 3507 C 331.079 -4.53476 -2.83308 0
M  V30 3508 C 332.379 -5.17012 -0.741339 0
M  V30 3509 H 334.073 -2.99034 -0.147898 0
M  V30 3510 H 331.619 -1.43831 -0.0696951 0
M  V30 3511 H 333.572 -3.34852 -2.55836 0
M  V30 3512 H 332.296 -2.10746 -2.49507 0
M  V30 3513 H 330.955 -3.54799 -0.922668 0
M  V30 3514 H 330.603 -3.71308 -3.39322 0
M  V30 3515 H 330.303 -5.27451 -2.58976 0
M  V30 3516 H 331.827 -5.01378 -3.485 0
M  V30 3517 H 333.241 -5.58667 -1.28699 0
M  V30 3518 H 331.638 -5.97137 -0.595627 0
M  V30 3519 H 332.708 -4.8423 0.254851 0
M  V30 3520 N 334.051 0.0651679 -1.57465 0
M  V30 3521 C 334.983 1.10359 -2.00882 0
M  V30 3522 C 335.996 1.346 -0.915788 0
M  V30 3523 O 337.185 1.32723 -1.1936 0
M  V30 3524 C 334.285 2.45312 -2.33828 0
M  V30 3525 C 333.458 2.40934 -3.65061 0
M  V30 3526 C 332.517 3.58047 -3.85602 0
M  V30 3527 O 331.543 3.39175 -4.57109 0
M  V30 3528 N 332.745 4.78637 -3.28462 0
M  V30 3529 H 335.51 0.733807 -2.90578 0
M  V30 3530 H 333.071 0.253719 -1.599 0
M  V30 3531 H 335.063 3.22314 -2.44737 0
M  V30 3532 H 333.633 2.74267 -1.49988 0
M  V30 3533 H 332.853 1.49273 -3.64844 0
M  V30 3534 H 334.141 2.35117 -4.51218 0
M  V30 3535 H 333.539 4.96872 -2.70433 0
M  V30 3536 H 332.096 5.53127 -3.44809 0
M  V30 3537 N 335.529 1.53961 0.336706 0
M  V30 3538 C 336.439 1.85432 1.43708 0
M  V30 3539 C 337.455 0.745053 1.57242 0
M  V30 3540 O 338.631 1.03804 1.72588 0
M  V30 3541 C 335.696 2.06349 2.78605 0
M  V30 3542 C 334.757 3.30191 2.74358 0
M  V30 3543 C 333.99 3.50101 4.02822 0
M  V30 3544 O 334.213 2.7371 5.00439 0
M  V30 3545 O 333.147 4.43547 4.06878 0
M  V30 3546 H 336.973 2.78975 1.20028 0
M  V30 3547 H 334.558 1.39701 0.52952 0
M  V30 3548 H 336.44 2.21513 3.58483 0
M  V30 3549 H 335.115 1.15995 3.02203 0
M  V30 3550 H 334.022 3.20425 1.93078 0
M  V30 3551 H 335.355 4.2056 2.55715 0
M  V30 3552 N 337.007 -0.598083 1.45811 0
M  V30 3553 C 337.97 -1.69018 1.54808 0
M  V30 3554 C 338.97 -1.55037 0.426652 0
M  V30 3555 O 340.16 -1.59932 0.690456 0
M  V30 3556 C 337.292 -3.0835 1.45371 0
M  V30 3557 H 338.485 -1.62403 2.52121 0
M  V30 3558 H 336.038 -0.814626 1.33392 0
M  V30 3559 H 336.773 -3.20534 0.492793 0
M  V30 3560 H 336.558 -3.19907 2.26721 0
M  V30 3561 H 338.048 -3.8788 1.54721 0
M  V30 3562 N 338.485 -1.33259 -0.841409 0
M  V30 3563 C 339.733 -1.24326 -1.59334 0
M  V30 3564 C 340.054 0.191564 -1.94057 0
M  V30 3565 O 339.324 1.11967 -1.60749 0
M  V30 3566 H 337.904 -0.457174 -0.590763 0
M  V30 3567 H 340.566 -1.66947 -1.00571 0
M  V30 3568 H 339.662 -1.8352 -2.52442 0
M  V30 3569 N 339.963 1.05934 -1.16686 0
M  V30 3570 C 341.212 1.78188 -0.945085 0
M  V30 3571 C 341.525 1.88338 0.528021 0
M  V30 3572 O 342.731 2.57258 0.867799 0
M  V30 3573 C 341.187 3.20277 -1.64167 0
M  V30 3574 C 340.795 3.18281 -3.15279 0
M  V30 3575 C 342.539 3.97039 -1.502 0
M  V30 3576 C 340.446 4.55112 -3.7766 0
M  V30 3577 H 339.376 0.667866 -0.349959 0
M  V30 3578 H 342.027 1.18794 -1.39858 0
M  V30 3579 H 340.409 3.79952 -1.11589 0
M  V30 3580 H 341.583 2.68167 -3.74731 0
M  V30 3581 H 339.898 2.55018 -3.29173 0
M  V30 3582 H 342.495 4.98194 -1.94183 0
M  V30 3583 H 342.838 4.13845 -0.451461 0
M  V30 3584 H 343.371 3.43894 -1.99954 0
M  V30 3585 H 340.11 4.43512 -4.82677 0
M  V30 3586 H 339.63 5.05406 -3.22994 0
M  V30 3587 H 341.309 5.24064 -3.79428 0
M  V30 3588 N 341.441 0.965919 1.2453 0
M  V30 3589 C 342.389 0.486506 2.27455 0
M  V30 3590 C 343.383 -0.449041 1.6334 0
M  V30 3591 O 344.589 -0.324527 1.7705 0
M  V30 3592 H 340.964 0.138857 0.739069 0
M  V30 3593 H 342.935 1.3666 2.65267 0
M  V30 3594 C 341.684 -0.209481 3.47068 0
M  V30 3595 H 341.007 0.50129 3.96645 0
M  V30 3596 H 342.447 -0.508775 4.20936 0
M  V30 3597 C 340.906 -1.43586 3.0477 0
M  V30 3598 O 341.436 -2.53299 3.11773 0
M  V30 3599 N 339.642 -1.30126 2.59838 0
M  V30 3600 H 339.189 -0.408583 2.54339 0
M  V30 3601 H 339.147 -2.12294 2.31902 0
M  V30 3602 N 342.919 -1.39368 0.735821 0
M  V30 3603 C 343.849 -2.33234 0.111506 0
M  V30 3604 C 344.83 -1.53954 -0.723334 0
M  V30 3605 O 346.015 -1.82344 -0.668147 0
M  V30 3606 C 343.145 -3.38057 -0.795917 0
M  V30 3607 C 342.099 -4.2795 -0.065172 0
M  V30 3608 C 341.425 -5.23479 -1.08967 0
M  V30 3609 C 342.725 -5.10741 1.09273 0
M  V30 3610 H 344.419 -2.85692 0.895571 0
M  V30 3611 H 341.965 -1.37364 0.432109 0
M  V30 3612 H 343.918 -4.02675 -1.24221 0
M  V30 3613 H 342.642 -2.8404 -1.61211 0
M  V30 3614 H 341.301 -3.64813 0.361511 0
M  V30 3615 H 340.949 -4.65758 -1.89944 0
M  V30 3616 H 340.649 -5.84472 -0.605489 0
M  V30 3617 H 342.173 -5.90974 -1.53565 0
M  V30 3618 H 343.587 -5.68699 0.724841 0
M  V30 3619 H 341.984 -5.8088 1.50659 0
M  V30 3620 H 343.054 -4.45525 1.91404 0
M  V30 3621 N 344.397 -0.483516 -1.5 0
M  V30 3622 C 345.674 0.129337 -1.95172 0
M  V30 3623 C 346.054 1.55802 -1.4244 0
M  V30 3624 O 345.402 2.19625 -0.630649 0
M  V30 3625 C 345.612 0.0599251 -3.48949 0
M  V30 3626 C 346.96 0.242617 -4.23906 0
M  V30 3627 O 347.984 0.135933 -3.55941 0
M  V30 3628 O 346.843 0.459454 -5.44565 0
M  V30 3629 H 343.937 0.104887 -0.820322 0
M  V30 3630 H 346.483 -0.544807 -1.60717 0
M  V30 3631 H 345.255 -0.937079 -3.79914 0
M  V30 3632 H 344.878 0.774984 -3.89974 0
M  V30 3633 N 345.875 1.56104 -0.216619 0
M  V30 3634 C 347.291 1.58995 0.13886 0
M  V30 3635 C 347.491 1.23333 1.59346 0
M  V30 3636 O 346.547 0.966234 2.33281 0
M  V30 3637 C 347.86 3.00143 -0.182968 0
M  V30 3638 C 349.408 3.12751 -0.124807 0
M  V30 3639 C 349.883 4.56068 -0.420241 0
M  V30 3640 N 351.374 4.61723 -0.369634 0
M  V30 3641 C 352.109 5.70542 -0.571789 0
M  V30 3642 N 351.605 6.87744 -0.835453 0
M  V30 3643 N 353.398 5.59831 -0.504563 0
M  V30 3644 H 345.549 1.77562 -1.16557 0
M  V30 3645 H 347.812 0.825091 -0.466828 0
M  V30 3646 H 347.518 3.30871 -1.19237 0
M  V30 3647 H 347.392 3.73813 0.504367 0
M  V30 3648 H 349.779 2.81822 0.875223 0
M  V30 3649 H 349.86 2.41421 -0.845544 0
M  V30 3650 H 349.504 4.87713 -1.41769 0
M  V30 3651 H 349.434 5.25617 0.321631 0
M  V30 3652 H 351.925 3.77502 -0.173338 0
M  V30 3653 H 352.238 7.66587 -0.977938 0
M  V30 3654 H 350.583 6.895 -0.872592 0
M  V30 3655 H 353.774 4.67145 -0.298842 0
M  V30 3656 H 353.947 6.44573 -0.665519 0
M  V30 3657 N 347.353 -0.0568162 1.57498 0
M  V30 3658 C 348.301 -1.08452 2.05769 0
M  V30 3659 C 349.295 -1.39164 0.965903 0
M  V30 3660 O 350.501 -1.38395 1.15095 0
M  V30 3661 H 346.876 -0.367148 0.656282 0
M  V30 3662 H 348.847 -0.651368 2.91204 0
M  V30 3663 C 347.596 -2.38543 2.52968 0
M  V30 3664 H 346.919 -2.15765 3.36579 0
M  V30 3665 H 348.359 -3.08863 2.90481 0
M  V30 3666 C 346.818 -3.05562 1.41893 0
M  V30 3667 O 347.348 -3.94262 0.769442 0
M  V30 3668 N 345.554 -2.6643 1.16032 0
M  V30 3669 H 345.101 -1.94387 1.6903 0
M  V30 3670 H 345.059 -3.11593 0.419219 0
M  V30 3671 N 348.832 -1.54138 -0.328536 0
M  V30 3672 C 350.06 -1.76062 -1.08673 0
M  V30 3673 C 350.475 -0.506852 -1.81869 0
M  V30 3674 O 349.832 0.522223 -1.74869 0
M  V30 3675 C 349.883 -2.95054 -2.08866 0
M  V30 3676 O 349.604 -4.15583 -1.38644 0
M  V30 3677 C 351.105 -3.2915 -2.96943 0
M  V30 3678 H 348.325 -0.587889 -0.323461 0
M  V30 3679 H 350.869 -2.0101 -0.376175 0
M  V30 3680 H 349.024 -2.72394 -2.75464 0
M  V30 3681 H 349.438 -4.82481 -2.05699 0
M  V30 3682 H 350.912 -4.15723 -3.63151 0
M  V30 3683 H 351.389 -2.461 -3.63774 0
M  V30 3684 H 351.995 -3.53871 -2.35914 0
M  V30 3685 N 350.31 0.590341 -1.46126 0
M  V30 3686 C 351.24 1.71032 -1.58966 0
M  V30 3687 C 352.221 1.64302 -0.440335 0
M  V30 3688 O 353.406 1.82436 -0.665634 0
M  V30 3689 C 350.536 3.09665 -1.57241 0
M  V30 3690 C 349.49 3.31221 -2.71066 0
M  V30 3691 C 348.816 4.70303 -2.54399 0
M  V30 3692 C 350.116 3.19796 -4.1295 0
M  V30 3693 H 351.81 1.60543 -2.52718 0
M  V30 3694 H 349.356 0.770933 -1.21625 0
M  V30 3695 H 351.309 3.87831 -1.64819 0
M  V30 3696 H 350.033 3.21036 -0.600289 0
M  V30 3697 H 348.692 2.55452 -2.62944 0
M  V30 3698 H 348.34 4.78429 -1.55288 0
M  V30 3699 H 348.04 4.85679 -3.30741 0
M  V30 3700 H 349.564 5.50647 -2.63857 0
M  V30 3701 H 350.978 3.87815 -4.22223 0
M  V30 3702 H 349.375 3.46696 -4.89818 0
M  V30 3703 H 350.445 2.16983 -4.33643 0
M  V30 3704 N 351.788 1.33704 0.83433 0
M  V30 3705 C 352.751 1.24244 1.92603 0
M  V30 3706 C 353.751 0.160383 1.59998 0
M  V30 3707 O 354.941 0.412228 1.69252 0
M  V30 3708 C 352.073 0.91555 3.28376 0
M  V30 3709 H 353.266 2.21287 2.02416 0
M  V30 3710 H 350.819 1.17827 1.02696 0
M  V30 3711 H 351.554 -0.0521886 3.24258 0
M  V30 3712 H 351.339 1.69811 3.53422 0
M  V30 3713 H 352.829 0.874231 4.08347 0
M  V30 3714 N 353.266 -1.05314 1.17247 0
M  V30 3715 C 354.229 -2.112 0.890357 0
M  V30 3716 C 355.229 -1.60359 -0.118943 0
M  V30 3717 O 356.419 -1.73833 0.113086 0
M  V30 3718 C 353.551 -3.39266 0.333422 0
M  V30 3719 H 354.744 -2.37659 1.82916 0
M  V30 3720 H 352.297 -1.21538 0.982758 0
M  V30 3721 H 353.032 -3.18462 -0.612587 0
M  V30 3722 H 352.817 -3.77477 1.06082 0
M  V30 3723 H 354.307 -4.17315 0.154322 0
M  V30 3724 N 354.744 -0.972509 -1.24016 0
M  V30 3725 C 355.677 -0.45117 -2.23696 0
M  V30 3726 C 356.655 0.477378 -1.55434 0
M  V30 3727 O 357.839 0.407647 -1.84039 0
M  V30 3728 C 354.966 0.34818 -3.36906 0
M  V30 3729 C 354.012 -0.523355 -4.23277 0
M  V30 3730 S 354.845 -1.96647 -4.98087 0
M  V30 3731 C 356.001 -1.17604 -6.14752 0
M  V30 3732 H 356.234 -1.29588 -2.67571 0
M  V30 3733 H 353.767 -0.777903 -1.33372 0
M  V30 3734 H 355.725 0.803387 -4.02562 0
M  V30 3735 H 354.386 1.16792 -2.91579 0
M  V30 3736 H 353.579 0.0906181 -5.03919 0
M  V30 3737 H 353.181 -0.914485 -3.62647 0
M  V30 3738 H 355.473 -0.433434 -6.76112 0
M  V30 3739 H 356.416 -1.95701 -6.8052 0
M  V30 3740 H 356.824 -0.698295 -5.60164 0
M  V30 3741 N 356.222 1.38976 -0.743202 0
M  V30 3742 C 357.152 2.33171 -0.123873 0
M  V30 3743 C 358.133 1.54336 0.71516 0
M  V30 3744 O 359.318 1.82696 0.658467 0
M  V30 3745 C 356.448 3.38474 0.777978 0
M  V30 3746 C 355.402 4.27979 0.0424758 0
M  V30 3747 C 354.728 5.2405 1.06189 0
M  V30 3748 C 356.028 5.10155 -1.1198 0
M  V30 3749 H 357.722 2.85213 -0.910709 0
M  V30 3750 H 355.268 1.37133 -0.439388 0
M  V30 3751 H 357.221 4.03328 1.22084 0
M  V30 3752 H 355.945 2.84891 1.59702 0
M  V30 3753 H 354.604 3.64616 -0.380853 0
M  V30 3754 H 354.252 4.66758 1.87472 0
M  V30 3755 H 353.952 5.84785 0.574485 0
M  V30 3756 H 355.476 5.9178 1.50428 0
M  V30 3757 H 356.89 5.68307 -0.75499 0
M  V30 3758 H 355.287 5.80073 -1.53738 0
M  V30 3759 H 356.357 4.44504 -1.93764 0
M  V30 3760 N 357.7 0.491464 1.49741 0
M  V30 3761 C 358.949 -0.0582189 2.01616 0
M  V30 3762 C 359.262 -1.38927 1.3769 0
M  V30 3763 O 360.468 -2.02509 1.80838 0
M  V30 3764 C 358.924 -0.154235 3.59569 0
M  V30 3765 C 358.532 1.1696 4.32463 0
M  V30 3766 C 360.276 -0.65479 4.1942 0
M  V30 3767 C 358.183 1.03627 5.8225 0
M  V30 3768 H 357.113 -0.0255317 0.753568 0
M  V30 3769 H 359.764 0.629445 1.72367 0
M  V30 3770 H 358.146 -0.906138 3.85493 0
M  V30 3771 H 359.32 1.93405 4.18248 0
M  V30 3772 H 357.635 1.60285 3.84315 0
M  V30 3773 H 360.232 -0.771903 5.29099 0
M  V30 3774 H 360.575 -1.65127 3.8215 0
M  V30 3775 H 361.108 0.040304 3.9778 0
M  V30 3776 H 357.847 2.00672 6.24028 0
M  V30 3777 H 357.367 0.312546 5.98985 0
M  V30 3778 H 359.046 0.711114 6.4308 0
M  V30 3779 N 359.178 -1.55987 0.224894 0
M  V30 3780 C 360.594 -1.59066 -0.130426 0
M  V30 3781 C 360.794 -1.24176 -1.5869 0
M  V30 3782 O 359.85 -0.978592 -2.32766 0
M  V30 3783 C 361.163 -3.00042 0.198883 0
M  V30 3784 C 362.711 -3.1268 0.141391 0
M  V30 3785 C 363.186 -4.55839 0.444422 0
M  V30 3786 N 364.677 -4.6152 0.394115 0
M  V30 3787 C 365.412 -5.70231 0.602038 0
M  V30 3788 N 364.908 -6.87291 0.871914 0
M  V30 3789 N 366.701 -5.59555 0.534245 0
M  V30 3790 H 358.852 -1.76941 1.17497 0
M  V30 3791 H 361.115 -0.822604 0.471197 0
M  V30 3792 H 360.821 -3.30234 1.2099 0
M  V30 3793 H 360.695 -3.74075 -0.484535 0
M  V30 3794 H 363.082 -2.82283 -0.860265 0
M  V30 3795 H 363.163 -2.40969 0.858335 0
M  V30 3796 H 362.807 -4.86954 1.44353 0
M  V30 3797 H 362.737 -5.2578 -0.293752 0
M  V30 3798 H 365.228 -3.77405 0.193356 0
M  V30 3799 H 365.541 -7.66058 1.01858 0
M  V30 3800 H 363.886 -6.89028 0.909145 0
M  V30 3801 H 367.077 -4.6698 0.323612 0
M  V30 3802 H 367.25 -6.44211 0.699693 0
M  V30 3803 N 360.656 0.0484629 -1.57525 0
M  V30 3804 C 361.566 1.07241 -2.08654 0
M  V30 3805 C 362.582 1.409 -1.02095 0
M  V30 3806 O 363.758 1.50609 -1.33712 0
M  V30 3807 C 360.823 2.36008 -2.5397 0
M  V30 3808 C 359.884 2.09108 -3.7493 0
M  V30 3809 C 359.117 3.31736 -4.18075 0
M  V30 3810 O 359.34 4.41714 -3.60895 0
M  V30 3811 O 358.274 3.18576 -5.10679 0
M  V30 3812 H 362.1 0.667965 -2.96263 0
M  V30 3813 H 359.685 0.26417 -1.47046 0
M  V30 3814 H 361.567 3.11747 -2.83535 0
M  V30 3815 H 360.242 2.75786 -1.69481 0
M  V30 3816 H 359.149 1.31 -3.50414 0
M  V30 3817 H 360.482 1.74198 -4.60343 0
M  V30 3818 N 362.134 1.5431 0.320358 0
M  V30 3819 C 363.064 1.86912 1.3995 0
M  V30 3820 C 364.045 0.726211 1.53819 0
M  V30 3821 O 365.23 0.980233 1.67646 0
M  V30 3822 C 362.36 2.09932 2.7667 0
M  V30 3823 C 361.314 3.25776 2.77586 0
M  V30 3824 C 360.64 3.34173 4.17412 0
M  V30 3825 C 361.94 4.6335 2.41048 0
M  V30 3826 H 363.634 2.77292 1.12914 0
M  V30 3827 H 361.18 1.33421 0.541738 0
M  V30 3828 H 363.133 2.31324 3.52232 0
M  V30 3829 H 361.857 1.16304 3.0519 0
M  V30 3830 H 360.516 3.04276 2.04479 0
M  V30 3831 H 360.164 2.38098 4.43078 0
M  V30 3832 H 359.864 4.12033 4.18931 0
M  V30 3833 H 361.388 3.57803 4.94782 0
M  V30 3834 H 362.802 4.84602 3.06324 0
M  V30 3835 H 361.199 5.43782 2.53813 0
M  V30 3836 H 362.269 4.65381 1.36193 0
M  V30 3837 N 363.613 -0.582584 1.46437 0
M  V30 3838 C 365.029 -0.905962 1.31394 0
M  V30 3839 C 365.229 -1.99468 0.285476 0
M  V30 3840 O 364.285 -2.50566 -0.311914 0
M  V30 3841 C 365.598 -1.3232 2.70022 0
M  V30 3842 C 367.146 -1.43604 2.78113 0
M  V30 3843 C 367.621 -1.88694 4.17323 0
M  V30 3844 N 369.112 -1.95887 4.19741 0
M  V30 3845 C 369.847 -2.32051 5.24347 0
M  V30 3846 N 369.343 -2.67006 6.39281 0
M  V30 3847 N 371.136 -2.32606 5.11713 0
M  V30 3848 H 363.287 0.1366 2.1196 0
M  V30 3849 H 365.55 -0.00155736 0.947999 0
M  V30 3850 H 365.256 -0.597242 3.46592 0
M  V30 3851 H 365.13 -2.28469 3.00136 0
M  V30 3852 H 367.517 -2.15286 2.01832 0
M  V30 3853 H 367.598 -0.457059 2.51684 0
M  V30 3854 H 367.242 -1.1759 4.941 0
M  V30 3855 H 367.172 -2.8755 4.4116 0
M  V30 3856 H 369.663 -1.71362 3.36814 0
M  V30 3857 H 369.976 -2.93554 7.14875 0
M  V30 3858 H 368.321 -2.64644 6.42642 0
M  V30 3859 H 371.512 -2.04721 4.2096 0
M  V30 3860 H 371.685 -2.60462 5.93349 0
M  V30 3861 N 365.091 -1.34144 -0.827227 0
M  V30 3862 C 366.054 -1.25264 -1.91942 0
M  V30 3863 C 367.054 -0.168866 -1.59911 0
M  V30 3864 O 368.244 -0.421198 -1.69031 0
M  V30 3865 C 365.376 -0.932952 -3.27885 0
M  V30 3866 H 366.569 -2.22357 -2.0124 0
M  V30 3867 H 364.122 -1.1837 -1.0207 0
M  V30 3868 H 364.857 0.0349917 -3.24281 0
M  V30 3869 H 364.642 -1.71682 -3.52516 0
M  V30 3870 H 366.132 -0.895874 -4.07877 0
M  V30 3871 N 366.569 1.04691 -1.17803 0
M  V30 3872 C 367.532 2.10724 -0.901545 0
M  V30 3873 C 368.532 1.6042 0.110437 0
M  V30 3874 O 369.722 1.7377 -0.122303 0
M  V30 3875 C 366.854 3.39084 -0.351409 0
M  V30 3876 H 368.047 2.36686 -1.84174 0
M  V30 3877 H 365.6 1.21015 -0.98919 0
M  V30 3878 H 366.335 3.18782 0.59569 0
M  V30 3879 H 366.12 3.76909 -1.08083 0
M  V30 3880 H 367.61 4.17227 -0.176451 0
M  V30 3881 N 368.047 0.979072 1.23499 0
M  V30 3882 C 368.977 0.537606 2.27227 0
M  V30 3883 C 369.958 -0.428539 1.64613 0
M  V30 3884 O 371.143 -0.322191 1.91509 0
M  V30 3885 C 368.273 -0.162052 3.46922 0
M  V30 3886 C 367.227 0.721242 4.21879 0
M  V30 3887 C 366.553 -0.110555 5.34586 0
M  V30 3888 C 367.853 2.01141 4.82016 0
M  V30 3889 H 369.547 1.40462 2.64406 0
M  V30 3890 H 367.093 0.67684 1.27102 0
M  V30 3891 H 369.046 -0.482192 4.18632 0
M  V30 3892 H 367.77 -1.06351 3.08799 0
M  V30 3893 H 366.429 1.02482 3.51984 0
M  V30 3894 H 366.077 -1.0125 4.92704 0
M  V30 3895 H 365.777 0.477325 5.85658 0
M  V30 3896 H 367.301 -0.425107 6.09118 0
M  V30 3897 H 368.715 1.75612 5.45741 0
M  V30 3898 H 367.112 2.54695 5.43369 0
M  V30 3899 H 368.182 2.69909 4.02836 0
M  V30 3900 N 369.525 -1.3858 0.750561 0
M  V30 3901 C 370.435 -2.34278 0.122825 0
M  V30 3902 C 371.451 -1.59116 -0.704131 0
M  V30 3903 O 372.627 -1.91326 -0.628987 0
M  V30 3904 C 369.692 -3.38221 -0.762086 0
M  V30 3905 C 368.753 -4.29227 0.078896 0
M  V30 3906 C 367.986 -5.28205 -0.763874 0
M  V30 3907 O 368.209 -5.34112 -2.00201 0
M  V30 3908 O 367.143 -6.01618 -0.18428 0
M  V30 3909 H 370.969 -2.89649 0.913088 0
M  V30 3910 H 368.554 -1.40374 0.511417 0
M  V30 3911 H 370.436 -4.01872 -1.26793 0
M  V30 3912 H 369.111 -2.85211 -1.5309 0
M  V30 3913 H 368.018 -3.68747 0.630621 0
M  V30 3914 H 369.351 -4.85484 0.810289 0
M  V30 3915 N 371.003 -0.499398 -1.49478 0
M  V30 3916 C 371.933 0.269244 -2.31943 0
M  V30 3917 C 372.914 0.964054 -1.40143 0
M  V30 3918 O 374.099 0.955767 -1.69052 0
M  V30 3919 C 371.229 1.33504 -3.20615 0
M  V30 3920 C 370.183 0.760202 -4.21195 0
M  V30 3921 C 369.509 1.9264 -4.98792 0
M  V30 3922 C 370.809 -0.247661 -5.21712 0
M  V30 3923 H 372.503 -0.419082 -2.96452 0
M  V30 3924 H 370.049 -0.202988 -1.42562 0
M  V30 3925 H 372.002 1.88048 -3.77115 0
M  V30 3926 H 370.726 2.05253 -2.54045 0
M  V30 3927 H 369.385 0.23653 -3.65836 0
M  V30 3928 H 369.033 2.63154 -4.28671 0
M  V30 3929 H 368.733 1.54785 -5.66847 0
M  V30 3930 H 370.257 2.4762 -5.58137 0
M  V30 3931 H 371.671 0.209579 -5.72917 0
M  V30 3932 H 370.068 -0.541962 -5.97648 0
M  V30 3933 H 371.138 -1.16409 -4.7072 0
M  V30 3934 N 372.481 1.55866 -0.233164 0
M  V30 3935 C 373.728 1.98603 0.395374 0
M  V30 3936 C 374.056 1.12105 1.58942 0
M  V30 3937 O 373.311 0.168656 1.94972 0
M  V30 3938 C 373.61 3.46856 0.861724 0
M  V30 3939 C 373.276 4.50348 -0.223066 0
M  V30 3940 C 371.938 4.78371 -0.521038 0
M  V30 3941 C 374.29 5.12355 -0.956124 0
M  V30 3942 C 371.618 5.6568 -1.55638 0
M  V30 3943 C 373.97 6.00786 -1.98089 0
M  V30 3944 C 372.634 6.27148 -2.28565 0
M  V30 3945 H 371.904 0.726739 0.144677 0
M  V30 3946 H 374.551 1.88491 -0.338114 0
M  V30 3947 H 372.856 3.5423 1.67418 0
M  V30 3948 H 374.553 3.77302 1.35809 0
M  V30 3949 H 371.143 4.28596 0.0193234 0
M  V30 3950 H 375.327 4.90765 -0.739166 0
M  V30 3951 H 370.583 5.84365 -1.798 0
M  V30 3952 H 374.757 6.4788 -2.55391 0
M  V30 3953 H 372.384 6.94597 -3.08932 0
M  V30 3954 N 373.959 -0.0401083 1.57549 0
M  V30 3955 C 374.869 -1.06133 2.0922 0
M  V30 3956 C 375.885 -1.40356 1.0284 0
M  V30 3957 O 377.061 -1.49897 1.34509 0
M  V30 3958 C 374.126 -2.34658 2.55218 0
M  V30 3959 C 373.187 -2.07117 3.76033 0
M  V30 3960 C 372.42 -3.29514 4.19829 0
M  V30 3961 O 372.643 -4.39794 3.63232 0
M  V30 3962 O 371.577 -3.15863 5.12362 0
M  V30 3963 H 375.403 -0.652244 2.96613 0
M  V30 3964 H 372.988 -0.256368 1.47184 0
M  V30 3965 H 374.87 -3.10239 2.85184 0
M  V30 3966 H 373.545 -2.74883 1.70941 0
M  V30 3967 H 372.452 -1.29139 3.51104 0
M  V30 3968 H 373.785 -1.71754 4.61261 0
M  V30 3969 N 375.437 -1.54477 -0.31217 0
M  V30 3970 C 376.369 -1.81011 -1.40598 0
M  V30 3971 C 377.382 -0.692546 -1.47335 0
M  V30 3972 O 378.571 -0.969847 -1.49854 0
M  V30 3973 C 375.671 -1.92307 -2.79054 0
M  V30 3974 C 374.844 -3.22594 -2.95384 0
M  V30 3975 C 373.903 -3.24448 -4.1427 0
M  V30 3976 O 372.929 -3.98035 -4.06887 0
M  V30 3977 N 374.131 -2.49042 -5.24365 0
M  V30 3978 H 376.896 -2.75408 -1.18196 0
M  V30 3979 H 374.457 -1.53914 -0.502202 0
M  V30 3980 H 376.449 -1.90962 -3.56813 0
M  V30 3981 H 375.019 -1.04955 -2.94454 0
M  V30 3982 H 374.239 -3.36806 -2.04831 0
M  V30 3983 H 375.527 -4.08593 -3.03198 0
M  V30 3984 H 374.925 -1.88867 -5.33241 0
M  V30 3985 H 373.482 -2.53463 -6.005 0
M  V30 3986 N 376.915 0.57481 -1.46744 0
M  V30 3987 C 377.825 1.711 -1.60505 0
M  V30 3988 C 378.841 1.67008 -0.488307 0
M  V30 3989 O 380.017 1.86774 -0.753495 0
M  V30 3990 C 377.082 3.07608 -1.59932 0
M  V30 3991 C 376.143 3.22904 -2.82898 0
M  V30 3992 C 375.376 4.529 -2.82343 0
M  V30 3993 O 375.599 5.37278 -1.91542 0
M  V30 3994 O 374.533 4.71611 -3.73987 0
M  V30 3995 H 378.359 1.62436 -2.56609 0
M  V30 3996 H 375.944 0.742779 -1.29627 0
M  V30 3997 H 377.826 3.88877 -1.62336 0
M  V30 3998 H 376.501 3.16692 -0.669898 0
M  V30 3999 H 375.408 2.41099 -2.86046 0
M  V30 4000 H 376.741 3.18715 -3.75076 0
M  V30 4001 N 378.394 1.34581 0.820102 0
M  V30 4002 C 379.642 1.26845 1.57336 0
M  V30 4003 C 379.963 -0.160667 1.94337 0
M  V30 4004 O 379.233 -1.09396 1.6251 0
M  V30 4005 H 377.813 0.466514 0.583415 0
M  V30 4006 H 380.475 1.68526 0.979027 0
M  V30 4007 H 379.571 1.87513 2.4949 0
M  V30 4008 N 379.872 -1.04064 1.18357 0
M  V30 4009 C 380.802 -2.14001 0.934113 0
M  V30 4010 C 381.783 -1.69616 -0.128186 0
M  V30 4011 O 382.968 -1.94185 0.0244093 0
M  V30 4012 C 380.098 -3.44253 0.459066 0
M  V30 4013 C 379.052 -4.02261 1.46185 0
M  V30 4014 C 378.378 -5.27992 0.844322 0
M  V30 4015 C 379.678 -4.38432 2.83856 0
M  V30 4016 H 381.372 -2.35127 1.85352 0
M  V30 4017 H 378.918 -1.12998 0.892604 0
M  V30 4018 H 380.871 -4.20522 0.271907 0
M  V30 4019 H 379.595 -3.22813 -0.495912 0
M  V30 4020 H 378.254 -3.28074 1.63595 0
M  V30 4021 H 377.902 -5.02862 -0.117845 0
M  V30 4022 H 377.602 -5.67765 1.51384 0
M  V30 4023 H 379.126 -6.06938 0.667693 0
M  V30 4024 H 380.54 -5.05688 2.70098 0
M  V30 4025 H 378.937 -4.89254 3.47491 0
M  V30 4026 H 380.007 -3.4826 3.37406 0
M  V30 4027 N 381.35 -0.985608 -1.22978 0
M  V30 4028 C 382.313 -0.535071 -2.22867 0
M  V30 4029 C 383.313 0.378123 -1.56291 0
M  V30 4030 O 384.503 0.171092 -1.73358 0
M  V30 4031 C 381.635 0.222702 -3.40172 0
M  V30 4032 H 382.828 -1.41835 -2.6424 0
M  V30 4033 H 380.381 -0.772042 -1.35901 0
M  V30 4034 H 381.116 1.12229 -3.04262 0
M  V30 4035 H 380.901 -0.43288 -3.89703 0
M  V30 4036 H 382.391 0.526335 -4.1427 0
M  V30 4037 N 382.828 1.3818 -0.7579 0
M  V30 4038 C 384.239 1.82726 -0.383134 0
M  V30 4039 C 384.59 1.63214 1.08884 0
M  V30 4040 O 383.715 1.13566 1.84205 0
M  V30 4041 C 384.31 3.31728 -0.688631 0
M  V30 4042 C 382.869 3.74606 -0.367091 0
M  V30 4043 C 382.016 2.60896 -0.939599 0
M  V30 4044 H 384.967 1.26847 -0.953699 0
M  V30 4045 H 384.988 3.80487 0.0316492 0
M  V30 4046 H 384.5 3.45898 -1.76001 0
M  V30 4047 H 382.601 3.66013 0.697532 0
M  V30 4048 H 382.714 4.71215 -0.865658 0
M  V30 4049 H 381.078 2.52075 -0.3647 0
M  V30 4050 H 381.861 2.77864 -2.0161 0
M  V30 4051 N 384.306 0.507319 1.49211 0
M  V30 4052 C 385.536 -0.0315292 2.06576 0
M  V30 4053 C 385.944 -1.30791 1.36713 0
M  V30 4054 O 385.287 -1.78324 0.441181 0
M  V30 4055 C 385.349 -0.349104 3.57801 0
M  V30 4056 C 385.013 0.830475 4.49391 0
M  V30 4057 C 386.01 1.72271 4.90529 0
M  V30 4058 C 383.695 1.03107 4.91604 0
M  V30 4059 C 385.689 2.79964 5.72625 0
M  V30 4060 C 383.376 2.11116 5.73475 0
M  V30 4061 C 384.374 2.99379 6.1389 0
M  V30 4062 O 384.062 4.05523 6.94123 0
M  V30 4063 H 383.794 0.0201002 0.675701 0
M  V30 4064 H 386.348 0.705737 1.92895 0
M  V30 4065 H 384.578 -1.14005 3.69513 0
M  V30 4066 H 386.267 -0.827319 3.97379 0
M  V30 4067 H 387.033 1.57958 4.58557 0
M  V30 4068 H 382.912 0.353417 4.59643 0
M  V30 4069 H 386.456 3.48884 6.04091 0
M  V30 4070 H 382.353 2.25421 6.0486 0
M  V30 4071 H 383.121 4.02953 7.1244 0
M  V30 4072 N 385.784 -1.5574 0.241426 0
M  V30 4073 C 386.714 -2.24133 -0.654722 0
M  V30 4074 C 387.695 -1.21974 -1.1856 0
M  V30 4075 O 388.88 -1.50612 -1.22595 0
M  V30 4076 C 386.01 -2.93659 -1.85423 0
M  V30 4077 C 384.964 -4.0246 -1.45636 0
M  V30 4078 C 384.29 -4.59383 -2.73626 0
M  V30 4079 C 385.59 -5.18468 -0.631506 0
M  V30 4080 H 387.284 -2.99281 -0.0844353 0
M  V30 4081 H 384.83 -1.43947 -0.0391707 0
M  V30 4082 H 386.783 -3.40203 -2.48676 0
M  V30 4083 H 385.507 -2.15991 -2.44981 0
M  V30 4084 H 384.166 -3.56676 -0.847202 0
M  V30 4085 H 383.814 -3.78422 -3.3137 0
M  V30 4086 H 383.514 -5.32826 -2.4773 0
M  V30 4087 H 385.038 -5.08658 -3.37786 0
M  V30 4088 H 386.452 -5.61272 -1.1682 0
M  V30 4089 H 384.849 -5.98266 -0.468831 0
M  V30 4090 H 385.919 -4.8358 0.357506 0
M  V30 4091 N 387.262 0.0317525 -1.57568 0
M  V30 4092 C 388.487 0.738664 -1.938 0
M  V30 4093 C 388.912 1.68242 -0.841208 0
M  V30 4094 O 388.27 1.80157 0.203267 0
M  V30 4095 C 388.318 1.47417 -3.29091 0
M  V30 4096 O 387.422 2.5872 -3.2115 0
M  V30 4097 H 386.763 0.198856 -0.633524 0
M  V30 4098 H 389.293 -0.0119713 -2.04596 0
M  V30 4099 H 389.303 1.84468 -3.63917 0
M  V30 4100 H 387.978 0.781988 -4.08482 0
M  V30 4101 H 386.555 2.24231 -2.97951 0
M  V30 4102 N 388.74 1.54641 0.303973 0
M  V30 4103 C 390.156 1.45788 0.649463 0
M  V30 4104 C 390.356 0.64666 1.90842 0
M  V30 4105 O 389.412 0.153183 2.52035 0
M  V30 4106 C 390.725 2.89718 0.805227 0
M  V30 4107 C 392.273 2.99742 0.901305 0
M  V30 4108 C 392.748 4.44863 1.08909 0
M  V30 4109 N 394.239 4.48559 1.15536 0
M  V30 4110 C 394.974 5.58026 1.3189 0
M  V30 4111 N 394.47 6.77422 1.45161 0
M  V30 4112 N 396.263 5.45708 1.34755 0
M  V30 4113 H 388.414 2.05854 -0.523237 0
M  V30 4114 H 390.677 0.932186 -0.172431 0
M  V30 4115 H 390.383 3.51666 -0.0489108 0
M  V30 4116 H 390.257 3.36964 1.69513 0
M  V30 4117 H 392.644 2.3791 1.74593 0
M  V30 4118 H 392.725 2.55797 -0.0125531 0
M  V30 4119 H 392.369 5.07288 0.249241 0
M  V30 4120 H 392.299 4.86436 2.01713 0
M  V30 4121 H 394.79 3.6254 1.06646 0
M  V30 4122 H 395.103 7.56604 1.57387 0
M  V30 4123 H 393.448 6.80292 1.42223 0
M  V30 4124 H 396.639 4.51378 1.23996 0
M  V30 4125 H 396.812 6.3107 1.47157 0
M  V30 4126 N 390.218 -0.567019 1.47046 0
M  V30 4127 C 391.464 -1.32434 1.54379 0
M  V30 4128 C 391.819 -1.91365 0.199276 0
M  V30 4129 O 391.112 -1.74378 -0.793915 0
M  V30 4130 C 391.306 -2.4623 2.59047 0
M  V30 4131 C 391.135 -1.98448 4.03545 0
M  V30 4132 C 389.905 -1.82741 4.71098 0
M  V30 4133 C 392.103 -1.53477 4.90866 0
M  V30 4134 N 390.085 -1.29196 6.00151 0
M  V30 4135 C 391.456 -1.1163 6.09868 0
M  V30 4136 C 393.511 -1.41438 4.77388 0
M  V30 4137 C 392.214 -0.589425 7.16881 0
M  V30 4138 C 394.24 -0.901528 5.84488 0
M  V30 4139 C 393.602 -0.492932 7.02673 0
M  V30 4140 H 389.701 -0.477005 0.61967 0
M  V30 4141 H 392.285 -0.643856 1.83746 0
M  V30 4142 H 390.456 -3.11821 2.31564 0
M  V30 4143 H 392.188 -3.13213 2.56281 0
M  V30 4144 H 388.943 -2.05162 4.26855 0
M  V30 4145 H 389.367 -1.0454 6.6888 0
M  V30 4146 H 394.009 -1.71643 3.86392 0
M  V30 4147 H 391.727 -0.274994 8.07632 0
M  V30 4148 H 395.313 -0.812071 5.76105 0
M  V30 4149 H 394.193 -0.102227 7.84133 0
M  V30 4150 N 391.696 -1.35014 -0.812953 0
M  V30 4151 C 392.606 -1.2951 -1.95613 0
M  V30 4152 C 393.622 -0.20107 -1.72834 0
M  V30 4153 O 394.798 -0.42932 -1.96771 0
M  V30 4154 C 391.863 -1.06033 -3.30088 0
M  V30 4155 C 390.924 -2.24688 -3.65805 0
M  V30 4156 C 390.157 -2.02322 -4.93864 0
M  V30 4157 O 390.38 -0.986464 -5.61805 0
M  V30 4158 O 389.314 -2.89525 -5.27692 0
M  V30 4159 H 393.14 -2.25705 -2.03202 0
M  V30 4160 H 390.725 -1.15321 -0.949811 0
M  V30 4161 H 392.607 -0.94763 -4.10607 0
M  V30 4162 H 391.282 -0.128852 -3.23443 0
M  V30 4163 H 390.189 -2.41521 -2.85689 0
M  V30 4164 H 391.522 -3.16261 -3.77147 0
M  V30 4165 N 393.175 1.03435 -1.18907 0
M  V30 4166 C 394.122 2.11591 -0.921837 0
M  V30 4167 C 395.092 1.65499 0.141226 0
M  V30 4168 O 396.277 1.908 0.000242829 0
M  V30 4169 C 393.417 3.42012 -0.460616 0
M  V30 4170 C 392.53 4.01682 -1.58982 0
M  V30 4171 C 391.665 5.20091 -1.08069 0
M  V30 4172 C 390.704 5.71805 -2.18416 0
M  V30 4173 N 389.841 6.81494 -1.68849 0
M  V30 4174 H 394.681 2.33787 -1.8479 0
M  V30 4175 H 392.218 1.1467 -0.921373 0
M  V30 4176 H 394.176 4.16834 -0.174642 0
M  V30 4177 H 392.806 3.19944 0.428467 0
M  V30 4178 H 391.858 3.24127 -1.99113 0
M  V30 4179 H 393.17 4.36084 -2.4214 0
M  V30 4180 H 392.324 6.02051 -0.749615 0
M  V30 4181 H 391.063 4.87209 -0.218771 0
M  V30 4182 H 390.068 4.88461 -2.5236 0
M  V30 4183 H 391.293 6.06728 -3.05054 0
M  V30 4184 H 389.239 6.50475 -0.849572 0
M  V30 4185 H 389.156 7.14994 -2.45601 0
M  V30 4186 H 390.424 7.67063 -1.38689 0
M  V30 4187 N 394.653 0.992116 1.22453 0
M  V30 4188 C 395.583 0.561677 2.26644 0
M  V30 4189 C 396.564 -0.411055 1.65059 0
M  V30 4190 O 397.749 -0.301861 1.9184 0
M  V30 4191 C 394.879 -0.125247 3.47074 0
M  V30 4192 C 393.833 0.765948 4.21091 0
M  V30 4193 C 393.159 -0.0538484 5.34673 0
M  V30 4194 C 394.459 2.06242 4.79856 0
M  V30 4195 H 396.153 1.43259 2.62902 0
M  V30 4196 H 393.699 0.690283 1.26377 0
M  V30 4197 H 395.652 -0.437764 4.1912 0
M  V30 4198 H 394.376 -1.03069 3.0991 0
M  V30 4199 H 393.035 1.0621 3.50878 0
M  V30 4200 H 392.683 -0.960188 4.9375 0
M  V30 4201 H 392.383 0.539415 5.85119 0
M  V30 4202 H 393.907 -0.360477 6.09535 0
M  V30 4203 H 395.321 1.8139 5.43848 0
M  V30 4204 H 393.718 2.60444 5.40638 0
M  V30 4205 H 394.788 2.74167 3.99951 0
M  V30 4206 N 396.131 -1.37776 0.765217 0
M  V30 4207 C 397.408 -1.93975 0.251596 0
M  V30 4208 C 397.788 -1.69949 -1.25222 0
M  V30 4209 O 397.136 -1.04457 -2.03226 0
M  V30 4210 C 397.346 -3.43487 0.617895 0
M  V30 4211 C 398.694 -4.20564 0.584029 0
M  V30 4212 O 399.718 -3.5182 0.556888 0
M  V30 4213 O 398.577 -5.43138 0.605291 0
M  V30 4214 H 395.671 -0.82509 0.0561806 0
M  V30 4215 H 398.217 -1.47101 0.846128 0
M  V30 4216 H 396.989 -3.5453 1.65602 0
M  V30 4217 H 396.612 -3.976 -0.00403411 0
M  V30 4218 N 397.609 -0.515225 -1.4894 0
M  V30 4219 C 398.557 0.269115 -2.31038 0
M  V30 4220 C 399.551 0.949443 -1.40292 0
M  V30 4221 O 400.757 0.87551 -1.57273 0
M  V30 4222 H 397.132 0.10565 -0.744542 0
M  V30 4223 H 399.103 -0.443096 -2.95092 0
M  V30 4224 C 397.852 1.31213 -3.21991 0
M  V30 4225 H 397.175 0.798034 -3.91754 0
M  V30 4226 H 398.615 1.83263 -3.82349 0
M  V30 4227 C 397.074 2.33791 -2.42576 0
M  V30 4228 O 397.604 3.3995 -2.14003 0
M  V30 4229 N 395.81 2.06625 -2.0434 0
M  V30 4230 H 395.357 1.20314 -2.27777 0
M  V30 4231 H 395.315 2.75483 -1.51514 0
M  V30 4232 N 399.087 1.5561 -0.249682 0
M  V30 4233 C 400.334 1.99011 0.374287 0
M  V30 4234 C 400.662 1.13785 1.57744 0
M  V30 4235 O 399.917 0.189326 1.94782 0
M  V30 4236 C 400.216 3.4775 0.824887 0
M  V30 4237 C 399.882 4.50086 -0.270819 0
M  V30 4238 C 398.544 4.77791 -0.571746 0
M  V30 4239 C 400.896 5.11312 -1.01041 0
M  V30 4240 C 398.224 5.63997 -1.61629 0
M  V30 4241 C 400.576 5.98651 -2.0445 0
M  V30 4242 C 399.24 6.24688 -2.35204 0
M  V30 4243 H 398.51 0.728233 0.136961 0
M  V30 4244 H 401.157 1.88122 -0.358087 0
M  V30 4245 H 399.462 3.55985 1.63651 0
M  V30 4246 H 401.159 3.78721 1.31799 0
M  V30 4247 H 397.749 4.28592 -0.026136 0
M  V30 4248 H 401.933 4.89953 -0.791177 0
M  V30 4249 H 397.189 5.82425 -1.85988 0
M  V30 4250 H 401.363 6.45135 -2.62248 0
M  V30 4251 H 398.99 6.91281 -3.16282 0
M  V30 4252 N 400.565 -0.0233959 1.57583 0
M  V30 4253 C 401.814 -0.712133 1.8871 0
M  V30 4254 C 402.127 -1.76217 0.848944 0
M  V30 4255 O 403.333 -2.50389 1.04964 0
M  V30 4256 C 401.789 -1.3177 3.3491 0
M  V30 4257 C 401.397 -0.303715 4.46969 0
M  V30 4258 C 403.141 -1.98598 3.75179 0
M  V30 4259 C 401.048 -0.917945 5.84233 0
M  V30 4260 H 399.978 -0.269735 0.704101 0
M  V30 4261 H 402.629 0.0333114 1.8347 0
M  V30 4262 H 401.011 -2.11304 3.34913 0
M  V30 4263 H 402.185 0.465325 4.58445 0
M  V30 4264 H 400.5 0.2628 4.1557 0
M  V30 4265 H 403.097 -2.45416 4.75053 0
M  V30 4266 H 403.44 -2.80659 3.07468 0
M  V30 4267 H 403.973 -1.25831 3.77374 0
M  V30 4268 H 400.712 -0.136633 6.55358 0
M  V30 4269 H 400.232 -1.65669 5.76467 0
M  V30 4270 H 401.911 -1.4236 6.31144 0
M  V30 4271 N 402.043 -1.548 -0.295768 0
M  V30 4272 C 402.991 -1.86874 -1.38495 0
M  V30 4273 C 403.985 -0.742938 -1.52239 0
M  V30 4274 O 405.191 -0.926999 -1.54294 0
M  V30 4275 H 401.566 -0.592786 -0.462719 0
M  V30 4276 H 403.537 -2.77904 -1.08682 0
M  V30 4277 C 402.286 -2.13732 -2.74252 0
M  V30 4278 H 401.609 -2.99835 -2.64459 0
M  V30 4279 H 403.049 -2.4011 -3.49461 0
M  V30 4280 C 401.508 -0.937539 -3.23592 0
M  V30 4281 O 402.038 -0.160665 -4.01379 0
M  V30 4282 N 400.244 -0.741478 -2.80981 0
M  V30 4283 H 399.791 -1.37489 -2.1784 0
M  V30 4284 H 399.749 0.0597103 -3.14343 0
M  V30 4285 N 403.521 0.559213 -1.47345 0
M  V30 4286 C 404.937 0.884943 -1.32819 0
M  V30 4287 C 405.137 1.98988 -0.317173 0
M  V30 4288 O 404.193 2.51031 0.272011 0
M  V30 4289 C 405.506 1.28007 -2.72093 0
M  V30 4290 C 407.054 1.39161 -2.80363 0
M  V30 4291 C 407.529 1.82031 -4.20272 0
M  V30 4292 N 409.02 1.89185 -4.22804 0
M  V30 4293 C 409.755 2.2368 -5.27973 0
M  V30 4294 N 409.251 2.56802 -6.43447 0
M  V30 4295 N 411.044 2.24436 -5.15349 0
M  V30 4296 H 403.195 -0.170304 -2.11716 0
M  V30 4297 H 405.458 -0.0135247 -0.947904 0
M  V30 4298 H 405.164 0.542027 -3.47498 0
M  V30 4299 H 405.038 2.23665 -3.03733 0
M  V30 4300 H 407.425 2.12048 -2.05231 0
M  V30 4301 H 407.506 0.41696 -2.52379 0
M  V30 4302 H 407.15 1.09715 -4.95908 0
M  V30 4303 H 407.08 2.80495 -4.45679 0
M  V30 4304 H 409.571 1.65982 -3.39497 0
M  V30 4305 H 409.884 2.82144 -7.19454 0
M  V30 4306 H 408.229 2.54387 -6.46771 0
M  V30 4307 H 411.42 1.97998 -4.24163 0
M  V30 4308 H 411.593 2.50989 -5.97418 0
M  V30 4309 N 404.999 1.35443 0.805782 0
M  V30 4310 C 406.41 1.25768 1.37983 0
M  V30 4311 C 406.761 -0.10958 1.95894 0
M  V30 4312 O 405.886 -1.01056 1.91355 0
M  V30 4313 C 406.481 2.27727 2.5085 0
M  V30 4314 C 405.04 2.2179 3.04115 0
M  V30 4315 C 404.187 2.13393 1.77084 0
M  V30 4316 H 407.138 1.4656 0.608752 0
M  V30 4317 H 407.159 1.90422 3.29424 0
M  V30 4318 H 406.671 3.27227 2.08671 0
M  V30 4319 H 404.772 1.25703 3.50756 0
M  V30 4320 H 404.885 3.13788 3.62042 0
M  V30 4321 H 403.249 1.59384 1.98668 0
M  V30 4322 H 404.032 3.14755 1.37056 0
M  V30 4323 N 406.477 -1.02803 1.19454 0
M  V30 4324 C 407.723 -1.76478 0.999171 0
M  V30 4325 C 408.056 -1.88456 -0.468828 0
M  V30 4326 O 407.331 -1.40198 -1.34814 0
M  V30 4327 C 407.614 -3.19044 1.66981 0
M  V30 4328 C 407.467 -3.14932 3.21151 0
M  V30 4329 C 408.786 -4.17456 1.39349 0
M  V30 4330 H 405.905 -0.640614 0.364393 0
M  V30 4331 H 408.547 -1.20005 1.47305 0
M  V30 4332 H 406.697 -3.67263 1.2669 0
M  V30 4333 H 408.369 -2.74605 3.70661 0
M  V30 4334 H 406.612 -2.52625 3.52652 0
M  V30 4335 H 407.283 -4.1566 3.63223 0
M  V30 4336 H 409.759 -3.77842 1.74283 0
M  V30 4337 H 408.635 -5.154 1.88823 0
M  V30 4338 H 408.896 -4.40949 0.318813 0
M  V30 4339 N 407.956 -0.998596 -1.21925 0
M  V30 4340 C 408.903 -0.553621 -2.24062 0
M  V30 4341 C 409.873 0.416999 -1.6078 0
M  V30 4342 O 411.058 0.320482 -1.88089 0
M  V30 4343 C 408.198 0.119959 -3.44891 0
M  V30 4344 C 407.311 -0.893077 -4.22668 0
M  V30 4345 C 406.446 -0.192424 -5.30851 0
M  V30 4346 C 405.485 -1.19344 -6.00353 0
M  V30 4347 N 404.622 -0.520707 -7.00166 0
M  V30 4348 H 409.462 -1.4293 -2.61486 0
M  V30 4349 H 406.999 -0.715838 -1.28507 0
M  V30 4350 H 408.957 0.527459 -4.13852 0
M  V30 4351 H 407.587 0.959389 -3.08214 0
M  V30 4352 H 406.639 -1.41886 -3.52948 0
M  V30 4353 H 407.951 -1.65512 -4.70539 0
M  V30 4354 H 407.105 0.271515 -6.06092 0
M  V30 4355 H 405.844 0.602075 -4.83969 0
M  V30 4356 H 404.849 -1.66795 -5.23889 0
M  V30 4357 H 406.074 -1.98891 -6.49322 0
M  V30 4358 H 404.02 0.254252 -6.55507 0
M  V30 4359 H 403.937 -1.2211 -7.46073 0
M  V30 4360 H 405.205 -0.0797596 -7.79459 0
M  V30 4361 N 409.434 1.37368 -0.772513 0
M  V30 4362 C 410.364 2.32856 -0.173304 0
M  V30 4363 C 411.345 1.55818 0.682262 0
M  V30 4364 O 412.53 1.84052 0.619566 0
M  V30 4365 C 409.66 3.40048 0.706007 0
M  V30 4366 C 408.614 4.27973 -0.0483144 0
M  V30 4367 C 407.94 5.26184 0.950491 0
M  V30 4368 C 409.24 5.07665 -1.22776 0
M  V30 4369 H 410.934 2.83217 -0.971002 0
M  V30 4370 H 408.48 1.3617 -0.468377 0
M  V30 4371 H 410.433 4.05827 1.13501 0
M  V30 4372 H 409.157 2.88214 1.53623 0
M  V30 4373 H 407.816 3.63726 -0.458107 0
M  V30 4374 H 407.464 4.7063 1.77529 0
M  V30 4375 H 407.164 5.85872 0.450314 0
M  V30 4376 H 408.688 5.94838 1.37842 0
M  V30 4377 H 410.102 5.66578 -0.875366 0
M  V30 4378 H 408.499 5.76681 -1.66007 0
M  V30 4379 H 409.569 4.40294 -2.03149 0
M  V30 4380 N 410.912 0.523116 1.48665 0
M  V30 4381 C 412.161 -0.01544 2.01694 0
M  V30 4382 C 412.474 -1.35975 1.40606 0
M  V30 4383 O 413.68 -1.98627 1.85093 0
M  V30 4384 C 412.136 -0.0779303 3.59816 0
M  V30 4385 C 411.744 1.26107 4.29885 0
M  V30 4386 C 413.488 -0.565678 4.20714 0
M  V30 4387 C 411.395 1.15954 5.79921 0
M  V30 4388 H 410.325 -0.00954163 0.75394 0
M  V30 4389 H 412.976 0.665865 1.70993 0
M  V30 4390 H 411.358 -0.824165 3.87329 0
M  V30 4391 H 412.532 2.02233 4.14051 0
M  V30 4392 H 410.847 1.68401 3.80828 0
M  V30 4393 H 413.444 -0.6595 5.30617 0
M  V30 4394 H 413.787 -1.56984 3.85567 0
M  V30 4395 H 414.32 0.12467 3.97605 0
M  V30 4396 H 411.059 2.13864 6.19631 0
M  V30 4397 H 410.579 0.439529 5.98187 0
M  V30 4398 H 412.258 0.847361 6.41427 0
M  V30 4399 N 412.39 -1.55475 0.257931 0
M  V30 4400 C 413.639 -1.98383 -0.364275 0
M  V30 4401 C 413.952 -1.14952 -1.58258 0
M  V30 4402 O 415.158 -1.47924 -2.27664 0
M  V30 4403 C 413.614 -3.53037 -0.699479 0
M  V30 4404 C 413.222 -4.45223 0.498046 0
M  V30 4405 C 414.966 -4.04575 -1.28526 0
M  V30 4406 C 412.873 -5.91238 0.138383 0
M  V30 4407 H 411.803 -0.740911 -0.13988 0
M  V30 4408 H 414.454 -1.79936 0.359883 0
M  V30 4409 H 412.836 -3.6722 -1.48207 0
M  V30 4410 H 414.01 -4.42803 1.27522 0
M  V30 4411 H 412.325 -4.04226 0.999503 0
M  V30 4412 H 414.922 -5.11196 -1.56788 0
M  V30 4413 H 415.265 -3.5258 -2.21344 0
M  V30 4414 H 415.798 -3.93762 -0.565337 0
M  V30 4415 H 412.537 -6.47294 1.03398 0
M  V30 4416 H 412.057 -5.96768 -0.602374 0
M  V30 4417 H 413.736 -6.46413 -0.27553 0
M  V30 4418 N 413.868 0.0150385 -1.57593 0
M  V30 4419 C 415.116 0.701613 -1.8953 0
M  V30 4420 C 415.437 1.75139 -0.857396 0
M  V30 4421 O 414.707 1.95607 0.107194 0
M  V30 4422 H 413.287 0.26213 -0.699498 0
M  V30 4423 H 415.949 -0.0223304 -1.94887 0
M  V30 4424 H 415.045 1.18236 -2.88837 0
M  V30 4425 N 415.346 1.54954 0.287554 0
M  V30 4426 C 416.623 1.65569 1.04146 0
M  V30 4427 C 417.003 0.512672 2.0478 0
M  V30 4428 O 416.351 -0.489038 2.23205 0
M  V30 4429 C 416.561 3.04163 1.71131 0
M  V30 4430 C 417.909 3.61429 2.22832 0
M  V30 4431 O 418.933 3.06702 1.81141 0
M  V30 4432 O 417.792 4.57281 2.9926 0
M  V30 4433 H 414.886 0.671881 0.482188 0
M  V30 4434 H 417.432 1.67297 0.28457 0
M  V30 4435 H 416.204 3.78796 0.981303 0
M  V30 4436 H 415.827 3.06271 2.53543 0
M  V30 4437 N 416.824 -0.551391 1.4764 0
M  V30 4438 C 417.771 -1.65796 1.60563 0
M  V30 4439 C 418.741 -1.59932 0.448428 0
M  V30 4440 O 419.926 -1.78679 0.669222 0
M  V30 4441 C 417.066 -3.04108 1.63133 0
M  V30 4442 C 416.179 -3.20365 2.89811 0
M  V30 4443 C 415.314 -4.49109 2.8368 0
M  V30 4444 C 414.353 -4.58819 4.05156 0
M  V30 4445 N 413.49 -5.78926 3.97227 0
M  V30 4446 H 418.33 -1.54088 2.5507 0
M  V30 4447 H 415.867 -0.75052 1.26513 0
M  V30 4448 H 417.825 -3.84207 1.62606 0
M  V30 4449 H 416.455 -3.14637 0.721341 0
M  V30 4450 H 415.507 -2.33659 3.00179 0
M  V30 4451 H 416.819 -3.23402 3.79753 0
M  V30 4452 H 415.973 -5.37475 2.81434 0
M  V30 4453 H 414.712 -4.4856 1.91431 0
M  V30 4454 H 413.717 -3.68864 4.077 0
M  V30 4455 H 414.942 -4.61124 4.98539 0
M  V30 4456 H 412.888 -5.79314 3.07785 0
M  V30 4457 H 412.805 -5.83367 4.80853 0
M  V30 4458 H 414.073 -6.69637 3.99007 0
M  V30 4459 N 418.302 -1.35869 -0.798587 0
M  V30 4460 C 419.212 -1.31578 -1.94228 0
M  V30 4461 C 420.228 -0.21939 -1.72611 0
M  V30 4462 O 421.404 -0.450167 -1.96305 0
M  V30 4463 C 418.469 -1.09528 -3.28944 0
M  V30 4464 C 417.53 -2.28556 -3.63402 0
M  V30 4465 C 416.763 -2.07549 -4.9169 0
M  V30 4466 O 416.986 -1.046 -5.60727 0
M  V30 4467 O 415.92 -2.95106 -5.24591 0
M  V30 4468 H 419.746 -2.27847 -2.00796 0
M  V30 4469 H 417.331 -1.16322 -0.937526 0
M  V30 4470 H 419.213 -0.991127 -4.09579 0
M  V30 4471 H 417.888 -0.16315 -3.23289 0
M  V30 4472 H 416.795 -2.44538 -2.83112 0
M  V30 4473 H 418.128 -3.20244 -3.73771 0
M  V30 4474 N 419.78 1.02168 -1.19998 0
M  V30 4475 C 421.029 1.75091 -1.0013 0
M  V30 4476 C 421.342 1.89923 0.467835 0
M  V30 4477 O 422.548 2.59888 0.785515 0
M  V30 4478 C 421.004 3.14892 -1.74273 0
M  V30 4479 C 420.612 3.0809 -3.25245 0
M  V30 4480 C 422.356 3.9206 -1.62755 0
M  V30 4481 C 420.263 4.42867 -3.91948 0
M  V30 4482 H 419.193 0.656394 -0.37103 0
M  V30 4483 H 421.844 1.14284 -1.43567 0
M  V30 4484 H 420.226 3.7621 -1.2362 0
M  V30 4485 H 421.4 2.5611 -3.83072 0
M  V30 4486 H 419.715 2.44416 -3.3712 0
M  V30 4487 H 422.312 4.91764 -2.09934 0
M  V30 4488 H 422.655 4.12199 -0.582894 0
M  V30 4489 H 423.188 3.37359 -2.10793 0
M  V30 4490 H 419.927 4.27931 -4.96543 0
M  V30 4491 H 419.447 4.94874 -3.3891 0
M  V30 4492 H 421.126 5.11728 -3.95909 0
M  V30 4493 N 421.258 1.00505 1.21394 0
M  V30 4494 C 422.505 0.687774 1.90462 0
M  V30 4495 C 422.833 -0.78147 1.7811 0
M  V30 4496 O 422.088 -1.58208 1.1519 0
M  V30 4497 C 422.387 1.0546 3.41486 0
M  V30 4498 C 422.053 2.51812 3.74034 0
M  V30 4499 C 420.715 2.91804 3.82628 0
M  V30 4500 C 423.067 3.46614 3.8924 0
M  V30 4501 C 420.395 4.2556 4.03876 0
M  V30 4502 C 422.747 4.80044 4.11995 0
M  V30 4503 C 421.411 5.19759 4.18816 0
M  V30 4504 H 420.681 0.251674 0.696951 0
M  V30 4505 H 423.328 1.26349 1.43903 0
M  V30 4506 H 421.633 0.397133 3.89782 0
M  V30 4507 H 423.33 0.786976 3.93202 0
M  V30 4508 H 419.92 2.1982 3.67936 0
M  V30 4509 H 424.104 3.16883 3.81967 0
M  V30 4510 H 419.36 4.55901 4.07387 0
M  V30 4511 H 423.534 5.53439 4.22704 0
M  V30 4512 H 421.161 6.23418 4.35033 0
M  V30 4513 N 422.737 -1.36956 0.779787 0
M  V30 4514 C 423.985 -1.99097 0.347079 0
M  V30 4515 C 424.306 -1.62206 -1.08232 0
M  V30 4516 O 423.576 -0.891373 -1.74446 0
M  V30 4517 H 422.156 -0.736409 0.125342 0
M  V30 4518 H 424.818 -1.67308 0.999696 0
M  V30 4519 H 423.914 -3.09107 0.431162 0
M  V30 4520 N 424.215 -0.530993 -1.48385 0
M  V30 4521 C 425.464 0.00474348 -2.01699 0
M  V30 4522 C 425.777 1.35227 -1.41325 0
M  V30 4523 O 426.983 1.97643 -1.86144 0
M  V30 4524 C 425.439 0.0588473 -3.59852 0
M  V30 4525 C 425.047 -1.28385 -4.2921 0
M  V30 4526 C 426.791 0.543358 -4.21008 0
M  V30 4527 C 424.698 -1.19028 -5.79298 0
M  V30 4528 H 423.628 0.00554317 -0.75398 0
M  V30 4529 H 426.279 -0.674924 -1.70637 0
M  V30 4530 H 424.661 0.803612 -3.8776 0
M  V30 4531 H 425.835 -2.04426 -4.12973 0
M  V30 4532 H 424.15 -1.70418 -3.7993 0
M  V30 4533 H 426.747 0.631351 -5.3096 0
M  V30 4534 H 427.09 1.54937 -3.86394 0
M  V30 4535 H 427.623 -0.145754 -3.97533 0
M  V30 4536 H 424.362 -2.17147 -6.18488 0
M  V30 4537 H 423.882 -0.471246 -5.97946 0
M  V30 4538 H 425.561 -0.881365 -6.40969 0
M  V30 4539 N 425.693 1.55336 -0.266172 0
M  V30 4540 C 426.918 2.04258 0.359661 0
M  V30 4541 C 427.343 1.14359 1.49344 0
M  V30 4542 O 426.701 0.140369 1.80756 0
M  V30 4543 C 426.749 3.50997 0.826635 0
M  V30 4544 O 425.853 3.64204 1.93466 0
M  V30 4545 H 425.194 0.659668 0.075727 0
M  V30 4546 H 427.724 2.00694 -0.39786 0
M  V30 4547 H 427.734 3.9219 1.12477 0
M  V30 4548 H 426.409 4.159 -0.00293032 0
M  V30 4549 H 424.986 3.34913 1.63974 0
M  V30 4550 N 427.171 -0.0066808 1.57599 0
M  V30 4551 C 428.587 -0.36267 1.55425 0
M  V30 4552 C 428.787 -1.75209 0.995187 0
M  V30 4553 O 427.843 -2.44616 0.626058 0
M  V30 4554 C 429.156 -0.244017 2.99708 0
M  V30 4555 C 430.704 -0.319451 3.11366 0
M  V30 4556 C 431.179 -0.229998 4.57422 0
M  V30 4557 N 432.67 -0.288105 4.62303 0
M  V30 4558 C 433.405 -0.242127 5.72889 0
M  V30 4559 N 432.901 -0.147133 6.92644 0
M  V30 4560 N 434.694 -0.293502 5.61333 0
M  V30 4561 H 426.845 0.902314 1.92281 0
M  V30 4562 H 429.108 0.34525 0.882896 0
M  V30 4563 H 428.814 0.711678 3.44424 0
M  V30 4564 H 428.688 -1.02877 3.629 0
M  V30 4565 H 431.075 -1.26559 2.66584 0
M  V30 4566 H 431.156 0.495055 2.50964 0
M  V30 4567 H 430.8 0.712566 5.02877 0
M  V30 4568 H 430.73 -1.0629 5.15761 0
M  V30 4569 H 433.221 -0.363126 3.76151 0
M  V30 4570 H 433.534 -0.117763 7.7271 0
M  V30 4571 H 431.879 -0.112857 6.94908 0
M  V30 4572 H 435.07 -0.365864 4.66668 0
M  V30 4573 H 435.243 -0.254204 6.47501 0
M  V30 4574 N 428.649 -1.55105 -0.279332 0
M  V30 4575 C 429.897 -1.75066 -1.00977 0
M  V30 4576 C 430.218 -0.551276 -1.87045 0
M  V30 4577 O 429.488 0.433984 -1.91032 0
M  V30 4578 H 428.068 -0.645578 -0.375816 0
M  V30 4579 H 430.73 -1.92497 -0.305089 0
M  V30 4580 H 429.826 -2.64894 -1.65038 0
M  V30 4581 N 430.127 0.543554 -1.4793 0
M  V30 4582 C 431.376 1.29649 -1.54512 0
M  V30 4583 C 431.689 1.94382 -0.217973 0
M  V30 4584 O 432.895 2.71017 -0.161908 0
M  V30 4585 C 431.351 2.35175 -2.72435 0
M  V30 4586 C 430.959 1.76572 -4.11736 0
M  V30 4587 C 432.703 3.11564 -2.8832 0
M  V30 4588 C 430.61 2.79958 -5.20939 0
M  V30 4589 H 429.54 0.487541 -0.57517 0
M  V30 4590 H 432.191 0.575708 -1.74235 0
M  V30 4591 H 430.573 3.10229 -2.46118 0
M  V30 4592 H 431.747 1.07799 -4.48013 0
M  V30 4593 H 430.062 1.12722 -4.00852 0
M  V30 4594 H 432.659 3.88794 -3.67074 0
M  V30 4595 H 433.002 3.66594 -1.97268 0
M  V30 4596 H 433.535 2.43623 -3.14472 0
M  V30 4597 H 430.274 2.29766 -6.13912 0
M  V30 4598 H 429.794 3.47101 -4.89164 0
M  V30 4599 H 431.473 3.43198 -5.48474 0
M  V30 4600 N 431.605 1.3629 0.791371 0
M  V30 4601 C 432.882 1.20962 1.53712 0
M  V30 4602 C 433.262 -0.205021 2.10102 0
M  V30 4603 O 432.61 -1.21042 1.93807 0
M  V30 4604 C 432.82 2.29002 2.63361 0
M  V30 4605 C 434.168 2.65572 3.31295 0
M  V30 4606 O 435.192 2.2803 2.73643 0
M  V30 4607 O 434.051 3.3018 4.35481 0
M  V30 4608 H 431.145 0.47086 0.679867 0
M  V30 4609 H 433.691 1.48016 0.830021 0
M  V30 4610 H 432.463 3.2382 2.19674 0
M  V30 4611 H 432.086 2.03303 3.41692 0
M  V30 4612 N 433.083 -1.0153 1.20538 0
M  V30 4613 C 434.03 -2.10098 0.955383 0
M  V30 4614 C 435 -1.65702 -0.114878 0
M  V30 4615 O 436.185 -1.90776 0.0301118 0
M  V30 4616 C 433.325 -3.41236 0.514969 0
M  V30 4617 C 432.438 -3.99102 1.65353 0
M  V30 4618 C 431.573 -5.18306 1.16329 0
M  V30 4619 C 430.612 -5.68258 2.27485 0
M  V30 4620 N 429.749 -6.78722 1.7967 0
M  V30 4621 H 434.589 -2.30818 1.88486 0
M  V30 4622 H 432.126 -1.13189 0.939499 0
M  V30 4623 H 434.084 -4.16504 0.240935 0
M  V30 4624 H 432.714 -3.20585 -0.377512 0
M  V30 4625 H 431.766 -3.20918 2.04245 0
M  V30 4626 H 433.078 -4.32177 2.49047 0
M  V30 4627 H 432.232 -6.00782 0.845302 0
M  V30 4628 H 430.971 -4.86799 0.296254 0
M  V30 4629 H 429.976 -4.84385 2.60099 0
M  V30 4630 H 431.201 -6.01798 3.14667 0
M  V30 4631 H 429.147 -6.49042 0.95295 0
M  V30 4632 H 429.064 -7.10996 2.56944 0
M  V30 4633 H 430.332 -7.64759 1.50875 0
M  V30 4634 N 434.561 -1.01147 -1.20859 0
M  V30 4635 C 435.493 -0.535546 -2.22855 0
M  V30 4636 C 436.506 0.379323 -1.58319 0
M  V30 4637 O 437.695 0.178489 -1.77605 0
M  V30 4638 C 434.795 0.240962 -3.38042 0
M  V30 4639 C 433.968 -0.674562 -4.32167 0
M  V30 4640 C 433.027 0.053467 -5.26173 0
M  V30 4641 O 432.053 -0.567339 -5.66366 0
M  V30 4642 N 433.255 1.32997 -5.65059 0
M  V30 4643 H 436.02 -1.41268 -2.64317 0
M  V30 4644 H 433.581 -0.888386 -1.35349 0
M  V30 4645 H 435.573 0.737115 -3.97931 0
M  V30 4646 H 434.143 1.01935 -2.95513 0
M  V30 4647 H 433.363 -1.35111 -3.70322 0
M  V30 4648 H 434.651 -1.2974 -4.91981 0
M  V30 4649 H 434.049 1.85536 -5.34409 0
M  V30 4650 H 432.606 1.77095 -6.2728 0
M  V30 4651 N 436.039 1.36541 -0.78704 0
M  V30 4652 C 437.287 1.98911 -0.357633 0
M  V30 4653 C 437.608 1.62778 1.07371 0
M  V30 4654 O 436.878 0.900612 1.73971 0
M  V30 4655 H 435.458 0.735734 -0.129246 0
M  V30 4656 H 438.12 1.66776 -1.00855 0
M  V30 4657 H 437.216 3.08874 -0.447549 0
M  V30 4658 N 437.518 0.538854 1.48102 0
M  V30 4659 C 438.481 -0.208395 2.28251 0
M  V30 4660 C 439.481 -0.859656 1.35892 0
M  V30 4661 O 440.671 -0.71834 1.58699 0
M  V30 4662 C 437.803 -1.30252 3.15035 0
M  V30 4663 H 438.996 0.495407 2.9578 0
M  V30 4664 H 436.549 0.295112 1.53489 0
M  V30 4665 H 437.284 -2.0393 2.52157 0
M  V30 4666 H 437.069 -0.840551 3.82985 0
M  V30 4667 H 438.559 -1.82787 3.75471 0
M  V30 4668 N 438.996 -1.55193 0.274407 0
M  V30 4669 C 439.926 -2.25471 -0.607032 0
M  V30 4670 C 440.907 -1.24461 -1.15946 0
M  V30 4671 O 442.092 -1.53179 -1.19373 0
M  V30 4672 C 439.222 -2.97526 -1.79153 0
M  V30 4673 C 438.176 -4.05459 -1.37067 0
M  V30 4674 C 437.502 -4.65084 -2.6382 0
M  V30 4675 C 438.802 -5.19691 -0.521389 0
M  V30 4676 H 440.496 -2.99393 -0.0209343 0
M  V30 4677 H 438.042 -1.43997 -0.00862866 0
M  V30 4678 H 439.995 -3.45402 -2.41404 0
M  V30 4679 H 438.719 -2.21138 -2.40344 0
M  V30 4680 H 437.378 -3.58393 -0.771355 0
M  V30 4681 H 437.026 -3.85365 -3.23268 0
M  V30 4682 H 436.726 -5.37961 -2.36372 0
M  V30 4683 H 438.25 -5.15708 -3.26921 0
M  V30 4684 H 439.664 -5.63623 -1.04889 0
M  V30 4685 H 438.061 -5.99126 -0.341825 0
M  V30 4686 H 439.131 -4.82713 0.46 0
M  V30 4687 N 440.474 -0.00167713 -1.576 0
M  V30 4688 C 441.404 0.988091 -2.11563 0
M  V30 4689 C 442.385 1.35736 -1.02517 0
M  V30 4690 O 443.57 1.44082 -1.30208 0
M  V30 4691 C 440.7 2.27941 -2.62031 0
M  V30 4692 C 439.654 2.0517 -3.75619 0
M  V30 4693 C 438.98 3.4033 -4.12407 0
M  V30 4694 C 440.28 1.41294 -5.02825 0
M  V30 4695 H 441.974 0.538771 -2.94513 0
M  V30 4696 H 439.52 0.257712 -1.41675 0
M  V30 4697 H 441.473 2.97539 -2.9841 0
M  V30 4698 H 440.197 2.74989 -1.76205 0
M  V30 4699 H 438.856 1.37998 -3.39635 0
M  V30 4700 H 438.504 3.85085 -3.23603 0
M  V30 4701 H 438.204 3.25909 -4.88935 0
M  V30 4702 H 439.728 4.1124 -4.51347 0
M  V30 4703 H 441.142 2.00851 -5.36965 0
M  V30 4704 H 439.539 1.37356 -5.84169 0
M  V30 4705 H 440.609 0.382362 -4.8339 0
M  V30 4706 N 441.952 1.55251 0.271103 0
M  V30 4707 C 442.882 1.9127 1.33933 0
M  V30 4708 C 443.863 0.77478 1.5143 0
M  V30 4709 O 445.048 1.03307 1.64442 0
M  V30 4710 C 442.178 2.18627 2.69851 0
M  V30 4711 C 441.132 3.34442 2.67081 0
M  V30 4712 C 440.458 3.47284 4.06569 0
M  V30 4713 C 441.758 4.70784 2.26185 0
M  V30 4714 H 443.452 2.80744 1.04035 0
M  V30 4715 H 440.998 1.35077 0.499017 0
M  V30 4716 H 442.951 2.42413 3.44694 0
M  V30 4717 H 441.675 1.25955 3.01335 0
M  V30 4718 H 440.334 3.10627 1.94695 0
M  V30 4719 H 439.982 2.52074 4.35279 0
M  V30 4720 H 439.682 4.25152 4.0561 0
M  V30 4721 H 441.206 3.73363 4.83148 0
M  V30 4722 H 442.62 4.94102 2.90751 0
M  V30 4723 H 441.017 5.51582 2.36384 0
M  V30 4724 H 442.087 4.69478 1.21319 0
M  V30 4725 N 443.43 -0.535701 1.48216 0
M  V30 4726 C 444.34 -1.66785 1.64985 0
M  V30 4727 C 445.356 -1.65654 0.532414 0
M  V30 4728 O 446.532 -1.8471 0.80275 0
M  V30 4729 C 443.597 -3.0326 1.68031 0
M  V30 4730 C 442.658 -3.1529 2.9136 0
M  V30 4731 C 441.891 -4.45255 2.94252 0
M  V30 4732 O 442.114 -5.32011 2.05719 0
M  V30 4733 O 441.048 -4.6153 3.86359 0
M  V30 4734 H 444.874 -1.55576 2.60825 0
M  V30 4735 H 442.459 -0.70815 1.31551 0
M  V30 4736 H 444.341 -3.84436 1.72589 0
M  V30 4737 H 443.016 -3.14805 0.753628 0
M  V30 4738 H 441.923 -2.3343 2.92337 0
M  V30 4739 H 443.256 -3.08658 3.83394 0
M  V30 4740 N 444.908 -1.36708 -0.784132 0
M  V30 4741 C 445.84 -1.27333 -1.90575 0
M  V30 4742 C 446.853 -0.191706 -1.61667 0
M  V30 4743 O 448.042 -0.446854 -1.72816 0
M  V30 4744 C 445.142 -0.943177 -3.25511 0
M  V30 4745 C 444.315 -2.12776 -3.82158 0
M  V30 4746 C 443.374 -1.76983 -4.95544 0
M  V30 4747 O 442.4 -2.49134 -5.11782 0
M  V30 4748 N 443.602 -0.706624 -5.76183 0
M  V30 4749 H 446.367 -2.23974 -1.99138 0
M  V30 4750 H 443.928 -1.30171 -0.962656 0
M  V30 4751 H 445.92 -0.684799 -3.98864 0
M  V30 4752 H 444.49 -0.0657333 -3.12531 0
M  V30 4753 H 443.71 -2.54863 -3.0073 0
M  V30 4754 H 444.998 -2.91904 -4.16737 0
M  V30 4755 H 444.396 -0.107643 -5.65598 0
M  V30 4756 H 442.953 -0.50808 -6.49817 0
M  V30 4757 N 446.386 1.0089 -1.21074 0
M  V30 4758 C 447.663 1.71834 -0.934469 0
M  V30 4759 C 448.043 2.0368 0.554753 0
M  V30 4760 O 447.391 1.70742 1.51854 0
M  V30 4761 C 447.601 2.98061 -1.8155 0
M  V30 4762 C 448.949 3.7117 -2.06199 0
M  V30 4763 O 449.973 3.08034 -1.78867 0
M  V30 4764 O 448.832 4.84721 -2.52404 0
M  V30 4765 H 445.926 0.749253 -0.35007 0
M  V30 4766 H 448.472 1.06668 -1.31985 0
M  V30 4767 H 447.244 2.70908 -2.82355 0
M  V30 4768 H 446.867 3.70968 -1.43068 0
M  V30 4769 N 447.864 1.01787 1.20321 0
M  V30 4770 C 449.112 0.706538 1.89347 0
M  V30 4771 C 449.433 -0.766289 1.79313 0
M  V30 4772 O 448.703 -1.55126 1.19635 0
M  V30 4773 H 447.283 0.258348 0.700903 0
M  V30 4774 H 449.945 1.28974 1.46122 0
M  V30 4775 H 449.041 0.991066 2.95946 0
M  V30 4776 N 449.342 -1.36122 0.79427 0
M  V30 4777 C 450.591 -1.98361 0.365464 0
M  V30 4778 C 450.904 -1.6374 -1.06997 0
M  V30 4779 O 452.11 -2.19251 -1.60129 0
M  V30 4780 C 450.566 -3.54821 0.602496 0
M  V30 4781 C 450.174 -3.98362 2.04967 0
M  V30 4782 C 451.918 -4.2383 0.238437 0
M  V30 4783 C 449.825 -5.47619 2.2331 0
M  V30 4784 H 448.755 -0.742193 0.13291 0
M  V30 4785 H 451.406 -1.55354 0.976589 0
M  V30 4786 H 449.788 -3.95922 -0.078409 0
M  V30 4787 H 450.962 -3.68447 2.76737 0
M  V30 4788 H 449.277 -3.42206 2.37243 0
M  V30 4789 H 451.874 -5.33529 0.353705 0
M  V30 4790 H 452.217 -4.08264 -0.814006 0
M  V30 4791 H 452.75 -3.88108 0.872769 0
M  V30 4792 H 449.489 -5.68138 3.26955 0
M  V30 4793 H 449.009 -5.79145 1.5605 0
M  V30 4794 H 450.688 -6.13911 2.0426 0
M  V30 4795 N 450.82 -0.546701 -1.47814 0
M  V30 4796 C 452.069 -0.0166497 -2.01693 0
M  V30 4797 C 452.382 1.33721 -1.42752 0
M  V30 4798 O 453.588 1.95658 -1.8823 0
M  V30 4799 C 452.044 0.0206769 -3.59894 0
M  V30 4800 C 451.652 -1.3293 -4.27824 0
M  V30 4801 C 453.396 0.498674 -4.21561 0
M  V30 4802 C 451.303 -1.25165 -5.78003 0
M  V30 4803 H 450.233 -0.0024541 -0.753996 0
M  V30 4804 H 452.884 -0.692984 -1.69912 0
M  V30 4805 H 451.266 0.76244 -3.88591 0
M  V30 4806 H 452.44 -2.08795 -4.10781 0
M  V30 4807 H 450.755 -1.74438 -3.78101 0
M  V30 4808 H 453.352 0.575 -5.31599 0
M  V30 4809 H 453.695 1.5083 -3.88016 0
M  V30 4810 H 454.228 -0.18791 -3.97356 0
M  V30 4811 H 450.967 -2.23695 -6.1615 0
M  V30 4812 H 450.487 -0.53464 -5.97412 0
M  V30 4813 H 452.166 -0.949299 -6.39998 0
M  V30 4814 N 452.299 1.55045 -0.282633 0
M  V30 4815 C 453.246 2.22822 0.601566 0
M  V30 4816 C 454.216 1.20431 1.14392 0
M  V30 4817 O 455.401 1.48996 1.19184 0
M  V30 4818 C 452.541 2.95873 1.77632 0
M  V30 4819 C 451.654 4.12999 1.26711 0
M  V30 4820 C 450.789 4.73676 2.40426 0
M  V30 4821 C 449.828 5.82981 1.86545 0
M  V30 4822 N 448.965 6.3769 2.93762 0
M  V30 4823 H 453.805 2.97995 0.0169528 0
M  V30 4824 H 451.342 1.471 -0.00339964 0
M  V30 4825 H 453.3 3.36447 2.46697 0
M  V30 4826 H 451.93 2.2311 2.33285 0
M  V30 4827 H 450.982 3.77494 0.469314 0
M  V30 4828 H 452.294 4.91803 0.832518 0
M  V30 4829 H 451.448 5.17008 3.17471 0
M  V30 4830 H 450.187 3.94164 2.87203 0
M  V30 4831 H 449.192 5.39092 1.07983 0
M  V30 4832 H 450.417 6.64366 1.40694 0
M  V30 4833 H 448.363 5.61069 3.39908 0
M  V30 4834 H 448.28 7.11788 2.54744 0
M  V30 4835 H 449.548 6.8568 3.7076 0
M  V30 4836 N 453.777 0.010035 1.57597 0
M  V30 4837 C 455.188 -0.531426 1.78977 0
M  V30 4838 C 455.539 -1.73375 0.918454 0
M  V30 4839 O 454.664 -2.16047 0.123635 0
M  V30 4840 C 455.259 -0.97086 3.24592 0
M  V30 4841 C 453.818 -1.45756 3.47033 0
M  V30 4842 C 452.965 -0.413384 2.74201 0
M  V30 4843 H 455.916 0.236166 1.56933 0
M  V30 4844 H 455.937 -1.83633 3.33255 0
M  V30 4845 H 455.449 -0.0955893 3.87982 0
M  V30 4846 H 453.55 -2.35339 2.88871 0
M  V30 4847 H 453.663 -1.4781 4.55729 0
M  V30 4848 H 452.027 -0.877266 2.39115 0
M  V30 4849 H 452.81 0.453092 3.40297 0
M  V30 4850 N 455.255 -1.55392 -0.262866 0
M  V30 4851 C 456.501 -1.77657 -0.990424 0
M  V30 4852 C 456.856 -0.576333 -1.83565 0
M  V30 4853 O 456.149 0.430795 -1.86694 0
M  V30 4854 C 456.343 -3.02889 -1.89718 0
M  V30 4855 C 456.172 -4.34979 -1.14121 0
M  V30 4856 C 454.942 -4.98052 -0.852768 0
M  V30 4857 C 457.14 -5.11597 -0.526625 0
M  V30 4858 N 455.122 -6.13859 -0.0710649 0
M  V30 4859 C 456.493 -6.19883 0.12042 0
M  V30 4860 C 458.548 -4.95992 -0.435485 0
M  V30 4861 C 457.251 -7.14262 0.849833 0
M  V30 4862 C 459.277 -5.90735 0.280359 0
M  V30 4863 C 458.639 -6.98417 0.916103 0
M  V30 4864 H 454.738 -0.702242 -0.344064 0
M  V30 4865 H 457.322 -1.92887 -0.265088 0
M  V30 4866 H 455.493 -2.89017 -2.59468 0
M  V30 4867 H 457.225 -3.13516 -2.5591 0
M  V30 4868 H 453.98 -4.5916 -1.16058 0
M  V30 4869 H 454.404 -6.76302 0.307413 0
M  V30 4870 H 459.046 -4.12832 -0.912671 0
M  V30 4871 H 456.764 -7.96935 1.33867 0
M  V30 4872 H 460.35 -5.80738 0.351332 0
M  V30 4873 H 459.23 -7.70467 1.46119 0
M  V30 4874 N 456.733 0.527833 -1.48498 0
M  V30 4875 C 457.666 1.64892 -1.57753 0
M  V30 4876 C 458.644 1.5687 -0.427867 0
M  V30 4877 O 459.828 1.77311 -0.639764 0
M  V30 4878 C 456.955 3.03301 -1.50752 0
M  V30 4879 C 456.001 3.29675 -2.70586 0
M  V30 4880 S 456.834 3.15712 -4.32535 0
M  V30 4881 C 457.99 4.56564 -4.28136 0
M  V30 4882 H 458.223 1.56792 -2.52594 0
M  V30 4883 H 455.756 0.710959 -1.37057 0
M  V30 4884 H 457.714 3.83123 -1.474 0
M  V30 4885 H 456.375 3.08839 -0.572454 0
M  V30 4886 H 455.568 4.3065 -2.61833 0
M  V30 4887 H 455.17 2.57526 -2.71212 0
M  V30 4888 H 457.462 5.48126 -3.98201 0
M  V30 4889 H 458.405 4.70371 -5.29298 0
M  V30 4890 H 458.813 4.35987 -3.58574 0
M  V30 4891 N 458.211 1.37122 0.776871 0
M  V30 4892 C 459.459 1.31787 1.53221 0
M  V30 4893 C 459.78 -0.0987589 1.9475 0
M  V30 4894 O 459.05 -1.0417 1.65908 0
M  V30 4895 H 457.63 0.484839 0.568278 0
M  V30 4896 H 460.292 1.71556 0.924917 0
M  V30 4897 H 459.388 1.95355 2.43398 0
M  V30 4898 N 459.689 -1.00246 1.21608 0
M  V30 4899 C 460.937 -1.73717 1.0328 0
M  V30 4900 C 461.258 -1.90102 -0.434318 0
M  V30 4901 O 460.528 -1.45376 -1.31311 0
M  V30 4902 H 459.108 -0.643613 0.379172 0
M  V30 4903 H 461.77 -1.20787 1.52959 0
M  V30 4904 H 460.866 -2.73535 1.50283 0
M  V30 4905 N 461.167 -1.02423 -1.1978 0
M  V30 4906 C 462.077 -0.610919 -2.26506 0
M  V30 4907 C 463.093 0.355152 -1.70337 0
M  V30 4908 O 464.269 0.214195 -2.00258 0
M  V30 4909 C 461.334 0.0365921 -3.46681 0
M  V30 4910 C 460.395 -0.976389 -4.18049 0
M  V30 4911 C 459.628 -0.359683 -5.32487 0
M  V30 4912 O 459.851 0.838601 -5.64202 0
M  V30 4913 O 458.785 -1.08022 -5.92127 0
M  V30 4914 H 462.611 -1.49965 -2.64091 0
M  V30 4915 H 460.196 -0.794156 -1.26545 0
M  V30 4916 H 462.078 0.39786 -4.19518 0
M  V30 4917 H 460.753 0.899398 -3.10954 0
M  V30 4918 H 459.66 -1.38916 -3.47352 0
M  V30 4919 H 460.993 -1.80941 -4.57735 0
M  V30 4920 N 462.645 1.35699 -0.801477 0
M  V30 4921 C 463.894 1.98165 -0.375979 0
M  V30 4922 C 464.207 1.64306 1.06127 0
M  V30 4923 O 465.413 2.20097 1.58964 0
M  V30 4924 C 463.869 3.54497 -0.621305 0
M  V30 4925 C 463.477 3.9727 -2.07076 0
M  V30 4926 C 465.221 4.23697 -0.26091 0
M  V30 4927 C 463.128 5.46427 -2.26211 0
M  V30 4928 H 462.058 0.741478 -0.136844 0
M  V30 4929 H 464.709 1.54834 -0.984814 0
M  V30 4930 H 463.091 3.95958 0.0574112 0
M  V30 4931 H 464.265 3.66974 -2.78687 0
M  V30 4932 H 462.58 3.40943 -2.39054 0
M  V30 4933 H 465.177 5.33334 -0.381994 0
M  V30 4934 H 465.52 4.0869 0.792344 0
M  V30 4935 H 466.053 3.87639 -0.893339 0
M  V30 4936 H 462.792 5.66396 -3.29963 0
M  V30 4937 H 462.312 5.78309 -1.59119 0
M  V30 4938 H 463.991 6.12819 -2.07513 0
M  V30 4939 N 464.123 0.554532 1.47522 0
M  V30 4940 C 465.348 0.0322661 2.07375 0
M  V30 4941 C 465.773 -1.25079 1.40488 0
M  V30 4942 O 465.131 -1.74859 0.47896 0
M  V30 4943 C 465.179 -0.149397 3.6029 0
M  V30 4944 O 464.283 -1.21259 3.9417 0
M  V30 4945 H 463.624 0.0501228 0.662106 0
M  V30 4946 H 466.154 0.769452 1.8958 0
M  V30 4947 H 466.164 -0.364437 4.06369 0
M  V30 4948 H 464.839 0.787743 4.08372 0
M  V30 4949 H 463.416 -0.97825 3.5984 0
M  V30 4950 N 465.601 -1.54893 0.290851 0
M  V30 4951 C 466.531 -2.26103 -0.583084 0
M  V30 4952 C 467.512 -1.25684 -1.14619 0
M  V30 4953 O 468.697 -1.54436 -1.17741 0
M  V30 4954 C 465.827 -2.99409 -1.75987 0
M  V30 4955 C 464.781 -4.0689 -1.32758 0
M  V30 4956 C 464.107 -4.67856 -2.58872 0
M  V30 4957 C 465.407 -5.20215 -0.46624 0
M  V30 4958 H 467.101 -2.99398 0.0108214 0
M  V30 4959 H 464.647 -1.43998 0.00664468 0
M  V30 4960 H 466.6 -3.47943 -2.37727 0
M  V30 4961 H 465.324 -2.23675 -2.37985 0
M  V30 4962 H 463.983 -3.59191 -0.733299 0
M  V30 4963 H 463.631 -3.88772 -3.19163 0
M  V30 4964 H 463.331 -5.40438 -2.30653 0
M  V30 4965 H 464.855 -5.19147 -3.21433 0
M  V30 4966 H 466.269 -5.64704 -0.989047 0
M  V30 4967 H 464.666 -5.99455 -0.27826 0
M  V30 4968 H 465.736 -4.82198 0.511173 0
M  V30 4969 N 467.08 -0.0183926 -1.57589 0
M  V30 4970 C 468.496 0.337897 -1.55982 0
M  V30 4971 C 468.696 1.73604 -1.02294 0
M  V30 4972 O 467.752 2.43589 -0.664895 0
M  V30 4973 C 469.065 0.196305 -3.00059 0
M  V30 4974 C 470.613 0.269875 -3.11834 0
M  V30 4975 C 471.088 0.157197 -4.5773 0
M  V30 4976 N 472.579 0.214521 -4.62703 0
M  V30 4977 C 473.314 0.150955 -5.73201 0
M  V30 4978 N 472.81 0.0369212 -6.9279 0
M  V30 4979 N 474.603 0.204162 -5.61729 0
M  V30 4980 H 466.754 -0.93279 -1.90821 0
M  V30 4981 H 469.017 -0.359253 -0.877292 0
M  V30 4982 H 468.723 -0.766383 -3.43248 0
M  V30 4983 H 468.597 0.970908 -3.6449 0
M  V30 4984 H 470.984 1.22302 -2.68563 0
M  V30 4985 H 471.065 -0.534918 -2.50144 0
M  V30 4986 H 470.709 -0.792479 -5.01679 0
M  V30 4987 H 470.639 0.980717 -5.17387 0
M  V30 4988 H 473.13 0.303238 -3.76681 0
M  V30 4989 H 473.443 -0.00518321 -7.728 0
M  V30 4990 H 471.788 0.0022886 -6.95 0
M  V30 4991 H 474.979 0.291575 -4.67191 0
M  V30 4992 H 475.152 0.15116 -6.47824 0
M  V30 4993 N 468.558 1.5553 0.254621 0
M  V30 4994 C 469.783 1.81383 1.00573 0
M  V30 4995 C 470.208 0.594419 1.78461 0
M  V30 4996 O 469.566 -0.456403 1.75461 0
M  V30 4997 C 469.614 3.04892 1.92545 0
M  V30 4998 O 468.718 2.81266 3.01601 0
M  V30 4999 H 468.059 0.598969 0.286587 0
M  V30 5000 H 470.589 2.02703 0.277952 0
M  V30 5001 H 470.599 3.34119 2.34155 0
M  V30 5002 H 469.274 3.93287 1.3527 0
M  V30 5003 H 467.851 2.63185 2.64174 0
M  V30 5004 N 470.036 -0.519951 1.48776 0
M  V30 5005 C 470.999 -1.60574 1.6355 0
M  V30 5006 C 471.999 -1.52557 0.508234 0
M  V30 5007 O 473.189 -1.56047 0.774262 0
M  V30 5008 C 470.321 -3.00211 1.61512 0
M  V30 5009 H 471.514 -1.4881 2.60376 0
M  V30 5010 H 469.067 -0.742772 1.37523 0
M  V30 5011 H 469.802 -3.17471 0.662009 0
M  V30 5012 H 469.587 -3.07439 2.43359 0
M  V30 5013 H 471.077 -3.79134 1.75064 0
M  V30 5014 N 471.514 -1.37532 -0.769588 0
M  V30 5015 C 472.424 -1.35668 -1.91393 0
M  V30 5016 C 473.44 -0.255954 -1.72107 0
M  V30 5017 O 474.616 -0.491704 -1.95305 0
M  V30 5018 C 471.681 -1.16481 -3.26547 0
M  V30 5019 C 470.742 -2.36212 -3.58472 0
M  V30 5020 C 469.975 -2.17932 -4.87177 0
M  V30 5021 O 470.198 -1.1647 -5.58382 0
M  V30 5022 O 469.132 -3.06167 -5.18214 0
M  V30 5023 H 472.958 -2.32055 -1.95918 0
M  V30 5024 H 470.543 -1.18284 -0.912641 0
M  V30 5025 H 472.425 -1.07778 -4.07384 0
M  V30 5026 H 471.1 -0.231687 -3.2287 0
M  V30 5027 H 470.007 -2.50488 -2.77861 0
M  V30 5028 H 471.34 -3.281 -3.66894 0
M  V30 5029 N 472.992 0.995999 -1.22138 0
M  V30 5030 C 473.939 2.08551 -0.988687 0
M  V30 5031 C 474.909 1.65864 0.0885021 0
M  V30 5032 O 476.094 1.90704 -0.0604589 0
M  V30 5033 C 473.234 3.40374 -0.569191 0
M  V30 5034 C 472.347 3.96421 -1.71681 0
M  V30 5035 C 471.482 5.1639 -1.2456 0
M  V30 5036 C 470.521 5.64567 -2.36497 0
M  V30 5037 N 469.658 6.75777 -1.90445 0
M  V30 5038 H 474.498 2.2779 -1.92135 0
M  V30 5039 H 472.035 1.1168 -0.957388 0
M  V30 5040 H 473.993 4.16068 -0.307166 0
M  V30 5041 H 472.623 3.21145 0.326462 0
M  V30 5042 H 471.675 3.17628 -2.09324 0
M  V30 5043 H 472.987 4.2816 -2.55891 0
M  V30 5044 H 472.141 5.99362 -0.940774 0
M  V30 5045 H 470.88 4.86266 -0.373662 0
M  V30 5046 H 469.885 4.80185 -2.67772 0
M  V30 5047 H 471.11 5.96716 -3.24202 0
M  V30 5048 H 469.056 6.47443 -1.05609 0
M  V30 5049 H 468.973 7.06818 -2.68223 0
M  V30 5050 H 470.241 7.62262 -1.63022 0
M  V30 5051 O 474.509 1.15683 1.12693 0
M  V30 5052 H 475.2 0.884984 1.72301 0
M  V30 END ATOM
M  V30 BEGIN BOND
M  V30 END BOND
M  V30 END CTAB
M  END
$$$$
