drugbank_target|Q8TD30 Alanine aminotransferase 2 (DB00114; DB00142; DB00160; DB00780)
 OpenBabel12092120063D

  0  0  0     0  0            999 V3000
M  V30 BEGIN CTAB
M  V30 COUNTS 8140 8225 0 0 0
M  V30 BEGIN ATOM
M  V30 1 H -0.908 1.98254 -0.117106 0
M  V30 2 N 0 1.576 0 0
M  V30 3 C 0.933 2.03868 1.02534 0
M  V30 4 C 1.911 0.928543 1.3348 0
M  V30 5 O 3.095 1.19667 1.45644 0
M  V30 6 C 0.222 2.43627 2.35294 0
M  V30 7 C -0.732 3.65373 2.2001 0
M  V30 8 S 0.101 5.13292 1.52614 0
M  V30 9 C 1.257 5.56322 2.86805 0
M  V30 10 H 1.49 2.90518 0.631377 0
M  V30 11 H -0.977 1.52953 0.210867 0
M  V30 12 H 0.981 2.67203 3.11629 0
M  V30 13 H -0.358 1.57376 2.7183 0
M  V30 14 H -1.165 3.90944 3.18086 0
M  V30 15 H -1.563 3.418 1.51819 0
M  V30 16 H 0.729 5.58782 3.83104 0
M  V30 17 H 1.672 6.56266 2.65933 0
M  V30 18 H 2.08 4.83886 2.90714 0
M  V30 19 N 1.4781 -0.272755 1.55222 0
M  V30 20 C 2.4101 -1.35946 1.8453 0
M  V30 21 C 3.4231 -1.45525 0.729818 0
M  V30 22 O 4.6121 -1.47337 1.00767 0
M  V30 23 C 1.7121 -2.74069 1.99347 0
M  V30 24 C 0.8851 -2.87079 3.30007 0
M  V30 25 C -0.0559 -4.05879 3.34886 0
M  V30 26 O -1.0299 -3.96626 4.08261 0
M  V30 27 N 0.1721 -5.17857 2.62307 0
M  V30 28 H 2.9371 -1.11149 2.78327 0
M  V30 29 H 0.4981 -0.462869 1.55142 0
M  V30 30 H 2.4901 -3.51838 1.99981 0
M  V30 31 H 1.0601 -2.91688 1.12415 0
M  V30 32 H 0.2801 -1.96193 3.41909 0
M  V30 33 H 1.5681 -2.92701 4.16177 0
M  V30 34 H 0.9661 -5.28261 2.02377 0
M  V30 35 H -0.4769 -5.93855 2.68663 0
M  V30 36 N 2.9562 -1.48159 -0.537278 0
M  V30 37 C 4.3722 -1.34118 -0.865129 0
M  V30 38 C 4.5722 -0.346678 -1.98495 0
M  V30 39 O 3.6282 0.234715 -2.51407 0
M  V30 40 C 4.9412 -2.73963 -1.23954 0
M  V30 41 C 6.4892 -2.82397 -1.34984 0
M  V30 42 C 6.9642 -4.22928 -1.75772 0
M  V30 43 N 8.4552 -4.25566 -1.82887 0
M  V30 44 C 9.1902 -5.31235 -2.15817 0
M  V30 45 N 8.6862 -6.47189 -2.47222 0
M  V30 46 N 10.4792 -5.18624 -2.16761 0
M  V30 47 H 2.6302 -2.1144 0.201715 0
M  V30 48 H 4.8932 -0.947598 0.0275949 0
M  V30 49 H 4.5992 -3.48264 -0.490381 0
M  V30 50 H 4.4732 -3.0702 -2.19132 0
M  V30 51 H 6.8602 -2.08356 -2.08978 0
M  V30 52 H 6.9412 -2.5297 -0.379448 0
M  V30 53 H 6.5852 -4.97482 -1.02341 0
M  V30 54 H 6.5152 -4.49794 -2.73848 0
M  V30 55 H 9.0062 -3.41924 -1.60924 0
M  V30 56 H 9.3192 -7.23564 -2.71433 0
M  V30 57 H 7.6642 -6.50476 -2.44757 0
M  V30 58 H 10.8552 -4.27056 -1.91679 0
M  V30 59 H 11.0282 -6.01078 -2.42093 0
M  V30 60 N 4.4343 0.785586 -1.36625 0
M  V30 61 C 5.3973 1.87999 -1.31107 0
M  V30 62 C 6.3973 1.59316 -0.217959 0
M  V30 63 O 7.5873 1.67656 -0.472977 0
M  V30 64 C 4.7193 3.24861 -1.03334 0
M  V30 65 H 5.9123 1.94307 -2.2844 0
M  V30 66 H 3.4653 0.983813 -1.21453 0
M  V30 67 H 4.2003 3.24235 -0.0647432 0
M  V30 68 H 3.9853 3.4707 -1.82441 0
M  V30 69 H 5.4753 4.04929 -1.02088 0
M  V30 70 N 5.9124 1.20967 1.01018 0
M  V30 71 C 6.8754 0.965918 2.07853 0
M  V30 72 C 7.8754 -0.0610545 1.60684 0
M  V30 73 O 9.0654 0.175681 1.73312 0
M  V30 74 C 6.1974 0.455513 3.37843 0
M  V30 75 H 7.3904 1.91365 2.3091 0
M  V30 76 H 4.9434 1.02594 1.17916 0
M  V30 77 H 5.6784 -0.497381 3.20463 0
M  V30 78 H 5.4634 1.19622 3.73407 0
M  V30 79 H 6.9534 0.304667 4.16487 0
M  V30 80 N 7.3905 -1.2043 1.01659 0
M  V30 81 C 8.3535 -2.21433 0.591616 0
M  V30 82 C 9.3535 -1.57203 -0.338226 0
M  V30 83 O 10.5435 -1.73737 -0.126918 0
M  V30 84 C 7.6755 -3.40628 -0.136058 0
M  V30 85 H 8.8685 -2.60545 1.48514 0
M  V30 86 H 6.4215 -1.33893 0.806379 0
M  V30 87 H 7.1565 -3.07019 -1.04449 0
M  V30 88 H 6.9415 -3.88475 0.531917 0
M  V30 89 H 8.4315 -4.15475 -0.420735 0
M  V30 90 N 8.8686 -0.792821 -1.36206 0
M  V30 91 C 9.7986 -0.207853 -2.32573 0
M  V30 92 C 10.7796 0.659055 -1.56813 0
M  V30 93 O 11.9646 0.592176 -1.84951 0
M  V30 94 C 9.0946 0.655449 -3.41059 0
M  V30 95 C 8.0486 -0.111842 -4.27854 0
M  V30 96 C 7.3746 0.872274 -5.27537 0
M  V30 97 C 8.6746 -1.30299 -5.05786 0
M  V30 98 H 10.3686 -1.01294 -2.81744 0
M  V30 99 H 7.9146 -0.48854 -1.3546 0
M  V30 100 H 9.8676 1.07464 -4.07467 0
M  V30 101 H 8.5916 1.49328 -2.90463 0
M  V30 102 H 7.2506 -0.512053 -3.63006 0
M  V30 103 H 6.8986 1.70523 -4.73214 0
M  V30 104 H 6.5986 0.363291 -5.86476 0
M  V30 105 H 8.1226 1.28996 -5.96818 0
M  V30 106 H 9.5366 -0.959379 -5.65216 0
M  V30 107 H 7.9336 -1.7455 -5.74154 0
M  V30 108 H 9.0036 -2.09663 -4.37229 0
M  V30 109 N 10.3467 1.47872 -0.545128 0
M  V30 110 C 11.5927 2.02793 -0.0166104 0
M  V30 111 C 11.9257 1.41987 1.32489 0
M  V30 112 O 11.2007 0.571045 1.85928 0
M  V30 113 C 11.4837 3.59989 0.0893294 0
M  V30 114 C 11.3367 4.3125 -1.27841 0
M  V30 115 C 12.6557 4.32606 0.808724 0
M  V30 116 H 9.7747 0.736962 -0.00751035 0
M  V30 117 H 12.4167 1.76433 -0.705085 0
M  V30 118 H 10.5667 3.82579 0.675681 0
M  V30 119 H 12.2387 4.20035 -1.90704 0
M  V30 120 H 10.4817 3.92076 -1.85632 0
M  V30 121 H 11.1527 5.39736 -1.15713 0
M  V30 122 H 13.6287 4.14936 0.310992 0
M  V30 123 H 12.5047 5.42251 0.851782 0
M  V30 124 H 12.7657 4.00963 1.86229 0
M  V30 125 N 11.8248 0.280983 1.55075 0
M  V30 126 C 13.2408 -0.0729964 1.59433 0
M  V30 127 C 13.4408 -1.5411 1.29817 0
M  V30 128 O 12.4968 -2.29086 1.06187 0
M  V30 129 C 13.8098 0.306921 2.9913 0
M  V30 130 C 15.3578 0.254023 3.11968 0
M  V30 131 C 15.8328 0.608467 4.5394 0
M  V30 132 N 17.3238 0.560241 4.59799 0
M  V30 133 C 18.0588 0.80722 5.6769 0
M  V30 134 N 17.5548 1.11912 6.83701 0
M  V30 135 N 19.3478 0.735623 5.57266 0
M  V30 136 H 11.4988 1.238 1.7259 0
M  V30 137 H 13.7618 0.500547 0.805082 0
M  V30 138 H 13.4678 1.32816 3.25657 0
M  V30 139 H 13.3418 -0.349363 3.75579 0
M  V30 140 H 15.7288 -0.75794 2.852 0
M  V30 141 H 15.8098 0.944649 2.37718 0
M  V30 142 H 15.4538 1.61814 4.81434 0
M  V30 143 H 15.3838 -0.104013 5.26497 0
M  V30 144 H 17.8748 0.329288 3.76463 0
M  V30 145 H 18.1878 1.29409 7.61888 0
M  V30 146 H 16.5328 1.15695 6.85303 0
M  V30 147 H 19.7238 0.491752 4.6551 0
M  V30 148 H 19.8968 0.931482 6.4127 0
M  V30 149 N 13.3029 -1.57598 0.00835791 0
M  V30 150 C 14.7189 -1.55764 -0.347822 0
M  V30 151 C 14.9189 -1.01186 -1.74252 0
M  V30 152 O 13.9749 -0.649371 -2.44007 0
M  V30 153 C 15.2879 -2.99927 -0.215407 0
M  V30 154 C 16.8359 -3.11656 -0.289725 0
M  V30 155 C 17.3109 -4.57621 -0.18634 0
M  V30 156 N 18.8019 -4.62557 -0.243978 0
M  V30 157 C 19.5369 -5.73094 -0.18745 0
M  V30 158 N 19.0329 -6.92753 -0.0810331 0
M  V30 159 N 20.8259 -5.61588 -0.239925 0
M  V30 160 H 12.9769 -1.91411 0.92062 0
M  V30 161 H 15.2399 -0.879562 0.353659 0
M  V30 162 H 14.9459 -3.43729 0.744512 0
M  V30 163 H 14.8199 -3.63865 -0.994097 0
M  V30 164 H 17.2069 -2.67779 -1.24009 0
M  V30 165 H 17.2879 -2.5048 0.51898 0
M  V30 166 H 16.9319 -5.02174 0.760519 0
M  V30 167 H 16.8619 -5.16752 -1.01364 0
M  V30 168 H 19.3529 -3.76481 -0.327217 0
M  V30 169 H 19.6659 -7.72787 -0.0440241 0
M  V30 170 H 18.0109 -6.94984 -0.0465419 0
M  V30 171 H 21.2019 -4.66996 -0.321317 0
M  V30 172 H 21.3749 -6.47714 -0.192407 0
M  V30 173 N 14.781 0.264519 -1.55364 0
M  V30 174 C 16.029 0.993021 -1.76021 0
M  V30 175 C 16.35 1.86511 -0.569099 0
M  V30 176 O 15.62 1.91438 0.415735 0
M  V30 177 H 14.2 0.369639 -0.649135 0
M  V30 178 H 16.862 0.286707 -1.9278 0
M  V30 179 H 15.958 1.62502 -2.66457 0
M  V30 180 N 16.2591 1.48442 0.529413 0
M  V30 181 C 17.4991 1.58086 1.29569 0
M  V30 182 C 17.8631 0.249302 1.90375 0
M  V30 183 O 19.0641 0.220738 2.67892 0
M  V30 184 C 17.3351 2.68793 2.35552 0
M  V30 185 S 18.8941 2.98207 3.21898 0
M  V30 186 H 15.7121 0.557922 0.440732 0
M  V30 187 H 18.3141 1.85966 0.603059 0
M  V30 188 H 17.0181 3.64102 1.89363 0
M  V30 189 H 16.5491 2.42817 3.09522 0
M  V30 190 H 18.5641 2.37548 4.35644 0
M  V30 191 N 17.7372 -0.778329 1.37039 0
M  V30 192 C 18.9852 -1.53361 1.31623 0
M  V30 193 C 19.3062 -1.94739 -0.100831 0
M  V30 194 O 18.5762 -1.65797 -1.04347 0
M  V30 195 H 17.1562 -0.568794 0.484234 0
M  V30 196 H 19.8182 -0.926742 1.71457 0
M  V30 197 H 18.9142 -2.43606 1.95096 0
M  V30 198 N 19.2153 -1.21501 -1.00376 0
M  V30 199 C 20.6263 -1.03146 -1.55621 0
M  V30 200 C 20.9773 0.408375 -1.91903 0
M  V30 201 O 20.1023 1.29177 -1.73616 0
M  V30 202 C 20.6973 -1.86612 -2.82775 0
M  V30 203 C 19.2563 -1.72586 -3.34501 0
M  V30 204 C 18.4033 -1.83747 -2.07683 0
M  V30 205 H 21.3543 -1.35505 -0.826081 0
M  V30 206 H 21.3753 -1.3771 -3.54706 0
M  V30 207 H 20.8873 -2.91399 -2.56336 0
M  V30 208 H 18.9883 -0.704877 -3.65872 0
M  V30 209 H 19.1013 -2.54623 -4.05837 0
M  V30 210 H 17.4653 -1.27069 -2.20739 0
M  V30 211 H 18.2483 -2.90044 -1.83655 0
M  V30 212 N 20.6934 1.19889 -1.02296 0
M  V30 213 C 22.1094 1.41462 -0.738954 0
M  V30 214 C 22.3094 1.89721 0.678846 0
M  V30 215 O 21.3654 2.07016 1.4457 0
M  V30 216 C 22.6784 2.43083 -1.77005 0
M  V30 217 C 24.2264 2.5684 -1.78892 0
M  V30 218 C 24.7014 3.61709 -2.80945 0
M  V30 219 N 26.1924 3.69199 -2.79725 0
M  V30 220 C 26.9274 4.50019 -3.55345 0
M  V30 221 N 26.4234 5.34592 -4.40662 0
M  V30 222 N 28.2164 4.44612 -3.43914 0
M  V30 223 H 20.3674 0.868827 -1.93817 0
M  V30 224 H 22.6304 0.44399 -0.837602 0
M  V30 225 H 22.3364 2.14636 -2.78612 0
M  V30 226 H 22.2104 3.4217 -1.58744 0
M  V30 227 H 24.5974 2.84614 -0.779674 0
M  V30 228 H 24.6784 1.57927 -2.01228 0
M  V30 229 H 24.3224 3.34678 -3.82038 0
M  V30 230 H 24.2524 4.60259 -2.5587 0
M  V30 231 H 26.7434 3.08794 -2.17842 0
M  V30 232 H 27.0564 5.93363 -4.95116 0
M  V30 233 H 25.4014 5.34073 -4.44737 0
M  V30 234 H 28.5924 3.7758 -2.76679 0
M  V30 235 H 28.7654 5.0736 -4.031 0
M  V30 236 N 22.1715 0.800033 1.35784 0
M  V30 237 C 23.3995 0.389606 2.03199 0
M  V30 238 C 23.8145 -0.997375 1.60306 0
M  V30 239 O 23.1715 -1.64154 0.797481 0
M  V30 240 C 23.2225 0.455855 3.58614 0
M  V30 241 O 22.9435 1.78815 3.99946 0
M  V30 242 C 24.4445 0.0374032 4.43284 0
M  V30 243 H 21.6645 0.159132 0.651857 0
M  V30 244 H 24.2085 1.08183 1.73541 0
M  V30 245 H 22.3635 -0.188057 3.86943 0
M  V30 246 H 22.7775 1.74636 4.94573 0
M  V30 247 H 24.2515 0.134882 5.51835 0
M  V30 248 H 24.7285 -1.01651 4.27275 0
M  V30 249 H 25.3345 0.654215 4.20238 0
M  V30 250 N 23.6496 -1.47581 0.552962 0
M  V30 251 C 25.0606 -1.86324 0.118463 0
M  V30 252 C 25.4116 -1.46006 -1.3106 0
M  V30 253 O 24.5366 -0.861182 -1.98526 0
M  V30 254 C 25.1316 -3.3816 0.20821 0
M  V30 255 C 23.6906 -3.7601 -0.171226 0
M  V30 256 C 22.8376 -2.71634 0.557686 0
M  V30 257 H 25.7886 -1.39159 0.762928 0
M  V30 258 H 25.8096 -3.76141 -0.574278 0
M  V30 259 H 25.3216 -3.67473 1.24841 0
M  V30 260 H 23.4226 -3.52313 -1.21269 0
M  V30 261 H 23.5356 -4.78745 0.184379 0
M  V30 262 H 21.8996 -2.547 0.00125792 0
M  V30 263 H 22.6826 -3.0379 1.59896 0
M  V30 264 N 25.1277 -0.289203 -1.54924 0
M  V30 265 C 26.3527 0.329299 -2.04769 0
M  V30 266 C 26.7777 1.4763 -1.16564 0
M  V30 267 O 26.1357 1.80527 -0.167186 0
M  V30 268 C 26.1837 0.774438 -3.52186 0
M  V30 269 O 25.2877 1.88038 -3.67036 0
M  V30 270 H 24.6287 0.0659259 -0.660719 0
M  V30 271 H 27.1587 -0.42761 -2.00082 0
M  V30 272 H 27.1687 1.06642 -3.93816 0
M  V30 273 H 25.8437 -0.0646707 -4.1585 0
M  V30 274 H 24.4207 1.58985 -3.3731 0
M  V30 275 N 26.6058 1.57591 -0.0167156 0
M  V30 276 C 27.8308 1.9598 0.67872 0
M  V30 277 C 28.2558 0.892546 1.65575 0
M  V30 278 O 27.6138 -0.147772 1.80697 0
M  V30 279 C 27.6618 3.33468 1.37227 0
M  V30 280 O 26.7658 3.28954 2.48722 0
M  V30 281 H 26.1068 0.639339 0.17928 0
M  V30 282 H 28.6368 2.04463 -0.0748802 0
M  V30 283 H 28.6468 3.69417 1.7319 0
M  V30 284 H 27.3218 4.10694 0.656007 0
M  V30 285 H 25.8988 3.04705 2.14963 0
M  V30 286 N 28.0839 -0.256276 1.55502 0
M  V30 287 C 29.3299 -0.982884 1.78076 0
M  V30 288 C 29.6849 -1.83319 0.584109 0
M  V30 289 O 28.9779 -1.86875 -0.422877 0
M  V30 290 C 29.1719 -1.88432 3.03691 0
M  V30 291 C 29.0009 -1.12276 4.35459 0
M  V30 292 C 27.7709 -0.831647 4.98409 0
M  V30 293 C 29.9689 -0.504933 5.11815 0
M  V30 294 N 27.9509 -0.0450423 6.13883 0
M  V30 295 C 29.3219 0.146696 6.19826 0
M  V30 296 C 31.3769 -0.414455 4.96172 0
M  V30 297 C 30.0799 0.880103 7.13895 0
M  V30 298 C 32.1059 0.305398 5.90611 0
M  V30 299 C 31.4679 0.945701 6.98023 0
M  V30 300 H 27.5669 -0.341084 0.703694 0
M  V30 301 H 30.1509 -0.256909 1.92998 0
M  V30 302 H 28.3219 -2.58241 2.90114 0
M  V30 303 H 30.0539 -2.54579 3.14598 0
M  V30 304 H 26.8089 -1.14111 4.59647 0
M  V30 305 H 27.2329 0.336079 6.76165 0
M  V30 306 H 31.8749 -0.895163 4.13215 0
M  V30 307 H 29.5929 1.37244 7.9636 0
M  V30 308 H 33.1789 0.375946 5.80584 0
M  V30 309 H 32.0589 1.49383 7.6984 0
M  V30 310 N 29.562 -1.4872 -0.521534 0
M  V30 311 C 30.81 -1.56857 -1.27437 0
M  V30 312 C 31.131 -0.247982 -1.93417 0
M  V30 313 O 30.401 0.731151 -1.81744 0
M  V30 314 H 28.981 -0.577885 -0.473347 0
M  V30 315 H 31.643 -1.85233 -0.606205 0
M  V30 316 H 30.739 -2.35402 -2.0492 0
M  V30 317 N 31.0401 0.771051 -1.3745 0
M  V30 318 C 32.4561 1.07171 -1.18265 0
M  V30 319 C 32.6561 2.01491 -0.019287 0
M  V30 320 O 31.7121 2.44244 0.640408 0
M  V30 321 C 33.0251 1.66854 -2.50161 0
M  V30 322 C 34.5731 1.79109 -2.56689 0
M  V30 323 C 35.0481 2.42205 -3.88717 0
M  V30 324 N 36.5391 2.49655 -3.90162 0
M  V30 325 C 37.2741 2.9933 -4.8907 0
M  V30 326 N 36.7701 3.49172 -5.98374 0
M  V30 327 N 38.5631 2.9821 -4.76474 0
M  V30 328 H 30.7141 0.144796 -2.11906 0
M  V30 329 H 32.9771 0.126863 -0.939473 0
M  V30 330 H 32.6831 1.05017 -3.35655 0
M  V30 331 H 32.5571 2.6614 -2.673 0
M  V30 332 H 34.9441 2.40077 -1.71601 0
M  V30 333 H 35.0251 0.785757 -2.43433 0
M  V30 334 H 34.6691 1.81875 -4.74219 0
M  V30 335 H 34.5991 3.43345 -3.99276 0
M  V30 336 H 37.0901 2.14383 -3.11205 0
M  V30 337 H 37.4031 3.8548 -6.69795 0
M  V30 338 H 35.7481 3.47275 -6.02018 0
M  V30 339 H 38.9391 2.58572 -3.90203 0
M  V30 340 H 39.1121 3.36613 -5.53711 0
M  V30 341 N 32.5182 1.22032 0.997298 0
M  V30 342 C 33.7432 1.06921 1.77715 0
M  V30 343 C 34.1682 -0.376226 1.84299 0
M  V30 344 O 33.5262 -1.27165 1.29223 0
M  V30 345 C 33.5742 1.67996 3.19076 0
M  V30 346 O 32.6782 0.930653 4.01762 0
M  V30 347 H 32.0192 0.375814 0.547412 0
M  V30 348 H 34.5492 1.61737 1.25309 0
M  V30 349 H 34.5592 1.72538 3.69723 0
M  V30 350 H 33.2342 2.73182 3.13599 0
M  V30 351 H 31.8112 0.960917 3.60307 0
M  V30 352 N 33.9963 -1.19345 1.0293 0
M  V30 353 C 34.9283 -2.22036 0.56857 0
M  V30 354 C 35.9413 -1.58865 -0.355779 0
M  V30 355 O 37.1303 -1.77851 -0.152103 0
M  V30 356 C 34.2303 -3.38363 -0.190752 0
M  V30 357 C 33.4033 -4.31118 0.738643 0
M  V30 358 C 32.4623 -5.26194 0.0246497 0
M  V30 359 O 31.4883 -5.65461 0.651354 0
M  V30 360 N 32.6903 -5.66971 -1.24594 0
M  V30 361 H 35.4553 -2.6219 1.45177 0
M  V30 362 H 33.0163 -1.34015 0.908381 0
M  V30 363 H 35.0083 -3.98981 -0.677961 0
M  V30 364 H 33.5783 -2.96994 -0.975366 0
M  V30 365 H 32.7983 -3.68276 1.40593 0
M  V30 366 H 34.0863 -4.90001 1.37029 0
M  V30 367 H 33.4843 -5.37104 -1.77583 0
M  V30 368 H 32.0413 -6.2984 -1.67764 0
M  V30 369 N 35.4744 -0.807222 -1.35358 0
M  V30 370 C 36.6994 -0.399309 -2.0352 0
M  V30 371 C 37.1244 0.981986 -1.60433 0
M  V30 372 O 36.4824 1.63601 -0.781299 0
M  V30 373 C 36.5304 -0.491552 -3.57234 0
M  V30 374 O 35.6344 0.494754 -4.09421 0
M  V30 375 H 34.9754 -0.166682 -0.642739 0
M  V30 376 H 37.5054 -1.09328 -1.72941 0
M  V30 377 H 37.5154 -0.361588 -4.06395 0
M  V30 378 H 36.1904 -1.49907 -3.87944 0
M  V30 379 H 34.7674 0.324977 -3.71481 0
M  V30 380 N 36.9525 1.47285 -0.560781 0
M  V30 381 C 38.1775 2.07359 -0.0410566 0
M  V30 382 C 38.6025 1.41017 1.24483 0
M  V30 383 O 37.9605 0.486368 1.74654 0
M  V30 384 C 38.0085 3.6035 0.134123 0
M  V30 385 O 37.1125 3.94681 1.19587 0
M  V30 386 H 36.4535 0.661887 -0.0529291 0
M  V30 387 H 38.9835 1.89252 -0.777482 0
M  V30 388 H 38.9935 4.0652 0.347207 0
M  V30 389 H 37.6685 4.08034 -0.805047 0
M  V30 390 H 36.2455 3.60251 0.962987 0
M  V30 391 N 38.4306 0.297415 1.54768 0
M  V30 392 C 39.3936 -0.567375 2.22066 0
M  V30 393 C 40.3936 -1.06409 1.20556 0
M  V30 394 O 41.5836 -0.960691 1.45315 0
M  V30 395 C 38.7156 -1.78517 2.90421 0
M  V30 396 H 39.9086 0.0205534 2.99893 0
M  V30 397 H 37.4616 0.0482163 1.56226 0
M  V30 398 H 38.1966 -2.41303 2.16664 0
M  V30 399 H 37.9816 -1.43669 3.64831 0
M  V30 400 H 39.4716 -2.39964 3.41771 0
M  V30 401 N 39.9087 -1.5758 0.0250728 0
M  V30 402 C 40.8717 -2.08896 -0.943139 0
M  V30 403 C 41.8717 -1.00321 -1.25668 0
M  V30 404 O 43.0617 -1.26495 -1.19769 0
M  V30 405 C 40.1937 -2.55143 -2.26086 0
M  V30 406 H 41.3867 -2.95723 -0.498775 0
M  V30 407 H 38.9397 -1.54703 -0.222888 0
M  V30 408 H 39.6747 -1.71633 -2.75159 0
M  V30 409 H 39.4597 -3.34461 -2.04641 0
M  V30 410 H 40.9497 -2.95083 -2.95492 0
M  V30 411 N 41.3868 0.248026 -1.55636 0
M  V30 412 C 42.3498 1.29044 -1.89421 0
M  V30 413 C 43.3498 1.41134 -0.770581 0
M  V30 414 O 44.5398 1.39854 -1.03858 0
M  V30 415 C 41.6718 2.66831 -2.12165 0
M  V30 416 H 42.8648 1.00305 -2.82629 0
M  V30 417 H 40.4178 0.487265 -1.48511 0
M  V30 418 H 41.1528 3.00711 -1.21422 0
M  V30 419 H 40.9378 2.59438 -2.93997 0
M  V30 420 H 42.4278 3.42103 -2.3949 0
M  V30 421 N 42.8649 1.48995 0.513639 0
M  V30 422 C 43.7749 1.67443 1.64317 0
M  V30 423 C 44.7909 0.556947 1.64846 0
M  V30 424 O 45.9669 0.830082 1.83498 0
M  V30 425 C 43.0319 1.72515 3.00732 0
M  V30 426 C 42.0929 2.96009 3.1093 0
M  V30 427 C 41.3259 3.00829 4.40837 0
M  V30 428 O 41.5489 2.13594 5.28898 0
M  V30 429 O 40.4829 3.93168 4.55744 0
M  V30 430 H 44.3089 2.63106 1.51687 0
M  V30 431 H 41.8939 1.32588 0.688543 0
M  V30 432 H 43.7759 1.78277 3.81831 0
M  V30 433 H 42.4509 0.800278 3.13651 0
M  V30 434 H 41.3579 2.9577 2.29065 0
M  V30 435 H 42.6909 3.87934 3.02933 0
M  V30 436 N 44.343 -0.763751 1.37857 0
M  V30 437 C 45.306 -1.85889 1.34081 0
M  V30 438 C 46.306 -1.58949 0.243277 0
M  V30 439 O 47.496 -1.66882 0.499589 0
M  V30 440 C 44.628 -3.23176 1.08489 0
M  V30 441 H 45.821 -1.90648 2.31502 0
M  V30 442 H 43.374 -0.964367 1.23003 0
M  V30 443 H 44.109 -3.24091 0.116318 0
M  V30 444 H 43.894 -3.44124 1.8794 0
M  V30 445 H 45.384 -4.03254 1.08517 0
M  V30 446 N 45.8211 -1.22559 -0.990812 0
M  V30 447 C 47.0461 -1.07862 -1.77145 0
M  V30 448 C 47.4711 0.366447 -1.84496 0
M  V30 449 O 46.8291 1.26478 -1.29896 0
M  V30 450 C 46.8771 -1.69686 -3.18181 0
M  V30 451 O 45.9811 -0.951946 -4.01263 0
M  V30 452 H 45.3221 -0.378712 -0.545411 0
M  V30 453 H 47.8521 -1.62399 -1.2445 0
M  V30 454 H 47.8621 -1.74496 -3.68802 0
M  V30 455 H 46.5371 -2.74841 -3.12146 0
M  V30 456 H 45.1141 -0.980011 -3.59792 0
M  V30 457 N 47.2992 1.18797 -1.03562 0
M  V30 458 C 48.2622 2.20464 -0.626769 0
M  V30 459 C 49.2622 1.57721 0.313173 0
M  V30 460 O 50.4522 1.73917 0.0992615 0
M  V30 461 C 47.5842 3.40802 0.0818498 0
M  V30 462 H 48.7772 2.58149 -1.5264 0
M  V30 463 H 46.3302 1.32593 -0.827578 0
M  V30 464 H 47.0652 3.08642 0.995518 0
M  V30 465 H 46.8502 3.8758 -0.593652 0
M  V30 466 H 48.3402 4.16092 0.354584 0
M  V30 467 N 48.7773 0.814389 1.34928 0
M  V30 468 C 50.0233 0.399013 1.98836 0
M  V30 469 C 50.3563 -1.03314 1.64438 0
M  V30 470 O 49.6313 -1.71811 0.911659 0
M  V30 471 C 49.9143 0.591629 3.55207 0
M  V30 472 C 49.7673 2.06928 3.99376 0
M  V30 473 C 51.0863 0.022199 4.40094 0
M  V30 474 H 48.2053 0.146451 0.722303 0
M  V30 475 H 50.8473 1.02537 1.59957 0
M  V30 476 H 48.9973 0.0584441 3.88456 0
M  V30 477 H 50.6693 2.66544 3.76499 0
M  V30 478 H 48.9123 2.56287 3.49999 0
M  V30 479 H 49.5833 2.1549 5.08201 0
M  V30 480 H 52.0593 0.477643 4.13349 0
M  V30 481 H 50.9353 0.186832 5.48582 0
M  V30 482 H 51.1963 -1.07215 4.28902 0
M  V30 483 N 50.2554 -1.46986 0.568584 0
M  V30 484 C 51.1854 -2.32946 -0.160753 0
M  V30 485 C 52.1664 -1.44487 -0.897631 0
M  V30 486 O 53.3514 -1.73327 -0.875867 0
M  V30 487 C 50.4814 -3.26494 -1.18403 0
M  V30 488 C 49.4354 -4.24282 -0.562895 0
M  V30 489 C 48.7614 -5.07236 -1.69163 0
M  V30 490 C 50.0614 -5.19989 0.490761 0
M  V30 491 H 51.7554 -2.94175 0.556916 0
M  V30 492 H 49.3014 -1.4146 0.26927 0
M  V30 493 H 51.2544 -3.85477 -1.70251 0
M  V30 494 H 49.9784 -2.63343 -1.93179 0
M  V30 495 H 48.6374 -3.66541 -0.0656164 0
M  V30 496 H 48.2854 -4.4048 -2.42871 0
M  V30 497 H 47.9854 -5.7345 -1.28174 0
M  V30 498 H 49.5094 -5.6908 -2.21314 0
M  V30 499 H 50.9234 -5.73271 0.0579047 0
M  V30 500 H 49.3204 -5.94469 0.820165 0
M  V30 501 H 50.3904 -4.64777 1.3824 0
M  V30 502 N 51.7335 -0.305618 -1.54608 0
M  V30 503 C 52.6805 0.568421 -2.23691 0
M  V30 504 C 53.6505 1.12592 -1.22116 0
M  V30 505 O 54.8355 1.16959 -1.50749 0
M  V30 506 C 51.9755 1.7322 -2.98477 0
M  V30 507 C 51.0885 1.20566 -4.14835 0
M  V30 508 C 50.2235 2.33368 -4.77193 0
M  V30 509 C 49.2625 1.7787 -5.85686 0
M  V30 510 N 48.3995 2.84263 -6.4198 0
M  V30 511 H 53.2395 -0.0272867 -2.97988 0
M  V30 512 H 50.7765 -0.0252363 -1.47078 0
M  V30 513 H 52.7345 2.41675 -3.40072 0
M  V30 514 H 51.3645 2.29947 -2.26548 0
M  V30 515 H 50.4165 0.413223 -3.78149 0
M  V30 516 H 51.7285 0.759417 -4.92985 0
M  V30 517 H 50.8825 3.09761 -5.21664 0
M  V30 518 H 49.6215 2.8132 -3.98385 0
M  V30 519 H 48.6265 0.99968 -5.40635 0
M  V30 520 H 49.8515 1.30816 -6.66381 0
M  V30 521 H 47.7975 3.31541 -5.66053 0
M  V30 522 H 47.7145 2.44149 -7.15491 0
M  V30 523 H 48.9825 3.6054 -6.91109 0
M  V30 524 N 53.2116 1.57565 -0.0334293 0
M  V30 525 C 54.4576 1.92262 0.645226 0
M  V30 526 C 54.7906 0.910543 1.71531 0
M  V30 527 O 54.0656 -0.066099 1.94388 0
M  V30 528 C 54.3486 3.37422 1.2577 0
M  V30 529 C 54.2016 4.49369 0.196891 0
M  V30 530 C 55.5206 3.82628 2.17449 0
M  V30 531 H 52.6396 0.699171 0.233085 0
M  V30 532 H 55.2816 1.89779 -0.0915694 0
M  V30 533 H 53.4316 3.39669 1.88566 0
M  V30 534 H 55.1036 4.59254 -0.433962 0
M  V30 535 H 53.3466 4.31168 -0.477137 0
M  V30 536 H 54.0176 5.47978 0.665124 0
M  V30 537 H 56.4936 3.82145 1.64634 0
M  V30 538 H 55.3696 4.84883 2.57254 0
M  V30 539 H 55.6306 3.18376 3.0674 0
M  V30 540 N 54.6897 -0.239769 1.55765 0
M  V30 541 C 56.1057 -0.588624 1.48349 0
M  V30 542 C 56.3057 -1.88005 0.72502 0
M  V30 543 O 55.3617 -2.51186 0.257269 0
M  V30 544 C 56.6747 -0.68474 2.928 0
M  V30 545 C 58.2227 -0.77659 3.03213 0
M  V30 546 C 58.6977 -0.904207 4.48986 0
M  V30 547 N 60.1887 -0.968896 4.52953 0
M  V30 548 C 60.9237 -1.08703 5.63002 0
M  V30 549 N 60.4197 -1.17026 6.82845 0
M  V30 550 N 62.2127 -1.12074 5.50814 0
M  V30 551 H 54.3637 0.607911 2.03515 0
M  V30 552 H 56.6267 0.21083 0.924259 0
M  V30 553 H 56.3327 0.194284 3.51163 0
M  V30 554 H 56.2067 -1.55435 3.43686 0
M  V30 555 H 58.5937 -1.64606 2.44926 0
M  V30 556 H 58.6747 0.118315 2.55526 0
M  V30 557 H 58.3187 -0.0392633 5.07885 0
M  V30 558 H 58.2487 -1.81426 4.9436 0
M  V30 559 H 60.7397 -0.915633 3.6664 0
M  V30 560 H 61.0527 -1.25966 7.62465 0
M  V30 561 H 59.3977 -1.13971 6.85591 0
M  V30 562 H 62.5887 -1.05226 4.5612 0
M  V30 563 H 62.7617 -1.20936 6.36615 0
M  V30 564 N 56.1678 -1.49265 -0.50573 0
M  V30 565 C 57.5788 -1.51769 -1.08734 0
M  V30 566 C 57.9298 -0.301192 -1.93874 0
M  V30 567 O 57.0548 0.589456 -2.08217 0
M  V30 568 C 57.6498 -2.75017 -1.97867 0
M  V30 569 C 56.2088 -2.80314 -2.51199 0
M  V30 570 C 55.3558 -2.4562 -1.28709 0
M  V30 571 H 58.3068 -1.56031 -0.289855 0
M  V30 572 H 58.3278 -2.5491 -2.82491 0
M  V30 573 H 57.8398 -3.63539 -1.35873 0
M  V30 574 H 55.9408 -1.96061 -3.16845 0
M  V30 575 H 56.0538 -3.82366 -2.88675 0
M  V30 576 H 54.4178 -1.97297 -1.61078 0
M  V30 577 H 55.2008 -3.36411 -0.6843 0
M  V30 578 N 57.6459 0.756429 -1.3826 0
M  V30 579 C 58.5559 1.9009 -1.37488 0
M  V30 580 C 59.5719 1.71855 -0.272366 0
M  V30 581 O 60.7479 1.94827 -0.510318 0
M  V30 582 C 57.8129 3.25421 -1.19592 0
M  V30 583 C 56.8739 3.56202 -2.39622 0
M  V30 584 C 56.1069 4.85075 -2.2257 0
M  V30 585 O 56.3299 5.57246 -1.21793 0
M  V30 586 O 55.2639 5.15269 -3.11098 0
M  V30 587 H 59.0899 1.93695 -2.33914 0
M  V30 588 H 56.6749 0.901313 -1.1915 0
M  V30 589 H 58.5569 4.06337 -1.11661 0
M  V30 590 H 57.2319 3.22634 -0.262486 0
M  V30 591 H 56.1389 2.75458 -2.53128 0
M  V30 592 H 57.4719 3.63747 -3.31586 0
M  V30 593 N 59.124 1.23083 0.984299 0
M  V30 594 C 60.54 0.992637 1.24975 0
M  V30 595 C 60.74 -0.308618 1.99123 0
M  V30 596 O 59.796 -1.02905 2.30579 0
M  V30 597 C 61.109 2.19698 2.05312 0
M  V30 598 C 62.657 2.24147 2.18465 0
M  V30 599 C 63.132 3.44157 3.02192 0
M  V30 600 N 64.623 3.44372 3.09777 0
M  V30 601 C 65.358 4.33886 3.74874 0
M  V30 602 N 64.854 5.3363 4.41827 0
M  V30 603 N 66.647 4.21639 3.71721 0
M  V30 604 H 58.798 2.06731 0.487453 0
M  V30 605 H 61.061 0.906339 0.277944 0
M  V30 606 H 60.767 3.1411 1.58201 0
M  V30 607 H 60.641 2.20465 3.06064 0
M  V30 608 H 63.028 1.30277 2.64786 0
M  V30 609 H 63.109 2.27415 1.17115 0
M  V30 610 H 62.753 4.38332 2.56568 0
M  V30 611 H 62.683 3.3813 4.03702 0
M  V30 612 H 65.174 2.72201 2.62135 0
M  V30 613 H 65.487 5.98196 4.89266 0
M  V30 614 H 63.832 5.37534 4.40548 0
M  V30 615 H 67.023 3.42962 3.18582 0
M  V30 616 H 67.196 4.91604 4.22173 0
M  V30 617 N 60.6021 -1.18246 1.0419 0
M  V30 618 C 61.8271 -1.92736 0.765996 0
M  V30 619 C 62.2521 -1.75728 -0.67091 0
M  V30 620 O 61.6101 -1.06825 -1.46486 0
M  V30 621 C 61.6581 -3.42148 1.13875 0
M  V30 622 O 60.7621 -4.11548 0.264954 0
M  V30 623 H 60.1031 -0.601238 0.281797 0
M  V30 624 H 62.6331 -1.49942 1.39207 0
M  V30 625 H 62.6431 -3.92858 1.1012 0
M  V30 626 H 61.3181 -3.53848 2.18551 0
M  V30 627 H 59.8951 -3.71137 0.362226 0
M  V30 628 N 62.0802 -0.821533 -1.34494 0
M  V30 629 C 63.4962 -0.507117 -1.51329 0
M  V30 630 C 63.6962 0.968964 -1.76673 0
M  V30 631 O 62.7522 1.75348 -1.81685 0
M  V30 632 C 64.0652 -1.36544 -2.67911 0
M  V30 633 C 65.6132 -1.36242 -2.81793 0
M  V30 634 C 66.0882 -2.2052 -4.01416 0
M  V30 635 N 67.5792 -2.18136 -4.08621 0
M  V30 636 C 68.3142 -2.80095 -5.00334 0
M  V30 637 N 67.8102 -3.51039 -5.9728 0
M  V30 638 N 69.6032 -2.69656 -4.93196 0
M  V30 639 H 61.7542 -1.77729 -1.16302 0
M  V30 640 H 64.0172 -0.757291 -0.570276 0
M  V30 641 H 63.7232 -2.41361 -2.55808 0
M  V30 642 H 63.5972 -1.02917 -3.62888 0
M  V30 643 H 65.9842 -0.322041 -2.93338 0
M  V30 644 H 66.0652 -1.73866 -1.87628 0
M  V30 645 H 65.7092 -3.24607 -3.90631 0
M  V30 646 H 65.6392 -1.80247 -4.94791 0
M  V30 647 H 68.1302 -1.6653 -3.39229 0
M  V30 648 H 68.4432 -3.95565 -6.63889 0
M  V30 649 H 66.7882 -3.55145 -5.97409 0
M  V30 650 H 69.9792 -2.13808 -4.16418 0
M  V30 651 H 70.1522 -3.1823 -5.64476 0
M  V30 652 N 63.5583 1.46682 -0.576371 0
M  V30 653 C 64.9743 1.57822 -0.237562 0
M  V30 654 C 65.1743 1.57237 1.26011 0
M  V30 655 O 64.2303 1.48596 2.04146 0
M  V30 656 C 65.5433 2.87499 -0.881168 0
M  V30 657 C 67.0913 3.01119 -0.85417 0
M  V30 658 C 67.5663 4.33524 -1.4772 0
M  V30 659 N 69.0573 4.40207 -1.44125 0
M  V30 660 C 69.7923 5.4126 -1.89276 0
M  V30 661 N 69.2883 6.49021 -2.42371 0
M  V30 662 N 71.0813 5.32422 -1.80231 0
M  V30 663 H 63.2323 1.45306 -1.54919 0
M  V30 664 H 65.4953 0.692733 -0.647167 0
M  V30 665 H 65.2013 2.9372 -1.93447 0
M  V30 666 H 65.0753 3.75224 -0.385592 0
M  V30 667 H 67.4623 2.94485 0.190491 0
M  V30 668 H 67.5433 2.14887 -1.3877 0
M  V30 669 H 67.1873 4.40916 -2.52103 0
M  V30 670 H 67.1173 5.1852 -0.918947 0
M  V30 671 H 69.6083 3.62931 -1.05307 0
M  V30 672 H 69.9213 7.2233 -2.74698 0
M  V30 673 H 68.2663 6.49858 -2.46393 0
M  V30 674 H 71.4573 4.47137 -1.38514 0
M  V30 675 H 71.6303 6.11034 -2.15735 0
M  V30 676 N 65.0364 0.313813 1.54444 0
M  V30 677 C 65.9464 -0.565714 2.27677 0
M  V30 678 C 66.9624 -1.13754 1.31666 0
M  V30 679 O 68.1384 -1.15959 1.64668 0
M  V30 680 C 65.2034 -1.71528 3.01296 0
M  V30 681 C 64.2644 -1.17624 4.12872 0
M  V30 682 C 63.4974 -2.27102 4.8297 0
M  V30 683 O 63.7204 -3.47256 4.52514 0
M  V30 684 O 62.6544 -1.9307 5.70094 0
M  V30 685 H 66.4804 0.0287296 3.03686 0
M  V30 686 H 64.0654 0.0798312 1.49187 0
M  V30 687 H 65.9474 -2.38476 3.4743 0
M  V30 688 H 64.6224 -2.29608 2.2817 0
M  V30 689 H 63.5294 -0.472124 3.71109 0
M  V30 690 H 64.8624 -0.640695 4.88012 0
M  V30 691 N 66.5145 -1.57545 0.0417849 0
M  V30 692 C 67.9305 -1.56467 -0.314704 0
M  V30 693 C 68.1305 -1.04859 -1.72066 0
M  V30 694 O 67.1865 -0.700983 -2.42575 0
M  V30 695 C 68.4995 -3.00317 -0.15174 0
M  V30 696 C 70.0475 -3.12201 -0.223553 0
M  V30 697 C 70.5225 -4.57913 -0.0892295 0
M  V30 698 N 72.0135 -4.6297 -0.145808 0
M  V30 699 C 72.7485 -5.73362 -0.0658459 0
M  V30 700 N 72.2445 -6.92769 0.0659282 0
M  V30 701 N 74.0375 -5.6197 -0.12075 0
M  V30 702 H 66.1885 -1.89416 0.961014 0
M  V30 703 H 68.4515 -0.871862 0.372237 0
M  V30 704 H 68.1575 -3.42073 0.817254 0
M  V30 705 H 68.0315 -3.65892 -0.916692 0
M  V30 706 H 70.4185 -2.70349 -1.18301 0
M  V30 707 H 70.4995 -2.49323 0.571994 0
M  V30 708 H 70.1435 -5.00448 0.866867 0
M  V30 709 H 70.0735 -5.18786 -0.903802 0
M  V30 710 H 72.5645 -3.7709 -0.247286 0
M  V30 711 H 72.8775 -7.72707 0.119905 0
M  V30 712 H 71.2225 -6.94927 0.100885 0
M  V30 713 H 74.4135 -4.67572 -0.222187 0
M  V30 714 H 74.5865 -6.47977 -0.0549735 0
M  V30 715 N 67.9926 0.231505 -1.5589 0
M  V30 716 C 69.2416 0.955346 -1.7764 0
M  V30 717 C 69.5546 1.85893 -0.608546 0
M  V30 718 O 70.7606 2.62067 -0.70943 0
M  V30 719 C 69.2166 1.74886 -3.14552 0
M  V30 720 C 68.8246 0.891915 -4.39032 0
M  V30 721 C 70.5686 2.46452 -3.45633 0
M  V30 722 C 68.4756 1.68221 -5.66971 0
M  V30 723 H 67.4056 0.360446 -0.662265 0
M  V30 724 H 70.0566 0.209516 -1.823 0
M  V30 725 H 68.4386 2.53723 -3.04041 0
M  V30 726 H 69.6126 0.144793 -4.60572 0
M  V30 727 H 67.9276 0.288863 -4.15397 0
M  V30 728 H 70.5246 3.06061 -4.38441 0
M  V30 729 H 70.8676 3.18841 -2.67668 0
M  V30 730 H 71.4006 1.74613 -3.57428 0
M  V30 731 H 68.1396 1.00178 -6.478 0
M  V30 732 H 67.6596 2.4042 -5.49507 0
M  V30 733 H 69.3386 2.24544 -6.06786 0
M  V30 734 N 69.4707 1.49531 0.497807 0
M  V30 735 C 70.4007 1.6935 1.60757 0
M  V30 736 C 71.3817 0.542218 1.61227 0
M  V30 737 O 72.5667 0.778417 1.77917 0
M  V30 738 C 69.6967 1.76298 2.99226 0
M  V30 739 C 68.6507 2.91248 3.13622 0
M  V30 740 C 67.9767 2.83312 4.53474 0
M  V30 741 C 69.2767 4.3214 2.93346 0
M  V30 742 H 70.9707 2.62263 1.44425 0
M  V30 743 H 68.5167 1.26208 0.693367 0
M  V30 744 H 70.4697 1.88749 3.76765 0
M  V30 745 H 69.1937 0.799871 3.16654 0
M  V30 746 H 67.8527 2.78404 2.38509 0
M  V30 747 H 67.5007 1.84902 4.67782 0
M  V30 748 H 67.2007 3.60465 4.64046 0
M  V30 749 H 68.7247 2.97775 5.33069 0
M  V30 750 H 70.1387 4.45649 3.60652 0
M  V30 751 H 68.5357 5.1054 3.15387 0
M  V30 752 H 69.6057 4.46363 1.89441 0
M  V30 753 N 70.9488 -0.749086 1.3866 0
M  V30 754 C 72.1768 -1.53834 1.38358 0
M  V30 755 C 72.5918 -1.88783 -0.0255219 0
M  V30 756 O 71.9488 -1.53101 -0.993292 0
M  V30 757 C 71.9998 -2.83468 2.2434 0
M  V30 758 O 71.7208 -2.50008 3.5976 0
M  V30 759 C 73.2218 -3.7758 2.32267 0
M  V30 760 H 70.4418 -0.47585 0.473083 0
M  V30 761 H 72.9858 -0.926726 1.82297 0
M  V30 762 H 71.1408 -3.40995 1.83851 0
M  V30 763 H 71.5548 -3.33182 4.05081 0
M  V30 764 H 73.0288 -4.65478 2.96706 0
M  V30 765 H 73.5058 -4.18334 1.33765 0
M  V30 766 H 74.1118 -3.25976 2.73166 0
M  V30 767 N 72.4269 -1.23603 -0.977757 0
M  V30 768 C 73.3569 -1.04401 -2.0886 0
M  V30 769 C 74.3379 0.0399052 -1.70053 0
M  V30 770 O 75.5229 -0.125246 -1.93796 0
M  V30 771 C 72.6529 -0.637269 -3.41403 0
M  V30 772 C 71.6069 -1.66883 -3.94124 0
M  V30 773 C 70.9329 -1.11745 -5.22893 0
M  V30 774 C 72.2329 -3.06247 -4.23096 0
M  V30 775 H 73.9269 -1.97316 -2.25182 0
M  V30 776 H 71.4729 -0.950096 -1.08209 0
M  V30 777 H 73.4259 -0.48998 -4.18542 0
M  V30 778 H 72.1499 0.327557 -3.24953 0
M  V30 779 H 70.8089 -1.80416 -3.19133 0
M  V30 780 H 70.4569 -0.143527 -5.02795 0
M  V30 781 H 70.1569 -1.80672 -5.59134 0
M  V30 782 H 71.6809 -0.982067 -6.02651 0
M  V30 783 H 73.0949 -2.96001 -4.90975 0
M  V30 784 H 71.4919 -3.72436 -4.70544 0
M  V30 785 H 72.5619 -3.55041 -3.30263 0
M  V30 786 N 73.905 1.17692 -1.04816 0
M  V30 787 C 74.815 2.25229 -0.65643 0
M  V30 788 C 75.831 1.71018 0.320761 0
M  V30 789 O 77.007 2.00649 0.173805 0
M  V30 790 C 74.072 3.46684 -0.0332629 0
M  V30 791 C 73.133 4.15997 -1.06042 0
M  V30 792 C 72.366 5.31654 -0.466893 0
M  V30 793 O 72.589 5.65777 0.724758 0
M  V30 794 O 71.523 5.89831 -1.1993 0
M  V30 795 H 75.349 2.61016 -1.55255 0
M  V30 796 H 72.934 1.24919 -0.81949 0
M  V30 797 H 74.816 4.20234 0.313256 0
M  V30 798 H 73.491 3.12703 0.836566 0
M  V30 799 H 72.398 3.44482 -1.45886 0
M  V30 800 H 73.731 4.53996 -1.90127 0
M  V30 801 N 75.3831 0.828654 1.34056 0
M  V30 802 C 76.6081 0.431637 2.02859 0
M  V30 803 C 77.0331 -0.956339 1.61975 0
M  V30 804 O 76.3911 -1.62338 0.807228 0
M  V30 805 C 76.4391 0.548323 3.56407 0
M  V30 806 O 75.5431 -0.429556 4.10157 0
M  V30 807 H 74.8841 0.176886 0.640006 0
M  V30 808 H 77.4141 1.12066 1.71179 0
M  V30 809 H 77.4241 0.426196 4.05768 0
M  V30 810 H 76.0991 1.5606 3.8551 0
M  V30 811 H 74.6761 -0.265836 3.71951 0
M  V30 812 N 76.8612 -1.46375 0.584142 0
M  V30 813 C 77.7942 -2.27351 -0.196676 0
M  V30 814 C 78.7722 -1.35715 -0.895561 0
M  V30 815 O 79.9562 -1.65126 -0.90916 0
M  V30 816 C 77.0832 -3.13486 -1.28235 0
M  V30 817 C 76.1292 -4.20896 -0.689145 0
M  V30 818 S 76.9622 -5.33299 0.48507 0
M  V30 819 C 78.1182 -6.23 -0.601767 0
M  V30 820 H 78.3512 -2.93228 0.490395 0
M  V30 821 H 75.8842 -1.49875 0.371071 0
M  V30 822 H 77.8422 -3.63676 -1.90395 0
M  V30 823 H 76.5032 -2.4692 -1.94138 0
M  V30 824 H 75.6962 -4.80997 -1.50527 0
M  V30 825 H 75.2982 -3.73726 -0.143181 0
M  V30 826 H 77.5902 -6.60979 -1.48705 0
M  V30 827 H 78.5332 -7.0809 -0.0374799 0
M  V30 828 H 78.9412 -5.57173 -0.906557 0
M  V30 829 N 78.3393 -0.321999 -1.54275 0
M  V30 830 C 79.2873 0.560206 -2.25753 0
M  V30 831 C 80.2813 1.11984 -1.27106 0
M  V30 832 O 81.4873 1.06806 -1.44888 0
M  V30 833 H 77.8623 0.199304 -0.725108 0
M  V30 834 H 79.8333 -0.0649365 -2.98329 0
M  V30 835 C 78.5823 1.71023 -3.02731 0
M  V30 836 H 77.9053 1.28885 -3.78456 0
M  V30 837 H 79.3453 2.30314 -3.55993 0
M  V30 838 C 77.8043 2.62692 -2.10938 0
M  V30 839 O 78.3343 3.64364 -1.6912 0
M  V30 840 N 76.5403 2.30891 -1.76459 0
M  V30 841 H 76.0873 1.48253 -2.10663 0
M  V30 842 H 76.0453 2.92487 -1.1532 0
M  V30 843 N 79.8174 1.5752 -0.0501392 0
M  V30 844 C 81.2284 1.80271 0.485705 0
M  V30 845 C 81.5794 0.96228 1.70981 0
M  V30 846 O 80.7044 0.178578 2.15662 0
M  V30 847 C 81.2994 3.26957 0.887938 0
M  V30 848 C 79.8584 3.5063 1.36877 0
M  V30 849 C 79.0054 2.75165 0.343468 0
M  V30 850 H 81.9564 1.56281 -0.276028 0
M  V30 851 H 81.9774 3.37821 1.75093 0
M  V30 852 H 81.4894 3.881 -0.0031809 0
M  V30 853 H 79.5904 2.94766 2.27911 0
M  V30 854 H 79.7034 4.59343 1.36164 0
M  V30 855 H 78.0674 2.4127 0.816128 0
M  V30 856 H 78.8504 3.39034 -0.539548 0
M  V30 857 N 81.2955 -0.223234 1.56011 0
M  V30 858 C 82.2275 -1.30006 1.88762 0
M  V30 859 C 83.2405 -1.43129 0.775746 0
M  V30 860 O 84.4295 -1.44057 1.05403 0
M  V30 861 C 81.5295 -2.67589 2.07965 0
M  V30 862 C 80.7025 -2.76434 3.38973 0
M  V30 863 C 79.7615 -3.95019 3.47629 0
M  V30 864 O 78.7875 -3.83436 4.20672 0
M  V30 865 N 79.9895 -5.09249 2.78649 0
M  V30 866 H 82.7545 -1.02238 2.81722 0
M  V30 867 H 80.3155 -0.413278 1.56536 0
M  V30 868 H 82.3075 -3.45297 2.11073 0
M  V30 869 H 80.8775 -2.87964 1.21638 0
M  V30 870 H 80.0975 -1.85216 3.47978 0
M  V30 871 H 81.3855 -2.79313 4.25278 0
M  V30 872 H 80.7835 -5.21556 2.19081 0
M  V30 873 H 79.3405 -5.85007 2.8742 0
M  V30 874 N 82.7736 -1.49793 -0.48987 0
M  V30 875 C 84.0196 -1.60078 -1.24511 0
M  V30 876 C 84.3526 -0.291608 -1.91998 0
M  V30 877 O 83.6276 0.705647 -1.81248 0
M  V30 878 C 83.9106 -2.76791 -2.30345 0
M  V30 879 C 83.7636 -4.17535 -1.67286 0
M  V30 880 C 85.0826 -2.89111 -3.31817 0
M  V30 881 H 82.2016 -0.582645 -0.451324 0
M  V30 882 H 84.8436 -1.82117 -0.541612 0
M  V30 883 H 82.9936 -2.5813 -2.90346 0
M  V30 884 H 84.6656 -4.4774 -1.11026 0
M  V30 885 H 82.9086 -4.22665 -0.976577 0
M  V30 886 H 83.5796 -4.95094 -2.44103 0
M  V30 887 H 86.0556 -3.06133 -2.81819 0
M  V30 888 H 84.9316 -3.72433 -4.03219 0
M  V30 889 H 85.1926 -1.9893 -3.94815 0
M  V30 890 N 84.2517 0.741722 -1.39055 0
M  V30 891 C 85.1987 1.85566 -1.37237 0
M  V30 892 C 86.1687 1.64457 -0.233072 0
M  V30 893 O 87.3537 1.85957 -0.427147 0
M  V30 894 C 84.4937 3.23004 -1.215 0
M  V30 895 C 83.6067 3.55864 -2.44918 0
M  V30 896 C 82.7417 4.82669 -2.21821 0
M  V30 897 C 81.7807 5.08351 -3.40948 0
M  V30 898 N 80.9177 6.26356 -3.17211 0
M  V30 899 H 85.7577 1.86455 -2.32462 0
M  V30 900 H 83.2947 0.911176 -1.15482 0
M  V30 901 H 85.2527 4.02331 -1.10389 0
M  V30 902 H 83.8827 3.21411 -0.29908 0
M  V30 903 H 82.9347 2.7129 -2.66657 0
M  V30 904 H 84.2467 3.70765 -3.33668 0
M  V30 905 H 83.4007 5.69962 -2.07914 0
M  V30 906 H 82.1397 4.69929 -1.30454 0
M  V30 907 H 81.1447 4.19522 -3.55361 0
M  V30 908 H 82.3697 5.22981 -4.33207 0
M  V30 909 H 80.3157 6.14917 -2.28502 0
M  V30 910 H 80.2327 6.41813 -3.99515 0
M  V30 911 H 81.5007 7.16506 -3.06984 0
M  V30 912 N 85.7298 1.2412 0.971189 0
M  V30 913 C 86.6928 1.03156 2.04674 0
M  V30 914 C 87.6928 -0.00990322 1.60797 0
M  V30 915 O 88.8828 0.230729 1.72665 0
M  V30 916 C 86.0148 0.562765 3.36223 0
M  V30 917 H 87.2078 1.98614 2.24705 0
M  V30 918 H 84.7608 1.06293 1.14593 0
M  V30 919 H 85.4958 -0.395176 3.21883 0
M  V30 920 H 85.2808 1.31441 3.69413 0
M  V30 921 H 86.7708 0.437015 4.15307 0
M  V30 922 N 87.2079 -1.17134 1.05439 0
M  V30 923 C 88.4539 -1.87733 0.767077 0
M  V30 924 C 88.7869 -1.8098 -0.704253 0
M  V30 925 O 88.0619 -1.21951 -1.5152 0
M  V30 926 C 88.3449 -3.37659 1.25133 0
M  V30 927 C 88.1979 -3.53149 2.78578 0
M  V30 928 C 89.5169 -4.31768 0.852324 0
M  V30 929 H 86.6359 -0.681687 0.280129 0
M  V30 930 H 89.2779 -1.37732 1.30881 0
M  V30 931 H 87.4279 -3.80373 0.790469 0
M  V30 932 H 89.0999 -3.19434 3.32806 0
M  V30 933 H 87.3429 -2.95345 3.17732 0
M  V30 934 H 88.0139 -4.58403 3.07523 0
M  V30 935 H 90.4899 -3.96909 1.24911 0
M  V30 936 H 89.3659 -5.35199 1.21873 0
M  V30 937 H 89.6269 -4.41429 -0.243485 0
M  V30 938 N 88.686 -0.835752 -1.33615 0
M  V30 939 C 89.596 -0.269088 -2.33052 0
M  V30 940 C 90.612 0.603251 -1.63208 0
M  V30 941 O 91.788 0.508112 -1.94885 0
M  V30 942 C 88.853 0.549091 -3.42324 0
M  V30 943 C 87.914 -0.347156 -4.27894 0
M  V30 944 C 87.147 0.43207 -5.31948 0
M  V30 945 O 87.37 1.66409 -5.45586 0
M  V30 946 O 86.304 -0.192298 -6.01593 0
M  V30 947 H 90.13 -1.09243 -2.83372 0
M  V30 948 H 87.715 -0.598198 -1.36901 0
M  V30 949 H 89.597 1.01414 -4.09015 0
M  V30 950 H 88.272 1.34955 -2.94226 0
M  V30 951 H 87.179 -0.859979 -3.64081 0
M  V30 952 H 88.512 -1.1123 -4.79467 0
M  V30 953 N 90.1641 1.46063 -0.591896 0
M  V30 954 C 91.3941 2.06418 -0.0867676 0
M  V30 955 C 91.8021 1.43975 1.22751 0
M  V30 956 O 91.1451 0.542531 1.75506 0
M  V30 957 C 91.2071 3.59213 0.143725 0
M  V30 958 C 90.8711 4.439 -1.08635 0
M  V30 959 C 91.8681 4.79864 -2.00067 0
M  V30 960 C 89.5531 4.84896 -1.31077 0
M  V30 961 C 91.5471 5.55661 -3.12282 0
M  V30 962 C 89.2341 5.6045 -2.43596 0
M  V30 963 C 90.2321 5.95747 -3.34027 0
M  V30 964 O 89.9201 6.69772 -4.4459 0
M  V30 965 H 89.6521 0.673443 -0.0587447 0
M  V30 966 H 92.2061 1.88539 -0.814994 0
M  V30 967 H 90.4361 3.75433 0.926668 0
M  V30 968 H 92.1251 4.01463 0.5985 0
M  V30 969 H 92.8911 4.48763 -1.83947 0
M  V30 970 H 88.7701 4.56867 -0.61594 0
M  V30 971 H 92.3141 5.8313 -3.82891 0
M  V30 972 H 88.2111 5.90965 -2.59674 0
M  V30 973 H 88.9791 6.88207 -4.43073 0
M  V30 974 N 91.6422 0.330177 1.54103 0
M  V30 975 C 92.6052 -0.520144 2.2322 0
M  V30 976 C 93.6052 -1.03828 1.22786 0
M  V30 977 O 94.7952 -0.929652 1.4732 0
M  V30 978 C 91.9272 -1.72317 2.94142 0
M  V30 979 H 93.1202 0.0841605 2.99782 0
M  V30 980 H 90.6732 0.0813433 1.56088 0
M  V30 981 H 91.4082 -2.36653 2.21734 0
M  V30 982 H 91.1932 -1.35898 3.67796 0
M  V30 983 H 92.6832 -2.3266 3.46784 0
M  V30 984 N 93.1203 -1.57491 0.0584922 0
M  V30 985 C 94.3663 -1.93264 -0.614558 0
M  V30 986 C 94.6993 -0.937717 -1.7006 0
M  V30 987 O 93.9743 0.0351652 -1.94468 0
M  V30 988 C 94.2573 -3.3938 -1.20386 0
M  V30 989 C 94.1103 -4.49625 -0.125375 0
M  V30 990 C 95.4293 -3.86039 -2.11334 0
M  V30 991 H 92.5483 -0.702791 -0.221933 0
M  V30 992 H 95.1903 -1.8961 0.12175 0
M  V30 993 H 93.3403 -3.42626 -1.83139 0
M  V30 994 H 95.0123 -4.58506 0.506971 0
M  V30 995 H 93.2553 -4.30354 0.545672 0
M  V30 996 H 93.9263 -5.48967 -0.577861 0
M  V30 997 H 96.4023 -3.84716 -1.58534 0
M  V30 998 H 95.2783 -4.88914 -2.49507 0
M  V30 999 H 95.5393 -3.23215 -3.01636 0
M  V30 1000 N 94.5984 0.214957 -1.56127 0
M  V30 1001 C 96.0144 0.564948 -1.49267 0
M  V30 1002 C 96.2144 1.86827 -0.754838 0
M  V30 1003 O 95.2704 2.50745 -0.297198 0
M  V30 1004 C 96.5834 0.638071 -2.93852 0
M  V30 1005 C 98.1314 0.728253 -3.0441 0
M  V30 1006 C 98.6064 0.832663 -4.50367 0
M  V30 1007 N 100.097 0.896712 -4.54437 0
M  V30 1008 C 100.832 0.997324 -5.6466 0
M  V30 1009 N 100.328 1.06147 -6.8462 0
M  V30 1010 N 102.121 1.03297 -5.52527 0
M  V30 1011 H 94.2724 -0.640211 -2.02522 0
M  V30 1012 H 96.5354 -0.225507 -0.920788 0
M  V30 1013 H 96.2414 -0.250126 -3.50809 0
M  V30 1014 H 96.1154 1.49947 -3.46115 0
M  V30 1015 H 98.5024 1.60689 -2.47514 0
M  V30 1016 H 98.5834 -0.158952 -2.55306 0
M  V30 1017 H 98.2274 -0.0415417 -5.07883 0
M  V30 1018 H 98.1574 1.73538 -4.97184 0
M  V30 1019 H 100.648 0.857188 -3.6805 0
M  V30 1020 H 100.961 1.1382 -7.64372 0
M  V30 1021 H 99.3064 1.03049 -6.87318 0
M  V30 1022 H 102.497 0.979558 -4.57736 0
M  V30 1023 H 102.67 1.10793 -6.38458 0
M  V30 1024 N 96.0765 1.50051 0.48192 0
M  V30 1025 C 97.3245 1.60181 1.23234 0
M  V30 1026 C 97.6455 0.299176 1.92691 0
M  V30 1027 O 96.9155 -0.682708 1.83619 0
M  V30 1028 H 95.4955 0.590232 0.457859 0
M  V30 1029 H 98.1575 1.86775 0.556881 0
M  V30 1030 H 97.2535 2.40753 1.98607 0
M  V30 1031 N 97.5546 -0.734337 1.39446 0
M  V30 1032 C 98.9656 -1.31264 1.32766 0
M  V30 1033 C 99.3166 -1.96198 -0.00767497 0
M  V30 1034 O 98.4416 -1.96346 -0.909796 0
M  V30 1035 C 99.0366 -2.38682 2.4045 0
M  V30 1036 C 97.5956 -2.92184 2.37288 0
M  V30 1037 C 96.7426 -1.6576 2.22304 0
M  V30 1038 H 99.6936 -0.531799 1.49525 0
M  V30 1039 H 99.7146 -3.19087 2.07276 0
M  V30 1040 H 99.2266 -1.91392 3.37625 0
M  V30 1041 H 97.3276 -3.43752 1.43754 0
M  V30 1042 H 97.4406 -3.45253 3.3217 0
M  V30 1043 H 95.8046 -1.9012 1.69489 0
M  V30 1044 H 96.5876 -1.20521 3.21449 0
M  V30 1045 N 99.0327 -1.24633 -0.964593 0
M  V30 1046 C 100.282 -1.08188 -1.7023 0
M  V30 1047 C 100.595 0.37873 -1.91898 0
M  V30 1048 O 101.801 0.663427 -2.6327 0
M  V30 1049 C 100.257 -1.88773 -3.06419 0
M  V30 1050 C 99.8647 -3.39263 -2.92582 0
M  V30 1051 C 101.609 -1.80867 -3.84041 0
M  V30 1052 C 99.5157 -4.1218 -4.24101 0
M  V30 1053 H 98.4457 -0.401245 -0.638372 0
M  V30 1054 H 101.097 -1.48742 -1.07462 0
M  V30 1055 H 99.4787 -1.41035 -3.70034 0
M  V30 1056 H 100.653 -3.94603 -2.37961 0
M  V30 1057 H 98.9677 -3.48154 -2.28424 0
M  V30 1058 H 101.565 -2.32646 -4.81435 0
M  V30 1059 H 101.908 -0.774543 -4.09031 0
M  V30 1060 H 102.441 -2.26301 -3.27159 0
M  V30 1061 H 99.1797 -5.15965 -4.04303 0
M  V30 1062 H 98.6997 -3.61626 -4.78526 0
M  V30 1063 H 100.379 -4.19349 -4.92702 0
M  V30 1064 N 100.511 1.16574 -1.06058 0
M  V30 1065 C 101.757 1.87324 -0.777022 0
M  V30 1066 C 102.09 1.81351 0.694645 0
M  V30 1067 O 101.365 1.22753 1.50871 0
M  V30 1068 C 101.648 3.36991 -1.26922 0
M  V30 1069 C 101.501 3.51667 -2.80447 0
M  V30 1070 C 102.82 4.3131 -0.87521 0
M  V30 1071 H 99.9388 0.680191 -0.28374 0
M  V30 1072 H 102.581 1.37036 -1.3161 0
M  V30 1073 H 100.731 3.79949 -0.81063 0
M  V30 1074 H 102.403 3.17664 -3.34495 0
M  V30 1075 H 100.646 2.93656 -3.19294 0
M  V30 1076 H 101.317 4.56766 -3.0995 0
M  V30 1077 H 103.793 3.9624 -1.27014 0
M  V30 1078 H 102.669 5.34545 -1.2471 0
M  V30 1079 H 102.93 4.41552 0.220071 0
M  V30 1080 N 101.989 0.842826 1.3317 0
M  V30 1081 C 102.919 0.294028 2.31641 0
M  V30 1082 C 103.9 -0.600401 1.59151 0
M  V30 1083 O 105.085 -0.523124 1.87022 0
M  V30 1084 C 102.215 -0.528416 3.43257 0
M  V30 1085 C 101.169 0.27056 4.27144 0
M  V30 1086 C 100.495 -0.675881 5.30411 0
M  V30 1087 C 101.795 1.48981 5.00602 0
M  V30 1088 H 103.489 1.11681 2.77791 0
M  V30 1089 H 101.035 0.538478 1.33553 0
M  V30 1090 H 102.988 -0.922674 4.11175 0
M  V30 1091 H 101.712 -1.38445 2.95805 0
M  V30 1092 H 100.371 0.646427 3.60856 0
M  V30 1093 H 100.019 -1.52842 4.79216 0
M  V30 1094 H 99.7189 -0.145374 5.8742 0
M  V30 1095 H 101.243 -1.06757 6.01195 0
M  V30 1096 H 102.657 1.16849 5.61266 0
M  V30 1097 H 101.054 1.95739 5.6728 0
M  V30 1098 H 102.124 2.25746 4.29147 0
M  V30 1099 N 103.467 -1.45747 0.599634 0
M  V30 1100 C 104.414 -2.30467 -0.123849 0
M  V30 1101 C 105.384 -1.41632 -0.86774 0
M  V30 1102 O 106.569 -1.70568 -0.855056 0
M  V30 1103 C 103.709 -3.26402 -1.12051 0
M  V30 1104 C 102.822 -4.3034 -0.37832 0
M  V30 1105 C 101.957 -5.13389 -1.364 0
M  V30 1106 C 100.996 -6.09061 -0.609171 0
M  V30 1107 N 100.133 -6.84918 -1.54374 0
M  V30 1108 H 104.973 -2.91802 0.604627 0
M  V30 1109 H 102.51 -1.43797 0.309972 0
M  V30 1110 H 104.468 -3.80482 -1.7114 0
M  V30 1111 H 103.098 -2.66839 -1.8165 0
M  V30 1112 H 102.15 -3.78984 0.327929 0
M  V30 1113 H 103.462 -4.98354 0.210997 0
M  V30 1114 H 102.616 -5.7183 -2.02719 0
M  V30 1115 H 101.355 -4.45376 -1.98725 0
M  V30 1116 H 100.36 -5.49758 0.0676979 0
M  V30 1117 H 101.585 -6.79099 0.00891991 0
M  V30 1118 H 99.531 -6.19601 -2.15478 0
M  V30 1119 H 99.448 -7.49254 -1.00766 0
M  V30 1120 H 100.716 -7.47906 -2.19676 0
M  V30 1121 N 104.945 -0.338344 -1.53925 0
M  V30 1122 C 105.908 0.508299 -2.23493 0
M  V30 1123 C 106.908 1.03175 -1.23335 0
M  V30 1124 O 108.098 0.921826 -1.47811 0
M  V30 1125 C 105.23 1.70754 -2.95052 0
M  V30 1126 H 106.423 -0.100058 -2.99733 0
M  V30 1127 H 103.976 -0.0896198 -1.56043 0
M  V30 1128 H 104.711 2.35474 -2.22986 0
M  V30 1129 H 104.496 1.33946 -3.68512 0
M  V30 1130 H 105.986 2.30818 -3.48013 0
M  V30 1131 N 106.423 1.57458 -0.0668435 0
M  V30 1132 C 107.671 1.92919 0.602214 0
M  V30 1133 C 107.992 0.947215 1.70449 0
M  V30 1134 O 107.262 -0.00544117 1.95899 0
M  V30 1135 H 105.842 0.71217 0.22544 0
M  V30 1136 H 108.504 1.94508 -0.123535 0
M  V30 1137 H 107.6 2.94589 1.03073 0
M  V30 1138 N 107.901 -0.206675 1.56239 0
M  V30 1139 C 108.811 -1.27686 1.96808 0
M  V30 1140 C 109.827 -1.50455 0.874035 0
M  V30 1141 O 111.003 -1.63295 1.17884 0
M  V30 1142 C 108.068 -2.60358 2.28942 0
M  V30 1143 C 107.129 -2.45762 3.51994 0
M  V30 1144 C 106.362 -3.72108 3.82585 0
M  V30 1145 O 106.585 -4.75776 3.14631 0
M  V30 1146 O 105.519 -3.6833 4.76043 0
M  V30 1147 H 109.345 -0.962593 2.88041 0
M  V30 1148 H 106.93 -0.410746 1.43643 0
M  V30 1149 H 108.812 -3.38687 2.50737 0
M  V30 1150 H 107.487 -2.91435 1.4088 0
M  V30 1151 H 106.394 -1.65584 3.35459 0
M  V30 1152 H 107.727 -2.19621 4.40486 0
M  V30 1153 N 109.379 -1.50304 -0.473955 0
M  V30 1154 C 110.628 -1.60392 -1.22301 0
M  V30 1155 C 110.941 -0.308411 -1.93153 0
M  V30 1156 O 112.147 -0.288156 -2.69966 0
M  V30 1157 C 110.603 -2.83109 -2.2221 0
M  V30 1158 C 110.211 -4.19524 -1.57173 0
M  V30 1159 C 111.955 -3.0254 -2.97775 0
M  V30 1160 C 109.862 -5.33431 -2.55353 0
M  V30 1161 H 108.792 -0.597286 -0.460179 0
M  V30 1162 H 111.443 -1.76731 -0.493803 0
M  V30 1163 H 109.825 -2.60322 -2.9841 0
M  V30 1164 H 110.999 -4.52554 -0.867824 0
M  V30 1165 H 109.314 -4.05674 -0.939002 0
M  V30 1166 H 111.911 -3.84811 -3.71248 0
M  V30 1167 H 112.254 -2.14154 -3.56992 0
M  V30 1168 H 112.787 -3.25494 -2.28688 0
M  V30 1169 H 109.526 -6.23962 -2.00878 0
M  V30 1170 H 109.046 -5.04823 -3.23904 0
M  V30 1171 H 110.725 -5.63887 -3.17239 0
M  V30 1172 N 110.857 0.726932 -1.39834 0
M  V30 1173 C 111.767 1.87131 -1.41489 0
M  V30 1174 C 112.783 1.71239 -0.308757 0
M  V30 1175 O 113.959 1.93701 -0.551529 0
M  V30 1176 C 111.024 3.22811 -1.26468 0
M  V30 1177 C 110.085 3.51039 -2.47124 0
M  V30 1178 C 109.318 4.80245 -2.3281 0
M  V30 1179 O 109.541 5.54537 -1.33585 0
M  V30 1180 O 108.475 5.08554 -3.21957 0
M  V30 1181 H 112.301 1.8869 -2.3797 0
M  V30 1182 H 109.886 0.875837 -1.21035 0
M  V30 1183 H 111.768 4.03877 -1.20255 0
M  V30 1184 H 110.443 3.22005 -0.330862 0
M  V30 1185 H 109.35 2.70027 -2.58914 0
M  V30 1186 H 110.683 3.56632 -3.39227 0
M  V30 1187 N 112.336 1.25143 0.95797 0
M  V30 1188 C 113.266 1.07711 2.07173 0
M  V30 1189 C 114.247 -0.0128462 1.70095 0
M  V30 1190 O 115.432 0.156061 1.93572 0
M  V30 1191 C 112.562 0.691503 3.40346 0
M  V30 1192 C 111.516 1.73132 3.9142 0
M  V30 1193 C 110.842 1.20049 5.21049 0
M  V30 1194 C 112.142 3.1294 4.1817 0
M  V30 1195 H 113.836 2.00873 2.22014 0
M  V30 1196 H 111.382 0.967191 1.06684 0
M  V30 1197 H 113.335 0.556505 4.17709 0
M  V30 1198 H 112.059 -0.275819 3.25433 0
M  V30 1199 H 110.718 1.8547 3.16222 0
M  V30 1200 H 110.366 0.223499 5.02503 0
M  V30 1201 H 110.066 1.89545 5.56189 0
M  V30 1202 H 111.59 1.07782 6.01012 0
M  V30 1203 H 113.004 3.03775 4.86203 0
M  V30 1204 H 111.401 3.79875 4.64559 0
M  V30 1205 H 112.471 3.6025 3.24573 0
M  V30 1206 N 113.814 -1.1601 1.06675 0
M  V30 1207 C 114.724 -2.24156 0.692179 0
M  V30 1208 C 115.74 -1.71507 -0.293513 0
M  V30 1209 O 116.916 -2.009 -0.141861 0
M  V30 1210 C 113.981 -3.46587 0.0884131 0
M  V30 1211 C 113.042 -4.14257 1.12646 0
M  V30 1212 C 112.275 -5.30844 0.551416 0
M  V30 1213 O 112.498 -5.66858 -0.634656 0
M  V30 1214 O 111.432 -5.87848 1.29298 0
M  V30 1215 H 115.258 -2.58513 1.59388 0
M  V30 1216 H 112.843 -1.23599 0.83926 0
M  V30 1217 H 114.725 -4.20679 -0.246361 0
M  V30 1218 H 113.4 -3.13994 -0.786712 0
M  V30 1219 H 112.307 -3.42118 1.51348 0
M  V30 1220 H 113.64 -4.50914 1.97325 0
M  V30 1221 N 115.292 -0.849877 -1.32721 0
M  V30 1222 C 116.222 -0.306308 -2.31482 0
M  V30 1223 C 117.203 0.591952 -1.59468 0
M  V30 1224 O 118.388 0.513199 -1.87296 0
M  V30 1225 C 115.518 0.510204 -3.43532 0
M  V30 1226 C 114.472 -0.293209 -4.26994 0
M  V30 1227 C 113.798 0.647743 -5.30762 0
M  V30 1228 C 115.098 -1.51634 -4.99804 0
M  V30 1229 H 116.792 -1.13153 -2.77195 0
M  V30 1230 H 114.338 -0.545553 -1.33266 0
M  V30 1231 H 116.291 0.900856 -4.11658 0
M  V30 1232 H 115.015 1.36874 -2.96535 0
M  V30 1233 H 113.674 -0.665555 -3.60508 0
M  V30 1234 H 113.322 1.50299 -4.8002 0
M  V30 1235 H 113.022 0.11422 -5.87489 0
M  V30 1236 H 114.546 1.03567 -6.01753 0
M  V30 1237 H 115.96 -1.19824 -5.60638 0
M  V30 1238 H 114.357 -1.98745 -5.66234 0
M  V30 1239 H 115.427 -2.28018 -4.27943 0
M  V30 1240 N 116.77 1.45427 -0.607355 0
M  V30 1241 C 117.702 2.2871 0.149752 0
M  V30 1242 C 118.715 1.39937 0.831958 0
M  V30 1243 O 119.904 1.64313 0.697385 0
M  V30 1244 C 117.004 3.15673 1.23304 0
M  V30 1245 C 116.177 4.32722 0.637996 0
M  V30 1246 C 115.236 5.00895 1.61215 0
M  V30 1247 O 114.262 5.57697 1.13854 0
M  V30 1248 N 115.464 5.00159 2.94655 0
M  V30 1249 H 118.229 2.94328 -0.564882 0
M  V30 1250 H 115.79 1.55612 -0.446823 0
M  V30 1251 H 117.782 3.58144 1.88454 0
M  V30 1252 H 116.352 2.51965 1.8502 0
M  V30 1253 H 115.572 3.93734 -0.191572 0
M  V30 1254 H 116.86 5.08321 0.220665 0
M  V30 1255 H 116.258 4.553 3.35735 0
M  V30 1256 H 114.815 5.46495 3.55228 0
M  V30 1257 N 118.248 0.346503 1.53744 0
M  V30 1258 C 119.664 -0.00530975 1.59599 0
M  V30 1259 C 119.864 -1.48465 1.36236 0
M  V30 1260 O 118.92 -2.24376 1.15808 0
M  V30 1261 C 120.233 0.433516 2.97559 0
M  V30 1262 C 121.781 0.386111 3.10609 0
M  V30 1263 C 122.256 0.800451 4.50951 0
M  V30 1264 N 123.747 0.754753 4.5701 0
M  V30 1265 C 124.482 1.04727 5.63755 0
M  V30 1266 N 123.978 1.4081 6.7834 0
M  V30 1267 N 125.771 0.971316 5.53644 0
M  V30 1268 H 117.922 1.31009 1.67184 0
M  V30 1269 H 120.185 0.534242 0.783128 0
M  V30 1270 H 119.891 1.46509 3.19731 0
M  V30 1271 H 119.765 -0.189753 3.76722 0
M  V30 1272 H 122.152 -0.636295 2.88158 0
M  V30 1273 H 122.233 1.04462 2.33498 0
M  V30 1274 H 121.877 1.82088 4.74137 0
M  V30 1275 H 121.807 0.119386 5.26465 0
M  V30 1276 H 124.298 0.488662 3.74727 0
M  V30 1277 H 124.611 1.61607 7.55714 0
M  V30 1278 H 122.956 1.44657 6.79779 0
M  V30 1279 H 126.147 0.688748 4.63005 0
M  V30 1280 H 126.32 1.20263 6.36742 0
M  V30 1281 N 119.726 -1.57421 0.075193 0
M  V30 1282 C 120.974 -1.93236 -0.591974 0
M  V30 1283 C 121.295 -0.956241 -1.69944 0
M  V30 1284 O 120.565 -0.00494792 -1.95899 0
M  V30 1285 H 119.145 -0.713355 -0.22166 0
M  V30 1286 H 121.807 -1.9444 0.133848 0
M  V30 1287 H 120.903 -2.95131 -1.01509 0
M  V30 1288 N 121.204 0.198386 -1.56346 0
M  V30 1289 C 122.453 0.917451 -1.79627 0
M  V30 1290 C 122.766 1.8456 -0.64784 0
M  V30 1291 O 123.972 2.60504 -0.764859 0
M  V30 1292 C 122.428 1.68175 -3.18191 0
M  V30 1293 C 122.036 0.798589 -4.40825 0
M  V30 1294 C 123.78 2.39065 -3.50782 0
M  V30 1295 C 121.687 1.56157 -5.70411 0
M  V30 1296 H 120.617 0.346317 -0.669762 0
M  V30 1297 H 123.268 0.170801 -1.82703 0
M  V30 1298 H 121.65 2.47216 -3.09354 0
M  V30 1299 H 122.824 0.0470665 -4.60776 0
M  V30 1300 H 121.139 0.200686 -4.15916 0
M  V30 1301 H 123.736 2.96692 -4.44835 0
M  V30 1302 H 124.079 3.13091 -2.74371 0
M  V30 1303 H 124.612 1.66993 -3.61052 0
M  V30 1304 H 121.351 0.864142 -6.49779 0
M  V30 1305 H 120.871 2.2871 -5.54483 0
M  V30 1306 H 122.55 2.11622 -6.11412 0
M  V30 1307 N 122.682 1.50554 0.465978 0
M  V30 1308 C 123.629 1.6979 1.56333 0
M  V30 1309 C 124.599 0.539239 1.57103 0
M  V30 1310 O 125.784 0.770401 1.74555 0
M  V30 1311 C 122.924 1.80273 2.94271 0
M  V30 1312 C 122.037 3.07674 3.0325 0
M  V30 1313 C 121.172 3.08922 4.32135 0
M  V30 1314 C 120.211 4.30755 4.34875 0
M  V30 1315 N 119.348 4.29714 5.55239 0
M  V30 1316 H 124.188 2.63472 1.39235 0
M  V30 1317 H 121.725 1.30602 0.676873 0
M  V30 1318 H 123.683 1.84332 3.74269 0
M  V30 1319 H 122.313 0.900258 3.09992 0
M  V30 1320 H 121.365 3.13062 2.16094 0
M  V30 1321 H 122.677 3.97642 3.01135 0
M  V30 1322 H 121.831 3.11738 5.20485 0
M  V30 1323 H 120.57 2.16792 4.36866 0
M  V30 1324 H 119.575 4.28146 3.44922 0
M  V30 1325 H 120.8 5.24117 4.31831 0
M  V30 1326 H 118.746 3.4044 5.60746 0
M  V30 1327 H 118.663 5.13456 5.54886 0
M  V30 1328 H 119.931 4.36683 6.457 0
M  V30 1329 N 124.16 -0.719506 1.40217 0
M  V30 1330 C 125.107 -1.83359 1.40172 0
M  V30 1331 C 126.077 -1.64065 0.259206 0
M  V30 1332 O 127.262 -1.85254 0.456677 0
M  V30 1333 C 124.402 -3.2103 1.26624 0
M  V30 1334 C 123.515 -3.51923 2.50548 0
M  V30 1335 C 122.65 -4.79079 2.29471 0
M  V30 1336 C 121.689 -5.02863 3.48992 0
M  V30 1337 N 120.826 -6.2123 3.27135 0
M  V30 1338 H 125.666 -1.82733 2.35399 0
M  V30 1339 H 123.203 -0.892688 1.16917 0
M  V30 1340 H 125.161 -4.00524 1.16776 0
M  V30 1341 H 123.791 -3.20895 0.350176 0
M  V30 1342 H 122.843 -2.67014 2.70939 0
M  V30 1343 H 124.155 -3.6541 3.39525 0
M  V30 1344 H 123.309 -5.66582 2.16955 0
M  V30 1345 H 122.048 -4.67794 1.37913 0
M  V30 1346 H 121.053 -4.13816 3.6199 0
M  V30 1347 H 122.278 -5.16023 4.41472 0
M  V30 1348 H 120.224 -6.11204 2.38256 0
M  V30 1349 H 120.141 -6.35375 4.09675 0
M  V30 1350 H 121.409 -7.11532 3.18344 0
M  V30 1351 N 125.638 -1.25649 -0.95132 0
M  V30 1352 C 127.049 -1.09654 -1.51106 0
M  V30 1353 C 127.4 0.326615 -1.93462 0
M  V30 1354 O 126.525 1.21697 -1.78938 0
M  V30 1355 C 127.12 -1.98437 -2.74605 0
M  V30 1356 C 125.679 -1.86618 -3.2688 0
M  V30 1357 C 124.826 -1.9239 -1.99703 0
M  V30 1358 H 127.777 -1.38887 -0.767865 0
M  V30 1359 H 127.798 -1.5263 -3.48546 0
M  V30 1360 H 127.31 -3.02009 -2.43746 0
M  V30 1361 H 125.411 -0.859421 -3.62553 0
M  V30 1362 H 125.524 -2.71607 -3.94673 0
M  V30 1363 H 123.888 -1.36317 -2.15151 0
M  V30 1364 H 124.671 -2.97573 -1.71188 0
M  V30 1365 N 127.117 1.15442 -1.07289 0
M  V30 1366 C 128.364 1.86213 -0.795668 0
M  V30 1367 C 128.692 1.82291 0.678238 0
M  V30 1368 O 127.947 1.24057 1.51355 0
M  V30 1369 C 128.246 3.3489 -1.24834 0
M  V30 1370 C 127.912 3.59007 -2.72809 0
M  V30 1371 C 126.574 3.65298 -3.13227 0
M  V30 1372 C 128.926 3.68762 -3.68326 0
M  V30 1373 C 126.254 3.78854 -4.4798 0
M  V30 1374 C 128.606 3.83842 -5.0284 0
M  V30 1375 C 127.27 3.88378 -5.4288 0
M  V30 1376 H 126.54 0.681403 -0.291155 0
M  V30 1377 H 129.187 1.36435 -1.34379 0
M  V30 1378 H 127.492 3.8687 -0.619595 0
M  V30 1379 H 129.189 3.88052 -1.01076 0
M  V30 1380 H 125.779 3.5475 -2.40521 0
M  V30 1381 H 129.963 3.63202 -3.38227 0
M  V30 1382 H 125.219 3.80623 -4.78472 0
M  V30 1383 H 129.393 3.90332 -5.76727 0
M  V30 1384 H 127.02 3.98635 -6.47298 0
M  V30 1385 N 128.595 0.856903 1.32268 0
M  V30 1386 C 129.823 0.475439 2.01363 0
M  V30 1387 C 130.238 -0.928486 1.64392 0
M  V30 1388 O 129.595 -1.60624 0.866387 0
M  V30 1389 C 129.646 0.607545 3.56358 0
M  V30 1390 O 129.367 1.95617 3.92002 0
M  V30 1391 C 130.868 0.225382 4.42727 0
M  V30 1392 H 128.088 0.186636 0.644521 0
M  V30 1393 H 130.632 1.15446 1.68797 0
M  V30 1394 H 128.787 -0.0237719 3.87393 0
M  V30 1395 H 129.201 1.95455 4.86721 0
M  V30 1396 H 130.675 0.368813 5.50767 0
M  V30 1397 H 131.152 -0.834369 4.31202 0
M  V30 1398 H 131.758 0.831864 4.17085 0
M  V30 1399 N 130.073 -1.45103 0.615059 0
M  V30 1400 C 130.983 -2.34382 -0.101034 0
M  V30 1401 C 131.999 -1.51681 -0.852585 0
M  V30 1402 O 133.175 -1.8446 -0.808484 0
M  V30 1403 C 130.24 -3.29417 -1.08099 0
M  V30 1404 C 129.301 -4.28025 -0.330577 0
M  V30 1405 C 128.534 -5.1852 -1.26385 0
M  V30 1406 O 128.757 -5.12598 -2.50198 0
M  V30 1407 O 127.691 -5.97122 -0.756866 0
M  V30 1408 H 131.517 -2.97033 0.632855 0
M  V30 1409 H 129.102 -1.4461 0.375293 0
M  V30 1410 H 130.984 -3.87958 -1.6452 0
M  V30 1411 H 129.659 -2.69321 -1.79577 0
M  V30 1412 H 128.566 -3.73078 0.276283 0
M  V30 1413 H 129.899 -4.90997 0.343866 0
M  V30 1414 N 131.551 -0.354651 -1.53558 0
M  V30 1415 C 132.797 0.238797 -2.01389 0
M  V30 1416 C 133.13 1.49309 -1.2418 0
M  V30 1417 O 132.405 1.91638 -0.332457 0
M  V30 1418 C 132.688 0.541771 -3.56001 0
M  V30 1419 C 132.541 -0.725388 -4.43912 0
M  V30 1420 C 133.86 1.34685 -4.18984 0
M  V30 1421 H 130.979 0.0853177 -0.732045 0
M  V30 1422 H 133.621 -0.477384 -1.83905 0
M  V30 1423 H 131.771 1.15189 -3.71031 0
M  V30 1424 H 133.443 -1.36313 -4.407 0
M  V30 1425 H 131.686 -1.34801 -4.12324 0
M  V30 1426 H 132.357 -0.468505 -5.50008 0
M  V30 1427 H 134.833 0.830837 -4.07721 0
M  V30 1428 H 133.709 1.52759 -5.27215 0
M  V30 1429 H 133.97 2.35221 -3.74331 0
M  V30 1430 N 133.029 1.57378 -0.0835403 0
M  V30 1431 C 134.278 1.93106 0.582498 0
M  V30 1432 C 134.591 0.96651 1.70053 0
M  V30 1433 O 135.797 1.21705 2.42693 0
M  V30 1434 C 134.253 3.43076 1.08751 0
M  V30 1435 C 133.861 4.48 -0.000146404 0
M  V30 1436 C 135.605 3.87785 1.72694 0
M  V30 1437 C 133.512 5.89113 0.519568 0
M  V30 1438 H 132.442 0.720775 0.221358 0
M  V30 1439 H 135.093 1.82821 -0.157675 0
M  V30 1440 H 133.475 3.48474 1.88101 0
M  V30 1441 H 134.649 4.54233 -0.775199 0
M  V30 1442 H 132.964 4.1283 -0.54406 0
M  V30 1443 H 135.561 4.90604 2.1263 0
M  V30 1444 H 135.904 3.25796 2.59158 0
M  V30 1445 H 136.437 3.8504 0.999457 0
M  V30 1446 H 133.176 6.54775 -0.308186 0
M  V30 1447 H 132.696 5.86376 1.26188 0
M  V30 1448 H 134.375 6.39346 0.992237 0
M  V30 1449 N 134.507 -0.190092 1.56449 0
M  V30 1450 C 135.923 -0.54113 1.50146 0
M  V30 1451 C 136.123 -1.85603 0.784465 0
M  V30 1452 O 135.179 -2.5024 0.337051 0
M  V30 1453 C 136.492 -0.591241 2.9483 0
M  V30 1454 C 138.04 -0.679732 3.0553 0
M  V30 1455 C 138.515 -0.760908 4.51635 0
M  V30 1456 N 140.006 -0.824302 4.55806 0
M  V30 1457 C 140.741 -0.907365 5.66175 0
M  V30 1458 N 140.237 -0.952422 6.86222 0
M  V30 1459 N 142.03 -0.94494 5.541 0
M  V30 1460 H 134.181 0.67235 2.01478 0
M  V30 1461 H 136.444 0.240127 0.917084 0
M  V30 1462 H 136.15 0.305905 3.50367 0
M  V30 1463 H 136.024 -1.44422 3.48457 0
M  V30 1464 H 138.411 -1.56731 2.50039 0
M  V30 1465 H 138.492 0.199549 2.5502 0
M  V30 1466 H 138.136 0.122336 5.07753 0
M  V30 1467 H 138.066 -1.65606 4.99882 0
M  V30 1468 H 140.557 -0.798526 3.69367 0
M  V30 1469 H 140.87 -1.01645 7.66086 0
M  V30 1470 H 139.215 -0.921014 6.8887 0
M  V30 1471 H 142.406 -0.906612 4.59236 0
M  V30 1472 H 142.579 -1.00622 6.4014 0
M  V30 1473 N 135.985 -1.50799 -0.457987 0
M  V30 1474 C 136.948 -1.7005 -1.53674 0
M  V30 1475 C 137.948 -0.570881 -1.50325 0
M  V30 1476 O 139.138 -0.838126 -1.52712 0
M  V30 1477 C 136.27 -1.73788 -2.93276 0
M  V30 1478 H 137.463 -2.66306 -1.37917 0
M  V30 1479 H 135.016 -1.40477 -0.685271 0
M  V30 1480 H 135.751 -0.792717 -3.14462 0
M  V30 1481 H 135.536 -2.55864 -2.97113 0
M  V30 1482 H 137.026 -1.90591 -3.71571 0
M  V30 1483 N 137.463 0.71206 -1.40597 0
M  V30 1484 C 138.411 1.84746 -1.41321 0
M  V30 1485 C 139.405 1.66842 -0.293268 0
M  V30 1486 O 140.611 1.73904 -0.464481 0
M  V30 1487 H 136.986 0.608522 -0.441819 0
M  V30 1488 H 138.957 1.81252 -2.37045 0
M  V30 1489 C 137.706 3.22638 -1.29614 0
M  V30 1490 H 137.029 3.37023 -2.15071 0
M  V30 1491 H 138.469 4.02209 -1.3418 0
M  V30 1492 C 136.928 3.36899 -0.00673121 0
M  V30 1493 O 137.458 3.90186 0.954859 0
M  V30 1494 N 135.664 2.9053 0.0639327 0
M  V30 1495 H 135.211 2.47353 -0.719311 0
M  V30 1496 H 135.169 3.0045 0.926118 0
M  V30 1497 N 138.941 1.26152 0.944643 0
M  V30 1498 C 140.19 1.10883 1.68487 0
M  V30 1499 C 140.503 -0.348153 1.92477 0
M  V30 1500 O 141.709 -0.621459 2.64292 0
M  V30 1501 C 140.165 1.93624 3.03377 0
M  V30 1502 C 139.773 3.43875 2.87148 0
M  V30 1503 C 141.517 1.86954 3.81115 0
M  V30 1504 C 139.424 4.18875 4.1749 0
M  V30 1505 H 138.354 0.41135 0.631907 0
M  V30 1506 H 141.005 1.50433 1.05082 0
M  V30 1507 H 139.387 1.46904 3.67743 0
M  V30 1508 H 140.561 3.98338 2.31653 0
M  V30 1509 H 138.876 3.51744 2.22856 0
M  V30 1510 H 141.473 2.40275 4.77673 0
M  V30 1511 H 141.816 0.839518 4.07747 0
M  V30 1512 H 142.349 2.31477 3.23517 0
M  V30 1513 H 139.088 5.22332 3.96043 0
M  V30 1514 H 138.608 3.69193 4.72712 0
M  V30 1515 H 140.287 4.27134 4.85968 0
M  V30 1516 N 140.419 -1.14872 1.07899 0
M  V30 1517 C 141.667 -1.85422 0.803941 0
M  V30 1518 C 141.988 -1.83051 -0.67211 0
M  V30 1519 O 141.258 -1.27532 -1.48703 0
M  V30 1520 H 139.838 -0.686537 0.294408 0
M  V30 1521 H 142.5 -1.39226 1.3639 0
M  V30 1522 H 141.596 -2.90399 1.14346 0
M  V30 1523 N 141.898 -0.863906 -1.31812 0
M  V30 1524 C 143.175 -0.39275 -1.91616 0
M  V30 1525 C 143.555 1.12461 -1.7865 0
M  V30 1526 O 142.903 1.95045 -1.19037 0
M  V30 1527 C 143.113 -0.867385 -3.38049 0
M  V30 1528 C 144.461 -0.889966 -4.15168 0
M  V30 1529 O 145.485 -0.812635 -3.46806 0
M  V30 1530 O 144.344 -1.00079 -5.37258 0
M  V30 1531 H 141.438 -0.116358 -0.818773 0
M  V30 1532 H 143.984 -0.951418 -1.40521 0
M  V30 1533 H 142.756 -1.91081 -3.41473 0
M  V30 1534 H 142.379 -0.286687 -3.96565 0
M  V30 1535 N 143.376 1.44774 -0.622745 0
M  V30 1536 C 144.339 2.29069 0.0774015 0
M  V30 1537 C 145.339 1.4059 0.780461 0
M  V30 1538 O 146.529 1.62551 0.626322 0
M  V30 1539 C 143.661 3.21974 1.12006 0
M  V30 1540 H 144.854 2.92459 -0.663901 0
M  V30 1541 H 142.407 1.51548 -0.382486 0
M  V30 1542 H 143.142 2.63417 1.89162 0
M  V30 1543 H 142.927 3.87168 0.619951 0
M  V30 1544 H 144.417 3.85318 1.60995 0
M  V30 1545 N 144.854 0.36279 1.53368 0
M  V30 1546 C 145.786 -0.519668 2.23231 0
M  V30 1547 C 146.799 -1.04844 1.24546 0
M  V30 1548 O 147.988 -0.955296 1.50786 0
M  V30 1549 C 145.088 -1.72995 2.9142 0
M  V30 1550 C 144.261 -1.33316 4.16588 0
M  V30 1551 C 143.32 -2.40521 4.68013 0
M  V30 1552 O 142.346 -2.03027 5.3176 0
M  V30 1553 N 143.548 -3.72065 4.45587 0
M  V30 1554 H 146.313 0.078751 2.99597 0
M  V30 1555 H 143.874 0.187833 1.60807 0
M  V30 1556 H 145.866 -2.44184 3.22733 0
M  V30 1557 H 144.436 -2.2353 2.18525 0
M  V30 1558 H 143.656 -0.451236 3.91609 0
M  V30 1559 H 144.944 -1.04432 4.97967 0
M  V30 1560 H 144.342 -4.05304 3.94646 0
M  V30 1561 H 142.899 -4.39366 4.81457 0
M  V30 1562 N 146.332 -1.57332 0.0918853 0
M  V30 1563 C 147.295 -2.12708 -0.85369 0
M  V30 1564 C 148.295 -1.05561 -1.213 0
M  V30 1565 O 149.485 -1.31461 -1.14296 0
M  V30 1566 C 146.617 -2.64503 -2.15061 0
M  V30 1567 H 147.81 -2.97573 -0.3729 0
M  V30 1568 H 145.363 -1.55509 -0.157072 0
M  V30 1569 H 146.098 -1.83149 -2.67632 0
M  V30 1570 H 145.883 -3.4284 -1.90272 0
M  V30 1571 H 147.373 -3.07351 -2.82711 0
M  V30 1572 N 147.81 0.181792 -1.56548 0
M  V30 1573 C 148.743 1.25366 -1.90679 0
M  V30 1574 C 149.721 1.43299 -0.768376 0
M  V30 1575 O 150.905 1.58475 -1.02068 0
M  V30 1576 C 148.032 2.61826 -2.1486 0
M  V30 1577 C 147.078 2.60688 -3.37556 0
M  V30 1578 S 147.911 2.10804 -4.92262 0
M  V30 1579 C 149.067 3.49062 -5.19525 0
M  V30 1580 H 149.3 0.962277 -2.81296 0
M  V30 1581 H 146.833 0.385892 -1.495 0
M  V30 1582 H 148.791 3.40371 -2.29473 0
M  V30 1583 H 147.452 2.88169 -1.24969 0
M  V30 1584 H 146.645 3.61058 -3.51643 0
M  V30 1585 H 146.247 1.90232 -3.22006 0
M  V30 1586 H 148.539 4.45003 -5.10861 0
M  V30 1587 H 149.482 3.39859 -6.2121 0
M  V30 1588 H 149.89 3.4459 -4.47122 0
M  V30 1589 N 149.288 1.51039 0.449983 0
M  V30 1590 C 150.536 1.62759 1.19808 0
M  V30 1591 C 150.857 0.339981 1.92013 0
M  V30 1592 O 150.127 -0.643606 1.85026 0
M  V30 1593 H 148.707 0.599811 0.445237 0
M  V30 1594 H 151.369 1.87914 0.517138 0
M  V30 1595 H 150.465 2.44911 1.93455 0
M  V30 1596 N 150.766 -0.704594 1.40972 0
M  V30 1597 C 151.698 -1.82974 1.38033 0
M  V30 1598 C 152.711 -1.60305 0.283931 0
M  V30 1599 O 153.9 -1.69975 0.545042 0
M  V30 1600 C 151 -3.19578 1.12795 0
M  V30 1601 C 150.173 -3.69352 2.34302 0
M  V30 1602 C 149.232 -4.84601 2.05058 0
M  V30 1603 O 148.258 -4.96682 2.7802 0
M  V30 1604 N 149.46 -5.71194 1.03528 0
M  V30 1605 H 152.225 -1.85991 2.35005 0
M  V30 1606 H 149.786 -0.886567 1.35468 0
M  V30 1607 H 151.778 -3.9429 0.911987 0
M  V30 1608 H 150.348 -3.11642 0.24452 0
M  V30 1609 H 149.568 -2.85649 2.71659 0
M  V30 1610 H 150.856 -3.99345 3.1528 0
M  V30 1611 H 150.254 -5.64054 0.431217 0
M  V30 1612 H 148.811 -6.45843 0.879205 0
M  V30 1613 N 152.244 -1.26651 -0.937939 0
M  V30 1614 C 153.176 -1.04283 -2.04102 0
M  V30 1615 C 154.189 -0.00221014 -1.628 0
M  V30 1616 O 155.378 -0.242645 -1.76843 0
M  V30 1617 C 152.478 -0.557846 -3.34277 0
M  V30 1618 C 151.651 -1.66843 -4.04329 0
M  V30 1619 C 150.71 -1.18095 -5.12777 0
M  V30 1620 O 149.736 -1.87865 -5.37304 0
M  V30 1621 N 150.938 -0.0311006 -5.80492 0
M  V30 1622 H 153.703 -1.9927 -2.23856 0
M  V30 1623 H 151.264 -1.1808 -1.10764 0
M  V30 1624 H 153.256 -0.215836 -4.04124 0
M  V30 1625 H 151.826 0.298523 -3.11171 0
M  V30 1626 H 151.046 -2.18123 -3.28353 0
M  V30 1627 H 152.334 -2.41408 -4.47883 0
M  V30 1628 H 151.732 0.551486 -5.63005 0
M  V30 1629 H 150.289 0.251809 -6.51313 0
M  V30 1630 N 153.722 1.14298 -1.08507 0
M  V30 1631 C 155.133 1.66926 -0.836227 0
M  V30 1632 C 155.484 1.85576 0.63686 0
M  V30 1633 O 154.609 1.56767 1.49175 0
M  V30 1634 C 155.204 3.03219 -1.51142 0
M  V30 1635 C 153.763 3.52876 -1.30979 0
M  V30 1636 C 152.91 2.2833 -1.57356 0
M  V30 1637 H 155.861 0.983491 -1.24552 0
M  V30 1638 H 155.882 3.68726 -0.939211 0
M  V30 1639 H 155.394 2.89612 -2.58353 0
M  V30 1640 H 153.495 3.71703 -0.258429 0
M  V30 1641 H 153.608 4.33586 -2.03814 0
M  V30 1642 H 151.972 2.34454 -0.995164 0
M  V30 1643 H 152.755 2.17298 -2.65775 0
M  V30 1644 N 155.201 0.870884 1.31352 0
M  V30 1645 C 156.45 0.478408 1.95944 0
M  V30 1646 C 156.763 -0.974493 1.69597 0
M  V30 1647 O 157.969 -1.47316 2.28058 0
M  V30 1648 C 156.425 0.804609 3.50791 0
M  V30 1649 C 156.033 2.27433 3.85977 0
M  V30 1650 C 157.777 0.480648 4.2177 0
M  V30 1651 C 155.684 2.5429 5.33939 0
M  V30 1652 H 154.614 0.175175 0.733369 0
M  V30 1653 H 157.265 1.06391 1.4951 0
M  V30 1654 H 155.647 0.148347 3.95722 0
M  V30 1655 H 156.821 2.97373 3.52002 0
M  V30 1656 H 155.136 2.56442 3.28065 0
M  V30 1657 H 157.733 0.658519 5.30629 0
M  V30 1658 H 158.076 -0.578979 4.12254 0
M  V30 1659 H 158.609 1.09349 3.82476 0
M  V30 1660 H 155.348 3.58939 5.48491 0
M  V30 1661 H 154.868 1.88945 5.69263 0
M  V30 1662 H 156.547 2.39066 6.01212 0
M  V30 1663 N 156.679 -1.44442 0.630414 0
M  V30 1664 C 157.907 -2.06414 0.141671 0
M  V30 1665 C 158.322 -1.47105 -1.18345 0
M  V30 1666 O 157.679 -0.593662 -1.72574 0
M  V30 1667 C 157.73 -3.61494 0.0199784 0
M  V30 1668 O 157.451 -4.18594 1.29269 0
M  V30 1669 C 158.952 -4.40499 -0.497544 0
M  V30 1670 H 156.172 -0.666292 0.0793452 0
M  V30 1671 H 158.716 -1.85323 0.864614 0
M  V30 1672 H 156.871 -3.8185 -0.653402 0
M  V30 1673 H 157.285 -5.12026 1.13707 0
M  V30 1674 H 158.759 -5.49433 -0.531708 0
M  V30 1675 H 159.236 -4.11895 -1.52445 0
M  V30 1676 H 159.842 -4.25061 0.142562 0
M  V30 1677 N 158.157 -0.370918 -1.53173 0
M  V30 1678 C 159.404 0.217102 -2.01333 0
M  V30 1679 C 159.732 1.48338 -1.25802 0
M  V30 1680 O 158.987 1.92698 -0.34146 0
M  V30 1681 C 159.286 0.549696 -3.53147 0
M  V30 1682 C 158.952 -0.622872 -4.46577 0
M  V30 1683 C 157.614 -0.944595 -4.71838 0
M  V30 1684 C 159.966 -1.40819 -5.01816 0
M  V30 1685 C 157.294 -2.05351 -5.49589 0
M  V30 1686 C 159.646 -2.50757 -5.80778 0
M  V30 1687 C 158.31 -2.83458 -6.04324 0
M  V30 1688 H 157.58 0.0794431 -0.736729 0
M  V30 1689 H 160.227 -0.504481 -1.84736 0
M  V30 1690 H 158.532 1.35237 -3.6772 0
M  V30 1691 H 160.229 1.017 -3.87889 0
M  V30 1692 H 156.819 -0.36209 -4.27068 0
M  V30 1693 H 161.003 -1.17289 -4.82242 0
M  V30 1694 H 156.259 -2.3108 -5.6605 0
M  V30 1695 H 160.433 -3.12022 -6.22588 0
M  V30 1696 H 158.06 -3.69508 -6.64355 0
M  V30 1697 N 159.635 1.57281 -0.100228 0
M  V30 1698 C 160.565 2.17328 0.853857 0
M  V30 1699 C 161.546 1.10804 1.2906 0
M  V30 1700 O 162.731 1.38963 1.35657 0
M  V30 1701 C 159.861 2.75772 2.11109 0
M  V30 1702 C 158.815 3.87713 1.81279 0
M  V30 1703 C 158.141 4.32882 3.13874 0
M  V30 1704 C 159.441 5.10677 1.09574 0
M  V30 1705 H 161.135 2.97305 0.353545 0
M  V30 1706 H 158.681 1.43009 0.168612 0
M  V30 1707 H 160.634 3.16433 2.78296 0
M  V30 1708 H 159.358 1.93057 2.63432 0
M  V30 1709 H 158.017 3.476 1.16489 0
M  V30 1710 H 157.665 3.47051 3.64095 0
M  V30 1711 H 157.365 5.08358 2.94696 0
M  V30 1712 H 158.889 4.7618 3.82211 0
M  V30 1713 H 160.303 5.48474 1.66879 0
M  V30 1714 H 158.7 5.91615 1.00557 0
M  V30 1715 H 159.77 4.84835 0.0793299 0
M  V30 1716 N 161.113 -0.173488 1.56642 0
M  V30 1717 C 162.529 -0.525174 1.50712 0
M  V30 1718 C 162.729 -1.8476 0.804107 0
M  V30 1719 O 161.785 -2.49869 0.363574 0
M  V30 1720 C 163.098 -0.559937 2.95441 0
M  V30 1721 C 164.646 -0.647288 3.06234 0
M  V30 1722 C 165.121 -0.712963 4.52417 0
M  V30 1723 N 166.612 -0.775911 4.56655 0
M  V30 1724 C 167.347 -0.847264 5.67106 0
M  V30 1725 N 166.843 -0.879585 6.87194 0
M  V30 1726 N 168.636 -0.886117 5.55071 0
M  V30 1727 H 160.787 0.693681 2.00753 0
M  V30 1728 H 163.05 0.249841 0.914485 0
M  V30 1729 H 162.756 0.343049 3.50023 0
M  V30 1730 H 162.63 -1.40718 3.49969 0
M  V30 1731 H 165.017 -1.5407 2.51687 0
M  V30 1732 H 165.098 0.226586 2.54794 0
M  V30 1733 H 164.742 0.176183 5.07594 0
M  V30 1734 H 164.672 -1.60295 5.0161 0
M  V30 1735 H 167.163 -0.759304 3.70193 0
M  V30 1736 H 167.476 -0.935144 7.67121 0
M  V30 1737 H 165.821 -0.847898 6.89808 0
M  V30 1738 H 169.012 -0.857853 4.60172 0
M  V30 1739 H 169.185 -0.938263 6.41171 0
M  V30 1740 N 162.591 -1.51276 -0.441967 0
M  V30 1741 C 163.523 -1.68444 -1.55433 0
M  V30 1742 C 164.536 -0.565187 -1.52674 0
M  V30 1743 O 165.725 -0.839356 -1.57534 0
M  V30 1744 C 162.825 -1.67966 -2.94348 0
M  V30 1745 C 161.998 -2.964 -3.21661 0
M  V30 1746 C 161.057 -2.88171 -4.40277 0
M  V30 1747 O 160.083 -3.62119 -4.39157 0
M  V30 1748 N 161.285 -2.03706 -5.43584 0
M  V30 1749 H 164.05 -2.644 -1.41112 0
M  V30 1750 H 161.611 -1.49104 -0.630838 0
M  V30 1751 H 163.603 -1.60035 -3.71713 0
M  V30 1752 H 162.173 -0.796225 -3.0229 0
M  V30 1753 H 161.393 -3.18234 -2.32638 0
M  V30 1754 H 162.681 -3.81427 -3.36736 0
M  V30 1755 H 162.079 -1.42995 -5.47329 0
M  V30 1756 H 160.636 -2.01658 -6.1982 0
M  V30 1757 N 164.069 0.697108 -1.41344 0
M  V30 1758 C 165.315 1.4593 -1.40827 0
M  V30 1759 C 165.648 1.94193 -0.0167098 0
M  V30 1760 O 164.923 1.69425 0.955263 0
M  V30 1761 C 165.206 2.67229 -2.41373 0
M  V30 1762 C 165.059 2.24741 -3.8963 0
M  V30 1763 C 166.378 3.69423 -2.39196 0
M  V30 1764 H 163.497 0.529303 -0.512842 0
M  V30 1765 H 166.139 0.794112 -1.72609 0
M  V30 1766 H 164.289 3.23982 -2.14401 0
M  V30 1767 H 165.961 1.73327 -4.27499 0
M  V30 1768 H 164.204 1.56542 -4.0457 0
M  V30 1769 H 164.875 3.1177 -4.55525 0
M  V30 1770 H 167.351 3.2234 -2.63128 0
M  V30 1771 H 166.227 4.51907 -3.11563 0
M  V30 1772 H 166.488 4.19012 -1.41001 0
M  V30 1773 N 165.547 1.27147 0.931209 0
M  V30 1774 C 166.48 1.0389 2.0318 0
M  V30 1775 C 167.458 -0.0395716 1.62552 0
M  V30 1776 O 168.642 0.104867 1.88208 0
M  V30 1777 C 165.769 0.575227 3.3378 0
M  V30 1778 C 164.815 1.64774 3.93385 0
M  V30 1779 S 165.648 3.23933 4.26413 0
M  V30 1780 C 166.804 2.79358 5.60098 0
M  V30 1781 H 167.037 1.97075 2.22596 0
M  V30 1782 H 164.57 1.10938 1.07387 0
M  V30 1783 H 166.528 0.314385 4.09294 0
M  V30 1784 H 165.189 -0.336505 3.12292 0
M  V30 1785 H 164.382 1.27454 4.87618 0
M  V30 1786 H 163.984 1.86048 3.24441 0
M  V30 1787 H 166.276 2.24443 6.39243 0
M  V30 1788 H 167.219 3.72322 6.02314 0
M  V30 1789 H 167.627 2.1861 5.20452 0
M  V30 1790 N 167.025 -1.13721 1.09112 0
M  V30 1791 C 167.988 -2.17222 0.731241 0
M  V30 1792 C 168.988 -1.59035 -0.237566 0
M  V30 1793 O 170.178 -1.74192 -0.0161704 0
M  V30 1794 C 167.31 -3.40804 0.0808443 0
M  V30 1795 H 168.503 -2.50573 1.64783 0
M  V30 1796 H 166.056 -1.28493 0.889897 0
M  V30 1797 H 166.791 -3.1304 -0.847127 0
M  V30 1798 H 166.576 -3.84306 0.777896 0
M  V30 1799 H 168.066 -4.1731 -0.155657 0
M  V30 1800 N 168.503 -0.877838 -1.30888 0
M  V30 1801 C 169.433 -0.35534 -2.3078 0
M  V30 1802 C 170.414 0.557994 -1.60687 0
M  V30 1803 O 171.599 0.473355 -1.88343 0
M  V30 1804 C 168.729 0.437221 -3.44537 0
M  V30 1805 C 167.683 -0.383715 -4.26276 0
M  V30 1806 C 167.009 0.535014 -5.32017 0
M  V30 1807 C 168.309 -1.62201 -4.96476 0
M  V30 1808 H 170.003 -1.19007 -2.74732 0
M  V30 1809 H 167.549 -0.573698 -1.32078 0
M  V30 1810 H 169.502 0.813334 -4.13477 0
M  V30 1811 H 168.226 1.30553 -2.99372 0
M  V30 1812 H 166.885 -0.741874 -3.59015 0
M  V30 1813 H 166.533 1.40083 -4.831 0
M  V30 1814 H 166.233 -0.0104211 -5.87599 0
M  V30 1815 H 167.757 0.907799 -6.03814 0
M  V30 1816 H 169.171 -1.31689 -5.5797 0
M  V30 1817 H 167.568 -2.10711 -5.61891 0
M  V30 1818 H 168.638 -2.37044 -4.23011 0
M  V30 1819 N 169.982 1.44106 -0.638065 0
M  V30 1820 C 171.222 2.03858 -0.148733 0
M  V30 1821 C 171.586 1.49153 1.20903 0
M  V30 1822 O 172.787 2.00452 1.79088 0
M  V30 1823 C 171.058 3.57117 -0.142314 0
M  V30 1824 S 172.617 4.37897 0.281385 0
M  V30 1825 H 169.435 0.708069 -0.0644912 0
M  V30 1826 H 172.037 1.7639 -0.843009 0
M  V30 1827 H 170.741 3.94436 -1.13349 0
M  V30 1828 H 170.272 3.89205 0.572988 0
M  V30 1829 H 172.287 4.72218 1.52395 0
M  V30 1830 N 171.46 0.379036 1.52974 0
M  V30 1831 C 172.688 -0.20679 2.05864 0
M  V30 1832 C 173.103 -1.41356 1.25155 0
M  V30 1833 O 172.46 -1.8009 0.295588 0
M  V30 1834 C 172.511 -0.587045 3.56702 0
M  V30 1835 O 172.232 0.571776 4.34353 0
M  V30 1836 C 173.733 -1.22983 4.25899 0
M  V30 1837 H 170.953 -0.0336123 0.670158 0
M  V30 1838 H 173.497 0.541298 1.97206 0
M  V30 1839 H 171.652 -1.28504 3.65466 0
M  V30 1840 H 172.066 0.261544 5.23847 0
M  V30 1841 H 173.54 -1.44635 5.32715 0
M  V30 1842 H 174.017 -2.19416 3.80465 0
M  V30 1843 H 174.623 -0.572892 4.21424 0
M  V30 1844 N 172.938 -1.57226 0.108567 0
M  V30 1845 C 174.168 -1.9889 -0.559142 0
M  V30 1846 C 174.576 -0.986889 -1.61422 0
M  V30 1847 O 173.919 0.0298705 -1.83676 0
M  V30 1848 C 173.981 -3.36952 -1.25315 0
M  V30 1849 C 173.645 -4.55679 -0.347248 0
M  V30 1850 C 174.642 -5.18281 0.409996 0
M  V30 1851 C 172.327 -5.0162 -0.261367 0
M  V30 1852 C 174.321 -6.25203 1.24096 0
M  V30 1853 C 172.008 -6.08405 0.573238 0
M  V30 1854 C 173.006 -6.70063 1.32304 0
M  V30 1855 O 172.694 -7.74788 2.14381 0
M  V30 1856 H 172.426 -0.658343 -0.153492 0
M  V30 1857 H 174.98 -2.04532 0.188584 0
M  V30 1858 H 173.21 -3.28032 -2.04773 0
M  V30 1859 H 174.899 -3.62974 -1.81673 0
M  V30 1860 H 175.665 -4.8371 0.353457 0
M  V30 1861 H 171.544 -4.53381 -0.834656 0
M  V30 1862 H 175.088 -6.73259 1.82669 0
M  V30 1863 H 170.985 -6.42406 0.631208 0
M  V30 1864 H 171.753 -7.91837 2.07209 0
M  V30 1865 N 174.416 0.165178 -1.56732 0
M  V30 1866 C 175.827 0.727046 -1.71962 0
M  V30 1867 C 176.178 1.82508 -0.720078 0
M  V30 1868 O 175.303 2.16082 0.117242 0
M  V30 1869 C 175.898 1.32559 -3.11791 0
M  V30 1870 C 174.457 1.83422 -3.28684 0
M  V30 1871 C 173.604 0.715567 -2.67908 0
M  V30 1872 H 176.555 -0.0602896 -1.58585 0
M  V30 1873 H 176.576 2.19533 -3.10782 0
M  V30 1874 H 176.088 0.526195 -3.84516 0
M  V30 1875 H 174.189 2.65986 -2.60926 0
M  V30 1876 H 174.302 1.97543 -4.36478 0
M  V30 1877 H 172.666 1.13758 -2.27884 0
M  V30 1878 H 173.449 -0.0720836 -3.43224 0
M  V30 1879 N 175.894 1.51508 0.433938 0
M  V30 1880 C 176.842 1.73646 1.54757 0
M  V30 1881 C 177.836 0.602854 1.5831 0
M  V30 1882 O 179.042 0.784318 1.62014 0
M  V30 1883 H 175.417 0.548718 0.51421 0
M  V30 1884 H 177.388 2.66991 1.33261 0
M  V30 1885 C 176.137 1.88172 2.92381 0
M  V30 1886 H 175.46 2.74808 2.90381 0
M  V30 1887 H 176.9 2.07672 3.6966 0
M  V30 1888 C 175.359 0.64239 3.30719 0
M  V30 1889 O 175.889 -0.201362 4.01195 0
M  V30 1890 N 174.095 0.485489 2.86516 0
M  V30 1891 H 173.642 1.17318 2.29334 0
M  V30 1892 H 173.6 -0.342482 3.12529 0
M  V30 1893 N 177.372 -0.689602 1.41712 0
M  V30 1894 C 178.302 -1.81577 1.46806 0
M  V30 1895 C 179.283 -1.66945 0.326105 0
M  V30 1896 O 180.468 -1.86588 0.538377 0
M  V30 1897 C 177.598 -3.19762 1.35535 0
M  V30 1898 C 176.552 -3.49107 2.47605 0
M  V30 1899 C 175.878 -4.86711 2.21397 0
M  V30 1900 C 177.178 -3.47483 3.89939 0
M  V30 1901 H 178.872 -1.7757 2.41058 0
M  V30 1902 H 176.418 -0.852887 1.16025 0
M  V30 1903 H 178.371 -3.98263 1.3771 0
M  V30 1904 H 177.095 -3.24409 0.377708 0
M  V30 1905 H 175.754 -2.72959 2.44722 0
M  V30 1906 H 175.402 -4.8799 1.21961 0
M  V30 1907 H 175.102 -5.0731 2.96497 0
M  V30 1908 H 176.626 -5.67515 2.25297 0
M  V30 1909 H 178.04 -4.1598 3.94505 0
M  V30 1910 H 176.437 -3.79615 4.64771 0
M  V30 1911 H 177.507 -2.46341 4.17665 0
M  V30 1912 N 178.85 -1.27639 -0.924453 0
M  V30 1913 C 179.78 -1.13166 -2.04244 0
M  V30 1914 C 180.761 -0.032256 -1.70069 0
M  V30 1915 O 181.946 -0.207328 -1.9309 0
M  V30 1916 C 179.076 -0.781496 -3.38393 0
M  V30 1917 C 178.03 -1.83449 -3.86692 0
M  V30 1918 C 177.356 -1.33822 -5.17683 0
M  V30 1919 C 178.656 -3.23917 -4.09726 0
M  V30 1920 H 180.35 -2.06689 -2.1661 0
M  V30 1921 H 177.896 -0.995136 -1.04082 0
M  V30 1922 H 179.849 -0.667057 -4.16087 0
M  V30 1923 H 178.573 0.189439 -3.2605 0
M  V30 1924 H 177.232 -1.93789 -3.11193 0
M  V30 1925 H 176.88 -0.35665 -5.01734 0
M  V30 1926 H 176.58 -2.04224 -5.50968 0
M  V30 1927 H 178.104 -1.23679 -5.97943 0
M  V30 1928 H 179.518 -3.16559 -4.77978 0
M  V30 1929 H 177.915 -3.92059 -4.54324 0
M  V30 1930 H 178.985 -3.68729 -3.14908 0
M  V30 1931 N 180.328 1.1314 -1.09713 0
M  V30 1932 C 181.605 1.80762 -0.747302 0
M  V30 1933 C 181.985 1.96663 0.767265 0
M  V30 1934 O 181.333 1.53706 1.69076 0
M  V30 1935 C 181.543 3.15606 -1.48975 0
M  V30 1936 C 182.891 3.90914 -1.65746 0
M  V30 1937 O 183.915 3.25239 -1.45251 0
M  V30 1938 O 182.774 5.08718 -1.9967 0
M  V30 1939 H 179.868 0.782103 -0.268782 0
M  V30 1940 H 182.414 1.20041 -1.19951 0
M  V30 1941 H 181.186 2.99278 -2.52088 0
M  V30 1942 H 180.809 3.84029 -1.02991 0
M  V30 1943 N 181.806 0.884767 1.30421 0
M  V30 1944 C 183.031 0.517288 2.00845 0
M  V30 1945 C 183.456 -0.886779 1.65885 0
M  V30 1946 O 182.814 -1.58768 0.875354 0
M  V30 1947 C 182.862 0.698994 3.5376 0
M  V30 1948 O 181.966 -0.255208 4.1161 0
M  V30 1949 H 181.307 0.203872 0.631927 0
M  V30 1950 H 183.837 1.19225 1.66272 0
M  V30 1951 H 183.847 0.597912 4.03595 0
M  V30 1952 H 182.522 1.72271 3.78544 0
M  V30 1953 H 181.099 -0.10784 3.72744 0
M  V30 1954 N 183.284 -1.43765 0.645699 0
M  V30 1955 C 184.695 -1.85193 0.236719 0
M  V30 1956 C 185.046 -1.54045 -1.21509 0
M  V30 1957 O 184.171 -0.985694 -1.92647 0
M  V30 1958 C 184.766 -3.36151 0.422845 0
M  V30 1959 C 183.325 -3.76338 0.0682492 0
M  V30 1960 C 182.472 -2.67538 0.729306 0
M  V30 1961 H 185.423 -1.34025 0.849883 0
M  V30 1962 H 185.444 -3.79032 -0.333904 0
M  V30 1963 H 184.956 -3.5879 1.47958 0
M  V30 1964 H 183.057 -3.59312 -0.986179 0
M  V30 1965 H 183.17 -4.76603 0.488469 0
M  V30 1966 H 181.534 -2.54176 0.163235 0
M  V30 1967 H 182.317 -2.93006 1.78892 0
M  V30 1968 N 184.763 -0.387143 -1.52771 0
M  V30 1969 C 185.988 0.198407 -2.06449 0
M  V30 1970 C 186.413 1.39918 -1.25716 0
M  V30 1971 O 185.771 1.79099 -0.281657 0
M  V30 1972 C 185.819 0.548893 -3.56398 0
M  V30 1973 O 184.923 1.64315 -3.78252 0
M  V30 1974 H 184.264 0.0237731 -0.663574 0
M  V30 1975 H 186.794 -0.553989 -1.96957 0
M  V30 1976 H 186.804 0.813812 -3.99801 0
M  V30 1977 H 185.479 -0.329005 -4.14597 0
M  V30 1978 H 184.056 1.37211 -3.46738 0
M  V30 1979 N 186.241 1.57166 -0.116904 0
M  V30 1980 C 187.488 1.95123 0.541603 0
M  V30 1981 C 187.816 1.00006 1.6682 0
M  V30 1982 O 187.071 0.0235658 1.95686 0
M  V30 1983 C 187.37 3.39508 1.11664 0
M  V30 1984 C 187.036 4.50762 0.111606 0
M  V30 1985 C 185.698 4.80918 -0.164758 0
M  V30 1986 C 188.05 5.18036 -0.573438 0
M  V30 1987 C 185.378 5.75666 -1.13249 0
M  V30 1988 C 187.73 6.13824 -1.52978 0
M  V30 1989 C 186.394 6.42374 -1.81415 0
M  V30 1990 H 185.664 0.714005 0.198187 0
M  V30 1991 H 188.311 1.9048 -0.197365 0
M  V30 1992 H 186.616 3.40835 1.93232 0
M  V30 1993 H 188.313 3.66189 1.63422 0
M  V30 1994 H 184.903 4.27272 0.337192 0
M  V30 1995 H 189.087 4.94896 -0.373092 0
M  V30 1996 H 184.343 5.96092 -1.35958 0
M  V30 1997 H 188.517 6.65039 -2.06629 0
M  V30 1998 H 186.144 7.15599 -2.56557 0
M  V30 1999 N 187.719 -0.156864 1.56817 0
M  V30 2000 C 189.13 -0.717916 1.72345 0
M  V30 2001 C 189.481 -1.82124 0.729747 0
M  V30 2002 O 188.606 -2.16141 -0.105781 0
M  V30 2003 C 189.201 -1.30904 3.12489 0
M  V30 2004 C 187.76 -1.81676 3.29653 0
M  V30 2005 C 186.907 -0.701349 2.68284 0
M  V30 2006 H 189.858 0.0686989 1.58551 0
M  V30 2007 H 189.879 -2.17882 3.11942 0
M  V30 2008 H 189.391 -0.505796 3.8479 0
M  V30 2009 H 187.492 -2.64598 2.62333 0
M  V30 2010 H 187.605 -1.95226 4.3752 0
M  V30 2011 H 185.969 -1.12548 2.28484 0
M  V30 2012 H 186.752 0.0902846 3.43181 0
M  V30 2013 N 189.197 -1.51736 -0.425897 0
M  V30 2014 C 190.107 -1.76738 -1.54275 0
M  V30 2015 C 191.123 -0.65211 -1.61318 0
M  V30 2016 O 192.299 -0.935654 -1.78346 0
M  V30 2017 C 189.364 -1.89755 -2.90162 0
M  V30 2018 C 188.425 -3.13633 -2.93143 0
M  V30 2019 C 187.658 -3.2602 -4.22548 0
M  V30 2020 O 187.881 -2.44067 -5.15546 0
M  V30 2021 O 186.815 -4.19071 -4.32046 0
M  V30 2022 H 190.641 -2.71502 -1.36089 0
M  V30 2023 H 188.226 -1.36376 -0.610069 0
M  V30 2024 H 190.108 -2.00236 -3.70788 0
M  V30 2025 H 188.783 -0.981785 -3.08452 0
M  V30 2026 H 187.69 -3.08622 -2.11431 0
M  V30 2027 H 189.023 -4.04936 -2.798 0
M  V30 2028 N 190.675 0.682077 -1.42076 0
M  V30 2029 C 191.952 1.43755 -1.32642 0
M  V30 2030 C 192.332 2.11063 0.0396611 0
M  V30 2031 O 191.68 2.02701 1.05474 0
M  V30 2032 C 191.89 2.44596 -2.48946 0
M  V30 2033 C 193.238 3.09454 -2.9073 0
M  V30 2034 O 194.262 2.54922 -2.48783 0
M  V30 2035 O 193.121 4.08253 -3.63307 0
M  V30 2036 H 190.215 0.640857 -0.522715 0
M  V30 2037 H 192.761 0.711415 -1.54068 0
M  V30 2038 H 191.533 1.93609 -3.40046 0
M  V30 2039 H 191.156 3.24701 -2.29467 0
M  V30 2040 N 192.153 1.28127 0.917671 0
M  V30 2041 C 193.116 1.11744 2.00115 0
M  V30 2042 C 194.116 0.0583052 1.60694 0
M  V30 2043 O 195.306 0.303755 1.71531 0
M  V30 2044 C 192.438 0.704862 3.33533 0
M  V30 2045 H 193.631 2.07966 2.16079 0
M  V30 2046 H 191.184 1.11058 1.09981 0
M  V30 2047 H 191.919 -0.258299 3.2327 0
M  V30 2048 H 191.704 1.4699 3.63505 0
M  V30 2049 H 193.194 0.612768 4.1308 0
M  V30 2050 N 193.631 -1.12557 1.10312 0
M  V30 2051 C 194.578 -2.18247 0.750781 0
M  V30 2052 C 195.548 -1.63853 -0.272293 0
M  V30 2053 O 196.733 -1.90195 -0.151862 0
M  V30 2054 C 193.873 -3.44591 0.187379 0
M  V30 2055 C 192.986 -4.13046 1.2656 0
M  V30 2056 C 192.121 -5.27034 0.663978 0
M  V30 2057 C 191.16 -5.87353 1.72287 0
M  V30 2058 N 190.297 -6.92757 1.1416 0
M  V30 2059 H 195.137 -2.47732 1.65628 0
M  V30 2060 H 192.674 -1.21629 0.827337 0
M  V30 2061 H 194.632 -4.16904 -0.157148 0
M  V30 2062 H 193.262 -3.15527 -0.681355 0
M  V30 2063 H 192.314 -3.38924 1.72727 0
M  V30 2064 H 193.626 -4.53947 2.06721 0
M  V30 2065 H 192.78 -6.06104 0.268824 0
M  V30 2066 H 191.519 -4.87407 -0.169082 0
M  V30 2067 H 190.524 -5.06971 2.12746 0
M  V30 2068 H 191.749 -6.29051 2.55875 0
M  V30 2069 H 189.695 -6.5517 0.329984 0
M  V30 2070 H 189.612 -7.3225 1.88007 0
M  V30 2071 H 190.88 -7.75658 0.772956 0
M  V30 2072 N 195.109 -0.891671 -1.2995 0
M  V30 2073 C 196.056 -0.361736 -2.27948 0
M  V30 2074 C 197.026 0.551761 -1.56668 0
M  V30 2075 O 198.211 0.478736 -1.84696 0
M  V30 2076 C 195.351 0.411825 -3.42634 0
M  V30 2077 C 194.464 -0.531651 -4.28716 0
M  V30 2078 C 193.599 0.258167 -5.30572 0
M  V30 2079 C 192.638 -0.680349 -6.08307 0
M  V30 2080 N 191.775 0.0745613 -7.0206 0
M  V30 2081 H 196.615 -1.20254 -2.72659 0
M  V30 2082 H 194.152 -0.604352 -1.34112 0
M  V30 2083 H 196.11 0.876304 -4.07893 0
M  V30 2084 H 194.74 1.21715 -2.98974 0
M  V30 2085 H 193.792 -1.11463 -3.63703 0
M  V30 2086 H 195.104 -1.25038 -4.82874 0
M  V30 2087 H 194.258 0.784204 -6.0161 0
M  V30 2088 H 192.997 1.01008 -4.77126 0
M  V30 2089 H 192.002 -1.21796 -5.3614 0
M  V30 2090 H 193.227 -1.43145 -6.63842 0
M  V30 2091 H 191.173 0.808883 -6.50994 0
M  V30 2092 H 191.09 -0.584409 -7.53738 0
M  V30 2093 H 192.358 0.581123 -7.77331 0
M  V30 2094 N 196.587 1.43421 -0.653314 0
M  V30 2095 C 198.003 1.56341 -0.320886 0
M  V30 2096 C 198.203 1.63696 1.17499 0
M  V30 2097 O 197.259 1.59208 1.95982 0
M  V30 2098 C 198.572 2.82424 -1.03233 0
M  V30 2099 C 200.12 2.96168 -1.01259 0
M  V30 2100 C 200.595 4.25084 -1.70492 0
M  V30 2101 N 202.086 4.31948 -1.67257 0
M  V30 2102 C 202.821 5.30466 -2.17701 0
M  V30 2103 N 202.317 6.35261 -2.76434 0
M  V30 2104 N 204.11 5.2212 -2.082 0
M  V30 2105 H 196.261 1.3689 -1.62403 0
M  V30 2106 H 198.524 0.657455 -0.682977 0
M  V30 2107 H 198.23 2.83053 -2.08744 0
M  V30 2108 H 198.104 3.72653 -0.583948 0
M  V30 2109 H 200.491 2.9508 0.0341235 0
M  V30 2110 H 200.572 2.07229 -1.49966 0
M  V30 2111 H 200.216 4.26932 -2.7512 0
M  V30 2112 H 200.146 5.1292 -1.19251 0
M  V30 2113 H 202.637 3.56838 -1.24398 0
M  V30 2114 H 202.95 7.06754 -3.12601 0
M  V30 2115 H 201.295 6.35884 -2.80495 0
M  V30 2116 H 204.486 4.39166 -1.62021 0
M  V30 2117 H 204.659 5.98739 -2.47822 0
M  V30 2118 N 198.065 0.39524 1.52563 0
M  V30 2119 C 199.028 -0.425001 2.25225 0
M  V30 2120 C 200.028 -0.985266 1.27079 0
M  V30 2121 O 201.218 -0.866332 1.5113 0
M  V30 2122 C 198.35 -1.59686 3.01186 0
M  V30 2123 H 199.543 0.211233 2.99155 0
M  V30 2124 H 197.096 0.147472 1.55603 0
M  V30 2125 H 197.831 -2.27035 2.31572 0
M  V30 2126 H 197.616 -1.20176 3.73229 0
M  V30 2127 H 199.106 -2.17743 3.5634 0
M  V30 2128 N 199.544 -1.57102 0.125237 0
M  V30 2129 C 200.96 -1.57915 -0.231322 0
M  V30 2130 C 201.16 -1.13833 -1.66266 0
M  V30 2131 O 200.216 -0.828581 -2.38518 0
M  V30 2132 C 201.529 -3.00699 0.00766489 0
M  V30 2133 C 203.077 -3.12947 -0.0577483 0
M  V30 2134 C 203.552 -4.57742 0.153626 0
M  V30 2135 N 205.043 -4.63092 0.0998073 0
M  V30 2136 C 205.778 -5.72905 0.238174 0
M  V30 2137 N 205.274 -6.91445 0.433057 0
M  V30 2138 N 207.067 -5.6182 0.177308 0
M  V30 2139 H 199.218 -1.84055 1.06007 0
M  V30 2140 H 201.481 -0.850905 0.417929 0
M  V30 2141 H 201.187 -3.3726 0.997431 0
M  V30 2142 H 201.061 -3.70236 -0.721452 0
M  V30 2143 H 203.448 -2.7624 -1.03804 0
M  V30 2144 H 203.529 -2.4594 0.70335 0
M  V30 2145 H 203.173 -4.95149 1.13092 0
M  V30 2146 H 203.103 -5.22848 -0.627534 0
M  V30 2147 H 205.594 -3.77871 -0.047051 0
M  V30 2148 H 205.907 -7.70985 0.529332 0
M  V30 2149 H 204.252 -6.93415 0.469109 0
M  V30 2150 H 207.443 -4.68093 0.0259748 0
M  V30 2151 H 207.616 -6.47357 0.288582 0
M  V30 2152 N 201.022 0.148545 -1.56898 0
M  V30 2153 C 202.438 0.501131 -1.51528 0
M  V30 2154 C 202.638 1.83458 -0.833399 0
M  V30 2155 O 201.694 2.49259 -0.40328 0
M  V30 2156 C 203.007 0.512864 -2.96294 0
M  V30 2157 C 204.555 0.598487 -3.07225 0
M  V30 2158 C 205.03 0.640897 -4.53494 0
M  V30 2159 N 206.521 0.703163 -4.57832 0
M  V30 2160 C 207.256 0.756935 -5.68382 0
M  V30 2161 N 206.752 0.770147 -6.88506 0
M  V30 2162 N 208.545 0.797698 -5.56411 0
M  V30 2163 H 200.696 -0.725532 -1.99624 0
M  V30 2164 H 202.959 -0.264358 -0.910395 0
M  V30 2165 H 202.665 -0.398691 -3.49433 0
M  V30 2166 H 202.539 1.35133 -3.52163 0
M  V30 2167 H 204.926 1.50046 -2.54106 0
M  V30 2168 H 205.007 -0.267093 -2.54402 0
M  V30 2169 H 204.651 -0.256915 -5.0725 0
M  V30 2170 H 204.581 1.52295 -5.04097 0
M  V30 2171 H 207.072 0.700314 -3.71354 0
M  V30 2172 H 207.385 0.812983 -7.68512 0
M  V30 2173 H 205.73 0.738049 -6.9107 0
M  V30 2174 H 208.921 0.784535 -4.61479 0
M  V30 2175 H 209.094 0.83614 -6.42583 0
M  V30 2176 N 202.5 1.5196 0.417844 0
M  V30 2177 C 203.749 1.6482 1.16264 0
M  V30 2178 C 204.062 0.379886 1.91876 0
M  V30 2179 O 205.268 0.388154 2.68711 0
M  V30 2180 C 203.724 2.91161 2.1155 0
M  V30 2181 C 203.332 4.25068 1.41495 0
M  V30 2182 C 205.076 3.13383 2.86341 0
M  V30 2183 C 202.983 5.42541 2.35379 0
M  V30 2184 H 201.913 0.613954 0.437694 0
M  V30 2185 H 204.564 1.78442 0.427871 0
M  V30 2186 H 202.946 2.71218 2.88543 0
M  V30 2187 H 204.12 4.55463 0.699263 0
M  V30 2188 H 202.435 4.0888 0.787792 0
M  V30 2189 H 205.032 3.98324 3.5671 0
M  V30 2190 H 205.375 2.27256 3.48798 0
M  V30 2191 H 205.908 3.33757 2.1645 0
M  V30 2192 H 202.647 6.30987 1.77582 0
M  V30 2193 H 202.167 5.16497 3.04945 0
M  V30 2194 H 203.846 5.75272 2.96093 0
M  V30 2195 N 203.978 -0.674533 1.42435 0
M  V30 2196 C 204.908 -1.80009 1.48724 0
M  V30 2197 C 205.889 -1.6659 0.343793 0
M  V30 2198 O 207.074 -1.86007 0.558137 0
M  V30 2199 C 204.204 -3.18306 1.38919 0
M  V30 2200 C 203.158 -3.46461 2.51294 0
M  V30 2201 C 202.484 -4.84335 2.26547 0
M  V30 2202 C 203.784 -3.43328 3.93603 0
M  V30 2203 H 205.478 -1.75004 2.42928 0
M  V30 2204 H 203.024 -0.840533 1.16923 0
M  V30 2205 H 204.977 -3.9678 1.41927 0
M  V30 2206 H 203.701 -3.2399 0.412094 0
M  V30 2207 H 202.36 -2.70348 2.47604 0
M  V30 2208 H 202.008 -4.86669 1.2713 0
M  V30 2209 H 201.708 -5.04136 3.01861 0
M  V30 2210 H 203.232 -5.65094 2.31304 0
M  V30 2211 H 204.646 -4.11772 3.98894 0
M  V30 2212 H 203.043 -3.74664 4.68771 0
M  V30 2213 H 204.113 -2.41897 4.20255 0
M  V30 2214 N 205.456 -1.28612 -0.910864 0
M  V30 2215 C 206.388 -1.08589 -2.01844 0
M  V30 2216 C 207.401 -0.0367419 -1.62759 0
M  V30 2217 O 208.59 -0.280101 -1.76289 0
M  V30 2218 C 205.69 -0.628626 -3.33019 0
M  V30 2219 C 204.863 -1.75382 -4.00699 0
M  V30 2220 C 203.922 -1.28945 -5.10156 0
M  V30 2221 O 202.948 -1.9922 -5.33198 0
M  V30 2222 N 204.15 -0.154224 -5.80295 0
M  V30 2223 H 206.915 -2.03973 -2.19579 0
M  V30 2224 H 204.476 -1.20403 -1.08234 0
M  V30 2225 H 206.468 -0.301508 -4.03575 0
M  V30 2226 H 205.038 0.232451 -3.11735 0
M  V30 2227 H 204.258 -2.25039 -3.23653 0
M  V30 2228 H 205.546 -2.50854 -4.42662 0
M  V30 2229 H 204.944 0.43194 -5.64049 0
M  V30 2230 H 203.501 0.113599 -6.51701 0
M  V30 2231 N 206.934 1.1197 -1.10907 0
M  V30 2232 C 207.897 2.16031 -0.765707 0
M  V30 2233 C 208.897 1.59393 0.212235 0
M  V30 2234 O 210.087 1.74196 -0.0115441 0
M  V30 2235 C 207.219 3.40632 -0.135053 0
M  V30 2236 H 208.412 2.47919 -1.68748 0
M  V30 2237 H 205.965 1.27061 -0.910226 0
M  V30 2238 H 206.7 3.14348 0.797218 0
M  V30 2239 H 206.485 3.8302 -0.838937 0
M  V30 2240 H 207.975 4.17505 0.0892469 0
M  V30 2241 N 208.412 0.89855 1.29475 0
M  V30 2242 C 209.652 0.530771 1.97388 0
M  V30 2243 C 210.016 -0.905832 1.69289 0
M  V30 2244 O 211.217 -1.38042 2.30646 0
M  V30 2245 C 209.488 0.81369 3.48014 0
M  V30 2246 S 211.047 0.550048 4.35339 0
M  V30 2247 H 207.865 0.196956 0.683176 0
M  V30 2248 H 210.467 1.16074 1.57312 0
M  V30 2249 H 209.171 1.85749 3.65958 0
M  V30 2250 H 208.702 0.171795 3.93025 0
M  V30 2251 H 210.717 -0.605423 4.92493 0
M  V30 2252 N 209.89 -1.43072 0.660911 0
M  V30 2253 C 211.138 -2.01323 0.177094 0
M  V30 2254 C 211.459 -1.5245 -1.2159 0
M  V30 2255 O 210.729 -0.740322 -1.81373 0
M  V30 2256 H 209.309 -0.744382 0.0624804 0
M  V30 2257 H 211.971 -1.75179 0.854305 0
M  V30 2258 H 211.067 -3.11649 0.167641 0
M  V30 2259 N 211.368 -0.403325 -1.52352 0
M  V30 2260 C 212.616 0.174003 -2.0135 0
M  V30 2261 C 212.937 1.46139 -1.29106 0
M  V30 2262 O 212.207 1.91448 -0.415253 0
M  V30 2263 H 210.787 0.0672911 -0.743963 0
M  V30 2264 H 213.449 -0.538235 -1.87321 0
M  V30 2265 H 212.545 0.374254 -3.09848 0
M  V30 2266 N 212.846 1.57033 -0.133567 0
M  V30 2267 C 213.794 2.17348 0.828412 0
M  V30 2268 C 214.788 1.12671 1.26498 0
M  V30 2269 O 215.994 1.30947 1.23502 0
M  V30 2270 H 212.369 0.695775 0.285309 0
M  V30 2271 H 214.34 2.96935 0.295372 0
M  V30 2272 C 213.089 2.79893 2.06289 0
M  V30 2273 H 212.412 3.60147 1.73592 0
M  V30 2274 H 213.852 3.25615 2.71572 0
M  V30 2275 C 212.311 1.77713 2.86216 0
M  V30 2276 O 212.841 1.23937 3.82103 0
M  V30 2277 N 211.047 1.47321 2.50489 0
M  V30 2278 H 210.594 1.91243 1.7258 0
M  V30 2279 H 210.552 0.79199 3.04261 0
M  V30 2280 N 214.325 -0.140222 1.56975 0
M  V30 2281 C 215.55 -0.870414 1.88251 0
M  V30 2282 C 215.975 -1.73637 0.723312 0
M  V30 2283 O 215.333 -1.78329 -0.32689 0
M  V30 2284 C 215.381 -1.69737 3.18154 0
M  V30 2285 O 214.485 -2.80229 3.02565 0
M  V30 2286 H 213.826 -0.242025 0.61832 0
M  V30 2287 H 216.356 -0.128999 2.04193 0
M  V30 2288 H 216.366 -2.09099 3.50345 0
M  V30 2289 H 215.041 -1.06152 4.02125 0
M  V30 2290 H 213.618 -2.44224 2.81796 0
M  V30 2291 N 215.803 -1.52179 -0.40978 0
M  V30 2292 C 216.733 -1.78435 -1.5061 0
M  V30 2293 C 217.714 -0.635295 -1.57791 0
M  V30 2294 O 218.899 -0.880823 -1.73076 0
M  V30 2295 C 216.029 -1.93444 -2.88439 0
M  V30 2296 C 214.983 -3.09038 -2.96108 0
M  V30 2297 C 214.309 -3.09268 -4.36185 0
M  V30 2298 C 215.609 -4.48508 -2.67652 0
M  V30 2299 H 217.303 -2.70237 -1.28889 0
M  V30 2300 H 214.849 -1.30036 -0.618605 0
M  V30 2301 H 216.802 -2.10394 -3.65119 0
M  V30 2302 H 215.526 -0.983129 -3.11452 0
M  V30 2303 H 214.185 -2.91837 -2.21872 0
M  V30 2304 H 213.833 -2.11861 -4.56206 0
M  V30 2305 H 213.533 -3.86907 -4.42241 0
M  V30 2306 H 215.057 -3.28348 -5.14801 0
M  V30 2307 H 216.471 -4.65918 -3.34056 0
M  V30 2308 H 214.868 -5.28059 -2.85085 0
M  V30 2309 H 215.938 -4.56649 -1.63095 0
M  V30 2310 N 217.281 0.66697 -1.42791 0
M  V30 2311 C 218.529 1.42417 -1.43394 0
M  V30 2312 C 218.85 1.94925 -0.0542373 0
M  V30 2313 O 218.12 1.73564 0.908415 0
M  V30 2314 H 216.7 0.528515 -0.527902 0
M  V30 2315 H 219.362 0.787562 -1.78279 0
M  V30 2316 H 218.458 2.27333 -2.13837 0
M  V30 2317 N 218.759 1.29093 0.90403 0
M  V30 2318 C 219.984 1.19809 1.69294 0
M  V30 2319 C 220.409 -0.238481 1.86582 0
M  V30 2320 O 219.767 -1.1723 1.383 0
M  V30 2321 C 219.815 1.91202 3.05736 0
M  V30 2322 O 218.919 1.22611 3.93752 0
M  V30 2323 H 218.26 0.415385 0.518027 0
M  V30 2324 H 220.79 1.70586 1.12967 0
M  V30 2325 H 220.8 1.99487 3.55906 0
M  V30 2326 H 219.475 2.95692 2.92471 0
M  V30 2327 H 218.052 1.22554 3.52186 0
M  V30 2328 N 220.237 -1.11381 1.11499 0
M  V30 2329 C 221.467 -1.86663 0.885464 0
M  V30 2330 C 221.875 -1.80464 -0.568281 0
M  V30 2331 O 221.218 -1.18445 -1.40415 0
M  V30 2332 C 221.28 -3.36337 1.26956 0
M  V30 2333 C 220.944 -3.66304 2.73259 0
M  V30 2334 C 221.941 -3.63733 3.71476 0
M  V30 2335 C 219.626 -3.9529 3.09921 0
M  V30 2336 C 221.62 -3.89725 5.04374 0
M  V30 2337 C 219.307 -4.20941 4.43004 0
M  V30 2338 C 220.305 -4.18147 5.40039 0
M  V30 2339 O 219.993 -4.43153 6.70724 0
M  V30 2340 H 219.725 -0.597114 0.316908 0
M  V30 2341 H 222.279 -1.41782 1.48617 0
M  V30 2342 H 220.509 -3.81826 0.611999 0
M  V30 2343 H 222.198 -3.92986 1.01573 0
M  V30 2344 H 222.964 -3.41389 3.44498 0
M  V30 2345 H 218.843 -3.966 2.35009 0
M  V30 2346 H 222.387 -3.8746 5.80104 0
M  V30 2347 H 218.284 -4.42761 4.69716 0
M  V30 2348 H 219.052 -4.60717 6.76522 0
M  V30 2349 N 221.715 -0.905404 -1.28997 0
M  V30 2350 C 222.94 -0.549175 -1.99997 0
M  V30 2351 C 223.365 0.860276 -1.67275 0
M  V30 2352 O 222.723 1.57355 -0.900502 0
M  V30 2353 C 222.771 -0.755185 -3.52604 0
M  V30 2354 O 221.875 0.189692 -4.11964 0
M  V30 2355 H 221.216 -0.213899 -0.628604 0
M  V30 2356 H 223.746 -1.21856 -1.64354 0
M  V30 2357 H 223.756 -0.662045 -4.02593 0
M  V30 2358 H 222.431 -1.78271 -3.75755 0
M  V30 2359 H 221.008 0.0485257 -3.72868 0
M  V30 2360 N 223.193 1.4272 -0.668489 0
M  V30 2361 C 224.156 2.292 0.00448567 0
M  V30 2362 C 225.156 1.43001 0.735339 0
M  V30 2363 O 226.346 1.64461 0.57429 0
M  V30 2364 C 223.478 3.25375 1.01705 0
M  V30 2365 H 224.671 2.90199 -0.756608 0
M  V30 2366 H 222.224 1.50254 -0.430506 0
M  V30 2367 H 222.959 2.69301 1.80686 0
M  V30 2368 H 222.744 3.88944 0.496463 0
M  V30 2369 H 224.234 3.90245 1.48655 0
M  V30 2370 N 224.671 0.411399 1.52136 0
M  V30 2371 C 225.896 -0.165538 2.06738 0
M  V30 2372 C 226.321 -1.379 1.27926 0
M  V30 2373 O 225.679 -1.78628 0.310114 0
M  V30 2374 C 225.727 -0.492124 3.57226 0
M  V30 2375 O 224.831 -1.58276 3.80818 0
M  V30 2376 H 224.172 -0.0132132 0.663869 0
M  V30 2377 H 226.702 0.585253 1.96051 0
M  V30 2378 H 226.712 -0.750104 4.01045 0
M  V30 2379 H 225.387 0.394922 4.14021 0
M  V30 2380 H 223.964 -1.31677 3.48877 0
M  V30 2381 N 226.149 -1.5696 0.141893 0
M  V30 2382 C 227.081 -2.13619 -0.830627 0
M  V30 2383 C 228.094 -1.08439 -1.21428 0
M  V30 2384 O 229.283 -1.35734 -1.15925 0
M  V30 2385 C 226.383 -2.63978 -2.12529 0
M  V30 2386 C 225.556 -3.93504 -1.9098 0
M  V30 2387 C 224.615 -4.29225 -3.04388 0
M  V30 2388 O 223.641 -4.97641 -2.76302 0
M  V30 2389 N 224.843 -3.88393 -4.31429 0
M  V30 2390 H 227.608 -2.97691 -0.34641 0
M  V30 2391 H 225.169 -1.61846 -0.0418375 0
M  V30 2392 H 227.161 -2.84891 -2.87436 0
M  V30 2393 H 225.731 -1.84659 -2.52229 0
M  V30 2394 H 224.951 -3.81269 -1.00139 0
M  V30 2395 H 226.239 -4.78154 -1.73914 0
M  V30 2396 H 225.637 -3.33257 -4.57117 0
M  V30 2397 H 224.194 -4.14368 -5.03133 0
M  V30 2398 N 227.627 0.131896 -1.57047 0
M  V30 2399 C 228.875 0.840269 -1.83804 0
M  V30 2400 C 229.196 1.81017 -0.72512 0
M  V30 2401 O 228.466 1.94272 0.251995 0
M  V30 2402 H 227.046 0.313294 -0.678127 0
M  V30 2403 H 229.708 0.122294 -1.94516 0
M  V30 2404 H 228.804 1.39335 -2.79271 0
M  V30 2405 N 229.106 1.52395 0.401703 0
M  V30 2406 C 230.352 1.67065 1.14966 0
M  V30 2407 C 230.685 0.403052 1.89971 0
M  V30 2408 O 229.96 -0.598774 1.85054 0
M  V30 2409 C 230.243 2.8975 2.13815 0
M  V30 2410 C 230.096 4.26578 1.42658 0
M  V30 2411 C 231.415 3.07965 3.14397 0
M  V30 2412 H 228.534 0.607968 0.416587 0
M  V30 2413 H 231.176 1.84965 0.434511 0
M  V30 2414 H 229.326 2.74619 2.74803 0
M  V30 2415 H 230.998 4.53451 0.847329 0
M  V30 2416 H 229.241 4.27639 0.72849 0
M  V30 2417 H 229.912 5.08483 2.14823 0
M  V30 2418 H 232.388 3.22043 2.63491 0
M  V30 2419 H 231.264 3.95308 3.80819 0
M  V30 2420 H 231.525 2.21611 3.82545 0
M  V30 2421 N 230.584 -0.659388 1.43143 0
M  V30 2422 C 231.532 -1.79374 1.4808 0
M  V30 2423 C 232.526 -1.65639 0.354988 0
M  V30 2424 O 233.732 -1.7206 0.528704 0
M  V30 2425 H 230.107 -0.591705 0.4641 0
M  V30 2426 H 232.078 -1.72329 2.43609 0
M  V30 2427 C 230.827 -3.17606 1.41499 0
M  V30 2428 H 230.15 -3.28809 2.27431 0
M  V30 2429 H 231.59 -3.96951 1.49015 0
M  V30 2430 C 230.049 -3.36642 0.131765 0
M  V30 2431 O 230.579 -3.93461 -0.809386 0
M  V30 2432 N 228.785 -2.90567 0.0439396 0
M  V30 2433 H 228.332 -2.44513 0.810619 0
M  V30 2434 H 228.29 -3.03681 -0.813969 0
M  V30 2435 N 232.062 -1.29571 -0.897171 0
M  V30 2436 C 233.302 -1.18959 -1.66217 0
M  V30 2437 C 233.666 0.254271 -1.90309 0
M  V30 2438 O 234.867 0.483407 -2.64417 0
M  V30 2439 C 233.138 -1.98302 -2.9734 0
M  V30 2440 S 234.697 -2.04253 -3.88364 0
M  V30 2441 H 231.515 -0.424137 -0.570639 0
M  V30 2442 H 234.117 -1.6389 -1.06585 0
M  V30 2443 H 232.821 -3.02342 -2.77521 0
M  V30 2444 H 232.352 -1.53986 -3.62011 0
M  V30 2445 H 234.367 -1.16105 -4.82425 0
M  V30 2446 N 233.54 1.10788 -1.12088 0
M  V30 2447 C 234.789 1.82036 -0.868659 0
M  V30 2448 C 235.102 1.85929 0.607426 0
M  V30 2449 O 236.308 2.53346 0.97613 0
M  V30 2450 C 234.764 3.26951 -1.50435 0
M  V30 2451 C 234.372 3.31367 -3.01496 0
M  V30 2452 C 236.116 4.03053 -1.33225 0
M  V30 2453 C 234.023 4.7072 -3.58017 0
M  V30 2454 H 232.953 0.682108 -0.321318 0
M  V30 2455 H 235.604 1.24618 -1.34694 0
M  V30 2456 H 233.986 3.84343 -0.953735 0
M  V30 2457 H 235.16 2.83819 -3.6302 0
M  V30 2458 H 233.475 2.6875 -3.18061 0
M  V30 2459 H 236.072 5.05981 -1.72878 0
M  V30 2460 H 236.415 4.15387 -0.275529 0
M  V30 2461 H 236.948 3.52066 -1.85188 0
M  V30 2462 H 233.687 4.63585 -4.63432 0
M  V30 2463 H 233.207 5.1865 -3.01268 0
M  V30 2464 H 234.886 5.39685 -3.56859 0
M  V30 2465 N 235.018 0.912232 1.28515 0
M  V30 2466 C 236.434 0.610159 1.47476 0
M  V30 2467 C 236.634 -0.844955 1.82928 0
M  V30 2468 O 235.69 -1.62416 1.93332 0
M  V30 2469 C 237.003 1.54675 2.57868 0
M  V30 2470 C 238.551 1.55331 2.71738 0
M  V30 2471 C 239.026 2.47649 3.85272 0
M  V30 2472 N 240.517 2.45767 3.92623 0
M  V30 2473 C 241.252 3.13896 4.79851 0
M  V30 2474 N 240.748 3.9135 5.71679 0
M  V30 2475 N 242.541 3.02991 4.73448 0
M  V30 2476 H 234.692 1.85318 1.03783 0
M  V30 2477 H 236.955 0.794777 0.516753 0
M  V30 2478 H 236.661 2.5841 2.38574 0
M  V30 2479 H 236.535 1.27671 3.54937 0
M  V30 2480 H 238.922 0.52335 2.90422 0
M  V30 2481 H 239.003 1.86378 1.75205 0
M  V30 2482 H 238.647 3.50745 3.67342 0
M  V30 2483 H 238.577 2.13904 4.81199 0
M  V30 2484 H 241.068 1.89503 3.26951 0
M  V30 2485 H 241.381 4.40359 6.35062 0
M  V30 2486 H 239.726 3.95455 5.71524 0
M  V30 2487 H 242.917 2.41987 4.007 0
M  V30 2488 H 243.09 3.5636 5.41213 0
M  V30 2489 N 236.496 -1.42363 0.676048 0
M  V30 2490 C 237.406 -2.346 -0.00153389 0
M  V30 2491 C 238.422 -1.5516 -0.787485 0
M  V30 2492 O 239.598 -1.87723 -0.729521 0
M  V30 2493 C 236.663 -3.33705 -0.940298 0
M  V30 2494 C 235.724 -4.29042 -0.148739 0
M  V30 2495 C 234.957 -5.23413 -1.04279 0
M  V30 2496 O 235.18 -5.22749 -2.28232 0
M  V30 2497 O 234.114 -5.99795 -0.502925 0
M  V30 2498 H 237.94 -2.94082 0.758268 0
M  V30 2499 H 235.525 -1.42888 0.436289 0
M  V30 2500 H 237.407 -3.94586 -1.47917 0
M  V30 2501 H 236.082 -2.76695 -1.67993 0
M  V30 2502 H 234.989 -3.71571 0.43427 0
M  V30 2503 H 236.322 -4.89097 0.551805 0
M  V30 2504 N 237.974 -0.419461 -1.51915 0
M  V30 2505 C 239.251 0.211999 -1.94448 0
M  V30 2506 C 239.631 1.61703 -1.35703 0
M  V30 2507 O 238.979 2.22102 -0.536931 0
M  V30 2508 C 239.189 0.207872 -3.4838 0
M  V30 2509 C 240.537 0.422192 -4.22496 0
M  V30 2510 O 241.561 0.286778 -3.55044 0
M  V30 2511 O 240.42 0.690009 -5.42126 0
M  V30 2512 H 237.514 0.139586 -0.815135 0
M  V30 2513 H 240.06 -0.476151 -1.62883 0
M  V30 2514 H 238.832 -0.775102 -3.83546 0
M  V30 2515 H 238.455 0.939688 -3.86336 0
M  V30 2516 N 239.452 1.56882 -0.150215 0
M  V30 2517 C 240.698 1.96518 0.500834 0
M  V30 2518 C 241.031 1.03527 1.64304 0
M  V30 2519 O 240.306 0.0782751 1.94342 0
M  V30 2520 C 240.589 3.45822 1.00395 0
M  V30 2521 C 240.442 4.49591 -0.136983 0
M  V30 2522 C 241.761 3.97704 1.88467 0
M  V30 2523 H 238.88 0.714535 0.18058 0
M  V30 2524 H 241.522 1.88577 -0.232091 0
M  V30 2525 H 239.672 3.5272 1.62851 0
M  V30 2526 H 241.344 4.5477 -0.77343 0
M  V30 2527 H 239.587 4.26441 -0.795652 0
M  V30 2528 H 240.258 5.51402 0.256815 0
M  V30 2529 H 242.734 3.93304 1.35834 0
M  V30 2530 H 241.61 5.0263 2.20578 0
M  V30 2531 H 241.871 3.40252 2.82279 0
M  V30 2532 N 240.93 -0.123565 1.57115 0
M  V30 2533 C 241.893 -1.13583 1.99076 0
M  V30 2534 C 242.893 -1.34564 0.880296 0
M  V30 2535 O 244.083 -1.31158 1.14644 0
M  V30 2536 C 241.215 -2.49128 2.32698 0
M  V30 2537 H 242.408 -0.775287 2.89706 0
M  V30 2538 H 239.961 -0.36771 1.51913 0
M  V30 2539 H 240.696 -2.90111 1.44934 0
M  V30 2540 H 240.481 -2.35255 3.13684 0
M  V30 2541 H 241.971 -3.2199 2.65918 0
M  V30 2542 N 242.408 -1.52605 -0.393616 0
M  V30 2543 C 243.371 -1.76415 -1.46323 0
M  V30 2544 C 244.371 -0.634126 -1.47768 0
M  V30 2545 O 245.561 -0.902142 -1.4902 0
M  V30 2546 C 242.693 -1.8607 -2.85641 0
M  V30 2547 H 243.886 -2.71916 -1.26498 0
M  V30 2548 H 241.439 -1.43257 -0.625073 0
M  V30 2549 H 242.174 -0.925378 -3.10817 0
M  V30 2550 H 241.959 -2.68235 -2.85993 0
M  V30 2551 H 243.449 -2.06179 -3.63153 0
M  V30 2552 N 243.887 0.651787 -1.4349 0
M  V30 2553 C 245.117 1.43728 -1.48411 0
M  V30 2554 C 245.525 1.8893 -0.10103 0
M  V30 2555 O 244.868 1.60182 0.899307 0
M  V30 2556 C 244.93 2.70411 -2.36893 0
M  V30 2557 C 244.594 2.4714 -3.8441 0
M  V30 2558 C 245.591 2.10271 -4.75481 0
M  V30 2559 C 243.276 2.6142 -4.28912 0
M  V30 2560 C 245.27 1.87982 -6.0905 0
M  V30 2561 C 242.957 2.38746 -5.62533 0
M  V30 2562 C 243.955 2.02083 -6.5242 0
M  V30 2563 O 243.643 1.79647 -7.8357 0
M  V30 2564 H 243.375 0.447962 -0.506267 0
M  V30 2565 H 245.929 0.80624 -1.88915 0
M  V30 2566 H 244.159 3.36079 -1.91278 0
M  V30 2567 H 245.848 3.32364 -2.33 0
M  V30 2568 H 246.614 1.98814 -4.42378 0
M  V30 2569 H 242.493 2.88931 -3.59222 0
M  V30 2570 H 246.037 1.5929 -6.7917 0
M  V30 2571 H 241.934 2.49806 -5.95203 0
M  V30 2572 H 242.702 1.9406 -7.95162 0
M  V30 2573 N 245.365 1.30045 0.890287 0
M  V30 2574 C 246.614 1.17929 1.63633 0
M  V30 2575 C 246.927 -0.266204 1.9378 0
M  V30 2576 O 248.133 -0.508804 2.6669 0
M  V30 2577 C 246.589 2.06317 2.94892 0
M  V30 2578 C 246.197 3.55745 2.72305 0
M  V30 2579 C 247.941 2.0295 3.72843 0
M  V30 2580 C 245.848 4.36205 3.99348 0
M  V30 2581 H 244.778 0.437782 0.613892 0
M  V30 2582 H 247.429 1.54754 0.986075 0
M  V30 2583 H 245.811 1.6237 3.61182 0
M  V30 2584 H 246.985 4.07805 2.1455 0
M  V30 2585 H 245.3 3.6088 2.07737 0
M  V30 2586 H 247.897 2.60319 4.67053 0
M  V30 2587 H 248.24 1.0117 4.0382 0
M  V30 2588 H 248.773 2.4499 3.13408 0
M  V30 2589 H 245.512 5.38659 3.73533 0
M  V30 2590 H 245.032 3.8891 4.56628 0
M  V30 2591 H 246.711 4.47362 4.67415 0
M  V30 2592 N 246.843 -1.10192 1.12674 0
M  V30 2593 C 248.071 -1.85983 0.906527 0
M  V30 2594 C 248.486 -1.80783 -0.544333 0
M  V30 2595 O 247.843 -1.19834 -1.37645 0
M  V30 2596 C 247.894 -3.34281 1.37618 0
M  V30 2597 O 247.615 -3.39401 2.77017 0
M  V30 2598 C 249.116 -4.26938 1.19325 0
M  V30 2599 H 246.336 -0.587716 0.323775 0
M  V30 2600 H 248.88 -1.39284 1.49734 0
M  V30 2601 H 247.035 -3.78436 0.828539 0
M  V30 2602 H 247.449 -4.31838 2.97684 0
M  V30 2603 H 248.923 -5.29181 1.57071 0
M  V30 2604 H 249.4 -4.38995 0.134097 0
M  V30 2605 H 250.006 -3.8859 1.72852 0
M  V30 2606 N 248.321 -0.919034 -1.28029 0
M  V30 2607 C 249.737 -0.617972 -1.4715 0
M  V30 2608 C 249.937 0.835242 -1.83374 0
M  V30 2609 O 248.993 1.61388 -1.94191 0
M  V30 2610 C 250.306 -1.56041 -2.57044 0
M  V30 2611 C 251.854 -1.56769 -2.7091 0
M  V30 2612 C 252.329 -2.49688 -3.83953 0
M  V30 2613 N 253.82 -2.47845 -3.91314 0
M  V30 2614 C 254.555 -3.16437 -4.78179 0
M  V30 2615 N 254.051 -3.94376 -5.69596 0
M  V30 2616 N 255.844 -3.05498 -4.71834 0
M  V30 2617 H 247.995 -1.85866 -1.02798 0
M  V30 2618 H 250.258 -0.797506 -0.512531 0
M  V30 2619 H 249.964 -2.59671 -2.372 0
M  V30 2620 H 249.838 -1.29551 -3.54255 0
M  V30 2621 H 252.225 -0.538745 -2.90141 0
M  V30 2622 H 252.306 -1.87305 -1.74214 0
M  V30 2623 H 251.95 -3.52688 -3.65477 0
M  V30 2624 H 251.88 -2.16453 -4.80058 0
M  V30 2625 H 254.371 -1.91234 -3.25941 0
M  V30 2626 H 254.684 -4.43721 -6.32718 0
M  V30 2627 H 253.029 -3.98481 -5.69419 0
M  V30 2628 H 256.22 -2.44108 -3.99411 0
M  V30 2629 H 256.393 -3.59225 -5.39316 0
M  V30 2630 N 249.799 1.42003 -0.683588 0
M  V30 2631 C 251.215 1.55625 -0.353976 0
M  V30 2632 C 251.415 1.66151 1.14 0
M  V30 2633 O 250.471 1.63329 1.92561 0
M  V30 2634 C 251.784 2.80171 -1.092 0
M  V30 2635 C 253.332 2.93954 -1.07518 0
M  V30 2636 C 253.807 4.21372 -1.79471 0
M  V30 2637 N 255.298 4.28303 -1.76381 0
M  V30 2638 C 256.033 5.25729 -2.28904 0
M  V30 2639 N 255.529 6.29254 -2.89846 0
M  V30 2640 N 257.322 5.17586 -2.19228 0
M  V30 2641 H 249.473 1.33415 -1.6527 0
M  V30 2642 H 251.736 0.64282 -0.696769 0
M  V30 2643 H 251.442 2.78561 -2.14701 0
M  V30 2644 H 251.316 3.7133 -0.662862 0
M  V30 2645 H 253.703 2.95086 -0.028475 0
M  V30 2646 H 253.784 2.04002 -1.54328 0
M  V30 2647 H 253.428 4.21001 -2.84114 0
M  V30 2648 H 253.358 5.10275 -1.30104 0
M  V30 2649 H 255.849 3.54119 -1.31939 0
M  V30 2650 H 256.162 6.99964 -3.27522 0
M  V30 2651 H 254.507 6.29791 -2.93919 0
M  V30 2652 H 257.698 4.35631 -1.71299 0
M  V30 2653 H 257.871 5.93348 -2.60466 0
M  V30 2654 N 251.277 0.427512 1.51691 0
M  V30 2655 C 252.554 -0.201684 1.94557 0
M  V30 2656 C 252.934 -1.60981 1.36559 0
M  V30 2657 O 252.282 -2.21814 0.548702 0
M  V30 2658 C 252.492 -0.189394 3.48486 0
M  V30 2659 C 253.84 -0.39978 4.22714 0
M  V30 2660 O 254.864 -0.267945 3.55191 0
M  V30 2661 O 253.723 -0.661249 5.42485 0
M  V30 2662 H 250.817 -0.135261 0.815864 0
M  V30 2663 H 253.363 0.484782 1.62628 0
M  V30 2664 H 252.135 0.795431 3.8313 0
M  V30 2665 H 251.758 -0.919187 3.86829 0
M  V30 2666 N 252.755 -1.56801 0.158532 0
M  V30 2667 C 254.003 -1.96102 -0.488712 0
M  V30 2668 C 254.324 -1.04498 -1.64636 0
M  V30 2669 O 253.594 -0.108783 -1.95598 0
M  V30 2670 H 252.174 -0.724102 -0.183535 0
M  V30 2671 H 254.836 -1.93457 0.236728 0
M  V30 2672 H 253.932 -3.00097 -0.857219 0
M  V30 2673 N 254.233 0.115231 -1.57178 0
M  V30 2674 C 255.481 0.820727 -1.84685 0
M  V30 2675 C 255.802 1.80237 -0.744279 0
M  V30 2676 O 255.072 1.94529 0.231375 0
M  V30 2677 H 253.652 0.306084 -0.681411 0
M  V30 2678 H 256.314 0.101656 -1.94635 0
M  V30 2679 H 255.41 1.36366 -2.80733 0
M  V30 2680 N 255.711 1.52812 0.385517 0
M  V30 2681 C 256.957 1.68275 1.13188 0
M  V30 2682 C 257.29 0.423179 1.89533 0
M  V30 2683 O 256.565 -0.579113 1.85679 0
M  V30 2684 C 256.848 2.92001 2.1073 0
M  V30 2685 C 256.701 4.28067 1.38125 0
M  V30 2686 C 258.02 3.11283 3.11113 0
M  V30 2687 H 255.139 0.612352 0.410115 0
M  V30 2688 H 257.781 1.85415 0.414869 0
M  V30 2689 H 255.931 2.77519 2.71874 0
M  V30 2690 H 257.603 4.54324 0.799187 0
M  V30 2691 H 255.846 4.28388 0.683092 0
M  V30 2692 H 256.517 5.10733 2.09417 0
M  V30 2693 H 258.993 3.2482 2.6006 0
M  V30 2694 H 257.869 3.99325 3.76605 0
M  V30 2695 H 258.13 2.25656 3.80173 0
M  V30 2696 N 257.189 -0.644168 1.43834 0
M  V30 2697 C 258.6 -1.22554 1.40845 0
M  V30 2698 C 258.951 -1.9585 0.117115 0
M  V30 2699 O 258.076 -2.01734 -0.783086 0
M  V30 2700 C 258.671 -2.22907 2.55143 0
M  V30 2701 C 257.23 -2.76501 2.5539 0
M  V30 2702 C 256.377 -1.51287 2.32396 0
M  V30 2703 H 259.328 -0.43563 1.52604 0
M  V30 2704 H 259.349 -3.05259 2.2715 0
M  V30 2705 H 258.861 -1.69533 3.49114 0
M  V30 2706 H 256.962 -3.33914 1.65324 0
M  V30 2707 H 257.075 -3.23429 3.53455 0
M  V30 2708 H 255.439 -1.78957 1.81236 0
M  V30 2709 H 256.222 -0.998336 3.28463 0
M  V30 2710 N 258.668 -1.30515 -0.883378 0
M  V30 2711 C 259.631 -1.1701 -1.97082 0
M  V30 2712 C 260.631 -0.10089 -1.60483 0
M  V30 2713 O 261.821 -0.349127 -1.70666 0
M  V30 2714 C 258.953 -0.793045 -3.31547 0
M  V30 2715 H 260.146 -2.13622 -2.10489 0
M  V30 2716 H 257.699 -1.13935 -1.06998 0
M  V30 2717 H 258.434 0.172499 -3.23841 0
M  V30 2718 H 258.219 -1.56576 -3.5948 0
M  V30 2719 H 259.709 -0.722073 -4.1131 0
M  V30 2720 N 260.146 1.09593 -1.13257 0
M  V30 2721 C 261.423 1.78293 -0.804432 0
M  V30 2722 C 261.803 1.99004 0.70431 0
M  V30 2723 O 261.151 1.59007 1.641 0
M  V30 2724 C 261.361 3.10707 -1.5894 0
M  V30 2725 C 262.709 3.85443 -1.78099 0
M  V30 2726 O 263.733 3.20454 -1.55525 0
M  V30 2727 O 262.592 5.02108 -2.15753 0
M  V30 2728 H 259.686 0.773156 -0.293528 0
M  V30 2729 H 262.232 1.16164 -1.23709 0
M  V30 2730 H 261.004 2.91106 -2.61482 0
M  V30 2731 H 260.627 3.80558 -1.15157 0
M  V30 2732 N 261.624 0.925811 1.2754 0
M  V30 2733 C 263.035 0.610102 1.7645 0
M  V30 2734 C 263.386 -0.874723 1.75622 0
M  V30 2735 O 262.511 -1.68444 1.35851 0
M  V30 2736 C 263.106 1.10073 3.20421 0
M  V30 2737 C 261.665 0.835723 3.67005 0
M  V30 2738 C 260.812 1.26054 2.46993 0
M  V30 2739 H 263.763 1.10579 1.13833 0
M  V30 2740 H 263.784 0.447557 3.77859 0
M  V30 2741 H 263.296 2.18143 3.20991 0
M  V30 2742 H 261.397 -0.231249 3.71882 0
M  V30 2743 H 261.51 1.45193 4.56569 0
M  V30 2744 H 259.874 0.679111 2.45479 0
M  V30 2745 H 260.657 2.34984 2.50275 0
M  V30 2746 N 263.102 -1.41638 0.69111 0
M  V30 2747 C 264.379 -1.95036 0.148421 0
M  V30 2748 C 264.759 -1.63072 -1.34055 0
M  V30 2749 O 264.107 -0.93538 -2.08478 0
M  V30 2750 C 264.317 -3.46279 0.434951 0
M  V30 2751 C 265.665 -4.23069 0.360275 0
M  V30 2752 O 266.689 -3.54277 0.369613 0
M  V30 2753 O 265.548 -5.45583 0.316534 0
M  V30 2754 H 262.642 -0.826908 0.0123654 0
M  V30 2755 H 265.188 -1.5138 0.766963 0
M  V30 2756 H 263.96 -3.6281 1.46576 0
M  V30 2757 H 263.583 -3.97019 -0.214787 0
M  V30 2758 N 264.58 -0.43555 -1.51462 0
M  V30 2759 C 265.528 0.391205 -2.29287 0
M  V30 2760 C 266.522 1.02247 -1.35062 0
M  V30 2761 O 267.728 0.957646 -1.52411 0
M  V30 2762 H 264.103 0.144968 -0.737895 0
M  V30 2763 H 266.074 -0.286051 -2.97026 0
M  V30 2764 C 264.823 1.48096 -3.14583 0
M  V30 2765 H 264.146 1.00457 -3.86973 0
M  V30 2766 H 265.586 2.03273 -3.72097 0
M  V30 2767 C 264.045 2.46321 -2.29843 0
M  V30 2768 O 264.575 3.50815 -1.95682 0
M  V30 2769 N 262.781 2.17166 -1.931 0
M  V30 2770 H 262.328 1.32218 -2.21079 0
M  V30 2771 H 262.286 2.83127 -1.36698 0
M  V30 2772 N 266.058 1.56714 -0.166846 0
M  V30 2773 C 267.307 1.95922 0.479318 0
M  V30 2774 C 267.62 1.05529 1.6469 0
M  V30 2775 O 268.826 1.34399 2.35901 0
M  V30 2776 C 267.282 3.48359 0.90412 0
M  V30 2777 C 266.89 4.47369 -0.237621 0
M  V30 2778 C 268.634 3.96394 1.51896 0
M  V30 2779 C 266.541 5.91039 0.206561 0
M  V30 2780 H 265.471 0.731495 0.18284 0
M  V30 2781 H 268.122 1.81728 -0.254363 0
M  V30 2782 H 266.504 3.57955 1.69365 0
M  V30 2783 H 267.678 4.49485 -1.01489 0
M  V30 2784 H 265.993 4.09366 -0.762128 0
M  V30 2785 H 268.59 5.01186 1.86325 0
M  V30 2786 H 268.933 3.39075 2.41524 0
M  V30 2787 H 269.466 3.89796 0.79395 0
M  V30 2788 H 266.205 6.52221 -0.654834 0
M  V30 2789 H 265.725 5.9224 0.949282 0
M  V30 2790 H 267.404 6.43707 0.651939 0
M  V30 2791 N 267.536 -0.106894 1.57237 0
M  V30 2792 C 268.766 -0.825191 1.89405 0
M  V30 2793 C 269.174 -1.73374 0.757496 0
M  V30 2794 O 268.517 -1.81552 -0.280115 0
M  V30 2795 C 268.579 -1.70102 3.1671 0
M  V30 2796 C 268.243 -0.965523 4.46684 0
M  V30 2797 C 269.24 -0.300741 5.19029 0
M  V30 2798 C 266.925 -0.943105 4.93367 0
M  V30 2799 C 268.919 0.376622 6.36286 0
M  V30 2800 C 266.606 -0.261949 6.10538 0
M  V30 2801 C 267.604 0.396748 6.81847 0
M  V30 2802 O 267.292 1.06701 7.96787 0
M  V30 2803 H 267.024 -0.241852 0.631255 0
M  V30 2804 H 269.578 -0.0921491 2.05193 0
M  V30 2805 H 267.808 -2.47601 2.97036 0
M  V30 2806 H 269.497 -2.29483 3.34802 0
M  V30 2807 H 270.263 -0.309599 4.84011 0
M  V30 2808 H 266.142 -1.44524 4.3776 0
M  V30 2809 H 269.686 0.891334 6.91882 0
M  V30 2810 H 265.583 -0.250896 6.45012 0
M  V30 2811 H 266.351 0.972707 8.127 0
M  V30 2812 N 269.014 -1.53014 -0.377408 0
M  V30 2813 C 269.944 -1.81589 -1.46791 0
M  V30 2814 C 270.925 -0.668622 -1.56408 0
M  V30 2815 O 272.11 -0.917337 -1.71168 0
M  V30 2816 C 269.24 -1.99519 -2.8427 0
M  V30 2817 C 268.194 -3.15249 -2.89486 0
M  V30 2818 C 267.52 -3.18451 -4.29527 0
M  V30 2819 C 268.82 -4.54084 -2.58079 0
M  V30 2820 H 270.514 -2.7291 -1.23127 0
M  V30 2821 H 268.06 -1.31319 -0.590883 0
M  V30 2822 H 270.013 -2.18092 -3.60575 0
M  V30 2823 H 268.737 -1.04897 -3.09296 0
M  V30 2824 H 267.396 -2.96477 -2.15631 0
M  V30 2825 H 267.044 -2.2149 -4.5161 0
M  V30 2826 H 266.744 -3.962 -4.33934 0
M  V30 2827 H 268.268 -3.39193 -5.07721 0
M  V30 2828 H 269.682 -4.72899 -3.24098 0
M  V30 2829 H 268.079 -5.33987 -2.7382 0
M  V30 2830 H 269.149 -4.60006 -1.53372 0
M  V30 2831 N 270.492 0.636531 -1.44174 0
M  V30 2832 C 271.72 1.42353 -1.50144 0
M  V30 2833 C 272.135 1.88389 -0.124575 0
M  V30 2834 O 271.492 1.6051 0.868489 0
M  V30 2835 C 271.543 2.64744 -2.46156 0
M  V30 2836 O 271.264 2.20629 -3.7849 0
M  V30 2837 C 272.765 3.57929 -2.61537 0
M  V30 2838 H 269.985 0.436752 -0.5094 0
M  V30 2839 H 272.529 0.778933 -1.89084 0
M  V30 2840 H 270.684 3.25307 -2.10366 0
M  V30 2841 H 271.098 2.99938 -4.30276 0
M  V30 2842 H 272.572 4.40428 -3.32757 0
M  V30 2843 H 273.049 4.06382 -1.66585 0
M  V30 2844 H 273.655 3.03238 -2.98206 0
M  V30 2845 N 271.97 1.30982 0.876444 0
M  V30 2846 C 273.198 1.23242 1.6619 0
M  V30 2847 C 273.613 -0.203345 1.87702 0
M  V30 2848 O 272.97 -1.13317 1.43057 0
M  V30 2849 C 273.021 1.96623 3.03351 0
M  V30 2850 O 272.742 3.34594 2.82804 0
M  V30 2851 C 274.243 1.95644 3.97792 0
M  V30 2852 H 271.463 0.426126 0.518322 0
M  V30 2853 H 274.007 1.7275 1.09442 0
M  V30 2854 H 272.162 1.50892 3.56806 0
M  V30 2855 H 272.576 3.71873 3.69879 0
M  V30 2856 H 274.05 2.51511 4.91372 0
M  V30 2857 H 274.527 0.937395 4.2908 0
M  V30 2858 H 275.133 2.41225 3.50272 0
M  V30 2859 N 273.449 -1.08991 1.13837 0
M  V30 2860 C 274.697 -1.80899 0.901098 0
M  V30 2861 C 275.018 -1.86356 -0.574134 0
M  V30 2862 O 274.288 -1.35235 -1.41733 0
M  V30 2863 H 272.868 -0.669966 0.330386 0
M  V30 2864 H 275.53 -1.318 1.43578 0
M  V30 2865 H 274.626 -2.83929 1.29578 0
M  V30 2866 N 274.927 -0.932562 -1.27047 0
M  V30 2867 C 275.89 -0.440064 -2.24936 0
M  V30 2868 C 276.89 0.444071 -1.54547 0
M  V30 2869 O 278.08 0.244465 -1.72476 0
M  V30 2870 C 275.212 0.36678 -3.38921 0
M  V30 2871 H 276.405 -1.305 -2.70018 0
M  V30 2872 H 273.958 -0.713707 -1.39054 0
M  V30 2873 H 274.693 1.25033 -2.99228 0
M  V30 2874 H 274.478 -0.267204 -3.91188 0
M  V30 2875 H 275.968 0.701567 -4.11665 0
M  V30 2876 N 276.405 1.4127 -0.698611 0
M  V30 2877 C 277.63 2.06024 -0.238512 0
M  V30 2878 C 278.055 1.5224 1.10475 0
M  V30 2879 O 277.413 0.650623 1.69223 0
M  V30 2880 C 277.461 3.59988 -0.209952 0
M  V30 2881 O 276.565 4.04282 0.814235 0
M  V30 2882 H 275.906 0.653829 -0.115775 0
M  V30 2883 H 278.436 1.8098 -0.954326 0
M  V30 2884 H 278.446 4.07979 -0.0418436 0
M  V30 2885 H 277.121 3.98503 -1.1903 0
M  V30 2886 H 275.698 3.6779 0.615234 0
M  V30 2887 N 277.883 0.443576 1.51229 0
M  V30 2888 C 279.16 -0.181038 1.9476 0
M  V30 2889 C 279.54 -1.59523 1.38259 0
M  V30 2890 O 278.888 -2.2122 0.572198 0
M  V30 2891 C 279.098 -0.152422 3.48667 0
M  V30 2892 C 280.446 -0.354923 4.23114 0
M  V30 2893 O 281.47 -0.230257 3.55455 0
M  V30 2894 O 280.329 -0.603674 5.43156 0
M  V30 2895 H 277.423 -0.1266 0.817252 0
M  V30 2896 H 279.969 0.502004 1.62105 0
M  V30 2897 H 278.741 0.836022 3.82265 0
M  V30 2898 H 278.364 -0.878107 3.87782 0
M  V30 2899 N 279.361 -1.56624 0.175154 0
M  V30 2900 C 280.609 -1.96609 -0.467885 0
M  V30 2901 C 280.93 -1.06238 -1.63519 0
M  V30 2902 O 280.2 -0.129523 -1.95471 0
M  V30 2903 H 278.78 -0.726008 -0.175845 0
M  V30 2904 H 281.442 -1.93195 0.257234 0
M  V30 2905 H 280.538 -3.00989 -0.825342 0
M  V30 2906 N 280.839 0.0985539 -1.57292 0
M  V30 2907 C 282.088 0.801358 -1.85098 0
M  V30 2908 C 282.401 1.80066 -0.763902 0
M  V30 2909 O 283.607 2.55112 -0.928981 0
M  V30 2910 C 282.063 1.47599 -3.28242 0
M  V30 2911 C 281.671 0.516624 -4.45011 0
M  V30 2912 C 283.415 2.16272 -3.65276 0
M  V30 2913 C 281.322 1.19564 -5.79188 0
M  V30 2914 H 280.252 0.303022 -0.69043 0
M  V30 2915 H 282.903 0.0542623 -1.8342 0
M  V30 2916 H 281.285 2.27042 -3.2445 0
M  V30 2917 H 282.459 -0.246065 -4.60143 0
M  V30 2918 H 280.774 -0.064227 -4.1635 0
M  V30 2919 H 283.371 2.67802 -4.62803 0
M  V30 2920 H 283.714 2.95009 -2.93727 0
M  V30 2921 H 284.247 1.43693 -3.70941 0
M  V30 2922 H 280.986 0.449157 -6.53959 0
M  V30 2923 H 280.506 1.92984 -5.67906 0
M  V30 2924 H 282.185 1.7231 -6.23633 0
M  V30 2925 N 282.317 1.53212 0.369288 0
M  V30 2926 C 283.542 1.73423 1.1375 0
M  V30 2927 C 283.967 0.460404 1.82378 0
M  V30 2928 O 283.325 -0.585298 1.71592 0
M  V30 2929 C 283.373 2.89769 2.1463 0
M  V30 2930 O 282.477 2.58119 3.21634 0
M  V30 2931 H 281.818 0.576061 0.330227 0
M  V30 2932 H 284.348 2.00083 0.427547 0
M  V30 2933 H 284.358 3.15829 2.58294 0
M  V30 2934 H 283.033 3.8217 1.64071 0
M  V30 2935 H 281.61 2.42864 2.82969 0
M  V30 2936 N 283.795 -0.628877 1.44509 0
M  V30 2937 C 285.023 -1.41554 1.50897 0
M  V30 2938 C 285.438 -1.8832 0.134564 0
M  V30 2939 O 284.795 -1.60969 -0.859965 0
M  V30 2940 C 284.846 -2.63435 2.47556 0
M  V30 2941 O 284.567 -2.18619 3.79654 0
M  V30 2942 C 286.068 -3.56537 2.63431 0
M  V30 2943 H 283.288 -0.434044 0.511709 0
M  V30 2944 H 285.832 -0.768895 1.89495 0
M  V30 2945 H 283.987 -3.24187 2.12089 0
M  V30 2946 H 284.401 -2.97652 4.31861 0
M  V30 2947 H 285.875 -4.38657 3.35088 0
M  V30 2948 H 286.352 -4.05493 1.68738 0
M  V30 2949 H 286.958 -3.01653 2.9981 0
M  V30 2950 N 285.273 -1.31445 -0.869486 0
M  V30 2951 C 286.522 -1.20517 -1.61736 0
M  V30 2952 C 286.835 0.235341 -1.94179 0
M  V30 2953 O 288.041 0.466312 -2.67465 0
M  V30 2954 C 286.497 -2.10982 -2.91573 0
M  V30 2955 C 286.105 -3.60032 -2.66611 0
M  V30 2956 C 287.849 -2.08856 -3.69567 0
M  V30 2957 C 285.756 -4.42503 -3.92358 0
M  V30 2958 H 284.686 -0.447493 -0.606849 0
M  V30 2959 H 287.337 -1.56303 -0.96133 0
M  V30 2960 H 285.719 -1.68095 -3.58553 0
M  V30 2961 H 286.893 -4.11167 -2.08035 0
M  V30 2962 H 285.208 -3.64139 -2.0197 0
M  V30 2963 H 287.805 -2.67716 -4.62852 0
M  V30 2964 H 288.148 -1.07582 -4.02159 0
M  V30 2965 H 288.681 -2.49945 -3.09471 0
M  V30 2966 H 285.42 -5.44533 -3.64916 0
M  V30 2967 H 284.94 -3.96125 -4.50383 0
M  V30 2968 H 286.619 -4.54741 -4.60238 0
M  V30 2969 N 286.751 1.08385 -1.14413 0
M  V30 2970 C 287.681 2.17321 -0.854044 0
M  V30 2971 C 288.662 1.69024 0.191049 0
M  V30 2972 O 289.847 1.94141 0.0476779 0
M  V30 2973 C 286.977 3.45719 -0.330983 0
M  V30 2974 C 285.931 4.07409 -1.31155 0
M  V30 2975 C 285.257 5.30762 -0.64778 0
M  V30 2976 C 286.557 4.48665 -2.67388 0
M  V30 2977 H 288.251 2.41845 -1.76498 0
M  V30 2978 H 285.797 1.16233 -0.850051 0
M  V30 2979 H 287.75 4.21241 -0.115645 0
M  V30 2980 H 286.474 3.2075 0.615381 0
M  V30 2981 H 285.133 3.33919 -1.51306 0
M  V30 2982 H 284.781 5.02078 0.304398 0
M  V30 2983 H 284.481 5.72992 -1.30207 0
M  V30 2984 H 286.005 6.08998 -0.441972 0
M  V30 2985 H 287.419 5.15364 -2.51143 0
M  V30 2986 H 285.816 5.01814 -3.29093 0
M  V30 2987 H 286.886 3.60543 -3.24248 0
M  V30 2988 N 288.23 0.939286 1.26551 0
M  V30 2989 C 289.177 0.446088 2.26448 0
M  V30 2990 C 290.147 -0.493234 1.58608 0
M  V30 2991 O 291.332 -0.409857 1.86346 0
M  V30 2992 C 288.472 -0.284375 3.43926 0
M  V30 2993 C 287.585 0.690399 4.26448 0
M  V30 2994 C 286.72 -0.0610712 5.31165 0
M  V30 2995 C 285.759 0.905649 6.05363 0
M  V30 2996 N 284.896 0.186055 7.01853 0
M  V30 2997 H 289.736 1.30291 2.68008 0
M  V30 2998 H 287.273 0.65371 1.31776 0
M  V30 2999 H 289.231 -0.724313 4.10864 0
M  V30 3000 H 287.861 -1.10535 3.03285 0
M  V30 3001 H 286.913 1.24885 3.59316 0
M  V30 3002 H 288.225 1.42873 4.779 0
M  V30 3003 H 287.379 -0.56038 6.04106 0
M  V30 3004 H 286.118 -0.832297 4.80546 0
M  V30 3005 H 285.123 1.4161 5.3125 0
M  V30 3006 H 286.348 1.67685 6.58072 0
M  V30 3007 H 284.294 -0.566714 6.53548 0
M  V30 3008 H 284.211 0.863752 7.51049 0
M  V30 3009 H 285.479 -0.292221 7.78952 0
M  V30 3010 N 289.708 -1.40897 0.706093 0
M  V30 3011 C 290.957 -2.00284 0.238574 0
M  V30 3012 C 291.27 -1.56604 -1.17194 0
M  V30 3013 O 292.476 -2.08624 -1.73748 0
M  V30 3014 C 290.932 -3.57934 0.375623 0
M  V30 3015 C 290.54 -4.10591 1.79217 0
M  V30 3016 C 292.284 -4.24488 -0.0315857 0
M  V30 3017 C 290.191 -5.60712 1.88032 0
M  V30 3018 H 289.121 -0.749144 0.0854398 0
M  V30 3019 H 291.772 -1.61251 0.875813 0
M  V30 3020 H 290.154 -3.94622 -0.330042 0
M  V30 3021 H 291.328 -3.85301 2.52745 0
M  V30 3022 H 289.643 -3.56601 2.15 0
M  V30 3023 H 292.24 -5.34698 0.0136842 0
M  V30 3024 H 292.583 -4.02261 -1.072 0
M  V30 3025 H 293.116 -3.92873 0.624181 0
M  V30 3026 H 289.855 -5.87781 2.90161 0
M  V30 3027 H 289.375 -5.87896 1.18903 0
M  V30 3028 H 291.054 -6.25658 1.64805 0
M  V30 3029 N 291.186 -0.45159 -1.50991 0
M  V30 3030 C 292.116 0.342898 -2.30969 0
M  V30 3031 C 293.097 1.00815 -1.37005 0
M  V30 3032 O 294.282 1.00907 -1.65926 0
M  V30 3033 C 291.412 1.43637 -3.16205 0
M  V30 3034 C 290.366 0.893818 -4.18563 0
M  V30 3035 C 289.692 2.08411 -4.92411 0
M  V30 3036 C 290.992 -0.0815568 -5.22236 0
M  V30 3037 H 292.686 -0.324556 -2.97636 0
M  V30 3038 H 290.232 -0.157531 -1.43136 0
M  V30 3039 H 292.185 1.9995 -3.70942 0
M  V30 3040 H 290.909 2.13232 -2.47386 0
M  V30 3041 H 289.568 0.352798 -3.64898 0
M  V30 3042 H 289.216 2.76658 -4.20082 0
M  V30 3043 H 288.916 1.72741 -5.61636 0
M  V30 3044 H 290.44 2.65251 -5.49976 0
M  V30 3045 H 291.854 0.391742 -5.7196 0
M  V30 3046 H 290.251 -0.351551 -5.99069 0
M  V30 3047 H 291.321 -1.01374 -4.74185 0
M  V30 3048 N 292.664 1.56529 -0.183458 0
M  V30 3049 C 293.91 1.97537 0.459036 0
M  V30 3050 C 294.243 1.06989 1.62071 0
M  V30 3051 O 293.518 0.11948 1.94133 0
M  V30 3052 C 293.801 3.47874 0.930368 0
M  V30 3053 C 293.654 4.492 -0.232317 0
M  V30 3054 C 294.973 4.01612 1.79989 0
M  V30 3055 H 292.092 0.718204 0.165383 0
M  V30 3056 H 294.734 1.88042 -0.272038 0
M  V30 3057 H 292.884 3.56095 1.55333 0
M  V30 3058 H 294.556 4.53027 -0.86972 0
M  V30 3059 H 292.799 4.24657 -0.885928 0
M  V30 3060 H 293.47 5.51823 0.139796 0
M  V30 3061 H 295.946 3.96097 1.27461 0
M  V30 3062 H 294.822 5.07195 2.09867 0
M  V30 3063 H 295.083 3.46163 2.74998 0
M  V30 3064 N 294.142 -0.090211 1.57342 0
M  V30 3065 C 295.367 -0.810082 1.90925 0
M  V30 3066 C 295.792 -1.71248 0.778187 0
M  V30 3067 O 295.15 -1.79278 -0.269991 0
M  V30 3068 C 295.198 -1.59529 3.23393 0
M  V30 3069 O 294.302 -2.70461 3.11327 0
M  V30 3070 H 293.643 -0.222231 0.625707 0
M  V30 3071 H 296.173 -0.0639716 2.045 0
M  V30 3072 H 296.183 -1.97847 3.5682 0
M  V30 3073 H 294.858 -0.933055 4.05299 0
M  V30 3074 H 293.435 -2.35135 2.89423 0
M  V30 3075 N 295.62 -1.53406 -0.361157 0
M  V30 3076 C 296.868 -1.69467 -1.10115 0
M  V30 3077 C 297.189 -0.451352 -1.89705 0
M  V30 3078 O 296.459 0.534636 -1.88463 0
M  V30 3079 H 295.039 -0.624749 -0.409508 0
M  V30 3080 H 297.701 -1.90609 -0.406699 0
M  V30 3081 H 296.797 -2.55774 -1.78847 0
M  V30 3082 N 297.098 0.621204 -1.44841 0
M  V30 3083 C 298.346 1.37783 -1.47852 0
M  V30 3084 C 298.667 1.94653 -0.116224 0
M  V30 3085 O 297.937 1.76367 0.852737 0
M  V30 3086 H 296.517 0.511453 -0.544449 0
M  V30 3087 H 299.179 0.730446 -1.80694 0
M  V30 3088 H 298.275 2.20414 -2.20961 0
M  V30 3089 N 298.576 1.31904 0.862503 0
M  V30 3090 C 299.824 1.21776 1.61292 0
M  V30 3091 C 300.145 -0.222413 1.93727 0
M  V30 3092 O 299.415 -1.1451 1.58947 0
M  V30 3093 H 297.995 0.447717 0.597962 0
M  V30 3094 H 300.657 1.65326 1.03215 0
M  V30 3095 H 299.753 1.7948 2.5533 0
M  V30 3096 N 300.054 -1.07777 1.14986 0
M  V30 3097 C 301.001 -2.14867 0.842672 0
M  V30 3098 C 301.971 -1.6486 -0.202552 0
M  V30 3099 O 303.156 -1.90668 -0.0710568 0
M  V30 3100 C 300.296 -3.43486 0.333363 0
M  V30 3101 C 299.409 -4.07306 1.43965 0
M  V30 3102 C 298.544 -5.23744 0.886914 0
M  V30 3103 C 297.583 -5.79517 1.97043 0
M  V30 3104 N 296.72 -6.87291 1.4344 0
M  V30 3105 H 301.56 -2.40485 1.75986 0
M  V30 3106 H 299.097 -1.1801 0.878179 0
M  V30 3107 H 301.055 -4.17195 0.0198163 0
M  V30 3108 H 299.685 -3.18133 -0.546916 0
M  V30 3109 H 298.737 -3.31293 1.86946 0
M  V30 3110 H 300.049 -4.44771 2.25788 0
M  V30 3111 H 299.203 -6.04419 0.525651 0
M  V30 3112 H 297.942 -4.87685 0.0377957 0
M  V30 3113 H 296.947 -4.97491 2.34057 0
M  V30 3114 H 298.172 -6.17632 2.82325 0
M  V30 3115 H 296.118 -6.5318 0.607567 0
M  V30 3116 H 296.035 -7.23617 2.18895 0
M  V30 3117 H 297.303 -7.71682 1.10124 0
M  V30 3118 N 301.532 -0.945985 -1.26051 0
M  V30 3119 C 302.757 -0.612525 -1.98149 0
M  V30 3120 C 303.182 0.806623 -1.69927 0
M  V30 3121 O 302.54 1.54411 -0.950108 0
M  V30 3122 C 302.588 -0.866981 -3.50023 0
M  V30 3123 O 301.692 0.0585333 -4.12358 0
M  V30 3124 H 301.033 -0.23379 -0.621481 0
M  V30 3125 H 303.563 -1.27023 -1.60395 0
M  V30 3126 H 303.573 -0.789792 -4.00283 0
M  V30 3127 H 302.248 -1.90135 -3.69894 0
M  V30 3128 H 300.825 -0.0701241 -3.72834 0
M  V30 3129 N 303.011 1.40521 -0.713556 0
M  V30 3130 C 304.427 1.54839 -0.386907 0
M  V30 3131 C 304.627 1.68532 1.1045 0
M  V30 3132 O 303.683 1.67377 1.89053 0
M  V30 3133 C 304.996 2.77792 -1.15118 0
M  V30 3134 C 306.544 2.91607 -1.13729 0
M  V30 3135 C 307.019 4.1747 -1.88368 0
M  V30 3136 N 308.51 4.24466 -1.85427 0
M  V30 3137 C 309.245 5.20755 -2.40004 0
M  V30 3138 N 308.741 6.22965 -3.03129 0
M  V30 3139 N 310.534 5.1282 -2.30158 0
M  V30 3140 H 302.685 1.29879 -1.68063 0
M  V30 3141 H 304.948 0.627896 -0.710247 0
M  V30 3142 H 304.654 2.73944 -2.20561 0
M  V30 3143 H 304.528 3.6984 -0.741477 0
M  V30 3144 H 306.915 2.94959 -0.0910608 0
M  V30 3145 H 306.996 2.00682 -1.5862 0
M  V30 3146 H 306.64 4.1488 -2.9298 0
M  V30 3147 H 306.57 5.074 -1.40898 0
M  V30 3148 H 309.061 3.51241 -1.3942 0
M  V30 3149 H 309.374 6.92859 -3.42295 0
M  V30 3150 H 307.719 6.23415 -3.07212 0
M  V30 3151 H 310.91 4.31899 -1.80501 0
M  V30 3152 H 311.083 5.87689 -2.72993 0
M  V30 3153 N 304.489 0.459591 1.5075 0
M  V30 3154 C 305.717 -0.0973749 2.06671 0
M  V30 3155 C 306.132 -1.34524 1.32472 0
M  V30 3156 O 305.489 -1.7827 0.390634 0
M  V30 3157 C 305.54 -0.39714 3.59312 0
M  V30 3158 O 305.261 0.801214 4.30711 0
M  V30 3159 C 306.762 -1.00234 4.31819 0
M  V30 3160 H 303.982 0.00195854 0.670997 0
M  V30 3161 H 306.526 0.645072 1.94059 0
M  V30 3162 H 304.681 -1.08951 3.71764 0
M  V30 3163 H 305.095 0.538857 5.21725 0
M  V30 3164 H 306.569 -1.16193 5.39632 0
M  V30 3165 H 307.046 -1.98939 3.91561 0
M  V30 3166 H 307.652 -0.348699 4.23868 0
M  V30 3167 N 305.967 -1.56429 0.191757 0
M  V30 3168 C 307.215 -1.97095 -0.447006 0
M  V30 3169 C 307.536 -1.07967 -1.62383 0
M  V30 3170 O 306.806 -0.150248 -1.95323 0
M  V30 3171 H 305.386 -0.727832 -0.168135 0
M  V30 3172 H 308.048 -1.92911 0.27771 0
M  V30 3173 H 307.144 -3.01848 -0.793371 0
M  V30 3174 N 307.445 0.0818655 -1.57387 0
M  V30 3175 C 308.691 0.784074 -1.8703 0
M  V30 3176 C 309.024 1.77729 -0.782689 0
M  V30 3177 O 308.299 1.93384 0.208051 0
M  V30 3178 C 308.582 1.50105 -3.27323 0
M  V30 3179 C 308.435 0.524925 -4.46727 0
M  V30 3180 C 309.754 2.44843 -3.65705 0
M  V30 3181 H 306.873 0.283582 -0.680257 0
M  V30 3182 H 309.515 0.0474352 -1.89941 0
M  V30 3183 H 307.665 2.12897 -3.24972 0
M  V30 3184 H 309.337 -0.0970111 -4.61198 0
M  V30 3185 H 307.58 -0.160606 -4.33503 0
M  V30 3186 H 308.251 1.064 -5.41648 0
M  V30 3187 H 310.727 1.92135 -3.69085 0
M  V30 3188 H 309.603 2.92018 -4.64776 0
M  V30 3189 H 309.864 3.29197 -2.95096 0
M  V30 3190 N 308.923 1.53595 0.353017 0
M  V30 3191 C 309.856 1.7572 1.45594 0
M  V30 3192 C 310.834 0.605961 1.50887 0
M  V30 3193 O 312.018 0.840023 1.68748 0
M  V30 3194 C 309.145 1.84732 2.83887 0
M  V30 3195 C 308.191 3.06808 2.96262 0
M  V30 3196 S 309.024 4.66065 2.63711 0
M  V30 3197 C 310.18 4.77943 4.04131 0
M  V30 3198 H 310.413 2.68994 1.26608 0
M  V30 3199 H 307.946 1.44343 0.548117 0
M  V30 3200 H 309.904 1.9061 3.63563 0
M  V30 3201 H 308.565 0.92488 3.00175 0
M  V30 3202 H 307.758 3.09761 3.97573 0
M  V30 3203 H 307.36 2.99108 2.24523 0
M  V30 3204 H 309.652 4.5877 4.98534 0
M  V30 3205 H 310.595 5.80022 4.06177 0
M  V30 3206 H 311.003 4.06472 3.91715 0
M  V30 3207 N 310.401 -0.613514 1.45168 0
M  V30 3208 C 311.65 -1.36874 1.4815 0
M  V30 3209 C 311.963 -1.952 0.124982 0
M  V30 3210 O 313.169 -2.71481 0.0324176 0
M  V30 3211 C 311.625 -2.47905 2.60904 0
M  V30 3212 C 311.233 -1.96016 4.02842 0
M  V30 3213 C 312.977 -3.24965 2.73126 0
M  V30 3214 C 310.884 -3.04494 5.06988 0
M  V30 3215 H 309.814 -0.514428 0.551253 0
M  V30 3216 H 312.465 -0.658182 1.7129 0
M  V30 3217 H 310.847 -3.21618 2.31037 0
M  V30 3218 H 312.021 -1.29051 4.4236 0
M  V30 3219 H 310.336 -1.31719 3.95018 0
M  V30 3220 H 312.933 -4.05865 3.48106 0
M  V30 3221 H 313.276 -3.75588 1.79553 0
M  V30 3222 H 313.809 -2.5835 3.0249 0
M  V30 3223 H 310.548 -2.58795 6.0225 0
M  V30 3224 H 310.068 -3.70044 4.72046 0
M  V30 3225 H 311.747 -3.68976 5.31475 0
M  V30 3226 N 311.879 -1.3236 -0.855495 0
M  V30 3227 C 313.29 -1.2056 -1.42556 0
M  V30 3228 C 313.641 0.182209 -1.95352 0
M  V30 3229 O 312.766 1.08088 -1.87472 0
M  V30 3230 C 313.361 -2.1826 -2.59129 0
M  V30 3231 C 311.92 -2.10351 -3.12137 0
M  V30 3232 C 311.067 -2.06674 -1.84882 0
M  V30 3233 H 314.018 -1.442 -0.662727 0
M  V30 3234 H 314.039 -1.78064 -3.36264 0
M  V30 3235 H 313.551 -3.19257 -2.20673 0
M  V30 3236 H 311.652 -1.12599 -3.55179 0
M  V30 3237 H 311.765 -3.00135 -3.73438 0
M  V30 3238 H 310.129 -1.51901 -2.04446 0
M  V30 3239 H 310.912 -3.09451 -1.48643 0
M  V30 3240 N 313.357 1.07166 -1.15556 0
M  V30 3241 C 314.606 1.79181 -0.926132 0
M  V30 3242 C 314.919 1.87768 0.547967 0
M  V30 3243 O 316.125 2.56323 0.895036 0
M  V30 3244 C 314.581 3.22 -1.60761 0
M  V30 3245 C 314.189 3.21607 -3.11886 0
M  V30 3246 C 315.933 3.9861 -1.4598 0
M  V30 3247 C 313.84 4.59092 -3.72812 0
M  V30 3248 H 312.77 0.67154 -0.342856 0
M  V30 3249 H 315.421 1.2027 -1.3859 0
M  V30 3250 H 313.803 3.81115 -1.07553 0
M  V30 3251 H 314.977 2.72127 -3.71865 0
M  V30 3252 H 313.292 2.58495 -3.2645 0
M  V30 3253 H 315.889 5.00225 -1.88888 0
M  V30 3254 H 316.232 4.143 -0.407541 0
M  V30 3255 H 316.765 3.45996 -1.96295 0
M  V30 3256 H 313.504 4.48606 -4.77946 0
M  V30 3257 H 313.024 5.08803 -3.17616 0
M  V30 3258 H 314.703 5.28059 -3.73848 0
M  V30 3259 N 314.835 0.952656 1.25548 0
M  V30 3260 C 316.246 0.647392 1.75116 0
M  V30 3261 C 316.597 -0.837274 1.77438 0
M  V30 3262 O 315.722 -1.65525 1.39393 0
M  V30 3263 C 316.317 1.16845 3.18014 0
M  V30 3264 C 314.876 0.913382 3.6515 0
M  V30 3265 C 314.023 1.31265 2.44264 0
M  V30 3266 H 316.974 1.12968 1.11462 0
M  V30 3267 H 316.995 0.527606 3.76824 0
M  V30 3268 H 316.507 2.24902 3.16292 0
M  V30 3269 H 314.608 -0.152316 3.72289 0
M  V30 3270 H 314.721 1.54845 4.53387 0
M  V30 3271 H 313.085 0.731028 2.43984 0
M  V30 3272 H 313.868 2.40239 2.45234 0
M  V30 3273 N 316.313 -1.40141 0.720998 0
M  V30 3274 C 317.245 -2.29177 0.0324669 0
M  V30 3275 C 318.258 -1.46105 -0.718126 0
M  V30 3276 O 319.447 -1.69335 -0.564608 0
M  V30 3277 C 316.547 -3.24473 -0.978292 0
M  V30 3278 C 315.72 -4.36423 -0.292115 0
M  V30 3279 C 314.779 -5.12122 -1.20901 0
M  V30 3280 O 313.805 -5.64981 -0.691766 0
M  V30 3281 N 315.007 -5.21992 -2.53978 0
M  V30 3282 H 317.772 -2.88909 0.796984 0
M  V30 3283 H 315.333 -1.51569 0.569068 0
M  V30 3284 H 317.325 -3.71987 -1.59398 0
M  V30 3285 H 315.895 -2.65871 -1.64413 0
M  V30 3286 H 315.115 -3.90967 0.503847 0
M  V30 3287 H 316.403 -5.08467 0.183971 0
M  V30 3288 H 315.801 -4.8054 -2.98493 0
M  V30 3289 H 314.358 -5.72995 -3.10677 0
M  V30 3290 N 317.792 -0.46758 -1.50504 0
M  V30 3291 C 319.022 0.086288 -2.0642 0
M  V30 3292 C 319.43 1.34369 -1.33197 0
M  V30 3293 O 318.773 1.79431 -0.393747 0
M  V30 3294 C 318.835 0.443846 -3.5675 0
M  V30 3295 C 318.499 -0.711035 -4.51435 0
M  V30 3296 C 319.496 -1.59205 -4.94924 0
M  V30 3297 C 317.181 -0.900363 -4.94165 0
M  V30 3298 C 319.175 -2.64683 -5.79846 0
M  V30 3299 C 316.862 -1.95837 -5.7887 0
M  V30 3300 C 317.86 -2.82997 -6.21612 0
M  V30 3301 O 317.548 -3.86977 -7.0463 0
M  V30 3302 H 317.28 -0.00217814 -0.675996 0
M  V30 3303 H 319.834 -0.654346 -1.94698 0
M  V30 3304 H 318.064 1.23762 -3.6636 0
M  V30 3305 H 319.753 0.932386 -3.95046 0
M  V30 3306 H 320.519 -1.45745 -4.62583 0
M  V30 3307 H 316.398 -0.231427 -4.60419 0
M  V30 3308 H 319.942 -3.32745 -6.13128 0
M  V30 3309 H 315.839 -2.09305 -6.10624 0
M  V30 3310 H 316.607 -3.83923 -7.22873 0
M  V30 3311 N 319.27 1.56325 -0.20005 0
M  V30 3312 C 320.681 1.8408 0.31167 0
M  V30 3313 C 321.032 1.12087 1.61031 0
M  V30 3314 O 320.157 0.38332 2.12978 0
M  V30 3315 C 320.752 3.33932 0.57226 0
M  V30 3316 C 319.311 3.6208 1.02834 0
M  V30 3317 C 318.458 2.77186 0.079634 0
M  V30 3318 H 321.409 1.52939 -0.423729 0
M  V30 3319 H 321.43 3.52971 1.42096 0
M  V30 3320 H 320.942 3.86303 -0.37308 0
M  V30 3321 H 319.043 3.15147 1.98778 0
M  V30 3322 H 319.156 4.7023 0.917624 0
M  V30 3323 H 317.52 2.47951 0.582448 0
M  V30 3324 H 318.303 3.32347 -0.860238 0
M  V30 3325 N 320.748 -0.0735177 1.57428 0
M  V30 3326 C 321.678 -1.0879 2.06608 0
M  V30 3327 C 322.659 -1.40473 0.959237 0
M  V30 3328 O 323.844 -1.5013 1.23185 0
M  V30 3329 C 320.974 -2.40183 2.50857 0
M  V30 3330 C 319.928 -2.22858 3.65402 0
M  V30 3331 C 319.254 -3.59619 3.957 0
M  V30 3332 C 320.554 -1.65123 4.95511 0
M  V30 3333 H 322.248 -0.678673 2.91607 0
M  V30 3334 H 319.794 -0.325013 1.40284 0
M  V30 3335 H 321.747 -3.11437 2.83874 0
M  V30 3336 H 320.471 -2.83083 1.62885 0
M  V30 3337 H 319.13 -1.54045 3.32664 0
M  V30 3338 H 318.778 -4.00086 3.04861 0
M  V30 3339 H 318.478 -3.48866 4.72828 0
M  V30 3340 H 320.002 -4.32306 4.31212 0
M  V30 3341 H 321.416 -2.26241 5.26771 0
M  V30 3342 H 319.813 -1.65071 5.7695 0
M  V30 3343 H 320.883 -0.612559 4.81015 0
M  V30 3344 N 322.226 -1.5378 -0.344866 0
M  V30 3345 C 323.456 -1.74646 -1.10374 0
M  V30 3346 C 323.864 -0.48491 -1.8288 0
M  V30 3347 O 323.207 0.553062 -1.75177 0
M  V30 3348 C 323.269 -2.87145 -2.16306 0
M  V30 3349 C 322.933 -4.26795 -1.63386 0
M  V30 3350 C 323.93 -5.08412 -1.08688 0
M  V30 3351 C 321.615 -4.73276 -1.68272 0
M  V30 3352 C 323.609 -6.34609 -0.595792 0
M  V30 3353 C 321.296 -5.99446 -1.18776 0
M  V30 3354 C 322.294 -6.79946 -0.645215 0
M  V30 3355 O 321.982 -8.03745 -0.157626 0
M  V30 3356 H 321.714 -0.587112 -0.335075 0
M  V30 3357 H 324.268 -2.01403 -0.403252 0
M  V30 3358 H 322.498 -2.55909 -2.89909 0
M  V30 3359 H 324.187 -2.95992 -2.77747 0
M  V30 3360 H 324.953 -4.73666 -1.04236 0
M  V30 3361 H 320.832 -4.10677 -2.09442 0
M  V30 3362 H 324.376 -6.97389 -0.171654 0
M  V30 3363 H 320.273 -6.33687 -1.22928 0
M  V30 3364 H 321.041 -8.18038 -0.275037 0
M  V30 3365 N 323.704 0.605807 -1.45491 0
M  V30 3366 C 324.929 1.39625 -1.53361 0
M  V30 3367 C 325.354 1.87351 -0.167645 0
M  V30 3368 O 324.712 1.60243 0.848051 0
M  V30 3369 C 324.76 2.57559 -2.5238 0
M  V30 3370 O 323.864 3.58248 -2.04285 0
M  V30 3371 H 323.205 0.416771 -0.516912 0
M  V30 3372 H 325.735 0.737103 -1.90861 0
M  V30 3373 H 325.745 3.0478 -2.71244 0
M  V30 3374 H 324.42 2.22171 -3.51586 0
M  V30 3375 H 322.997 3.17664 -1.95305 0
M  V30 3376 N 325.182 1.32811 0.848464 0
M  V30 3377 C 326.145 1.22194 1.9391 0
M  V30 3378 C 327.145 0.143404 1.60159 0
M  V30 3379 O 328.335 0.394253 1.6968 0
M  V30 3380 C 325.467 0.88067 3.29328 0
M  V30 3381 H 326.66 2.19127 2.04752 0
M  V30 3382 H 324.213 1.16731 1.0394 0
M  V30 3383 H 324.948 -0.0865776 3.24184 0
M  V30 3384 H 324.733 1.66052 3.55203 0
M  V30 3385 H 326.223 0.830871 4.09251 0
M  V30 3386 N 326.66 -1.06551 1.16123 0
M  V30 3387 C 327.906 -1.79567 0.94252 0
M  V30 3388 C 328.239 -1.86869 -0.528547 0
M  V30 3389 O 327.514 -1.35838 -1.39206 0
M  V30 3390 C 327.797 -3.24195 1.56747 0
M  V30 3391 C 327.65 -3.24989 3.10969 0
M  V30 3392 C 328.969 -4.21678 1.25998 0
M  V30 3393 H 326.088 -0.651883 0.343828 0
M  V30 3394 H 328.73 -1.2463 1.43413 0
M  V30 3395 H 326.88 -3.71107 1.14942 0
M  V30 3396 H 328.552 -2.86258 3.61737 0
M  V30 3397 H 326.795 -2.63716 3.44436 0
M  V30 3398 H 327.466 -4.27005 3.49815 0
M  V30 3399 H 329.942 -3.83196 1.62174 0
M  V30 3400 H 328.818 -5.21146 1.7233 0
M  V30 3401 H 329.079 -4.4174 0.178367 0
M  V30 3402 N 328.138 -0.959301 -1.25041 0
M  V30 3403 C 329.387 -0.612254 -1.92183 0
M  V30 3404 C 329.7 0.855347 -1.75907 0
M  V30 3405 O 330.906 1.31256 -2.37664 0
M  V30 3406 C 329.362 -1.04435 -3.44414 0
M  V30 3407 C 328.97 -2.53482 -3.69393 0
M  V30 3408 C 330.714 -0.770055 -4.17457 0
M  V30 3409 C 328.621 -2.90468 -5.15153 0
M  V30 3410 H 327.551 -0.225279 -0.719559 0
M  V30 3411 H 330.202 -1.16438 -1.41825 0
M  V30 3412 H 328.584 -0.4206 -3.9376 0
M  V30 3413 H 329.758 -3.20916 -3.30681 0
M  V30 3414 H 328.073 -2.78432 -3.0962 0
M  V30 3415 H 330.67 -1.02249 -5.24832 0
M  V30 3416 H 331.013 0.293611 -4.15263 0
M  V30 3417 H 331.546 -1.35437 -3.74034 0
M  V30 3418 H 328.285 -3.95871 -5.22462 0
M  V30 3419 H 327.805 -2.27711 -5.54894 0
M  V30 3420 H 329.484 -2.79914 -5.83315 0
M  V30 3421 N 329.616 1.39756 -0.72842 0
M  V30 3422 C 330.841 2.05472 -0.282159 0
M  V30 3423 C 331.266 1.54549 1.07221 0
M  V30 3424 O 330.624 0.686372 1.67805 0
M  V30 3425 C 330.672 3.59462 -0.286264 0
M  V30 3426 O 329.776 4.05918 0.728298 0
M  V30 3427 H 329.117 0.651226 -0.129618 0
M  V30 3428 H 331.647 1.78915 -0.992499 0
M  V30 3429 H 331.657 4.07798 -0.128373 0
M  V30 3430 H 330.332 3.95889 -1.27456 0
M  V30 3431 H 328.909 3.69012 0.537081 0
M  V30 3432 N 331.094 0.475555 1.50254 0
M  V30 3433 C 332.004 -0.321501 2.32387 0
M  V30 3434 C 333.02 -0.991755 1.42969 0
M  V30 3435 O 334.196 -0.978747 1.76018 0
M  V30 3436 C 331.261 -1.38667 3.17762 0
M  V30 3437 C 330.322 -0.732538 4.23004 0
M  V30 3438 C 329.555 -1.74695 5.04299 0
M  V30 3439 O 329.778 -2.97399 4.86734 0
M  V30 3440 O 328.712 -1.31631 5.8733 0
M  V30 3441 H 332.538 0.350071 3.01676 0
M  V30 3442 H 330.123 0.237321 1.47503 0
M  V30 3443 H 332.005 -2.00354 3.70724 0
M  V30 3444 H 330.68 -2.04163 2.51196 0
M  V30 3445 H 329.587 -0.0765902 3.74022 0
M  V30 3446 H 330.92 -0.120452 4.92053 0
M  V30 3447 N 332.573 -1.56217 0.208337 0
M  V30 3448 C 333.503 -2.22694 -0.702116 0
M  V30 3449 C 334.484 -1.19432 -1.2112 0
M  V30 3450 O 335.669 -1.47978 -1.25762 0
M  V30 3451 C 332.799 -2.8966 -1.9161 0
M  V30 3452 C 331.753 -3.9928 -1.5414 0
M  V30 3453 C 331.079 -4.53476 -2.83308 0
M  V30 3454 C 332.379 -5.17012 -0.741339 0
M  V30 3455 H 334.073 -2.99034 -0.147898 0
M  V30 3456 H 331.619 -1.43831 -0.0696951 0
M  V30 3457 H 333.572 -3.34852 -2.55836 0
M  V30 3458 H 332.296 -2.10746 -2.49507 0
M  V30 3459 H 330.955 -3.54799 -0.922668 0
M  V30 3460 H 330.603 -3.71308 -3.39322 0
M  V30 3461 H 330.303 -5.27451 -2.58976 0
M  V30 3462 H 331.827 -5.01378 -3.485 0
M  V30 3463 H 333.241 -5.58667 -1.28699 0
M  V30 3464 H 331.638 -5.97137 -0.595627 0
M  V30 3465 H 332.708 -4.8423 0.254851 0
M  V30 3466 N 334.051 0.0651679 -1.57465 0
M  V30 3467 C 335.328 0.79644 -1.78651 0
M  V30 3468 C 335.708 1.95454 -0.797566 0
M  V30 3469 O 335.056 2.27882 0.167946 0
M  V30 3470 C 335.266 1.26322 -3.25337 0
M  V30 3471 C 336.614 1.6939 -3.89348 0
M  V30 3472 O 337.638 1.35872 -3.29268 0
M  V30 3473 O 336.497 2.31471 -4.95059 0
M  V30 3474 H 333.591 0.382157 -0.733407 0
M  V30 3475 H 336.137 0.0447311 -1.69641 0
M  V30 3476 H 334.909 0.434859 -3.88876 0
M  V30 3477 H 334.532 2.07604 -3.39096 0
M  V30 3478 N 335.529 1.53961 0.336706 0
M  V30 3479 C 336.492 1.81724 1.39675 0
M  V30 3480 C 337.492 0.688532 1.45313 0
M  V30 3481 O 338.682 0.956829 1.45569 0
M  V30 3482 C 335.814 1.96543 2.78538 0
M  V30 3483 H 337.007 2.76424 1.16318 0
M  V30 3484 H 334.56 1.45478 0.571474 0
M  V30 3485 H 335.295 1.0401 3.07168 0
M  V30 3486 H 335.08 2.78665 2.75841 0
M  V30 3487 H 336.57 2.19516 3.5525 0
M  V30 3488 N 337.007 -0.598083 1.45811 0
M  V30 3489 C 338.256 -1.35295 1.49594 0
M  V30 3490 C 338.569 -1.95057 0.145679 0
M  V30 3491 O 339.775 -2.71431 0.0612099 0
M  V30 3492 C 338.231 -2.45124 2.63519 0
M  V30 3493 C 337.839 -1.91732 4.04899 0
M  V30 3494 C 339.583 -3.2205 2.76558 0
M  V30 3495 C 337.49 -2.991 5.1019 0
M  V30 3496 H 336.42 -0.508552 0.556679 0
M  V30 3497 H 339.071 -0.639977 1.71978 0
M  V30 3498 H 337.453 -3.19149 2.34435 0
M  V30 3499 H 338.627 -1.24352 4.43704 0
M  V30 3500 H 336.942 -1.27522 3.96393 0
M  V30 3501 H 339.539 -4.0215 3.52391 0
M  V30 3502 H 339.882 -3.73663 1.83526 0
M  V30 3503 H 340.415 -2.55127 3.05213 0
M  V30 3504 H 337.154 -2.52393 6.04961 0
M  V30 3505 H 336.674 -3.65017 4.75944 0
M  V30 3506 H 338.353 -3.63318 5.35359 0
M  V30 3507 N 338.485 -1.33259 -0.841409 0
M  V30 3508 C 339.417 -1.19136 -1.95804 0
M  V30 3509 C 340.43 -0.122965 -1.62335 0
M  V30 3510 O 341.619 -0.373154 -1.74556 0
M  V30 3511 C 338.719 -0.804268 -3.29218 0
M  V30 3512 C 337.892 -1.96376 -3.90839 0
M  V30 3513 C 336.951 -1.55806 -5.02604 0
M  V30 3514 O 335.977 -2.27203 -5.21888 0
M  V30 3515 N 337.179 -0.461609 -5.78662 0
M  V30 3516 H 339.944 -2.15326 -2.08458 0
M  V30 3517 H 337.505 -1.25971 -1.017 0
M  V30 3518 H 339.497 -0.51501 -4.0141 0
M  V30 3519 H 338.067 0.0668809 -3.12528 0
M  V30 3520 H 337.287 -2.41879 -3.11269 0
M  V30 3521 H 338.575 -2.73966 -4.28742 0
M  V30 3522 H 337.973 0.132343 -5.65545 0
M  V30 3523 H 336.53 -0.232013 -6.51387 0
M  V30 3524 N 339.963 1.05934 -1.16686 0
M  V30 3525 C 341.209 1.79065 -0.95203 0
M  V30 3526 C 341.542 1.87147 0.518629 0
M  V30 3527 O 340.817 1.36574 1.38484 0
M  V30 3528 C 341.1 3.23359 -1.58464 0
M  V30 3529 C 340.953 3.23336 -3.12689 0
M  V30 3530 C 342.272 4.21004 -1.28232 0
M  V30 3531 H 339.391 0.65005 -0.34728 0
M  V30 3532 H 342.033 1.23868 -1.44072 0
M  V30 3533 H 340.183 3.70493 -1.16908 0
M  V30 3534 H 341.855 2.84336 -3.6325 0
M  V30 3535 H 340.098 2.61886 -3.4583 0
M  V30 3536 H 340.769 4.25144 -3.52075 0
M  V30 3537 H 343.245 3.8233 -1.64203 0
M  V30 3538 H 342.121 5.20225 -1.75092 0
M  V30 3539 H 342.382 4.41639 -0.201791 0
M  V30 3540 N 341.441 0.965919 1.2453 0
M  V30 3541 C 342.389 0.486506 2.27455 0
M  V30 3542 C 343.383 -0.449041 1.6334 0
M  V30 3543 O 344.589 -0.324527 1.7705 0
M  V30 3544 H 340.964 0.138857 0.739069 0
M  V30 3545 H 342.935 1.3666 2.65267 0
M  V30 3546 C 341.684 -0.209481 3.47068 0
M  V30 3547 H 341.007 0.50129 3.96645 0
M  V30 3548 H 342.447 -0.508775 4.20936 0
M  V30 3549 C 340.906 -1.43586 3.0477 0
M  V30 3550 O 341.436 -2.53299 3.11773 0
M  V30 3551 N 339.642 -1.30126 2.59838 0
M  V30 3552 H 339.189 -0.408583 2.54339 0
M  V30 3553 H 339.147 -2.12294 2.31902 0
M  V30 3554 N 342.919 -1.39368 0.735821 0
M  V30 3555 C 344.149 -2.04498 0.293967 0
M  V30 3556 C 344.557 -1.55593 -1.07645 0
M  V30 3557 O 343.9 -0.716324 -1.69158 0
M  V30 3558 C 343.962 -3.58836 0.218342 0
M  V30 3559 C 343.626 -4.30721 1.52736 0
M  V30 3560 C 344.623 -4.57305 2.47322 0
M  V30 3561 C 342.308 -4.69251 1.79189 0
M  V30 3562 C 344.302 -5.21429 3.66593 0
M  V30 3563 C 341.989 -5.33104 2.98737 0
M  V30 3564 C 342.987 -5.59125 3.9226 0
M  V30 3565 O 342.675 -6.21653 5.09708 0
M  V30 3566 H 342.407 -0.664118 0.126189 0
M  V30 3567 H 344.961 -1.79385 1.00051 0
M  V30 3568 H 343.191 -3.8285 -0.544314 0
M  V30 3569 H 344.88 -4.05447 -0.191626 0
M  V30 3570 H 345.646 -4.27983 2.28156 0
M  V30 3571 H 341.525 -4.48354 1.07239 0
M  V30 3572 H 345.069 -5.41656 4.39607 0
M  V30 3573 H 340.966 -5.61846 3.17803 0
M  V30 3574 H 341.734 -6.40146 5.10054 0
M  V30 3575 N 344.397 -0.483516 -1.5 0
M  V30 3576 C 345.627 0.0643896 -2.065 0
M  V30 3577 C 346.035 1.32949 -1.34615 0
M  V30 3578 O 345.378 1.79003 -0.412756 0
M  V30 3579 C 345.44 0.405983 -3.572 0
M  V30 3580 C 345.104 -0.758875 -4.50655 0
M  V30 3581 C 346.101 -1.64445 -4.93208 0
M  V30 3582 C 343.786 -0.952725 -4.93182 0
M  V30 3583 C 345.78 -2.70818 -5.77006 0
M  V30 3584 C 343.467 -2.01966 -5.76761 0
M  V30 3585 C 344.465 -2.89574 -6.18576 0
M  V30 3586 O 344.153 -3.94429 -7.00486 0
M  V30 3587 H 343.885 -0.00934786 -0.675935 0
M  V30 3588 H 346.439 -0.674959 -1.93993 0
M  V30 3589 H 344.669 1.19869 -3.67652 0
M  V30 3590 H 346.358 0.890433 -3.96013 0
M  V30 3591 H 347.124 -1.50643 -4.61012 0
M  V30 3592 H 343.003 -0.280247 -4.60147 0
M  V30 3593 H 346.547 -3.3923 -6.09565 0
M  V30 3594 H 342.444 -2.1577 -6.0837 0
M  V30 3595 H 343.212 -3.91568 -7.1876 0
M  V30 3596 N 345.875 1.56104 -0.216619 0
M  V30 3597 C 346.805 2.23063 0.690296 0
M  V30 3598 C 347.786 1.20072 1.20485 0
M  V30 3599 O 348.971 1.48643 1.24976 0
M  V30 3600 C 346.101 2.90672 1.90072 0
M  V30 3601 C 345.055 4.00092 1.5202 0
M  V30 3602 C 344.381 4.54972 2.80899 0
M  V30 3603 C 345.681 5.17398 0.71391 0
M  V30 3604 H 347.375 2.99109 0.132038 0
M  V30 3605 H 344.921 1.43866 0.0620664 0
M  V30 3606 H 346.874 3.36204 2.54057 0
M  V30 3607 H 345.598 2.12066 2.48386 0
M  V30 3608 H 344.257 3.55283 0.903839 0
M  V30 3609 H 343.905 3.73102 3.37348 0
M  V30 3610 H 343.605 5.28817 2.56176 0
M  V30 3611 H 345.129 5.0322 3.45836 0
M  V30 3612 H 346.543 5.59342 1.25735 0
M  V30 3613 H 344.94 5.97444 0.563951 0
M  V30 3614 H 346.01 4.84088 -0.280527 0
M  V30 3615 N 347.353 -0.0568162 1.57498 0
M  V30 3616 C 348.63 -0.786954 1.79071 0
M  V30 3617 C 349.01 -1.95028 0.80792 0
M  V30 3618 O 348.358 -2.27968 -0.155858 0
M  V30 3619 C 348.568 -1.24594 3.26002 0
M  V30 3620 C 349.916 -1.67323 3.90241 0
M  V30 3621 O 350.94 -1.34124 3.29984 0
M  V30 3622 O 349.799 -2.28842 4.9628 0
M  V30 3623 H 346.893 -0.378262 0.735423 0
M  V30 3624 H 349.439 -0.035734 1.69662 0
M  V30 3625 H 348.211 -0.41423 3.89101 0
M  V30 3626 H 347.834 -2.05803 3.40192 0
M  V30 3627 N 348.832 -1.54138 -0.328536 0
M  V30 3628 C 349.742 -1.86192 -1.42723 0
M  V30 3629 C 350.758 -0.753382 -1.56844 0
M  V30 3630 O 351.934 -1.04718 -1.72035 0
M  V30 3631 C 348.999 -2.07824 -2.77507 0
M  V30 3632 C 348.06 -3.31641 -2.72603 0
M  V30 3633 C 347.293 -3.52232 -4.00959 0
M  V30 3634 O 347.516 -2.7636 -4.9898 0
M  V30 3635 O 346.45 -4.45699 -4.0452 0
M  V30 3636 H 350.276 -2.79608 -1.18547 0
M  V30 3637 H 347.861 -1.3998 -0.522104 0
M  V30 3638 H 349.743 -2.23411 -3.57303 0
M  V30 3639 H 348.418 -1.17596 -3.01584 0
M  V30 3640 H 347.325 -3.21444 -1.91376 0
M  V30 3641 H 348.658 -4.2191 -2.53481 0
M  V30 3642 N 350.31 0.590341 -1.46126 0
M  V30 3643 C 351.22 1.72793 -1.58681 0
M  V30 3644 C 352.236 1.67516 -0.470566 0
M  V30 3645 O 353.412 1.87562 -0.733642 0
M  V30 3646 C 350.477 3.09287 -1.5666 0
M  V30 3647 C 349.538 3.25886 -2.79458 0
M  V30 3648 C 348.771 4.55869 -2.77524 0
M  V30 3649 O 348.994 5.3928 -1.85832 0
M  V30 3650 O 347.928 4.75552 -3.68964 0
M  V30 3651 H 351.754 1.65149 -2.54872 0
M  V30 3652 H 349.339 0.756486 -1.28832 0
M  V30 3653 H 351.221 3.90577 -1.58202 0
M  V30 3654 H 349.896 3.17385 -0.636271 0
M  V30 3655 H 348.803 2.44119 -2.83472 0
M  V30 3656 H 350.136 3.22675 -3.71674 0
M  V30 3657 N 351.788 1.33704 0.83433 0
M  V30 3658 C 352.736 1.24323 1.96587 0
M  V30 3659 C 353.73 0.143659 1.6879 0
M  V30 3660 O 354.936 0.30791 1.77347 0
M  V30 3661 H 351.311 0.385925 0.645419 0
M  V30 3662 H 353.282 2.19978 2.01624 0
M  V30 3663 C 352.031 1.00394 3.32891 0
M  V30 3664 H 351.354 1.84231 3.54822 0
M  V30 3665 H 352.794 0.97862 4.12552 0
M  V30 3666 C 351.253 -0.293047 3.35623 0
M  V30 3667 O 351.783 -1.29823 3.80143 0
M  V30 3668 N 349.989 -0.322174 2.88809 0
M  V30 3669 H 349.536 0.496379 2.52772 0
M  V30 3670 H 349.494 -1.18977 2.91019 0
M  V30 3671 N 353.266 -1.05314 1.17247 0
M  V30 3672 C 354.506 -1.79869 0.970898 0
M  V30 3673 C 354.87 -1.85594 -0.491808 0
M  V30 3674 O 356.071 -2.56229 -0.812409 0
M  V30 3675 C 354.342 -3.19937 1.59295 0
M  V30 3676 S 355.901 -4.10986 1.53741 0
M  V30 3677 H 352.719 -0.61949 0.348931 0
M  V30 3678 H 355.321 -1.26368 1.49169 0
M  V30 3679 H 354.025 -3.13372 2.65003 0
M  V30 3680 H 353.556 -3.78515 1.07191 0
M  V30 3681 H 355.571 -4.93203 0.544537 0
M  V30 3682 N 354.744 -0.972509 -1.24016 0
M  V30 3683 C 355.99 -0.647583 -1.92816 0
M  V30 3684 C 356.345 0.809015 -1.74564 0
M  V30 3685 O 355.638 1.57502 -1.09103 0
M  V30 3686 C 355.832 -0.963694 -3.44162 0
M  V30 3687 C 355.661 -2.44947 -3.77135 0
M  V30 3688 C 354.431 -3.11012 -3.98246 0
M  V30 3689 C 356.629 -3.42978 -3.83237 0
M  V30 3690 N 354.611 -4.49277 -4.18358 0
M  V30 3691 C 355.982 -4.66619 -4.08248 0
M  V30 3692 C 358.037 -3.37569 -3.65994 0
M  V30 3693 C 356.74 -5.85516 -4.17808 0
M  V30 3694 C 358.766 -4.55822 -3.76802 0
M  V30 3695 C 358.128 -5.78256 -4.02243 0
M  V30 3696 H 354.227 -0.287894 -0.727077 0
M  V30 3697 H 356.811 -1.24835 -1.49413 0
M  V30 3698 H 354.982 -0.391692 -3.8642 0
M  V30 3699 H 356.714 -0.596849 -4.00275 0
M  V30 3700 H 353.469 -2.61529 -3.94841 0
M  V30 3701 H 353.893 -5.20935 -4.32384 0
M  V30 3702 H 358.535 -2.43945 -3.45327 0
M  V30 3703 H 356.253 -6.79564 -4.37285 0
M  V30 3704 H 359.839 -4.53204 -3.64825 0
M  V30 3705 H 358.719 -6.68231 -4.10411 0
M  V30 3706 N 356.222 1.38976 -0.743202 0
M  V30 3707 C 357.185 2.28901 -0.117014 0
M  V30 3708 C 358.185 1.46698 0.658503 0
M  V30 3709 O 359.375 1.67274 0.486305 0
M  V30 3710 C 356.507 3.30309 0.84315 0
M  V30 3711 H 357.7 2.8578 -0.909373 0
M  V30 3712 H 355.253 1.47761 -0.509547 0
M  V30 3713 H 355.988 2.785 1.66157 0
M  V30 3714 H 355.773 3.91029 0.289594 0
M  V30 3715 H 357.263 3.97577 1.2776 0
M  V30 3716 N 357.7 0.491464 1.49741 0
M  V30 3717 C 358.63 -0.28154 2.31796 0
M  V30 3718 C 359.611 -0.971473 1.3963 0
M  V30 3719 O 360.796 -0.964719 1.68543 0
M  V30 3720 C 357.926 -1.35203 3.19902 0
M  V30 3721 C 356.88 -0.782529 4.20786 0
M  V30 3722 C 356.206 -1.95283 4.97764 0
M  V30 3723 C 357.506 0.21999 5.21837 0
M  V30 3724 H 359.2 0.403355 2.96671 0
M  V30 3725 H 356.746 0.195425 1.42668 0
M  V30 3726 H 358.699 -1.90045 3.76113 0
M  V30 3727 H 357.423 -2.06598 2.52953 0
M  V30 3728 H 356.082 -0.255928 3.65706 0
M  V30 3729 H 355.73 -2.65423 4.2727 0
M  V30 3730 H 355.43 -1.57789 5.66018 0
M  V30 3731 H 356.954 -2.50577 5.56816 0
M  V30 3732 H 358.368 -0.23996 5.72798 0
M  V30 3733 H 356.765 0.51026 5.97927 0
M  V30 3734 H 357.835 1.13911 4.7133 0
M  V30 3735 N 359.178 -1.55987 0.224894 0
M  V30 3736 C 360.126 -2.21808 -0.700283 0
M  V30 3737 C 361.12 -1.19854 -1.19714 0
M  V30 3738 O 362.326 -1.37925 -1.15658 0
M  V30 3739 H 358.701 -0.711226 -0.244258 0
M  V30 3740 H 360.672 -2.98152 -0.121749 0
M  V30 3741 C 359.421 -2.91444 -1.8962 0
M  V30 3742 H 358.744 -3.69655 -1.52299 0
M  V30 3743 H 360.184 -3.40894 -2.52125 0
M  V30 3744 C 358.643 -1.94098 -2.75368 0
M  V30 3745 O 359.173 -1.46004 -3.74227 0
M  V30 3746 N 357.379 -1.61675 -2.41474 0
M  V30 3747 H 356.926 -2.00979 -1.61137 0
M  V30 3748 H 356.884 -0.968036 -2.99126 0
M  V30 3749 N 360.656 0.0484629 -1.57525 0
M  V30 3750 C 361.902 0.744226 -1.88651 0
M  V30 3751 C 362.235 1.76029 -0.820212 0
M  V30 3752 O 361.51 1.93782 0.166985 0
M  V30 3753 C 361.793 1.43128 -3.30434 0
M  V30 3754 C 361.646 0.43005 -4.47739 0
M  V30 3755 C 362.965 2.37031 -3.70816 0
M  V30 3756 H 360.084 0.269089 -0.68612 0
M  V30 3757 H 362.726 0.00713532 -1.89999 0
M  V30 3758 H 360.876 2.05956 -3.29415 0
M  V30 3759 H 362.548 -0.194816 -4.60888 0
M  V30 3760 H 360.791 -0.252522 -4.33064 0
M  V30 3761 H 361.462 0.948874 -5.43783 0
M  V30 3762 H 363.938 1.84263 -3.73077 0
M  V30 3763 H 362.814 2.82094 -4.70865 0
M  V30 3764 H 363.075 3.22864 -3.02012 0
M  V30 3765 N 362.134 1.5431 0.320358 0
M  V30 3766 C 363.082 1.84647 1.4145 0
M  V30 3767 C 364.076 0.718624 1.53402 0
M  V30 3768 O 365.282 0.902335 1.5575 0
M  V30 3769 H 361.657 0.585349 0.472091 0
M  V30 3770 H 363.628 2.7614 1.13089 0
M  V30 3771 C 362.377 2.09341 2.77617 0
M  V30 3772 H 361.7 2.9559 2.69196 0
M  V30 3773 H 363.14 2.3452 3.53237 0
M  V30 3774 C 361.599 0.885939 3.25043 0
M  V30 3775 O 362.129 0.0967891 4.01583 0
M  V30 3776 N 360.335 0.696682 2.82125 0
M  V30 3777 H 359.882 1.34006 2.2 0
M  V30 3778 H 359.84 -0.109712 3.14209 0
M  V30 3779 N 363.613 -0.582584 1.46437 0
M  V30 3780 C 364.523 -1.71949 1.59595 0
M  V30 3781 C 365.539 -1.67264 0.479443 0
M  V30 3782 O 366.715 -1.87171 0.743579 0
M  V30 3783 C 363.78 -3.08452 1.58298 0
M  V30 3784 C 362.841 -3.244 2.81182 0
M  V30 3785 C 362.074 -4.54391 2.79937 0
M  V30 3786 O 362.297 -5.38287 1.8869 0
M  V30 3787 O 361.231 -4.73588 3.71481 0
M  V30 3788 H 365.057 -1.63795 2.55744 0
M  V30 3789 H 362.642 -0.749643 1.29231 0
M  V30 3790 H 364.524 -3.89732 1.60271 0
M  V30 3791 H 363.199 -3.17043 0.653094 0
M  V30 3792 H 362.106 -2.42613 2.84763 0
M  V30 3793 H 363.439 -3.20699 3.7338 0
M  V30 3794 N 365.091 -1.34144 -0.827227 0
M  V30 3795 C 366.021 -1.28005 -1.95287 0
M  V30 3796 C 367.002 -0.158321 -1.69362 0
M  V30 3797 O 368.187 -0.349987 -1.9102 0
M  V30 3798 C 365.317 -1.03036 -3.31664 0
M  V30 3799 C 364.271 -2.11628 -3.72019 0
M  V30 3800 C 363.597 -1.71854 -5.0633 0
M  V30 3801 C 364.897 -3.53417 -3.8457 0
M  V30 3802 H 366.591 -2.22187 -2.00682 0
M  V30 3803 H 364.137 -1.0696 -0.964135 0
M  V30 3804 H 366.09 -0.973863 -4.09993 0
M  V30 3805 H 364.814 -0.0529391 -3.26557 0
M  V30 3806 H 363.473 -2.16339 -2.95961 0
M  V30 3807 H 363.121 -0.727841 -4.97706 0
M  V30 3808 H 362.821 -2.44531 -5.34302 0
M  V30 3809 H 364.345 -1.67692 -5.87122 0
M  V30 3810 H 365.759 -3.51142 -4.5318 0
M  V30 3811 H 364.156 -4.24679 -4.2399 0
M  V30 3812 H 365.226 -3.91072 -2.86689 0
M  V30 3813 N 366.569 1.04691 -1.17803 0
M  V30 3814 C 367.985 1.29963 -0.926379 0
M  V30 3815 C 368.185 1.97251 0.411635 0
M  V30 3816 O 367.241 2.24922 1.14744 0
M  V30 3817 C 368.554 2.16447 -2.08737 0
M  V30 3818 C 370.102 2.29814 -2.12496 0
M  V30 3819 C 370.577 3.19661 -3.27995 0
M  V30 3820 N 372.068 3.27247 -3.27816 0
M  V30 3821 C 372.803 3.96906 -4.13827 0
M  V30 3822 N 372.299 4.6895 -5.09959 0
M  V30 3823 N 374.092 3.93122 -4.01761 0
M  V30 3824 H 366.243 0.594182 -2.0392 0
M  V30 3825 H 368.506 0.324649 -0.890678 0
M  V30 3826 H 368.212 1.74304 -3.05469 0
M  V30 3827 H 368.086 3.17103 -2.04268 0
M  V30 3828 H 370.473 2.71196 -1.16347 0
M  V30 3829 H 370.554 1.2877 -2.21025 0
M  V30 3830 H 370.198 2.78991 -4.24413 0
M  V30 3831 H 370.128 4.20722 -3.16703 0
M  V30 3832 H 372.619 2.75921 -2.58217 0
M  V30 3833 H 372.932 5.19679 -5.71974 0
M  V30 3834 H 371.277 4.67875 -5.13924 0
M  V30 3835 H 374.468 3.35967 -3.2595 0
M  V30 3836 H 374.641 4.47139 -4.6901 0
M  V30 3837 N 368.047 0.979072 1.23499 0
M  V30 3838 C 369.463 0.687475 1.44034 0
M  V30 3839 C 369.663 -0.746801 1.8715 0
M  V30 3840 O 368.719 -1.51939 2.0167 0
M  V30 3841 C 370.032 1.68127 2.49307 0
M  V30 3842 C 371.58 1.69516 2.63122 0
M  V30 3843 C 372.055 2.67723 3.71603 0
M  V30 3844 N 373.546 2.66233 3.79044 0
M  V30 3845 C 374.281 3.38891 4.62537 0
M  V30 3846 N 373.777 4.21103 5.50131 0
M  V30 3847 N 375.57 3.27661 4.56721 0
M  V30 3848 H 367.721 1.90559 0.938135 0
M  V30 3849 H 369.984 0.821051 0.473897 0
M  V30 3850 H 369.69 2.70693 2.2454 0
M  V30 3851 H 369.564 1.46306 3.4767 0
M  V30 3852 H 371.951 0.676561 2.8724 0
M  V30 3853 H 372.032 1.95404 1.65079 0
M  V30 3854 H 371.676 3.69724 3.48233 0
M  V30 3855 H 371.606 2.39111 4.69184 0
M  V30 3856 H 374.097 2.06568 3.16446 0
M  V30 3857 H 374.41 4.73403 6.10827 0
M  V30 3858 H 372.755 4.25195 5.49759 0
M  V30 3859 H 375.946 2.62887 3.87309 0
M  V30 3860 H 376.119 3.84547 5.21562 0
M  V30 3861 N 369.525 -1.3858 0.750561 0
M  V30 3862 C 370.488 -2.28836 0.129152 0
M  V30 3863 C 371.488 -1.47045 -0.650714 0
M  V30 3864 O 372.678 -1.6753 -0.477428 0
M  V30 3865 C 369.81 -3.30751 -0.825622 0
M  V30 3866 H 371.003 -2.85294 0.924516 0
M  V30 3867 H 368.556 -1.47489 0.517376 0
M  V30 3868 H 369.291 -2.79378 -1.64677 0
M  V30 3869 H 369.076 -3.91177 -0.268852 0
M  V30 3870 H 370.566 -3.98249 -1.2565 0
M  V30 3871 N 371.003 -0.499398 -1.49478 0
M  V30 3872 C 372.249 0.0457576 -2.02748 0
M  V30 3873 C 372.582 1.36793 -1.37846 0
M  V30 3874 O 371.857 1.87596 -0.513601 0
M  V30 3875 C 372.14 0.199986 -3.59544 0
M  V30 3876 C 371.993 -1.1452 -4.34977 0
M  V30 3877 C 373.312 0.94137 -4.29914 0
M  V30 3878 H 370.431 0.0151552 -0.736844 0
M  V30 3879 H 373.073 -0.650498 -1.78518 0
M  V30 3880 H 371.223 0.793007 -3.8032 0
M  V30 3881 H 372.895 -1.77697 -4.25701 0
M  V30 3882 H 371.138 -1.73488 -3.97598 0
M  V30 3883 H 371.809 -0.990607 -5.43039 0
M  V30 3884 H 374.285 0.43844 -4.13784 0
M  V30 3885 H 373.161 1.01812 -5.39375 0
M  V30 3886 H 373.422 1.98471 -3.95046 0
M  V30 3887 N 372.481 1.55866 -0.233164 0
M  V30 3888 C 373.413 2.18099 0.704668 0
M  V30 3889 C 374.426 1.15334 1.14899 0
M  V30 3890 O 375.615 1.42262 1.07814 0
M  V30 3891 C 372.715 2.7592 1.96777 0
M  V30 3892 C 371.888 4.03969 1.67713 0
M  V30 3893 C 370.947 4.46242 2.78845 0
M  V30 3894 O 369.973 5.12903 2.46818 0
M  V30 3895 N 371.175 4.12886 4.08051 0
M  V30 3896 H 373.94 2.99205 0.172258 0
M  V30 3897 H 371.501 1.61815 -0.0525945 0
M  V30 3898 H 373.493 3.01165 2.70337 0
M  V30 3899 H 372.063 1.99051 2.41034 0
M  V30 3900 H 371.283 3.86459 0.777391 0
M  V30 3901 H 372.571 4.8748 1.4574 0
M  V30 3902 H 371.969 3.59342 4.3691 0
M  V30 3903 H 370.526 4.42997 4.78118 0
M  V30 3904 N 373.959 -0.0401083 1.57549 0
M  V30 3905 C 374.869 -1.06133 2.0922 0
M  V30 3906 C 375.885 -1.40356 1.0284 0
M  V30 3907 O 377.061 -1.49897 1.34509 0
M  V30 3908 C 374.126 -2.34658 2.55218 0
M  V30 3909 C 373.187 -2.07117 3.76033 0
M  V30 3910 C 372.42 -3.29514 4.19829 0
M  V30 3911 O 372.643 -4.39794 3.63232 0
M  V30 3912 O 371.577 -3.15863 5.12362 0
M  V30 3913 H 375.403 -0.652244 2.96613 0
M  V30 3914 H 372.988 -0.256368 1.47184 0
M  V30 3915 H 374.87 -3.10239 2.85184 0
M  V30 3916 H 373.545 -2.74883 1.70941 0
M  V30 3917 H 372.452 -1.29139 3.51104 0
M  V30 3918 H 373.785 -1.71754 4.61261 0
M  V30 3919 N 375.437 -1.54477 -0.31217 0
M  V30 3920 C 376.4 -1.83923 -1.36766 0
M  V30 3921 C 377.4 -0.711563 -1.44199 0
M  V30 3922 O 378.59 -0.979866 -1.44029 0
M  V30 3923 C 375.722 -2.0095 -2.75376 0
M  V30 3924 H 376.915 -2.78239 -1.11906 0
M  V30 3925 H 374.468 -1.46369 -0.548257 0
M  V30 3926 H 375.203 -1.08883 -3.05475 0
M  V30 3927 H 374.988 -2.83018 -2.71373 0
M  V30 3928 H 376.478 -2.2514 -3.51713 0
M  V30 3929 N 376.915 0.57481 -1.46744 0
M  V30 3930 C 377.862 1.68329 -1.57905 0
M  V30 3931 C 378.832 1.60625 -0.422927 0
M  V30 3932 O 380.017 1.79721 -0.640711 0
M  V30 3933 C 377.157 3.06665 -1.58274 0
M  V30 3934 C 376.27 3.24935 -2.84678 0
M  V30 3935 C 375.405 4.53566 -2.76499 0
M  V30 3936 C 374.444 4.65207 -3.97806 0
M  V30 3937 N 373.581 5.85172 -3.87967 0
M  V30 3938 H 378.421 1.58127 -2.52587 0
M  V30 3939 H 375.958 0.770552 -1.25303 0
M  V30 3940 H 377.916 3.86745 -1.56473 0
M  V30 3941 H 376.546 3.15745 -0.671194 0
M  V30 3942 H 375.598 2.38405 -2.96424 0
M  V30 3943 H 376.91 3.29403 -3.7456 0
M  V30 3944 H 376.064 5.41885 -2.72848 0
M  V30 3945 H 374.803 4.51548 -1.8427 0
M  V30 3946 H 373.808 3.75304 -4.0178 0
M  V30 3947 H 375.033 4.68997 -4.9114 0
M  V30 3948 H 372.979 5.84137 -2.98529 0
M  V30 3949 H 372.896 5.90943 -4.71511 0
M  V30 3950 H 374.164 6.759 -3.88303 0
M  V30 3951 N 378.394 1.34581 0.820102 0
M  V30 3952 C 379.671 1.17675 1.56244 0
M  V30 3953 C 380.051 -0.249541 2.0962 0
M  V30 3954 O 379.399 -1.25125 1.91196 0
M  V30 3955 C 379.609 2.23364 2.6816 0
M  V30 3956 C 380.957 2.58485 3.36854 0
M  V30 3957 O 381.981 2.22175 2.78418 0
M  V30 3958 O 380.84 3.20868 4.42386 0
M  V30 3959 H 377.934 0.456333 0.689702 0
M  V30 3960 H 380.48 1.46222 0.861231 0
M  V30 3961 H 379.252 3.19087 2.26493 0
M  V30 3962 H 378.875 1.96009 3.45928 0
M  V30 3963 N 379.872 -1.04064 1.18357 0
M  V30 3964 C 380.822 -2.10393 0.878561 0
M  V30 3965 C 381.806 -1.60183 -0.151713 0
M  V30 3966 O 382.998 -1.76923 0.0523303 0
M  V30 3967 C 380.127 -3.4089 0.406096 0
M  V30 3968 C 379.213 -3.97866 1.46844 0
M  V30 3969 N 379.604 -4.28657 2.68489 0
M  V30 3970 C 377.902 -4.2574 1.32896 0
M  V30 3971 C 378.603 -4.74253 3.36836 0
M  V30 3972 N 377.579 -4.75068 2.64219 0
M  V30 3973 H 381.381 -2.32076 1.80327 0
M  V30 3974 H 378.895 -1.21818 1.07397 0
M  V30 3975 H 380.892 -4.16557 0.169088 0
M  V30 3976 H 379.552 -3.20633 -0.512275 0
M  V30 3977 H 380.563 -4.18304 3.05356 0
M  V30 3978 H 377.24 -4.1481 0.473134 0
M  V30 3979 H 378.63 -5.07096 4.40798 0
M  V30 3980 N 381.35 -0.985608 -1.22978 0
M  V30 3981 C 382.59 -0.665487 -1.93263 0
M  V30 3982 C 382.954 0.78706 -1.75127 0
M  V30 3983 O 384.155 1.21826 -2.39608 0
M  V30 3984 C 382.426 -1.0515 -3.41582 0
M  V30 3985 S 383.985 -0.848637 -4.30516 0
M  V30 3986 H 380.803 -0.24355 -0.667985 0
M  V30 3987 H 383.405 -1.26635 -1.48942 0
M  V30 3988 H 382.109 -2.10517 -3.52293 0
M  V30 3989 H 381.64 -0.442134 -3.90908 0
M  V30 3990 H 383.655 0.264717 -4.95493 0
M  V30 3991 N 382.828 1.3818 -0.7579 0
M  V30 3992 C 384.105 1.94106 -0.241306 0
M  V30 3993 C 384.485 1.69282 1.26122 0
M  V30 3994 O 383.833 1.03378 2.03777 0
M  V30 3995 C 384.043 3.43809 -0.59967 0
M  V30 3996 C 385.391 4.20868 -0.561717 0
M  V30 3997 O 386.415 3.5211 -0.538222 0
M  V30 3998 O 385.274 5.43451 -0.576478 0
M  V30 3999 H 382.368 0.825376 -0.0518042 0
M  V30 4000 H 384.914 1.47548 -0.838315 0
M  V30 4001 H 383.686 3.55403 -1.6372 0
M  V30 4002 H 383.309 3.97592 0.0251197 0
M  V30 4003 N 384.306 0.507319 1.49211 0
M  V30 4004 C 385.717 0.0611118 1.866 0
M  V30 4005 C 386.068 -1.35488 1.41907 0
M  V30 4006 O 385.193 -2.0108 0.799726 0
M  V30 4007 C 385.788 0.104125 3.3864 0
M  V30 4008 C 384.347 -0.28677 3.75306 0
M  V30 4009 C 383.494 0.473893 2.73221 0
M  V30 4010 H 386.445 0.719775 1.41439 0
M  V30 4011 H 386.466 -0.689672 3.74198 0
M  V30 4012 H 385.978 1.13482 3.71138 0
M  V30 4013 H 384.079 -1.32046 3.48417 0
M  V30 4014 H 384.192 0.0370745 4.79086 0
M  V30 4015 H 382.556 -0.0770644 2.54583 0
M  V30 4016 H 383.339 1.50478 3.08563 0
M  V30 4017 N 385.784 -1.5574 0.241426 0
M  V30 4018 C 386.731 -2.21149 -0.660432 0
M  V30 4019 C 387.701 -1.17356 -1.17545 0
M  V30 4020 O 388.886 -1.45784 -1.23093 0
M  V30 4021 C 386.026 -2.91059 -1.85414 0
M  V30 4022 C 385.139 -4.09495 -1.37616 0
M  V30 4023 C 384.274 -4.67135 -2.529 0
M  V30 4024 C 383.313 -5.77831 -2.01936 0
M  V30 4025 N 382.45 -6.29677 -3.10566 0
M  V30 4026 H 387.29 -2.97845 -0.095955 0
M  V30 4027 H 384.827 -1.47057 -0.0356024 0
M  V30 4028 H 386.785 -3.29788 -2.5553 0
M  V30 4029 H 385.415 -2.16846 -2.39118 0
M  V30 4030 H 384.467 -3.76117 -0.569235 0
M  V30 4031 H 385.779 -4.89423 -0.962618 0
M  V30 4032 H 384.933 -5.08409 -3.31067 0
M  V30 4033 H 383.672 -3.86411 -2.97553 0
M  V30 4034 H 382.677 -5.36039 -1.22238 0
M  V30 4035 H 383.902 -6.60402 -1.58259 0
M  V30 4036 H 381.848 -5.5186 -3.54664 0
M  V30 4037 H 381.765 -7.04783 -2.73526 0
M  V30 4038 H 383.033 -6.75609 -3.88809 0
M  V30 4039 N 387.262 0.0317525 -1.57568 0
M  V30 4040 C 388.508 0.724175 -1.8943 0
M  V30 4041 C 388.841 1.75149 -0.838836 0
M  V30 4042 O 388.116 1.93948 0.146422 0
M  V30 4043 C 388.399 1.39615 -3.31933 0
M  V30 4044 C 388.252 0.382537 -4.4817 0
M  V30 4045 C 389.571 2.33084 -3.73309 0
M  V30 4046 H 386.69 0.261797 -0.688935 0
M  V30 4047 H 389.332 -0.013017 -1.89996 0
M  V30 4048 H 387.482 2.02451 -3.31581 0
M  V30 4049 H 389.154 -0.243689 -4.60656 0
M  V30 4050 H 387.397 -0.29844 -4.32772 0
M  V30 4051 H 388.068 0.891145 -5.44759 0
M  V30 4052 H 390.544 1.80295 -3.7501 0
M  V30 4053 H 389.42 2.77084 -4.73831 0
M  V30 4054 H 389.681 3.19643 -3.05419 0
M  V30 4055 N 388.74 1.54641 0.303973 0
M  V30 4056 C 389.67 1.88386 1.3796 0
M  V30 4057 C 390.651 0.742485 1.5304 0
M  V30 4058 O 391.836 0.997959 1.66597 0
M  V30 4059 C 388.966 2.12854 2.74427 0
M  V30 4060 C 387.92 3.28702 2.74115 0
M  V30 4061 C 387.246 3.38582 4.13844 0
M  V30 4062 C 388.546 4.65881 2.3612 0
M  V30 4063 H 390.24 2.78474 1.09966 0
M  V30 4064 H 387.786 1.33988 0.527556 0
M  V30 4065 H 389.739 2.35047 3.49758 0
M  V30 4066 H 388.463 1.19535 3.03939 0
M  V30 4067 H 387.122 3.06428 2.0124 0
M  V30 4068 H 386.77 2.42784 4.40528 0
M  V30 4069 H 386.47 4.16453 4.14537 0
M  V30 4070 H 387.994 3.63031 4.90959 0
M  V30 4071 H 389.408 4.87823 3.01167 0
M  V30 4072 H 387.805 5.46444 2.48031 0
M  V30 4073 H 388.875 4.66799 1.3125 0
M  V30 4074 N 390.218 -0.567019 1.47046 0
M  V30 4075 C 391.458 -1.3355 1.54738 0
M  V30 4076 C 391.822 -1.90947 0.200772 0
M  V30 4077 O 393.023 -2.68367 0.152489 0
M  V30 4078 C 391.294 -2.42317 2.62712 0
M  V30 4079 S 392.853 -3.29383 2.89918 0
M  V30 4080 H 389.671 -0.454788 0.546525 0
M  V30 4081 H 392.273 -0.650191 1.84371 0
M  V30 4082 H 390.977 -1.98568 3.59164 0
M  V30 4083 H 390.508 -3.15601 2.34861 0
M  V30 4084 H 392.523 -4.41548 2.26384 0
M  V30 4085 N 391.696 -1.35014 -0.812953 0
M  V30 4086 C 392.945 -1.27269 -1.56479 0
M  V30 4087 C 393.258 0.152771 -1.95002 0
M  V30 4088 O 394.464 0.352451 -2.69203 0
M  V30 4089 C 392.92 -2.23159 -2.82362 0
M  V30 4090 C 392.528 -3.71016 -2.511 0
M  V30 4091 C 394.272 -2.24342 -3.60376 0
M  V30 4092 C 392.179 -4.58746 -3.73237 0
M  V30 4093 H 391.109 -0.472829 -0.587324 0
M  V30 4094 H 393.76 -1.6024 -0.894171 0
M  V30 4095 H 392.142 -1.83151 -3.51101 0
M  V30 4096 H 393.316 -4.1962 -1.90409 0
M  V30 4097 H 391.631 -3.72378 -1.86343 0
M  V30 4098 H 394.228 -2.87107 -4.51081 0
M  V30 4099 H 394.571 -1.24542 -3.97234 0
M  V30 4100 H 395.104 -2.62846 -2.98591 0
M  V30 4101 H 391.843 -5.59521 -3.41492 0
M  V30 4102 H 391.363 -4.14871 -4.33176 0
M  V30 4103 H 393.042 -4.73852 -4.40537 0
M  V30 4104 N 393.175 1.03435 -1.18907 0
M  V30 4105 C 394.424 1.76143 -0.982669 0
M  V30 4106 C 394.737 1.89416 0.487953 0
M  V30 4107 O 395.943 2.59041 0.813036 0
M  V30 4108 C 394.399 3.16722 -1.70924 0
M  V30 4109 C 394.007 3.11522 -3.21959 0
M  V30 4110 C 395.751 3.93764 -1.58588 0
M  V30 4111 C 393.658 4.46999 -3.87228 0
M  V30 4112 H 392.588 0.660292 -0.364047 0
M  V30 4113 H 395.239 1.158 -1.42347 0
M  V30 4114 H 393.621 3.775 -1.19623 0
M  V30 4115 H 394.795 2.60158 -3.80335 0
M  V30 4116 H 393.11 2.47978 -3.34508 0
M  V30 4117 H 395.707 4.93963 -2.04707 0
M  V30 4118 H 396.05 4.12794 -0.539142 0
M  V30 4119 H 396.583 3.39576 -2.07203 0
M  V30 4120 H 393.322 4.33174 -4.91976 0
M  V30 4121 H 392.842 4.98441 -3.33642 0
M  V30 4122 H 394.521 5.15898 -3.90459 0
M  V30 4123 N 394.653 0.992116 1.22453 0
M  V30 4124 C 395.601 0.534644 2.26372 0
M  V30 4125 C 396.595 -0.414293 1.64256 0
M  V30 4126 O 397.801 -0.286899 1.77699 0
M  V30 4127 H 394.176 0.154502 0.735957 0
M  V30 4128 H 396.147 1.42256 2.62309 0
M  V30 4129 C 394.896 -0.135815 3.47435 0
M  V30 4130 H 394.219 0.585311 3.95492 0
M  V30 4131 H 395.659 -0.419374 4.21921 0
M  V30 4132 C 394.118 -1.37089 3.07747 0
M  V30 4133 O 394.648 -2.46629 3.17076 0
M  V30 4134 N 392.854 -1.24585 2.62539 0
M  V30 4135 H 392.401 -0.354542 2.55149 0
M  V30 4136 H 392.359 -2.07327 2.36353 0
M  V30 4137 N 396.131 -1.37776 0.765217 0
M  V30 4138 C 397.542 -1.82521 0.392819 0
M  V30 4139 C 397.893 -1.63789 -1.08017 0
M  V30 4140 O 397.018 -1.14542 -1.83601 0
M  V30 4141 C 397.613 -3.31358 0.706214 0
M  V30 4142 C 396.172 -3.74406 0.386952 0
M  V30 4143 C 395.319 -2.60394 0.953422 0
M  V30 4144 H 398.27 -1.2634 0.960412 0
M  V30 4145 H 398.291 -3.80498 -0.0114706 0
M  V30 4146 H 397.803 -3.44959 1.77833 0
M  V30 4147 H 395.904 -3.66377 -0.678112 0
M  V30 4148 H 396.017 -4.70749 0.890636 0
M  V30 4149 H 394.381 -2.51878 0.378064 0
M  V30 4150 H 395.164 -2.76791 2.03081 0
M  V30 4151 N 397.609 -0.515225 -1.4894 0
M  V30 4152 C 398.857 0.0241671 -2.02086 0
M  V30 4153 C 399.178 1.3616 -1.3959 0
M  V30 4154 O 398.448 1.87841 -0.556121 0
M  V30 4155 H 397.028 0.0119203 -0.746905 0
M  V30 4156 H 399.69 -0.675702 -1.82812 0
M  V30 4157 H 398.786 0.143385 -3.1177 0
M  V30 4158 N 399.087 1.5561 -0.249682 0
M  V30 4159 C 400.035 2.22894 0.664906 0
M  V30 4160 C 401.029 1.21743 1.17792 0
M  V30 4161 O 402.235 1.39748 1.13449 0
M  V30 4162 H 398.61 0.715022 0.232912 0
M  V30 4163 H 400.581 2.98307 0.0742998 0
M  V30 4164 C 399.33 2.94424 1.84959 0
M  V30 4165 H 398.653 3.72031 1.46399 0
M  V30 4166 H 400.093 3.44862 2.4667 0
M  V30 4167 C 398.552 1.98454 2.72245 0
M  V30 4168 O 399.082 1.51939 3.71857 0
M  V30 4169 N 397.288 1.65496 2.38871 0
M  V30 4170 H 396.835 2.03517 1.57919 0
M  V30 4171 H 396.793 1.0155 2.97548 0
M  V30 4172 N 400.565 -0.0233959 1.57583 0
M  V30 4173 C 401.976 -0.56927 1.77809 0
M  V30 4174 C 402.327 -1.75284 0.881472 0
M  V30 4175 O 401.452 -2.1626 0.0777805 0
M  V30 4176 C 402.047 -1.03949 3.22459 0
M  V30 4177 C 400.606 -1.53084 3.43864 0
M  V30 4178 C 399.753 -0.471454 2.73263 0
M  V30 4179 H 402.704 0.202825 1.57399 0
M  V30 4180 H 402.725 -1.90661 3.29285 0
M  V30 4181 H 402.237 -0.177865 3.87692 0
M  V30 4182 H 400.338 -2.41414 2.83814 0
M  V30 4183 H 400.451 -1.57443 4.52491 0
M  V30 4184 H 398.815 -0.927788 2.37201 0
M  V30 4185 H 399.598 0.380808 3.41181 0
M  V30 4186 N 402.043 -1.548 -0.295768 0
M  V30 4187 C 403.271 -1.78327 -1.04914 0
M  V30 4188 C 403.686 -0.545316 -1.80753 0
M  V30 4189 O 403.043 0.485013 -1.75937 0
M  V30 4190 C 403.094 -2.99418 -2.02561 0
M  V30 4191 O 402.815 -4.18431 -1.29798 0
M  V30 4192 C 404.316 -3.35375 -2.89895 0
M  V30 4193 H 401.536 -0.594618 -0.310918 0
M  V30 4194 H 404.08 -2.01763 -0.333454 0
M  V30 4195 H 402.235 -2.78175 -2.69624 0
M  V30 4196 H 402.649 -4.86736 -1.95419 0
M  V30 4197 H 404.123 -4.23332 -3.54251 0
M  V30 4198 H 404.6 -2.53761 -3.58472 0
M  V30 4199 H 405.206 -3.58796 -2.28355 0
M  V30 4200 N 403.521 0.559213 -1.47345 0
M  V30 4201 C 404.769 1.31388 -1.53563 0
M  V30 4202 C 405.09 1.93985 -0.198678 0
M  V30 4203 O 404.36 1.79825 0.777167 0
M  V30 4204 H 402.94 0.487901 -0.565652 0
M  V30 4205 H 405.602 0.65315 -1.8363 0
M  V30 4206 H 404.698 2.10844 -2.30111 0
M  V30 4207 N 404.999 1.35443 0.805782 0
M  V30 4208 C 405.931 1.24285 1.92577 0
M  V30 4209 C 406.944 0.165962 1.61952 0
M  V30 4210 O 408.133 0.419303 1.73505 0
M  V30 4211 C 405.233 0.891272 3.2697 0
M  V30 4212 C 404.406 2.06669 3.85495 0
M  V30 4213 C 403.465 1.69077 4.98297 0
M  V30 4214 O 402.491 2.4096 5.15681 0
M  V30 4215 N 403.693 0.614869 5.77234 0
M  V30 4216 H 406.458 2.20777 2.02676 0
M  V30 4217 H 404.019 1.28623 0.983243 0
M  V30 4218 H 406.011 0.621256 3.99903 0
M  V30 4219 H 404.581 0.016004 3.12596 0
M  V30 4220 H 403.801 2.50046 3.04747 0
M  V30 4221 H 405.089 2.85237 4.21328 0
M  V30 4222 H 404.487 0.017648 5.65697 0
M  V30 4223 H 403.044 0.404636 6.50543 0
M  V30 4224 N 406.477 -1.02803 1.19454 0
M  V30 4225 C 407.723 -1.76478 0.999171 0
M  V30 4226 C 408.056 -1.88456 -0.468828 0
M  V30 4227 O 407.331 -1.40198 -1.34814 0
M  V30 4228 C 407.614 -3.19044 1.66981 0
M  V30 4229 C 407.467 -3.14932 3.21151 0
M  V30 4230 C 408.786 -4.17456 1.39349 0
M  V30 4231 H 405.905 -0.640614 0.364393 0
M  V30 4232 H 408.547 -1.20005 1.47305 0
M  V30 4233 H 406.697 -3.67263 1.2669 0
M  V30 4234 H 408.369 -2.74605 3.70661 0
M  V30 4235 H 406.612 -2.52625 3.52652 0
M  V30 4236 H 407.283 -4.1566 3.63223 0
M  V30 4237 H 409.759 -3.77842 1.74283 0
M  V30 4238 H 408.635 -5.154 1.88823 0
M  V30 4239 H 408.896 -4.40949 0.318813 0
M  V30 4240 N 407.956 -0.998596 -1.21925 0
M  V30 4241 C 408.888 -0.511879 -2.23411 0
M  V30 4242 C 409.901 0.396094 -1.57908 0
M  V30 4243 O 411.09 0.197316 -1.77406 0
M  V30 4244 C 408.19 0.276802 -3.37768 0
M  V30 4245 C 407.363 -0.628687 -4.32858 0
M  V30 4246 C 406.422 0.109272 -5.26087 0
M  V30 4247 O 405.448 -0.507237 -5.66935 0
M  V30 4248 N 406.65 1.38983 -5.63617 0
M  V30 4249 H 409.415 -1.38457 -2.658 0
M  V30 4250 H 406.976 -0.873981 -1.36283 0
M  V30 4251 H 408.968 0.77928 -3.97126 0
M  V30 4252 H 407.538 1.05063 -2.94415 0
M  V30 4253 H 406.758 -1.31175 -3.71735 0
M  V30 4254 H 408.046 -1.24514 -4.93329 0
M  V30 4255 H 407.444 1.91194 -5.32411 0
M  V30 4256 H 406.001 1.83739 -6.25367 0
M  V30 4257 N 409.434 1.37368 -0.772513 0
M  V30 4258 C 410.659 2.0447 -0.347386 0
M  V30 4259 C 411.084 1.57882 1.0225 0
M  V30 4260 O 410.442 0.73941 1.65537 0
M  V30 4261 C 410.49 3.58369 -0.400479 0
M  V30 4262 O 409.594 4.0803 0.598789 0
M  V30 4263 H 408.935 0.646773 -0.15027 0
M  V30 4264 H 411.465 1.75667 -1.04892 0
M  V30 4265 H 411.475 4.07183 -0.258045 0
M  V30 4266 H 410.15 3.91633 -1.39986 0
M  V30 4267 H 408.727 3.70534 0.419411 0
M  V30 4268 N 410.912 0.523116 1.48665 0
M  V30 4269 C 412.328 0.180511 1.58576 0
M  V30 4270 C 412.528 -1.31597 1.52592 0
M  V30 4271 O 411.584 -2.0937 1.4114 0
M  V30 4272 C 412.897 0.776949 2.90489 0
M  V30 4273 C 414.445 0.745058 3.04003 0
M  V30 4274 C 414.92 1.31995 4.38567 0
M  V30 4275 N 416.411 1.28162 4.45117 0
M  V30 4276 C 417.146 1.6964 5.47731 0
M  V30 4277 N 416.642 2.18816 6.57337 0
M  V30 4278 N 418.435 1.6092 5.38573 0
M  V30 4279 H 410.586 1.4958 1.50797 0
M  V30 4280 H 412.849 0.621772 0.715614 0
M  V30 4281 H 412.555 1.82732 3.00503 0
M  V30 4282 H 412.429 0.25007 3.7637 0
M  V30 4283 H 414.816 -0.296532 2.93606 0
M  V30 4284 H 414.897 1.30933 2.1975 0
M  V30 4285 H 414.541 2.36043 4.49718 0
M  V30 4286 H 414.471 0.731418 5.21496 0
M  V30 4287 H 416.962 0.92155 3.66491 0
M  V30 4288 H 417.275 2.48478 7.31764 0
M  V30 4289 H 415.62 2.22805 6.58318 0
M  V30 4290 H 418.811 1.22304 4.5184 0
M  V30 4291 H 418.984 1.93567 6.18414 0
M  V30 4292 N 412.39 -1.55475 0.257931 0
M  V30 4293 C 413.337 -2.21837 -0.636939 0
M  V30 4294 C 414.307 -1.18596 -1.16294 0
M  V30 4295 O 415.492 -1.47081 -1.21539 0
M  V30 4296 C 412.632 -2.9301 -1.82317 0
M  V30 4297 C 411.745 -4.10931 -1.33265 0
M  V30 4298 C 410.88 -4.69791 -2.47931 0
M  V30 4299 C 409.919 -5.7994 -1.95796 0
M  V30 4300 N 409.056 -6.32935 -3.0387 0
M  V30 4301 H 413.896 -2.9793 -0.0643591 0
M  V30 4302 H 411.433 -1.47086 -0.0200031 0
M  V30 4303 H 413.391 -3.3248 -2.52018 0
M  V30 4304 H 412.021 -2.1937 -2.36805 0
M  V30 4305 H 411.073 -3.76699 -0.52931 0
M  V30 4306 H 412.385 -4.90417 -0.910654 0
M  V30 4307 H 411.539 -5.11892 -3.25656 0
M  V30 4308 H 410.278 -3.89545 -2.93438 0
M  V30 4309 H 409.283 -5.37305 -1.16546 0
M  V30 4310 H 410.508 -6.62043 -1.51246 0
M  V30 4311 H 408.454 -5.55591 -3.48791 0
M  V30 4312 H 408.371 -7.07645 -2.66035 0
M  V30 4313 H 409.639 -6.79695 -3.81621 0
M  V30 4314 N 413.868 0.0150385 -1.57593 0
M  V30 4315 C 415.108 0.70768 -1.91758 0
M  V30 4316 C 415.472 1.71764 -0.857974 0
M  V30 4317 O 416.673 2.45956 -1.0844 0
M  V30 4318 C 414.944 1.34736 -3.3103 0
M  V30 4319 S 416.503 2.06721 -3.87056 0
M  V30 4320 H 413.321 0.234119 -0.671349 0
M  V30 4321 H 415.923 -0.0380373 -1.95463 0
M  V30 4322 H 414.627 0.59926 -4.06001 0
M  V30 4323 H 414.158 2.13133 -3.30663 0
M  V30 4324 H 416.173 3.34047 -3.66915 0
M  V30 4325 N 415.346 1.54954 0.287554 0
M  V30 4326 C 416.595 1.74081 1.01877 0
M  V30 4327 C 416.908 0.541135 1.87966 0
M  V30 4328 O 418.114 0.614491 2.64455 0
M  V30 4329 C 416.57 3.08042 1.86113 0
M  V30 4330 C 416.178 4.35531 1.04961 0
M  V30 4331 C 417.922 3.36523 2.58752 0
M  V30 4332 C 415.829 5.60538 1.88551 0
M  V30 4333 H 414.759 0.64884 0.384087 0
M  V30 4334 H 417.41 1.81426 0.275101 0
M  V30 4335 H 415.792 2.94696 2.64519 0
M  V30 4336 H 416.966 4.59751 0.31074 0
M  V30 4337 H 415.281 4.14085 0.43843 0
M  V30 4338 H 417.878 4.27122 3.21668 0
M  V30 4339 H 418.221 2.56 3.28283 0
M  V30 4340 H 418.754 3.50901 1.87386 0
M  V30 4341 H 415.493 6.43767 1.23466 0
M  V30 4342 H 415.013 5.40483 2.60074 0
M  V30 4343 H 416.692 5.98297 2.46273 0
M  V30 4344 N 416.824 -0.551391 1.4764 0
M  V30 4345 C 417.734 -1.68525 1.63207 0
M  V30 4346 C 418.75 -1.6621 0.514815 0
M  V30 4347 O 419.926 -1.85551 0.783113 0
M  V30 4348 C 416.991 -3.05025 1.64805 0
M  V30 4349 C 416.052 -3.18362 2.88 0
M  V30 4350 C 415.285 -4.4835 2.89513 0
M  V30 4351 O 415.508 -5.34163 2.00065 0
M  V30 4352 O 414.442 -4.65602 3.81443 0
M  V30 4353 H 418.268 -1.58333 2.59161 0
M  V30 4354 H 415.853 -0.722063 1.30792 0
M  V30 4355 H 417.735 -3.86245 1.68502 0
M  V30 4356 H 416.41 -3.15587 0.720197 0
M  V30 4357 H 415.317 -2.36518 2.89845 0
M  V30 4358 H 416.65 -3.12707 3.80099 0
M  V30 4359 N 418.302 -1.35869 -0.798587 0
M  V30 4360 C 419.579 -1.20145 -1.54352 0
M  V30 4361 C 419.959 0.216161 -2.0999 0
M  V30 4362 O 419.307 1.22068 -1.93162 0
M  V30 4363 C 419.517 -2.27602 -2.64572 0
M  V30 4364 C 420.865 -2.63811 -3.32699 0
M  V30 4365 O 421.889 -2.26576 -2.74849 0
M  V30 4366 O 420.748 -3.27866 -4.37226 0
M  V30 4367 H 417.842 -0.467248 -0.682355 0
M  V30 4368 H 420.388 -1.47574 -0.837859 0
M  V30 4369 H 419.16 -3.2265 -2.21388 0
M  V30 4370 H 418.783 -2.01488 -3.42766 0
M  V30 4371 N 419.78 1.02168 -1.19998 0
M  V30 4372 C 421.026 1.75945 -1.00852 0
M  V30 4373 C 421.359 1.88702 0.458828 0
M  V30 4374 O 420.634 1.40911 1.34069 0
M  V30 4375 C 420.917 3.18154 -1.68671 0
M  V30 4376 C 420.77 3.13224 -3.22817 0
M  V30 4377 C 422.089 4.16711 -1.41561 0
M  V30 4378 H 419.208 0.638673 -0.367785 0
M  V30 4379 H 421.85 1.19222 -1.4794 0
M  V30 4380 H 420 3.66586 -1.28636 0
M  V30 4381 H 421.672 2.72635 -3.72112 0
M  V30 4382 H 419.915 2.50751 -3.53986 0
M  V30 4383 H 420.586 4.13728 -3.65422 0
M  V30 4384 H 423.062 3.76913 -1.76284 0
M  V30 4385 H 421.938 5.14391 -1.91553 0
M  V30 4386 H 422.199 4.40774 -0.342193 0
M  V30 4387 N 421.258 1.00505 1.21394 0
M  V30 4388 C 422.507 0.683159 1.89778 0
M  V30 4389 C 422.82 -0.789471 1.7896 0
M  V30 4390 O 424.026 -1.22344 2.42372 0
M  V30 4391 C 422.482 1.17146 3.40301 0
M  V30 4392 C 422.09 2.67017 3.5973 0
M  V30 4393 C 423.834 0.924461 4.14311 0
M  V30 4394 C 421.741 3.09387 5.04017 0
M  V30 4395 H 420.671 0.25183 0.710702 0
M  V30 4396 H 423.322 1.21622 1.37406 0
M  V30 4397 H 421.704 0.566451 3.91928 0
M  V30 4398 H 422.878 3.32968 3.18542 0
M  V30 4399 H 421.193 2.89732 2.99073 0
M  V30 4400 H 423.79 1.21658 5.20676 0
M  V30 4401 H 424.133 -0.139286 4.16067 0
M  V30 4402 H 424.666 1.49226 3.6875 0
M  V30 4403 H 421.405 4.14989 5.07409 0
M  V30 4404 H 420.925 2.48149 5.46061 0
M  V30 4405 H 422.604 3.01371 5.72525 0
M  V30 4406 N 422.737 -1.36956 0.779787 0
M  V30 4407 C 423.687 -2.27539 0.144892 0
M  V30 4408 C 424.671 -1.46493 -0.665488 0
M  V30 4409 O 425.863 -1.68968 -0.527141 0
M  V30 4410 C 422.992 -3.35512 -0.727082 0
M  V30 4411 C 422.078 -4.24001 0.0915642 0
M  V30 4412 N 422.469 -4.92757 1.14125 0
M  V30 4413 C 420.767 -4.45807 -0.131141 0
M  V30 4414 C 421.468 -5.58138 1.6388 0
M  V30 4415 N 420.444 -5.35241 0.94962 0
M  V30 4416 H 424.246 -2.78176 0.948446 0
M  V30 4417 H 421.76 -1.50169 0.618315 0
M  V30 4418 H 423.757 -3.99324 -1.19776 0
M  V30 4419 H 422.417 -2.86431 -1.52929 0
M  V30 4420 H 423.428 -4.94984 1.52353 0
M  V30 4421 H 420.105 -4.07582 -0.904621 0
M  V30 4422 H 421.495 -6.23071 2.51461 0
M  V30 4423 N 424.215 -0.530993 -1.48385 0
M  V30 4424 C 425.462 0.0027373 -2.025 0
M  V30 4425 C 425.79 1.34186 -1.40799 0
M  V30 4426 O 425.045 1.88 -0.543544 0
M  V30 4427 C 425.344 0.172742 -3.56982 0
M  V30 4428 C 425.01 -1.09215 -4.37473 0
M  V30 4429 C 423.672 -1.43881 -4.59186 0
M  V30 4430 C 426.024 -1.93153 -4.84088 0
M  V30 4431 C 423.352 -2.62381 -5.2476 0
M  V30 4432 C 425.704 -3.10833 -5.50968 0
M  V30 4433 C 424.368 -3.45843 -5.70919 0
M  V30 4434 H 423.638 0.00100165 -0.740999 0
M  V30 4435 H 426.285 -0.697219 -1.78357 0
M  V30 4436 H 424.59 0.955473 -3.79971 0
M  V30 4437 H 426.287 0.600642 -3.96476 0
M  V30 4438 H 422.877 -0.812177 -4.20834 0
M  V30 4439 H 427.061 -1.67683 -4.67115 0
M  V30 4440 H 422.317 -2.89707 -5.38405 0
M  V30 4441 H 426.491 -3.7618 -5.86056 0
M  V30 4442 H 424.118 -4.37764 -6.21503 0
M  V30 4443 N 425.693 1.55336 -0.266172 0
M  V30 4444 C 426.656 2.20878 0.612001 0
M  V30 4445 C 427.656 1.18388 1.08816 0
M  V30 4446 O 428.846 1.4335 0.989774 0
M  V30 4447 C 425.978 2.86765 1.84332 0
M  V30 4448 H 427.171 2.99873 0.0398718 0
M  V30 4449 H 424.724 1.56291 -0.0167309 0
M  V30 4450 H 425.459 2.11759 2.45619 0
M  V30 4451 H 425.244 3.61862 1.5099 0
M  V30 4452 H 426.734 3.36867 2.46801 0
M  V30 4453 N 427.171 -0.0066808 1.57599 0
M  V30 4454 C 428.417 -0.68835 1.91398 0
M  V30 4455 C 428.772 -1.7175 0.86716 0
M  V30 4456 O 428.065 -1.91215 -0.121475 0
M  V30 4457 C 428.259 -1.37939 3.29708 0
M  V30 4458 C 428.088 -0.418689 4.47747 0
M  V30 4459 C 426.858 -0.031526 5.0529 0
M  V30 4460 C 429.056 0.312301 5.13351 0
M  V30 4461 N 427.038 0.928088 6.06844 0
M  V30 4462 C 428.409 1.12682 6.09674 0
M  V30 4463 C 430.464 0.376853 4.96472 0
M  V30 4464 C 429.167 2 6.90936 0
M  V30 4465 C 431.193 1.23723 5.78314 0
M  V30 4466 C 430.555 2.03962 6.74225 0
M  V30 4467 H 426.654 -0.225292 0.748844 0
M  V30 4468 H 429.238 0.0520973 1.9463 0
M  V30 4469 H 427.409 -2.09017 3.27363 0
M  V30 4470 H 429.141 -2.01522 3.50957 0
M  V30 4471 H 425.896 -0.398485 4.71921 0
M  V30 4472 H 426.32 1.40307 6.62301 0
M  V30 4473 H 430.962 -0.22921 4.22178 0
M  V30 4474 H 428.68 2.61676 7.64559 0
M  V30 4475 H 432.266 1.291 5.67296 0
M  V30 4476 H 431.146 2.69461 7.36451 0
M  V30 4477 N 428.649 -1.55105 -0.279332 0
M  V30 4478 C 429.559 -1.90638 -1.36727 0
M  V30 4479 C 430.575 -0.802899 -1.54368 0
M  V30 4480 O 431.751 -1.10138 -1.68616 0
M  V30 4481 C 428.816 -2.16547 -2.70755 0
M  V30 4482 C 427.877 -3.40146 -2.61915 0
M  V30 4483 C 427.11 -3.6481 -3.8955 0
M  V30 4484 O 427.333 -2.92095 -4.89935 0
M  V30 4485 O 426.267 -4.58343 -3.90135 0
M  V30 4486 H 430.093 -2.83237 -1.09591 0
M  V30 4487 H 427.678 -1.4157 -0.477306 0
M  V30 4488 H 429.56 -2.34665 -3.50014 0
M  V30 4489 H 428.235 -1.27131 -2.9769 0
M  V30 4490 H 427.142 -3.2737 -1.81052 0
M  V30 4491 H 428.475 -4.29761 -2.3993 0
M  V30 4492 N 430.127 0.543554 -1.4793 0
M  V30 4493 C 431.037 1.67657 -1.64098 0
M  V30 4494 C 432.053 1.65934 -0.523622 0
M  V30 4495 O 433.229 1.85133 -0.792943 0
M  V30 4496 C 430.294 3.04146 -1.66421 0
M  V30 4497 C 429.355 3.16831 -2.89684 0
M  V30 4498 C 428.588 4.46809 -2.91886 0
M  V30 4499 O 428.811 5.33095 -2.02895 0
M  V30 4500 O 427.745 4.63573 -3.83906 0
M  V30 4501 H 431.571 1.56957 -2.59997 0
M  V30 4502 H 429.156 0.715116 -1.31173 0
M  V30 4503 H 431.038 3.85346 -1.70548 0
M  V30 4504 H 429.713 3.152 -0.736923 0
M  V30 4505 H 428.62 2.34977 -2.91095 0
M  V30 4506 H 429.953 3.10687 -3.81752 0
M  V30 4507 N 431.605 1.3629 0.791371 0
M  V30 4508 C 432.552 1.30458 1.90393 0
M  V30 4509 C 433.522 0.173632 1.6519 0
M  V30 4510 O 434.707 0.35983 1.87376 0
M  V30 4511 C 431.847 1.09777 3.27174 0
M  V30 4512 C 430.96 2.31929 3.64462 0
M  V30 4513 C 430.095 2.04276 4.90352 0
M  V30 4514 C 429.134 3.224 5.20312 0
M  V30 4515 N 428.271 2.94424 6.37385 0
M  V30 4516 H 433.111 2.25589 1.94714 0
M  V30 4517 H 430.648 1.12122 0.952216 0
M  V30 4518 H 432.606 0.958133 4.06049 0
M  V30 4519 H 431.236 0.183014 3.22281 0
M  V30 4520 H 430.288 2.56703 2.80727 0
M  V30 4521 H 431.6 3.20085 3.82553 0
M  V30 4522 H 430.754 1.87231 5.77087 0
M  V30 4523 H 429.493 1.13428 4.74326 0
M  V30 4524 H 428.498 3.40005 4.32061 0
M  V30 4525 H 429.723 4.14071 5.38258 0
M  V30 4526 H 427.669 2.06185 6.22755 0
M  V30 4527 H 427.586 3.76118 6.55798 0
M  V30 4528 H 428.854 2.80953 7.27108 0
M  V30 4529 N 433.083 -1.0153 1.20538 0
M  V30 4530 C 434.013 -2.11972 0.979295 0
M  V30 4531 C 434.994 -1.6985 -0.0921787 0
M  V30 4532 O 436.179 -1.94089 0.0655932 0
M  V30 4533 C 433.309 -3.43201 0.531984 0
M  V30 4534 C 432.263 -3.9907 1.54685 0
M  V30 4535 C 431.589 -5.26082 0.956127 0
M  V30 4536 C 432.889 -4.32313 2.93092 0
M  V30 4537 H 434.583 -2.31143 1.90298 0
M  V30 4538 H 432.129 -1.11079 0.916372 0
M  V30 4539 H 434.082 -4.1985 0.361044 0
M  V30 4540 H 432.806 -3.23792 -0.427327 0
M  V30 4541 H 431.465 -3.2453 1.70517 0
M  V30 4542 H 431.113 -5.02999 -0.0111538 0
M  V30 4543 H 430.813 -5.64426 1.63393 0
M  V30 4544 H 432.337 -6.05386 0.796284 0
M  V30 4545 H 433.751 -4.99845 2.80763 0
M  V30 4546 H 432.148 -4.81774 3.57791 0
M  V30 4547 H 433.218 -3.41025 3.44717 0
M  V30 4548 N 434.561 -1.01147 -1.20859 0
M  V30 4549 C 435.808 -0.697865 -1.90095 0
M  V30 4550 C 436.136 0.772014 -1.78522 0
M  V30 4551 O 435.391 1.57595 -1.16027 0
M  V30 4552 C 435.69 -1.0727 -3.40922 0
M  V30 4553 C 435.356 -2.53792 -3.72693 0
M  V30 4554 C 434.018 -2.93829 -3.81075 0
M  V30 4555 C 436.37 -3.48674 -3.87397 0
M  V30 4556 C 433.698 -4.27696 -4.01613 0
M  V30 4557 C 436.05 -4.82223 -4.09444 0
M  V30 4558 C 434.714 -5.21973 -4.16054 0
M  V30 4559 H 433.984 -0.255367 -0.695607 0
M  V30 4560 H 436.631 -1.27111 -1.43231 0
M  V30 4561 H 434.936 -0.417799 -3.89566 0
M  V30 4562 H 436.633 -0.807818 -3.92779 0
M  V30 4563 H 433.223 -2.21768 -3.66765 0
M  V30 4564 H 437.407 -3.18904 -3.80281 0
M  V30 4565 H 432.663 -4.58055 -4.04964 0
M  V30 4566 H 436.837 -5.55672 -4.19763 0
M  V30 4567 H 434.464 -6.25717 -4.31721 0
M  V30 4568 N 436.039 1.36541 -0.78704 0
M  V30 4569 C 436.969 2.32659 -0.197992 0
M  V30 4570 C 437.95 1.56533 0.665697 0
M  V30 4571 O 439.135 1.84698 0.60001 0
M  V30 4572 C 436.265 3.40778 0.669901 0
M  V30 4573 C 435.219 4.27897 -0.0937039 0
M  V30 4574 C 434.545 5.27163 0.894629 0
M  V30 4575 C 435.845 5.06334 -1.28154 0
M  V30 4576 H 437.539 2.82171 -1.00099 0
M  V30 4577 H 435.085 1.35665 -0.482793 0
M  V30 4578 H 437.038 4.07008 1.09191 0
M  V30 4579 H 435.762 2.89827 1.50558 0
M  V30 4580 H 434.421 3.6322 -0.49666 0
M  V30 4581 H 434.069 4.72486 1.72527 0
M  V30 4582 H 433.769 5.86317 0.388149 0
M  V30 4583 H 435.293 5.96266 1.31525 0
M  V30 4584 H 436.707 5.65617 -0.93541 0
M  V30 4585 H 435.104 5.74888 -1.72115 0
M  V30 4586 H 436.174 4.38114 -2.07807 0
M  V30 4587 N 437.518 0.538854 1.48102 0
M  V30 4588 C 438.448 -0.207654 2.32575 0
M  V30 4589 C 439.429 -0.926559 1.4265 0
M  V30 4590 O 440.614 -0.91061 1.71527 0
M  V30 4591 C 437.744 -1.24957 3.24042 0
M  V30 4592 C 436.698 -0.648263 4.23062 0
M  V30 4593 C 436.024 -1.79348 5.03725 0
M  V30 4594 C 437.324 0.385897 5.20872 0
M  V30 4595 H 439.018 0.497534 2.95237 0
M  V30 4596 H 436.564 0.240715 1.41974 0
M  V30 4597 H 438.517 -1.77983 3.81969 0
M  V30 4598 H 437.241 -1.98446 2.59397 0
M  V30 4599 H 435.9 -0.139452 3.66335 0
M  V30 4600 H 435.548 -2.51696 4.35498 0
M  V30 4601 H 435.248 -1.39702 5.70751 0
M  V30 4602 H 436.772 -2.32735 5.64506 0
M  V30 4603 H 438.186 -0.057607 5.73271 0
M  V30 4604 H 436.583 0.700227 5.96001 0
M  V30 4605 H 437.653 1.28848 4.67468 0
M  V30 4606 N 438.996 -1.55193 0.274407 0
M  V30 4607 C 439.959 -2.212 -0.600279 0
M  V30 4608 C 440.959 -1.18963 -1.08187 0
M  V30 4609 O 442.149 -1.43873 -0.982158 0
M  V30 4610 C 439.281 -2.87739 -1.82809 0
M  V30 4611 H 440.474 -2.9989 -0.0239682 0
M  V30 4612 H 438.027 -1.5628 0.0250192 0
M  V30 4613 H 438.762 -2.13058 -2.44493 0
M  V30 4614 H 438.547 -3.62658 -1.49069 0
M  V30 4615 H 440.037 -3.38171 -2.45011 0
M  V30 4616 N 440.474 -0.00167713 -1.576 0
M  V30 4617 C 441.751 0.719951 -1.81868 0
M  V30 4618 C 442.131 1.91895 -0.879747 0
M  V30 4619 O 441.479 2.28389 0.0711423 0
M  V30 4620 C 441.689 1.12409 -3.30402 0
M  V30 4621 C 443.037 1.52724 -3.96182 0
M  V30 4622 O 444.061 1.21784 -3.34734 0
M  V30 4623 O 442.92 2.10265 -5.04431 0
M  V30 4624 H 440.014 0.350707 -0.748955 0
M  V30 4625 H 442.56 -0.0272597 -1.69678 0
M  V30 4626 H 441.332 0.269532 -3.90371 0
M  V30 4627 H 440.955 1.93035 -3.47596 0
M  V30 4628 N 441.952 1.55251 0.271103 0
M  V30 4629 C 442.862 1.9136 1.35714 0
M  V30 4630 C 443.878 0.811075 1.5394 0
M  V30 4631 O 445.054 1.11031 1.6803 0
M  V30 4632 C 442.119 2.1798 2.69603 0
M  V30 4633 C 441.18 3.4153 2.60107 0
M  V30 4634 C 440.413 3.66871 3.8761 0
M  V30 4635 O 440.636 2.94689 4.8838 0
M  V30 4636 O 439.57 4.60405 3.87699 0
M  V30 4637 H 443.396 2.83815 1.08088 0
M  V30 4638 H 440.981 1.41821 0.469792 0
M  V30 4639 H 442.863 2.36518 3.48765 0
M  V30 4640 H 441.538 1.28708 2.97012 0
M  V30 4641 H 440.445 3.28325 1.79314 0
M  V30 4642 H 441.778 4.31027 2.37647 0
M  V30 4643 N 443.43 -0.535701 1.48216 0
M  V30 4644 C 444.676 -1.29375 1.56173 0
M  V30 4645 C 445.009 -1.92804 0.232429 0
M  V30 4646 O 444.284 -1.78992 -0.761048 0
M  V30 4647 C 444.567 -2.38747 2.69577 0
M  V30 4648 C 444.42 -1.80046 4.12193 0
M  V30 4649 C 445.739 -3.40551 2.78771 0
M  V30 4650 H 442.858 -0.469027 0.568491 0
M  V30 4651 H 445.5 -0.597358 1.80365 0
M  V30 4652 H 443.65 -2.98147 2.4908 0
M  V30 4653 H 445.322 -1.24742 4.44114 0
M  V30 4654 H 443.565 -1.10609 4.19462 0
M  V30 4655 H 444.236 -2.59212 4.87353 0
M  V30 4656 H 446.712 -2.91099 2.97322 0
M  V30 4657 H 445.588 -4.1448 3.59857 0
M  V30 4658 H 445.849 -4.00746 1.86696 0
M  V30 4659 N 444.908 -1.36708 -0.784132 0
M  V30 4660 C 446.138 -1.34203 -1.57077 0
M  V30 4661 C 446.546 0.0774945 -1.89041 0
M  V30 4662 O 445.889 1.04628 -1.50992 0
M  V30 4663 C 445.951 -2.10351 -2.91535 0
M  V30 4664 C 445.615 -3.59405 -2.82272 0
M  V30 4665 C 446.612 -4.53545 -2.54151 0
M  V30 4666 C 444.297 -4.02362 -3.00683 0
M  V30 4667 C 446.291 -5.8862 -2.44551 0
M  V30 4668 C 443.978 -5.37526 -2.90704 0
M  V30 4669 C 444.976 -6.30468 -2.62677 0
M  V30 4670 O 444.664 -7.63149 -2.52702 0
M  V30 4671 H 444.396 -0.461791 -0.493685 0
M  V30 4672 H 446.95 -1.80475 -0.980712 0
M  V30 4673 H 445.18 -1.5875 -3.52612 0
M  V30 4674 H 446.869 -2.00636 -3.52845 0
M  V30 4675 H 447.635 -4.21669 -2.39625 0
M  V30 4676 H 443.514 -3.30389 -3.21503 0
M  V30 4677 H 447.058 -6.61133 -2.22596 0
M  V30 4678 H 442.955 -5.69008 -3.04795 0
M  V30 4679 H 443.723 -7.73331 -2.68144 0
M  V30 4680 N 446.386 1.0089 -1.21074 0
M  V30 4681 C 447.318 2.09737 -0.924291 0
M  V30 4682 C 448.331 1.62546 0.0909809 0
M  V30 4683 O 449.52 1.77942 -0.141021 0
M  V30 4684 C 446.62 3.36922 -0.36559 0
M  V30 4685 C 445.793 4.13216 -1.43426 0
M  V30 4686 C 444.852 5.18696 -0.885496 0
M  V30 4687 O 443.878 5.47176 -1.56801 0
M  V30 4688 N 445.08 5.79718 0.301227 0
M  V30 4689 H 447.845 2.34895 -1.8613 0
M  V30 4690 H 445.406 1.17341 -1.11546 0
M  V30 4691 H 447.398 4.04697 0.0158407 0
M  V30 4692 H 445.968 3.08952 0.476149 0
M  V30 4693 H 445.188 3.40301 -1.9897 0
M  V30 4694 H 446.476 4.60967 -2.15376 0
M  V30 4695 H 445.874 5.58926 0.872849 0
M  V30 4696 H 444.431 6.48804 0.624211 0
M  V30 4697 N 447.864 1.01787 1.20321 0
M  V30 4698 C 449.141 0.622978 1.85414 0
M  V30 4699 C 449.521 -0.898887 1.91006 0
M  V30 4700 O 448.869 -1.79112 1.41884 0
M  V30 4701 C 449.079 1.27226 3.24984 0
M  V30 4702 C 450.427 1.3885 4.01255 0
M  V30 4703 O 451.451 1.22857 3.34342 0
M  V30 4704 O 450.31 1.64705 5.2109 0
M  V30 4705 H 447.404 0.215116 0.798533 0
M  V30 4706 H 449.95 1.11533 1.27901 0
M  V30 4707 H 448.722 2.31209 3.15687 0
M  V30 4708 H 448.345 0.767069 3.90131 0
M  V30 4709 N 449.342 -1.36122 0.79427 0
M  V30 4710 C 450.29 -2.31871 0.184023 0
M  V30 4711 C 451.284 -1.56041 -0.659365 0
M  V30 4712 O 452.49 -1.71266 -0.553906 0
M  V30 4713 H 448.865 -0.750896 0.0407373 0
M  V30 4714 H 450.836 -2.80898 1.00693 0
M  V30 4715 C 449.585 -3.41324 -0.662813 0
M  V30 4716 H 448.908 -3.99793 -0.0231944 0
M  V30 4717 H 450.348 -4.10629 -1.05639 0
M  V30 4718 C 448.807 -2.83308 -1.82313 0
M  V30 4719 O 449.337 -2.75863 -2.91997 0
M  V30 4720 N 447.543 -2.40529 -1.63077 0
M  V30 4721 H 447.09 -2.46785 -0.738591 0
M  V30 4722 H 447.048 -2.02059 -2.40872 0
M  V30 4723 N 450.82 -0.546701 -1.47814 0
M  V30 4724 C 452.066 -0.0187684 -2.02791 0
M  V30 4725 C 452.399 1.32338 -1.42128 0
M  V30 4726 O 451.674 1.85867 -0.573023 0
M  V30 4727 C 451.957 0.0854985 -3.59998 0
M  V30 4728 C 451.81 -1.283 -4.31114 0
M  V30 4729 C 453.129 0.80412 -4.32691 0
M  V30 4730 H 450.248 -0.0082946 -0.736953 0
M  V30 4731 H 452.89 -0.706962 -1.76358 0
M  V30 4732 H 451.04 0.671609 -3.82651 0
M  V30 4733 H 452.712 -1.91151 -4.19832 0
M  V30 4734 H 450.955 -1.86049 -3.91878 0
M  V30 4735 H 451.626 -1.16287 -5.39612 0
M  V30 4736 H 454.102 0.306576 -4.14969 0
M  V30 4737 H 452.978 0.846011 -5.42341 0
M  V30 4738 H 453.239 1.85802 -4.01161 0
M  V30 4739 N 452.299 1.55045 -0.282633 0
M  V30 4740 C 453.529 2.03872 0.334635 0
M  V30 4741 C 453.937 1.16018 1.49454 0
M  V30 4742 O 453.28 0.174449 1.8287 0
M  V30 4743 C 453.342 3.48791 0.870905 0
M  V30 4744 C 453.006 4.56715 -0.161338 0
M  V30 4745 C 454.003 5.10513 -0.983466 0
M  V30 4746 C 451.688 5.01417 -0.297745 0
M  V30 4747 C 453.682 6.07538 -1.92811 0
M  V30 4748 C 451.369 5.98265 -1.24586 0
M  V30 4749 C 452.367 6.51208 -2.05954 0
M  V30 4750 O 452.055 7.46162 -2.99162 0
M  V30 4751 H 451.787 0.671324 0.0793742 0
M  V30 4752 H 454.341 2.01169 -0.41473 0
M  V30 4753 H 452.571 3.48758 1.67047 0
M  V30 4754 H 454.26 3.80916 1.40207 0
M  V30 4755 H 455.026 4.76785 -0.888856 0
M  V30 4756 H 450.905 4.59849 0.325604 0
M  V30 4757 H 454.449 6.48787 -2.56363 0
M  V30 4758 H 450.346 6.31412 -1.34126 0
M  V30 4759 H 451.114 7.63903 -2.93929 0
M  V30 4760 N 453.777 0.010035 1.57597 0
M  V30 4761 C 455.002 -0.687021 1.95691 0
M  V30 4762 C 455.427 -1.65952 0.885519 0
M  V30 4763 O 454.785 -1.80633 -0.15543 0
M  V30 4764 C 454.833 -1.3864 3.32884 0
M  V30 4765 O 453.937 -2.50115 3.27897 0
M  V30 4766 H 453.278 -0.181989 0.638573 0
M  V30 4767 H 455.808 0.0662122 2.04493 0
M  V30 4768 H 455.818 -1.74754 3.6868 0
M  V30 4769 H 454.493 -0.673411 4.10412 0
M  V30 4770 H 453.07 -2.16253 3.03791 0
M  V30 4771 N 455.255 -1.55392 -0.262866 0
M  V30 4772 C 456.666 -1.67079 -0.833158 0
M  V30 4773 C 457.017 -0.604539 -1.86654 0
M  V30 4774 O 456.142 0.252138 -2.14926 0
M  V30 4775 C 456.737 -3.02891 -1.51797 0
M  V30 4776 C 455.296 -3.16571 -2.03617 0
M  V30 4777 C 454.443 -2.62909 -0.881701 0
M  V30 4778 H 457.394 -1.58652 -0.0389986 0
M  V30 4779 H 457.415 -2.96445 -2.38538 0
M  V30 4780 H 456.927 -3.80473 -0.765619 0
M  V30 4781 H 455.028 -2.43782 -2.81782 0
M  V30 4782 H 455.141 -4.23271 -2.24452 0
M  V30 4783 H 453.505 -2.20324 -1.27786 0
M  V30 4784 H 454.288 -3.43003 -0.14269 0
M  V30 4785 N 456.733 0.527833 -1.48498 0
M  V30 4786 C 458.01 1.28905 -1.47115 0
M  V30 4787 C 458.39 2.10297 -0.184007 0
M  V30 4788 O 457.738 2.12728 0.834218 0
M  V30 4789 C 457.948 2.16866 -2.73441 0
M  V30 4790 C 459.296 2.76936 -3.21857 0
M  V30 4791 O 460.32 2.27152 -2.74373 0
M  V30 4792 O 459.179 3.67496 -4.04486 0
M  V30 4793 H 456.273 0.581918 -0.587623 0
M  V30 4794 H 458.819 0.544311 -1.60734 0
M  V30 4795 H 457.591 1.56521 -3.58632 0
M  V30 4796 H 457.214 2.98583 -2.62553 0
M  V30 4797 N 458.211 1.37122 0.776871 0
M  V30 4798 C 459.451 1.33441 1.54831 0
M  V30 4799 C 459.815 -0.0818963 1.91825 0
M  V30 4800 O 461.016 -0.24338 2.67696 0
M  V30 4801 C 459.287 2.24267 2.78279 0
M  V30 4802 S 460.846 2.38389 3.68397 0
M  V30 4803 H 457.664 0.473791 0.530135 0
M  V30 4804 H 460.266 1.7282 0.913968 0
M  V30 4805 H 458.97 3.261 2.49173 0
M  V30 4806 H 458.501 1.85953 3.46677 0
M  V30 4807 H 460.516 1.59068 4.70013 0
M  V30 4808 N 459.689 -1.00246 1.21608 0
M  V30 4809 C 461.105 -1.26435 0.973975 0
M  V30 4810 C 461.305 -1.98642 -0.338143 0
M  V30 4811 O 460.361 -2.29026 -1.06317 0
M  V30 4812 C 461.674 -2.08551 2.16626 0
M  V30 4813 C 463.222 -2.21769 2.20879 0
M  V30 4814 C 463.697 -3.07267 3.39633 0
M  V30 4815 N 465.188 -3.14855 3.39736 0
M  V30 4816 C 465.923 -3.81274 4.28273 0
M  V30 4817 N 465.419 -4.497 5.27012 0
M  V30 4818 N 467.212 -3.7794 4.16074 0
M  V30 4819 H 459.363 -0.518089 2.05984 0
M  V30 4820 H 461.626 -0.291368 0.902113 0
M  V30 4821 H 461.332 -1.62847 3.11727 0
M  V30 4822 H 461.206 -3.09303 2.15897 0
M  V30 4823 H 463.593 -2.66691 1.26332 0
M  V30 4824 H 463.674 -1.20478 2.25652 0
M  V30 4825 H 463.318 -2.63047 4.34475 0
M  V30 4826 H 463.248 -4.08678 3.321 0
M  V30 4827 H 465.739 -2.66147 2.6828 0
M  V30 4828 H 466.052 -4.98092 5.90867 0
M  V30 4829 H 464.397 -4.48479 5.30935 0
M  V30 4830 H 467.588 -3.23638 3.38195 0
M  V30 4831 H 467.761 -4.29424 4.85282 0
M  V30 4832 N 461.167 -1.02423 -1.1978 0
M  V30 4833 C 462.414 -0.717988 -1.89344 0
M  V30 4834 C 462.742 0.753036 -1.79331 0
M  V30 4835 O 461.997 1.56355 -1.17692 0
M  V30 4836 C 462.296 -1.1088 -3.39765 0
M  V30 4837 C 461.962 -2.57731 -3.6998 0
M  V30 4838 C 460.624 -2.97854 -3.77937 0
M  V30 4839 C 462.976 -3.52763 -3.83677 0
M  V30 4840 C 460.304 -4.31931 -3.97054 0
M  V30 4841 C 462.656 -4.86538 -4.04306 0
M  V30 4842 C 461.32 -5.26356 -4.10494 0
M  V30 4843 H 460.59 -0.26273 -0.692859 0
M  V30 4844 H 463.237 -1.28623 -1.41875 0
M  V30 4845 H 461.542 -0.459094 -3.89101 0
M  V30 4846 H 463.239 -0.849432 -3.919 0
M  V30 4847 H 459.829 -2.25646 -3.64393 0
M  V30 4848 H 464.013 -3.2292 -3.76877 0
M  V30 4849 H 459.269 -4.62324 -4.00083 0
M  V30 4850 H 463.443 -5.60093 -4.13846 0
M  V30 4851 H 461.07 -6.3026 -4.2506 0
M  V30 4852 N 462.645 1.35699 -0.801477 0
M  V30 4853 C 463.595 2.2728 -0.181073 0
M  V30 4854 C 464.579 1.47533 0.642098 0
M  V30 4855 O 465.771 1.69785 0.500193 0
M  V30 4856 C 462.9 3.36626 0.673612 0
M  V30 4857 C 461.986 4.23802 -0.159008 0
M  V30 4858 N 462.377 4.90879 -1.2195 0
M  V30 4859 C 460.675 4.45959 0.0602005 0
M  V30 4860 C 461.376 5.5546 -1.72738 0
M  V30 4861 N 460.352 5.33663 -1.03465 0
M  V30 4862 H 464.154 2.76632 -0.992582 0
M  V30 4863 H 461.668 1.49166 -0.642127 0
M  V30 4864 H 463.665 4.01179 1.13408 0
M  V30 4865 H 462.325 2.88828 1.48353 0
M  V30 4866 H 463.336 4.92497 -1.60209 0
M  V30 4867 H 460.013 4.08969 0.839664 0
M  V30 4868 H 461.403 6.18991 -2.61342 0
M  V30 4869 N 464.123 0.554532 1.47522 0
M  V30 4870 C 465.348 0.0322661 2.07375 0
M  V30 4871 C 465.773 -1.25079 1.40488 0
M  V30 4872 O 465.131 -1.74859 0.47896 0
M  V30 4873 C 465.179 -0.149397 3.6029 0
M  V30 4874 O 464.283 -1.21259 3.9417 0
M  V30 4875 H 463.624 0.0501228 0.662106 0
M  V30 4876 H 466.154 0.769452 1.8958 0
M  V30 4877 H 466.164 -0.364437 4.06369 0
M  V30 4878 H 464.839 0.787743 4.08372 0
M  V30 4879 H 463.416 -0.97825 3.5984 0
M  V30 4880 N 465.601 -1.54893 0.290851 0
M  V30 4881 C 466.848 -1.99933 -0.321391 0
M  V30 4882 C 467.176 -1.17927 -1.54672 0
M  V30 4883 O 466.431 -0.240902 -1.94212 0
M  V30 4884 C 466.73 -3.49815 -0.732397 0
M  V30 4885 C 466.396 -4.4921 0.390056 0
M  V30 4886 C 465.058 -4.76107 0.698223 0
M  V30 4887 C 467.41 -5.08453 1.14562 0
M  V30 4888 C 464.738 -5.59514 1.76526 0
M  V30 4889 C 467.09 -5.9302 2.2025 0
M  V30 4890 C 465.754 -6.18232 2.51684 0
M  V30 4891 H 465.024 -0.731608 -0.117605 0
M  V30 4892 H 467.671 -1.87107 0.407839 0
M  V30 4893 H 465.976 -3.60199 -1.54155 0
M  V30 4894 H 467.673 -3.82083 -1.21712 0
M  V30 4895 H 464.263 -4.28372 0.13976 0
M  V30 4896 H 468.447 -4.87683 0.920801 0
M  V30 4897 H 463.703 -5.77289 2.01364 0
M  V30 4898 H 467.877 -6.37955 2.7926 0
M  V30 4899 H 465.504 -6.82653 3.34499 0
M  V30 4900 N 467.08 -0.0183926 -1.57589 0
M  V30 4901 C 468.027 0.967022 -2.09565 0
M  V30 4902 C 468.997 1.32983 -0.995225 0
M  V30 4903 O 470.182 1.42501 -1.26878 0
M  V30 4904 C 467.322 2.24772 -2.61861 0
M  V30 4905 C 466.435 1.94232 -3.85873 0
M  V30 4906 C 465.57 3.16518 -4.26603 0
M  V30 4907 C 464.609 2.81748 -5.43401 0
M  V30 4908 N 463.746 3.96626 -5.79338 0
M  V30 4909 H 468.586 0.516874 -2.93483 0
M  V30 4910 H 466.123 0.243544 -1.4507 0
M  V30 4911 H 468.081 2.99667 -2.90268 0
M  V30 4912 H 466.711 2.67423 -1.8079 0
M  V30 4913 H 465.763 1.09625 -3.64262 0
M  V30 4914 H 467.075 1.64616 -4.70853 0
M  V30 4915 H 466.229 3.99743 -4.56389 0
M  V30 4916 H 464.968 3.49286 -3.40368 0
M  V30 4917 H 463.973 1.96933 -5.1332 0
M  V30 4918 H 465.198 2.50207 -6.31327 0
M  V30 4919 H 463.144 4.29257 -4.96059 0
M  V30 4920 H 463.061 3.70598 -6.58933 0
M  V30 4921 H 464.329 4.80586 -6.13724 0
M  V30 4922 N 468.558 1.5553 0.254621 0
M  V30 4923 C 469.505 1.89666 1.31512 0
M  V30 4924 C 470.475 0.750057 1.482 0
M  V30 4925 O 471.66 1.00301 1.62309 0
M  V30 4926 C 468.8 2.19009 2.667 0
M  V30 4927 C 467.913 3.46435 2.58083 0
M  V30 4928 C 467.048 3.65386 3.85573 0
M  V30 4929 C 466.087 4.8644 3.71541 0
M  V30 4930 N 465.224 5.01952 4.90906 0
M  V30 4931 H 470.064 2.80109 1.017 0
M  V30 4932 H 467.601 1.38666 0.490938 0
M  V30 4933 H 469.559 2.34025 3.45381 0
M  V30 4934 H 468.189 1.31779 2.94676 0
M  V30 4935 H 467.241 3.39792 1.71013 0
M  V30 4936 H 468.553 4.35258 2.43622 0
M  V30 4937 H 467.707 3.80319 4.72697 0
M  V30 4938 H 466.446 2.74781 4.02922 0
M  V30 4939 H 465.451 4.71491 2.82801 0
M  V30 4940 H 466.676 5.78497 3.55694 0
M  V30 4941 H 464.622 4.14283 5.08631 0
M  V30 4942 H 464.539 5.84851 4.79046 0
M  V30 4943 H 465.807 5.21289 5.7955 0
M  V30 4944 N 470.036 -0.519951 1.48776 0
M  V30 4945 C 471.282 -1.27711 1.57536 0
M  V30 4946 C 471.615 -1.92547 0.252866 0
M  V30 4947 O 470.89 -1.7979 -0.742021 0
M  V30 4948 C 471.173 -2.35875 2.72094 0
M  V30 4949 C 471.026 -1.75664 4.1408 0
M  V30 4950 C 472.345 -3.37575 2.82367 0
M  V30 4951 H 469.464 -0.462971 0.573434 0
M  V30 4952 H 472.106 -0.578194 1.80989 0
M  V30 4953 H 470.256 -2.95488 2.52228 0
M  V30 4954 H 471.928 -1.20025 4.45412 0
M  V30 4955 H 470.171 -1.06154 4.20611 0
M  V30 4956 H 470.842 -2.54029 4.90075 0
M  V30 4957 H 473.318 -2.87929 3.00393 0
M  V30 4958 H 472.194 -4.1064 3.64233 0
M  V30 4959 H 472.455 -3.98743 1.90936 0
M  V30 4960 N 471.514 -1.37532 -0.769588 0
M  V30 4961 C 472.444 -1.36172 -1.89682 0
M  V30 4962 C 473.425 -0.23001 -1.68538 0
M  V30 4963 O 474.61 -0.43069 -1.89364 0
M  V30 4964 C 471.74 -1.1701 -3.26995 0
M  V30 4965 C 470.694 -2.27216 -3.62708 0
M  V30 4966 C 470.02 -1.93174 -4.98586 0
M  V30 4967 C 471.32 -3.6941 -3.69234 0
M  V30 4968 H 473.014 -2.30499 -1.91078 0
M  V30 4969 H 470.56 -1.10953 -0.917902 0
M  V30 4970 H 472.513 -1.14688 -4.05493 0
M  V30 4971 H 471.237 -0.191395 -3.26039 0
M  V30 4972 H 469.896 -2.28697 -2.86519 0
M  V30 4973 H 469.544 -0.938281 -4.94171 0
M  V30 4974 H 469.244 -2.66973 -5.23449 0
M  V30 4975 H 470.768 -1.92443 -5.79481 0
M  V30 4976 H 472.182 -3.70047 -4.37879 0
M  V30 4977 H 470.579 -4.4228 -4.05597 0
M  V30 4978 H 471.649 -4.0288 -2.69844 0
M  V30 4979 N 472.992 0.995999 -1.22138 0
M  V30 4980 C 474.222 1.76809 -1.06874 0
M  V30 4981 C 474.63 1.85265 0.383866 0
M  V30 4982 O 473.973 1.31969 1.27789 0
M  V30 4983 C 474.035 3.2186 -1.60144 0
M  V30 4984 C 473.699 3.36958 -3.0872 0
M  V30 4985 C 474.696 3.2452 -4.0618 0
M  V30 4986 C 472.381 3.62109 -3.48112 0
M  V30 4987 C 474.375 3.37013 -5.41019 0
M  V30 4988 C 472.062 3.74243 -4.831 0
M  V30 4989 C 473.06 3.61702 -5.79362 0
M  V30 4990 O 472.748 3.73436 -7.119 0
M  V30 4991 H 472.48 0.562207 -0.375365 0
M  V30 4992 H 475.034 1.26113 -1.62125 0
M  V30 4993 H 473.264 3.73734 -0.992981 0
M  V30 4994 H 474.953 3.80775 -1.40589 0
M  V30 4995 H 475.719 3.05004 -3.77091 0
M  V30 4996 H 471.598 3.70949 -2.73712 0
M  V30 4997 H 475.142 3.27141 -6.16137 0
M  V30 4998 H 471.039 3.93266 -5.11872 0
M  V30 4999 H 471.807 3.90328 -7.19435 0
M  V30 5000 N 474.47 1.03057 1.19235 0
M  V30 5001 C 475.38 0.622922 2.26179 0
M  V30 5002 C 476.396 -0.346113 1.70523 0
M  V30 5003 O 477.572 -0.203572 2.00369 0
M  V30 5004 C 474.637 -0.0182063 3.46695 0
M  V30 5005 C 473.698 0.998546 4.17526 0
M  V30 5006 C 472.931 0.387917 5.32288 0
M  V30 5007 O 473.154 -0.808668 5.64639 0
M  V30 5008 O 472.088 1.1116 5.91546 0
M  V30 5009 H 475.914 1.51363 2.63292 0
M  V30 5010 H 473.499 0.800856 1.26122 0
M  V30 5011 H 475.381 -0.375606 4.19723 0
M  V30 5012 H 474.056 -0.882895 3.11427 0
M  V30 5013 H 472.963 1.40756 3.4661 0
M  V30 5014 H 474.296 1.83366 4.56769 0
M  V30 5015 N 475.948 -1.35272 0.808662 0
M  V30 5016 C 476.881 -2.27595 0.165994 0
M  V30 5017 C 477.859 -1.48189 -0.669241 0
M  V30 5018 O 479.043 -1.77444 -0.636073 0
M  V30 5019 C 476.17 -3.29843 -0.769505 0
M  V30 5020 C 475.216 -4.26498 -0.0136267 0
M  V30 5021 S 476.049 -5.18878 1.32384 0
M  V30 5022 C 477.205 -6.24666 0.392838 0
M  V30 5023 H 477.438 -2.81755 0.948756 0
M  V30 5024 H 474.971 -1.42103 0.603828 0
M  V30 5025 H 476.929 -3.89247 -1.30374 0
M  V30 5026 H 475.59 -2.74558 -1.52567 0
M  V30 5027 H 474.783 -4.98769 -0.724227 0
M  V30 5028 H 474.385 -3.71274 0.450713 0
M  V30 5029 H 476.677 -6.7619 -0.4211 0
M  V30 5030 H 477.62 -6.99741 1.0848 0
M  V30 5031 H 478.028 -5.64499 -0.0123908 0
M  V30 5032 N 477.426 -0.562348 -1.47226 0
M  V30 5033 C 478.674 -0.0401371 -2.0206 0
M  V30 5034 C 478.995 1.3165 -1.43852 0
M  V30 5035 O 478.265 1.85976 -0.615599 0
M  V30 5036 H 476.845 -0.0118479 -0.746906 0
M  V30 5037 H 479.507 -0.73352 -1.8057 0
M  V30 5038 H 478.603 0.0441254 -3.12069 0
M  V30 5039 N 478.904 1.54736 -0.299062 0
M  V30 5040 C 480.315 1.8569 0.193971 0
M  V30 5041 C 480.666 1.22101 1.53577 0
M  V30 5042 O 479.791 0.51799 2.10109 0
M  V30 5043 C 480.386 3.36895 0.358733 0
M  V30 5044 C 478.945 3.67887 0.795986 0
M  V30 5045 C 478.092 2.77131 -0.096807 0
M  V30 5046 H 481.043 1.49934 -0.520134 0
M  V30 5047 H 481.064 3.61294 1.19361 0
M  V30 5048 H 480.576 3.83148 -0.617998 0
M  V30 5049 H 478.677 3.27151 1.78334 0
M  V30 5050 H 478.79 4.75114 0.616718 0
M  V30 5051 H 477.154 2.51153 0.423581 0
M  V30 5052 H 477.937 3.26204 -1.06986 0
M  V30 5053 N 480.382 0.0267497 1.57577 0
M  V30 5054 C 481.292 -0.971633 2.13533 0
M  V30 5055 C 482.308 -1.35868 1.08701 0
M  V30 5056 O 483.484 -1.44058 1.40746 0
M  V30 5057 C 480.549 -2.23622 2.64941 0
M  V30 5058 C 479.61 -1.90982 3.8448 0
M  V30 5059 C 478.843 -3.11411 4.33427 0
M  V30 5060 O 479.066 -4.23992 3.81558 0
M  V30 5061 O 478 -2.93848 5.25297 0
M  V30 5062 H 481.826 -0.525853 2.99113 0
M  V30 5063 H 479.411 -0.193712 1.48139 0
M  V30 5064 H 481.293 -2.97864 2.98086 0
M  V30 5065 H 479.968 -2.67386 1.82446 0
M  V30 5066 H 478.875 -1.14132 3.56265 0
M  V30 5067 H 480.208 -1.52036 4.6813 0
M  V30 5068 N 481.861 -1.55662 -0.24637 0
M  V30 5069 C 483.091 -1.81312 -0.990438 0
M  V30 5070 C 483.499 -0.600234 -1.79426 0
M  V30 5071 O 482.842 0.440537 -1.78339 0
M  V30 5072 C 482.904 -3.0032 -1.97607 0
M  V30 5073 C 482.568 -4.36322 -1.35912 0
M  V30 5074 C 483.565 -5.14295 -0.761348 0
M  V30 5075 C 481.25 -4.83019 -1.37833 0
M  V30 5076 C 483.244 -6.37114 -0.190998 0
M  V30 5077 C 480.931 -6.05786 -0.804128 0
M  V30 5078 C 481.929 -6.82672 -0.211489 0
M  V30 5079 O 481.617 -8.03121 0.353845 0
M  V30 5080 H 481.349 -0.607233 -0.297058 0
M  V30 5081 H 483.903 -2.0356 -0.274351 0
M  V30 5082 H 482.133 -2.73829 -2.73047 0
M  V30 5083 H 483.822 -3.13057 -2.58361 0
M  V30 5084 H 484.588 -4.79337 -0.739013 0
M  V30 5085 H 480.467 -4.23165 -1.829 0
M  V30 5086 H 484.011 -6.97069 0.272206 0
M  V30 5087 H 479.908 -6.40222 -0.823792 0
M  V30 5088 H 480.676 -8.18131 0.245761 0
M  V30 5089 N 483.339 0.512053 -1.4905 0
M  V30 5090 C 484.564 1.2959 -1.6193 0
M  V30 5091 C 484.989 1.85906 -0.286454 0
M  V30 5092 O 484.347 1.65312 0.744426 0
M  V30 5093 C 484.395 2.40987 -2.68249 0
M  V30 5094 O 483.499 3.44531 -2.26654 0
M  V30 5095 H 482.84 0.383053 -0.542371 0
M  V30 5096 H 485.37 0.614231 -1.95162 0
M  V30 5097 H 485.38 2.86913 -2.90078 0
M  V30 5098 H 484.055 1.99361 -3.65004 0
M  V30 5099 H 482.632 3.046 -2.15112 0
M  V30 5100 N 484.817 1.37938 0.762283 0
M  V30 5101 C 486.042 1.37059 1.55659 0
M  V30 5102 C 486.467 -0.0396123 1.88058 0
M  V30 5103 O 485.825 -1.01929 1.49934 0
M  V30 5104 C 485.873 2.22494 2.83776 0
M  V30 5105 O 484.977 1.63607 3.78559 0
M  V30 5106 H 484.318 0.467892 0.47114 0
M  V30 5107 H 486.848 1.81587 0.942725 0
M  V30 5108 H 486.858 2.36045 3.32786 0
M  V30 5109 H 485.533 3.24993 2.59524 0
M  V30 5110 H 484.11 1.5915 3.37233 0
M  V30 5111 N 486.295 -0.989507 1.22664 0
M  V30 5112 C 487.243 -2.10148 0.997035 0
M  V30 5113 C 488.237 -1.6929 -0.0609783 0
M  V30 5114 O 489.443 -1.79766 0.0917523 0
M  V30 5115 H 485.818 -0.687256 0.305259 0
M  V30 5116 H 487.789 -2.26685 1.94053 0
M  V30 5117 C 486.538 -3.4257 0.595085 0
M  V30 5118 H 485.861 -3.74453 1.40089 0
M  V30 5119 H 487.301 -4.21344 0.473869 0
M  V30 5120 C 485.76 -3.29638 -0.695725 0
M  V30 5121 O 486.29 -3.61709 -1.74727 0
M  V30 5122 N 484.496 -2.82814 -0.668173 0
M  V30 5123 H 484.043 -2.56914 0.18787 0
M  V30 5124 H 484.001 -2.74544 -1.5321 0
M  V30 5125 N 487.773 -1.03688 -1.18687 0
M  V30 5126 C 489.019 -0.739123 -1.88851 0
M  V30 5127 C 489.352 0.731042 -1.79915 0
M  V30 5128 O 488.627 1.53313 -1.19688 0
M  V30 5129 C 488.91 -1.20106 -3.3948 0
M  V30 5130 C 488.763 -2.73304 -3.57246 0
M  V30 5131 C 490.082 -0.788134 -4.32986 0
M  V30 5132 H 487.201 -0.269978 -0.68577 0
M  V30 5133 H 489.843 -1.28822 -1.3966 0
M  V30 5134 H 487.993 -0.733915 -3.81505 0
M  V30 5135 H 489.665 -3.28027 -3.24339 0
M  V30 5136 H 487.908 -3.13313 -3.00029 0
M  V30 5137 H 488.579 -3.00684 -4.62918 0
M  V30 5138 H 491.055 -1.19005 -3.98719 0
M  V30 5139 H 489.931 -1.13915 -5.36949 0
M  V30 5140 H 490.192 0.308988 -4.41019 0
M  V30 5141 N 489.251 1.34841 -0.815825 0
M  V30 5142 C 490.161 2.33425 -0.234462 0
M  V30 5143 C 491.177 1.62295 0.627413 0
M  V30 5144 O 492.353 1.94109 0.536987 0
M  V30 5145 C 489.418 3.41471 0.599849 0
M  V30 5146 C 488.479 4.28362 -0.283596 0
M  V30 5147 C 487.712 5.31248 0.51099 0
M  V30 5148 O 487.935 5.43056 1.7449 0
M  V30 5149 O 486.869 6.01812 -0.10297 0
M  V30 5150 H 490.695 2.84962 -1.05024 0
M  V30 5151 H 488.28 1.37774 -0.577809 0
M  V30 5152 H 490.162 4.07464 1.07475 0
M  V30 5153 H 488.837 2.9219 1.39308 0
M  V30 5154 H 487.744 3.65318 -0.805836 0
M  V30 5155 H 489.077 4.81066 -1.041 0
M  V30 5156 N 490.729 0.570148 1.46925 0
M  V30 5157 C 491.659 -0.158274 2.32963 0
M  V30 5158 C 492.64 -0.896093 1.44583 0
M  V30 5159 O 493.825 -0.874022 1.7342 0
M  V30 5160 C 490.955 -1.18055 3.26619 0
M  V30 5161 C 489.909 -0.558379 4.24342 0
M  V30 5162 C 489.235 -1.68623 5.07415 0
M  V30 5163 C 490.535 0.496295 5.19937 0
M  V30 5164 H 492.229 0.560046 2.94115 0
M  V30 5165 H 489.775 0.270775 1.41431 0
M  V30 5166 H 491.728 -1.69841 3.85658 0
M  V30 5167 H 490.452 -1.92899 2.63548 0
M  V30 5168 H 489.111 -0.0617157 3.66548 0
M  V30 5169 H 488.759 -2.42402 4.40738 0
M  V30 5170 H 488.459 -1.27564 5.73586 0
M  V30 5171 H 489.983 -2.20709 5.69315 0
M  V30 5172 H 491.397 0.0640052 5.73264 0
M  V30 5173 H 489.794 0.82649 5.94381 0
M  V30 5174 H 490.864 1.38735 4.6463 0
M  V30 5175 N 492.207 -1.54576 0.307264 0
M  V30 5176 C 493.17 -2.22423 -0.553224 0
M  V30 5177 C 494.17 -1.21231 -1.05639 0
M  V30 5178 O 495.36 -1.45923 -0.951419 0
M  V30 5179 C 492.492 -2.91552 -1.76664 0
M  V30 5180 H 493.685 -2.99874 0.0396484 0
M  V30 5181 H 491.238 -1.56192 0.0581629 0
M  V30 5182 H 491.973 -2.18196 -2.39918 0
M  V30 5183 H 491.758 -3.65738 -1.41343 0
M  V30 5184 H 493.248 -3.43292 -2.37783 0
M  V30 5185 N 493.685 -0.035106 -1.57561 0
M  V30 5186 C 494.91 0.655802 -1.96759 0
M  V30 5187 C 495.335 1.64523 -0.911809 0
M  V30 5188 O 494.693 1.80857 0.126673 0
M  V30 5189 C 494.741 1.33326 -3.35047 0
M  V30 5190 O 493.845 2.44866 -3.31835 0
M  V30 5191 H 493.186 0.171807 -0.641388 0
M  V30 5192 H 495.716 -0.0987369 -2.04362 0
M  V30 5193 H 495.726 1.68867 -3.71413 0
M  V30 5194 H 494.401 0.608033 -4.11431 0
M  V30 5195 H 492.978 2.11392 -3.07193 0
M  V30 5196 N 495.163 1.55791 0.238111 0
M  V30 5197 C 496.41 1.78033 0.964907 0
M  V30 5198 C 496.738 0.600984 1.84982 0
M  V30 5199 O 495.993 -0.41536 1.91241 0
M  V30 5200 C 496.292 3.05869 1.84875 0
M  V30 5201 C 495.958 4.36808 1.11846 0
M  V30 5202 C 494.62 4.72388 0.916662 0
M  V30 5203 C 496.972 5.17717 0.60151 0
M  V30 5204 C 494.3 5.86406 0.185756 0
M  V30 5205 C 496.652 6.32494 -0.115972 0
M  V30 5206 C 495.316 6.66688 -0.329168 0
M  V30 5207 H 494.586 0.651469 0.353085 0
M  V30 5208 H 497.233 1.90061 0.234318 0
M  V30 5209 H 495.538 2.88891 2.64668 0
M  V30 5210 H 497.235 3.20278 2.41294 0
M  V30 5211 H 493.825 4.08862 1.28569 0
M  V30 5212 H 498.009 4.90678 0.744932 0
M  V30 5213 H 493.265 6.11399 0.0101886 0
M  V30 5214 H 497.439 6.94425 -0.524127 0
M  V30 5215 H 495.066 7.54884 -0.897474 0
M  V30 5216 N 496.642 -0.504142 1.49319 0
M  V30 5217 C 497.592 -1.60284 1.62151 0
M  V30 5218 C 498.576 -1.53657 0.477315 0
M  V30 5219 O 499.768 -1.6124 0.730108 0
M  V30 5220 C 496.897 -2.98909 1.68844 0
M  V30 5221 C 495.983 -3.10544 2.8883 0
M  V30 5222 N 496.374 -2.92078 4.12946 0
M  V30 5223 C 494.672 -3.4164 2.86702 0
M  V30 5224 C 495.373 -3.07812 4.93585 0
M  V30 5225 N 494.349 -3.36549 4.26891 0
M  V30 5226 H 498.151 -1.44656 2.55835 0
M  V30 5227 H 495.665 -0.710198 1.46048 0
M  V30 5228 H 497.662 -3.77865 1.76134 0
M  V30 5229 H 496.322 -3.15609 0.762943 0
M  V30 5230 H 497.333 -2.68316 4.42975 0
M  V30 5231 H 494.01 -3.64537 2.03517 0
M  V30 5232 H 495.4 -2.98054 6.02174 0
M  V30 5233 N 498.12 -1.38341 -0.754957 0
M  V30 5234 C 499.345 -1.37882 -1.5493 0
M  V30 5235 C 499.77 0.0296385 -1.88077 0
M  V30 5236 O 499.128 1.01133 -1.50472 0
M  V30 5237 C 499.176 -2.23996 -2.82592 0
M  V30 5238 O 498.28 -1.65612 -3.77686 0
M  V30 5239 H 497.621 -0.470384 -0.468652 0
M  V30 5240 H 500.151 -1.82084 -0.933082 0
M  V30 5241 H 500.161 -2.37806 -3.3153 0
M  V30 5242 H 498.836 -3.26365 -2.57796 0
M  V30 5243 H 497.413 -1.60936 -3.36384 0
M  V30 5244 N 499.598 0.982988 -1.23187 0
M  V30 5245 C 500.826 1.75921 -1.08901 0
M  V30 5246 C 501.241 1.85341 0.359719 0
M  V30 5247 O 500.598 1.33072 1.24892 0
M  V30 5248 C 500.649 3.18742 -1.70545 0
M  V30 5249 O 500.37 3.09814 -3.09753 0
M  V30 5250 C 501.871 4.1277 -1.61667 0
M  V30 5251 H 499.091 0.552166 -0.381252 0
M  V30 5252 H 501.635 1.23516 -1.62985 0
M  V30 5253 H 499.79 3.68182 -1.20501 0
M  V30 5254 H 500.204 3.99703 -3.39614 0
M  V30 5255 H 501.678 5.10697 -2.09506 0
M  V30 5256 H 502.155 4.3542 -0.575009 0
M  V30 5257 H 502.761 3.69232 -2.11064 0
M  V30 5258 N 501.076 1.04316 1.18135 0
M  V30 5259 C 502.301 0.768047 1.92655 0
M  V30 5260 C 502.726 -0.66904 1.758 0
M  V30 5261 O 502.084 -1.46372 1.06981 0
M  V30 5262 C 502.132 1.14239 3.42026 0
M  V30 5263 O 501.236 0.269333 4.1152 0
M  V30 5264 H 500.577 0.282436 0.600937 0
M  V30 5265 H 503.107 1.39367 1.49793 0
M  V30 5266 H 503.117 1.10538 3.92741 0
M  V30 5267 H 501.792 2.18928 3.53615 0
M  V30 5268 H 500.369 0.366175 3.71098 0
M  V30 5269 N 502.554 -1.34406 0.822964 0
M  V30 5270 C 503.501 -2.29519 0.24284 0
M  V30 5271 C 504.471 -1.5359 -0.632397 0
M  V30 5272 O 505.656 -1.8196 -0.57403 0
M  V30 5273 C 502.796 -3.40032 -0.58925 0
M  V30 5274 C 501.909 -4.30899 0.308236 0
M  V30 5275 C 501.044 -5.28515 -0.533425 0
M  V30 5276 C 500.083 -6.1102 0.363444 0
M  V30 5277 N 499.22 -7.00725 -0.439147 0
M  V30 5278 H 504.06 -2.78537 1.05929 0
M  V30 5279 H 501.597 -1.3707 0.533872 0
M  V30 5280 H 503.555 -4.0279 -1.087 0
M  V30 5281 H 502.185 -2.92248 -1.37081 0
M  V30 5282 H 501.237 -3.69002 0.924203 0
M  V30 5283 H 502.549 -4.88717 0.997862 0
M  V30 5284 H 501.703 -5.96725 -1.09565 0
M  V30 5285 H 500.442 -4.71235 -1.25656 0
M  V30 5286 H 499.447 -5.41743 0.937812 0
M  V30 5287 H 500.672 -6.70381 1.08469 0
M  V30 5288 H 498.618 -6.45913 -1.14595 0
M  V30 5289 H 498.535 -7.55756 0.19209 0
M  V30 5290 H 499.803 -7.73263 -0.984124 0
M  V30 5291 N 504.032 -0.577932 -1.46621 0
M  V30 5292 C 505.28 -0.061566 -2.02006 0
M  V30 5293 C 505.601 1.30117 -1.4524 0
M  V30 5294 O 504.871 1.85313 -0.63529 0
M  V30 5295 H 503.451 -0.0197692 -0.746738 0
M  V30 5296 H 506.113 -0.752631 -1.79782 0
M  V30 5297 H 505.209 0.0110238 -3.12098 0
M  V30 5298 N 505.51 1.54411 -0.315457 0
M  V30 5299 C 506.74 2.04536 0.291315 0
M  V30 5300 C 507.148 1.19162 1.4696 0
M  V30 5301 O 506.491 0.213199 1.82459 0
M  V30 5302 C 506.553 3.5056 0.796725 0
M  V30 5303 C 506.217 4.5627 -0.258178 0
M  V30 5304 C 507.214 5.08312 -1.09153 0
M  V30 5305 C 504.899 5.00672 -0.404036 0
M  V30 5306 C 506.893 6.03312 -2.05655 0
M  V30 5307 C 504.58 5.95488 -1.37248 0
M  V30 5308 C 505.578 6.46693 -2.19721 0
M  V30 5309 O 505.266 7.39648 -3.14921 0
M  V30 5310 H 504.998 0.672856 0.0651165 0
M  V30 5311 H 507.552 2.00244 -0.457308 0
M  V30 5312 H 505.782 3.52223 1.59612 0
M  V30 5313 H 507.471 3.83804 1.32096 0
M  V30 5314 H 508.237 4.74793 -0.98979 0
M  V30 5315 H 504.116 4.60436 0.22799 0
M  V30 5316 H 507.66 6.43203 -2.70067 0
M  V30 5317 H 503.557 6.28424 -1.47489 0
M  V30 5318 H 504.325 7.57496 -3.10067 0
M  V30 5319 N 506.988 0.0434614 1.5754 0
M  V30 5320 C 507.921 -0.968729 2.06618 0
M  V30 5321 C 508.899 -1.30868 0.965 0
M  V30 5322 O 510.083 -1.42288 1.23638 0
M  V30 5323 C 507.21 -2.28486 2.50023 0
M  V30 5324 C 506.256 -2.09851 3.71302 0
M  V30 5325 S 507.089 -1.38401 5.17306 0
M  V30 5326 C 508.245 -2.71354 5.64019 0
M  V30 5327 H 508.478 -0.551021 2.92149 0
M  V30 5328 H 506.011 -0.168607 1.53477 0
M  V30 5329 H 507.969 -3.04142 2.75695 0
M  V30 5330 H 506.63 -2.67387 1.64812 0
M  V30 5331 H 505.823 -3.07184 3.99567 0
M  V30 5332 H 505.425 -1.42336 3.45856 0
M  V30 5333 H 507.717 -3.67549 5.69134 0
M  V30 5334 H 508.66 -2.47734 6.6335 0
M  V30 5335 H 509.068 -2.77259 4.91719 0
M  V30 5336 N 508.466 -1.55915 -0.229846 0
M  V30 5337 C 509.714 -1.7819 -0.953565 0
M  V30 5338 C 510.035 -0.610504 -1.85197 0
M  V30 5339 O 509.305 0.372988 -1.92316 0
M  V30 5340 H 507.885 -0.657208 -0.355087 0
M  V30 5341 H 510.547 -1.9337 -0.243693 0
M  V30 5342 H 509.643 -2.70011 -1.56527 0
M  V30 5343 N 509.944 0.496216 -1.49584 0
M  V30 5344 C 510.854 1.62352 -1.69349 0
M  V30 5345 C 511.87 1.64184 -0.576147 0
M  V30 5346 O 513.046 1.82517 -0.85144 0
M  V30 5347 C 510.111 2.98698 -1.76013 0
M  V30 5348 C 509.172 3.07454 -2.99617 0
M  V30 5349 C 508.405 4.37296 -3.05953 0
M  V30 5350 O 508.628 5.2637 -2.19752 0
M  V30 5351 O 507.562 4.51124 -3.9846 0
M  V30 5352 H 511.388 1.48606 -2.64859 0
M  V30 5353 H 508.973 0.673022 -1.33382 0
M  V30 5354 H 510.855 3.79725 -1.82721 0
M  V30 5355 H 509.53 3.12696 -0.836828 0
M  V30 5356 H 508.437 2.25597 -2.98424 0
M  V30 5357 H 509.77 2.98385 -3.91443 0
M  V30 5358 N 511.423 1.38739 0.74761 0
M  V30 5359 C 512.663 1.36695 1.51966 0
M  V30 5360 C 513.027 -0.0411889 1.91956 0
M  V30 5361 O 514.228 -0.186543 2.68152 0
M  V30 5362 C 512.499 2.30119 2.73459 0
M  V30 5363 S 514.058 2.4615 3.63257 0
M  V30 5364 H 510.876 0.484929 0.519966 0
M  V30 5365 H 513.478 1.7472 0.877104 0
M  V30 5366 H 512.182 3.31312 2.422 0
M  V30 5367 H 511.713 1.93265 3.42655 0
M  V30 5368 H 513.728 1.69001 4.66533 0
M  V30 5369 N 512.901 -0.976442 1.23707 0
M  V30 5370 C 514.149 -1.71487 1.06942 0
M  V30 5371 C 514.47 -1.9098 -0.393897 0
M  V30 5372 O 513.74 -1.48128 -1.28198 0
M  V30 5373 H 512.32 -0.635425 0.392739 0
M  V30 5374 H 514.982 -1.17515 1.55487 0
M  V30 5375 H 514.078 -2.70286 1.56051 0
M  V30 5376 N 514.379 -1.04941 -1.1758 0
M  V30 5377 C 515.609 -0.777166 -1.91425 0
M  V30 5378 C 516.017 0.670647 -1.76915 0
M  V30 5379 O 515.36 1.46965 -1.10213 0
M  V30 5380 C 515.422 -1.07495 -3.43052 0
M  V30 5381 C 515.086 -2.51844 -3.81345 0
M  V30 5382 C 516.083 -3.50047 -3.844 0
M  V30 5383 C 513.768 -2.86787 -4.12382 0
M  V30 5384 C 515.762 -4.81239 -4.17957 0
M  V30 5385 C 513.449 -4.18182 -4.45608 0
M  V30 5386 C 514.447 -5.15219 -4.48373 0
M  V30 5387 O 514.135 -6.44258 -4.80819 0
M  V30 5388 H 513.867 -0.282209 -0.614275 0
M  V30 5389 H 516.421 -1.40258 -1.50056 0
M  V30 5390 H 514.651 -0.392437 -3.84704 0
M  V30 5391 H 516.34 -0.78912 -3.98155 0
M  V30 5392 H 517.106 -3.24391 -3.60548 0
M  V30 5393 H 512.985 -2.11922 -4.09402 0
M  V30 5394 H 516.529 -5.56974 -4.2003 0
M  V30 5395 H 512.426 -4.43602 -4.68922 0
M  V30 5396 H 513.194 -6.49041 -4.98686 0
M  V30 5397 N 515.857 1.33968 -0.830081 0
M  V30 5398 C 517.273 1.51003 -0.516742 0
M  V30 5399 C 517.473 1.77286 0.957694 0
M  V30 5400 O 516.529 1.82797 1.74188 0
M  V30 5401 C 517.842 2.67036 -1.38247 0
M  V30 5402 C 519.39 2.80919 -1.38034 0
M  V30 5403 C 519.865 4.00004 -2.23071 0
M  V30 5404 N 521.356 4.07224 -2.20733 0
M  V30 5405 C 522.091 4.98541 -2.83275 0
M  V30 5406 N 521.587 5.95033 -3.54835 0
M  V30 5407 N 523.38 4.91469 -2.72791 0
M  V30 5408 H 515.531 1.15168 -1.78466 0
M  V30 5409 H 517.794 0.565443 -0.760906 0
M  V30 5410 H 517.5 2.54266 -2.42985 0
M  V30 5411 H 517.374 3.62226 -1.05225 0
M  V30 5412 H 519.761 2.93127 -0.340713 0
M  V30 5413 H 519.842 1.86517 -1.75057 0
M  V30 5414 H 519.486 3.88557 -3.27087 0
M  V30 5415 H 519.416 4.93634 -1.83394 0
M  V30 5416 H 521.907 3.38162 -1.68687 0
M  V30 5417 H 522.22 6.61357 -3.99784 0
M  V30 5418 H 520.565 5.95135 -3.58942 0
M  V30 5419 H 523.756 4.15048 -2.16456 0
M  V30 5420 H 523.929 5.62439 -3.21818 0
M  V30 5421 N 517.335 0.585699 1.46312 0
M  V30 5422 C 518.583 0.072278 2.01971 0
M  V30 5423 C 518.904 -1.29345 1.45928 0
M  V30 5424 O 518.174 -1.84973 0.645109 0
M  V30 5425 H 516.754 0.023729 0.746623 0
M  V30 5426 H 519.416 0.762155 1.7938 0
M  V30 5427 H 518.512 0.00552767 3.121 0
M  V30 5428 N 518.813 -1.54241 0.323641 0
M  V30 5429 C 520.061 -2.00174 -0.278359 0
M  V30 5430 C 520.382 -1.2134 -1.52648 0
M  V30 5431 O 519.652 -0.315244 -1.93347 0
M  V30 5432 H 518.232 -0.739463 -0.105845 0
M  V30 5433 H 520.894 -1.89864 0.440204 0
M  V30 5434 H 519.99 -3.07486 -0.5347 0
M  V30 5435 N 520.291 -0.0518155 -1.57515 0
M  V30 5436 C 521.521 0.63048 -1.96745 0
M  V30 5437 C 521.929 1.64875 -0.928054 0
M  V30 5438 O 521.272 1.83449 0.0960678 0
M  V30 5439 C 521.334 1.37381 -3.32215 0
M  V30 5440 C 520.998 0.511298 -4.54131 0
M  V30 5441 C 521.995 -0.222884 -5.19422 0
M  V30 5442 C 519.68 0.442035 -5.00351 0
M  V30 5443 C 521.674 -1.01476 -6.2927 0
M  V30 5444 C 519.361 -0.35353 -6.10077 0
M  V30 5445 C 520.359 -1.08062 -6.74397 0
M  V30 5446 O 520.047 -1.8631 -7.82013 0
M  V30 5447 H 519.779 0.177126 -0.652382 0
M  V30 5448 H 522.333 -0.114726 -2.05079 0
M  V30 5449 H 520.563 2.16466 -3.20436 0
M  V30 5450 H 522.252 1.9464 -3.56188 0
M  V30 5451 H 523.018 -0.178846 -4.8467 0
M  V30 5452 H 518.897 0.997562 -4.50077 0
M  V30 5453 H 522.441 -1.58279 -6.79407 0
M  V30 5454 H 518.338 -0.399205 -6.44264 0
M  V30 5455 H 519.106 -1.78528 -7.98793 0
M  V30 5456 N 521.769 1.56035 0.221574 0
M  V30 5457 C 522.702 1.87427 1.30178 0
M  V30 5458 C 523.68 0.731658 1.45209 0
M  V30 5459 O 524.864 0.980016 1.61022 0
M  V30 5460 C 521.991 2.08127 2.67209 0
M  V30 5461 C 521.037 3.30813 2.69194 0
M  V30 5462 S 521.87 4.86738 2.23263 0
M  V30 5463 C 523.026 5.10474 3.62171 0
M  V30 5464 H 523.259 2.78756 1.03355 0
M  V30 5465 H 520.792 1.48469 0.423813 0
M  V30 5466 H 522.75 2.20736 3.46101 0
M  V30 5467 H 521.411 1.17595 2.91256 0
M  V30 5468 H 520.604 3.42341 3.6989 0
M  V30 5469 H 520.206 3.1706 1.98366 0
M  V30 5470 H 522.498 4.9937 4.5786 0
M  V30 5471 H 523.441 6.12359 3.55558 0
M  V30 5472 H 523.849 4.38208 3.55857 0
M  V30 5473 N 523.247 -0.488276 1.49845 0
M  V30 5474 C 524.157 -1.61451 1.70207 0
M  V30 5475 C 525.173 -1.63877 0.584846 0
M  V30 5476 O 526.349 -1.82063 0.861107 0
M  V30 5477 C 523.414 -2.9776 1.77594 0
M  V30 5478 C 522.475 -3.05861 3.01243 0
M  V30 5479 C 521.708 -4.35668 3.08268 0
M  V30 5480 O 521.931 -5.25197 2.22541 0
M  V30 5481 O 520.865 -4.49005 4.00847 0
M  V30 5482 H 524.691 -1.47199 2.65643 0
M  V30 5483 H 522.276 -0.665939 1.33737 0
M  V30 5484 H 524.158 -3.7875 1.84732 0
M  V30 5485 H 522.833 -3.12248 0.8534 0
M  V30 5486 H 521.74 -2.24012 2.99616 0
M  V30 5487 H 523.073 -2.96304 3.9302 0
M  V30 5488 N 524.725 -1.39134 -0.740242 0
M  V30 5489 C 525.971 -1.36273 -1.50192 0
M  V30 5490 C 526.304 0.0430136 -1.94152 0
M  V30 5491 O 525.579 1.00691 -1.66408 0
M  V30 5492 C 525.862 -2.33041 -2.74525 0
M  V30 5493 C 525.715 -3.82535 -2.36617 0
M  V30 5494 C 527.034 -2.27723 -3.76604 0
M  V30 5495 H 524.153 -0.496323 -0.544823 0
M  V30 5496 H 526.795 -1.70085 -0.846815 0
M  V30 5497 H 524.945 -2.04337 -3.30422 0
M  V30 5498 H 526.617 -4.21967 -1.86391 0
M  V30 5499 H 524.86 -3.99565 -1.68909 0
M  V30 5500 H 525.531 -4.45723 -3.2563 0
M  V30 5501 H 528.007 -2.53091 -3.30279 0
M  V30 5502 H 526.883 -2.97519 -4.61274 0
M  V30 5503 H 527.144 -1.28049 -4.2315 0
M  V30 5504 N 526.204 0.969867 -1.24223 0
M  V30 5505 C 527.453 1.70687 -1.07466 0
M  V30 5506 C 527.766 1.91736 0.386861 0
M  V30 5507 O 528.972 2.62986 0.674581 0
M  V30 5508 C 527.428 3.07217 -1.87472 0
M  V30 5509 C 527.036 2.94018 -3.3802 0
M  V30 5510 C 528.78 3.84804 -1.79237 0
M  V30 5511 C 526.687 4.25844 -4.10379 0
M  V30 5512 H 525.617 0.640067 -0.398536 0
M  V30 5513 H 528.268 1.08092 -1.48285 0
M  V30 5514 H 526.65 3.70628 -1.39466 0
M  V30 5515 H 527.824 2.39632 -3.9359 0
M  V30 5516 H 526.139 2.29898 -3.47183 0
M  V30 5517 H 528.736 4.82417 -2.30603 0
M  V30 5518 H 529.079 4.09356 -0.757197 0
M  V30 5519 H 529.612 3.28115 -2.24912 0
M  V30 5520 H 526.351 4.06486 -5.14246 0
M  V30 5521 H 525.871 4.80054 -3.59594 0
M  V30 5522 H 527.55 4.94475 -4.17257 0
M  V30 5523 N 527.682 1.05563 1.17022 0
M  V30 5524 C 528.63 0.653887 2.2322 0
M  V30 5525 C 529.624 -0.326642 1.66221 0
M  V30 5526 O 530.83 -0.192301 1.7897 0
M  V30 5527 H 527.205 0.193297 0.726733 0
M  V30 5528 H 529.176 1.5596 2.54399 0
M  V30 5529 C 527.925 0.0485434 3.47666 0
M  V30 5530 H 527.248 0.79413 3.91834 0
M  V30 5531 H 528.688 -0.195133 4.23551 0
M  V30 5532 C 527.147 -1.20583 3.14581 0
M  V30 5533 O 527.677 -2.29475 3.29703 0
M  V30 5534 N 525.883 -1.10493 2.68774 0
M  V30 5535 H 525.43 -0.218795 2.56669 0
M  V30 5536 H 525.388 -1.94507 2.47011 0
M  V30 5537 N 529.16 -1.33526 0.837174 0
M  V30 5538 C 530.09 -2.31764 0.284206 0
M  V30 5539 C 531.071 -1.58896 -0.607142 0
M  V30 5540 O 532.256 -1.86798 -0.531047 0
M  V30 5541 C 529.386 -3.43029 -0.542962 0
M  V30 5542 C 528.34 -4.27255 0.252451 0
M  V30 5543 C 527.666 -5.3012 -0.69836 0
M  V30 5544 C 528.966 -5.01229 1.46858 0
M  V30 5545 H 530.66 -2.78262 1.10502 0
M  V30 5546 H 528.206 -1.3378 0.532812 0
M  V30 5547 H 530.159 -4.1078 -0.940096 0
M  V30 5548 H 528.883 -2.95216 -1.39697 0
M  V30 5549 H 527.542 -3.61127 0.631124 0
M  V30 5550 H 527.19 -4.78564 -1.54872 0
M  V30 5551 H 526.89 -5.87353 -0.170274 0
M  V30 5552 H 528.414 -6.00737 -1.09305 0
M  V30 5553 H 529.828 -5.61756 1.14469 0
M  V30 5554 H 528.225 -5.68104 1.93333 0
M  V30 5555 H 529.295 -4.301 2.23924 0
M  V30 5556 N 530.638 -0.59345 -1.46 0
M  V30 5557 C 531.588 0.154751 -2.27474 0
M  V30 5558 C 532.572 0.851849 -1.365 0
M  V30 5559 O 533.764 0.744171 -1.60596 0
M  V30 5560 C 530.893 1.16079 -3.2308 0
M  V30 5561 C 529.979 0.465256 -4.2154 0
M  V30 5562 N 530.37 -0.485197 -5.03467 0
M  V30 5563 C 528.668 0.714634 -4.40237 0
M  V30 5564 C 529.369 -0.892709 -5.74809 0
M  V30 5565 N 528.345 -0.239511 -5.43072 0
M  V30 5566 H 532.147 -0.57546 -2.88211 0
M  V30 5567 H 529.661 -0.416046 -1.5698 0
M  V30 5568 H 531.658 1.71108 -3.80168 0
M  V30 5569 H 530.318 1.89171 -2.63903 0
M  V30 5570 H 531.329 -0.861258 -5.10689 0
M  V30 5571 H 528.006 1.43131 -3.92199 0
M  V30 5572 H 529.396 -1.67581 -6.50666 0
M  V30 5573 N 532.116 1.54067 -0.331816 0
M  V30 5574 C 533.527 1.86059 0.15454 0
M  V30 5575 C 533.878 1.25331 1.50952 0
M  V30 5576 O 533.003 0.562441 2.08963 0
M  V30 5577 C 533.598 3.37581 0.287192 0
M  V30 5578 C 532.157 3.69493 0.717773 0
M  V30 5579 C 531.304 2.76863 -0.155569 0
M  V30 5580 H 534.255 1.48797 -0.55182 0
M  V30 5581 H 534.276 3.63744 1.11671 0
M  V30 5582 H 533.788 3.81751 -0.699131 0
M  V30 5583 H 531.889 3.3086 1.71354 0
M  V30 5584 H 532.002 4.76315 0.5158 0
M  V30 5585 H 530.366 2.51995 0.370213 0
M  V30 5586 H 531.149 3.23861 -1.13881 0
M  V30 5587 N 533.594 0.0601682 1.57485 0
M  V30 5588 C 534.504 -0.926121 2.15546 0
M  V30 5589 C 535.52 -1.33532 1.11558 0
M  V30 5590 O 536.696 -1.4104 1.4377 0
M  V30 5591 C 533.761 -2.17952 2.69625 0
M  V30 5592 C 532.822 -1.82783 3.88444 0
M  V30 5593 C 532.055 -3.02148 4.39935 0
M  V30 5594 O 532.278 -4.15803 3.90466 0
M  V30 5595 O 531.212 -2.82639 5.31412 0
M  V30 5596 H 535.038 -0.462289 3.00161 0
M  V30 5597 H 532.623 -0.162246 1.48516 0
M  V30 5598 H 534.505 -2.91474 3.04337 0
M  V30 5599 H 533.18 -2.63456 1.88077 0
M  V30 5600 H 532.087 -1.06549 3.58606 0
M  V30 5601 H 533.42 -1.42072 4.7125 0
M  V30 5602 N 535.072 -1.5615 -0.213296 0
M  V30 5603 C 536.321 -1.78743 -0.93455 0
M  V30 5604 C 536.634 -0.630199 -1.8517 0
M  V30 5605 O 537.84 -0.739966 -2.61222 0
M  V30 5606 C 536.296 -3.16571 -1.71203 0
M  V30 5607 C 535.904 -4.40043 -0.840617 0
M  V30 5608 C 537.648 -3.48485 -2.42401 0
M  V30 5609 C 535.555 -5.68895 -1.61592 0
M  V30 5610 H 534.485 -0.666426 -0.352692 0
M  V30 5611 H 537.136 -1.82532 -0.188227 0
M  V30 5612 H 535.518 -3.06981 -2.50157 0
M  V30 5613 H 536.692 -4.6071 -0.0910326 0
M  V30 5614 H 535.007 -4.15706 -0.240365 0
M  V30 5615 H 537.604 -4.41983 -3.00924 0
M  V30 5616 H 537.947 -2.71371 -3.15695 0
M  V30 5617 H 538.48 -3.59442 -1.7043 0
M  V30 5618 H 535.219 -6.48925 -0.926106 0
M  V30 5619 H 534.739 -5.52275 -2.33991 0
M  V30 5620 H 536.418 -6.09365 -2.17447 0
M  V30 5621 N 536.55 0.480323 -1.50102 0
M  V30 5622 C 537.497 1.57946 -1.6829 0
M  V30 5623 C 538.467 1.57611 -0.524223 0
M  V30 5624 O 539.652 1.75282 -0.753709 0
M  V30 5625 C 536.792 2.95978 -1.77457 0
M  V30 5626 C 535.905 3.06173 -3.04766 0
M  V30 5627 C 535.04 4.35063 -3.04784 0
M  V30 5628 C 534.079 4.38966 -4.26586 0
M  V30 5629 N 533.216 5.59314 -4.24396 0
M  V30 5630 H 538.056 1.41743 -2.62131 0
M  V30 5631 H 535.593 0.689304 -1.2995 0
M  V30 5632 H 537.551 3.76011 -1.80752 0
M  V30 5633 H 536.181 3.10837 -0.870637 0
M  V30 5634 H 535.233 2.19071 -3.10986 0
M  V30 5635 H 536.545 3.04916 -3.9475 0
M  V30 5636 H 535.699 5.23436 -3.06757 0
M  V30 5637 H 534.438 4.38915 -2.12614 0
M  V30 5638 H 533.443 3.48992 -4.24835 0
M  V30 5639 H 534.668 4.36813 -5.19972 0
M  V30 5640 H 532.614 5.63969 -3.35074 0
M  V30 5641 H 532.531 5.5976 -5.08138 0
M  V30 5642 H 533.799 6.49837 -4.30502 0
M  V30 5643 N 538.028 1.39524 0.732853 0
M  V30 5644 C 539.276 1.36594 1.48951 0
M  V30 5645 C 539.597 -0.0367507 1.94965 0
M  V30 5646 O 538.867 -0.988391 1.69138 0
M  V30 5647 H 537.447 0.502673 0.552566 0
M  V30 5648 H 540.109 1.74411 0.869869 0
M  V30 5649 H 539.205 2.03 2.3706 0
M  V30 5650 N 539.506 -0.963266 1.24736 0
M  V30 5651 C 540.438 -2.06162 1.0015 0
M  V30 5652 C 541.451 -1.62771 -0.0305905 0
M  V30 5653 O 542.64 -1.77296 0.206966 0
M  V30 5654 C 539.74 -3.35333 0.490385 0
M  V30 5655 C 538.913 -4.07609 1.58663 0
M  V30 5656 C 537.972 -5.15052 1.0774 0
M  V30 5657 O 536.998 -5.4098 1.77002 0
M  V30 5658 N 538.2 -5.80436 -0.0858605 0
M  V30 5659 H 540.965 -2.27825 1.94719 0
M  V30 5660 H 538.526 -1.13121 1.15825 0
M  V30 5661 H 540.518 -4.04477 0.134371 0
M  V30 5662 H 539.088 -3.10507 -0.361155 0
M  V30 5663 H 538.308 -3.32681 2.11463 0
M  V30 5664 H 539.596 -4.52656 2.32336 0
M  V30 5665 H 538.994 -5.6178 -0.664806 0
M  V30 5666 H 537.551 -6.50674 -0.382981 0
M  V30 5667 N 540.985 -1.06182 -1.16461 0
M  V30 5668 C 541.915 -0.692861 -2.22984 0
M  V30 5669 C 542.896 0.314122 -1.67174 0
M  V30 5670 O 544.081 0.189499 -1.93273 0
M  V30 5671 C 541.211 -0.07732 -3.47214 0
M  V30 5672 C 540.165 -1.01015 -4.15909 0
M  V30 5673 C 539.491 -0.257973 -5.34077 0
M  V30 5674 C 540.791 -2.33868 -4.67015 0
M  V30 5675 H 542.485 -1.58343 -2.54102 0
M  V30 5676 H 540.031 -0.76279 -1.22137 0
M  V30 5677 H 541.984 0.19266 -4.20959 0
M  V30 5678 H 540.708 0.848254 -3.15392 0
M  V30 5679 H 539.367 -1.26486 -3.44088 0
M  V30 5680 H 539.015 0.670684 -4.98509 0
M  V30 5681 H 538.715 -0.879638 -5.80979 0
M  V30 5682 H 540.239 0.00448788 -6.106 0
M  V30 5683 H 541.653 -2.1279 -5.32347 0
M  V30 5684 H 540.05 -2.91522 -5.24533 0
M  V30 5685 H 541.12 -2.97019 -3.83286 0
M  V30 5686 N 542.463 1.3308 -0.844243 0
M  V30 5687 C 543.709 1.97898 -0.443206 0
M  V30 5688 C 544.042 1.66699 0.99625 0
M  V30 5689 O 543.317 0.949704 1.69738 0
M  V30 5690 C 543.6 3.53801 -0.670606 0
M  V30 5691 C 543.453 3.94667 -2.15772 0
M  V30 5692 C 544.772 4.39936 -0.120226 0
M  V30 5693 H 541.891 0.718861 -0.162504 0
M  V30 5694 H 544.533 1.57633 -1.06075 0
M  V30 5695 H 542.683 3.88229 -0.14496 0
M  V30 5696 H 544.355 3.70469 -2.74865 0
M  V30 5697 H 542.598 3.44203 -2.6402 0
M  V30 5698 H 543.269 5.03275 -2.26757 0
M  V30 5699 H 545.745 4.12183 -0.5696 0
M  V30 5700 H 544.621 5.4803 -0.308984 0
M  V30 5701 H 544.882 4.31184 0.976347 0
M  V30 5702 N 543.941 0.601185 1.45683 0
M  V30 5703 C 544.888 -0.121396 2.30481 0
M  V30 5704 C 545.858 -0.866232 1.41724 0
M  V30 5705 O 547.043 -0.85324 1.70659 0
M  V30 5706 C 544.183 -1.11704 3.26521 0
M  V30 5707 C 543.296 -0.373741 4.3038 0
M  V30 5708 C 542.431 -1.35854 5.13534 0
M  V30 5709 C 541.47 -0.602689 6.09126 0
M  V30 5710 N 540.607 -1.53645 6.85082 0
M  V30 5711 H 545.447 0.607732 2.91737 0
M  V30 5712 H 542.984 0.311502 1.43764 0
M  V30 5713 H 544.942 -1.70735 3.80664 0
M  V30 5714 H 543.572 -1.81366 2.67032 0
M  V30 5715 H 542.624 0.331962 3.78949 0
M  V30 5716 H 543.936 0.2163 4.98331 0
M  V30 5717 H 543.09 -2.02111 5.72046 0
M  V30 5718 H 541.829 -1.98251 4.45587 0
M  V30 5719 H 540.834 0.0735482 5.49751 0
M  V30 5720 H 542.059 0.0161467 6.79098 0
M  V30 5721 H 540.005 -2.14819 6.1983 0
M  V30 5722 H 539.922 -0.999688 7.49361 0
M  V30 5723 H 541.19 -2.1888 7.48139 0
M  V30 5724 N 545.419 -1.53889 0.339982 0
M  V30 5725 C 546.349 -2.27843 -0.510856 0
M  V30 5726 C 547.33 -1.29267 -1.10563 0
M  V30 5727 O 548.515 -1.58104 -1.12768 0
M  V30 5728 C 545.645 -3.04857 -1.66372 0
M  V30 5729 C 544.599 -4.10907 -1.19746 0
M  V30 5730 C 543.925 -4.75855 -2.43857 0
M  V30 5731 C 545.225 -5.21435 -0.300501 0
M  V30 5732 H 546.919 -2.99212 0.106067 0
M  V30 5733 H 544.465 -1.43904 0.0524533 0
M  V30 5734 H 546.418 -3.5533 -2.26537 0
M  V30 5735 H 545.142 -2.31133 -2.30749 0
M  V30 5736 H 543.801 -3.61342 -0.618654 0
M  V30 5737 H 543.449 -3.9873 -3.06633 0
M  V30 5738 H 543.149 -5.47502 -2.13343 0
M  V30 5739 H 544.673 -5.2911 -3.04754 0
M  V30 5740 H 546.087 -5.67565 -0.80889 0
M  V30 5741 H 544.484 -6.00036 -0.0874076 0
M  V30 5742 H 545.554 -4.80328 0.664321 0
M  V30 5743 N 546.897 -0.0685191 -1.57451 0
M  V30 5744 C 547.827 0.89747 -2.15564 0
M  V30 5745 C 548.808 1.31266 -1.08181 0
M  V30 5746 O 549.993 1.38429 -1.36202 0
M  V30 5747 C 547.123 2.16623 -2.71463 0
M  V30 5748 C 546.077 1.89054 -3.83982 0
M  V30 5749 C 545.403 3.22532 -4.26471 0
M  V30 5750 C 546.703 1.1984 -5.08366 0
M  V30 5751 H 548.397 0.413373 -2.96533 0
M  V30 5752 H 545.943 0.197391 -1.42641 0
M  V30 5753 H 547.896 2.84614 -3.10761 0
M  V30 5754 H 546.62 2.67269 -1.8771 0
M  V30 5755 H 545.279 1.23469 -3.45183 0
M  V30 5756 H 544.927 3.71013 -3.39644 0
M  V30 5757 H 544.627 3.04879 -5.02317 0
M  V30 5758 H 546.151 3.91727 -4.68383 0
M  V30 5759 H 547.565 1.77896 -5.45001 0
M  V30 5760 H 545.962 1.12456 -5.89469 0
M  V30 5761 H 547.032 0.176996 -4.84577 0
M  V30 5762 N 548.375 1.56261 0.205012 0
M  V30 5763 C 549.6 1.84491 0.947512 0
M  V30 5764 C 550.025 0.650894 1.76479 0
M  V30 5765 O 549.383 -0.40035 1.76824 0
M  V30 5766 C 549.431 3.10863 1.82747 0
M  V30 5767 O 548.535 2.90719 2.925 0
M  V30 5768 H 547.876 0.607783 0.267386 0
M  V30 5769 H 550.406 2.03485 0.213323 0
M  V30 5770 H 550.416 3.41399 2.23407 0
M  V30 5771 H 549.091 3.97392 1.2269 0
M  V30 5772 H 547.668 2.71457 2.55667 0
M  V30 5773 N 549.853 -0.472356 1.50355 0
M  V30 5774 C 551.099 -1.22634 1.6152 0
M  V30 5775 C 551.432 -1.91645 0.313995 0
M  V30 5776 O 550.707 -1.82059 -0.684446 0
M  V30 5777 C 550.99 -2.27099 2.7946 0
M  V30 5778 C 550.843 -1.62402 4.19459 0
M  V30 5779 C 552.162 -3.28421 2.92964 0
M  V30 5780 H 549.281 -0.444494 0.587873 0
M  V30 5781 H 551.923 -0.520321 1.82737 0
M  V30 5782 H 550.073 -2.87314 2.61501 0
M  V30 5783 H 551.745 -1.05793 4.49005 0
M  V30 5784 H 549.988 -0.927184 4.23776 0
M  V30 5785 H 550.659 -2.38309 4.97909 0
M  V30 5786 H 553.135 -2.78227 3.09401 0
M  V30 5787 H 552.011 -3.98845 3.77113 0
M  V30 5788 H 552.272 -3.92467 2.03525 0
M  V30 5789 N 551.331 -1.39911 -0.725443 0
M  V30 5790 C 552.747 -1.21725 -1.03224 0
M  V30 5791 C 552.947 -0.0855224 -2.01318 0
M  V30 5792 O 552.003 0.55976 -2.46217 0
M  V30 5793 C 553.316 -2.55511 -1.58539 0
M  V30 5794 C 554.864 -2.62439 -1.70572 0
M  V30 5795 C 555.339 -3.9647 -2.29294 0
M  V30 5796 N 556.83 -3.98159 -2.36692 0
M  V30 5797 C 557.565 -4.98647 -2.83088 0
M  V30 5798 N 557.061 -6.0953 -3.2931 0
M  V30 5799 N 558.854 -4.8602 -2.82384 0
M  V30 5800 H 551.005 -2.12267 -0.075048 0
M  V30 5801 H 553.268 -0.943136 -0.0959066 0
M  V30 5802 H 552.974 -3.38926 -0.939249 0
M  V30 5803 H 552.848 -2.75905 -2.57208 0
M  V30 5804 H 555.235 -1.79401 -2.34306 0
M  V30 5805 H 555.316 -2.45885 -0.705297 0
M  V30 5806 H 554.96 -4.79942 -1.66186 0
M  V30 5807 H 554.89 -4.10349 -3.30032 0
M  V30 5808 H 557.381 -3.18085 -2.04035 0
M  V30 5809 H 557.694 -6.82106 -3.6325 0
M  V30 5810 H 556.039 -6.1311 -3.27294 0
M  V30 5811 H 559.23 -3.98493 -2.45603 0
M  V30 5812 H 559.403 -5.64478 -3.18226 0
M  V30 5813 N 552.809 0.956637 -1.25245 0
M  V30 5814 C 553.739 2.07058 -1.07931 0
M  V30 5815 C 554.72 1.70096 0.0110361 0
M  V30 5816 O 555.905 1.93555 -0.158121 0
M  V30 5817 C 553.035 3.40272 -0.695124 0
M  V30 5818 C 551.989 3.91235 -1.73549 0
M  V30 5819 C 551.315 5.20921 -1.20604 0
M  V30 5820 C 552.615 4.17837 -3.13385 0
M  V30 5821 H 554.309 2.218 -2.01109 0
M  V30 5822 H 551.855 1.06581 -0.968326 0
M  V30 5823 H 553.808 4.1765 -0.560949 0
M  V30 5824 H 552.532 3.25462 0.272355 0
M  V30 5825 H 551.191 3.16025 -1.85807 0
M  V30 5826 H 550.839 5.02479 -0.228846 0
M  V30 5827 H 550.539 5.55987 -1.90136 0
M  V30 5828 H 552.063 6.00897 -1.08421 0
M  V30 5829 H 553.477 4.8588 -3.04292 0
M  V30 5830 H 551.874 4.64154 -3.80369 0
M  V30 5831 H 552.944 3.2419 -3.60595 0
M  V30 5832 N 554.287 1.06798 1.15896 0
M  V30 5833 C 555.527 0.797041 1.8822 0
M  V30 5834 C 555.891 -0.664549 1.80133 0
M  V30 5835 O 557.092 -1.0503 2.47431 0
M  V30 5836 C 555.363 1.28431 3.33527 0
M  V30 5837 S 556.922 1.14319 4.23647 0
M  V30 5838 H 553.74 0.288988 0.649621 0
M  V30 5839 H 556.342 1.36594 1.39865 0
M  V30 5840 H 555.046 2.34286 3.36954 0
M  V30 5841 H 554.577 0.710371 3.86933 0
M  V30 5842 H 556.592 0.0772467 4.9614 0
M  V30 5843 N 555.766 -1.3263 0.851289 0
M  V30 5844 C 557.177 -1.79653 0.5081 0
M  V30 5845 C 557.528 -1.70327 -0.973815 0
M  V30 5846 O 556.653 -1.25986 -1.75944 0
M  V30 5847 C 557.248 -3.26196 0.915515 0
M  V30 5848 C 555.807 -3.71187 0.624277 0
M  V30 5849 C 554.954 -2.53804 1.11709 0
M  V30 5850 H 557.905 -1.19976 1.03882 0
M  V30 5851 H 557.926 -3.79801 0.230535 0
M  V30 5852 H 557.438 -3.32952 1.99411 0
M  V30 5853 H 555.539 -3.69948 -0.443737 0
M  V30 5854 H 555.652 -4.64132 1.18821 0
M  V30 5855 H 554.016 -2.48964 0.537484 0
M  V30 5856 H 554.799 -2.63315 2.20272 0
M  V30 5857 N 557.244 -0.608902 -1.45362 0
M  V30 5858 C 558.655 -0.189511 -1.85736 0
M  V30 5859 C 559.006 1.2539 -1.50903 0
M  V30 5860 O 558.131 1.95094 -0.936347 0
M  V30 5861 C 558.726 -0.33716 -3.37118 0
M  V30 5862 C 557.285 0.0275487 -3.7639 0
M  V30 5863 C 556.432 -0.660983 -2.69307 0
M  V30 5864 H 559.383 -0.815499 -1.36144 0
M  V30 5865 H 559.404 0.430257 -3.7806 0
M  V30 5866 H 558.916 -1.38779 -3.62439 0
M  V30 5867 H 557.017 1.0773 -3.56686 0
M  V30 5868 H 557.13 -0.367018 -4.77692 0
M  V30 5869 H 555.494 -0.0984958 -2.54509 0
M  V30 5870 H 556.277 -1.71377 -2.97464 0
M  V30 5871 N 558.722 1.53707 -0.348139 0
M  V30 5872 C 559.968 2.01286 0.247332 0
M  V30 5873 C 560.301 1.23546 1.49834 0
M  V30 5874 O 559.576 0.324331 1.91777 0
M  V30 5875 C 559.859 3.55768 0.556858 0
M  V30 5876 C 559.712 4.44216 -0.706564 0
M  V30 5877 C 561.031 4.1841 1.3646 0
M  V30 5878 H 558.15 0.731677 0.0884201 0
M  V30 5879 H 560.792 1.84106 -0.469584 0
M  V30 5880 H 558.942 3.70539 1.16761 0
M  V30 5881 H 560.614 4.41274 -1.34444 0
M  V30 5882 H 558.857 4.12892 -1.33052 0
M  V30 5883 H 559.528 5.50202 -0.445186 0
M  V30 5884 H 562.004 4.07365 0.848113 0
M  V30 5885 H 560.88 5.26563 1.54992 0
M  V30 5886 H 561.141 3.7333 2.36805 0
M  V30 5887 N 560.2 0.0768682 1.57412 0
M  V30 5888 C 561.425 -0.603404 1.98428 0
M  V30 5889 C 561.85 -1.62047 0.955108 0
M  V30 5890 O 561.208 -1.81129 -0.0786778 0
M  V30 5891 C 561.256 -1.24396 3.38464 0
M  V30 5892 O 560.36 -2.35982 3.3821 0
M  V30 5893 H 559.701 -0.154741 0.645718 0
M  V30 5894 H 562.231 0.152885 2.04028 0
M  V30 5895 H 562.241 -1.5896 3.7576 0
M  V30 5896 H 560.916 -0.498735 4.12899 0
M  V30 5897 H 559.493 -2.03173 3.1269 0
M  V30 5898 N 561.678 -1.56367 -0.196722 0
M  V30 5899 C 562.926 -1.80172 -0.915554 0
M  V30 5900 C 563.247 -0.649649 -1.8386 0
M  V30 5901 O 562.517 0.332111 -1.93064 0
M  V30 5902 H 561.097 -0.664592 -0.341067 0
M  V30 5903 H 563.759 -1.93844 -0.202622 0
M  V30 5904 H 562.855 -2.7327 -1.50764 0
M  V30 5905 N 563.156 0.464375 -1.50603 0
M  V30 5906 C 564.088 1.57916 -1.66118 0
M  V30 5907 C 565.101 1.53497 -0.54246 0
M  V30 5908 O 566.29 1.58763 -0.815877 0
M  V30 5909 C 563.39 2.96809 -1.63577 0
M  V30 5910 C 562.563 3.26026 -2.91592 0
M  V30 5911 C 561.622 4.44506 -2.81604 0
M  V30 5912 O 560.648 4.44484 -3.55559 0
M  V30 5913 N 561.85 5.46549 -1.95614 0
M  V30 5914 H 564.615 1.45022 -2.62276 0
M  V30 5915 H 562.176 0.652903 -1.48151 0
M  V30 5916 H 564.168 3.74048 -1.54499 0
M  V30 5917 H 562.738 3.03438 -0.751262 0
M  V30 5918 H 561.958 2.37337 -3.14746 0
M  V30 5919 H 563.246 3.42361 -3.76386 0
M  V30 5920 H 562.644 5.49391 -1.34854 0
M  V30 5921 H 561.201 6.22746 -1.92435 0
M  V30 5922 N 564.634 1.40294 0.718013 0
M  V30 5923 C 565.597 1.4012 1.81381 0
M  V30 5924 C 566.597 0.295405 1.58063 0
M  V30 5925 O 567.787 0.554187 1.6515 0
M  V30 5926 C 564.919 1.19056 3.19435 0
M  V30 5927 H 566.112 2.37645 1.82933 0
M  V30 5928 H 563.665 1.26107 0.923405 0
M  V30 5929 H 564.4 0.222809 3.23534 0
M  V30 5930 H 564.185 1.99152 3.37758 0
M  V30 5931 H 565.675 1.21716 3.99468 0
M  V30 5932 N 566.112 -0.949982 1.2575 0
M  V30 5933 C 567.075 -2.02894 1.06615 0
M  V30 5934 C 568.075 -1.60791 0.0173905 0
M  V30 5935 O 569.265 -1.72249 0.260003 0
M  V30 5936 C 566.397 -3.35219 0.619751 0
M  V30 5937 H 567.59 -2.21302 2.02399 0
M  V30 5938 H 565.143 -1.12772 1.08223 0
M  V30 5939 H 565.878 -3.22508 -0.340486 0
M  V30 5940 H 565.663 -3.67129 1.37692 0
M  V30 5941 H 567.153 -4.14505 0.507443 0
M  V30 5942 N 567.59 -1.07411 -1.15328 0
M  V30 5943 C 568.523 -0.63913 -2.19067 0
M  V30 5944 C 569.501 0.343929 -1.58921 0
M  V30 5945 O 570.685 0.250207 -1.86832 0
M  V30 5946 C 567.812 0.0613977 -3.38644 0
M  V30 5947 C 566.858 -0.880201 -4.17318 0
M  V30 5948 S 567.691 -2.38152 -4.79629 0
M  V30 5949 C 568.847 -1.69281 -6.02573 0
M  V30 5950 H 569.08 -1.51799 -2.55626 0
M  V30 5951 H 566.613 -0.888138 -1.26299 0
M  V30 5952 H 568.571 0.459323 -4.07922 0
M  V30 5953 H 567.232 0.916605 -3.00428 0
M  V30 5954 H 566.425 -0.336781 -5.02874 0
M  V30 5955 H 566.027 -1.21854 -3.53592 0
M  V30 5956 H 568.319 -1.00488 -6.70006 0
M  V30 5957 H 569.262 -2.52671 -6.61485 0
M  V30 5958 H 569.67 -1.17053 -5.52231 0
M  V30 5959 N 569.068 1.32177 -0.85831 0
M  V30 5960 C 570.345 1.91781 -0.384624 0
M  V30 5961 C 570.725 1.78171 1.13217 0
M  V30 5962 O 570.073 1.18209 1.95548 0
M  V30 5963 C 570.283 3.38414 -0.853047 0
M  V30 5964 C 571.631 4.15542 -0.872359 0
M  V30 5965 O 572.655 3.47148 -0.797926 0
M  V30 5966 O 571.514 5.37678 -0.978009 0
M  V30 5967 H 568.608 0.819259 -0.112886 0
M  V30 5968 H 571.154 1.40923 -0.945453 0
M  V30 5969 H 569.926 3.4228 -1.89632 0
M  V30 5970 H 569.549 3.96683 -0.269874 0
M  V30 5971 N 570.547 0.616602 1.45037 0
M  V30 5972 C 571.796 0.112861 2.01384 0
M  V30 5973 C 572.109 -1.26758 1.48969 0
M  V30 5974 O 573.315 -1.86454 1.9735 0
M  V30 5975 C 571.771 0.151057 3.59583 0
M  V30 5976 C 571.379 1.53191 4.20995 0
M  V30 5977 C 573.123 -0.296974 4.2346 0
M  V30 5978 C 571.03 1.526 5.71373 0
M  V30 5979 H 569.96 0.0384254 0.75302 0
M  V30 5980 H 572.611 0.773262 1.66412 0
M  V30 5981 H 570.993 -0.57617 3.91786 0
M  V30 5982 H 572.167 2.28156 4.00352 0
M  V30 5983 H 570.482 1.92279 3.69348 0
M  V30 5984 H 573.079 -0.320712 5.33737 0
M  V30 5985 H 573.422 -1.32145 3.9477 0
M  V30 5986 H 573.955 0.377279 3.96007 0
M  V30 5987 H 570.694 2.52837 6.04776 0
M  V30 5988 H 570.214 0.819064 5.94181 0
M  V30 5989 H 571.893 1.25357 6.3474 0
M  V30 5990 N 572.025 -1.5352 0.356285 0
M  V30 5991 C 573.271 -2.01414 -0.236653 0
M  V30 5992 C 573.604 -1.24339 -1.49176 0
M  V30 5993 O 572.879 -0.334496 -1.91602 0
M  V30 5994 C 573.162 -3.56059 -0.537982 0
M  V30 5995 C 573.015 -4.43835 0.730112 0
M  V30 5996 C 574.334 -4.19127 -1.34239 0
M  V30 5997 H 571.453 -0.732135 -0.0845386 0
M  V30 5998 H 574.095 -1.83854 0.479341 0
M  V30 5999 H 572.245 -3.71153 -1.14795 0
M  V30 6000 H 573.917 -4.40555 1.36782 0
M  V30 6001 H 572.16 -4.1218 1.3524 0
M  V30 6002 H 572.831 -5.49958 0.474358 0
M  V30 6003 H 575.307 -4.07809 -0.826498 0
M  V30 6004 H 574.183 -5.27378 -1.52198 0
M  V30 6005 H 574.444 -3.74581 -2.34822 0
M  V30 6006 N 573.503 -0.0852151 -1.57369 0
M  V30 6007 C 574.749 0.581666 -1.94279 0
M  V30 6008 C 575.082 1.68444 -0.966446 0
M  V30 6009 O 574.357 1.945 0.00215277 0
M  V30 6010 C 574.64 1.14609 -3.41375 0
M  V30 6011 C 574.493 0.0490414 -4.49773 0
M  V30 6012 C 575.812 2.04751 -3.8957 0
M  V30 6013 H 572.931 0.209972 -0.706456 0
M  V30 6014 H 575.573 -0.153915 -1.89376 0
M  V30 6015 H 573.723 1.77297 -3.45685 0
M  V30 6016 H 575.395 -0.584721 -4.57579 0
M  V30 6017 H 573.638 -0.618638 -4.29366 0
M  V30 6018 H 574.309 0.484601 -5.49869 0
M  V30 6019 H 576.785 1.51981 -3.87351 0
M  V30 6020 H 575.661 2.41173 -4.93079 0
M  V30 6021 H 575.922 2.96107 -3.28288 0
M  V30 6022 N 574.981 1.5647 0.188427 0
M  V30 6023 C 575.929 1.95971 1.25293 0
M  V30 6024 C 576.923 0.846047 1.4676 0
M  V30 6025 O 578.129 1.03109 1.47542 0
M  V30 6026 H 574.504 0.623253 0.420784 0
M  V30 6027 H 576.475 2.84731 0.892792 0
M  V30 6028 C 575.224 2.32116 2.58877 0
M  V30 6029 H 574.547 3.17341 2.43176 0
M  V30 6030 H 575.987 2.63613 3.3209 0
M  V30 6031 C 574.446 1.15823 3.16365 0
M  V30 6032 O 574.976 0.436785 3.99318 0
M  V30 6033 N 573.182 0.933278 2.75206 0
M  V30 6034 H 572.729 1.52169 2.07852 0
M  V30 6035 H 572.687 0.156976 3.14008 0
M  V30 6036 N 576.459 -0.456382 1.50847 0
M  V30 6037 C 577.87 -1.03685 1.55262 0
M  V30 6038 C 578.221 -1.92779 0.364771 0
M  V30 6039 O 577.346 -2.10043 -0.52068 0
M  V30 6040 C 577.941 -1.88718 2.81374 0
M  V30 6041 C 576.5 -2.41847 2.88422 0
M  V30 6042 C 575.647 -1.20564 2.49719 0
M  V30 6043 H 578.598 -0.238399 1.56899 0
M  V30 6044 H 578.619 -2.73957 2.6406 0
M  V30 6045 H 578.131 -1.23847 3.67809 0
M  V30 6046 H 576.232 -3.10228 2.06372 0
M  V30 6047 H 576.345 -2.75947 3.9165 0
M  V30 6048 H 574.709 -1.54504 2.02486 0
M  V30 6049 H 575.492 -0.573326 3.38479 0
M  V30 6050 N 577.937 -1.40673 -0.710563 0
M  V30 6051 C 579.348 -1.34975 -1.28991 0
M  V30 6052 C 579.699 -0.0256272 -1.96183 0
M  V30 6053 O 578.824 0.876339 -1.97862 0
M  V30 6054 C 579.419 -2.44467 -2.34567 0
M  V30 6055 C 577.978 -2.42213 -2.88114 0
M  V30 6056 C 577.125 -2.25085 -1.61963 0
M  V30 6057 H 580.076 -1.50406 -0.506343 0
M  V30 6058 H 580.097 -2.12663 -3.15523 0
M  V30 6059 H 579.609 -3.40825 -1.85634 0
M  V30 6060 H 577.71 -1.49568 -3.41263 0
M  V30 6061 H 577.823 -3.37983 -3.39565 0
M  V30 6062 H 576.187 -1.72691 -1.87216 0
M  V30 6063 H 576.97 -3.23449 -1.15047 0
M  V30 6064 N 579.415 0.9433 -1.26252 0
M  V30 6065 C 580.661 1.69175 -1.11837 0
M  V30 6066 C 580.994 1.91238 0.337891 0
M  V30 6067 O 580.269 1.49152 1.24836 0
M  V30 6068 C 580.552 3.06783 -1.88563 0
M  V30 6069 C 580.405 2.9206 -3.42083 0
M  V30 6070 C 581.724 4.06865 -1.67776 0
M  V30 6071 H 578.843 0.61399 -0.407658 0
M  V30 6072 H 581.485 1.09572 -1.55222 0
M  V30 6073 H 579.635 3.57663 -1.51689 0
M  V30 6074 H 581.307 2.48419 -3.88698 0
M  V30 6075 H 579.55 2.27731 -3.69217 0
M  V30 6076 H 580.221 3.89651 -3.90994 0
M  V30 6077 H 582.697 3.64939 -1.99897 0
M  V30 6078 H 581.573 5.01168 -2.23879 0
M  V30 6079 H 581.834 4.37705 -0.621816 0
M  V30 6080 N 580.893 1.08022 1.14757 0
M  V30 6081 C 581.856 0.71048 2.1791 0
M  V30 6082 C 582.856 -0.252731 1.58801 0
M  V30 6083 O 584.046 -0.0327915 1.74169 0
M  V30 6084 C 581.178 0.0483203 3.40866 0
M  V30 6085 H 582.371 1.62384 2.52134 0
M  V30 6086 H 579.924 0.877595 1.29337 0
M  V30 6087 H 580.659 -0.876959 3.12218 0
M  V30 6088 H 580.444 0.741189 3.85031 0
M  V30 6089 H 581.934 -0.195471 4.17142 0
M  V30 6090 N 582.371 -1.3172 0.865308 0
M  V30 6091 C 583.619 -1.96487 0.472995 0
M  V30 6092 C 583.94 -1.68761 -0.976975 0
M  V30 6093 O 583.21 -1.00051 -1.68424 0
M  V30 6094 H 581.79 -0.726947 0.171922 0
M  V30 6095 H 584.452 -1.60612 1.10407 0
M  V30 6096 H 583.548 -3.0574 0.62687 0
M  V30 6097 N 583.85 -0.624285 -1.44708 0
M  V30 6098 C 584.76 0.0861083 -2.34442 0
M  V30 6099 C 585.776 0.84291 -1.5222 0
M  V30 6100 O 586.952 0.796723 -1.84971 0
M  V30 6101 C 584.017 1.05999 -3.30099 0
M  V30 6102 C 583.077 0.303316 -4.28227 0
M  V30 6103 C 582.311 1.23081 -5.19314 0
M  V30 6104 O 582.534 2.46929 -5.14181 0
M  V30 6105 O 581.468 0.71883 -5.97592 0
M  V30 6106 H 585.293 -0.651756 -2.96624 0
M  V30 6107 H 582.879 -0.384493 -1.44368 0
M  V30 6108 H 584.76 1.62046 -3.88997 0
M  V30 6109 H 583.436 1.77859 -2.70459 0
M  V30 6110 H 582.343 -0.300033 -3.72895 0
M  V30 6111 H 583.676 -0.375123 -4.90768 0
M  V30 6112 N 585.328 1.53329 -0.364422 0
M  V30 6113 C 586.238 2.29414 0.490552 0
M  V30 6114 C 587.254 1.35335 1.09363 0
M  V30 6115 O 588.43 1.68391 1.10483 0
M  V30 6116 C 585.495 3.06772 1.61529 0
M  V30 6117 C 584.556 4.16516 1.03986 0
M  V30 6118 C 583.789 4.90176 2.111 0
M  V30 6119 O 584.012 4.63687 3.32191 0
M  V30 6120 O 582.946 5.76134 1.74222 0
M  V30 6121 H 586.772 3.03428 -0.12856 0
M  V30 6122 H 584.357 1.48843 -0.128837 0
M  V30 6123 H 586.239 3.55082 2.26924 0
M  V30 6124 H 584.914 2.35596 2.21983 0
M  V30 6125 H 583.821 3.7246 0.349856 0
M  V30 6126 H 585.154 4.89855 0.4799 0
M  V30 6127 N 586.806 0.0935595 1.57322 0
M  V30 6128 C 588.031 -0.582324 1.99057 0
M  V30 6129 C 588.456 -1.61025 0.972242 0
M  V30 6130 O 587.814 -1.81202 -0.0594622 0
M  V30 6131 C 587.862 -1.20799 3.39765 0
M  V30 6132 O 586.966 -2.32382 3.40694 0
M  V30 6133 H 586.307 -0.147884 0.647323 0
M  V30 6134 H 588.837 0.174516 2.03854 0
M  V30 6135 H 588.847 -1.54966 3.77425 0
M  V30 6136 H 587.522 -0.454914 4.13405 0
M  V30 6137 H 586.099 -1.99845 3.14827 0
M  V30 6138 N 588.284 -1.56567 -0.180126 0
M  V30 6139 C 589.531 -1.81492 -0.898167 0
M  V30 6140 C 589.859 -0.669225 -1.82624 0
M  V30 6141 O 589.114 0.344096 -1.92651 0
M  V30 6142 C 589.413 -3.1252 -1.73395 0
M  V30 6143 C 589.079 -4.40658 -0.955567 0
M  V30 6144 C 587.741 -4.75465 -0.740707 0
M  V30 6145 C 590.093 -5.19593 -0.408948 0
M  V30 6146 C 587.421 -5.86691 0.0320128 0
M  V30 6147 C 589.773 -6.31627 0.350638 0
M  V30 6148 C 588.437 -6.65007 0.576378 0
M  V30 6149 H 587.707 -0.664125 -0.328662 0
M  V30 6150 H 590.354 -1.908 -0.163616 0
M  V30 6151 H 588.659 -2.98515 -2.53763 0
M  V30 6152 H 590.356 -3.29013 -2.29241 0
M  V30 6153 H 586.946 -4.13352 -1.13306 0
M  V30 6154 H 591.13 -4.93104 -0.562307 0
M  V30 6155 H 586.386 -6.11016 0.216735 0
M  V30 6156 H 590.56 -6.92001 0.781497 0
M  V30 6157 H 588.187 -7.51033 1.17703 0
M  V30 6158 N 589.762 0.448376 -1.51087 0
M  V30 6159 C 590.672 1.56882 -1.74428 0
M  V30 6160 C 591.688 1.62268 -0.62809 0
M  V30 6161 O 592.864 1.79716 -0.909075 0
M  V30 6162 C 589.929 2.92947 -1.85426 0
M  V30 6163 C 588.99 2.97766 -3.09247 0
M  V30 6164 C 588.223 4.27341 -3.19711 0
M  V30 6165 O 588.446 5.19112 -2.36387 0
M  V30 6166 O 587.38 4.38219 -4.12611 0
M  V30 6167 H 591.206 1.40104 -2.69452 0
M  V30 6168 H 588.791 0.630247 -1.35456 0
M  V30 6169 H 590.673 3.73719 -1.94709 0
M  V30 6170 H 589.348 3.09876 -0.935887 0
M  V30 6171 H 588.255 2.15989 -3.0545 0
M  V30 6172 H 589.588 2.8578 -4.00738 0
M  V30 6173 N 591.24 1.41047 0.703093 0
M  V30 6174 C 592.172 1.38228 1.82827 0
M  V30 6175 C 593.185 0.285637 1.60275 0
M  V30 6176 O 594.374 0.54685 1.69917 0
M  V30 6177 C 591.474 1.13136 3.19458 0
M  V30 6178 C 590.647 2.34695 3.69103 0
M  V30 6179 C 589.706 2.05574 4.84382 0
M  V30 6180 O 588.732 2.78549 4.96386 0
M  V30 6181 N 589.934 1.04135 5.71083 0
M  V30 6182 H 592.699 2.35203 1.85741 0
M  V30 6183 H 590.26 1.35562 0.885125 0
M  V30 6184 H 592.252 0.916183 3.94193 0
M  V30 6185 H 590.822 0.247836 3.11616 0
M  V30 6186 H 590.042 2.71963 2.85359 0
M  V30 6187 H 591.33 3.15705 3.99009 0
M  V30 6188 H 590.728 0.43722 5.64008 0
M  V30 6189 H 589.285 0.886078 6.45749 0
M  V30 6190 N 592.718 -0.936591 1.26751 0
M  V30 6191 C 593.965 -1.68331 1.12566 0
M  V30 6192 C 594.293 -1.91677 -0.330168 0
M  V30 6193 O 593.548 -1.49859 -1.2586 0
M  V30 6194 C 593.847 -3.06099 1.84494 0
M  V30 6195 C 593.513 -3.02493 3.34378 0
M  V30 6196 C 592.175 -3.01217 3.75262 0
M  V30 6197 C 594.527 -2.94453 4.30055 0
M  V30 6198 C 591.855 -2.89672 5.10203 0
M  V30 6199 C 594.207 -2.84449 5.65041 0
M  V30 6200 C 592.871 -2.81518 6.0523 0
M  V30 6201 H 592.141 -0.615965 0.411907 0
M  V30 6202 H 594.788 -1.09292 1.5725 0
M  V30 6203 H 593.093 -3.6879 1.32292 0
M  V30 6204 H 594.79 -3.62733 1.70955 0
M  V30 6205 H 591.38 -3.04269 3.01858 0
M  V30 6206 H 595.564 -2.94544 3.99447 0
M  V30 6207 H 590.82 -2.85783 5.40498 0
M  V30 6208 H 594.994 -2.77192 6.38856 0
M  V30 6209 H 592.621 -2.72329 7.09747 0
M  V30 6210 N 594.196 -1.08629 -1.14182 0
M  V30 6211 C 595.421 -0.83902 -1.89671 0
M  V30 6212 C 595.846 0.603332 -1.78161 0
M  V30 6213 O 595.204 1.42301 -1.12339 0
M  V30 6214 C 595.252 -1.26854 -3.37551 0
M  V30 6215 O 594.356 -0.42188 -4.10236 0
M  V30 6216 H 593.697 -0.304545 -0.590041 0
M  V30 6217 H 596.227 -1.4483 -1.44518 0
M  V30 6218 H 596.237 -1.25038 -3.88368 0
M  V30 6219 H 594.912 -2.31901 -3.45246 0
M  V30 6220 H 593.489 -0.503654 -3.69483 0
M  V30 6221 N 595.674 1.31259 -0.872281 0
M  V30 6222 C 597.09 1.49283 -0.564521 0
M  V30 6223 C 597.29 1.80243 0.900807 0
M  V30 6224 O 596.346 1.88246 1.68284 0
M  V30 6225 C 597.659 2.62503 -1.46673 0
M  V30 6226 C 599.207 2.76386 -1.46901 0
M  V30 6227 C 599.682 3.92705 -2.35684 0
M  V30 6228 N 601.173 3.99995 -2.33577 0
M  V30 6229 C 601.908 4.89276 -2.98992 0
M  V30 6230 N 601.404 5.83443 -3.73585 0
M  V30 6231 N 603.197 4.82541 -2.88289 0
M  V30 6232 H 595.348 1.09432 -1.82039 0
M  V30 6233 H 597.611 0.540949 -0.77851 0
M  V30 6234 H 597.317 2.46407 -2.50951 0
M  V30 6235 H 597.191 3.58695 -1.16696 0
M  V30 6236 H 599.578 2.91894 -0.433796 0
M  V30 6237 H 599.659 1.80853 -1.80903 0
M  V30 6238 H 599.303 3.77954 -3.39283 0
M  V30 6239 H 599.233 4.87549 -1.99006 0
M  V30 6240 H 601.724 3.32624 -1.7936 0
M  V30 6241 H 602.037 6.48303 -4.20622 0
M  V30 6242 H 600.382 5.83415 -3.77694 0
M  V30 6243 H 603.573 4.07951 -2.2955 0
M  V30 6244 H 603.746 5.51916 -3.39549 0
M  V30 6245 N 597.152 0.631951 1.44375 0
M  V30 6246 C 598.062 -0.073674 2.34484 0
M  V30 6247 C 599.078 -0.834825 1.52665 0
M  V30 6248 O 600.254 -0.786902 1.85391 0
M  V30 6249 C 597.319 -1.04247 3.30656 0
M  V30 6250 C 596.38 -0.280602 4.28382 0
M  V30 6251 C 595.613 -1.20325 5.19959 0
M  V30 6252 O 595.836 -2.44199 5.15484 0
M  V30 6253 O 594.77 -0.687128 5.97965 0
M  V30 6254 H 598.596 0.667477 2.96274 0
M  V30 6255 H 596.181 0.392144 1.44162 0
M  V30 6256 H 598.063 -1.59981 3.89851 0
M  V30 6257 H 596.738 -1.76422 2.71398 0
M  V30 6258 H 595.645 0.319804 3.72731 0
M  V30 6259 H 596.978 0.401144 4.90563 0
M  V30 6260 N 598.631 -1.53133 0.372548 0
M  V30 6261 C 599.578 -2.25951 -0.470631 0
M  V30 6262 C 600.548 -1.26895 -1.07176 0
M  V30 6263 O 601.733 -1.55691 -1.10294 0
M  V30 6264 C 598.873 -3.05726 -1.6008 0
M  V30 6265 C 597.986 -4.19684 -1.02416 0
M  V30 6266 C 597.121 -4.86888 -2.124 0
M  V30 6267 C 596.16 -5.92866 -1.52238 0
M  V30 6268 N 595.297 -6.53732 -2.56084 0
M  V30 6269 H 600.137 -2.97587 0.156816 0
M  V30 6270 H 597.674 -1.4683 0.0891571 0
M  V30 6271 H 599.632 -3.50258 -2.26661 0
M  V30 6272 H 598.262 -2.36331 -2.1988 0
M  V30 6273 H 597.314 -3.79588 -0.248426 0
M  V30 6274 H 598.626 -4.95821 -0.544366 0
M  V30 6275 H 597.78 -5.34638 -2.86787 0
M  V30 6276 H 596.519 -4.10239 -2.63734 0
M  V30 6277 H 595.524 -5.4447 -0.763685 0
M  V30 6278 H 596.749 -6.71439 -1.0172 0
M  V30 6279 H 594.695 -5.79932 -3.06618 0
M  V30 6280 H 594.612 -7.25429 -2.12811 0
M  V30 6281 H 595.88 -7.0613 -3.30152 0
M  V30 6282 N 600.109 -0.101901 -1.5727 0
M  V30 6283 C 601.019 0.868647 -2.17926 0
M  V30 6284 C 602.035 1.30527 -1.1506 0
M  V30 6285 O 603.211 1.37178 -1.47459 0
M  V30 6286 C 600.276 2.10727 -2.75309 0
M  V30 6287 C 599.337 1.7242 -3.93154 0
M  V30 6288 C 598.57 2.90377 -4.47791 0
M  V30 6289 O 598.793 4.05305 -4.01353 0
M  V30 6290 O 597.727 2.6845 -5.38719 0
M  V30 6291 H 601.553 0.382544 -3.01281 0
M  V30 6292 H 599.138 0.122812 -1.48894 0
M  V30 6293 H 601.02 2.83303 -3.11958 0
M  V30 6294 H 599.695 2.58376 -1.94996 0
M  V30 6295 H 598.602 0.970039 -3.61305 0
M  V30 6296 H 599.935 1.29528 -4.74851 0
M  V30 6297 N 601.587 1.56661 0.17182 0
M  V30 6298 C 602.812 1.86459 0.908165 0
M  V30 6299 C 603.237 0.688181 1.75059 0
M  V30 6300 O 602.595 -0.362753 1.77634 0
M  V30 6301 C 602.643 3.14669 1.76112 0
M  V30 6302 O 601.747 2.96858 2.86268 0
M  V30 6303 H 601.088 0.613318 0.254434 0
M  V30 6304 H 603.618 2.03892 0.170113 0
M  V30 6305 H 603.628 3.46061 2.16115 0
M  V30 6306 H 602.303 3.99905 1.14233 0
M  V30 6307 H 600.88 2.76819 2.49852 0
M  V30 6308 N 603.065 -0.440357 1.51323 0
M  V30 6309 C 604.311 -1.19181 1.64085 0
M  V30 6310 C 604.644 -1.90936 0.354575 0
M  V30 6311 O 603.919 -1.8347 -0.645675 0
M  V30 6312 C 604.202 -2.2112 2.84215 0
M  V30 6313 C 604.055 -1.53468 4.22809 0
M  V30 6314 C 605.374 -3.22133 2.99864 0
M  V30 6315 H 602.493 -0.431924 0.597169 0
M  V30 6316 H 605.135 -0.481443 1.83799 0
M  V30 6317 H 603.285 -2.81703 2.67537 0
M  V30 6318 H 604.957 -0.962455 4.51148 0
M  V30 6319 H 603.2 -0.837086 4.25647 0
M  V30 6320 H 603.871 -2.27694 5.02852 0
M  V30 6321 H 606.347 -2.71601 3.15233 0
M  V30 6322 H 605.223 -3.90756 3.85488 0
M  V30 6323 H 605.484 -3.88061 2.11804 0
M  V30 6324 N 604.543 -1.41418 -0.695603 0
M  V30 6325 C 605.473 -1.46035 -1.82197 0
M  V30 6326 C 606.454 -0.319025 -1.67082 0
M  V30 6327 O 607.639 -0.530462 -1.86815 0
M  V30 6328 C 604.769 -1.34179 -3.20333 0
M  V30 6329 C 603.723 -2.46123 -3.50154 0
M  V30 6330 C 603.049 -2.19332 -4.87645 0
M  V30 6331 C 604.349 -3.88463 -3.49133 0
M  V30 6332 H 606.043 -2.40303 -1.78591 0
M  V30 6333 H 603.589 -1.15663 -0.857797 0
M  V30 6334 H 605.542 -1.36021 -3.98844 0
M  V30 6335 H 604.266 -0.363952 -3.24566 0
M  V30 6336 H 602.925 -2.43563 -2.73994 0
M  V30 6337 H 602.573 -1.19891 -4.88503 0
M  V30 6338 H 602.273 -2.94344 -5.08562 0
M  V30 6339 H 603.797 -2.22889 -5.68465 0
M  V30 6340 H 605.211 -3.92738 -4.17648 0
M  V30 6341 H 603.608 -4.63158 -3.81582 0
M  V30 6342 H 604.678 -4.16617 -2.48109 0
M  V30 6343 N 606.021 0.929856 -1.27246 0
M  V30 6344 C 607.269 1.674 -1.13233 0
M  V30 6345 C 607.59 1.92311 0.322744 0
M  V30 6346 O 606.86 1.52784 1.22612 0
M  V30 6347 H 605.44 0.620411 -0.416052 0
M  V30 6348 H 608.102 1.11663 -1.59741 0
M  V30 6349 H 607.198 2.64308 -1.65975 0
M  V30 6350 N 607.499 1.09233 1.13605 0
M  V30 6351 C 608.447 0.724572 2.21027 0
M  V30 6352 C 609.441 -0.273595 1.67176 0
M  V30 6353 O 610.647 -0.135266 1.79491 0
M  V30 6354 H 607.022 0.216319 0.720215 0
M  V30 6355 H 608.993 1.63975 2.49309 0
M  V30 6356 C 607.742 0.159126 3.47336 0
M  V30 6357 H 607.065 0.918387 3.89109 0
M  V30 6358 H 608.505 -0.0602851 4.23957 0
M  V30 6359 C 606.964 -1.10514 3.18258 0
M  V30 6360 O 607.494 -2.18869 3.36837 0
M  V30 6361 N 605.7 -1.01886 2.72154 0
M  V30 6362 H 605.247 -0.137027 2.57235 0
M  V30 6363 H 605.205 -1.8655 2.53074 0
M  V30 6364 N 608.977 -1.30795 0.87923 0
M  V30 6365 C 609.907 -2.30742 0.357796 0
M  V30 6366 C 610.888 -1.60747 -0.556283 0
M  V30 6367 O 612.073 -1.88393 -0.47135 0
M  V30 6368 C 609.203 -3.44583 -0.433555 0
M  V30 6369 C 608.157 -4.26235 0.388251 0
M  V30 6370 C 607.483 -5.32073 -0.529352 0
M  V30 6371 C 608.783 -4.96303 1.62729 0
M  V30 6372 H 610.477 -2.74605 1.19299 0
M  V30 6373 H 608.023 -1.32017 0.575104 0
M  V30 6374 H 609.976 -4.13563 -0.808934 0
M  V30 6375 H 608.7 -2.99511 -1.30234 0
M  V30 6376 H 607.359 -3.58936 0.745695 0
M  V30 6377 H 607.007 -4.83249 -1.39569 0
M  V30 6378 H 606.707 -5.87598 0.0166741 0
M  V30 6379 H 608.231 -6.0391 -0.901373 0
M  V30 6380 H 609.645 -5.5783 1.32283 0
M  V30 6381 H 608.042 -5.61666 2.11309 0
M  V30 6382 H 609.112 -4.22758 2.37494 0
M  V30 6383 N 610.455 -0.639598 -1.44038 0
M  V30 6384 C 611.418 0.0506628 -2.29144 0
M  V30 6385 C 612.418 0.764001 -1.41491 0
M  V30 6386 O 613.608 0.607309 -1.63271 0
M  V30 6387 C 610.74 1.0824 -3.2326 0
M  V30 6388 H 611.933 -0.697987 -2.91664 0
M  V30 6389 H 609.486 -0.400146 -1.51091 0
M  V30 6390 H 610.221 1.86075 -2.65606 0
M  V30 6391 H 610.006 0.574725 -3.87865 0
M  V30 6392 H 611.496 1.56487 -3.87171 0
M  V30 6393 N 611.933 1.52934 -0.380664 0
M  V30 6394 C 612.88 2.26197 0.458641 0
M  V30 6395 C 613.85 1.27462 1.06502 0
M  V30 6396 O 615.035 1.56274 1.09467 0
M  V30 6397 C 612.175 3.06571 1.58456 0
M  V30 6398 C 611.288 4.20222 1.00189 0
M  V30 6399 C 610.423 4.88007 2.09815 0
M  V30 6400 C 609.462 5.93665 1.49092 0
M  V30 6401 N 608.599 6.55081 2.52613 0
M  V30 6402 H 613.439 2.975 -0.172595 0
M  V30 6403 H 610.976 1.4678 -0.0969426 0
M  V30 6404 H 612.934 3.51455 2.24801 0
M  V30 6405 H 611.564 2.37494 2.18624 0
M  V30 6406 H 610.616 3.79714 0.228292 0
M  V30 6407 H 611.928 4.96102 0.518064 0
M  V30 6408 H 611.082 5.36151 2.83948 0
M  V30 6409 H 609.821 4.11632 2.61555 0
M  V30 6410 H 608.826 5.44868 0.7348 0
M  V30 6411 H 610.051 6.71969 0.981582 0
M  V30 6412 H 607.997 5.8155 3.03538 0
M  V30 6413 H 607.914 7.26548 2.08961 0
M  V30 6414 H 609.182 7.07871 3.26402 0
M  V30 6415 N 613.412 0.11024 1.57214 0
M  V30 6416 C 614.359 -0.843195 2.14846 0
M  V30 6417 C 615.329 -1.26954 1.07107 0
M  V30 6418 O 616.514 -1.34861 1.34971 0
M  V30 6419 C 613.654 -2.09123 2.74521 0
M  V30 6420 C 612.767 -1.71404 3.96541 0
M  V30 6421 C 611.902 -2.91107 4.44331 0
M  V30 6422 C 610.941 -2.49586 5.58903 0
M  V30 6423 N 610.078 -3.62175 6.01477 0
M  V30 6424 H 614.918 -0.344886 2.95998 0
M  V30 6425 H 612.455 -0.15855 1.46243 0
M  V30 6426 H 614.413 -2.82234 3.07246 0
M  V30 6427 H 613.043 -2.56427 1.96074 0
M  V30 6428 H 612.095 -0.88201 3.70033 0
M  V30 6429 H 613.407 -1.36884 4.7965 0
M  V30 6430 H 612.561 -3.72454 4.78919 0
M  V30 6431 H 611.3 -3.28848 3.60153 0
M  V30 6432 H 610.305 -1.6667 5.23929 0
M  V30 6433 H 611.53 -2.12973 6.4484 0
M  V30 6434 H 609.476 -3.99605 5.20242 0
M  V30 6435 H 609.393 -3.3155 6.79419 0
M  V30 6436 H 610.661 -4.43987 6.407 0
M  V30 6437 N 614.89 -1.56749 -0.16351 0
M  V30 6438 C 615.853 -1.96121 -1.18613 0
M  V30 6439 C 616.853 -0.845765 -1.36761 0
M  V30 6440 O 618.043 -1.11268 -1.34033 0
M  V30 6441 C 615.175 -2.26282 -2.54969 0
M  V30 6442 H 616.368 -2.87639 -0.848764 0
M  V30 6443 H 613.921 -1.50928 -0.406251 0
M  V30 6444 H 614.656 -1.37504 -2.93706 0
M  V30 6445 H 614.441 -3.07595 -2.43162 0
M  V30 6446 H 615.931 -2.57638 -3.28653 0
M  V30 6447 N 616.368 0.432326 -1.51554 0
M  V30 6448 C 617.315 1.52512 -1.7323 0
M  V30 6449 C 618.285 1.55863 -0.5741 0
M  V30 6450 O 619.47 1.72796 -0.809093 0
M  V30 6451 C 616.61 2.90183 -1.86783 0
M  V30 6452 C 615.723 2.96322 -3.14352 0
M  V30 6453 C 614.858 4.25147 -3.18471 0
M  V30 6454 C 613.897 4.25172 -4.40335 0
M  V30 6455 N 613.034 5.45529 -4.41975 0
M  V30 6456 H 617.874 1.33332 -2.66508 0
M  V30 6457 H 615.411 0.647613 -1.32077 0
M  V30 6458 H 617.369 3.70071 -1.92623 0
M  V30 6459 H 615.999 3.0791 -0.969087 0
M  V30 6460 H 615.051 2.09066 -3.17798 0
M  V30 6461 H 616.363 2.92203 -4.04251 0
M  V30 6462 H 615.517 5.13411 -3.23255 0
M  V30 6463 H 614.256 4.31929 -2.2647 0
M  V30 6464 H 613.261 3.353 -4.35723 0
M  V30 6465 H 614.486 4.20049 -5.33606 0
M  V30 6466 H 612.432 5.53024 -3.52847 0
M  V30 6467 H 612.349 5.43311 -5.25689 0
M  V30 6468 H 613.617 6.35812 -4.50958 0
M  V30 6469 N 617.846 1.41785 0.688094 0
M  V30 6470 C 618.776 1.47 1.8142 0
M  V30 6471 C 619.757 0.327881 1.6691 0
M  V30 6472 O 620.942 0.540362 1.86531 0
M  V30 6473 C 618.072 1.35876 3.19617 0
M  V30 6474 C 617.026 2.47976 3.48844 0
M  V30 6475 C 616.352 2.21915 4.86475 0
M  V30 6476 C 617.652 3.90309 3.47068 0
M  V30 6477 H 619.346 2.41247 1.77314 0
M  V30 6478 H 616.892 1.16116 0.851651 0
M  V30 6479 H 618.845 1.38134 3.98117 0
M  V30 6480 H 617.569 0.38116 3.24368 0
M  V30 6481 H 616.228 2.45013 2.72698 0
M  V30 6482 H 615.876 1.2248 4.8786 0
M  V30 6483 H 615.576 2.97037 5.06994 0
M  V30 6484 H 617.1 2.25901 5.67275 0
M  V30 6485 H 618.514 3.94947 4.1556 0
M  V30 6486 H 616.911 4.65175 3.7912 0
M  V30 6487 H 617.981 4.17927 2.45896 0
M  V30 6488 N 619.324 -0.923095 1.27737 0
M  V30 6489 C 620.552 -1.70525 1.17171 0
M  V30 6490 C 620.967 -1.86847 -0.270881 0
M  V30 6491 O 620.324 -1.38879 -1.18401 0
M  V30 6492 C 620.375 -3.10242 1.85559 0
M  V30 6493 O 620.096 -2.94683 3.24182 0
M  V30 6494 C 621.597 -4.04586 1.81176 0
M  V30 6495 H 618.817 -0.533347 0.407163 0
M  V30 6496 H 621.361 -1.15599 1.68692 0
M  V30 6497 H 619.516 -3.62014 1.3793 0
M  V30 6498 H 619.93 -3.83045 3.58297 0
M  V30 6499 H 621.404 -5.00119 2.33633 0
M  V30 6500 H 621.881 -4.3218 0.782099 0
M  V30 6501 H 622.487 -3.58741 2.2844 0
M  V30 6502 N 620.802 -1.09834 -1.13024 0
M  V30 6503 C 621.712 -0.753731 -2.22162 0
M  V30 6504 C 622.728 0.246105 -1.72251 0
M  V30 6505 O 623.904 0.0864051 -2.01215 0
M  V30 6506 C 620.969 -0.183958 -3.46212 0
M  V30 6507 C 620.03 -1.24028 -4.10993 0
M  V30 6508 C 619.263 -0.697597 -5.29121 0
M  V30 6509 O 619.486 0.478092 -5.68393 0
M  V30 6510 O 618.42 -1.4546 -5.84059 0
M  V30 6511 H 622.246 -1.66456 -2.5402 0
M  V30 6512 H 619.831 -0.873026 -1.21238 0
M  V30 6513 H 621.713 0.130257 -4.21199 0
M  V30 6514 H 620.388 0.699823 -3.16045 0
M  V30 6515 H 619.295 -1.60725 -3.37814 0
M  V30 6516 H 620.628 -2.09685 -4.45301 0
M  V30 6517 N 622.28 1.30327 -0.886154 0
M  V30 6518 C 623.557 1.90922 -0.425217 0
M  V30 6519 C 623.937 1.80533 1.09413 0
M  V30 6520 O 623.285 1.2233 1.92996 0
M  V30 6521 C 623.495 3.36529 -0.924638 0
M  V30 6522 C 624.843 4.13598 -0.960305 0
M  V30 6523 O 625.867 3.45377 -0.871382 0
M  V30 6524 O 624.726 5.35482 -1.09184 0
M  V30 6525 H 621.82 0.81668 -0.130238 0
M  V30 6526 H 624.366 1.38886 -0.975132 0
M  V30 6527 H 623.138 3.38181 -1.96849 0
M  V30 6528 H 622.761 3.96021 -0.353955 0
M  V30 6529 N 623.758 0.647228 1.43697 0
M  V30 6530 C 624.688 -0.0345631 2.33474 0
M  V30 6531 C 625.669 -0.818193 1.4913 0
M  V30 6532 O 626.854 -0.780867 1.77809 0
M  V30 6533 C 623.984 -1.00576 3.32418 0
M  V30 6534 C 622.938 -0.33266 4.26705 0
M  V30 6535 C 622.264 -1.41489 5.1564 0
M  V30 6536 C 623.564 0.771204 5.16575 0
M  V30 6537 H 625.258 0.715163 2.90733 0
M  V30 6538 H 622.804 0.345364 1.39797 0
M  V30 6539 H 624.757 -1.49159 3.94119 0
M  V30 6540 H 623.481 -1.78657 2.73403 0
M  V30 6541 H 622.14 0.13267 3.6636 0
M  V30 6542 H 621.788 -2.18698 4.52968 0
M  V30 6543 H 621.488 -0.969799 5.79542 0
M  V30 6544 H 623.012 -1.9022 5.80214 0
M  V30 6545 H 624.426 0.36779 5.72119 0
M  V30 6546 H 622.823 1.1404 5.89165 0
M  V30 6547 H 623.893 1.63169 4.56622 0
M  V30 6548 N 625.236 -1.5273 0.388769 0
M  V30 6549 C 626.483 -2.01573 -0.19359 0
M  V30 6550 C 626.811 -1.27525 -1.46859 0
M  V30 6551 O 626.066 -0.363926 -1.92286 0
M  V30 6552 C 626.365 -3.53765 -0.508445 0
M  V30 6553 C 626.031 -4.4582 0.674947 0
M  V30 6554 C 624.693 -4.70703 0.999596 0
M  V30 6555 C 627.045 -5.00138 1.46666 0
M  V30 6556 C 624.373 -5.47155 2.11751 0
M  V30 6557 C 626.725 -5.77812 2.57518 0
M  V30 6558 C 625.389 -6.00975 2.90492 0
M  V30 6559 H 624.659 -0.737606 -0.0708397 0
M  V30 6560 H 627.306 -1.84134 0.526006 0
M  V30 6561 H 625.611 -3.69274 -1.30936 0
M  V30 6562 H 627.308 -3.8905 -0.971664 0
M  V30 6563 H 623.898 -4.26616 0.411906 0
M  V30 6564 H 628.082 -4.8084 1.22909 0
M  V30 6565 H 623.338 -5.63314 2.3767 0
M  V30 6566 H 627.512 -6.18904 3.19267 0
M  V30 6567 H 625.139 -6.59998 3.77236 0
M  V30 6568 N 626.714 -0.118576 -1.57153 0
M  V30 6569 C 627.662 0.849114 -2.16547 0
M  V30 6570 C 628.656 1.27567 -1.11458 0
M  V30 6571 O 629.862 1.24746 -1.29763 0
M  V30 6572 H 626.237 0.291935 -0.693021 0
M  V30 6573 H 628.208 0.323693 -2.96639 0
M  V30 6574 C 626.957 2.08951 -2.77912 0
M  V30 6575 H 626.28 1.77021 -3.58474 0
M  V30 6576 H 627.72 2.74666 -3.23008 0
M  V30 6577 C 626.179 2.87899 -1.74974 0
M  V30 6578 O 626.709 3.83268 -1.20285 0
M  V30 6579 N 624.915 2.51884 -1.44924 0
M  V30 6580 H 624.462 1.74397 -1.89587 0
M  V30 6581 H 624.42 3.05003 -0.762921 0
M  V30 6582 N 628.193 1.56834 0.155195 0
M  V30 6583 C 629.125 1.94235 1.21677 0
M  V30 6584 C 630.138 0.83724 1.39621 0
M  V30 6585 O 631.327 1.11567 1.39338 0
M  V30 6586 C 628.427 2.19402 2.58294 0
M  V30 6587 C 627.6 3.50671 2.61436 0
M  V30 6588 C 626.659 3.64475 3.79532 0
M  V30 6589 O 625.685 4.36945 3.64784 0
M  V30 6590 N 626.887 3.00526 4.96653 0
M  V30 6591 H 629.652 2.85901 0.898932 0
M  V30 6592 H 627.213 1.58185 0.34483 0
M  V30 6593 H 629.205 2.25886 3.35794 0
M  V30 6594 H 627.775 1.34042 2.82403 0
M  V30 6595 H 626.995 3.55702 1.69912 0
M  V30 6596 H 628.283 4.3702 2.60559 0
M  V30 6597 H 627.681 2.41549 5.11538 0
M  V30 6598 H 626.238 3.12583 5.71958 0
M  V30 6599 N 629.671 -0.424282 1.51781 0
M  V30 6600 C 630.917 -1.17434 1.6534 0
M  V30 6601 C 631.25 -1.90549 0.374806 0
M  V30 6602 O 630.525 -1.84145 -0.626179 0
M  V30 6603 C 630.808 -2.18093 2.86544 0
M  V30 6604 C 630.661 -1.48975 4.24413 0
M  V30 6605 C 631.98 -3.18934 3.03264 0
M  V30 6606 H 629.099 -0.425566 0.601716 0
M  V30 6607 H 631.741 -0.461921 1.84299 0
M  V30 6608 H 629.891 -2.78849 2.7051 0
M  V30 6609 H 631.563 -0.914551 4.52143 0
M  V30 6610 H 629.806 -0.791893 4.26511 0
M  V30 6611 H 630.477 -2.22347 5.05238 0
M  V30 6612 H 632.953 -2.68243 3.18096 0
M  V30 6613 H 631.829 -3.86645 3.89611 0
M  V30 6614 H 632.09 -3.85793 2.15908 0
M  V30 6615 N 631.149 -1.42148 -0.680565 0
M  V30 6616 C 632.56 -1.3768 -1.26099 0
M  V30 6617 C 632.911 -0.0672348 -1.96085 0
M  V30 6618 O 632.036 0.834172 -1.99676 0
M  V30 6619 C 632.631 -2.49387 -2.29328 0
M  V30 6620 C 631.19 -2.4827 -2.82911 0
M  V30 6621 C 630.337 -2.2847 -1.57152 0
M  V30 6622 H 633.288 -1.51446 -0.474326 0
M  V30 6623 H 633.309 -2.19307 -3.10941 0
M  V30 6624 H 632.821 -3.44686 -1.78363 0
M  V30 6625 H 630.922 -1.56773 -3.38013 0
M  V30 6626 H 631.035 -3.45109 -3.3232 0
M  V30 6627 H 629.399 -1.76623 -1.83511 0
M  V30 6628 H 630.182 -3.25816 -1.0816 0
M  V30 6629 N 632.627 0.916307 -1.28225 0
M  V30 6630 C 633.875 1.6619 -1.15002 0
M  V30 6631 C 634.196 1.92642 0.302329 0
M  V30 6632 O 633.466 1.54076 1.20985 0
M  V30 6633 H 632.046 0.615964 -0.422608 0
M  V30 6634 H 634.708 1.09963 -1.60917 0
M  V30 6635 H 633.804 2.62533 -1.68769 0
M  V30 6636 N 634.105 1.10431 1.1244 0
M  V30 6637 C 635.354 0.841539 1.83306 0
M  V30 6638 C 635.667 -0.634961 1.85007 0
M  V30 6639 O 636.873 -1.01363 2.51869 0
M  V30 6640 C 635.329 1.45565 3.29149 0
M  V30 6641 C 634.937 2.96544 3.35806 0
M  V30 6642 C 636.681 1.27227 4.04986 0
M  V30 6643 C 634.588 3.5099 4.75983 0
M  V30 6644 H 633.518 0.311156 0.686803 0
M  V30 6645 H 636.169 1.32829 1.26604 0
M  V30 6646 H 634.551 0.896574 3.85717 0
M  V30 6647 H 635.725 3.58766 2.89177 0
M  V30 6648 H 634.04 3.14036 2.73442 0
M  V30 6649 H 636.637 1.65348 5.08492 0
M  V30 6650 H 636.98 0.213834 4.1575 0
M  V30 6651 H 637.513 1.79941 3.54776 0
M  V30 6652 H 634.252 4.56499 4.70413 0
M  V30 6653 H 633.772 2.93535 5.23065 0
M  V30 6654 H 635.451 3.48808 5.44924 0
M  V30 6655 N 635.583 -1.29855 0.893053 0
M  V30 6656 C 636.533 -2.25493 0.337211 0
M  V30 6657 C 637.517 -1.51606 -0.53894 0
M  V30 6658 O 638.709 -1.72828 -0.382043 0
M  V30 6659 C 635.838 -3.40467 -0.440117 0
M  V30 6660 C 634.924 -4.217 0.450578 0
M  V30 6661 N 635.315 -4.81312 1.55476 0
M  V30 6662 C 633.613 -4.45315 0.247154 0
M  V30 6663 C 634.314 -5.42241 2.10593 0
M  V30 6664 N 633.29 -5.25267 1.39982 0
M  V30 6665 H 637.092 -2.69137 1.18079 0
M  V30 6666 H 634.606 -1.44388 0.743359 0
M  V30 6667 H 636.603 -4.08038 -0.855021 0
M  V30 6668 H 635.263 -2.98361 -1.28104 0
M  V30 6669 H 636.274 -4.80291 1.93755 0
M  V30 6670 H 632.951 -4.13782 -0.555939 0
M  V30 6671 H 634.341 -5.99517 3.03362 0
M  V30 6672 N 637.061 -0.65484 -1.43351 0
M  V30 6673 C 638.301 -0.172514 -2.03671 0
M  V30 6674 C 638.665 1.19154 -1.50553 0
M  V30 6675 O 639.866 1.76737 -2.02528 0
M  V30 6676 C 638.137 -0.183982 -3.56926 0
M  V30 6677 S 639.696 0.230262 -4.38195 0
M  V30 6678 H 636.514 -0.0727503 -0.707268 0
M  V30 6679 H 639.116 -0.863537 -1.75395 0
M  V30 6680 H 637.82 -1.17945 -3.93087 0
M  V30 6681 H 637.351 0.527527 -3.89847 0
M  V30 6682 H 639.366 1.46874 -4.73965 0
M  V30 6683 N 638.539 1.52521 -0.396863 0
M  V30 6684 C 639.487 2.28217 0.44943 0
M  V30 6685 C 640.481 1.32416 1.05652 0
M  V30 6686 O 641.687 1.49925 0.996124 0
M  V30 6687 H 638.062 0.733966 0.1637 0
M  V30 6688 H 640.033 2.97658 -0.210367 0
M  V30 6689 C 638.782 3.10713 1.56054 0
M  V30 6690 H 638.105 3.84291 1.10273 0
M  V30 6691 H 639.545 3.66803 2.12677 0
M  V30 6692 C 638.004 2.23499 2.52091 0
M  V30 6693 O 638.534 1.8669 3.55682 0
M  V30 6694 N 636.74 1.8751 2.2201 0
M  V30 6695 H 636.287 2.17643 1.37802 0
M  V30 6696 H 636.245 1.29448 2.86514 0
M  V30 6697 N 640.017 0.126909 1.57088 0
M  V30 6698 C 641.428 -0.397201 1.82426 0
M  V30 6699 C 641.779 -1.66084 1.04453 0
M  V30 6700 O 640.904 -2.14534 0.283552 0
M  V30 6701 C 641.499 -0.727411 3.30899 0
M  V30 6702 C 640.058 -1.19612 3.56889 0
M  V30 6703 C 639.205 -0.20885 2.76512 0
M  V30 6704 H 642.156 0.351924 1.54749 0
M  V30 6705 H 642.177 -1.58407 3.45959 0
M  V30 6706 H 641.689 0.19247 3.87622 0
M  V30 6707 H 639.79 -2.13263 3.05532 0
M  V30 6708 H 639.903 -1.13598 4.65438 0
M  V30 6709 H 638.267 -0.697479 2.44964 0
M  V30 6710 H 639.05 0.704267 3.35998 0
M  V30 6711 N 641.495 -1.56914 -0.146875 0
M  V30 6712 C 642.425 -2.01308 -1.1831 0
M  V30 6713 C 643.406 -0.892664 -1.44795 0
M  V30 6714 O 644.591 -1.16048 -1.55713 0
M  V30 6715 C 641.721 -2.3938 -2.51624 0
M  V30 6716 C 640.675 -3.54608 -2.3966 0
M  V30 6717 C 640.001 -3.78493 -3.77686 0
M  V30 6718 C 641.301 -4.87269 -1.88058 0
M  V30 6719 H 642.995 -2.88123 -0.813964 0
M  V30 6720 H 640.541 -1.38615 -0.3901 0
M  V30 6721 H 642.494 -2.69037 -3.24341 0
M  V30 6722 H 641.218 -1.49502 -2.90373 0
M  V30 6723 H 639.877 -3.25116 -1.69396 0
M  V30 6724 H 639.525 -2.85866 -4.13871 0
M  V30 6725 H 639.225 -4.56039 -3.70543 0
M  V30 6726 H 640.749 -4.10576 -4.51951 0
M  V30 6727 H 642.163 -5.15644 -2.50568 0
M  V30 6728 H 640.56 -5.68622 -1.91805 0
M  V30 6729 H 641.63 -4.77634 -0.836277 0
M  V30 6730 N 642.974 0.416227 -1.52004 0
M  V30 6731 C 643.906 1.52552 -1.71058 0
M  V30 6732 C 644.919 1.51693 -0.59102 0
M  V30 6733 O 646.108 1.56087 -0.865973 0
M  V30 6734 C 643.208 2.91455 -1.72937 0
M  V30 6735 C 642.381 3.16584 -3.01816 0
M  V30 6736 C 641.44 4.35322 -2.95603 0
M  V30 6737 O 640.466 4.32947 -3.6952 0
M  V30 6738 N 641.668 5.40049 -2.12903 0
M  V30 6739 H 644.433 1.36604 -2.66757 0
M  V30 6740 H 641.994 0.60544 -1.50153 0
M  V30 6741 H 643.986 3.68944 -1.66321 0
M  V30 6742 H 642.556 3.00895 -0.847418 0
M  V30 6743 H 641.776 2.27203 -3.22137 0
M  V30 6744 H 643.064 3.30213 -3.87088 0
M  V30 6745 H 642.462 5.44823 -1.52265 0
M  V30 6746 H 641.019 6.16308 -2.1215 0
M  V30 6747 N 644.452 1.42507 0.673017 0
M  V30 6748 C 645.7 1.42789 1.43023 0
M  V30 6749 C 646.021 0.0459738 1.94946 0
M  V30 6750 O 645.291 -0.915765 1.73178 0
M  V30 6751 H 643.871 0.525657 0.530748 0
M  V30 6752 H 646.533 1.77944 0.795113 0
M  V30 6753 H 645.629 2.12872 2.28237 0
M  V30 6754 N 645.93 -0.909495 1.28709 0
M  V30 6755 C 646.893 -1.99399 1.13016 0
M  V30 6756 C 647.893 -1.60654 0.068536 0
M  V30 6757 O 649.083 -1.71334 0.314671 0
M  V30 6758 C 646.215 -3.33078 0.726085 0
M  V30 6759 H 647.408 -2.14751 2.09338 0
M  V30 6760 H 644.961 -1.09272 1.11756 0
M  V30 6761 H 645.696 -3.23428 -0.23771 0
M  V30 6762 H 645.481 -3.62562 1.49302 0
M  V30 6763 H 646.971 -4.12681 0.639058 0
M  V30 6764 N 647.408 -1.11026 -1.11852 0
M  V30 6765 C 648.341 -0.708501 -2.16923 0
M  V30 6766 C 649.319 0.293196 -1.59935 0
M  V30 6767 O 650.503 0.190641 -1.87533 0
M  V30 6768 C 647.63 -0.0463705 -3.38668 0
M  V30 6769 C 646.676 -1.01252 -4.14307 0
M  V30 6770 S 647.509 -2.53291 -4.71809 0
M  V30 6771 C 648.665 -1.88366 -5.96883 0
M  V30 6772 H 648.898 -1.59854 -2.50667 0
M  V30 6773 H 646.431 -0.927869 -1.2341 0
M  V30 6774 H 648.389 0.329314 -4.09177 0
M  V30 6775 H 647.05 0.820562 -3.03192 0
M  V30 6776 H 646.243 -0.496596 -5.01548 0
M  V30 6777 H 645.845 -1.33042 -3.49537 0
M  V30 6778 H 648.137 -1.21753 -6.6647 0
M  V30 6779 H 649.08 -2.73588 -6.53112 0
M  V30 6780 H 649.488 -1.34562 -5.48227 0
M  V30 6781 N 648.886 1.2938 -0.899927 0
M  V30 6782 C 650.116 1.99402 -0.540601 0
M  V30 6783 C 650.524 1.67534 0.87914 0
M  V30 6784 O 649.867 0.916821 1.59186 0
M  V30 6785 C 649.929 3.53514 -0.653326 0
M  V30 6786 C 649.593 4.08937 -2.04009 0
M  V30 6787 C 650.59 4.23815 -3.01126 0
M  V30 6788 C 648.275 4.43962 -2.34953 0
M  V30 6789 C 650.269 4.72951 -4.27313 0
M  V30 6790 C 647.956 4.92795 -3.61382 0
M  V30 6791 C 648.954 5.07244 -4.57376 0
M  V30 6792 O 648.642 5.55017 -5.8156 0
M  V30 6793 H 648.374 0.64383 -0.206057 0
M  V30 6794 H 650.928 1.65878 -1.21134 0
M  V30 6795 H 649.158 3.86628 0.0744449 0
M  V30 6796 H 650.847 4.04767 -0.303118 0
M  V30 6797 H 651.613 3.97043 -2.78535 0
M  V30 6798 H 647.492 4.31974 -1.60994 0
M  V30 6799 H 651.036 4.84144 -5.02245 0
M  V30 6800 H 646.933 5.19004 -3.83804 0
M  V30 6801 H 647.701 5.73331 -5.84153 0
M  V30 6802 N 650.364 0.662433 1.43002 0
M  V30 6803 C 651.327 -0.0142016 2.29196 0
M  V30 6804 C 652.327 -0.741394 1.42688 0
M  V30 6805 O 653.517 -0.581257 1.64216 0
M  V30 6806 C 650.649 -1.03084 3.24941 0
M  V30 6807 H 651.842 0.7443 2.90517 0
M  V30 6808 H 649.395 0.424133 1.50435 0
M  V30 6809 H 650.13 -1.81826 2.68533 0
M  V30 6810 H 649.915 -0.512946 3.8873 0
M  V30 6811 H 651.405 -1.50308 3.89612 0
M  V30 6812 N 651.842 -1.52309 0.404946 0
M  V30 6813 C 653.089 -2.01767 -0.1722 0
M  V30 6814 C 653.417 -1.29075 -1.45498 0
M  V30 6815 O 652.672 -0.3843 -1.9189 0
M  V30 6816 C 652.971 -3.54284 -0.470895 0
M  V30 6817 C 652.637 -4.45079 0.722194 0
M  V30 6818 C 651.299 -4.69617 1.04946 0
M  V30 6819 C 653.651 -4.98555 1.51962 0
M  V30 6820 C 650.979 -5.44878 2.17543 0
M  V30 6821 C 653.331 -5.75049 2.63632 0
M  V30 6822 C 651.995 -5.9786 2.9685 0
M  V30 6823 H 651.265 -0.738316 -0.0630125 0
M  V30 6824 H 653.912 -1.83566 0.545506 0
M  V30 6825 H 652.217 -3.70642 -1.27012 0
M  V30 6826 H 653.914 -3.90058 -0.930346 0
M  V30 6827 H 650.504 -4.26155 0.457131 0
M  V30 6828 H 654.688 -4.79509 1.28002 0
M  V30 6829 H 649.944 -5.60762 2.43631 0
M  V30 6830 H 654.118 -6.15483 3.25813 0
M  V30 6831 H 651.745 -6.5596 3.84215 0
M  V30 6832 N 653.32 -0.135238 -1.57019 0
M  V30 6833 C 654.731 0.387521 -1.82634 0
M  V30 6834 C 655.082 1.65528 -1.05332 0
M  V30 6835 O 654.207 2.14381 -0.294926 0
M  V30 6836 C 654.802 0.709852 -3.3128 0
M  V30 6837 C 653.361 1.17718 -3.57518 0
M  V30 6838 C 652.508 0.194183 -2.76619 0
M  V30 6839 H 655.459 -0.360126 -1.5456 0
M  V30 6840 H 655.48 1.5657 -3.46794 0
M  V30 6841 H 654.992 -0.213024 -3.87515 0
M  V30 6842 H 653.093 2.1164 -3.06658 0
M  V30 6843 H 653.206 1.11128 -4.66034 0
M  V30 6844 H 651.57 0.684478 -2.4533 0
M  V30 6845 H 652.353 -0.722076 -3.3562 0
M  V30 6846 N 654.798 1.5699 0.138552 0
M  V30 6847 C 656.214 1.51844 0.491472 0
M  V30 6848 C 656.414 0.845063 1.82923 0
M  V30 6849 O 655.47 0.419143 2.48997 0
M  V30 6850 C 656.783 2.96615 0.493987 0
M  V30 6851 C 658.331 3.076 0.578913 0
M  V30 6852 C 658.806 4.53893 0.612009 0
M  V30 6853 N 660.297 4.5827 0.673997 0
M  V30 6854 C 661.032 5.68852 0.720729 0
M  V30 6855 N 660.528 6.88982 0.726292 0
M  V30 6856 N 662.321 5.56908 0.762253 0
M  V30 6857 H 654.472 1.99158 -0.738228 0
M  V30 6858 H 656.735 0.908693 -0.270149 0
M  V30 6859 H 656.441 3.49172 -0.420933 0
M  V30 6860 H 656.315 3.53017 1.32887 0
M  V30 6861 H 658.702 2.55057 1.48425 0
M  V30 6862 H 658.783 2.54227 -0.283286 0
M  V30 6863 H 658.427 5.07076 -0.289208 0
M  V30 6864 H 658.357 5.05057 1.49082 0
M  V30 6865 H 660.848 3.71793 0.676654 0
M  V30 6866 H 661.161 7.69014 0.764032 0
M  V30 6867 H 659.506 6.91526 0.69403 0
M  V30 6868 H 662.697 4.61969 0.755135 0
M  V30 6869 H 662.87 6.43102 0.795207 0
M  V30 6870 N 656.276 -0.40816 1.52223 0
M  V30 6871 C 657.525 -1.15212 1.65557 0
M  V30 6872 C 657.838 -1.9163 0.392096 0
M  V30 6873 O 659.044 -2.68458 0.405256 0
M  V30 6874 C 657.5 -2.09691 2.92502 0
M  V30 6875 C 657.108 -1.38785 4.25961 0
M  V30 6876 C 658.852 -2.8434 3.152 0
M  V30 6877 C 656.759 -2.31919 5.44029 0
M  V30 6878 H 655.689 -0.433776 0.616729 0
M  V30 6879 H 658.34 -0.4165 1.78711 0
M  V30 6880 H 656.722 -2.8681 2.7305 0
M  V30 6881 H 657.896 -0.670248 4.55899 0
M  V30 6882 H 656.211 -0.761741 4.09373 0
M  V30 6883 H 658.808 -3.54166 4.00587 0
M  V30 6884 H 659.151 -3.47344 2.29473 0
M  V30 6885 H 659.684 -2.14321 3.35129 0
M  V30 6886 H 656.423 -1.7356 6.32105 0
M  V30 6887 H 655.943 -3.0165 5.18428 0
M  V30 6888 H 657.622 -2.92424 5.77146 0
M  V30 6889 N 657.755 -1.42862 -0.66545 0
M  V30 6890 C 659.002 -1.4383 -1.42546 0
M  V30 6891 C 659.33 -0.0581114 -1.94413 0
M  V30 6892 O 658.585 0.935002 -1.71919 0
M  V30 6893 C 658.884 -2.4175 -2.63233 0
M  V30 6894 C 658.55 -3.87915 -2.29854 0
M  V30 6895 C 657.212 -4.27726 -2.20463 0
M  V30 6896 C 659.564 -4.80074 -2.02924 0
M  V30 6897 C 656.892 -5.57666 -1.82279 0
M  V30 6898 C 659.244 -6.10366 -1.66242 0
M  V30 6899 C 657.908 -6.49167 -1.55367 0
M  V30 6900 H 657.178 -0.52631 -0.521612 0
M  V30 6901 H 659.825 -1.75863 -0.757914 0
M  V30 6902 H 658.13 -2.03077 -3.35063 0
M  V30 6903 H 659.827 -2.39759 -3.21429 0
M  V30 6904 H 656.417 -3.564 -2.3807 0
M  V30 6905 H 660.601 -4.50097 -2.09108 0
M  V30 6906 H 655.857 -5.8658 -1.72436 0
M  V30 6907 H 660.031 -6.81258 -1.44432 0
M  V30 6908 H 657.658 -7.49761 -1.2555 0
M  V30 6909 N 659.233 0.902656 -1.29189 0
M  V30 6910 C 660.482 1.6475 -1.16362 0
M  V30 6911 C 660.795 1.93517 0.284682 0
M  V30 6912 O 662.001 2.66192 0.534229 0
M  V30 6913 C 660.457 2.96848 -2.03493 0
M  V30 6914 C 660.065 2.75687 -3.5313 0
M  V30 6915 C 661.809 3.74762 -1.99383 0
M  V30 6916 C 659.716 4.03492 -4.32375 0
M  V30 6917 H 658.646 0.618041 -0.431904 0
M  V30 6918 H 661.297 1.0008 -1.53806 0
M  V30 6919 H 659.679 3.62715 -1.58916 0
M  V30 6920 H 660.853 2.18431 -4.05739 0
M  V30 6921 H 659.168 2.11171 -3.58881 0
M  V30 6922 H 661.765 4.69515 -2.5585 0
M  V30 6923 H 662.108 4.04767 -0.973123 0
M  V30 6924 H 662.641 3.15732 -2.41988 0
M  V30 6925 H 659.38 3.78656 -5.3507 0
M  V30 6926 H 658.9 4.60318 -3.84535 0
M  V30 6927 H 660.579 4.71662 -4.42881 0
M  V30 6928 N 660.711 1.11618 1.11262 0
M  V30 6929 C 662.122 0.881942 1.64556 0
M  V30 6930 C 662.473 -0.585442 1.87262 0
M  V30 6931 O 661.598 -1.44795 1.60821 0
M  V30 6932 C 662.193 1.59446 2.98935 0
M  V30 6933 C 660.752 1.40661 3.4913 0
M  V30 6934 C 659.899 1.63593 2.23903 0
M  V30 6935 H 662.85 1.27217 0.94877 0
M  V30 6936 H 662.871 1.04054 3.65996 0
M  V30 6937 H 662.383 2.66241 2.82378 0
M  V30 6938 H 660.484 0.360835 3.70849 0
M  V30 6939 H 660.597 2.15693 4.27801 0
M  V30 6940 H 658.961 1.05944 2.3162 0
M  V30 6941 H 659.744 2.71666 2.09886 0
M  V30 6942 N 662.189 -1.289 0.906776 0
M  V30 6943 C 663.152 -2.25777 0.394656 0
M  V30 6944 C 664.152 -1.53621 -0.475119 0
M  V30 6945 O 665.342 -1.71949 -0.279165 0
M  V30 6946 C 662.474 -3.38113 -0.43499 0
M  V30 6947 H 663.667 -2.72592 1.25033 0
M  V30 6948 H 661.22 -1.40463 0.685547 0
M  V30 6949 H 661.955 -2.96648 -1.31036 0
M  V30 6950 H 661.74 -3.91647 0.188334 0
M  V30 6951 H 663.23 -4.10168 -0.784365 0
M  V30 6952 N 663.667 -0.670007 -1.42649 0
M  V30 6953 C 664.614 0.0112928 -2.30797 0
M  V30 6954 C 665.584 0.797627 -1.45695 0
M  V30 6955 O 666.769 0.770845 -1.74535 0
M  V30 6956 C 663.909 0.95998 -3.31479 0
M  V30 6957 C 663.022 0.167975 -4.31673 0
M  V30 6958 C 662.157 1.11198 -5.19431 0
M  V30 6959 C 661.196 0.311381 -6.11307 0
M  V30 6960 N 660.333 1.20784 -6.91633 0
M  V30 6961 H 665.173 -0.746231 -2.88505 0
M  V30 6962 H 662.71 -0.379739 -1.42114 0
M  V30 6963 H 664.668 1.52379 -3.88377 0
M  V30 6964 H 663.298 1.68419 -2.75382 0
M  V30 6965 H 662.35 -0.512385 -3.76933 0
M  V30 6966 H 663.662 -0.453814 -4.96731 0
M  V30 6967 H 662.816 1.74587 -5.81037 0
M  V30 6968 H 661.555 1.76766 -4.54538 0
M  V30 6969 H 660.56 -0.335758 -5.48774 0
M  V30 6970 H 661.785 -0.340135 -6.78248 0
M  V30 6971 H 659.731 1.85001 -6.29373 0
M  V30 6972 H 659.648 0.64102 -7.53277 0
M  V30 6973 H 660.916 1.82936 -7.5773 0
M  V30 6974 N 665.145 1.52092 -0.413018 0
M  V30 6975 C 666.108 2.25706 0.398687 0
M  V30 6976 C 667.108 1.28221 0.970368 0
M  V30 6977 O 668.298 1.52131 0.848635 0
M  V30 6978 C 665.43 3.03029 1.5616 0
M  V30 6979 H 666.623 2.98888 -0.246131 0
M  V30 6980 H 664.176 1.5542 -0.165622 0
M  V30 6981 H 664.911 2.34205 2.24317 0
M  V30 6982 H 664.696 3.74606 1.15812 0
M  V30 6983 H 666.186 3.58857 2.13569 0
M  V30 6984 N 666.623 0.143563 1.56945 0
M  V30 6985 C 667.869 -0.50916 1.96304 0
M  V30 6986 C 668.202 -1.64741 1.0283 0
M  V30 6987 O 667.477 -1.94374 0.0700361 0
M  V30 6988 C 667.76 -1.0186 3.45393 0
M  V30 6989 C 667.613 0.117923 4.49645 0
M  V30 6990 C 668.932 -1.90151 3.96901 0
M  V30 6991 H 666.051 -0.183608 0.713763 0
M  V30 6992 H 668.693 0.224095 1.88674 0
M  V30 6993 H 666.843 -1.64345 3.52027 0
M  V30 6994 H 668.515 0.754145 4.55094 0
M  V30 6995 H 666.758 0.777568 4.26774 0
M  V30 6996 H 667.429 -0.280187 5.51288 0
M  V30 6997 H 669.905 -1.375 3.92725 0
M  V30 6998 H 668.781 -2.22707 5.0169 0
M  V30 6999 H 669.042 -2.83718 3.39052 0
M  V30 7000 N 668.101 -1.57061 -0.130224 0
M  V30 7001 C 669.011 -2.02802 -1.17934 0
M  V30 7002 C 670.027 -0.946378 -1.46013 0
M  V30 7003 O 671.203 -1.25708 -1.57351 0
M  V30 7004 C 668.268 -2.41368 -2.48882 0
M  V30 7005 C 667.329 -3.63561 -2.28301 0
M  V30 7006 C 666.562 -4.00279 -3.53005 0
M  V30 7007 O 666.785 -3.37463 -4.59864 0
M  V30 7008 O 665.719 -4.93441 -3.44673 0
M  V30 7009 H 669.545 -2.92394 -0.820958 0
M  V30 7010 H 667.13 -1.45475 -0.340197 0
M  V30 7011 H 669.012 -2.66958 -3.26054 0
M  V30 7012 H 667.687 -1.54926 -2.84217 0
M  V30 7013 H 666.594 -3.43136 -1.49025 0
M  V30 7014 H 667.927 -4.50673 -1.97875 0
M  V30 7015 N 669.579 0.400081 -1.52437 0
M  V30 7016 C 670.542 1.4707 -1.75793 0
M  V30 7017 C 671.542 1.48036 -0.627856 0
M  V30 7018 O 672.732 1.49401 -0.895817 0
M  V30 7019 C 669.864 2.86427 -1.84858 0
M  V30 7020 H 671.057 1.27649 -2.71377 0
M  V30 7021 H 668.61 0.631141 -1.42991 0
M  V30 7022 H 669.345 3.11207 -0.912194 0
M  V30 7023 H 669.13 2.87128 -2.6702 0
M  V30 7024 H 670.62 3.64023 -2.04638 0
M  V30 7025 N 671.057 1.43213 0.657864 0
M  V30 7026 C 672.02 1.47687 1.75275 0
M  V30 7027 C 673.02 0.362179 1.56668 0
M  V30 7028 O 674.21 0.623734 1.62651 0
M  V30 7029 C 671.342 1.32497 3.14098 0
M  V30 7030 H 672.535 2.4519 1.7269 0
M  V30 7031 H 670.088 1.2991 0.869087 0
M  V30 7032 H 670.823 0.359831 3.22298 0
M  V30 7033 H 670.608 2.13299 3.29008 0
M  V30 7034 H 672.098 1.38549 3.93946 0
M  V30 7035 N 672.536 -0.895792 1.29666 0
M  V30 7036 C 673.468 -2.00563 1.10937 0
M  V30 7037 C 674.481 -1.62705 0.055734 0
M  V30 7038 O 675.67 -1.7595 0.300656 0
M  V30 7039 C 672.77 -3.32262 0.667448 0
M  V30 7040 C 671.943 -3.98625 1.80047 0
M  V30 7041 C 671.002 -5.08617 1.3489 0
M  V30 7042 O 670.028 -5.30837 2.05429 0
M  V30 7043 N 671.23 -5.80076 0.221937 0
M  V30 7044 H 673.995 -2.17184 2.06522 0
M  V30 7045 H 671.556 -1.06822 1.21658 0
M  V30 7046 H 673.548 -4.03196 0.348586 0
M  V30 7047 H 672.118 -3.11985 -0.196055 0
M  V30 7048 H 671.338 -3.21005 2.28801 0
M  V30 7049 H 672.626 -4.39704 2.56003 0
M  V30 7050 H 672.024 -5.64514 -0.366084 0
M  V30 7051 H 670.581 -6.51789 -0.0375346 0
M  V30 7052 N 674.014 -1.12206 -1.10668 0
M  V30 7053 C 674.977 -0.790867 -2.15123 0
M  V30 7054 C 675.977 0.193618 -1.5963 0
M  V30 7055 O 677.167 -0.0318728 -1.74171 0
M  V30 7056 C 674.299 -0.174797 -3.40452 0
M  V30 7057 H 675.492 -1.7163 -2.45933 0
M  V30 7058 H 673.045 -0.924993 -1.2599 0
M  V30 7059 H 673.78 0.760478 -3.15257 0
M  V30 7060 H 673.565 -0.88358 -3.82015 0
M  V30 7061 H 675.055 0.0405162 -4.1758 0
M  V30 7062 N 675.492 1.28418 -0.913599 0
M  V30 7063 C 676.442 2.24928 -0.373042 0
M  V30 7064 C 677.426 1.52444 0.514753 0
M  V30 7065 O 678.618 1.73414 0.3545 0
M  V30 7066 C 675.747 3.41124 0.385896 0
M  V30 7067 C 674.833 4.20929 -0.51761 0
M  V30 7068 N 675.224 4.78777 -1.63113 0
M  V30 7069 C 673.522 4.44865 -0.317969 0
M  V30 7070 C 674.223 5.38822 -2.19193 0
M  V30 7071 N 673.199 5.22974 -1.48321 0
M  V30 7072 H 677.001 2.67224 -1.22346 0
M  V30 7073 H 674.515 1.43187 -0.766236 0
M  V30 7074 H 676.512 4.09347 0.789997 0
M  V30 7075 H 675.172 3.00362 1.23341 0
M  V30 7076 H 676.183 4.77148 -2.01372 0
M  V30 7077 H 672.86 4.14614 0.49004 0
M  V30 7078 H 674.25 5.94615 -3.12861 0
M  V30 7079 N 676.97 0.677563 1.42291 0
M  V30 7080 C 677.902 -0.0380218 2.29168 0
M  V30 7081 C 678.915 -0.762714 1.43828 0
M  V30 7082 O 680.104 -0.616413 1.67519 0
M  V30 7083 C 677.204 -1.07761 3.21311 0
M  V30 7084 C 676.377 -0.42618 4.35319 0
M  V30 7085 C 675.436 -1.36592 5.08162 0
M  V30 7086 O 674.462 -0.865174 5.62586 0
M  V30 7087 N 675.664 -2.69909 5.13935 0
M  V30 7088 H 678.429 0.707766 2.91223 0
M  V30 7089 H 675.99 0.52219 1.53247 0
M  V30 7090 H 677.982 -1.70761 3.6691 0
M  V30 7091 H 676.552 -1.72511 2.60689 0
M  V30 7092 H 675.772 0.383385 3.92331 0
M  V30 7093 H 677.06 0.0275277 5.08793 0
M  V30 7094 H 676.458 -3.13129 4.71134 0
M  V30 7095 H 675.015 -3.2815 5.6317 0
M  V30 7096 N 678.448 -1.51871 0.421078 0
M  V30 7097 C 679.381 -2.23851 -0.443369 0
M  V30 7098 C 680.359 -1.25142 -1.03818 0
M  V30 7099 O 681.543 -1.5423 -1.08377 0
M  V30 7100 C 678.67 -2.97637 -1.61648 0
M  V30 7101 C 677.716 -4.10873 -1.14391 0
M  V30 7102 S 678.549 -5.35408 -0.0992403 0
M  V30 7103 C 679.705 -6.12726 -1.27739 0
M  V30 7104 H 679.938 -2.96826 0.167786 0
M  V30 7105 H 677.471 -1.53027 0.205461 0
M  V30 7106 H 679.429 -3.40751 -2.28909 0
M  V30 7107 H 678.09 -2.24282 -2.199 0
M  V30 7108 H 677.283 -4.61718 -2.02069 0
M  V30 7109 H 676.885 -3.69937 -0.549775 0
M  V30 7110 H 679.177 -6.40827 -2.19881 0
M  V30 7111 H 680.12 -7.03461 -0.809239 0
M  V30 7112 H 680.528 -5.43968 -1.5086 0
M  V30 7113 N 679.926 -0.151884 -1.56866 0
M  V30 7114 C 680.889 0.771861 -2.15812 0
M  V30 7115 C 681.889 1.17181 -1.10115 0
M  V30 7116 O 683.079 1.09194 -1.35729 0
M  V30 7117 C 680.211 2.04806 -2.7252 0
M  V30 7118 H 681.404 0.259021 -2.98779 0
M  V30 7119 H 678.957 0.097588 -1.55995 0
M  V30 7120 H 679.692 2.60445 -1.93233 0
M  V30 7121 H 679.477 1.77044 -3.49854 0
M  V30 7122 H 680.967 2.70771 -3.1792 0
M  V30 7123 N 681.404 1.57128 0.121893 0
M  V30 7124 C 682.815 1.73902 0.679348 0
M  V30 7125 C 683.166 0.770135 1.80453 0
M  V30 7126 O 682.291 -0.0576083 2.16323 0
M  V30 7127 C 682.886 3.15328 1.2391 0
M  V30 7128 C 681.445 3.33618 1.74288 0
M  V30 7129 C 680.592 2.6978 0.641414 0
M  V30 7130 H 683.543 1.58359 -0.104 0
M  V30 7131 H 683.564 3.16718 2.10879 0
M  V30 7132 H 683.076 3.85821 0.419957 0
M  V30 7133 H 681.177 2.68162 2.58689 0
M  V30 7134 H 681.29 4.4176 1.85432 0
M  V30 7135 H 679.654 2.30935 1.0743 0
M  V30 7136 H 680.437 3.42895 -0.166707 0
M  V30 7137 N 682.882 -0.391992 1.52647 0
M  V30 7138 C 684.159 -1.15136 1.58123 0
M  V30 7139 C 684.539 -2.07786 0.372597 0
M  V30 7140 O 683.887 -2.19374 -0.639304 0
M  V30 7141 C 684.097 -1.91367 2.91856 0
M  V30 7142 C 685.445 -2.46833 3.45483 0
M  V30 7143 O 686.469 -2.01527 2.9371 0
M  V30 7144 O 685.328 -3.29587 4.3593 0
M  V30 7145 H 682.422 -0.526649 0.637629 0
M  V30 7146 H 684.968 -0.397386 1.64982 0
M  V30 7147 H 683.74 -1.23597 3.71268 0
M  V30 7148 H 683.363 -2.73732 2.88369 0
M  V30 7149 N 684.36 -1.4356 -0.65026 0
M  V30 7150 C 685.293 -1.434 -1.77515 0
M  V30 7151 C 686.271 -0.295082 -1.599 0
M  V30 7152 O 687.455 -0.489128 -1.82043 0
M  V30 7153 C 684.582 -1.2484 -3.14853 0
M  V30 7154 C 683.628 -2.42046 -3.51163 0
M  V30 7155 S 684.461 -4.04595 -3.50803 0
M  V30 7156 C 685.617 -3.88424 -4.90793 0
M  V30 7157 H 685.85 -2.38586 -1.77381 0
M  V30 7158 H 683.383 -1.30627 -0.823169 0
M  V30 7159 H 685.341 -1.14819 -3.94115 0
M  V30 7160 H 684.002 -0.311977 -3.12547 0
M  V30 7161 H 683.195 -2.24873 -4.51052 0
M  V30 7162 H 682.797 -2.48708 -2.79321 0
M  V30 7163 H 685.089 -3.50932 -5.79528 0
M  V30 7164 H 686.032 -4.88076 -5.13018 0
M  V30 7165 H 686.44 -3.20829 -4.64467 0
M  V30 7166 N 685.838 0.888903 -1.30139 0
M  V30 7167 C 687.085 1.64037 -1.18736 0
M  V30 7168 C 687.413 1.92771 0.258801 0
M  V30 7169 O 686.668 1.54427 1.20212 0
M  V30 7170 C 686.967 2.99041 -1.95728 0
M  V30 7171 C 686.633 2.89874 -3.45375 0
M  V30 7172 C 685.295 2.87082 -3.86183 0
M  V30 7173 C 687.647 2.78289 -4.40687 0
M  V30 7174 C 684.975 2.70536 -5.20603 0
M  V30 7175 C 687.327 2.63282 -5.75209 0
M  V30 7176 C 685.991 2.58861 -6.15262 0
M  V30 7177 H 685.261 0.600253 -0.434485 0
M  V30 7178 H 687.908 1.0338 -1.61198 0
M  V30 7179 H 686.213 3.63626 -1.45888 0
M  V30 7180 H 687.91 3.56139 -1.843 0
M  V30 7181 H 684.5 2.92856 -3.12943 0
M  V30 7182 H 688.684 2.79516 -4.10103 0
M  V30 7183 H 683.94 2.65526 -5.50732 0
M  V30 7184 H 688.114 2.5329 -6.48704 0
M  V30 7185 H 685.741 2.45799 -7.19366 0
M  V30 7186 N 687.317 1.12792 1.10072 0
M  V30 7187 C 688.547 0.907189 1.85617 0
M  V30 7188 C 688.955 -0.547181 1.81115 0
M  V30 7189 O 688.298 -1.39024 1.20075 0
M  V30 7190 C 688.36 1.30872 3.34832 0
M  V30 7191 C 688.024 2.77516 3.6309 0
M  V30 7192 C 689.021 3.75696 3.59373 0
M  V30 7193 C 686.706 3.14513 3.91646 0
M  V30 7194 C 688.7 5.08888 3.83812 0
M  V30 7195 C 686.387 4.47886 4.15742 0
M  V30 7196 C 687.385 5.44882 4.11816 0
M  V30 7197 O 687.073 6.7585 4.35295 0
M  V30 7198 H 686.805 0.323855 0.593375 0
M  V30 7199 H 689.359 1.50262 1.40038 0
M  V30 7200 H 687.589 0.656518 3.81086 0
M  V30 7201 H 689.278 1.06153 3.91773 0
M  V30 7202 H 690.044 3.48458 3.37345 0
M  V30 7203 H 685.923 2.39622 3.93831 0
M  V30 7204 H 689.467 5.84586 3.80663 0
M  V30 7205 H 685.364 4.74851 4.37249 0
M  V30 7206 H 686.132 6.81853 4.52791 0
M  V30 7207 N 688.795 -1.27931 0.920396 0
M  V30 7208 C 690.035 -1.96459 0.564198 0
M  V30 7209 C 690.399 -1.70802 -0.876967 0
M  V30 7210 O 691.6 -2.32956 -1.34107 0
M  V30 7211 C 689.871 -3.46583 0.872641 0
M  V30 7212 S 691.43 -4.34343 0.623859 0
M  V30 7213 H 688.248 -0.679735 0.208523 0
M  V30 7214 H 690.85 -1.55319 1.18727 0
M  V30 7215 H 689.554 -3.62753 1.91933 0
M  V30 7216 H 689.085 -3.92677 0.238479 0
M  V30 7217 H 691.1 -4.93449 -0.521744 0
M  V30 7218 N 690.273 -0.685099 -1.4193 0
M  V30 7219 C 691.206 0.0371639 -2.2817 0
M  V30 7220 C 692.184 0.798436 -1.41647 0
M  V30 7221 O 693.368 0.791428 -1.71081 0
M  V30 7222 C 690.495 1.05993 -3.21688 0
M  V30 7223 C 689.541 0.393043 -4.24685 0
M  V30 7224 S 690.374 -0.856921 -5.28599 0
M  V30 7225 C 691.53 0.164508 -6.25684 0
M  V30 7226 H 691.763 -0.694305 -2.89079 0
M  V30 7227 H 689.296 -0.474999 -1.46912 0
M  V30 7228 H 691.254 1.64489 -3.76103 0
M  V30 7229 H 689.915 1.7639 -2.59895 0
M  V30 7230 H 689.108 1.16513 -4.90348 0
M  V30 7231 H 688.71 -0.118589 -3.73812 0
M  V30 7232 H 691.002 1.02106 -6.69762 0
M  V30 7233 H 691.945 -0.457917 -7.06618 0
M  V30 7234 H 692.353 0.514596 -5.6215 0
M  V30 7235 N 691.751 1.51645 -0.429126 0
M  V30 7236 C 692.698 2.27542 0.386446 0
M  V30 7237 C 693.668 1.30786 1.02393 0
M  V30 7238 O 694.853 1.59678 1.0444 0
M  V30 7239 C 691.993 3.11457 1.48623 0
M  V30 7240 C 691.106 4.23196 0.867691 0
M  V30 7241 C 690.241 4.94435 1.94183 0
M  V30 7242 C 689.28 5.98108 1.30129 0
M  V30 7243 N 688.417 6.62786 2.31644 0
M  V30 7244 H 693.257 2.968 -0.267155 0
M  V30 7245 H 690.794 1.46397 -0.143591 0
M  V30 7246 H 692.752 3.58429 2.13506 0
M  V30 7247 H 691.382 2.44329 2.10957 0
M  V30 7248 H 690.434 3.80248 0.107373 0
M  V30 7249 H 691.746 4.97499 0.35997 0
M  V30 7250 H 690.9 5.44914 2.66747 0
M  V30 7251 H 689.639 4.19744 2.48326 0
M  V30 7252 H 688.644 5.4693 0.561082 0
M  V30 7253 H 689.869 6.74751 0.767303 0
M  V30 7254 H 687.815 5.90913 2.84883 0
M  V30 7255 H 687.732 7.32828 1.85741 0
M  V30 7256 H 689 7.17897 3.03717 0
M  V30 7257 N 693.229 0.160201 1.56784 0
M  V30 7258 C 694.159 -0.770264 2.2043 0
M  V30 7259 C 695.14 -1.24736 1.15651 0
M  V30 7260 O 696.325 -1.30253 1.44041 0
M  V30 7261 C 693.455 -2.00427 2.83631 0
M  V30 7262 C 692.409 -1.66345 3.94352 0
M  V30 7263 C 691.735 -2.97119 4.4455 0
M  V30 7264 C 693.035 -0.899972 5.14488 0
M  V30 7265 H 694.729 -0.239783 2.98438 0
M  V30 7266 H 692.275 -0.113891 1.43549 0
M  V30 7267 H 694.228 -2.66012 3.26827 0
M  V30 7268 H 692.952 -2.5587 2.02973 0
M  V30 7269 H 691.611 -1.03133 3.51794 0
M  V30 7270 H 691.259 -3.5058 3.60698 0
M  V30 7271 H 690.959 -2.75073 5.19238 0
M  V30 7272 H 692.483 -3.63753 4.90425 0
M  V30 7273 H 693.897 -1.45818 5.54446 0
M  V30 7274 H 692.294 -0.778968 5.95023 0
M  V30 7275 H 693.364 0.105827 4.84785 0
M  V30 7276 N 694.707 -1.5719 -0.113559 0
M  V30 7277 C 695.637 -2.03772 -1.14013 0
M  V30 7278 C 696.618 -0.923176 -1.42869 0
M  V30 7279 O 697.803 -1.19325 -1.53216 0
M  V30 7280 C 694.933 -2.44663 -2.4649 0
M  V30 7281 C 693.887 -3.59612 -2.32085 0
M  V30 7282 C 693.213 -3.8642 -3.69573 0
M  V30 7283 C 694.513 -4.91149 -1.7768 0
M  V30 7284 H 696.207 -2.89785 -0.752665 0
M  V30 7285 H 693.753 -1.39412 -0.360609 0
M  V30 7286 H 695.706 -2.75857 -3.18561 0
M  V30 7287 H 694.43 -1.55628 -2.87137 0
M  V30 7288 H 693.089 -3.28636 -1.62461 0
M  V30 7289 H 692.737 -2.94581 -4.07715 0
M  V30 7290 H 692.437 -4.63797 -3.60786 0
M  V30 7291 H 693.961 -4.2007 -4.4314 0
M  V30 7292 H 695.375 -5.20843 -2.39574 0
M  V30 7293 H 693.772 -5.72562 -1.79701 0
M  V30 7294 H 694.842 -4.79301 -0.734776 0
M  V30 7295 N 696.185 0.383891 -1.52853 0
M  V30 7296 C 697.095 1.49343 -1.80925 0
M  V30 7297 C 698.111 1.59458 -0.696348 0
M  V30 7298 O 699.287 1.75698 -0.984481 0
M  V30 7299 C 696.352 2.84819 -1.97684 0
M  V30 7300 C 695.413 2.84382 -3.21598 0
M  V30 7301 C 694.646 4.13397 -3.37548 0
M  V30 7302 O 694.869 5.08619 -2.58192 0
M  V30 7303 O 693.803 4.20325 -4.30826 0
M  V30 7304 H 697.629 1.2855 -2.75152 0
M  V30 7305 H 695.214 0.572229 -1.38007 0
M  V30 7306 H 697.096 3.65125 -2.10385 0
M  V30 7307 H 695.771 3.05627 -1.06647 0
M  V30 7308 H 694.678 2.0284 -3.14336 0
M  V30 7309 H 696.011 2.68526 -4.12498 0
M  V30 7310 N 697.663 1.43903 0.642637 0
M  V30 7311 C 698.573 1.52349 1.78401 0
M  V30 7312 C 699.589 0.409869 1.69104 0
M  V30 7313 O 700.765 0.665548 1.90085 0
M  V30 7314 C 697.83 1.45408 3.14734 0
M  V30 7315 C 696.891 2.67528 3.35749 0
M  V30 7316 C 696.124 2.60909 4.65577 0
M  V30 7317 O 696.347 1.6627 5.45628 0
M  V30 7318 O 695.281 3.5158 4.88544 0
M  V30 7319 H 699.107 2.48752 1.7423 0
M  V30 7320 H 696.692 1.26021 0.802439 0
M  V30 7321 H 698.574 1.44019 3.96026 0
M  V30 7322 H 697.249 0.521437 3.19473 0
M  V30 7323 H 696.156 2.74487 2.5418 0
M  V30 7324 H 697.489 3.598 3.35864 0
M  V30 7325 N 699.141 -0.881989 1.30609 0
M  V30 7326 C 700.369 -1.66711 1.22536 0
M  V30 7327 C 700.784 -1.87614 -0.2113 0
M  V30 7328 O 700.141 -1.42576 -1.13923 0
M  V30 7329 C 700.192 -3.04182 1.95335 0
M  V30 7330 O 699.913 -2.8422 3.33393 0
M  V30 7331 C 701.414 -3.98617 1.93956 0
M  V30 7332 H 698.634 -0.520124 0.423925 0
M  V30 7333 H 701.178 -1.10174 1.72285 0
M  V30 7334 H 699.333 -3.57442 1.49378 0
M  V30 7335 H 699.747 -3.71452 3.70302 0
M  V30 7336 H 701.221 -4.92433 2.49426 0
M  V30 7337 H 701.698 -4.29473 0.919198 0
M  V30 7338 H 702.304 -3.51292 2.39738 0
M  V30 7339 N 700.619 -1.13374 -1.09472 0
M  V30 7340 C 701.867 -0.893422 -1.8128 0
M  V30 7341 C 702.188 0.582029 -1.86111 0
M  V30 7342 O 701.458 1.42305 -1.34633 0
M  V30 7343 H 700.038 -0.327543 -0.67136 0
M  V30 7344 H 702.7 -1.43018 -1.32408 0
M  V30 7345 H 701.796 -1.28374 -2.84476 0
M  V30 7346 N 702.098 1.27442 -0.927168 0
M  V30 7347 C 703.347 1.93679 -0.563146 0
M  V30 7348 C 703.66 1.73673 0.899837 0
M  V30 7349 O 704.866 2.34247 1.37262 0
M  V30 7350 C 703.322 3.46961 -0.95636 0
M  V30 7351 C 702.93 3.75724 -2.43999 0
M  V30 7352 C 704.674 4.19282 -0.663565 0
M  V30 7353 C 702.581 5.22378 -2.77263 0
M  V30 7354 H 701.511 0.725059 -0.206894 0
M  V30 7355 H 704.162 1.44743 -1.12791 0
M  V30 7356 H 702.544 3.94703 -0.320254 0
M  V30 7357 H 703.718 3.38741 -3.12396 0
M  V30 7358 H 702.033 3.16605 -2.70463 0
M  V30 7359 H 704.63 5.27265 -0.888596 0
M  V30 7360 H 704.973 4.14382 0.399198 0
M  V30 7361 H 705.506 3.7736 -1.25875 0
M  V30 7362 H 702.245 5.32367 -3.82446 0
M  V30 7363 H 701.765 5.6051 -2.13516 0
M  V30 7364 H 703.444 5.9025 -2.64979 0
M  V30 7365 N 703.576 0.692616 1.41565 0
M  V30 7366 C 704.816 0.226453 2.03142 0
M  V30 7367 C 705.18 -1.1512 1.5366 0
M  V30 7368 O 706.381 -1.71305 2.07143 0
M  V30 7369 C 704.652 0.27855 3.56313 0
M  V30 7370 S 706.211 -0.114001 4.38652 0
M  V30 7371 H 703.029 0.0914767 0.705091 0
M  V30 7372 H 705.631 0.909737 1.73043 0
M  V30 7373 H 704.335 1.28325 3.89821 0
M  V30 7374 H 703.866 -0.423981 3.91109 0
M  V30 7375 H 705.881 -1.34256 4.77692 0
M  V30 7376 N 705.054 -1.51416 0.437162 0
M  V30 7377 C 706.3 -2.02386 -0.129555 0
M  V30 7378 C 706.633 -1.32071 -1.42376 0
M  V30 7379 O 705.908 -0.43559 -1.8956 0
M  V30 7380 C 706.191 -3.5841 -0.348487 0
M  V30 7381 C 706.044 -4.39341 0.964352 0
M  V30 7382 C 707.363 -4.25654 -1.11834 0
M  V30 7383 H 704.482 -0.735587 -0.0456109 0
M  V30 7384 H 707.124 -1.81055 0.576124 0
M  V30 7385 H 705.274 -3.76716 -0.949592 0
M  V30 7386 H 706.946 -4.32685 1.59942 0
M  V30 7387 H 705.189 -4.04432 1.56898 0
M  V30 7388 H 705.86 -5.4667 0.765212 0
M  V30 7389 H 708.336 -4.11617 -0.609165 0
M  V30 7390 H 707.212 -5.34704 -1.24029 0
M  V30 7391 H 707.473 -3.86502 -2.14636 0
M  V30 7392 N 706.532 -0.168513 -1.56696 0
M  V30 7393 C 707.778 0.477865 -1.9709 0
M  V30 7394 C 708.111 1.63084 -1.05438 0
M  V30 7395 O 707.386 1.94238 -0.10095 0
M  V30 7396 C 707.669 0.963521 -3.4697 0
M  V30 7397 C 707.522 -0.189443 -4.49401 0
M  V30 7398 C 708.841 1.83813 -3.99876 0
M  V30 7399 H 705.96 0.172229 -0.716593 0
M  V30 7400 H 708.602 -0.254083 -1.88293 0
M  V30 7401 H 706.752 1.58724 -3.54597 0
M  V30 7402 H 708.424 -0.826451 -4.53836 0
M  V30 7403 H 706.667 -0.845366 -4.25483 0
M  V30 7404 H 707.338 0.192446 -5.51664 0
M  V30 7405 H 709.814 1.31235 -3.94863 0
M  V30 7406 H 708.69 2.14697 -5.0517 0
M  V30 7407 H 708.951 2.78289 -3.43523 0
M  V30 7408 N 708.01 1.57248 0.105221 0
M  V30 7409 C 709.421 1.74612 0.660865 0
M  V30 7410 C 709.772 0.789231 1.79626 0
M  V30 7411 O 708.897 -0.0346611 2.16372 0
M  V30 7412 C 709.492 3.16624 1.20559 0
M  V30 7413 C 708.051 3.35447 1.7074 0
M  V30 7414 C 707.198 2.70445 0.612764 0
M  V30 7415 H 710.149 1.5824 -0.12079 0
M  V30 7416 H 710.17 3.18937 2.07508 0
M  V30 7417 H 709.682 3.86245 0.379012 0
M  V30 7418 H 707.783 2.7089 2.5583 0
M  V30 7419 H 707.896 4.43702 1.80736 0
M  V30 7420 H 706.26 2.32061 1.04975 0
M  V30 7421 H 707.043 3.42699 -0.203066 0
M  V30 7422 N 709.488 -0.375779 1.53054 0
M  V30 7423 C 710.736 -1.11727 1.68409 0
M  V30 7424 C 711.057 -1.90127 0.43323 0
M  V30 7425 O 710.327 -1.87945 -0.552595 0
M  V30 7426 H 708.907 -0.415451 0.620813 0
M  V30 7427 H 711.569 -0.424869 1.90213 0
M  V30 7428 H 710.665 -1.8128 2.54055 0
M  V30 7429 N 710.966 -1.44241 -0.634997 0
M  V30 7430 C 712.191 -1.50516 -1.42687 0
M  V30 7431 C 712.616 -0.129864 -1.87651 0
M  V30 7432 O 711.974 0.880164 -1.58502 0
M  V30 7433 C 712.022 -2.4714 -2.62591 0
M  V30 7434 O 711.126 -1.97025 -3.62291 0
M  V30 7435 H 710.467 -0.50841 -0.427101 0
M  V30 7436 H 712.997 -1.89337 -0.775408 0
M  V30 7437 H 713.007 -2.65048 -3.10183 0
M  V30 7438 H 711.682 -3.47039 -2.29209 0
M  V30 7439 H 710.259 -1.88866 -3.21534 0
M  V30 7440 N 712.444 0.87505 -1.31075 0
M  V30 7441 C 713.692 1.62447 -1.20231 0
M  V30 7442 C 714.013 1.93506 0.240888 0
M  V30 7443 O 713.283 1.57847 1.16022 0
M  V30 7444 H 711.863 0.602207 -0.441991 0
M  V30 7445 H 714.525 1.04788 -1.64334 0
M  V30 7446 H 713.621 2.57031 -1.77036 0
M  V30 7447 N 713.922 1.13953 1.08869 0
M  V30 7448 C 715.169 0.90481 1.81161 0
M  V30 7449 C 715.497 -0.568824 1.85996 0
M  V30 7450 O 714.752 -1.43723 1.32823 0
M  V30 7451 C 715.051 1.44495 3.26888 0
M  V30 7452 C 714.717 2.93641 3.42178 0
M  V30 7453 C 713.379 3.34361 3.46059 0
M  V30 7454 C 715.731 3.89568 3.46246 0
M  V30 7455 C 713.059 4.69681 3.51592 0
M  V30 7456 C 715.411 5.2474 3.53314 0
M  V30 7457 C 714.075 5.64979 3.55465 0
M  V30 7458 H 713.345 0.331094 0.662916 0
M  V30 7459 H 715.992 1.42242 1.28217 0
M  V30 7460 H 714.297 0.848169 3.82509 0
M  V30 7461 H 715.994 1.23934 3.81368 0
M  V30 7462 H 712.584 2.61156 3.39846 0
M  V30 7463 H 716.768 3.59192 3.42483 0
M  V30 7464 H 712.024 5.00224 3.51547 0
M  V30 7465 H 716.198 5.98882 3.55406 0
M  V30 7466 H 713.825 6.69821 3.59505 0
M  V30 7467 N 715.4 -1.26948 0.933913 0
M  V30 7468 C 716.648 -1.93704 0.576484 0
M  V30 7469 C 716.969 -1.73702 -0.886145 0
M  V30 7470 O 716.239 -1.08838 -1.62884 0
M  V30 7471 H 714.819 -0.716812 0.210214 0
M  V30 7472 H 717.481 -1.54534 1.18766 0
M  V30 7473 H 716.577 -3.01987 0.788055 0
M  V30 7474 N 716.879 -0.700114 -1.41195 0
M  V30 7475 C 717.811 0.00155823 -2.292 0
M  V30 7476 C 718.824 0.739736 -1.45023 0
M  V30 7477 O 720.013 0.589684 -1.68478 0
M  V30 7478 C 717.113 1.02635 -3.22985 0
M  V30 7479 C 716.286 0.356871 -4.35942 0
M  V30 7480 C 715.345 1.28491 -5.10271 0
M  V30 7481 O 714.371 0.775562 -5.63892 0
M  V30 7482 N 715.573 2.61699 -5.18164 0
M  V30 7483 H 718.338 -0.754008 -2.9006 0
M  V30 7484 H 715.899 -0.546504 -1.52397 0
M  V30 7485 H 717.891 1.64902 -3.6958 0
M  V30 7486 H 716.461 1.68341 -2.63401 0
M  V30 7487 H 715.681 -0.445753 -3.91672 0
M  V30 7488 H 716.969 -0.108469 -5.08684 0
M  V30 7489 H 716.367 3.05594 -4.76056 0
M  V30 7490 H 714.924 3.19149 -5.6832 0
M  V30 7491 N 718.357 1.51182 -0.445186 0
M  V30 7492 C 719.773 1.59299 -0.0978954 0
M  V30 7493 C 719.973 1.4555 1.39346 0
M  V30 7494 O 719.029 1.30073 2.16419 0
M  V30 7495 C 720.342 2.94133 -0.625005 0
M  V30 7496 C 721.89 3.07463 -0.586137 0
M  V30 7497 C 722.365 4.44832 -1.09035 0
M  V30 7498 N 723.856 4.51173 -1.04867 0
M  V30 7499 C 724.591 5.55804 -1.40959 0
M  V30 7500 N 724.087 6.67816 -1.84375 0
M  V30 7501 N 725.88 5.46205 -1.32726 0
M  V30 7502 H 718.031 1.58363 -1.41544 0
M  V30 7503 H 720.294 0.746946 -0.58376 0
M  V30 7504 H 720 3.09589 -1.66876 0
M  V30 7505 H 719.874 3.77161 -0.0542262 0
M  V30 7506 H 722.261 2.9167 0.448646 0
M  V30 7507 H 722.342 2.26255 -1.19341 0
M  V30 7508 H 721.986 4.61372 -2.12364 0
M  V30 7509 H 721.916 5.24591 -0.459539 0
M  V30 7510 H 724.407 3.70783 -0.729932 0
M  V30 7511 H 724.72 7.43683 -2.10131 0
M  V30 7512 H 723.065 6.69003 -1.88308 0
M  V30 7513 H 726.256 4.57583 -0.986678 0
M  V30 7514 H 726.429 6.27634 -1.61182 0
M  V30 7515 N 719.835 0.176821 1.56605 0
M  V30 7516 C 720.745 -0.763682 2.21822 0
M  V30 7517 C 721.761 -1.24889 1.21156 0
M  V30 7518 O 722.937 -1.29987 1.53836 0
M  V30 7519 C 720.002 -1.97352 2.8505 0
M  V30 7520 C 719.063 -1.53466 4.00932 0
M  V30 7521 C 718.296 -2.68682 4.61135 0
M  V30 7522 O 718.519 -3.85694 4.20234 0
M  V30 7523 O 717.453 -2.42442 5.50913 0
M  V30 7524 H 721.279 -0.238363 3.02763 0
M  V30 7525 H 718.864 -0.0516331 1.49311 0
M  V30 7526 H 720.746 -2.68096 3.25119 0
M  V30 7527 H 719.421 -2.48779 2.07101 0
M  V30 7528 H 718.328 -0.796551 3.65521 0
M  V30 7529 H 719.661 -1.06724 4.8049 0
M  V30 7530 N 721.313 -1.57302 -0.09688 0
M  V30 7531 C 722.561 -1.8563 -0.799117 0
M  V30 7532 C 722.882 -0.765263 -1.79356 0
M  V30 7533 O 722.152 0.208657 -1.94786 0
M  V30 7534 H 720.732 -0.684937 -0.298111 0
M  V30 7535 H 723.394 -1.9474 -0.0789341 0
M  V30 7536 H 722.49 -2.82305 -1.3308 0
M  V30 7537 N 722.791 0.367657 -1.53252 0
M  V30 7538 C 724.019 1.13119 -1.73239 0
M  V30 7539 C 724.434 1.831 -0.460404 0
M  V30 7540 O 723.791 1.73483 0.566557 0
M  V30 7541 C 723.842 2.16308 -2.89643 0
M  V30 7542 O 723.563 1.49175 -4.1192 0
M  V30 7543 C 725.064 3.05224 -3.21486 0
M  V30 7544 H 722.284 0.338318 -0.579467 0
M  V30 7545 H 724.828 0.42721 -1.99988 0
M  V30 7546 H 722.983 2.82307 -2.65295 0
M  V30 7547 H 723.397 2.17912 -4.7709 0
M  V30 7548 H 724.871 3.73613 -4.06346 0
M  V30 7549 H 725.348 3.69919 -2.36763 0
M  V30 7550 H 725.954 2.44843 -3.47753 0
M  V30 7551 N 724.269 1.44576 0.627338 0
M  V30 7552 C 725.499 1.50829 1.41189 0
M  V30 7553 C 725.907 0.133083 1.88731 0
M  V30 7554 O 725.25 -0.87199 1.61685 0
M  V30 7555 C 725.312 2.41449 2.66351 0
M  V30 7556 C 724.976 3.88549 2.40579 0
M  V30 7557 C 725.973 4.78981 2.0217 0
M  V30 7558 C 723.658 4.33287 2.54102 0
M  V30 7559 C 725.652 6.12153 1.77618 0
M  V30 7560 C 723.339 5.66505 2.29163 0
M  V30 7561 C 724.337 6.55756 1.9098 0
M  V30 7562 O 724.025 7.86506 1.66321 0
M  V30 7563 H 723.757 0.513797 0.439304 0
M  V30 7564 H 726.311 1.90256 0.774059 0
M  V30 7565 H 724.541 1.96955 3.32784 0
M  V30 7566 H 726.23 2.38608 3.28361 0
M  V30 7567 H 726.996 4.45689 1.91277 0
M  V30 7568 H 722.875 3.64074 2.82792 0
M  V30 7569 H 726.419 6.81776 1.47739 0
M  V30 7570 H 722.316 5.99358 2.39668 0
M  V30 7571 H 723.084 7.98341 1.80536 0
M  V30 7572 N 725.747 -0.868086 1.31537 0
M  V30 7573 C 726.697 -1.96321 1.1594 0
M  V30 7574 C 727.681 -1.60748 0.0698962 0
M  V30 7575 O 728.873 -1.74524 0.295011 0
M  V30 7576 C 726.002 -3.32073 0.870789 0
M  V30 7577 C 725.088 -3.73907 2.00136 0
M  V30 7578 N 725.479 -3.87685 3.24859 0
M  V30 7579 C 723.777 -4.03433 1.90152 0
M  V30 7580 C 724.478 -4.23454 3.98825 0
M  V30 7581 N 723.454 -4.34242 3.27009 0
M  V30 7582 H 727.256 -2.05088 2.10514 0
M  V30 7583 H 724.77 -1.059 1.23122 0
M  V30 7584 H 726.767 -4.10279 0.740034 0
M  V30 7585 H 725.427 -3.24631 -0.0667068 0
M  V30 7586 H 726.438 -3.72363 3.59953 0
M  V30 7587 H 723.115 -4.0437 1.03879 0
M  V30 7588 H 724.505 -4.41696 5.06314 0
M  V30 7589 N 727.225 -1.14528 -1.08264 0
M  V30 7590 C 728.472 -0.914405 -1.80679 0
M  V30 7591 C 728.8 0.558952 -1.86295 0
M  V30 7592 O 728.055 1.43017 -1.33584 0
M  V30 7593 C 728.354 -1.46226 -3.26117 0
M  V30 7594 C 728.02 -2.95451 -3.40616 0
M  V30 7595 C 726.682 -3.36191 -3.4428 0
M  V30 7596 C 729.034 -3.91399 -3.44175 0
M  V30 7597 C 726.362 -4.71539 -3.49096 0
M  V30 7598 C 728.714 -5.26606 -3.50526 0
M  V30 7599 C 727.378 -5.66856 -3.52464 0
M  V30 7600 H 726.648 -0.334604 -0.661151 0
M  V30 7601 H 729.295 -1.4292 -1.27461 0
M  V30 7602 H 727.6 -0.868442 -3.82054 0
M  V30 7603 H 729.297 -1.25955 -3.80705 0
M  V30 7604 H 725.887 -2.62955 -3.38456 0
M  V30 7605 H 730.071 -3.61004 -3.40573 0
M  V30 7606 H 725.327 -5.02082 -3.4889 0
M  V30 7607 H 729.501 -6.00758 -3.52225 0
M  V30 7608 H 727.128 -6.71718 -3.55948 0
M  V30 7609 N 728.703 1.26451 -0.940633 0
M  V30 7610 C 730.119 1.4608 -0.642859 0
M  V30 7611 C 730.319 1.84765 0.803998 0
M  V30 7612 O 729.375 1.96902 1.58069 0
M  V30 7613 C 730.688 2.54359 -1.60381 0
M  V30 7614 C 732.236 2.6821 -1.61345 0
M  V30 7615 C 732.711 3.79659 -2.56169 0
M  V30 7616 N 734.202 3.87051 -2.54452 0
M  V30 7617 C 734.937 4.72739 -3.24507 0
M  V30 7618 N 734.433 5.6282 -4.03987 0
M  V30 7619 N 736.226 4.66581 -3.13462 0
M  V30 7620 H 728.377 0.996289 -1.87584 0
M  V30 7621 H 730.64 0.498921 -0.80609 0
M  V30 7622 H 730.346 2.32758 -2.6366 0
M  V30 7623 H 730.22 3.52005 -1.35545 0
M  V30 7624 H 732.607 2.89184 -0.587913 0
M  V30 7625 H 732.688 1.7101 -1.90235 0
M  V30 7626 H 732.332 3.59438 -3.58841 0
M  V30 7627 H 732.262 4.76315 -2.2457 0
M  V30 7628 H 734.753 3.22649 -1.96739 0
M  V30 7629 H 735.066 6.25095 -4.54396 0
M  V30 7630 H 733.411 5.62574 -4.08088 0
M  V30 7631 H 736.602 3.9521 -2.50852 0
M  V30 7632 H 736.775 5.33141 -3.68327 0
M  V30 7633 N 730.181 0.707592 1.40822 0
M  V30 7634 C 731.114 -0.000859377 2.282 0
M  V30 7635 C 732.092 -0.7758 1.42899 0
M  V30 7636 O 733.276 -0.76411 1.72318 0
M  V30 7637 C 730.403 -1.00861 3.23334 0
M  V30 7638 C 729.449 -0.32543 4.25257 0
M  V30 7639 S 730.282 0.940908 5.27169 0
M  V30 7640 C 731.438 -0.0649459 6.25866 0
M  V30 7641 H 731.671 0.740207 2.87938 0
M  V30 7642 H 729.204 0.498311 1.46138 0
M  V30 7643 H 731.162 -1.58485 3.78672 0
M  V30 7644 H 729.823 -1.72233 2.62668 0
M  V30 7645 H 729.016 -1.08697 4.92139 0
M  V30 7646 H 728.618 0.178044 3.73576 0
M  V30 7647 H 730.91 -0.914377 6.71301 0
M  V30 7648 H 731.853 0.570276 7.058 0
M  V30 7649 H 732.261 -0.425098 5.62897 0
M  V30 7650 N 731.66 -1.50943 0.453197 0
M  V30 7651 C 732.888 -2.06628 -0.106135 0
M  V30 7652 C 733.303 -1.31901 -1.35084 0
M  V30 7653 O 732.66 -0.383074 -1.78434 0
M  V30 7654 C 732.711 -3.5914 -0.412368 0
M  V30 7655 O 732.432 -4.31047 0.782948 0
M  V30 7656 C 733.933 -4.31391 -1.02064 0
M  V30 7657 H 731.153 -0.670999 -0.000885896 0
M  V30 7658 H 733.697 -1.94331 0.63684 0
M  V30 7659 H 731.852 -3.71299 -1.10526 0
M  V30 7660 H 732.266 -5.21948 0.516736 0
M  V30 7661 H 733.74 -5.39135 -1.1848 0
M  V30 7662 H 734.217 -3.90714 -2.00598 0
M  V30 7663 H 734.823 -4.23716 -0.366664 0
M  V30 7664 N 733.138 -0.185124 -1.56509 0
M  V30 7665 C 734.387 0.456421 -1.96468 0
M  V30 7666 C 734.7 1.63448 -1.07444 0
M  V30 7667 O 735.906 2.34316 -1.37143 0
M  V30 7668 C 734.362 0.863404 -3.4939 0
M  V30 7669 C 733.97 -0.289815 -4.47062 0
M  V30 7670 C 735.714 1.47259 -3.98139 0
M  V30 7671 C 733.621 0.137571 -5.9124 0
M  V30 7672 H 732.551 0.17429 -0.733579 0
M  V30 7673 H 735.202 -0.275554 -1.81419 0
M  V30 7674 H 733.584 1.65176 -3.59907 0
M  V30 7675 H 734.758 -1.06728 -4.4827 0
M  V30 7676 H 733.073 -0.809851 -4.08449 0
M  V30 7677 H 735.67 1.80463 -5.03326 0
M  V30 7678 H 736.013 2.3755 -3.41871 0
M  V30 7679 H 736.546 0.748405 -3.90696 0
M  V30 7680 H 733.285 -0.730907 -6.51412 0
M  V30 7681 H 732.805 0.8801 -5.93308 0
M  V30 7682 H 734.484 0.576771 -6.44424 0
M  V30 7683 N 734.616 1.57351 0.0885366 0
M  V30 7684 C 735.546 2.05561 1.10757 0
M  V30 7685 C 736.527 0.945789 1.41382 0
M  V30 7686 O 737.712 1.21747 1.51299 0
M  V30 7687 C 734.842 2.48554 2.42566 0
M  V30 7688 C 733.796 3.63259 2.26334 0
M  V30 7689 C 733.122 3.9225 3.63378 0
M  V30 7690 C 734.422 4.93913 1.69844 0
M  V30 7691 H 736.116 2.90946 0.706468 0
M  V30 7692 H 733.662 1.39968 0.338385 0
M  V30 7693 H 735.615 2.8089 3.14132 0
M  V30 7694 H 734.339 1.60176 2.84625 0
M  V30 7695 H 732.998 3.31179 1.57213 0
M  V30 7696 H 732.646 3.0103 4.02976 0
M  V30 7697 H 732.346 4.69478 3.53362 0
M  V30 7698 H 733.87 4.27067 4.36401 0
M  V30 7699 H 735.284 5.24588 2.31258 0
M  V30 7700 H 733.681 5.75349 1.70569 0
M  V30 7701 H 734.751 4.80409 0.65843 0
M  V30 7702 N 736.094 -0.359525 1.53444 0
M  V30 7703 C 737.505 -0.936009 1.61542 0
M  V30 7704 C 737.856 -1.90069 0.486633 0
M  V30 7705 O 736.981 -2.12929 -0.386047 0
M  V30 7706 C 737.576 -1.70441 2.92806 0
M  V30 7707 C 736.135 -2.23015 3.03218 0
M  V30 7708 C 735.282 -1.04438 2.56881 0
M  V30 7709 H 738.233 -0.138134 1.58098 0
M  V30 7710 H 738.254 -2.56609 2.80948 0
M  V30 7711 H 737.766 -1.00205 3.74941 0
M  V30 7712 H 735.867 -2.96475 2.25684 0
M  V30 7713 H 735.98 -2.50481 4.08407 0
M  V30 7714 H 734.344 -1.41314 2.11902 0
M  V30 7715 H 735.127 -0.356905 3.4144 0
M  V30 7716 N 737.572 -1.44907 -0.619662 0
M  V30 7717 C 738.983 -1.42905 -1.20146 0
M  V30 7718 C 739.334 -0.150341 -1.95623 0
M  V30 7719 O 738.459 0.748732 -2.03034 0
M  V30 7720 C 739.054 -2.58889 -2.18545 0
M  V30 7721 C 737.613 -2.60046 -2.72127 0
M  V30 7722 C 736.76 -2.3493 -1.4732 0
M  V30 7723 H 739.711 -1.53321 -0.409666 0
M  V30 7724 H 739.732 -2.32298 -3.0136 0
M  V30 7725 H 739.244 -3.51941 -1.63583 0
M  V30 7726 H 737.345 -1.70968 -3.3106 0
M  V30 7727 H 737.458 -3.58893 -3.17384 0
M  V30 7728 H 735.822 -1.84248 -1.75855 0
M  V30 7729 H 736.605 -3.3011 -0.942442 0
M  V30 7730 N 739.05 0.861098 -1.31996 0
M  V30 7731 C 740.296 1.61721 -1.22369 0
M  V30 7732 C 740.629 1.93 0.215587 0
M  V30 7733 O 739.904 1.56789 1.15098 0
M  V30 7734 C 740.187 2.9417 -2.07691 0
M  V30 7735 C 740.04 2.69714 -3.59965 0
M  V30 7736 C 741.359 3.95372 -1.93312 0
M  V30 7737 H 738.478 0.586822 -0.44588 0
M  V30 7738 H 741.12 0.994788 -1.61876 0
M  V30 7739 H 739.27 3.47292 -1.74128 0
M  V30 7740 H 740.942 2.23196 -4.03709 0
M  V30 7741 H 739.185 2.03789 -3.82952 0
M  V30 7742 H 739.856 3.63996 -4.14983 0
M  V30 7743 H 742.332 3.51487 -2.22701 0
M  V30 7744 H 741.208 4.85916 -2.55298 0
M  V30 7745 H 741.469 4.32865 -0.898922 0
M  V30 7746 N 740.528 1.15101 1.07655 0
M  V30 7747 C 741.438 0.858869 2.18313 0
M  V30 7748 C 742.454 -0.163641 1.73229 0
M  V30 7749 O 743.63 0.00969541 2.01398 0
M  V30 7750 C 740.695 0.34893 3.4494 0
M  V30 7751 C 739.756 1.43495 4.04608 0
M  V30 7752 C 738.989 0.949253 5.2519 0
M  V30 7753 O 739.212 -0.20636 5.70027 0
M  V30 7754 O 738.146 1.73161 5.76454 0
M  V30 7755 H 741.972 1.78386 2.45788 0
M  V30 7756 H 739.557 0.929876 1.16934 0
M  V30 7757 H 741.439 0.070851 4.2134 0
M  V30 7758 H 740.114 -0.548237 3.19024 0
M  V30 7759 H 739.021 1.7666 3.29761 0
M  V30 7760 H 740.354 2.30692 4.3479 0
M  V30 7761 N 742.006 -1.2595 0.947325 0
M  V30 7762 C 742.953 -2.26159 0.460497 0
M  V30 7763 C 743.923 -1.58919 -0.483125 0
M  V30 7764 O 745.108 -1.86603 -0.397983 0
M  V30 7765 C 742.248 -3.441 -0.26247 0
M  V30 7766 C 741.361 -4.25999 0.717539 0
M  V30 7767 C 740.496 -5.31193 -0.0272486 0
M  V30 7768 C 739.535 -6.04774 0.944177 0
M  V30 7769 N 738.672 -7.01721 0.230741 0
M  V30 7770 H 743.512 -2.67173 1.31995 0
M  V30 7771 H 741.049 -1.31358 0.662088 0
M  V30 7772 H 743.007 -4.11317 -0.698137 0
M  V30 7773 H 741.637 -3.03983 -1.08602 0
M  V30 7774 H 740.689 -3.58513 1.27171 0
M  V30 7775 H 742.001 -4.76981 1.45913 0
M  V30 7776 H 741.155 -6.04451 -0.521903 0
M  V30 7777 H 739.894 -4.81066 -0.801682 0
M  V30 7778 H 738.899 -5.30338 1.4499 0
M  V30 7779 H 740.124 -6.56991 1.71872 0
M  V30 7780 H 738.07 -6.53895 -0.525088 0
M  V30 7781 H 737.987 -7.50484 0.911556 0
M  V30 7782 H 739.255 -7.79122 -0.242616 0
M  V30 7783 N 743.484 -0.715051 -1.40445 0
M  V30 7784 C 744.414 -0.0768699 -2.33373 0
M  V30 7785 C 745.395 0.746109 -1.52863 0
M  V30 7786 O 746.58 0.695142 -1.81332 0
M  V30 7787 C 743.71 0.846014 -3.36838 0
M  V30 7788 C 742.664 0.128694 -4.27806 0
M  V30 7789 C 741.99 1.16726 -5.21804 0
M  V30 7790 C 743.29 -1.01679 -5.12307 0
M  V30 7791 H 744.984 -0.853061 -2.8699 0
M  V30 7792 H 742.53 -0.41167 -1.3799 0
M  V30 7793 H 744.483 1.30185 -4.00786 0
M  V30 7794 H 743.207 1.6541 -2.81615 0
M  V30 7795 H 741.866 -0.307314 -3.6531 0
M  V30 7796 H 741.514 1.96838 -4.62887 0
M  V30 7797 H 741.214 0.692188 -5.83509 0
M  V30 7798 H 742.738 1.62321 -5.88629 0
M  V30 7799 H 744.152 -0.640337 -5.69713 0
M  V30 7800 H 742.549 -1.4202 -5.83053 0
M  V30 7801 H 743.619 -1.84769 -4.48317 0
M  V30 7802 N 744.962 1.50701 -0.461195 0
M  V30 7803 C 745.909 2.2831 0.338094 0
M  V30 7804 C 746.879 1.32928 0.995957 0
M  V30 7805 O 748.064 1.61857 1.0103 0
M  V30 7806 C 745.204 3.14539 1.41983 0
M  V30 7807 C 744.317 4.24942 0.77773 0
M  V30 7808 C 743.452 4.98443 1.83652 0
M  V30 7809 C 742.491 6.00733 1.17413 0
M  V30 7810 N 741.628 6.6755 2.17533 0
M  V30 7811 H 746.468 2.96167 -0.330051 0
M  V30 7812 H 744.005 1.4606 -0.174611 0
M  V30 7813 H 745.963 3.62877 2.05855 0
M  V30 7814 H 744.593 2.48749 2.05727 0
M  V30 7815 H 743.645 3.80391 0.0266924 0
M  V30 7816 H 744.957 4.98151 0.254362 0
M  V30 7817 H 744.111 5.50449 2.55129 0
M  V30 7818 H 742.85 4.24917 2.39367 0
M  V30 7819 H 741.855 5.47997 0.444944 0
M  V30 7820 H 743.08 6.76227 0.624006 0
M  V30 7821 H 741.026 5.96823 2.72284 0
M  V30 7822 H 740.943 7.36603 1.70154 0
M  V30 7823 H 742.211 7.24178 2.88421 0
M  V30 7824 N 746.441 0.193421 1.56409 0
M  V30 7825 C 747.669 -0.451438 2.01915 0
M  V30 7826 C 748.084 -1.55306 1.07357 0
M  V30 7827 O 747.441 -1.82333 0.0781512 0
M  V30 7828 C 747.492 -1.00931 3.47124 0
M  V30 7829 O 747.213 0.0483623 4.38073 0
M  V30 7830 C 748.714 -1.73021 4.0814 0
M  V30 7831 H 745.934 -0.113495 0.661332 0
M  V30 7832 H 748.478 0.301636 2.02263 0
M  V30 7833 H 746.633 -1.71277 3.47481 0
M  V30 7834 H 747.047 -0.366644 5.23217 0
M  V30 7835 H 748.521 -2.07289 5.11601 0
M  V30 7836 H 748.998 -2.6333 3.51502 0
M  V30 7837 H 749.604 -1.07264 4.11551 0
M  V30 7838 N 747.919 -1.57396 -0.0801906 0
M  V30 7839 C 749.165 -1.87113 -0.782083 0
M  V30 7840 C 749.498 -0.78458 -1.77646 0
M  V30 7841 O 748.773 0.205993 -1.93406 0
M  V30 7842 C 749.056 -3.27483 -1.49756 0
M  V30 7843 C 748.909 -4.46782 -0.520171 0
M  V30 7844 C 750.228 -3.65965 -2.44454 0
M  V30 7845 H 747.347 -0.680559 -0.282858 0
M  V30 7846 H 749.989 -1.89946 -0.0454139 0
M  V30 7847 H 748.139 -3.25199 -2.12551 0
M  V30 7848 H 749.811 -4.61187 0.101919 0
M  V30 7849 H 748.054 -4.33485 0.165219 0
M  V30 7850 H 748.725 -5.41761 -1.05824 0
M  V30 7851 H 751.201 -3.69289 -1.91742 0
M  V30 7852 H 750.077 -4.65086 -2.91524 0
M  V30 7853 H 750.338 -2.95446 -3.28883 0
M  V30 7854 N 749.397 0.351382 -1.53633 0
M  V30 7855 C 750.327 1.43688 -1.84055 0
M  V30 7856 C 751.308 1.55251 -0.695073 0
M  V30 7857 O 752.493 1.69587 -0.946257 0
M  V30 7858 C 749.623 2.80843 -2.04315 0
M  V30 7859 C 748.577 2.84094 -3.20117 0
M  V30 7860 C 747.903 4.2406 -3.25696 0
M  V30 7861 C 749.203 2.50334 -4.58399 0
M  V30 7862 H 750.897 1.18478 -2.74961 0
M  V30 7863 H 748.443 0.568509 -1.32303 0
M  V30 7864 H 750.396 3.56821 -2.2418 0
M  V30 7865 H 749.12 3.07471 -1.10132 0
M  V30 7866 H 747.779 2.10568 -3.00094 0
M  V30 7867 H 747.427 4.47785 -2.29123 0
M  V30 7868 H 747.127 4.27147 -4.03509 0
M  V30 7869 H 748.651 5.0189 -3.47762 0
M  V30 7870 H 750.065 3.16025 -4.78332 0
M  V30 7871 H 748.462 2.64717 -5.38558 0
M  V30 7872 H 749.532 1.45542 -4.62543 0
M  V30 7873 N 750.875 1.45233 0.611969 0
M  V30 7874 C 751.807 1.49575 1.73666 0
M  V30 7875 C 752.82 0.386987 1.58134 0
M  V30 7876 O 754.009 0.653804 1.66095 0
M  V30 7877 C 751.109 1.33223 3.11617 0
M  V30 7878 C 750.282 2.57694 3.5343 0
M  V30 7879 C 749.341 2.35962 4.70328 0
M  V30 7880 O 748.367 3.09553 4.77667 0
M  V30 7881 N 749.569 1.40243 5.63305 0
M  V30 7882 H 752.334 2.46539 1.70407 0
M  V30 7883 H 749.895 1.40917 0.79712 0
M  V30 7884 H 751.887 1.16502 3.87569 0
M  V30 7885 H 750.457 0.44551 3.09409 0
M  V30 7886 H 749.677 2.8956 2.67486 0
M  V30 7887 H 750.965 3.40441 3.78124 0
M  V30 7888 H 750.363 0.795023 5.60086 0
M  V30 7889 H 748.92 1.29496 6.38807 0
M  V30 7890 N 752.353 -0.854086 1.3245 0
M  V30 7891 C 753.3 -1.96271 1.21434 0
M  V30 7892 C 754.27 -1.6582 0.0963851 0
M  V30 7893 O 755.455 -1.88851 0.27203 0
M  V30 7894 C 752.595 -3.31939 0.943952 0
M  V30 7895 C 751.708 -3.74885 2.14675 0
M  V30 7896 C 750.843 -4.99347 1.81179 0
M  V30 7897 C 749.882 -5.34785 2.97777 0
M  V30 7898 N 749.019 -6.50425 2.6437 0
M  V30 7899 H 753.859 -2.05025 2.16261 0
M  V30 7900 H 751.396 -1.00348 1.07558 0
M  V30 7901 H 753.354 -4.10076 0.767675 0
M  V30 7902 H 751.984 -3.22784 0.0324763 0
M  V30 7903 H 751.036 -2.92396 2.43328 0
M  V30 7904 H 752.348 -3.97068 3.01891 0
M  V30 7905 H 751.502 -5.85193 1.60107 0
M  V30 7906 H 750.241 -4.79101 0.911777 0
M  V30 7907 H 749.246 -4.47451 3.1948 0
M  V30 7908 H 750.471 -5.56988 3.88511 0
M  V30 7909 H 748.417 -6.31695 1.7691 0
M  V30 7910 H 748.334 -6.7263 3.45116 0
M  V30 7911 H 749.602 -7.39422 2.46729 0
M  V30 7912 N 753.831 -1.1567 -1.07043 0
M  V30 7913 C 755.077 -0.9349 -1.79965 0
M  V30 7914 C 755.41 0.536464 -1.86643 0
M  V30 7915 O 754.685 1.39781 -1.35247 0
M  V30 7916 C 754.968 -1.55371 -3.24857 0
M  V30 7917 C 754.821 -3.09589 -3.26305 0
M  V30 7918 C 756.14 -1.24209 -4.22209 0
M  V30 7919 H 753.259 -0.341061 -0.653335 0
M  V30 7920 H 755.901 -1.42883 -1.25237 0
M  V30 7921 H 754.051 -1.13368 -3.71591 0
M  V30 7922 H 755.723 -3.60521 -2.87789 0
M  V30 7923 H 753.966 -3.43315 -2.65174 0
M  V30 7924 H 754.637 -3.48002 -4.28484 0
M  V30 7925 H 757.113 -1.60548 -3.8388 0
M  V30 7926 H 755.989 -1.70119 -5.21872 0
M  V30 7927 H 756.25 -0.15964 -4.41812 0
M  V30 7928 N 755.309 1.25446 -0.953992 0
M  V30 7929 C 756.256 2.25912 -0.472485 0
M  V30 7930 C 757.226 1.59173 0.47469 0
M  V30 7931 O 758.411 1.86812 0.388082 0
M  V30 7932 C 755.551 3.44235 0.244218 0
M  V30 7933 C 754.664 4.25613 -0.740121 0
M  V30 7934 C 753.799 5.312 -0.000922267 0
M  V30 7935 C 752.838 6.04265 -0.976236 0
M  V30 7936 N 751.975 7.01589 -0.267952 0
M  V30 7937 H 756.815 2.66469 -1.3341 0
M  V30 7938 H 754.352 1.31005 -0.669045 0
M  V30 7939 H 756.31 4.11682 0.676314 0
M  V30 7940 H 754.94 3.04554 1.06988 0
M  V30 7941 H 753.992 3.57834 -1.2907 0
M  V30 7942 H 755.304 4.762 -1.48441 0
M  V30 7943 H 754.458 6.04719 0.48984 0
M  V30 7944 H 753.197 4.81484 0.776159 0
M  V30 7945 H 752.202 5.29561 -1.478 0
M  V30 7946 H 753.427 6.5607 -1.75354 0
M  V30 7947 H 751.373 6.54164 0.490403 0
M  V30 7948 H 751.29 7.4999 -0.951344 0
M  V30 7949 H 752.558 7.7924 0.201294 0
M  V30 7950 N 756.787 0.722489 1.40064 0
M  V30 7951 C 758.064 0.191829 1.94657 0
M  V30 7952 C 758.444 -1.30389 1.66018 0
M  V30 7953 O 757.792 -2.06342 0.981588 0
M  V30 7954 C 758.002 0.511978 3.45224 0
M  V30 7955 C 759.35 0.454426 4.22161 0
M  V30 7956 O 760.374 0.448438 3.53366 0
M  V30 7957 O 759.233 0.437986 5.44742 0
M  V30 7958 H 756.327 0.0307821 0.826427 0
M  V30 7959 H 758.873 0.800493 1.49634 0
M  V30 7960 H 757.645 1.54622 3.59455 0
M  V30 7961 H 757.268 -0.126296 3.97399 0
M  V30 7962 N 758.265 -1.50454 0.469181 0
M  V30 7963 C 759.512 -2.02315 -0.086469 0
M  V30 7964 C 759.84 -1.3513 -1.39893 0
M  V30 7965 O 759.095 -0.465341 -1.90087 0
M  V30 7966 C 759.394 -3.55963 -0.320207 0
M  V30 7967 C 759.06 -4.41615 0.910318 0
M  V30 7968 C 757.722 -4.64743 1.2477 0
M  V30 7969 C 760.074 -4.91661 1.72971 0
M  V30 7970 C 757.402 -5.35161 2.40457 0
M  V30 7971 C 759.754 -5.6335 2.87785 0
M  V30 7972 C 758.418 -5.84732 3.2194 0
M  V30 7973 H 757.688 -0.740324 -0.0316412 0
M  V30 7974 H 760.335 -1.81087 0.622872 0
M  V30 7975 H 758.64 -3.75695 -1.11177 0
M  V30 7976 H 760.337 -3.93653 -0.764071 0
M  V30 7977 H 756.927 -4.23833 0.637467 0
M  V30 7978 H 761.111 -4.73649 1.48224 0
M  V30 7979 H 756.367 -5.49924 2.67196 0
M  V30 7980 H 760.541 -6.0111 3.51624 0
M  V30 7981 H 758.168 -6.39074 4.1169 0
M  V30 7982 N 759.743 -0.201713 -1.56304 0
M  V30 7983 C 760.693 0.729444 -2.16016 0
M  V30 7984 C 761.677 1.17164 -1.10279 0
M  V30 7985 O 762.869 1.12893 -1.36324 0
M  V30 7986 C 759.998 1.94594 -2.82822 0
M  V30 7987 C 759.084 1.52434 -3.95758 0
M  V30 7988 N 759.475 0.814106 -4.99205 0
M  V30 7989 C 757.773 1.81314 -4.07481 0
M  V30 7990 C 758.474 0.601896 -5.78578 0
M  V30 7991 N 757.45 1.15263 -5.3124 0
M  V30 7992 H 761.252 0.178163 -2.93359 0
M  V30 7993 H 758.766 -0.00218038 -1.624 0
M  V30 7994 H 760.763 2.62357 -3.23998 0
M  V30 7995 H 759.423 2.50188 -2.06969 0
M  V30 7996 H 760.434 0.468872 -5.15773 0
M  V30 7997 H 757.111 2.3837 -3.42762 0
M  V30 7998 H 758.501 0.0380119 -6.71889 0
M  V30 7999 N 761.222 1.57436 0.0718424 0
M  V30 8000 C 762.471 1.86431 0.769826 0
M  V30 8001 C 762.784 0.794355 1.78744 0
M  V30 8002 O 763.99 0.972148 2.53499 0
M  V30 8003 C 762.446 3.307 1.42006 0
M  V30 8004 C 762.054 4.45824 0.441017 0
M  V30 8005 C 763.798 3.68894 2.10041 0
M  V30 8006 C 761.705 5.81134 1.09717 0
M  V30 8007 H 760.635 0.695474 0.291259 0
M  V30 8008 H 763.286 1.83485 0.0231224 0
M  V30 8009 H 761.668 3.28257 2.21502 0
M  V30 8010 H 762.842 4.59659 -0.32413 0
M  V30 8011 H 761.157 4.16181 -0.134886 0
M  V30 8012 H 763.754 4.67281 2.59908 0
M  V30 8013 H 764.097 2.98692 2.89981 0
M  V30 8014 H 764.63 3.73326 1.37376 0
M  V30 8015 H 761.369 6.54628 0.338095 0
M  V30 8016 H 760.889 5.711 1.83317 0
M  V30 8017 H 762.568 6.26468 1.617 0
M  V30 8018 N 762.7 -0.34323 1.53817 0
M  V30 8019 C 763.648 -1.44176 1.82527 0
M  V30 8020 C 764.642 -1.54452 0.695772 0
M  V30 8021 O 765.848 -1.57072 0.879114 0
M  V30 8022 H 762.223 -0.480729 0.578277 0
M  V30 8023 H 764.194 -1.17176 2.74431 0
M  V30 8024 C 762.943 -2.80695 2.05197 0
M  V30 8025 H 762.266 -2.73554 2.91561 0
M  V30 8026 H 763.706 -3.56679 2.29251 0
M  V30 8027 C 762.165 -3.26322 0.837589 0
M  V30 8028 O 762.695 -4.01683 0.0371631 0
M  V30 8029 N 760.901 -2.83128 0.654724 0
M  V30 8030 H 760.448 -2.21965 1.30725 0
M  V30 8031 H 760.406 -3.14011 -0.156345 0
M  V30 8032 N 764.178 -1.45556 -0.604258 0
M  V30 8033 C 765.425 -1.49746 -1.36317 0
M  V30 8034 C 765.753 -0.140516 -1.93992 0
M  V30 8035 O 765.008 0.861244 -1.7573 0
M  V30 8036 C 765.307 -2.52697 -2.52743 0
M  V30 8037 C 764.973 -3.97315 -2.13195 0
M  V30 8038 C 763.635 -4.36692 -2.02123 0
M  V30 8039 C 765.987 -4.88249 -1.8238 0
M  V30 8040 C 763.315 -5.64895 -1.58463 0
M  V30 8041 C 765.667 -6.16867 -1.40205 0
M  V30 8042 C 764.331 -6.55172 -1.27694 0
M  V30 8043 H 763.601 -0.54796 -0.49882 0
M  V30 8044 H 766.248 -1.7892 -0.682643 0
M  V30 8045 H 764.553 -2.17105 -3.26148 0
M  V30 8046 H 766.25 -2.53176 -3.10971 0
M  V30 8047 H 762.84 -3.66176 -2.22739 0
M  V30 8048 H 767.024 -4.58561 -1.89829 0
M  V30 8049 H 762.28 -5.93365 -1.47402 0
M  V30 8050 H 766.454 -6.86771 -1.15408 0
M  V30 8051 H 764.081 -7.54411 -0.936375 0
M  V30 8052 N 765.656 0.84705 -1.32902 0
M  V30 8053 C 766.586 1.97166 -1.25091 0
M  V30 8054 C 767.567 1.69578 -0.133161 0
M  V30 8055 O 768.752 1.91519 -0.321591 0
M  V30 8056 C 765.882 3.33157 -0.981006 0
M  V30 8057 C 764.836 3.75119 -2.06082 0
M  V30 8058 C 764.162 5.08826 -1.64318 0
M  V30 8059 C 765.462 3.89774 -3.47669 0
M  V30 8060 H 767.156 2.03958 -2.19184 0
M  V30 8061 H 764.702 0.979907 -1.05517 0
M  V30 8062 H 766.655 4.11393 -0.912891 0
M  V30 8063 H 765.379 3.266 -0.00445559 0
M  V30 8064 H 764.038 2.9914 -2.11921 0
M  V30 8065 H 763.686 4.98732 -0.653876 0
M  V30 8066 H 763.386 5.37873 -2.36572 0
M  V30 8067 H 764.91 5.89546 -1.58958 0
M  V30 8068 H 766.324 4.58343 -3.44376 0
M  V30 8069 H 764.721 4.30248 -4.18338 0
M  V30 8070 H 765.791 2.92463 -3.86773 0
M  V30 8071 N 767.134 1.16236 1.06428 0
M  V30 8072 C 768.044 0.881976 2.1739 0
M  V30 8073 C 769.06 -0.145259 1.73393 0
M  V30 8074 O 770.236 0.0310558 2.01376 0
M  V30 8075 C 767.301 0.385496 3.4455 0
M  V30 8076 C 766.362 1.47779 4.03063 0
M  V30 8077 C 765.595 1.0049 5.24154 0
M  V30 8078 O 765.818 -0.145889 5.70213 0
M  V30 8079 O 764.752 1.79265 5.74585 0
M  V30 8080 H 768.578 1.80983 2.43883 0
M  V30 8081 H 766.163 0.942226 1.15942 0
M  V30 8082 H 768.045 0.115536 4.21242 0
M  V30 8083 H 766.72 -0.514369 3.19587 0
M  V30 8084 H 765.627 1.80147 3.27869 0
M  V30 8085 H 766.96 2.35291 4.32318 0
M  V30 8086 N 768.612 -1.24939 0.960631 0
M  V30 8087 C 769.559 -2.25658 0.484459 0
M  V30 8088 C 770.529 -1.59422 -0.466242 0
M  V30 8089 O 771.714 -1.87015 -0.378169 0
M  V30 8090 C 768.854 -3.44359 -0.225958 0
M  V30 8091 C 767.967 -4.25214 0.762682 0
M  V30 8092 C 767.102 -5.31192 0.0290931 0
M  V30 8093 C 766.141 -6.03739 1.00827 0
M  V30 8094 N 765.278 -7.01437 0.305155 0
M  V30 8095 H 770.118 -2.65758 1.34821 0
M  V30 8096 H 767.655 -1.30648 0.675983 0
M  V30 8097 H 769.613 -4.12035 -0.654472 0
M  V30 8098 H 768.243 -3.05118 -1.05371 0
M  V30 8099 H 767.295 -3.57144 1.30966 0
M  V30 8100 H 768.607 -4.75406 1.50964 0
M  V30 8101 H 767.761 -6.04971 -0.457763 0
M  V30 8102 H 766.5 -4.81889 -0.750614 0
M  V30 8103 H 765.505 -5.2877 1.50607 0
M  V30 8104 H 766.73 -6.55131 1.7883 0
M  V30 8105 H 764.676 -6.54415 -0.455704 0
M  V30 8106 H 764.593 -7.49475 0.991104 0
M  V30 8107 H 765.861 -7.79336 -0.159966 0
M  V30 8108 N 770.09 -0.729906 -1.39679 0
M  V30 8109 C 771.32 -0.285295 -2.04621 0
M  V30 8110 C 771.728 1.08304 -1.55135 0
M  V30 8111 O 771.071 1.6946 -0.709146 0
M  V30 8112 C 771.133 -0.203129 -3.58926 0
M  V30 8113 C 770.797 -1.50909 -4.31365 0
M  V30 8114 C 771.794 -2.45381 -4.58349 0
M  V30 8115 C 769.479 -1.77198 -4.70007 0
M  V30 8116 C 771.473 -3.64379 -5.22979 0
M  V30 8117 C 769.16 -2.96474 -5.34365 0
M  V30 8118 C 770.158 -3.89886 -5.60783 0
M  V30 8119 O 769.846 -5.07069 -6.23808 0
M  V30 8120 H 769.578 -0.123373 -0.664647 0
M  V30 8121 H 772.132 -0.992901 -1.79807 0
M  V30 8122 H 770.362 0.560538 -3.82616 0
M  V30 8123 H 772.051 0.208811 -4.05363 0
M  V30 8124 H 772.817 -2.2634 -4.28947 0
M  V30 8125 H 768.696 -1.05337 -4.48804 0
M  V30 8126 H 772.24 -4.37307 -5.43515 0
M  V30 8127 H 768.137 -3.15419 -5.63188 0
M  V30 8128 H 768.905 -5.07335 -6.42303 0
M  V30 8129 N 771.568 1.50203 -0.477153 0
M  V30 8130 C 772.531 2.27194 0.302599 0
M  V30 8131 C 773.531 1.32221 0.915112 0
M  V30 8132 O 774.721 1.55593 0.783348 0
M  V30 8133 C 771.853 3.0938 1.43167 0
M  V30 8134 H 773.046 2.97575 -0.372678 0
M  V30 8135 H 770.599 1.54578 -0.231392 0
M  V30 8136 H 771.334 2.43509 2.14182 0
M  V30 8137 H 771.119 3.79181 0.998197 0
M  V30 8138 H 772.609 3.67592 1.98157 0
M  V30 8139 O 773.085 0.351473 1.57629 0
M  V30 8140 H 773.776 -0.202268 1.92641 0
M  V30 END ATOM
M  V30 BEGIN BOND
M  V30 END BOND
M  V30 END CTAB
M  END
$$$$
