drugbank_target|Q53908 ActVA 6 protein (DB01668; DB02019; DB02042; DB03037)
 OpenBabel12092120223D

  0  0  0     0  0            999 V3000
M  V30 BEGIN CTAB
M  V30 COUNTS 1688 1711 0 0 0
M  V30 BEGIN ATOM
M  V30 1 H -0.908 1.98254 -0.117106 0
M  V30 2 N 0 1.576 0 0
M  V30 3 C 0.933 2.03868 1.02534 0
M  V30 4 C 1.911 0.928543 1.3348 0
M  V30 5 O 3.095 1.19667 1.45644 0
M  V30 6 C 0.222 2.43627 2.35294 0
M  V30 7 C -0.732 3.65373 2.2001 0
M  V30 8 S 0.101 5.13292 1.52614 0
M  V30 9 C 1.257 5.56322 2.86805 0
M  V30 10 H 1.49 2.90518 0.631377 0
M  V30 11 H -0.977 1.52953 0.210867 0
M  V30 12 H 0.981 2.67203 3.11629 0
M  V30 13 H -0.358 1.57376 2.7183 0
M  V30 14 H -1.165 3.90944 3.18086 0
M  V30 15 H -1.563 3.418 1.51819 0
M  V30 16 H 0.729 5.58782 3.83104 0
M  V30 17 H 1.672 6.56266 2.65933 0
M  V30 18 H 2.08 4.83886 2.90714 0
M  V30 19 N 1.4781 -0.272755 1.55222 0
M  V30 20 C 2.4411 -1.32041 1.87344 0
M  V30 21 C 3.4411 -1.42342 0.74803 0
M  V30 22 O 4.6311 -1.41488 1.0162 0
M  V30 23 C 1.7631 -2.70173 2.07893 0
M  V30 24 H 2.9561 -1.04789 2.80997 0
M  V30 25 H 0.5091 -0.51083 1.47717 0
M  V30 26 H 1.2441 -3.02605 1.16622 0
M  V30 27 H 1.0291 -2.64082 2.89833 0
M  V30 28 H 2.5191 -3.45869 2.34017 0
M  V30 29 N 2.9562 -1.48159 -0.537278 0
M  V30 30 C 3.8662 -1.64807 -1.6696 0
M  V30 31 C 4.8822 -0.530651 -1.65711 0
M  V30 32 O 6.0582 -0.800784 -1.84796 0
M  V30 33 C 3.1232 -1.67708 -3.03438 0
M  V30 34 C 2.1842 -2.91025 -3.156 0
M  V30 35 C 1.4172 -2.93778 -4.45567 0
M  V30 36 O 1.6402 -2.05153 -5.3223 0
M  V30 37 O 0.5742 -3.85868 -4.61941 0
M  V30 38 H 4.4002 -2.6066 -1.55853 0
M  V30 39 H 1.9852 -1.31475 -0.709549 0
M  V30 40 H 3.8672 -1.7218 -3.84619 0
M  V30 41 H 2.5422 -0.750278 -3.14885 0
M  V30 42 H 1.4492 -2.92089 -2.33741 0
M  V30 43 H 2.7822 -3.83065 -3.09066 0
M  V30 44 N 4.4343 0.785586 -1.36625 0
M  V30 45 C 5.6803 1.54591 -1.31261 0
M  V30 46 C 6.0133 1.93906 0.106823 0
M  V30 47 O 5.2883 1.63007 1.06108 0
M  V30 48 C 5.5713 2.82038 -2.23889 0
M  V30 49 C 5.4243 2.49066 -3.74548 0
M  V30 50 C 6.7433 3.83887 -2.15217 0
M  V30 51 H 3.8623 0.560846 -0.478143 0
M  V30 52 H 6.5043 0.902278 -1.67209 0
M  V30 53 H 4.6543 3.36961 -1.93363 0
M  V30 54 H 6.3263 2.00164 -4.15611 0
M  V30 55 H 4.5693 1.81954 -3.93796 0
M  V30 56 H 5.2403 3.40109 -4.34776 0
M  V30 57 H 7.7163 3.38421 -2.42096 0
M  V30 58 H 6.5923 4.70806 -2.82193 0
M  V30 59 H 6.8533 4.27131 -1.14068 0
M  V30 60 N 5.9124 1.20967 1.01018 0
M  V30 61 C 6.8604 0.961223 2.1181 0
M  V30 62 C 7.8544 -0.0897034 1.69162 0
M  V30 63 O 9.0604 0.0612271 1.79896 0
M  V30 64 H 5.4354 0.29355 0.692338 0
M  V30 65 H 7.4064 1.90178 2.29946 0
M  V30 66 C 6.1554 0.536854 3.4353 0
M  V30 67 H 5.4784 1.33713 3.76777 0
M  V30 68 H 6.9184 0.402286 4.22087 0
M  V30 69 C 5.3774 -0.751574 3.2841 0
M  V30 70 O 5.9074 -1.80841 3.58691 0
M  V30 71 N 4.1134 -0.716079 2.81639 0
M  V30 72 H 3.6604 0.144236 2.57196 0
M  V30 73 H 3.6184 -1.57847 2.71904 0
M  V30 74 N 7.3905 -1.2043 1.01659 0
M  V30 75 C 8.6675 -1.8548 0.621004 0
M  V30 76 C 9.0475 -1.9091 -0.900919 0
M  V30 77 O 8.3955 -1.41694 -1.79263 0
M  V30 78 C 8.6055 -3.25119 1.2688 0
M  V30 79 C 9.9535 -4.01403 1.38423 0
M  V30 80 O 10.9775 -3.34473 1.22501 0
M  V30 81 O 9.8365 -5.21265 1.64151 0
M  V30 82 H 6.9305 -0.798761 0.214266 0
M  V30 83 H 9.4765 -1.28019 1.11396 0
M  V30 84 H 8.2485 -3.15932 2.30873 0
M  V30 85 H 7.8715 -3.90212 0.762917 0
M  V30 86 N 8.8686 -0.792821 -1.36206 0
M  V30 87 C 10.2796 -0.429513 -1.81692 0
M  V30 88 C 10.6306 1.04695 -1.65932 0
M  V30 89 O 9.7556 1.81256 -1.18218 0
M  V30 90 C 10.3506 -0.772831 -3.29868 0
M  V30 91 C 8.9096 -0.462307 -3.7355 0
M  V30 92 C 8.0566 -1.00569 -2.5842 0
M  V30 93 H 11.0076 -0.985672 -1.24379 0
M  V30 94 H 11.0286 -0.0651928 -3.80444 0
M  V30 95 H 10.5406 -1.84747 -3.41307 0
M  V30 96 H 8.6416 0.604158 -3.67669 0
M  V30 97 H 8.7546 -0.985299 -4.68859 0
M  V30 98 H 7.1186 -0.428734 -2.51066 0
M  V30 99 H 7.9016 -2.08616 -2.72643 0
M  V30 100 N 10.3467 1.47872 -0.545128 0
M  V30 101 C 11.7627 1.5829 -0.204032 0
M  V30 102 C 11.9627 1.54529 1.29317 0
M  V30 103 O 11.0187 1.44232 2.07252 0
M  V30 104 C 12.3317 2.89304 -0.819987 0
M  V30 105 C 13.8797 3.02864 -0.790105 0
M  V30 106 C 14.3547 4.3656 -1.38491 0
M  V30 107 N 15.8457 4.43165 -1.34755 0
M  V30 108 C 16.5807 5.45153 -1.77753 0
M  V30 109 N 16.0767 6.54016 -2.2855 0
M  V30 110 N 17.8697 5.36125 -1.68897 0
M  V30 111 H 10.0207 1.4856 -1.51802 0
M  V30 112 H 12.2837 0.706305 -0.632327 0
M  V30 113 H 11.9897 2.97757 -1.87173 0
M  V30 114 H 11.8637 3.75957 -0.305915 0
M  V30 115 H 14.2507 2.94014 0.252913 0
M  V30 116 H 14.3317 2.17782 -1.34181 0
M  V30 117 H 13.9757 4.46164 -2.42693 0
M  V30 118 H 13.9057 5.20353 -0.808754 0
M  V30 119 H 16.3967 3.65083 -0.975855 0
M  V30 120 H 16.7097 7.27994 -2.59314 0
M  V30 121 H 15.0547 6.54938 -2.32553 0
M  V30 122 H 18.2457 4.49975 -1.28998 0
M  V30 123 H 18.4187 6.15472 -2.02726 0
M  V30 124 N 11.8248 0.280983 1.55075 0
M  V30 125 C 13.0708 -0.33461 2.00021 0
M  V30 126 C 13.4038 -1.55063 1.16915 0
M  V30 127 O 12.6788 -1.93006 0.240646 0
M  V30 128 C 12.9618 -0.711007 3.53011 0
M  V30 129 C 12.8148 0.512766 4.46868 0
M  V30 130 C 14.1338 -1.54522 4.12081 0
M  V30 131 H 11.2528 -0.120147 0.727141 0
M  V30 132 H 13.8948 0.389097 1.85973 0
M  V30 133 H 12.0448 -1.32761 3.65112 0
M  V30 134 H 13.7168 1.15131 4.46702 0
M  V30 135 H 11.9598 1.14975 4.18286 0
M  V30 136 H 12.6308 0.205556 5.51617 0
M  V30 137 H 15.1068 -1.02442 4.03293 0
M  V30 138 H 13.9828 -1.77739 5.19327 0
M  V30 139 H 14.2438 -2.52813 3.62682 0
M  V30 140 N 13.3029 -1.57598 0.00835791 0
M  V30 141 C 14.5509 -1.90551 -0.6734 0
M  V30 142 C 14.8719 -0.883301 -1.73847 0
M  V30 143 O 14.1419 0.0781442 -1.95744 0
M  V30 144 H 12.7219 -0.703312 -0.251717 0
M  V30 145 H 15.3839 -1.94833 0.0512592 0
M  V30 146 H 14.4799 -2.9056 -1.13935 0
M  V30 147 N 14.781 0.264519 -1.55364 0
M  V30 148 C 16.028 0.994986 -1.7637 0
M  V30 149 C 16.356 1.85976 -0.5695 0
M  V30 150 O 15.611 1.90509 0.44776 0
M  V30 151 C 15.91 1.9004 -3.02687 0
M  V30 152 C 15.576 1.19243 -4.34847 0
M  V30 153 C 14.238 0.996709 -4.70764 0
M  V30 154 C 16.59 0.689296 -5.16622 0
M  V30 155 C 13.918 0.285261 -5.86006 0
M  V30 156 C 16.27 -0.00860079 -6.32599 0
M  V30 157 C 14.934 -0.215963 -6.67151 0
M  V30 158 H 14.204 0.364091 -0.645383 0
M  V30 159 H 16.851 0.266543 -1.89636 0
M  V30 160 H 15.156 2.69533 -2.84357 0
M  V30 161 H 16.853 2.46695 -3.16137 0
M  V30 162 H 13.443 1.3549 -4.06621 0
M  V30 163 H 17.627 0.828108 -4.89342 0
M  V30 164 H 12.883 0.113961 -6.11294 0
M  V30 165 H 17.057 -0.406186 -6.95214 0
M  V30 166 H 14.684 -0.769217 -7.56298 0
M  V30 167 N 16.2591 1.48442 0.529413 0
M  V30 168 C 17.5051 1.5672 1.28711 0
M  V30 169 C 17.8381 0.2406 1.92704 0
M  V30 170 O 17.1131 -0.753454 1.79313 0
M  V30 171 C 17.3961 2.70587 2.37603 0
M  V30 172 C 17.2491 4.12953 1.78297 0
M  V30 173 C 18.5681 2.80212 3.39366 0
M  V30 174 H 15.6871 0.570474 0.466613 0
M  V30 175 H 18.3291 1.80617 0.589706 0
M  V30 176 H 16.4791 2.50342 2.97088 0
M  V30 177 H 18.1511 4.44639 1.22858 0
M  V30 178 H 16.3941 4.19927 1.0883 0
M  V30 179 H 17.0651 4.88448 2.57144 0
M  V30 180 H 19.5411 2.98553 2.89836 0
M  V30 181 H 18.4171 3.61611 4.12951 0
M  V30 182 H 18.6781 1.88393 3.99951 0
M  V30 183 N 17.7372 -0.778329 1.37039 0
M  V30 184 C 18.7002 -1.87301 1.32102 0
M  V30 185 C 19.7002 -1.59198 0.226405 0
M  V30 186 O 20.8902 -1.67403 0.481861 0
M  V30 187 C 18.0222 -3.24309 1.05055 0
M  V30 188 H 19.2152 -1.93093 2.29467 0
M  V30 189 H 16.7682 -0.977358 1.21973 0
M  V30 190 H 17.5032 -3.24196 0.0819373 0
M  V30 191 H 17.2882 -3.46098 1.84279 0
M  V30 192 H 18.7782 -4.04382 1.04234 0
M  V30 193 N 19.2153 -1.21501 -1.00376 0
M  V30 194 C 20.4613 -1.03452 -1.74429 0
M  V30 195 C 20.7943 0.430764 -1.89362 0
M  V30 196 O 20.0693 1.31962 -1.42886 0
M  V30 197 C 20.3523 -1.73375 -3.15615 0
M  V30 198 C 20.2053 -3.27431 -3.08397 0
M  V30 199 C 21.5243 -1.47732 -4.14564 0
M  V30 200 H 18.6433 -0.377226 -0.633143 0
M  V30 201 H 21.2853 -1.49693 -1.17013 0
M  V30 202 H 19.4353 -1.34064 -3.64636 0
M  V30 203 H 21.1073 -3.76119 -2.67081 0
M  V30 204 H 19.3503 -3.5767 -2.45468 0
M  V30 205 H 20.0213 -3.71524 -4.08258 0
M  V30 206 H 22.4973 -1.8186 -3.74254 0
M  V30 207 H 21.3733 -1.99169 -5.11491 0
M  V30 208 H 21.6343 -0.407589 -4.40217 0
M  V30 209 N 20.6934 1.19889 -1.02296 0
M  V30 210 C 21.9394 1.89701 -0.717033 0
M  V30 211 C 22.2724 1.7905 0.751989 0
M  V30 212 O 21.5474 1.17891 1.547 0
M  V30 213 C 21.8304 3.40858 -1.16136 0
M  V30 214 C 21.6834 3.60411 -2.69117 0
M  V30 215 C 23.0024 4.33876 -0.737549 0
M  V30 216 H 20.1214 0.688874 -0.261957 0
M  V30 217 H 22.7634 1.41154 -1.27183 0
M  V30 218 H 20.9134 3.82335 -0.689342 0
M  V30 219 H 22.5854 3.28145 -3.2422 0
M  V30 220 H 20.8284 3.03665 -3.0979 0
M  V30 221 H 21.4994 4.66396 -2.95261 0
M  V30 222 H 23.9754 4.00081 -1.14344 0
M  V30 223 H 22.8514 5.38242 -1.0764 0
M  V30 224 H 23.1124 4.40628 0.360436 0
M  V30 225 N 22.1715 0.800033 1.35784 0
M  V30 226 C 23.3995 0.389606 2.03199 0
M  V30 227 C 23.8145 -0.997375 1.60306 0
M  V30 228 O 23.1715 -1.64154 0.797481 0
M  V30 229 C 23.2225 0.455855 3.58614 0
M  V30 230 O 22.9435 1.78815 3.99946 0
M  V30 231 C 24.4445 0.0374032 4.43284 0
M  V30 232 H 21.6645 0.159132 0.651857 0
M  V30 233 H 24.2085 1.08183 1.73541 0
M  V30 234 H 22.3635 -0.188057 3.86943 0
M  V30 235 H 22.7775 1.74636 4.94573 0
M  V30 236 H 24.2515 0.134882 5.51835 0
M  V30 237 H 24.7285 -1.01651 4.27275 0
M  V30 238 H 25.3345 0.654215 4.20238 0
M  V30 239 N 23.6496 -1.47581 0.552962 0
M  V30 240 C 24.8966 -2.02482 0.0273243 0
M  V30 241 C 25.2246 -1.42776 -1.32081 0
M  V30 242 O 24.4796 -0.571393 -1.87173 0
M  V30 243 C 24.7786 -3.57199 -0.119728 0
M  V30 244 C 24.4446 -4.35804 1.15697 0
M  V30 245 C 23.1066 -4.57 1.50681 0
M  V30 246 C 25.4586 -4.81167 2.00319 0
M  V30 247 C 22.7866 -5.20807 2.70142 0
M  V30 248 C 25.1386 -5.46293 3.18978 0
M  V30 249 C 23.8026 -5.65722 3.54281 0
M  V30 250 H 23.0726 -0.740933 0.00999866 0
M  V30 251 H 25.7196 -1.77302 0.72362 0
M  V30 252 H 24.0246 -3.81348 -0.89896 0
M  V30 253 H 25.7216 -3.97324 -0.541718 0
M  V30 254 H 22.3116 -4.19582 0.874561 0
M  V30 255 H 26.4956 -4.64574 1.74599 0
M  V30 256 H 21.7516 -5.34045 2.97668 0
M  V30 257 H 25.9256 -5.80407 3.84838 0
M  V30 258 H 23.5526 -6.14936 4.46942 0
M  V30 259 N 25.1277 -0.289203 -1.54924 0
M  V30 260 C 26.5387 0.205791 -1.85562 0
M  V30 261 C 26.8897 1.54351 -1.2112 0
M  V30 262 O 26.0147 2.10435 -0.504601 0
M  V30 263 C 26.6097 0.380177 -3.3666 0
M  V30 264 C 25.1687 0.819395 -3.67373 0
M  V30 265 C 24.3157 -0.079159 -2.77187 0
M  V30 266 H 27.2667 -0.510577 -1.50262 0
M  V30 267 H 27.2877 1.21659 -3.60526 0
M  V30 268 H 26.7997 -0.593589 -3.83534 0
M  V30 269 H 24.9007 1.80413 -3.26009 0
M  V30 270 H 25.0137 0.646957 -4.74712 0
M  V30 271 H 23.3777 0.439565 -2.50878 0
M  V30 272 H 24.1607 -1.04906 -3.26878 0
M  V30 273 N 26.6058 1.57591 -0.0167156 0
M  V30 274 C 27.8518 1.91567 0.665582 0
M  V30 275 C 28.1848 0.892298 1.72487 0
M  V30 276 O 27.4598 -0.0867127 1.94307 0
M  V30 277 C 27.7428 3.36069 1.29342 0
M  V30 278 C 27.5958 4.49135 0.244541 0
M  V30 279 C 28.9148 3.803 2.21495 0
M  V30 280 H 26.0338 0.69666 0.240488 0
M  V30 281 H 28.6758 1.89866 -0.0714356 0
M  V30 282 H 26.8258 3.3765 1.92158 0
M  V30 283 H 28.4978 4.59689 -0.385228 0
M  V30 284 H 26.7408 4.3165 -0.431379 0
M  V30 285 H 27.4118 5.47242 0.723207 0
M  V30 286 H 29.8878 3.80377 1.68678 0
M  V30 287 H 28.7638 4.82127 2.62382 0
M  V30 288 H 29.0248 3.15104 3.101 0
M  V30 289 N 28.0839 -0.256276 1.55502 0
M  V30 290 C 29.3609 -1.00789 1.67633 0
M  V30 291 C 29.7409 -2.03706 0.553826 0
M  V30 292 O 29.0889 -2.24145 -0.443969 0
M  V30 293 C 29.2989 -1.64968 3.07549 0
M  V30 294 C 30.6469 -2.15505 3.65845 0
M  V30 295 O 31.6709 -1.74925 3.1029 0
M  V30 296 O 30.5299 -2.89986 4.63217 0
M  V30 297 H 27.6239 -0.468553 0.681459 0
M  V30 298 H 30.1699 -0.250806 1.67836 0
M  V30 299 H 28.9419 -0.904785 3.80696 0
M  V30 300 H 28.5649 -2.47321 3.11317 0
M  V30 301 N 29.562 -1.4872 -0.521534 0
M  V30 302 C 30.81 -1.56857 -1.27437 0
M  V30 303 C 31.131 -0.247982 -1.93417 0
M  V30 304 O 30.401 0.731151 -1.81744 0
M  V30 305 H 28.981 -0.577885 -0.473347 0
M  V30 306 H 31.643 -1.85233 -0.606205 0
M  V30 307 H 30.739 -2.35402 -2.0492 0
M  V30 308 N 31.0401 0.771051 -1.3745 0
M  V30 309 C 32.4511 1.34737 -1.29239 0
M  V30 310 C 32.8021 1.96109 0.0596908 0
M  V30 311 O 31.9271 1.93865 0.961534 0
M  V30 312 C 32.5221 2.44973 -2.34037 0
M  V30 313 C 31.0811 2.98372 -2.29458 0
M  V30 314 C 30.2281 1.71595 -2.17831 0
M  V30 315 H 33.1791 0.571256 -1.48062 0
M  V30 316 H 33.2001 3.24471 -1.98744 0
M  V30 317 H 32.7121 2.00276 -3.32432 0
M  V30 318 H 30.8131 3.47443 -1.34589 0
M  V30 319 H 30.9261 3.53939 -3.229 0
M  V30 320 H 29.2901 1.94547 -1.64388 0
M  V30 321 H 30.0731 1.29001 -3.18141 0
M  V30 322 N 32.5182 1.22032 0.997298 0
M  V30 323 C 33.4812 0.987909 2.06816 0
M  V30 324 C 34.4812 -0.0440084 1.6074 0
M  V30 325 O 35.6712 0.194053 1.73116 0
M  V30 326 C 32.8032 0.49132 3.37341 0
M  V30 327 H 33.9962 1.93803 2.28868 0
M  V30 328 H 31.5492 1.03838 1.16822 0
M  V30 329 H 32.2842 -0.463364 3.20973 0
M  V30 330 H 32.0692 1.23575 3.72118 0
M  V30 331 H 33.5592 0.348824 4.16141 0
M  V30 332 N 33.9963 -1.19345 1.0293 0
M  V30 333 C 35.2243 -1.92997 0.745644 0
M  V30 334 C 35.6393 -1.75519 -0.695589 0
M  V30 335 O 34.9963 -1.07737 -1.47306 0
M  V30 336 C 35.0473 -3.44741 1.08792 0
M  V30 337 O 34.7683 -3.61658 2.47256 0
M  V30 338 C 36.2693 -4.35515 0.827129 0
M  V30 339 H 33.4893 -0.613042 0.272801 0
M  V30 340 H 36.0333 -1.51473 1.3739 0
M  V30 341 H 34.1883 -3.84097 0.504832 0
M  V30 342 H 34.6023 -4.55514 2.60015 0
M  V30 343 H 36.0763 -5.40589 1.11658 0
M  V30 344 H 36.5533 -4.38552 -0.238436 0
M  V30 345 H 37.1593 -4.01841 1.39297 0
M  V30 346 N 35.4744 -0.807222 -1.35358 0
M  V30 347 C 36.4064 -0.175717 -2.28525 0
M  V30 348 C 37.4194 0.625354 -1.5031 0
M  V30 349 O 38.6084 0.457611 -1.72535 0
M  V30 350 C 35.7084 0.773471 -3.29956 0
M  V30 351 C 34.8814 0.0186296 -4.37396 0
M  V30 352 C 33.9404 0.886395 -5.18681 0
M  V30 353 O 32.9664 0.337106 -5.68201 0
M  V30 354 N 34.1684 2.20839 -5.36852 0
M  V30 355 H 36.9334 -0.976091 -2.83359 0
M  V30 356 H 34.4944 -0.662737 -1.47714 0
M  V30 357 H 36.4864 1.35824 -3.81227 0
M  V30 358 H 35.0564 1.47465 -2.75632 0
M  V30 359 H 34.2764 -0.747349 -3.87051 0
M  V30 360 H 35.5644 -0.501577 -5.06322 0
M  V30 361 H 34.9624 2.67858 -4.98265 0
M  V30 362 H 33.5194 2.74237 -5.91301 0
M  V30 363 N 36.9525 1.47285 -0.560781 0
M  V30 364 C 37.9025 2.27073 0.205384 0
M  V30 365 C 38.8865 1.34569 0.882044 0
M  V30 366 O 40.0785 1.58899 0.77976 0
M  V30 367 C 37.2075 3.20414 1.23247 0
M  V30 368 C 36.2935 4.20399 0.559041 0
M  V30 369 N 36.6845 5.04423 -0.372927 0
M  V30 370 C 34.9825 4.38536 0.812522 0
M  V30 371 C 35.6835 5.76655 -0.764446 0
M  V30 372 N 34.6595 5.43471 -0.11848 0
M  V30 373 H 38.4615 2.89422 -0.511117 0
M  V30 374 H 35.9755 1.57868 -0.380975 0
M  V30 375 H 37.9725 3.76262 1.79534 0
M  V30 376 H 36.6325 2.59623 1.95002 0
M  V30 377 H 37.6435 5.1248 -0.747287 0
M  V30 378 H 34.3205 3.88913 1.51832 0
M  V30 379 H 35.7105 6.54238 -1.53045 0
M  V30 380 N 38.4306 0.297415 1.54768 0
M  V30 381 C 39.3776 -0.580276 2.23386 0
M  V30 382 C 40.3476 -1.13238 1.21517 0
M  V30 383 O 41.5326 -1.17757 1.50126 0
M  V30 384 C 38.6726 -1.74801 2.97555 0
M  V30 385 C 37.7856 -1.22764 4.1419 0
M  V30 386 C 36.9206 -2.35895 4.75949 0
M  V30 387 C 35.9596 -1.80974 5.84735 0
M  V30 388 N 35.0966 -2.87664 6.40464 0
M  V30 389 H 39.9366 0.0114833 2.97998 0
M  V30 390 H 37.4736 0.0174361 1.4709 0
M  V30 391 H 39.4316 -2.43475 3.38786 0
M  V30 392 H 38.0616 -2.31145 2.25326 0
M  V30 393 H 37.1136 -0.433271 3.77924 0
M  V30 394 H 38.4256 -0.785551 4.92575 0
M  V30 395 H 37.5796 -3.12523 5.20014 0
M  V30 396 H 36.3186 -2.83429 3.96887 0
M  V30 397 H 35.3236 -1.02834 5.40097 0
M  V30 398 H 36.5486 -1.34348 6.65678 0
M  V30 399 H 34.4946 -3.34538 5.64287 0
M  V30 400 H 34.4116 -2.4794 7.14186 0
M  V30 401 H 35.6796 -3.642 6.89187 0
M  V30 402 N 39.9087 -1.5758 0.0250728 0
M  V30 403 C 40.8387 -2.13007 -0.956575 0
M  V30 404 C 41.8197 -1.0452 -1.342 0
M  V30 405 O 43.0047 -1.32332 -1.42133 0
M  V30 406 C 40.1347 -2.65386 -2.24026 0
M  V30 407 C 39.0887 -3.78623 -1.99571 0
M  V30 408 C 38.4147 -4.17414 -3.3417 0
M  V30 409 C 39.7147 -5.04867 -1.33814 0
M  V30 410 H 41.4087 -2.9528 -0.494991 0
M  V30 411 H 38.9547 -1.42042 -0.236651 0
M  V30 412 H 40.9077 -3.02794 -2.93076 0
M  V30 413 H 39.6317 -1.80268 -2.72343 0
M  V30 414 H 38.2907 -3.41646 -1.32941 0
M  V30 415 H 37.9387 -3.29284 -3.80238 0
M  V30 416 H 37.6387 -4.93719 -3.18615 0
M  V30 417 H 39.1627 -4.57402 -4.04495 0
M  V30 418 H 40.5767 -5.39888 -1.92857 0
M  V30 419 H 38.9737 -5.86144 -1.28669 0
M  V30 420 H 40.0437 -4.83904 -0.310561 0
M  V30 421 N 41.3868 0.248026 -1.55636 0
M  V30 422 C 42.6328 0.97767 -1.77678 0
M  V30 423 C 42.9658 1.85016 -0.590135 0
M  V30 424 O 42.2408 1.90095 0.411611 0
M  V30 425 C 42.5238 1.83914 -3.09593 0
M  V30 426 C 42.3768 0.99491 -4.38659 0
M  V30 427 C 43.6958 2.82183 -3.37729 0
M  V30 428 H 40.8148 0.354005 -0.646413 0
M  V30 429 H 43.4568 0.248253 -1.88371 0
M  V30 430 H 41.6068 2.46104 -3.00608 0
M  V30 431 H 43.2788 0.391789 -4.59633 0
M  V30 432 H 41.5218 0.299231 -4.32767 0
M  V30 433 H 42.1928 1.63145 -5.2734 0
M  V30 434 H 44.6688 2.30129 -3.4667 0
M  V30 435 H 43.5448 3.39582 -4.31249 0
M  V30 436 H 43.8058 3.58588 -2.58586 0
M  V30 437 N 42.8649 1.48995 0.513639 0
M  V30 438 C 43.7749 1.67443 1.64317 0
M  V30 439 C 44.7909 0.556947 1.64846 0
M  V30 440 O 45.9669 0.830082 1.83498 0
M  V30 441 C 43.0319 1.72515 3.00732 0
M  V30 442 C 42.0929 2.96009 3.1093 0
M  V30 443 C 41.3259 3.00829 4.40837 0
M  V30 444 O 41.5489 2.13594 5.28898 0
M  V30 445 O 40.4829 3.93168 4.55744 0
M  V30 446 H 44.3089 2.63106 1.51687 0
M  V30 447 H 41.8939 1.32588 0.688543 0
M  V30 448 H 43.7759 1.78277 3.81831 0
M  V30 449 H 42.4509 0.800278 3.13651 0
M  V30 450 H 41.3579 2.9577 2.29065 0
M  V30 451 H 42.6909 3.87934 3.02933 0
M  V30 452 N 44.343 -0.763751 1.37857 0
M  V30 453 C 45.273 -1.89103 1.36975 0
M  V30 454 C 46.254 -1.68439 0.237152 0
M  V30 455 O 47.439 -1.8918 0.438713 0
M  V30 456 C 44.569 -3.26496 1.18395 0
M  V30 457 C 43.523 -3.61741 2.28751 0
M  V30 458 C 42.849 -4.97762 1.95286 0
M  V30 459 C 44.149 -3.67665 3.70972 0
M  V30 460 H 45.843 -1.90099 2.31307 0
M  V30 461 H 43.389 -0.91319 1.11341 0
M  V30 462 H 45.342 -4.05003 1.16406 0
M  V30 463 H 44.066 -3.25955 0.205215 0
M  V30 464 H 42.725 -2.85547 2.29909 0
M  V30 465 H 42.373 -4.93769 0.959221 0
M  V30 466 H 42.073 -5.22313 2.69189 0
M  V30 467 H 43.597 -5.7866 1.94898 0
M  V30 468 H 45.011 -4.36307 3.719 0
M  V30 469 H 43.408 -4.03718 4.43995 0
M  V30 470 H 44.478 -2.68134 4.0402 0
M  V30 471 N 45.8211 -1.22559 -0.990812 0
M  V30 472 C 46.7841 -0.998863 -2.0629 0
M  V30 473 C 47.7841 0.0354834 -1.60761 0
M  V30 474 O 48.9741 -0.203231 -1.7301 0
M  V30 475 C 46.1061 -0.509203 -3.37076 0
M  V30 476 H 47.2991 -1.95014 -2.27837 0
M  V30 477 H 44.8521 -1.04456 -1.16269 0
M  V30 478 H 45.5871 0.446335 -3.21214 0
M  V30 479 H 45.3721 -1.25547 -3.71457 0
M  V30 480 H 46.8621 -0.370888 -4.1595 0
M  V30 481 N 47.2992 1.18797 -1.03562 0
M  V30 482 C 48.5272 1.92599 -0.755869 0
M  V30 483 C 48.9422 1.75886 0.686271 0
M  V30 484 O 48.2992 1.08517 1.46732 0
M  V30 485 C 48.3502 3.44159 -1.10619 0
M  V30 486 O 48.0712 3.60341 -2.4917 0
M  V30 487 C 49.5722 4.3507 -0.850214 0
M  V30 488 H 46.7922 0.611587 -0.276048 0
M  V30 489 H 49.3362 1.50742 -1.38192 0
M  V30 490 H 47.4912 3.83823 -0.525194 0
M  V30 491 H 47.9052 4.54128 -2.62427 0
M  V30 492 H 49.3792 5.39989 -1.14523 0
M  V30 493 H 49.8562 4.38673 0.215176 0
M  V30 494 H 50.4622 4.01097 -1.41426 0
M  V30 495 N 48.7773 0.814389 1.34928 0
M  V30 496 C 50.0253 0.397636 1.9815 0
M  V30 497 C 50.3463 -1.04069 1.64908 0
M  V30 498 O 49.6163 -1.72121 0.93548 0
M  V30 499 H 48.1963 0.144043 0.732981 0
M  V30 500 H 50.8583 1.04195 1.6471 0
M  V30 501 H 49.9543 0.509688 3.0791 0
M  V30 502 N 50.2554 -1.46986 0.568584 0
M  V30 503 C 51.5034 -2.02041 0.0487022 0
M  V30 504 C 51.8244 -1.44408 -1.31039 0
M  V30 505 O 51.0944 -0.623477 -1.85714 0
M  V30 506 H 49.6744 -0.746849 0.015014 0
M  V30 507 H 52.3364 -1.80257 0.741168 0
M  V30 508 H 51.4324 -3.12085 -0.0308961 0
M  V30 509 N 51.7335 -0.305618 -1.54608 0
M  V30 510 C 52.9795 0.302746 -2.00528 0
M  V30 511 C 53.3125 1.53184 -1.19367 0
M  V30 512 O 52.5875 1.92598 -0.271321 0
M  V30 513 C 52.8705 0.654756 -3.54097 0
M  V30 514 C 52.7235 -0.583793 -4.45995 0
M  V30 515 C 54.0425 1.47947 -4.14487 0
M  V30 516 H 51.1615 0.108564 -0.72896 0
M  V30 517 H 53.8035 -0.418634 -1.85331 0
M  V30 518 H 51.9535 1.26935 -3.67178 0
M  V30 519 H 53.6255 -1.22224 -4.44814 0
M  V30 520 H 51.8685 -1.21615 -4.16404 0
M  V30 521 H 52.5395 -0.293287 -5.5122 0
M  V30 522 H 55.0155 0.96013 -4.04871 0
M  V30 523 H 53.8915 1.69454 -5.22088 0
M  V30 524 H 54.1525 2.47011 -3.66658 0
M  V30 525 N 53.2116 1.57565 -0.0334293 0
M  V30 526 C 54.1436 2.0739 0.975811 0
M  V30 527 C 55.1566 0.998166 1.2861 0
M  V30 528 O 56.3456 1.27426 1.25 0
M  V30 529 C 53.4456 2.4871 2.30209 0
M  V30 530 C 52.6186 3.79413 2.17634 0
M  V30 531 C 51.6776 4.07237 3.33233 0
M  V30 532 O 50.7036 4.77425 3.09927 0
M  V30 533 N 51.9056 3.5775 4.5716 0
M  V30 534 H 54.6706 2.94598 0.55066 0
M  V30 535 H 52.2316 1.61173 0.15323 0
M  V30 536 H 54.2236 2.64413 3.06378 0
M  V30 537 H 52.7936 1.66845 2.64351 0
M  V30 538 H 52.0136 3.73465 1.26165 0
M  V30 539 H 53.3016 4.65038 2.0644 0
M  V30 540 H 52.6996 3.00976 4.78989 0
M  V30 541 H 51.2566 3.78724 5.30482 0
M  V30 542 N 54.6897 -0.239769 1.55765 0
M  V30 543 C 55.5997 -1.31831 1.94056 0
M  V30 544 C 56.6157 -1.52275 0.841925 0
M  V30 545 O 57.7917 -1.65759 1.14394 0
M  V30 546 C 54.8567 -2.65156 2.23368 0
M  V30 547 C 53.9177 -2.53173 3.46701 0
M  V30 548 C 53.1507 -3.8014 3.74606 0
M  V30 549 O 53.3737 -4.82343 3.04469 0
M  V30 550 O 52.3077 -3.78344 4.68123 0
M  V30 551 H 56.1337 -1.02347 2.85935 0
M  V30 552 H 53.7187 -0.441123 1.42739 0
M  V30 553 H 55.6007 -3.43929 2.43497 0
M  V30 554 H 54.2757 -2.94358 1.34666 0
M  V30 555 H 53.1827 -1.72662 3.31871 0
M  V30 556 H 54.5157 -2.28915 4.35728 0
M  V30 557 N 56.1678 -1.49265 -0.50573 0
M  V30 558 C 57.4138 -1.59723 -1.25937 0
M  V30 559 C 57.7688 -0.278236 -1.90378 0
M  V30 560 O 57.0618 0.72113 -1.77511 0
M  V30 561 C 57.2558 -2.69008 -2.35308 0
M  V30 562 C 57.0848 -4.11405 -1.81592 0
M  V30 563 C 55.8548 -4.78252 -1.63105 0
M  V30 564 C 58.0528 -4.96792 -1.33048 0
M  V30 565 N 56.0348 -6.0498 -1.04269 0
M  V30 566 C 57.4058 -6.13962 -0.863168 0
M  V30 567 C 59.4608 -4.82828 -1.21577 0
M  V30 568 C 58.1638 -7.18705 -0.292489 0
M  V30 569 C 60.1898 -5.87716 -0.65907 0
M  V30 570 C 59.5518 -7.0411 -0.201954 0
M  V30 571 H 55.6508 -0.638864 -0.450973 0
M  V30 572 H 58.2348 -1.86251 -0.567326 0
M  V30 573 H 56.4058 -2.4426 -3.01979 0
M  V30 574 H 58.1378 -2.69013 -3.02348 0
M  V30 575 H 54.8928 -4.34974 -1.87336 0
M  V30 576 H 55.3168 -6.72631 -0.767919 0
M  V30 577 H 59.9588 -3.93159 -1.55518 0
M  V30 578 H 57.6768 -8.08078 0.0591987 0
M  V30 579 H 61.2628 -5.7897 -0.573156 0
M  V30 580 H 60.1428 -7.83885 0.222101 0
M  V30 581 N 57.6459 0.756429 -1.3826 0
M  V30 582 C 58.8949 1.51082 -1.3363 0
M  V30 583 C 59.2079 1.95467 0.0720068 0
M  V30 584 O 60.4139 2.7043 0.240834 0
M  V30 585 C 58.8699 2.72893 -2.34644 0
M  V30 586 C 58.4779 2.35544 -3.81081 0
M  V30 587 C 60.2219 3.50791 -2.39052 0
M  V30 588 C 58.1289 3.53948 -4.73787 0
M  V30 589 H 57.0589 0.56727 -0.49671 0
M  V30 590 H 59.7099 0.827147 -1.638 0
M  V30 591 H 58.0919 3.43227 -1.97513 0
M  V30 592 H 59.2659 1.72894 -4.27135 0
M  V30 593 H 57.5809 1.70786 -3.79764 0
M  V30 594 H 60.1779 4.38823 -3.05513 0
M  V30 595 H 60.5209 3.91745 -1.40861 0
M  V30 596 H 61.0539 2.87467 -2.74968 0
M  V30 597 H 57.7929 3.18064 -5.73163 0
M  V30 598 H 57.3129 4.15651 -4.32428 0
M  V30 599 H 58.9919 4.20566 -4.91663 0
M  V30 600 N 59.124 1.23083 0.984299 0
M  V30 601 C 60.54 0.992637 1.24975 0
M  V30 602 C 60.74 -0.308618 1.99123 0
M  V30 603 O 59.796 -1.02905 2.30579 0
M  V30 604 C 61.109 2.19698 2.05312 0
M  V30 605 C 62.657 2.24147 2.18465 0
M  V30 606 C 63.132 3.44157 3.02192 0
M  V30 607 N 64.623 3.44372 3.09777 0
M  V30 608 C 65.358 4.33886 3.74874 0
M  V30 609 N 64.854 5.3363 4.41827 0
M  V30 610 N 66.647 4.21639 3.71721 0
M  V30 611 H 58.798 2.06731 0.487453 0
M  V30 612 H 61.061 0.906339 0.277944 0
M  V30 613 H 60.767 3.1411 1.58201 0
M  V30 614 H 60.641 2.20465 3.06064 0
M  V30 615 H 63.028 1.30277 2.64786 0
M  V30 616 H 63.109 2.27415 1.17115 0
M  V30 617 H 62.753 4.38332 2.56568 0
M  V30 618 H 62.683 3.3813 4.03702 0
M  V30 619 H 65.174 2.72201 2.62135 0
M  V30 620 H 65.487 5.98196 4.89266 0
M  V30 621 H 63.832 5.37534 4.40548 0
M  V30 622 H 67.023 3.42962 3.18582 0
M  V30 623 H 67.196 4.91604 4.22173 0
M  V30 624 N 60.6021 -1.18246 1.0419 0
M  V30 625 C 61.5121 -2.25574 0.644476 0
M  V30 626 C 62.5281 -1.70845 -0.329826 0
M  V30 627 O 63.7041 -2.00554 -0.184443 0
M  V30 628 C 60.7691 -3.46697 0.014877 0
M  V30 629 C 59.8301 -4.16554 1.03834 0
M  V30 630 C 59.0631 -5.31894 0.438692 0
M  V30 631 O 59.2861 -5.65385 -0.754752 0
M  V30 632 O 58.2201 -5.90459 1.168 0
M  V30 633 H 62.0461 -2.61836 1.53869 0
M  V30 634 H 59.6311 -1.25352 0.812854 0
M  V30 635 H 61.5131 -4.20062 -0.335538 0
M  V30 636 H 60.1881 -3.12255 -0.853138 0
M  V30 637 H 59.0951 -3.45251 1.44057 0
M  V30 638 H 60.4281 -4.54998 1.87716 0
M  V30 639 N 62.0802 -0.821533 -1.34494 0
M  V30 640 C 63.3262 -0.409552 -1.98622 0
M  V30 641 C 63.6592 1.0244 -1.64984 0
M  V30 642 O 62.9342 1.71325 -0.920758 0
M  V30 643 C 63.2172 -0.610458 -3.54888 0
M  V30 644 C 63.0702 -2.09043 -3.98273 0
M  V30 645 C 64.3892 -0.0455379 -4.40076 0
M  V30 646 H 61.5082 -0.15028 -0.721516 0
M  V30 647 H 64.1502 -1.03384 -1.59411 0
M  V30 648 H 62.3002 -0.079044 -3.8842 0
M  V30 649 H 63.9722 -2.68537 -3.75081 0
M  V30 650 H 62.2152 -2.58139 -3.48635 0
M  V30 651 H 62.8862 -2.18182 -5.07051 0
M  V30 652 H 65.3622 -0.499557 -4.1309 0
M  V30 653 H 64.2382 -0.215922 -5.48475 0
M  V30 654 H 64.4992 1.04939 -4.29465 0
M  V30 655 N 63.5583 1.46682 -0.576371 0
M  V30 656 C 64.9693 1.86112 -0.148091 0
M  V30 657 C 65.3203 1.48073 1.2872 0
M  V30 658 O 64.4453 0.892656 1.97131 0
M  V30 659 C 65.0403 3.37786 -0.261982 0
M  V30 660 C 63.5993 3.76235 0.111384 0
M  V30 661 C 62.7463 2.70713 -0.60083 0
M  V30 662 H 65.6973 1.37927 -0.78497 0
M  V30 663 H 65.7183 3.77007 0.514364 0
M  V30 664 H 65.2303 3.6544 -1.30671 0
M  V30 665 H 63.3313 3.54198 1.15649 0
M  V30 666 H 63.4443 4.78391 -0.26052 0
M  V30 667 H 61.8083 2.54666 -0.0417783 0
M  V30 668 H 62.5913 3.01208 -1.64708 0
M  V30 669 N 65.0364 0.313813 1.54444 0
M  V30 670 C 66.2844 -0.291099 1.99993 0
M  V30 671 C 66.6054 -1.53418 1.20366 0
M  V30 672 O 65.8754 -1.93544 0.302927 0
M  V30 673 H 64.4554 -0.110552 0.738774 0
M  V30 674 H 67.1174 0.428106 1.9014 0
M  V30 675 H 66.2134 -0.554268 3.07139 0
M  V30 676 N 66.5145 -1.57545 0.0417849 0
M  V30 677 C 67.7615 -1.92317 -0.634082 0
M  V30 678 C 68.0895 -0.919334 -1.71402 0
M  V30 679 O 67.3445 0.0698253 -1.95575 0
M  V30 680 C 67.6435 -3.33794 -1.27735 0
M  V30 681 C 67.3095 -4.49716 -0.326543 0
M  V30 682 C 65.9715 -4.81156 -0.0648814 0
M  V30 683 C 68.3235 -5.20182 0.325623 0
M  V30 684 C 65.6515 -5.80414 0.856539 0
M  V30 685 C 68.0035 -6.20424 1.23518 0
M  V30 686 C 66.6675 -6.50298 1.5056 0
M  V30 687 H 65.9375 -0.703736 -0.232027 0
M  V30 688 H 68.5845 -1.91205 0.106259 0
M  V30 689 H 66.8895 -3.31228 -2.09274 0
M  V30 690 H 68.5865 -3.57975 -1.80707 0
M  V30 691 H 65.1765 -4.25176 -0.540665 0
M  V30 692 H 69.3605 -4.96112 0.136546 0
M  V30 693 H 64.6165 -6.019 1.07363 0
M  V30 694 H 68.7905 -6.74141 1.74664 0
M  V30 695 H 66.4175 -7.27025 2.22123 0
M  V30 696 N 67.9926 0.231505 -1.5589 0
M  V30 697 C 68.9226 1.29022 -1.94617 0
M  V30 698 C 69.9036 1.4941 -0.813067 0
M  V30 699 O 71.0886 1.6176 -1.07459 0
M  V30 700 C 68.2186 2.64199 -2.25424 0
M  V30 701 C 67.1726 2.58484 -3.41131 0
M  V30 702 C 66.4986 3.97599 -3.57518 0
M  V30 703 C 67.7986 2.1413 -4.76388 0
M  V30 704 H 69.4926 0.968563 -2.83301 0
M  V30 705 H 67.0386 0.464479 -1.36303 0
M  V30 706 H 68.9916 3.38413 -2.51107 0
M  V30 707 H 67.7156 2.98032 -1.33583 0
M  V30 708 H 66.3746 1.86727 -3.15481 0
M  V30 709 H 66.0226 4.28723 -2.6307 0
M  V30 710 H 65.7226 3.94659 -4.35337 0
M  V30 711 H 67.2466 4.7349 -3.85538 0
M  V30 712 H 68.6606 2.78083 -5.01341 0
M  V30 713 H 67.0576 2.2227 -5.57419 0
M  V30 714 H 68.1276 1.09331 -4.72414 0
M  V30 715 N 69.4707 1.49531 0.497807 0
M  V30 716 C 70.6957 1.63159 1.28039 0
M  V30 717 C 71.1207 0.30418 1.85624 0
M  V30 718 O 70.4787 -0.728618 1.66015 0
M  V30 719 C 70.5267 2.70537 2.38416 0
M  V30 720 O 69.6307 2.29931 3.42353 0
M  V30 721 H 68.9717 0.546001 0.377861 0
M  V30 722 H 71.5017 1.9574 0.59558 0
M  V30 723 H 71.5117 2.92802 2.84132 0
M  V30 724 H 70.1867 3.6689 1.95869 0
M  V30 725 H 68.7637 2.18009 3.02533 0
M  V30 726 N 70.9488 -0.749086 1.3866 0
M  V30 727 C 71.9118 -1.84457 1.36045 0
M  V30 728 C 72.9118 -1.58682 0.260122 0
M  V30 729 O 74.1018 -1.66343 0.517261 0
M  V30 730 C 71.2338 -3.22008 1.11911 0
M  V30 731 H 72.4268 -1.88182 2.33512 0
M  V30 732 H 69.9798 -0.951266 1.24019 0
M  V30 733 H 70.7148 -3.2395 0.150686 0
M  V30 734 H 70.4998 -3.42111 1.91579 0
M  V30 735 H 71.9898 -4.0208 1.12788 0
M  V30 736 N 72.4269 -1.23603 -0.977757 0
M  V30 737 C 73.6549 -1.09646 -1.75458 0
M  V30 738 C 74.0699 0.351859 -1.85492 0
M  V30 739 O 73.4269 1.24327 -1.336 0
M  V30 740 C 73.4779 -1.71895 -3.18016 0
M  V30 741 O 73.1989 -3.11063 -3.08498 0
M  V30 742 C 74.6999 -1.63415 -4.12081 0
M  V30 743 H 71.9199 -0.38359 -0.550545 0
M  V30 744 H 74.4639 -1.63507 -1.22824 0
M  V30 745 H 72.6189 -1.22061 -3.67668 0
M  V30 746 H 73.0329 -3.41305 -3.9826 0
M  V30 747 H 74.5069 -2.11669 -5.09804 0
M  V30 748 H 74.9839 -0.593462 -4.35172 0
M  V30 749 H 75.5899 -2.12628 -3.68334 0
M  V30 750 N 73.905 1.17692 -1.04816 0
M  V30 751 C 75.135 1.91508 -0.775128 0
M  V30 752 C 75.543 1.76844 0.67253 0
M  V30 753 O 74.886 1.10057 1.47082 0
M  V30 754 C 74.948 3.43167 -1.0713 0
M  V30 755 C 74.612 3.81612 -2.51438 0
M  V30 756 C 75.609 3.84772 -3.49638 0
M  V30 757 C 73.294 4.12687 -2.86348 0
M  V30 758 C 75.288 4.18469 -4.80794 0
M  V30 759 C 72.975 4.46053 -4.17708 0
M  V30 760 C 73.973 4.48921 -5.14741 0
M  V30 761 O 73.661 4.81504 -6.43746 0
M  V30 762 H 73.393 0.614575 -0.281555 0
M  V30 763 H 75.947 1.50206 -1.40098 0
M  V30 764 H 74.177 3.84745 -0.388342 0
M  V30 765 H 75.866 3.98239 -0.784883 0
M  V30 766 H 76.632 3.60893 -3.24008 0
M  V30 767 H 72.511 4.09627 -2.11486 0
M  V30 768 H 76.055 4.20623 -5.56527 0
M  V30 769 H 71.952 4.69393 -4.43103 0
M  V30 770 H 72.72 4.99377 -6.4851 0
M  V30 771 N 75.3831 0.828654 1.34056 0
M  V30 772 C 76.3331 0.226828 2.26869 0
M  V30 773 C 77.3171 -0.612243 1.48796 0
M  V30 774 O 78.5091 -0.465884 1.70759 0
M  V30 775 C 75.6381 -0.605654 3.37915 0
M  V30 776 C 74.7241 0.244361 4.23395 0
M  V30 777 N 75.1151 1.31815 4.88322 0
M  V30 778 C 73.4131 0.0296616 4.4599 0
M  V30 779 C 74.1141 1.83895 5.51867 0
M  V30 780 N 73.0901 1.14196 5.3147 0
M  V30 781 H 76.8921 1.04811 2.74576 0
M  V30 782 H 74.4061 0.67205 1.47842 0
M  V30 783 H 76.4031 -1.05302 4.03382 0
M  V30 784 H 75.0631 -1.42504 2.91758 0
M  V30 785 H 76.0741 1.70099 4.8917 0
M  V30 786 H 72.7511 -0.757097 4.10578 0
M  V30 787 H 74.1411 2.7376 6.136 0
M  V30 788 N 76.8612 -1.46375 0.584142 0
M  V30 789 C 77.8242 -2.28784 -0.138108 0
M  V30 790 C 78.8242 -1.38471 -0.817462 0
M  V30 791 O 80.0142 -1.60833 -0.669199 0
M  V30 792 C 77.1462 -3.18892 -1.20503 0
M  V30 793 H 78.3392 -2.94117 0.586127 0
M  V30 794 H 75.8922 -1.52509 0.342171 0
M  V30 795 H 76.6272 -2.58309 -1.96079 0
M  V30 796 H 76.4122 -3.85388 -0.722384 0
M  V30 797 H 77.9022 -3.80914 -1.71155 0
M  V30 798 N 78.3393 -0.321999 -1.54275 0
M  V30 799 C 79.5643 0.285791 -2.05422 0
M  V30 800 C 79.9893 1.45124 -1.19669 0
M  V30 801 O 79.3473 1.80132 -0.205441 0
M  V30 802 C 79.3953 0.69956 -3.53749 0
M  V30 803 O 78.4993 1.8021 -3.70942 0
M  V30 804 H 77.8403 0.0518962 -0.661969 0
M  V30 805 H 80.3703 -0.469954 -1.9913 0
M  V30 806 H 80.3803 0.982649 -3.9599 0
M  V30 807 H 79.0553 -0.152864 -4.15619 0
M  V30 808 H 77.6323 1.51794 -3.40607 0
M  V30 809 N 79.8174 1.5752 -0.0501392 0
M  V30 810 C 81.0454 1.96963 0.633492 0
M  V30 811 C 81.4604 0.927631 1.6444 0
M  V30 812 O 80.8174 -0.0882665 1.82286 0
M  V30 813 C 80.8684 3.36487 1.32132 0
M  V30 814 O 80.5894 4.36693 0.350894 0
M  V30 815 C 82.0904 3.90682 2.09481 0
M  V30 816 H 79.3104 0.648244 0.173266 0
M  V30 817 H 81.8544 2.0417 -0.116134 0
M  V30 818 H 80.0094 3.30434 2.02218 0
M  V30 819 H 80.4234 5.17702 0.841735 0
M  V30 820 H 81.8974 4.90591 2.5303 0
M  V30 821 H 82.3744 3.26053 2.94255 0
M  V30 822 H 82.9804 4.00069 1.44307 0
M  V30 823 N 81.2955 -0.223234 1.56011 0
M  V30 824 C 82.5725 -0.972108 1.69733 0
M  V30 825 C 82.9525 -2.02485 0.59691 0
M  V30 826 O 82.3005 -2.25037 -0.396324 0
M  V30 827 C 82.5105 -1.58407 3.10979 0
M  V30 828 C 83.8585 -2.07696 3.70334 0
M  V30 829 O 84.8825 -1.68304 3.1393 0
M  V30 830 O 83.7415 -2.80096 4.69264 0
M  V30 831 H 80.8355 -0.453993 0.691245 0
M  V30 832 H 83.3815 -0.215149 1.68331 0
M  V30 833 H 82.1535 -0.823831 3.82529 0
M  V30 834 H 81.7765 -2.40661 3.16493 0
M  V30 835 N 82.7736 -1.49793 -0.48987 0
M  V30 836 C 84.0216 -1.59525 -1.24081 0
M  V30 837 C 84.3426 -0.288953 -1.92847 0
M  V30 838 O 83.6126 0.692436 -1.83254 0
M  V30 839 H 82.1926 -0.587796 -0.460983 0
M  V30 840 H 84.8546 -1.86477 -0.566778 0
M  V30 841 H 83.9506 -2.39696 -1.99881 0
M  V30 842 N 84.2517 0.741722 -1.39055 0
M  V30 843 C 85.4797 1.53098 -1.39171 0
M  V30 844 C 85.8947 1.88794 0.0155099 0
M  V30 845 O 85.2517 1.53626 0.985159 0
M  V30 846 C 85.3027 2.82274 -2.2584 0
M  V30 847 O 85.0237 2.48097 -3.61081 0
M  V30 848 C 86.5247 3.76343 -2.34266 0
M  V30 849 H 83.7447 0.473335 -0.4756 0
M  V30 850 H 86.2887 0.917045 -1.82785 0
M  V30 851 H 84.4437 3.40015 -1.85656 0
M  V30 852 H 84.8577 3.31029 -4.06842 0
M  V30 853 H 86.3317 4.63898 -2.9917 0
M  V30 854 H 86.8087 4.17619 -1.35982 0
M  V30 855 H 87.4147 3.24523 -2.74891 0
M  V30 856 N 85.7298 1.2412 0.971189 0
M  V30 857 C 86.6928 1.03156 2.04674 0
M  V30 858 C 87.6928 -0.00990322 1.60797 0
M  V30 859 O 88.8828 0.230729 1.72665 0
M  V30 860 C 86.0148 0.562765 3.36223 0
M  V30 861 H 87.2078 1.98614 2.24705 0
M  V30 862 H 84.7608 1.06293 1.14593 0
M  V30 863 H 85.4958 -0.395176 3.21883 0
M  V30 864 H 85.2808 1.31441 3.69413 0
M  V30 865 H 86.7708 0.437015 4.15307 0
M  V30 866 N 87.2079 -1.17134 1.05439 0
M  V30 867 C 88.4539 -1.87733 0.767077 0
M  V30 868 C 88.7869 -1.8098 -0.704253 0
M  V30 869 O 88.0619 -1.21951 -1.5152 0
M  V30 870 C 88.3449 -3.37659 1.25133 0
M  V30 871 C 88.1979 -3.53149 2.78578 0
M  V30 872 C 89.5169 -4.31768 0.852324 0
M  V30 873 H 86.6359 -0.681687 0.280129 0
M  V30 874 H 89.2779 -1.37732 1.30881 0
M  V30 875 H 87.4279 -3.80373 0.790469 0
M  V30 876 H 89.0999 -3.19434 3.32806 0
M  V30 877 H 87.3429 -2.95345 3.17732 0
M  V30 878 H 88.0139 -4.58403 3.07523 0
M  V30 879 H 90.4899 -3.96909 1.24911 0
M  V30 880 H 89.3659 -5.35199 1.21873 0
M  V30 881 H 89.6269 -4.41429 -0.243485 0
M  V30 882 N 88.686 -0.835752 -1.33615 0
M  V30 883 C 89.932 -0.430596 -1.98176 0
M  V30 884 C 90.265 1.00684 -1.66061 0
M  V30 885 O 89.54 1.70339 -0.938877 0
M  V30 886 C 89.823 -0.648065 -3.5422 0
M  V30 887 C 89.676 -2.13255 -3.96033 0
M  V30 888 C 90.995 -0.0922113 -4.40003 0
M  V30 889 H 88.114 -0.157924 -0.719881 0
M  V30 890 H 90.756 -1.05069 -1.58305 0
M  V30 891 H 88.906 -0.120237 -3.88314 0
M  V30 892 H 90.578 -2.725 -3.72211 0
M  V30 893 H 88.821 -2.61823 -3.45878 0
M  V30 894 H 89.492 -2.23547 -5.04708 0
M  V30 895 H 91.968 -0.543343 -4.12537 0
M  V30 896 H 90.844 -0.274083 -5.48215 0
M  V30 897 H 91.105 1.00378 -4.30554 0
M  V30 898 N 90.1641 1.46063 -0.591896 0
M  V30 899 C 91.1121 2.32124 0.148739 0
M  V30 900 C 92.1061 1.45035 0.875286 0
M  V30 901 O 93.3121 1.61609 0.792632 0
M  V30 902 H 89.6871 0.749024 0.066832 0
M  V30 903 H 91.6581 2.92392 -0.595783 0
M  V30 904 C 90.4071 3.28373 1.1431 0
M  V30 905 H 89.7301 3.95371 0.59346 0
M  V30 906 H 91.1701 3.91352 1.63155 0
M  V30 907 C 89.6291 2.54393 2.20875 0
M  V30 908 O 90.1591 2.31373 3.28374 0
M  V30 909 N 88.3651 2.14797 1.95731 0
M  V30 910 H 87.9121 2.33719 1.08319 0
M  V30 911 H 87.8701 1.65619 2.67241 0
M  V30 912 N 91.6422 0.330177 1.54103 0
M  V30 913 C 92.8722 -0.271784 2.04805 0
M  V30 914 C 93.2802 -1.45816 1.20559 0
M  V30 915 O 92.6232 -1.82247 0.2306 0
M  V30 916 C 92.6852 -0.763238 3.51305 0
M  V30 917 C 92.3492 0.301705 4.56003 0
M  V30 918 C 93.3462 1.13999 5.07248 0
M  V30 919 C 91.0312 0.451793 5.00264 0
M  V30 920 C 93.0252 2.11402 6.01322 0
M  V30 921 C 90.7122 1.42924 5.94151 0
M  V30 922 C 91.7102 2.25882 6.44567 0
M  V30 923 O 91.3982 3.21965 7.3661 0
M  V30 924 H 91.1302 -0.058693 0.673447 0
M  V30 925 H 93.6842 0.476395 1.99799 0
M  V30 926 H 91.9142 -1.56244 3.5373 0
M  V30 927 H 93.6032 -1.28427 3.85047 0
M  V30 928 H 94.3692 1.03505 4.73827 0
M  V30 929 H 90.2482 -0.184044 4.60632 0
M  V30 930 H 93.7922 2.76192 6.40596 0
M  V30 931 H 89.6892 1.53479 6.26988 0
M  V30 932 H 90.4572 3.17281 7.54503 0
M  V30 933 N 93.1203 -1.57491 0.0584922 0
M  V30 934 C 94.0833 -2.1085 -0.898617 0
M  V30 935 C 95.0833 -1.02964 -1.23511 0
M  V30 936 O 96.2733 -1.29007 -1.17059 0
M  V30 937 C 93.4053 -2.59881 -2.20623 0
M  V30 938 H 94.5983 -2.96715 -0.435936 0
M  V30 939 H 92.1513 -1.55141 -0.190023 0
M  V30 940 H 92.8863 -1.77431 -2.71457 0
M  V30 941 H 92.6713 -3.38727 -1.97501 0
M  V30 942 H 94.1613 -3.01285 -2.89166 0
M  V30 943 N 94.5984 0.214957 -1.56127 0
M  V30 944 C 95.5304 1.29004 -1.89448 0
M  V30 945 C 96.5434 1.42716 -0.783326 0
M  V30 946 O 97.7324 1.43496 -1.06166 0
M  V30 947 C 94.8324 2.66482 -2.09381 0
M  V30 948 C 94.0054 2.74633 -3.40434 0
M  V30 949 C 93.0644 3.9317 -3.49719 0
M  V30 950 O 92.0904 3.812 -4.227 0
M  V30 951 N 93.2924 5.07765 -2.81346 0
M  V30 952 H 96.0574 1.00743 -2.82261 0
M  V30 953 H 93.6184 0.40497 -1.56753 0
M  V30 954 H 95.6104 3.44173 -2.12901 0
M  V30 955 H 94.1804 2.87314 -1.23163 0
M  V30 956 H 93.4004 1.83368 -3.48955 0
M  V30 957 H 94.6884 2.77054 -4.26754 0
M  V30 958 H 94.0864 5.20386 -2.21843 0
M  V30 959 H 92.6434 5.83474 -2.90519 0
M  V30 960 N 96.0765 1.50051 0.48192 0
M  V30 961 C 97.3225 1.61706 1.2338 0
M  V30 962 C 97.6775 0.308488 1.89911 0
M  V30 963 O 96.9705 -0.692798 1.78636 0
M  V30 964 C 97.1645 2.72717 2.30998 0
M  V30 965 C 96.9935 4.14242 1.75024 0
M  V30 966 C 95.7635 4.80786 1.55476 0
M  V30 967 C 97.9615 4.98846 1.25128 0
M  V30 968 N 95.9435 6.06563 0.946311 0
M  V30 969 C 97.3145 6.15258 0.765382 0
M  V30 970 C 99.3695 4.84702 1.13881 0
M  V30 971 C 98.0725 7.19079 0.178113 0
M  V30 972 C 100.098 5.8869 0.565486 0
M  V30 973 C 99.4605 7.04343 0.0899105 0
M  V30 974 H 95.5595 0.645958 0.440753 0
M  V30 975 H 98.1435 1.8713 0.537624 0
M  V30 976 H 96.3145 2.49033 2.98055 0
M  V30 977 H 98.0465 2.73789 2.9803 0
M  V30 978 H 94.8015 4.37899 1.80392 0
M  V30 979 H 95.2255 6.73767 0.660812 0
M  V30 980 H 99.8675 3.95583 1.49244 0
M  V30 981 H 97.5855 8.07882 -0.187749 0
M  V30 982 H 101.171 5.79808 0.480974 0
M  V30 983 H 100.051 7.83433 -0.346782 0
M  V30 984 N 97.5546 -0.734337 1.39446 0
M  V30 985 C 98.4646 -1.87879 1.40495 0
M  V30 986 C 99.4806 -1.714 0.299672 0
M  V30 987 O 100.657 -1.93991 0.541249 0
M  V30 988 C 97.7216 -3.23477 1.24754 0
M  V30 989 C 96.7826 -3.52344 2.45259 0
M  V30 990 C 96.0156 -4.81473 2.30259 0
M  V30 991 O 96.2386 -5.55237 1.30643 0
M  V30 992 O 95.1726 -5.10254 3.19256 0
M  V30 993 H 98.9986 -1.89949 2.36966 0
M  V30 994 H 96.5836 -0.882243 1.20569 0
M  V30 995 H 98.4656 -4.04509 1.18111 0
M  V30 996 H 97.1406 -3.22176 0.313781 0
M  V30 997 H 96.0476 -2.71396 2.57478 0
M  V30 998 H 97.3806 -3.58426 3.37331 0
M  V30 999 N 99.0327 -1.24633 -0.964593 0
M  V30 1000 C 100.258 -1.11596 -1.74818 0
M  V30 1001 C 100.683 0.32723 -1.85232 0
M  V30 1002 O 100.041 1.23695 -1.32549 0
M  V30 1003 C 100.089 -1.76397 -3.1451 0
M  V30 1004 O 99.1927 -1.03685 -3.99153 0
M  V30 1005 H 98.5337 -0.390196 -0.537255 0
M  V30 1006 H 101.064 -1.65002 -1.20977 0
M  V30 1007 H 101.074 -1.8228 -3.65018 0
M  V30 1008 H 99.7487 -2.81401 -3.06246 0
M  V30 1009 H 98.3257 -1.05611 -3.57632 0
M  V30 1010 N 100.511 1.16574 -1.06058 0
M  V30 1011 C 101.421 2.2452 -0.680282 0
M  V30 1012 C 102.437 1.71348 0.302604 0
M  V30 1013 O 103.613 2.00822 0.152513 0
M  V30 1014 C 100.678 3.46629 -0.0700315 0
M  V30 1015 C 99.7388 4.14849 -1.10448 0
M  V30 1016 C 98.9718 5.31129 -0.523256 0
M  V30 1017 O 99.1948 5.66514 0.664709 0
M  V30 1018 O 98.1288 5.88526 -1.26179 0
M  V30 1019 H 101.955 2.59355 -1.58015 0
M  V30 1020 H 99.5398 1.24043 -0.832694 0
M  V30 1021 H 101.422 4.20543 0.268667 0
M  V30 1022 H 100.097 3.13573 0.803353 0
M  V30 1023 H 99.0038 3.42916 -1.49532 0
M  V30 1024 H 100.337 4.51954 -1.94931 0
M  V30 1025 N 101.989 0.842826 1.3317 0
M  V30 1026 C 102.921 0.236245 2.27979 0
M  V30 1027 C 103.934 -0.585282 1.51915 0
M  V30 1028 O 105.123 -0.411705 1.73687 0
M  V30 1029 C 102.223 -0.685717 3.3189 0
M  V30 1030 C 101.396 0.0973448 4.37292 0
M  V30 1031 C 100.455 -0.748565 5.20848 0
M  V30 1032 O 99.4809 -0.186339 5.68895 0
M  V30 1033 N 100.683 -2.06527 5.42519 0
M  V30 1034 H 103.448 1.05088 2.80672 0
M  V30 1035 H 101.009 0.701667 1.45905 0
M  V30 1036 H 103.001 -1.25669 3.84694 0
M  V30 1037 H 101.571 -1.40105 2.79445 0
M  V30 1038 H 100.791 0.849706 3.84933 0
M  V30 1039 H 102.079 0.635643 5.04814 0
M  V30 1040 H 101.477 -2.54554 5.05192 0
M  V30 1041 H 100.034 -2.58464 5.98364 0
M  V30 1042 N 103.467 -1.45747 0.599634 0
M  V30 1043 C 104.43 -2.28917 -0.113835 0
M  V30 1044 C 105.43 -1.3933 -0.802729 0
M  V30 1045 O 106.62 -1.61534 -0.652103 0
M  V30 1046 C 103.752 -3.20152 -1.17114 0
M  V30 1047 H 104.945 -2.93478 0.617289 0
M  V30 1048 H 102.498 -1.52137 0.358327 0
M  V30 1049 H 103.233 -2.60374 -1.93329 0
M  V30 1050 H 103.018 -3.86133 -0.681468 0
M  V30 1051 H 104.508 -3.82708 -1.67105 0
M  V30 1052 N 104.945 -0.338344 -1.53925 0
M  V30 1053 C 106.175 0.260919 -2.04946 0
M  V30 1054 C 106.583 1.45174 -1.2133 0
M  V30 1055 O 105.926 1.82122 -0.240262 0
M  V30 1056 C 105.988 0.744596 -3.51704 0
M  V30 1057 C 105.652 -0.325883 -4.55837 0
M  V30 1058 C 106.649 -1.16687 -5.06636 0
M  V30 1059 C 104.334 -0.478317 -5.00017 0
M  V30 1060 C 106.328 -2.14588 -6.00192 0
M  V30 1061 C 104.015 -1.46073 -5.93385 0
M  V30 1062 C 105.013 -2.29297 -6.4336 0
M  V30 1063 O 104.701 -3.25867 -7.34892 0
M  V30 1064 H 104.433 0.0551207 -0.673749 0
M  V30 1065 H 106.987 -0.486984 -1.99544 0
M  V30 1066 H 105.217 1.54366 -3.54553 0
M  V30 1067 H 106.906 1.26383 -3.85723 0
M  V30 1068 H 107.672 -1.06016 -4.73271 0
M  V30 1069 H 103.551 0.159613 -4.60724 0
M  V30 1070 H 107.095 -2.79585 -6.39123 0
M  V30 1071 H 102.992 -1.56802 -6.26166 0
M  V30 1072 H 103.76 -3.21278 -7.5281 0
M  V30 1073 N 106.423 1.57458 -0.0668435 0
M  V30 1074 C 107.839 1.56947 0.289772 0
M  V30 1075 C 108.039 1.07584 1.70376 0
M  V30 1076 O 107.095 0.739486 2.41429 0
M  V30 1077 C 108.408 3.0052 0.103943 0
M  V30 1078 C 109.956 3.12517 0.173857 0
M  V30 1079 C 110.431 4.57997 0.0163682 0
M  V30 1080 N 111.922 4.63144 0.0721352 0
M  V30 1081 C 112.657 5.73394 -0.0253794 0
M  V30 1082 N 112.153 6.92576 -0.176133 0
M  V30 1083 N 113.946 5.62091 0.0313305 0
M  V30 1084 H 106.097 1.87863 -0.991027 0
M  V30 1085 H 108.36 0.86583 -0.38606 0
M  V30 1086 H 108.066 3.40729 -0.871572 0
M  V30 1087 H 107.94 3.67304 0.858366 0
M  V30 1088 H 110.327 2.72197 1.13985 0
M  V30 1089 H 110.408 2.48381 -0.611586 0
M  V30 1090 H 110.052 4.99005 -0.946374 0
M  V30 1091 H 109.982 5.20158 0.821153 0
M  V30 1092 H 112.473 3.77436 0.187263 0
M  V30 1093 H 112.786 7.72418 -0.242821 0
M  V30 1094 H 111.131 6.94678 -0.211429 0
M  V30 1095 H 114.322 4.67867 0.147773 0
M  V30 1096 H 114.495 6.47982 -0.048121 0
M  V30 1097 N 107.901 -0.206675 1.56239 0
M  V30 1098 C 109.147 -0.930218 1.80208 0
M  V30 1099 C 109.48 -1.83387 0.638981 0
M  V30 1100 O 108.755 -1.91119 -0.361066 0
M  V30 1101 C 109.038 -1.75641 3.1436 0
M  V30 1102 C 108.891 -0.878257 4.41142 0
M  V30 1103 C 110.21 -2.73129 3.45092 0
M  V30 1104 H 107.329 -0.336742 0.655571 0
M  V30 1105 H 109.971 -0.198222 1.88963 0
M  V30 1106 H 108.121 -2.38048 3.07027 0
M  V30 1107 H 109.793 -0.269787 4.6051 0
M  V30 1108 H 108.036 -0.184385 4.33408 0
M  V30 1109 H 108.707 -1.49106 5.3148 0
M  V30 1110 H 111.183 -2.20856 3.52649 0
M  V30 1111 H 110.059 -3.28028 4.40101 0
M  V30 1112 H 110.32 -3.51606 2.68003 0
M  V30 1113 N 109.379 -1.50304 -0.473955 0
M  V30 1114 C 110.327 -1.69482 -1.59307 0
M  V30 1115 C 111.321 -0.560669 -1.59853 0
M  V30 1116 O 112.527 -0.741087 -1.64036 0
M  V30 1117 H 108.902 -0.534892 -0.528578 0
M  V30 1118 H 110.873 -2.63364 -1.40293 0
M  V30 1119 C 109.622 -1.80354 -2.97267 0
M  V30 1120 H 108.945 -2.67012 -2.97564 0
M  V30 1121 H 110.385 -1.97798 -3.75036 0
M  V30 1122 C 108.844 -0.55448 -3.32306 0
M  V30 1123 O 109.374 0.307661 -4.0052 0
M  V30 1124 N 107.58 -0.409354 -2.87702 0
M  V30 1125 H 107.127 -1.11196 -2.32364 0
M  V30 1126 H 107.085 0.425223 -3.11511 0
M  V30 1127 N 110.857 0.726932 -1.39834 0
M  V30 1128 C 112.104 1.48664 -1.37496 0
M  V30 1129 C 112.432 1.94482 0.0264678 0
M  V30 1130 O 111.687 1.67692 1.00886 0
M  V30 1131 C 111.986 2.73495 -2.30077 0
M  V30 1132 C 111.652 2.46502 -3.77555 0
M  V30 1133 C 110.314 2.3885 -4.17737 0
M  V30 1134 C 112.666 2.23604 -4.70798 0
M  V30 1135 C 109.994 2.06352 -5.49214 0
M  V30 1136 C 112.346 1.92622 -6.02561 0
M  V30 1137 C 111.01 1.83444 -6.41798 0
M  V30 1138 H 110.28 0.544001 -0.503135 0
M  V30 1139 H 112.927 0.833657 -1.72402 0
M  V30 1140 H 111.232 3.43575 -1.88317 0
M  V30 1141 H 112.929 3.31549 -2.25558 0
M  V30 1142 H 109.519 2.5334 -3.45712 0
M  V30 1143 H 113.703 2.28479 -4.40581 0
M  V30 1144 H 108.959 1.97776 -5.78528 0
M  V30 1145 H 113.133 1.73914 -6.74334 0
M  V30 1146 H 110.76 1.58029 -7.43593 0
M  V30 1147 N 112.336 1.25143 0.95797 0
M  V30 1148 C 113.584 1.09476 1.69881 0
M  V30 1149 C 113.905 -0.365502 1.91544 0
M  V30 1150 O 113.175 -1.25985 1.50015 0
M  V30 1151 H 111.755 0.402128 0.629525 0
M  V30 1152 H 114.417 1.57214 1.15194 0
M  V30 1153 H 113.513 1.60046 2.6794 0
M  V30 1154 N 113.814 -1.1601 1.06675 0
M  V30 1155 C 114.777 -2.18724 0.685001 0
M  V30 1156 C 115.777 -1.58496 -0.271246 0
M  V30 1157 O 116.967 -1.74119 -0.0531156 0
M  V30 1158 C 114.099 -3.40899 0.00853648 0
M  V30 1159 H 115.292 -2.54011 1.59431 0
M  V30 1160 H 112.845 -1.30352 0.862441 0
M  V30 1161 H 113.58 -3.11173 -0.913337 0
M  V30 1162 H 113.365 -3.8587 0.696204 0
M  V30 1163 H 114.855 -4.16886 -0.24414 0
M  V30 1164 N 115.292 -0.849877 -1.32721 0
M  V30 1165 C 116.569 -0.372405 -1.92022 0
M  V30 1166 C 116.949 1.1435 -1.77447 0
M  V30 1167 O 116.297 1.96296 -1.16962 0
M  V30 1168 C 116.507 -0.831482 -3.3895 0
M  V30 1169 C 117.855 -0.845882 -4.16089 0
M  V30 1170 O 118.879 -0.775806 -3.47649 0
M  V30 1171 O 117.738 -0.943753 -5.38289 0
M  V30 1172 H 114.832 -0.107667 -0.819961 0
M  V30 1173 H 117.378 -0.93646 -1.41522 0
M  V30 1174 H 116.15 -1.87448 -3.4348 0
M  V30 1175 H 115.773 -0.24461 -3.96847 0
M  V30 1176 N 116.77 1.45427 -0.607355 0
M  V30 1177 C 118.181 1.85756 -0.187535 0
M  V30 1178 C 118.532 1.5077 1.25551 0
M  V30 1179 O 117.657 0.93427 1.95193 0
M  V30 1180 C 118.252 3.37154 -0.333572 0
M  V30 1181 C 116.811 3.76387 0.0315542 0
M  V30 1182 C 115.958 2.69377 -0.658117 0
M  V30 1183 H 118.909 1.36231 -0.81405 0
M  V30 1184 H 118.93 3.78014 0.43428 0
M  V30 1185 H 118.442 3.62586 -1.38393 0
M  V30 1186 H 116.543 3.56571 1.0811 0
M  V30 1187 H 116.656 4.77731 -0.361935 0
M  V30 1188 H 115.02 2.5452 -0.0957873 0
M  V30 1189 H 115.803 2.97646 -1.7106 0
M  V30 1190 N 118.248 0.346503 1.53744 0
M  V30 1191 C 119.664 -0.00530975 1.59599 0
M  V30 1192 C 119.864 -1.48465 1.36236 0
M  V30 1193 O 118.92 -2.24376 1.15808 0
M  V30 1194 C 120.233 0.433516 2.97559 0
M  V30 1195 C 121.781 0.386111 3.10609 0
M  V30 1196 C 122.256 0.800451 4.50951 0
M  V30 1197 N 123.747 0.754753 4.5701 0
M  V30 1198 C 124.482 1.04727 5.63755 0
M  V30 1199 N 123.978 1.4081 6.7834 0
M  V30 1200 N 125.771 0.971316 5.53644 0
M  V30 1201 H 117.922 1.31009 1.67184 0
M  V30 1202 H 120.185 0.534242 0.783128 0
M  V30 1203 H 119.891 1.46509 3.19731 0
M  V30 1204 H 119.765 -0.189753 3.76722 0
M  V30 1205 H 122.152 -0.636295 2.88158 0
M  V30 1206 H 122.233 1.04462 2.33498 0
M  V30 1207 H 121.877 1.82088 4.74137 0
M  V30 1208 H 121.807 0.119386 5.26465 0
M  V30 1209 H 124.298 0.488662 3.74727 0
M  V30 1210 H 124.611 1.61607 7.55714 0
M  V30 1211 H 122.956 1.44657 6.79779 0
M  V30 1212 H 126.147 0.688748 4.63005 0
M  V30 1213 H 126.32 1.20263 6.36742 0
M  V30 1214 N 119.726 -1.57421 0.075193 0
M  V30 1215 C 120.951 -1.98364 -0.605515 0
M  V30 1216 C 121.376 -0.953383 -1.62149 0
M  V30 1217 O 120.734 0.0806053 -1.81121 0
M  V30 1218 C 120.782 -3.38332 -1.24756 0
M  V30 1219 O 119.886 -3.37959 -2.36342 0
M  V30 1220 H 119.227 -0.645553 -0.155428 0
M  V30 1221 H 121.757 -2.04044 0.150714 0
M  V30 1222 H 121.767 -3.75591 -1.5936 0
M  V30 1223 H 120.442 -4.12846 -0.503129 0
M  V30 1224 H 119.019 -3.12474 -2.03506 0
M  V30 1225 N 121.204 0.198386 -1.56346 0
M  V30 1226 C 122.167 1.22952 -1.93431 0
M  V30 1227 C 123.167 1.38611 -0.815092 0
M  V30 1228 O 124.357 1.36479 -1.08255 0
M  V30 1229 C 121.489 2.59946 -2.20546 0
M  V30 1230 H 122.682 0.912626 -2.85677 0
M  V30 1231 H 120.235 0.43977 -1.49986 0
M  V30 1232 H 120.97 2.96696 -1.30927 0
M  V30 1233 H 120.755 2.49953 -3.02102 0
M  V30 1234 H 122.245 3.3431 -2.50253 0
M  V30 1235 N 122.682 1.50554 0.465978 0
M  V30 1236 C 123.592 1.72585 1.58907 0
M  V30 1237 C 124.608 0.60911 1.6299 0
M  V30 1238 O 125.784 0.88804 1.80765 0
M  V30 1239 C 122.849 1.81995 2.95091 0
M  V30 1240 C 121.91 3.05751 3.01355 0
M  V30 1241 C 121.143 3.14702 4.31043 0
M  V30 1242 O 121.366 2.30313 5.21835 0
M  V30 1243 O 120.3 4.07468 4.43005 0
M  V30 1244 H 124.126 2.67799 1.43239 0
M  V30 1245 H 121.711 1.34711 0.646013 0
M  V30 1246 H 123.593 1.90335 3.75966 0
M  V30 1247 H 122.268 0.899659 3.10947 0
M  V30 1248 H 121.175 3.02908 2.19539 0
M  V30 1249 H 122.508 3.97375 2.90437 0
M  V30 1250 N 124.16 -0.719506 1.40217 0
M  V30 1251 C 125.09 -1.8465 1.42922 0
M  V30 1252 C 126.071 -1.67599 0.29062 0
M  V30 1253 O 127.256 -1.87688 0.498677 0
M  V30 1254 C 124.386 -3.22565 1.28722 0
M  V30 1255 C 123.34 -3.54281 2.40144 0
M  V30 1256 C 122.666 -4.91298 2.11023 0
M  V30 1257 C 123.966 -3.55676 3.82481 0
M  V30 1258 H 125.66 -1.82644 2.37237 0
M  V30 1259 H 123.206 -0.877305 1.1419 0
M  V30 1260 H 125.159 -4.01095 1.29232 0
M  V30 1261 H 123.883 -3.25137 0.308811 0
M  V30 1262 H 122.542 -2.78088 2.38877 0
M  V30 1263 H 122.19 -4.90468 1.11582 0
M  V30 1264 H 121.89 -5.13485 2.8567 0
M  V30 1265 H 123.414 -5.72166 2.13209 0
M  V30 1266 H 124.828 -4.24254 3.85592 0
M  V30 1267 H 123.225 -3.89388 4.56614 0
M  V30 1268 H 124.295 -2.55144 4.12346 0
M  V30 1269 N 125.638 -1.25649 -0.95132 0
M  V30 1270 C 127.054 -1.02542 -1.223 0
M  V30 1271 C 127.254 0.255715 -1.99871 0
M  V30 1272 O 126.31 0.967558 -2.33226 0
M  V30 1273 C 127.623 -2.25065 -1.99415 0
M  V30 1274 C 129.171 -2.29861 -2.12446 0
M  V30 1275 C 129.646 -3.52048 -2.92961 0
M  V30 1276 N 131.137 -3.52465 -3.00538 0
M  V30 1277 C 131.872 -4.43672 -3.63239 0
M  V30 1278 N 131.368 -5.45157 -4.27523 0
M  V30 1279 N 133.161 -4.31346 -3.60412 0
M  V30 1280 H 125.312 -2.07951 -0.432471 0
M  V30 1281 H 127.575 -0.91339 -0.253816 0
M  V30 1282 H 127.281 -3.18194 -1.49817 0
M  V30 1283 H 127.155 -2.28502 -3.00111 0
M  V30 1284 H 129.542 -1.37252 -2.61239 0
M  V30 1285 H 129.623 -2.3044 -1.11044 0
M  V30 1286 H 129.267 -4.44981 -2.44856 0
M  V30 1287 H 129.197 -3.48715 -3.94596 0
M  V30 1288 H 131.688 -2.79056 -2.54826 0
M  V30 1289 H 132.001 -6.10958 -4.73234 0
M  V30 1290 H 130.346 -5.49025 -4.26141 0
M  V30 1291 H 133.537 -3.51288 -3.09377 0
M  V30 1292 H 133.71 -5.02624 -4.0899 0
M  V30 1293 N 127.117 1.15442 -1.07289 0
M  V30 1294 C 128.027 2.23786 -0.704057 0
M  V30 1295 C 129.043 1.7166 0.284413 0
M  V30 1296 O 130.219 2.00972 0.131205 0
M  V30 1297 C 127.284 3.46535 -0.106792 0
M  V30 1298 C 126.345 4.13654 -1.14842 0
M  V30 1299 C 125.578 5.30544 -0.57956 0
M  V30 1300 O 125.801 5.67187 0.604585 0
M  V30 1301 O 124.735 5.87154 -1.32414 0
M  V30 1302 H 128.561 2.57664 -1.60757 0
M  V30 1303 H 126.146 1.23152 -0.845803 0
M  V30 1304 H 128.028 4.20804 0.224048 0
M  V30 1305 H 126.703 3.14407 0.770049 0
M  V30 1306 H 125.61 3.4131 -1.5316 0
M  V30 1307 H 126.943 4.49861 -1.99714 0
M  V30 1308 N 128.595 0.856903 1.32268 0
M  V30 1309 C 129.558 0.308171 2.27119 0
M  V30 1310 C 130.558 -0.533421 1.51695 0
M  V30 1311 O 131.748 -0.344607 1.70757 0
M  V30 1312 C 128.88 -0.563757 3.36206 0
M  V30 1313 H 130.073 1.14535 2.77167 0
M  V30 1314 H 127.626 0.631421 1.42978 0
M  V30 1315 H 128.361 -1.42266 2.91429 0
M  V30 1316 H 128.146 0.0386749 3.92081 0
M  V30 1317 H 129.636 -0.940386 4.06874 0
M  V30 1318 N 130.073 -1.45103 0.615059 0
M  V30 1319 C 131.003 -2.33339 -0.0865619 0
M  V30 1320 C 131.984 -1.4727 -0.851209 0
M  V30 1321 O 133.169 -1.76026 -0.820281 0
M  V30 1322 C 130.299 -3.30095 -1.07956 0
M  V30 1323 C 129.253 -4.25858 -0.427628 0
M  V30 1324 C 128.579 -5.12361 -1.5294 0
M  V30 1325 C 129.879 -5.18165 0.655944 0
M  V30 1326 H 131.573 -2.92254 0.650224 0
M  V30 1327 H 129.119 -1.40532 0.314138 0
M  V30 1328 H 131.072 -3.90698 -1.57901 0
M  V30 1329 H 129.796 -2.69355 -1.84703 0
M  V30 1330 H 128.455 -3.66564 0.0510292 0
M  V30 1331 H 128.103 -4.47984 -2.28734 0
M  V30 1332 H 127.803 -5.77238 -1.09865 0
M  V30 1333 H 129.327 -5.75833 -2.03098 0
M  V30 1334 H 130.741 -5.72796 0.240257 0
M  V30 1335 H 129.138 -5.91559 1.00888 0
M  V30 1336 H 130.208 -4.60144 1.52957 0
M  V30 1337 N 131.551 -0.354651 -1.53558 0
M  V30 1338 C 132.776 0.242153 -2.05981 0
M  V30 1339 C 133.201 1.42553 -1.2272 0
M  V30 1340 O 132.559 1.79656 -0.243604 0
M  V30 1341 C 132.607 0.624367 -3.55154 0
M  V30 1342 O 131.711 1.72301 -3.74681 0
M  V30 1343 H 131.052 0.0378432 -0.662921 0
M  V30 1344 H 133.582 -0.512087 -1.98088 0
M  V30 1345 H 133.592 0.898433 -3.97985 0
M  V30 1346 H 132.267 -0.240989 -4.15201 0
M  V30 1347 H 130.844 1.44535 -3.4375 0
M  V30 1348 N 133.029 1.57378 -0.0835403 0
M  V30 1349 C 134.254 1.98682 0.594987 0
M  V30 1350 C 134.679 0.961969 1.61641 0
M  V30 1351 O 134.037 -0.0709989 1.81161 0
M  V30 1352 C 134.085 3.38988 1.2296 0
M  V30 1353 O 133.189 3.39208 2.34546 0
M  V30 1354 H 132.53 0.646368 0.152002 0
M  V30 1355 H 135.06 2.03961 -0.161533 0
M  V30 1356 H 135.07 3.76431 1.57366 0
M  V30 1357 H 133.745 4.13107 0.481228 0
M  V30 1358 H 132.322 3.13548 2.01846 0
M  V30 1359 N 134.507 -0.190092 1.56449 0
M  V30 1360 C 135.437 -1.23816 1.97969 0
M  V30 1361 C 136.418 -1.47201 0.852395 0
M  V30 1362 O 137.603 -1.58854 1.1171 0
M  V30 1363 C 134.733 -2.5813 2.3235 0
M  V30 1364 C 133.687 -2.49348 3.47864 0
M  V30 1365 C 133.013 -3.8798 3.67934 0
M  V30 1366 C 134.313 -2.01424 4.81898 0
M  V30 1367 H 136.007 -0.89311 2.85769 0
M  V30 1368 H 133.553 -0.428177 1.37487 0
M  V30 1369 H 135.506 -3.31637 2.59991 0
M  V30 1370 H 134.23 -2.94386 1.41438 0
M  V30 1371 H 132.889 -1.78297 3.20321 0
M  V30 1372 H 132.537 -4.21597 2.74344 0
M  V30 1373 H 132.237 -3.82978 4.45648 0
M  V30 1374 H 133.761 -4.63101 3.97957 0
M  V30 1375 H 135.175 -2.64693 5.08538 0
M  V30 1376 H 133.572 -2.07413 5.63116 0
M  V30 1377 H 134.642 -0.967677 4.75146 0
M  V30 1378 N 135.985 -1.50799 -0.457987 0
M  V30 1379 C 137.396 -1.55152 -1.0385 0
M  V30 1380 C 137.747 -0.362719 -1.92818 0
M  V30 1381 O 136.872 0.522915 -2.09987 0
M  V30 1382 C 137.467 -2.81173 -1.89017 0
M  V30 1383 C 136.026 -2.88164 -2.42154 0
M  V30 1384 C 135.173 -2.49591 -1.20829 0
M  V30 1385 H 138.124 -1.56874 -0.240068 0
M  V30 1386 H 138.145 -2.63769 -2.74238 0
M  V30 1387 H 137.657 -3.67677 -1.24238 0
M  V30 1388 H 135.758 -2.06042 -3.10447 0
M  V30 1389 H 135.871 -3.91356 -2.76364 0
M  V30 1390 H 134.235 -2.02322 -1.54719 0
M  V30 1391 H 135.018 -3.38418 -0.576927 0
M  V30 1392 N 137.463 0.71206 -1.40597 0
M  V30 1393 C 138.711 1.46907 -1.38791 0
M  V30 1394 C 139.032 1.94998 0.00780391 0
M  V30 1395 O 138.302 1.70587 0.963174 0
M  V30 1396 H 136.882 0.545043 -0.51082 0
M  V30 1397 H 139.544 0.843882 -1.75683 0
M  V30 1398 H 138.64 2.34021 -2.06496 0
M  V30 1399 N 138.941 1.26152 0.944643 0
M  V30 1400 C 139.871 1.09902 2.06019 0
M  V30 1401 C 140.852 0.00519538 1.70099 0
M  V30 1402 O 142.037 0.176583 1.93396 0
M  V30 1403 C 139.167 0.727562 3.39594 0
M  V30 1404 C 138.121 1.77274 3.89561 0
M  V30 1405 C 137.447 1.25569 5.19747 0
M  V30 1406 C 138.747 3.17357 4.14827 0
M  V30 1407 H 140.441 2.03217 2.19871 0
M  V30 1408 H 137.987 0.978452 1.05652 0
M  V30 1409 H 139.94 0.600777 4.17095 0
M  V30 1410 H 138.664 -0.241287 3.25707 0
M  V30 1411 H 137.323 1.88814 3.14237 0
M  V30 1412 H 136.971 0.276783 5.02238 0
M  V30 1413 H 136.671 1.95433 5.54148 0
M  V30 1414 H 138.195 1.1415 5.99835 0
M  V30 1415 H 139.609 3.08914 4.82954 0
M  V30 1416 H 138.006 3.84781 4.60504 0
M  V30 1417 H 139.076 3.63673 3.20734 0
M  V30 1418 N 140.419 -1.14872 1.07899 0
M  V30 1419 C 141.352 -2.18794 0.64841 0
M  V30 1420 C 142.33 -1.59065 -0.337189 0
M  V30 1421 O 143.514 -1.86936 -0.242284 0
M  V30 1422 C 140.641 -3.38667 -0.0470417 0
M  V30 1423 C 139.687 -4.16942 0.897884 0
M  V30 1424 S 140.52 -4.78615 2.40183 0
M  V30 1425 C 141.676 -6.0185 1.71834 0
M  V30 1426 H 141.909 -2.5498 1.52881 0
M  V30 1427 H 139.442 -1.25922 0.893484 0
M  V30 1428 H 141.4 -4.08113 -0.442027 0
M  V30 1429 H 140.061 -3.00814 -0.903861 0
M  V30 1430 H 139.254 -5.02726 0.358096 0
M  V30 1431 H 138.856 -3.53073 1.23352 0
M  V30 1432 H 141.148 -6.69574 1.03328 0
M  V30 1433 H 142.091 -6.60408 2.55473 0
M  V30 1434 H 142.499 -5.5173 1.19392 0
M  V30 1435 N 141.898 -0.863906 -1.31812 0
M  V30 1436 C 143.146 -0.470904 -1.96537 0
M  V30 1437 C 143.467 0.978771 -1.68657 0
M  V30 1438 O 142.737 1.6853 -0.998717 0
M  V30 1439 H 141.317 -0.171148 -0.72713 0
M  V30 1440 H 143.979 -1.10236 -1.60729 0
M  V30 1441 H 143.075 -0.623616 -3.05806 0
M  V30 1442 N 143.376 1.44774 -0.622745 0
M  V30 1443 C 144.787 1.85546 -0.207226 0
M  V30 1444 C 145.138 1.52093 1.23944 0
M  V30 1445 O 144.263 0.95492 1.94191 0
M  V30 1446 C 144.858 3.36781 -0.369313 0
M  V30 1447 C 143.417 3.76399 -0.00836847 0
M  V30 1448 C 142.564 2.68664 -0.686651 0
M  V30 1449 H 145.515 1.3536 -0.828454 0
M  V30 1450 H 145.536 3.78453 0.394162 0
M  V30 1451 H 145.048 3.61098 -1.42231 0
M  V30 1452 H 143.149 3.57698 1.04322 0
M  V30 1453 H 143.262 4.7732 -0.412584 0
M  V30 1454 H 141.626 2.54404 -0.122777 0
M  V30 1455 H 142.409 2.95815 -1.74208 0
M  V30 1456 N 144.854 0.36279 1.53368 0
M  V30 1457 C 146.265 -0.117022 1.86333 0
M  V30 1458 C 146.616 -1.48397 1.28347 0
M  V30 1459 O 145.741 -2.07787 0.604428 0
M  V30 1460 C 146.336 -0.21912 3.38091 0
M  V30 1461 C 144.895 -0.643184 3.70864 0
M  V30 1462 C 144.042 0.211318 2.76494 0
M  V30 1463 H 146.993 0.581687 1.47655 0
M  V30 1464 H 147.014 -1.04319 3.6592 0
M  V30 1465 H 146.526 0.775902 3.80265 0
M  V30 1466 H 144.627 -1.64654 3.34245 0
M  V30 1467 H 144.74 -0.41973 4.77258 0
M  V30 1468 H 143.104 -0.319367 2.5269 0
M  V30 1469 H 143.887 1.20383 3.21501 0
M  V30 1470 N 146.332 -1.57332 0.0918853 0
M  V30 1471 C 147.279 -2.13847 -0.868211 0
M  V30 1472 C 148.249 -1.05618 -1.28196 0
M  V30 1473 O 149.434 -1.33387 -1.36427 0
M  V30 1474 C 146.574 -2.72062 -2.12312 0
M  V30 1475 C 145.687 -3.94514 -1.7602 0
M  V30 1476 C 144.822 -4.40903 -2.96273 0
M  V30 1477 C 143.861 -5.55953 -2.56092 0
M  V30 1478 N 142.998 -5.97209 -3.69169 0
M  V30 1479 H 147.838 -2.95575 -0.379406 0
M  V30 1480 H 145.375 -1.46048 -0.175606 0
M  V30 1481 H 147.333 -3.03931 -2.858 0
M  V30 1482 H 145.963 -1.93068 -2.58698 0
M  V30 1483 H 145.015 -3.68979 -0.925135 0
M  V30 1484 H 146.327 -4.7802 -1.42472 0
M  V30 1485 H 145.481 -4.74539 -3.78018 0
M  V30 1486 H 144.22 -3.56291 -3.33029 0
M  V30 1487 H 143.225 -5.21948 -1.72773 0
M  V30 1488 H 144.45 -6.42311 -2.20484 0
M  V30 1489 H 142.396 -5.15543 -4.05649 0
M  V30 1490 H 142.313 -6.75504 -3.39456 0
M  V30 1491 H 143.581 -6.35475 -4.51434 0
M  V30 1492 N 147.81 0.181792 -1.56548 0
M  V30 1493 C 148.773 1.20894 -1.94724 0
M  V30 1494 C 149.773 1.37738 -0.829747 0
M  V30 1495 O 150.963 1.35323 -1.09697 0
M  V30 1496 C 148.095 2.57593 -2.23291 0
M  V30 1497 H 149.288 0.882275 -2.86629 0
M  V30 1498 H 146.841 0.423838 -1.50444 0
M  V30 1499 H 147.576 2.95291 -1.34067 0
M  V30 1500 H 147.361 2.46735 -3.04736 0
M  V30 1501 H 148.851 3.31637 -2.53785 0
M  V30 1502 N 149.288 1.51039 0.449983 0
M  V30 1503 C 150.534 1.63322 1.20223 0
M  V30 1504 C 150.867 0.34241 1.91158 0
M  V30 1505 O 150.142 -0.657344 1.83055 0
M  V30 1506 C 150.425 2.82801 2.22925 0
M  V30 1507 C 150.278 4.21823 1.56157 0
M  V30 1508 C 151.597 2.97807 3.24035 0
M  V30 1509 H 148.716 0.594407 0.435718 0
M  V30 1510 H 151.358 1.83489 0.493136 0
M  V30 1511 H 149.508 2.65738 2.834 0
M  V30 1512 H 151.18 4.50526 0.991162 0
M  V30 1513 H 149.423 4.25105 0.864172 0
M  V30 1514 H 150.094 5.01391 2.30891 0
M  V30 1515 H 152.57 3.13497 2.73603 0
M  V30 1516 H 151.446 3.82992 3.93202 0
M  V30 1517 H 151.707 2.09328 3.89402 0
M  V30 1518 N 150.766 -0.704594 1.40972 0
M  V30 1519 C 152.013 -1.46458 1.39844 0
M  V30 1520 C 152.341 -1.94499 0.00447594 0
M  V30 1521 O 151.596 -1.69275 -0.982057 0
M  V30 1522 C 151.895 -2.698 2.34399 0
M  V30 1523 C 151.561 -2.40464 3.81429 0
M  V30 1524 C 150.223 -2.32174 4.21484 0
M  V30 1525 C 152.575 -2.16086 4.74296 0
M  V30 1526 C 149.903 -1.97589 5.52427 0
M  V30 1527 C 152.255 -1.83011 6.05549 0
M  V30 1528 C 150.919 -1.7321 6.44635 0
M  V30 1529 H 150.189 -0.535927 0.511725 0
M  V30 1530 H 152.836 -0.806124 1.73706 0
M  V30 1531 H 151.141 -3.40536 1.93759 0
M  V30 1532 H 152.838 -3.27919 2.30804 0
M  V30 1533 H 149.428 -2.47808 3.49699 0
M  V30 1534 H 153.612 -2.2144 4.4416 0
M  V30 1535 H 148.868 -1.88547 5.81601 0
M  V30 1536 H 153.042 -1.63164 6.77016 0
M  V30 1537 H 150.669 -1.46179 7.46013 0
M  V30 1538 N 152.244 -1.26651 -0.937939 0
M  V30 1539 C 153.177 -1.02811 -2.03728 0
M  V30 1540 C 154.155 0.0481915 -1.62529 0
M  V30 1541 O 155.339 -0.0948839 -1.88261 0
M  V30 1542 C 152.466 -0.557517 -3.3408 0
M  V30 1543 C 151.512 -1.62686 -3.94253 0
M  V30 1544 S 152.345 -3.21667 -4.28125 0
M  V30 1545 C 153.501 -2.76384 -5.61572 0
M  V30 1546 H 153.734 -1.95891 -2.23638 0
M  V30 1547 H 151.267 -1.10367 -1.07974 0
M  V30 1548 H 153.225 -0.292674 -4.09455 0
M  V30 1549 H 151.886 0.353062 -3.12109 0
M  V30 1550 H 151.079 -1.24866 -4.88287 0
M  V30 1551 H 150.681 -1.84324 -3.25424 0
M  V30 1552 H 152.973 -2.2105 -6.40424 0
M  V30 1553 H 153.916 -3.69123 -6.0428 0
M  V30 1554 H 154.324 -2.15847 -5.21604 0
M  V30 1555 N 153.722 1.14298 -1.08507 0
M  V30 1556 C 154.95 1.89219 -0.836876 0
M  V30 1557 C 155.365 1.78638 0.611054 0
M  V30 1558 O 154.722 1.14643 1.41998 0
M  V30 1559 C 154.773 3.39158 -1.25116 0
M  V30 1560 O 154.494 3.49449 -2.64229 0
M  V30 1561 C 155.995 4.31073 -1.03398 0
M  V30 1562 H 153.215 0.599328 -0.301739 0
M  V30 1563 H 155.759 1.44746 -1.44461 0
M  V30 1564 H 153.914 3.81251 -0.687514 0
M  V30 1565 H 154.328 4.42589 -2.81452 0
M  V30 1566 H 155.802 5.34646 -1.37323 0
M  V30 1567 H 156.279 4.3919 0.0289259 0
M  V30 1568 H 156.885 3.94738 -1.58311 0
M  V30 1569 N 155.201 0.870884 1.31352 0
M  V30 1570 C 156.612 0.534714 1.78879 0
M  V30 1571 C 156.963 -0.948423 1.71754 0
M  V30 1572 O 156.088 -1.74055 1.28584 0
M  V30 1573 C 156.683 0.963839 3.24801 0
M  V30 1574 C 155.242 0.679311 3.70219 0
M  V30 1575 C 154.389 1.15465 2.52117 0
M  V30 1576 H 157.34 1.05651 1.18421 0
M  V30 1577 H 157.361 0.286892 3.79417 0
M  V30 1578 H 156.873 2.04332 3.29955 0
M  V30 1579 H 154.974 -0.388769 3.70566 0
M  V30 1580 H 155.087 1.25698 4.62317 0
M  V30 1581 H 153.451 0.574383 2.48139 0
M  V30 1582 H 154.234 2.24157 2.60016 0
M  V30 1583 N 156.679 -1.44442 0.630414 0
M  V30 1584 C 158.095 -1.56832 0.295973 0
M  V30 1585 C 158.295 -1.61806 -1.20088 0
M  V30 1586 O 157.351 -1.5607 -1.9849 0
M  V30 1587 C 158.664 -2.84031 0.987264 0
M  V30 1588 C 160.212 -2.97742 0.96534 0
M  V30 1589 C 160.687 -4.27743 1.63708 0
M  V30 1590 N 162.178 -4.34555 1.60364 0
M  V30 1591 C 162.913 -5.33862 2.09234 0
M  V30 1592 N 162.409 -6.39578 2.66292 0
M  V30 1593 N 164.202 -5.25366 1.99867 0
M  V30 1594 H 156.353 -1.39457 1.60205 0
M  V30 1595 H 158.616 -0.668237 0.672431 0
M  V30 1596 H 158.322 -2.86338 2.04215 0
M  V30 1597 H 158.196 -3.73534 0.524588 0
M  V30 1598 H 160.583 -2.94989 -0.0810639 0
M  V30 1599 H 160.664 -2.09589 1.4665 0
M  V30 1600 H 160.308 -4.31255 2.68293 0
M  V30 1601 H 160.238 -5.14752 1.11076 0
M  V30 1602 H 162.729 -3.58772 1.18705 0
M  V30 1603 H 163.042 -7.11637 3.01317 0
M  V30 1604 H 161.387 -6.40265 2.70343 0
M  V30 1605 H 164.578 -4.41688 1.55013 0
M  V30 1606 H 164.751 -6.02606 2.38265 0
M  V30 1607 N 158.157 -0.370918 -1.53173 0
M  V30 1608 C 159.405 0.216673 -2.00935 0
M  V30 1609 C 159.726 1.48845 -1.25977 0
M  V30 1610 O 158.996 1.92286 -0.374551 0
M  V30 1611 H 157.576 0.0830565 -0.742368 0
M  V30 1612 H 160.238 -0.49838 -1.8842 0
M  V30 1613 H 159.334 0.439893 -3.08984 0
M  V30 1614 N 159.635 1.57281 -0.100228 0
M  V30 1615 C 160.598 2.13158 0.842398 0
M  V30 1616 C 161.598 1.06202 1.20738 0
M  V30 1617 O 162.788 1.32066 1.13597 0
M  V30 1618 C 159.92 2.65639 2.13655 0
M  V30 1619 H 161.113 2.97766 0.357114 0
M  V30 1620 H 158.666 1.5559 0.148823 0
M  V30 1621 H 159.401 1.84566 2.66657 0
M  V30 1622 H 159.186 3.43844 1.88451 0
M  V30 1623 H 160.676 3.08846 2.81077 0
M  V30 1624 N 161.113 -0.173488 1.56642 0
M  V30 1625 C 162.362 -0.888758 1.81063 0
M  V30 1626 C 162.675 -1.83506 0.67712 0
M  V30 1627 O 163.881 -2.59254 0.806206 0
M  V30 1628 C 162.337 -1.63091 3.20826 0
M  V30 1629 C 161.945 -0.728357 4.4204 0
M  V30 1630 C 163.689 -2.33454 3.54541 0
M  V30 1631 C 161.596 -1.47062 5.72823 0
M  V30 1632 H 160.526 -0.335618 0.675186 0
M  V30 1633 H 163.177 -0.141712 1.82952 0
M  V30 1634 H 161.559 -2.42263 3.13248 0
M  V30 1635 H 162.733 0.0262449 4.60793 0
M  V30 1636 H 161.048 -0.134492 4.16183 0
M  V30 1637 H 163.645 -2.89578 4.49498 0
M  V30 1638 H 163.988 -3.08687 2.79317 0
M  V30 1639 H 164.521 -1.61227 3.63663 0
M  V30 1640 H 161.26 -0.760658 6.51072 0
M  V30 1641 H 160.78 -2.1986 5.58052 0
M  V30 1642 H 162.459 -2.01868 6.14702 0
M  V30 1643 N 162.591 -1.51276 -0.441967 0
M  V30 1644 C 163.521 -1.752 -1.54361 0
M  V30 1645 C 164.502 -0.601682 -1.59103 0
M  V30 1646 O 165.687 -0.843913 -1.74905 0
M  V30 1647 C 162.817 -1.87282 -2.92477 0
M  V30 1648 C 161.771 -3.02687 -3.02596 0
M  V30 1649 C 161.097 -2.99947 -4.42647 0
M  V30 1650 C 162.397 -4.4273 -2.77106 0
M  V30 1651 H 164.091 -2.67442 -1.34592 0
M  V30 1652 H 161.637 -1.28694 -0.646048 0
M  V30 1653 H 163.59 -2.02602 -3.695 0
M  V30 1654 H 162.314 -0.916844 -3.13467 0
M  V30 1655 H 160.973 -2.87065 -2.28012 0
M  V30 1656 H 160.621 -2.02136 -4.60597 0
M  V30 1657 H 160.321 -3.77439 -4.50348 0
M  V30 1658 H 161.845 -3.17354 -5.2165 0
M  V30 1659 H 163.259 -4.58727 -3.43864 0
M  V30 1660 H 161.656 -5.21893 -2.96222 0
M  V30 1661 H 162.726 -4.53087 -1.72744 0
M  V30 1662 N 164.069 0.697108 -1.41344 0
M  V30 1663 C 165.48 1.27697 -1.36199 0
M  V30 1664 C 165.831 1.9615 -0.0443463 0
M  V30 1665 O 164.956 1.98689 0.857419 0
M  V30 1666 C 165.551 2.32223 -2.46694 0
M  V30 1667 C 164.11 2.8579 -2.44952 0
M  V30 1668 C 163.257 1.59807 -2.26621 0
M  V30 1669 H 166.208 0.491968 -1.50882 0
M  V30 1670 H 166.229 3.1348 -2.15664 0
M  V30 1671 H 165.741 1.82373 -3.42581 0
M  V30 1672 H 163.842 3.3982 -1.52817 0
M  V30 1673 H 163.955 3.36325 -3.41207 0
M  V30 1674 H 162.319 1.8556 -1.7447 0
M  V30 1675 H 163.102 1.11956 -3.24532 0
M  V30 1676 N 165.547 1.27147 0.931209 0
M  V30 1677 C 166.772 1.16191 1.71797 0
M  V30 1678 C 167.197 -0.278004 1.86034 0
M  V30 1679 O 166.555 -1.20137 1.35782 0
M  V30 1680 C 166.603 1.84673 3.09723 0
M  V30 1681 O 165.707 1.14231 3.96264 0
M  V30 1682 H 165.048 0.404303 0.526721 0
M  V30 1683 H 167.578 1.68152 1.1656 0
M  V30 1684 H 167.588 1.91893 3.60057 0
M  V30 1685 H 166.263 2.89421 2.98677 0
M  V30 1686 H 164.84 1.15056 3.54706 0
M  V30 1687 O 167.064 -1.06532 1.21381 0
M  V30 1688 H 167.755 -1.67472 0.973291 0
M  V30 END ATOM
M  V30 BEGIN BOND
M  V30 END BOND
M  V30 END CTAB
M  END
$$$$
