drugbank_target|Q08426 Peroxisomal bifunctional enzyme (DB00157)
 OpenBabel12092119353D

  0  0  0     0  0            999 V3000
M  V30 BEGIN CTAB
M  V30 COUNTS 11309 11433 0 0 0
M  V30 BEGIN ATOM
M  V30 1 H -0.908 1.98254 -0.117106 0
M  V30 2 N 0 1.576 0 0
M  V30 3 C 0.933 2.03868 1.02534 0
M  V30 4 C 1.911 0.928543 1.3348 0
M  V30 5 O 3.095 1.19667 1.45644 0
M  V30 6 C 0.222 2.43627 2.35294 0
M  V30 7 C -0.732 3.65373 2.2001 0
M  V30 8 S 0.101 5.13292 1.52614 0
M  V30 9 C 1.257 5.56322 2.86805 0
M  V30 10 H 1.49 2.90518 0.631377 0
M  V30 11 H -0.977 1.52953 0.210867 0
M  V30 12 H 0.981 2.67203 3.11629 0
M  V30 13 H -0.358 1.57376 2.7183 0
M  V30 14 H -1.165 3.90944 3.18086 0
M  V30 15 H -1.563 3.418 1.51819 0
M  V30 16 H 0.729 5.58782 3.83104 0
M  V30 17 H 1.672 6.56266 2.65933 0
M  V30 18 H 2.08 4.83886 2.90714 0
M  V30 19 N 1.4781 -0.272755 1.55222 0
M  V30 20 C 2.4411 -1.32041 1.87344 0
M  V30 21 C 3.4411 -1.42342 0.74803 0
M  V30 22 O 4.6311 -1.41488 1.0162 0
M  V30 23 C 1.7631 -2.70173 2.07893 0
M  V30 24 H 2.9561 -1.04789 2.80997 0
M  V30 25 H 0.5091 -0.51083 1.47717 0
M  V30 26 H 1.2441 -3.02605 1.16622 0
M  V30 27 H 1.0291 -2.64082 2.89833 0
M  V30 28 H 2.5191 -3.45869 2.34017 0
M  V30 29 N 2.9562 -1.48159 -0.537278 0
M  V30 30 C 3.8662 -1.64807 -1.6696 0
M  V30 31 C 4.8822 -0.530651 -1.65711 0
M  V30 32 O 6.0582 -0.800784 -1.84796 0
M  V30 33 C 3.1232 -1.67708 -3.03438 0
M  V30 34 C 2.1842 -2.91025 -3.156 0
M  V30 35 C 1.4172 -2.93778 -4.45567 0
M  V30 36 O 1.6402 -2.05153 -5.3223 0
M  V30 37 O 0.5742 -3.85868 -4.61941 0
M  V30 38 H 4.4002 -2.6066 -1.55853 0
M  V30 39 H 1.9852 -1.31475 -0.709549 0
M  V30 40 H 3.8672 -1.7218 -3.84619 0
M  V30 41 H 2.5422 -0.750278 -3.14885 0
M  V30 42 H 1.4492 -2.92089 -2.33741 0
M  V30 43 H 2.7822 -3.83065 -3.09066 0
M  V30 44 N 4.4343 0.785586 -1.36625 0
M  V30 45 C 5.6643 1.5722 -1.34036 0
M  V30 46 C 6.0723 1.89033 0.0795062 0
M  V30 47 O 5.4153 1.50881 1.04789 0
M  V30 48 C 5.4773 2.91759 -2.10041 0
M  V30 49 C 5.1413 2.82654 -3.59104 0
M  V30 50 C 6.1383 2.54634 -4.53274 0
M  V30 51 C 3.8233 3.01111 -4.02042 0
M  V30 52 C 5.8173 2.45177 -5.88359 0
M  V30 53 C 3.5043 2.91276 -5.37216 0
M  V30 54 C 4.5023 2.63348 -6.30188 0
M  V30 55 O 4.1903 2.53514 -7.6288 0
M  V30 56 H 3.9223 0.494177 -0.461265 0
M  V30 57 H 6.4763 0.982632 -1.8037 0
M  V30 58 H 4.7063 3.52781 -1.58375 0
M  V30 59 H 6.3953 3.53059 -2.00261 0
M  V30 60 H 7.1613 2.40073 -4.21414 0
M  V30 61 H 3.0403 3.21854 -3.30047 0
M  V30 62 H 6.5843 2.23299 -6.60896 0
M  V30 63 H 2.4813 3.054 -5.68684 0
M  V30 64 H 3.2493 2.68967 -7.73045 0
M  V30 65 N 5.9124 1.20967 1.01018 0
M  V30 66 C 7.1404 1.04956 1.78303 0
M  V30 67 C 7.5554 -0.400915 1.84494 0
M  V30 68 O 6.9124 -1.27826 1.30257 0
M  V30 69 C 6.9634 1.63403 3.22462 0
M  V30 70 O 6.6844 3.02775 3.16637 0
M  V30 71 C 8.1854 1.52432 4.16268 0
M  V30 72 H 5.4054 0.368858 0.560522 0
M  V30 73 H 7.9494 1.60193 1.27116 0
M  V30 74 H 6.1044 1.1227 3.70775 0
M  V30 75 H 6.5184 3.30626 4.07169 0
M  V30 76 H 7.9924 1.98078 5.15237 0
M  V30 77 H 8.4694 0.477875 4.36592 0
M  V30 78 H 9.0754 2.02787 3.73841 0
M  V30 79 N 7.3905 -1.2043 1.01659 0
M  V30 80 C 8.8065 -1.41852 0.731442 0
M  V30 81 C 9.0065 -1.89358 -0.688898 0
M  V30 82 O 8.0625 -2.06247 -1.45666 0
M  V30 83 C 9.3755 -2.44019 1.75714 0
M  V30 84 C 10.9235 -2.57785 1.77527 0
M  V30 85 C 11.3985 -3.63194 2.79023 0
M  V30 86 N 12.8895 -3.70678 2.77763 0
M  V30 87 C 13.6245 -4.51897 3.52954 0
M  V30 88 N 13.1205 -5.36921 4.37821 0
M  V30 89 N 14.9135 -4.4643 3.41551 0
M  V30 90 H 7.0645 -0.879093 1.93354 0
M  V30 91 H 9.3275 -0.448425 0.835236 0
M  V30 92 H 9.0335 -2.1611 2.77469 0
M  V30 93 H 8.9075 -3.43007 1.56927 0
M  V30 94 H 11.2945 -2.85023 0.764569 0
M  V30 95 H 11.3755 -1.58992 2.00387 0
M  V30 96 H 11.0195 -3.36699 3.80258 0
M  V30 97 H 10.9495 -4.61609 2.53425 0
M  V30 98 H 13.4405 -3.09944 2.16201 0
M  V30 99 H 13.7535 -5.95981 4.91962 0
M  V30 100 H 12.0985 -5.36424 4.41899 0
M  V30 101 H 15.2895 -3.79042 2.74672 0
M  V30 102 H 15.4625 -5.09491 4.00404 0
M  V30 103 N 8.8686 -0.792821 -1.36206 0
M  V30 104 C 9.7986 -0.207853 -2.32573 0
M  V30 105 C 10.7796 0.659055 -1.56813 0
M  V30 106 O 11.9646 0.592176 -1.84951 0
M  V30 107 C 9.0946 0.655449 -3.41059 0
M  V30 108 C 8.0486 -0.111842 -4.27854 0
M  V30 109 C 7.3746 0.872274 -5.27537 0
M  V30 110 C 8.6746 -1.30299 -5.05786 0
M  V30 111 H 10.3686 -1.01294 -2.81744 0
M  V30 112 H 7.9146 -0.48854 -1.3546 0
M  V30 113 H 9.8676 1.07464 -4.07467 0
M  V30 114 H 8.5916 1.49328 -2.90463 0
M  V30 115 H 7.2506 -0.512053 -3.63006 0
M  V30 116 H 6.8986 1.70523 -4.73214 0
M  V30 117 H 6.5986 0.363291 -5.86476 0
M  V30 118 H 8.1226 1.28996 -5.96818 0
M  V30 119 H 9.5366 -0.959379 -5.65216 0
M  V30 120 H 7.9336 -1.7455 -5.74154 0
M  V30 121 H 9.0036 -2.09663 -4.37229 0
M  V30 122 N 10.3467 1.47872 -0.545128 0
M  V30 123 C 11.2967 2.26842 0.229456 0
M  V30 124 C 12.2807 1.33626 0.896267 0
M  V30 125 O 13.4727 1.58063 0.79657 0
M  V30 126 C 10.6017 3.19089 1.26638 0
M  V30 127 C 9.6877 4.19783 0.603598 0
M  V30 128 N 10.0787 5.0479 -0.319405 0
M  V30 129 C 8.3767 4.3765 0.858989 0
M  V30 130 C 9.0777 5.77433 -0.703241 0
M  V30 131 N 8.0537 5.43566 -0.0608309 0
M  V30 132 H 11.8557 2.89947 -0.480391 0
M  V30 133 H 9.3697 1.58263 -0.364209 0
M  V30 134 H 11.3667 3.74337 1.83515 0
M  V30 135 H 10.0267 2.5754 1.97745 0
M  V30 136 H 11.0377 5.13244 -0.692889 0
M  V30 137 H 7.7147 3.87281 1.55948 0
M  V30 138 H 9.1047 6.55824 -1.46098 0
M  V30 139 N 11.8248 0.280983 1.55075 0
M  V30 140 C 12.7728 -0.619864 2.24188 0
M  V30 141 C 13.7668 -1.15315 1.24092 0
M  V30 142 O 14.9728 -1.1061 1.42005 0
M  V30 143 H 11.3478 -0.218459 0.719569 0
M  V30 144 H 13.3188 -0.0141831 2.98397 0
M  V30 145 C 12.0678 -1.7899 2.98091 0
M  V30 146 H 11.3908 -1.38874 3.74905 0
M  V30 147 H 12.8308 -2.39672 3.49762 0
M  V30 148 C 11.2898 -2.68192 2.03899 0
M  V30 149 O 11.8198 -3.6872 1.594 0
M  V30 150 N 10.0258 -2.35488 1.70275 0
M  V30 151 H 9.5728 -1.53787 2.06658 0
M  V30 152 H 9.5308 -2.95442 1.07524 0
M  V30 153 N 13.3029 -1.57598 0.00835791 0
M  V30 154 C 14.2659 -2.07884 -0.965242 0
M  V30 155 C 15.2659 -0.989825 -1.26725 0
M  V30 156 O 16.4559 -1.25218 -1.21104 0
M  V30 157 C 13.5879 -2.52731 -2.28779 0
M  V30 158 H 14.7809 -2.95178 -0.530112 0
M  V30 159 H 12.3339 -1.54458 -0.239283 0
M  V30 160 H 13.0689 -1.68705 -2.76964 0
M  V30 161 H 12.8539 -3.32272 -2.08177 0
M  V30 162 H 14.3439 -2.91933 -2.98605 0
M  V30 163 N 14.781 0.264519 -1.55364 0
M  V30 164 C 15.711 1.33121 -1.91836 0
M  V30 165 C 16.692 1.51101 -0.781192 0
M  V30 166 O 17.877 1.64003 -1.04003 0
M  V30 167 C 15.007 2.68921 -2.19769 0
M  V30 168 C 13.961 2.65661 -3.35571 0
M  V30 169 C 13.287 4.05093 -3.49004 0
M  V30 170 C 14.587 2.24187 -4.71739 0
M  V30 171 H 16.281 1.02844 -2.81182 0
M  V30 172 H 13.827 0.493286 -1.35287 0
M  V30 173 H 15.78 3.43663 -2.43872 0
M  V30 174 H 14.504 3.00799 -1.27231 0
M  V30 175 H 13.163 1.93377 -3.1145 0
M  V30 176 H 12.811 4.34206 -2.53917 0
M  V30 177 H 12.511 4.03804 -4.26868 0
M  V30 178 H 14.035 4.81561 -3.75408 0
M  V30 179 H 15.449 2.88654 -4.9533 0
M  V30 180 H 13.846 2.34044 -5.52579 0
M  V30 181 H 14.916 1.19327 -4.69988 0
M  V30 182 N 16.2591 1.48442 0.529413 0
M  V30 183 C 17.2221 1.62524 1.61612 0
M  V30 184 C 18.2221 0.498509 1.52877 0
M  V30 185 O 19.4121 0.76431 1.56537 0
M  V30 186 C 16.5441 1.59597 3.01233 0
M  V30 187 H 17.7371 2.59423 1.50465 0
M  V30 188 H 15.2901 1.37047 0.751514 0
M  V30 189 H 16.0251 0.641781 3.17886 0
M  V30 190 H 15.8101 2.41397 3.08982 0
M  V30 191 H 17.3001 1.72646 3.80241 0
M  V30 192 N 17.7372 -0.778329 1.37039 0
M  V30 193 C 18.6672 -1.90546 1.34962 0
M  V30 194 C 19.6482 -1.68681 0.219274 0
M  V30 195 O 20.8332 -1.89634 0.418624 0
M  V30 196 C 17.9632 -3.27734 1.14925 0
M  V30 197 C 16.9172 -3.64147 2.24902 0
M  V30 198 C 16.2432 -4.99806 1.89996 0
M  V30 199 C 17.5432 -3.71579 3.67051 0
M  V30 200 H 19.2372 -1.92541 2.29277 0
M  V30 201 H 16.7832 -0.924948 1.10366 0
M  V30 202 H 18.7362 -4.06215 1.12104 0
M  V30 203 H 17.4602 -3.26154 0.170631 0
M  V30 204 H 16.1192 -2.8797 2.26868 0
M  V30 205 H 15.7672 -4.94759 0.906796 0
M  V30 206 H 15.4672 -5.25139 2.63634 0
M  V30 207 H 16.9912 -5.80694 1.88749 0
M  V30 208 H 18.4052 -4.40227 3.67251 0
M  V30 209 H 16.8022 -4.08405 4.39688 0
M  V30 210 H 17.8722 -2.72404 4.01154 0
M  V30 211 N 19.2153 -1.21501 -1.00376 0
M  V30 212 C 20.4643 -1.02718 -1.73586 0
M  V30 213 C 20.7773 0.439589 -1.90596 0
M  V30 214 O 21.9833 0.746848 -2.61026 0
M  V30 215 C 20.4393 -1.78929 -3.1227 0
M  V30 216 C 20.0473 -3.29783 -3.03228 0
M  V30 217 C 21.7913 -1.68557 -3.89601 0
M  V30 218 C 19.6983 -3.98479 -4.36999 0
M  V30 219 H 18.6283 -0.380733 -0.650814 0
M  V30 220 H 21.2793 -1.45248 -1.1214 0
M  V30 221 H 19.6613 -1.29192 -3.74333 0
M  V30 222 H 20.8353 -3.86832 -2.50395 0
M  V30 223 H 19.1503 -3.40711 -2.39385 0
M  V30 224 H 21.7473 -2.17211 -4.88593 0
M  V30 225 H 22.0903 -0.644021 -4.11288 0
M  V30 226 H 22.6233 -2.15778 -3.34193 0
M  V30 227 H 19.3623 -5.02841 -4.20513 0
M  V30 228 H 18.8823 -3.46219 -4.89788 0
M  V30 229 H 20.5613 -4.03462 -5.05794 0
M  V30 230 N 20.6934 1.19889 -1.02296 0
M  V30 231 C 22.1094 1.41462 -0.738954 0
M  V30 232 C 22.3094 1.89721 0.678846 0
M  V30 233 O 21.3654 2.07016 1.4457 0
M  V30 234 C 22.6784 2.43083 -1.77005 0
M  V30 235 C 24.2264 2.5684 -1.78892 0
M  V30 236 C 24.7014 3.61709 -2.80945 0
M  V30 237 N 26.1924 3.69199 -2.79725 0
M  V30 238 C 26.9274 4.50019 -3.55345 0
M  V30 239 N 26.4234 5.34592 -4.40662 0
M  V30 240 N 28.2164 4.44612 -3.43914 0
M  V30 241 H 20.3674 0.868827 -1.93817 0
M  V30 242 H 22.6304 0.44399 -0.837602 0
M  V30 243 H 22.3364 2.14636 -2.78612 0
M  V30 244 H 22.2104 3.4217 -1.58744 0
M  V30 245 H 24.5974 2.84614 -0.779674 0
M  V30 246 H 24.6784 1.57927 -2.01228 0
M  V30 247 H 24.3224 3.34678 -3.82038 0
M  V30 248 H 24.2524 4.60259 -2.5587 0
M  V30 249 H 26.7434 3.08794 -2.17842 0
M  V30 250 H 27.0564 5.93363 -4.95116 0
M  V30 251 H 25.4014 5.34073 -4.44737 0
M  V30 252 H 28.5924 3.7758 -2.76679 0
M  V30 253 H 28.7654 5.0736 -4.031 0
M  V30 254 N 22.1715 0.800033 1.35784 0
M  V30 255 C 23.1015 0.220184 2.3246 0
M  V30 256 C 24.0825 -0.65073 1.57161 0
M  V30 257 O 25.2675 -0.582359 1.85263 0
M  V30 258 C 22.3975 -0.637353 3.41402 0
M  V30 259 C 21.3515 0.134531 4.27789 0
M  V30 260 C 20.6775 -0.844285 5.27992 0
M  V30 261 C 21.9775 1.32979 5.05088 0
M  V30 262 H 23.6715 1.02787 2.81203 0
M  V30 263 H 21.2175 0.495717 1.35199 0
M  V30 264 H 23.1705 -1.05302 4.08031 0
M  V30 265 H 21.8945 -1.47785 2.91251 0
M  V30 266 H 20.5535 0.531296 3.6273 0
M  V30 267 H 20.2015 -1.68011 4.74111 0
M  V30 268 H 19.9015 -0.332184 5.8666 0
M  V30 269 H 21.4255 -1.2583 5.97494 0
M  V30 270 H 22.8395 0.98934 5.64699 0
M  V30 271 H 21.2365 1.77593 5.7322 0
M  V30 272 H 22.3065 2.11978 4.36111 0
M  V30 273 N 23.6496 -1.47581 0.552962 0
M  V30 274 C 25.0656 -1.5818 0.212424 0
M  V30 275 C 25.2656 -1.55213 -1.28496 0
M  V30 276 O 24.3216 -1.45329 -2.06484 0
M  V30 277 C 25.6346 -2.88865 0.835318 0
M  V30 278 C 27.1826 -3.0244 0.806156 0
M  V30 279 C 27.6576 -4.35819 1.40804 0
M  V30 280 N 29.1486 -4.42444 1.37103 0
M  V30 281 C 29.8836 -5.44202 1.80641 0
M  V30 282 N 29.3796 -6.52795 2.32015 0
M  V30 283 N 31.1726 -5.35222 1.71738 0
M  V30 284 H 23.3236 -1.47753 1.52587 0
M  V30 285 H 25.5866 -0.702941 0.636064 0
M  V30 286 H 25.2926 -2.9676 1.88749 0
M  V30 287 H 25.1666 -3.7579 0.325848 0
M  V30 288 H 27.5536 -2.94144 -0.237317 0
M  V30 289 H 27.6346 -2.17068 1.35334 0
M  V30 290 H 27.2786 -4.44871 2.45056 0
M  V30 291 H 27.2086 -5.19916 0.836338 0
M  V30 292 H 29.6996 -3.6456 0.995202 0
M  V30 293 H 30.0126 -7.26609 2.63171 0
M  V30 294 H 28.3576 -6.53696 2.36023 0
M  V30 295 H 31.5486 -4.49284 1.31382 0
M  V30 296 H 31.7216 -6.14389 2.05987 0
M  V30 297 N 25.1277 -0.289203 -1.54924 0
M  V30 298 C 26.0757 0.607966 -2.24514 0
M  V30 299 C 27.0697 1.14655 -1.24702 0
M  V30 300 O 28.2757 1.09856 -1.4259 0
M  V30 301 H 24.6507 0.21464 -0.720718 0
M  V30 302 H 26.6217 -0.00164182 -2.984 0
M  V30 303 C 25.3707 1.77406 -2.99036 0
M  V30 304 H 24.6937 1.36884 -3.75637 0
M  V30 305 H 26.1337 2.37814 -3.51028 0
M  V30 306 C 24.5927 2.67107 -2.05318 0
M  V30 307 O 25.1227 3.6787 -1.61353 0
M  V30 308 N 23.3287 2.34582 -1.71521 0
M  V30 309 H 22.8757 1.52688 -2.07471 0
M  V30 310 H 22.8337 2.94867 -1.0909 0
M  V30 311 N 26.6058 1.57591 -0.0167156 0
M  V30 312 C 28.0168 1.79201 0.523834 0
M  V30 313 C 28.3678 0.925796 1.72984 0
M  V30 314 O 27.4928 0.132792 2.15992 0
M  V30 315 C 28.0878 3.25 0.957091 0
M  V30 316 C 26.6468 3.47648 1.44283 0
M  V30 317 C 25.7938 2.74374 0.401757 0
M  V30 318 H 28.7448 1.56831 -0.242816 0
M  V30 319 H 28.7658 3.34031 1.82219 0
M  V30 320 H 28.2778 3.88019 0.0791415 0
M  V30 321 H 26.3788 2.89866 2.34113 0
M  V30 322 H 26.4918 4.56352 1.45877 0
M  V30 323 H 24.8558 2.39485 0.867121 0
M  V30 324 H 25.6388 3.40102 -0.467513 0
M  V30 325 N 28.0839 -0.256276 1.55502 0
M  V30 326 C 29.4949 -0.826068 1.67431 0
M  V30 327 C 29.8459 -1.86396 0.612446 0
M  V30 328 O 28.9709 -2.15031 -0.243025 0
M  V30 329 C 29.5659 -1.50512 3.03532 0
M  V30 330 C 28.1249 -2.02273 3.17431 0
M  V30 331 C 27.2719 -0.870548 2.63281 0
M  V30 332 H 30.2229 -0.0322728 1.58667 0
M  V30 333 H 30.2439 -2.37279 2.97454 0
M  V30 334 H 29.7559 -0.749484 3.80794 0
M  V30 335 H 27.8569 -2.80746 2.44974 0
M  V30 336 H 27.9699 -2.22655 4.24219 0
M  V30 337 H 26.3339 -1.26851 2.20864 0
M  V30 338 H 27.1169 -0.128149 3.43061 0
M  V30 339 N 29.562 -1.4872 -0.521534 0
M  V30 340 C 30.808 -1.574 -1.27879 0
M  V30 341 C 31.141 -0.250817 -1.92573 0
M  V30 342 O 30.416 0.743934 -1.79711 0
M  V30 343 C 30.699 -2.71843 -2.36164 0
M  V30 344 C 30.552 -4.13893 -1.76105 0
M  V30 345 C 31.871 -2.82008 -3.37875 0
M  V30 346 H 28.99 -0.572941 -0.463581 0
M  V30 347 H 31.632 -1.80927 -0.580119 0
M  V30 348 H 29.782 -2.51914 -2.95756 0
M  V30 349 H 31.454 -4.45284 -1.20499 0
M  V30 350 H 29.697 -4.20498 -1.06601 0
M  V30 351 H 30.368 -4.89804 -2.5455 0
M  V30 352 H 32.844 -3.00086 -2.88249 0
M  V30 353 H 31.72 -3.63796 -4.11028 0
M  V30 354 H 31.981 -1.90511 -3.98946 0
M  V30 355 N 31.0401 0.771051 -1.3745 0
M  V30 356 C 31.9881 1.90574 -1.33358 0
M  V30 357 C 32.9821 1.67936 -0.22224 0
M  V30 358 O 34.1881 1.75717 -0.390304 0
M  V30 359 H 30.5631 0.626714 -0.415612 0
M  V30 360 H 32.5341 1.91142 -2.29144 0
M  V30 361 C 31.2831 3.27845 -1.15813 0
M  V30 362 H 30.6061 3.45842 -2.00583 0
M  V30 363 H 32.0461 4.07538 -1.17 0
M  V30 364 C 30.5051 3.36625 0.136165 0
M  V30 365 O 31.0351 3.85785 1.11949 0
M  V30 366 N 29.2411 2.89997 0.187099 0
M  V30 367 H 28.7881 2.50182 -0.613753 0
M  V30 368 H 28.7461 2.96252 1.05272 0
M  V30 369 N 32.5182 1.22032 0.997298 0
M  V30 370 C 33.4812 0.987909 2.06816 0
M  V30 371 C 34.4812 -0.0440084 1.6074 0
M  V30 372 O 35.6712 0.194053 1.73116 0
M  V30 373 C 32.8032 0.49132 3.37341 0
M  V30 374 H 33.9962 1.93803 2.28868 0
M  V30 375 H 31.5492 1.03838 1.16822 0
M  V30 376 H 32.2842 -0.463364 3.20973 0
M  V30 377 H 32.0692 1.23575 3.72118 0
M  V30 378 H 33.5592 0.348824 4.16141 0
M  V30 379 N 33.9963 -1.19345 1.0293 0
M  V30 380 C 35.2453 -1.88363 0.721256 0
M  V30 381 C 35.5583 -1.80514 -0.753254 0
M  V30 382 O 36.7643 -2.44788 -1.17436 0
M  V30 383 C 35.2203 -3.37872 1.23978 0
M  V30 384 C 34.8283 -3.54278 2.74211 0
M  V30 385 C 36.5723 -4.12365 1.00775 0
M  V30 386 C 34.4793 -4.97682 3.19479 0
M  V30 387 H 33.4093 -0.705484 0.266098 0
M  V30 388 H 36.0603 -1.34928 1.24365 0
M  V30 389 H 34.4423 -3.90707 0.6453 0
M  V30 390 H 35.6163 -3.11769 3.39318 0
M  V30 391 H 33.9313 -2.93174 2.95699 0
M  V30 392 H 36.5283 -5.18119 1.32123 0
M  V30 393 H 36.8713 -4.16263 -0.0554308 0
M  V30 394 H 37.4043 -3.65668 1.56625 0
M  V30 395 H 34.1433 -4.98945 4.25128 0
M  V30 396 H 33.6633 -5.4095 2.591 0
M  V30 397 H 35.3423 -5.66337 3.12845 0
M  V30 398 N 35.4744 -0.807222 -1.35358 0
M  V30 399 C 36.6994 -0.399309 -2.0352 0
M  V30 400 C 37.1244 0.981986 -1.60433 0
M  V30 401 O 36.4824 1.63601 -0.781299 0
M  V30 402 C 36.5304 -0.491552 -3.57234 0
M  V30 403 O 35.6344 0.494754 -4.09421 0
M  V30 404 H 34.9754 -0.166682 -0.642739 0
M  V30 405 H 37.5054 -1.09328 -1.72941 0
M  V30 406 H 37.5154 -0.361588 -4.06395 0
M  V30 407 H 36.1904 -1.49907 -3.87944 0
M  V30 408 H 34.7674 0.324977 -3.71481 0
M  V30 409 N 36.9525 1.47285 -0.560781 0
M  V30 410 C 38.1805 2.06855 -0.0430262 0
M  V30 411 C 38.5955 1.41291 1.25229 0
M  V30 412 O 37.9525 0.510648 1.7521 0
M  V30 413 C 38.0035 3.61178 0.152518 0
M  V30 414 O 37.7245 4.24285 -1.0915 0
M  V30 415 C 39.2255 4.37624 0.707145 0
M  V30 416 H 36.4455 0.669319 -0.0474652 0
M  V30 417 H 38.9895 1.89237 -0.77521 0
M  V30 418 H 37.1445 3.78298 0.834843 0
M  V30 419 H 37.5585 5.16868 -0.891482 0
M  V30 420 H 39.0325 5.46271 0.793244 0
M  V30 421 H 39.5095 4.04152 1.71923 0
M  V30 422 H 40.1155 4.25257 0.0604027 0
M  V30 423 N 38.4306 0.297415 1.54768 0
M  V30 424 C 39.6586 -0.315623 2.04478 0
M  V30 425 C 40.0736 -1.47792 1.17486 0
M  V30 426 O 39.4306 -1.81404 0.19971 0
M  V30 427 C 39.4816 -0.7753 3.53088 0
M  V30 428 O 39.2026 0.340732 4.36773 0
M  V30 429 C 40.7036 -1.45386 4.18781 0
M  V30 430 H 37.9236 -0.0690887 0.667434 0
M  V30 431 H 40.4676 0.436003 1.99798 0
M  V30 432 H 38.6226 -1.47696 3.58141 0
M  V30 433 H 39.0366 -0.0165035 5.24497 0
M  V30 434 H 40.5106 -1.72669 5.24299 0
M  V30 435 H 40.9876 -2.39275 3.68299 0
M  V30 436 H 41.5936 -0.795475 4.17795 0
M  V30 437 N 39.9087 -1.5758 0.0250728 0
M  V30 438 C 40.8387 -2.13007 -0.956575 0
M  V30 439 C 41.8197 -1.0452 -1.342 0
M  V30 440 O 43.0047 -1.32332 -1.42133 0
M  V30 441 C 40.1347 -2.65386 -2.24026 0
M  V30 442 C 39.0887 -3.78623 -1.99571 0
M  V30 443 C 38.4147 -4.17414 -3.3417 0
M  V30 444 C 39.7147 -5.04867 -1.33814 0
M  V30 445 H 41.4087 -2.9528 -0.494991 0
M  V30 446 H 38.9547 -1.42042 -0.236651 0
M  V30 447 H 40.9077 -3.02794 -2.93076 0
M  V30 448 H 39.6317 -1.80268 -2.72343 0
M  V30 449 H 38.2907 -3.41646 -1.32941 0
M  V30 450 H 37.9387 -3.29284 -3.80238 0
M  V30 451 H 37.6387 -4.93719 -3.18615 0
M  V30 452 H 39.1627 -4.57402 -4.04495 0
M  V30 453 H 40.5767 -5.39888 -1.92857 0
M  V30 454 H 38.9737 -5.86144 -1.28669 0
M  V30 455 H 40.0437 -4.83904 -0.310561 0
M  V30 456 N 41.3868 0.248026 -1.55636 0
M  V30 457 C 42.3168 1.31079 -1.93237 0
M  V30 458 C 43.2978 1.50264 -0.797174 0
M  V30 459 O 44.4828 1.62891 -1.05737 0
M  V30 460 C 41.6128 2.66575 -2.22609 0
M  V30 461 C 40.5668 2.62087 -3.3837 0
M  V30 462 C 39.8928 4.01369 -3.53281 0
M  V30 463 C 41.1928 2.19171 -4.7409 0
M  V30 464 H 42.8868 0.998556 -2.82257 0
M  V30 465 H 40.4328 0.47891 -1.35803 0
M  V30 466 H 42.3858 3.41057 -2.47503 0
M  V30 467 H 41.1098 2.99432 -1.30414 0
M  V30 468 H 39.7688 1.90063 -3.13483 0
M  V30 469 H 39.4168 4.31489 -2.58508 0
M  V30 470 H 39.1168 3.99254 -4.31127 0
M  V30 471 H 40.6408 4.77552 -3.80495 0
M  V30 472 H 42.0548 2.83384 -4.98363 0
M  V30 473 H 40.4518 2.2817 -5.5503 0
M  V30 474 H 41.5218 1.14336 -4.71227 0
M  V30 475 N 42.8649 1.48995 0.513639 0
M  V30 476 C 44.2809 1.35478 0.843682 0
M  V30 477 C 44.4809 0.378213 1.97919 0
M  V30 478 O 43.5369 -0.194689 2.51748 0
M  V30 479 C 44.8499 2.75901 1.1958 0
M  V30 480 C 46.3979 2.84509 1.30474 0
M  V30 481 C 46.8729 4.25671 1.69021 0
M  V30 482 N 48.3639 4.28422 1.76094 0
M  V30 483 C 49.0989 5.34601 2.07338 0
M  V30 484 N 48.5949 6.5104 2.36894 0
M  V30 485 N 50.3879 5.22007 2.08483 0
M  V30 486 H 42.5389 2.11092 -0.235328 0
M  V30 487 H 44.8019 0.947039 -0.0426669 0
M  V30 488 H 44.5079 3.49001 0.434913 0
M  V30 489 H 44.3819 3.10467 2.1422 0
M  V30 490 H 46.7689 2.11655 2.05637 0
M  V30 491 H 46.8499 2.53542 0.339155 0
M  V30 492 H 46.4939 4.99048 0.944135 0
M  V30 493 H 46.4239 4.54094 2.66658 0
M  V30 494 H 48.9149 3.44441 1.55464 0
M  V30 495 H 49.2279 7.2779 2.59887 0
M  V30 496 H 47.5729 6.54287 2.34378 0
M  V30 497 H 50.7639 4.30051 1.84861 0
M  V30 498 H 50.9369 6.04854 2.325 0
M  V30 499 N 44.343 -0.763751 1.37857 0
M  V30 500 C 45.62 -1.51244 1.24035 0
M  V30 501 C 46 -2.10472 -0.162649 0
M  V30 502 O 45.348 -1.96206 -1.17112 0
M  V30 503 C 45.558 -2.58694 2.34261 0
M  V30 504 C 46.906 -3.25878 2.72193 0
M  V30 505 O 47.93 -2.68993 2.33497 0
M  V30 506 O 46.789 -4.2874 3.38887 0
M  V30 507 H 43.883 -0.670243 0.484462 0
M  V30 508 H 46.429 -0.800031 1.49658 0
M  V30 509 H 45.201 -2.13105 3.2818 0
M  V30 510 H 44.824 -3.37527 2.10146 0
M  V30 511 N 45.8211 -1.22559 -0.990812 0
M  V30 512 C 47.0701 -1.04553 -1.72486 0
M  V30 513 C 47.3831 0.419349 -1.91052 0
M  V30 514 O 48.5891 0.719121 -2.61803 0
M  V30 515 C 47.0451 -1.82231 -3.10355 0
M  V30 516 C 46.6531 -3.32981 -2.99713 0
M  V30 517 C 48.3971 -1.7268 -3.87791 0
M  V30 518 C 46.3041 -4.03091 -4.32748 0
M  V30 519 H 45.2341 -0.387614 -0.646739 0
M  V30 520 H 47.8851 -1.46429 -1.10593 0
M  V30 521 H 46.2671 -1.33155 -3.72942 0
M  V30 522 H 47.4411 -3.89466 -2.46278 0
M  V30 523 H 45.7561 -3.43231 -2.35758 0
M  V30 524 H 48.3531 -2.22381 -4.86262 0
M  V30 525 H 48.6961 -0.687607 -4.10582 0
M  V30 526 H 49.2291 -2.1931 -3.31885 0
M  V30 527 H 45.9681 -5.07273 -4.15156 0
M  V30 528 H 45.4881 -3.51394 -4.86089 0
M  V30 529 H 47.1671 -4.08804 -5.01486 0
M  V30 530 N 47.2992 1.18797 -1.03562 0
M  V30 531 C 48.2462 2.22253 -0.622259 0
M  V30 532 C 49.2162 1.61987 0.36736 0
M  V30 533 O 50.4012 1.88986 0.262492 0
M  V30 534 C 47.5412 3.45097 0.0138462 0
M  V30 535 C 46.6542 4.19722 -1.02263 0
M  V30 536 C 45.7892 5.30009 -0.355573 0
M  V30 537 C 44.8282 5.96399 -1.37749 0
M  V30 538 N 43.9652 6.98234 -0.735766 0
M  V30 539 H 48.8052 2.56968 -1.50903 0
M  V30 540 H 46.3422 1.26245 -0.755017 0
M  V30 541 H 48.3002 4.15279 0.399948 0
M  V30 542 H 46.9302 3.11018 0.864158 0
M  V30 543 H 45.9822 3.48418 -1.52673 0
M  V30 544 H 47.2942 4.65227 -1.79903 0
M  V30 545 H 46.4482 6.0664 0.0850095 0
M  V30 546 H 45.1872 4.85592 0.452967 0
M  V30 547 H 44.1922 5.18512 -1.82826 0
M  V30 548 H 45.4172 6.42899 -2.18764 0
M  V30 549 H 43.3632 6.55979 0.0525597 0
M  V30 550 H 43.2802 7.41965 -1.44995 0
M  V30 551 H 44.5482 7.78845 -0.31941 0
M  V30 552 N 48.7773 0.814389 1.34928 0
M  V30 553 C 49.6873 0.231978 2.3345 0
M  V30 554 C 50.7033 -0.629139 1.62228 0
M  V30 555 O 51.8793 -0.539052 1.94052 0
M  V30 556 C 48.9443 -0.603482 3.41407 0
M  V30 557 C 48.0053 0.279037 4.28392 0
M  V30 558 C 47.2383 -0.516643 5.31193 0
M  V30 559 O 47.4613 -1.75068 5.4287 0
M  V30 560 O 46.3953 0.0965652 6.01823 0
M  V30 561 H 50.2213 1.04721 2.85074 0
M  V30 562 H 47.8063 0.576343 1.37836 0
M  V30 563 H 49.6883 -1.07908 4.0735 0
M  V30 564 H 48.3633 -1.39618 2.92042 0
M  V30 565 H 47.2703 0.801948 3.65403 0
M  V30 566 H 48.6033 1.03588 4.81176 0
M  V30 567 N 50.2554 -1.46986 0.568584 0
M  V30 568 C 51.5034 -2.02041 0.0487022 0
M  V30 569 C 51.8244 -1.44408 -1.31039 0
M  V30 570 O 51.0944 -0.623477 -1.85714 0
M  V30 571 H 49.6744 -0.746849 0.015014 0
M  V30 572 H 52.3364 -1.80257 0.741168 0
M  V30 573 H 51.4324 -3.12085 -0.0308961 0
M  V30 574 N 51.7335 -0.305618 -1.54608 0
M  V30 575 C 52.6635 0.561482 -2.26649 0
M  V30 576 C 53.6445 1.13415 -1.26772 0
M  V30 577 O 54.8295 1.16262 -1.55553 0
M  V30 578 C 51.9595 1.73122 -3.01075 0
M  V30 579 C 50.9135 1.2887 -4.08138 0
M  V30 580 C 50.2395 2.54396 -4.70305 0
M  V30 581 C 51.5395 0.416578 -5.20636 0
M  V30 582 H 53.2335 -0.0393902 -2.99374 0
M  V30 583 H 50.7795 -0.020385 -1.43986 0
M  V30 584 H 52.7325 2.34396 -3.50195 0
M  V30 585 H 51.4565 2.3584 -2.25936 0
M  V30 586 H 50.1155 0.698991 -3.59875 0
M  V30 587 H 49.7635 3.15439 -3.918 0
M  V30 588 H 49.4635 2.25486 -5.42614 0
M  V30 589 H 50.9875 3.16464 -5.2219 0
M  V30 590 H 52.4015 0.935116 -5.65622 0
M  V30 591 H 50.7985 0.221046 -5.99693 0
M  V30 592 H 51.8685 -0.557162 -4.81688 0
M  V30 593 N 53.2116 1.57565 -0.0334293 0
M  V30 594 C 54.1436 2.0739 0.975811 0
M  V30 595 C 55.1566 0.998166 1.2861 0
M  V30 596 O 56.3456 1.27426 1.25 0
M  V30 597 C 53.4456 2.4871 2.30209 0
M  V30 598 C 52.6186 3.79413 2.17634 0
M  V30 599 C 51.6776 4.07237 3.33233 0
M  V30 600 O 50.7036 4.77425 3.09927 0
M  V30 601 N 51.9056 3.5775 4.5716 0
M  V30 602 H 54.6706 2.94598 0.55066 0
M  V30 603 H 52.2316 1.61173 0.15323 0
M  V30 604 H 54.2236 2.64413 3.06378 0
M  V30 605 H 52.7936 1.66845 2.64351 0
M  V30 606 H 52.0136 3.73465 1.26165 0
M  V30 607 H 53.3016 4.65038 2.0644 0
M  V30 608 H 52.6996 3.00976 4.78989 0
M  V30 609 H 51.2566 3.78724 5.30482 0
M  V30 610 N 54.6897 -0.239769 1.55765 0
M  V30 611 C 55.6367 -1.29696 1.90913 0
M  V30 612 C 56.6067 -1.47478 0.764164 0
M  V30 613 O 57.7917 -1.61345 1.01845 0
M  V30 614 C 54.9317 -2.64598 2.21544 0
M  V30 615 C 54.0447 -2.54765 3.48882 0
M  V30 616 C 53.1797 -3.82069 3.69049 0
M  V30 617 C 52.2187 -3.66883 4.89963 0
M  V30 618 N 51.3557 -4.86094 5.06614 0
M  V30 619 H 56.1957 -0.990224 2.81067 0
M  V30 620 H 53.7327 -0.477684 1.39128 0
M  V30 621 H 55.6907 -3.43132 2.3731 0
M  V30 622 H 54.3207 -2.93405 1.34585 0
M  V30 623 H 53.3727 -1.67763 3.41409 0
M  V30 624 H 54.6847 -2.39457 4.37563 0
M  V30 625 H 53.8387 -4.69046 3.84812 0
M  V30 626 H 52.5777 -4.00282 2.78614 0
M  V30 627 H 51.5827 -2.78289 4.74168 0
M  V30 628 H 52.8077 -3.50157 5.81865 0
M  V30 629 H 50.7537 -5.04655 4.19117 0
M  V30 630 H 50.6707 -4.73443 5.89396 0
M  V30 631 H 51.9387 -5.74549 5.26795 0
M  V30 632 N 56.1678 -1.49265 -0.50573 0
M  V30 633 C 57.1308 -1.65075 -1.59006 0
M  V30 634 C 58.1308 -0.522768 -1.52065 0
M  V30 635 O 59.3208 -0.789117 -1.55302 0
M  V30 636 C 56.4528 -1.64369 -2.98656 0
M  V30 637 H 57.6458 -2.61784 -1.46319 0
M  V30 638 H 55.1988 -1.38226 -0.729616 0
M  V30 639 H 55.9338 -0.692272 -3.16825 0
M  V30 640 H 55.7188 -2.46282 -3.05103 0
M  V30 641 H 57.2088 -1.78674 -3.77446 0
M  V30 642 N 57.6459 0.756429 -1.3826 0
M  V30 643 C 58.8919 1.51772 -1.34511 0
M  V30 644 C 59.2249 1.94089 0.0656691 0
M  V30 645 O 58.4999 1.65221 1.02626 0
M  V30 646 C 58.7829 2.77226 -2.29821 0
M  V30 647 C 58.6359 2.41065 -3.79747 0
M  V30 648 C 59.9549 3.79236 -2.23312 0
M  V30 649 H 57.0739 0.550578 -0.489931 0
M  V30 650 H 59.7159 0.866607 -1.69086 0
M  V30 651 H 57.8659 3.32784 -2.00467 0
M  V30 652 H 59.5379 1.91303 -4.19763 0
M  V30 653 H 57.7809 1.7356 -3.97567 0
M  V30 654 H 58.4519 3.3081 -4.41892 0
M  V30 655 H 60.9279 3.3321 -2.49219 0
M  V30 656 H 59.8039 4.64714 -2.92116 0
M  V30 657 H 60.0649 4.24615 -1.23102 0
M  V30 658 N 59.124 1.23083 0.984299 0
M  V30 659 C 60.373 1.05466 1.71929 0
M  V30 660 C 60.686 -0.409211 1.91272 0
M  V30 661 O 61.892 -0.705226 2.62181 0
M  V30 662 C 60.348 1.83874 3.09384 0
M  V30 663 C 59.956 3.34566 2.97943 0
M  V30 664 C 61.7 1.74734 3.8687 0
M  V30 665 C 59.607 4.05381 4.30605 0
M  V30 666 H 58.537 0.391039 0.644674 0
M  V30 667 H 61.188 1.47013 1.09815 0
M  V30 668 H 59.57 1.35131 3.72231 0
M  V30 669 H 60.744 3.90767 2.44209 0
M  V30 670 H 59.059 3.44476 2.33934 0
M  V30 671 H 61.656 2.24957 4.85076 0
M  V30 672 H 61.999 0.709372 4.10212 0
M  V30 673 H 62.532 2.21067 3.30717 0
M  V30 674 H 59.271 5.09467 4.1246 0
M  V30 675 H 58.791 3.53967 4.84218 0
M  V30 676 H 60.47 4.11458 4.99311 0
M  V30 677 N 60.6021 -1.18246 1.0419 0
M  V30 678 C 61.8791 -1.84121 0.660208 0
M  V30 679 C 62.2591 -1.92778 -0.860221 0
M  V30 680 O 61.6071 -1.45464 -1.76217 0
M  V30 681 C 61.8171 -3.22355 1.33747 0
M  V30 682 C 63.1651 -3.98376 1.46906 0
M  V30 683 O 64.1891 -3.31799 1.29568 0
M  V30 684 O 63.0481 -5.17665 1.75171 0
M  V30 685 H 60.1421 -0.794036 0.231161 0
M  V30 686 H 62.6881 -1.25628 1.14087 0
M  V30 687 H 61.4601 -3.10964 2.37522 0
M  V30 688 H 61.0831 -3.88506 0.845515 0
M  V30 689 N 62.0802 -0.821533 -1.34494 0
M  V30 690 C 63.0302 -0.214793 -2.26986 0
M  V30 691 C 64.0142 0.620125 -1.4847 0
M  V30 692 O 65.2062 0.474933 -1.70509 0
M  V30 693 C 62.3352 0.623566 -3.37589 0
M  V30 694 C 61.4212 -0.221904 -4.23519 0
M  V30 695 N 61.8122 -1.29223 -4.89014 0
M  V30 696 C 60.1102 -0.00600922 -4.46 0
M  V30 697 C 60.8112 -1.80965 -5.52835 0
M  V30 698 N 59.7872 -1.11376 -5.32068 0
M  V30 699 H 63.5892 -1.03354 -2.75128 0
M  V30 700 H 61.1032 -0.6642 -1.48196 0
M  V30 701 H 63.1002 1.0744 -4.02818 0
M  V30 702 H 61.7602 1.44049 -2.90998 0
M  V30 703 H 62.7712 -1.67502 -4.90065 0
M  V30 704 H 59.4482 0.77886 -4.10171 0
M  V30 705 H 60.8382 -2.70502 -6.15043 0
M  V30 706 N 63.5583 1.46682 -0.576371 0
M  V30 707 C 64.7863 2.06798 -0.0649635 0
M  V30 708 C 65.2013 1.42612 1.23723 0
M  V30 709 O 64.5583 0.529203 1.74659 0
M  V30 710 C 64.6093 3.6132 0.114202 0
M  V30 711 O 64.3303 4.23104 -1.13644 0
M  V30 712 C 65.8313 4.38349 0.66069 0
M  V30 713 H 63.0513 0.668778 -0.0545616 0
M  V30 714 H 65.5953 1.88404 -0.795237 0
M  V30 715 H 63.7503 3.79162 0.794673 0
M  V30 716 H 64.1643 5.15894 -0.946253 0
M  V30 717 H 65.6383 5.47081 0.73526 0
M  V30 718 H 66.1153 4.05953 1.67627 0
M  V30 719 H 66.7213 4.25297 0.0152951 0
M  V30 720 N 65.0364 0.313813 1.54444 0
M  V30 721 C 66.2854 -0.292519 1.99568 0
M  V30 722 C 66.5984 -1.54011 1.20582 0
M  V30 723 O 67.8044 -2.22183 1.56035 0
M  V30 724 C 66.2604 -0.571752 3.55329 0
M  V30 725 C 65.8684 0.658229 4.43138 0
M  V30 726 C 67.6124 -1.13857 4.08946 0
M  V30 727 C 65.5194 0.351439 5.90355 0
M  V30 728 H 64.4494 -0.113079 0.745472 0
M  V30 729 H 67.1004 0.424518 1.78522 0
M  V30 730 H 65.4824 -1.34872 3.72325 0
M  V30 731 H 66.6564 1.43403 4.37918 0
M  V30 732 H 64.9714 1.14458 4.0036 0
M  V30 733 H 67.5684 -1.38257 5.16516 0
M  V30 734 H 67.9114 -2.08489 3.6033 0
M  V30 735 H 68.4444 -0.423015 3.95544 0
M  V30 736 H 65.1834 1.26667 6.43145 0
M  V30 737 H 64.7034 -0.386842 5.98551 0
M  V30 738 H 66.3824 -0.0423134 6.46986 0
M  V30 739 N 66.5145 -1.57545 0.0417849 0
M  V30 740 C 67.4615 -2.10977 -0.935805 0
M  V30 741 C 68.4315 -1.01486 -1.31491 0
M  V30 742 O 69.6165 -1.2898 -1.40602 0
M  V30 743 C 66.7565 -2.65169 -2.2086 0
M  V30 744 C 65.8695 -3.88714 -1.88482 0
M  V30 745 C 65.0045 -4.31254 -3.1015 0
M  V30 746 C 64.0435 -5.47524 -2.7365 0
M  V30 747 N 63.1805 -5.85162 -3.87982 0
M  V30 748 H 68.0205 -2.94218 -0.473249 0
M  V30 749 H 65.5575 -1.45415 -0.221981 0
M  V30 750 H 67.5155 -2.94685 -2.95325 0
M  V30 751 H 66.1455 -1.8474 -2.64709 0
M  V30 752 H 65.1975 -3.65849 -1.04205 0
M  V30 753 H 66.5095 -4.73245 -1.57608 0
M  V30 754 H 65.6635 -4.62273 -3.92923 0
M  V30 755 H 64.4025 -3.45516 -3.44195 0
M  V30 756 H 63.4075 -5.16187 -1.89291 0
M  V30 757 H 64.6325 -6.34971 -2.40807 0
M  V30 758 H 62.5785 -5.02377 -4.21846 0
M  V30 759 H 62.4955 -6.64362 -3.60775 0
M  V30 760 H 63.7635 -6.20791 -4.71422 0
M  V30 761 N 67.9926 0.231505 -1.5589 0
M  V30 762 C 68.9556 1.27028 -1.90779 0
M  V30 763 C 69.9556 1.40308 -0.785507 0
M  V30 764 O 71.1456 1.38744 -1.05336 0
M  V30 765 C 68.2776 2.64566 -2.14983 0
M  V30 766 H 69.4706 0.973017 -2.83677 0
M  V30 767 H 67.0236 0.471486 -1.49019 0
M  V30 768 H 67.7586 2.99406 -1.24604 0
M  V30 769 H 67.5436 2.56305 -2.96732 0
M  V30 770 H 69.0336 3.39543 -2.43105 0
M  V30 771 N 69.4707 1.49531 0.497807 0
M  V30 772 C 70.7197 1.58426 1.24837 0
M  V30 773 C 71.0327 0.277643 1.93619 0
M  V30 774 O 72.2387 0.24517 2.70391 0
M  V30 775 C 70.6947 2.79538 2.26686 0
M  V30 776 C 70.3027 4.16971 1.63828 0
M  V30 777 C 72.0467 2.97764 3.0255 0
M  V30 778 C 69.9537 5.29301 2.63807 0
M  V30 779 H 68.8837 0.58989 0.469623 0
M  V30 780 H 71.5347 1.75923 0.521857 0
M  V30 781 H 69.9167 2.55542 3.02514 0
M  V30 782 H 71.0907 4.51116 0.939711 0
M  V30 783 H 69.4057 4.04129 1.00342 0
M  V30 784 H 72.0027 3.78856 3.77323 0
M  V30 785 H 72.3457 2.08448 3.60354 0
M  V30 786 H 72.8787 3.21815 2.33838 0
M  V30 787 H 69.6177 6.20687 2.10779 0
M  V30 788 H 69.1377 4.99606 3.31894 0
M  V30 789 H 70.8167 5.58768 3.2617 0
M  V30 790 N 70.9488 -0.749086 1.3866 0
M  V30 791 C 72.1948 -1.51056 1.35314 0
M  V30 792 C 72.5278 -1.94121 -0.0553751 0
M  V30 793 O 71.8028 -1.65763 -1.01749 0
M  V30 794 C 72.0858 -2.76003 2.31288 0
M  V30 795 C 71.9388 -2.39047 3.8102 0
M  V30 796 C 73.2578 -3.78046 2.2532 0
M  V30 797 H 70.3768 -0.547972 0.492844 0
M  V30 798 H 73.0188 -0.857628 1.69543 0
M  V30 799 H 71.1688 -3.31716 2.02229 0
M  V30 800 H 72.8408 -1.89074 4.20771 0
M  V30 801 H 71.0838 -1.71449 3.98482 0
M  V30 802 H 71.7548 -3.28462 4.4364 0
M  V30 803 H 74.2308 -3.31884 2.50983 0
M  V30 804 H 73.1068 -4.63159 2.94576 0
M  V30 805 H 73.3678 -4.23957 1.25352 0
M  V30 806 N 72.4269 -1.23603 -0.977757 0
M  V30 807 C 73.6759 -1.06377 -1.71368 0
M  V30 808 C 73.9889 0.399062 -1.91486 0
M  V30 809 O 75.1949 0.691312 -2.62551 0
M  V30 810 C 73.6509 -1.85512 -3.08404 0
M  V30 811 C 73.2589 -3.36141 -2.96164 0
M  V30 812 C 75.0029 -1.76783 -3.85938 0
M  V30 813 C 72.9099 -4.07659 -4.28449 0
M  V30 814 H 71.8399 -0.394452 -0.642591 0
M  V30 815 H 74.4909 -1.47594 -1.09034 0
M  V30 816 H 72.8729 -1.37103 -3.71509 0
M  V30 817 H 74.0469 -3.92056 -2.42133 0
M  V30 818 H 72.3619 -3.45712 -2.32104 0
M  V30 819 H 74.9589 -2.27526 -4.83876 0
M  V30 820 H 75.3019 -0.731116 -4.0983 0
M  V30 821 H 75.8349 -2.22818 -3.2954 0
M  V30 822 H 72.5739 -5.11648 -4.09752 0
M  V30 823 H 72.0939 -3.5653 -4.82334 0
M  V30 824 H 73.7729 -4.141 -4.97122 0
M  V30 825 N 73.905 1.17692 -1.04816 0
M  V30 826 C 75.145 1.89545 -0.764979 0
M  V30 827 C 75.509 1.78979 0.695028 0
M  V30 828 O 76.71 2.45613 1.09215 0
M  V30 829 C 74.981 3.35659 -1.22751 0
M  V30 830 S 76.54 4.25526 -1.07112 0
M  V30 831 H 73.358 0.654432 -0.27792 0
M  V30 832 H 75.96 1.42163 -1.34201 0
M  V30 833 H 74.664 3.40882 -2.28533 0
M  V30 834 H 74.195 3.88083 -0.644594 0
M  V30 835 H 76.21 4.962 0.00697508 0
M  V30 836 N 75.3831 0.828654 1.34056 0
M  V30 837 C 76.6311 0.41863 1.97717 0
M  V30 838 C 76.9521 -1.02314 1.66002 0
M  V30 839 O 76.2221 -1.71119 0.953683 0
M  V30 840 H 74.8021 0.151809 0.731412 0
M  V30 841 H 77.4641 1.05936 1.63596 0
M  V30 842 H 76.5601 0.542318 3.07352 0
M  V30 843 N 76.8612 -1.46375 0.584142 0
M  V30 844 C 77.8242 -2.28784 -0.138108 0
M  V30 845 C 78.8242 -1.38471 -0.817462 0
M  V30 846 O 80.0142 -1.60833 -0.669199 0
M  V30 847 C 77.1462 -3.18892 -1.20503 0
M  V30 848 H 78.3392 -2.94117 0.586127 0
M  V30 849 H 75.8922 -1.52509 0.342171 0
M  V30 850 H 76.6272 -2.58309 -1.96079 0
M  V30 851 H 76.4122 -3.85388 -0.722384 0
M  V30 852 H 77.9022 -3.80914 -1.71155 0
M  V30 853 N 78.3393 -0.321999 -1.54275 0
M  V30 854 C 79.2493 0.553631 -2.27974 0
M  V30 855 C 80.2653 1.13054 -1.32268 0
M  V30 856 O 81.4413 1.15084 -1.6528 0
M  V30 857 C 78.5063 1.69927 -3.02201 0
M  V30 858 C 77.5673 1.15433 -4.1349 0
M  V30 859 C 76.8003 2.24537 -4.84168 0
M  V30 860 O 77.0233 3.44852 -4.5435 0
M  V30 861 O 75.9573 1.90044 -5.7111 0
M  V30 862 H 79.7833 -0.0448345 -3.03667 0
M  V30 863 H 77.3683 -0.0877418 -1.49142 0
M  V30 864 H 79.2503 2.3663 -3.48689 0
M  V30 865 H 77.9253 2.28395 -2.29385 0
M  V30 866 H 76.8323 0.452436 -3.71354 0
M  V30 867 H 78.1653 0.614805 -4.88345 0
M  V30 868 N 79.8174 1.5752 -0.0501392 0
M  V30 869 C 81.0654 1.9227 0.622642 0
M  V30 870 C 81.3864 0.929083 1.71444 0
M  V30 871 O 80.6564 -0.0262186 1.95882 0
M  V30 872 H 79.2364 0.709739 0.232981 0
M  V30 873 H 81.8984 1.94628 -0.102898 0
M  V30 874 H 80.9944 2.93479 1.06191 0
M  V30 875 N 81.2955 -0.223234 1.56011 0
M  V30 876 C 82.2425 -1.27664 1.92277 0
M  V30 877 C 83.2125 -1.46659 0.779763 0
M  V30 878 O 84.3975 -1.60256 1.03551 0
M  V30 879 C 81.5375 -2.62234 2.24338 0
M  V30 880 C 80.6505 -2.51051 3.51564 0
M  V30 881 C 79.7855 -3.78133 3.7308 0
M  V30 882 C 78.8245 -3.61665 4.93827 0
M  V30 883 N 77.9615 -4.80693 5.11741 0
M  V30 884 H 82.8015 -0.960358 2.82101 0
M  V30 885 H 80.3385 -0.462901 1.39627 0
M  V30 886 H 82.2965 -3.40596 2.40936 0
M  V30 887 H 80.9265 -2.91961 1.3769 0
M  V30 888 H 79.9785 -1.64132 3.43169 0
M  V30 889 H 81.2905 -2.34803 4.40079 0
M  V30 890 H 80.4445 -4.64938 3.89766 0
M  V30 891 H 79.1835 -3.97304 2.82844 0
M  V30 892 H 78.1885 -2.73244 4.77093 0
M  V30 893 H 79.4135 -3.43966 5.85546 0
M  V30 894 H 77.3595 -5.00181 4.24446 0
M  V30 895 H 77.2765 -4.67165 5.94384 0
M  V30 896 H 78.5445 -5.6893 5.3286 0
M  V30 897 N 82.7736 -1.49793 -0.48987 0
M  V30 898 C 84.0206 -1.59841 -1.24327 0
M  V30 899 C 84.3486 -0.290135 -1.92324 0
M  V30 900 O 83.6036 0.722749 -1.81865 0
M  V30 901 C 83.9026 -2.71488 -2.32441 0
M  V30 902 C 83.5686 -4.12614 -1.81826 0
M  V30 903 C 82.2306 -4.51017 -1.67742 0
M  V30 904 C 84.5826 -5.00892 -1.4407 0
M  V30 905 C 81.9106 -5.75459 -1.14297 0
M  V30 906 C 84.2626 -6.25863 -0.920742 0
M  V30 907 C 82.9266 -6.63086 -0.766383 0
M  V30 908 H 82.1966 -0.584899 -0.454944 0
M  V30 909 H 84.8436 -1.83663 -0.542215 0
M  V30 910 H 83.1486 -2.4168 -3.0838 0
M  V30 911 H 84.8456 -2.76469 -2.90458 0
M  V30 912 H 81.4356 -3.82307 -1.93751 0
M  V30 913 H 85.6196 -4.7187 -1.53794 0
M  V30 914 H 80.8756 -6.02989 -1.01068 0
M  V30 915 H 85.0496 -6.9364 -0.619448 0
M  V30 916 H 82.6766 -7.59393 -0.350083 0
M  V30 917 N 84.2517 0.741722 -1.39055 0
M  V30 918 C 85.4767 1.53607 -1.39354 0
M  V30 919 C 85.9017 1.88096 0.0116905 0
M  V30 920 O 85.2597 1.5143 0.996924 0
M  V30 921 C 85.3077 2.80441 -2.26682 0
M  V30 922 O 84.4117 3.76088 -1.69208 0
M  V30 923 H 83.7527 0.464142 -0.474835 0
M  V30 924 H 86.2827 0.915665 -1.82967 0
M  V30 925 H 86.2927 3.29246 -2.40959 0
M  V30 926 H 84.9677 2.5467 -3.2881 0
M  V30 927 H 83.5447 3.34833 -1.64138 0
M  V30 928 N 85.7298 1.2412 0.971189 0
M  V30 929 C 86.6928 1.03156 2.04674 0
M  V30 930 C 87.6928 -0.00990322 1.60797 0
M  V30 931 O 88.8828 0.230729 1.72665 0
M  V30 932 C 86.0148 0.562765 3.36223 0
M  V30 933 H 87.2078 1.98614 2.24705 0
M  V30 934 H 84.7608 1.06293 1.14593 0
M  V30 935 H 85.4958 -0.395176 3.21883 0
M  V30 936 H 85.2808 1.31441 3.69413 0
M  V30 937 H 86.7708 0.437015 4.15307 0
M  V30 938 N 87.2079 -1.17134 1.05439 0
M  V30 939 C 88.4559 -1.87085 0.764429 0
M  V30 940 C 88.7769 -1.81584 -0.710787 0
M  V30 941 O 88.0469 -1.24349 -1.51374 0
M  V30 942 H 86.6269 -0.692627 0.279779 0
M  V30 943 H 89.2889 -1.42087 1.33406 0
M  V30 944 H 88.3849 -2.92759 1.0816 0
M  V30 945 N 88.686 -0.835752 -1.33615 0
M  V30 946 C 89.649 -0.272 -2.2758 0
M  V30 947 C 90.649 0.557487 -1.50827 0
M  V30 948 O 91.839 0.37173 -1.70188 0
M  V30 949 C 88.971 0.617173 -3.35267 0
M  V30 950 H 90.164 -1.10111 -2.78954 0
M  V30 951 H 87.717 -0.608594 -1.43965 0
M  V30 952 H 88.452 1.46884 -2.89129 0
M  V30 953 H 88.237 0.0237066 -3.92093 0
M  V30 954 H 89.727 1.005 -4.05326 0
M  V30 955 N 90.1641 1.46063 -0.591896 0
M  V30 956 C 91.4411 1.95595 -0.0137119 0
M  V30 957 C 91.8211 1.5345 1.4497 0
M  V30 958 O 91.1691 0.789543 2.14426 0
M  V30 959 C 91.3791 3.48453 -0.195373 0
M  V30 960 C 92.7271 4.24546 -0.0679765 0
M  V30 961 O 93.7511 3.55982 -0.124681 0
M  V30 962 O 92.6101 5.46467 0.0600579 0
M  V30 963 H 89.7041 0.825795 0.0446279 0
M  V30 964 H 92.2501 1.56303 -0.660859 0
M  V30 965 H 91.0221 3.72045 -1.21235 0
M  V30 966 H 90.6451 3.94597 0.487775 0
M  V30 967 N 91.6422 0.330177 1.54103 0
M  V30 968 C 92.8912 -0.271336 1.99867 0
M  V30 969 C 93.2042 -1.52723 1.22209 0
M  V30 970 O 94.4102 -2.20515 1.58383 0
M  V30 971 C 92.8662 -0.534032 3.55916 0
M  V30 972 C 92.4742 0.705193 4.42415 0
M  V30 973 C 94.2182 -1.09514 4.1013 0
M  V30 974 C 92.1252 0.414035 5.89949 0
M  V30 975 H 91.0552 -0.105166 0.74663 0
M  V30 976 H 93.7062 0.443429 1.78062 0
M  V30 977 H 92.0882 -1.30915 3.73734 0
M  V30 978 H 93.2622 1.4804 4.36372 0
M  V30 979 H 91.5772 1.18698 3.99124 0
M  V30 980 H 94.1742 -1.3277 5.17954 0
M  V30 981 H 94.5172 -2.04656 3.62521 0
M  V30 982 H 95.0502 -0.381038 3.95971 0
M  V30 983 H 91.7892 1.33481 6.41766 0
M  V30 984 H 91.3092 -0.323336 5.98928 0
M  V30 985 H 92.9882 0.0263105 6.46995 0
M  V30 986 N 93.1203 -1.57491 0.0584922 0
M  V30 987 C 94.5363 -1.56792 -0.298091 0
M  V30 988 C 94.7363 -1.06679 -1.70944 0
M  V30 989 O 93.7923 -0.726672 -2.41818 0
M  V30 990 C 95.1053 -3.00461 -0.119879 0
M  V30 991 C 96.6533 -3.1242 -0.190428 0
M  V30 992 C 97.1283 -4.57982 -0.0406567 0
M  V30 993 N 98.6193 -4.63099 -0.0966958 0
M  V30 994 C 99.3543 -5.734 -0.00502943 0
M  V30 995 N 98.8503 -6.9266 0.139402 0
M  V30 996 N 100.643 -5.62067 -0.0611391 0
M  V30 997 H 92.7943 -1.88386 0.98105 0
M  V30 998 H 95.0573 -0.867865 0.381463 0
M  V30 999 H 94.7633 -3.41187 0.85349 0
M  V30 1000 H 94.6373 -3.66843 -0.877833 0
M  V30 1001 H 97.0243 -2.71589 -1.15427 0
M  V30 1002 H 97.1053 -2.48702 0.598405 0
M  V30 1003 H 96.7493 -4.995 0.919897 0
M  V30 1004 H 96.6793 -5.19715 -0.848727 0
M  V30 1005 H 99.1703 -3.77331 -0.207277 0
M  V30 1006 H 99.4833 -7.72536 0.201855 0
M  V30 1007 H 97.8283 -6.94781 0.174586 0
M  V30 1008 H 101.019 -4.67782 -0.172583 0
M  V30 1009 H 101.192 -6.47999 0.0137562 0
M  V30 1010 N 94.5984 0.214957 -1.56127 0
M  V30 1011 C 95.8464 0.936518 -1.79091 0
M  V30 1012 C 96.1674 1.84606 -0.628148 0
M  V30 1013 O 95.4374 1.92664 0.35462 0
M  V30 1014 H 94.0174 0.3488 -0.660566 0
M  V30 1015 H 96.6794 0.22523 -1.93594 0
M  V30 1016 H 95.7754 1.53943 -2.71492 0
M  V30 1017 N 96.0765 1.50051 0.48192 0
M  V30 1018 C 97.3235 1.60498 1.23477 0
M  V30 1019 C 97.6515 0.300331 1.92167 0
M  V30 1020 O 96.9065 -0.713094 1.82246 0
M  V30 1021 C 97.2055 2.72717 2.30998 0
M  V30 1022 C 96.8715 4.13572 1.79636 0
M  V30 1023 C 95.5335 4.519 1.65348 0
M  V30 1024 C 97.8855 5.01649 1.41412 0
M  V30 1025 C 95.2135 5.76057 1.11244 0
M  V30 1026 C 97.5655 6.26343 0.887538 0
M  V30 1027 C 96.2295 6.63483 0.731207 0
M  V30 1028 H 95.4995 0.587303 0.451836 0
M  V30 1029 H 98.1465 1.83948 0.532468 0
M  V30 1030 H 96.4515 2.43312 3.07094 0
M  V30 1031 H 98.1485 2.78006 2.88988 0
M  V30 1032 H 94.7385 3.83329 1.91721 0
M  V30 1033 H 98.9225 4.72679 1.51289 0
M  V30 1034 H 94.1785 6.03516 0.978686 0
M  V30 1035 H 98.3525 6.93958 0.582654 0
M  V30 1036 H 95.9795 7.59568 0.309806 0
M  V30 1037 N 97.5546 -0.734337 1.39446 0
M  V30 1038 C 98.7796 -1.52866 1.40167 0
M  V30 1039 C 99.2046 -1.881 -0.00171513 0
M  V30 1040 O 98.5626 -1.51957 -0.988879 0
M  V30 1041 C 98.6106 -2.79235 2.28167 0
M  V30 1042 O 97.7146 -3.75185 1.71201 0
M  V30 1043 H 97.0556 -0.461618 0.477289 0
M  V30 1044 H 99.5856 -0.905949 1.8345 0
M  V30 1045 H 99.5956 -3.27963 2.42702 0
M  V30 1046 H 98.2706 -2.52923 3.30156 0
M  V30 1047 H 96.8476 -3.33958 1.65912 0
M  V30 1048 N 99.0327 -1.24633 -0.964593 0
M  V30 1049 C 99.9957 -1.0424 -2.04124 0
M  V30 1050 C 100.996 0.00137563 -1.608 0
M  V30 1051 O 102.186 -0.239883 -1.7254 0
M  V30 1052 C 99.3177 -0.580588 -3.3592 0
M  V30 1053 H 100.511 -1.99803 -2.23649 0
M  V30 1054 H 98.0637 -1.06899 -1.14027 0
M  V30 1055 H 98.7987 0.3781 -3.22088 0
M  V30 1056 H 98.5837 -1.33398 -3.6871 0
M  V30 1057 H 100.074 -0.459034 -4.15069 0
M  V30 1058 N 100.511 1.16574 -1.06058 0
M  V30 1059 C 101.922 1.68662 -0.800632 0
M  V30 1060 C 102.273 1.84184 0.67608 0
M  V30 1061 O 101.398 1.53568 1.52466 0
M  V30 1062 C 101.993 3.06356 -1.44676 0
M  V30 1063 C 100.552 3.55575 -1.23465 0
M  V30 1064 C 99.6988 2.31616 -1.52477 0
M  V30 1065 H 102.65 1.00969 -1.22438 0
M  V30 1066 H 102.671 3.70636 -0.860788 0
M  V30 1067 H 102.183 2.95027 -2.52152 0
M  V30 1068 H 100.284 3.72167 -0.179527 0
M  V30 1069 H 100.397 4.37812 -1.94571 0
M  V30 1070 H 98.7608 2.36512 -0.945209 0
M  V30 1071 H 99.5438 2.22887 -2.61106 0
M  V30 1072 N 101.989 0.842826 1.3317 0
M  V30 1073 C 103.405 0.531128 1.50503 0
M  V30 1074 C 103.605 -0.940734 1.78192 0
M  V30 1075 O 102.661 -1.72436 1.84451 0
M  V30 1076 C 103.974 1.40789 2.65705 0
M  V30 1077 C 105.522 1.40708 2.79589 0
M  V30 1078 C 105.997 2.26878 3.97857 0
M  V30 1079 N 107.488 2.24609 4.05099 0
M  V30 1080 C 108.223 2.88019 4.95815 0
M  V30 1081 N 107.719 3.60496 5.9162 0
M  V30 1082 N 109.512 2.77469 4.88843 0
M  V30 1083 H 101.663 1.79557 1.1346 0
M  V30 1084 H 103.926 0.766267 0.558156 0
M  V30 1085 H 103.632 2.454 2.51936 0
M  V30 1086 H 103.506 1.08677 3.61205 0
M  V30 1087 H 105.893 0.368668 2.92788 0
M  V30 1088 H 105.974 1.76829 1.84838 0
M  V30 1089 H 105.618 3.3078 3.85418 0
M  V30 1090 H 105.548 1.88096 4.91861 0
M  V30 1091 H 108.039 1.71906 3.36536 0
M  V30 1092 H 108.352 4.06076 6.57512 0
M  V30 1093 H 106.697 3.64604 5.91683 0
M  V30 1094 H 109.888 2.20406 4.12963 0
M  V30 1095 H 110.061 3.2717 5.59342 0
M  V30 1096 N 103.467 -1.45747 0.599634 0
M  V30 1097 C 104.695 -2.06668 0.0978551 0
M  V30 1098 C 105.11 -1.44562 -1.21439 0
M  V30 1099 O 104.467 -0.556923 -1.73795 0
M  V30 1100 C 104.518 -3.61456 -0.0567044 0
M  V30 1101 O 104.239 -4.21242 1.20361 0
M  V30 1102 C 105.74 -4.39345 -0.590869 0
M  V30 1103 H 102.96 -0.667825 0.0651943 0
M  V30 1104 H 105.504 -1.87115 0.82511 0
M  V30 1105 H 103.659 -3.80378 -0.734251 0
M  V30 1106 H 104.073 -5.14323 1.02821 0
M  V30 1107 H 105.547 -5.48182 -0.648131 0
M  V30 1108 H 106.024 -4.08568 -1.61147 0
M  V30 1109 H 106.63 -4.25268 0.0523679 0
M  V30 1110 N 104.945 -0.338344 -1.53925 0
M  V30 1111 C 106.192 0.259758 -2.00827 0
M  V30 1112 C 106.52 1.50973 -1.22628 0
M  V30 1113 O 105.775 1.93379 -0.300509 0
M  V30 1114 C 106.074 0.62448 -3.51902 0
M  V30 1115 C 105.74 -0.528006 -4.47798 0
M  V30 1116 C 104.402 -0.844298 -4.73735 0
M  V30 1117 C 106.754 -1.30143 -5.0469 0
M  V30 1118 C 104.082 -1.93648 -5.53821 0
M  V30 1119 C 106.434 -2.38382 -5.85967 0
M  V30 1120 C 105.098 -2.70576 -6.10201 0
M  V30 1121 H 104.368 0.0950523 -0.734878 0
M  V30 1122 H 107.015 -0.465182 -1.85764 0
M  V30 1123 H 105.32 1.43006 -3.64769 0
M  V30 1124 H 107.017 1.09905 -3.85645 0
M  V30 1125 H 103.607 -0.271421 -4.2774 0
M  V30 1126 H 107.791 -1.07033 -4.84621 0
M  V30 1127 H 103.047 -2.19021 -5.70824 0
M  V30 1128 H 107.221 -2.98746 -6.29066 0
M  V30 1129 H 104.848 -3.55333 -6.72044 0
M  V30 1130 N 106.423 1.57458 -0.0668435 0
M  V30 1131 C 107.671 1.92919 0.602214 0
M  V30 1132 C 107.992 0.947215 1.70449 0
M  V30 1133 O 107.262 -0.00544117 1.95899 0
M  V30 1134 H 105.842 0.71217 0.22544 0
M  V30 1135 H 108.504 1.94508 -0.123535 0
M  V30 1136 H 107.6 2.94589 1.03073 0
M  V30 1137 N 107.901 -0.206675 1.56239 0
M  V30 1138 C 108.831 -1.25909 1.96645 0
M  V30 1139 C 109.812 -1.48097 0.836734 0
M  V30 1140 O 110.997 -1.6003 1.10019 0
M  V30 1141 C 108.127 -2.6058 2.29599 0
M  V30 1142 C 107.081 -2.53024 3.452 0
M  V30 1143 C 106.407 -3.91861 3.63798 0
M  V30 1144 C 107.707 -2.06524 4.79734 0
M  V30 1145 H 109.401 -0.923369 2.84806 0
M  V30 1146 H 106.947 -0.442735 1.37025 0
M  V30 1147 H 108.9 -3.34375 2.56459 0
M  V30 1148 H 107.624 -2.95869 1.38307 0
M  V30 1149 H 106.283 -1.81684 3.18412 0
M  V30 1150 H 105.931 -4.24483 2.69857 0
M  V30 1151 H 105.631 -3.87683 4.4156 0
M  V30 1152 H 107.155 -4.67296 3.93022 0
M  V30 1153 H 108.569 -2.70072 5.05702 0
M  V30 1154 H 106.966 -2.13374 5.60885 0
M  V30 1155 H 108.036 -1.01802 4.74093 0
M  V30 1156 N 109.379 -1.50304 -0.473955 0
M  V30 1157 C 110.607 -1.64902 -1.24959 0
M  V30 1158 C 111.022 -0.331198 -1.85872 0
M  V30 1159 O 110.379 0.68652 -1.69095 0
M  V30 1160 C 110.43 -2.73803 -2.36038 0
M  V30 1161 O 110.151 -4.00477 -1.77624 0
M  V30 1162 C 111.652 -2.99349 -3.26964 0
M  V30 1163 H 108.872 -0.554383 -0.378022 0
M  V30 1164 H 111.416 -1.9651 -0.566054 0
M  V30 1165 H 109.571 -2.44898 -3.00173 0
M  V30 1166 H 109.985 -4.60678 -2.5075 0
M  V30 1167 H 111.459 -3.79217 -4.01121 0
M  V30 1168 H 111.936 -2.10307 -3.85574 0
M  V30 1169 H 112.542 -3.29774 -2.68569 0
M  V30 1170 N 110.857 0.726932 -1.39834 0
M  V30 1171 C 111.787 1.85405 -1.41941 0
M  V30 1172 C 112.768 1.67751 -0.281728 0
M  V30 1173 O 113.953 1.8795 -0.488717 0
M  V30 1174 C 111.083 3.23243 -1.2701 0
M  V30 1175 C 110.037 3.55549 -2.38262 0
M  V30 1176 C 109.363 4.9241 -2.08415 0
M  V30 1177 C 110.663 3.577 -3.80589 0
M  V30 1178 H 112.357 1.83899 -2.36266 0
M  V30 1179 H 109.903 0.883349 -1.13723 0
M  V30 1180 H 111.856 4.01775 -1.27103 0
M  V30 1181 H 110.58 3.25296 -0.291564 0
M  V30 1182 H 109.239 2.79351 -2.37399 0
M  V30 1183 H 108.887 4.91052 -1.0898 0
M  V30 1184 H 108.587 5.14992 -2.82943 0
M  V30 1185 H 110.111 5.73289 -2.10171 0
M  V30 1186 H 111.525 4.26293 -3.83337 0
M  V30 1187 H 109.922 3.91804 -4.54543 0
M  V30 1188 H 110.992 2.57328 -4.10987 0
M  V30 1189 N 112.336 1.25143 0.95797 0
M  V30 1190 C 113.584 1.09476 1.69881 0
M  V30 1191 C 113.905 -0.365502 1.91544 0
M  V30 1192 O 113.175 -1.25985 1.50015 0
M  V30 1193 H 111.755 0.402128 0.629525 0
M  V30 1194 H 114.417 1.57214 1.15194 0
M  V30 1195 H 113.513 1.60046 2.6794 0
M  V30 1196 N 113.814 -1.1601 1.06675 0
M  V30 1197 C 114.764 -2.18512 0.650888 0
M  V30 1198 C 115.748 -1.57677 -0.320441 0
M  V30 1199 O 116.94 -1.76482 -0.135266 0
M  V30 1200 C 114.069 -3.43273 0.0429255 0
M  V30 1201 C 113.155 -4.11176 1.03898 0
M  V30 1202 N 113.546 -4.54672 2.216 0
M  V30 1203 C 111.844 -4.37417 0.870779 0
M  V30 1204 C 112.545 -5.07248 2.84736 0
M  V30 1205 N 111.521 -5.0037 2.12441 0
M  V30 1206 H 115.323 -2.49863 1.54745 0
M  V30 1207 H 112.837 -1.32503 0.938975 0
M  V30 1208 H 114.834 -4.16006 -0.272857 0
M  V30 1209 H 113.494 -3.13408 -0.84884 0
M  V30 1210 H 114.505 -4.4828 2.59356 0
M  V30 1211 H 111.182 -4.17488 0.0313293 0
M  V30 1212 H 112.572 -5.50912 3.84636 0
M  V30 1213 N 115.292 -0.849877 -1.32721 0
M  V30 1214 C 116.538 -0.451591 -1.97708 0
M  V30 1215 C 116.871 0.989175 -1.6712 0
M  V30 1216 O 116.146 1.69334 -0.956891 0
M  V30 1217 C 116.429 -0.685598 -3.53513 0
M  V30 1218 C 116.282 -2.17444 -3.93749 0
M  V30 1219 C 117.601 -0.138874 -4.39881 0
M  V30 1220 H 114.72 -0.16555 -0.718166 0
M  V30 1221 H 117.362 -1.06742 -1.57182 0
M  V30 1222 H 115.512 -0.161416 -3.88165 0
M  V30 1223 H 117.184 -2.76433 -3.693 0
M  V30 1224 H 115.427 -2.65476 -3.43081 0
M  V30 1225 H 116.098 -2.28888 -5.02309 0
M  V30 1226 H 118.574 -0.587068 -4.11938 0
M  V30 1227 H 117.45 -0.332213 -5.47894 0
M  V30 1228 H 117.711 0.95806 -4.31594 0
M  V30 1229 N 116.77 1.45427 -0.607355 0
M  V30 1230 C 118.016 2.0254 -0.102607 0
M  V30 1231 C 118.349 1.47478 1.26348 0
M  V30 1232 O 117.624 0.64939 1.83339 0
M  V30 1233 C 117.907 3.60044 -0.0634347 0
M  V30 1234 C 117.76 4.2544 -1.46017 0
M  V30 1235 C 119.079 4.35646 0.624514 0
M  V30 1236 H 116.198 0.73598 -0.0387607 0
M  V30 1237 H 118.84 1.73284 -0.779282 0
M  V30 1238 H 116.99 3.85101 0.512808 0
M  V30 1239 H 118.662 4.11569 -2.08347 0
M  V30 1240 H 116.905 3.83849 -2.02094 0
M  V30 1241 H 117.576 5.34342 -1.385 0
M  V30 1242 H 120.052 4.15882 0.134723 0
M  V30 1243 H 118.928 5.45376 0.621028 0
M  V30 1244 H 119.189 4.08501 1.69055 0
M  V30 1245 N 118.248 0.346503 1.53744 0
M  V30 1246 C 119.525 -0.304532 1.93215 0
M  V30 1247 C 119.905 -1.67993 1.27834 0
M  V30 1248 O 119.253 -2.24411 0.430352 0
M  V30 1249 C 119.463 -0.373852 3.46992 0
M  V30 1250 C 120.811 -0.62329 4.2 0
M  V30 1251 O 121.835 -0.455847 3.53271 0
M  V30 1252 O 120.694 -0.947879 5.38217 0
M  V30 1253 H 117.788 -0.178318 0.807547 0
M  V30 1254 H 120.334 0.397895 1.64969 0
M  V30 1255 H 119.106 0.591224 3.86808 0
M  V30 1256 H 118.729 -1.12294 3.81413 0
M  V30 1257 N 119.726 -1.57421 0.075193 0
M  V30 1258 C 120.636 -2.1642 -0.905511 0
M  V30 1259 C 121.652 -1.12828 -1.32461 0
M  V30 1260 O 122.828 -1.45109 -1.39661 0
M  V30 1261 C 119.893 -2.71693 -2.15369 0
M  V30 1262 C 118.954 -3.90171 -1.79068 0
M  V30 1263 C 118.187 -4.42798 -2.97936 0
M  V30 1264 O 118.41 -3.94416 -4.12058 0
M  V30 1265 O 117.344 -5.34085 -2.77555 0
M  V30 1266 H 121.17 -3.00588 -0.433626 0
M  V30 1267 H 118.755 -1.48664 -0.148067 0
M  V30 1268 H 120.637 -3.07104 -2.88557 0
M  V30 1269 H 119.312 -1.90582 -2.61649 0
M  V30 1270 H 118.219 -3.59606 -1.03122 0
M  V30 1271 H 119.552 -4.72584 -1.37569 0
M  V30 1272 N 121.204 0.198386 -1.56346 0
M  V30 1273 C 122.453 0.917451 -1.79627 0
M  V30 1274 C 122.766 1.8456 -0.64784 0
M  V30 1275 O 123.972 2.60504 -0.764859 0
M  V30 1276 C 122.428 1.68175 -3.18191 0
M  V30 1277 C 122.036 0.798589 -4.40825 0
M  V30 1278 C 123.78 2.39065 -3.50782 0
M  V30 1279 C 121.687 1.56157 -5.70411 0
M  V30 1280 H 120.617 0.346317 -0.669762 0
M  V30 1281 H 123.268 0.170801 -1.82703 0
M  V30 1282 H 121.65 2.47216 -3.09354 0
M  V30 1283 H 122.824 0.0470665 -4.60776 0
M  V30 1284 H 121.139 0.200686 -4.15916 0
M  V30 1285 H 123.736 2.96692 -4.44835 0
M  V30 1286 H 124.079 3.13091 -2.74371 0
M  V30 1287 H 124.612 1.66993 -3.61052 0
M  V30 1288 H 121.351 0.864142 -6.49779 0
M  V30 1289 H 120.871 2.2871 -5.54483 0
M  V30 1290 H 122.55 2.11622 -6.11412 0
M  V30 1291 N 122.682 1.50554 0.465978 0
M  V30 1292 C 123.614 1.65949 1.58093 0
M  V30 1293 C 124.627 0.540827 1.53554 0
M  V30 1294 O 125.816 0.814187 1.5885 0
M  V30 1295 C 122.916 1.63261 2.96983 0
M  V30 1296 C 122.089 2.91245 3.26336 0
M  V30 1297 C 121.148 2.8113 4.44806 0
M  V30 1298 O 120.174 3.55086 4.44862 0
M  V30 1299 N 121.376 1.95032 5.46756 0
M  V30 1300 H 124.141 2.62122 1.45301 0
M  V30 1301 H 121.702 1.48082 0.65448 0
M  V30 1302 H 123.694 1.54101 3.74212 0
M  V30 1303 H 122.264 0.748032 3.03518 0
M  V30 1304 H 121.484 3.14493 2.37672 0
M  V30 1305 H 122.772 3.76022 3.42761 0
M  V30 1306 H 122.17 1.3427 5.49534 0
M  V30 1307 H 120.727 1.91772 6.2295 0
M  V30 1308 N 124.16 -0.719506 1.40217 0
M  V30 1309 C 125.576 -1.02707 1.22161 0
M  V30 1310 C 125.776 -2.0128 0.0940557 0
M  V30 1311 O 124.832 -2.46452 -0.549318 0
M  V30 1312 C 126.145 -1.57454 2.56181 0
M  V30 1313 C 127.693 -1.69458 2.63159 0
M  V30 1314 C 128.168 -2.27611 3.97438 0
M  V30 1315 N 129.659 -2.35002 3.99159 0
M  V30 1316 C 130.394 -2.80972 4.99842 0
M  V30 1317 N 129.89 -3.26723 6.10921 0
M  V30 1318 N 131.683 -2.80321 4.87213 0
M  V30 1319 H 123.834 -0.0660492 2.12297 0
M  V30 1320 H 126.097 -0.0919077 0.943534 0
M  V30 1321 H 125.803 -0.924873 3.39321 0
M  V30 1322 H 125.677 -2.56036 2.76993 0
M  V30 1323 H 128.064 -2.33543 1.80393 0
M  V30 1324 H 128.145 -0.694867 2.46181 0
M  V30 1325 H 127.789 -1.6415 4.80643 0
M  V30 1326 H 127.719 -3.2829 4.11744 0
M  V30 1327 H 130.21 -2.02685 3.18947 0
M  V30 1328 H 130.523 -3.60355 6.8364 0
M  V30 1329 H 128.868 -3.24692 6.14492 0
M  V30 1330 H 132.059 -2.43912 3.9953 0
M  V30 1331 H 132.232 -3.15831 5.65822 0
M  V30 1332 N 125.638 -1.25649 -0.95132 0
M  V30 1333 C 126.586 -1.06118 -2.06982 0
M  V30 1334 C 127.58 0.00889169 -1.69398 0
M  V30 1335 O 128.786 -0.146988 -1.79399 0
M  V30 1336 H 125.161 -0.326248 -0.677544 0
M  V30 1337 H 127.132 -2.00932 -2.2061 0
M  V30 1338 C 125.881 -0.700145 -3.40578 0
M  V30 1339 H 125.204 -1.51537 -3.69968 0
M  V30 1340 H 126.644 -0.603211 -4.19687 0
M  V30 1341 C 125.103 0.59403 -3.31622 0
M  V30 1342 O 125.633 1.63522 -3.66911 0
M  V30 1343 N 123.839 0.58089 -2.84735 0
M  V30 1344 H 123.386 -0.266783 -2.56215 0
M  V30 1345 H 123.344 1.44695 -2.79125 0
M  V30 1346 N 127.117 1.15442 -1.07289 0
M  V30 1347 C 128.027 2.23786 -0.704057 0
M  V30 1348 C 129.043 1.7166 0.284413 0
M  V30 1349 O 130.219 2.00972 0.131205 0
M  V30 1350 C 127.284 3.46535 -0.106792 0
M  V30 1351 C 126.345 4.13654 -1.14842 0
M  V30 1352 C 125.578 5.30544 -0.57956 0
M  V30 1353 O 125.801 5.67187 0.604585 0
M  V30 1354 O 124.735 5.87154 -1.32414 0
M  V30 1355 H 128.561 2.57664 -1.60757 0
M  V30 1356 H 126.146 1.23152 -0.845803 0
M  V30 1357 H 128.028 4.20804 0.224048 0
M  V30 1358 H 126.703 3.14407 0.770049 0
M  V30 1359 H 125.61 3.4131 -1.5316 0
M  V30 1360 H 126.943 4.49861 -1.99714 0
M  V30 1361 N 128.595 0.856903 1.32268 0
M  V30 1362 C 129.542 0.301172 2.28827 0
M  V30 1363 C 130.512 -0.593104 1.5515 0
M  V30 1364 O 131.697 -0.527537 1.83362 0
M  V30 1365 C 128.837 -0.502523 3.41422 0
M  V30 1366 C 127.95 0.417797 4.29975 0
M  V30 1367 C 127.085 -0.398749 5.29701 0
M  V30 1368 C 126.124 0.518827 6.09897 0
M  V30 1369 N 125.261 -0.260674 7.01616 0
M  V30 1370 H 130.101 1.12983 2.75751 0
M  V30 1371 H 127.638 0.568582 1.35667 0
M  V30 1372 H 129.596 -0.984141 4.05426 0
M  V30 1373 H 128.226 -1.29599 2.95642 0
M  V30 1374 H 127.278 1.01781 3.66531 0
M  V30 1375 H 128.59 1.12191 4.86019 0
M  V30 1376 H 127.744 -0.943435 5.9932 0
M  V30 1377 H 126.483 -1.13622 4.7428 0
M  V30 1378 H 125.488 1.07538 5.39181 0
M  V30 1379 H 126.713 1.25495 6.67404 0
M  V30 1380 H 124.659 -0.981198 6.4862 0
M  V30 1381 H 124.576 0.384364 7.55022 0
M  V30 1382 H 125.844 -0.787014 7.75517 0
M  V30 1383 N 130.073 -1.45103 0.615059 0
M  V30 1384 C 131.484 -1.85654 0.197383 0
M  V30 1385 C 131.835 -1.51433 -1.24749 0
M  V30 1386 O 130.96 -0.944608 -1.94695 0
M  V30 1387 C 131.555 -3.36972 0.351448 0
M  V30 1388 C 130.114 -3.76398 -0.011593 0
M  V30 1389 C 129.261 -2.69024 0.672394 0
M  V30 1390 H 132.212 -1.35797 0.821263 0
M  V30 1391 H 132.233 -3.78239 -0.414227 0
M  V30 1392 H 131.745 -3.61847 1.40314 0
M  V30 1393 H 129.846 -3.5714 -1.06217 0
M  V30 1394 H 129.959 -4.77532 0.387265 0
M  V30 1395 H 128.323 -2.54465 0.109284 0
M  V30 1396 H 129.106 -2.96735 1.72636 0
M  V30 1397 N 131.551 -0.354651 -1.53558 0
M  V30 1398 C 132.797 0.238797 -2.01389 0
M  V30 1399 C 133.13 1.49309 -1.2418 0
M  V30 1400 O 132.405 1.91638 -0.332457 0
M  V30 1401 C 132.688 0.541771 -3.56001 0
M  V30 1402 C 132.541 -0.725388 -4.43912 0
M  V30 1403 C 133.86 1.34685 -4.18984 0
M  V30 1404 H 130.979 0.0853177 -0.732045 0
M  V30 1405 H 133.621 -0.477384 -1.83905 0
M  V30 1406 H 131.771 1.15189 -3.71031 0
M  V30 1407 H 133.443 -1.36313 -4.407 0
M  V30 1408 H 131.686 -1.34801 -4.12324 0
M  V30 1409 H 132.357 -0.468505 -5.50008 0
M  V30 1410 H 134.833 0.830837 -4.07721 0
M  V30 1411 H 133.709 1.52759 -5.27215 0
M  V30 1412 H 133.97 2.35221 -3.74331 0
M  V30 1413 N 133.029 1.57378 -0.0835403 0
M  V30 1414 C 134.275 1.94217 0.583733 0
M  V30 1415 C 134.608 0.964653 1.68547 0
M  V30 1416 O 133.883 -0.00422258 1.945 0
M  V30 1417 C 134.166 3.41253 1.14972 0
M  V30 1418 C 134.019 4.49768 0.0538277 0
M  V30 1419 C 135.338 3.89352 2.05166 0
M  V30 1420 H 132.457 0.706233 0.210724 0
M  V30 1421 H 135.099 1.89392 -0.1519 0
M  V30 1422 H 133.249 3.45496 1.77665 0
M  V30 1423 H 134.921 4.57641 -0.579851 0
M  V30 1424 H 133.164 4.29432 -0.614068 0
M  V30 1425 H 133.835 5.49817 0.490452 0
M  V30 1426 H 136.311 3.87189 1.52393 0
M  V30 1427 H 135.187 4.92822 2.41698 0
M  V30 1428 H 135.448 3.27973 2.96456 0
M  V30 1429 N 134.507 -0.190092 1.56449 0
M  V30 1430 C 135.47 -1.21925 1.9408 0
M  V30 1431 C 136.47 -1.38176 0.822431 0
M  V30 1432 O 137.66 -1.35903 1.08977 0
M  V30 1433 C 134.792 -2.58773 2.21922 0
M  V30 1434 H 135.985 -0.897464 2.86157 0
M  V30 1435 H 133.538 -0.43181 1.50217 0
M  V30 1436 H 134.273 -2.95998 1.32499 0
M  V30 1437 H 134.058 -2.48348 3.03424 0
M  V30 1438 H 135.548 -3.32978 2.52022 0
M  V30 1439 N 135.985 -1.50799 -0.457987 0
M  V30 1440 C 136.948 -1.7005 -1.53674 0
M  V30 1441 C 137.948 -0.570881 -1.50325 0
M  V30 1442 O 139.138 -0.838126 -1.52712 0
M  V30 1443 C 136.27 -1.73788 -2.93276 0
M  V30 1444 H 137.463 -2.66306 -1.37917 0
M  V30 1445 H 135.016 -1.40477 -0.685271 0
M  V30 1446 H 135.751 -0.792717 -3.14462 0
M  V30 1447 H 135.536 -2.55864 -2.97113 0
M  V30 1448 H 137.026 -1.90591 -3.71571 0
M  V30 1449 N 137.463 0.71206 -1.40597 0
M  V30 1450 C 138.712 1.46754 -1.38369 0
M  V30 1451 C 139.025 1.95598 0.0097839 0
M  V30 1452 O 140.231 2.71059 0.154677 0
M  V30 1453 C 138.687 2.65289 -2.43207 0
M  V30 1454 C 138.295 2.23301 -3.88382 0
M  V30 1455 C 140.039 3.43008 -2.50091 0
M  V30 1456 C 137.946 3.38696 -4.84808 0
M  V30 1457 H 136.876 0.55118 -0.514506 0
M  V30 1458 H 139.527 0.774616 -1.66349 0
M  V30 1459 H 137.909 3.36769 -2.08332 0
M  V30 1460 H 139.083 1.59218 -4.32419 0
M  V30 1461 H 137.398 1.58618 -3.85006 0
M  V30 1462 H 139.995 4.28881 -3.1932 0
M  V30 1463 H 140.338 3.87065 -1.53253 0
M  V30 1464 H 140.871 2.78574 -2.83974 0
M  V30 1465 H 137.61 2.99668 -5.82992 0
M  V30 1466 H 137.13 4.01683 -4.45433 0
M  V30 1467 H 138.809 4.04712 -5.04794 0
M  V30 1468 N 138.941 1.26152 0.944643 0
M  V30 1469 C 139.873 1.03199 2.04652 0
M  V30 1470 C 140.886 -0.00642356 1.62799 0
M  V30 1471 O 142.075 0.233263 1.76969 0
M  V30 1472 C 139.175 0.540111 3.34568 0
M  V30 1473 C 138.348 1.64697 4.05208 0
M  V30 1474 C 137.407 1.15374 5.13396 0
M  V30 1475 O 136.433 1.85013 5.38293 0
M  V30 1476 N 137.635 0.00031529 5.805 0
M  V30 1477 H 140.4 1.9808 2.2491 0
M  V30 1478 H 137.961 1.17491 1.11389 0
M  V30 1479 H 139.953 0.194401 4.04233 0
M  V30 1480 H 138.523 -0.315021 3.11009 0
M  V30 1481 H 137.743 2.16379 3.29506 0
M  V30 1482 H 139.031 2.3903 4.49157 0
M  V30 1483 H 138.429 -0.581336 5.62705 0
M  V30 1484 H 136.986 -0.286346 6.51171 0
M  V30 1485 N 140.419 -1.14872 1.07899 0
M  V30 1486 C 141.667 -1.85422 0.803941 0
M  V30 1487 C 141.988 -1.83051 -0.67211 0
M  V30 1488 O 141.258 -1.27532 -1.48703 0
M  V30 1489 H 139.838 -0.686537 0.294408 0
M  V30 1490 H 142.5 -1.39226 1.3639 0
M  V30 1491 H 141.596 -2.90399 1.14346 0
M  V30 1492 N 141.898 -0.863906 -1.31812 0
M  V30 1493 C 142.831 -0.259963 -2.26714 0
M  V30 1494 C 143.809 0.607392 -1.50829 0
M  V30 1495 O 144.993 0.562155 -1.79922 0
M  V30 1496 C 142.12 0.632456 -3.32743 0
M  V30 1497 C 141.166 -0.162743 -4.26189 0
M  V30 1498 S 141.999 -1.53726 -5.12961 0
M  V30 1499 C 143.155 -0.650803 -6.22507 0
M  V30 1500 H 143.388 -1.06445 -2.77591 0
M  V30 1501 H 140.921 -0.662071 -1.39485 0
M  V30 1502 H 142.879 1.14167 -3.94305 0
M  V30 1503 H 141.54 1.41083 -2.80632 0
M  V30 1504 H 140.733 0.517366 -5.01338 0
M  V30 1505 H 140.335 -0.60385 -3.69093 0
M  V30 1506 H 142.627 0.141134 -6.77353 0
M  V30 1507 H 143.57 -1.37322 -6.94657 0
M  V30 1508 H 143.978 -0.221041 -5.64067 0
M  V30 1509 N 143.376 1.44774 -0.622745 0
M  V30 1510 C 144.339 2.29069 0.0774015 0
M  V30 1511 C 145.339 1.4059 0.780461 0
M  V30 1512 O 146.529 1.62551 0.626322 0
M  V30 1513 C 143.661 3.21974 1.12006 0
M  V30 1514 H 144.854 2.92459 -0.663901 0
M  V30 1515 H 142.407 1.51548 -0.382486 0
M  V30 1516 H 143.142 2.63417 1.89162 0
M  V30 1517 H 142.927 3.87168 0.619951 0
M  V30 1518 H 144.417 3.85318 1.60995 0
M  V30 1519 N 144.854 0.36279 1.53368 0
M  V30 1520 C 146.101 -0.227776 2.01215 0
M  V30 1521 C 146.429 -1.49003 1.25014 0
M  V30 1522 O 145.684 -1.92876 0.331236 0
M  V30 1523 C 145.983 -0.568417 3.52851 0
M  V30 1524 C 145.649 0.59918 4.46901 0
M  V30 1525 C 144.311 0.919559 4.72332 0
M  V30 1526 C 146.663 1.38156 5.02556 0
M  V30 1527 C 143.991 2.02434 5.5067 0
M  V30 1528 C 146.343 2.47674 5.821 0
M  V30 1529 C 145.007 2.8025 6.05819 0
M  V30 1530 H 144.277 -0.083349 0.736297 0
M  V30 1531 H 146.924 0.494677 1.85001 0
M  V30 1532 H 145.229 -1.37185 3.66998 0
M  V30 1533 H 146.926 -1.03756 3.87344 0
M  V30 1534 H 143.516 0.339437 4.27254 0
M  V30 1535 H 147.7 1.14729 4.82857 0
M  V30 1536 H 142.956 2.28075 5.67267 0
M  V30 1537 H 147.13 3.08716 6.24234 0
M  V30 1538 H 144.757 3.65979 6.66306 0
M  V30 1539 N 146.332 -1.57332 0.0918853 0
M  V30 1540 C 147.58 -1.93853 -0.571446 0
M  V30 1541 C 147.901 -0.974212 -1.6892 0
M  V30 1542 O 147.171 -0.0257254 -1.95883 0
M  V30 1543 H 145.751 -0.715666 -0.214082 0
M  V30 1544 H 148.413 -1.94287 0.154464 0
M  V30 1545 H 147.509 -2.96191 -0.983729 0
M  V30 1546 N 147.81 0.181792 -1.56548 0
M  V30 1547 C 149.058 0.89832 -1.81038 0
M  V30 1548 C 149.379 1.83232 -0.667164 0
M  V30 1549 O 148.649 1.93372 0.313673 0
M  V30 1550 H 147.229 0.33471 -0.667816 0
M  V30 1551 H 149.891 0.184116 -1.94028 0
M  V30 1552 H 148.987 1.4815 -2.74696 0
M  V30 1553 N 149.288 1.51039 0.449983 0
M  V30 1554 C 150.536 1.62759 1.19808 0
M  V30 1555 C 150.857 0.339981 1.92013 0
M  V30 1556 O 150.127 -0.643606 1.85026 0
M  V30 1557 H 148.707 0.599811 0.445237 0
M  V30 1558 H 151.369 1.87914 0.517138 0
M  V30 1559 H 150.465 2.44911 1.93455 0
M  V30 1560 N 150.766 -0.704594 1.40972 0
M  V30 1561 C 151.696 -1.83124 1.44872 0
M  V30 1562 C 152.677 -1.67281 0.30838 0
M  V30 1563 O 153.862 -1.87149 0.518556 0
M  V30 1564 C 150.992 -3.21181 1.32136 0
M  V30 1565 C 149.946 -3.51714 2.43888 0
M  V30 1566 C 149.272 -4.89032 2.16222 0
M  V30 1567 C 150.572 -3.516 3.86232 0
M  V30 1568 H 152.266 -1.80117 2.39161 0
M  V30 1569 H 149.812 -0.865145 1.15114 0
M  V30 1570 H 151.765 -3.99702 1.33479 0
M  V30 1571 H 150.489 -3.24791 0.343279 0
M  V30 1572 H 149.148 -2.75539 2.41813 0
M  V30 1573 H 148.796 -4.89256 1.16778 0
M  V30 1574 H 148.496 -5.10426 2.911 0
M  V30 1575 H 150.02 -5.69873 2.19265 0
M  V30 1576 H 151.434 -4.2014 3.9007 0
M  V30 1577 H 149.831 -3.84523 4.60719 0
M  V30 1578 H 150.901 -2.50757 4.15029 0
M  V30 1579 N 152.244 -1.26651 -0.937939 0
M  V30 1580 C 153.154 -1.10276 -2.07066 0
M  V30 1581 C 154.17 -0.0354197 -1.73964 0
M  V30 1582 O 155.346 -0.239816 -1.99967 0
M  V30 1583 C 152.411 -0.740887 -3.38691 0
M  V30 1584 C 151.472 -1.88799 -3.85556 0
M  V30 1585 C 150.705 -1.54329 -5.10899 0
M  V30 1586 O 150.928 -0.446494 -5.6865 0
M  V30 1587 O 149.862 -2.37911 -5.52885 0
M  V30 1588 H 153.688 -2.05309 -2.23789 0
M  V30 1589 H 151.273 -1.05743 -1.0554 0
M  V30 1590 H 153.155 -0.55195 -4.1777 0
M  V30 1591 H 151.83 0.180022 -3.23199 0
M  V30 1592 H 150.737 -2.13191 -3.07409 0
M  V30 1593 H 152.07 -2.78874 -4.05574 0
M  V30 1594 N 153.722 1.14298 -1.08507 0
M  V30 1595 C 154.652 2.21542 -0.737646 0
M  V30 1596 C 155.633 1.67773 0.280377 0
M  V30 1597 O 156.818 1.93616 0.150521 0
M  V30 1598 C 153.948 3.46988 -0.147259 0
M  V30 1599 C 152.902 4.13789 -1.09374 0
M  V30 1600 C 152.228 5.33449 -0.365524 0
M  V30 1601 C 153.528 4.62208 -2.4323 0
M  V30 1602 H 155.222 2.5086 -1.6343 0
M  V30 1603 H 152.768 1.20576 -0.787243 0
M  V30 1604 H 154.721 4.21262 0.107808 0
M  V30 1605 H 153.445 3.17037 0.784538 0
M  V30 1606 H 152.104 3.4147 -1.33393 0
M  V30 1607 H 151.752 4.99759 0.57011 0
M  V30 1608 H 151.452 5.79088 -0.996512 0
M  V30 1609 H 152.976 6.10485 -0.118534 0
M  V30 1610 H 154.39 5.27952 -2.23472 0
M  V30 1611 H 152.787 5.18553 -3.02031 0
M  V30 1612 H 153.857 3.77224 -3.04681 0
M  V30 1613 N 155.201 0.870884 1.31352 0
M  V30 1614 C 156.164 0.332243 2.26779 0
M  V30 1615 C 157.164 -0.517302 1.52252 0
M  V30 1616 O 158.354 -0.326477 1.71113 0
M  V30 1617 C 155.486 -0.528066 3.36785 0
M  V30 1618 H 156.679 1.17469 2.75937 0
M  V30 1619 H 154.232 0.64655 1.423 0
M  V30 1620 H 154.967 -1.39167 2.92922 0
M  V30 1621 H 154.752 0.0802582 3.92018 0
M  V30 1622 H 156.242 -0.897179 4.07849 0
M  V30 1623 N 156.679 -1.44442 0.630414 0
M  V30 1624 C 157.609 -2.33418 -0.0618083 0
M  V30 1625 C 158.59 -1.48165 -0.835541 0
M  V30 1626 O 159.775 -1.76886 -0.801564 0
M  V30 1627 C 156.905 -3.31222 -1.04449 0
M  V30 1628 C 155.859 -4.26288 -0.382436 0
M  V30 1629 C 155.185 -5.13954 -1.47497 0
M  V30 1630 C 156.485 -5.1744 0.710865 0
M  V30 1631 H 158.179 -2.91548 0.681184 0
M  V30 1632 H 155.725 -1.40191 0.329026 0
M  V30 1633 H 157.678 -3.92351 -1.53748 0
M  V30 1634 H 156.402 -2.71299 -1.81836 0
M  V30 1635 H 155.061 -3.6649 0.0899054 0
M  V30 1636 H 154.709 -4.50385 -2.2397 0
M  V30 1637 H 154.409 -5.7837 -1.03737 0
M  V30 1638 H 155.933 -5.77955 -1.96979 0
M  V30 1639 H 157.347 -5.72509 0.300996 0
M  V30 1640 H 155.744 -5.90455 1.07156 0
M  V30 1641 H 156.814 -4.58496 1.57829 0
M  V30 1642 N 158.157 -0.370918 -1.53173 0
M  V30 1643 C 159.405 0.216673 -2.00935 0
M  V30 1644 C 159.726 1.48845 -1.25977 0
M  V30 1645 O 158.996 1.92286 -0.374551 0
M  V30 1646 H 157.576 0.0830565 -0.742368 0
M  V30 1647 H 160.238 -0.49838 -1.8842 0
M  V30 1648 H 159.334 0.439893 -3.08984 0
M  V30 1649 N 159.635 1.57281 -0.100228 0
M  V30 1650 C 160.875 1.96419 0.56558 0
M  V30 1651 C 161.239 0.981265 1.65031 0
M  V30 1652 O 162.44 1.26133 2.37369 0
M  V30 1653 C 160.711 3.39996 1.10171 0
M  V30 1654 S 162.27 4.01134 1.77867 0
M  V30 1655 H 159.088 0.68667 0.184406 0
M  V30 1656 H 161.69 1.94662 -0.180851 0
M  V30 1657 H 160.394 4.09296 0.300803 0
M  V30 1658 H 159.925 3.45361 1.88385 0
M  V30 1659 H 161.94 3.90358 3.06326 0
M  V30 1660 N 161.113 -0.173488 1.56642 0
M  V30 1661 C 162.063 -1.21941 1.92651 0
M  V30 1662 C 163.047 -1.39912 0.794577 0
M  V30 1663 O 164.239 -1.41919 1.05773 0
M  V30 1664 C 161.368 -2.55935 2.28806 0
M  V30 1665 C 160.454 -2.41667 3.48508 0
M  V30 1666 N 160.845 -1.9711 4.65813 0
M  V30 1667 C 159.143 -2.72499 3.53072 0
M  V30 1668 C 159.844 -1.95253 5.47952 0
M  V30 1669 N 158.82 -2.37575 4.88937 0
M  V30 1670 H 162.622 -0.866581 2.80834 0
M  V30 1671 H 160.136 -0.381776 1.57849 0
M  V30 1672 H 162.133 -3.31511 2.52797 0
M  V30 1673 H 160.793 -2.92022 1.41961 0
M  V30 1674 H 161.804 -1.67481 4.90072 0
M  V30 1675 H 158.481 -3.12639 2.767 0
M  V30 1676 H 159.871 -1.6252 6.51948 0
M  V30 1677 N 162.591 -1.51276 -0.441967 0
M  V30 1678 C 163.821 -1.67273 -1.21257 0
M  V30 1679 C 164.229 -0.367624 -1.85594 0
M  V30 1680 O 163.572 0.663349 -1.71305 0
M  V30 1681 C 163.634 -2.72807 -2.34129 0
M  V30 1682 C 163.298 -4.1554 -1.90198 0
M  V30 1683 C 164.295 -5.00471 -1.40801 0
M  V30 1684 C 161.98 -4.61616 -1.9803 0
M  V30 1685 C 163.974 -6.29536 -0.998174 0
M  V30 1686 C 161.661 -5.90679 -1.56658 0
M  V30 1687 C 162.659 -6.74466 -1.07633 0
M  V30 1688 O 162.347 -8.01116 -0.668459 0
M  V30 1689 H 162.079 -0.564614 -0.371734 0
M  V30 1690 H 164.633 -1.9843 -0.530521 0
M  V30 1691 H 162.863 -2.36954 -3.05597 0
M  V30 1692 H 164.552 -2.77729 -2.96009 0
M  V30 1693 H 165.318 -4.66079 -1.34148 0
M  V30 1694 H 161.197 -3.96526 -2.35135 0
M  V30 1695 H 164.741 -6.94885 -0.61482 0
M  V30 1696 H 160.638 -6.24586 -1.62979 0
M  V30 1697 H 161.406 -8.14633 -0.794722 0
M  V30 1698 N 164.069 0.697108 -1.41344 0
M  V30 1699 C 165.485 1.00751 -1.2378 0
M  V30 1700 C 165.685 2.01105 -0.126066 0
M  V30 1701 O 164.741 2.47295 0.51004 0
M  V30 1702 C 166.054 1.53359 -2.58653 0
M  V30 1703 C 167.602 1.6525 -2.65822 0
M  V30 1704 C 168.077 2.2126 -4.01009 0
M  V30 1705 N 169.568 2.28622 -4.02847 0
M  V30 1706 C 170.303 2.72984 -5.04249 0
M  V30 1707 N 169.799 3.16962 -6.16041 0
M  V30 1708 N 171.592 2.72534 -4.91611 0
M  V30 1709 H 163.743 0.0322662 -2.12375 0
M  V30 1710 H 166.006 0.0768853 -0.944877 0
M  V30 1711 H 165.712 0.870773 -3.4075 0
M  V30 1712 H 165.586 2.51597 -2.81032 0
M  V30 1713 H 167.973 2.30644 -1.84086 0
M  V30 1714 H 168.054 0.655614 -2.47256 0
M  V30 1715 H 167.698 1.56482 -4.83193 0
M  V30 1716 H 167.628 3.21698 -4.16915 0
M  V30 1717 H 170.119 1.97585 -3.22131 0
M  V30 1718 H 170.432 3.49434 -6.89287 0
M  V30 1719 H 168.777 3.14875 -6.1958 0
M  V30 1720 H 171.968 2.37525 -4.0336 0
M  V30 1721 H 172.141 3.06789 -5.70775 0
M  V30 1722 N 165.547 1.27147 0.931209 0
M  V30 1723 C 166.796 1.12664 1.67302 0
M  V30 1724 C 167.109 -0.327718 1.92835 0
M  V30 1725 O 168.315 -0.593392 2.64936 0
M  V30 1726 C 166.771 1.9683 3.01307 0
M  V30 1727 C 166.379 3.46901 2.83485 0
M  V30 1728 C 168.123 1.90985 3.79111 0
M  V30 1729 C 166.03 4.23279 4.13024 0
M  V30 1730 H 164.96 0.41803 0.627509 0
M  V30 1731 H 167.611 1.51539 1.03481 0
M  V30 1732 H 165.993 1.50797 3.66164 0
M  V30 1733 H 167.167 4.00773 2.27415 0
M  V30 1734 H 165.482 3.54088 2.19113 0
M  V30 1735 H 168.079 2.45328 4.75098 0
M  V30 1736 H 168.422 0.882718 4.06834 0
M  V30 1737 H 168.955 2.34895 3.21044 0
M  V30 1738 H 165.694 5.26503 3.90481 0
M  V30 1739 H 165.214 3.74186 4.6877 0
M  V30 1740 H 166.893 4.32265 4.81411 0
M  V30 1741 N 167.025 -1.13721 1.09112 0
M  V30 1742 C 167.988 -2.17222 0.731241 0
M  V30 1743 C 168.988 -1.59035 -0.237566 0
M  V30 1744 O 170.178 -1.74192 -0.0161704 0
M  V30 1745 C 167.31 -3.40804 0.0808443 0
M  V30 1746 H 168.503 -2.50573 1.64783 0
M  V30 1747 H 166.056 -1.28493 0.889897 0
M  V30 1748 H 166.791 -3.1304 -0.847127 0
M  V30 1749 H 166.576 -3.84306 0.777896 0
M  V30 1750 H 168.066 -4.1731 -0.155657 0
M  V30 1751 N 168.503 -0.877838 -1.30888 0
M  V30 1752 C 169.453 -0.310872 -2.25871 0
M  V30 1753 C 170.437 0.556596 -1.50966 0
M  V30 1754 O 171.629 0.402187 -1.7237 0
M  V30 1755 C 168.758 0.479821 -3.3993 0
M  V30 1756 C 167.844 -0.401333 -4.22197 0
M  V30 1757 N 168.235 -1.49848 -4.83093 0
M  V30 1758 C 166.533 -0.195167 -4.45573 0
M  V30 1759 C 167.234 -2.0425 -5.44662 0
M  V30 1760 N 166.21 -1.33843 -5.26865 0
M  V30 1761 H 170.012 -1.1493 -2.70496 0
M  V30 1762 H 167.526 -0.726458 -1.45246 0
M  V30 1763 H 169.523 0.902582 -4.07012 0
M  V30 1764 H 168.183 1.31577 -2.96846 0
M  V30 1765 H 169.194 -1.88137 -4.82519 0
M  V30 1766 H 165.871 0.604192 -4.13105 0
M  V30 1767 H 167.261 -2.96345 -6.03017 0
M  V30 1768 N 169.982 1.44106 -0.638065 0
M  V30 1769 C 170.945 2.29138 0.0531013 0
M  V30 1770 C 171.945 1.41409 0.765506 0
M  V30 1771 O 173.135 1.63206 0.609046 0
M  V30 1772 C 170.267 3.23144 1.08584 0
M  V30 1773 H 171.46 2.91739 -0.694883 0
M  V30 1774 H 169.013 1.51134 -0.398538 0
M  V30 1775 H 169.748 2.65408 1.86357 0
M  V30 1776 H 169.533 3.87804 0.578852 0
M  V30 1777 H 171.023 3.87004 1.56899 0
M  V30 1778 N 171.46 0.379036 1.52974 0
M  V30 1779 C 172.37 -0.468639 2.29872 0
M  V30 1780 C 173.386 -1.08067 1.36373 0
M  V30 1781 O 174.562 -1.08871 1.69438 0
M  V30 1782 C 171.627 -1.58594 3.083 0
M  V30 1783 C 170.688 -1.00007 4.17489 0
M  V30 1784 C 169.921 -2.06413 4.92168 0
M  V30 1785 O 170.144 -3.27751 4.66835 0
M  V30 1786 O 169.078 -1.68717 5.7777 0
M  V30 1787 H 172.904 0.157508 3.03291 0
M  V30 1788 H 170.489 0.143035 1.48714 0
M  V30 1789 H 172.371 -2.23525 3.57232 0
M  V30 1790 H 171.046 -2.19724 2.37703 0
M  V30 1791 H 169.953 -0.314299 3.72777 0
M  V30 1792 H 171.286 -0.433135 4.90291 0
M  V30 1793 N 172.938 -1.57226 0.108567 0
M  V30 1794 C 173.901 -2.13602 -0.831082 0
M  V30 1795 C 174.901 -1.06841 -1.20173 0
M  V30 1796 O 176.091 -1.32666 -1.12895 0
M  V30 1797 C 173.223 -2.66769 -2.12243 0
M  V30 1798 H 174.416 -2.97951 -0.341317 0
M  V30 1799 H 171.969 -1.55667 -0.14057 0
M  V30 1800 H 172.704 -1.85977 -2.65675 0
M  V30 1801 H 172.489 -3.44839 -1.86625 0
M  V30 1802 H 173.979 -3.10332 -2.79435 0
M  V30 1803 N 174.416 0.165178 -1.56732 0
M  V30 1804 C 175.348 1.22911 -1.93457 0
M  V30 1805 C 176.361 1.40152 -0.828333 0
M  V30 1806 O 177.55 1.40046 -1.10677 0
M  V30 1807 C 174.65 2.59686 -2.17753 0
M  V30 1808 C 173.823 2.63663 -3.48999 0
M  V30 1809 C 172.882 3.81845 -3.62051 0
M  V30 1810 O 171.908 3.67559 -4.34613 0
M  V30 1811 N 173.11 4.98557 -2.97357 0
M  V30 1812 H 175.875 0.917118 -2.85323 0
M  V30 1813 H 173.436 0.354895 -1.57962 0
M  V30 1814 H 175.428 3.37225 -2.23743 0
M  V30 1815 H 173.998 2.83251 -1.32242 0
M  V30 1816 H 173.218 1.72173 -3.54612 0
M  V30 1817 H 174.506 2.63336 -4.35352 0
M  V30 1818 H 173.904 5.13065 -2.38287 0
M  V30 1819 H 172.461 5.73936 -3.08934 0
M  V30 1820 N 175.894 1.51508 0.433938 0
M  V30 1821 C 177.14 1.64588 1.18484 0
M  V30 1822 C 177.473 0.362666 1.90784 0
M  V30 1823 O 176.748 -0.637892 1.83742 0
M  V30 1824 C 177.031 2.85149 2.19913 0
M  V30 1825 C 176.884 4.23456 1.51674 0
M  V30 1826 C 178.203 3.01227 3.20858 0
M  V30 1827 H 175.322 0.598994 0.429389 0
M  V30 1828 H 177.964 1.84002 0.473647 0
M  V30 1829 H 176.114 2.68729 2.80566 0
M  V30 1830 H 177.786 4.51552 0.943322 0
M  V30 1831 H 176.029 4.25998 0.819035 0
M  V30 1832 H 176.7 5.03812 2.2556 0
M  V30 1833 H 179.176 3.16382 2.70263 0
M  V30 1834 H 178.052 3.87141 3.89118 0
M  V30 1835 H 178.313 2.13447 3.8716 0
M  V30 1836 N 177.372 -0.689602 1.41712 0
M  V30 1837 C 178.62 -1.4468 1.4111 0
M  V30 1838 C 178.941 -1.94986 0.0232196 0
M  V30 1839 O 178.211 -1.72097 -0.935913 0
M  V30 1840 H 176.791 -0.536847 0.519427 0
M  V30 1841 H 179.453 -0.815825 1.77004 0
M  V30 1842 H 178.549 -2.30706 2.10193 0
M  V30 1843 N 178.85 -1.27639 -0.924453 0
M  V30 1844 C 179.78 -1.13166 -2.04244 0
M  V30 1845 C 180.761 -0.032256 -1.70069 0
M  V30 1846 O 181.946 -0.207328 -1.9309 0
M  V30 1847 C 179.076 -0.781496 -3.38393 0
M  V30 1848 C 178.03 -1.83449 -3.86692 0
M  V30 1849 C 177.356 -1.33822 -5.17683 0
M  V30 1850 C 178.656 -3.23917 -4.09726 0
M  V30 1851 H 180.35 -2.06689 -2.1661 0
M  V30 1852 H 177.896 -0.995136 -1.04082 0
M  V30 1853 H 179.849 -0.667057 -4.16087 0
M  V30 1854 H 178.573 0.189439 -3.2605 0
M  V30 1855 H 177.232 -1.93789 -3.11193 0
M  V30 1856 H 176.88 -0.35665 -5.01734 0
M  V30 1857 H 176.58 -2.04224 -5.50968 0
M  V30 1858 H 178.104 -1.23679 -5.97943 0
M  V30 1859 H 179.518 -3.16559 -4.77978 0
M  V30 1860 H 177.915 -3.92059 -4.54324 0
M  V30 1861 H 178.985 -3.68729 -3.14908 0
M  V30 1862 N 180.328 1.1314 -1.09713 0
M  V30 1863 C 181.739 1.66029 -0.853885 0
M  V30 1864 C 182.09 1.86241 0.617142 0
M  V30 1865 O 181.215 1.5834 1.47503 0
M  V30 1866 C 181.81 3.01599 -1.5435 0
M  V30 1867 C 180.369 3.51467 -1.34714 0
M  V30 1868 C 179.516 2.26648 -1.59769 0
M  V30 1869 H 182.467 0.970226 -1.25588 0
M  V30 1870 H 182.488 3.67709 -0.978267 0
M  V30 1871 H 182 2.86856 -2.6141 0
M  V30 1872 H 180.101 3.71408 -0.297838 0
M  V30 1873 H 180.214 4.314 -2.08401 0
M  V30 1874 H 178.578 2.33385 -1.01998 0
M  V30 1875 H 179.361 2.14467 -2.68065 0
M  V30 1876 N 181.806 0.884767 1.30421 0
M  V30 1877 C 182.716 0.355398 2.31892 0
M  V30 1878 C 183.732 -0.542261 1.65335 0
M  V30 1879 O 184.908 -0.435432 1.96637 0
M  V30 1880 C 181.973 -0.421661 3.44126 0
M  V30 1881 C 181.034 0.505727 4.26311 0
M  V30 1882 C 180.267 -0.234343 5.33185 0
M  V30 1883 O 180.49 -1.46045 5.51386 0
M  V30 1884 O 179.424 0.415443 6.00465 0
M  V30 1885 H 183.25 1.19685 2.79122 0
M  V30 1886 H 180.835 0.648596 1.34587 0
M  V30 1887 H 182.717 -0.861641 4.12497 0
M  V30 1888 H 181.392 -1.23942 2.99032 0
M  V30 1889 H 180.299 0.994513 3.60639 0
M  V30 1890 H 181.632 1.28948 4.75009 0
M  V30 1891 N 183.284 -1.43765 0.645699 0
M  V30 1892 C 184.53 -2.02197 0.156271 0
M  V30 1893 C 184.863 -1.50776 -1.22393 0
M  V30 1894 O 184.138 -0.697771 -1.81553 0
M  V30 1895 C 184.421 -3.59749 0.158872 0
M  V30 1896 C 184.274 -4.21419 1.57245 0
M  V30 1897 C 185.593 -4.37149 -0.50879 0
M  V30 1898 H 182.712 -0.734694 0.0582602 0
M  V30 1899 H 185.354 -1.71157 0.824951 0
M  V30 1900 H 183.504 -3.86325 -0.410525 0
M  V30 1901 H 185.176 -4.059 2.19186 0
M  V30 1902 H 183.419 -3.78356 2.122 0
M  V30 1903 H 184.09 -5.30482 1.52619 0
M  V30 1904 H 186.566 -4.16093 -0.024412 0
M  V30 1905 H 185.442 -5.4683 -0.476213 0
M  V30 1906 H 185.703 -4.12839 -1.58165 0
M  V30 1907 N 184.763 -0.387143 -1.52771 0
M  V30 1908 C 185.991 0.195869 -2.05971 0
M  V30 1909 C 186.406 1.40691 -1.25903 0
M  V30 1910 O 185.763 1.79931 -0.305134 0
M  V30 1911 C 185.814 0.56812 -3.57008 0
M  V30 1912 O 185.535 -0.594803 -4.34043 0
M  V30 1913 C 187.036 1.20723 -4.26545 0
M  V30 1914 H 184.256 0.0300578 -0.670326 0
M  V30 1915 H 186.8 -0.551749 -1.96916 0
M  V30 1916 H 184.955 1.26564 -3.66143 0
M  V30 1917 H 185.369 -0.289322 -5.23701 0
M  V30 1918 H 186.843 1.41807 -5.33474 0
M  V30 1919 H 187.32 2.17395 -3.81623 0
M  V30 1920 H 187.926 0.550535 -4.21722 0
M  V30 1921 N 186.241 1.57166 -0.116904 0
M  V30 1922 C 187.171 2.18222 0.830759 0
M  V30 1923 C 188.152 1.12167 1.27877 0
M  V30 1924 O 189.337 1.40394 1.34176 0
M  V30 1925 C 186.467 2.77996 2.08172 0
M  V30 1926 C 185.421 3.89614 1.77157 0
M  V30 1927 C 184.747 4.36187 3.09265 0
M  V30 1928 C 186.047 5.1181 1.04151 0
M  V30 1929 H 187.741 2.97664 0.321992 0
M  V30 1930 H 185.287 1.4318 0.153434 0
M  V30 1931 H 187.24 3.19366 2.74924 0
M  V30 1932 H 185.964 1.9584 2.6137 0
M  V30 1933 H 184.623 3.48816 1.12796 0
M  V30 1934 H 184.271 3.50893 3.60393 0
M  V30 1935 H 183.971 5.11455 2.89288 0
M  V30 1936 H 185.495 4.80207 3.77139 0
M  V30 1937 H 186.909 5.50214 1.61052 0
M  V30 1938 H 185.306 5.92648 0.942762 0
M  V30 1939 H 186.376 4.84892 0.0279022 0
M  V30 1940 N 187.719 -0.156864 1.56817 0
M  V30 1941 C 188.967 -0.869404 1.82444 0
M  V30 1942 C 189.288 -1.82147 0.69623 0
M  V30 1943 O 188.558 -1.93847 -0.28287 0
M  V30 1944 H 187.138 -0.324043 0.673056 0
M  V30 1945 H 189.8 -0.153224 1.94297 0
M  V30 1946 H 188.896 -1.43761 2.77019 0
M  V30 1947 N 189.197 -1.51736 -0.425897 0
M  V30 1948 C 190.127 -1.76827 -1.52494 0
M  V30 1949 C 191.108 -0.618524 -1.58456 0
M  V30 1950 O 192.293 -0.862416 -1.74 0
M  V30 1951 C 189.423 -1.90374 -2.90474 0
M  V30 1952 C 188.377 -3.0588 -2.99369 0
M  V30 1953 C 187.703 -3.04625 -4.3944 0
M  V30 1954 C 189.003 -4.45644 -2.72394 0
M  V30 1955 H 190.697 -2.68855 -1.31748 0
M  V30 1956 H 188.243 -1.29372 -0.632362 0
M  V30 1957 H 190.196 -2.0651 -3.6733 0
M  V30 1958 H 188.92 -0.95004 -3.12477 0
M  V30 1959 H 187.579 -2.89467 -2.24954 0
M  V30 1960 H 187.227 -2.0701 -4.58428 0
M  V30 1961 H 186.927 -3.82195 -4.46319 0
M  V30 1962 H 188.451 -3.22869 -5.18255 0
M  V30 1963 H 189.865 -4.62348 -3.38979 0
M  V30 1964 H 188.262 -5.25006 -2.9067 0
M  V30 1965 H 189.332 -4.54893 -1.67929 0
M  V30 1966 N 190.675 0.682077 -1.42076 0
M  V30 1967 C 191.605 1.80796 -1.47767 0
M  V30 1968 C 192.586 1.6677 -0.334954 0
M  V30 1969 O 193.771 1.863 -0.548264 0
M  V30 1970 C 190.901 3.19038 -1.37229 0
M  V30 1971 C 189.855 3.47789 -2.49453 0
M  V30 1972 C 189.181 4.8553 -2.23975 0
M  V30 1973 C 190.481 3.45411 -3.91776 0
M  V30 1974 H 192.175 1.7629 -2.41997 0
M  V30 1975 H 189.721 0.846721 -1.16476 0
M  V30 1976 H 191.674 3.97528 -1.39821 0
M  V30 1977 H 190.398 3.24204 -0.394907 0
M  V30 1978 H 189.057 2.71657 -2.46166 0
M  V30 1979 H 188.705 4.87337 -1.24547 0
M  V30 1980 H 188.405 5.0573 -2.99184 0
M  V30 1981 H 189.929 5.66312 -2.28304 0
M  V30 1982 H 191.343 4.13882 -3.96705 0
M  V30 1983 H 189.74 3.77145 -4.66778 0
M  V30 1984 H 190.81 2.44122 -4.18966 0
M  V30 1985 N 192.153 1.28127 0.917671 0
M  V30 1986 C 193.564 1.13622 1.48145 0
M  V30 1987 C 193.915 -0.275207 1.9426 0
M  V30 1988 O 193.04 -1.1691 1.82102 0
M  V30 1989 C 193.635 2.05648 2.69248 0
M  V30 1990 C 192.194 1.95219 3.21818 0
M  V30 1991 C 191.341 1.97618 1.94532 0
M  V30 1992 H 194.292 1.40874 0.730772 0
M  V30 1993 H 194.313 1.61818 3.44377 0
M  V30 1994 H 193.825 3.08365 2.35653 0
M  V30 1995 H 191.926 0.955244 3.60147 0
M  V30 1996 H 192.039 2.81976 3.87333 0
M  V30 1997 H 190.403 1.41973 2.11461 0
M  V30 1998 H 191.186 3.02007 1.63238 0
M  V30 1999 N 193.631 -1.12557 1.10312 0
M  V30 2000 C 194.879 -1.83675 0.843091 0
M  V30 2001 C 195.2 -1.84435 -0.633131 0
M  V30 2002 O 194.47 -1.30657 -1.45964 0
M  V30 2003 H 193.05 -0.680138 0.308904 0
M  V30 2004 H 195.712 -1.36301 1.39313 0
M  V30 2005 H 194.808 -2.87908 1.2048 0
M  V30 2006 N 195.109 -0.891671 -1.2995 0
M  V30 2007 C 196.072 -0.36828 -2.26222 0
M  V30 2008 C 197.072 0.493014 -1.53056 0
M  V30 2009 O 198.262 0.299213 -1.71611 0
M  V30 2010 C 195.394 0.47442 -3.37583 0
M  V30 2011 H 196.587 -1.21844 -2.74033 0
M  V30 2012 H 194.14 -0.669107 -1.41254 0
M  V30 2013 H 194.875 1.34489 -2.95099 0
M  V30 2014 H 194.66 -0.142615 -3.91841 0
M  V30 2015 H 196.15 0.83218 -4.09224 0
M  V30 2016 N 196.587 1.43421 -0.653314 0
M  V30 2017 C 198.003 1.56341 -0.320886 0
M  V30 2018 C 198.203 1.63696 1.17499 0
M  V30 2019 O 197.259 1.59208 1.95982 0
M  V30 2020 C 198.572 2.82424 -1.03233 0
M  V30 2021 C 200.12 2.96168 -1.01259 0
M  V30 2022 C 200.595 4.25084 -1.70492 0
M  V30 2023 N 202.086 4.31948 -1.67257 0
M  V30 2024 C 202.821 5.30466 -2.17701 0
M  V30 2025 N 202.317 6.35261 -2.76434 0
M  V30 2026 N 204.11 5.2212 -2.082 0
M  V30 2027 H 196.261 1.3689 -1.62403 0
M  V30 2028 H 198.524 0.657455 -0.682977 0
M  V30 2029 H 198.23 2.83053 -2.08744 0
M  V30 2030 H 198.104 3.72653 -0.583948 0
M  V30 2031 H 200.491 2.9508 0.0341235 0
M  V30 2032 H 200.572 2.07229 -1.49966 0
M  V30 2033 H 200.216 4.26932 -2.7512 0
M  V30 2034 H 200.146 5.1292 -1.19251 0
M  V30 2035 H 202.637 3.56838 -1.24398 0
M  V30 2036 H 202.95 7.06754 -3.12601 0
M  V30 2037 H 201.295 6.35884 -2.80495 0
M  V30 2038 H 204.486 4.39166 -1.62021 0
M  V30 2039 H 204.659 5.98739 -2.47822 0
M  V30 2040 N 198.065 0.39524 1.52563 0
M  V30 2041 C 199.313 -0.184678 2.01254 0
M  V30 2042 C 199.634 -1.46822 1.28329 0
M  V30 2043 O 198.904 -1.91666 0.405094 0
M  V30 2044 H 197.484 -0.0712355 0.743596 0
M  V30 2045 H 200.146 0.528293 1.87603 0
M  V30 2046 H 199.242 -0.390681 3.09645 0
M  V30 2047 N 199.544 -1.57102 0.125237 0
M  V30 2048 C 200.772 -1.99761 -0.538797 0
M  V30 2049 C 201.187 -1.00503 -1.59827 0
M  V30 2050 O 200.544 0.00119474 -1.825 0
M  V30 2051 C 200.595 -3.42408 -1.15927 0
M  V30 2052 O 200.316 -4.37869 -0.142143 0
M  V30 2053 C 201.817 -4.00232 -1.90602 0
M  V30 2054 H 199.037 -0.655772 -0.14214 0
M  V30 2055 H 201.581 -2.03383 0.213413 0
M  V30 2056 H 199.736 -3.39706 -1.86223 0
M  V30 2057 H 200.15 -5.21128 -0.593775 0
M  V30 2058 H 201.624 -5.02105 -2.29335 0
M  V30 2059 H 202.101 -3.39721 -2.78363 0
M  V30 2060 H 202.707 -4.06499 -1.25055 0
M  V30 2061 N 201.022 0.148545 -1.56898 0
M  V30 2062 C 201.954 1.20852 -1.9475 0
M  V30 2063 C 202.967 1.39265 -0.843152 0
M  V30 2064 O 204.156 1.38864 -1.12156 0
M  V30 2065 C 201.256 2.57362 -2.20495 0
M  V30 2066 C 200.429 2.59947 -3.51776 0
M  V30 2067 C 199.488 3.77984 -3.6608 0
M  V30 2068 O 198.514 3.62929 -4.38487 0
M  V30 2069 N 199.716 4.95375 -3.02629 0
M  V30 2070 H 202.481 0.886804 -2.86279 0
M  V30 2071 H 200.042 0.338121 -1.5833 0
M  V30 2072 H 202.034 3.34833 -2.27307 0
M  V30 2073 H 200.604 2.81832 -1.35238 0
M  V30 2074 H 199.824 1.68403 -3.56419 0
M  V30 2075 H 201.112 2.58704 -4.38121 0
M  V30 2076 H 200.51 5.10509 -2.43715 0
M  V30 2077 H 199.067 5.70627 -3.15004 0
M  V30 2078 N 202.5 1.5196 0.417844 0
M  V30 2079 C 203.43 1.77634 1.51554 0
M  V30 2080 C 204.411 0.626918 1.58126 0
M  V30 2081 O 205.596 0.871632 1.7354 0
M  V30 2082 C 202.726 1.91911 2.8946 0
M  V30 2083 C 201.68 3.07463 2.97743 0
M  V30 2084 C 201.006 3.06951 4.37819 0
M  V30 2085 C 202.306 4.47082 2.70027 0
M  V30 2086 H 204 2.6955 1.3032 0
M  V30 2087 H 201.546 1.29706 0.625492 0
M  V30 2088 H 203.499 2.08455 3.6623 0
M  V30 2089 H 202.223 0.966598 3.11969 0
M  V30 2090 H 200.882 2.90656 2.23416 0
M  V30 2091 H 200.53 2.09438 4.57323 0
M  V30 2092 H 200.23 3.84556 4.44286 0
M  V30 2093 H 201.754 3.25613 5.16535 0
M  V30 2094 H 203.168 4.6414 3.36522 0
M  V30 2095 H 201.565 5.2654 2.87881 0
M  V30 2096 H 202.635 4.55777 1.65514 0
M  V30 2097 N 203.978 -0.674533 1.42435 0
M  V30 2098 C 204.908 -1.80009 1.48724 0
M  V30 2099 C 205.889 -1.6659 0.343793 0
M  V30 2100 O 207.074 -1.86007 0.558137 0
M  V30 2101 C 204.204 -3.18306 1.38919 0
M  V30 2102 C 203.158 -3.46461 2.51294 0
M  V30 2103 C 202.484 -4.84335 2.26547 0
M  V30 2104 C 203.784 -3.43328 3.93603 0
M  V30 2105 H 205.478 -1.75004 2.42928 0
M  V30 2106 H 203.024 -0.840533 1.16923 0
M  V30 2107 H 204.977 -3.9678 1.41927 0
M  V30 2108 H 203.701 -3.2399 0.412094 0
M  V30 2109 H 202.36 -2.70348 2.47604 0
M  V30 2110 H 202.008 -4.86669 1.2713 0
M  V30 2111 H 201.708 -5.04136 3.01861 0
M  V30 2112 H 203.232 -5.65094 2.31304 0
M  V30 2113 H 204.646 -4.11772 3.98894 0
M  V30 2114 H 203.043 -3.74664 4.68771 0
M  V30 2115 H 204.113 -2.41897 4.20255 0
M  V30 2116 N 205.456 -1.28612 -0.910864 0
M  V30 2117 C 206.867 -1.14406 -1.47541 0
M  V30 2118 C 207.218 0.264901 -1.94403 0
M  V30 2119 O 206.343 1.15942 -1.82719 0
M  V30 2120 C 206.938 -2.07073 -2.68153 0
M  V30 2121 C 205.497 -1.96923 -3.20778 0
M  V30 2122 C 204.644 -1.98646 -1.93481 0
M  V30 2123 H 207.595 -1.41259 -0.723291 0
M  V30 2124 H 207.616 -1.63642 -3.43514 0
M  V30 2125 H 207.128 -3.09611 -2.34015 0
M  V30 2126 H 205.229 -0.97433 -3.59635 0
M  V30 2127 H 205.342 -2.84026 -3.85832 0
M  V30 2128 H 203.706 -1.43093 -2.10705 0
M  V30 2129 H 204.489 -3.02868 -1.61634 0
M  V30 2130 N 206.934 1.1197 -1.10907 0
M  V30 2131 C 208.35 1.35591 -0.841852 0
M  V30 2132 C 208.55 1.94233 0.536246 0
M  V30 2133 O 207.606 2.1717 1.28816 0
M  V30 2134 C 208.919 2.29284 -1.94549 0
M  V30 2135 C 210.467 2.42862 -1.97451 0
M  V30 2136 C 210.942 3.39873 -3.07002 0
M  V30 2137 N 212.433 3.47433 -3.06341 0
M  V30 2138 C 213.168 4.22421 -3.87748 0
M  V30 2139 N 212.664 5.00432 -4.79103 0
M  V30 2140 N 214.457 4.17876 -3.75946 0
M  V30 2141 H 206.608 0.722664 -1.99728 0
M  V30 2142 H 208.871 0.380635 -0.868229 0
M  V30 2143 H 208.577 1.93378 -2.93765 0
M  V30 2144 H 208.451 3.29452 -1.83688 0
M  V30 2145 H 210.838 2.78046 -0.988645 0
M  V30 2146 H 210.919 1.42566 -2.12388 0
M  V30 2147 H 210.563 3.05417 -4.05811 0
M  V30 2148 H 210.493 4.40011 -2.89306 0
M  V30 2149 H 212.984 2.91784 -2.40147 0
M  V30 2150 H 213.297 5.55002 -5.37766 0
M  V30 2151 H 211.642 4.99612 -4.83128 0
M  V30 2152 H 214.833 3.56016 -3.03924 0
M  V30 2153 H 215.006 4.76061 -4.39624 0
M  V30 2154 N 208.412 0.89855 1.29475 0
M  V30 2155 C 209.342 0.39201 2.30186 0
M  V30 2156 C 210.323 -0.532359 1.61555 0
M  V30 2157 O 211.508 -0.443331 1.89072 0
M  V30 2158 C 208.638 -0.382353 3.45189 0
M  V30 2159 C 207.592 0.451483 4.25612 0
M  V30 2160 C 206.918 -0.450307 5.328 0
M  V30 2161 C 208.218 1.70079 4.93832 0
M  V30 2162 H 209.912 1.23362 2.72804 0
M  V30 2163 H 207.458 0.594638 1.31149 0
M  V30 2164 H 209.411 -0.747451 4.14718 0
M  V30 2165 H 208.135 -1.25774 3.01411 0
M  V30 2166 H 206.794 0.798897 3.57789 0
M  V30 2167 H 206.442 -1.32379 4.85268 0
M  V30 2168 H 206.142 0.103902 5.87508 0
M  V30 2169 H 207.666 -0.811623 6.05182 0
M  V30 2170 H 209.08 1.40549 5.55805 0
M  V30 2171 H 207.477 2.19623 5.58467 0
M  V30 2172 H 208.547 2.43744 4.19186 0
M  V30 2173 N 209.89 -1.43072 0.660911 0
M  V30 2174 C 211.118 -2.06067 0.185422 0
M  V30 2175 C 211.533 -1.49582 -1.15198 0
M  V30 2176 O 210.89 -0.630134 -1.71276 0
M  V30 2177 C 210.941 -3.61371 0.0966523 0
M  V30 2178 O 210.662 -4.15758 1.38119 0
M  V30 2179 C 212.163 -4.41455 -0.403996 0
M  V30 2180 H 209.383 -0.664459 0.0934604 0
M  V30 2181 H 211.927 -1.83447 0.90373 0
M  V30 2182 H 210.082 -3.8315 -0.572259 0
M  V30 2183 H 210.496 -5.09499 1.24542 0
M  V30 2184 H 211.97 -5.50437 -0.415045 0
M  V30 2185 H 212.447 -4.15036 -1.43674 0
M  V30 2186 H 213.053 -4.24663 0.232691 0
M  V30 2187 N 211.368 -0.403325 -1.52352 0
M  V30 2188 C 212.616 0.174003 -2.0135 0
M  V30 2189 C 212.937 1.46139 -1.29106 0
M  V30 2190 O 212.207 1.91448 -0.415253 0
M  V30 2191 H 210.787 0.0672911 -0.743963 0
M  V30 2192 H 213.449 -0.538235 -1.87321 0
M  V30 2193 H 212.545 0.374254 -3.09848 0
M  V30 2194 N 212.846 1.57033 -0.133567 0
M  V30 2195 C 214.092 1.95976 0.521649 0
M  V30 2196 C 214.425 1.01779 1.65393 0
M  V30 2197 O 213.7 0.0576581 1.94415 0
M  V30 2198 C 213.983 3.44738 1.04057 0
M  V30 2199 C 213.836 4.49711 -0.0892897 0
M  V30 2200 C 215.155 3.95682 1.92675 0
M  V30 2201 H 212.274 0.712579 0.188149 0
M  V30 2202 H 214.916 1.88813 -0.212076 0
M  V30 2203 H 213.066 3.50973 1.66583 0
M  V30 2204 H 214.738 4.55565 -0.725152 0
M  V30 2205 H 212.981 4.27261 -0.750378 0
M  V30 2206 H 213.652 5.51099 0.315284 0
M  V30 2207 H 216.128 3.91841 1.39998 0
M  V30 2208 H 215.004 5.00262 2.25897 0
M  V30 2209 H 215.265 3.37239 2.85872 0
M  V30 2210 N 214.325 -0.140222 1.56975 0
M  V30 2211 C 215.736 -0.699596 1.73097 0
M  V30 2212 C 216.087 -1.8134 0.749022 0
M  V30 2213 O 215.212 -2.16241 -0.0828503 0
M  V30 2214 C 215.807 -1.27582 3.1386 0
M  V30 2215 C 214.366 -1.78169 3.31561 0
M  V30 2216 C 213.513 -0.672855 2.69013 0
M  V30 2217 H 216.464 0.0855115 1.58469 0
M  V30 2218 H 216.485 -2.14561 3.14235 0
M  V30 2219 H 215.997 -0.464955 3.85305 0
M  V30 2220 H 214.098 -2.61801 2.65124 0
M  V30 2221 H 214.211 -1.90574 4.39566 0
M  V30 2222 H 212.575 -1.10118 2.29665 0
M  V30 2223 H 213.358 0.126679 3.43066 0
M  V30 2224 N 215.803 -1.52179 -0.40978 0
M  V30 2225 C 216.766 -1.74853 -1.48186 0
M  V30 2226 C 217.766 -0.618417 -1.48433 0
M  V30 2227 O 218.956 -0.886286 -1.49969 0
M  V30 2228 C 216.088 -1.8303 -2.87598 0
M  V30 2229 H 217.281 -2.70559 -1.29374 0
M  V30 2230 H 214.834 -1.42586 -0.640233 0
M  V30 2231 H 215.569 -0.89236 -3.11781 0
M  V30 2232 H 215.354 -2.65187 -2.88822 0
M  V30 2233 H 216.844 -2.02316 -3.65319 0
M  V30 2234 N 217.281 0.66697 -1.42791 0
M  V30 2235 C 218.244 1.76211 -1.46568 0
M  V30 2236 C 219.244 1.56896 -0.352196 0
M  V30 2237 O 220.434 1.63044 -0.613364 0
M  V30 2238 C 217.566 3.14935 -1.30494 0
M  V30 2239 H 218.759 1.74247 -2.44086 0
M  V30 2240 H 216.312 0.877342 -1.29354 0
M  V30 2241 H 217.047 3.2252 -0.339301 0
M  V30 2242 H 216.832 3.30359 -2.11199 0
M  V30 2243 H 218.322 3.94821 -1.36038 0
M  V30 2244 N 218.759 1.29093 0.90403 0
M  V30 2245 C 219.689 1.16401 2.02418 0
M  V30 2246 C 220.67 0.0593085 1.69997 0
M  V30 2247 O 221.855 0.238021 1.92736 0
M  V30 2248 C 218.985 0.835233 3.37107 0
M  V30 2249 C 217.939 1.89578 3.83724 0
M  V30 2250 C 217.265 1.42041 5.15489 0
M  V30 2251 C 218.565 3.30394 4.04521 0
M  V30 2252 H 220.259 2.10109 2.13295 0
M  V30 2253 H 217.805 1.01157 1.02486 0
M  V30 2254 H 219.758 0.733169 4.14973 0
M  V30 2255 H 218.482 -0.137543 3.2631 0
M  V30 2256 H 217.141 1.98715 3.08071 0
M  V30 2257 H 216.789 0.436426 5.01103 0
M  V30 2258 H 216.489 2.12964 5.4765 0
M  V30 2259 H 218.013 1.33176 5.959 0
M  V30 2260 H 219.427 3.24123 4.72882 0
M  V30 2261 H 217.824 3.99237 4.48029 0
M  V30 2262 H 218.894 3.73692 3.09002 0
M  V30 2263 N 220.237 -1.11381 1.11499 0
M  V30 2264 C 221.514 -1.7955 0.775965 0
M  V30 2265 C 221.894 -1.97859 -0.73588 0
M  V30 2266 O 221.242 -1.56376 -1.66609 0
M  V30 2267 C 221.452 -3.13196 1.53977 0
M  V30 2268 C 222.8 -3.88227 1.71944 0
M  V30 2269 O 223.824 -3.22887 1.50407 0
M  V30 2270 O 222.683 -5.05477 2.07738 0
M  V30 2271 H 219.777 -0.777728 0.28119 0
M  V30 2272 H 222.323 -1.18118 1.21845 0
M  V30 2273 H 221.095 -2.95229 2.56818 0
M  V30 2274 H 220.718 -3.82342 1.09088 0
M  V30 2275 N 221.715 -0.905404 -1.28997 0
M  V30 2276 C 222.645 -0.404212 -2.29975 0
M  V30 2277 C 223.626 0.523784 -1.61835 0
M  V30 2278 O 224.811 0.433298 -1.89304 0
M  V30 2279 C 221.941 0.364042 -3.45387 0
M  V30 2280 C 220.895 -0.474048 -4.25367 0
M  V30 2281 C 220.221 0.422045 -5.33032 0
M  V30 2282 C 221.521 -1.72696 -4.92923 0
M  V30 2283 H 223.215 -1.24807 -2.72146 0
M  V30 2284 H 220.761 -0.601585 -1.30832 0
M  V30 2285 H 222.714 0.725447 -4.15109 0
M  V30 2286 H 221.438 1.24174 -3.02074 0
M  V30 2287 H 220.097 -0.81786 -3.57361 0
M  V30 2288 H 219.745 1.29804 -4.85963 0
M  V30 2289 H 219.445 -0.135057 -5.87445 0
M  V30 2290 H 220.969 0.779517 -6.05604 0
M  V30 2291 H 222.383 -1.43495 -5.55051 0
M  V30 2292 H 220.78 -2.22582 -5.57295 0
M  V30 2293 H 221.85 -2.45964 -4.17887 0
M  V30 2294 N 223.193 1.4272 -0.668489 0
M  V30 2295 C 224.442 2.00846 -0.185389 0
M  V30 2296 C 224.755 1.53442 1.21305 0
M  V30 2297 O 225.961 2.03944 1.79218 0
M  V30 2298 C 224.417 3.58805 -0.280591 0
M  V30 2299 C 224.025 4.15198 -1.68268 0
M  V30 2300 C 225.769 4.24255 0.14412 0
M  V30 2301 C 223.676 5.655 -1.73099 0
M  V30 2302 H 222.606 0.751145 -0.0655475 0
M  V30 2303 H 225.257 1.63516 -0.832752 0
M  V30 2304 H 223.639 3.93608 0.434553 0
M  V30 2305 H 224.813 3.91866 -2.42441 0
M  V30 2306 H 223.128 3.62176 -2.05469 0
M  V30 2307 H 225.725 5.34547 0.128086 0
M  V30 2308 H 226.068 3.99277 1.17827 0
M  V30 2309 H 226.601 3.94389 -0.519798 0
M  V30 2310 H 223.34 5.95268 -2.74475 0
M  V30 2311 H 222.86 5.90842 -1.03274 0
M  V30 2312 H 224.539 6.29808 -1.48158 0
M  V30 2313 N 224.671 0.411399 1.52136 0
M  V30 2314 C 225.899 -0.163076 2.06256 0
M  V30 2315 C 226.314 -1.3867 1.28125 0
M  V30 2316 O 225.671 -1.79423 0.333721 0
M  V30 2317 C 225.722 -0.511252 3.57867 0
M  V30 2318 O 225.443 0.66378 4.33042 0
M  V30 2319 C 226.944 -1.13921 4.28412 0
M  V30 2320 H 224.164 -0.0193897 0.67072 0
M  V30 2321 H 226.708 0.583007 1.96013 0
M  V30 2322 H 224.863 -1.20723 3.6811 0
M  V30 2323 H 225.277 0.372601 5.23175 0
M  V30 2324 H 226.751 -1.33302 5.35663 0
M  V30 2325 H 227.228 -2.11296 3.85033 0
M  V30 2326 H 227.834 -0.483373 4.22544 0
M  V30 2327 N 226.149 -1.5696 0.141893 0
M  V30 2328 C 227.374 -2.00754 -0.520838 0
M  V30 2329 C 227.799 -1.0213 -1.57959 0
M  V30 2330 O 227.157 0.00371324 -1.813 0
M  V30 2331 C 227.205 -3.43318 -1.10294 0
M  V30 2332 O 226.309 -3.47679 -2.21795 0
M  V30 2333 H 225.65 -0.651564 -0.127908 0
M  V30 2334 H 228.18 -2.03221 0.23712 0
M  V30 2335 H 228.19 -3.82012 -1.43287 0
M  V30 2336 H 226.865 -4.14608 -0.327574 0
M  V30 2337 H 225.442 -3.20824 -1.9007 0
M  V30 2338 N 227.627 0.131896 -1.57047 0
M  V30 2339 C 228.875 0.840269 -1.83804 0
M  V30 2340 C 229.196 1.81017 -0.72512 0
M  V30 2341 O 228.466 1.94272 0.251995 0
M  V30 2342 H 227.046 0.313294 -0.678127 0
M  V30 2343 H 229.708 0.122294 -1.94516 0
M  V30 2344 H 228.804 1.39335 -2.79271 0
M  V30 2345 N 229.106 1.52395 0.401703 0
M  V30 2346 C 230.522 1.41363 0.740864 0
M  V30 2347 C 230.722 0.523982 1.94568 0
M  V30 2348 O 229.778 -0.00741204 2.52499 0
M  V30 2349 C 231.091 2.84011 0.987847 0
M  V30 2350 C 232.639 2.93404 1.09011 0
M  V30 2351 C 233.114 4.37036 1.3698 0
M  V30 2352 N 234.605 4.40304 1.43829 0
M  V30 2353 C 235.34 5.48508 1.67112 0
M  V30 2354 N 234.836 6.66819 1.87949 0
M  V30 2355 N 236.629 5.36034 1.69187 0
M  V30 2356 H 228.78 2.08765 -0.391262 0
M  V30 2357 H 231.043 0.941265 -0.112798 0
M  V30 2358 H 230.749 3.51265 0.174835 0
M  V30 2359 H 230.623 3.25502 1.906 0
M  V30 2360 H 233.01 2.26325 1.8937 0
M  V30 2361 H 233.091 2.55359 0.15015 0
M  V30 2362 H 232.735 5.04676 0.571353 0
M  V30 2363 H 232.665 4.72623 2.3224 0
M  V30 2364 H 235.156 3.55024 1.29486 0
M  V30 2365 H 235.469 7.45063 2.05185 0
M  V30 2366 H 233.814 6.6987 1.85199 0
M  V30 2367 H 237.005 4.42579 1.52451 0
M  V30 2368 H 237.178 6.20434 1.86993 0
M  V30 2369 N 230.584 -0.659388 1.43143 0
M  V30 2370 C 232 -0.974337 1.26407 0
M  V30 2371 C 232.2 -2.007 0.179341 0
M  V30 2372 O 231.256 -2.4856 -0.444295 0
M  V30 2373 C 232.569 -1.46447 2.62628 0
M  V30 2374 C 234.117 -1.58144 2.7011 0
M  V30 2375 C 234.592 -2.1055 4.06734 0
M  V30 2376 N 236.083 -2.17861 4.08767 0
M  V30 2377 C 236.818 -2.59519 5.1131 0
M  V30 2378 N 236.314 -3.00518 6.24228 0
M  V30 2379 N 238.107 -2.59404 4.98664 0
M  V30 2380 H 230.258 0.0240528 2.12386 0
M  V30 2381 H 232.521 -0.0518065 0.946583 0
M  V30 2382 H 232.227 -0.780123 3.42939 0
M  V30 2383 H 232.101 -2.44058 2.87603 0
M  V30 2384 H 234.488 -2.25682 1.90136 0
M  V30 2385 H 234.569 -0.589828 2.48907 0
M  V30 2386 H 234.213 -1.43616 4.87172 0
M  V30 2387 H 234.143 -3.10531 4.25298 0
M  V30 2388 H 236.634 -1.88975 3.27257 0
M  V30 2389 H 236.947 -3.31036 6.98309 0
M  V30 2390 H 235.292 -2.98337 6.2771 0
M  V30 2391 H 238.483 -2.26747 4.09516 0
M  V30 2392 H 238.656 -2.91548 5.78709 0
M  V30 2393 N 232.062 -1.29571 -0.897171 0
M  V30 2394 C 233.311 -1.1706 -1.64256 0
M  V30 2395 C 233.624 0.276476 -1.93636 0
M  V30 2396 O 234.83 0.52294 -2.66416 0
M  V30 2397 C 233.286 -2.0475 -2.95982 0
M  V30 2398 C 232.894 -3.54295 -2.74187 0
M  V30 2399 C 234.638 -2.0097 -3.73914 0
M  V30 2400 C 232.545 -4.34081 -4.01656 0
M  V30 2401 H 231.475 -0.43452 -0.616205 0
M  V30 2402 H 234.126 -1.54229 -0.994268 0
M  V30 2403 H 232.508 -1.60452 -3.62038 0
M  V30 2404 H 233.682 -4.06662 -2.1671 0
M  V30 2405 H 231.997 -3.59773 -2.09648 0
M  V30 2406 H 234.594 -2.57838 -4.68427 0
M  V30 2407 H 234.937 -0.990273 -4.0435 0
M  V30 2408 H 235.47 -2.43325 -3.14703 0
M  V30 2409 H 232.209 -5.36671 -3.76384 0
M  V30 2410 H 231.729 -3.86483 -4.58684 0
M  V30 2411 H 233.408 -4.44877 -4.69781 0
M  V30 2412 N 233.54 1.10788 -1.12088 0
M  V30 2413 C 234.47 2.19083 -0.807755 0
M  V30 2414 C 235.451 1.6858 0.226859 0
M  V30 2415 O 236.636 1.93997 0.0888475 0
M  V30 2416 C 233.766 3.46344 -0.257576 0
M  V30 2417 C 232.72 4.101 -1.22483 0
M  V30 2418 C 232.046 5.32016 -0.535052 0
M  V30 2419 C 233.346 4.54236 -2.57811 0
M  V30 2420 H 235.04 2.45534 -1.71328 0
M  V30 2421 H 232.586 1.1801 -0.825205 0
M  V30 2422 H 234.539 4.21392 -0.0262679 0
M  V30 2423 H 233.263 3.19373 0.683278 0
M  V30 2424 H 231.922 3.37054 -1.44189 0
M  V30 2425 H 231.57 5.01319 0.410827 0
M  V30 2426 H 231.27 5.75625 -1.18024 0
M  V30 2427 H 232.794 6.09799 -0.312695 0
M  V30 2428 H 234.208 5.20575 -2.40155 0
M  V30 2429 H 232.605 5.08682 -3.18375 0
M  V30 2430 H 233.675 3.6734 -3.16528 0
M  V30 2431 N 235.018 0.912232 1.28515 0
M  V30 2432 C 235.981 0.404223 2.25607 0
M  V30 2433 C 236.981 -0.468602 1.53821 0
M  V30 2434 O 238.171 -0.271873 1.72065 0
M  V30 2435 C 235.303 -0.420653 3.38295 0
M  V30 2436 H 236.496 1.26188 2.7206 0
M  V30 2437 H 234.049 0.691495 1.40171 0
M  V30 2438 H 234.784 -1.29777 2.97201 0
M  V30 2439 H 234.569 0.204935 3.91564 0
M  V30 2440 H 236.059 -0.766971 4.10496 0
M  V30 2441 N 236.496 -1.42363 0.676048 0
M  V30 2442 C 237.773 -1.95183 0.127726 0
M  V30 2443 C 238.153 -1.61641 -1.35777 0
M  V30 2444 O 237.501 -0.913216 -2.09458 0
M  V30 2445 C 237.711 -3.46721 0.398199 0
M  V30 2446 C 239.059 -4.23427 0.315383 0
M  V30 2447 O 240.083 -3.54649 0.332016 0
M  V30 2448 O 238.942 -5.45888 0.25865 0
M  V30 2449 H 236.036 -0.826992 0.00359427 0
M  V30 2450 H 238.582 -1.52184 0.750864 0
M  V30 2451 H 237.354 -3.64344 1.4272 0
M  V30 2452 H 236.977 -3.96769 -0.256885 0
M  V30 2453 N 237.974 -0.419461 -1.51915 0
M  V30 2454 C 238.884 0.407528 -2.31033 0
M  V30 2455 C 239.9 1.04413 -1.3919 0
M  V30 2456 O 241.076 1.0434 -1.72265 0
M  V30 2457 C 238.141 1.50365 -3.12396 0
M  V30 2458 C 237.202 0.889029 -4.19994 0
M  V30 2459 C 236.435 1.93291 -4.97468 0
M  V30 2460 O 236.658 3.15259 -4.75361 0
M  V30 2461 O 235.592 1.53339 -5.8204 0
M  V30 2462 H 239.418 -0.237865 -3.02767 0
M  V30 2463 H 237.003 -0.182413 -1.48282 0
M  V30 2464 H 238.885 2.13975 -3.63032 0
M  V30 2465 H 237.56 2.13345 -2.43445 0
M  V30 2466 H 236.467 0.215353 -3.7348 0
M  V30 2467 H 237.8 0.302991 -4.91267 0
M  V30 2468 N 239.452 1.56882 -0.150215 0
M  V30 2469 C 240.415 2.1573 0.774157 0
M  V30 2470 C 241.415 1.0999 1.17298 0
M  V30 2471 O 242.605 1.35613 1.09338 0
M  V30 2472 C 239.737 2.72302 2.05096 0
M  V30 2473 H 240.93 2.98752 0.262201 0
M  V30 2474 H 238.483 1.55985 0.099248 0
M  V30 2475 H 239.218 1.92956 2.6065 0
M  V30 2476 H 239.003 3.49665 1.77416 0
M  V30 2477 H 240.493 3.17632 2.71109 0
M  V30 2478 N 240.93 -0.123565 1.57115 0
M  V30 2479 C 241.86 -1.15309 2.03042 0
M  V30 2480 C 242.841 -1.43454 0.914061 0
M  V30 2481 O 244.026 -1.53973 1.18347 0
M  V30 2482 C 241.156 -2.48043 2.43089 0
M  V30 2483 C 240.11 -2.3437 3.58127 0
M  V30 2484 C 239.436 -3.72026 3.84059 0
M  V30 2485 C 240.736 -1.80804 4.90007 0
M  V30 2486 H 242.43 -0.771102 2.893 0
M  V30 2487 H 239.976 -0.369479 1.39179 0
M  V30 2488 H 241.929 -3.20311 2.73823 0
M  V30 2489 H 240.653 -2.88122 1.53796 0
M  V30 2490 H 239.312 -1.64551 3.27595 0
M  V30 2491 H 238.96 -4.09582 2.91979 0
M  V30 2492 H 238.66 -3.63732 4.6149 0
M  V30 2493 H 240.184 -4.45806 4.1724 0
M  V30 2494 H 241.598 -2.42886 5.19307 0
M  V30 2495 H 239.995 -1.83343 5.71407 0
M  V30 2496 H 241.065 -0.76528 4.78823 0
M  V30 2497 N 242.408 -1.52605 -0.393616 0
M  V30 2498 C 243.355 -1.77055 -1.48054 0
M  V30 2499 C 244.325 -0.61358 -1.54352 0
M  V30 2500 O 245.51 -0.852806 -1.70681 0
M  V30 2501 C 242.65 -1.94108 -2.85335 0
M  V30 2502 C 241.763 -3.21792 -2.88226 0
M  V30 2503 C 240.898 -3.29188 -4.16904 0
M  V30 2504 C 239.937 -4.51013 -4.13828 0
M  V30 2505 N 239.074 -4.55716 -5.34105 0
M  V30 2506 H 243.914 -2.69815 -1.26506 0
M  V30 2507 H 241.451 -1.33683 -0.61379 0
M  V30 2508 H 243.409 -2.01979 -3.65049 0
M  V30 2509 H 242.039 -1.04713 -3.05344 0
M  V30 2510 H 241.091 -3.23015 -2.00911 0
M  V30 2511 H 242.403 -4.11557 -2.8182 0
M  V30 2512 H 241.557 -3.36216 -5.05018 0
M  V30 2513 H 240.296 -2.37389 -4.26026 0
M  V30 2514 H 239.301 -4.44115 -3.24102 0
M  V30 2515 H 240.526 -5.44123 -4.06333 0
M  V30 2516 H 238.472 -3.66807 -5.43865 0
M  V30 2517 H 238.389 -5.39346 -5.29756 0
M  V30 2518 H 239.657 -4.66993 -6.2413 0
M  V30 2519 N 243.887 0.651787 -1.4349 0
M  V30 2520 C 244.817 1.77621 -1.51569 0
M  V30 2521 C 245.798 1.66022 -0.370253 0
M  V30 2522 O 246.983 1.85095 -0.587658 0
M  V30 2523 C 244.113 3.16056 -1.43966 0
M  V30 2524 C 243.067 3.4242 -2.56774 0
M  V30 2525 C 242.393 4.8067 -2.34223 0
M  V30 2526 C 243.693 3.37023 -3.99015 0
M  V30 2527 H 245.387 1.71117 -2.45681 0
M  V30 2528 H 242.933 0.821825 -1.18246 0
M  V30 2529 H 244.886 3.94472 -1.48221 0
M  V30 2530 H 243.61 3.23293 -0.463586 0
M  V30 2531 H 242.269 2.66375 -2.51873 0
M  V30 2532 H 241.917 4.84585 -1.34856 0
M  V30 2533 H 241.617 4.9927 -3.09844 0
M  V30 2534 H 243.141 5.61342 -2.40265 0
M  V30 2535 H 244.555 4.05374 -4.05395 0
M  V30 2536 H 242.952 3.67159 -4.74673 0
M  V30 2537 H 244.022 2.3518 -4.2405 0
M  V30 2538 N 245.365 1.30045 0.890287 0
M  V30 2539 C 246.613 1.18327 1.63839 0
M  V30 2540 C 246.934 -0.263455 1.93212 0
M  V30 2541 O 246.204 -1.17856 1.56482 0
M  V30 2542 H 244.784 0.434933 0.607324 0
M  V30 2543 H 247.446 1.631 1.06698 0
M  V30 2544 H 246.542 1.74024 2.59079 0
M  V30 2545 N 246.843 -1.10192 1.12674 0
M  V30 2546 C 248.092 -1.81573 0.8783 0
M  V30 2547 C 248.405 -1.86249 -0.597557 0
M  V30 2548 O 249.611 -2.5386 -0.962681 0
M  V30 2549 C 248.067 -3.26149 1.52167 0
M  V30 2550 C 247.675 -3.29763 3.03249 0
M  V30 2551 C 249.419 -4.0234 1.3536 0
M  V30 2552 C 247.326 -4.68815 3.60508 0
M  V30 2553 H 246.256 -0.680394 0.324931 0
M  V30 2554 H 248.907 -1.23902 1.35353 0
M  V30 2555 H 247.289 -3.83832 0.974104 0
M  V30 2556 H 248.463 -2.8189 3.6452 0
M  V30 2557 H 246.778 -2.67059 3.19481 0
M  V30 2558 H 249.375 -5.05058 1.75559 0
M  V30 2559 H 249.718 -4.15235 0.297554 0
M  V30 2560 H 250.251 -3.51079 1.87052 0
M  V30 2561 H 246.99 -4.61121 4.65884 0
M  V30 2562 H 246.51 -5.17045 3.04014 0
M  V30 2563 H 248.189 -5.37785 3.59717 0
M  V30 2564 N 248.321 -0.919034 -1.28029 0
M  V30 2565 C 249.251 -0.428581 -2.29533 0
M  V30 2566 C 250.232 0.50659 -1.62381 0
M  V30 2567 O 251.417 0.413195 -1.89753 0
M  V30 2568 C 248.547 0.327388 -3.45753 0
M  V30 2569 C 247.501 -0.519137 -4.2484 0
M  V30 2570 C 246.827 0.365486 -5.33449 0
M  V30 2571 C 248.127 -1.77914 -4.91064 0
M  V30 2572 H 249.821 -1.27687 -2.70807 0
M  V30 2573 H 247.367 -0.615428 -1.30186 0
M  V30 2574 H 249.32 0.681378 -4.15855 0
M  V30 2575 H 248.044 1.20963 -3.03374 0
M  V30 2576 H 246.703 -0.855717 -3.56473 0
M  V30 2577 H 246.351 1.24642 -4.87312 0
M  V30 2578 H 246.051 -0.197356 -5.87268 0
M  V30 2579 H 247.575 0.715241 -6.06396 0
M  V30 2580 H 248.989 -1.49374 -5.53498 0
M  V30 2581 H 247.386 -2.2848 -5.54903 0
M  V30 2582 H 248.456 -2.50382 -4.15255 0
M  V30 2583 N 249.799 1.42003 -0.683588 0
M  V30 2584 C 251.076 1.95112 -0.138075 0
M  V30 2585 C 251.456 1.62359 1.34918 0
M  V30 2586 O 250.804 0.924311 2.08971 0
M  V30 2587 C 251.014 3.46505 -0.416581 0
M  V30 2588 C 252.362 4.23254 -0.337834 0
M  V30 2589 O 253.386 3.54468 -0.35082 0
M  V30 2590 O 252.245 5.45743 -0.287596 0
M  V30 2591 H 249.339 0.826961 -0.00797996 0
M  V30 2592 H 251.885 1.51784 -0.758924 0
M  V30 2593 H 250.657 3.63582 -1.4465 0
M  V30 2594 H 250.28 3.969 0.235839 0
M  V30 2595 N 251.277 0.427512 1.51691 0
M  V30 2596 C 252.224 -0.388867 2.275 0
M  V30 2597 C 253.194 -1.02532 1.30677 0
M  V30 2598 O 254.379 -1.0461 1.59566 0
M  V30 2599 C 251.519 -1.48954 3.11298 0
M  V30 2600 C 250.632 -0.872194 4.23104 0
M  V30 2601 C 249.767 -1.94709 4.94228 0
M  V30 2602 C 248.806 -1.30766 5.97969 0
M  V30 2603 N 247.943 -2.32349 6.62539 0
M  V30 2604 H 252.783 0.263997 2.96828 0
M  V30 2605 H 250.32 0.142033 1.46413 0
M  V30 2606 H 252.278 -2.13887 3.58201 0
M  V30 2607 H 250.908 -2.11217 2.44105 0
M  V30 2608 H 249.96 -0.111419 3.80237 0
M  V30 2609 H 251.272 -0.365264 4.97461 0
M  V30 2610 H 250.426 -2.67327 5.44629 0
M  V30 2611 H 249.165 -2.48773 4.1948 0
M  V30 2612 H 248.17 -0.566902 5.4687 0
M  V30 2613 H 249.395 -0.774483 6.74669 0
M  V30 2614 H 247.341 -2.85511 5.90609 0
M  V30 2615 H 247.258 -1.8652 7.3263 0
M  V30 2616 H 248.526 -3.04481 7.17574 0
M  V30 2617 N 252.755 -1.56801 0.158532 0
M  V30 2618 C 254.001 -1.96781 -0.490405 0
M  V30 2619 C 254.334 -1.04397 -1.63753 0
M  V30 2620 O 253.609 -0.0885805 -1.94298 0
M  V30 2621 C 253.892 -3.4635 -0.985594 0
M  V30 2622 C 253.745 -4.49512 0.160824 0
M  V30 2623 C 255.064 -3.98697 -1.86355 0
M  V30 2624 H 252.183 -0.715482 -0.176788 0
M  V30 2625 H 254.825 -1.88451 0.242088 0
M  V30 2626 H 252.975 -3.53579 -1.60978 0
M  V30 2627 H 254.647 -4.54353 0.797537 0
M  V30 2628 H 252.89 -4.26013 0.818256 0
M  V30 2629 H 253.561 -5.51531 -0.227569 0
M  V30 2630 H 256.037 -3.94019 -1.33746 0
M  V30 2631 H 254.913 -5.03792 -2.17909 0
M  V30 2632 H 255.174 -3.41744 -2.8047 0
M  V30 2633 N 254.233 0.115231 -1.57178 0
M  V30 2634 C 255.479 0.82357 -1.85325 0
M  V30 2635 C 255.812 1.79349 -0.744814 0
M  V30 2636 O 255.087 1.92899 0.249024 0
M  V30 2637 C 255.37 1.57014 -3.24066 0
M  V30 2638 C 255.223 0.619565 -4.45513 0
M  V30 2639 C 256.542 2.52545 -3.60429 0
M  V30 2640 H 253.661 0.297948 -0.674089 0
M  V30 2641 H 256.303 0.0877138 -1.89797 0
M  V30 2642 H 254.453 2.19742 -3.20383 0
M  V30 2643 H 256.125 0.000837639 -4.613 0
M  V30 2644 H 254.368 -0.0686174 -4.33746 0
M  V30 2645 H 255.039 1.17866 -5.3927 0
M  V30 2646 H 257.515 1.9992 -3.64926 0
M  V30 2647 H 256.391 3.01811 -4.58477 0
M  V30 2648 H 256.652 3.35383 -2.88047 0
M  V30 2649 N 255.711 1.52812 0.385517 0
M  V30 2650 C 256.659 1.78482 1.49155 0
M  V30 2651 C 257.653 0.652914 1.56312 0
M  V30 2652 O 258.859 0.835464 1.59436 0
M  V30 2653 H 255.234 0.5648 0.496493 0
M  V30 2654 H 257.205 2.71095 1.24699 0
M  V30 2655 C 255.954 1.97378 2.86247 0
M  V30 2656 H 255.277 2.83907 2.81491 0
M  V30 2657 H 256.717 2.19327 3.62866 0
M  V30 2658 C 255.176 0.74728 3.28508 0
M  V30 2659 O 255.706 -0.0736232 4.01633 0
M  V30 2660 N 253.912 0.576396 2.84826 0
M  V30 2661 H 253.459 1.24555 2.25486 0
M  V30 2662 H 253.417 -0.24288 3.1346 0
M  V30 2663 N 257.189 -0.644168 1.43834 0
M  V30 2664 C 258.414 -1.43642 1.49605 0
M  V30 2665 C 258.839 -1.8773 0.117913 0
M  V30 2666 O 258.197 -1.57938 -0.890239 0
M  V30 2667 C 258.245 -2.6416 2.45463 0
M  V30 2668 O 257.349 -3.63538 1.94714 0
M  V30 2669 H 256.69 -0.430329 0.50568 0
M  V30 2670 H 259.22 -0.787448 1.8884 0
M  V30 2671 H 259.23 -3.11864 2.63068 0
M  V30 2672 H 257.905 -2.31414 3.45572 0
M  V30 2673 H 256.482 -3.2273 1.86814 0
M  V30 2674 N 258.668 -1.30515 -0.883378 0
M  V30 2675 C 259.945 -1.10086 -1.6168 0
M  V30 2676 C 260.325 0.349269 -2.08191 0
M  V30 2677 O 259.673 1.34105 -1.85008 0
M  V30 2678 C 259.883 -2.10315 -2.78511 0
M  V30 2679 C 261.231 -2.42119 -3.48803 0
M  V30 2680 O 262.255 -2.08638 -2.88702 0
M  V30 2681 O 261.114 -2.99396 -4.57192 0
M  V30 2682 H 258.208 -0.422907 -0.710689 0
M  V30 2683 H 260.754 -1.41947 -0.930015 0
M  V30 2684 H 259.526 -3.07917 -2.41459 0
M  V30 2685 H 259.149 -1.79282 -3.54886 0
M  V30 2686 N 260.146 1.09593 -1.13257 0
M  V30 2687 C 261.557 1.63229 -0.906274 0
M  V30 2688 C 261.908 1.8811 0.557578 0
M  V30 2689 O 261.033 1.62953 1.42391 0
M  V30 2690 C 261.628 2.96535 -1.63867 0
M  V30 2691 C 260.187 3.47003 -1.45828 0
M  V30 2692 C 259.334 2.2145 -1.66898 0
M  V30 2693 H 262.285 0.92978 -1.28611 0
M  V30 2694 H 262.306 3.64411 -1.09476 0
M  V30 2695 H 261.818 2.78394 -2.70404 0
M  V30 2696 H 259.919 3.70272 -0.415848 0
M  V30 2697 H 260.032 4.24551 -2.2202 0
M  V30 2698 H 258.396 2.30022 -1.09371 0
M  V30 2699 H 259.179 2.0583 -2.74752 0
M  V30 2700 N 261.624 0.925811 1.2754 0
M  V30 2701 C 262.87 0.566092 1.94739 0
M  V30 2702 C 263.203 -0.890057 1.72603 0
M  V30 2703 O 262.478 -1.63467 1.05399 0
M  V30 2704 C 262.761 0.89054 3.48915 0
M  V30 2705 C 262.614 2.4003 3.80402 0
M  V30 2706 C 263.933 0.395101 4.38323 0
M  V30 2707 H 261.052 0.20714 0.707292 0
M  V30 2708 H 263.694 1.15725 1.50691 0
M  V30 2709 H 261.844 0.387452 3.86563 0
M  V30 2710 H 263.516 2.97494 3.52555 0
M  V30 2711 H 261.759 2.85028 3.2702 0
M  V30 2712 H 262.43 2.57785 4.8811 0
M  V30 2713 H 264.906 0.826241 4.07814 0
M  V30 2714 H 263.782 0.651086 5.45025 0
M  V30 2715 H 264.043 -0.704798 4.36446 0
M  V30 2716 N 263.102 -1.41638 0.69111 0
M  V30 2717 C 264.012 -2.34588 0.0233487 0
M  V30 2718 C 265.028 -1.55987 -0.770984 0
M  V30 2719 O 266.204 -1.88486 -0.709569 0
M  V30 2720 C 263.269 -3.34684 -0.904851 0
M  V30 2721 C 262.33 -4.29176 -0.103225 0
M  V30 2722 C 261.563 -5.2449 -0.987216 0
M  V30 2723 O 261.786 -5.2514 -2.22674 0
M  V30 2724 O 260.72 -6.00295 -0.439281 0
M  V30 2725 H 264.546 -2.93261 0.789416 0
M  V30 2726 H 262.131 -1.42417 0.45142 0
M  V30 2727 H 264.013 -3.96133 -1.43724 0
M  V30 2728 H 262.688 -2.78461 -1.65049 0
M  V30 2729 H 261.595 -3.71089 0.473655 0
M  V30 2730 H 262.928 -4.88484 0.60365 0
M  V30 2731 N 264.58 -0.43555 -1.51462 0
M  V30 2732 C 265.49 0.383001 -2.31453 0
M  V30 2733 C 266.506 1.02931 -1.4029 0
M  V30 2734 O 267.682 1.02507 -1.73362 0
M  V30 2735 C 264.747 1.47043 -3.13973 0
M  V30 2736 C 263.808 0.844433 -4.20913 0
M  V30 2737 C 263.041 1.88004 -4.9949 0
M  V30 2738 O 263.264 3.10199 -4.78678 0
M  V30 2739 O 262.198 1.47157 -5.83634 0
M  V30 2740 H 266.024 -0.269964 -3.02498 0
M  V30 2741 H 263.609 -0.19813 -1.4808 0
M  V30 2742 H 265.491 2.10113 -3.65281 0
M  V30 2743 H 264.166 2.10751 -2.45695 0
M  V30 2744 H 263.073 0.175729 -3.73687 0
M  V30 2745 H 264.406 0.250869 -4.9156 0
M  V30 2746 N 266.058 1.56714 -0.166846 0
M  V30 2747 C 267.021 2.16539 0.751232 0
M  V30 2748 C 268.021 1.11228 1.16125 0
M  V30 2749 O 269.211 1.36765 1.07894 0
M  V30 2750 C 266.343 2.74462 2.02196 0
M  V30 2751 H 267.536 2.99013 0.230499 0
M  V30 2752 H 265.089 1.56081 0.0826982 0
M  V30 2753 H 265.824 1.95709 2.58589 0
M  V30 2754 H 265.609 3.51527 1.73698 0
M  V30 2755 H 267.099 3.20489 2.67725 0
M  V30 2756 N 267.536 -0.106894 1.57237 0
M  V30 2757 C 268.785 -0.811163 1.8467 0
M  V30 2758 C 269.098 -1.80469 0.754342 0
M  V30 2759 O 270.304 -2.55601 0.915439 0
M  V30 2760 C 268.76 -1.49337 3.27454 0
M  V30 2761 C 268.368 -0.540217 4.44731 0
M  V30 2762 C 270.112 -2.18206 3.64124 0
M  V30 2763 C 268.019 -1.22634 5.78545 0
M  V30 2764 H 266.949 -0.306679 0.688813 0
M  V30 2765 H 269.6 -0.0639887 1.83388 0
M  V30 2766 H 267.982 -2.2876 3.23241 0
M  V30 2767 H 269.156 0.221659 4.60267 0
M  V30 2768 H 267.471 0.042146 4.16379 0
M  V30 2769 H 270.068 -2.70253 4.61376 0
M  V30 2770 H 270.411 -2.96562 2.92158 0
M  V30 2771 H 270.944 -1.45658 3.70174 0
M  V30 2772 H 267.683 -0.483832 6.53712 0
M  V30 2773 H 267.203 -1.95993 5.66874 0
M  V30 2774 H 268.882 -1.75615 6.2271 0
M  V30 2775 N 269.014 -1.53014 -0.377408 0
M  V30 2776 C 270.43 -1.42523 -0.718281 0
M  V30 2777 C 270.63 -0.55487 -1.9371 0
M  V30 2778 O 269.686 -0.0327593 -2.52479 0
M  V30 2779 C 270.999 -2.85546 -0.942539 0
M  V30 2780 C 272.547 -2.95101 -1.04329 0
M  V30 2781 C 273.022 -4.3916 -1.3001 0
M  V30 2782 N 274.513 -4.42536 -1.36806 0
M  V30 2783 C 275.248 -5.51097 -1.58364 0
M  V30 2784 N 274.744 -6.69724 -1.77317 0
M  V30 2785 N 276.537 -5.38657 -1.60638 0
M  V30 2786 H 268.688 -2.08116 0.424426 0
M  V30 2787 H 270.951 -0.939352 0.127759 0
M  V30 2788 H 270.657 -3.51499 -0.118929 0
M  V30 2789 H 270.531 -3.28493 -1.85397 0
M  V30 2790 H 272.918 -2.29309 -1.85745 0
M  V30 2791 H 272.999 -2.55566 -0.109505 0
M  V30 2792 H 272.643 -5.05521 -0.490991 0
M  V30 2793 H 272.573 -4.76258 -2.24691 0
M  V30 2794 H 275.064 -3.57039 -1.23821 0
M  V30 2795 H 275.377 -7.48233 -1.93306 0
M  V30 2796 H 273.722 -6.72732 -1.74518 0
M  V30 2797 H 276.913 -4.44948 -1.45391 0
M  V30 2798 H 277.086 -6.2333 -1.77098 0
M  V30 2799 N 270.492 0.636531 -1.44174 0
M  V30 2800 C 271.739 1.39619 -1.46672 0
M  V30 2801 C 272.067 1.94257 -0.0972691 0
M  V30 2802 O 271.322 1.73768 0.900175 0
M  V30 2803 C 271.621 2.58309 -2.47005 0
M  V30 2804 C 271.287 2.21992 -3.92467 0
M  V30 2805 C 269.949 2.118 -4.32081 0
M  V30 2806 C 272.301 1.9321 -4.84065 0
M  V30 2807 C 269.629 1.71007 -5.61225 0
M  V30 2808 C 271.981 1.53911 -6.13591 0
M  V30 2809 C 270.645 1.42257 -6.52165 0
M  V30 2810 H 269.915 0.510902 -0.536712 0
M  V30 2811 H 272.562 0.722328 -1.77355 0
M  V30 2812 H 270.867 3.30903 -2.09786 0
M  V30 2813 H 272.564 3.16533 -2.46186 0
M  V30 2814 H 269.154 2.30841 -3.61124 0
M  V30 2815 H 273.338 1.99997 -4.54219 0
M  V30 2816 H 268.594 1.60583 -5.89935 0
M  V30 2817 H 272.768 1.30677 -6.8403 0
M  V30 2818 H 270.395 1.10419 -7.52138 0
M  V30 2819 N 271.97 1.30982 0.876444 0
M  V30 2820 C 272.933 1.18054 1.96459 0
M  V30 2821 C 273.933 0.109399 1.60427 0
M  V30 2822 O 275.123 0.358173 1.70478 0
M  V30 2823 C 272.255 0.810616 3.31122 0
M  V30 2824 H 273.448 2.14735 2.09354 0
M  V30 2825 H 271.001 1.145 1.06392 0
M  V30 2826 H 271.736 -0.155322 3.23928 0
M  V30 2827 H 271.521 1.58481 3.58645 0
M  V30 2828 H 273.011 0.743876 4.10921 0
M  V30 2829 N 273.449 -1.08991 1.13837 0
M  V30 2830 C 274.381 -2.15606 0.777612 0
M  V30 2831 C 275.394 -1.61533 -0.202739 0
M  V30 2832 O 276.583 -1.78491 0.0181055 0
M  V30 2833 C 273.683 -3.3864 0.132623 0
M  V30 2834 C 272.856 -4.22115 1.1462 0
M  V30 2835 C 271.915 -5.23564 0.526074 0
M  V30 2836 O 270.941 -5.56678 1.18735 0
M  V30 2837 N 272.143 -5.76266 -0.699866 0
M  V30 2838 H 274.908 -2.47159 1.69506 0
M  V30 2839 H 272.469 -1.24747 1.03198 0
M  V30 2840 H 274.461 -4.03626 -0.29459 0
M  V30 2841 H 273.031 -3.04938 -0.687849 0
M  V30 2842 H 272.251 -3.53199 1.75055 0
M  V30 2843 H 273.539 -4.74709 1.83109 0
M  V30 2844 H 272.937 -5.51585 -1.25581 0
M  V30 2845 H 271.494 -6.42963 -1.06968 0
M  V30 2846 N 274.927 -0.932562 -1.27047 0
M  V30 2847 C 276.343 -0.633544 -1.46487 0
M  V30 2848 C 276.543 0.815746 -1.84249 0
M  V30 2849 O 275.599 1.59319 -1.95892 0
M  V30 2850 C 276.912 -1.58758 -2.55375 0
M  V30 2851 C 278.46 -1.59634 -2.69232 0
M  V30 2852 C 278.935 -2.53747 -3.81283 0
M  V30 2853 N 280.426 -2.51982 -3.88664 0
M  V30 2854 C 281.161 -3.21491 -4.74796 0
M  V30 2855 N 280.657 -4.00395 -5.65381 0
M  V30 2856 N 282.45 -3.10485 -4.68568 0
M  V30 2857 H 274.601 -1.86946 -1.00821 0
M  V30 2858 H 276.864 -0.802897 -0.504044 0
M  V30 2859 H 276.57 -2.62172 -2.34432 0
M  V30 2860 H 276.444 -1.33301 -3.52861 0
M  V30 2861 H 278.831 -0.569488 -2.89553 0
M  V30 2862 H 278.912 -1.89142 -1.72218 0
M  V30 2863 H 278.556 -3.56545 -3.61715 0
M  V30 2864 H 278.486 -2.21532 -4.77735 0
M  V30 2865 H 280.977 -1.94681 -3.23895 0
M  V30 2866 H 281.29 -4.50406 -6.27976 0
M  V30 2867 H 279.635 -4.04498 -5.65161 0
M  V30 2868 H 282.826 -2.48331 -3.96799 0
M  V30 2869 H 282.999 -3.64925 -5.35475 0
M  V30 2870 N 276.405 1.4127 -0.698611 0
M  V30 2871 C 277.651 2.01478 -0.231207 0
M  V30 2872 C 277.984 1.55215 1.16713 0
M  V30 2873 O 277.259 0.764672 1.78838 0
M  V30 2874 C 277.542 3.58912 -0.292281 0
M  V30 2875 C 277.395 4.15293 -1.72778 0
M  V30 2876 C 278.714 4.38736 0.346194 0
M  V30 2877 H 275.833 0.732025 -0.0854878 0
M  V30 2878 H 278.475 1.67977 -0.887906 0
M  V30 2879 H 276.625 3.87582 0.26686 0
M  V30 2880 H 278.297 3.97486 -2.341 0
M  V30 2881 H 276.54 3.7022 -2.26096 0
M  V30 2882 H 277.211 5.24452 -1.72202 0
M  V30 2883 H 279.687 4.15897 -0.130035 0
M  V30 2884 H 278.563 5.48221 0.272932 0
M  V30 2885 H 278.824 4.18425 1.42734 0
M  V30 2886 N 277.883 0.443576 1.51229 0
M  V30 2887 C 279.108 -0.121648 2.07043 0
M  V30 2888 C 279.533 -1.35156 1.30823 0
M  V30 2889 O 278.891 -1.7793 0.347934 0
M  V30 2890 C 278.939 -0.41624 3.5819 0
M  V30 2891 O 278.043 -1.50163 3.8409 0
M  V30 2892 H 277.384 0.000871367 0.663999 0
M  V30 2893 H 279.914 0.626706 1.94765 0
M  V30 2894 H 279.924 -0.664867 4.02546 0
M  V30 2895 H 278.599 0.482653 4.1309 0
M  V30 2896 H 277.176 -1.24248 3.51592 0
M  V30 2897 N 279.361 -1.56624 0.175154 0
M  V30 2898 C 280.638 -1.88688 -0.515373 0
M  V30 2899 C 281.018 -1.08564 -1.81044 0
M  V30 2900 O 280.366 -0.180703 -2.27784 0
M  V30 2901 C 280.576 -3.40768 -0.753552 0
M  V30 2902 C 281.924 -4.10587 -1.08184 0
M  V30 2903 O 282.948 -3.46106 -0.841961 0
M  V30 2904 O 281.807 -5.24512 -1.53459 0
M  V30 2905 H 278.901 -0.78301 -0.26613 0
M  V30 2906 H 281.447 -1.68347 0.213877 0
M  V30 2907 H 280.219 -3.90965 0.161829 0
M  V30 2908 H 279.842 -3.66733 -1.53598 0
M  V30 2909 N 280.839 0.0985539 -1.57292 0
M  V30 2910 C 281.771 1.14595 -1.98496 0
M  V30 2911 C 282.784 1.36512 -0.887031 0
M  V30 2912 O 283.973 1.35225 -1.16518 0
M  V30 2913 C 281.073 2.50216 -2.28572 0
M  V30 2914 C 280.246 2.48624 -3.59868 0
M  V30 2915 C 279.305 3.66146 -3.7792 0
M  V30 2916 O 278.331 3.48795 -4.49812 0
M  V30 2917 N 279.533 4.85496 -3.18235 0
M  V30 2918 H 282.298 0.795277 -2.88956 0
M  V30 2919 H 279.859 0.287579 -1.59325 0
M  V30 2920 H 281.851 3.27432 -2.37845 0
M  V30 2921 H 280.421 2.77387 -1.44136 0
M  V30 2922 H 279.641 1.56978 -3.61596 0
M  V30 2923 H 280.929 2.44635 -4.46129 0
M  V30 2924 H 280.327 5.02497 -2.59833 0
M  V30 2925 H 278.884 5.60317 -3.32999 0
M  V30 2926 N 282.317 1.53212 0.369288 0
M  V30 2927 C 283.728 1.60943 0.946276 0
M  V30 2928 C 284.079 0.47452 1.90375 0
M  V30 2929 O 283.204 -0.399597 2.12679 0
M  V30 2930 C 283.799 2.91715 1.72302 0
M  V30 2931 C 282.358 3.01792 2.24941 0
M  V30 2932 C 281.505 2.56211 1.06072 0
M  V30 2933 H 284.456 1.58007 0.148198 0
M  V30 2934 H 284.477 2.79309 2.58393 0
M  V30 2935 H 283.989 3.74295 1.0259 0
M  V30 2936 H 282.09 2.23791 2.97906 0
M  V30 2937 H 282.203 4.06803 2.53077 0
M  V30 2938 H 280.567 2.10998 1.4266 0
M  V30 2939 H 281.35 3.41206 0.378639 0
M  V30 2940 N 283.795 -0.628877 1.44509 0
M  V30 2941 C 284.725 -1.75187 1.54376 0
M  V30 2942 C 285.706 -1.65411 0.396618 0
M  V30 2943 O 286.891 -1.84137 0.617031 0
M  V30 2944 C 284.021 -3.13725 1.48976 0
M  V30 2945 C 282.975 -3.38291 2.62189 0
M  V30 2946 C 282.301 -4.76883 2.41841 0
M  V30 2947 C 283.601 -3.30632 4.04326 0
M  V30 2948 H 285.295 -1.67187 2.48373 0
M  V30 2949 H 282.841 -0.802909 1.19538 0
M  V30 2950 H 284.794 -3.92064 1.54478 0
M  V30 2951 H 283.518 -3.22515 0.514961 0
M  V30 2952 H 282.177 -2.62334 2.56079 0
M  V30 2953 H 281.825 -4.82378 1.42548 0
M  V30 2954 H 281.525 -4.94278 3.17747 0
M  V30 2955 H 283.049 -5.57449 2.49165 0
M  V30 2956 H 284.463 -3.98873 4.11793 0
M  V30 2957 H 282.86 -3.59561 4.80454 0
M  V30 2958 H 283.93 -2.28404 4.27738 0
M  V30 2959 N 285.273 -1.31445 -0.869486 0
M  V30 2960 C 286.183 -1.21097 -2.0093 0
M  V30 2961 C 287.199 -0.127584 -1.73532 0
M  V30 2962 O 288.375 -0.345477 -1.98415 0
M  V30 2963 C 285.44 -0.919378 -3.34288 0
M  V30 2964 C 284.501 -2.08971 -3.75006 0
M  V30 2965 C 283.734 -1.81194 -5.02001 0
M  V30 2966 O 283.957 -0.747296 -5.65484 0
M  V30 2967 O 282.891 -2.66883 -5.39497 0
M  V30 2968 H 286.717 -2.16883 -2.12592 0
M  V30 2969 H 284.302 -1.11189 -0.997868 0
M  V30 2970 H 286.184 -0.772625 -4.14257 0
M  V30 2971 H 284.859 0.00844772 -3.23699 0
M  V30 2972 H 283.766 -2.29187 -2.95676 0
M  V30 2973 H 285.099 -2.9998 -3.90221 0
M  V30 2974 N 286.751 1.08385 -1.14413 0
M  V30 2975 C 287.976 1.85057 -0.936413 0
M  V30 2976 C 288.401 1.81055 0.509971 0
M  V30 2977 O 287.759 1.1958 1.36273 0
M  V30 2978 C 287.807 3.30505 -1.44217 0
M  V30 2979 O 286.911 4.07491 -0.634409 0
M  V30 2980 H 286.252 0.573425 -0.334784 0
M  V30 2981 H 288.782 1.36799 -1.52142 0
M  V30 2982 H 288.792 3.81348 -1.45043 0
M  V30 2983 H 287.467 3.32734 -2.49522 0
M  V30 2984 H 286.044 3.66368 -0.694902 0
M  V30 2985 N 288.23 0.939286 1.26551 0
M  V30 2986 C 289.646 0.641304 1.46149 0
M  V30 2987 C 289.846 -0.805964 1.84679 0
M  V30 2988 O 288.902 -1.58278 1.96734 0
M  V30 2989 C 290.215 1.6011 2.54529 0
M  V30 2990 C 291.763 1.6106 2.68382 0
M  V30 2991 C 292.238 2.55765 3.79932 0
M  V30 2992 N 293.729 2.5404 3.87322 0
M  V30 2993 C 294.464 3.24004 4.73085 0
M  V30 2994 N 293.96 4.03388 5.63249 0
M  V30 2995 N 295.753 3.12965 4.66914 0
M  V30 2996 H 287.904 1.87478 0.998285 0
M  V30 2997 H 290.167 0.805559 0.499779 0
M  V30 2998 H 289.873 2.63412 2.33039 0
M  V30 2999 H 289.747 1.35171 3.52149 0
M  V30 3000 H 292.134 0.584835 2.89247 0
M  V30 3001 H 292.215 1.90053 1.71212 0
M  V30 3002 H 291.859 3.58458 3.5982 0
M  V30 3003 H 291.789 2.24063 4.76554 0
M  V30 3004 H 294.28 1.96396 3.22858 0
M  V30 3005 H 294.593 4.5373 6.25579 0
M  V30 3006 H 292.938 4.07489 5.63008 0
M  V30 3007 H 296.129 2.50432 3.95476 0
M  V30 3008 H 296.302 3.67759 5.33533 0
M  V30 3009 N 289.708 -1.40897 0.706093 0
M  V30 3010 C 291.124 -1.55042 0.37869 0
M  V30 3011 C 291.324 -1.67944 -1.11342 0
M  V30 3012 O 290.38 -1.66372 -1.89938 0
M  V30 3013 C 291.693 -2.78398 1.13643 0
M  V30 3014 C 293.241 -2.92206 1.12181 0
M  V30 3015 C 293.716 -4.18463 1.86152 0
M  V30 3016 N 295.207 -4.25443 1.83173 0
M  V30 3017 C 295.942 -5.2202 2.37239 0
M  V30 3018 N 295.438 -6.24563 2.99821 0
M  V30 3019 N 297.231 -5.14033 2.27435 0
M  V30 3020 H 289.382 -1.30769 1.67372 0
M  V30 3021 H 291.645 -0.631653 0.706907 0
M  V30 3022 H 291.351 -2.7511 2.19106 0
M  V30 3023 H 291.225 -3.70228 0.721853 0
M  V30 3024 H 293.612 -2.95004 0.0754171 0
M  V30 3025 H 293.693 -2.01521 1.57554 0
M  V30 3026 H 293.337 -4.16427 2.90776 0
M  V30 3027 H 293.267 -5.08141 1.38206 0
M  V30 3028 H 295.758 -3.51976 1.37556 0
M  V30 3029 H 296.071 -6.94665 3.38616 0
M  V30 3030 H 294.416 -6.25035 3.03902 0
M  V30 3031 H 297.607 -4.3285 1.78208 0
M  V30 3032 H 297.78 -5.89129 2.69873 0
M  V30 3033 N 291.186 -0.45159 -1.50991 0
M  V30 3034 C 292.116 0.342898 -2.30969 0
M  V30 3035 C 293.097 1.00815 -1.37005 0
M  V30 3036 O 294.282 1.00907 -1.65926 0
M  V30 3037 C 291.412 1.43637 -3.16205 0
M  V30 3038 C 290.366 0.893818 -4.18563 0
M  V30 3039 C 289.692 2.08411 -4.92411 0
M  V30 3040 C 290.992 -0.0815568 -5.22236 0
M  V30 3041 H 292.686 -0.324556 -2.97636 0
M  V30 3042 H 290.232 -0.157531 -1.43136 0
M  V30 3043 H 292.185 1.9995 -3.70942 0
M  V30 3044 H 290.909 2.13232 -2.47386 0
M  V30 3045 H 289.568 0.352798 -3.64898 0
M  V30 3046 H 289.216 2.76658 -4.20082 0
M  V30 3047 H 288.916 1.72741 -5.61636 0
M  V30 3048 H 290.44 2.65251 -5.49976 0
M  V30 3049 H 291.854 0.391742 -5.7196 0
M  V30 3050 H 290.251 -0.351551 -5.99069 0
M  V30 3051 H 291.321 -1.01374 -4.74185 0
M  V30 3052 N 292.664 1.56529 -0.183458 0
M  V30 3053 C 293.904 1.99141 0.460667 0
M  V30 3054 C 294.268 1.06736 1.59597 0
M  V30 3055 O 295.469 1.38538 2.30349 0
M  V30 3056 C 293.74 3.45358 0.919939 0
M  V30 3057 S 295.299 4.09999 1.56354 0
M  V30 3058 H 292.117 0.695479 0.147748 0
M  V30 3059 H 294.719 1.93429 -0.283782 0
M  V30 3060 H 293.423 4.10315 0.0834208 0
M  V30 3061 H 292.954 3.54862 1.69814 0
M  V30 3062 H 294.969 4.06046 2.85203 0
M  V30 3063 N 294.142 -0.090211 1.57342 0
M  V30 3064 C 295.09 -1.12792 2.03422 0
M  V30 3065 C 296.084 -1.41182 0.936166 0
M  V30 3066 O 297.29 -1.40805 1.12133 0
M  V30 3067 H 293.665 -0.380986 0.648347 0
M  V30 3068 H 295.636 -0.71299 2.89757 0
M  V30 3069 C 294.385 -2.43855 2.47851 0
M  V30 3070 H 293.708 -2.22855 3.31927 0
M  V30 3071 H 295.148 -3.14955 2.83865 0
M  V30 3072 C 293.607 -3.08503 1.3538 0
M  V30 3073 O 294.137 -3.95805 0.685641 0
M  V30 3074 N 292.343 -2.68831 1.10355 0
M  V30 3075 H 291.89 -1.97929 1.64869 0
M  V30 3076 H 291.848 -3.12412 0.353031 0
M  V30 3077 N 295.62 -1.53406 -0.361157 0
M  V30 3078 C 296.567 -1.80156 -1.44265 0
M  V30 3079 C 297.537 -0.646183 -1.53015 0
M  V30 3080 O 298.722 -0.888818 -1.68833 0
M  V30 3081 C 295.862 -2.00116 -2.81154 0
M  V30 3082 C 294.975 -3.27833 -2.81335 0
M  V30 3083 C 294.11 -3.37957 -4.09828 0
M  V30 3084 C 293.149 -4.59689 -4.04168 0
M  V30 3085 N 292.286 -4.66942 -5.24318 0
M  V30 3086 H 297.126 -2.72438 -1.20754 0
M  V30 3087 H 294.663 -1.34954 -0.585296 0
M  V30 3088 H 296.621 -2.09677 -3.60682 0
M  V30 3089 H 295.251 -1.11167 -3.03054 0
M  V30 3090 H 294.303 -3.27204 -1.94014 0
M  V30 3091 H 295.615 -4.17442 -2.73027 0
M  V30 3092 H 294.769 -3.46853 -4.97773 0
M  V30 3093 H 293.508 -2.46372 -4.20894 0
M  V30 3094 H 292.513 -4.50889 -3.14609 0
M  V30 3095 H 293.738 -5.5262 -3.947 0
M  V30 3096 H 291.684 -3.7826 -5.35962 0
M  V30 3097 H 291.601 -5.50462 -5.18197 0
M  V30 3098 H 292.869 -4.80127 -6.14084 0
M  V30 3099 N 297.098 0.621204 -1.44841 0
M  V30 3100 C 298.509 1.20298 -1.42777 0
M  V30 3101 C 298.86 1.95639 -0.148259 0
M  V30 3102 O 297.985 2.02955 0.750892 0
M  V30 3103 C 298.58 2.1882 -2.58657 0
M  V30 3104 C 297.139 2.72403 -2.59756 0
M  V30 3105 C 296.286 1.4757 -2.34773 0
M  V30 3106 H 299.237 0.411297 -1.53278 0
M  V30 3107 H 299.258 3.01607 -2.31977 0
M  V30 3108 H 298.77 1.63957 -3.51766 0
M  V30 3109 H 296.871 3.31242 -1.70615 0
M  V30 3110 H 296.984 3.17765 -3.58556 0
M  V30 3111 H 295.348 1.76051 -1.8406 0
M  V30 3112 H 296.131 0.945954 -3.3001 0
M  V30 3113 N 298.576 1.31904 0.862503 0
M  V30 3114 C 299.825 1.21373 1.61094 0
M  V30 3115 C 300.138 -0.22504 1.94301 0
M  V30 3116 O 301.344 -0.452121 2.67709 0
M  V30 3117 C 299.8 2.12525 2.9045 0
M  V30 3118 C 299.408 3.61441 2.64697 0
M  V30 3119 C 301.152 2.10813 3.68454 0
M  V30 3120 C 299.059 4.44578 3.90006 0
M  V30 3121 H 297.989 0.450705 0.604468 0
M  V30 3122 H 300.64 1.56811 0.953027 0
M  V30 3123 H 299.022 1.69994 3.57656 0
M  V30 3124 H 300.196 4.12264 2.05851 0
M  V30 3125 H 298.511 3.65205 2.00036 0
M  V30 3126 H 301.108 2.70167 4.61426 0
M  V30 3127 H 301.451 1.09713 4.01583 0
M  V30 3128 H 301.984 2.51583 3.08141 0
M  V30 3129 H 298.723 5.46461 3.62023 0
M  V30 3130 H 298.243 3.98508 4.48276 0
M  V30 3131 H 299.922 4.57176 4.5782 0
M  V30 3132 N 300.054 -1.07777 1.14986 0
M  V30 3133 C 300.986 -2.14769 0.800436 0
M  V30 3134 C 301.999 -1.61739 -0.185595 0
M  V30 3135 O 303.188 -1.78462 0.0370358 0
M  V30 3136 C 300.288 -3.38481 0.168533 0
M  V30 3137 C 299.461 -4.20876 1.1909 0
M  V30 3138 C 298.52 -5.22976 0.581575 0
M  V30 3139 O 297.546 -5.55388 1.24633 0
M  V30 3140 N 298.748 -5.76976 -0.638706 0
M  V30 3141 H 301.513 -2.45348 1.72118 0
M  V30 3142 H 299.074 -1.23645 1.04515 0
M  V30 3143 H 301.066 -4.03916 -0.251764 0
M  V30 3144 H 299.636 -3.05651 -0.655467 0
M  V30 3145 H 298.856 -3.51322 1.78791 0
M  V30 3146 H 300.144 -4.7274 1.88133 0
M  V30 3147 H 299.542 -5.52886 -1.19723 0
M  V30 3148 H 298.099 -6.44061 -1.00142 0
M  V30 3149 N 301.532 -0.945985 -1.26051 0
M  V30 3150 C 302.757 -0.612525 -1.98149 0
M  V30 3151 C 303.182 0.806623 -1.69927 0
M  V30 3152 O 302.54 1.54411 -0.950108 0
M  V30 3153 C 302.588 -0.866981 -3.50023 0
M  V30 3154 O 301.692 0.0585333 -4.12358 0
M  V30 3155 H 301.033 -0.23379 -0.621481 0
M  V30 3156 H 303.563 -1.27023 -1.60395 0
M  V30 3157 H 303.573 -0.789792 -4.00283 0
M  V30 3158 H 302.248 -1.90135 -3.69894 0
M  V30 3159 H 300.825 -0.0701241 -3.72834 0
M  V30 3160 N 303.011 1.40521 -0.713556 0
M  V30 3161 C 303.941 2.33381 -0.0743864 0
M  V30 3162 C 304.922 1.52784 0.747735 0
M  V30 3163 O 306.107 1.81258 0.697071 0
M  V30 3164 C 303.237 3.36748 0.849598 0
M  V30 3165 C 302.191 4.27793 0.133247 0
M  V30 3166 C 301.517 5.21679 1.17281 0
M  V30 3167 C 302.817 5.12415 -1.01134 0
M  V30 3168 H 304.511 2.87081 -0.850007 0
M  V30 3169 H 302.057 1.38034 -0.410201 0
M  V30 3170 H 304.01 4.00648 1.30612 0
M  V30 3171 H 302.734 2.81439 1.65709 0
M  V30 3172 H 301.393 3.65342 -0.303426 0
M  V30 3173 H 301.041 4.62677 1.9733 0
M  V30 3174 H 300.741 5.83435 0.698397 0
M  V30 3175 H 302.265 5.88456 1.62947 0
M  V30 3176 H 303.679 5.69781 -0.634274 0
M  V30 3177 H 302.076 5.83203 -1.41399 0
M  V30 3178 H 303.146 4.48514 -1.84292 0
M  V30 3179 N 304.489 0.459591 1.5075 0
M  V30 3180 C 305.9 0.00171547 1.867 0
M  V30 3181 C 306.251 -1.39934 1.37525 0
M  V30 3182 O 305.376 -2.03523 0.735349 0
M  V30 3183 C 305.971 -0.00366298 3.388 0
M  V30 3184 C 304.53 -0.406026 3.74204 0
M  V30 3185 C 303.677 0.38673 2.7459 0
M  V30 3186 H 306.628 0.674413 1.43657 0
M  V30 3187 H 306.649 -0.808371 3.71814 0
M  V30 3188 H 306.161 1.01617 3.74561 0
M  V30 3189 H 304.262 -1.43063 3.4404 0
M  V30 3190 H 304.375 -0.115362 4.78961 0
M  V30 3191 H 302.739 -0.158019 2.54209 0
M  V30 3192 H 303.522 1.40585 3.13194 0
M  V30 3193 N 305.967 -1.56429 0.191757 0
M  V30 3194 C 306.915 -2.20273 -0.747174 0
M  V30 3195 C 307.909 -1.17288 -1.22229 0
M  V30 3196 O 309.115 -1.35441 -1.18557 0
M  V30 3197 H 305.49 -0.705885 -0.259289 0
M  V30 3198 H 307.461 -2.97826 -0.184963 0
M  V30 3199 C 306.21 -2.87356 -1.95759 0
M  V30 3200 H 305.533 -3.66341 -1.60106 0
M  V30 3201 H 306.973 -3.3547 -2.59299 0
M  V30 3202 C 305.432 -1.88213 -2.79423 0
M  V30 3203 O 305.962 -1.38033 -3.7724 0
M  V30 3204 N 304.168 -1.56516 -2.44849 0
M  V30 3205 H 303.715 -1.97516 -1.65364 0
M  V30 3206 H 303.673 -0.904369 -3.01112 0
M  V30 3207 N 307.445 0.0818655 -1.57387 0
M  V30 3208 C 308.378 1.12986 -1.98266 0
M  V30 3209 C 309.356 1.38123 -0.857954 0
M  V30 3210 O 310.54 1.51663 -1.1194 0
M  V30 3211 C 307.667 2.47632 -2.31076 0
M  V30 3212 C 306.713 2.38693 -3.53452 0
M  V30 3213 S 307.546 1.79071 -5.04672 0
M  V30 3214 C 308.702 3.15316 -5.40673 0
M  V30 3215 H 308.935 0.781435 -2.86846 0
M  V30 3216 H 306.468 0.290034 -1.51651 0
M  V30 3217 H 308.426 3.25089 -2.50654 0
M  V30 3218 H 307.087 2.79638 -1.43043 0
M  V30 3219 H 306.28 3.37964 -3.73893 0
M  V30 3220 H 305.882 1.69369 -3.33452 0
M  V30 3221 H 308.174 4.11613 -5.38127 0
M  V30 3222 H 309.117 2.99664 -6.41566 0
M  V30 3223 H 309.525 3.15457 -4.68132 0
M  V30 3224 N 308.923 1.53595 0.353017 0
M  V30 3225 C 310.2 1.61002 1.11075 0
M  V30 3226 C 310.58 0.425356 2.0677 0
M  V30 3227 O 309.928 -0.583267 2.2093 0
M  V30 3228 C 310.138 2.96631 1.83877 0
M  V30 3229 C 311.486 3.51653 2.37961 0
M  V30 3230 O 312.51 2.98743 1.93987 0
M  V30 3231 O 311.369 4.44177 3.18386 0
M  V30 3232 H 308.463 0.650825 0.510251 0
M  V30 3233 H 311.009 1.6594 0.35527 0
M  V30 3234 H 309.781 3.74293 1.14108 0
M  V30 3235 H 309.404 2.95242 2.66304 0
M  V30 3236 N 310.401 -0.613514 1.45168 0
M  V30 3237 C 311.626 -1.40437 1.52618 0
M  V30 3238 C 312.051 -1.87438 0.157707 0
M  V30 3239 O 311.409 -1.59791 -0.856537 0
M  V30 3240 C 311.457 -2.58894 2.51011 0
M  V30 3241 O 310.561 -3.59326 2.02382 0
M  V30 3242 H 309.902 -0.419506 0.514695 0
M  V30 3243 H 312.432 -0.747215 1.90467 0
M  V30 3244 H 312.442 -3.06214 2.69624 0
M  V30 3245 H 311.117 -2.24032 3.50403 0
M  V30 3246 H 309.694 -3.18695 1.93618 0
M  V30 3247 N 311.879 -1.3236 -0.855495 0
M  V30 3248 C 313.128 -1.22226 -1.60448 0
M  V30 3249 C 313.441 0.214733 -1.94418 0
M  V30 3250 O 314.647 0.437917 -2.67945 0
M  V30 3251 C 313.103 -2.14063 -2.89318 0
M  V30 3252 C 312.711 -3.62839 -2.62777 0
M  V30 3253 C 314.455 -2.12764 -3.67331 0
M  V30 3254 C 312.362 -4.4664 -3.87643 0
M  V30 3255 H 311.292 -0.453904 -0.602069 0
M  V30 3256 H 313.943 -1.57314 -0.944698 0
M  V30 3257 H 312.325 -1.71889 -3.5675 0
M  V30 3258 H 313.499 -4.1335 -2.03662 0
M  V30 3259 H 311.814 -3.66261 -1.98096 0
M  V30 3260 H 314.411 -2.72611 -4.59987 0
M  V30 3261 H 314.754 -1.11841 -4.00995 0
M  V30 3262 H 315.287 -2.53214 -3.06802 0
M  V30 3263 H 312.026 -5.48373 -3.5912 0
M  V30 3264 H 311.546 -4.0088 -4.46156 0
M  V30 3265 H 313.225 -4.59597 -4.55389 0
M  V30 3266 N 313.357 1.07166 -1.15556 0
M  V30 3267 C 314.604 1.79798 -0.931604 0
M  V30 3268 C 314.932 1.8682 0.54115 0
M  V30 3269 O 314.187 1.34942 1.41736 0
M  V30 3270 C 314.486 3.24707 -1.49332 0
M  V30 3271 C 314.152 3.37781 -2.98688 0
M  V30 3272 C 312.814 3.41057 -3.39461 0
M  V30 3273 C 315.166 3.40424 -3.94665 0
M  V30 3274 C 312.494 3.4458 -4.74849 0
M  V30 3275 C 314.846 3.45485 -5.29927 0
M  V30 3276 C 313.51 3.47039 -5.70193 0
M  V30 3277 H 312.78 0.657928 -0.340898 0
M  V30 3278 H 315.427 1.26091 -1.44129 0
M  V30 3279 H 313.732 3.81208 -0.904859 0
M  V30 3280 H 315.429 3.79486 -1.29582 0
M  V30 3281 H 312.019 3.35932 -2.66172 0
M  V30 3282 H 316.203 3.37113 -3.64237 0
M  V30 3283 H 311.459 3.44083 -5.05388 0
M  V30 3284 H 315.633 3.46476 -6.04092 0
M  V30 3285 H 313.26 3.49522 -6.75084 0
M  V30 3286 N 314.835 0.952656 1.25548 0
M  V30 3287 C 316.06 0.623025 1.97821 0
M  V30 3288 C 316.485 -0.7976 1.70352 0
M  V30 3289 O 315.843 -1.53905 0.958283 0
M  V30 3290 C 315.891 0.885532 3.49558 0
M  V30 3291 O 314.995 -0.0366641 4.12384 0
M  V30 3292 H 314.336 0.237082 0.620232 0
M  V30 3293 H 316.866 1.27871 1.59719 0
M  V30 3294 H 316.876 0.811009 3.99858 0
M  V30 3295 H 315.551 1.92094 3.6888 0
M  V30 3296 H 314.128 0.0898954 3.72792 0
M  V30 3297 N 316.313 -1.40141 0.720998 0
M  V30 3298 C 317.223 -2.34486 0.0731031 0
M  V30 3299 C 318.239 -1.57587 -0.737723 0
M  V30 3300 O 319.415 -1.89949 -0.669429 0
M  V30 3301 C 316.48 -3.36528 -0.833656 0
M  V30 3302 C 315.541 -4.29298 -0.0121673 0
M  V30 3303 C 314.774 -5.26466 -0.875742 0
M  V30 3304 O 314.997 -5.29745 -2.11485 0
M  V30 3305 O 313.931 -6.01092 -0.31185 0
M  V30 3306 H 317.757 -2.9152 0.851444 0
M  V30 3307 H 315.342 -1.41427 0.481527 0
M  V30 3308 H 317.224 -3.99093 -1.35289 0
M  V30 3309 H 315.899 -2.81899 -1.59105 0
M  V30 3310 H 314.806 -3.70001 0.552262 0
M  V30 3311 H 316.139 -4.87094 0.707129 0
M  V30 3312 N 317.792 -0.46758 -1.50504 0
M  V30 3313 C 318.755 0.317059 -2.26996 0
M  V30 3314 C 319.755 0.923513 -1.31635 0
M  V30 3315 O 320.945 0.793239 -1.55091 0
M  V30 3316 C 318.077 1.45134 -3.08462 0
M  V30 3317 H 319.27 -0.353723 -2.97807 0
M  V30 3318 H 316.823 -0.221545 -1.54722 0
M  V30 3319 H 317.558 2.15728 -2.4214 0
M  V30 3320 H 317.343 1.02232 -3.78538 0
M  V30 3321 H 318.833 2.00493 -3.66323 0
M  V30 3322 N 319.27 1.56325 -0.20005 0
M  V30 3323 C 320.2 2.22318 0.713916 0
M  V30 3324 C 321.181 1.18788 1.21752 0
M  V30 3325 O 322.366 1.47309 1.26545 0
M  V30 3326 C 319.496 2.88639 1.93144 0
M  V30 3327 C 318.45 3.98457 1.56255 0
M  V30 3328 C 317.776 4.51967 2.85709 0
M  V30 3329 C 319.076 5.16612 0.768747 0
M  V30 3330 H 320.77 2.98952 0.163755 0
M  V30 3331 H 318.316 1.43792 0.0773219 0
M  V30 3332 H 320.269 3.33491 2.57608 0
M  V30 3333 H 318.993 2.09419 2.50621 0
M  V30 3334 H 317.652 3.54305 0.941471 0
M  V30 3335 H 317.3 3.69503 3.41287 0
M  V30 3336 H 317 5.26071 2.6177 0
M  V30 3337 H 318.524 4.99523 3.51154 0
M  V30 3338 H 319.938 5.57977 1.3166 0
M  V30 3339 H 318.335 5.96812 0.627286 0
M  V30 3340 H 319.405 4.84358 -0.229168 0
M  V30 3341 N 320.748 -0.0735177 1.57428 0
M  V30 3342 C 321.678 -1.0879 2.06608 0
M  V30 3343 C 322.659 -1.40473 0.959237 0
M  V30 3344 O 323.844 -1.5013 1.23185 0
M  V30 3345 C 320.974 -2.40183 2.50857 0
M  V30 3346 C 319.928 -2.22858 3.65402 0
M  V30 3347 C 319.254 -3.59619 3.957 0
M  V30 3348 C 320.554 -1.65123 4.95511 0
M  V30 3349 H 322.248 -0.678673 2.91607 0
M  V30 3350 H 319.794 -0.325013 1.40284 0
M  V30 3351 H 321.747 -3.11437 2.83874 0
M  V30 3352 H 320.471 -2.83083 1.62885 0
M  V30 3353 H 319.13 -1.54045 3.32664 0
M  V30 3354 H 318.778 -4.00086 3.04861 0
M  V30 3355 H 318.478 -3.48866 4.72828 0
M  V30 3356 H 320.002 -4.32306 4.31212 0
M  V30 3357 H 321.416 -2.26241 5.26771 0
M  V30 3358 H 319.813 -1.65071 5.7695 0
M  V30 3359 H 320.883 -0.612559 4.81015 0
M  V30 3360 N 322.226 -1.5378 -0.344866 0
M  V30 3361 C 323.173 -1.81676 -1.42346 0
M  V30 3362 C 324.143 -0.662376 -1.52321 0
M  V30 3363 O 325.328 -0.906675 -1.67881 0
M  V30 3364 C 322.468 -2.03087 -2.79015 0
M  V30 3365 C 321.581 -3.30799 -2.77842 0
M  V30 3366 C 320.716 -3.42285 -4.0622 0
M  V30 3367 C 319.755 -4.6395 -3.9927 0
M  V30 3368 N 318.892 -4.72477 -5.19336 0
M  V30 3369 H 323.732 -2.73703 -1.17858 0
M  V30 3370 H 321.269 -1.35568 -0.570949 0
M  V30 3371 H 323.227 -2.1349 -3.58438 0
M  V30 3372 H 321.857 -1.14375 -3.01858 0
M  V30 3373 H 320.909 -3.29244 -1.90533 0
M  V30 3374 H 322.221 -4.20314 -2.68584 0
M  V30 3375 H 321.375 -3.52113 -4.94066 0
M  V30 3376 H 320.114 -2.50823 -4.18258 0
M  V30 3377 H 319.119 -4.54201 -3.09809 0
M  V30 3378 H 320.344 -5.56775 -3.88817 0
M  V30 3379 H 318.29 -3.83924 -5.3192 0
M  V30 3380 H 318.207 -5.55927 -5.12329 0
M  V30 3381 H 319.475 -4.86613 -6.08957 0
M  V30 3382 N 323.704 0.605807 -1.45491 0
M  V30 3383 C 324.637 1.73022 -1.48791 0
M  V30 3384 C 325.615 1.58917 -0.344112 0
M  V30 3385 O 326.799 1.80453 -0.544876 0
M  V30 3386 C 323.926 3.10865 -1.34463 0
M  V30 3387 C 322.972 3.43554 -2.5273 0
M  V30 3388 S 323.805 3.38196 -4.15191 0
M  V30 3389 C 324.961 4.78616 -4.03333 0
M  V30 3390 H 325.194 1.69961 -2.43928 0
M  V30 3391 H 322.727 0.782611 -1.33096 0
M  V30 3392 H 324.685 3.90398 -1.26884 0
M  V30 3393 H 323.346 3.1144 -0.40794 0
M  V30 3394 H 322.539 4.43924 -2.38637 0
M  V30 3395 H 322.141 2.71541 -2.5718 0
M  V30 3396 H 324.433 5.68463 -3.68587 0
M  V30 3397 H 325.376 4.97767 -5.03621 0
M  V30 3398 H 325.784 4.54381 -3.34959 0
M  V30 3399 N 325.182 1.32811 0.848464 0
M  V30 3400 C 326.598 1.11937 1.13764 0
M  V30 3401 C 326.798 -0.0960789 2.01271 0
M  V30 3402 O 325.854 -0.779165 2.40178 0
M  V30 3403 C 327.167 2.402 1.809 0
M  V30 3404 C 328.715 2.46016 1.93508 0
M  V30 3405 C 329.19 3.74215 2.64059 0
M  V30 3406 N 330.681 3.75232 2.71579 0
M  V30 3407 C 331.416 4.71134 3.26833 0
M  V30 3408 N 330.912 5.77406 3.8285 0
M  V30 3409 N 332.705 4.58623 3.24995 0
M  V30 3410 H 324.856 2.1073 0.265855 0
M  V30 3411 H 327.119 0.930671 0.180431 0
M  V30 3412 H 326.825 3.29093 1.24058 0
M  V30 3413 H 326.699 2.51628 2.81004 0
M  V30 3414 H 329.086 1.57577 2.49506 0
M  V30 3415 H 329.167 2.38536 0.923811 0
M  V30 3416 H 328.811 4.63031 2.08722 0
M  V30 3417 H 328.741 3.78968 3.65637 0
M  V30 3418 H 331.232 2.98423 2.31845 0
M  V30 3419 H 331.545 6.46632 4.23187 0
M  V30 3420 H 329.89 5.81152 3.81165 0
M  V30 3421 H 333.081 3.74762 2.80484 0
M  V30 3422 H 333.254 5.33535 3.67756 0
M  V30 3423 N 326.66 -1.06551 1.16123 0
M  V30 3424 C 328.076 -1.3142 0.905585 0
M  V30 3425 C 328.276 -1.96571 -0.442964 0
M  V30 3426 O 327.332 -2.23068 -1.18308 0
M  V30 3427 C 328.645 -2.19741 2.05267 0
M  V30 3428 C 330.193 -2.33165 2.08813 0
M  V30 3429 C 330.668 -3.24838 3.22868 0
M  V30 3430 N 332.159 -3.32421 3.22568 0
M  V30 3431 C 332.894 -4.0344 4.0746 0
M  V30 3432 N 332.39 -4.77003 5.02434 0
M  V30 3433 N 334.183 -3.99464 3.95456 0
M  V30 3434 H 326.334 -0.626548 2.02949 0
M  V30 3435 H 328.597 -0.338777 0.8854 0
M  V30 3436 H 328.303 -1.79142 3.02657 0
M  V30 3437 H 328.177 -3.20313 1.99198 0
M  V30 3438 H 330.564 -2.73013 1.12018 0
M  V30 3439 H 330.645 -1.3227 2.18948 0
M  V30 3440 H 330.289 -2.85708 4.19921 0
M  V30 3441 H 330.219 -4.25707 3.0997 0
M  V30 3442 H 332.71 -2.79994 2.53795 0
M  V30 3443 H 333.023 -5.28712 5.63634 0
M  V30 3444 H 331.368 -4.75992 5.06415 0
M  V30 3445 H 334.559 -3.4111 3.20564 0
M  V30 3446 H 334.732 -4.54544 4.61837 0
M  V30 3447 N 328.138 -0.959301 -1.25041 0
M  V30 3448 C 329.07 -0.440543 -2.24926 0
M  V30 3449 C 330.083 0.446131 -1.56568 0
M  V30 3450 O 331.272 0.253657 -1.76689 0
M  V30 3451 C 328.372 0.38412 -3.36716 0
M  V30 3452 C 327.545 -0.490658 -4.34639 0
M  V30 3453 C 326.604 0.276587 -5.25473 0
M  V30 3454 O 325.63 -0.326614 -5.68262 0
M  V30 3455 N 326.832 1.56844 -5.5891 0
M  V30 3456 H 329.597 -1.29931 -2.70071 0
M  V30 3457 H 327.158 -0.830181 -1.38995 0
M  V30 3458 H 329.15 0.905228 -3.94446 0
M  V30 3459 H 327.72 1.14377 -2.90924 0
M  V30 3460 H 326.94 -1.19282 -3.7572 0
M  V30 3461 H 328.228 -1.08756 -4.97041 0
M  V30 3462 H 327.626 2.08036 -5.26059 0
M  V30 3463 H 326.183 2.03541 -6.19205 0
M  V30 3464 N 329.616 1.39756 -0.72842 0
M  V30 3465 C 330.566 2.2792 -0.0603424 0
M  V30 3466 C 331.55 1.43922 0.719399 0
M  V30 3467 O 332.742 1.66895 0.589489 0
M  V30 3468 C 329.871 3.32582 0.851104 0
M  V30 3469 C 328.957 4.24049 0.0658641 0
M  V30 3470 N 329.348 4.96653 -0.957578 0
M  V30 3471 C 327.646 4.45013 0.296509 0
M  V30 3472 C 328.347 5.63836 -1.43052 0
M  V30 3473 N 327.323 5.38397 -0.750315 0
M  V30 3474 H 331.125 2.81504 -0.84455 0
M  V30 3475 H 328.639 1.5236 -0.562155 0
M  V30 3476 H 330.636 3.94603 1.34514 0
M  V30 3477 H 329.296 2.80558 1.63454 0
M  V30 3478 H 330.307 5.00297 -1.33877 0
M  V30 3479 H 326.984 4.03943 1.05527 0
M  V30 3480 H 328.374 6.31974 -2.28163 0
M  V30 3481 N 331.094 0.475555 1.50254 0
M  V30 3482 C 332.505 0.0215174 1.86688 0
M  V30 3483 C 332.856 -1.38467 1.39001 0
M  V30 3484 O 331.981 -2.02732 0.756894 0
M  V30 3485 C 332.576 0.0322715 3.38785 0
M  V30 3486 C 331.135 -0.366314 3.74613 0
M  V30 3487 C 330.282 0.415832 2.74164 0
M  V30 3488 H 333.233 0.689612 1.42934 0
M  V30 3489 H 333.254 -0.76889 3.7265 0
M  V30 3490 H 332.766 1.05584 3.73462 0
M  V30 3491 H 330.867 -1.39406 3.45538 0
M  V30 3492 H 330.98 -0.064555 4.79057 0
M  V30 3493 H 329.344 -0.131048 2.54363 0
M  V30 3494 H 330.127 1.43899 3.11686 0
M  V30 3495 N 332.573 -1.56217 0.208337 0
M  V30 3496 C 333.821 -1.97558 -0.426076 0
M  V30 3497 C 334.142 -1.09683 -1.61229 0
M  V30 3498 O 333.412 -0.170956 -1.95153 0
M  V30 3499 H 331.992 -0.729575 -0.160405 0
M  V30 3500 H 334.654 -1.92606 0.298155 0
M  V30 3501 H 333.75 -3.02672 -0.761312 0
M  V30 3502 N 334.051 0.0651679 -1.57465 0
M  V30 3503 C 335.291 0.768329 -1.8941 0
M  V30 3504 C 335.655 1.74406 -0.802894 0
M  V30 3505 O 336.856 2.49281 -1.0056 0
M  V30 3506 C 335.127 1.45199 -3.26576 0
M  V30 3507 S 336.686 2.1893 -3.80283 0
M  V30 3508 H 333.504 0.255359 -0.663561 0
M  V30 3509 H 336.106 0.024167 -1.95485 0
M  V30 3510 H 334.81 0.728123 -4.03889 0
M  V30 3511 H 334.341 2.23545 -3.23715 0
M  V30 3512 H 336.356 3.45551 -3.56102 0
M  V30 3513 N 335.529 1.53961 0.336706 0
M  V30 3514 C 336.459 1.85417 1.41925 0
M  V30 3515 C 337.44 0.709856 1.5458 0
M  V30 3516 O 338.625 0.962396 1.68676 0
M  V30 3517 C 335.755 2.06985 2.78881 0
M  V30 3518 C 334.709 3.22813 2.81026 0
M  V30 3519 C 334.035 3.29727 4.20932 0
M  V30 3520 C 335.335 4.60767 2.45949 0
M  V30 3521 H 337.029 2.76079 1.15848 0
M  V30 3522 H 334.575 1.32839 0.555859 0
M  V30 3523 H 336.528 2.27575 3.54665 0
M  V30 3524 H 335.252 1.13061 3.06406 0
M  V30 3525 H 333.911 3.0209 2.07695 0
M  V30 3526 H 333.559 2.33385 4.45579 0
M  V30 3527 H 333.259 4.07566 4.23277 0
M  V30 3528 H 334.783 3.52536 4.98549 0
M  V30 3529 H 336.197 4.81325 3.11446 0
M  V30 3530 H 334.594 5.4106 2.59566 0
M  V30 3531 H 335.664 4.6391 1.41122 0
M  V30 3532 N 337.007 -0.598083 1.45811 0
M  V30 3533 C 337.97 -1.69018 1.54808 0
M  V30 3534 C 338.97 -1.55037 0.426652 0
M  V30 3535 O 340.16 -1.59932 0.690456 0
M  V30 3536 C 337.292 -3.0835 1.45371 0
M  V30 3537 H 338.485 -1.62403 2.52121 0
M  V30 3538 H 336.038 -0.814626 1.33392 0
M  V30 3539 H 336.773 -3.20534 0.492793 0
M  V30 3540 H 336.558 -3.19907 2.26721 0
M  V30 3541 H 338.048 -3.8788 1.54721 0
M  V30 3542 N 338.485 -1.33259 -0.841409 0
M  V30 3543 C 339.417 -1.19136 -1.95804 0
M  V30 3544 C 340.43 -0.122965 -1.62335 0
M  V30 3545 O 341.619 -0.373154 -1.74556 0
M  V30 3546 C 338.719 -0.804268 -3.29218 0
M  V30 3547 C 337.892 -1.96376 -3.90839 0
M  V30 3548 C 336.951 -1.55806 -5.02604 0
M  V30 3549 O 335.977 -2.27203 -5.21888 0
M  V30 3550 N 337.179 -0.461609 -5.78662 0
M  V30 3551 H 339.944 -2.15326 -2.08458 0
M  V30 3552 H 337.505 -1.25971 -1.017 0
M  V30 3553 H 339.497 -0.51501 -4.0141 0
M  V30 3554 H 338.067 0.0668809 -3.12528 0
M  V30 3555 H 337.287 -2.41879 -3.11269 0
M  V30 3556 H 338.575 -2.73966 -4.28742 0
M  V30 3557 H 337.973 0.132343 -5.65545 0
M  V30 3558 H 336.53 -0.232013 -6.51387 0
M  V30 3559 N 339.963 1.05934 -1.16686 0
M  V30 3560 C 340.873 2.17014 -0.891183 0
M  V30 3561 C 341.889 1.73453 0.137907 0
M  V30 3562 O 343.065 2.01361 -0.039592 0
M  V30 3563 C 340.13 3.44384 -0.400099 0
M  V30 3564 C 339.191 4.02433 -1.49486 0
M  V30 3565 C 338.424 5.23723 -1.02711 0
M  V30 3566 O 338.647 5.7027 0.121716 0
M  V30 3567 O 337.581 5.7382 -1.81699 0
M  V30 3568 H 341.407 2.43113 -1.82015 0
M  V30 3569 H 338.992 1.15541 -0.947132 0
M  V30 3570 H 340.874 4.21189 -0.133392 0
M  V30 3571 H 339.549 3.19802 0.500817 0
M  V30 3572 H 338.456 3.27102 -1.81535 0
M  V30 3573 H 339.789 4.31317 -2.37121 0
M  V30 3574 N 341.441 0.965919 1.2453 0
M  V30 3575 C 342.404 0.499547 2.2369 0
M  V30 3576 C 343.404 -0.40294 1.5567 0
M  V30 3577 O 344.594 -0.19865 1.73064 0
M  V30 3578 C 341.726 -0.276792 3.39774 0
M  V30 3579 H 342.919 1.37613 2.66463 0
M  V30 3580 H 340.472 0.750324 1.37112 0
M  V30 3581 H 341.207 -1.17055 3.02438 0
M  V30 3582 H 340.992 0.370826 3.90343 0
M  V30 3583 H 342.482 -0.592175 4.1338 0
M  V30 3584 N 342.919 -1.39368 0.735821 0
M  V30 3585 C 344.159 -2.02349 0.288813 0
M  V30 3586 C 344.523 -1.57127 -1.10341 0
M  V30 3587 O 345.724 -2.12312 -1.64854 0
M  V30 3588 C 343.995 -3.55288 0.387986 0
M  V30 3589 S 345.554 -4.38795 0.0209408 0
M  V30 3590 H 342.372 -0.701944 0.113115 0
M  V30 3591 H 344.974 -1.70164 0.962518 0
M  V30 3592 H 343.678 -3.85691 1.40252 0
M  V30 3593 H 343.209 -3.92227 -0.303512 0
M  V30 3594 H 345.224 -4.81595 -1.19503 0
M  V30 3595 N 344.397 -0.483516 -1.5 0
M  V30 3596 C 345.643 0.0672592 -2.02688 0
M  V30 3597 C 345.976 1.38247 -1.36387 0
M  V30 3598 O 345.251 1.88131 -0.493675 0
M  V30 3599 C 345.534 0.238109 -3.59312 0
M  V30 3600 C 345.387 -1.099 -4.36168 0
M  V30 3601 C 346.706 0.986916 -4.28892 0
M  V30 3602 H 343.825 0.0229696 -0.736642 0
M  V30 3603 H 346.467 -0.631527 -1.79197 0
M  V30 3604 H 344.617 0.8333 -3.79458 0
M  V30 3605 H 346.289 -1.73172 -4.27562 0
M  V30 3606 H 344.532 -1.69261 -3.99416 0
M  V30 3607 H 345.203 -0.932954 -5.44059 0
M  V30 3608 H 347.679 0.482302 -4.13295 0
M  V30 3609 H 346.555 1.07527 -5.38265 0
M  V30 3610 H 346.816 2.0265 -3.92919 0
M  V30 3611 N 345.875 1.56104 -0.216619 0
M  V30 3612 C 347.291 1.58995 0.13886 0
M  V30 3613 C 347.491 1.23333 1.59346 0
M  V30 3614 O 346.547 0.966234 2.33281 0
M  V30 3615 C 347.86 3.00143 -0.182968 0
M  V30 3616 C 349.408 3.12751 -0.124807 0
M  V30 3617 C 349.883 4.56068 -0.420241 0
M  V30 3618 N 351.374 4.61723 -0.369634 0
M  V30 3619 C 352.109 5.70542 -0.571789 0
M  V30 3620 N 351.605 6.87744 -0.835453 0
M  V30 3621 N 353.398 5.59831 -0.504563 0
M  V30 3622 H 345.549 1.77562 -1.16557 0
M  V30 3623 H 347.812 0.825091 -0.466828 0
M  V30 3624 H 347.518 3.30871 -1.19237 0
M  V30 3625 H 347.392 3.73813 0.504367 0
M  V30 3626 H 349.779 2.81822 0.875223 0
M  V30 3627 H 349.86 2.41421 -0.845544 0
M  V30 3628 H 349.504 4.87713 -1.41769 0
M  V30 3629 H 349.434 5.25617 0.321631 0
M  V30 3630 H 351.925 3.77502 -0.173338 0
M  V30 3631 H 352.238 7.66587 -0.977938 0
M  V30 3632 H 350.583 6.895 -0.872592 0
M  V30 3633 H 353.774 4.67145 -0.298842 0
M  V30 3634 H 353.947 6.44573 -0.665519 0
M  V30 3635 N 347.353 -0.0568162 1.57498 0
M  V30 3636 C 348.316 -1.05038 2.03715 0
M  V30 3637 C 349.316 -1.30709 0.936577 0
M  V30 3638 O 350.506 -1.26178 1.20103 0
M  V30 3639 C 347.638 -2.39034 2.43055 0
M  V30 3640 H 348.831 -0.651715 2.92733 0
M  V30 3641 H 346.384 -0.302947 1.53336 0
M  V30 3642 H 347.119 -2.83703 1.57108 0
M  V30 3643 H 346.904 -2.21739 3.2338 0
M  V30 3644 H 348.394 -3.10421 2.79336 0
M  V30 3645 N 348.832 -1.54138 -0.328536 0
M  V30 3646 C 350.078 -1.7236 -1.06865 0
M  V30 3647 C 350.411 -0.493231 -1.87832 0
M  V30 3648 O 349.686 0.5098 -1.877 0
M  V30 3649 C 349.969 -2.99621 -1.99747 0
M  V30 3650 C 349.822 -4.32899 -1.22143 0
M  V30 3651 C 351.141 -3.22615 -2.99345 0
M  V30 3652 H 348.26 -0.627151 -0.387105 0
M  V30 3653 H 350.902 -1.86827 -0.345767 0
M  V30 3654 H 349.052 -2.87418 -2.61387 0
M  V30 3655 H 350.724 -4.56978 -0.630017 0
M  V30 3656 H 348.967 -4.30628 -0.523628 0
M  V30 3657 H 349.638 -5.18154 -1.90318 0
M  V30 3658 H 352.114 -3.34248 -2.47826 0
M  V30 3659 H 350.99 -4.13027 -3.61524 0
M  V30 3660 H 351.251 -2.3961 -3.71536 0
M  V30 3661 N 350.31 0.590341 -1.46126 0
M  V30 3662 C 351.242 1.71427 -1.52136 0
M  V30 3663 C 352.255 1.57542 -0.41042 0
M  V30 3664 O 353.444 1.65106 -0.678389 0
M  V30 3665 C 350.544 3.09605 -1.37834 0
M  V30 3666 C 349.717 3.49566 -2.62912 0
M  V30 3667 C 348.776 4.66773 -2.42918 0
M  V30 3668 O 347.802 4.73019 -3.1661 0
M  V30 3669 N 349.004 5.61161 -1.4859 0
M  V30 3670 H 351.769 1.66728 -2.49042 0
M  V30 3671 H 349.33 0.776113 -1.42085 0
M  V30 3672 H 351.322 3.85796 -1.22243 0
M  V30 3673 H 349.892 3.08714 -0.491393 0
M  V30 3674 H 349.112 2.63158 -2.93499 0
M  V30 3675 H 350.4 3.73028 -3.46017 0
M  V30 3676 H 349.798 5.58844 -0.87808 0
M  V30 3677 H 348.355 6.36814 -1.38965 0
M  V30 3678 N 351.788 1.33704 0.83433 0
M  V30 3679 C 352.751 1.24244 1.92603 0
M  V30 3680 C 353.751 0.160383 1.59998 0
M  V30 3681 O 354.941 0.412228 1.69252 0
M  V30 3682 C 352.073 0.91555 3.28376 0
M  V30 3683 H 353.266 2.21287 2.02416 0
M  V30 3684 H 350.819 1.17827 1.02696 0
M  V30 3685 H 351.554 -0.0521886 3.24258 0
M  V30 3686 H 351.339 1.69811 3.53422 0
M  V30 3687 H 352.829 0.874231 4.08347 0
M  V30 3688 N 353.266 -1.05314 1.17247 0
M  V30 3689 C 354.229 -2.112 0.890357 0
M  V30 3690 C 355.229 -1.60359 -0.118943 0
M  V30 3691 O 356.419 -1.73833 0.113086 0
M  V30 3692 C 353.551 -3.39266 0.333422 0
M  V30 3693 H 354.744 -2.37659 1.82916 0
M  V30 3694 H 352.297 -1.21538 0.982758 0
M  V30 3695 H 353.032 -3.18462 -0.612587 0
M  V30 3696 H 352.817 -3.77477 1.06082 0
M  V30 3697 H 354.307 -4.17315 0.154322 0
M  V30 3698 N 354.744 -0.972509 -1.24016 0
M  V30 3699 C 355.99 -0.637978 -1.92504 0
M  V30 3700 C 356.323 0.825383 -1.75787 0
M  V30 3701 O 355.598 1.59442 -1.11393 0
M  V30 3702 C 355.881 -1.01942 -3.45369 0
M  V30 3703 C 355.734 -2.53983 -3.71231 0
M  V30 3704 C 357.053 -0.55751 -4.36555 0
M  V30 3705 H 354.172 -0.233248 -0.699117 0
M  V30 3706 H 356.814 -1.21238 -1.46292 0
M  V30 3707 H 354.964 -0.530656 -3.84859 0
M  V30 3708 H 356.636 -3.10374 -3.41271 0
M  V30 3709 H 354.879 -2.96968 -3.16216 0
M  V30 3710 H 355.55 -2.75723 -4.78206 0
M  V30 3711 H 358.026 -0.977029 -4.04467 0
M  V30 3712 H 356.902 -0.85292 -5.42233 0
M  V30 3713 H 357.163 0.542328 -4.38761 0
M  V30 3714 N 356.222 1.38976 -0.743202 0
M  V30 3715 C 357.154 2.29096 -0.0689228 0
M  V30 3716 C 358.167 1.47229 0.694791 0
M  V30 3717 O 359.356 1.70212 0.537597 0
M  V30 3718 C 356.456 3.25988 0.926548 0
M  V30 3719 C 355.629 4.36833 0.222647 0
M  V30 3720 C 354.688 5.13981 1.12739 0
M  V30 3721 O 353.714 5.6601 0.601795 0
M  V30 3722 N 354.916 5.25966 2.45641 0
M  V30 3723 H 357.681 2.87604 -0.842846 0
M  V30 3724 H 355.242 1.50645 -0.593109 0
M  V30 3725 H 357.234 3.74476 1.5346 0
M  V30 3726 H 355.804 2.68453 1.60162 0
M  V30 3727 H 355.024 3.90116 -0.565983 0
M  V30 3728 H 356.312 5.0811 -0.264841 0
M  V30 3729 H 355.71 4.85228 2.9081 0
M  V30 3730 H 354.267 5.77865 3.01522 0
M  V30 3731 N 357.7 0.491464 1.49741 0
M  V30 3732 C 358.93 -0.0534375 2.06531 0
M  V30 3733 C 359.338 -1.32233 1.35318 0
M  V30 3734 O 358.681 -1.78781 0.422243 0
M  V30 3735 C 358.743 -0.387034 3.57411 0
M  V30 3736 C 358.407 0.782764 4.50246 0
M  V30 3737 C 359.404 1.67059 4.92329 0
M  V30 3738 C 357.089 0.978866 4.9267 0
M  V30 3739 C 359.083 2.73874 5.75562 0
M  V30 3740 C 356.77 2.05022 5.75682 0
M  V30 3741 C 357.768 2.92851 6.17031 0
M  V30 3742 O 357.456 3.98138 6.98385 0
M  V30 3743 H 357.188 0.0129324 0.675876 0
M  V30 3744 H 359.742 0.685238 1.93633 0
M  V30 3745 H 357.972 -1.17918 3.68283 0
M  V30 3746 H 359.661 -0.869419 3.96479 0
M  V30 3747 H 360.427 1.53086 4.60206 0
M  V30 3748 H 356.306 0.304646 4.59992 0
M  V30 3749 H 359.85 3.42458 6.07757 0
M  V30 3750 H 355.747 2.18993 6.07217 0
M  V30 3751 H 356.515 3.95374 7.16674 0
M  V30 3752 N 359.178 -1.55987 0.224894 0
M  V30 3753 C 360.589 -1.84553 -0.282345 0
M  V30 3754 C 360.94 -1.14634 -1.59227 0
M  V30 3755 O 360.065 -0.417155 -2.12341 0
M  V30 3756 C 360.66 -3.348 -0.519062 0
M  V30 3757 C 359.219 -3.63671 -0.970604 0
M  V30 3758 C 358.366 -2.77277 -0.0355261 0
M  V30 3759 H 361.317 -1.52245 0.448006 0
M  V30 3760 H 361.338 -3.55187 -1.36463 0
M  V30 3761 H 360.85 -3.8566 0.43449 0
M  V30 3762 H 358.951 -3.1827 -1.9374 0
M  V30 3763 H 359.064 -4.71631 -0.842698 0
M  V30 3764 H 357.428 -2.48846 -0.542927 0
M  V30 3765 H 358.211 -3.30937 0.913003 0
M  V30 3766 N 360.656 0.0484629 -1.57525 0
M  V30 3767 C 361.886 0.754326 -1.92337 0
M  V30 3768 C 362.294 1.70443 -0.82132 0
M  V30 3769 O 361.637 1.82466 0.21254 0
M  V30 3770 C 361.699 1.58231 -3.22805 0
M  V30 3771 C 361.363 0.799074 -4.4996 0
M  V30 3772 C 362.36 0.1079 -5.19788 0
M  V30 3773 C 360.045 0.759345 -4.96527 0
M  V30 3774 C 362.039 -0.612516 -6.3445 0
M  V30 3775 C 359.726 0.0351713 -6.1109 0
M  V30 3776 C 360.724 -0.649537 -6.79904 0
M  V30 3777 O 360.412 -1.36199 -7.92278 0
M  V30 3778 H 360.144 0.218257 -0.639797 0
M  V30 3779 H 362.698 0.0159295 -2.05394 0
M  V30 3780 H 360.928 2.36406 -3.06021 0
M  V30 3781 H 362.617 2.16898 -3.43089 0
M  V30 3782 H 363.383 0.129748 -4.84826 0
M  V30 3783 H 359.262 1.28177 -4.42822 0
M  V30 3784 H 362.806 -1.14751 -6.88097 0
M  V30 3785 H 358.703 0.0113314 -6.45499 0
M  V30 3786 H 359.471 -1.27366 -8.0853 0
M  V30 3787 N 362.134 1.5431 0.320358 0
M  V30 3788 C 363.044 1.86946 1.41734 0
M  V30 3789 C 364.06 0.761689 1.56443 0
M  V30 3790 O 365.236 1.05629 1.71477 0
M  V30 3791 C 362.301 2.09293 2.76401 0
M  V30 3792 C 361.362 3.33082 2.70841 0
M  V30 3793 C 360.595 3.54353 3.99086 0
M  V30 3794 O 360.818 2.79002 4.97508 0
M  V30 3795 O 359.752 4.47838 4.0215 0
M  V30 3796 H 363.578 2.80232 1.17062 0
M  V30 3797 H 361.163 1.40255 0.514673 0
M  V30 3798 H 363.045 2.25303 3.56113 0
M  V30 3799 H 361.72 1.19194 3.00956 0
M  V30 3800 H 360.627 3.22454 1.89668 0
M  V30 3801 H 361.96 4.23249 2.5124 0
M  V30 3802 N 363.613 -0.582584 1.46437 0
M  V30 3803 C 364.859 -1.34278 1.51978 0
M  V30 3804 C 365.192 -1.93446 0.170973 0
M  V30 3805 O 364.467 -1.76481 -0.817608 0
M  V30 3806 C 364.75 -2.47203 2.61845 0
M  V30 3807 C 364.603 -1.93069 4.06257 0
M  V30 3808 C 365.922 -3.49247 2.67795 0
M  V30 3809 H 363.041 -0.486876 0.553282 0
M  V30 3810 H 365.683 -0.654437 1.78374 0
M  V30 3811 H 363.833 -3.0592 2.39469 0
M  V30 3812 H 365.505 -1.38808 4.3992 0
M  V30 3813 H 363.748 -1.23898 4.1573 0
M  V30 3814 H 364.419 -2.74586 4.7886 0
M  V30 3815 H 366.895 -3.00411 2.8791 0
M  V30 3816 H 365.771 -4.25719 3.46489 0
M  V30 3817 H 366.032 -4.06482 1.73852 0
M  V30 3818 N 365.091 -1.34144 -0.827227 0
M  V30 3819 C 366.339 -1.26009 -1.58007 0
M  V30 3820 C 366.66 0.170971 -1.94249 0
M  V30 3821 O 365.93 1.10256 -1.61927 0
M  V30 3822 H 364.51 -0.463414 -0.585881 0
M  V30 3823 H 367.172 -1.68005 -0.987951 0
M  V30 3824 H 366.268 -1.86187 -2.50481 0
M  V30 3825 N 366.569 1.04691 -1.17803 0
M  V30 3826 C 367.818 1.77176 -0.963931 0
M  V30 3827 C 368.131 1.88888 0.508015 0
M  V30 3828 O 369.337 2.58164 0.840465 0
M  V30 3829 C 367.793 3.18518 -1.67555 0
M  V30 3830 C 367.401 3.14919 -3.18637 0
M  V30 3831 C 369.145 3.95424 -1.54402 0
M  V30 3832 C 367.052 4.51081 -3.82466 0
M  V30 3833 H 365.982 0.664116 -0.357023 0
M  V30 3834 H 368.633 1.17303 -1.4111 0
M  V30 3835 H 367.015 3.78748 -1.15613 0
M  V30 3836 H 368.189 2.64178 -3.77554 0
M  V30 3837 H 366.504 2.51512 -3.31859 0
M  V30 3838 H 369.101 4.96106 -1.99456 0
M  V30 3839 H 369.444 4.13343 -0.495329 0
M  V30 3840 H 369.977 3.41754 -2.0359 0
M  V30 3841 H 366.716 4.38368 -4.87354 0
M  V30 3842 H 366.236 5.01951 -3.28337 0
M  V30 3843 H 367.915 5.2001 -3.84965 0
M  V30 3844 N 368.047 0.979072 1.23499 0
M  V30 3845 C 368.994 0.517904 2.24914 0
M  V30 3846 C 369.964 -0.442525 1.60097 0
M  V30 3847 O 371.149 -0.350365 1.87556 0
M  V30 3848 C 368.289 -0.174813 3.44657 0
M  V30 3849 C 367.402 0.825721 4.24035 0
M  V30 3850 C 366.537 0.107946 5.3109 0
M  V30 3851 C 365.576 1.09778 6.02175 0
M  V30 3852 N 364.713 0.40925 7.00906 0
M  V30 3853 H 369.553 1.38751 2.63727 0
M  V30 3854 H 367.09 0.695303 1.2963 0
M  V30 3855 H 369.048 -0.593233 4.12961 0
M  V30 3856 H 367.678 -1.0083 3.06648 0
M  V30 3857 H 366.73 1.36253 3.55161 0
M  V30 3858 H 368.042 1.58005 4.73113 0
M  V30 3859 H 367.196 -0.367904 6.05583 0
M  V30 3860 H 365.935 -0.678994 4.8295 0
M  V30 3861 H 364.94 1.5844 5.26476 0
M  V30 3862 H 366.165 1.88536 6.52404 0
M  V30 3863 H 364.111 -0.358506 6.5502 0
M  V30 3864 H 364.028 1.10226 7.47921 0
M  V30 3865 H 365.296 -0.0442557 7.79487 0
M  V30 3866 N 369.525 -1.3858 0.750561 0
M  V30 3867 C 370.472 -2.30483 0.120835 0
M  V30 3868 C 371.442 -1.50022 -0.712923 0
M  V30 3869 O 372.627 -1.78662 -0.669676 0
M  V30 3870 C 369.767 -3.36431 -0.768666 0
M  V30 3871 C 368.88 -4.31927 0.0793922 0
M  V30 3872 C 368.015 -5.24944 -0.81283 0
M  V30 3873 C 367.054 -6.12088 0.0390447 0
M  V30 3874 N 366.191 -6.97412 -0.809969 0
M  V30 3875 H 371.031 -2.83761 0.91015 0
M  V30 3876 H 368.568 -1.39707 0.460463 0
M  V30 3877 H 370.526 -3.96462 -1.29898 0
M  V30 3878 H 369.156 -2.8457 -1.5238 0
M  V30 3879 H 368.208 -3.73382 0.727303 0
M  V30 3880 H 369.52 -4.93319 0.737401 0
M  V30 3881 H 368.674 -5.90078 -1.41042 0
M  V30 3882 H 367.413 -4.63911 -1.50458 0
M  V30 3883 H 366.418 -5.45952 0.649328 0
M  V30 3884 H 367.643 -6.75189 0.727809 0
M  V30 3885 H 365.589 -6.38931 -1.48672 0
M  V30 3886 H 365.506 -7.55712 -0.208789 0
M  V30 3887 H 366.774 -7.66959 -1.39263 0
M  V30 3888 N 371.003 -0.499398 -1.49478 0
M  V30 3889 C 371.913 0.284489 -2.32869 0
M  V30 3890 C 372.929 0.968885 -1.44529 0
M  V30 3891 O 374.105 0.95062 -1.77553 0
M  V30 3892 C 371.17 1.33594 -3.19928 0
M  V30 3893 C 370.231 0.665149 -4.24116 0
M  V30 3894 C 369.464 1.6665 -5.07014 0
M  V30 3895 O 369.687 2.89618 -4.91404 0
M  V30 3896 O 368.621 1.22271 -5.8935 0
M  V30 3897 H 372.447 -0.39802 -3.01081 0
M  V30 3898 H 370.032 -0.260758 -1.47107 0
M  V30 3899 H 371.914 1.94431 -3.73864 0
M  V30 3900 H 370.589 2.0014 -2.54412 0
M  V30 3901 H 369.496 0.0170769 -3.74096 0
M  V30 3902 H 370.829 0.0421555 -4.92182 0
M  V30 3903 N 372.481 1.55866 -0.233164 0
M  V30 3904 C 373.391 2.24431 0.683217 0
M  V30 3905 C 374.407 1.2558 1.2044 0
M  V30 3906 O 375.583 1.58422 1.24356 0
M  V30 3907 C 372.648 2.91979 1.86947 0
M  V30 3908 C 371.709 4.06204 1.38912 0
M  V30 3909 C 370.942 4.70522 2.51883 0
M  V30 3910 O 371.165 4.33865 3.70293 0
M  V30 3911 O 370.099 5.59296 2.22423 0
M  V30 3912 H 373.925 3.03426 0.129059 0
M  V30 3913 H 371.51 1.494 -0.0022283 0
M  V30 3914 H 373.392 3.34573 2.56201 0
M  V30 3915 H 372.067 2.15935 2.41151 0
M  V30 3916 H 370.974 3.68155 0.664259 0
M  V30 3917 H 372.307 4.84025 0.893328 0
M  V30 3918 N 373.959 -0.0401083 1.57549 0
M  V30 3919 C 374.869 -1.06133 2.0922 0
M  V30 3920 C 375.885 -1.40356 1.0284 0
M  V30 3921 O 377.061 -1.49897 1.34509 0
M  V30 3922 C 374.126 -2.34658 2.55218 0
M  V30 3923 C 373.187 -2.07117 3.76033 0
M  V30 3924 C 372.42 -3.29514 4.19829 0
M  V30 3925 O 372.643 -4.39794 3.63232 0
M  V30 3926 O 371.577 -3.15863 5.12362 0
M  V30 3927 H 375.403 -0.652244 2.96613 0
M  V30 3928 H 372.988 -0.256368 1.47184 0
M  V30 3929 H 374.87 -3.10239 2.85184 0
M  V30 3930 H 373.545 -2.74883 1.70941 0
M  V30 3931 H 372.452 -1.29139 3.51104 0
M  V30 3932 H 373.785 -1.71754 4.61261 0
M  V30 3933 N 375.437 -1.54477 -0.31217 0
M  V30 3934 C 376.367 -1.87652 -1.38957 0
M  V30 3935 C 377.348 -0.734358 -1.53431 0
M  V30 3936 O 378.533 -0.98911 -1.67123 0
M  V30 3937 C 375.663 -2.11396 -2.75552 0
M  V30 3938 C 374.617 -3.27243 -2.75855 0
M  V30 3939 C 373.943 -3.36382 -4.15633 0
M  V30 3940 C 375.243 -4.64622 -2.38587 0
M  V30 3941 H 376.937 -2.77887 -1.11442 0
M  V30 3942 H 374.483 -1.33707 -0.534655 0
M  V30 3943 H 376.436 -2.33189 -3.51 0
M  V30 3944 H 375.16 -1.17921 -3.04569 0
M  V30 3945 H 373.819 -3.05356 -2.02863 0
M  V30 3946 H 373.467 -2.40445 -4.41809 0
M  V30 3947 H 373.167 -4.14249 -4.1674 0
M  V30 3948 H 374.691 -3.60422 -4.92877 0
M  V30 3949 H 376.105 -4.86219 -3.03749 0
M  V30 3950 H 374.502 -5.45121 -2.50925 0
M  V30 3951 H 375.572 -4.66097 -1.33723 0
M  V30 3952 N 376.915 0.57481 -1.46744 0
M  V30 3953 C 378.162 1.33272 -1.52462 0
M  V30 3954 C 378.49 1.93669 -0.179572 0
M  V30 3955 O 377.745 1.7743 0.825664 0
M  V30 3956 C 378.044 2.476 -2.57738 0
M  V30 3957 C 377.71 2.05146 -4.01529 0
M  V30 3958 C 376.372 1.93284 -4.40676 0
M  V30 3959 C 378.724 1.72506 -4.91824 0
M  V30 3960 C 376.052 1.47049 -5.67973 0
M  V30 3961 C 378.404 1.27748 -6.19567 0
M  V30 3962 C 377.068 1.14468 -6.57612 0
M  V30 3963 H 376.338 0.487678 -0.557899 0
M  V30 3964 H 378.985 0.646456 -1.80259 0
M  V30 3965 H 377.29 3.21708 -2.23632 0
M  V30 3966 H 378.987 3.05807 -2.5939 0
M  V30 3967 H 375.577 2.15316 -3.7059 0
M  V30 3968 H 379.761 1.80552 -4.62293 0
M  V30 3969 H 375.017 1.35417 -5.96215 0
M  V30 3970 H 379.191 1.01547 -6.88957 0
M  V30 3971 H 376.818 0.78419 -7.56145 0
M  V30 3972 N 378.394 1.34581 0.820102 0
M  V30 3973 C 379.324 1.29038 1.94606 0
M  V30 3974 C 380.305 0.1673 1.69275 0
M  V30 3975 O 381.49 0.360112 1.90832 0
M  V30 3976 C 378.62 1.04793 3.31113 0
M  V30 3977 C 377.574 2.13597 3.70891 0
M  V30 3978 C 376.9 1.74537 5.05412 0
M  V30 3979 C 378.2 3.55451 3.8269 0
M  V30 3980 H 379.894 2.23248 1.99501 0
M  V30 3981 H 377.44 1.0747 0.958449 0
M  V30 3982 H 379.393 0.995592 4.0947 0
M  V30 3983 H 378.117 0.0702565 3.26524 0
M  V30 3984 H 376.776 2.17905 2.9481 0
M  V30 3985 H 376.424 0.754226 4.97313 0
M  V30 3986 H 376.124 2.47361 5.32997 0
M  V30 3987 H 377.648 1.70803 5.86224 0
M  V30 3988 H 379.062 3.5354 4.51312 0
M  V30 3989 H 377.459 4.26922 4.21732 0
M  V30 3990 H 378.529 3.92587 2.84611 0
M  V30 3991 N 379.872 -1.04064 1.18357 0
M  V30 3992 C 381.102 -1.80654 1.00238 0
M  V30 3993 C 381.51 -1.83713 -0.452362 0
M  V30 3994 O 380.853 -1.27135 -1.32599 0
M  V30 3995 C 380.915 -3.27582 1.48088 0
M  V30 3996 C 380.579 -3.48184 2.96002 0
M  V30 3997 C 381.576 -3.39372 3.93856 0
M  V30 3998 C 379.261 -3.7478 3.34433 0
M  V30 3999 C 381.255 -3.5686 5.28138 0
M  V30 4000 C 378.942 -3.91915 4.68877 0
M  V30 4001 C 379.94 -3.82956 5.65539 0
M  V30 4002 O 379.628 -3.996 6.97549 0
M  V30 4003 H 379.36 -0.575751 0.354241 0
M  V30 4004 H 381.914 -1.32044 1.57333 0
M  V30 4005 H 380.144 -3.77161 0.853588 0
M  V30 4006 H 381.833 -3.8573 1.2636 0
M  V30 4007 H 382.599 -3.18789 3.65511 0
M  V30 4008 H 378.478 -3.80852 2.59756 0
M  V30 4009 H 382.022 -3.49783 6.03571 0
M  V30 4010 H 377.919 -4.11992 4.96923 0
M  V30 4011 H 378.687 -4.1676 7.04452 0
M  V30 4012 N 381.35 -0.985608 -1.22978 0
M  V30 4013 C 382.28 -0.549649 -2.26939 0
M  V30 4014 C 383.261 0.419803 -1.64838 0
M  V30 4015 O 384.446 0.31203 -1.91677 0
M  V30 4016 C 381.576 0.143652 -3.47003 0
M  V30 4017 C 380.53 -0.743606 -4.21491 0
M  V30 4018 C 379.856 0.0822027 -5.34637 0
M  V30 4019 C 381.156 -2.03694 -4.80943 0
M  V30 4020 H 382.85 -1.41862 -2.63658 0
M  V30 4021 H 380.396 -0.683571 -1.26741 0
M  V30 4022 H 382.349 0.459985 -4.18882 0
M  V30 4023 H 381.073 1.04711 -3.09359 0
M  V30 4024 H 379.732 -1.04347 -3.51436 0
M  V30 4025 H 379.38 0.986359 -4.93234 0
M  V30 4026 H 379.08 -0.508377 -5.85397 0
M  V30 4027 H 380.604 0.392797 -6.09335 0
M  V30 4028 H 382.018 -1.78504 -5.44802 0
M  V30 4029 H 380.415 -2.57573 -5.42011 0
M  V30 4030 H 381.485 -2.72042 -4.01399 0
M  V30 4031 N 382.828 1.3818 -0.7579 0
M  V30 4032 C 383.758 2.33027 -0.148597 0
M  V30 4033 C 384.739 1.55085 0.69875 0
M  V30 4034 O 385.924 1.83384 0.639053 0
M  V30 4035 C 383.054 3.3928 0.742034 0
M  V30 4036 C 382.008 4.28 -0.00291946 0
M  V30 4037 C 381.334 5.25146 1.00625 0
M  V30 4038 C 382.634 5.08938 -1.17385 0
M  V30 4039 H 384.328 2.84231 -0.940909 0
M  V30 4040 H 381.874 1.36659 -0.453908 0
M  V30 4041 H 383.827 4.046 1.17799 0
M  V30 4042 H 382.551 2.86569 1.56671 0
M  V30 4043 H 381.21 3.64192 -0.419504 0
M  V30 4044 H 380.858 4.68721 1.8251 0
M  V30 4045 H 380.558 5.85361 0.512428 0
M  V30 4046 H 382.082 5.93342 1.44143 0
M  V30 4047 H 383.496 5.67474 -0.815224 0
M  V30 4048 H 381.893 5.7841 -1.59882 0
M  V30 4049 H 382.963 4.42424 -1.98468 0
M  V30 4050 N 384.306 0.507319 1.49211 0
M  V30 4051 C 385.238 -0.304532 2.27168 0
M  V30 4052 C 386.251 -0.924956 1.33972 0
M  V30 4053 O 387.44 -0.807227 1.59205 0
M  V30 4054 C 384.54 -1.44431 3.06583 0
M  V30 4055 C 383.713 -0.930026 4.27398 0
M  V30 4056 C 382.772 -1.94817 4.88807 0
M  V30 4057 O 381.798 -1.51418 5.4869 0
M  V30 4058 N 383 -3.279 4.79022 0
M  V30 4059 H 385.765 0.36395 2.97482 0
M  V30 4060 H 383.326 0.340249 1.58284 0
M  V30 4061 H 385.318 -2.12311 3.44537 0
M  V30 4062 H 383.888 -2.01684 2.38835 0
M  V30 4063 H 383.108 -0.0759244 3.94127 0
M  V30 4064 H 384.396 -0.564932 5.05654 0
M  V30 4065 H 383.794 -3.65843 4.3148 0
M  V30 4066 H 382.351 -3.91476 5.21142 0
M  V30 4067 N 385.784 -1.5574 0.241426 0
M  V30 4068 C 387.009 -2.0366 -0.392111 0
M  V30 4069 C 387.434 -1.11969 -1.51144 0
M  V30 4070 O 386.792 -0.111594 -1.80956 0
M  V30 4071 C 386.84 -3.49638 -0.882371 0
M  V30 4072 O 385.944 -3.6108 -1.99235 0
M  V30 4073 H 385.285 -0.658379 -0.0862122 0
M  V30 4074 H 387.815 -2.01302 0.365881 0
M  V30 4075 H 387.825 -3.90351 -1.18702 0
M  V30 4076 H 386.5 -4.15852 -0.0632361 0
M  V30 4077 H 385.077 -3.32262 -1.69282 0
M  V30 4078 N 387.262 0.0317525 -1.57568 0
M  V30 4079 C 388.51 0.721676 -1.88776 0
M  V30 4080 C 388.831 1.76039 -0.838772 0
M  V30 4081 O 388.101 1.95482 0.127935 0
M  V30 4082 H 386.681 0.269534 -0.696678 0
M  V30 4083 H 389.343 -0.00165879 -1.949 0
M  V30 4084 H 388.439 1.21293 -2.87566 0
M  V30 4085 N 388.74 1.54641 0.303973 0
M  V30 4086 C 389.672 1.81754 1.39636 0
M  V30 4087 C 390.685 0.70035 1.46966 0
M  V30 4088 O 391.874 0.97778 1.49338 0
M  V30 4089 C 388.974 1.93785 2.7803 0
M  V30 4090 C 388.147 3.24156 2.93669 0
M  V30 4091 C 387.206 3.26641 4.12544 0
M  V30 4092 O 386.232 4.00187 4.04771 0
M  V30 4093 N 387.434 2.5182 5.23036 0
M  V30 4094 H 390.199 2.76031 1.16734 0
M  V30 4095 H 387.76 1.54178 0.494033 0
M  V30 4096 H 389.752 1.92852 3.55795 0
M  V30 4097 H 388.322 1.06515 2.93893 0
M  V30 4098 H 387.542 3.37887 2.03042 0
M  V30 4099 H 388.83 4.10195 3.01027 0
M  V30 4100 H 388.228 1.91692 5.32232 0
M  V30 4101 H 386.785 2.56644 5.99147 0
M  V30 4102 N 390.218 -0.567019 1.47046 0
M  V30 4103 C 391.181 -1.65696 1.58359 0
M  V30 4104 C 392.181 -1.54097 0.459441 0
M  V30 4105 O 393.371 -1.58432 0.724225 0
M  V30 4106 C 390.503 -3.05197 1.51879 0
M  V30 4107 H 391.696 -1.57019 2.5551 0
M  V30 4108 H 389.249 -0.786148 1.3509 0
M  V30 4109 H 389.984 -3.19417 0.560673 0
M  V30 4110 H 389.769 -3.15025 2.33455 0
M  V30 4111 H 391.259 -3.84511 1.62913 0
M  V30 4112 N 391.696 -1.35014 -0.812953 0
M  V30 4113 C 393.112 -1.14914 -1.10757 0
M  V30 4114 C 393.312 0.0426818 -2.01455 0
M  V30 4115 O 392.368 0.715212 -2.42159 0
M  V30 4116 C 393.681 -2.44911 -1.74468 0
M  V30 4117 C 395.229 -2.5106 -1.86917 0
M  V30 4118 C 395.704 -3.81085 -2.54044 0
M  V30 4119 N 397.195 -3.82301 -2.61535 0
M  V30 4120 C 397.93 -4.79634 -3.14227 0
M  V30 4121 N 397.426 -5.87353 -3.67407 0
M  V30 4122 N 399.219 -4.67078 -3.12721 0
M  V30 4123 H 391.37 -2.1136 -0.20989 0
M  V30 4124 H 393.633 -0.935128 -0.155692 0
M  V30 4125 H 393.339 -3.32267 -1.15289 0
M  V30 4126 H 393.213 -2.58989 -2.74234 0
M  V30 4127 H 395.6 -1.64137 -2.45241 0
M  V30 4128 H 395.681 -2.40901 -0.860242 0
M  V30 4129 H 395.325 -4.68402 -1.96372 0
M  V30 4130 H 395.255 -3.88529 -3.55461 0
M  V30 4131 H 397.746 -3.04465 -2.23851 0
M  V30 4132 H 398.059 -6.57624 -4.05894 0
M  V30 4133 H 396.404 -5.91054 -3.65623 0
M  V30 4134 H 399.595 -3.82067 -2.70449 0
M  V30 4135 H 399.768 -5.43098 -3.53481 0
M  V30 4136 N 393.175 1.03435 -1.18907 0
M  V30 4137 C 394.138 2.09756 -0.923844 0
M  V30 4138 C 395.138 1.60528 0.093416 0
M  V30 4139 O 396.328 1.73631 -0.140727 0
M  V30 4140 C 393.46 3.38692 -0.387354 0
M  V30 4141 H 394.653 2.34719 -1.86674 0
M  V30 4142 H 392.206 1.19959 -1.00197 0
M  V30 4143 H 392.941 3.19396 0.561845 0
M  V30 4144 H 392.726 3.75742 -1.12074 0
M  V30 4145 H 394.216 4.17016 -0.220694 0
M  V30 4146 N 394.653 0.992116 1.22453 0
M  V30 4147 C 395.583 0.561677 2.26644 0
M  V30 4148 C 396.564 -0.411055 1.65059 0
M  V30 4149 O 397.749 -0.301861 1.9184 0
M  V30 4150 C 394.879 -0.125247 3.47074 0
M  V30 4151 C 393.833 0.765948 4.21091 0
M  V30 4152 C 393.159 -0.0538484 5.34673 0
M  V30 4153 C 394.459 2.06242 4.79856 0
M  V30 4154 H 396.153 1.43259 2.62902 0
M  V30 4155 H 393.699 0.690283 1.26377 0
M  V30 4156 H 395.652 -0.437764 4.1912 0
M  V30 4157 H 394.376 -1.03069 3.0991 0
M  V30 4158 H 393.035 1.0621 3.50878 0
M  V30 4159 H 392.683 -0.960188 4.9375 0
M  V30 4160 H 392.383 0.539415 5.85119 0
M  V30 4161 H 393.907 -0.360477 6.09535 0
M  V30 4162 H 395.321 1.8139 5.43848 0
M  V30 4163 H 393.718 2.60444 5.40638 0
M  V30 4164 H 394.788 2.74167 3.99951 0
M  V30 4165 N 396.131 -1.37776 0.765217 0
M  V30 4166 C 397.063 -2.28958 0.105361 0
M  V30 4167 C 398.076 -1.48316 -0.67128 0
M  V30 4168 O 399.265 -1.71046 -0.51045 0
M  V30 4169 C 396.365 -3.27421 -0.874569 0
M  V30 4170 C 395.538 -4.37132 -0.153123 0
M  V30 4171 C 394.597 -5.1571 -1.04547 0
M  V30 4172 O 393.623 -5.66896 -0.511672 0
M  V30 4173 N 394.825 -5.29808 -2.37243 0
M  V30 4174 H 397.59 -2.86227 0.888495 0
M  V30 4175 H 395.151 -1.49682 0.617 0
M  V30 4176 H 397.143 -3.7687 -1.47483 0
M  V30 4177 H 395.713 -2.70967 -1.55871 0
M  V30 4178 H 394.933 -3.89166 0.627975 0
M  V30 4179 H 396.221 -5.07625 0.345643 0
M  V30 4180 H 395.619 -4.89793 -2.83054 0
M  V30 4181 H 394.176 -5.82589 -2.9229 0
M  V30 4182 N 397.609 -0.515225 -1.4894 0
M  V30 4183 C 398.839 0.0205735 -2.0659 0
M  V30 4184 C 399.247 1.30064 -1.37405 0
M  V30 4185 O 398.59 1.78087 -0.450632 0
M  V30 4186 C 398.652 0.330124 -3.57981 0
M  V30 4187 C 398.316 -0.854295 -4.48944 0
M  V30 4188 C 399.313 -1.7487 -4.89609 0
M  V30 4189 C 396.998 -1.05712 -4.9105 0
M  V30 4190 C 398.992 -2.82996 -5.71132 0
M  V30 4191 C 396.679 -2.14154 -5.72347 0
M  V30 4192 C 397.677 -3.0263 -6.12294 0
M  V30 4193 O 397.365 -4.09198 -6.91962 0
M  V30 4194 H 397.097 -0.0236833 -0.675585 0
M  V30 4195 H 399.651 -0.715956 -1.92518 0
M  V30 4196 H 397.881 1.12044 -3.70112 0
M  V30 4197 H 399.57 0.806233 -3.97812 0
M  V30 4198 H 400.336 -1.60388 -4.57712 0
M  V30 4199 H 396.215 -0.377788 -4.59449 0
M  V30 4200 H 399.759 -3.52083 -6.02232 0
M  V30 4201 H 395.656 -2.28626 -6.03656 0
M  V30 4202 H 396.424 -4.06726 -7.10293 0
M  V30 4203 N 399.087 1.5561 -0.249682 0
M  V30 4204 C 400.05 2.20217 0.635394 0
M  V30 4205 C 401.05 1.17227 1.10066 0
M  V30 4206 O 402.24 1.42292 1.00492 0
M  V30 4207 C 399.372 2.84794 1.87363 0
M  V30 4208 H 400.565 2.99814 0.0716752 0
M  V30 4209 H 398.118 1.563 -0.000153234 0
M  V30 4210 H 398.853 2.09142 2.47851 0
M  V30 4211 H 398.638 3.60241 1.5482 0
M  V30 4212 H 400.128 3.3423 2.5036 0
M  V30 4213 N 400.565 -0.0233959 1.57583 0
M  V30 4214 C 401.812 -0.713063 1.8953 0
M  V30 4215 C 402.14 -1.75056 0.847673 0
M  V30 4216 O 401.395 -1.95119 -0.150636 0
M  V30 4217 C 401.694 -1.41428 3.28227 0
M  V30 4218 C 401.36 -0.512222 4.47981 0
M  V30 4219 C 400.022 -0.263785 4.80476 0
M  V30 4220 C 402.374 0.110248 5.21083 0
M  V30 4221 C 399.702 0.615804 5.83459 0
M  V30 4222 C 402.054 0.977573 6.25001 0
M  V30 4223 C 400.718 1.23542 6.55968 0
M  V30 4224 H 399.988 -0.260928 0.69354 0
M  V30 4225 H 402.635 0.0271047 1.91481 0
M  V30 4226 H 400.94 -2.22791 3.22291 0
M  V30 4227 H 402.637 -1.95355 3.50196 0
M  V30 4228 H 399.227 -0.716013 4.22577 0
M  V30 4229 H 403.411 -0.0687137 4.96252 0
M  V30 4230 H 398.667 0.82382 6.05824 0
M  V30 4231 H 402.841 1.46638 6.80786 0
M  V30 4232 H 400.468 1.91871 7.35588 0
M  V30 4233 N 402.043 -1.548 -0.295768 0
M  V30 4234 C 403.29 -1.74329 -1.03032 0
M  V30 4235 C 403.618 -0.531915 -1.87085 0
M  V30 4236 O 402.873 0.486052 -1.89568 0
M  V30 4237 C 403.172 -2.98797 -1.961 0
M  V30 4238 C 402.838 -4.32356 -1.2798 0
M  V30 4239 C 401.5 -4.68661 -1.09135 0
M  V30 4240 C 403.852 -5.15128 -0.793243 0
M  V30 4241 C 401.18 -5.85312 -0.403269 0
M  V30 4242 C 403.532 -6.32488 -0.118854 0
M  V30 4243 C 402.196 -6.6745 0.0815043 0
M  V30 4244 H 401.466 -0.637916 -0.37702 0
M  V30 4245 H 404.113 -1.8906 -0.304696 0
M  V30 4246 H 402.418 -2.78869 -2.75207 0
M  V30 4247 H 404.115 -3.11102 -2.53015 0
M  V30 4248 H 400.705 -4.03808 -1.43655 0
M  V30 4249 H 404.889 -4.87575 -0.92653 0
M  V30 4250 H 400.145 -6.1094 -0.237098 0
M  V30 4251 H 404.319 -6.95892 0.266035 0
M  V30 4252 H 401.946 -7.57695 0.616685 0
M  V30 4253 N 403.521 0.559213 -1.47345 0
M  V30 4254 C 404.484 1.64854 -1.59235 0
M  V30 4255 C 405.484 1.53851 -0.467607 0
M  V30 4256 O 406.674 1.58045 -0.732617 0
M  V30 4257 C 403.806 3.04388 -1.53496 0
M  V30 4258 H 404.999 1.55662 -2.56339 0
M  V30 4259 H 402.552 0.778973 -1.35505 0
M  V30 4260 H 403.287 3.19115 -0.577604 0
M  V30 4261 H 403.072 3.13783 -2.35123 0
M  V30 4262 H 404.562 3.83642 -1.6495 0
M  V30 4263 N 404.999 1.35443 0.805782 0
M  V30 4264 C 405.909 1.30546 1.94923 0
M  V30 4265 C 406.925 0.210233 1.72725 0
M  V30 4266 O 408.101 0.43975 1.9654 0
M  V30 4267 C 405.166 1.07782 3.29521 0
M  V30 4268 C 404.227 2.26625 3.64609 0
M  V30 4269 C 403.46 2.04938 4.92784 0
M  V30 4270 O 403.683 1.01624 5.61274 0
M  V30 4271 O 402.617 2.9232 5.26149 0
M  V30 4272 H 406.443 2.26779 2.02002 0
M  V30 4273 H 404.028 1.15823 0.943682 0
M  V30 4274 H 405.91 0.969392 4.10098 0
M  V30 4275 H 404.585 0.146003 3.23371 0
M  V30 4276 H 403.492 2.43033 2.84404 0
M  V30 4277 H 404.825 3.18257 3.75464 0
M  V30 4278 N 406.477 -1.02803 1.19454 0
M  V30 4279 C 407.893 -1.28473 0.946937 0
M  V30 4280 C 408.093 -1.97881 -0.380202 0
M  V30 4281 O 407.149 -2.26719 -1.11151 0
M  V30 4282 C 408.462 -2.13099 2.12154 0
M  V30 4283 C 410.01 -2.26404 2.16126 0
M  V30 4284 C 410.485 -3.14402 3.33039 0
M  V30 4285 N 411.976 -3.21991 3.32981 0
M  V30 4286 C 412.711 -3.90272 4.20089 0
M  V30 4287 N 412.207 -4.60777 5.17355 0
M  V30 4288 N 414 -3.8668 4.07964 0
M  V30 4289 H 406.151 -0.561665 2.04839 0
M  V30 4290 H 408.414 -0.310438 0.89573 0
M  V30 4291 H 408.12 -1.69422 3.08203 0
M  V30 4292 H 407.994 -3.13813 2.09287 0
M  V30 4293 H 410.381 -2.69311 1.20647 0
M  V30 4294 H 410.462 -1.25237 2.23045 0
M  V30 4295 H 410.106 -2.72204 4.28798 0
M  V30 4296 H 410.036 -4.1563 3.23356 0
M  V30 4297 H 412.527 -2.71778 2.62574 0
M  V30 4298 H 412.84 -5.10513 5.80169 0
M  V30 4299 H 411.185 -4.5964 5.21302 0
M  V30 4300 H 414.376 -3.30739 3.31254 0
M  V30 4301 H 414.549 -4.39621 4.76064 0
M  V30 4302 N 407.956 -0.998596 -1.21925 0
M  V30 4303 C 408.903 -0.553621 -2.24062 0
M  V30 4304 C 409.873 0.416999 -1.6078 0
M  V30 4305 O 411.058 0.320482 -1.88089 0
M  V30 4306 C 408.198 0.119959 -3.44891 0
M  V30 4307 C 407.311 -0.893077 -4.22668 0
M  V30 4308 C 406.446 -0.192424 -5.30851 0
M  V30 4309 C 405.485 -1.19344 -6.00353 0
M  V30 4310 N 404.622 -0.520707 -7.00166 0
M  V30 4311 H 409.462 -1.4293 -2.61486 0
M  V30 4312 H 406.999 -0.715838 -1.28507 0
M  V30 4313 H 408.957 0.527459 -4.13852 0
M  V30 4314 H 407.587 0.959389 -3.08214 0
M  V30 4315 H 406.639 -1.41886 -3.52948 0
M  V30 4316 H 407.951 -1.65512 -4.70539 0
M  V30 4317 H 407.105 0.271515 -6.06092 0
M  V30 4318 H 405.844 0.602075 -4.83969 0
M  V30 4319 H 404.849 -1.66795 -5.23889 0
M  V30 4320 H 406.074 -1.98891 -6.49322 0
M  V30 4321 H 404.02 0.254252 -6.55507 0
M  V30 4322 H 403.937 -1.2211 -7.46073 0
M  V30 4323 H 405.205 -0.0797596 -7.79459 0
M  V30 4324 N 409.434 1.37368 -0.772513 0
M  V30 4325 C 410.397 2.28601 -0.165541 0
M  V30 4326 C 411.397 1.48062 0.627238 0
M  V30 4327 O 412.587 1.68268 0.450715 0
M  V30 4328 C 409.719 3.32023 0.772897 0
M  V30 4329 H 410.912 2.83787 -0.969787 0
M  V30 4330 H 408.465 1.46647 -0.540775 0
M  V30 4331 H 409.2 2.81962 1.60212 0
M  V30 4332 H 408.985 3.91555 0.206585 0
M  V30 4333 H 410.475 4.00197 1.19298 0
M  V30 4334 N 410.912 0.523116 1.48665 0
M  V30 4335 C 411.86 -0.256859 2.31177 0
M  V30 4336 C 412.854 -0.94199 1.40794 0
M  V30 4337 O 414.06 -0.867157 1.57735 0
M  V30 4338 H 410.435 -0.1017 0.745091 0
M  V30 4339 H 412.406 0.458739 2.94853 0
M  V30 4340 C 411.155 -1.29503 3.22683 0
M  V30 4341 H 410.478 -0.777248 3.92172 0
M  V30 4342 H 411.918 -1.81233 3.83315 0
M  V30 4343 C 410.377 -2.32501 2.43813 0
M  V30 4344 O 410.907 -3.3881 2.15803 0
M  V30 4345 N 409.113 -2.05538 2.05432 0
M  V30 4346 H 408.66 -1.19104 2.28412 0
M  V30 4347 H 408.618 -2.74676 1.52973 0
M  V30 4348 N 412.39 -1.55475 0.257931 0
M  V30 4349 C 413.337 -2.21837 -0.636939 0
M  V30 4350 C 414.307 -1.18596 -1.16294 0
M  V30 4351 O 415.492 -1.47081 -1.21539 0
M  V30 4352 C 412.632 -2.9301 -1.82317 0
M  V30 4353 C 411.745 -4.10931 -1.33265 0
M  V30 4354 C 410.88 -4.69791 -2.47931 0
M  V30 4355 C 409.919 -5.7994 -1.95796 0
M  V30 4356 N 409.056 -6.32935 -3.0387 0
M  V30 4357 H 413.896 -2.9793 -0.0643591 0
M  V30 4358 H 411.433 -1.47086 -0.0200031 0
M  V30 4359 H 413.391 -3.3248 -2.52018 0
M  V30 4360 H 412.021 -2.1937 -2.36805 0
M  V30 4361 H 411.073 -3.76699 -0.52931 0
M  V30 4362 H 412.385 -4.90417 -0.910654 0
M  V30 4363 H 411.539 -5.11892 -3.25656 0
M  V30 4364 H 410.278 -3.89545 -2.93438 0
M  V30 4365 H 409.283 -5.37305 -1.16546 0
M  V30 4366 H 410.508 -6.62043 -1.51246 0
M  V30 4367 H 408.454 -5.55591 -3.48791 0
M  V30 4368 H 408.371 -7.07645 -2.66035 0
M  V30 4369 H 409.639 -6.79695 -3.81621 0
M  V30 4370 N 413.868 0.0150385 -1.57593 0
M  V30 4371 C 415.114 0.69849 -1.91031 0
M  V30 4372 C 415.469 1.72208 -0.85804 0
M  V30 4373 O 414.762 1.91147 0.131614 0
M  V30 4374 C 414.956 1.39686 -3.28972 0
M  V30 4375 C 414.785 0.442428 -4.47518 0
M  V30 4376 C 413.555 0.0583223 -5.05266 0
M  V30 4377 C 415.753 -0.285072 -5.13509 0
M  V30 4378 N 413.735 -0.895893 -6.07328 0
M  V30 4379 C 415.106 -1.09447 -6.10263 0
M  V30 4380 C 417.161 -0.350518 -4.96665 0
M  V30 4381 C 415.864 -1.96333 -6.91987 0
M  V30 4382 C 417.89 -1.20655 -5.78962 0
M  V30 4383 C 417.252 -2.00383 -6.75297 0
M  V30 4384 H 413.351 0.22926 -0.747639 0
M  V30 4385 H 415.935 -0.0417748 -1.94655 0
M  V30 4386 H 414.106 2.1075 -3.2625 0
M  V30 4387 H 415.838 2.03381 -3.49883 0
M  V30 4388 H 412.593 0.423506 -4.71703 0
M  V30 4389 H 413.017 -1.36792 -6.63036 0
M  V30 4390 H 417.659 0.251596 -4.22051 0
M  V30 4391 H 415.377 -2.57618 -7.65936 0
M  V30 4392 H 418.963 -1.2609 -5.67972 0
M  V30 4393 H 417.843 -2.65552 -7.3787 0
M  V30 4394 N 415.346 1.54954 0.287554 0
M  V30 4395 C 416.571 1.79209 1.04397 0
M  V30 4396 C 416.996 0.556431 1.79682 0
M  V30 4397 O 416.354 -0.493518 1.74454 0
M  V30 4398 C 416.402 3.00739 1.98969 0
M  V30 4399 O 415.506 2.74805 3.075 0
M  V30 4400 H 414.847 0.592755 0.299227 0
M  V30 4401 H 417.377 2.02068 0.320886 0
M  V30 4402 H 417.387 3.29077 2.4119 0
M  V30 4403 H 416.062 3.90329 1.43582 0
M  V30 4404 H 414.639 2.57523 2.69697 0
M  V30 4405 N 416.824 -0.551391 1.4764 0
M  V30 4406 C 418.052 -1.33357 1.58189 0
M  V30 4407 C 418.467 -1.87342 0.234199 0
M  V30 4408 O 417.824 -1.65301 -0.77343 0
M  V30 4409 C 417.875 -2.49942 2.61173 0
M  V30 4410 O 417.596 -1.98187 3.90709 0
M  V30 4411 C 419.097 -3.42072 2.8196 0
M  V30 4412 H 416.317 -0.40631 0.533998 0
M  V30 4413 H 418.861 -0.667367 1.93304 0
M  V30 4414 H 417.016 -3.12489 2.28975 0
M  V30 4415 H 417.43 -2.74342 4.47031 0
M  V30 4416 H 418.904 -4.20278 3.57869 0
M  V30 4417 H 419.381 -3.95978 1.89995 0
M  V30 4418 H 419.987 -2.85336 3.15378 0
M  V30 4419 N 418.302 -1.35869 -0.798587 0
M  V30 4420 C 419.713 -1.26498 -1.37314 0
M  V30 4421 C 420.064 0.0991899 -1.95949 0
M  V30 4422 O 419.189 1.0004 -1.91888 0
M  V30 4423 C 419.784 -2.29054 -2.49639 0
M  V30 4424 C 418.343 -2.234 -3.02935 0
M  V30 4425 C 417.49 -2.14329 -1.75949 0
M  V30 4426 H 420.441 -1.46881 -0.600971 0
M  V30 4427 H 420.462 -1.92166 -3.28409 0
M  V30 4428 H 419.974 -3.2833 -2.06933 0
M  V30 4429 H 418.075 -1.27562 -3.50084 0
M  V30 4430 H 418.188 -3.15703 -3.60372 0
M  V30 4431 H 416.552 -1.60435 -1.9782 0
M  V30 4432 H 417.335 -3.15477 -1.35384 0
M  V30 4433 N 419.78 1.02168 -1.19998 0
M  V30 4434 C 421.005 1.79833 -1.03319 0
M  V30 4435 C 421.43 1.83504 0.413281 0
M  V30 4436 O 420.788 1.26635 1.29743 0
M  V30 4437 C 420.836 3.22396 -1.61533 0
M  V30 4438 O 419.94 4.03555 -0.849519 0
M  V30 4439 H 419.281 0.554872 -0.364709 0
M  V30 4440 H 421.811 1.28542 -1.59179 0
M  V30 4441 H 421.821 3.73124 -1.65054 0
M  V30 4442 H 420.496 3.19039 -2.66809 0
M  V30 4443 H 419.073 3.62169 -0.888129 0
M  V30 4444 N 421.258 1.00505 1.21394 0
M  V30 4445 C 422.506 0.686415 1.90086 0
M  V30 4446 C 422.827 -0.785264 1.7849 0
M  V30 4447 O 422.097 -1.56387 1.17983 0
M  V30 4448 H 420.677 0.2509 0.703604 0
M  V30 4449 H 423.339 1.27417 1.47482 0
M  V30 4450 H 422.435 0.959621 2.96981 0
M  V30 4451 N 422.737 -1.36956 0.779787 0
M  V30 4452 C 423.7 -2.2851 0.177662 0
M  V30 4453 C 424.7 -1.48393 -0.619377 0
M  V30 4454 O 425.89 -1.68505 -0.441785 0
M  V30 4455 C 423.022 -3.32428 -0.755279 0
M  V30 4456 H 424.215 -2.83269 0.984823 0
M  V30 4457 H 421.768 -1.46358 0.548544 0
M  V30 4458 H 422.503 -2.82808 -1.58714 0
M  V30 4459 H 422.288 -3.91659 -0.185817 0
M  V30 4460 H 423.778 -4.00824 -1.17174 0
M  V30 4461 N 424.215 -0.530993 -1.48385 0
M  V30 4462 C 425.44 0.000729535 -2.074 0
M  V30 4463 C 425.865 1.27298 -1.3848 0
M  V30 4464 O 425.223 1.75599 -0.451081 0
M  V30 4465 C 425.271 0.206697 -3.60007 0
M  V30 4466 O 424.375 1.27514 -3.92191 0
M  V30 4467 H 423.716 -0.039583 -0.662819 0
M  V30 4468 H 426.246 -0.739194 -1.9078 0
M  V30 4469 H 426.256 0.42904 -4.05738 0
M  V30 4470 H 424.931 -0.722675 -4.09573 0
M  V30 4471 H 423.508 1.03537 -3.58238 0
M  V30 4472 N 425.693 1.55336 -0.266172 0
M  V30 4473 C 426.939 2.00423 0.346714 0
M  V30 4474 C 427.294 1.15132 1.54151 0
M  V30 4475 O 426.587 0.211289 1.90431 0
M  V30 4476 C 426.781 3.48606 0.787957 0
M  V30 4477 C 426.61 4.48236 -0.362535 0
M  V30 4478 C 425.38 4.98211 -0.843445 0
M  V30 4479 C 427.578 5.00199 -1.19603 0
M  V30 4480 N 425.56 5.81625 -1.96434 0
M  V30 4481 C 426.931 5.80973 -2.16497 0
M  V30 4482 C 428.986 4.82458 -1.2304 0
M  V30 4483 C 427.689 6.45896 -3.1656 0
M  V30 4484 C 429.715 5.48174 -2.21944 0
M  V30 4485 C 429.077 6.28751 -3.17571 0
M  V30 4486 H 425.176 0.776535 0.0922914 0
M  V30 4487 H 427.76 1.90792 -0.388154 0
M  V30 4488 H 425.931 3.58597 1.49207 0
M  V30 4489 H 427.663 3.80538 1.37742 0
M  V30 4490 H 424.418 4.71696 -0.424271 0
M  V30 4491 H 424.842 6.28025 -2.52813 0
M  V30 4492 H 429.484 4.19774 -0.504903 0
M  V30 4493 H 427.202 7.07734 -3.90048 0
M  V30 4494 H 430.788 5.36392 -2.25333 0
M  V30 4495 H 429.668 6.78703 -3.92851 0
M  V30 4496 N 427.171 -0.0066808 1.57599 0
M  V30 4497 C 428.118 -1.00024 2.08 0
M  V30 4498 C 429.088 -1.34549 0.973943 0
M  V30 4499 O 430.273 -1.44502 1.24595 0
M  V30 4500 C 427.413 -2.2891 2.58252 0
M  V30 4501 C 426.526 -2.00346 3.82734 0
M  V30 4502 C 425.661 -3.23265 4.21513 0
M  V30 4503 C 424.7 -2.90357 5.3885 0
M  V30 4504 N 423.837 -4.05793 5.72954 0
M  V30 4505 H 428.677 -0.563499 2.92624 0
M  V30 4506 H 426.214 -0.266592 1.44664 0
M  V30 4507 H 428.172 -3.04247 2.85464 0
M  V30 4508 H 426.802 -2.70265 1.76512 0
M  V30 4509 H 425.854 -1.15406 3.62471 0
M  V30 4510 H 427.166 -1.72086 4.68175 0
M  V30 4511 H 426.32 -4.06953 4.49971 0
M  V30 4512 H 425.059 -3.54657 3.34768 0
M  V30 4513 H 424.064 -2.05075 5.10122 0
M  V30 4514 H 425.289 -2.60219 6.27266 0
M  V30 4515 H 423.235 -4.37094 4.89167 0
M  V30 4516 H 423.152 -3.81034 6.52954 0
M  V30 4517 H 424.42 -4.90289 6.06001 0
M  V30 4518 N 428.649 -1.55105 -0.279332 0
M  V30 4519 C 429.877 -1.7943 -1.03017 0
M  V30 4520 C 430.292 -0.564456 -1.80165 0
M  V30 4521 O 429.649 0.466326 -1.76442 0
M  V30 4522 C 429.7 -3.0155 -1.99374 0
M  V30 4523 O 429.421 -4.19784 -1.25352 0
M  V30 4524 C 430.922 -3.3843 -2.86321 0
M  V30 4525 H 428.142 -0.597882 -0.304594 0
M  V30 4526 H 430.686 -2.02105 -0.312035 0
M  V30 4527 H 428.841 -2.81019 -2.66659 0
M  V30 4528 H 429.255 -4.88781 -1.90246 0
M  V30 4529 H 430.729 -4.27066 -3.49741 0
M  V30 4530 H 431.206 -2.57549 -3.5576 0
M  V30 4531 H 431.812 -3.61197 -2.24536 0
M  V30 4532 N 430.127 0.543554 -1.4793 0
M  V30 4533 C 431.09 1.63156 -1.60975 0
M  V30 4534 C 432.09 1.53346 -0.483899 0
M  V30 4535 O 433.28 1.5726 -0.749339 0
M  V30 4536 C 430.412 3.02743 -1.56716 0
M  V30 4537 H 431.605 1.52934 -2.57975 0
M  V30 4538 H 429.158 0.764557 -1.36324 0
M  V30 4539 H 429.893 3.18484 -0.611418 0
M  V30 4540 H 429.678 3.11272 -2.38438 0
M  V30 4541 H 431.168 3.81871 -1.6901 0
M  V30 4542 N 431.605 1.3629 0.791371 0
M  V30 4543 C 432.83 1.33726 1.58531 0
M  V30 4544 C 433.255 -0.0794933 1.87932 0
M  V30 4545 O 432.613 -1.05087 1.47738 0
M  V30 4546 C 432.661 2.16425 2.88431 0
M  V30 4547 O 431.765 1.5554 3.81944 0
M  V30 4548 H 431.106 0.457793 0.480959 0
M  V30 4549 H 433.636 1.79547 0.981031 0
M  V30 4550 H 433.646 2.28933 3.37718 0
M  V30 4551 H 432.321 3.19415 2.66359 0
M  V30 4552 H 430.898 1.51961 3.40532 0
M  V30 4553 N 433.083 -1.0153 1.20538 0
M  V30 4554 C 434.046 -2.0826 0.957098 0
M  V30 4555 C 435.046 -1.60657 -0.0678655 0
M  V30 4556 O 436.236 -1.73385 0.168332 0
M  V30 4557 C 433.368 -3.38033 0.441188 0
M  V30 4558 H 434.561 -2.31719 1.90384 0
M  V30 4559 H 432.114 -1.1835 1.02093 0
M  V30 4560 H 432.849 -3.20249 -0.510961 0
M  V30 4561 H 432.634 -3.73911 1.18038 0
M  V30 4562 H 434.124 -4.16613 0.287009 0
M  V30 4563 N 434.561 -1.01147 -1.20859 0
M  V30 4564 C 435.977 -0.725422 -1.42161 0
M  V30 4565 C 436.177 0.696919 -1.89064 0
M  V30 4566 O 435.233 1.46539 -2.05627 0
M  V30 4567 C 436.546 -1.74678 -2.44761 0
M  V30 4568 C 438.094 -1.76433 -2.58535 0
M  V30 4569 C 438.569 -2.77481 -3.64374 0
M  V30 4570 N 440.06 -2.76189 -3.71852 0
M  V30 4571 C 440.795 -3.51035 -4.53389 0
M  V30 4572 N 440.291 -4.35541 -5.38773 0
M  V30 4573 N 442.084 -3.39655 -4.47873 0
M  V30 4574 H 434.235 -1.92979 -0.887282 0
M  V30 4575 H 436.498 -0.833327 -0.451962 0
M  V30 4576 H 436.204 -2.76551 -2.17285 0
M  V30 4577 H 436.078 -1.55472 -3.43669 0
M  V30 4578 H 438.465 -0.75248 -2.85345 0
M  V30 4579 H 438.546 -1.99712 -1.5984 0
M  V30 4580 H 438.19 -3.78827 -3.38308 0
M  V30 4581 H 438.12 -2.51466 -4.6268 0
M  V30 4582 H 440.611 -2.14885 -3.10858 0
M  V30 4583 H 440.924 -4.89432 -5.98061 0
M  V30 4584 H 439.269 -4.39621 -5.38292 0
M  V30 4585 H 442.46 -2.73063 -3.80203 0
M  V30 4586 H 442.633 -3.9824 -5.11184 0
M  V30 4587 N 436.039 1.36541 -0.78704 0
M  V30 4588 C 437.45 1.81873 -0.421807 0
M  V30 4589 C 437.801 1.65487 1.05397 0
M  V30 4590 O 436.926 1.17448 1.81755 0
M  V30 4591 C 437.521 3.30192 -0.758841 0
M  V30 4592 C 436.08 3.73743 -0.446468 0
M  V30 4593 C 435.227 2.58844 -0.994728 0
M  V30 4594 H 438.178 1.24796 -0.98039 0
M  V30 4595 H 438.199 3.80468 -0.0490648 0
M  V30 4596 H 437.711 3.42087 -1.83299 0
M  V30 4597 H 435.812 3.6741 0.619739 0
M  V30 4598 H 435.925 4.69272 -0.965415 0
M  V30 4599 H 434.289 2.51245 -0.418087 0
M  V30 4600 H 435.072 2.73525 -2.07458 0
M  V30 4601 N 437.518 0.538854 1.48102 0
M  V30 4602 C 438.764 0.00801365 2.02798 0
M  V30 4603 C 439.097 -1.3309 1.41424 0
M  V30 4604 O 438.372 -1.86169 0.563158 0
M  V30 4605 C 438.655 -0.104589 3.59948 0
M  V30 4606 C 438.508 1.26012 4.31788 0
M  V30 4607 C 439.827 -0.827055 4.32259 0
M  V30 4608 H 436.946 0.00438624 0.736987 0
M  V30 4609 H 439.588 0.6976 1.7673 0
M  V30 4610 H 437.738 -0.691893 3.82289 0
M  V30 4611 H 439.41 1.88922 4.2084 0
M  V30 4612 H 437.653 1.83968 3.92859 0
M  V30 4613 H 438.324 1.13424 5.40221 0
M  V30 4614 H 440.8 -0.328578 4.14801 0
M  V30 4615 H 439.676 -0.87476 5.41885 0
M  V30 4616 H 439.937 -1.87927 4.0017 0
M  V30 4617 N 438.996 -1.55193 0.274407 0
M  V30 4618 C 440.221 -2.04446 -0.348824 0
M  V30 4619 C 440.646 -1.15149 -1.48735 0
M  V30 4620 O 440.004 -0.149952 -1.80679 0
M  V30 4621 C 440.052 -3.51431 -0.808009 0
M  V30 4622 O 439.156 -3.65225 -1.91531 0
M  V30 4623 H 438.497 -0.66006 -0.0722276 0
M  V30 4624 H 441.027 -2.00481 0.408498 0
M  V30 4625 H 441.037 -3.92781 -1.10395 0
M  V30 4626 H 439.712 -4.15892 0.0249865 0
M  V30 4627 H 438.289 -3.35778 -1.62196 0
M  V30 4628 N 440.474 -0.00167713 -1.576 0
M  V30 4629 C 441.699 0.69739 -1.95323 0
M  V30 4630 C 442.124 1.6642 -0.876706 0
M  V30 4631 O 441.482 1.80548 0.165007 0
M  V30 4632 C 441.53 1.40403 -3.32144 0
M  V30 4633 O 440.634 2.5185 -3.26566 0
M  V30 4634 H 439.975 0.185373 -0.637599 0
M  V30 4635 H 442.505 -0.0553665 -2.04525 0
M  V30 4636 H 442.515 1.76707 -3.67748 0
M  V30 4637 H 441.19 0.695167 -4.10049 0
M  V30 4638 H 439.767 2.17861 -3.0264 0
M  V30 4639 N 441.952 1.55251 0.271103 0
M  V30 4640 C 443.198 1.76207 1.00394 0
M  V30 4641 C 443.531 0.562604 1.85872 0
M  V30 4642 O 442.806 -0.439785 1.89463 0
M  V30 4643 C 443.089 3.06828 1.8849 0
M  V30 4644 C 442.942 4.37134 1.05992 0
M  V30 4645 C 444.261 3.33503 2.87165 0
M  V30 4646 H 441.38 0.641086 0.363562 0
M  V30 4647 H 444.022 1.87982 0.276189 0
M  V30 4648 H 442.172 2.96921 2.5054 0
M  V30 4649 H 443.844 4.59001 0.459978 0
M  V30 4650 H 442.087 4.32275 0.363443 0
M  V30 4651 H 442.758 5.2486 1.70955 0
M  V30 4652 H 445.234 3.43215 2.3525 0
M  V30 4653 H 444.11 4.2616 3.45946 0
M  V30 4654 H 444.371 2.53235 3.62387 0
M  V30 4655 N 443.43 -0.535701 1.48216 0
M  V30 4656 C 444.678 -1.28928 1.55634 0
M  V30 4657 C 444.999 -1.93645 0.229514 0
M  V30 4658 O 444.269 -1.81038 -0.74846 0
M  V30 4659 H 442.849 -0.47884 0.573342 0
M  V30 4660 H 445.511 -0.623853 1.84646 0
M  V30 4661 H 444.607 -2.07157 2.33436 0
M  V30 4662 N 444.908 -1.36708 -0.784132 0
M  V30 4663 C 446.154 -1.31426 -1.54451 0
M  V30 4664 C 446.487 0.10476 -1.93917 0
M  V30 4665 O 445.762 1.05934 -1.6312 0
M  V30 4666 C 446.045 -2.24189 -2.818 0
M  V30 4667 C 445.898 -3.74813 -2.48667 0
M  V30 4668 C 447.217 -2.15626 -3.83658 0
M  V30 4669 H 444.336 -0.478739 -0.560337 0
M  V30 4670 H 446.978 -1.67305 -0.900498 0
M  V30 4671 H 445.128 -1.93722 -3.36755 0
M  V30 4672 H 446.8 -4.15823 -1.99722 0
M  V30 4673 H 445.043 -3.93989 -1.81535 0
M  V30 4674 H 445.714 -4.35138 -3.39646 0
M  V30 4675 H 448.19 -2.42456 -3.38163 0
M  V30 4676 H 447.066 -2.82694 -4.70506 0
M  V30 4677 H 447.327 -1.14522 -4.27009 0
M  V30 4678 N 446.386 1.0089 -1.21074 0
M  V30 4679 C 447.632 1.74866 -1.02712 0
M  V30 4680 C 447.965 1.89178 0.438787 0
M  V30 4681 O 447.24 1.42325 1.32567 0
M  V30 4682 C 447.523 3.16347 -1.72036 0
M  V30 4683 C 447.376 3.09782 -3.26121 0
M  V30 4684 C 448.695 4.15187 -1.45973 0
M  V30 4685 H 445.814 0.634736 -0.374539 0
M  V30 4686 H 448.456 1.17646 -1.49196 0
M  V30 4687 H 446.606 3.65201 -1.32517 0
M  V30 4688 H 448.278 2.68673 -3.74983 0
M  V30 4689 H 446.521 2.46982 -3.56626 0
M  V30 4690 H 447.192 4.09829 -3.6979 0
M  V30 4691 H 449.668 3.75022 -1.80272 0
M  V30 4692 H 448.544 5.12331 -1.96999 0
M  V30 4693 H 448.805 4.40386 -0.388924 0
M  V30 4694 N 447.864 1.01787 1.20321 0
M  V30 4695 C 449.112 0.706538 1.89347 0
M  V30 4696 C 449.433 -0.766289 1.79313 0
M  V30 4697 O 448.703 -1.55126 1.19635 0
M  V30 4698 H 447.283 0.258348 0.700903 0
M  V30 4699 H 449.945 1.28974 1.46122 0
M  V30 4700 H 449.041 0.991066 2.95946 0
M  V30 4701 N 449.342 -1.36122 0.79427 0
M  V30 4702 C 450.272 -2.32551 0.210328 0
M  V30 4703 C 451.253 -1.56884 -0.657386 0
M  V30 4704 O 452.438 -1.85014 -0.590207 0
M  V30 4705 C 449.568 -3.41128 -0.651819 0
M  V30 4706 C 448.522 -4.27842 0.116395 0
M  V30 4707 C 447.848 -5.2763 -0.86666 0
M  V30 4708 C 449.148 -5.05647 1.30837 0
M  V30 4709 H 450.842 -2.81636 1.01594 0
M  V30 4710 H 448.388 -1.35407 0.489981 0
M  V30 4711 H 450.341 -4.07581 -1.07031 0
M  V30 4712 H 449.065 -2.90622 -1.49019 0
M  V30 4713 H 447.724 -3.62952 0.515915 0
M  V30 4714 H 447.372 -4.73395 -1.70019 0
M  V30 4715 H 447.072 -5.86514 -0.35705 0
M  V30 4716 H 448.596 -5.96955 -1.28361 0
M  V30 4717 H 450.01 -5.65113 0.965393 0
M  V30 4718 H 448.407 -5.73967 1.75161 0
M  V30 4719 H 449.477 -4.37006 2.10128 0
M  V30 4720 N 450.82 -0.546701 -1.47814 0
M  V30 4721 C 452.068 -0.0187037 -2.02091 0
M  V30 4722 C 452.389 1.33168 -1.42447 0
M  V30 4723 O 451.659 1.86619 -0.595839 0
M  V30 4724 H 450.239 -0.00392531 -0.74699 0
M  V30 4725 H 452.901 -0.714327 -1.81338 0
M  V30 4726 H 451.997 0.0772219 -3.12004 0
M  V30 4727 N 452.299 1.55045 -0.282633 0
M  V30 4728 C 453.527 2.04168 0.33512 0
M  V30 4729 C 453.942 1.16071 1.48906 0
M  V30 4730 O 453.299 0.182391 1.81586 0
M  V30 4731 C 453.35 3.52332 0.808957 0
M  V30 4732 O 453.071 4.37078 -0.299038 0
M  V30 4733 C 454.572 4.17375 1.49375 0
M  V30 4734 H 451.792 0.666744 0.0754543 0
M  V30 4735 H 454.336 2.00205 -0.416918 0
M  V30 4736 H 452.491 3.56715 1.51106 0
M  V30 4737 H 452.905 5.24458 0.0665514 0
M  V30 4738 H 454.379 5.22627 1.77664 0
M  V30 4739 H 454.856 3.65999 2.42778 0
M  V30 4740 H 455.462 4.17016 0.835305 0
M  V30 4741 N 453.777 0.010035 1.57597 0
M  V30 4742 C 454.71 -1.01234 2.04516 0
M  V30 4743 C 455.688 -1.32886 0.937024 0
M  V30 4744 O 456.872 -1.44879 1.20592 0
M  V30 4745 C 453.999 -2.33738 2.45121 0
M  V30 4746 C 453.045 -2.17679 3.66767 0
M  V30 4747 S 453.878 -1.49343 5.14254 0
M  V30 4748 C 455.034 -2.83256 5.58137 0
M  V30 4749 H 455.267 -0.612866 2.90914 0
M  V30 4750 H 452.8 -0.201124 1.53084 0
M  V30 4751 H 454.758 -3.09922 2.69182 0
M  V30 4752 H 453.419 -2.70823 1.59103 0
M  V30 4753 H 452.612 -3.1559 3.92962 0
M  V30 4754 H 452.214 -1.4964 3.42759 0
M  V30 4755 H 454.506 -3.79538 5.6121 0
M  V30 4756 H 455.449 -2.61749 6.57946 0
M  V30 4757 H 455.857 -2.87627 4.85727 0
M  V30 4758 N 455.255 -1.55392 -0.262866 0
M  V30 4759 C 456.503 -1.76127 -0.991147 0
M  V30 4760 C 456.824 -0.571083 -1.8645 0
M  V30 4761 O 456.094 0.413698 -1.91482 0
M  V30 4762 H 454.674 -0.649528 -0.368948 0
M  V30 4763 H 457.336 -1.9281 -0.284655 0
M  V30 4764 H 456.432 -2.6663 -1.62219 0
M  V30 4765 N 456.733 0.527833 -1.48498 0
M  V30 4766 C 458.149 0.856571 -1.34666 0
M  V30 4767 C 458.349 1.98271 -0.35931 0
M  V30 4768 O 457.405 2.51551 0.218703 0
M  V30 4769 C 458.718 1.22207 -2.74747 0
M  V30 4770 C 460.266 1.33183 -2.83251 0
M  V30 4771 C 460.741 1.73075 -4.24039 0
M  V30 4772 N 462.232 1.80174 -4.26722 0
M  V30 4773 C 462.967 2.1243 -5.32598 0
M  V30 4774 N 462.463 2.43096 -6.4875 0
M  V30 4775 N 464.256 2.13454 -5.19994 0
M  V30 4776 H 456.407 -0.215174 -2.11307 0
M  V30 4777 H 458.67 -0.0336281 -0.947403 0
M  V30 4778 H 458.376 0.468195 -3.4857 0
M  V30 4779 H 458.25 2.17173 -3.08409 0
M  V30 4780 H 460.637 2.07647 -2.09683 0
M  V30 4781 H 460.718 0.363333 -2.53206 0
M  V30 4782 H 460.362 0.991712 -4.98124 0
M  V30 4783 H 460.292 2.70979 -4.51529 0
M  V30 4784 H 462.783 1.58744 -3.42942 0
M  V30 4785 H 463.096 2.6682 -7.25277 0
M  V30 4786 H 461.441 2.40611 -6.52021 0
M  V30 4787 H 464.632 1.88956 -4.28268 0
M  V30 4788 H 464.805 2.38261 -6.02608 0
M  V30 4789 N 458.211 1.37122 0.776871 0
M  V30 4790 C 459.459 1.31787 1.53221 0
M  V30 4791 C 459.78 -0.0987589 1.9475 0
M  V30 4792 O 459.05 -1.0417 1.65908 0
M  V30 4793 H 457.63 0.484839 0.568278 0
M  V30 4794 H 460.292 1.71556 0.924917 0
M  V30 4795 H 459.388 1.95355 2.43398 0
M  V30 4796 N 459.689 -1.00246 1.21608 0
M  V30 4797 C 460.938 -1.73476 1.02902 0
M  V30 4798 C 461.251 -1.90643 -0.437561 0
M  V30 4799 O 462.457 -2.61105 -0.74407 0
M  V30 4800 C 460.913 -3.12079 1.79261 0
M  V30 4801 C 460.521 -3.02877 3.30106 0
M  V30 4802 C 462.265 -3.89421 1.68972 0
M  V30 4803 C 460.172 -4.36575 3.98944 0
M  V30 4804 H 459.102 -0.650408 0.381425 0
M  V30 4805 H 461.753 -1.11985 1.45367 0
M  V30 4806 H 460.135 -3.74196 1.2959 0
M  V30 4807 H 461.309 -2.49983 3.87098 0
M  V30 4808 H 459.624 -2.39022 3.40965 0
M  V30 4809 H 462.221 -4.88362 2.17731 0
M  V30 4810 H 462.564 -4.1122 0.648397 0
M  V30 4811 H 463.097 -3.33963 2.16133 0
M  V30 4812 H 459.836 -4.19978 5.03288 0
M  V30 4813 H 459.356 -4.8942 3.4674 0
M  V30 4814 H 461.035 -5.05364 4.04 0
M  V30 4815 N 461.167 -1.02423 -1.1978 0
M  V30 4816 C 462.413 -0.719051 -1.89625 0
M  V30 4817 C 462.746 0.750083 -1.7913 0
M  V30 4818 O 462.021 1.54574 -1.18056 0
M  V30 4819 C 462.304 -1.16499 -3.40735 0
M  V30 4820 C 462.157 -2.695 -3.60125 0
M  V30 4821 C 463.476 -0.742166 -4.33797 0
M  V30 4822 H 460.595 -0.26269 -0.688595 0
M  V30 4823 H 463.237 -1.27333 -1.41018 0
M  V30 4824 H 461.387 -0.69341 -3.82262 0
M  V30 4825 H 463.059 -3.24569 -3.278 0
M  V30 4826 H 461.302 -3.10113 -3.03336 0
M  V30 4827 H 461.973 -2.95757 -4.66081 0
M  V30 4828 H 464.449 -1.1477 -3.99959 0
M  V30 4829 H 463.325 -1.08213 -5.38127 0
M  V30 4830 H 463.586 0.355747 -4.40666 0
M  V30 4831 N 462.645 1.35699 -0.801477 0
M  V30 4832 C 463.894 1.98165 -0.375979 0
M  V30 4833 C 464.207 1.64306 1.06127 0
M  V30 4834 O 465.413 2.20097 1.58964 0
M  V30 4835 C 463.869 3.54497 -0.621305 0
M  V30 4836 C 463.477 3.9727 -2.07076 0
M  V30 4837 C 465.221 4.23697 -0.26091 0
M  V30 4838 C 463.128 5.46427 -2.26211 0
M  V30 4839 H 462.058 0.741478 -0.136844 0
M  V30 4840 H 464.709 1.54834 -0.984814 0
M  V30 4841 H 463.091 3.95958 0.0574112 0
M  V30 4842 H 464.265 3.66974 -2.78687 0
M  V30 4843 H 462.58 3.40943 -2.39054 0
M  V30 4844 H 465.177 5.33334 -0.381994 0
M  V30 4845 H 465.52 4.0869 0.792344 0
M  V30 4846 H 466.053 3.87639 -0.893339 0
M  V30 4847 H 462.792 5.66396 -3.29963 0
M  V30 4848 H 462.312 5.78309 -1.59119 0
M  V30 4849 H 463.991 6.12819 -2.07513 0
M  V30 4850 N 464.123 0.554532 1.47522 0
M  V30 4851 C 465.348 0.0322661 2.07375 0
M  V30 4852 C 465.773 -1.25079 1.40488 0
M  V30 4853 O 465.131 -1.74859 0.47896 0
M  V30 4854 C 465.179 -0.149397 3.6029 0
M  V30 4855 O 464.283 -1.21259 3.9417 0
M  V30 4856 H 463.624 0.0501228 0.662106 0
M  V30 4857 H 466.154 0.769452 1.8958 0
M  V30 4858 H 466.164 -0.364437 4.06369 0
M  V30 4859 H 464.839 0.787743 4.08372 0
M  V30 4860 H 463.416 -0.97825 3.5984 0
M  V30 4861 N 465.601 -1.54893 0.290851 0
M  V30 4862 C 466.848 -1.99933 -0.321391 0
M  V30 4863 C 467.176 -1.17927 -1.54672 0
M  V30 4864 O 466.431 -0.240902 -1.94212 0
M  V30 4865 C 466.73 -3.49815 -0.732397 0
M  V30 4866 C 466.396 -4.4921 0.390056 0
M  V30 4867 C 465.058 -4.76107 0.698223 0
M  V30 4868 C 467.41 -5.08453 1.14562 0
M  V30 4869 C 464.738 -5.59514 1.76526 0
M  V30 4870 C 467.09 -5.9302 2.2025 0
M  V30 4871 C 465.754 -6.18232 2.51684 0
M  V30 4872 H 465.024 -0.731608 -0.117605 0
M  V30 4873 H 467.671 -1.87107 0.407839 0
M  V30 4874 H 465.976 -3.60199 -1.54155 0
M  V30 4875 H 467.673 -3.82083 -1.21712 0
M  V30 4876 H 464.263 -4.28372 0.13976 0
M  V30 4877 H 468.447 -4.87683 0.920801 0
M  V30 4878 H 463.703 -5.77289 2.01364 0
M  V30 4879 H 467.877 -6.37955 2.7926 0
M  V30 4880 H 465.504 -6.82653 3.34499 0
M  V30 4881 N 467.08 -0.0183926 -1.57589 0
M  V30 4882 C 468.043 0.951986 -2.08494 0
M  V30 4883 C 469.043 1.26092 -0.997874 0
M  V30 4884 O 470.233 1.20304 -1.25987 0
M  V30 4885 C 467.365 2.27165 -2.54182 0
M  V30 4886 H 468.558 0.511307 -2.95509 0
M  V30 4887 H 466.111 0.229444 -1.54607 0
M  V30 4888 H 466.846 2.75884 -1.70465 0
M  V30 4889 H 466.631 2.06057 -3.33591 0
M  V30 4890 H 468.121 2.9674 -2.93828 0
M  V30 4891 N 468.558 1.5553 0.254621 0
M  V30 4892 C 469.974 1.4778 0.602753 0
M  V30 4893 C 470.174 0.707047 1.88688 0
M  V30 4894 O 469.23 0.233288 2.5142 0
M  V30 4895 C 470.543 2.92133 0.712648 0
M  V30 4896 C 472.091 3.02458 0.805488 0
M  V30 4897 C 472.566 4.48102 0.947009 0
M  V30 4898 N 474.057 4.52008 1.01207 0
M  V30 4899 C 474.792 5.61939 1.1407 0
M  V30 4900 N 474.288 6.81697 1.23536 0
M  V30 4901 N 476.081 5.49719 1.17325 0
M  V30 4902 H 468.232 2.04085 -0.588463 0
M  V30 4903 H 470.495 0.926229 -0.202001 0
M  V30 4904 H 470.201 3.51332 -0.160766 0
M  V30 4905 H 470.075 3.42187 1.58707 0
M  V30 4906 H 472.462 2.43344 1.66936 0
M  V30 4907 H 472.543 2.55627 -0.0939266 0
M  V30 4908 H 472.187 5.07824 0.087725 0
M  V30 4909 H 472.117 4.92607 1.86135 0
M  V30 4910 H 474.608 3.65749 0.950577 0
M  V30 4911 H 474.921 7.61228 1.33236 0
M  V30 4912 H 473.266 6.84473 1.20508 0
M  V30 4913 H 476.457 4.55095 1.09573 0
M  V30 4914 H 476.63 6.35432 1.27005 0
M  V30 4915 N 470.036 -0.519951 1.48776 0
M  V30 4916 C 470.999 -1.60574 1.6355 0
M  V30 4917 C 471.999 -1.52557 0.508234 0
M  V30 4918 O 473.189 -1.56047 0.774262 0
M  V30 4919 C 470.321 -3.00211 1.61512 0
M  V30 4920 H 471.514 -1.4881 2.60376 0
M  V30 4921 H 469.067 -0.742772 1.37523 0
M  V30 4922 H 469.802 -3.17471 0.662009 0
M  V30 4923 H 469.587 -3.07439 2.43359 0
M  V30 4924 H 471.077 -3.79134 1.75064 0
M  V30 4925 N 471.514 -1.37532 -0.769588 0
M  V30 4926 C 472.93 -1.18379 -1.07045 0
M  V30 4927 C 473.13 -0.0214312 -2.01489 0
M  V30 4928 O 472.186 0.637809 -2.44312 0
M  V30 4929 C 473.499 -2.50338 -1.66588 0
M  V30 4930 C 475.047 -2.56879 -1.78835 0
M  V30 4931 C 475.522 -3.88974 -2.41792 0
M  V30 4932 N 477.013 -3.90428 -2.4924 0
M  V30 4933 C 477.748 -4.89388 -2.98809 0
M  V30 4934 N 477.244 -5.98745 -3.48535 0
M  V30 4935 N 479.037 -4.76791 -2.97703 0
M  V30 4936 H 471.188 -2.11921 -0.142541 0
M  V30 4937 H 473.451 -0.939608 -0.125863 0
M  V30 4938 H 473.157 -3.35767 -1.0466 0
M  V30 4939 H 473.031 -2.67583 -2.65856 0
M  V30 4940 H 475.418 -1.71856 -2.39895 0
M  V30 4941 H 475.499 -2.43516 -0.783166 0
M  V30 4942 H 475.143 -4.74412 -1.81371 0
M  V30 4943 H 475.073 -3.99641 -3.4292 0
M  V30 4944 H 477.564 -3.11433 -2.14052 0
M  V30 4945 H 477.877 -6.70205 -3.84767 0
M  V30 4946 H 476.222 -6.02387 -3.46634 0
M  V30 4947 H 479.413 -3.90478 -2.58157 0
M  V30 4948 H 479.586 -5.54069 -3.36024 0
M  V30 4949 N 472.992 0.995999 -1.22138 0
M  V30 4950 C 474.241 1.72928 -1.03821 0
M  V30 4951 C 474.554 1.90872 0.427444 0
M  V30 4952 O 475.76 2.61496 0.730212 0
M  V30 4953 C 474.216 3.11124 -1.80913 0
M  V30 4954 C 473.824 3.01122 -3.31707 0
M  V30 4955 C 475.568 3.8852 -1.71035 0
M  V30 4956 C 473.475 4.34453 -4.01253 0
M  V30 4957 H 472.405 0.648376 -0.384869 0
M  V30 4958 H 475.056 1.11213 -1.45959 0
M  V30 4959 H 473.438 3.73503 -1.31573 0
M  V30 4960 H 474.612 2.47926 -3.88419 0
M  V30 4961 H 472.927 2.3721 -3.42228 0
M  V30 4962 H 475.524 4.872 -2.20318 0
M  V30 4963 H 475.867 4.1087 -0.670196 0
M  V30 4964 H 476.4 3.32812 -2.17902 0
M  V30 4965 H 473.139 4.17303 -5.05508 0
M  V30 4966 H 472.659 4.87574 -3.49331 0
M  V30 4967 H 474.338 5.03215 -4.06674 0
M  V30 4968 N 474.47 1.03057 1.19235 0
M  V30 4969 C 475.881 0.757449 1.70645 0
M  V30 4970 C 476.232 -0.722735 1.82403 0
M  V30 4971 O 475.357 -1.56325 1.49638 0
M  V30 4972 C 475.952 1.36833 3.09939 0
M  V30 4973 C 474.511 1.14375 3.58602 0
M  V30 4974 C 473.658 1.46533 2.35422 0
M  V30 4975 H 476.609 1.19828 1.04052 0
M  V30 4976 H 476.63 0.766184 3.72706 0
M  V30 4977 H 476.142 2.44562 3.01349 0
M  V30 4978 H 474.243 0.0847542 3.72504 0
M  V30 4979 H 474.356 1.83366 4.42622 0
M  V30 4980 H 472.72 0.884712 2.38841 0
M  V30 4981 H 473.503 2.55349 2.2946 0
M  V30 4982 N 475.948 -1.35272 0.808662 0
M  V30 4983 C 477.194 -1.99003 0.390581 0
M  V30 4984 C 477.527 -1.63999 -1.0401 0
M  V30 4985 O 476.802 -0.904368 -1.72196 0
M  V30 4986 C 477.085 -3.55454 0.576566 0
M  V30 4987 C 476.938 -4.00249 2.05233 0
M  V30 4988 C 478.257 -4.401 0.00354277 0
M  V30 4989 H 475.376 -0.722917 0.143388 0
M  V30 4990 H 478.018 -1.6039 1.01858 0
M  V30 4991 H 476.168 -3.88477 0.0419766 0
M  V30 4992 H 477.84 -3.77626 2.64946 0
M  V30 4993 H 476.083 -3.51082 2.54801 0
M  V30 4994 H 476.754 -5.0911 2.13333 0
M  V30 4995 H 479.23 -4.13548 0.460117 0
M  V30 4996 H 478.106 -5.48656 0.163575 0
M  V30 4997 H 478.367 -4.28444 -1.09032 0
M  V30 4998 N 477.426 -0.562348 -1.47226 0
M  V30 4999 C 478.675 -0.038041 -2.01664 0
M  V30 5000 C 478.988 1.32199 -1.44162 0
M  V30 5001 O 480.194 1.9365 -1.90294 0
M  V30 5002 C 478.65 -0.0174958 -3.59896 0
M  V30 5003 C 478.258 -1.3746 -4.2639 0
M  V30 5004 C 480.002 0.453934 -4.22066 0
M  V30 5005 C 477.909 -1.31289 -5.76643 0
M  V30 5006 H 476.839 -0.0104511 -0.753928 0
M  V30 5007 H 479.49 -0.710966 -1.69167 0
M  V30 5008 H 477.872 0.721182 -3.89378 0
M  V30 5009 H 479.046 -2.1314 -4.08544 0
M  V30 5010 H 477.361 -1.78438 -3.7623 0
M  V30 5011 H 479.958 0.518584 -5.32179 0
M  V30 5012 H 480.301 1.46706 -3.89594 0
M  V30 5013 H 480.834 -0.230044 -3.97134 0
M  V30 5014 H 477.573 -2.30217 -6.13743 0
M  V30 5015 H 477.093 -0.597973 -5.96812 0
M  V30 5016 H 478.772 -1.01713 -6.38955 0
M  V30 5017 N 478.904 1.54736 -0.299062 0
M  V30 5018 C 479.867 2.22127 0.565012 0
M  V30 5019 C 480.867 1.20669 1.06281 0
M  V30 5020 O 482.057 1.45417 0.959145 0
M  V30 5021 C 479.189 2.90611 1.78208 0
M  V30 5022 H 480.382 2.99891 -0.0237448 0
M  V30 5023 H 477.935 1.5622 -0.0498788 0
M  V30 5024 H 478.67 2.16921 2.41072 0
M  V30 5025 H 478.455 3.64984 1.43281 0
M  V30 5026 H 479.945 3.42026 2.396 0
M  V30 5027 N 480.382 0.0267497 1.57577 0
M  V30 5028 C 481.628 -0.653371 1.91987 0
M  V30 5029 C 481.961 -1.71915 0.903263 0
M  V30 5030 O 481.236 -1.94358 -0.0743387 0
M  V30 5031 C 481.519 -1.272 3.36886 0
M  V30 5032 C 481.372 -0.215938 4.49281 0
M  V30 5033 C 482.691 -2.19069 3.81703 0
M  V30 5034 H 479.81 -0.236047 0.698177 0
M  V30 5035 H 482.452 0.0835236 1.89816 0
M  V30 5036 H 480.602 -1.90005 3.38866 0
M  V30 5037 H 482.274 0.41449 4.59434 0
M  V30 5038 H 480.517 0.458855 4.31366 0
M  V30 5039 H 481.188 -0.688347 5.47691 0
M  V30 5040 H 483.664 -1.66253 3.81444 0
M  V30 5041 H 482.54 -2.59307 4.83788 0
M  V30 5042 H 482.801 -3.08087 3.17072 0
M  V30 5043 N 481.861 -1.55662 -0.24637 0
M  V30 5044 C 483.138 -1.68272 -0.997198 0
M  V30 5045 C 483.518 -0.566785 -2.03349 0
M  V30 5046 O 482.866 0.429688 -2.24424 0
M  V30 5047 C 483.076 -3.08594 -1.63006 0
M  V30 5048 C 484.424 -3.6721 -2.13171 0
M  V30 5049 O 485.448 -3.11397 -1.72946 0
M  V30 5050 O 484.307 -4.65054 -2.87031 0
M  V30 5051 H 481.401 -0.684429 -0.464205 0
M  V30 5052 H 483.947 -1.67993 -0.240114 0
M  V30 5053 H 482.719 -3.81264 -0.880527 0
M  V30 5054 H 482.342 -3.12886 -2.45333 0
M  V30 5055 N 483.339 0.512053 -1.4905 0
M  V30 5056 C 484.564 1.2959 -1.6193 0
M  V30 5057 C 484.989 1.85906 -0.286454 0
M  V30 5058 O 484.347 1.65312 0.744426 0
M  V30 5059 C 484.395 2.40987 -2.68249 0
M  V30 5060 O 483.499 3.44531 -2.26654 0
M  V30 5061 H 482.84 0.383053 -0.542371 0
M  V30 5062 H 485.37 0.614231 -1.95162 0
M  V30 5063 H 485.38 2.86913 -2.90078 0
M  V30 5064 H 484.055 1.99361 -3.65004 0
M  V30 5065 H 482.632 3.046 -2.15112 0
M  V30 5066 N 484.817 1.37938 0.762283 0
M  V30 5067 C 486.094 1.24196 1.51112 0
M  V30 5068 C 486.474 -0.160409 2.1049 0
M  V30 5069 O 485.822 -1.16904 1.96331 0
M  V30 5070 C 486.032 2.34537 2.58445 0
M  V30 5071 C 487.38 2.7254 3.25588 0
M  V30 5072 O 488.404 2.33783 2.68745 0
M  V30 5073 O 487.263 3.39343 4.28379 0
M  V30 5074 H 484.357 0.485175 0.669727 0
M  V30 5075 H 486.903 1.49743 0.798438 0
M  V30 5076 H 485.675 3.28406 2.12756 0
M  V30 5077 H 485.298 2.10505 3.37303 0
M  V30 5078 N 486.295 -0.989507 1.22664 0
M  V30 5079 C 487.242 -2.08024 0.999733 0
M  V30 5080 C 488.212 -1.65909 -0.0797047 0
M  V30 5081 O 489.397 -1.90669 0.0705715 0
M  V30 5082 C 486.537 -3.40067 0.587234 0
M  V30 5083 C 485.65 -3.95505 1.73781 0
M  V30 5084 C 484.785 -5.15722 1.27297 0
M  V30 5085 C 483.824 -5.63305 2.39488 0
M  V30 5086 N 482.961 -6.74758 1.94026 0
M  V30 5087 H 487.801 -2.26768 1.9334 0
M  V30 5088 H 485.338 -1.11171 0.963297 0
M  V30 5089 H 487.296 -4.15899 0.329227 0
M  V30 5090 H 485.926 -3.21314 -0.309426 0
M  V30 5091 H 484.978 -3.16513 2.11006 0
M  V30 5092 H 486.29 -4.26797 2.58158 0
M  V30 5093 H 485.444 -5.98854 0.972546 0
M  V30 5094 H 484.183 -4.86061 0.399445 0
M  V30 5095 H 483.188 -4.78759 2.70315 0
M  V30 5096 H 484.413 -5.94988 3.27362 0
M  V30 5097 H 482.359 -6.46874 1.09041 0
M  V30 5098 H 482.276 -7.05386 2.71968 0
M  V30 5099 H 483.544 -7.61387 1.67062 0
M  V30 5100 N 487.773 -1.03688 -1.18687 0
M  V30 5101 C 488.721 -0.618292 -2.24232 0
M  V30 5102 C 489.715 0.353045 -1.6568 0
M  V30 5103 O 490.921 0.220749 -1.78641 0
M  V30 5104 H 487.296 -0.181711 -0.729716 0
M  V30 5105 H 489.267 -1.51893 -2.56848 0
M  V30 5106 C 488.016 0.00677342 -3.47699 0
M  V30 5107 H 487.339 -0.731692 -3.93047 0
M  V30 5108 H 488.779 0.262492 -4.23187 0
M  V30 5109 C 487.238 1.25572 -3.12623 0
M  V30 5110 O 487.768 2.34691 -3.26011 0
M  V30 5111 N 485.974 1.14755 -2.66982 0
M  V30 5112 H 485.521 0.259601 -2.56289 0
M  V30 5113 H 485.479 1.98412 -2.43885 0
M  V30 5114 N 489.251 1.34841 -0.815825 0
M  V30 5115 C 490.183 2.28409 -0.190265 0
M  V30 5116 C 491.196 1.50705 0.615771 0
M  V30 5117 O 492.385 1.72822 0.446616 0
M  V30 5118 C 489.485 3.30441 0.752446 0
M  V30 5119 C 488.658 4.37399 -0.00922152 0
M  V30 5120 C 487.717 5.19234 0.853351 0
M  V30 5121 O 486.743 5.68404 0.300919 0
M  V30 5122 N 487.945 5.38248 2.17416 0
M  V30 5123 H 490.71 2.82732 -0.994114 0
M  V30 5124 H 488.271 1.47289 -0.672129 0
M  V30 5125 H 490.263 3.82084 1.33394 0
M  V30 5126 H 488.833 2.76565 1.45707 0
M  V30 5127 H 488.053 3.86567 -0.771979 0
M  V30 5128 H 489.341 5.05992 -0.533807 0
M  V30 5129 H 488.739 4.99961 2.6468 0
M  V30 5130 H 487.296 5.93035 2.70467 0
M  V30 5131 N 490.729 0.570148 1.46925 0
M  V30 5132 C 491.659 -0.158274 2.32963 0
M  V30 5133 C 492.64 -0.896093 1.44583 0
M  V30 5134 O 493.825 -0.874022 1.7342 0
M  V30 5135 C 490.955 -1.18055 3.26619 0
M  V30 5136 C 489.909 -0.558379 4.24342 0
M  V30 5137 C 489.235 -1.68623 5.07415 0
M  V30 5138 C 490.535 0.496295 5.19937 0
M  V30 5139 H 492.229 0.560046 2.94115 0
M  V30 5140 H 489.775 0.270775 1.41431 0
M  V30 5141 H 491.728 -1.69841 3.85658 0
M  V30 5142 H 490.452 -1.92899 2.63548 0
M  V30 5143 H 489.111 -0.0617157 3.66548 0
M  V30 5144 H 488.759 -2.42402 4.40738 0
M  V30 5145 H 488.459 -1.27564 5.73586 0
M  V30 5146 H 489.983 -2.20709 5.69315 0
M  V30 5147 H 491.397 0.0640052 5.73264 0
M  V30 5148 H 489.794 0.82649 5.94381 0
M  V30 5149 H 490.864 1.38735 4.6463 0
M  V30 5150 N 492.207 -1.54576 0.307264 0
M  V30 5151 C 493.17 -2.22423 -0.553224 0
M  V30 5152 C 494.17 -1.21231 -1.05639 0
M  V30 5153 O 495.36 -1.45923 -0.951419 0
M  V30 5154 C 492.492 -2.91552 -1.76664 0
M  V30 5155 H 493.685 -2.99874 0.0396484 0
M  V30 5156 H 491.238 -1.56192 0.0581629 0
M  V30 5157 H 491.973 -2.18196 -2.39918 0
M  V30 5158 H 491.758 -3.65738 -1.41343 0
M  V30 5159 H 493.248 -3.43292 -2.37783 0
M  V30 5160 N 493.685 -0.035106 -1.57561 0
M  V30 5161 C 494.913 0.652258 -1.9635 0
M  V30 5162 C 495.328 1.65317 -0.911897 0
M  V30 5163 O 494.685 1.82194 0.105657 0
M  V30 5164 C 494.736 1.35337 -3.35211 0
M  V30 5165 O 494.457 0.392548 -4.36338 0
M  V30 5166 C 495.958 2.13199 -3.88666 0
M  V30 5167 H 493.178 0.179444 -0.646561 0
M  V30 5168 H 495.722 -0.0966459 -2.04271 0
M  V30 5169 H 493.877 2.05362 -3.28489 0
M  V30 5170 H 494.291 0.891097 -5.16875 0
M  V30 5171 H 495.765 2.577 -4.88154 0
M  V30 5172 H 496.242 2.97353 -3.23231 0
M  V30 5173 H 496.848 1.48118 -3.98674 0
M  V30 5174 N 495.163 1.55791 0.238111 0
M  V30 5175 C 496.126 1.90239 1.27835 0
M  V30 5176 C 497.126 0.779552 1.4064 0
M  V30 5177 O 498.316 1.04747 1.3919 0
M  V30 5178 C 495.448 2.13859 2.65475 0
M  V30 5179 H 496.641 2.83262 0.985034 0
M  V30 5180 H 494.194 1.48818 0.477799 0
M  V30 5181 H 494.929 1.23334 2.99932 0
M  V30 5182 H 494.714 2.95643 2.57561 0
M  V30 5183 H 496.204 2.41664 3.40571 0
M  V30 5184 N 496.642 -0.504142 1.49319 0
M  V30 5185 C 497.59 -1.62689 1.66238 0
M  V30 5186 C 498.584 -1.6095 0.528349 0
M  V30 5187 O 499.79 -1.65496 0.707887 0
M  V30 5188 H 496.165 -0.539247 0.524134 0
M  V30 5189 H 498.136 -1.45571 2.60484 0
M  V30 5190 C 496.885 -3.00841 1.74328 0
M  V30 5191 H 496.208 -3.02884 2.60963 0
M  V30 5192 H 497.648 -3.78945 1.90202 0
M  V30 5193 C 496.107 -3.33355 0.487416 0
M  V30 5194 O 496.637 -3.99819 -0.388294 0
M  V30 5195 N 494.843 -2.88469 0.351306 0
M  V30 5196 H 494.39 -2.34557 1.06492 0
M  V30 5197 H 494.348 -3.10591 -0.487899 0
M  V30 5198 N 498.12 -1.38341 -0.754957 0
M  V30 5199 C 499.067 -1.3546 -1.86867 0
M  V30 5200 C 500.037 -0.217369 -1.64672 0
M  V30 5201 O 501.222 -0.409383 -1.86356 0
M  V30 5202 C 498.362 -1.18413 -3.24149 0
M  V30 5203 C 497.475 -2.41511 -3.58185 0
M  V30 5204 C 496.61 -2.17205 -4.84763 0
M  V30 5205 C 495.649 -3.36081 -5.11582 0
M  V30 5206 N 494.786 -3.11219 -6.29354 0
M  V30 5207 H 499.626 -2.30672 -1.88664 0
M  V30 5208 H 497.163 -1.14607 -0.922154 0
M  V30 5209 H 499.121 -1.06545 -4.03366 0
M  V30 5210 H 497.751 -0.268397 -3.21682 0
M  V30 5211 H 496.803 -2.64056 -2.73822 0
M  V30 5212 H 498.115 -3.30115 -3.73932 0
M  V30 5213 H 497.269 -2.02465 -5.7192 0
M  V30 5214 H 496.008 -1.25964 -4.71152 0
M  V30 5215 H 495.013 -3.51341 -4.22894 0
M  V30 5216 H 496.238 -4.28196 -5.27091 0
M  V30 5217 H 494.184 -2.22624 -6.17069 0
M  V30 5218 H 494.101 -3.93373 -6.45596 0
M  V30 5219 H 495.369 -3.00132 -7.19403 0
M  V30 5220 N 499.598 0.982988 -1.23187 0
M  V30 5221 C 500.531 2.07302 -0.953993 0
M  V30 5222 C 501.509 1.62249 0.106753 0
M  V30 5223 O 502.693 1.88481 -0.0269525 0
M  V30 5224 C 499.82 3.35873 -0.436716 0
M  V30 5225 C 498.866 3.99862 -1.48367 0
M  V30 5226 S 499.699 4.39443 -3.06023 0
M  V30 5227 C 500.855 5.7117 -2.55959 0
M  V30 5228 H 501.088 2.30554 -1.87702 0
M  V30 5229 H 498.621 1.11883 -1.06403 0
M  V30 5230 H 500.579 4.10244 -0.144872 0
M  V30 5231 H 499.24 3.10634 0.465351 0
M  V30 5232 H 498.433 4.92471 -1.07182 0
M  V30 5233 H 498.035 3.31857 -1.72473 0
M  V30 5234 H 500.327 6.47977 -1.97818 0
M  V30 5235 H 501.27 6.17194 -3.47098 0
M  V30 5236 H 501.678 5.29046 -1.96902 0
M  V30 5237 N 501.076 1.04316 1.18135 0
M  V30 5238 C 502.325 0.74319 1.87509 0
M  V30 5239 C 502.638 -0.732136 1.81381 0
M  V30 5240 O 503.844 -1.14572 2.46141 0
M  V30 5241 C 502.3 1.27913 3.36402 0
M  V30 5242 C 501.908 2.78326 3.51053 0
M  V30 5243 C 503.652 1.0558 4.11161 0
M  V30 5244 C 501.559 3.25266 4.93919 0
M  V30 5245 H 500.489 0.274313 0.702331 0
M  V30 5246 H 503.14 1.25931 1.33467 0
M  V30 5247 H 501.522 0.690853 3.89927 0
M  V30 5248 H 502.696 3.42933 3.07788 0
M  V30 5249 H 501.011 2.991 2.89704 0
M  V30 5250 H 503.608 1.38161 5.16542 0
M  V30 5251 H 503.951 -0.00684729 4.16299 0
M  V30 5252 H 504.484 1.60882 3.63816 0
M  V30 5253 H 501.223 4.30922 4.9395 0
M  V30 5254 H 500.743 2.65396 5.3789 0
M  V30 5255 H 502.422 3.19433 5.62647 0
M  V30 5256 N 502.554 -1.34406 0.822964 0
M  V30 5257 C 503.782 -2.02508 0.424039 0
M  V30 5258 C 504.197 -1.61975 -0.970022 0
M  V30 5259 O 503.554 -0.825228 -1.62777 0
M  V30 5260 C 503.605 -3.57789 0.516657 0
M  V30 5261 O 503.326 -3.96853 1.85577 0
M  V30 5262 C 504.827 -4.43157 0.112637 0
M  V30 5263 H 502.047 -0.649063 0.170173 0
M  V30 5264 H 504.591 -1.7168 1.11113 0
M  V30 5265 H 502.746 -3.87207 -0.122353 0
M  V30 5266 H 503.16 -4.91538 1.83005 0
M  V30 5267 H 504.634 -5.51527 0.228526 0
M  V30 5268 H 505.111 -4.28939 -0.943837 0
M  V30 5269 H 505.717 -4.19067 0.725449 0
M  V30 5270 N 504.032 -0.577932 -1.46621 0
M  V30 5271 C 505.257 -0.0652536 -2.07297 0
M  V30 5272 C 505.682 1.22828 -1.4246 0
M  V30 5273 O 505.04 1.74075 -0.506718 0
M  V30 5274 C 505.088 0.0920589 -3.60482 0
M  V30 5275 O 504.192 1.14972 -3.96049 0
M  V30 5276 H 503.533 -0.06065 -0.661224 0
M  V30 5277 H 506.063 -0.799515 -1.88332 0
M  V30 5278 H 506.073 0.299741 -4.06897 0
M  V30 5279 H 504.748 -0.852612 -4.07067 0
M  V30 5280 H 503.325 0.920879 -3.61351 0
M  V30 5281 N 505.51 1.54411 -0.315457 0
M  V30 5282 C 506.756 2.00716 0.289972 0
M  V30 5283 C 507.089 1.2034 1.5242 0
M  V30 5284 O 506.364 0.283579 1.92422 0
M  V30 5285 C 506.647 3.54507 0.632196 0
M  V30 5286 C 506.5 4.45615 -0.61218 0
M  V30 5287 C 507.819 4.15421 1.45305 0
M  V30 5288 H 504.938 0.729637 0.10392 0
M  V30 5289 H 507.58 1.8506 -0.430427 0
M  V30 5290 H 505.73 3.67979 1.24595 0
M  V30 5291 H 507.402 4.44026 -1.25053 0
M  V30 5292 H 505.645 4.15621 -1.24264 0
M  V30 5293 H 506.316 5.51022 -0.328379 0
M  V30 5294 H 508.792 4.05474 0.934331 0
M  V30 5295 H 507.668 5.23157 1.66127 0
M  V30 5296 H 507.929 3.68223 2.44671 0
M  V30 5297 N 506.988 0.0434614 1.5754 0
M  V30 5298 C 507.918 -0.931651 2.14109 0
M  V30 5299 C 508.899 -1.32971 1.06079 0
M  V30 5300 O 510.084 -1.40579 1.33982 0
M  V30 5301 C 507.214 -2.20914 2.67982 0
M  V30 5302 C 506.168 -1.95139 3.80926 0
M  V30 5303 C 505.494 -3.29276 4.21285 0
M  V30 5304 C 506.794 -1.27913 5.06395 0
M  V30 5305 H 508.488 -0.460497 2.95837 0
M  V30 5306 H 506.034 -0.220058 1.42309 0
M  V30 5307 H 507.987 -2.89522 3.06194 0
M  V30 5308 H 506.711 -2.70221 1.83434 0
M  V30 5309 H 505.37 -1.28945 3.43175 0
M  V30 5310 H 505.018 -3.76369 3.33699 0
M  V30 5311 H 504.718 -3.12831 4.97404 0
M  V30 5312 H 506.242 -3.99129 4.62091 0
M  V30 5313 H 507.656 -1.86544 5.42102 0
M  V30 5314 H 506.053 -1.2182 5.87605 0
M  V30 5315 H 507.123 -0.254066 4.84234 0
M  V30 5316 N 508.466 -1.55915 -0.229846 0
M  V30 5317 C 509.376 -1.94891 -1.30593 0
M  V30 5318 C 510.392 -0.851604 -1.51736 0
M  V30 5319 O 511.568 -1.15447 -1.65027 0
M  V30 5320 C 508.633 -2.25052 -2.63728 0
M  V30 5321 C 507.694 -3.48306 -2.5096 0
M  V30 5322 C 506.927 -3.77019 -3.77747 0
M  V30 5323 O 507.15 -3.07534 -4.80395 0
M  V30 5324 O 506.084 -4.70523 -3.75356 0
M  V30 5325 H 509.91 -2.86581 -1.00525 0
M  V30 5326 H 507.495 -1.43017 -0.432025 0
M  V30 5327 H 509.377 -2.45682 -3.42372 0
M  V30 5328 H 508.052 -1.36538 -2.93495 0
M  V30 5329 H 506.959 -3.32964 -1.70546 0
M  V30 5330 H 508.292 -4.37177 -2.26136 0
M  V30 5331 N 509.944 0.496216 -1.49584 0
M  V30 5332 C 510.891 1.59722 -1.66606 0
M  V30 5333 C 511.861 1.58158 -0.507477 0
M  V30 5334 O 513.046 1.76072 -0.735076 0
M  V30 5335 C 510.186 2.97844 -1.74308 0
M  V30 5336 C 509.299 3.09388 -3.01502 0
M  V30 5337 C 508.434 4.38271 -3.00153 0
M  V30 5338 C 507.473 4.43466 -4.21906 0
M  V30 5339 N 506.61 5.63784 -4.1844 0
M  V30 5340 H 511.45 1.44515 -2.60613 0
M  V30 5341 H 508.987 0.703048 -1.29212 0
M  V30 5342 H 510.945 3.77907 -1.76754 0
M  V30 5343 H 509.575 3.11743 -0.837619 0
M  V30 5344 H 508.627 2.22357 -3.08645 0
M  V30 5345 H 509.939 3.09085 -3.91494 0
M  V30 5346 H 509.093 5.2666 -3.01188 0
M  V30 5347 H 507.832 4.41146 -2.07947 0
M  V30 5348 H 506.837 3.53478 -4.21109 0
M  V30 5349 H 508.062 4.42303 -5.1531 0
M  V30 5350 H 506.008 5.67491 -3.29074 0
M  V30 5351 H 505.925 5.65118 -5.02173 0
M  V30 5352 H 507.193 6.54367 -4.23585 0
M  V30 5353 N 511.423 1.38739 0.74761 0
M  V30 5354 C 512.333 1.38696 1.89211 0
M  V30 5355 C 513.349 0.283303 1.71678 0
M  V30 5356 O 514.525 0.522713 1.94498 0
M  V30 5357 C 511.59 1.21662 3.24653 0
M  V30 5358 C 510.651 2.41886 3.54669 0
M  V30 5359 C 509.884 2.25655 4.83648 0
M  V30 5360 O 510.107 1.25339 5.56459 0
M  V30 5361 O 509.041 3.14372 5.13277 0
M  V30 5362 H 512.867 2.35143 1.92202 0
M  V30 5363 H 510.452 1.19721 0.893708 0
M  V30 5364 H 512.334 1.14246 4.05618 0
M  V30 5365 H 511.009 0.283024 3.2246 0
M  V30 5366 H 509.916 2.54877 2.73841 0
M  V30 5367 H 511.249 3.33895 3.61628 0
M  V30 5368 N 512.901 -0.976442 1.23707 0
M  V30 5369 C 513.864 -2.0511 1.02287 0
M  V30 5370 C 514.864 -1.60791 -0.0167195 0
M  V30 5371 O 516.054 -1.72761 0.223408 0
M  V30 5372 C 513.186 -3.36458 0.548507 0
M  V30 5373 H 514.379 -2.25545 1.9766 0
M  V30 5374 H 511.932 -1.15042 1.05806 0
M  V30 5375 H 512.667 -3.21713 -0.408818 0
M  V30 5376 H 512.452 -3.69967 1.29874 0
M  V30 5377 H 513.942 -4.15489 0.419406 0
M  V30 5378 N 514.379 -1.04941 -1.1758 0
M  V30 5379 C 515.604 -0.778253 -1.92245 0
M  V30 5380 C 516.029 0.659707 -1.76152 0
M  V30 5381 O 515.387 1.45803 -1.07755 0
M  V30 5382 C 515.435 -1.16051 -3.41416 0
M  V30 5383 O 514.539 -0.291153 -4.11371 0
M  V30 5384 H 513.88 -0.285619 -0.599431 0
M  V30 5385 H 516.41 -1.40159 -1.49052 0
M  V30 5386 H 516.42 -1.12619 -3.92149 0
M  V30 5387 H 515.095 -2.208 -3.52449 0
M  V30 5388 H 513.672 -0.385851 -3.70898 0
M  V30 5389 N 515.857 1.33968 -0.830081 0
M  V30 5390 C 516.804 2.29387 -0.255008 0
M  V30 5391 C 517.774 1.53923 0.624243 0
M  V30 5392 O 518.959 1.82262 0.564372 0
M  V30 5393 C 516.099 3.4034 0.571209 0
M  V30 5394 C 515.212 4.30729 -0.331083 0
M  V30 5395 C 514.347 5.2879 0.505389 0
M  V30 5396 C 513.386 6.10819 -0.395843 0
M  V30 5397 N 512.523 7.00948 0.401979 0
M  V30 5398 H 517.363 2.77972 -1.07404 0
M  V30 5399 H 514.9 1.36785 -0.541133 0
M  V30 5400 H 516.858 4.03361 1.06562 0
M  V30 5401 H 515.488 2.9297 1.35529 0
M  V30 5402 H 514.54 3.68507 -0.943759 0
M  V30 5403 H 515.852 4.88181 -1.02377 0
M  V30 5404 H 515.006 5.97297 1.06399 0
M  V30 5405 H 513.745 4.71894 1.23155 0
M  V30 5406 H 512.75 5.41238 -0.966529 0
M  V30 5407 H 513.975 6.69797 -1.12023 0
M  V30 5408 H 511.921 6.46512 1.11168 0
M  V30 5409 H 511.838 7.55643 -0.232167 0
M  V30 5410 H 513.106 7.73774 0.943102 0
M  V30 5411 N 517.335 0.585699 1.46312 0
M  V30 5412 C 518.268 -0.194257 2.27372 0
M  V30 5413 C 519.246 -0.894116 1.3581 0
M  V30 5414 O 520.43 -0.907402 1.65222 0
M  V30 5415 C 517.557 -1.27901 3.13622 0
M  V30 5416 C 516.603 -0.684666 4.20969 0
M  V30 5417 S 517.436 0.490745 5.33247 0
M  V30 5418 C 518.592 -0.595137 6.23064 0
M  V30 5419 H 518.825 0.493515 2.93175 0
M  V30 5420 H 516.358 0.372666 1.49835 0
M  V30 5421 H 518.316 -1.90008 3.63878 0
M  V30 5422 H 516.977 -1.93875 2.47126 0
M  V30 5423 H 516.17 -1.50015 4.81156 0
M  V30 5424 H 515.772 -0.139204 3.73741 0
M  V30 5425 H 518.064 -1.48002 6.61137 0
M  V30 5426 H 519.007 -0.0299446 7.08094 0
M  V30 5427 H 519.415 -0.900627 5.57269 0
M  V30 5428 N 518.813 -1.54241 0.323641 0
M  V30 5429 C 519.745 -2.21836 -0.576311 0
M  V30 5430 C 520.758 -1.21837 -1.07979 0
M  V30 5431 O 521.947 -1.48306 -0.99336 0
M  V30 5432 C 519.047 -2.86923 -1.80356 0
M  V30 5433 C 518.22 -4.1306 -1.43875 0
M  V30 5434 C 517.279 -4.6174 -2.52353 0
M  V30 5435 O 516.305 -5.26421 -2.16494 0
M  V30 5436 N 517.507 -4.35974 -3.83284 0
M  V30 5437 H 520.272 -2.997 0.00247987 0
M  V30 5438 H 517.833 -1.61233 0.146848 0
M  V30 5439 H 519.825 -3.16414 -2.52318 0
M  V30 5440 H 518.395 -2.12765 -2.29019 0
M  V30 5441 H 517.615 -3.90334 -0.550752 0
M  V30 5442 H 518.903 -4.95148 -1.17071 0
M  V30 5443 H 518.301 -3.84203 -4.15216 0
M  V30 5444 H 516.858 -4.70119 -4.51477 0
M  V30 5445 N 520.291 -0.0518155 -1.57515 0
M  V30 5446 C 521.223 0.951542 -2.08515 0
M  V30 5447 C 522.236 1.27436 -1.01311 0
M  V30 5448 O 523.425 1.23504 -1.28876 0
M  V30 5449 C 520.525 2.27291 -2.5138 0
M  V30 5450 C 519.698 2.13191 -3.81927 0
M  V30 5451 C 518.757 3.28458 -4.11098 0
M  V30 5452 O 517.783 3.04334 -4.81009 0
M  V30 5453 N 518.985 4.52954 -3.63061 0
M  V30 5454 H 521.75 0.516242 -2.9522 0
M  V30 5455 H 519.311 0.13441 -1.61341 0
M  V30 5456 H 521.303 3.03272 -2.67971 0
M  V30 5457 H 519.873 2.62386 -1.69919 0
M  V30 5458 H 519.093 1.21798 -3.74912 0
M  V30 5459 H 520.381 2.00999 -4.67415 0
M  V30 5460 H 519.779 4.75444 -3.06545 0
M  V30 5461 H 518.336 5.26026 -3.84889 0
M  V30 5462 N 521.769 1.56035 0.221574 0
M  V30 5463 C 522.994 1.83476 0.967026 0
M  V30 5464 C 523.419 0.632139 1.7716 0
M  V30 5465 O 522.777 -0.419082 1.7639 0
M  V30 5466 C 522.825 3.08907 1.86034 0
M  V30 5467 O 521.929 2.876 2.95567 0
M  V30 5468 H 521.27 0.604913 0.273817 0
M  V30 5469 H 523.8 2.03247 0.234893 0
M  V30 5470 H 523.81 3.3901 2.27016 0
M  V30 5471 H 522.485 3.96068 1.26898 0
M  V30 5472 H 521.062 2.6873 2.58532 0
M  V30 5473 N 523.247 -0.488276 1.49845 0
M  V30 5474 C 524.495 -1.23911 1.59657 0
M  V30 5475 C 524.816 -1.92816 0.291005 0
M  V30 5476 O 524.086 -1.83328 -0.690485 0
M  V30 5477 H 522.666 -0.460357 0.588286 0
M  V30 5478 H 525.328 -0.564794 1.86537 0
M  V30 5479 H 524.424 -1.99625 2.39909 0
M  V30 5480 N 524.725 -1.39134 -0.740242 0
M  V30 5481 C 525.675 -1.33928 -1.84519 0
M  V30 5482 C 526.659 -0.221097 -1.59374 0
M  V30 5483 O 527.851 -0.458195 -1.70967 0
M  V30 5484 C 524.98 -1.17991 -3.22387 0
M  V30 5485 C 524.066 -2.34488 -3.53378 0
M  V30 5486 N 524.457 -3.59954 -3.5534 0
M  V30 5487 C 522.755 -2.27331 -3.83714 0
M  V30 5488 C 523.456 -4.36962 -3.83978 0
M  V30 5489 N 522.432 -3.66482 -4.01487 0
M  V30 5490 H 526.234 -2.28907 -1.84333 0
M  V30 5491 H 523.748 -1.32555 -0.938237 0
M  V30 5492 H 525.745 -1.12345 -4.01478 0
M  V30 5493 H 524.405 -0.23957 -3.23815 0
M  V30 5494 H 525.416 -3.93448 -3.36778 0
M  V30 5495 H 522.093 -1.41531 -3.92779 0
M  V30 5496 H 523.483 -5.45692 -3.92008 0
M  V30 5497 N 526.204 0.969867 -1.24223 0
M  V30 5498 C 527.615 1.52717 -1.07399 0
M  V30 5499 C 527.966 1.92956 0.355298 0
M  V30 5500 O 527.091 1.77112 1.2434 0
M  V30 5501 C 527.686 2.77521 -1.94339 0
M  V30 5502 C 526.245 3.29615 -1.81744 0
M  V30 5503 C 525.392 2.02537 -1.89405 0
M  V30 5504 H 528.343 0.788399 -1.37732 0
M  V30 5505 H 528.364 3.50773 -1.47439 0
M  V30 5506 H 527.876 2.48203 -2.98357 0
M  V30 5507 H 525.977 3.63789 -0.805505 0
M  V30 5508 H 526.09 3.98661 -2.65718 0
M  V30 5509 H 524.454 2.17151 -1.33108 0
M  V30 5510 H 525.237 1.75587 -2.94999 0
M  V30 5511 N 527.682 1.05563 1.17022 0
M  V30 5512 C 528.928 0.778872 1.87897 0
M  V30 5513 C 529.283 -0.686839 1.79723 0
M  V30 5514 O 528.576 -1.49612 1.19694 0
M  V30 5515 C 528.77 1.19849 3.36706 0
M  V30 5516 C 528.599 2.70345 3.59366 0
M  V30 5517 C 527.369 3.37707 3.75875 0
M  V30 5518 C 529.567 3.68564 3.58699 0
M  V30 5519 N 527.549 4.7703 3.86414 0
M  V30 5520 C 528.92 4.93634 3.75134 0
M  V30 5521 C 530.975 3.6198 3.4187 0
M  V30 5522 C 529.678 6.12907 3.76481 0
M  V30 5523 C 531.704 4.80697 3.44507 0
M  V30 5524 C 531.066 6.04592 3.61453 0
M  V30 5525 H 527.165 0.337297 0.705517 0
M  V30 5526 H 529.749 1.34832 1.40458 0
M  V30 5527 H 527.92 0.656958 3.82804 0
M  V30 5528 H 529.652 0.871172 3.95212 0
M  V30 5529 H 526.407 2.88108 3.75887 0
M  V30 5530 H 526.831 5.49483 3.95471 0
M  V30 5531 H 531.473 2.67154 3.27702 0
M  V30 5532 H 529.191 7.08073 3.89432 0
M  V30 5533 H 532.777 4.77259 3.32738 0
M  V30 5534 H 531.657 6.94916 3.63403 0
M  V30 5535 N 529.16 -1.33526 0.837174 0
M  V30 5536 C 530.385 -2.0258 0.444545 0
M  V30 5537 C 530.81 -1.6258 -0.946006 0
M  V30 5538 O 530.168 -0.817548 -1.6182 0
M  V30 5539 C 530.216 -3.5605 0.571006 0
M  V30 5540 O 529.32 -4.10422 -0.403431 0
M  V30 5541 H 528.661 -0.638866 0.180958 0
M  V30 5542 H 531.191 -1.70462 1.13154 0
M  V30 5543 H 531.201 -4.05488 0.452024 0
M  V30 5544 H 529.876 -3.84509 1.58512 0
M  V30 5545 H 528.453 -3.72113 -0.242147 0
M  V30 5546 N 530.638 -0.59345 -1.46 0
M  V30 5547 C 531.886 -0.082988 -2.0193 0
M  V30 5548 C 532.207 1.28569 -1.46612 0
M  V30 5549 O 531.477 1.84629 -0.654909 0
M  V30 5550 H 530.057 -0.0276882 -0.746487 0
M  V30 5551 H 532.719 -0.771657 -1.78973 0
M  V30 5552 H 531.815 -0.022079 -3.12092 0
M  V30 5553 N 532.116 1.54067 -0.331816 0
M  V30 5554 C 533.527 1.86059 0.15454 0
M  V30 5555 C 533.878 1.25331 1.50952 0
M  V30 5556 O 533.003 0.562441 2.08963 0
M  V30 5557 C 533.598 3.37581 0.287192 0
M  V30 5558 C 532.157 3.69493 0.717773 0
M  V30 5559 C 531.304 2.76863 -0.155569 0
M  V30 5560 H 534.255 1.48797 -0.55182 0
M  V30 5561 H 534.276 3.63744 1.11671 0
M  V30 5562 H 533.788 3.81751 -0.699131 0
M  V30 5563 H 531.889 3.3086 1.71354 0
M  V30 5564 H 532.002 4.76315 0.5158 0
M  V30 5565 H 530.366 2.51995 0.370213 0
M  V30 5566 H 531.149 3.23861 -1.13881 0
M  V30 5567 N 533.594 0.0601682 1.57485 0
M  V30 5568 C 534.541 -0.91112 2.12055 0
M  V30 5569 C 535.511 -1.30298 1.03013 0
M  V30 5570 O 536.696 -1.39087 1.30612 0
M  V30 5571 C 533.836 -2.1775 2.67729 0
M  V30 5572 C 532.949 -1.83933 3.90887 0
M  V30 5573 C 532.084 -3.05096 4.34845 0
M  V30 5574 C 531.123 -2.67241 5.5068 0
M  V30 5575 N 530.26 -3.81127 5.8965 0
M  V30 5576 H 535.1 -0.43888 2.9475 0
M  V30 5577 H 532.637 -0.204995 1.45665 0
M  V30 5578 H 534.595 -2.91866 2.98111 0
M  V30 5579 H 533.225 -2.62535 1.87816 0
M  V30 5580 H 532.277 -0.999287 3.6704 0
M  V30 5581 H 533.589 -1.52074 4.75052 0
M  V30 5582 H 532.743 -3.87502 4.66827 0
M  V30 5583 H 531.482 -3.40139 3.49509 0
M  V30 5584 H 530.487 -1.83254 5.18361 0
M  V30 5585 H 531.712 -2.3338 6.37738 0
M  V30 5586 H 529.658 -4.15954 5.07266 0
M  V30 5587 H 529.575 -3.52997 6.68528 0
M  V30 5588 H 530.843 -4.64145 6.2625 0
M  V30 5589 N 535.072 -1.5615 -0.213296 0
M  V30 5590 C 536.483 -1.69645 -0.779582 0
M  V30 5591 C 536.834 -0.663615 -1.84636 0
M  V30 5592 O 535.959 0.183633 -2.15619 0
M  V30 5593 C 536.554 -3.07567 -1.42084 0
M  V30 5594 C 535.113 -3.22889 -1.93442 0
M  V30 5595 C 534.26 -2.65581 -0.797612 0
M  V30 5596 H 537.211 -1.58696 0.0114951 0
M  V30 5597 H 537.232 -3.03884 -2.28986 0
M  V30 5598 H 536.744 -3.82716 -0.644187 0
M  V30 5599 H 534.845 -2.52623 -2.73884 0
M  V30 5600 H 534.958 -4.30197 -2.10872 0
M  V30 5601 H 533.322 -2.24278 -1.20712 0
M  V30 5602 H 534.105 -3.43284 -0.033494 0
M  V30 5603 N 536.55 0.480323 -1.50102 0
M  V30 5604 C 537.966 0.813295 -1.37323 0
M  V30 5605 C 538.166 1.97027 -0.422206 0
M  V30 5606 O 537.222 2.5212 0.138563 0
M  V30 5607 C 538.535 1.13404 -2.78496 0
M  V30 5608 C 540.083 1.24104 -2.87345 0
M  V30 5609 C 540.558 1.59497 -4.29331 0
M  V30 5610 N 542.049 1.66507 -4.32238 0
M  V30 5611 C 542.784 1.95378 -5.39087 0
M  V30 5612 N 542.28 2.22333 -6.56155 0
M  V30 5613 N 544.073 1.96803 -5.26522 0
M  V30 5614 H 536.224 -0.282291 -2.10516 0
M  V30 5615 H 538.487 -0.063752 -0.945854 0
M  V30 5616 H 538.193 0.357064 -3.49883 0
M  V30 5617 H 538.067 2.07251 -3.15162 0
M  V30 5618 H 540.454 2.00871 -2.16183 0
M  V30 5619 H 540.535 0.282593 -2.54234 0
M  V30 5620 H 540.179 0.832736 -5.01027 0
M  V30 5621 H 540.109 2.56477 -4.59921 0
M  V30 5622 H 542.6 1.47753 -3.47818 0
M  V30 5623 H 542.913 2.43611 -7.33399 0
M  V30 5624 H 541.258 2.19745 -6.59346 0
M  V30 5625 H 544.449 1.75235 -4.34062 0
M  V30 5626 H 544.622 2.18969 -6.09883 0
M  V30 5627 N 538.028 1.39524 0.732853 0
M  V30 5628 C 538.958 1.41153 1.86005 0
M  V30 5629 C 539.939 0.274614 1.67869 0
M  V30 5630 O 541.124 0.480745 1.88155 0
M  V30 5631 C 538.254 1.25638 3.23778 0
M  V30 5632 C 537.208 2.36752 3.56556 0
M  V30 5633 C 536.534 2.06326 4.93289 0
M  V30 5634 C 537.834 3.79069 3.5931 0
M  V30 5635 H 539.528 2.35484 1.84899 0
M  V30 5636 H 537.074 1.13348 0.888162 0
M  V30 5637 H 539.027 1.25398 4.0231 0
M  V30 5638 H 537.751 0.277772 3.25417 0
M  V30 5639 H 536.41 2.36213 2.80355 0
M  V30 5640 H 536.058 1.06897 4.9151 0
M  V30 5641 H 535.758 2.80757 5.16187 0
M  V30 5642 H 537.282 2.07739 5.74175 0
M  V30 5643 H 538.696 3.81526 4.27914 0
M  V30 5644 H 537.093 4.52878 3.93728 0
M  V30 5645 H 538.163 4.09893 2.59068 0
M  V30 5646 N 539.506 -0.963266 1.24736 0
M  V30 5647 C 540.734 -1.74166 1.11686 0
M  V30 5648 C 541.149 -1.8589 -0.330187 0
M  V30 5649 O 540.506 -1.35042 -1.2276 0
M  V30 5650 C 540.557 -3.15989 1.75595 0
M  V30 5651 O 540.278 -3.04847 3.14642 0
M  V30 5652 C 541.779 -4.10145 1.68213 0
M  V30 5653 H 538.999 -0.546031 0.389989 0
M  V30 5654 H 541.543 -1.20907 1.64929 0
M  V30 5655 H 539.698 -3.66219 1.26343 0
M  V30 5656 H 540.112 -3.9425 3.4593 0
M  V30 5657 H 541.586 -5.07299 2.17604 0
M  V30 5658 H 542.063 -4.3445 0.644208 0
M  V30 5659 H 542.669 -3.65827 2.16912 0
M  V30 5660 N 540.985 -1.06182 -1.16461 0
M  V30 5661 C 542.21 -0.798599 -1.91408 0
M  V30 5662 C 542.635 0.640987 -1.76842 0
M  V30 5663 O 541.993 1.44652 -1.09296 0
M  V30 5664 C 542.041 -1.19665 -3.40165 0
M  V30 5665 O 541.145 -0.334768 -4.11039 0
M  V30 5666 H 540.486 -0.291961 -0.596368 0
M  V30 5667 H 543.016 -1.41732 -1.47557 0
M  V30 5668 H 543.026 -1.16772 -3.90933 0
M  V30 5669 H 541.701 -2.24526 -3.50087 0
M  V30 5670 H 540.278 -0.425168 -3.70468 0
M  V30 5671 N 542.463 1.3308 -0.844243 0
M  V30 5672 C 543.688 2.02341 -0.455282 0
M  V30 5673 C 544.113 1.6308 0.93737 0
M  V30 5674 O 543.471 0.826118 1.61385 0
M  V30 5675 C 543.519 3.55743 -0.58988 0
M  V30 5676 O 542.623 4.1063 0.38166 0
M  V30 5677 H 541.964 0.637898 -0.184343 0
M  V30 5678 H 544.494 1.6986 -1.14056 0
M  V30 5679 H 544.504 4.05243 -0.473522 0
M  V30 5680 H 543.179 3.83662 -1.60549 0
M  V30 5681 H 541.756 3.72236 0.22241 0
M  V30 5682 N 543.941 0.601185 1.45683 0
M  V30 5683 C 545.187 0.0940202 2.02582 0
M  V30 5684 C 545.52 -1.26972 1.46941 0
M  V30 5685 O 544.795 -1.83613 0.641612 0
M  V30 5686 C 545.078 0.0481715 3.60068 0
M  V30 5687 C 544.931 1.44212 4.26055 0
M  V30 5688 C 546.25 -0.642975 4.35378 0
M  V30 5689 H 543.369 0.0356404 0.736138 0
M  V30 5690 H 546.011 0.771929 1.73612 0
M  V30 5691 H 544.161 -0.529128 3.8488 0
M  V30 5692 H 545.833 2.06601 4.12449 0
M  V30 5693 H 544.076 2.00465 3.84703 0
M  V30 5694 H 544.747 1.36234 5.34925 0
M  V30 5695 H 547.223 -0.152351 4.15821 0
M  V30 5696 H 546.099 -0.644141 5.45107 0
M  V30 5697 H 546.36 -1.70785 4.0778 0
M  V30 5698 N 545.419 -1.53889 0.339982 0
M  V30 5699 C 546.366 -2.24902 -0.518452 0
M  V30 5700 C 547.336 -1.24593 -1.09844 0
M  V30 5701 O 548.521 -1.53317 -1.13572 0
M  V30 5702 C 545.661 -3.02262 -1.66529 0
M  V30 5703 C 544.774 -4.17418 -1.11295 0
M  V30 5704 C 543.909 -4.82273 -2.2268 0
M  V30 5705 C 542.948 -5.89503 -1.6478 0
M  V30 5706 N 542.085 -6.48153 -2.69893 0
M  V30 5707 H 546.925 -2.97853 0.0936579 0
M  V30 5708 H 544.462 -1.46986 0.0579924 0
M  V30 5709 H 546.42 -3.45371 -2.3404 0
M  V30 5710 H 545.05 -2.31614 -2.24844 0
M  V30 5711 H 544.102 -3.78976 -0.328886 0
M  V30 5712 H 545.414 -4.94554 -0.649414 0
M  V30 5713 H 544.568 -5.28435 -2.98063 0
M  V30 5714 H 543.307 -4.04552 -2.72376 0
M  V30 5715 H 542.312 -5.42728 -0.879004 0
M  V30 5716 H 543.537 -6.6913 -1.1594 0
M  V30 5717 H 541.483 -5.73298 -3.1885 0
M  V30 5718 H 541.4 -7.20752 -2.28151 0
M  V30 5719 H 542.668 -6.98968 -3.45056 0
M  V30 5720 N 546.897 -0.0685191 -1.57451 0
M  V30 5721 C 547.807 0.914677 -2.16034 0
M  V30 5722 C 548.823 1.32938 -1.12265 0
M  V30 5723 O 549.999 1.40275 -1.44516 0
M  V30 5724 C 547.064 2.16519 -2.70777 0
M  V30 5725 C 546.125 1.80721 -3.89408 0
M  V30 5726 C 545.358 2.9981 -4.41531 0
M  V30 5727 O 545.581 4.13727 -3.92666 0
M  V30 5728 O 544.515 2.79817 -5.32903 0
M  V30 5729 H 548.341 0.446364 -3.00402 0
M  V30 5730 H 545.926 0.154367 -1.486 0
M  V30 5731 H 547.808 2.89856 -3.05878 0
M  V30 5732 H 546.483 2.62454 -1.89471 0
M  V30 5733 H 545.39 1.04646 -3.59166 0
M  V30 5734 H 546.723 1.39571 -4.71997 0
M  V30 5735 N 548.375 1.56261 0.205012 0
M  V30 5736 C 549.305 1.96779 1.257 0
M  V30 5737 C 550.286 0.838309 1.48008 0
M  V30 5738 O 551.471 1.10189 1.59913 0
M  V30 5739 C 548.601 2.29876 2.60335 0
M  V30 5740 C 547.555 3.45469 2.52656 0
M  V30 5741 C 546.881 3.64215 3.91473 0
M  V30 5742 C 548.181 4.79954 2.06014 0
M  V30 5743 H 549.875 2.84904 0.920338 0
M  V30 5744 H 547.421 1.37072 0.441277 0
M  V30 5745 H 549.374 2.56814 3.34102 0
M  V30 5746 H 548.098 1.38622 2.95722 0
M  V30 5747 H 546.757 3.18605 1.81345 0
M  V30 5748 H 546.405 2.70309 4.24196 0
M  V30 5749 H 546.105 4.41973 3.87213 0
M  V30 5750 H 547.629 3.93519 4.66878 0
M  V30 5751 H 549.043 5.05989 2.69533 0
M  V30 5752 H 547.44 5.61111 2.12777 0
M  V30 5753 H 548.51 4.74201 1.01297 0
M  V30 5754 N 549.853 -0.472356 1.50355 0
M  V30 5755 C 551.101 -1.22211 1.60962 0
M  V30 5756 C 551.422 -1.92497 0.311439 0
M  V30 5757 O 550.692 -1.8405 -0.671002 0
M  V30 5758 H 549.272 -0.454092 0.593135 0
M  V30 5759 H 551.934 -0.544977 1.87126 0
M  V30 5760 H 551.03 -1.9707 2.42012 0
M  V30 5761 N 551.331 -1.39911 -0.725443 0
M  V30 5762 C 552.579 -1.37382 -1.48224 0
M  V30 5763 C 552.9 0.0264107 -1.94982 0
M  V30 5764 O 552.17 0.979408 -1.6966 0
M  V30 5765 H 550.75 -0.505596 -0.549892 0
M  V30 5766 H 553.412 -1.7487 -0.860608 0
M  V30 5767 H 552.508 -2.04254 -2.3598 0
M  V30 5768 N 552.809 0.956637 -1.25245 0
M  V30 5769 C 554.055 1.70352 -1.10036 0
M  V30 5770 C 554.388 1.90869 0.358156 0
M  V30 5771 O 553.663 1.47819 1.26411 0
M  V30 5772 C 553.946 3.08766 -1.85298 0
M  V30 5773 C 553.799 2.95672 -3.38966 0
M  V30 5774 C 555.118 4.08622 -1.63451 0
M  V30 5775 H 552.237 0.618279 -0.401123 0
M  V30 5776 H 554.879 1.11212 -1.54051 0
M  V30 5777 H 553.029 3.59252 -1.47887 0
M  V30 5778 H 554.701 2.52527 -3.86041 0
M  V30 5779 H 552.944 2.31634 -3.6678 0
M  V30 5780 H 553.615 3.93776 -3.86839 0
M  V30 5781 H 556.091 3.67038 -1.96015 0
M  V30 5782 H 554.967 5.03514 -2.18551 0
M  V30 5783 H 555.228 4.3834 -0.575357 0
M  V30 5784 N 554.287 1.06798 1.15896 0
M  V30 5785 C 555.564 0.701057 1.82605 0
M  V30 5786 C 555.944 -0.817066 1.94646 0
M  V30 5787 O 555.292 -1.72933 1.49353 0
M  V30 5788 C 555.502 1.40895 3.19296 0
M  V30 5789 C 556.85 1.55744 3.95005 0
M  V30 5790 O 557.874 1.36927 3.28831 0
M  V30 5791 O 556.733 1.86658 5.13635 0
M  V30 5792 H 553.827 0.248791 0.78869 0
M  V30 5793 H 556.373 1.16857 1.23055 0
M  V30 5794 H 555.145 2.4439 3.05596 0
M  V30 5795 H 554.768 0.931847 3.86526 0
M  V30 5796 N 555.766 -1.3263 0.851289 0
M  V30 5797 C 556.696 -2.31449 0.308771 0
M  V30 5798 C 557.677 -1.59531 -0.590255 0
M  V30 5799 O 558.862 -1.87351 -0.511205 0
M  V30 5800 C 555.992 -3.43586 -0.506548 0
M  V30 5801 C 554.946 -4.26963 0.297753 0
M  V30 5802 C 554.272 -5.30831 -0.642094 0
M  V30 5803 C 555.572 -4.99643 1.52166 0
M  V30 5804 H 557.266 -2.77074 1.13447 0
M  V30 5805 H 554.812 -1.33207 0.546971 0
M  V30 5806 H 556.765 -4.11754 -0.896474 0
M  V30 5807 H 555.489 -2.96681 -1.36558 0
M  V30 5808 H 554.148 -3.60437 0.669391 0
M  V30 5809 H 553.796 -4.8018 -1.49788 0
M  V30 5810 H 553.496 -5.87501 -0.107968 0
M  V30 5811 H 555.02 -6.01862 -1.02927 0
M  V30 5812 H 556.434 -5.6051 1.20421 0
M  V30 5813 H 554.831 -5.66022 1.99347 0
M  V30 5814 H 555.901 -4.27701 2.28474 0
M  V30 5815 N 557.244 -0.608902 -1.45362 0
M  V30 5816 C 558.49 -0.104762 -2.02529 0
M  V30 5817 C 558.823 1.26191 -1.47613 0
M  V30 5818 O 558.098 1.8327 -0.65134 0
M  V30 5819 C 558.381 -0.0672661 -3.60037 0
M  V30 5820 C 558.234 -1.4647 -4.25284 0
M  V30 5821 C 559.553 0.619877 -4.35713 0
M  V30 5822 H 556.672 -0.0395438 -0.735938 0
M  V30 5823 H 559.314 -0.781126 -1.73201 0
M  V30 5824 H 557.464 0.50871 -3.85155 0
M  V30 5825 H 559.136 -2.08785 -4.11347 0
M  V30 5826 H 557.379 -2.02502 -3.83634 0
M  V30 5827 H 558.05 -1.39069 -5.34195 0
M  V30 5828 H 560.526 0.130297 -4.15896 0
M  V30 5829 H 559.402 0.615224 -5.45441 0
M  V30 5830 H 559.663 1.68621 -4.0868 0
M  V30 5831 N 558.722 1.53707 -0.348139 0
M  V30 5832 C 559.971 2.0017 0.247992 0
M  V30 5833 C 560.284 1.23983 1.51286 0
M  V30 5834 O 561.49 1.60946 2.18652 0
M  V30 5835 C 559.946 3.56515 0.492459 0
M  V30 5836 C 559.554 4.41562 -0.756777 0
M  V30 5837 C 561.298 4.11381 1.0472 0
M  V30 5838 C 559.205 5.89426 -0.482856 0
M  V30 5839 H 558.135 0.747806 0.0964452 0
M  V30 5840 H 560.786 1.77532 -0.464179 0
M  V30 5841 H 559.168 3.75236 1.26545 0
M  V30 5842 H 560.342 4.34615 -1.53122 0
M  V30 5843 H 558.657 3.97711 -1.23348 0
M  V30 5844 H 561.254 5.19468 1.26717 0
M  V30 5845 H 561.597 3.64885 2.00411 0
M  V30 5846 H 562.13 3.96389 0.334801 0
M  V30 5847 H 558.869 6.40164 -1.40962 0
M  V30 5848 H 558.389 5.99264 0.253416 0
M  V30 5849 H 560.068 6.4692 -0.101816 0
M  V30 5850 N 560.2 0.0768682 1.57412 0
M  V30 5851 C 561.11 -0.903207 2.16516 0
M  V30 5852 C 562.126 -1.32341 1.12968 0
M  V30 5853 O 563.302 -1.39507 1.45258 0
M  V30 5854 C 560.367 -2.1508 2.71922 0
M  V30 5855 C 559.428 -1.78653 3.90361 0
M  V30 5856 C 558.661 -2.97465 4.43114 0
M  V30 5857 O 558.884 -4.11638 3.94854 0
M  V30 5858 O 557.818 -2.76987 5.3438 0
M  V30 5859 H 561.644 -0.430427 3.00634 0
M  V30 5860 H 559.229 -0.146485 1.4868 0
M  V30 5861 H 561.111 -2.8823 3.07411 0
M  V30 5862 H 559.786 -2.61446 1.9086 0
M  V30 5863 H 558.693 -1.0274 3.59716 0
M  V30 5864 H 560.026 -1.37066 4.7273 0
M  V30 5865 N 561.678 -1.56367 -0.196722 0
M  V30 5866 C 562.641 -1.93561 -1.22746 0
M  V30 5867 C 563.641 -0.816566 -1.38524 0
M  V30 5868 O 564.831 -1.084 -1.36363 0
M  V30 5869 C 561.963 -2.20823 -2.59712 0
M  V30 5870 H 563.156 -2.85774 -0.909586 0
M  V30 5871 H 560.709 -1.50032 -0.438174 0
M  V30 5872 H 561.444 -1.31243 -2.96557 0
M  V30 5873 H 561.229 -3.02368 -2.49632 0
M  V30 5874 H 562.719 -2.50608 -3.34044 0
M  V30 5875 N 563.156 0.464375 -1.50603 0
M  V30 5876 C 564.402 1.21776 -1.62168 0
M  V30 5877 C 564.735 1.91476 -0.324154 0
M  V30 5878 O 564.01 1.8242 0.674782 0
M  V30 5879 C 564.293 2.25614 -2.80661 0
M  V30 5880 C 564.146 1.60175 -4.20314 0
M  V30 5881 C 565.465 3.26862 -2.94702 0
M  V30 5882 H 562.584 0.44137 -0.590222 0
M  V30 5883 H 565.226 0.510623 -1.8301 0
M  V30 5884 H 563.376 2.85923 -2.63021 0
M  V30 5885 H 565.048 1.03411 -4.4956 0
M  V30 5886 H 563.291 0.904697 -4.24261 0
M  V30 5887 H 563.962 2.35665 -4.99165 0
M  V30 5888 H 566.438 2.76582 -3.10872 0
M  V30 5889 H 565.314 3.96839 -3.79223 0
M  V30 5890 H 565.575 3.91382 -2.05603 0
M  V30 5891 N 564.634 1.40294 0.718013 0
M  V30 5892 C 565.881 1.3844 1.47786 0
M  V30 5893 C 566.209 -0.0140838 1.94495 0
M  V30 5894 O 565.464 -0.998165 1.68331 0
M  V30 5895 C 565.763 2.31814 2.72024 0
M  V30 5896 C 565.429 3.79117 2.44093 0
M  V30 5897 C 564.091 4.19249 2.36185 0
M  V30 5898 C 566.443 4.72212 2.20602 0
M  V30 5899 C 563.771 5.50516 2.02851 0
M  V30 5900 C 566.123 6.03775 1.88781 0
M  V30 5901 C 564.787 6.42953 1.79354 0
M  V30 5902 H 564.057 0.506588 0.540786 0
M  V30 5903 H 566.704 1.72929 0.822663 0
M  V30 5904 H 565.009 1.90501 3.42369 0
M  V30 5905 H 566.706 2.27664 3.30106 0
M  V30 5906 H 563.296 3.47318 2.51133 0
M  V30 5907 H 567.48 4.42026 2.25669 0
M  V30 5908 H 562.736 5.79776 1.94088 0
M  V30 5909 H 566.91 6.75428 1.69617 0
M  V30 5910 H 564.537 7.44584 1.53291 0
M  V30 5911 N 566.112 -0.949982 1.2575 0
M  V30 5912 C 567.022 -2.08109 1.08295 0
M  V30 5913 C 568.038 -1.7399 0.0188181 0
M  V30 5914 O 569.214 -2.00187 0.220724 0
M  V30 5915 C 566.279 -3.39383 0.708534 0
M  V30 5916 C 565.34 -3.8734 1.85111 0
M  V30 5917 C 564.573 -5.12349 1.49447 0
M  V30 5918 O 564.796 -5.6905 0.392212 0
M  V30 5919 O 563.73 -5.5513 2.32624 0
M  V30 5920 H 567.556 -2.25738 2.03165 0
M  V30 5921 H 565.141 -1.06545 1.04731 0
M  V30 5922 H 567.023 -4.18277 0.512061 0
M  V30 5923 H 565.698 -3.23013 -0.210854 0
M  V30 5924 H 564.605 -3.09429 2.10248 0
M  V30 5925 H 565.938 -4.08216 2.74991 0
M  V30 5926 N 567.59 -1.07411 -1.15328 0
M  V30 5927 C 568.5 -0.706438 -2.23711 0
M  V30 5928 C 569.516 0.282586 -1.7169 0
M  V30 5929 O 570.692 0.129066 -2.00986 0
M  V30 5930 C 567.757 -0.11048 -3.46524 0
M  V30 5931 C 566.818 -1.15282 -4.13532 0
M  V30 5932 C 566.051 -0.585205 -5.30482 0
M  V30 5933 O 566.274 0.598549 -5.67251 0
M  V30 5934 O 565.208 -1.33039 -5.87013 0
M  V30 5935 H 569.034 -1.61031 -2.57493 0
M  V30 5936 H 566.619 -0.847113 -1.23062 0
M  V30 5937 H 568.501 0.21957 -4.20828 0
M  V30 5938 H 567.176 0.766703 -3.14489 0
M  V30 5939 H 566.083 -1.53523 -3.41147 0
M  V30 5940 H 567.416 -2.00192 -4.49649 0
M  V30 5941 N 569.068 1.32177 -0.85831 0
M  V30 5942 C 570.001 2.26823 -0.25035 0
M  V30 5943 C 570.979 1.50571 0.61378 0
M  V30 5944 O 572.163 1.79682 0.569777 0
M  V30 5945 C 569.29 3.32472 0.646556 0
M  V30 5946 C 568.336 4.26255 -0.144675 0
M  V30 5947 S 569.169 5.13608 -1.5155 0
M  V30 5948 C 570.325 6.22778 -0.624408 0
M  V30 5949 H 570.558 2.7804 -1.05267 0
M  V30 5950 H 568.091 1.39764 -0.656152 0
M  V30 5951 H 570.049 3.93817 1.15837 0
M  V30 5952 H 568.71 2.80031 1.42272 0
M  V30 5953 H 567.903 5.01114 0.538613 0
M  V30 5954 H 567.505 3.69346 -0.588198 0
M  V30 5955 H 569.797 6.77287 0.169846 0
M  V30 5956 H 570.74 6.95233 -1.34376 0
M  V30 5957 H 571.148 5.64156 -0.197128 0
M  V30 5958 N 570.547 0.616602 1.45037 0
M  V30 5959 C 571.772 0.120192 2.07051 0
M  V30 5960 C 572.197 -1.19008 1.45666 0
M  V30 5961 O 571.555 -1.7267 0.552692 0
M  V30 5962 C 571.603 0.00354901 3.606 0
M  V30 5963 O 570.707 -1.04431 3.98958 0
M  V30 5964 H 570.048 0.0781599 0.659384 0
M  V30 5965 H 572.578 0.849167 1.86146 0
M  V30 5966 H 572.588 -0.191754 4.07549 0
M  V30 5967 H 571.263 0.960239 4.04663 0
M  V30 5968 H 569.84 -0.824749 3.63665 0
M  V30 5969 N 572.025 -1.5352 0.356285 0
M  V30 5970 C 572.955 -2.28372 -0.486661 0
M  V30 5971 C 573.936 -1.30432 -1.09185 0
M  V30 5972 O 575.121 -1.59291 -1.11085 0
M  V30 5973 C 572.251 -3.06604 -1.63129 0
M  V30 5974 C 571.205 -4.12154 -1.15381 0
M  V30 5975 C 570.531 -4.78415 -2.38796 0
M  V30 5976 C 571.831 -5.21724 -0.245179 0
M  V30 5977 H 573.525 -2.99083 0.137797 0
M  V30 5978 H 571.071 -1.43841 0.0677134 0
M  V30 5979 H 573.024 -3.57712 -2.22755 0
M  V30 5980 H 571.748 -2.33568 -2.28284 0
M  V30 5981 H 570.407 -3.61978 -0.580294 0
M  V30 5982 H 570.055 -4.01959 -3.02387 0
M  V30 5983 H 569.755 -5.49734 -2.07524 0
M  V30 5984 H 571.279 -5.32313 -2.99125 0
M  V30 5985 H 572.693 -5.68391 -0.748646 0
M  V30 5986 H 571.09 -6.00095 -0.0237608 0
M  V30 5987 H 572.16 -4.79596 0.715229 0
M  V30 5988 N 573.503 -0.0852151 -1.57369 0
M  V30 5989 C 574.45 0.877268 -2.13478 0
M  V30 5990 C 575.42 1.28642 -1.05073 0
M  V30 5991 O 576.605 1.36992 -1.32808 0
M  V30 5992 C 573.745 2.13464 -2.71159 0
M  V30 5993 C 572.858 1.77691 -3.93764 0
M  V30 5994 C 571.993 2.98139 -4.39643 0
M  V30 5995 C 571.032 2.58447 -5.54862 0
M  V30 5996 N 570.169 3.71698 -5.95639 0
M  V30 5997 H 575.009 0.391933 -2.95411 0
M  V30 5998 H 572.546 0.181796 -1.45972 0
M  V30 5999 H 574.504 2.87086 -3.02717 0
M  V30 6000 H 573.134 2.59514 -1.91969 0
M  V30 6001 H 572.186 0.940768 -3.68583 0
M  V30 6002 H 573.498 1.44497 -4.77412 0
M  V30 6003 H 572.652 3.80026 -4.72933 0
M  V30 6004 H 571.391 3.34536 -3.54876 0
M  V30 6005 H 570.396 1.74984 -5.21211 0
M  V30 6006 H 571.621 2.23205 -6.41371 0
M  V30 6007 H 569.567 4.07831 -5.13819 0
M  V30 6008 H 569.484 3.42317 -6.74059 0
M  V30 6009 H 570.752 4.54123 -6.33555 0
M  V30 6010 N 574.981 1.5647 0.188427 0
M  V30 6011 C 575.928 1.95073 1.23349 0
M  V30 6012 C 576.898 0.812238 1.44886 0
M  V30 6013 O 578.083 1.07095 1.57909 0
M  V30 6014 C 575.223 2.30124 2.57171 0
M  V30 6015 C 574.336 3.57069 2.43157 0
M  V30 6016 C 573.471 3.81411 3.69729 0
M  V30 6017 C 572.51 5.0176 3.50575 0
M  V30 6018 N 571.647 5.22321 4.69175 0
M  V30 6019 H 576.487 2.84171 0.89728 0
M  V30 6020 H 574.024 1.40623 0.431683 0
M  V30 6021 H 575.982 2.48463 3.35145 0
M  V30 6022 H 574.612 1.44159 2.88822 0
M  V30 6023 H 573.664 3.4674 1.56447 0
M  V30 6024 H 574.976 4.452 2.24942 0
M  V30 6025 H 574.13 4.00026 4.56141 0
M  V30 6026 H 572.869 2.91624 3.90905 0
M  V30 6027 H 571.874 4.83061 2.62549 0
M  V30 6028 H 573.099 5.93063 3.30837 0
M  V30 6029 H 571.045 4.35483 4.90602 0
M  V30 6030 H 570.962 6.04643 4.53809 0
M  V30 6031 H 572.23 5.45401 5.56919 0
M  V30 6032 N 576.459 -0.456382 1.50847 0
M  V30 6033 C 577.391 -1.57033 1.66953 0
M  V30 6034 C 578.404 -1.53207 0.550593 0
M  V30 6035 O 579.593 -1.58328 0.824285 0
M  V30 6036 C 576.693 -2.95937 1.65149 0
M  V30 6037 C 575.866 -3.24475 2.93317 0
M  V30 6038 C 574.925 -4.43007 2.83957 0
M  V30 6039 O 573.951 -4.42592 3.57912 0
M  V30 6040 N 575.153 -5.45503 1.9851 0
M  V30 6041 H 577.918 -1.43629 2.63042 0
M  V30 6042 H 575.479 -0.645037 1.48495 0
M  V30 6043 H 577.471 -3.73224 1.56481 0
M  V30 6044 H 576.041 -3.03036 0.767343 0
M  V30 6045 H 575.261 -2.35664 3.16 0
M  V30 6046 H 576.549 -3.4036 3.78196 0
M  V30 6047 H 575.947 -5.48668 1.37766 0
M  V30 6048 H 574.504 -6.21716 1.95735 0
M  V30 6049 N 577.937 -1.40673 -0.710563 0
M  V30 6050 C 579.183 -1.39428 -1.47267 0
M  V30 6051 C 579.516 0.00182129 -1.942 0
M  V30 6052 O 578.791 0.971387 -1.68506 0
M  V30 6053 C 579.074 -2.38812 -2.6952 0
M  V30 6054 C 578.927 -3.87467 -2.28449 0
M  V30 6055 C 580.246 -2.3566 -3.71689 0
M  V30 6056 H 577.365 -0.507768 -0.534173 0
M  V30 6057 H 580.007 -1.71843 -0.810547 0
M  V30 6058 H 578.157 -2.113 -3.26013 0
M  V30 6059 H 579.829 -4.25825 -1.77399 0
M  V30 6060 H 578.072 -4.03058 -1.60395 0
M  V30 6061 H 578.743 -4.5253 -3.16103 0
M  V30 6062 H 581.219 -2.6004 -3.24836 0
M  V30 6063 H 580.095 -3.07237 -4.54859 0
M  V30 6064 H 580.356 -1.36996 -4.20339 0
M  V30 6065 N 579.415 0.9433 -1.26252 0
M  V30 6066 C 580.662 1.68925 -1.11672 0
M  V30 6067 C 580.99 1.91499 0.340329 0
M  V30 6068 O 580.245 1.49189 1.26653 0
M  V30 6069 C 580.544 3.07073 -1.82868 0
M  V30 6070 C 580.21 3.04262 -3.32769 0
M  V30 6071 C 578.872 3.03203 -3.7366 0
M  V30 6072 C 581.224 2.96729 -4.28487 0
M  V30 6073 C 578.552 2.92373 -5.0866 0
M  V30 6074 C 580.904 2.87442 -5.63525 0
M  V30 6075 C 579.568 2.84724 -6.03729 0
M  V30 6076 H 578.838 0.618141 -0.408635 0
M  V30 6077 H 581.485 1.10124 -1.56668 0
M  V30 6078 H 579.79 3.69486 -1.30335 0
M  V30 6079 H 581.487 3.63635 -1.69029 0
M  V30 6080 H 578.077 3.05865 -3.00241 0
M  V30 6081 H 582.261 2.96658 -3.97879 0
M  V30 6082 H 577.517 2.88645 -5.38975 0
M  V30 6083 H 581.691 2.80576 -6.37377 0
M  V30 6084 H 579.318 2.76089 -7.08293 0
M  V30 6085 N 580.893 1.08022 1.14757 0
M  V30 6086 C 581.856 0.71048 2.1791 0
M  V30 6087 C 582.856 -0.252731 1.58801 0
M  V30 6088 O 584.046 -0.0327915 1.74169 0
M  V30 6089 C 581.178 0.0483203 3.40866 0
M  V30 6090 H 582.371 1.62384 2.52134 0
M  V30 6091 H 579.924 0.877595 1.29337 0
M  V30 6092 H 580.659 -0.876959 3.12218 0
M  V30 6093 H 580.444 0.741189 3.85031 0
M  V30 6094 H 581.934 -0.195471 4.17142 0
M  V30 6095 N 582.371 -1.3172 0.865308 0
M  V30 6096 C 583.281 -2.32394 0.320935 0
M  V30 6097 C 584.297 -1.64511 -0.566746 0
M  V30 6098 O 585.473 -1.95969 -0.464575 0
M  V30 6099 C 582.538 -3.43462 -0.472701 0
M  V30 6100 C 581.599 -4.27015 0.442385 0
M  V30 6101 C 580.832 -5.32779 -0.313469 0
M  V30 6102 O 581.055 -5.49158 -1.54214 0
M  V30 6103 O 579.989 -6.01015 0.326257 0
M  V30 6104 H 583.815 -2.80868 1.15528 0
M  V30 6105 H 581.4 -1.35535 0.628545 0
M  V30 6106 H 583.282 -4.11172 -0.922781 0
M  V30 6107 H 581.957 -2.97159 -1.28367 0
M  V30 6108 H 580.864 -3.62075 0.940866 0
M  V30 6109 H 582.197 -4.76871 1.21882 0
M  V30 6110 N 583.85 -0.624285 -1.44708 0
M  V30 6111 C 584.779 0.0717025 -2.3339 0
M  V30 6112 C 585.76 0.841814 -1.47809 0
M  V30 6113 O 586.946 0.809056 -1.76544 0
M  V30 6114 C 584.076 1.05852 -3.30776 0
M  V30 6115 C 583.029 0.400503 -4.26122 0
M  V30 6116 C 582.356 1.49674 -5.13324 0
M  V30 6117 C 583.656 -0.688924 -5.17737 0
M  V30 6118 H 585.35 -0.668819 -2.91834 0
M  V30 6119 H 582.896 -0.32308 -1.40329 0
M  V30 6120 H 584.849 1.5541 -3.91696 0
M  V30 6121 H 583.572 1.82984 -2.70526 0
M  V30 6122 H 582.231 -0.0743687 -3.66525 0
M  V30 6123 H 581.88 2.25877 -4.49431 0
M  V30 6124 H 581.58 1.06188 -5.77926 0
M  V30 6125 H 583.104 1.99427 -5.77115 0
M  V30 6126 H 584.518 -0.276724 -5.72632 0
M  V30 6127 H 582.915 -1.04652 -5.90904 0
M  V30 6128 H 583.985 -1.55884 -4.5916 0
M  V30 6129 N 585.328 1.53329 -0.364422 0
M  V30 6130 C 586.553 2.06132 0.229033 0
M  V30 6131 C 586.978 1.23625 1.41769 0
M  V30 6132 O 586.336 0.255038 1.79497 0
M  V30 6133 C 586.384 3.55544 0.60174 0
M  V30 6134 O 585.488 3.75771 1.69912 0
M  V30 6135 H 584.829 0.663148 0.0336213 0
M  V30 6136 H 587.359 1.97758 -0.524689 0
M  V30 6137 H 587.369 3.98549 0.873073 0
M  V30 6138 H 586.044 4.15039 -0.267421 0
M  V30 6139 H 584.621 3.44663 1.42343 0
M  V30 6140 N 586.806 0.0935595 1.57322 0
M  V30 6141 C 587.769 -0.851426 2.12799 0
M  V30 6142 C 588.769 -1.21187 1.0569 0
M  V30 6143 O 589.959 -1.14156 1.31583 0
M  V30 6144 C 587.091 -2.14779 2.64731 0
M  V30 6145 H 588.284 -0.369733 2.97612 0
M  V30 6146 H 585.837 -0.155417 1.55525 0
M  V30 6147 H 586.572 -2.67437 1.83434 0
M  V30 6148 H 586.357 -1.89907 3.43042 0
M  V30 6149 H 587.847 -2.82383 3.07651 0
M  V30 6150 N 588.284 -1.56567 -0.180126 0
M  V30 6151 C 589.53 -1.81761 -0.899497 0
M  V30 6152 C 589.863 -0.670015 -1.82276 0
M  V30 6153 O 589.138 0.328575 -1.91705 0
M  V30 6154 C 589.421 -3.17296 -1.7028 0
M  V30 6155 C 589.274 -4.4257 -0.803255 0
M  V30 6156 C 590.593 -3.49678 -2.67233 0
M  V30 6157 H 587.712 -0.661192 -0.325567 0
M  V30 6158 H 590.354 -1.89272 -0.16612 0
M  V30 6159 H 588.504 -3.11023 -2.32802 0
M  V30 6160 H 590.176 -4.60902 -0.191585 0
M  V30 6161 H 588.419 -4.33658 -0.110796 0
M  V30 6162 H 589.09 -5.33935 -1.40064 0
M  V30 6163 H 591.566 -3.56347 -2.14839 0
M  V30 6164 H 590.442 -4.45605 -3.20511 0
M  V30 6165 H 590.703 -2.73932 -3.47007 0
M  V30 6166 N 589.762 0.448376 -1.51087 0
M  V30 6167 C 591.002 1.20832 -1.64861 0
M  V30 6168 C 591.366 1.88748 -0.351873 0
M  V30 6169 O 592.567 2.66307 -0.365265 0
M  V30 6170 C 590.838 2.20674 -2.81137 0
M  V30 6171 S 592.397 3.05303 -3.15176 0
M  V30 6172 H 589.215 0.40992 -0.580936 0
M  V30 6173 H 591.817 0.501624 -1.88955 0
M  V30 6174 H 590.521 1.69399 -3.73808 0
M  V30 6175 H 590.052 2.9594 -2.59198 0
M  V30 6176 H 592.067 4.22162 -2.60756 0
M  V30 6177 N 591.24 1.41047 0.703093 0
M  V30 6178 C 592.187 1.42302 1.81711 0
M  V30 6179 C 593.157 0.278336 1.63751 0
M  V30 6180 O 594.342 0.478266 1.84709 0
M  V30 6181 C 591.482 1.30362 3.19531 0
M  V30 6182 C 590.595 2.54638 3.48975 0
M  V30 6183 C 589.73 2.35047 4.76368 0
M  V30 6184 C 588.769 3.54837 4.98756 0
M  V30 6185 N 587.906 3.34363 6.1737 0
M  V30 6186 H 592.746 2.37516 1.79973 0
M  V30 6187 H 590.283 1.1795 0.878983 0
M  V30 6188 H 592.241 1.21443 3.99134 0
M  V30 6189 H 590.871 0.387602 3.20464 0
M  V30 6190 H 589.923 2.74037 2.63833 0
M  V30 6191 H 591.235 3.43766 3.61423 0
M  V30 6192 H 590.389 2.23552 5.64012 0
M  V30 6193 H 589.128 1.43363 4.66153 0
M  V30 6194 H 588.133 3.66795 4.09563 0
M  V30 6195 H 589.358 4.47464 5.10835 0
M  V30 6196 H 587.304 2.45373 6.08382 0
M  V30 6197 H 587.221 4.17063 6.30551 0
M  V30 6198 H 588.489 3.26626 7.07768 0
M  V30 6199 N 592.718 -0.936591 1.26751 0
M  V30 6200 C 594.129 -1.49816 1.1141 0
M  V30 6201 C 594.48 -1.9383 -0.304015 0
M  V30 6202 O 593.605 -1.80346 -1.196 0
M  V30 6203 C 594.2 -2.72271 2.01629 0
M  V30 6204 C 592.759 -3.2468 1.9042 0
M  V30 6205 C 591.906 -1.97444 1.94708 0
M  V30 6206 H 594.857 -0.751604 1.39773 0
M  V30 6207 H 594.878 -3.46741 1.56688 0
M  V30 6208 H 594.39 -2.40205 3.04833 0
M  V30 6209 H 592.491 -3.61525 0.901674 0
M  V30 6210 H 592.604 -3.91476 2.76195 0
M  V30 6211 H 590.968 -2.13545 1.38818 0
M  V30 6212 H 591.751 -1.67703 2.9955 0
M  V30 6213 N 594.196 -1.08629 -1.14182 0
M  V30 6214 C 595.106 -0.730126 -2.22949 0
M  V30 6215 C 596.122 0.26436 -1.7198 0
M  V30 6216 O 597.298 0.107742 -2.01112 0
M  V30 6217 C 594.363 -0.147227 -3.46387 0
M  V30 6218 C 593.424 -1.19662 -4.12286 0
M  V30 6219 C 592.657 -0.641437 -5.29831 0
M  V30 6220 O 592.88 0.538351 -5.67854 0
M  V30 6221 O 591.814 -1.39257 -5.85569 0
M  V30 6222 H 595.64 -1.63753 -2.55771 0
M  V30 6223 H 593.225 -0.860118 -1.22157 0
M  V30 6224 H 595.107 0.174923 -4.21037 0
M  V30 6225 H 593.782 0.733304 -3.15285 0
M  V30 6226 H 592.689 -1.57133 -3.395 0
M  V30 6227 H 594.022 -2.0495 -4.475 0
M  V30 6228 N 595.674 1.31259 -0.872281 0
M  V30 6229 C 596.637 2.26744 -0.334656 0
M  V30 6230 C 597.637 1.52307 0.515681 0
M  V30 6231 O 598.827 1.71148 0.324656 0
M  V30 6232 C 595.959 3.36841 0.524482 0
M  V30 6233 H 597.152 2.75812 -1.17762 0
M  V30 6234 H 594.705 1.42232 -0.648064 0
M  V30 6235 H 595.44 2.93069 1.38855 0
M  V30 6236 H 595.225 3.92009 -0.0844299 0
M  V30 6237 H 596.715 4.07944 0.892838 0
M  V30 6238 N 597.152 0.631951 1.44375 0
M  V30 6239 C 598.399 0.136767 2.02038 0
M  V30 6240 C 598.727 -1.24168 1.49709 0
M  V30 6241 O 597.982 -1.83809 0.671763 0
M  V30 6242 C 598.281 0.0735861 3.57324 0
M  V30 6243 C 597.947 1.39092 4.28911 0
M  V30 6244 C 596.609 1.75171 4.48184 0
M  V30 6245 C 598.961 2.26042 4.69632 0
M  V30 6246 C 596.289 2.97907 5.05439 0
M  V30 6247 C 598.641 3.4805 5.28246 0
M  V30 6248 C 597.305 3.84351 5.45738 0
M  V30 6249 H 596.575 0.0500466 0.739308 0
M  V30 6250 H 599.222 0.818429 1.7313 0
M  V30 6251 H 597.527 -0.691449 3.8565 0
M  V30 6252 H 599.224 -0.326091 3.99672 0
M  V30 6253 H 595.814 1.10015 4.1424 0
M  V30 6254 H 599.998 1.99463 4.54454 0
M  V30 6255 H 595.254 3.26108 5.17169 0
M  V30 6256 H 599.428 4.15658 5.5875 0
M  V30 6257 H 597.055 4.79538 5.8987 0
M  V30 6258 N 598.631 -1.53133 0.372548 0
M  V30 6259 C 599.561 -2.28876 -0.462412 0
M  V30 6260 C 600.542 -1.31583 -1.07796 0
M  V30 6261 O 601.727 -1.60461 -1.09389 0
M  V30 6262 C 598.857 -3.08317 -1.59868 0
M  V30 6263 C 597.811 -4.13355 -1.11003 0
M  V30 6264 C 597.137 -4.8092 -2.33708 0
M  V30 6265 C 598.437 -5.21955 -0.18983 0
M  V30 6266 H 600.131 -2.9892 0.169511 0
M  V30 6267 H 597.677 -1.43761 0.0829658 0
M  V30 6268 H 599.63 -3.60055 -2.18949 0
M  V30 6269 H 598.354 -2.35976 -2.25794 0
M  V30 6270 H 597.013 -3.62573 -0.541869 0
M  V30 6271 H 596.661 -4.05144 -2.98106 0
M  V30 6272 H 596.361 -5.51904 -2.01682 0
M  V30 6273 H 597.885 -5.35455 -2.93462 0
M  V30 6274 H 599.299 -5.69153 -0.688319 0
M  V30 6275 H 597.696 -6.00087 0.0398887 0
M  V30 6276 H 598.766 -4.78811 0.766057 0
M  V30 6277 N 600.109 -0.101901 -1.5727 0
M  V30 6278 C 601.349 0.563489 -1.96479 0
M  V30 6279 C 601.713 1.64926 -0.983021 0
M  V30 6280 O 602.914 2.37234 -1.26386 0
M  V30 6281 C 601.185 1.09809 -3.40113 0
M  V30 6282 S 602.744 1.7744 -4.01323 0
M  V30 6283 H 599.562 0.183675 -0.686866 0
M  V30 6284 H 602.164 -0.182922 -1.94642 0
M  V30 6285 H 600.868 0.296447 -4.09328 0
M  V30 6286 H 600.399 1.88018 -3.45562 0
M  V30 6287 H 602.414 3.0591 -3.90683 0
M  V30 6288 N 601.587 1.56661 0.17182 0
M  V30 6289 C 602.815 1.861 0.904115 0
M  V30 6290 C 603.23 0.687227 1.75848 0
M  V30 6291 O 602.587 -0.343671 1.79235 0
M  V30 6292 C 602.638 3.14568 1.78127 0
M  V30 6293 O 602.359 4.27422 0.961366 0
M  V30 6294 C 603.86 3.5735 2.62327 0
M  V30 6295 H 601.08 0.617445 0.262684 0
M  V30 6296 H 603.624 2.03775 0.172068 0
M  V30 6297 H 601.779 2.98721 2.46666 0
M  V30 6298 H 602.193 5.00725 1.56123 0
M  V30 6299 H 603.667 4.50144 3.1949 0
M  V30 6300 H 604.144 2.81445 3.37173 0
M  V30 6301 H 604.75 3.75807 1.99121 0
M  V30 6302 N 603.065 -0.440357 1.51323 0
M  V30 6303 C 604.013 -1.55492 1.72988 0
M  V30 6304 C 605.007 -1.58564 0.596138 0
M  V30 6305 O 606.213 -1.62345 0.777443 0
M  V30 6306 H 602.588 -0.516532 0.546533 0
M  V30 6307 H 604.559 -1.34392 2.66423 0
M  V30 6308 C 603.308 -2.93176 1.86931 0
M  V30 6309 H 602.631 -2.91543 2.73574 0
M  V30 6310 H 604.071 -3.70537 2.06103 0
M  V30 6311 C 602.53 -3.30988 0.628365 0
M  V30 6312 O 603.06 -4.01106 -0.218367 0
M  V30 6313 N 601.266 -2.86719 0.473339 0
M  V30 6314 H 600.813 -2.2983 1.16345 0
M  V30 6315 H 600.771 -3.12381 -0.355727 0
M  V30 6316 N 604.543 -1.41418 -0.695603 0
M  V30 6317 C 605.771 -1.4413 -1.48439 0
M  V30 6318 C 606.186 -0.0465698 -1.88743 0
M  V30 6319 O 605.543 0.934117 -1.56782 0
M  V30 6320 C 605.594 -2.34998 -2.74696 0
M  V30 6321 O 605.315 -3.69043 -2.36091 0
M  V30 6322 C 606.816 -2.46513 -3.68438 0
M  V30 6323 H 604.036 -0.490905 -0.457442 0
M  V30 6324 H 606.58 -1.85702 -0.856454 0
M  V30 6325 H 604.735 -1.96735 -3.33728 0
M  V30 6326 H 605.149 -4.17505 -3.17474 0
M  V30 6327 H 606.623 -3.1426 -4.53811 0
M  V30 6328 H 607.1 -1.49638 -4.12922 0
M  V30 6329 H 607.706 -2.85412 -3.1531 0
M  V30 6330 N 606.021 0.929856 -1.27246 0
M  V30 6331 C 607.246 1.71674 -1.16374 0
M  V30 6332 C 607.671 1.86064 0.276024 0
M  V30 6333 O 607.029 1.3591 1.19992 0
M  V30 6334 C 607.077 3.09526 -1.85003 0
M  V30 6335 O 606.181 3.96142 -1.14653 0
M  V30 6336 H 605.522 0.52629 -0.404863 0
M  V30 6337 H 608.052 1.16381 -1.68276 0
M  V30 6338 H 608.062 3.59852 -1.92276 0
M  V30 6339 H 606.737 2.98369 -2.89739 0
M  V30 6340 H 605.314 3.54584 -1.15433 0
M  V30 6341 N 607.499 1.09233 1.13605 0
M  V30 6342 C 608.462 0.733553 2.17144 0
M  V30 6343 C 609.462 -0.235873 1.59061 0
M  V30 6344 O 610.652 -0.0143167 1.74194 0
M  V30 6345 C 607.784 0.084471 3.40795 0
M  V30 6346 H 608.977 1.65049 2.50397 0
M  V30 6347 H 606.53 0.891264 1.28399 0
M  V30 6348 H 607.265 -0.843795 3.1313 0
M  V30 6349 H 607.05 0.781985 3.84223 0
M  V30 6350 H 608.54 -0.151216 4.17326 0
M  V30 6351 N 608.977 -1.30795 0.87923 0
M  V30 6352 C 609.907 -2.30742 0.357796 0
M  V30 6353 C 610.888 -1.60747 -0.556283 0
M  V30 6354 O 612.073 -1.88393 -0.47135 0
M  V30 6355 C 609.203 -3.44583 -0.433555 0
M  V30 6356 C 608.157 -4.26235 0.388251 0
M  V30 6357 C 607.483 -5.32073 -0.529352 0
M  V30 6358 C 608.783 -4.96303 1.62729 0
M  V30 6359 H 610.477 -2.74605 1.19299 0
M  V30 6360 H 608.023 -1.32017 0.575104 0
M  V30 6361 H 609.976 -4.13563 -0.808934 0
M  V30 6362 H 608.7 -2.99511 -1.30234 0
M  V30 6363 H 607.359 -3.58936 0.745695 0
M  V30 6364 H 607.007 -4.83249 -1.39569 0
M  V30 6365 H 606.707 -5.87598 0.0166741 0
M  V30 6366 H 608.231 -6.0391 -0.901373 0
M  V30 6367 H 609.645 -5.5783 1.32283 0
M  V30 6368 H 608.042 -5.61666 2.11309 0
M  V30 6369 H 609.112 -4.22758 2.37494 0
M  V30 6370 N 610.455 -0.639598 -1.44038 0
M  V30 6371 C 611.732 -0.078012 -1.95444 0
M  V30 6372 C 612.112 1.39847 -1.58133 0
M  V30 6373 O 611.46 2.11714 -0.859614 0
M  V30 6374 C 611.67 -0.309832 -3.47622 0
M  V30 6375 C 613.018 -0.207521 -4.24093 0
M  V30 6376 O 614.042 -0.241653 -3.55379 0
M  V30 6377 O 612.901 -0.119641 -5.46369 0
M  V30 6378 H 609.995 0.0174534 -0.826816 0
M  V30 6379 H 612.541 -0.711891 -1.54046 0
M  V30 6380 H 611.313 -1.33401 -3.67858 0
M  V30 6381 H 610.936 0.357777 -3.95987 0
M  V30 6382 N 611.933 1.52934 -0.380664 0
M  V30 6383 C 613.179 2.01765 0.20458 0
M  V30 6384 C 613.512 1.26696 1.47179 0
M  V30 6385 O 612.787 0.364936 1.91046 0
M  V30 6386 C 613.07 3.56869 0.481269 0
M  V30 6387 C 612.923 4.42617 -0.800629 0
M  V30 6388 C 614.242 4.2121 1.27554 0
M  V30 6389 H 611.361 0.733388 0.0728803 0
M  V30 6390 H 614.003 1.83068 -0.50853 0
M  V30 6391 H 612.153 3.72932 1.08875 0
M  V30 6392 H 613.825 4.38323 -1.43773 0
M  V30 6393 H 612.068 4.09977 -1.4178 0
M  V30 6394 H 612.739 5.49134 -0.561791 0
M  V30 6395 H 615.215 4.09072 0.761514 0
M  V30 6396 H 614.091 5.29732 1.43788 0
M  V30 6397 H 614.352 3.78269 2.28833 0
M  V30 6398 N 613.412 0.11024 1.57214 0
M  V30 6399 C 614.689 -0.592956 1.86396 0
M  V30 6400 C 615.069 -1.85379 1.00985 0
M  V30 6401 O 614.417 -2.28337 0.0863592 0
M  V30 6402 C 614.627 -0.893816 3.3736 0
M  V30 6403 C 615.975 -1.25069 4.05762 0
M  V30 6404 O 616.999 -0.984356 3.42329 0
M  V30 6405 O 615.858 -1.75017 5.17718 0
M  V30 6406 H 612.952 -0.29828 0.771335 0
M  V30 6407 H 615.498 0.144083 1.69087 0
M  V30 6408 H 614.27 2.6031e-05 3.913 0
M  V30 6409 H 613.893 -1.68631 3.60068 0
M  V30 6410 N 614.89 -1.56749 -0.16351 0
M  V30 6411 C 615.8 -2.00255 -1.2221 0
M  V30 6412 C 616.816 -0.915194 -1.47987 0
M  V30 6413 O 617.992 -1.22342 -1.59982 0
M  V30 6414 C 615.057 -2.36035 -2.53946 0
M  V30 6415 C 614.118 -3.58637 -2.35962 0
M  V30 6416 C 613.351 -3.92701 -3.61416 0
M  V30 6417 O 613.574 -3.27632 -4.66919 0
M  V30 6418 O 612.508 -4.86019 -3.55062 0
M  V30 6419 H 616.334 -2.90586 -0.882794 0
M  V30 6420 H 613.919 -1.44721 -0.370978 0
M  V30 6421 H 615.801 -2.59982 -3.31643 0
M  V30 6422 H 614.476 -1.48863 -2.8744 0
M  V30 6423 H 613.383 -3.39898 -1.5627 0
M  V30 6424 H 614.716 -4.46374 -2.0739 0
M  V30 6425 N 616.368 0.432326 -1.51554 0
M  V30 6426 C 617.617 1.17831 -1.63703 0
M  V30 6427 C 617.93 1.92229 -0.36156 0
M  V30 6428 O 619.136 2.69069 -0.362495 0
M  V30 6429 C 617.592 2.14318 -2.89129 0
M  V30 6430 C 617.2 1.45544 -4.23699 0
M  V30 6431 C 618.944 2.89319 -3.10636 0
M  V30 6432 C 616.851 2.40545 -5.4027 0
M  V30 6433 H 615.781 0.443533 -0.60975 0
M  V30 6434 H 618.432 0.444878 -1.78026 0
M  V30 6435 H 616.814 2.91117 -2.68452 0
M  V30 6436 H 617.988 0.742693 -4.54775 0
M  V30 6437 H 616.303 0.826772 -4.0811 0
M  V30 6438 H 618.9 3.60495 -3.94902 0
M  V30 6439 H 619.243 3.50951 -2.23918 0
M  V30 6440 H 619.776 2.19625 -3.31677 0
M  V30 6441 H 616.515 1.83594 -6.29264 0
M  V30 6442 H 616.035 3.09859 -5.13563 0
M  V30 6443 H 617.714 3.01569 -5.72421 0
M  V30 6444 N 617.846 1.41785 0.688094 0
M  V30 6445 C 618.809 1.43936 1.78368 0
M  V30 6446 C 619.809 0.328866 1.57401 0
M  V30 6447 O 620.999 0.589093 1.63937 0
M  V30 6448 C 618.131 1.25804 3.16838 0
M  V30 6449 H 619.324 2.41472 1.77852 0
M  V30 6450 H 616.877 1.28037 0.896448 0
M  V30 6451 H 617.612 0.291386 3.22988 0
M  V30 6452 H 617.397 2.06272 3.33458 0
M  V30 6453 H 618.887 1.30162 3.96797 0
M  V30 6454 N 619.324 -0.923095 1.27737 0
M  V30 6455 C 620.549 -1.71054 1.17283 0
M  V30 6456 C 620.974 -1.86208 -0.266153 0
M  V30 6457 O 620.332 -1.36545 -1.1927 0
M  V30 6458 C 620.38 -3.0854 1.86642 0
M  V30 6459 O 619.484 -3.95528 1.16752 0
M  V30 6460 H 618.825 -0.524136 0.407649 0
M  V30 6461 H 621.355 -1.15487 1.6889 0
M  V30 6462 H 621.365 -3.58828 1.94182 0
M  V30 6463 H 620.04 -2.96828 2.91317 0
M  V30 6464 H 618.617 -3.53967 1.17312 0
M  V30 6465 N 620.802 -1.09834 -1.13024 0
M  V30 6466 C 622.027 -0.85909 -1.88771 0
M  V30 6467 C 622.452 0.584402 -1.78791 0
M  V30 6468 O 621.81 1.41101 -1.13842 0
M  V30 6469 C 621.858 -1.30427 -3.36186 0
M  V30 6470 O 620.962 -0.465368 -4.09766 0
M  V30 6471 H 620.303 -0.310786 -0.586778 0
M  V30 6472 H 622.833 -1.46355 -1.42973 0
M  V30 6473 H 622.843 -1.2915 -3.8702 0
M  V30 6474 H 621.518 -2.3555 -3.42767 0
M  V30 6475 H 620.095 -0.542814 -3.68928 0
M  V30 6476 N 622.28 1.30327 -0.886154 0
M  V30 6477 C 623.508 2.00254 -0.520176 0
M  V30 6478 C 623.923 1.66419 0.891637 0
M  V30 6479 O 623.28 0.901951 1.58654 0
M  V30 6480 C 623.331 3.54916 -0.686775 0
M  V30 6481 O 623.052 3.87547 -2.04301 0
M  V30 6482 C 624.553 4.42115 -0.323945 0
M  V30 6483 H 621.773 0.640204 -0.200947 0
M  V30 6484 H 624.317 1.66183 -1.19178 0
M  V30 6485 H 622.472 3.8735 -0.0625273 0
M  V30 6486 H 622.886 4.82247 -2.06249 0
M  V30 6487 H 624.36 5.49808 -0.491407 0
M  V30 6488 H 624.837 4.32953 0.73811 0
M  V30 6489 H 625.443 4.15129 -0.924565 0
M  V30 6490 N 623.758 0.647228 1.43697 0
M  V30 6491 C 625.035 0.0883758 1.954 0
M  V30 6492 C 625.415 -1.39006 1.58873 0
M  V30 6493 O 624.763 -2.11255 0.87083 0
M  V30 6494 C 624.973 0.328263 3.47453 0
M  V30 6495 C 626.321 0.230009 4.23977 0
M  V30 6496 O 627.345 0.260496 3.55246 0
M  V30 6497 O 626.204 0.148615 5.46298 0
M  V30 6498 H 623.298 -0.0130683 0.826897 0
M  V30 6499 H 625.844 0.72005 1.53666 0
M  V30 6500 H 624.616 1.3535 3.67146 0
M  V30 6501 H 624.239 -0.336772 3.96171 0
M  V30 6502 N 625.236 -1.5273 0.388769 0
M  V30 6503 C 626.652 -1.59553 0.0387049 0
M  V30 6504 C 626.852 -1.40278 -1.44652 0
M  V30 6505 O 625.908 -1.21951 -2.21098 0
M  V30 6506 C 627.221 -2.9625 0.515409 0
M  V30 6507 C 628.769 -3.09426 0.471621 0
M  V30 6508 C 629.244 -4.48572 0.924505 0
M  V30 6509 N 630.735 -4.54754 0.880496 0
M  V30 6510 C 631.47 -5.60653 1.20234 0
M  V30 6511 N 630.966 -6.74198 1.59463 0
M  V30 6512 N 632.759 -5.50755 1.12363 0
M  V30 6513 H 624.91 -1.63508 1.35569 0
M  V30 6514 H 627.173 -0.768097 0.555636 0
M  V30 6515 H 626.879 -3.15569 1.5527 0
M  V30 6516 H 626.753 -3.77102 -0.085792 0
M  V30 6517 H 629.14 -2.89804 -0.556588 0
M  V30 6518 H 629.221 -2.30528 1.10862 0
M  V30 6519 H 628.865 -4.68936 1.95094 0
M  V30 6520 H 628.795 -5.25935 0.264524 0
M  V30 6521 H 631.286 -3.73237 0.591815 0
M  V30 6522 H 631.599 -7.5097 1.82385 0
M  V30 6523 H 629.944 -6.75531 1.63349 0
M  V30 6524 H 633.135 -4.6093 0.816169 0
M  V30 6525 H 633.308 -6.33184 1.37777 0
M  V30 6526 N 626.714 -0.118576 -1.57153 0
M  V30 6527 C 628.125 0.40687 -1.82213 0
M  V30 6528 C 628.476 1.66636 -1.03571 0
M  V30 6529 O 627.601 2.14682 -0.272171 0
M  V30 6530 C 628.196 0.744949 -3.30509 0
M  V30 6531 C 626.755 1.21503 -3.5625 0
M  V30 6532 C 625.902 0.223511 -2.76398 0
M  V30 6533 H 628.853 -0.343712 -1.54933 0
M  V30 6534 H 628.874 1.6024 -3.45114 0
M  V30 6535 H 628.386 -0.171911 -3.87719 0
M  V30 6536 H 626.487 2.1488 -3.04396 0
M  V30 6537 H 626.6 1.16065 -4.64829 0
M  V30 6538 H 624.964 0.71046 -2.44591 0
M  V30 6539 H 625.747 -0.686439 -3.36367 0
M  V30 6540 N 628.193 1.56834 0.155195 0
M  V30 6541 C 629.143 1.94061 1.19684 0
M  V30 6542 C 630.127 0.810851 1.38975 0
M  V30 6543 O 631.319 1.07422 1.40675 0
M  V30 6544 C 628.448 2.31778 2.53247 0
M  V30 6545 C 627.534 3.51305 2.37583 0
M  V30 6546 N 627.925 4.68081 1.9166 0
M  V30 6547 C 626.223 3.56228 2.6836 0
M  V30 6548 C 626.924 5.50193 1.88845 0
M  V30 6549 N 625.9 4.91676 2.31852 0
M  V30 6550 H 629.702 2.81826 0.833747 0
M  V30 6551 H 627.216 1.58284 0.363328 0
M  V30 6552 H 629.213 2.56649 3.28538 0
M  V30 6553 H 627.873 1.4536 2.90346 0
M  V30 6554 H 628.884 4.91993 1.6175 0
M  V30 6555 H 625.561 2.8033 3.09389 0
M  V30 6556 H 626.951 6.53801 1.54901 0
M  V30 6557 N 629.671 -0.424282 1.51781 0
M  V30 6558 C 630.601 -1.52305 1.7699 0
M  V30 6559 C 631.582 -1.5839 0.620209 0
M  V30 6560 O 632.767 -1.73908 0.864268 0
M  V30 6561 C 629.897 -2.90271 1.90683 0
M  V30 6562 C 628.851 -2.99043 3.06198 0
M  V30 6563 C 628.177 -4.39116 3.05092 0
M  V30 6564 C 629.477 -2.7192 4.45934 0
M  V30 6565 H 631.171 -1.31461 2.68995 0
M  V30 6566 H 628.717 -0.630985 1.29439 0
M  V30 6567 H 630.67 -3.6711 2.06901 0
M  V30 6568 H 629.394 -3.12376 0.953365 0
M  V30 6569 H 628.053 -2.24646 2.89706 0
M  V30 6570 H 627.701 -4.58207 2.07498 0
M  V30 6571 H 627.401 -4.45912 3.82669 0
M  V30 6572 H 628.925 -5.17911 3.2342 0
M  V30 6573 H 630.339 -3.38487 4.62709 0
M  V30 6574 H 628.736 -2.90111 5.25315 0
M  V30 6575 H 629.806 -1.67445 4.55072 0
M  V30 6576 N 631.149 -1.42148 -0.680565 0
M  V30 6577 C 632.395 -1.42521 -1.44277 0
M  V30 6578 C 632.728 -0.0393718 -1.9416 0
M  V30 6579 O 632.003 0.935425 -1.70529 0
M  V30 6580 C 632.286 -2.44475 -2.64394 0
M  V30 6581 C 632.139 -3.92226 -2.20179 0
M  V30 6582 C 633.458 -2.43491 -3.66606 0
M  V30 6583 H 630.577 -0.518985 -0.523282 0
M  V30 6584 H 633.219 -1.73524 -0.773914 0
M  V30 6585 H 631.369 -2.18168 -3.21458 0
M  V30 6586 H 633.041 -4.29493 -1.68327 0
M  V30 6587 H 631.284 -4.0637 -1.5181 0
M  V30 6588 H 631.955 -4.59133 -3.06433 0
M  V30 6589 H 634.431 -2.66872 -3.19247 0
M  V30 6590 H 633.307 -3.16816 -4.4824 0
M  V30 6591 H 633.568 -1.45881 -4.17338 0
M  V30 6592 N 632.627 0.916307 -1.28225 0
M  V30 6593 C 633.876 1.65975 -1.14608 0
M  V30 6594 C 634.189 1.93204 0.305191 0
M  V30 6595 O 635.395 2.65611 0.562432 0
M  V30 6596 C 633.851 2.98989 -2.00333 0
M  V30 6597 C 633.459 2.79417 -3.50186 0
M  V30 6598 C 635.203 3.76856 -1.95397 0
M  V30 6599 C 633.11 4.08056 -4.28071 0
M  V30 6600 H 632.04 0.622587 -0.425324 0
M  V30 6601 H 634.691 1.01705 -1.52736 0
M  V30 6602 H 633.073 3.6438 -1.5506 0
M  V30 6603 H 634.247 2.22723 -4.034 0
M  V30 6604 H 632.562 2.14966 -3.56621 0
M  V30 6605 H 635.159 4.72203 -2.50856 0
M  V30 6606 H 635.502 4.05776 -0.930137 0
M  V30 6607 H 636.035 3.1828 -2.38626 0
M  V30 6608 H 632.774 3.8431 -5.31024 0
M  V30 6609 H 632.294 4.64371 -3.79631 0
M  V30 6610 H 633.973 4.76333 -4.37854 0
M  V30 6611 N 634.105 1.10431 1.1244 0
M  V30 6612 C 635.353 0.845045 1.83585 0
M  V30 6613 C 635.674 -0.631168 1.84503 0
M  V30 6614 O 634.944 -1.45825 1.30813 0
M  V30 6615 H 633.524 0.309628 0.679809 0
M  V30 6616 H 636.186 1.39458 1.36153 0
M  V30 6617 H 635.282 1.20786 2.8778 0
M  V30 6618 N 635.583 -1.29855 0.893053 0
M  V30 6619 C 636.811 -1.99976 0.530788 0
M  V30 6620 C 637.226 -1.66889 -0.882799 0
M  V30 6621 O 636.583 -0.910352 -1.58173 0
M  V30 6622 C 636.634 -3.54547 0.705587 0
M  V30 6623 O 636.355 -3.86458 2.06353 0
M  V30 6624 C 637.856 -4.41937 0.347387 0
M  V30 6625 H 635.076 -0.639129 0.204339 0
M  V30 6626 H 637.62 -1.65549 1.20057 0
M  V30 6627 H 635.775 -3.87311 0.0830685 0
M  V30 6628 H 636.189 -4.81146 2.08803 0
M  V30 6629 H 637.663 -5.4954 0.520557 0
M  V30 6630 H 638.14 -4.33339 -0.715139 0
M  V30 6631 H 638.746 -4.14633 0.946567 0
M  V30 6632 N 637.061 -0.65484 -1.43351 0
M  V30 6633 C 638.011 0.0581325 -2.27926 0
M  V30 6634 C 638.995 0.793188 -1.3999 0
M  V30 6635 O 640.187 0.675387 -1.63608 0
M  V30 6636 C 637.316 1.02272 -3.27712 0
M  V30 6637 C 636.402 0.286048 -4.23134 0
M  V30 6638 N 636.793 -0.698298 -5.00957 0
M  V30 6639 C 635.091 0.527272 -4.42872 0
M  V30 6640 C 635.792 -1.1357 -5.70506 0
M  V30 6641 N 634.768 -0.469631 -5.41568 0
M  V30 6642 H 638.57 -0.697182 -2.85511 0
M  V30 6643 H 636.084 -0.482252 -1.55074 0
M  V30 6644 H 638.081 1.5483 -3.87083 0
M  V30 6645 H 636.741 1.77807 -2.71688 0
M  V30 6646 H 637.752 -1.07708 -5.06576 0
M  V30 6647 H 634.429 1.26367 -3.97916 0
M  V30 6648 H 635.819 -1.95027 -6.42973 0
M  V30 6649 N 638.539 1.52521 -0.396863 0
M  V30 6650 C 639.786 2.01672 0.182898 0
M  V30 6651 C 640.114 1.28302 1.46181 0
M  V30 6652 O 639.369 0.374118 1.92091 0
M  V30 6653 C 639.668 3.5403 0.489677 0
M  V30 6654 C 639.334 4.45456 -0.698581 0
M  V30 6655 C 637.996 4.70166 -1.02454 0
M  V30 6656 C 640.348 4.99354 -1.49316 0
M  V30 6657 C 637.676 5.46024 -2.1465 0
M  V30 6658 C 640.028 5.76439 -2.60579 0
M  V30 6659 C 638.692 5.99426 -2.93675 0
M  V30 6660 H 637.962 0.737971 0.066927 0
M  V30 6661 H 640.609 1.83853 -0.535764 0
M  V30 6662 H 638.914 3.69963 1.28976 0
M  V30 6663 H 640.611 3.8956 0.951018 0
M  V30 6664 H 637.201 4.26392 -0.434525 0
M  V30 6665 H 641.385 4.80182 -1.25457 0
M  V30 6666 H 636.641 5.62046 -2.40654 0
M  V30 6667 H 640.815 6.17202 -3.22544 0
M  V30 6668 H 638.442 6.57988 -3.80731 0
M  V30 6669 N 640.017 0.126909 1.57088 0
M  V30 6670 C 641.264 -0.529168 1.95464 0
M  V30 6671 C 641.592 -1.6618 1.01067 0
M  V30 6672 O 640.847 -1.95667 0.0360254 0
M  V30 6673 C 641.146 -1.095 3.40212 0
M  V30 6674 C 640.812 -0.0829015 4.50824 0
M  V30 6675 C 639.474 0.195377 4.80803 0
M  V30 6676 C 641.826 0.606411 5.1766 0
M  V30 6677 C 639.154 1.16912 5.74933 0
M  V30 6678 C 641.506 1.56884 6.12838 0
M  V30 6679 C 640.17 1.85502 6.41206 0
M  V30 6680 H 639.44 -0.193636 0.715252 0
M  V30 6681 H 642.087 0.209489 1.90351 0
M  V30 6682 H 640.392 -1.91058 3.42059 0
M  V30 6683 H 642.089 -1.61087 3.67222 0
M  V30 6684 H 638.679 -0.309979 4.27478 0
M  V30 6685 H 642.863 0.404597 4.94648 0
M  V30 6686 H 638.119 1.3975 5.95214 0
M  V30 6687 H 642.293 2.10859 6.6371 0
M  V30 6688 H 639.92 2.61109 7.13951 0
M  V30 6689 N 641.495 -1.56914 -0.146875 0
M  V30 6690 C 642.72 -1.87881 -0.878386 0
M  V30 6691 C 643.145 -0.715945 -1.73942 0
M  V30 6692 O 642.503 0.334447 -1.78189 0
M  V30 6693 C 642.551 -3.17431 -1.71084 0
M  V30 6694 O 641.655 -3.01374 -2.81509 0
M  V30 6695 H 640.996 -0.617289 -0.244644 0
M  V30 6696 H 643.526 -2.04136 -0.137654 0
M  V30 6697 H 643.536 -3.49455 -2.10582 0
M  V30 6698 H 642.211 -4.01671 -1.07856 0
M  V30 6699 H 640.788 -2.80758 -2.45416 0
M  V30 6700 N 642.974 0.416227 -1.52004 0
M  V30 6701 C 644.385 0.995319 -1.57957 0
M  V30 6702 C 644.736 1.91744 -0.415754 0
M  V30 6703 O 643.861 2.11349 0.464808 0
M  V30 6704 C 644.456 1.81191 -2.86278 0
M  V30 6705 C 643.015 2.34115 -2.94732 0
M  V30 6706 C 642.162 1.139 -2.52828 0
M  V30 6707 H 645.113 0.196716 -1.57476 0
M  V30 6708 H 645.134 2.66859 -2.71231 0
M  V30 6709 H 644.646 1.14051 -3.70963 0
M  V30 6710 H 642.747 3.04647 -2.14525 0
M  V30 6711 H 642.86 2.65466 -3.98829 0
M  V30 6712 H 641.224 1.49081 -2.06511 0
M  V30 6713 H 642.007 0.483383 -3.3988 0
M  V30 6714 N 644.452 1.42507 0.673017 0
M  V30 6715 C 645.415 1.4582 1.76831 0
M  V30 6716 C 646.415 0.345542 1.57043 0
M  V30 6717 O 647.605 0.606447 1.63303 0
M  V30 6718 C 644.737 1.29158 3.15485 0
M  V30 6719 H 645.93 2.43345 1.7528 0
M  V30 6720 H 643.483 1.28981 0.882817 0
M  V30 6721 H 644.218 0.325626 3.22661 0
M  V30 6722 H 644.003 2.09797 3.31252 0
M  V30 6723 H 645.493 1.34363 3.95394 0
M  V30 6724 N 645.93 -0.909495 1.28709 0
M  V30 6725 C 646.88 -1.9991 1.09636 0
M  V30 6726 C 647.864 -1.60889 0.01872 0
M  V30 6727 O 649.056 -1.75374 0.239338 0
M  V30 6728 C 646.185 -3.34675 0.764702 0
M  V30 6729 C 645.271 -3.80085 1.8814 0
M  V30 6730 N 645.662 -3.97824 3.12361 0
M  V30 6731 C 643.96 -4.09278 1.77221 0
M  V30 6732 C 644.661 -4.35928 3.85151 0
M  V30 6733 N 643.637 -4.44426 3.13028 0
M  V30 6734 H 647.439 -2.11681 2.03883 0
M  V30 6735 H 644.953 -1.09763 1.1969 0
M  V30 6736 H 646.95 -4.12426 0.609132 0
M  V30 6737 H 645.61 -3.24255 -0.169952 0
M  V30 6738 H 646.621 -3.83626 3.47925 0
M  V30 6739 H 643.298 -4.0747 0.909621 0
M  V30 6740 H 644.688 -4.57581 4.92006 0
M  V30 6741 N 647.408 -1.11026 -1.11852 0
M  V30 6742 C 648.654 -0.857729 -1.83768 0
M  V30 6743 C 648.987 0.615143 -1.842 0
M  V30 6744 O 648.262 1.45391 -1.29196 0
M  V30 6745 C 648.545 -1.41453 -3.31154 0
M  V30 6746 C 648.398 -2.95471 -3.39142 0
M  V30 6747 C 649.717 -1.0619 -4.27097 0
M  V30 6748 H 646.836 -0.313044 -0.667212 0
M  V30 6749 H 649.478 -1.37443 -1.31185 0
M  V30 6750 H 647.628 -0.975052 -3.76065 0
M  V30 6751 H 649.3 -3.4799 -3.02821 0
M  V30 6752 H 647.543 -3.31759 -2.79497 0
M  V30 6753 H 648.214 -3.29515 -4.42859 0
M  V30 6754 H 650.69 -1.44122 -3.90344 0
M  V30 6755 H 649.566 -1.47832 -5.28618 0
M  V30 6756 H 649.827 0.0278912 -4.42091 0
M  V30 6757 N 648.886 1.2938 -0.899927 0
M  V30 6758 C 649.819 2.25911 -0.322386 0
M  V30 6759 C 650.797 1.52447 0.565567 0
M  V30 6760 O 651.981 1.81404 0.512324 0
M  V30 6761 C 649.108 3.3436 0.540455 0
M  V30 6762 C 648.154 4.25579 -0.280211 0
M  V30 6763 S 648.987 5.08526 -1.67814 0
M  V30 6764 C 650.143 6.20476 -0.822224 0
M  V30 6765 H 650.376 2.7455 -1.1406 0
M  V30 6766 H 647.909 1.37606 -0.700285 0
M  V30 6767 H 649.867 3.97303 1.0325 0
M  V30 6768 H 648.528 2.84416 1.33291 0
M  V30 6769 H 647.721 5.02574 0.378915 0
M  V30 6770 H 647.323 3.67287 -0.705405 0
M  V30 6771 H 649.615 6.77485 -0.0457138 0
M  V30 6772 H 650.558 6.90606 -1.56426 0
M  V30 6773 H 650.966 5.63243 -0.37651 0
M  V30 6774 N 650.364 0.662433 1.43002 0
M  V30 6775 C 651.311 -0.0235324 2.30788 0
M  V30 6776 C 652.281 -0.805342 1.4527 0
M  V30 6777 O 653.466 -0.78009 1.74124 0
M  V30 6778 C 650.606 -0.977545 3.30965 0
M  V30 6779 C 649.719 -0.190865 4.31578 0
M  V30 6780 C 648.854 -1.13951 5.18834 0
M  V30 6781 C 647.893 -0.343796 6.11134 0
M  V30 6782 N 647.03 -1.2445 6.90982 0
M  V30 6783 H 651.87 0.730921 2.88897 0
M  V30 6784 H 649.407 0.372197 1.42313 0
M  V30 6785 H 651.365 -1.54437 3.87563 0
M  V30 6786 H 649.995 -1.69877 2.74484 0
M  V30 6787 H 649.047 0.492388 3.772 0
M  V30 6788 H 650.359 0.427464 4.96965 0
M  V30 6789 H 649.513 -1.77666 5.80103 0
M  V30 6790 H 648.252 -1.79174 4.53595 0
M  V30 6791 H 647.257 0.30665 5.48944 0
M  V30 6792 H 648.482 0.304161 6.78419 0
M  V30 6793 H 646.428 -1.88336 6.28383 0
M  V30 6794 H 646.345 -0.680959 7.52927 0
M  V30 6795 H 647.613 -1.86952 7.56749 0
M  V30 6796 N 651.842 -1.52309 0.404946 0
M  V30 6797 C 652.772 -2.29805 -0.41376 0
M  V30 6798 C 653.753 -1.3384 -1.0498 0
M  V30 6799 O 654.938 -1.62745 -1.05961 0
M  V30 6800 C 652.068 -3.11639 -1.53292 0
M  V30 6801 C 651.022 -4.15616 -1.02211 0
M  V30 6802 C 650.348 -4.8577 -2.23455 0
M  V30 6803 C 651.648 -5.2224 -0.0790725 0
M  V30 6804 H 653.342 -2.98493 0.232878 0
M  V30 6805 H 650.888 -1.43552 0.113441 0
M  V30 6806 H 652.841 -3.64618 -2.11262 0
M  V30 6807 H 651.565 -2.40712 -2.20738 0
M  V30 6808 H 650.224 -3.63641 -0.46484 0
M  V30 6809 H 649.872 -4.11376 -2.89445 0
M  V30 6810 H 649.572 -5.56058 -1.89929 0
M  V30 6811 H 651.096 -5.4156 -2.82038 0
M  V30 6812 H 652.51 -5.70485 -0.567438 0
M  V30 6813 H 650.907 -5.99867 0.167167 0
M  V30 6814 H 651.977 -4.77078 0.867447 0
M  V30 6815 N 653.32 -0.135238 -1.57019 0
M  V30 6816 C 654.25 0.805235 -2.19176 0
M  V30 6817 C 655.231 1.2656 -1.13651 0
M  V30 6818 O 656.416 1.32528 -1.4195 0
M  V30 6819 C 653.546 2.04914 -2.80406 0
M  V30 6820 C 652.5 1.72598 -3.91655 0
M  V30 6821 C 651.826 3.04154 -4.39766 0
M  V30 6822 C 653.126 0.981709 -5.12991 0
M  V30 6823 H 654.82 0.287232 -2.98019 0
M  V30 6824 H 652.366 0.136714 -1.4335 0
M  V30 6825 H 654.319 2.71178 -3.22553 0
M  V30 6826 H 653.043 2.59067 -1.98877 0
M  V30 6827 H 651.702 1.08717 -3.50109 0
M  V30 6828 H 651.35 3.56274 -3.55075 0
M  V30 6829 H 651.05 2.83299 -5.14796 0
M  V30 6830 H 652.574 3.71509 -4.84576 0
M  V30 6831 H 653.988 1.5462 -5.52056 0
M  V30 6832 H 652.385 0.873533 -5.93708 0
M  V30 6833 H 653.455 -0.0286887 -4.84892 0
M  V30 6834 N 654.798 1.5699 0.138552 0
M  V30 6835 C 655.708 2.02174 1.19008 0
M  V30 6836 C 656.724 0.938622 1.46512 0
M  V30 6837 O 657.9 1.24872 1.58016 0
M  V30 6838 C 654.965 2.40045 2.50159 0
M  V30 6839 C 654.026 3.62346 2.30226 0
M  V30 6840 C 653.259 3.98401 3.55123 0
M  V30 6841 O 653.482 3.35019 4.61647 0
M  V30 6842 O 652.416 4.91606 3.47285 0
M  V30 6843 H 656.242 2.91954 0.836452 0
M  V30 6844 H 653.827 1.45293 0.347907 0
M  V30 6845 H 655.709 2.65225 3.27465 0
M  V30 6846 H 654.384 1.53417 2.85035 0
M  V30 6847 H 653.291 3.42341 1.50843 0
M  V30 6848 H 654.624 4.49617 2.00262 0
M  V30 6849 N 656.276 -0.40816 1.52223 0
M  V30 6850 C 657.522 -1.15673 1.66576 0
M  V30 6851 C 657.855 -1.90141 0.394996 0
M  V30 6852 O 657.13 -1.84798 -0.606613 0
M  V30 6853 C 657.413 -2.15042 2.88841 0
M  V30 6854 C 657.266 -1.44465 4.25969 0
M  V30 6855 C 658.585 -3.15699 3.0663 0
M  V30 6856 H 655.704 -0.41916 0.606196 0
M  V30 6857 H 658.346 -0.442348 1.84779 0
M  V30 6858 H 656.496 -2.75964 2.73452 0
M  V30 6859 H 658.168 -0.866544 4.53088 0
M  V30 6860 H 656.411 -0.746612 4.27327 0
M  V30 6861 H 657.082 -2.16976 5.07568 0
M  V30 6862 H 659.558 -2.64854 3.20923 0
M  V30 6863 H 658.434 -3.82491 3.9369 0
M  V30 6864 H 658.695 -3.83481 2.19987 0
M  V30 6865 N 657.755 -1.42862 -0.66545 0
M  V30 6866 C 659.004 -1.43119 -1.42126 0
M  V30 6867 C 659.317 -0.0545297 -1.95524 0
M  V30 6868 O 660.523 0.0654747 -2.71421 0
M  V30 6869 C 658.979 -2.51797 -2.5715 0
M  V30 6870 C 658.587 -3.95514 -2.10411 0
M  V30 6871 C 660.331 -2.61233 -3.346 0
M  V30 6872 C 658.238 -4.95682 -3.22573 0
M  V30 6873 H 657.168 -0.532349 -0.533966 0
M  V30 6874 H 659.819 -1.68806 -0.719506 0
M  V30 6875 H 658.201 -2.19292 -3.29738 0
M  V30 6876 H 659.375 -4.3742 -1.44915 0
M  V30 6877 H 657.69 -3.90012 -1.45874 0
M  V30 6878 H 660.287 -3.33248 -4.18151 0
M  V30 6879 H 660.63 -1.65896 -3.81817 0
M  V30 6880 H 661.163 -2.9298 -2.69087 0
M  V30 6881 H 657.902 -5.92529 -2.80338 0
M  V30 6882 H 657.422 -4.58399 -3.86821 0
M  V30 6883 H 659.101 -5.17828 -3.87896 0
M  V30 6884 N 659.233 0.902656 -1.29189 0
M  V30 6885 C 660.644 1.46809 -1.15343 0
M  V30 6886 C 660.995 1.94568 0.252517 0
M  V30 6887 O 660.12 1.83454 1.14777 0
M  V30 6888 C 660.715 2.66829 -2.08776 0
M  V30 6889 C 659.274 3.19518 -1.98961 0
M  V30 6890 C 658.421 1.92212 -1.99874 0
M  V30 6891 H 661.372 0.714282 -1.41717 0
M  V30 6892 H 661.393 3.42465 -1.65826 0
M  V30 6893 H 660.905 2.32039 -3.11094 0
M  V30 6894 H 659.006 3.59008 -0.99721 0
M  V30 6895 H 659.119 3.84016 -2.86477 0
M  V30 6896 H 657.483 2.0979 -1.44431 0
M  V30 6897 H 658.266 1.59702 -3.03891 0
M  V30 6898 N 660.711 1.11618 1.11262 0
M  V30 6899 C 661.936 0.889013 1.8738 0
M  V30 6900 C 662.361 -0.555884 1.79698 0
M  V30 6901 O 661.719 -1.39272 1.16073 0
M  V30 6902 C 661.767 1.35759 3.34069 0
M  V30 6903 O 660.871 0.530499 4.08974 0
M  V30 6904 H 660.212 0.320082 0.581759 0
M  V30 6905 H 662.742 1.48611 1.40627 0
M  V30 6906 H 662.752 1.35291 3.84916 0
M  V30 6907 H 661.427 2.40973 3.38976 0
M  V30 6908 H 660.004 0.601439 3.68018 0
M  V30 6909 N 662.189 -1.289 0.906776 0
M  V30 6910 C 663.121 -2.26556 0.347159 0
M  V30 6911 C 664.134 -1.54589 -0.51049 0
M  V30 6912 O 665.323 -1.75489 -0.326501 0
M  V30 6913 C 662.423 -3.3484 -0.523024 0
M  V30 6914 C 661.596 -4.36296 0.310515 0
M  V30 6915 C 660.655 -5.23879 -0.493634 0
M  V30 6916 O 659.681 -5.69127 0.0913569 0
M  V30 6917 N 660.883 -5.51946 -1.7982 0
M  V30 6918 H 663.648 -2.75212 1.18652 0
M  V30 6919 H 661.209 -1.42309 0.771996 0
M  V30 6920 H 663.201 -3.90366 -1.06756 0
M  V30 6921 H 661.771 -2.85946 -1.26309 0
M  V30 6922 H 660.991 -3.80331 1.03644 0
M  V30 6923 H 662.279 -5.01113 0.881106 0
M  V30 6924 H 661.677 -5.17006 -2.2961 0
M  V30 6925 H 660.234 -6.10258 -2.28971 0
M  V30 6926 N 663.667 -0.670007 -1.42649 0
M  V30 6927 C 664.897 -0.198252 -2.05647 0
M  V30 6928 C 665.305 1.14786 -1.50402 0
M  V30 6929 O 664.648 1.72316 -0.636634 0
M  V30 6930 C 664.71 -0.0507132 -3.59464 0
M  V30 6931 C 664.374 -1.32478 -4.37377 0
M  V30 6932 C 665.371 -2.2572 -4.68344 0
M  V30 6933 C 663.056 -1.57104 -4.77099 0
M  V30 6934 C 665.05 -3.4187 -5.37963 0
M  V30 6935 C 662.737 -2.73543 -5.46459 0
M  V30 6936 C 663.735 -3.65751 -5.76815 0
M  V30 6937 O 663.423 -4.80154 -6.44753 0
M  V30 6938 H 663.155 -0.0950721 -0.669281 0
M  V30 6939 H 665.709 -0.915745 -1.83857 0
M  V30 6940 H 663.939 0.722314 -3.79894 0
M  V30 6941 H 665.628 0.380552 -4.04112 0
M  V30 6942 H 666.394 -2.07943 -4.38161 0
M  V30 6943 H 662.273 -0.862069 -4.52868 0
M  V30 6944 H 665.817 -4.13861 -5.61574 0
M  V30 6945 H 661.714 -2.91248 -5.7606 0
M  V30 6946 H 662.482 -4.79637 -6.63243 0
M  V30 6947 N 665.145 1.52092 -0.413018 0
M  V30 6948 C 666.37 2.06756 0.163338 0
M  V30 6949 C 666.795 1.28073 1.37764 0
M  V30 6950 O 666.153 0.312015 1.78595 0
M  V30 6951 C 666.201 3.57278 0.488322 0
M  V30 6952 O 665.305 3.80986 1.57871 0
M  V30 6953 H 664.646 0.663882 0.0125068 0
M  V30 6954 H 667.176 1.95988 -0.587339 0
M  V30 6955 H 667.186 4.01125 0.745836 0
M  V30 6956 H 665.861 4.13978 -0.399327 0
M  V30 6957 H 664.438 3.49017 1.31306 0
M  V30 6958 N 666.623 0.143563 1.56945 0
M  V30 6959 C 667.848 -0.518701 2.00809 0
M  V30 6960 C 668.273 -1.5785 1.02298 0
M  V30 6961 O 667.631 -1.813 -0.0017839 0
M  V30 6962 C 667.679 -1.09929 3.43436 0
M  V30 6963 O 666.783 -2.21425 3.47915 0
M  V30 6964 H 666.124 -0.127215 0.6517 0
M  V30 6965 H 668.654 0.239283 2.03196 0
M  V30 6966 H 668.664 -1.4288 3.82164 0
M  V30 6967 H 667.339 -0.323162 4.14643 0
M  V30 6968 H 665.916 -1.89728 3.21026 0
M  V30 6969 N 668.101 -1.57061 -0.130224 0
M  V30 6970 C 669.512 -1.73539 -0.68856 0
M  V30 6971 C 669.863 -0.760554 -1.80859 0
M  V30 6972 O 668.988 0.0690796 -2.1629 0
M  V30 6973 C 669.583 -3.14666 -1.25581 0
M  V30 6974 C 668.142 -3.32689 -1.76055 0
M  V30 6975 C 667.289 -2.69436 -0.655712 0
M  V30 6976 H 670.24 -1.58412 0.0956002 0
M  V30 6977 H 670.261 -3.15595 -2.12556 0
M  V30 6978 H 669.773 -3.85593 -0.440412 0
M  V30 6979 H 667.874 -2.66786 -2.60108 0
M  V30 6980 H 667.987 -4.4077 -1.87772 0
M  V30 6981 H 666.351 -2.30362 -1.08654 0
M  V30 6982 H 667.134 -3.42979 0.14852 0
M  V30 6983 N 669.579 0.400081 -1.52437 0
M  V30 6984 C 670.807 1.16768 -1.70801 0
M  V30 6985 C 671.222 1.84036 -0.421462 0
M  V30 6986 O 670.579 1.72242 0.603228 0
M  V30 6987 C 670.63 2.22403 -2.8499 0
M  V30 6988 O 670.351 1.57879 -4.08663 0
M  V30 6989 C 671.852 3.11974 -3.1494 0
M  V30 6990 H 669.072 0.350533 -0.57216 0
M  V30 6991 H 671.616 0.469534 -1.99037 0
M  V30 6992 H 669.771 2.87871 -2.59247 0
M  V30 6993 H 670.185 2.27982 -4.7236 0
M  V30 6994 H 671.659 3.82148 -3.9833 0
M  V30 6995 H 672.136 3.74858 -2.28863 0
M  V30 6996 H 672.742 2.52165 -3.42481 0
M  V30 6997 N 671.057 1.43213 0.657864 0
M  V30 6998 C 672.285 1.48015 1.44566 0
M  V30 6999 C 672.7 0.0965951 1.88553 0
M  V30 7000 O 672.057 -0.892221 1.59203 0
M  V30 7001 C 672.108 2.42199 2.68369 0
M  V30 7002 O 671.829 3.75173 2.26223 0
M  V30 7003 C 673.33 2.56195 3.61772 0
M  V30 7004 H 670.55 0.502861 0.444266 0
M  V30 7005 H 673.094 1.87907 0.806917 0
M  V30 7006 H 671.249 2.05514 3.28394 0
M  V30 7007 H 671.663 4.25776 3.06293 0
M  V30 7008 H 673.137 3.26182 4.4532 0
M  V30 7009 H 673.614 1.60534 4.0881 0
M  V30 7010 H 674.22 2.93671 3.07632 0
M  V30 7011 N 672.536 -0.895792 1.29666 0
M  V30 7012 C 673.785 -1.64131 1.17234 0
M  V30 7013 C 674.098 -1.93665 -0.274416 0
M  V30 7014 O 675.304 -2.66472 -0.520105 0
M  V30 7015 C 673.76 -2.95764 2.05065 0
M  V30 7016 C 673.368 -2.7381 3.54587 0
M  V30 7017 C 675.112 -3.737 2.01367 0
M  V30 7018 C 673.019 -4.01194 4.34508 0
M  V30 7019 H 671.949 -0.615742 0.435175 0
M  V30 7020 H 674.6 -0.992626 1.54335 0
M  V30 7021 H 672.982 -3.61867 1.60837 0
M  V30 7022 H 674.156 -2.16277 4.06892 0
M  V30 7023 H 672.471 -2.09265 3.59996 0
M  V30 7024 H 675.068 -4.68152 2.58337 0
M  V30 7025 H 675.411 -4.04245 0.994575 0
M  V30 7026 H 675.944 -3.14444 2.43659 0
M  V30 7027 H 672.683 -3.75813 5.37071 0
M  V30 7028 H 672.203 -4.58272 3.86971 0
M  V30 7029 H 673.882 -4.69307 4.45376 0
M  V30 7030 N 674.014 -1.12206 -1.10668 0
M  V30 7031 C 674.977 -0.790867 -2.15123 0
M  V30 7032 C 675.977 0.193618 -1.5963 0
M  V30 7033 O 677.167 -0.0318728 -1.74171 0
M  V30 7034 C 674.299 -0.174797 -3.40452 0
M  V30 7035 H 675.492 -1.7163 -2.45933 0
M  V30 7036 H 673.045 -0.924993 -1.2599 0
M  V30 7037 H 673.78 0.760478 -3.15257 0
M  V30 7038 H 673.565 -0.88358 -3.82015 0
M  V30 7039 H 675.055 0.0405162 -4.1758 0
M  V30 7040 N 675.492 1.28418 -0.913599 0
M  V30 7041 C 676.72 1.99106 -0.562536 0
M  V30 7042 C 677.135 1.68273 0.856137 0
M  V30 7043 O 676.492 0.935401 1.56705 0
M  V30 7044 C 676.543 3.5338 -0.761903 0
M  V30 7045 O 676.264 3.83127 -2.12475 0
M  V30 7046 C 677.765 4.41328 -0.417651 0
M  V30 7047 H 674.985 0.635798 -0.214481 0
M  V30 7048 H 677.529 1.63618 -1.22676 0
M  V30 7049 H 675.684 3.8713 -0.144676 0
M  V30 7050 H 676.098 4.77763 -2.16431 0
M  V30 7051 H 677.572 5.48642 -0.607919 0
M  V30 7052 H 678.049 4.34422 0.646108 0
M  V30 7053 H 678.655 4.13074 -1.01241 0
M  V30 7054 N 676.97 0.677563 1.42291 0
M  V30 7055 C 678.216 0.201272 2.01799 0
M  V30 7056 C 678.549 -1.19004 1.53465 0
M  V30 7057 O 677.824 -1.79953 0.738039 0
M  V30 7058 C 678.107 0.238968 3.59306 0
M  V30 7059 C 677.96 1.66594 4.17812 0
M  V30 7060 C 679.279 -0.411287 4.38174 0
M  V30 7061 H 676.398 0.0746114 0.733214 0
M  V30 7062 H 679.04 0.862872 1.69276 0
M  V30 7063 H 677.19 -0.324368 3.87144 0
M  V30 7064 H 678.862 2.28173 4.00917 0
M  V30 7065 H 677.105 2.20576 3.73536 0
M  V30 7066 H 677.776 1.64398 5.26951 0
M  V30 7067 H 680.252 0.0682804 4.16044 0
M  V30 7068 H 679.128 -0.354286 5.47755 0
M  V30 7069 H 679.389 -1.4893 4.1626 0
M  V30 7070 N 678.448 -1.51871 0.421078 0
M  V30 7071 C 679.381 -2.23851 -0.443369 0
M  V30 7072 C 680.359 -1.25142 -1.03818 0
M  V30 7073 O 681.543 -1.5423 -1.08377 0
M  V30 7074 C 678.67 -2.97637 -1.61648 0
M  V30 7075 C 677.716 -4.10873 -1.14391 0
M  V30 7076 S 678.549 -5.35408 -0.0992403 0
M  V30 7077 C 679.705 -6.12726 -1.27739 0
M  V30 7078 H 679.938 -2.96826 0.167786 0
M  V30 7079 H 677.471 -1.53027 0.205461 0
M  V30 7080 H 679.429 -3.40751 -2.28909 0
M  V30 7081 H 678.09 -2.24282 -2.199 0
M  V30 7082 H 677.283 -4.61718 -2.02069 0
M  V30 7083 H 676.885 -3.69937 -0.549775 0
M  V30 7084 H 679.177 -6.40827 -2.19881 0
M  V30 7085 H 680.12 -7.03461 -0.809239 0
M  V30 7086 H 680.528 -5.43968 -1.5086 0
M  V30 7087 N 679.926 -0.151884 -1.56866 0
M  V30 7088 C 680.874 0.80299 -2.183 0
M  V30 7089 C 681.868 1.25174 -1.14139 0
M  V30 7090 O 683.074 1.21966 -1.3238 0
M  V30 7091 H 679.449 0.277169 -0.699057 0
M  V30 7092 H 681.42 0.260699 -2.97259 0
M  V30 7093 C 680.169 2.03009 -2.82281 0
M  V30 7094 H 679.492 1.69377 -3.62148 0
M  V30 7095 H 680.932 2.67753 -3.28762 0
M  V30 7096 C 679.391 2.84123 -1.81041 0
M  V30 7097 O 679.921 3.8063 -1.28388 0
M  V30 7098 N 678.127 2.48753 -1.50234 0
M  V30 7099 H 677.674 1.70337 -1.93244 0
M  V30 7100 H 677.632 3.03316 -0.827445 0
M  V30 7101 N 681.404 1.57128 0.121893 0
M  V30 7102 C 682.334 2.03165 1.15092 0
M  V30 7103 C 683.315 0.915587 1.43356 0
M  V30 7104 O 684.5 1.1851 1.53847 0
M  V30 7105 C 681.63 2.43352 2.47784 0
M  V30 7106 C 680.584 3.58376 2.33989 0
M  V30 7107 C 679.91 3.84454 3.71617 0
M  V30 7108 C 681.21 4.90199 1.80283 0
M  V30 7109 H 682.904 2.89382 0.768023 0
M  V30 7110 H 680.45 1.39218 0.367998 0
M  V30 7111 H 682.403 2.74163 3.20019 0
M  V30 7112 H 681.127 1.54103 2.87958 0
M  V30 7113 H 679.786 3.2777 1.64202 0
M  V30 7114 H 679.434 2.92414 4.09271 0
M  V30 7115 H 679.134 4.61877 3.6324 0
M  V30 7116 H 680.658 4.17714 4.45362 0
M  V30 7117 H 682.072 5.19565 2.42333 0
M  V30 7118 H 680.469 5.71601 1.82735 0
M  V30 7119 H 681.539 4.78904 0.760184 0
M  V30 7120 N 682.882 -0.391992 1.52647 0
M  V30 7121 C 684.107 -1.16312 1.71716 0
M  V30 7122 C 684.532 -1.83042 0.433279 0
M  V30 7123 O 683.89 -1.70705 -0.610707 0
M  V30 7124 C 683.938 -2.18908 2.86551 0
M  V30 7125 O 683.042 -3.2543 2.53316 0
M  V30 7126 H 682.383 -0.338743 0.571095 0
M  V30 7127 H 684.913 -0.457202 1.99426 0
M  V30 7128 H 684.923 -2.62954 3.1196 0
M  V30 7129 H 683.598 -1.69726 3.79692 0
M  V30 7130 H 682.175 -2.86543 2.38637 0
M  V30 7131 N 684.36 -1.4356 -0.65026 0
M  V30 7132 C 685.307 -1.48948 -1.76304 0
M  V30 7133 C 686.277 -0.338919 -1.62605 0
M  V30 7134 O 687.462 -0.54649 -1.82806 0
M  V30 7135 C 684.602 -1.42131 -3.14472 0
M  V30 7136 C 683.715 -2.67415 -3.39284 0
M  V30 7137 C 682.85 -2.52565 -4.67316 0
M  V30 7138 C 681.889 -3.73103 -4.85243 0
M  V30 7139 N 681.026 -3.57046 -6.04535 0
M  V30 7140 H 685.866 -2.44032 -1.71034 0
M  V30 7141 H 683.403 -1.21131 -0.834601 0
M  V30 7142 H 685.361 -1.36172 -3.94351 0
M  V30 7143 H 683.991 -0.506273 -3.18805 0
M  V30 7144 H 683.043 -2.8364 -2.53481 0
M  V30 7145 H 684.355 -3.56943 -3.48415 0
M  V30 7146 H 683.509 -2.44331 -5.55326 0
M  V30 7147 H 682.248 -1.60566 -4.60511 0
M  V30 7148 H 681.253 -3.81743 -3.95667 0
M  V30 7149 H 682.478 -4.66115 -4.93876 0
M  V30 7150 H 680.424 -2.67783 -5.98856 0
M  V30 7151 H 680.341 -4.40178 -6.14638 0
M  V30 7152 H 681.609 -3.52669 -6.95158 0
M  V30 7153 N 685.838 0.888903 -1.30139 0
M  V30 7154 C 686.785 1.99422 -1.16188 0
M  V30 7155 C 687.755 1.66017 -0.0523869 0
M  V30 7156 O 688.94 1.89506 -0.221864 0
M  V30 7157 C 686.08 3.34325 -0.855612 0
M  V30 7158 C 685.193 3.80445 -2.0466 0
M  V30 7159 C 684.328 5.03975 -1.67876 0
M  V30 7160 C 683.367 5.42492 -2.83493 0
M  V30 7161 N 682.504 6.57206 -2.47032 0
M  V30 7162 H 687.344 2.10687 -2.10749 0
M  V30 7163 H 684.881 1.03165 -1.04859 0
M  V30 7164 H 686.839 4.11968 -0.658681 0
M  V30 7165 H 685.469 3.22756 0.0531155 0
M  V30 7166 H 684.521 2.98745 -2.3549 0
M  V30 7167 H 685.833 4.04933 -2.91257 0
M  V30 7168 H 684.987 5.89232 -1.44535 0
M  V30 7169 H 683.726 4.8135 -0.784431 0
M  V30 7170 H 682.731 4.55764 -3.07505 0
M  V30 7171 H 683.956 5.67093 -3.73607 0
M  V30 7172 H 681.902 6.36164 -1.601 0
M  V30 7173 H 681.819 6.81543 -3.27161 0
M  V30 7174 H 683.087 7.45704 -2.27038 0
M  V30 7175 N 687.317 1.12792 1.10072 0
M  V30 7176 C 688.566 0.880232 1.81479 0
M  V30 7177 C 688.879 -0.595575 1.86312 0
M  V30 7178 O 690.085 -0.959979 2.53962 0
M  V30 7179 C 688.541 1.52514 3.25987 0
M  V30 7180 C 688.149 3.036 3.29441 0
M  V30 7181 C 689.893 1.35788 4.02196 0
M  V30 7182 C 687.8 3.61007 4.68431 0
M  V30 7183 H 686.73 0.325654 0.680048 0
M  V30 7184 H 689.381 1.35485 1.23758 0
M  V30 7185 H 687.763 0.978188 3.83728 0
M  V30 7186 H 688.937 3.64819 2.81502 0
M  V30 7187 H 687.252 3.19765 2.66719 0
M  V30 7188 H 689.849 1.76096 5.0487 0
M  V30 7189 H 690.192 0.301972 4.15203 0
M  V30 7190 H 690.725 1.87426 3.50879 0
M  V30 7191 H 687.464 4.66375 4.60625 0
M  V30 7192 H 686.984 3.04564 5.16721 0
M  V30 7193 H 688.663 3.60289 5.37402 0
M  V30 7194 N 688.795 -1.27931 0.920396 0
M  V30 7195 C 689.742 -2.27085 0.412422 0
M  V30 7196 C 690.712 -1.57858 -0.516725 0
M  V30 7197 O 691.897 -1.85717 -0.437475 0
M  V30 7198 C 689.037 -3.43466 -0.335399 0
M  V30 7199 C 688.15 -4.27425 0.627017 0
M  V30 7200 C 687.285 -5.31016 -0.139916 0
M  V30 7201 C 686.324 -6.06641 0.815683 0
M  V30 7202 N 685.461 -7.02052 0.0818439 0
M  V30 7203 H 690.301 -2.69913 1.26298 0
M  V30 7204 H 687.838 -1.32732 0.634076 0
M  V30 7205 H 689.796 -4.09744 -0.785226 0
M  V30 7206 H 688.426 -3.01611 -1.15025 0
M  V30 7207 H 687.478 -3.6113 1.19537 0
M  V30 7208 H 688.79 -4.79969 1.35763 0
M  V30 7209 H 687.944 -6.03208 -0.649998 0
M  V30 7210 H 686.683 -4.79257 -0.903543 0
M  V30 7211 H 685.688 -5.33294 1.33708 0
M  V30 7212 H 686.913 -6.60489 1.57897 0
M  V30 7213 H 684.859 -6.52634 -0.663671 0
M  V30 7214 H 684.776 -7.52249 0.752163 0
M  V30 7215 H 686.044 -7.78432 -0.407825 0
M  V30 7216 N 690.273 -0.685099 -1.4193 0
M  V30 7217 C 691.22 -0.0131869 -2.30796 0
M  V30 7218 C 692.19 0.782129 -1.46533 0
M  V30 7219 O 693.375 0.75229 -1.75343 0
M  V30 7220 C 690.515 0.924768 -3.32479 0
M  V30 7221 C 689.628 0.122181 -4.31827 0
M  V30 7222 C 688.763 1.05682 -5.20581 0
M  V30 7223 C 687.802 0.246526 -6.11603 0
M  V30 7224 N 686.939 1.13442 -6.92875 0
M  V30 7225 H 691.779 -0.776789 -2.87698 0
M  V30 7226 H 689.316 -0.394791 -1.41703 0
M  V30 7227 H 691.274 1.48251 -3.89971 0
M  V30 7228 H 689.904 1.65488 -2.77152 0
M  V30 7229 H 688.956 -0.552335 -3.76369 0
M  V30 7230 H 690.268 -0.506473 -4.96222 0
M  V30 7231 H 689.422 1.68415 -5.82856 0
M  V30 7232 H 688.161 1.71935 -4.56388 0
M  V30 7233 H 687.166 -0.393944 -5.48387 0
M  V30 7234 H 688.391 -0.412053 -6.77849 0
M  V30 7235 H 686.337 1.78316 -6.313 0
M  V30 7236 H 686.254 0.561089 -7.53915 0
M  V30 7237 H 687.522 1.74889 -7.59628 0
M  V30 7238 N 691.751 1.51645 -0.429126 0
M  V30 7239 C 693 2.01203 0.141538 0
M  V30 7240 C 693.313 1.31828 1.44502 0
M  V30 7241 O 694.519 1.7231 2.09813 0
M  V30 7242 C 692.975 3.58624 0.302786 0
M  V30 7243 C 692.583 4.3693 -0.989775 0
M  V30 7244 C 694.327 4.16353 0.827661 0
M  V30 7245 C 692.234 5.86037 -0.794619 0
M  V30 7246 H 691.164 0.751867 0.05667 0
M  V30 7247 H 693.815 1.74822 -0.557633 0
M  V30 7248 H 692.197 3.81417 1.06476 0
M  V30 7249 H 693.371 4.25887 -1.75945 0
M  V30 7250 H 691.686 3.90614 -1.44256 0
M  V30 7251 H 694.283 5.25455 0.990026 0
M  V30 7252 H 694.626 3.74995 1.80787 0
M  V30 7253 H 695.159 3.97606 0.124213 0
M  V30 7254 H 691.898 6.31792 -1.74697 0
M  V30 7255 H 691.418 5.99765 -0.0645968 0
M  V30 7256 H 693.097 6.45471 -0.444591 0
M  V30 7257 N 693.229 0.160201 1.56784 0
M  V30 7258 C 694.477 -0.486625 1.96154 0
M  V30 7259 C 694.798 -1.64525 1.04673 0
M  V30 7260 O 694.068 -1.95586 0.110864 0
M  V30 7261 H 692.648 -0.182764 0.724297 0
M  V30 7262 H 695.31 0.238787 1.93432 0
M  V30 7263 H 694.406 -0.854025 3.00188 0
M  V30 7264 N 694.707 -1.5719 -0.113559 0
M  V30 7265 C 695.953 -1.85412 -0.821597 0
M  V30 7266 C 696.286 -0.746722 -1.7927 0
M  V30 7267 O 695.561 0.246971 -1.92926 0
M  V30 7268 C 695.844 -3.24233 -1.56669 0
M  V30 7269 C 695.697 -4.45578 -0.614823 0
M  V30 7270 C 697.016 -3.60697 -2.52161 0
M  V30 7271 H 694.135 -0.674406 -0.29723 0
M  V30 7272 H 696.777 -1.89807 -0.085694 0
M  V30 7273 H 694.927 -3.20617 -2.19401 0
M  V30 7274 H 696.599 -4.613 0.00407137 0
M  V30 7275 H 694.842 -4.33738 0.0732332 0
M  V30 7276 H 695.513 -5.39395 -1.17292 0
M  V30 7277 H 697.989 -3.65139 -1.99532 0
M  V30 7278 H 696.865 -4.58798 -3.01323 0
M  V30 7279 H 697.126 -2.88403 -3.35076 0
M  V30 7280 N 696.185 0.383891 -1.52853 0
M  V30 7281 C 697.431 1.13009 -1.68395 0
M  V30 7282 C 697.764 1.89488 -0.425195 0
M  V30 7283 O 697.039 1.8574 0.577136 0
M  V30 7284 C 697.322 2.10419 -2.92226 0
M  V30 7285 C 697.175 1.3767 -4.28214 0
M  V30 7286 C 698.494 3.10781 -3.11614 0
M  V30 7287 H 695.613 0.409463 -0.612788 0
M  V30 7288 H 698.255 0.412895 -1.85459 0
M  V30 7289 H 696.405 2.71579 -2.77808 0
M  V30 7290 H 698.077 0.794352 -4.54409 0
M  V30 7291 H 696.32 0.678533 -4.2846 0
M  V30 7292 H 696.991 2.08874 -5.10956 0
M  V30 7293 H 699.467 2.59715 -3.25096 0
M  V30 7294 H 698.343 3.76179 -3.99725 0
M  V30 7295 H 698.604 3.79933 -2.2606 0
M  V30 7296 N 697.663 1.43903 0.642637 0
M  V30 7297 C 698.909 1.46296 1.40447 0
M  V30 7298 C 699.242 0.0908361 1.93987 0
M  V30 7299 O 698.517 -0.889884 1.72949 0
M  V30 7300 C 698.8 2.51399 2.57819 0
M  V30 7301 C 698.653 3.97926 2.09702 0
M  V30 7302 C 699.972 2.53125 3.60022 0
M  V30 7303 H 697.091 0.532676 0.509338 0
M  V30 7304 H 699.733 1.75515 0.727635 0
M  V30 7305 H 697.883 2.26614 3.1556 0
M  V30 7306 H 699.555 4.33804 1.5688 0
M  V30 7307 H 697.798 4.10252 1.40982 0
M  V30 7308 H 698.469 4.67096 2.94152 0
M  V30 7309 H 700.945 2.75242 3.12059 0
M  V30 7310 H 699.821 3.28589 4.39682 0
M  V30 7311 H 700.082 1.56895 4.13324 0
M  V30 7312 N 699.141 -0.881989 1.30609 0
M  V30 7313 C 700.389 -1.63082 1.19368 0
M  V30 7314 C 700.71 -1.93376 -0.251147 0
M  V30 7315 O 699.98 -1.5723 -1.16857 0
M  V30 7316 H 698.56 -0.604542 0.438791 0
M  V30 7317 H 701.222 -1.05658 1.63776 0
M  V30 7318 H 700.318 -2.57966 1.7567 0
M  V30 7319 N 700.619 -1.13374 -1.09472 0
M  V30 7320 C 701.567 -0.806105 -2.18185 0
M  V30 7321 C 702.561 0.21136 -1.68076 0
M  V30 7322 O 703.767 0.0685558 -1.79869 0
M  V30 7323 H 700.142 -0.242901 -0.71169 0
M  V30 7324 H 702.113 -1.73115 -2.43051 0
M  V30 7325 C 700.862 -0.287928 -3.46506 0
M  V30 7326 H 700.185 -1.06217 -3.85432 0
M  V30 7327 H 701.625 -0.0971054 -4.23889 0
M  V30 7328 C 700.084 0.986256 -3.22141 0
M  V30 7329 O 700.614 2.06217 -3.44728 0
M  V30 7330 N 698.82 0.917153 -2.75747 0
M  V30 7331 H 698.367 0.0414609 -2.57567 0
M  V30 7332 H 698.325 1.77029 -2.59823 0
M  V30 7333 N 702.098 1.27442 -0.927168 0
M  V30 7334 C 703.338 1.96157 -0.574608 0
M  V30 7335 C 703.702 1.71265 0.867897 0
M  V30 7336 O 704.903 2.33664 1.3287 0
M  V30 7337 C 703.174 3.46115 -0.891009 0
M  V30 7338 S 704.733 4.34006 -0.646885 0
M  V30 7339 H 701.551 0.678619 -0.212125 0
M  V30 7340 H 704.153 1.54688 -1.19549 0
M  V30 7341 H 702.857 3.6173 -1.93854 0
M  V30 7342 H 702.388 3.92545 -0.259301 0
M  V30 7343 H 704.403 4.93719 0.495568 0
M  V30 7344 N 703.576 0.692616 1.41565 0
M  V30 7345 C 704.823 0.222335 2.01276 0
M  V30 7346 C 705.151 -1.17706 1.5484 0
M  V30 7347 O 704.406 -1.80795 0.749118 0
M  V30 7348 C 704.705 0.225073 3.56691 0
M  V30 7349 C 704.371 1.57158 4.22625 0
M  V30 7350 C 703.033 1.94022 4.40351 0
M  V30 7351 C 705.385 2.45758 4.59622 0
M  V30 7352 C 702.713 3.19076 4.92349 0
M  V30 7353 C 705.065 3.70141 5.13009 0
M  V30 7354 C 703.729 4.07152 5.28946 0
M  V30 7355 H 702.999 0.0813581 0.73652 0
M  V30 7356 H 705.646 0.891123 1.69503 0
M  V30 7357 H 703.951 -0.527259 3.88236 0
M  V30 7358 H 705.648 -0.156283 4.00695 0
M  V30 7359 H 702.238 1.27486 4.09201 0
M  V30 7360 H 706.422 2.18558 4.45585 0
M  V30 7361 H 701.678 3.4775 5.02872 0
M  V30 7362 H 705.852 4.38983 5.40617 0
M  V30 7363 H 703.479 5.04125 5.69001 0
M  V30 7364 N 705.054 -1.51416 0.437162 0
M  V30 7365 C 706.302 -2.01687 -0.129108 0
M  V30 7366 C 706.623 -1.32329 -1.43227 0
M  V30 7367 O 705.893 -0.457796 -1.90476 0
M  V30 7368 H 704.473 -0.745277 -0.0507023 0
M  V30 7369 H 707.135 -1.86075 0.579828 0
M  V30 7370 H 706.231 -3.10605 -0.305141 0
M  V30 7371 N 706.532 -0.168513 -1.56696 0
M  V30 7372 C 707.779 0.477158 -1.96798 0
M  V30 7373 C 708.107 1.63442 -1.05437 0
M  V30 7374 O 707.362 1.95503 -0.0878903 0
M  V30 7375 C 707.661 1.00441 -3.42996 0
M  V30 7376 C 707.327 -0.0366556 -4.50885 0
M  V30 7377 C 705.989 -0.322785 -4.80116 0
M  V30 7378 C 708.341 -0.743447 -5.1587 0
M  V30 7379 C 705.669 -1.32114 -5.71632 0
M  V30 7380 C 708.021 -1.73077 -6.08463 0
M  V30 7381 C 706.685 -2.02437 -6.36062 0
M  V30 7382 H 705.955 0.174604 -0.720135 0
M  V30 7383 H 708.602 -0.259884 -1.89728 0
M  V30 7384 H 706.907 1.81922 -3.47004 0
M  V30 7385 H 708.604 1.51294 -3.71364 0
M  V30 7386 H 705.194 0.196532 -4.28149 0
M  V30 7387 H 709.378 -0.535602 -4.93401 0
M  V30 7388 H 704.634 -1.55482 -5.913 0
M  V30 7389 H 708.808 -2.28382 -6.57886 0
M  V30 7390 H 706.435 -2.79946 -7.06777 0
M  V30 7391 N 708.01 1.57248 0.105221 0
M  V30 7392 C 709.256 1.85845 0.811753 0
M  V30 7393 C 709.589 0.756219 1.78871 0
M  V30 7394 O 708.864 -0.236736 1.93054 0
M  V30 7395 C 709.147 3.25059 1.54947 0
M  V30 7396 C 709 4.45898 0.591185 0
M  V30 7397 C 710.319 3.6203 2.50245 0
M  V30 7398 H 707.438 0.675973 0.293649 0
M  V30 7399 H 710.08 1.89849 0.0756269 0
M  V30 7400 H 708.23 3.21776 2.17698 0
M  V30 7401 H 709.902 4.61291 -0.0285352 0
M  V30 7402 H 708.145 4.33693 -0.0962343 0
M  V30 7403 H 708.816 5.40009 1.1443 0
M  V30 7404 H 711.292 3.66192 1.97593 0
M  V30 7405 H 710.168 4.60389 2.98886 0
M  V30 7406 H 710.429 2.90176 3.33542 0
M  V30 7407 N 709.488 -0.375779 1.53054 0
M  V30 7408 C 710.736 -1.11727 1.68409 0
M  V30 7409 C 711.057 -1.90127 0.43323 0
M  V30 7410 O 710.327 -1.87945 -0.552595 0
M  V30 7411 H 708.907 -0.415451 0.620813 0
M  V30 7412 H 711.569 -0.424869 1.90213 0
M  V30 7413 H 710.665 -1.8128 2.54055 0
M  V30 7414 N 710.966 -1.44241 -0.634997 0
M  V30 7415 C 711.914 -1.51103 -1.76835 0
M  V30 7416 C 712.908 -0.383051 -1.65012 0
M  V30 7417 O 714.114 -0.557832 -1.71138 0
M  V30 7418 H 710.489 -0.474076 -0.583743 0
M  V30 7419 H 712.46 -2.46499 -1.68169 0
M  V30 7420 C 711.209 -1.4687 -3.15158 0
M  V30 7421 H 710.532 -2.32979 -3.24901 0
M  V30 7422 H 711.972 -1.55731 -3.94365 0
M  V30 7423 C 710.431 -0.188884 -3.3637 0
M  V30 7424 O 710.961 0.742487 -3.94778 0
M  V30 7425 N 709.167 -0.0932516 -2.9045 0
M  V30 7426 H 708.714 -0.852004 -2.43102 0
M  V30 7427 H 708.672 0.762308 -3.05018 0
M  V30 7428 N 712.444 0.87505 -1.31075 0
M  V30 7429 C 713.86 1.15997 -1.09622 0
M  V30 7430 C 714.06 2.01036 0.136611 0
M  V30 7431 O 713.116 2.38559 0.827397 0
M  V30 7432 C 714.429 1.85702 -2.36506 0
M  V30 7433 C 715.977 1.98425 -2.42067 0
M  V30 7434 C 716.452 2.71544 -3.68819 0
M  V30 7435 N 717.943 2.79084 -3.69684 0
M  V30 7436 C 718.678 3.36259 -4.64454 0
M  V30 7437 N 718.174 3.94406 -5.69575 0
M  V30 7438 N 719.967 3.34169 -4.51982 0
M  V30 7439 H 712.118 0.308258 -2.10151 0
M  V30 7440 H 714.381 0.199145 -0.926847 0
M  V30 7441 H 714.087 1.30663 -3.26527 0
M  V30 7442 H 713.961 2.86017 -2.45915 0
M  V30 7443 H 716.348 2.5263 -1.52518 0
M  V30 7444 H 716.429 0.971682 -2.36626 0
M  V30 7445 H 716.073 2.18008 -4.58732 0
M  V30 7446 H 716.003 3.73198 -3.71525 0
M  V30 7447 H 718.494 2.3781 -2.93691 0
M  V30 7448 H 718.807 4.36129 -6.37974 0
M  V30 7449 H 717.152 3.92797 -5.73355 0
M  V30 7450 H 720.343 2.87977 -3.69035 0
M  V30 7451 H 720.516 3.78431 -5.26017 0
M  V30 7452 N 713.922 1.13953 1.08869 0
M  V30 7453 C 714.855 0.765765 2.14968 0
M  V30 7454 C 715.833 -0.250689 1.60656 0
M  V30 7455 O 717.017 -0.140852 1.87973 0
M  V30 7456 C 714.144 0.136146 3.38426 0
M  V30 7457 C 713.19 1.12201 4.11477 0
M  V30 7458 S 714.023 2.65711 4.64928 0
M  V30 7459 C 715.179 2.04125 5.91679 0
M  V30 7460 H 715.412 1.66444 2.46341 0
M  V30 7461 H 712.945 0.960263 1.20906 0
M  V30 7462 H 714.903 -0.220712 4.09906 0
M  V30 7463 H 713.564 -0.739887 3.05261 0
M  V30 7464 H 712.757 0.629398 5.00055 0
M  V30 7465 H 712.359 1.42262 3.45886 0
M  V30 7466 H 714.651 1.39381 6.63008 0
M  V30 7467 H 715.594 2.90808 6.45629 0
M  V30 7468 H 716.002 1.4905 5.44467 0
M  V30 7469 N 715.4 -1.26948 0.933913 0
M  V30 7470 C 716.33 -2.29017 0.45534 0
M  V30 7471 C 717.311 -1.62961 -0.487605 0
M  V30 7472 O 718.496 -1.90223 -0.391022 0
M  V30 7473 C 715.626 -3.46112 -0.287015 0
M  V30 7474 C 714.58 -4.24205 0.568682 0
M  V30 7475 C 713.906 -5.3384 -0.303206 0
M  V30 7476 C 715.206 -4.88954 1.83633 0
M  V30 7477 H 716.9 -2.69298 1.30839 0
M  V30 7478 H 714.446 -1.29459 0.630579 0
M  V30 7479 H 716.399 -4.16622 -0.6328 0
M  V30 7480 H 715.123 -3.04765 -1.17414 0
M  V30 7481 H 713.782 -3.5545 0.897261 0
M  V30 7482 H 713.43 -4.88734 -1.18947 0
M  V30 7483 H 713.13 -5.86998 0.265879 0
M  V30 7484 H 714.654 -6.0719 -0.644423 0
M  V30 7485 H 716.068 -5.51717 1.55823 0
M  V30 7486 H 714.465 -5.52198 2.34941 0
M  V30 7487 H 715.535 -4.12305 2.55211 0
M  V30 7488 N 716.879 -0.700114 -1.41195 0
M  V30 7489 C 717.827 -0.0263301 -2.32585 0
M  V30 7490 C 718.821 0.763683 -1.51209 0
M  V30 7491 O 720.027 0.668793 -1.67114 0
M  V30 7492 H 716.402 0.0102869 -0.75193 0
M  V30 7493 H 718.373 -0.814087 -2.8708 0
M  V30 7494 C 717.122 0.892793 -3.36042 0
M  V30 7495 H 716.445 0.294306 -3.98715 0
M  V30 7496 H 717.885 1.33247 -4.02518 0
M  V30 7497 C 716.344 2.01109 -2.7029 0
M  V30 7498 O 716.874 3.10035 -2.55423 0
M  V30 7499 N 715.08 1.79015 -2.28915 0
M  V30 7500 H 714.627 0.904275 -2.41207 0
M  V30 7501 H 714.585 2.54022 -1.85257 0
M  V30 7502 N 718.357 1.51182 -0.445186 0
M  V30 7503 C 719.768 1.86693 0.0160999 0
M  V30 7504 C 720.119 1.36183 1.4124 0
M  V30 7505 O 719.244 0.715895 2.04215 0
M  V30 7506 C 719.839 3.38781 0.0359918 0
M  V30 7507 C 718.398 3.73799 0.441715 0
M  V30 7508 C 717.545 2.74947 -0.360511 0
M  V30 7509 H 720.496 1.44294 -0.660674 0
M  V30 7510 H 720.517 3.71026 0.843813 0
M  V30 7511 H 720.029 3.75513 -0.980378 0
M  V30 7512 H 718.13 3.42659 1.4634 0
M  V30 7513 H 718.243 4.78829 0.16106 0
M  V30 7514 H 716.607 2.54047 0.182269 0
M  V30 7515 H 717.39 3.14521 -1.3759 0
M  V30 7516 N 719.835 0.176821 1.56605 0
M  V30 7517 C 721.065 -0.472142 2.01133 0
M  V30 7518 C 721.473 -1.56979 1.05614 0
M  V30 7519 O 720.816 -1.83632 0.0500137 0
M  V30 7520 C 720.878 -1.10547 3.42081 0
M  V30 7521 C 720.542 -0.148806 4.56758 0
M  V30 7522 C 721.539 0.634939 5.16008 0
M  V30 7523 C 719.224 -0.0430325 5.02282 0
M  V30 7524 C 721.218 1.5116 6.19217 0
M  V30 7525 C 718.905 0.83721 6.05338 0
M  V30 7526 C 719.903 1.61311 6.63677 0
M  V30 7527 O 719.591 2.47863 7.64735 0
M  V30 7528 H 719.323 -0.124725 0.664394 0
M  V30 7529 H 721.877 0.277329 2.03519 0
M  V30 7530 H 720.107 -1.90318 3.36625 0
M  V30 7531 H 721.796 -1.6572 3.70529 0
M  V30 7532 H 722.562 0.563424 4.81716 0
M  V30 7533 H 718.441 -0.636753 4.56581 0
M  V30 7534 H 721.985 2.11767 6.64681 0
M  V30 7535 H 717.882 0.909908 6.39055 0
M  V30 7536 H 718.65 2.4144 7.8208 0
M  V30 7537 N 721.313 -1.57302 -0.09688 0
M  V30 7538 C 722.543 -1.89926 -0.813114 0
M  V30 7539 C 722.951 -0.76852 -1.72888 0
M  V30 7540 O 722.294 0.268549 -1.81726 0
M  V30 7541 C 722.356 -3.17787 -1.68082 0
M  V30 7542 C 722.02 -4.4729 -0.937061 0
M  V30 7543 C 723.017 -5.1921 -0.267687 0
M  V30 7544 C 720.702 -4.93957 -0.911671 0
M  V30 7545 C 722.696 -6.36034 0.417129 0
M  V30 7546 C 720.383 -6.10693 -0.223068 0
M  V30 7547 C 721.381 -6.8158 0.440155 0
M  V30 7548 O 721.069 -7.96092 1.11772 0
M  V30 7549 H 720.801 -0.632783 -0.237828 0
M  V30 7550 H 723.355 -2.05248 -0.0790818 0
M  V30 7551 H 721.585 -2.98607 -2.45705 0
M  V30 7552 H 723.274 -3.36257 -2.27346 0
M  V30 7553 H 724.04 -4.84198 -0.278774 0
M  V30 7554 H 719.919 -4.38671 -1.41734 0
M  V30 7555 H 723.463 -6.91301 0.93537 0
M  V30 7556 H 719.36 -6.45159 -0.209821 0
M  V30 7557 H 720.128 -8.12064 1.02443 0
M  V30 7558 N 722.791 0.367657 -1.53252 0
M  V30 7559 C 723.739 1.47061 -1.8021 0
M  V30 7560 C 724.733 1.55539 -0.671112 0
M  V30 7561 O 725.939 1.58451 -0.854014 0
M  V30 7562 H 722.314 0.489868 -0.570555 0
M  V30 7563 H 724.285 1.21527 -2.72532 0
M  V30 7564 C 723.034 2.83924 -2.00706 0
M  V30 7565 H 722.357 2.78158 -2.87172 0
M  V30 7566 H 723.797 3.60281 -2.23547 0
M  V30 7567 C 722.256 3.27613 -0.785568 0
M  V30 7568 O 722.786 4.01691 0.0267459 0
M  V30 7569 N 720.992 2.84134 -0.609597 0
M  V30 7570 H 720.539 2.24017 -1.27178 0
M  V30 7571 H 720.497 3.13723 0.206281 0
M  V30 7572 N 724.269 1.44576 0.627338 0
M  V30 7573 C 725.201 1.47724 1.75243 0
M  V30 7574 C 726.214 0.370193 1.58535 0
M  V30 7575 O 727.403 0.636151 1.66779 0
M  V30 7576 C 724.503 1.2991 3.13012 0
M  V30 7577 C 723.676 2.5393 3.56143 0
M  V30 7578 C 722.735 2.30961 4.72804 0
M  V30 7579 O 721.761 3.04469 4.80923 0
M  V30 7580 N 722.963 1.34261 5.6476 0
M  V30 7581 H 725.728 2.44718 1.73012 0
M  V30 7582 H 723.289 1.40064 0.812022 0
M  V30 7583 H 725.281 1.12385 3.88782 0
M  V30 7584 H 723.851 0.412668 3.09864 0
M  V30 7585 H 723.071 2.86707 2.70542 0
M  V30 7586 H 724.359 3.36411 3.81713 0
M  V30 7587 H 723.757 0.735573 5.60897 0
M  V30 7588 H 722.314 1.22713 6.40144 0
M  V30 7589 N 725.747 -0.868086 1.31537 0
M  V30 7590 C 726.71 -1.95703 1.19302 0
M  V30 7591 C 727.71 -1.60355 0.119612 0
M  V30 7592 O 728.9 -1.70247 0.36902 0
M  V30 7593 C 726.032 -3.30599 0.831684 0
M  V30 7594 H 727.225 -2.07982 2.16064 0
M  V30 7595 H 724.778 -1.05661 1.15176 0
M  V30 7596 H 725.513 -3.2402 -0.134694 0
M  V30 7597 H 725.298 -3.57629 1.60761 0
M  V30 7598 H 726.788 -4.10439 0.770026 0
M  V30 7599 N 727.225 -1.14528 -1.08264 0
M  V30 7600 C 728.455 -0.936604 -1.8415 0
M  V30 7601 C 728.863 0.518298 -1.81962 0
M  V30 7602 O 728.206 1.37096 -1.22272 0
M  V30 7603 C 728.268 -1.36182 -3.32708 0
M  V30 7604 C 727.932 -2.83257 -3.58629 0
M  V30 7605 C 728.929 -3.81366 -3.5335 0
M  V30 7606 C 726.614 -3.20704 -3.86593 0
M  V30 7607 C 728.608 -5.14929 -3.75668 0
M  V30 7608 C 726.295 -4.54443 -4.08564 0
M  V30 7609 C 727.293 -5.51365 -4.03095 0
M  V30 7610 O 726.981 -6.8269 -4.24488 0
M  V30 7611 H 726.713 -0.333254 -0.588148 0
M  V30 7612 H 729.267 -1.5247 -1.3763 0
M  V30 7613 H 727.497 -0.717063 -3.79994 0
M  V30 7614 H 729.186 -1.12372 -3.90035 0
M  V30 7615 H 729.952 -3.53781 -3.31759 0
M  V30 7616 H 725.831 -2.45857 -3.89969 0
M  V30 7617 H 729.375 -5.90568 -3.71315 0
M  V30 7618 H 725.272 -4.81747 -4.29639 0
M  V30 7619 H 726.04 -6.8897 -4.41886 0
M  V30 7620 N 728.703 1.26451 -0.940633 0
M  V30 7621 C 729.95 1.93778 -0.587909 0
M  V30 7622 C 730.278 1.73811 0.872935 0
M  V30 7623 O 729.533 1.06816 1.63978 0
M  V30 7624 C 729.832 3.46503 -0.875794 0
M  V30 7625 C 729.498 3.86609 -2.32043 0
M  V30 7626 C 728.16 3.97269 -2.71534 0
M  V30 7627 C 730.512 4.0672 -3.25927 0
M  V30 7628 C 727.84 4.25436 -4.04006 0
M  V30 7629 C 730.192 4.36375 -4.57995 0
M  V30 7630 C 728.856 4.45249 -4.97302 0
M  V30 7631 H 728.126 0.709084 -0.215131 0
M  V30 7632 H 730.773 1.50272 -1.18704 0
M  V30 7633 H 729.078 3.91319 -0.194124 0
M  V30 7634 H 730.775 3.96759 -0.581665 0
M  V30 7635 H 727.365 3.78858 -2.00411 0
M  V30 7636 H 731.549 3.97912 -2.96614 0
M  V30 7637 H 726.805 4.30519 -4.34124 0
M  V30 7638 H 730.979 4.50882 -5.30734 0
M  V30 7639 H 728.606 4.66829 -5.99979 0
M  V30 7640 N 730.181 0.707592 1.40822 0
M  V30 7641 C 731.111 0.0644925 2.33411 0
M  V30 7642 C 732.092 -0.754205 1.52466 0
M  V30 7643 O 733.277 -0.704749 1.80961 0
M  V30 7644 C 730.407 -0.863865 3.36385 0
M  V30 7645 C 729.361 -0.15138 4.27732 0
M  V30 7646 C 728.687 -1.19491 5.21177 0
M  V30 7647 C 729.987 0.989607 5.12839 0
M  V30 7648 H 731.681 0.837829 2.87438 0
M  V30 7649 H 729.227 0.404346 1.38207 0
M  V30 7650 H 731.18 -1.32309 4.0009 0
M  V30 7651 H 729.904 -1.66901 2.80734 0
M  V30 7652 H 728.563 0.287937 3.65467 0
M  V30 7653 H 728.211 -1.9929 4.61836 0
M  V30 7654 H 727.911 -0.723123 5.83134 0
M  V30 7655 H 729.435 -1.6544 5.8776 0
M  V30 7656 H 730.849 0.610114 5.70044 0
M  V30 7657 H 729.246 1.38926 5.83798 0
M  V30 7658 H 730.316 1.82389 4.49291 0
M  V30 7659 N 731.66 -1.50943 0.453197 0
M  V30 7660 C 732.59 -2.31005 -0.34044 0
M  V30 7661 C 733.571 -1.37112 -1.00669 0
M  V30 7662 O 734.756 -1.66033 -1.0073 0
M  V30 7663 C 731.886 -3.16358 -1.433 0
M  V30 7664 C 730.84 -4.18658 -0.889363 0
M  V30 7665 C 730.166 -4.92633 -2.07887 0
M  V30 7666 C 731.466 -5.22227 0.0871142 0
M  V30 7667 H 733.16 -2.97601 0.327723 0
M  V30 7668 H 730.706 -1.43119 0.159054 0
M  V30 7669 H 732.659 -3.71155 -1.99555 0
M  V30 7670 H 731.383 -2.47613 -2.12968 0
M  V30 7671 H 730.042 -3.64936 -0.348915 0
M  V30 7672 H 729.69 -4.20376 -2.76211 0
M  V30 7673 H 729.39 -5.61819 -1.72143 0
M  V30 7674 H 730.914 -5.50258 -2.64666 0
M  V30 7675 H 732.328 -5.72001 -0.385656 0
M  V30 7676 H 730.725 -5.99032 0.357926 0
M  V30 7677 H 731.795 -4.74077 1.01879 0
M  V30 7678 N 733.138 -0.185124 -1.56509 0
M  V30 7679 C 734.048 0.751908 -2.22224 0
M  V30 7680 C 735.064 1.24244 -1.21817 0
M  V30 7681 O 736.24 1.29169 -1.54523 0
M  V30 7682 C 733.305 1.95837 -2.86092 0
M  V30 7683 C 732.366 1.51337 -4.01741 0
M  V30 7684 C 731.599 2.66233 -4.62554 0
M  V30 7685 O 731.822 3.8346 -4.22273 0
M  V30 7686 O 730.756 2.39517 -5.52191 0
M  V30 7687 H 734.582 0.222304 -3.02885 0
M  V30 7688 H 732.167 0.0437141 -1.49336 0
M  V30 7689 H 734.049 2.66368 -3.26536 0
M  V30 7690 H 732.724 2.47677 -2.08417 0
M  V30 7691 H 731.631 0.777155 -3.65939 0
M  V30 7692 H 732.964 1.04175 -4.81049 0
M  V30 7693 N 734.616 1.57351 0.0885366 0
M  V30 7694 C 735.526 2.05858 1.12516 0
M  V30 7695 C 736.542 0.984758 1.43452 0
M  V30 7696 O 737.718 1.29836 1.53963 0
M  V30 7697 C 734.783 2.47882 2.42395 0
M  V30 7698 C 733.844 3.69487 2.18582 0
M  V30 7699 C 733.077 4.09497 3.42268 0
M  V30 7700 O 733.3 3.49536 4.50755 0
M  V30 7701 O 732.234 5.02406 3.31469 0
M  V30 7702 H 736.06 2.94467 0.743146 0
M  V30 7703 H 733.645 1.46326 0.301507 0
M  V30 7704 H 735.527 2.75509 3.18862 0
M  V30 7705 H 734.202 1.62408 2.8001 0
M  V30 7706 H 733.109 3.46967 1.39875 0
M  V30 7707 H 734.442 4.55761 1.85857 0
M  V30 7708 N 736.094 -0.359525 1.53444 0
M  V30 7709 C 737.342 -1.09935 1.69584 0
M  V30 7710 C 737.663 -1.89656 0.453371 0
M  V30 7711 O 736.933 -1.8852 -0.53263 0
M  V30 7712 H 735.513 -0.408843 0.625185 0
M  V30 7713 H 738.175 -0.40467 1.90653 0
M  V30 7714 H 737.271 -1.78575 2.55964 0
M  V30 7715 N 737.572 -1.44907 -0.619662 0
M  V30 7716 C 738.797 -1.52021 -1.41083 0
M  V30 7717 C 739.222 -0.14976 -1.87503 0
M  V30 7718 O 738.58 0.863303 -1.59426 0
M  V30 7719 C 738.628 -2.49911 -2.59955 0
M  V30 7720 O 737.732 -2.00857 -3.60181 0
M  V30 7721 H 737.073 -0.512912 -0.421684 0
M  V30 7722 H 739.603 -1.90149 -0.755282 0
M  V30 7723 H 739.613 -2.68323 -3.07354 0
M  V30 7724 H 738.288 -3.4945 -2.25516 0
M  V30 7725 H 736.865 -1.92265 -3.19513 0
M  V30 7726 N 739.05 0.861098 -1.31996 0
M  V30 7727 C 739.997 1.96912 -1.20392 0
M  V30 7728 C 740.967 1.65869 -0.0875899 0
M  V30 7729 O 742.152 1.88992 -0.262011 0
M  V30 7730 C 739.292 3.32435 -0.926335 0
M  V30 7731 C 738.405 3.76018 -2.12684 0
M  V30 7732 C 737.54 5.00301 -1.78529 0
M  V30 7733 C 736.579 5.36357 -2.94937 0
M  V30 7734 N 735.716 6.51818 -2.60917 0
M  V30 7735 H 740.556 2.06169 -2.1517 0
M  V30 7736 H 738.093 1.00917 -1.07024 0
M  V30 7737 H 740.051 4.10478 -0.745917 0
M  V30 7738 H 738.681 3.22796 -0.0153578 0
M  V30 7739 H 737.733 2.93683 -2.41774 0
M  V30 7740 H 739.045 3.98664 -2.99781 0
M  V30 7741 H 738.199 5.86034 -1.57001 0
M  V30 7742 H 736.938 4.79578 -0.886356 0
M  V30 7743 H 735.943 4.49139 -3.17103 0
M  V30 7744 H 737.168 5.59041 -3.85552 0
M  V30 7745 H 735.114 6.32624 -1.73558 0
M  V30 7746 H 735.031 6.7445 -3.41544 0
M  V30 7747 H 736.299 7.4072 -2.42804 0
M  V30 7748 N 740.528 1.15101 1.07655 0
M  V30 7749 C 741.939 0.933848 1.61667 0
M  V30 7750 C 742.29 -0.525569 1.8903 0
M  V30 7751 O 741.415 -1.39605 1.65346 0
M  V30 7752 C 742.01 1.68876 2.93711 0
M  V30 7753 C 740.569 1.51697 3.44478 0
M  V30 7754 C 739.716 1.70633 2.18586 0
M  V30 7755 H 742.667 1.30171 0.907816 0
M  V30 7756 H 742.688 1.15645 3.625 0
M  V30 7757 H 742.2 2.7509 2.73764 0
M  V30 7758 H 740.301 0.478635 3.69513 0
M  V30 7759 H 740.414 2.29194 4.20722 0
M  V30 7760 H 738.778 1.13259 2.28132 0
M  V30 7761 H 739.561 2.78206 2.01137 0
M  V30 7762 N 742.006 -1.2595 0.947325 0
M  V30 7763 C 742.916 -2.29883 0.468079 0
M  V30 7764 C 743.932 -1.67783 -0.460975 0
M  V30 7765 O 745.108 -1.98526 -0.339006 0
M  V30 7766 C 742.173 -3.45773 -0.253315 0
M  V30 7767 C 741.234 -4.23337 0.713054 0
M  V30 7768 C 740.467 -5.33694 0.025993 0
M  V30 7769 O 740.69 -5.57853 -1.18978 0
M  V30 7770 O 739.624 -5.97724 0.70782 0
M  V30 7771 H 743.45 -2.72952 1.33156 0
M  V30 7772 H 741.035 -1.31263 0.713468 0
M  V30 7773 H 742.917 -4.16209 -0.659423 0
M  V30 7774 H 741.592 -3.04721 -1.09209 0
M  V30 7775 H 740.499 -3.55359 1.16923 0
M  V30 7776 H 741.832 -4.68154 1.51963 0
M  V30 7777 N 743.484 -0.715051 -1.40445 0
M  V30 7778 C 744.394 -0.0631624 -2.34515 0
M  V30 7779 C 745.41 0.744397 -1.57273 0
M  V30 7780 O 746.586 0.677475 -1.89663 0
M  V30 7781 C 743.651 0.847915 -3.36172 0
M  V30 7782 C 742.712 0.0303655 -4.29289 0
M  V30 7783 C 741.945 0.898051 -5.2609 0
M  V30 7784 O 742.168 2.13729 -5.28844 0
M  V30 7785 O 741.102 0.337328 -6.00954 0
M  V30 7786 H 744.928 -0.839078 -2.91879 0
M  V30 7787 H 742.513 -0.475527 -1.4163 0
M  V30 7788 H 744.395 1.3698 -3.98515 0
M  V30 7789 H 743.07 1.60299 -2.81222 0
M  V30 7790 H 741.977 -0.536573 -3.70232 0
M  V30 7791 H 743.31 -0.686474 -4.87389 0
M  V30 7792 N 744.962 1.50701 -0.461195 0
M  V30 7793 C 746.208 2.02566 0.0973411 0
M  V30 7794 C 746.541 1.3432 1.40257 0
M  V30 7795 O 745.816 0.465692 1.88843 0
M  V30 7796 C 746.099 3.58919 0.291423 0
M  V30 7797 C 745.952 4.37751 -1.03413 0
M  V30 7798 C 747.271 4.27379 1.05048 0
M  V30 7799 H 744.39 0.73622 0.0339026 0
M  V30 7800 H 747.032 1.80115 -0.604855 0
M  V30 7801 H 745.182 3.78179 0.889539 0
M  V30 7802 H 746.854 4.30085 -1.66806 0
M  V30 7803 H 745.097 4.01885 -1.63313 0
M  V30 7804 H 745.768 5.45384 -0.852085 0
M  V30 7805 H 748.244 4.12534 0.543603 0
M  V30 7806 H 747.12 5.36609 1.15506 0
M  V30 7807 H 747.381 3.89868 2.0846 0
M  V30 7808 N 746.441 0.193421 1.56409 0
M  V30 7809 C 747.718 -0.493318 1.89277 0
M  V30 7810 C 748.098 -1.79765 1.10669 0
M  V30 7811 O 747.446 -2.27558 0.207274 0
M  V30 7812 C 747.656 -0.713732 3.41624 0
M  V30 7813 C 749.004 -1.03385 4.11821 0
M  V30 7814 O 750.028 -0.801511 3.47065 0
M  V30 7815 O 748.887 -1.47327 5.26267 0
M  V30 7816 H 745.981 -0.256973 0.786062 0
M  V30 7817 H 748.527 0.23351 1.68086 0
M  V30 7818 H 747.299 0.207446 3.9075 0
M  V30 7819 H 746.922 -1.49308 3.68501 0
M  V30 7820 N 747.919 -1.57396 -0.0801906 0
M  V30 7821 C 748.851 -1.9982 -1.12271 0
M  V30 7822 C 749.864 -0.902902 -1.35468 0
M  V30 7823 O 751.053 -1.18088 -1.33856 0
M  V30 7824 C 748.153 -2.31476 -2.47532 0
M  V30 7825 C 747.326 -3.62745 -2.44407 0
M  V30 7826 C 746.385 -3.82168 -3.6171 0
M  V30 7827 O 745.411 -4.53852 -3.43522 0
M  V30 7828 N 746.613 -3.2388 -4.81749 0
M  V30 7829 H 749.378 -2.89864 -0.761501 0
M  V30 7830 H 746.939 -1.5965 -0.268965 0
M  V30 7831 H 748.931 -2.4165 -3.24634 0
M  V30 7832 H 747.501 -1.47364 -2.75686 0
M  V30 7833 H 746.721 -3.63403 -1.52747 0
M  V30 7834 H 748.009 -4.48954 -2.39412 0
M  V30 7835 H 747.407 -2.6568 -4.9943 0
M  V30 7836 H 745.964 -3.39515 -5.56392 0
M  V30 7837 N 749.397 0.351382 -1.53633 0
M  V30 7838 C 750.643 1.09411 -1.70754 0
M  V30 7839 C 750.976 1.88544 -0.465293 0
M  V30 7840 O 750.251 1.86923 0.537608 0
M  V30 7841 C 750.534 2.04173 -2.96623 0
M  V30 7842 C 750.387 1.28556 -4.31038 0
M  V30 7843 C 751.706 3.04102 -3.18136 0
M  V30 7844 H 748.825 0.396373 -0.621335 0
M  V30 7845 H 751.467 0.373464 -1.86293 0
M  V30 7846 H 749.617 2.65625 -2.83506 0
M  V30 7847 H 751.289 0.697786 -4.55992 0
M  V30 7848 H 749.532 0.587498 -4.29803 0
M  V30 7849 H 750.203 1.97989 -5.15271 0
M  V30 7850 H 752.679 2.5276 -3.30532 0
M  V30 7851 H 751.555 3.67616 -4.07615 0
M  V30 7852 H 751.816 3.75053 -2.34068 0
M  V30 7853 N 750.875 1.45233 0.611969 0
M  V30 7854 C 751.805 1.5641 1.73373 0
M  V30 7855 C 752.786 0.415896 1.64937 0
M  V30 7856 O 753.971 0.638478 1.83404 0
M  V30 7857 C 751.101 1.52627 3.11965 0
M  V30 7858 C 750.055 2.66119 3.35208 0
M  V30 7859 C 749.381 2.4739 4.74028 0
M  V30 7860 C 750.681 4.08157 3.25891 0
M  V30 7861 H 752.375 2.50307 1.64277 0
M  V30 7862 H 749.921 1.20467 0.788904 0
M  V30 7863 H 751.874 1.59043 3.90235 0
M  V30 7864 H 750.598 0.552564 3.21892 0
M  V30 7865 H 749.257 2.59123 2.59327 0
M  V30 7866 H 748.905 1.48168 4.80682 0
M  V30 7867 H 748.605 3.23494 4.90536 0
M  V30 7868 H 750.129 2.55653 5.54503 0
M  V30 7869 H 751.543 4.1642 3.9404 0
M  V30 7870 H 749.94 4.84617 3.5393 0
M  V30 7871 H 751.01 4.30374 2.23397 0
M  V30 7872 N 752.353 -0.854086 1.3245 0
M  V30 7873 C 753.263 -1.99503 1.23434 0
M  V30 7874 C 754.279 -1.73371 0.147828 0
M  V30 7875 O 755.455 -1.97998 0.368609 0
M  V30 7876 C 752.52 -3.33192 0.958328 0
M  V30 7877 C 751.581 -3.72542 2.13333 0
M  V30 7878 C 750.814 -4.99852 1.8704 0
M  V30 7879 O 751.037 -5.64573 0.813239 0
M  V30 7880 O 749.971 -5.36345 2.73161 0
M  V30 7881 H 753.797 -2.10046 2.1935 0
M  V30 7882 H 751.382 -0.984823 1.12346 0
M  V30 7883 H 753.264 -4.13327 0.820918 0
M  V30 7884 H 751.939 -3.23687 0.0293299 0
M  V30 7885 H 750.846 -2.92981 2.32622 0
M  V30 7886 H 752.179 -3.86694 3.04514 0
M  V30 7887 N 753.831 -1.1567 -1.07043 0
M  V30 7888 C 754.741 -0.870435 -2.17855 0
M  V30 7889 C 755.757 0.154452 -1.73313 0
M  V30 7890 O 756.933 -0.0203759 -2.0139 0
M  V30 7891 C 753.998 -0.367219 -3.4475 0
M  V30 7892 C 753.059 -1.45639 -4.03841 0
M  V30 7893 C 752.292 -0.977092 -5.2468 0
M  V30 7894 O 752.515 0.176127 -5.70128 0
M  V30 7895 O 751.449 -1.76215 -5.75527 0
M  V30 7896 H 755.275 -1.79687 -2.44839 0
M  V30 7897 H 752.86 -0.936064 -1.1644 0
M  V30 7898 H 754.742 -0.0931947 -4.21297 0
M  V30 7899 H 753.417 0.53131 -3.1931 0
M  V30 7900 H 752.324 -1.78406 -3.28819 0
M  V30 7901 H 753.657 -2.32995 -4.3356 0
M  V30 7902 N 755.309 1.25446 -0.953992 0
M  V30 7903 C 756.556 1.93143 -0.608429 0
M  V30 7904 C 756.884 1.74727 0.854451 0
M  V30 7905 O 756.139 1.0855 1.62836 0
M  V30 7906 C 756.438 3.45555 -0.912496 0
M  V30 7907 C 756.104 3.84126 -2.36131 0
M  V30 7908 C 754.766 3.94367 -2.75732 0
M  V30 7909 C 757.118 4.0324 -3.30223 0
M  V30 7910 C 754.446 4.21127 -4.08496 0
M  V30 7911 C 756.798 4.31493 -4.62598 0
M  V30 7912 C 755.462 4.3995 -5.01996 0
M  V30 7913 H 754.732 0.706762 -0.22264 0
M  V30 7914 H 757.379 1.49005 -1.20291 0
M  V30 7915 H 755.684 3.91091 -0.235618 0
M  V30 7916 H 757.381 3.9612 -0.623714 0
M  V30 7917 H 753.971 3.76711 -2.04418 0
M  V30 7918 H 758.155 3.94744 -3.00817 0
M  V30 7919 H 753.411 4.2589 -4.38665 0
M  V30 7920 H 757.585 4.45227 -5.35486 0
M  V30 7921 H 755.212 4.60439 -6.04896 0
M  V30 7922 N 756.787 0.722489 1.40064 0
M  V30 7923 C 758.035 0.264455 2.00362 0
M  V30 7924 C 758.356 -1.14847 1.57592 0
M  V30 7925 O 757.626 -1.77982 0.818477 0
M  V30 7926 H 756.206 0.0947846 0.740962 0
M  V30 7927 H 758.868 0.929659 1.71299 0
M  V30 7928 H 757.964 0.302977 3.10626 0
M  V30 7929 N 758.265 -1.50454 0.469181 0
M  V30 7930 C 759.512 -2.02315 -0.086469 0
M  V30 7931 C 759.84 -1.3513 -1.39893 0
M  V30 7932 O 759.095 -0.465341 -1.90087 0
M  V30 7933 C 759.394 -3.55963 -0.320207 0
M  V30 7934 C 759.06 -4.41615 0.910318 0
M  V30 7935 C 757.722 -4.64743 1.2477 0
M  V30 7936 C 760.074 -4.91661 1.72971 0
M  V30 7937 C 757.402 -5.35161 2.40457 0
M  V30 7938 C 759.754 -5.6335 2.87785 0
M  V30 7939 C 758.418 -5.84732 3.2194 0
M  V30 7940 H 757.688 -0.740324 -0.0316412 0
M  V30 7941 H 760.335 -1.81087 0.622872 0
M  V30 7942 H 758.64 -3.75695 -1.11177 0
M  V30 7943 H 760.337 -3.93653 -0.764071 0
M  V30 7944 H 756.927 -4.23833 0.637467 0
M  V30 7945 H 761.111 -4.73649 1.48224 0
M  V30 7946 H 756.367 -5.49924 2.67196 0
M  V30 7947 H 760.541 -6.0111 3.51624 0
M  V30 7948 H 758.168 -6.39074 4.1169 0
M  V30 7949 N 759.743 -0.201713 -1.56304 0
M  V30 7950 C 760.69 0.716499 -2.19397 0
M  V30 7951 C 761.66 1.20494 -1.14326 0
M  V30 7952 O 762.845 1.26763 -1.42604 0
M  V30 7953 C 759.985 1.92762 -2.86246 0
M  V30 7954 C 759.098 1.47993 -4.0586 0
M  V30 7955 C 758.233 2.64706 -4.60547 0
M  V30 7956 C 757.272 2.16576 -5.72504 0
M  V30 7957 N 756.409 3.26491 -6.21569 0
M  V30 7958 H 761.249 0.171724 -2.97505 0
M  V30 7959 H 758.786 0.073016 -1.46919 0
M  V30 7960 H 760.744 2.6384 -3.23178 0
M  V30 7961 H 759.374 2.44559 -2.10691 0
M  V30 7962 H 758.426 0.66477 -3.74546 0
M  V30 7963 H 759.738 1.08686 -4.86815 0
M  V30 7964 H 758.892 3.43898 -4.99819 0
M  V30 7965 H 757.631 3.0729 -3.78713 0
M  V30 7966 H 756.636 1.3584 -5.32755 0
M  V30 7967 H 757.861 1.75015 -6.56161 0
M  V30 7968 H 755.807 3.68594 -5.42655 0
M  V30 7969 H 755.724 2.91374 -6.97594 0
M  V30 7970 H 756.992 4.05877 -6.65495 0
M  V30 7971 N 761.222 1.57436 0.0718424 0
M  V30 7972 C 762.155 1.98982 1.11721 0
M  V30 7973 C 763.133 0.866731 1.37574 0
M  V30 7974 O 764.317 1.12903 1.50948 0
M  V30 7975 C 761.444 2.32648 2.46155 0
M  V30 7976 C 760.49 3.54964 2.36437 0
M  V30 7977 S 761.323 5.05802 1.75854 0
M  V30 7978 C 762.479 5.42669 3.11867 0
M  V30 7979 H 762.712 2.87338 0.763154 0
M  V30 7980 H 760.245 1.51833 0.280372 0
M  V30 7981 H 762.203 2.52719 3.23486 0
M  V30 7982 H 760.864 1.44821 2.78722 0
M  V30 7983 H 760.057 3.76038 3.35577 0
M  V30 7984 H 759.659 3.34524 1.67242 0
M  V30 7985 H 761.951 5.40737 4.08178 0
M  V30 7986 H 762.894 6.43461 2.95573 0
M  V30 7987 H 763.302 4.70131 3.1247 0
M  V30 7988 N 762.7 -0.34323 1.53817 0
M  V30 7989 C 763.948 -1.0813 1.70741 0
M  V30 7990 C 764.269 -1.89165 0.473461 0
M  V30 7991 O 763.539 -1.89075 -0.512605 0
M  V30 7992 H 762.119 -0.40219 0.629486 0
M  V30 7993 H 764.781 -0.384426 1.91071 0
M  V30 7994 H 763.877 -1.7585 2.57843 0
M  V30 7995 N 764.178 -1.45556 -0.604258 0
M  V30 7996 C 765.589 -1.44171 -1.18624 0
M  V30 7997 C 765.94 -0.171081 -1.95453 0
M  V30 7998 O 765.065 0.727156 -2.03817 0
M  V30 7999 C 765.66 -2.61193 -2.15786 0
M  V30 8000 C 764.219 -2.62918 -2.69353 0
M  V30 8001 C 763.366 -2.36479 -1.4482 0
M  V30 8002 H 766.317 -1.53747 -0.393381 0
M  V30 8003 H 766.338 -2.35481 -2.98879 0
M  V30 8004 H 765.85 -3.53656 -1.59841 0
M  V30 8005 H 763.951 -1.7447 -3.29228 0
M  V30 8006 H 764.064 -3.6224 -3.13559 0
M  V30 8007 H 762.428 -1.86103 -1.73891 0
M  V30 8008 H 763.211 -3.31091 -0.907376 0
M  V30 8009 N 765.656 0.84705 -1.32902 0
M  V30 8010 C 766.903 1.60176 -1.23894 0
M  V30 8011 C 767.231 1.93496 0.197341 0
M  V30 8012 O 766.486 1.58173 1.15238 0
M  V30 8013 C 766.785 2.92663 -2.05142 0
M  V30 8014 C 766.451 2.7874 -3.54422 0
M  V30 8015 C 765.113 2.7465 -3.95121 0
M  V30 8016 C 767.465 2.64128 -4.49317 0
M  V30 8017 C 764.793 2.53837 -5.28946 0
M  V30 8018 C 767.145 2.44849 -5.83294 0
M  V30 8019 C 765.809 2.39156 -6.23186 0
M  V30 8020 H 765.079 0.586127 -0.453361 0
M  V30 8021 H 767.726 0.981994 -1.64405 0
M  V30 8022 H 766.031 3.588 -1.57383 0
M  V30 8023 H 767.728 3.50095 -1.95537 0
M  V30 8024 H 764.318 2.82751 -3.22102 0
M  V30 8025 H 768.502 2.66327 -4.18788 0
M  V30 8026 H 763.758 2.4787 -5.58901 0
M  V30 8027 H 767.932 2.32524 -6.56434 0
M  V30 8028 H 765.559 2.22789 -7.26821 0
M  V30 8029 N 767.134 1.16236 1.06428 0
M  V30 8030 C 768.55 0.906983 1.31324 0
M  V30 8031 C 768.75 -0.440872 1.96618 0
M  V30 8032 O 767.806 -1.1807 2.23194 0
M  V30 8033 C 769.119 2.05501 2.19522 0
M  V30 8034 C 770.667 2.09061 2.32943 0
M  V30 8035 C 771.142 3.23214 3.24495 0
M  V30 8036 N 772.633 3.22922 3.32078 0
M  V30 8037 C 773.368 4.07889 4.03006 0
M  V30 8038 N 772.864 5.02941 4.76469 0
M  V30 8039 N 774.657 3.95881 3.99043 0
M  V30 8040 H 766.808 2.03015 0.624388 0
M  V30 8041 H 769.071 0.88576 0.337835 0
M  V30 8042 H 768.777 3.02847 1.78819 0
M  V30 8043 H 768.651 1.99538 3.201 0
M  V30 8044 H 771.038 1.12308 2.72893 0
M  V30 8045 H 771.119 2.19089 1.32037 0
M  V30 8046 H 770.763 4.20225 2.85261 0
M  V30 8047 H 770.693 3.10423 4.25377 0
M  V30 8048 H 773.184 2.54093 2.79724 0
M  V30 8049 H 773.497 5.64196 5.28112 0
M  V30 8050 H 771.842 5.06922 4.75453 0
M  V30 8051 H 775.033 3.20927 3.40769 0
M  V30 8052 H 775.206 4.62321 4.54052 0
M  V30 8053 N 768.612 -1.24939 0.960631 0
M  V30 8054 C 769.858 -1.93104 0.61958 0
M  V30 8055 C 770.191 -1.74991 -0.84212 0
M  V30 8056 O 769.466 -1.09867 -1.60498 0
M  V30 8057 C 769.749 -3.46326 0.986422 0
M  V30 8058 C 769.602 -3.73638 2.50429 0
M  V30 8059 C 770.921 -4.37067 0.515827 0
M  V30 8060 H 768.04 -0.701311 0.226566 0
M  V30 8061 H 770.682 -1.47442 1.19836 0
M  V30 8062 H 768.832 -3.85348 0.493907 0
M  V30 8063 H 770.504 -3.44217 3.07103 0
M  V30 8064 H 768.747 -3.19035 2.93937 0
M  V30 8065 H 769.418 -4.80815 2.71147 0
M  V30 8066 H 771.894 -4.05381 0.938389 0
M  V30 8067 H 770.77 -5.43022 0.80114 0
M  V30 8068 H 771.031 -4.38224 -0.584171 0
M  V30 8069 N 770.09 -0.729906 -1.39679 0
M  V30 8070 C 771.315 -0.284345 -2.05442 0
M  V30 8071 C 771.74 1.07056 -1.54663 0
M  V30 8072 O 771.098 1.67732 -0.688157 0
M  V30 8073 C 771.146 -0.290089 -3.59431 0
M  V30 8074 O 770.25 0.723978 -4.05995 0
M  V30 8075 H 769.591 -0.130311 -0.651088 0
M  V30 8076 H 772.121 -0.994403 -1.78809 0
M  V30 8077 H 772.131 -0.132712 -4.07784 0
M  V30 8078 H 770.806 -1.27877 -3.95753 0
M  V30 8079 H 769.383 0.533154 -3.69069 0
M  V30 8080 N 771.568 1.50203 -0.477153 0
M  V30 8081 C 772.845 1.95115 0.137609 0
M  V30 8082 C 773.225 1.41778 1.56404 0
M  V30 8083 O 772.573 0.621333 2.1989 0
M  V30 8084 C 772.783 3.4892 0.0747168 0
M  V30 8085 C 774.131 4.238 0.260585 0
M  V30 8086 O 775.155 3.5588 0.151021 0
M  V30 8087 O 774.014 5.44366 0.482534 0
M  V30 8088 H 771.108 0.81987 0.108364 0
M  V30 8089 H 773.654 1.60946 -0.537989 0
M  V30 8090 H 772.426 3.80308 -0.920966 0
M  V30 8091 H 772.049 3.89642 0.791509 0
M  V30 8092 N 773.046 0.209999 1.56195 0
M  V30 8093 C 773.976 -0.699746 2.22769 0
M  V30 8094 C 774.957 -1.20993 1.1956 0
M  V30 8095 O 776.142 -1.25605 1.48112 0
M  V30 8096 C 773.272 -1.91302 2.89863 0
M  V30 8097 C 772.226 -1.53715 3.99444 0
M  V30 8098 C 771.552 -2.82826 4.53777 0
M  V30 8099 C 772.852 -0.735836 5.17091 0
M  V30 8100 H 774.546 -0.144716 2.9905 0
M  V30 8101 H 772.092 -0.0681645 1.43839 0
M  V30 8102 H 774.045 -2.5548 3.35124 0
M  V30 8103 H 772.769 -2.49283 2.11011 0
M  V30 8104 H 771.428 -0.918892 3.54897 0
M  V30 8105 H 771.076 -3.38927 3.71669 0
M  V30 8106 H 770.776 -2.58415 5.27727 0
M  V30 8107 H 772.3 -3.47966 5.01749 0
M  V30 8108 H 773.714 -1.28105 5.58804 0
M  V30 8109 H 772.111 -0.589272 5.972 0
M  V30 8110 H 773.181 0.260004 4.84202 0
M  V30 8111 N 774.524 -1.57472 -0.0634922 0
M  V30 8112 C 775.487 -2.03268 -1.059 0
M  V30 8113 C 776.487 -0.931028 -1.31105 0
M  V30 8114 O 777.677 -1.19567 -1.26686 0
M  V30 8115 C 774.809 -2.42039 -2.40062 0
M  V30 8116 H 776.002 -2.92454 -0.664119 0
M  V30 8117 H 773.555 -1.53206 -0.309444 0
M  V30 8118 H 774.29 -1.55904 -2.84367 0
M  V30 8119 H 774.075 -3.22437 -2.23108 0
M  V30 8120 H 775.565 -2.78017 -3.11603 0
M  V30 8121 N 776.003 0.335068 -1.53997 0
M  V30 8122 C 777.251 1.07223 -1.71312 0
M  V30 8123 C 777.572 1.88911 -0.483486 0
M  V30 8124 O 776.842 1.89344 0.50257 0
M  V30 8125 H 775.422 0.398846 -0.63161 0
M  V30 8126 H 778.084 0.374288 -1.91272 0
M  V30 8127 H 777.18 1.7448 -2.58772 0
M  V30 8128 N 777.481 1.45874 0.596531 0
M  V30 8129 C 778.411 1.5824 1.71705 0
M  V30 8130 C 779.392 0.433366 1.64487 0
M  V30 8131 O 780.577 0.657895 1.82717 0
M  V30 8132 C 777.707 1.55927 3.10329 0
M  V30 8133 C 776.661 2.69659 3.32367 0
M  V30 8134 C 775.987 2.52403 4.71377 0
M  V30 8135 C 777.287 4.11591 3.21544 0
M  V30 8136 H 778.981 2.52035 1.61613 0
M  V30 8137 H 776.527 1.21297 0.776082 0
M  V30 8138 H 778.48 1.63173 3.88526 0
M  V30 8139 H 777.204 0.586674 3.21288 0
M  V30 8140 H 775.863 2.61859 2.56564 0
M  V30 8141 H 775.511 1.53258 4.79083 0
M  V30 8142 H 775.211 3.28679 4.87077 0
M  V30 8143 H 776.735 2.6152 5.5176 0
M  V30 8144 H 778.149 4.20576 3.89601 0
M  V30 8145 H 776.546 4.88344 3.4877 0
M  V30 8146 H 777.616 4.32719 2.1882 0
M  V30 8147 N 778.959 -0.83999 1.33349 0
M  V30 8148 C 780.236 -1.57973 1.15342 0
M  V30 8149 C 780.616 -2.09226 -0.280632 0
M  V30 8150 O 779.964 -1.89317 -1.2795 0
M  V30 8151 C 780.174 -2.71446 2.19359 0
M  V30 8152 C 781.522 -3.40654 2.53456 0
M  V30 8153 O 782.546 -2.81686 2.18017 0
M  V30 8154 O 781.405 -4.47101 3.14266 0
M  V30 8155 H 778.499 -0.6964 0.446044 0
M  V30 8156 H 781.045 -0.882843 1.44927 0
M  V30 8157 H 779.817 -2.31205 3.1569 0
M  V30 8158 H 779.44 -3.488 1.90852 0
M  V30 8159 N 780.437 -1.16799 -1.0581 0
M  V30 8160 C 781.683 -0.953935 -1.78963 0
M  V30 8161 C 782.016 0.516638 -1.87202 0
M  V30 8162 O 781.291 1.38338 -1.36721 0
M  V30 8163 C 781.574 -1.58808 -3.23191 0
M  V30 8164 C 781.427 -3.13032 -3.23003 0
M  V30 8165 C 782.746 -1.2868 -4.20867 0
M  V30 8166 H 779.865 -0.347972 -0.64968 0
M  V30 8167 H 782.507 -1.44204 -1.23715 0
M  V30 8168 H 780.657 -1.17303 -3.70368 0
M  V30 8169 H 782.329 -3.63553 -2.83949 0
M  V30 8170 H 780.572 -3.46108 -2.61518 0
M  V30 8171 H 781.243 -3.52527 -4.24769 0
M  V30 8172 H 783.719 -1.6461 -3.82155 0
M  V30 8173 H 782.595 -1.75645 -5.20038 0
M  V30 8174 H 782.856 -0.206491 -4.41618 0
M  V30 8175 N 781.915 1.24427 -0.967243 0
M  V30 8176 C 783.163 1.92107 -0.627638 0
M  V30 8177 C 783.484 1.75991 0.83978 0
M  V30 8178 O 782.754 1.13118 1.59941 0
M  V30 8179 H 781.334 0.710986 -0.229145 0
M  V30 8180 H 783.996 1.51331 -1.22821 0
M  V30 8181 H 783.092 2.99791 -0.867844 0
M  V30 8182 N 783.393 0.737304 1.3929 0
M  V30 8183 C 784.639 0.295581 2.01241 0
M  V30 8184 C 784.994 -1.10561 1.57461 0
M  V30 8185 O 784.287 -1.74346 0.7946 0
M  V30 8186 C 784.481 0.338438 3.55794 0
M  V30 8187 C 784.31 1.74225 4.14579 0
M  V30 8188 C 783.08 2.35502 4.47065 0
M  V30 8189 C 785.278 2.69623 4.37959 0
M  V30 8190 N 783.26 3.68014 4.91365 0
M  V30 8191 C 784.631 3.86873 4.84489 0
M  V30 8192 C 786.686 2.67355 4.2003 0
M  V30 8193 C 785.389 5.02193 5.14971 0
M  V30 8194 C 787.415 3.8182 4.51627 0
M  V30 8195 C 786.777 4.97806 4.98366 0
M  V30 8196 H 782.876 0.154468 0.766592 0
M  V30 8197 H 785.46 0.963768 1.69173 0
M  V30 8198 H 783.631 -0.299406 3.87244 0
M  V30 8199 H 785.363 -0.122053 4.04516 0
M  V30 8200 H 782.118 1.87406 4.34943 0
M  V30 8201 H 782.542 4.36051 5.17869 0
M  V30 8202 H 787.184 1.78876 3.83097 0
M  V30 8203 H 784.902 5.913 5.50809 0
M  V30 8204 H 788.488 3.81366 4.39376 0
M  V30 8205 H 787.368 5.84909 5.22351 0
M  V30 8206 N 784.871 -1.49948 0.485112 0
M  V30 8207 C 785.818 -2.28819 -0.301729 0
M  V30 8208 C 786.788 -1.34496 -0.974683 0
M  V30 8209 O 787.973 -1.63444 -0.984418 0
M  V30 8210 C 785.113 -3.16758 -1.36961 0
M  V30 8211 C 784.226 -4.26125 -0.710027 0
M  V30 8212 C 783.361 -5.01302 -1.75699 0
M  V30 8213 C 782.4 -6.02525 -1.07841 0
M  V30 8214 N 781.537 -6.70927 -2.06886 0
M  V30 8215 H 786.377 -2.95604 0.377127 0
M  V30 8216 H 783.914 -1.45764 0.197826 0
M  V30 8217 H 785.872 -3.66106 -2.00056 0
M  V30 8218 H 784.502 -2.51991 -2.01744 0
M  V30 8219 H 783.554 -3.80385 0.0338278 0
M  V30 8220 H 784.866 -4.98493 -0.175079 0
M  V30 8221 H 784.02 -5.54438 -2.46339 0
M  V30 8222 H 782.759 -4.28672 -2.32577 0
M  V30 8223 H 781.764 -5.48635 -0.357706 0
M  V30 8224 H 782.989 -6.77134 -0.516345 0
M  V30 8225 H 780.935 -6.01079 -2.62755 0
M  V30 8226 H 780.852 -7.39216 -1.58414 0
M  V30 8227 H 782.12 -7.28675 -2.76863 0
M  V30 8228 N 786.349 -0.21828 -1.56081 0
M  V30 8229 C 787.574 0.422302 -2.03055 0
M  V30 8230 C 787.999 1.5279 -1.09713 0
M  V30 8231 O 787.357 1.81102 -0.0847187 0
M  V30 8232 C 787.405 0.934177 -3.48289 0
M  V30 8233 O 786.509 2.04574 -3.58083 0
M  V30 8234 H 785.85 0.0959764 -0.657027 0
M  V30 8235 H 788.38 -0.335958 -2.01823 0
M  V30 8236 H 788.39 1.24484 -3.88546 0
M  V30 8237 H 787.065 0.124963 -4.15712 0
M  V30 8238 H 785.642 1.74196 -3.29712 0
M  V30 8239 N 787.827 1.57504 0.0551401 0
M  V30 8240 C 789.243 1.54236 0.410292 0
M  V30 8241 C 789.443 0.940839 1.78187 0
M  V30 8242 O 788.499 0.550541 2.46425 0
M  V30 8243 C 789.812 2.98816 0.336064 0
M  V30 8244 C 791.36 3.10236 0.415047 0
M  V30 8245 C 791.835 4.56499 0.37055 0
M  V30 8246 N 793.326 4.61199 0.43013 0
M  V30 8247 C 794.061 5.71873 0.418179 0
M  V30 8248 N 793.557 6.91864 0.360056 0
M  V30 8249 N 795.35 5.60165 0.465977 0
M  V30 8250 H 787.501 1.94965 -0.842759 0
M  V30 8251 H 789.764 0.893096 -0.317937 0
M  V30 8252 H 789.47 3.4645 -0.605429 0
M  V30 8253 H 789.344 3.59564 1.13988 0
M  V30 8254 H 791.731 2.62566 1.34697 0
M  V30 8255 H 791.812 2.52367 -0.417648 0
M  V30 8256 H 791.456 5.0483 -0.557592 0
M  V30 8257 H 791.386 5.12249 1.221 0
M  V30 8258 H 793.877 3.74857 0.478623 0
M  V30 8259 H 794.19 7.71983 0.35532 0
M  V30 8260 H 792.535 6.94233 0.326492 0
M  V30 8261 H 795.726 4.65322 0.509194 0
M  V30 8262 H 795.899 6.46413 0.453194 0
M  V30 8263 N 789.305 -0.326896 1.54172 0
M  V30 8264 C 790.252 -1.40216 1.83325 0
M  V30 8265 C 791.222 -1.51538 0.680107 0
M  V30 8266 O 792.407 -1.66811 0.926206 0
M  V30 8267 C 789.547 -2.76626 2.0633 0
M  V30 8268 C 788.66 -2.73963 3.34019 0
M  V30 8269 C 787.795 -4.02198 3.47002 0
M  V30 8270 C 786.834 -3.93828 4.68578 0
M  V30 8271 N 785.971 -5.13787 4.78506 0
M  V30 8272 H 790.811 -1.14656 2.7506 0
M  V30 8273 H 788.348 -0.555089 1.36225 0
M  V30 8274 H 790.306 -3.55922 2.17659 0
M  V30 8275 H 788.936 -3.00503 1.1789 0
M  V30 8276 H 787.988 -1.86677 3.31445 0
M  V30 8277 H 789.3 -2.6366 4.2342 0
M  V30 8278 H 788.454 -4.89923 3.57855 0
M  V30 8279 H 787.193 -4.15302 2.55687 0
M  V30 8280 H 786.198 -3.04487 4.57786 0
M  V30 8281 H 787.423 -3.82292 5.61275 0
M  V30 8282 H 785.369 -5.27403 3.90105 0
M  V30 8283 H 785.286 -5.05807 5.61868 0
M  V30 8284 H 786.554 -6.03236 4.93686 0
M  V30 8285 N 790.784 -1.46188 -0.588786 0
M  V30 8286 C 792.032 -1.50885 -1.34455 0
M  V30 8287 C 792.353 -0.159555 -1.94346 0
M  V30 8288 O 791.623 0.813239 -1.78222 0
M  V30 8289 H 790.203 -0.555707 -0.499198 0
M  V30 8290 H 792.865 -1.82277 -0.690014 0
M  V30 8291 H 791.961 -2.25816 -2.15438 0
M  V30 8292 N 792.262 0.832906 -1.33792 0
M  V30 8293 C 793.194 1.95042 -1.2038 0
M  V30 8294 C 794.207 1.62253 -0.133299 0
M  V30 8295 O 795.396 1.74315 -0.384261 0
M  V30 8296 C 792.496 3.287 -0.825215 0
M  V30 8297 C 791.669 3.89581 -1.98861 0
M  V30 8298 C 790.728 5.01602 -1.59003 0
M  V30 8299 O 789.754 5.20431 -2.30522 0
M  V30 8300 N 790.956 5.78356 -0.498446 0
M  V30 8301 H 793.721 2.07083 -2.16649 0
M  V30 8302 H 791.282 1.00896 -1.26616 0
M  V30 8303 H 793.274 4.01074 -0.540559 0
M  V30 8304 H 791.844 3.12565 0.0469796 0
M  V30 8305 H 791.064 3.09723 -2.43856 0
M  V30 8306 H 792.352 4.26989 -2.76691 0
M  V30 8307 H 791.75 5.65618 0.0963297 0
M  V30 8308 H 790.307 6.51226 -0.273485 0
M  V30 8309 N 793.74 1.17359 1.05189 0
M  V30 8310 C 794.988 0.960087 1.77839 0
M  V30 8311 C 795.309 -0.512554 1.88143 0
M  V30 8312 O 794.579 -1.3721 1.39822 0
M  V30 8313 H 793.159 0.352234 0.658741 0
M  V30 8314 H 795.821 1.47834 1.27008 0
M  V30 8315 H 794.917 1.38843 2.79516 0
M  V30 8316 N 795.218 -1.23913 0.973828 0
M  V30 8317 C 796.148 -2.27453 0.527969 0
M  V30 8318 C 797.129 -1.6443 -0.435513 0
M  V30 8319 O 798.314 -1.9137 -0.330306 0
M  V30 8320 C 795.444 -3.4685 -0.176757 0
M  V30 8321 C 794.398 -4.22181 0.703352 0
M  V30 8322 C 793.724 -5.34534 -0.133215 0
M  V30 8323 C 795.024 -4.82865 1.99096 0
M  V30 8324 H 796.718 -2.65 1.3934 0
M  V30 8325 H 794.264 -1.27388 0.671446 0
M  V30 8326 H 796.217 -4.18424 -0.499934 0
M  V30 8327 H 794.941 -3.08346 -1.07659 0
M  V30 8328 H 793.6 -3.52416 1.00989 0
M  V30 8329 H 793.248 -4.92271 -1.03338 0
M  V30 8330 H 792.948 -5.85855 0.452494 0
M  V30 8331 H 794.472 -6.08933 -0.450924 0
M  V30 8332 H 795.886 -5.46481 1.73297 0
M  V30 8333 H 794.283 -5.44444 2.52389 0
M  V30 8334 H 795.353 -4.03977 2.68199 0
M  V30 8335 N 796.696 -0.74468 -1.38897 0
M  V30 8336 C 797.924 -0.307428 -2.04603 0
M  V30 8337 C 798.339 1.06115 -1.56157 0
M  V30 8338 O 797.696 1.67233 -0.730701 0
M  V30 8339 C 797.747 -0.31101 -3.6016 0
M  V30 8340 O 797.468 -1.62557 -4.06825 0
M  V30 8341 C 798.969 0.141213 -4.43075 0
M  V30 8342 H 796.189 -0.132741 -0.657739 0
M  V30 8343 H 798.733 -1.01104 -1.77759 0
M  V30 8344 H 796.888 0.343792 -3.85872 0
M  V30 8345 H 797.302 -1.54569 -5.01207 0
M  V30 8346 H 798.776 0.0875449 -5.51931 0
M  V30 8347 H 799.253 1.18782 -4.22833 0
M  V30 8348 H 799.859 -0.484383 -4.22533 0
M  V30 8349 N 798.174 1.49689 -0.493057 0
M  V30 8350 C 799.422 2.02027 0.0541642 0
M  V30 8351 C 799.743 1.37554 1.38217 0
M  V30 8352 O 799.013 0.528174 1.88646 0
M  V30 8353 H 797.593 0.746646 0.0230069 0
M  V30 8354 H 800.255 1.83795 -0.648489 0
M  V30 8355 H 799.351 3.11523 0.189652 0
M  V30 8356 N 799.652 0.226554 1.55963 0
M  V30 8357 C 801.063 -0.280381 1.84583 0
M  V30 8358 C 801.414 -1.59105 1.14804 0
M  V30 8359 O 800.539 -2.12297 0.419414 0
M  V30 8360 C 801.134 -0.515499 3.34855 0
M  V30 8361 C 799.693 -0.966733 3.63774 0
M  V30 8362 C 798.84 -0.0325753 2.77281 0
M  V30 8363 H 801.791 0.449626 1.52197 0
M  V30 8364 H 801.812 -1.36085 3.55332 0
M  V30 8365 H 801.324 0.438594 3.85614 0
M  V30 8366 H 799.425 -1.93401 3.18476 0
M  V30 8367 H 799.538 -0.837679 4.7172 0
M  V30 8368 H 797.902 -0.540279 2.48904 0
M  V30 8369 H 798.685 0.916524 3.30839 0
M  V30 8370 N 801.13 -1.57531 -0.0467866 0
M  V30 8371 C 802.358 -1.92696 -0.753371 0
M  V30 8372 C 802.773 -0.824792 -1.69831 0
M  V30 8373 O 802.13 0.200155 -1.81399 0
M  V30 8374 C 802.181 -3.27728 -1.52566 0
M  V30 8375 O 801.902 -4.3371 -0.618674 0
M  V30 8376 C 803.403 -3.77066 -2.33101 0
M  V30 8377 H 800.623 -0.636367 -0.212788 0
M  V30 8378 H 803.167 -2.04498 -0.00959361 0
M  V30 8379 H 801.322 -3.17378 -2.22148 0
M  V30 8380 H 801.736 -5.11548 -1.15839 0
M  V30 8381 H 803.21 -4.74109 -2.82709 0
M  V30 8382 H 803.687 -3.07348 -3.13741 0
M  V30 8383 H 804.293 -3.90442 -1.68628 0
M  V30 8384 N 802.608 0.318715 -1.54344 0
M  V30 8385 C 803.538 1.39751 -1.87061 0
M  V30 8386 C 804.519 1.53741 -0.727848 0
M  V30 8387 O 805.704 1.67541 -0.982016 0
M  V30 8388 C 802.834 2.76446 -2.10226 0
M  V30 8389 C 801.788 2.77239 -3.26071 0
M  V30 8390 C 801.114 4.17056 -3.34617 0
M  V30 8391 C 802.414 2.40555 -4.63606 0
M  V30 8392 H 804.108 1.12619 -2.77412 0
M  V30 8393 H 801.654 0.540318 -1.33479 0
M  V30 8394 H 803.607 3.51985 -2.31699 0
M  V30 8395 H 802.331 3.05066 -1.16629 0
M  V30 8396 H 800.99 2.04155 -3.04493 0
M  V30 8397 H 800.638 4.42824 -2.3857 0
M  V30 8398 H 800.338 4.18492 -4.12478 0
M  V30 8399 H 801.862 4.94401 -3.5833 0
M  V30 8400 H 803.276 3.05808 -4.84927 0
M  V30 8401 H 801.673 2.53234 -5.44052 0
M  V30 8402 H 802.743 1.35698 -4.65526 0
M  V30 8403 N 804.086 1.46499 0.581025 0
M  V30 8404 C 805.016 1.60052 1.70017 0
M  V30 8405 C 805.997 0.450788 1.64018 0
M  V30 8406 O 807.182 0.677237 1.82009 0
M  V30 8407 C 804.312 1.5921 3.08658 0
M  V30 8408 C 803.266 2.73169 3.29488 0
M  V30 8409 C 802.592 2.57389 4.68674 0
M  V30 8410 C 803.892 4.14978 3.1716 0
M  V30 8411 H 805.586 2.53735 1.5893 0
M  V30 8412 H 803.132 1.22113 0.763173 0
M  V30 8413 H 805.085 1.67285 3.86773 0
M  V30 8414 H 803.809 0.620718 3.20647 0
M  V30 8415 H 802.468 2.64566 2.53773 0
M  V30 8416 H 802.116 1.58331 4.77431 0
M  V30 8417 H 801.816 3.33826 4.83564 0
M  V30 8418 H 803.34 2.67358 5.48956 0
M  V30 8419 H 804.754 4.24684 3.85119 0
M  V30 8420 H 803.151 4.92016 3.4357 0
M  V30 8421 H 804.221 4.35016 2.14218 0
M  V30 8422 N 805.565 -0.825799 1.34232 0
M  V30 8423 C 806.976 -1.39835 1.23706 0
M  V30 8424 C 807.327 -1.95709 -0.138649 0
M  V30 8425 O 806.452 -1.89833 -1.03886 0
M  V30 8426 C 807.047 -2.54203 2.23978 0
M  V30 8427 C 805.606 -3.07374 2.17251 0
M  V30 8428 C 804.753 -1.80232 2.10741 0
M  V30 8429 H 807.704 -0.630442 1.4564 0
M  V30 8430 H 807.725 -3.32214 1.8551 0
M  V30 8431 H 807.237 -2.13506 3.24094 0
M  V30 8432 H 805.338 -3.52583 1.20483 0
M  V30 8433 H 805.451 -3.6666 3.08379 0
M  V30 8434 H 803.815 -2.01012 1.56417 0
M  V30 8435 H 804.598 -1.41713 3.12686 0
M  V30 8436 N 807.043 -1.17915 -1.04565 0
M  V30 8437 C 808.291 -0.969505 -1.77327 0
M  V30 8438 C 808.612 0.502569 -1.88412 0
M  V30 8439 O 807.882 1.36467 -1.40547 0
M  V30 8440 H 806.462 -0.355723 -0.656864 0
M  V30 8441 H 809.124 -1.48506 -1.26223 0
M  V30 8442 H 808.22 -1.40324 -2.78775 0
M  V30 8443 N 808.521 1.23394 -0.980386 0
M  V30 8444 C 809.749 1.95844 -0.667286 0
M  V30 8445 C 810.164 1.72574 0.765735 0
M  V30 8446 O 809.521 1.01715 1.51526 0
M  V30 8447 C 809.572 3.48844 -0.948151 0
M  V30 8448 O 809.293 3.71325 -2.32485 0
M  V30 8449 C 810.794 4.38494 -0.651002 0
M  V30 8450 H 808.014 0.623535 -0.247882 0
M  V30 8451 H 810.558 1.56885 -1.31176 0
M  V30 8452 H 808.713 3.85819 -0.349681 0
M  V30 8453 H 809.127 4.65619 -2.41452 0
M  V30 8454 H 810.601 5.44648 -0.897887 0
M  V30 8455 H 811.078 4.37236 0.414922 0
M  V30 8456 H 811.684 4.07127 -1.22995 0
M  V30 8457 N 809.999 0.752036 1.385 0
M  V30 8458 C 811.41 0.375385 1.82887 0
M  V30 8459 C 811.761 -1.09575 1.62751 0
M  V30 8460 O 810.886 -1.84685 1.12785 0
M  V30 8461 C 811.481 0.674563 3.32017 0
M  V30 8462 C 810.04 0.351208 3.74758 0
M  V30 8463 C 809.187 0.928531 2.61292 0
M  V30 8464 H 812.138 0.948313 1.27251 0
M  V30 8465 H 812.159 -0.0477781 3.8047 0
M  V30 8466 H 811.671 1.74533 3.46641 0
M  V30 8467 H 809.772 -0.713042 3.65714 0
M  V30 8468 H 809.885 0.845675 4.71577 0
M  V30 8469 H 808.249 0.354012 2.52228 0
M  V30 8470 H 809.032 2.0043 2.78716 0
M  V30 8471 N 811.477 -1.49425 0.500989 0
M  V30 8472 C 812.44 -2.27646 -0.266416 0
M  V30 8473 C 813.44 -1.3366 -0.893961 0
M  V30 8474 O 814.63 -1.5682 -0.758495 0
M  V30 8475 C 811.762 -3.11618 -1.38227 0
M  V30 8476 H 812.955 -2.96945 0.419973 0
M  V30 8477 H 810.508 -1.5419 0.255954 0
M  V30 8478 H 811.243 -2.46885 -2.10281 0
M  V30 8479 H 811.028 -3.80721 -0.937746 0
M  V30 8480 H 812.518 -3.70698 -1.92283 0
M  V30 8481 N 812.955 -0.234822 -1.55841 0
M  V30 8482 C 814.371 0.120295 -1.59146 0
M  V30 8483 C 814.571 1.57896 -1.25184 0
M  V30 8484 O 813.627 2.32138 -0.993393 0
M  V30 8485 C 814.94 -0.217984 -2.99909 0
M  V30 8486 C 816.488 -0.161298 -3.12584 0
M  V30 8487 C 816.963 -0.473438 -4.55546 0
M  V30 8488 N 818.454 -0.423494 -4.6126 0
M  V30 8489 C 819.189 -0.638334 -5.69836 0
M  V30 8490 N 818.685 -0.915659 -6.86722 0
M  V30 8491 N 820.478 -0.569864 -5.59204 0
M  V30 8492 H 812.629 -1.18622 -1.76189 0
M  V30 8493 H 814.892 -0.476426 -0.819587 0
M  V30 8494 H 814.598 -1.2309 -3.29457 0
M  V30 8495 H 814.472 0.460707 -3.74376 0
M  V30 8496 H 816.859 0.842274 -2.82825 0
M  V30 8497 H 816.94 -0.873661 -2.40418 0
M  V30 8498 H 816.584 -1.47451 -4.86025 0
M  V30 8499 H 816.514 0.260268 -5.25956 0
M  V30 8500 H 819.005 -0.217383 -3.77274 0
M  V30 8501 H 819.318 -1.06734 -7.65394 0
M  V30 8502 H 817.663 -0.953 -6.88435 0
M  V30 8503 H 820.854 -0.35334 -4.66765 0
M  V30 8504 H 821.027 -0.740698 -6.43753 0
M  V30 8505 N 814.433 1.57553 0.0384317 0
M  V30 8506 C 815.38 2.05942 1.04194 0
M  V30 8507 C 816.35 0.946637 1.36484 0
M  V30 8508 O 817.535 1.21658 1.46983 0
M  V30 8509 C 814.675 2.53588 2.34066 0
M  V30 8510 C 813.788 3.7862 2.08017 0
M  V30 8511 C 812.923 4.14915 3.31692 0
M  V30 8512 C 811.962 5.32891 3.01155 0
M  V30 8513 N 811.099 5.64662 4.17254 0
M  V30 8514 H 815.939 2.91429 0.622341 0
M  V30 8515 H 813.476 1.44098 0.295684 0
M  V30 8516 H 815.434 2.79276 3.09937 0
M  V30 8517 H 814.064 1.71031 2.73767 0
M  V30 8518 H 813.116 3.60073 1.22686 0
M  V30 8519 H 814.428 4.64613 1.81484 0
M  V30 8520 H 813.582 4.41681 4.15936 0
M  V30 8521 H 812.321 3.27555 3.6133 0
M  V30 8522 H 811.326 5.05887 2.15311 0
M  V30 8523 H 812.551 6.21896 2.72804 0
M  V30 8524 H 810.497 4.80261 4.46861 0
M  V30 8525 H 810.414 6.45145 3.94112 0
M  V30 8526 H 811.682 5.96 5.02399 0
M  V30 8527 N 815.911 -0.310526 1.54511 0
M  V30 8528 C 817.327 -0.655637 1.45511 0
M  V30 8529 C 817.527 -1.91114 0.638564 0
M  V30 8530 O 816.583 -2.52098 0.142497 0
M  V30 8531 C 817.896 -0.817501 2.89374 0
M  V30 8532 C 819.444 -0.914003 2.99358 0
M  V30 8533 C 819.919 -1.10794 4.44397 0
M  V30 8534 N 821.41 -1.17437 4.48066 0
M  V30 8535 C 822.145 -1.34255 5.57461 0
M  V30 8536 N 821.641 -1.48032 6.768 0
M  V30 8537 N 823.434 -1.37067 5.45132 0
M  V30 8538 H 815.585 0.514506 2.06074 0
M  V30 8539 H 817.848 0.168478 0.932909 0
M  V30 8540 H 817.554 0.034003 3.51684 0
M  V30 8541 H 817.428 -1.7094 3.36243 0
M  V30 8542 H 819.815 -1.756 2.37168 0
M  V30 8543 H 819.896 0.00170958 2.558 0
M  V30 8544 H 819.54 -0.270743 5.07178 0
M  V30 8545 H 819.47 -2.03773 4.85576 0
M  V30 8546 H 821.961 -1.08181 3.62084 0
M  V30 8547 H 822.274 -1.60593 7.5593 0
M  V30 8548 H 820.619 -1.45105 6.79683 0
M  V30 8549 H 823.81 -1.25909 4.50849 0
M  V30 8550 H 823.983 -1.49831 6.3044 0
M  V30 8551 N 817.389 -1.46805 -0.573248 0
M  V30 8552 C 818.637 -1.52302 -1.32847 0
M  V30 8553 C 818.958 -0.180159 -1.94166 0
M  V30 8554 O 818.228 0.794291 -1.79075 0
M  V30 8555 H 816.808 -0.56097 -0.493276 0
M  V30 8556 H 819.47 -1.82998 -0.670642 0
M  V30 8557 H 818.566 -2.28089 -2.13031 0
M  V30 8558 N 818.867 0.818669 -1.34668 0
M  V30 8559 C 819.815 1.95123 -1.26609 0
M  V30 8560 C 820.809 1.68611 -0.163348 0
M  V30 8561 O 822.015 1.76975 -0.328586 0
M  V30 8562 H 818.39 0.640871 -0.393431 0
M  V30 8563 H 820.361 1.99043 -2.22316 0
M  V30 8564 C 819.11 3.31697 -1.04272 0
M  V30 8565 H 818.433 3.52648 -1.8836 0
M  V30 8566 H 819.873 4.11382 -1.0267 0
M  V30 8567 C 818.332 3.35942 0.253858 0
M  V30 8568 O 818.862 3.81632 1.25378 0
M  V30 8569 N 817.068 2.89165 0.288447 0
M  V30 8570 H 816.615 2.52176 -0.525845 0
M  V30 8571 H 816.573 2.92387 1.15572 0
M  V30 8572 N 820.346 1.18468 1.03938 0
M  V30 8573 C 821.762 0.934635 1.29371 0
M  V30 8574 C 821.962 -0.399067 1.97509 0
M  V30 8575 O 821.018 -1.13309 2.25648 0
M  V30 8576 C 822.331 2.10111 2.15114 0
M  V30 8577 C 823.879 2.13955 2.28456 0
M  V30 8578 C 824.354 3.30024 3.17566 0
M  V30 8579 N 825.845 3.29893 3.25153 0
M  V30 8580 C 826.58 4.16346 3.94263 0
M  V30 8581 N 826.076 5.12934 4.65693 0
M  V30 8582 N 827.869 4.04256 3.90556 0
M  V30 8583 H 820.02 2.04294 0.581185 0
M  V30 8584 H 822.283 0.892727 0.318971 0
M  V30 8585 H 821.989 3.06572 1.72355 0
M  V30 8586 H 821.863 2.06283 3.15796 0
M  V30 8587 H 824.25 1.18072 2.7045 0
M  V30 8588 H 824.331 2.2184 1.2736 0
M  V30 8589 H 823.975 4.26181 2.76283 0
M  V30 8590 H 823.905 3.19376 4.18697 0
M  V30 8591 H 826.396 2.59969 2.74271 0
M  V30 8592 H 826.709 5.75271 5.16026 0
M  V30 8593 H 825.054 5.16893 4.64593 0
M  V30 8594 H 828.245 3.28083 3.33885 0
M  V30 8595 H 828.418 4.71848 4.44144 0
M  V30 8596 N 821.824 -1.22873 0.986916 0
M  V30 8597 C 823.24 -1.43594 0.696633 0
M  V30 8598 C 823.44 -1.87622 -0.734869 0
M  V30 8599 O 822.496 -2.02633 -1.50652 0
M  V30 8600 C 823.809 -2.48231 1.69711 0
M  V30 8601 C 825.357 -2.62037 1.71188 0
M  V30 8602 C 825.832 -3.6989 2.70084 0
M  V30 8603 N 827.323 -3.77341 2.68641 0
M  V30 8604 C 828.058 -4.6037 3.41829 0
M  V30 8605 N 827.554 -5.47438 4.24598 0
M  V30 8606 N 829.347 -4.54626 3.30563 0
M  V30 8607 H 821.498 -0.925982 1.91153 0
M  V30 8608 H 823.761 -0.46866 0.824052 0
M  V30 8609 H 823.467 -2.22812 2.72117 0
M  V30 8610 H 823.341 -3.46731 1.48516 0
M  V30 8611 H 825.728 -2.86803 0.694837 0
M  V30 8612 H 825.809 -1.63831 1.96451 0
M  V30 8613 H 825.453 -3.45872 3.71934 0
M  V30 8614 H 825.383 -4.67652 2.42093 0
M  V30 8615 H 827.874 -3.15124 2.08578 0
M  V30 8616 H 828.187 -6.078 4.77283 0
M  V30 8617 H 826.532 -5.4704 4.28687 0
M  V30 8618 H 829.723 -3.85627 2.65347 0
M  V30 8619 H 829.896 -5.19103 3.8786 0
M  V30 8620 N 823.302 -0.75937 -1.38099 0
M  V30 8621 C 824.532 -0.328634 -2.0397 0
M  V30 8622 C 824.94 1.04989 -1.57398 0
M  V30 8623 O 824.283 1.67918 -0.744932 0
M  V30 8624 C 824.345 -0.279216 -3.58414 0
M  V30 8625 C 824.009 -1.60025 -4.28067 0
M  V30 8626 C 825.006 -2.55048 -4.53041 0
M  V30 8627 C 822.691 -1.87128 -4.66142 0
M  V30 8628 C 824.685 -3.7539 -5.15132 0
M  V30 8629 C 822.372 -3.07742 -5.27956 0
M  V30 8630 C 823.37 -4.01694 -5.52387 0
M  V30 8631 O 823.058 -5.20186 -6.12912 0
M  V30 8632 H 822.79 -0.137443 -0.66188 0
M  V30 8633 H 825.344 -1.03082 -1.77661 0
M  V30 8634 H 823.574 0.479254 -3.83719 0
M  V30 8635 H 825.263 0.122781 -4.05714 0
M  V30 8636 H 826.029 -2.35387 -4.24049 0
M  V30 8637 H 821.908 -1.14833 -4.46469 0
M  V30 8638 H 825.452 -4.48737 -5.34117 0
M  V30 8639 H 821.349 -3.27294 -5.56371 0
M  V30 8640 H 822.117 -5.20846 -6.31397 0
M  V30 8641 N 824.78 1.49157 -0.508906 0
M  V30 8642 C 826.02 2.04376 0.0310623 0
M  V30 8643 C 826.384 1.37946 1.33547 0
M  V30 8644 O 827.585 1.83931 1.96017 0
M  V30 8645 C 825.856 3.56985 0.172191 0
M  V30 8646 S 827.415 4.33728 0.665267 0
M  V30 8647 H 824.233 0.710997 -0.00199266 0
M  V30 8648 H 826.835 1.83119 -0.684674 0
M  V30 8649 H 825.539 4.02874 -0.78234 0
M  V30 8650 H 825.07 3.82661 0.912933 0
M  V30 8651 H 827.085 4.56992 1.9332 0
M  V30 8652 N 826.258 0.243083 1.55714 0
M  V30 8653 C 827.669 -0.260788 1.8487 0
M  V30 8654 C 828.02 -1.57879 1.16485 0
M  V30 8655 O 827.145 -2.1184 0.441908 0
M  V30 8656 C 827.74 -0.479954 3.35383 0
M  V30 8657 C 826.299 -0.928096 3.64778 0
M  V30 8658 C 825.446 -0.00316416 2.773 0
M  V30 8659 H 828.397 0.465743 1.51712 0
M  V30 8660 H 828.418 -1.32308 3.56756 0
M  V30 8661 H 827.93 0.479468 3.85127 0
M  V30 8662 H 826.031 -1.90012 3.20509 0
M  V30 8663 H 826.144 -0.7876 4.72582 0
M  V30 8664 H 824.508 -0.513849 2.49463 0
M  V30 8665 H 825.291 0.951562 3.29849 0
M  V30 8666 N 827.736 -1.57571 -0.0300757 0
M  V30 8667 C 828.985 -1.88407 -0.720126 0
M  V30 8668 C 829.298 -0.841466 -1.76575 0
M  V30 8669 O 830.504 -1.03902 -2.50832 0
M  V30 8670 C 828.96 -3.34348 -1.33188 0
M  V30 8671 C 828.568 -4.46837 -0.32266 0
M  V30 8672 C 830.312 -3.74333 -2.00187 0
M  V30 8673 C 828.219 -5.83838 -0.942703 0
M  V30 8674 H 827.149 -0.702952 -0.272718 0
M  V30 8675 H 829.8 -1.83482 0.0255337 0
M  V30 8676 H 828.182 -3.34014 -2.12721 0
M  V30 8677 H 829.356 -4.58638 0.445887 0
M  V30 8678 H 827.671 -4.15678 0.245181 0
M  V30 8679 H 830.268 -4.74008 -2.47428 0
M  V30 8680 H 830.611 -3.06275 -2.81959 0
M  V30 8681 H 831.144 -3.76837 -1.2743 0
M  V30 8682 H 827.883 -6.55294 -0.164413 0
M  V30 8683 H 827.403 -5.75759 -1.68111 0
M  V30 8684 H 829.082 -6.30535 -1.45034 0
M  V30 8685 N 829.214 0.302327 -1.54673 0
M  V30 8686 C 830.625 0.875409 -1.64904 0
M  V30 8687 C 830.976 1.88132 -0.55684 0
M  V30 8688 O 830.101 2.14215 0.306754 0
M  V30 8689 C 830.696 1.59457 -2.9893 0
M  V30 8690 C 829.255 2.11607 -3.11287 0
M  V30 8691 C 828.402 0.948324 -2.6058 0
M  V30 8692 H 831.353 0.079362 -1.58501 0
M  V30 8693 H 831.374 2.46005 -2.90279 0
M  V30 8694 H 830.886 0.8622 -3.78402 0
M  V30 8695 H 828.987 2.87895 -2.36532 0
M  V30 8696 H 829.1 2.35151 -4.17422 0
M  V30 8697 H 827.464 1.33352 -2.17001 0
M  V30 8698 H 828.247 0.229936 -3.42529 0
M  V30 8699 N 830.692 1.47107 0.565454 0
M  V30 8700 C 831.969 1.43787 1.32607 0
M  V30 8701 C 832.349 0.130428 2.10697 0
M  V30 8702 O 831.697 -0.888086 2.10536 0
M  V30 8703 C 831.907 2.67833 2.23755 0
M  V30 8704 C 833.255 3.14704 2.85037 0
M  V30 8705 O 834.279 2.68503 2.34061 0
M  V30 8706 O 833.138 3.95002 3.77671 0
M  V30 8707 H 830.232 0.572623 0.596684 0
M  V30 8708 H 832.778 1.59296 0.58504 0
M  V30 8709 H 831.55 3.54532 1.65597 0
M  V30 8710 H 831.173 2.54869 3.05168 0
M  V30 8711 N 832.17 -0.811516 1.35101 0
M  V30 8712 C 833.416 -1.57068 1.28287 0
M  V30 8713 C 833.749 -1.93667 -0.143808 0
M  V30 8714 O 833.024 -1.60953 -1.09199 0
M  V30 8715 C 833.307 -2.86259 2.18466 0
M  V30 8716 C 833.16 -2.56168 3.69727 0
M  V30 8717 C 834.479 -3.87924 2.07852 0
M  V30 8718 H 831.598 -0.569869 0.467353 0
M  V30 8719 H 834.24 -0.934023 1.65457 0
M  V30 8720 H 832.39 -3.4059 1.86898 0
M  V30 8721 H 834.062 -2.08059 4.11715 0
M  V30 8722 H 832.305 -1.89436 3.90252 0
M  V30 8723 H 832.976 -3.48344 4.28206 0
M  V30 8724 H 835.452 -3.4298 2.35593 0
M  V30 8725 H 834.328 -4.76106 2.73157 0
M  V30 8726 H 834.589 -4.2923 1.05896 0
M  V30 8727 N 833.648 -1.19017 -1.03309 0
M  V30 8728 C 834.578 -0.94772 -2.13402 0
M  V30 8729 C 835.559 0.117383 -1.69694 0
M  V30 8730 O 836.744 -0.0367733 -1.94165 0
M  V30 8731 C 833.874 -0.480977 -3.43953 0
M  V30 8732 C 832.828 -1.48743 -4.01322 0
M  V30 8733 C 832.154 -0.877924 -5.27443 0
M  V30 8734 C 833.454 -2.86642 -4.36616 0
M  V30 8735 H 835.148 -1.86846 -2.33942 0
M  V30 8736 H 832.694 -0.899781 -1.12427 0
M  V30 8737 H 834.647 -0.298677 -4.2034 0
M  V30 8738 H 833.371 0.475348 -3.23122 0
M  V30 8739 H 832.03 -1.65681 -3.27025 0
M  V30 8740 H 831.678 0.0858232 -5.02927 0
M  V30 8741 H 831.378 -1.54996 -5.66789 0
M  V30 8742 H 832.902 -0.706326 -6.06501 0
M  V30 8743 H 834.316 -2.73312 -5.03958 0
M  V30 8744 H 832.713 -3.50599 -4.87032 0
M  V30 8745 H 833.783 -3.39617 -3.46105 0
M  V30 8746 N 835.127 1.22348 -0.993418 0
M  V30 8747 C 836.367 1.92835 -0.677779 0
M  V30 8748 C 836.731 1.75624 0.775893 0
M  V30 8749 O 837.932 2.40379 1.20297 0
M  V30 8750 C 836.203 3.40906 -1.07322 0
M  V30 8751 S 837.762 4.29966 -0.876032 0
M  V30 8752 H 834.58 0.666421 -0.247799 0
M  V30 8753 H 837.182 1.48133 -1.27581 0
M  V30 8754 H 835.886 3.50946 -2.12756 0
M  V30 8755 H 835.417 3.90618 -0.467015 0
M  V30 8756 H 837.432 4.95652 0.233162 0
M  V30 8757 N 836.605 0.766683 1.37694 0
M  V30 8758 C 837.515 0.150158 2.34119 0
M  V30 8759 C 838.531 -0.685513 1.59927 0
M  V30 8760 O 839.707 -0.606616 1.92047 0
M  V30 8761 C 836.772 -0.722562 3.39087 0
M  V30 8762 C 835.833 0.128983 4.29106 0
M  V30 8763 C 835.066 -0.702178 5.29061 0
M  V30 8764 O 835.289 -1.93954 5.36412 0
M  V30 8765 O 834.223 -0.114056 6.01792 0
M  V30 8766 H 838.049 0.946829 2.88563 0
M  V30 8767 H 835.634 0.527765 1.39768 0
M  V30 8768 H 837.516 -1.22095 4.03325 0
M  V30 8769 H 836.191 -1.49751 2.86978 0
M  V30 8770 H 835.098 0.673612 3.67985 0
M  V30 8771 H 836.431 0.866892 4.84506 0
M  V30 8772 N 838.083 -1.48885 0.516809 0
M  V30 8773 C 839.013 -2.32241 -0.242157 0
M  V30 8774 C 839.994 -1.41258 -0.947633 0
M  V30 8775 O 841.179 -1.70156 -0.935973 0
M  V30 8776 C 838.309 -3.22151 -1.29754 0
M  V30 8777 C 837.263 -4.22053 -0.710995 0
M  V30 8778 C 836.589 -5.01007 -1.86806 0
M  V30 8779 C 837.889 -5.21388 0.30853 0
M  V30 8780 H 839.583 -2.95943 0.453651 0
M  V30 8781 H 837.129 -1.42316 0.219612 0
M  V30 8782 H 839.082 -3.79284 -1.83634 0
M  V30 8783 H 837.806 -2.56423 -2.02274 0
M  V30 8784 H 836.465 -3.66087 -0.193819 0
M  V30 8785 H 836.113 -4.31713 -2.58133 0
M  V30 8786 H 835.813 -5.68615 -1.48159 0
M  V30 8787 H 837.337 -5.60989 -2.4109 0
M  V30 8788 H 838.751 -5.73122 -0.142703 0
M  V30 8789 H 837.148 -5.96975 0.611673 0
M  V30 8790 H 838.218 -4.69329 1.21894 0
M  V30 8791 N 839.561 -0.251338 -1.55583 0
M  V30 8792 C 840.809 0.371434 -1.98657 0
M  V30 8793 C 841.13 1.58143 -1.14087 0
M  V30 8794 O 840.4 1.94607 -0.224708 0
M  V30 8795 H 838.98 0.140225 -0.733721 0
M  V30 8796 H 841.642 -0.351157 -1.9171 0
M  V30 8797 H 840.738 0.677554 -3.04657 0
M  V30 8798 N 841.039 1.57585 0.0217189 0
M  V30 8799 C 842.455 1.55072 0.377484 0
M  V30 8800 C 842.655 0.978423 1.76151 0
M  V30 8801 O 841.711 0.602688 2.45202 0
M  V30 8802 C 843.024 2.99462 0.272605 0
M  V30 8803 C 844.572 3.11047 0.349148 0
M  V30 8804 C 845.047 4.57182 0.273636 0
M  V30 8805 N 846.538 4.62007 0.332206 0
M  V30 8806 C 847.273 5.72631 0.296782 0
M  V30 8807 N 846.769 6.92472 0.21322 0
M  V30 8808 N 848.562 5.61028 0.347053 0
M  V30 8809 H 840.713 1.93133 -0.883925 0
M  V30 8810 H 842.976 0.886151 -0.33681 0
M  V30 8811 H 842.682 3.45088 -0.67878 0
M  V30 8812 H 842.556 3.61901 1.06335 0
M  V30 8813 H 844.943 2.65364 1.29097 0
M  V30 8814 H 845.024 2.51425 -0.471085 0
M  V30 8815 H 844.668 5.03534 -0.664548 0
M  V30 8816 H 844.598 5.14724 1.11207 0
M  V30 8817 H 847.089 3.75788 0.399003 0
M  V30 8818 H 847.402 7.72563 0.191492 0
M  V30 8819 H 845.747 6.94769 0.179161 0
M  V30 8820 H 848.938 4.66298 0.410378 0
M  V30 8821 H 849.111 6.47229 0.315979 0
M  V30 8822 N 842.517 -0.29412 1.54831 0
M  V30 8823 C 843.764 -1.02846 1.74439 0
M  V30 8824 C 844.092 -1.87029 0.533905 0
M  V30 8825 O 843.347 -1.8962 -0.484035 0
M  V30 8826 C 843.646 -1.95782 2.99006 0
M  V30 8827 C 843.312 -1.2752 4.32492 0
M  V30 8828 C 841.974 -1.08637 4.68777 0
M  V30 8829 C 844.326 -0.787761 5.15212 0
M  V30 8830 C 841.654 -0.39704 5.85355 0
M  V30 8831 C 844.006 -0.112123 6.32501 0
M  V30 8832 C 842.67 0.0886071 6.67441 0
M  V30 8833 H 841.94 -0.376341 0.638317 0
M  V30 8834 H 844.587 -0.302684 1.89093 0
M  V30 8835 H 842.892 -2.74911 2.79162 0
M  V30 8836 H 844.589 -2.52684 3.11371 0
M  V30 8837 H 841.179 -1.43226 4.03961 0
M  V30 8838 H 845.363 -0.921341 4.87673 0
M  V30 8839 H 840.619 -0.230597 6.10965 0
M  V30 8840 H 844.793 0.27344 6.95863 0
M  V30 8841 H 842.42 0.624748 7.57628 0
M  V30 8842 N 843.995 -1.47404 -0.557645 0
M  V30 8843 C 845.243 -1.53703 -1.31224 0
M  V30 8844 C 845.564 -0.200742 -1.93964 0
M  V30 8845 O 844.834 0.775253 -1.79907 0
M  V30 8846 H 843.414 -0.566171 -0.487299 0
M  V30 8847 H 846.076 -1.83699 -0.651195 0
M  V30 8848 H 845.172 -2.30335 -2.10599 0
M  V30 8849 N 845.473 0.80434 -1.35529 0
M  V30 8850 C 846.405 1.92445 -1.2449 0
M  V30 8851 C 847.418 1.61934 -0.167685 0
M  V30 8852 O 848.607 1.73461 -0.42115 0
M  V30 8853 C 845.707 3.26875 -0.894751 0
M  V30 8854 C 844.88 3.85275 -2.07079 0
M  V30 8855 C 843.939 4.98116 -1.69607 0
M  V30 8856 O 842.965 5.15424 -2.41509 0
M  V30 8857 N 844.167 5.77169 -0.621012 0
M  V30 8858 H 846.932 2.02441 -2.20993 0
M  V30 8859 H 844.493 0.981874 -1.28728 0
M  V30 8860 H 846.485 3.99837 -0.625511 0
M  V30 8861 H 845.055 3.12594 -0.0193306 0
M  V30 8862 H 844.275 3.0448 -2.5037 0
M  V30 8863 H 845.563 4.21024 -2.85685 0
M  V30 8864 H 844.961 5.65695 -0.0236679 0
M  V30 8865 H 843.518 6.50499 -0.411558 0
M  V30 8866 N 846.951 1.19563 1.02676 0
M  V30 8867 C 847.898 0.935291 2.11 0
M  V30 8868 C 848.868 -0.130685 1.65585 0
M  V30 8869 O 850.053 0.0119062 1.90796 0
M  V30 8870 C 847.193 0.482384 3.41712 0
M  V30 8871 C 846.306 1.61537 4.00662 0
M  V30 8872 C 845.441 1.11378 5.19392 0
M  V30 8873 C 844.48 2.22052 5.70403 0
M  V30 8874 N 843.617 1.73185 6.80405 0
M  V30 8875 H 848.457 1.86275 2.32606 0
M  V30 8876 H 845.994 0.928656 1.14081 0
M  V30 8877 H 847.952 0.20118 4.16715 0
M  V30 8878 H 846.582 -0.408086 3.2021 0
M  V30 8879 H 845.634 2.01173 3.22852 0
M  V30 8880 H 846.946 2.44912 4.34534 0
M  V30 8881 H 846.1 0.787935 6.01562 0
M  V30 8882 H 844.839 0.249789 4.8706 0
M  V30 8883 H 843.844 2.55465 4.86845 0
M  V30 8884 H 845.069 3.08911 6.04774 0
M  V30 8885 H 843.015 0.890973 6.49921 0
M  V30 8886 H 842.932 2.50148 7.13416 0
M  V30 8887 H 844.2 1.4357 7.66164 0
M  V30 8888 N 848.429 -1.21819 0.999893 0
M  V30 8889 C 849.657 -1.94758 0.698359 0
M  V30 8890 C 850.072 -1.73771 -0.738183 0
M  V30 8891 O 849.429 -1.04113 -1.49889 0
M  V30 8892 C 849.48 -3.47292 1.00353 0
M  V30 8893 O 849.201 -3.67579 2.38363 0
M  V30 8894 C 850.702 -4.37403 0.72068 0
M  V30 8895 H 847.922 -0.619512 0.257771 0
M  V30 8896 H 850.466 -1.54778 1.33656 0
M  V30 8897 H 848.621 -3.85213 0.411018 0
M  V30 8898 H 849.035 -4.61719 2.48829 0
M  V30 8899 H 850.509 -5.43151 0.984422 0
M  V30 8900 H 850.986 -4.3784 -0.345309 0
M  V30 8901 H 851.592 -4.05119 1.29456 0
M  V30 8902 N 849.908 -0.773975 -1.37286 0
M  V30 8903 C 851.156 -0.338636 -1.99243 0
M  V30 8904 C 851.477 1.08919 -1.61746 0
M  V30 8905 O 850.747 1.74822 -0.88397 0
M  V30 8906 H 849.327 -0.12222 -0.736934 0
M  V30 8907 H 851.989 -0.992595 -1.67731 0
M  V30 8908 H 851.085 -0.418055 -3.09287 0
M  V30 8909 N 851.386 1.48609 -0.524698 0
M  V30 8910 C 852.333 2.29539 0.240956 0
M  V30 8911 C 853.303 1.37033 0.938681 0
M  V30 8912 O 854.488 1.65996 0.940737 0
M  V30 8913 C 851.628 3.20278 1.28514 0
M  V30 8914 C 850.741 4.27858 0.596798 0
M  V30 8915 C 849.876 5.05784 1.62346 0
M  V30 8916 C 848.915 6.05173 0.918287 0
M  V30 8917 N 848.052 6.76176 1.89025 0
M  V30 8918 H 852.892 2.945 -0.455368 0
M  V30 8919 H 850.429 1.45188 -0.236403 0
M  V30 8920 H 852.387 3.71281 1.90279 0
M  V30 8921 H 851.017 2.57251 1.94992 0
M  V30 8922 H 850.069 3.80162 -0.134668 0
M  V30 8923 H 851.381 4.98782 0.0428506 0
M  V30 8924 H 850.535 5.60775 2.31553 0
M  V30 8925 H 849.274 4.34687 2.2113 0
M  V30 8926 H 848.279 5.49391 0.21212 0
M  V30 8927 H 849.504 6.78265 0.336633 0
M  V30 8928 H 847.45 6.07834 2.46726 0
M  V30 8929 H 847.367 7.43157 1.3876 0
M  V30 8930 H 848.635 7.35759 2.57446 0
M  V30 8931 N 852.864 0.259585 1.55447 0
M  V30 8932 C 854.112 -0.360893 1.98852 0
M  V30 8933 C 854.433 -1.57535 1.14924 0
M  V30 8934 O 853.703 -1.94485 0.235025 0
M  V30 8935 H 852.283 -0.136332 0.734454 0
M  V30 8936 H 854.945 0.361319 1.91522 0
M  V30 8937 H 854.041 -0.661388 3.05012 0
M  V30 8938 N 854.342 -1.57594 -0.0133615 0
M  V30 8939 C 855.588 -1.91105 -0.696457 0
M  V30 8940 C 855.943 -0.859872 -1.72116 0
M  V30 8941 O 855.236 0.129579 -1.91161 0
M  V30 8942 C 855.43 -3.29121 -1.39336 0
M  V30 8943 C 855.259 -4.47565 -0.437666 0
M  V30 8944 C 854.029 -5.05272 -0.0529454 0
M  V30 8945 C 856.227 -5.13479 0.290537 0
M  V30 8946 N 854.209 -6.07232 0.902355 0
M  V30 8947 C 855.58 -6.10147 1.10097 0
M  V30 8948 C 857.635 -4.96627 0.355804 0
M  V30 8949 C 856.338 -6.91778 1.97069 0
M  V30 8950 C 858.364 -5.78833 1.21271 0
M  V30 8951 C 857.726 -6.75083 2.01102 0
M  V30 8952 H 853.825 -0.747882 -0.228464 0
M  V30 8953 H 856.409 -1.94651 0.0438462 0
M  V30 8954 H 854.58 -3.26474 -2.10403 0
M  V30 8955 H 856.312 -3.501 -2.03008 0
M  V30 8956 H 853.067 -4.71747 -0.418486 0
M  V30 8957 H 853.491 -6.6289 1.37498 0
M  V30 8958 H 858.133 -4.22077 -0.247105 0
M  V30 8959 H 855.851 -7.65662 2.58433 0
M  V30 8960 H 859.437 -5.67838 1.26694 0
M  V30 8961 H 858.317 -7.37587 2.66337 0
M  V30 8962 N 855.82 0.285905 -1.54985 0
M  V30 8963 C 857.05 1.03626 -1.78732 0
M  V30 8964 C 857.458 1.80896 -0.554377 0
M  V30 8965 O 856.801 1.77161 0.48578 0
M  V30 8966 C 856.863 2.05185 -2.95193 0
M  V30 8967 C 856.527 1.46973 -4.32722 0
M  V30 8968 C 857.524 0.891986 -5.12191 0
M  V30 8969 C 855.209 1.50081 -4.79355 0
M  V30 8970 C 857.203 0.353078 -6.36421 0
M  V30 8971 C 854.89 0.958037 -6.03544 0
M  V30 8972 C 855.888 0.385157 -6.81913 0
M  V30 8973 O 855.576 -0.149341 -8.03761 0
M  V30 8974 H 855.308 0.312416 -0.599477 0
M  V30 8975 H 857.862 0.326067 -2.02795 0
M  V30 8976 H 856.092 2.79928 -2.66791 0
M  V30 8977 H 857.781 2.66244 -3.0638 0
M  V30 8978 H 858.547 0.860762 -4.77301 0
M  V30 8979 H 854.426 1.9361 -4.18373 0
M  V30 8980 H 857.97 -0.0947181 -6.97536 0
M  V30 8981 H 853.867 0.986458 -6.37918 0
M  V30 8982 H 854.635 -0.0374719 -8.18491 0
M  V30 8983 N 857.298 1.47698 0.54982 0
M  V30 8984 C 858.23 1.56806 1.67166 0
M  V30 8985 C 859.243 0.453709 1.5635 0
M  V30 8986 O 860.432 0.723663 1.63173 0
M  V30 8987 C 857.532 1.4632 3.05686 0
M  V30 8988 C 856.705 2.72452 3.42182 0
M  V30 8989 C 855.764 2.55698 4.59897 0
M  V30 8990 O 854.79 3.29534 4.64108 0
M  V30 8991 N 855.992 1.64009 5.56849 0
M  V30 8992 H 858.757 2.53545 1.59797 0
M  V30 8993 H 856.318 1.44171 0.736635 0
M  V30 8994 H 858.31 1.32835 3.82279 0
M  V30 8995 H 856.88 0.57634 3.07241 0
M  V30 8996 H 856.1 3.00644 2.54964 0
M  V30 8997 H 857.388 3.56172 3.63344 0
M  V30 8998 H 856.786 1.03186 5.5621 0
M  V30 8999 H 855.343 1.56473 6.3274 0
M  V30 9000 N 858.776 -0.797141 1.35954 0
M  V30 9001 C 860.006 -1.5835 1.32698 0
M  V30 9002 C 860.414 -1.88959 -0.0955298 0
M  V30 9003 O 859.757 -1.49987 -1.06064 0
M  V30 9004 C 859.819 -2.93529 2.0756 0
M  V30 9005 C 859.483 -2.85688 3.56695 0
M  V30 9006 C 860.48 -2.58467 4.51099 0
M  V30 9007 C 858.165 -3.04508 3.99475 0
M  V30 9008 C 860.159 -2.50157 5.8626 0
M  V30 9009 C 857.846 -2.9582 5.34728 0
M  V30 9010 C 858.844 -2.68681 6.27933 0
M  V30 9011 O 858.532 -2.59973 7.60703 0
M  V30 9012 H 858.264 -0.49807 0.457059 0
M  V30 9013 H 860.818 -0.997889 1.79531 0
M  V30 9014 H 859.048 -3.54111 1.55378 0
M  V30 9015 H 860.737 -3.54744 1.9726 0
M  V30 9016 H 861.503 -2.43638 4.19363 0
M  V30 9017 H 857.382 -3.24641 3.27306 0
M  V30 9018 H 860.926 -2.28894 6.58979 0
M  V30 9019 H 856.823 -3.10211 5.66074 0
M  V30 9020 H 857.591 -2.75511 7.70737 0
M  V30 9021 N 860.254 -1.20106 -1.0204 0
M  V30 9022 C 861.531 -0.918029 -1.72718 0
M  V30 9023 C 861.911 0.574163 -2.03142 0
M  V30 9024 O 861.259 1.53476 -1.69285 0
M  V30 9025 C 861.469 -1.78698 -2.9978 0
M  V30 9026 C 862.817 -2.02648 -3.7312 0
M  V30 9027 O 863.841 -1.75919 -3.09727 0
M  V30 9028 O 862.7 -2.47767 -4.87107 0
M  V30 9029 H 859.794 -0.342904 -0.752559 0
M  V30 9030 H 862.34 -1.30961 -1.07923 0
M  V30 9031 H 861.112 -2.79757 -2.7359 0
M  V30 9032 H 860.735 -1.39522 -3.72316 0
M  V30 9033 N 861.732 1.21287 -1.00634 0
M  V30 9034 C 862.679 2.23705 -0.567876 0
M  V30 9035 C 863.649 1.61043 0.406753 0
M  V30 9036 O 864.834 1.88289 0.308499 0
M  V30 9037 C 861.974 3.44961 0.097996 0
M  V30 9038 C 861.087 4.22091 -0.919972 0
M  V30 9039 C 860.222 5.30718 -0.226222 0
M  V30 9040 C 859.261 5.99581 -1.23165 0
M  V30 9041 N 858.398 6.99821 -0.565278 0
M  V30 9042 H 863.238 2.60571 -1.44592 0
M  V30 9043 H 860.775 1.28049 -0.724006 0
M  V30 9044 H 862.733 4.1418 0.501097 0
M  V30 9045 H 861.363 3.08818 0.939744 0
M  V30 9046 H 860.415 3.52038 -1.44131 0
M  V30 9047 H 861.727 4.69476 -1.68505 0
M  V30 9048 H 860.881 6.06253 0.232917 0
M  V30 9049 H 859.62 4.84343 0.571247 0
M  V30 9050 H 858.625 5.22816 -1.70128 0
M  V30 9051 H 859.85 6.48042 -2.03022 0
M  V30 9052 H 857.796 6.55656 0.212508 0
M  V30 9053 H 857.713 7.4528 -1.26858 0
M  V30 9054 H 858.981 7.79393 -0.129389 0
M  V30 9055 N 863.21 0.781244 1.36873 0
M  V30 9056 C 864.621 0.414093 1.8205 0
M  V30 9057 C 864.972 -1.06098 1.65039 0
M  V30 9058 O 864.097 -1.82251 1.16677 0
M  V30 9059 C 864.692 0.744837 3.30511 0
M  V30 9060 C 863.251 0.430621 3.73929 0
M  V30 9061 C 862.398 0.983746 2.59264 0
M  V30 9062 H 865.349 0.975091 1.2521 0
M  V30 9063 H 865.37 0.032936 3.80486 0
M  V30 9064 H 864.882 1.81847 3.42861 0
M  V30 9065 H 862.983 -0.635308 3.67144 0
M  V30 9066 H 863.096 0.945514 4.69677 0
M  V30 9067 H 861.46 0.407433 2.5142 0
M  V30 9068 H 862.243 2.06297 2.74402 0
M  V30 9069 N 864.689 -1.48329 0.532571 0
M  V30 9070 C 865.619 -2.32485 -0.217511 0
M  V30 9071 C 866.6 -1.42255 -0.932598 0
M  V30 9072 O 867.785 -1.7114 -0.917873 0
M  V30 9073 C 864.915 -3.23509 -1.26329 0
M  V30 9074 C 863.869 -4.22784 -0.666191 0
M  V30 9075 C 863.195 -5.0296 -1.81482 0
M  V30 9076 C 864.495 -5.21031 0.363813 0
M  V30 9077 H 866.189 -2.95445 0.485014 0
M  V30 9078 H 863.735 -1.42075 0.234694 0
M  V30 9079 H 865.688 -3.81211 -1.79601 0
M  V30 9080 H 864.412 -2.58554 -1.99543 0
M  V30 9081 H 863.071 -3.66272 -0.15498 0
M  V30 9082 H 862.719 -4.34427 -2.5354 0
M  V30 9083 H 862.419 -5.70154 -1.4212 0
M  V30 9084 H 863.943 -5.63514 -2.35126 0
M  V30 9085 H 865.357 -5.73241 -0.0819079 0
M  V30 9086 H 863.754 -5.96292 0.674956 0
M  V30 9087 H 864.824 -4.6801 1.26865 0
M  V30 9088 N 866.167 -0.267825 -1.55308 0
M  V30 9089 C 867.415 0.350343 -1.9904 0
M  V30 9090 C 867.736 1.56924 -1.15758 0
M  V30 9091 O 867.006 1.94358 -0.245336 0
M  V30 9092 H 865.586 0.132435 -0.735167 0
M  V30 9093 H 868.248 -0.371471 -1.91327 0
M  V30 9094 H 867.344 0.645203 -3.05358 0
M  V30 9095 N 867.645 1.57599 0.00500368 0
M  V30 9096 C 869.061 1.55463 0.361015 0
M  V30 9097 C 869.261 0.997051 1.75103 0
M  V30 9098 O 868.317 0.628661 2.44549 0
M  V30 9099 C 869.63 2.99734 0.240828 0
M  V30 9100 C 871.178 3.11399 0.316138 0
M  V30 9101 C 871.653 4.57446 0.22513 0
M  V30 9102 N 873.144 4.62334 0.283186 0
M  V30 9103 C 873.879 5.72914 0.23603 0
M  V30 9104 N 873.375 6.92659 0.139762 0
M  V30 9105 N 875.168 5.61364 0.287529 0
M  V30 9106 H 867.319 1.92185 -0.904359 0
M  V30 9107 H 869.582 0.882529 -0.34619 0
M  V30 9108 H 869.288 3.44348 -0.715343 0
M  V30 9109 H 869.162 3.63009 1.02491 0
M  V30 9110 H 871.549 2.66718 1.26275 0
M  V30 9111 H 871.63 2.50911 -0.497725 0
M  V30 9112 H 871.274 5.02801 -0.717917 0
M  V30 9113 H 871.204 5.15874 1.05742 0
M  V30 9114 H 873.695 3.7619 0.359123 0
M  V30 9115 H 874.008 7.72722 0.10954 0
M  V30 9116 H 872.353 6.9492 0.105462 0
M  V30 9117 H 875.544 4.66707 0.360897 0
M  V30 9118 H 875.717 6.47528 0.247313 0
M  V30 9119 N 869.123 -0.277682 1.55134 0
M  V30 9120 C 870.372 -1.00766 1.74726 0
M  V30 9121 C 870.685 -1.87617 0.553092 0
M  V30 9122 O 871.891 -2.64058 0.631318 0
M  V30 9123 C 870.347 -1.84147 3.09221 0
M  V30 9124 C 869.955 -1.02186 4.3619 0
M  V30 9125 C 871.699 -2.56604 3.38164 0
M  V30 9126 C 869.606 -1.84978 5.61727 0
M  V30 9127 H 868.536 -0.379948 0.651273 0
M  V30 9128 H 871.187 -0.263543 1.81598 0
M  V30 9129 H 869.569 -2.62637 2.96375 0
M  V30 9130 H 870.743 -0.281459 4.5994 0
M  V30 9131 H 869.058 -0.412054 4.14356 0
M  V30 9132 H 871.655 -3.18942 4.29162 0
M  V30 9133 H 871.998 -3.26647 2.58085 0
M  V30 9134 H 872.531 -1.85147 3.52087 0
M  V30 9135 H 869.27 -1.19365 6.4454 0
M  V30 9136 H 868.79 -2.56628 5.42128 0
M  V30 9137 H 870.469 -2.42458 5.99853 0
M  V30 9138 N 870.601 -1.47988 -0.541979 0
M  V30 9139 C 871.551 -1.58019 -1.64359 0
M  V30 9140 C 872.535 -0.438056 -1.54822 0
M  V30 9141 O 873.727 -0.688837 -1.63046 0
M  V30 9142 C 870.856 -1.61182 -3.03109 0
M  V30 9143 C 869.942 -2.80834 -3.17794 0
M  V30 9144 N 870.333 -4.05379 -3.02492 0
M  V30 9145 C 868.631 -2.77914 -3.48826 0
M  V30 9146 C 869.332 -4.85592 -3.20274 0
M  V30 9147 N 868.308 -4.18188 -3.47304 0
M  V30 9148 H 872.11 -2.52071 -1.5112 0
M  V30 9149 H 869.624 -1.44193 -0.747137 0
M  V30 9150 H 871.621 -1.66461 -3.82226 0
M  V30 9151 H 870.281 -0.682375 -3.17449 0
M  V30 9152 H 871.292 -4.36003 -2.79503 0
M  V30 9153 H 867.969 -1.94174 -3.69598 0
M  V30 9154 H 869.359 -5.94394 -3.13282 0
M  V30 9155 N 872.079 0.78992 -1.36375 0
M  V30 9156 C 873.026 1.90254 -1.3066 0
M  V30 9157 C 873.996 1.65171 -0.17539 0
M  V30 9158 O 875.181 1.87338 -0.361824 0
M  V30 9159 C 872.321 3.27057 -1.10125 0
M  V30 9160 C 871.434 3.64215 -2.32317 0
M  V30 9161 C 870.569 4.90134 -2.04798 0
M  V30 9162 C 869.608 5.19969 -3.22953 0
M  V30 9163 N 868.745 6.37071 -2.95102 0
M  V30 9164 H 873.585 1.94474 -2.25796 0
M  V30 9165 H 871.122 0.951022 -1.12223 0
M  V30 9166 H 873.08 4.05947 -0.962453 0
M  V30 9167 H 871.71 3.22261 -0.186444 0
M  V30 9168 H 870.762 2.80454 -2.57002 0
M  V30 9169 H 872.074 3.82212 -3.20492 0
M  V30 9170 H 871.228 5.76888 -1.87845 0
M  V30 9171 H 869.967 4.74205 -1.13932 0
M  V30 9172 H 868.972 4.31699 -3.40465 0
M  V30 9173 H 870.197 5.37817 -4.14644 0
M  V30 9174 H 868.143 6.22535 -2.06848 0
M  V30 9175 H 868.06 6.55398 -3.76815 0
M  V30 9176 H 869.328 7.26808 -2.81727 0
M  V30 9177 N 873.557 1.20646 1.01402 0
M  V30 9178 C 874.968 1.01823 1.56489 0
M  V30 9179 C 875.319 -0.42463 1.9155 0
M  V30 9180 O 874.444 -1.30644 1.72514 0
M  V30 9181 C 875.039 1.84208 2.84347 0
M  V30 9182 C 873.598 1.69743 3.35953 0
M  V30 9183 C 872.745 1.8198 2.09233 0
M  V30 9184 H 875.696 1.348 0.837539 0
M  V30 9185 H 875.717 1.34698 3.55861 0
M  V30 9186 H 875.229 2.89215 2.58798 0
M  V30 9187 H 873.33 0.673833 3.66456 0
M  V30 9188 H 873.443 2.51173 4.07981 0
M  V30 9189 H 871.807 1.25193 2.21808 0
M  V30 9190 H 872.59 2.88477 1.86107 0
M  V30 9191 N 875.035 -1.20752 1.01276 0
M  V30 9192 C 876.312 -1.85676 0.615112 0
M  V30 9193 C 876.692 -1.90623 -0.906976 0
M  V30 9194 O 876.04 -1.41124 -1.79712 0
M  V30 9195 C 876.25 -3.2552 1.25847 0
M  V30 9196 C 877.598 -4.0184 1.37148 0
M  V30 9197 O 878.622 -3.3486 1.21438 0
M  V30 9198 O 877.481 -5.21783 1.62495 0
M  V30 9199 H 874.575 -0.799437 0.211729 0
M  V30 9200 H 877.121 -1.28372 1.10989 0
M  V30 9201 H 875.893 -3.16664 2.29869 0
M  V30 9202 H 875.516 -3.90452 0.750524 0
M  V30 9203 N 876.513 -0.788492 -1.36457 0
M  V30 9204 C 877.924 -0.423742 -1.81828 0
M  V30 9205 C 878.275 1.05221 -1.65599 0
M  V30 9206 O 877.4 1.8163 -1.17641 0
M  V30 9207 C 877.995 -0.762354 -3.30112 0
M  V30 9208 C 876.554 -0.450445 -3.73695 0
M  V30 9209 C 875.701 -0.997482 -2.58738 0
M  V30 9210 H 878.652 -0.981718 -1.24692 0
M  V30 9211 H 878.673 -0.0531136 -3.80463 0
M  V30 9212 H 878.185 -1.83662 -3.41891 0
M  V30 9213 H 876.286 0.615829 -3.67476 0
M  V30 9214 H 876.399 -0.970408 -4.69169 0
M  V30 9215 H 874.763 -0.420761 -2.51201 0
M  V30 9216 H 875.546 -2.07749 -2.73304 0
M  V30 9217 N 877.991 1.48044 -0.54043 0
M  V30 9218 C 879.237 2.03392 -0.0183377 0
M  V30 9219 C 879.592 1.4091 1.31004 0
M  V30 9220 O 878.885 0.549375 1.83555 0
M  V30 9221 C 879.079 3.57085 0.150008 0
M  V30 9222 C 878.908 4.34468 -1.1605 0
M  V30 9223 C 877.678 4.75008 -1.72324 0
M  V30 9224 C 879.876 4.70641 -2.07368 0
M  V30 9225 N 877.858 5.36968 -2.97555 0
M  V30 9226 C 879.229 5.32728 -3.17176 0
M  V30 9227 C 881.284 4.52571 -2.07567 0
M  V30 9228 C 879.987 5.78654 -4.27261 0
M  V30 9229 C 882.013 4.99485 -3.16653 0
M  V30 9230 C 881.375 5.61606 -4.2518 0
M  V30 9231 H 877.474 0.780497 -0.0484652 0
M  V30 9232 H 880.058 1.80738 -0.724018 0
M  V30 9233 H 878.229 3.79542 0.824787 0
M  V30 9234 H 879.961 3.99071 0.672649 0
M  V30 9235 H 876.716 4.5644 -1.26331 0
M  V30 9236 H 877.14 5.72505 -3.61341 0
M  V30 9237 H 881.782 4.03914 -1.24952 0
M  V30 9238 H 879.5 6.26311 -5.10647 0
M  V30 9239 H 883.086 4.87286 -3.17874 0
M  V30 9240 H 881.966 5.97248 -5.08197 0
M  V30 9241 N 879.47 0.276058 1.55163 0
M  V30 9242 C 880.4 -0.604633 2.25536 0
M  V30 9243 C 881.381 -1.15813 1.24585 0
M  V30 9244 O 882.566 -1.1921 1.53306 0
M  V30 9245 C 879.696 -1.78836 2.97716 0
M  V30 9246 C 878.65 -1.36635 4.05604 0
M  V30 9247 C 877.976 -2.63325 4.65364 0
M  V30 9248 C 879.276 -0.515858 5.19746 0
M  V30 9249 H 880.97 -0.0177483 2.99395 0
M  V30 9250 H 878.516 -0.00709627 1.43998 0
M  V30 9251 H 880.469 -2.41036 3.45658 0
M  V30 9252 H 879.193 -2.40109 2.21394 0
M  V30 9253 H 877.852 -0.767541 3.58475 0
M  V30 9254 H 877.5 -3.22858 3.85709 0
M  V30 9255 H 877.2 -2.358 5.38212 0
M  V30 9256 H 878.724 -3.26372 5.16056 0
M  V30 9257 H 880.138 -1.04289 5.63735 0
M  V30 9258 H 878.535 -0.335449 5.99162 0
M  V30 9259 H 879.605 0.465137 4.82664 0
M  V30 9260 N 880.948 -1.576 0.00335426 0
M  V30 9261 C 882.173 -1.95398 -0.695311 0
M  V30 9262 C 882.598 -0.878476 -1.66326 0
M  V30 9263 O 881.956 0.163086 -1.80565 0
M  V30 9264 C 882.004 -3.32293 -1.40049 0
M  V30 9265 O 881.108 -3.26834 -2.51502 0
M  V30 9266 H 880.449 -0.637796 -0.184694 0
M  V30 9267 H 882.979 -2.04519 0.057543 0
M  V30 9268 H 882.989 -3.67936 -1.76316 0
M  V30 9269 H 881.664 -4.10123 -0.690803 0
M  V30 9270 H 880.241 -3.02872 -2.17539 0
M  V30 9271 N 882.426 0.269451 -1.5528 0
M  V30 9272 C 883.373 1.33316 -1.88403 0
M  V30 9273 C 884.343 1.48909 -0.735881 0
M  V30 9274 O 885.528 1.63259 -0.987479 0
M  V30 9275 C 882.668 2.68778 -2.16454 0
M  V30 9276 C 881.781 2.61377 -3.43956 0
M  V30 9277 C 880.916 3.89042 -3.6169 0
M  V30 9278 C 879.955 3.76166 -4.82872 0
M  V30 9279 N 879.092 4.95673 -4.97245 0
M  V30 9280 H 883.932 1.04368 -2.79126 0
M  V30 9281 H 881.469 0.504147 -1.38191 0
M  V30 9282 H 883.427 3.47599 -2.30719 0
M  V30 9283 H 882.057 2.9592 -1.28961 0
M  V30 9284 H 881.109 1.74247 -3.38145 0
M  V30 9285 H 882.421 2.47764 -4.32914 0
M  V30 9286 H 881.575 4.76304 -3.75791 0
M  V30 9287 H 880.314 4.05526 -2.70924 0
M  V30 9288 H 879.319 2.87287 -4.68771 0
M  V30 9289 H 880.544 3.61198 -5.75077 0
M  V30 9290 H 878.49 5.12561 -4.09411 0
M  V30 9291 H 878.407 4.84605 -5.80254 0
M  V30 9292 H 879.675 5.84498 -5.15735 0
M  V30 9293 N 883.904 1.48273 0.534124 0
M  V30 9294 C 885.151 1.56079 1.29017 0
M  V30 9295 C 885.479 0.232912 1.931 0
M  V30 9296 O 884.734 -0.77642 1.79639 0
M  V30 9297 C 885.033 2.64468 2.40398 0
M  V30 9298 C 884.699 4.07034 1.93995 0
M  V30 9299 C 883.361 4.45838 1.81058 0
M  V30 9300 C 885.713 4.96395 1.58877 0
M  V30 9301 C 883.041 5.71812 1.31331 0
M  V30 9302 C 885.393 6.22854 1.10614 0
M  V30 9303 C 884.057 6.60518 0.962895 0
M  V30 9304 H 883.327 0.571135 0.472108 0
M  V30 9305 H 885.974 1.81973 0.5965 0
M  V30 9306 H 884.279 2.32419 3.15418 0
M  V30 9307 H 885.976 2.67725 2.98537 0
M  V30 9308 H 882.566 3.76387 2.05015 0
M  V30 9309 H 886.75 4.67096 1.67734 0
M  V30 9310 H 882.006 5.99722 1.18924 0
M  V30 9311 H 886.18 6.91495 0.825095 0
M  V30 9312 H 883.807 7.58019 0.575369 0
M  V30 9313 N 885.382 -0.782676 1.36792 0
M  V30 9314 C 886.312 -1.90973 1.34356 0
M  V30 9315 C 887.293 -1.6875 0.213917 0
M  V30 9316 O 888.478 -1.89766 0.412601 0
M  V30 9317 C 885.608 -3.28097 1.13884 0
M  V30 9318 C 884.562 -3.6486 2.23744 0
M  V30 9319 C 883.888 -5.00406 1.88408 0
M  V30 9320 C 885.188 -3.72742 3.6587 0
M  V30 9321 H 886.882 -1.93268 2.28665 0
M  V30 9322 H 884.428 -0.928447 1.10072 0
M  V30 9323 H 886.381 -4.06569 1.10813 0
M  V30 9324 H 885.105 -3.26206 0.160275 0
M  V30 9325 H 883.764 -2.88689 2.25952 0
M  V30 9326 H 883.412 -4.95044 0.891083 0
M  V30 9327 H 883.112 -5.25973 2.61966 0
M  V30 9328 H 884.636 -5.81291 1.86905 0
M  V30 9329 H 886.05 -4.4139 3.65852 0
M  V30 9330 H 884.447 -4.09798 4.38389 0
M  V30 9331 H 885.517 -2.73676 4.00287 0
M  V30 9332 N 886.86 -1.21182 -1.00761 0
M  V30 9333 C 888.085 -1.05411 -1.78615 0
M  V30 9334 C 888.51 0.391837 -1.83973 0
M  V30 9335 O 887.868 1.28256 -1.28141 0
M  V30 9336 C 887.916 -1.65285 -3.20489 0
M  V30 9337 O 887.02 -0.896558 -4.02536 0
M  V30 9338 H 886.361 -0.37116 -0.550578 0
M  V30 9339 H 888.891 -1.60669 -1.26676 0
M  V30 9340 H 888.901 -1.69397 -3.71172 0
M  V30 9341 H 887.576 -2.70514 -3.15904 0
M  V30 9342 H 886.153 -0.930335 -3.61108 0
M  V30 9343 N 888.338 1.20213 -1.01915 0
M  V30 9344 C 889.754 1.41696 -0.734459 0
M  V30 9345 C 889.954 1.89504 0.684867 0
M  V30 9346 O 889.01 2.06556 1.45227 0
M  V30 9347 C 890.323 2.43644 -1.76233 0
M  V30 9348 C 891.871 2.57406 -1.78076 0
M  V30 9349 C 892.346 3.626 -2.79796 0
M  V30 9350 N 893.837 3.70086 -2.78551 0
M  V30 9351 C 894.572 4.51145 -3.53915 0
M  V30 9352 N 894.068 5.35988 -4.38963 0
M  V30 9353 N 895.861 4.45702 -3.425 0
M  V30 9354 H 888.012 0.874976 -1.93541 0
M  V30 9355 H 890.275 0.446647 -0.836188 0
M  V30 9356 H 889.981 2.15519 -2.77929 0
M  V30 9357 H 889.855 3.42672 -1.57657 0
M  V30 9358 H 892.242 2.8486 -0.770634 0
M  V30 9359 H 892.323 1.58565 -2.00725 0
M  V30 9360 H 891.967 3.35889 -3.80973 0
M  V30 9361 H 891.897 4.61069 -2.54407 0
M  V30 9362 H 894.388 3.09484 -2.1686 0
M  V30 9363 H 894.701 5.94932 -4.9323 0
M  V30 9364 H 893.046 5.35482 -4.4304 0
M  V30 9365 H 896.237 3.78456 -2.75478 0
M  V30 9366 H 896.41 5.08637 -4.01487 0
M  V30 9367 N 889.816 0.795718 1.36037 0
M  V30 9368 C 891.046 0.382597 2.03026 0
M  V30 9369 C 891.454 -1.00779 1.60126 0
M  V30 9370 O 890.797 -1.65884 0.78919 0
M  V30 9371 C 890.859 0.374145 3.57548 0
M  V30 9372 C 890.523 1.71318 4.23673 0
M  V30 9373 C 891.52 2.6697 4.4612 0
M  V30 9374 C 889.205 1.99421 4.61017 0
M  V30 9375 C 891.199 3.88916 5.04998 0
M  V30 9376 C 888.886 3.21632 5.19611 0
M  V30 9377 C 889.884 4.16198 5.41542 0
M  V30 9378 O 889.572 5.36254 5.98905 0
M  V30 9379 H 889.304 0.154944 0.658003 0
M  V30 9380 H 891.858 1.07756 1.74865 0
M  V30 9381 H 890.088 -0.377349 3.84854 0
M  V30 9382 H 891.777 -0.01517 4.05897 0
M  V30 9383 H 892.543 2.46548 4.17659 0
M  V30 9384 H 888.422 1.2663 4.43267 0
M  V30 9385 H 891.966 4.6274 5.22032 0
M  V30 9386 H 887.863 3.4193 5.47498 0
M  V30 9387 H 888.631 5.37403 6.17366 0
M  V30 9388 N 891.294 -1.47756 0.548274 0
M  V30 9389 C 892.71 -1.58247 0.207401 0
M  V30 9390 C 892.91 -1.54804 -1.28988 0
M  V30 9391 O 891.966 -1.44673 -2.06944 0
M  V30 9392 C 893.279 -2.89129 0.826142 0
M  V30 9393 C 894.827 -3.02695 0.79655 0
M  V30 9394 C 895.302 -4.36264 1.3942 0
M  V30 9395 N 896.793 -4.42877 1.35698 0
M  V30 9396 C 897.528 -5.44773 1.78913 0
M  V30 9397 N 897.024 -6.53528 2.29942 0
M  V30 9398 N 898.817 -5.35765 1.70038 0
M  V30 9399 H 890.968 -1.48236 1.52117 0
M  V30 9400 H 893.231 -0.704957 0.633829 0
M  V30 9401 H 892.937 -2.97358 1.87806 0
M  V30 9402 H 892.811 -3.75891 0.313916 0
M  V30 9403 H 895.198 -2.94067 -0.246655 0
M  V30 9404 H 895.279 -2.17496 1.34644 0
M  V30 9405 H 894.923 -4.45646 2.43642 0
M  V30 9406 H 894.853 -5.20179 0.819827 0
M  V30 9407 H 897.344 -3.64874 0.983623 0
M  V30 9408 H 897.657 -7.27441 2.60863 0
M  V30 9409 H 896.002 -6.54442 2.33947 0
M  V30 9410 H 899.193 -4.49699 1.29955 0
M  V30 9411 H 899.366 -6.1504 2.04035 0
M  V30 9412 N 892.772 -0.284283 -1.55015 0
M  V30 9413 C 893.719 0.599194 -2.22886 0
M  V30 9414 C 894.689 1.14264 -1.20553 0
M  V30 9415 O 895.874 1.19025 -1.49123 0
M  V30 9416 C 893.014 1.77317 -2.96062 0
M  V30 9417 C 892.127 1.26271 -4.13134 0
M  V30 9418 C 891.262 2.39922 -4.73931 0
M  V30 9419 C 890.301 1.85925 -5.8318 0
M  V30 9420 N 889.438 2.93084 -6.38002 0
M  V30 9421 H 894.278 0.0137816 -2.97997 0
M  V30 9422 H 891.815 -0.00496503 -1.47099 0
M  V30 9423 H 893.773 2.46339 -3.36709 0
M  V30 9424 H 892.403 2.33047 -2.23358 0
M  V30 9425 H 891.455 0.465296 -3.77544 0
M  V30 9426 H 892.767 0.827284 -4.91892 0
M  V30 9427 H 891.921 3.1692 -5.17346 0
M  V30 9428 H 890.66 2.86784 -3.9447 0
M  V30 9429 H 889.665 1.07409 -5.39206 0
M  V30 9430 H 890.89 1.39987 -6.64515 0
M  V30 9431 H 888.836 3.3931 -5.61431 0
M  V30 9432 H 888.753 2.53986 -7.12058 0
M  V30 9433 H 890.021 3.7003 -6.86075 0
M  V30 9434 N 894.251 1.57596 -0.0117121 0
M  V30 9435 C 895.479 1.9536 0.681334 0
M  V30 9436 C 895.894 0.887255 1.66653 0
M  V30 9437 O 895.251 -0.132692 1.82017 0
M  V30 9438 C 895.302 3.33165 1.40298 0
M  V30 9439 O 895.023 4.35707 0.45728 0
M  V30 9440 C 896.524 3.85458 2.18946 0
M  V30 9441 H 893.744 0.643826 0.189023 0
M  V30 9442 H 896.288 2.04392 -0.066311 0
M  V30 9443 H 894.443 3.25404 2.10216 0
M  V30 9444 H 894.857 5.15495 0.96773 0
M  V30 9445 H 896.331 4.84275 2.64918 0
M  V30 9446 H 896.808 3.18781 3.02118 0
M  V30 9447 H 897.414 3.96431 1.5402 0
M  V30 9448 N 895.729 -0.261212 1.5542 0
M  V30 9449 C 896.679 -1.32571 1.85496 0
M  V30 9450 C 897.663 -1.44155 0.714722 0
M  V30 9451 O 898.855 -1.47637 0.976336 0
M  V30 9452 C 895.984 -2.68384 2.14067 0
M  V30 9453 C 895.07 -2.60864 3.34381 0
M  V30 9454 N 895.461 -2.22967 4.54004 0
M  V30 9455 C 893.759 -2.91904 3.37206 0
M  V30 9456 C 894.46 -2.25727 5.36118 0
M  V30 9457 N 893.436 -2.64667 4.74818 0
M  V30 9458 H 897.238 -1.02298 2.75522 0
M  V30 9459 H 894.752 -0.469849 1.55455 0
M  V30 9460 H 896.749 -3.45189 2.33774 0
M  V30 9461 H 895.409 -2.99536 1.25332 0
M  V30 9462 H 896.42 -1.94748 4.79889 0
M  V30 9463 H 893.097 -3.2769 2.587 0
M  V30 9464 H 894.487 -1.98889 6.41789 0
M  V30 9465 N 897.207 -1.48554 -0.526253 0
M  V30 9466 C 898.157 -1.59753 -1.62674 0
M  V30 9467 C 899.141 -0.454452 -1.54349 0
M  V30 9468 O 900.333 -0.706091 -1.62306 0
M  V30 9469 C 897.462 -1.64388 -3.01383 0
M  V30 9470 C 896.548 -2.84188 -3.14798 0
M  V30 9471 N 896.939 -4.08564 -2.98176 0
M  V30 9472 C 895.237 -2.81599 -3.45859 0
M  V30 9473 C 895.938 -4.88961 -3.15106 0
M  V30 9474 N 894.914 -4.21848 -3.42849 0
M  V30 9475 H 898.716 -2.5366 -1.48438 0
M  V30 9476 H 896.23 -1.44977 -0.731801 0
M  V30 9477 H 898.227 -1.70505 -3.80439 0
M  V30 9478 H 896.887 -0.716006 -3.16707 0
M  V30 9479 H 897.898 -4.38943 -2.74862 0
M  V30 9480 H 894.575 -1.98083 -3.67518 0
M  V30 9481 H 895.965 -5.97683 -3.0696 0
M  V30 9482 N 898.685 0.775411 -1.37205 0
M  V30 9483 C 899.934 1.52909 -1.31536 0
M  V30 9484 C 900.247 1.9535 0.0989374 0
M  V30 9485 O 901.453 2.70072 0.278079 0
M  V30 9486 C 899.909 2.761 -2.30861 0
M  V30 9487 C 899.517 2.40773 -3.77799 0
M  V30 9488 C 901.261 3.54052 -2.34195 0
M  V30 9489 C 899.168 3.60444 -4.68865 0
M  V30 9490 H 898.098 0.574061 -0.488845 0
M  V30 9491 H 900.749 0.849642 -1.62645 0
M  V30 9492 H 899.131 3.45916 -1.92764 0
M  V30 9493 H 900.305 1.78764 -4.24712 0
M  V30 9494 H 898.62 1.76004 -3.77375 0
M  V30 9495 H 901.217 4.42992 -2.99437 0
M  V30 9496 H 901.56 3.93649 -1.35449 0
M  V30 9497 H 902.093 2.91229 -2.7098 0
M  V30 9498 H 898.832 3.25932 -5.68725 0
M  V30 9499 H 898.352 4.21571 -4.26659 0
M  V30 9500 H 900.031 4.27302 -4.85821 0
M  V30 9501 N 900.163 1.21714 1.00117 0
M  V30 9502 C 901.073 0.99597 2.12409 0
M  V30 9503 C 902.089 -0.0531431 1.73919 0
M  V30 9504 O 903.265 0.137757 2.00928 0
M  V30 9505 C 900.33 0.567593 3.42022 0
M  V30 9506 C 899.391 1.68936 3.94663 0
M  V30 9507 C 898.624 1.28133 5.1809 0
M  V30 9508 O 898.847 0.156574 5.70185 0
M  V30 9509 O 897.781 2.0947 5.64275 0
M  V30 9510 H 901.607 1.93657 2.33946 0
M  V30 9511 H 899.192 1.00236 1.10784 0
M  V30 9512 H 901.074 0.338664 4.20037 0
M  V30 9513 H 899.749 -0.34424 3.21864 0
M  V30 9514 H 898.656 1.97274 3.17858 0
M  V30 9515 H 899.989 2.57876 4.19238 0
M  V30 9516 N 901.641 -1.19671 1.02551 0
M  V30 9517 C 903.052 -1.70964 0.750208 0
M  V30 9518 C 903.403 -1.82095 -0.730461 0
M  V30 9519 O 902.528 -1.48974 -1.56958 0
M  V30 9520 C 903.123 -3.10516 1.35518 0
M  V30 9521 C 901.682 -3.59083 1.12854 0
M  V30 9522 C 900.829 -2.36041 1.45534 0
M  V30 9523 H 903.78 -1.04559 1.19386 0
M  V30 9524 H 903.801 -3.73028 0.750378 0
M  V30 9525 H 903.313 -3.02383 2.43282 0
M  V30 9526 H 901.414 -3.72536 0.0689627 0
M  V30 9527 H 901.527 -4.43395 1.81488 0
M  V30 9528 H 899.891 -2.39214 0.87458 0
M  V30 9529 H 900.674 -2.3054 2.54374 0
M  V30 9530 N 903.119 -0.802921 -1.35613 0
M  V30 9531 C 904.535 -0.486214 -1.52014 0
M  V30 9532 C 904.735 0.993219 -1.75321 0
M  V30 9533 O 903.791 1.77835 -1.79251 0
M  V30 9534 C 905.104 -1.32839 -2.69767 0
M  V30 9535 C 906.652 -1.32346 -2.83643 0
M  V30 9536 C 907.127 -2.14967 -4.04417 0
M  V30 9537 N 908.618 -2.12484 -4.11588 0
M  V30 9538 C 909.353 -2.73173 -5.04147 0
M  V30 9539 N 908.849 -3.42774 -6.02061 0
M  V30 9540 N 910.642 -2.62834 -4.96865 0
M  V30 9541 H 902.793 -1.76109 -1.18741 0
M  V30 9542 H 905.056 -0.74936 -0.580658 0
M  V30 9543 H 904.762 -2.37813 -2.5911 0
M  V30 9544 H 904.636 -0.979058 -3.64272 0
M  V30 9545 H 907.023 -0.281586 -2.93753 0
M  V30 9546 H 907.104 -1.71264 -1.90006 0
M  V30 9547 H 906.748 -3.19193 -3.95068 0
M  V30 9548 H 906.678 -1.73411 -4.97228 0
M  V30 9549 H 909.169 -1.61839 -3.41492 0
M  V30 9550 H 909.482 -3.86378 -6.69277 0
M  V30 9551 H 907.827 -3.46878 -6.02246 0
M  V30 9552 H 911.018 -2.08049 -4.19325 0
M  V30 9553 H 911.191 -3.10421 -5.68808 0
M  V30 9554 N 904.597 1.47463 -0.556102 0
M  V30 9555 C 905.825 2.06868 -0.0364585 0
M  V30 9556 C 906.24 1.40893 1.25677 0
M  V30 9557 O 905.597 0.505083 1.75371 0
M  V30 9558 C 905.648 3.61128 0.163984 0
M  V30 9559 O 905.369 4.24629 -1.07803 0
M  V30 9560 C 906.87 4.37397 0.721036 0
M  V30 9561 H 904.09 0.669466 -0.0453399 0
M  V30 9562 H 906.634 1.89482 -0.769198 0
M  V30 9563 H 904.789 3.78031 0.84685 0
M  V30 9564 H 905.203 5.17149 -0.875067 0
M  V30 9565 H 906.677 5.46016 0.810584 0
M  V30 9566 H 907.154 4.03604 1.73206 0
M  V30 9567 H 907.76 4.25236 0.073904 0
M  V30 9568 N 906.075 0.2925 1.54862 0
M  V30 9569 C 907.324 -0.319994 1.99146 0
M  V30 9570 C 907.637 -1.55658 1.18448 0
M  V30 9571 O 908.843 -2.24312 1.52959 0
M  V30 9572 C 907.299 -0.620665 3.54508 0
M  V30 9573 C 906.907 0.597098 4.44003 0
M  V30 9574 C 908.651 -1.19482 4.07338 0
M  V30 9575 C 906.558 0.270049 5.90783 0
M  V30 9576 H 905.488 -0.123342 0.743843 0
M  V30 9577 H 908.139 0.399876 1.7909 0
M  V30 9578 H 906.521 -1.3999 3.7043 0
M  V30 9579 H 907.695 1.37354 4.39853 0
M  V30 9580 H 906.01 1.0893 4.019 0
M  V30 9581 H 908.607 -1.45362 5.14562 0
M  V30 9582 H 908.95 -2.13435 3.57423 0
M  V30 9583 H 909.483 -0.477485 3.94924 0
M  V30 9584 H 906.222 1.17791 6.4483 0
M  V30 9585 H 905.742 -0.469292 5.97961 0
M  V30 9586 H 907.421 -0.131471 6.46866 0
M  V30 9587 N 907.553 -1.57587 0.0200696 0
M  V30 9588 C 908.778 -1.96124 -0.674547 0
M  V30 9589 C 909.203 -0.896068 -1.65385 0
M  V30 9590 O 908.561 0.143925 -1.80728 0
M  V30 9591 C 908.609 -3.3376 -1.36517 0
M  V30 9592 O 907.713 -3.29483 -2.48022 0
M  V30 9593 H 907.054 -0.639719 -0.177919 0
M  V30 9594 H 909.584 -2.04447 0.0792317 0
M  V30 9595 H 909.594 -3.69785 -1.72403 0
M  V30 9596 H 908.269 -4.10832 -0.647265 0
M  V30 9597 H 906.846 -3.05162 -2.14314 0
M  V30 9598 N 909.032 0.252966 -1.55557 0
M  V30 9599 C 909.964 1.33585 -1.86246 0
M  V30 9600 C 910.977 1.44584 -0.748291 0
M  V30 9601 O 912.166 1.46042 -1.02635 0
M  V30 9602 C 909.266 2.71509 -2.02821 0
M  V30 9603 C 908.439 2.82853 -3.33636 0
M  V30 9604 C 907.498 4.01581 -3.40028 0
M  V30 9605 O 906.524 3.91394 -4.13278 0
M  V30 9606 N 907.726 5.14474 -2.6888 0
M  V30 9607 H 910.491 1.07596 -2.7972 0
M  V30 9608 H 908.052 0.443075 -1.55719 0
M  V30 9609 H 910.044 3.49262 -2.04445 0
M  V30 9610 H 908.614 2.90232 -1.1612 0
M  V30 9611 H 907.834 1.91823 -3.4438 0
M  V30 9612 H 909.122 2.87378 -4.19871 0
M  V30 9613 H 908.52 5.25641 -2.09087 0
M  V30 9614 H 907.077 5.90385 -2.76204 0
M  V30 9615 N 910.51 1.48831 0.518367 0
M  V30 9616 C 911.787 1.47933 1.27966 0
M  V30 9617 C 912.167 0.197393 2.10175 0
M  V30 9618 O 911.515 -0.820656 2.13255 0
M  V30 9619 C 911.725 2.74816 2.15121 0
M  V30 9620 C 913.073 3.23613 2.74881 0
M  V30 9621 O 914.097 2.75814 2.254 0
M  V30 9622 O 912.956 4.06818 3.64913 0
M  V30 9623 H 910.05 0.591316 0.578164 0
M  V30 9624 H 912.596 1.61077 0.534065 0
M  V30 9625 H 911.368 3.59621 1.54234 0
M  V30 9626 H 910.991 2.64449 2.96905 0
M  V30 9627 N 911.988 -0.768124 1.37614 0
M  V30 9628 C 912.898 -1.91249 1.35871 0
M  V30 9629 C 913.914 -1.7208 0.257786 0
M  V30 9630 O 915.09 -1.95253 0.493782 0
M  V30 9631 C 912.155 -3.26423 1.16829 0
M  V30 9632 C 911.216 -3.5822 2.36594 0
M  V30 9633 C 910.449 -4.86945 2.1845 0
M  V30 9634 O 910.672 -5.58258 1.17064 0
M  V30 9635 O 909.606 -5.17888 3.06718 0
M  V30 9636 H 913.432 -1.95671 2.32264 0
M  V30 9637 H 911.017 -0.911382 1.18382 0
M  V30 9638 H 912.899 -4.07269 1.08212 0
M  V30 9639 H 911.574 -3.22845 0.235123 0
M  V30 9640 H 910.481 -2.77594 2.50783 0
M  V30 9641 H 911.814 -3.66545 3.2849 0
M  V30 9642 N 913.466 -1.22244 -0.994698 0
M  V30 9643 C 914.715 -1.04005 -1.72817 0
M  V30 9644 C 915.028 0.425413 -1.90918 0
M  V30 9645 O 916.234 0.727429 -2.61574 0
M  V30 9646 C 914.69 -1.81244 -3.10932 0
M  V30 9647 C 914.298 -3.32028 -3.00768 0
M  V30 9648 C 916.042 -1.71448 -3.88337 0
M  V30 9649 C 913.949 -4.01716 -4.34026 0
M  V30 9650 H 912.879 -0.385559 -0.647966 0
M  V30 9651 H 915.53 -1.46077 -1.11058 0
M  V30 9652 H 913.912 -1.3197 -3.73363 0
M  V30 9653 H 915.086 -3.88682 -2.47513 0
M  V30 9654 H 913.401 -3.4248 -2.36846 0
M  V30 9655 H 915.998 -2.20836 -4.86965 0
M  V30 9656 H 916.341 -0.674568 -4.10798 0
M  V30 9657 H 916.874 -2.18256 -3.3258 0
M  V30 9658 H 913.613 -5.05952 -4.16765 0
M  V30 9659 H 913.133 -3.49849 -4.87202 0
M  V30 9660 H 914.812 -4.0721 -5.02782 0
M  V30 9661 N 914.944 1.19125 -1.03184 0
M  V30 9662 C 915.874 2.24675 -0.635889 0
M  V30 9663 C 916.855 1.66321 0.356565 0
M  V30 9664 O 918.04 1.92728 0.238625 0
M  V30 9665 C 915.17 3.47298 0.011069 0
M  V30 9666 C 914.124 4.18345 -0.903979 0
M  V30 9667 C 913.45 5.34561 -0.12197 0
M  V30 9668 C 914.75 4.72816 -2.21907 0
M  V30 9669 H 916.444 2.5805 -1.51825 0
M  V30 9670 H 913.99 1.24039 -0.73146 0
M  V30 9671 H 915.943 4.20333 0.299729 0
M  V30 9672 H 914.667 3.13131 0.928245 0
M  V30 9673 H 913.326 3.47196 -1.17688 0
M  V30 9674 H 912.974 4.9664 0.797334 0
M  V30 9675 H 912.674 5.83029 -0.731498 0
M  V30 9676 H 914.198 6.10391 0.159881 0
M  V30 9677 H 915.612 5.3759 -1.99173 0
M  V30 9678 H 914.009 5.31782 -2.78078 0
M  V30 9679 H 915.079 3.9072 -2.87168 0
M  V30 9680 N 916.422 0.810101 1.35185 0
M  V30 9681 C 917.332 0.224565 2.33523 0
M  V30 9682 C 918.348 -0.634287 1.62027 0
M  V30 9683 O 919.524 -0.545211 1.9388 0
M  V30 9684 C 916.589 -0.614319 3.41214 0
M  V30 9685 C 915.65 0.265435 4.28479 0
M  V30 9686 C 914.883 -0.533506 5.31027 0
M  V30 9687 O 915.106 -1.7679 5.42311 0
M  V30 9688 O 914.04 0.0774573 6.0185 0
M  V30 9689 H 917.866 1.03815 2.85405 0
M  V30 9690 H 915.451 0.571964 1.38018 0
M  V30 9691 H 917.333 -1.09201 4.07005 0
M  V30 9692 H 916.008 -1.40545 2.91597 0
M  V30 9693 H 914.915 0.790343 3.65656 0
M  V30 9694 H 916.248 1.0206 4.81503 0
M  V30 9695 N 917.9 -1.47166 0.563914 0
M  V30 9696 C 919.316 -1.58018 0.224173 0
M  V30 9697 C 919.516 -1.56163 -1.27339 0
M  V30 9698 O 918.572 -1.4686 -2.05398 0
M  V30 9699 C 919.885 -2.88236 0.856762 0
M  V30 9700 C 921.433 -3.01833 0.82861 0
M  V30 9701 C 921.908 -4.34761 1.44039 0
M  V30 9702 N 923.399 -4.41413 1.40388 0
M  V30 9703 C 924.134 -5.42845 1.84681 0
M  V30 9704 N 923.63 -6.51052 2.3686 0
M  V30 9705 N 925.423 -5.33931 1.75711 0
M  V30 9706 H 917.574 -1.46615 1.53681 0
M  V30 9707 H 919.837 -0.698195 0.64127 0
M  V30 9708 H 919.543 -2.95349 1.90949 0
M  V30 9709 H 919.417 -3.75537 0.353766 0
M  V30 9710 H 921.804 -2.94312 -0.215451 0
M  V30 9711 H 921.885 -2.16056 1.36943 0
M  V30 9712 H 921.529 -4.43037 2.48355 0
M  V30 9713 H 921.459 -5.1928 0.874953 0
M  V30 9714 H 923.95 -3.63811 1.02227 0
M  V30 9715 H 924.263 -7.24633 2.68564 0
M  V30 9716 H 922.608 -6.51924 2.40875 0
M  V30 9717 H 925.799 -4.48295 1.34718 0
M  V30 9718 H 925.972 -6.12841 2.10547 0
M  V30 9719 N 919.378 -0.300708 -1.54705 0
M  V30 9720 C 920.618 0.30953 -2.02043 0
M  V30 9721 C 920.982 1.51114 -1.18442 0
M  V30 9722 O 922.183 2.19273 -1.55477 0
M  V30 9723 C 920.454 0.657489 -3.513 0
M  V30 9724 S 922.013 1.25063 -4.206 0
M  V30 9725 H 918.831 0.0950019 -0.704624 0
M  V30 9726 H 921.433 -0.428512 -1.90746 0
M  V30 9727 H 920.137 -0.225532 -4.0978 0
M  V30 9728 H 919.668 1.42633 -3.66633 0
M  V30 9729 H 921.683 2.53844 -4.26354 0
M  V30 9730 N 920.856 1.57574 -0.0284266 0
M  V30 9731 C 921.786 2.1321 0.952039 0
M  V30 9732 C 922.767 1.04806 1.33977 0
M  V30 9733 O 923.952 1.32635 1.41851 0
M  V30 9734 C 921.082 2.65862 2.23461 0
M  V30 9735 C 920.036 3.79047 1.98765 0
M  V30 9736 C 919.362 4.18124 3.33281 0
M  V30 9737 C 920.662 5.05151 1.32739 0
M  V30 9738 H 922.356 2.95385 0.488705 0
M  V30 9739 H 919.902 1.42092 0.233628 0
M  V30 9740 H 921.855 3.03417 2.92431 0
M  V30 9741 H 920.579 1.80848 2.71959 0
M  V30 9742 H 919.238 3.41929 1.32213 0
M  V30 9743 H 918.886 3.30092 3.79537 0
M  V30 9744 H 918.586 4.94396 3.17563 0
M  V30 9745 H 920.11 4.58262 4.0352 0
M  V30 9746 H 921.524 5.40297 1.91708 0
M  V30 9747 H 919.921 5.86416 1.27421 0
M  V30 9748 H 920.991 4.83969 0.300261 0
M  V30 9749 N 922.334 -0.244713 1.55689 0
M  V30 9750 C 923.564 -0.988508 1.81417 0
M  V30 9751 C 923.972 -1.79362 0.602143 0
M  V30 9752 O 923.315 -1.78386 -0.438639 0
M  V30 9753 C 923.377 -1.97287 3.0053 0
M  V30 9754 C 923.041 -1.35448 4.36466 0
M  V30 9755 C 924.038 -0.755874 5.14376 0
M  V30 9756 C 921.723 -1.37319 4.83165 0
M  V30 9757 C 923.717 -0.184218 6.37134 0
M  V30 9758 C 921.404 -0.797681 6.05871 0
M  V30 9759 C 922.402 -0.204224 6.82695 0
M  V30 9760 O 922.09 0.362392 8.03083 0
M  V30 9761 H 921.822 -0.296412 0.607549 0
M  V30 9762 H 924.376 -0.272185 2.03589 0
M  V30 9763 H 922.606 -2.72756 2.74119 0
M  V30 9764 H 924.295 -2.58028 3.13331 0
M  V30 9765 H 925.061 -0.733912 4.79415 0
M  V30 9766 H 920.94 -1.8245 4.23359 0
M  V30 9767 H 924.484 0.279624 6.97039 0
M  V30 9768 H 920.381 -0.816978 6.40309 0
M  V30 9769 H 921.149 0.254467 8.18104 0
M  V30 9770 N 923.813 -1.49104 -0.510467 0
M  V30 9771 C 925.038 -1.62068 -1.29417 0
M  V30 9772 C 925.463 -0.288432 -1.85875 0
M  V30 9773 O 924.821 0.742667 -1.65391 0
M  V30 9774 C 924.869 -2.68506 -2.40701 0
M  V30 9775 O 923.973 -2.27021 -3.4429 0
M  V30 9776 H 923.314 -0.542778 -0.382476 0
M  V30 9777 H 925.844 -1.95228 -0.612154 0
M  V30 9778 H 925.854 -2.90383 -2.86604 0
M  V30 9779 H 924.529 -3.65216 -1.98973 0
M  V30 9780 H 923.106 -2.15436 -3.04371 0
M  V30 9781 N 925.291 0.760815 -1.38019 0
M  V30 9782 C 926.221 1.88811 -1.37377 0
M  V30 9783 C 927.202 1.68388 -0.240737 0
M  V30 9784 O 928.387 1.89086 -0.442739 0
M  V30 9785 C 925.517 3.26244 -1.1909 0
M  V30 9786 C 924.471 3.61254 -2.29521 0
M  V30 9787 C 923.797 4.97346 -1.96345 0
M  V30 9788 C 925.097 3.66874 -3.71753 0
M  V30 9789 H 926.791 1.89606 -2.31711 0
M  V30 9790 H 924.337 0.910818 -1.11535 0
M  V30 9791 H 926.29 4.04755 -1.17267 0
M  V30 9792 H 925.014 3.2591 -0.212152 0
M  V30 9793 H 923.673 2.85057 -2.30517 0
M  V30 9794 H 923.321 4.93564 -0.969728 0
M  V30 9795 H 923.021 5.21739 -2.703 0
M  V30 9796 H 924.545 5.78244 -1.96129 0
M  V30 9797 H 925.959 4.35514 -3.72828 0
M  V30 9798 H 924.356 4.02772 -4.44853 0
M  V30 9799 H 925.426 2.67273 -4.0459 0
M  V30 9800 N 926.769 1.22769 0.988202 0
M  V30 9801 C 928.018 1.0492 1.72263 0
M  V30 9802 C 928.331 -0.415282 1.91141 0
M  V30 9803 O 929.537 -0.713547 2.61956 0
M  V30 9804 C 927.993 1.82891 3.09966 0
M  V30 9805 C 927.601 3.33618 2.99003 0
M  V30 9806 C 929.345 1.73505 3.87423 0
M  V30 9807 C 927.252 4.04012 4.3189 0
M  V30 9808 H 926.182 0.38899 0.645912 0
M  V30 9809 H 928.833 1.46664 1.10281 0
M  V30 9810 H 927.215 1.33948 3.72658 0
M  V30 9811 H 928.389 3.8999 2.45448 0
M  V30 9812 H 926.704 3.43732 2.35027 0
M  V30 9813 H 929.301 2.23416 4.85787 0
M  V30 9814 H 929.644 0.696344 4.10435 0
M  V30 9815 H 930.177 2.20016 3.31418 0
M  V30 9816 H 926.916 5.08155 4.14075 0
M  V30 9817 H 926.436 3.52428 4.8534 0
M  V30 9818 H 928.115 4.0987 5.00615 0
M  V30 9819 N 928.247 -1.18576 1.03814 0
M  V30 9820 C 929.195 -2.24166 0.620678 0
M  V30 9821 C 930.189 -1.65718 -0.351282 0
M  V30 9822 O 931.395 -1.78665 -0.218848 0
M  V30 9823 H 927.77 -0.729522 0.182487 0
M  V30 9824 H 929.741 -2.56686 1.52166 0
M  V30 9825 C 928.49 -3.477 -0.00307331 0
M  V30 9826 H 927.813 -3.92969 0.735874 0
M  V30 9827 H 929.253 -4.23214 -0.257988 0
M  V30 9828 C 927.712 -3.12757 -1.2524 0
M  V30 9829 O 928.242 -3.26261 -2.34344 0
M  V30 9830 N 926.448 -2.67104 -1.14471 0
M  V30 9831 H 925.995 -2.56316 -0.256873 0
M  V30 9832 H 925.953 -2.44096 -1.98153 0
M  V30 9833 N 929.725 -0.817259 -1.34754 0
M  V30 9834 C 930.635 -0.236946 -2.334 0
M  V30 9835 C 931.651 0.625685 -1.62361 0
M  V30 9836 O 932.827 0.534921 -1.94166 0
M  V30 9837 C 929.892 0.596215 -3.41535 0
M  V30 9838 C 928.953 -0.288154 -4.28332 0
M  V30 9839 C 928.186 0.505337 -5.31302 0
M  V30 9840 O 928.409 1.73912 -5.43241 0
M  V30 9841 O 927.343 -0.109374 -6.01801 0
M  V30 9842 H 931.169 -1.05327 -2.84851 0
M  V30 9843 H 928.754 -0.579275 -1.37713 0
M  V30 9844 H 930.636 1.07041 -4.07578 0
M  V30 9845 H 929.311 1.38997 -2.92338 0
M  V30 9846 H 928.218 -0.809724 -3.65232 0
M  V30 9847 H 929.551 -1.04612 -4.80955 0
M  V30 9848 N 931.203 1.46865 -0.571711 0
M  V30 9849 C 932.166 2.28658 0.157499 0
M  V30 9850 C 933.166 1.37773 0.829172 0
M  V30 9851 O 934.356 1.6026 0.682811 0
M  V30 9852 C 931.488 3.17859 1.23202 0
M  V30 9853 H 932.681 2.94603 -0.561171 0
M  V30 9854 H 930.234 1.52793 -0.329229 0
M  V30 9855 H 930.969 2.56637 1.98262 0
M  V30 9856 H 930.754 3.84762 0.755031 0
M  V30 9857 H 932.244 3.7945 1.74378 0
M  V30 9858 N 932.681 0.308908 1.54543 0
M  V30 9859 C 933.928 -0.298036 2.00295 0
M  V30 9860 C 934.256 -1.53285 1.19724 0
M  V30 9861 O 933.511 -1.93917 0.263551 0
M  V30 9862 C 933.81 -0.691522 3.50646 0
M  V30 9863 C 933.476 0.442454 4.48724 0
M  V30 9864 C 932.138 0.753739 4.7526 0
M  V30 9865 C 934.49 1.20488 5.07082 0
M  V30 9866 C 931.818 1.83044 5.57415 0
M  V30 9867 C 934.17 2.27156 5.90409 0
M  V30 9868 C 932.834 2.58882 6.15253 0
M  V30 9869 H 932.104 -0.109059 0.73293 0
M  V30 9870 H 934.751 0.429647 1.86618 0
M  V30 9871 H 933.056 -1.49941 3.61974 0
M  V30 9872 H 934.753 -1.17244 3.83477 0
M  V30 9873 H 931.343 0.189744 4.2818 0
M  V30 9874 H 935.527 0.977653 4.86575 0
M  V30 9875 H 930.783 2.08088 5.749 0
M  V30 9876 H 934.957 2.86687 6.34652 0
M  V30 9877 H 932.584 3.42443 6.78702 0
M  V30 9878 N 934.159 -1.57557 0.0367827 0
M  V30 9879 C 935.575 -1.56366 -0.31967 0
M  V30 9880 C 935.775 -1.04313 -1.72398 0
M  V30 9881 O 934.831 -0.693278 -2.42796 0
M  V30 9882 C 936.144 -3.00267 -0.161274 0
M  V30 9883 C 937.692 -3.12128 -0.233464 0
M  V30 9884 C 938.167 -4.57882 -0.103767 0
M  V30 9885 N 939.658 -4.62922 -0.160506 0
M  V30 9886 C 940.393 -5.73338 -0.0840493 0
M  V30 9887 N 939.889 -6.92786 0.043933 0
M  V30 9888 N 941.682 -5.61929 -0.138592 0
M  V30 9889 H 933.833 -1.8972 0.954996 0
M  V30 9890 H 936.096 -0.87304 0.369467 0
M  V30 9891 H 935.802 -3.42331 0.80639 0
M  V30 9892 H 935.676 -3.65599 -0.928304 0
M  V30 9893 H 938.063 -2.69972 -1.19159 0
M  V30 9894 H 938.144 -2.49503 0.564075 0
M  V30 9895 H 937.788 -5.0072 0.850973 0
M  V30 9896 H 937.718 -5.18496 -0.920268 0
M  V30 9897 H 940.209 -3.7701 -0.259257 0
M  V30 9898 H 940.522 -7.72741 0.095372 0
M  V30 9899 H 938.867 -6.94955 0.0788211 0
M  V30 9900 H 942.058 -4.67499 -0.237031 0
M  V30 9901 H 942.231 -6.47956 -0.075546 0
M  V30 9902 N 935.637 0.236453 -1.55816 0
M  V30 9903 C 936.886 0.960981 -1.77336 0
M  V30 9904 C 937.199 1.86085 -0.602641 0
M  V30 9905 O 938.405 2.62291 -0.701106 0
M  V30 9906 C 936.861 1.75884 -3.13995 0
M  V30 9907 C 936.469 0.905849 -4.38746 0
M  V30 9908 C 938.213 2.47548 -3.44848 0
M  V30 9909 C 936.12 1.7002 -5.66434 0
M  V30 9910 H 935.05 0.362547 -0.661117 0
M  V30 9911 H 937.701 0.215303 -1.82233 0
M  V30 9912 H 936.083 2.54687 -3.03234 0
M  V30 9913 H 937.257 0.159415 -4.60524 0
M  V30 9914 H 935.572 0.30205 -4.15303 0
M  V30 9915 H 938.169 3.07452 -4.37467 0
M  V30 9916 H 938.512 3.19689 -2.66655 0
M  V30 9917 H 939.045 1.75747 -3.56872 0
M  V30 9918 H 935.784 1.02234 -6.47479 0
M  V30 9919 H 935.304 2.42164 -5.48741 0
M  V30 9920 H 936.983 2.26469 -6.0607 0
M  V30 9921 N 937.115 1.49373 0.502552 0
M  V30 9922 C 938.045 1.68839 1.61294 0
M  V30 9923 C 939.026 0.537096 1.61398 0
M  V30 9924 O 940.211 0.772764 1.78163 0
M  V30 9925 C 937.341 1.75347 2.99784 0
M  V30 9926 C 936.295 2.90251 3.14545 0
M  V30 9927 C 935.621 2.8187 4.54371 0
M  V30 9928 C 936.921 4.31207 2.94717 0
M  V30 9929 H 938.615 2.61803 1.45257 0
M  V30 9930 H 936.161 1.25987 0.697371 0
M  V30 9931 H 938.114 1.87552 3.77362 0
M  V30 9932 H 936.838 0.789814 3.16906 0
M  V30 9933 H 935.497 2.77646 2.39392 0
M  V30 9934 H 935.145 1.83416 4.68367 0
M  V30 9935 H 934.845 3.5899 4.65188 0
M  V30 9936 H 936.369 2.96081 5.34012 0
M  V30 9937 H 937.783 4.44501 3.62065 0
M  V30 9938 H 936.18 5.09536 3.17007 0
M  V30 9939 H 937.25 4.45759 1.90857 0
M  V30 9940 N 938.594 -0.753485 1.38421 0
M  V30 9941 C 939.842 -1.50962 1.34368 0
M  V30 9942 C 940.163 -1.94889 -0.0656895 0
M  V30 9943 O 939.433 -1.67652 -1.01339 0
M  V30 9944 H 938.013 -0.559967 0.494415 0
M  V30 9945 H 940.675 -0.895665 1.73101 0
M  V30 9946 H 939.771 -2.40048 1.99458 0
M  V30 9947 N 940.072 -1.23292 -0.981677 0
M  V30 9948 C 940.982 -1.02964 -2.10798 0
M  V30 9949 C 941.998 0.0254674 -1.73981 0
M  V30 9950 O 943.174 -0.169706 -2.00684 0
M  V30 9951 C 940.239 -0.621934 -3.41076 0
M  V30 9952 C 939.3 -1.75194 -3.91926 0
M  V30 9953 C 938.533 -1.36359 -5.15986 0
M  V30 9954 O 938.756 -0.247265 -5.69864 0
M  V30 9955 O 937.69 -2.18421 -5.60871 0
M  V30 9956 H 941.516 -1.97354 -2.30836 0
M  V30 9957 H 939.101 -1.01986 -1.09175 0
M  V30 9958 H 940.983 -0.405446 -4.19445 0
M  V30 9959 H 939.658 0.29299 -3.22371 0
M  V30 9960 H 938.565 -2.02305 -3.1468 0
M  V30 9961 H 939.898 -2.64513 -4.15083 0
M  V30 9962 N 941.55 1.18024 -1.04442 0
M  V30 9963 C 942.798 1.87727 -0.74854 0
M  V30 9964 C 943.119 1.80975 0.726156 0
M  V30 9965 O 942.389 1.23061 1.52423 0
M  V30 9966 H 940.969 0.694974 -0.273897 0
M  V30 9967 H 943.631 1.43213 -1.32197 0
M  V30 9968 H 942.727 2.93665 -1.05674 0
M  V30 9969 N 943.028 0.824394 1.34319 0
M  V30 9970 C 944.277 0.40956 1.97498 0
M  V30 9971 C 944.59 -1.03323 1.66083 0
M  V30 9972 O 945.796 -1.55205 2.22764 0
M  V30 9973 C 944.252 0.681384 3.53391 0
M  V30 9974 C 943.86 2.1379 3.93698 0
M  V30 9975 C 945.604 0.332788 4.23194 0
M  V30 9976 C 943.511 2.35453 5.42509 0
M  V30 9977 H 942.441 0.149409 0.739049 0
M  V30 9978 H 945.092 1.01095 1.5314 0
M  V30 9979 H 943.474 0.00980375 3.95999 0
M  V30 9980 H 944.648 2.84876 3.62191 0
M  V30 9981 H 942.963 2.44807 3.36836 0
M  V30 9982 H 945.56 0.472463 5.32609 0
M  V30 9983 H 945.903 -0.722862 4.09976 0
M  V30 9984 H 946.436 0.959005 3.86067 0
M  V30 9985 H 943.175 3.39529 5.60714 0
M  V30 9986 H 942.695 1.68912 5.75525 0
M  V30 9987 H 944.374 2.17885 6.09209 0
M  V30 9988 N 944.506 -1.46559 0.579492 0
M  V30 9989 C 945.469 -2.28739 -0.145371 0
M  V30 9990 C 946.469 -1.38211 -0.821854 0
M  V30 9991 O 947.659 -1.6062 -0.674302 0
M  V30 9992 C 944.791 -3.18507 -1.21515 0
M  V30 9993 H 945.984 -2.94301 0.576786 0
M  V30 9994 H 943.537 -1.52616 0.337327 0
M  V30 9995 H 944.272 -2.57685 -1.96899 0
M  V30 9996 H 944.057 -3.85157 -0.734616 0
M  V30 9997 H 945.547 -3.80369 -1.72363 0
M  V30 9998 N 945.984 -0.3171 -1.54377 0
M  V30 9999 C 946.947 0.53905 -2.22771 0
M  V30 10000 C 947.947 1.04865 -1.21901 0
M  V30 10001 O 949.137 0.942108 -1.46526 0
M  V30 10002 C 946.269 1.74804 -2.92671 0
M  V30 10003 H 947.462 -0.0587417 -2.99842 0
M  V30 10004 H 945.015 -0.068107 -1.56152 0
M  V30 10005 H 945.75 2.38524 -2.1972 0
M  V30 10006 H 945.535 1.39011 -3.66631 0
M  V30 10007 H 947.025 2.35592 -3.44799 0
M  V30 10008 N 947.462 1.57535 -0.0451378 0
M  V30 10009 C 948.687 1.97172 0.64326 0
M  V30 10010 C 949.112 0.922266 1.63939 0
M  V30 10011 O 948.47 -0.115155 1.80934 0
M  V30 10012 C 948.518 3.35889 1.3119 0
M  V30 10013 O 947.622 3.33387 2.42748 0
M  V30 10014 H 946.963 0.642469 0.167719 0
M  V30 10015 H 949.493 2.04295 -0.111747 0
M  V30 10016 H 949.503 3.72481 1.66499 0
M  V30 10017 H 948.178 4.1181 0.581823 0
M  V30 10018 H 946.755 3.08533 2.09432 0
M  V30 10019 N 948.94 -0.228186 1.55939 0
M  V30 10020 C 950.351 -0.795734 1.68893 0
M  V30 10021 C 950.702 -1.85261 0.645967 0
M  V30 10022 O 949.827 -2.15434 -0.2042 0
M  V30 10023 C 950.422 -1.45013 3.06197 0
M  V30 10024 C 948.981 -1.96514 3.21028 0
M  V30 10025 C 948.128 -0.822918 2.64808 0
M  V30 10026 H 951.079 -0.0036485 1.587 0
M  V30 10027 H 951.1 -2.31875 3.01685 0
M  V30 10028 H 950.612 -0.680678 3.82084 0
M  V30 10029 H 948.713 -2.76282 2.49998 0
M  V30 10030 H 948.826 -2.14967 4.28166 0
M  V30 10031 H 947.19 -1.22846 2.23116 0
M  V30 10032 H 947.973 -0.0662493 3.43236 0
M  V30 10033 N 950.418 -1.49637 -0.494624 0
M  V30 10034 C 951.328 -1.69522 -1.62172 0
M  V30 10035 C 952.344 -0.577894 -1.64123 0
M  V30 10036 O 953.52 -0.853382 -1.82426 0
M  V30 10037 C 950.585 -1.7633 -2.9851 0
M  V30 10038 C 949.646 -2.99944 -3.07135 0
M  V30 10039 C 948.879 -3.06419 -4.36971 0
M  V30 10040 O 949.102 -2.20312 -5.26136 0
M  V30 10041 O 948.036 -3.9894 -4.507 0
M  V30 10042 H 951.862 -2.65017 -1.48324 0
M  V30 10043 H 949.447 -1.33454 -0.671603 0
M  V30 10044 H 951.329 -1.83125 -3.7953 0
M  V30 10045 H 950.004 -0.840155 -3.12607 0
M  V30 10046 H 948.911 -2.98664 -2.2528 0
M  V30 10047 H 950.244 -3.9176 -2.97968 0
M  V30 10048 N 951.896 0.746133 -1.38819 0
M  V30 10049 C 952.846 1.85085 -1.33145 0
M  V30 10050 C 953.83 1.59466 -0.214339 0
M  V30 10051 O 955.022 1.71159 -0.450943 0
M  V30 10052 C 952.151 3.22884 -1.16623 0
M  V30 10053 C 951.237 3.54369 -2.32988 0
M  V30 10054 N 951.628 3.56863 -3.58445 0
M  V30 10055 C 949.926 3.84674 -2.25703 0
M  V30 10056 C 950.627 3.85827 -4.3533 0
M  V30 10057 N 949.603 4.03037 -3.64777 0
M  V30 10058 H 953.405 1.85301 -2.28124 0
M  V30 10059 H 950.919 0.943847 -1.32156 0
M  V30 10060 H 952.916 4.0195 -1.10642 0
M  V30 10061 H 951.576 3.23914 -0.225841 0
M  V30 10062 H 952.587 3.38443 -3.92017 0
M  V30 10063 H 949.264 3.93375 -1.39864 0
M  V30 10064 H 950.654 3.94317 -5.44025 0
M  V30 10065 N 953.375 1.23811 0.975125 0
M  V30 10066 C 954.624 1.06741 1.71141 0
M  V30 10067 C 954.937 -0.394986 1.9157 0
M  V30 10068 O 956.143 -0.685723 2.62698 0
M  V30 10069 C 954.599 1.86168 3.08009 0
M  V30 10070 C 954.207 3.36771 2.95448 0
M  V30 10071 C 955.951 1.77604 3.85561 0
M  V30 10072 C 953.858 4.0857 4.2758 0
M  V30 10073 H 952.788 0.395819 0.64175 0
M  V30 10074 H 955.439 1.47825 1.0872 0
M  V30 10075 H 953.821 1.37893 3.71216 0
M  V30 10076 H 954.995 3.92571 2.41298 0
M  V30 10077 H 953.31 3.46205 2.31368 0
M  V30 10078 H 955.907 2.28556 4.83391 0
M  V30 10079 H 956.25 0.739837 4.09673 0
M  V30 10080 H 956.783 2.23519 3.29065 0
M  V30 10081 H 953.522 5.12518 4.08663 0
M  V30 10082 H 953.042 3.57556 4.81574 0
M  V30 10083 H 954.721 4.15157 4.9624 0
M  V30 10084 N 954.853 -1.17469 1.05066 0
M  V30 10085 C 956.13 -1.83625 0.673872 0
M  V30 10086 C 956.51 -1.93412 -0.845871 0
M  V30 10087 O 955.858 -1.4677 -1.75131 0
M  V30 10088 C 956.068 -3.21352 1.36139 0
M  V30 10089 C 957.416 -3.97274 1.49863 0
M  V30 10090 O 958.44 -3.30827 1.3203 0
M  V30 10091 O 957.299 -5.16349 1.79013 0
M  V30 10092 H 954.393 -0.792297 0.237055 0
M  V30 10093 H 956.939 -1.24776 1.15017 0
M  V30 10094 H 955.711 -3.0919 2.39827 0
M  V30 10095 H 955.334 -3.87867 0.874364 0
M  V30 10096 N 956.331 -0.831506 -1.3388 0
M  V30 10097 C 957.577 -0.424302 -1.98312 0
M  V30 10098 C 957.91 1.01211 -1.65741 0
M  V30 10099 O 957.185 1.70636 -0.933464 0
M  V30 10100 C 957.468 -0.636815 -3.54424 0
M  V30 10101 C 957.321 -2.11997 -3.96708 0
M  V30 10102 C 958.64 -0.0782411 -4.4003 0
M  V30 10103 H 955.759 -0.155637 -0.720379 0
M  V30 10104 H 958.401 -1.04566 -1.58638 0
M  V30 10105 H 956.551 -0.107907 -3.8835 0
M  V30 10106 H 958.223 -2.71317 -3.73075 0
M  V30 10107 H 956.466 -2.60723 -3.46707 0
M  V30 10108 H 957.137 -2.21944 -5.05416 0
M  V30 10109 H 959.613 -0.530243 -4.12708 0
M  V30 10110 H 958.489 -0.256676 -5.483 0
M  V30 10111 H 958.75 1.01745 -4.30233 0
M  V30 10112 N 957.809 1.4625 -0.587256 0
M  V30 10113 C 959.055 2.02662 -0.0746851 0
M  V30 10114 C 959.388 1.45723 1.28368 0
M  V30 10115 O 958.663 0.624062 1.84216 0
M  V30 10116 C 958.946 3.60097 -0.0138109 0
M  V30 10117 C 958.799 4.27412 -1.4014 0
M  V30 10118 C 960.118 4.34744 0.684491 0
M  V30 10119 H 957.237 0.736444 -0.0286144 0
M  V30 10120 H 959.879 1.74341 -0.755328 0
M  V30 10121 H 958.029 3.84357 0.56583 0
M  V30 10122 H 959.701 4.14401 -2.02656 0
M  V30 10123 H 957.944 3.86598 -1.96785 0
M  V30 10124 H 958.615 5.362 -1.31124 0
M  V30 10125 H 961.091 4.15657 0.192023 0
M  V30 10126 H 959.967 5.44468 0.696127 0
M  V30 10127 H 960.228 4.06132 1.74669 0
M  V30 10128 N 959.287 0.325282 1.54207 0
M  V30 10129 C 960.517 -0.278285 2.04717 0
M  V30 10130 C 960.925 -1.46198 1.20095 0
M  V30 10131 O 960.268 -1.82319 0.224813 0
M  V30 10132 C 960.33 -0.774387 3.51061 0
M  V30 10133 C 959.994 0.287225 4.56096 0
M  V30 10134 C 960.991 1.12388 5.07607 0
M  V30 10135 C 958.676 0.435908 5.00405 0
M  V30 10136 C 960.67 2.09492 6.0199 0
M  V30 10137 C 958.357 1.41037 5.94602 0
M  V30 10138 C 959.355 2.23834 6.45281 0
M  V30 10139 O 959.043 3.19625 7.37628 0
M  V30 10140 H 958.775 -0.0608309 0.673257 0
M  V30 10141 H 961.329 0.470049 1.99949 0
M  V30 10142 H 959.559 -1.57366 3.53232 0
M  V30 10143 H 961.248 -1.29649 3.84637 0
M  V30 10144 H 962.014 1.02 4.74153 0
M  V30 10145 H 957.893 -0.198668 4.60572 0
M  V30 10146 H 961.437 2.74157 6.4147 0
M  V30 10147 H 957.334 1.51487 6.27473 0
M  V30 10148 H 958.102 3.14884 7.55507 0
M  V30 10149 N 960.765 -1.57509 0.0534917 0
M  V30 10150 C 961.695 -2.14698 -0.917999 0
M  V30 10151 C 962.676 -1.06924 -1.32292 0
M  V30 10152 O 963.861 -1.34875 -1.39723 0
M  V30 10153 C 960.991 -2.69383 -2.19203 0
M  V30 10154 C 959.945 -3.82161 -1.9271 0
M  V30 10155 C 959.271 -4.23373 -3.26587 0
M  V30 10156 C 960.571 -5.07199 -1.24686 0
M  V30 10157 H 962.265 -2.96125 -0.44165 0
M  V30 10158 H 959.811 -1.42446 -0.210993 0
M  V30 10159 H 961.764 -3.08031 -2.87567 0
M  V30 10160 H 960.488 -1.85151 -2.69048 0
M  V30 10161 H 959.147 -3.43989 -1.26757 0
M  V30 10162 H 958.795 -3.36089 -3.74237 0
M  V30 10163 H 958.495 -4.99385 -3.09658 0
M  V30 10164 H 960.019 -4.64623 -3.96178 0
M  V30 10165 H 961.433 -5.43279 -1.83088 0
M  V30 10166 H 959.83 -5.88369 -1.18076 0
M  V30 10167 H 960.9 -4.84386 -0.223227 0
M  V30 10168 N 962.243 0.219913 -1.56058 0
M  V30 10169 C 963.193 1.27606 -1.88946 0
M  V30 10170 C 964.177 1.42209 -0.752691 0
M  V30 10171 O 965.369 1.44996 -1.01514 0
M  V30 10172 C 962.498 2.62614 -2.21108 0
M  V30 10173 C 961.584 2.51906 -3.4118 0
M  V30 10174 N 961.975 2.10851 -4.59756 0
M  V30 10175 C 960.273 2.82861 -3.44827 0
M  V30 10176 C 960.974 2.11434 -5.41914 0
M  V30 10177 N 959.95 2.51985 -4.81669 0
M  V30 10178 H 963.752 0.94957 -2.78137 0
M  V30 10179 H 961.266 0.428468 -1.56646 0
M  V30 10180 H 963.263 3.38869 -2.42844 0
M  V30 10181 H 961.923 2.96108 -1.3323 0
M  V30 10182 H 962.934 1.81956 -4.84884 0
M  V30 10183 H 959.611 3.20716 -2.67297 0
M  V30 10184 H 961.001 1.81803 -6.46836 0
M  V30 10185 N 963.721 1.49897 0.486681 0
M  V30 10186 C 964.969 1.59789 1.23742 0
M  V30 10187 C 965.29 0.293056 1.92785 0
M  V30 10188 O 964.56 -0.688534 1.83401 0
M  V30 10189 H 963.14 0.588775 0.459731 0
M  V30 10190 H 965.802 1.86597 0.562808 0
M  V30 10191 H 964.898 2.40121 1.9937 0
M  V30 10192 N 965.199 -0.738761 1.39212 0
M  V30 10193 C 966.429 -1.5258 1.39295 0
M  V30 10194 C 966.837 -1.89194 -0.0153 0
M  V30 10195 O 966.18 -1.5435 -0.996073 0
M  V30 10196 C 966.242 -2.84462 2.19822 0
M  V30 10197 C 965.906 -2.70303 3.68491 0
M  V30 10198 C 966.903 -2.39102 4.61656 0
M  V30 10199 C 964.588 -2.87291 4.1203 0
M  V30 10200 C 966.582 -2.25066 5.96342 0
M  V30 10201 C 964.269 -2.72874 5.46793 0
M  V30 10202 C 965.267 -2.41807 6.38763 0
M  V30 10203 O 964.955 -2.27475 7.71045 0
M  V30 10204 H 964.687 -0.478236 0.477772 0
M  V30 10205 H 967.241 -0.920846 1.83602 0
M  V30 10206 H 965.471 -3.47202 1.70257 0
M  V30 10207 H 967.16 -3.46058 2.12129 0
M  V30 10208 H 967.926 -2.25632 4.2932 0
M  V30 10209 H 963.805 -3.10466 3.40781 0
M  V30 10210 H 967.349 -2.00739 6.68094 0
M  V30 10211 H 963.246 -2.85922 5.78722 0
M  V30 10212 H 964.014 -2.42574 7.81729 0
M  V30 10213 N 966.677 -1.24326 -0.968545 0
M  V30 10214 C 967.925 -1.08032 -1.70803 0
M  V30 10215 C 968.246 0.381728 -1.91227 0
M  V30 10216 O 967.516 1.27253 -1.48942 0
M  V30 10217 H 966.096 -0.396777 -0.632912 0
M  V30 10218 H 968.758 -1.56232 -1.16523 0
M  V30 10219 H 967.854 -1.57769 -2.69287 0
M  V30 10220 N 968.156 1.1691 -1.05688 0
M  V30 10221 C 969.402 1.87814 -0.780871 0
M  V30 10222 C 969.757 1.79796 0.684926 0
M  V30 10223 O 969.05 1.19853 1.49485 0
M  V30 10224 C 969.244 3.36578 -1.20207 0
M  V30 10225 C 969.073 3.59078 -2.70727 0
M  V30 10226 C 967.843 3.75515 -3.38107 0
M  V30 10227 C 970.041 3.58307 -3.68946 0
M  V30 10228 N 968.023 3.85906 -4.77441 0
M  V30 10229 C 969.394 3.74608 -4.94033 0
M  V30 10230 C 971.449 3.41484 -3.62343 0
M  V30 10231 C 970.152 3.75828 -6.13307 0
M  V30 10232 C 972.178 3.43995 -4.81063 0
M  V30 10233 C 971.54 3.60809 -6.04976 0
M  V30 10234 H 967.639 0.705158 -0.338047 0
M  V30 10235 H 970.223 1.40315 -1.34981 0
M  V30 10236 H 968.394 3.82734 -0.661031 0
M  V30 10237 H 970.126 3.95119 -0.875377 0
M  V30 10238 H 966.881 3.7558 -2.88508 0
M  V30 10239 H 967.305 3.94886 -5.49904 0
M  V30 10240 H 971.947 3.27417 -2.67503 0
M  V30 10241 H 969.665 3.88679 -7.08487 0
M  V30 10242 H 973.251 3.3223 -4.77613 0
M  V30 10243 H 972.131 3.62663 -6.95302 0
M  V30 10244 N 969.634 0.838594 1.33437 0
M  V30 10245 C 971.045 0.490934 1.8013 0
M  V30 10246 C 971.396 -0.990024 1.6939 0
M  V30 10247 O 970.521 -1.77139 1.24302 0
M  V30 10248 C 971.116 0.884347 3.27055 0
M  V30 10249 C 969.675 0.588829 3.71766 0
M  V30 10250 C 968.822 1.09282 2.54858 0
M  V30 10251 H 971.773 1.02732 1.20962 0
M  V30 10252 H 971.794 0.194283 3.80004 0
M  V30 10253 H 971.306 1.96225 3.34839 0
M  V30 10254 H 969.407 -0.479018 3.69508 0
M  V30 10255 H 969.52 1.14387 4.65245 0
M  V30 10256 H 967.884 0.513702 2.49466 0
M  V30 10257 H 968.667 2.1775 2.65405 0
M  V30 10258 N 971.112 -1.45937 0.595003 0
M  V30 10259 C 972.528 -1.57507 0.257641 0
M  V30 10260 C 972.728 -1.58829 -1.23998 0
M  V30 10261 O 971.784 -1.51183 -2.02237 0
M  V30 10262 C 973.097 -2.86354 0.917708 0
M  V30 10263 C 974.645 -3.00007 0.892446 0
M  V30 10264 C 975.12 -4.31607 1.53229 0
M  V30 10265 N 976.611 -4.38336 1.49719 0
M  V30 10266 C 977.346 -5.38805 1.96154 0
M  V30 10267 N 976.842 -6.45882 2.50617 0
M  V30 10268 N 978.635 -5.30084 1.86997 0
M  V30 10269 H 970.786 -1.43322 1.56756 0
M  V30 10270 H 973.049 -0.684436 0.655936 0
M  V30 10271 H 972.755 -2.91233 1.97171 0
M  V30 10272 H 972.629 -3.74703 0.433344 0
M  V30 10273 H 975.016 -2.94703 -0.152975 0
M  V30 10274 H 975.097 -2.13103 1.41495 0
M  V30 10275 H 974.741 -4.3767 2.57697 0
M  V30 10276 H 974.671 -5.17308 0.984903 0
M  V30 10277 H 977.162 -3.6156 1.09921 0
M  V30 10278 H 977.475 -7.18774 2.83874 0
M  V30 10279 H 975.82 -6.46668 2.54649 0
M  V30 10280 H 979.011 -4.45337 1.44196 0
M  V30 10281 H 979.184 -6.08237 2.23499 0
M  V30 10282 N 972.59 -0.333456 -1.54032 0
M  V30 10283 C 973.54 0.543745 -2.21421 0
M  V30 10284 C 974.524 1.07396 -1.19812 0
M  V30 10285 O 975.716 1.00934 -1.45401 0
M  V30 10286 C 972.845 1.69925 -2.98296 0
M  V30 10287 C 971.931 1.18345 -4.07253 0
M  V30 10288 N 972.322 0.388098 -5.04309 0
M  V30 10289 C 970.62 1.46128 -4.21382 0
M  V30 10290 C 971.321 0.109383 -5.81597 0
M  V30 10291 N 970.297 0.69825 -5.39097 0
M  V30 10292 H 974.099 -0.0711018 -2.93814 0
M  V30 10293 H 971.613 -0.139807 -1.61797 0
M  V30 10294 H 973.61 2.33954 -3.45067 0
M  V30 10295 H 972.27 2.31747 -2.27428 0
M  V30 10296 H 973.281 0.0300645 -5.17891 0
M  V30 10297 H 969.958 2.08463 -3.61731 0
M  V30 10298 H 971.348 -0.531554 -6.69794 0
M  V30 10299 N 974.068 1.57479 -0.061844 0
M  V30 10300 C 975.015 2.12152 0.908862 0
M  V30 10301 C 975.985 1.03152 1.30188 0
M  V30 10302 O 977.17 1.3076 1.38948 0
M  V30 10303 C 974.31 2.6796 2.17465 0
M  V30 10304 C 973.423 3.91083 1.83517 0
M  V30 10305 C 972.558 4.35169 3.04633 0
M  V30 10306 C 971.597 5.50964 2.66655 0
M  V30 10307 N 970.734 5.90055 3.80499 0
M  V30 10308 H 975.574 2.94797 0.435743 0
M  V30 10309 H 973.111 1.45686 0.203445 0
M  V30 10310 H 975.069 2.98421 2.91548 0
M  V30 10311 H 973.699 1.88096 2.62335 0
M  V30 10312 H 972.751 3.67146 0.995381 0
M  V30 10313 H 974.063 4.75214 1.51569 0
M  V30 10314 H 973.217 4.67239 3.87005 0
M  V30 10315 H 971.956 3.49871 3.39767 0
M  V30 10316 H 970.961 5.18556 1.82703 0
M  V30 10317 H 972.186 6.37986 2.32702 0
M  V30 10318 H 970.132 5.07708 4.15414 0
M  V30 10319 H 970.049 6.68903 3.52285 0
M  V30 10320 H 971.317 6.26744 4.63479 0
M  V30 10321 N 975.546 -0.211634 1.56173 0
M  V30 10322 C 976.794 -0.932704 1.7929 0
M  V30 10323 C 977.115 -1.84472 0.632076 0
M  V30 10324 O 976.385 -1.92739 -0.350519 0
M  V30 10325 H 974.965 -0.347393 0.661307 0
M  V30 10326 H 977.627 -0.22111 1.93642 0
M  V30 10327 H 976.723 -1.53365 2.71819 0
M  V30 10328 N 977.024 -1.50153 -0.478725 0
M  V30 10329 C 978.272 -1.60443 -1.22892 0
M  V30 10330 C 978.593 -0.303276 -1.92627 0
M  V30 10331 O 977.863 0.678798 -1.83764 0
M  V30 10332 H 976.443 -0.591205 -0.456602 0
M  V30 10333 H 979.105 -1.86893 -0.552905 0
M  V30 10334 H 978.201 -2.41175 -1.98094 0
M  V30 10335 N 978.502 0.731368 -1.39602 0
M  V30 10336 C 979.913 1.30981 -1.33045 0
M  V30 10337 C 980.264 1.962 0.00349918 0
M  V30 10338 O 979.389 1.96539 0.905615 0
M  V30 10339 C 979.984 2.3817 -2.40958 0
M  V30 10340 C 978.543 2.91678 -2.3791 0
M  V30 10341 C 977.69 1.65286 -2.22656 0
M  V30 10342 H 980.641 0.528615 -1.49637 0
M  V30 10343 H 980.662 3.18645 -2.07955 0
M  V30 10344 H 980.174 1.90673 -3.38032 0
M  V30 10345 H 978.275 3.43446 -1.44485 0
M  V30 10346 H 978.388 3.44545 -3.32904 0
M  V30 10347 H 976.752 1.89759 -1.69893 0
M  V30 10348 H 977.535 1.19836 -3.21705 0
M  V30 10349 N 979.98 1.24838 0.961938 0
M  V30 10350 C 980.913 0.989041 2.05653 0
M  V30 10351 C 981.891 -0.079199 1.62407 0
M  V30 10352 O 983.075 0.0589397 1.88408 0
M  V30 10353 C 980.202 0.493661 3.35083 0
M  V30 10354 C 979.248 1.55132 3.97286 0
M  V30 10355 S 980.081 3.13438 4.34185 0
M  V30 10356 C 981.237 2.65617 5.66744 0
M  V30 10357 H 981.47 1.91588 2.27335 0
M  V30 10358 H 979.003 1.08287 1.10061 0
M  V30 10359 H 980.961 0.214482 4.09939 0
M  V30 10360 H 979.622 -0.412559 3.11379 0
M  V30 10361 H 978.815 1.15525 4.90581 0
M  V30 10362 H 978.417 1.78081 3.28882 0
M  V30 10363 H 980.709 2.08788 6.44526 0
M  V30 10364 H 981.652 3.57524 6.11214 0
M  V30 10365 H 982.06 2.05853 5.25628 0
M  V30 10366 N 981.458 -1.16348 1.06306 0
M  V30 10367 C 982.705 -1.86881 0.779852 0
M  V30 10368 C 983.033 -1.8171 -0.693668 0
M  V30 10369 O 982.288 -1.22769 -1.52401 0
M  V30 10370 C 982.587 -3.35936 1.21991 0
M  V30 10371 C 982.253 -3.61307 2.69756 0
M  V30 10372 C 980.915 -3.6794 3.10119 0
M  V30 10373 C 983.267 -3.71871 3.65187 0
M  V30 10374 C 980.595 -3.82639 4.44752 0
M  V30 10375 C 982.947 -3.88091 4.99568 0
M  V30 10376 C 981.611 -3.92967 5.39568 0
M  V30 10377 H 980.881 -0.683847 0.285368 0
M  V30 10378 H 983.528 -1.37569 1.33218 0
M  V30 10379 H 981.833 -3.87381 0.586774 0
M  V30 10380 H 983.53 -3.88895 0.977821 0
M  V30 10381 H 980.12 -3.56777 2.37504 0
M  V30 10382 H 984.304 -3.66057 3.35136 0
M  V30 10383 H 979.56 -3.84666 4.75228 0
M  V30 10384 H 983.734 -3.95207 5.73397 0
M  V30 10385 H 981.361 -4.04109 6.43895 0
M  V30 10386 N 982.937 -0.845659 -1.3299 0
M  V30 10387 C 984.167 -0.457686 -2.01467 0
M  V30 10388 C 984.575 0.947664 -1.63756 0
M  V30 10389 O 983.918 1.62841 -0.850213 0
M  V30 10390 C 983.98 -0.506589 -3.55913 0
M  V30 10391 C 983.644 -1.86924 -4.17023 0
M  V30 10392 C 984.641 -2.83344 -4.35904 0
M  V30 10393 C 982.326 -2.16394 -4.53298 0
M  V30 10394 C 984.32 -4.07391 -4.90216 0
M  V30 10395 C 982.007 -3.40695 -5.07316 0
M  V30 10396 C 983.005 -4.3601 -5.25722 0
M  V30 10397 O 982.693 -5.58112 -5.7859 0
M  V30 10398 H 982.425 -0.179258 -0.651799 0
M  V30 10399 H 984.979 -1.14172 -1.70745 0
M  V30 10400 H 983.209 0.234253 -3.8599 0
M  V30 10401 H 984.898 -0.135487 -4.05674 0
M  V30 10402 H 985.664 -2.61879 -4.08221 0
M  V30 10403 H 981.543 -1.42994 -4.38262 0
M  V30 10404 H 985.087 -4.81796 -5.04498 0
M  V30 10405 H 980.984 -3.62014 -5.3443 0
M  V30 10406 H 981.752 -5.59946 -5.96995 0
M  V30 10407 N 984.415 1.45619 -0.602734 0
M  V30 10408 C 985.378 2.28941 0.108962 0
M  V30 10409 C 986.378 1.39501 0.799762 0
M  V30 10410 O 987.568 1.61673 0.648663 0
M  V30 10411 C 984.7 3.204 1.16432 0
M  V30 10412 H 985.893 2.93346 -0.623534 0
M  V30 10413 H 983.446 1.52061 -0.361565 0
M  V30 10414 H 984.181 2.60785 1.92774 0
M  V30 10415 H 983.966 3.86277 0.673248 0
M  V30 10416 H 985.456 3.83063 1.6629 0
M  V30 10417 N 985.893 0.34162 1.53853 0
M  V30 10418 C 987.118 -0.259608 2.05769 0
M  V30 10419 C 987.543 -1.43588 1.21507 0
M  V30 10420 O 986.901 -1.79856 0.228364 0
M  V30 10421 C 986.949 -0.654455 3.54611 0
M  V30 10422 O 986.053 -1.75472 3.73207 0
M  V30 10423 H 985.394 -0.0434621 0.662576 0
M  V30 10424 H 987.924 0.495274 1.98515 0
M  V30 10425 H 987.934 -0.932142 3.97209 0
M  V30 10426 H 986.609 0.205779 4.15391 0
M  V30 10427 H 985.186 -1.47444 3.42512 0
M  V30 10428 N 987.371 -1.57444 0.0701946 0
M  V30 10429 C 988.599 -1.97754 -0.608358 0
M  V30 10430 C 989.014 -0.948496 -1.63245 0
M  V30 10431 O 988.371 0.065046 -1.82384 0
M  V30 10432 C 988.422 -3.38142 -1.27836 0
M  V30 10433 O 988.143 -4.37104 -0.295255 0
M  V30 10434 C 989.644 -3.93318 -2.04489 0
M  V30 10435 H 986.864 -0.650398 -0.164997 0
M  V30 10436 H 989.408 -2.04006 0.142124 0
M  V30 10437 H 987.563 -3.32982 -1.97994 0
M  V30 10438 H 987.977 -5.18732 -0.77574 0
M  V30 10439 H 989.451 -4.93774 -2.46762 0
M  V30 10440 H 989.928 -3.29774 -2.90079 0
M  V30 10441 H 990.534 -4.01875 -1.39201 0
M  V30 10442 N 988.849 0.203349 -1.56283 0
M  V30 10443 C 990.095 0.926381 -1.80405 0
M  V30 10444 C 990.428 1.8325 -0.642883 0
M  V30 10445 O 989.703 1.91196 0.356998 0
M  V30 10446 C 989.986 1.74972 -3.14733 0
M  V30 10447 C 989.839 0.868866 -4.41328 0
M  V30 10448 C 991.158 2.72394 -3.45672 0
M  V30 10449 H 988.277 0.335346 -0.656286 0
M  V30 10450 H 990.919 0.1942 -1.89005 0
M  V30 10451 H 989.069 2.37394 -3.07533 0
M  V30 10452 H 990.741 0.259986 -4.60567 0
M  V30 10453 H 988.984 0.175161 -4.33446 0
M  V30 10454 H 989.655 1.47975 -5.31796 0
M  V30 10455 H 992.131 2.20105 -3.53119 0
M  V30 10456 H 991.007 3.27091 -4.40798 0
M  V30 10457 H 991.268 3.51035 -2.6875 0
M  V30 10458 N 990.327 1.50405 0.470755 0
M  V30 10459 C 991.575 1.61092 1.2204 0
M  V30 10460 C 991.896 0.313487 1.92464 0
M  V30 10461 O 991.166 -0.669043 1.84121 0
M  V30 10462 H 989.746 0.593618 0.45346 0
M  V30 10463 H 992.408 1.87184 0.542985 0
M  V30 10464 H 991.504 2.42222 1.96812 0
M  V30 10465 N 991.805 -0.723954 1.39988 0
M  V30 10466 C 992.735 -1.85103 1.42335 0
M  V30 10467 C 993.716 -1.6769 0.285297 0
M  V30 10468 O 994.901 -1.87846 0.492716 0
M  V30 10469 C 992.031 -3.22972 1.27697 0
M  V30 10470 C 990.985 -3.55041 2.39018 0
M  V30 10471 C 990.311 -4.91965 2.09462 0
M  V30 10472 C 991.611 -3.56889 3.8135 0
M  V30 10473 H 993.305 -1.83396 2.36656 0
M  V30 10474 H 990.851 -0.880926 1.13911 0
M  V30 10475 H 992.804 -4.01503 1.27958 0
M  V30 10476 H 991.528 -3.25233 0.298487 0
M  V30 10477 H 990.187 -2.78845 2.37993 0
M  V30 10478 H 989.835 -4.90819 1.10025 0
M  V30 10479 H 989.535 -5.14389 2.84038 0
M  V30 10480 H 991.059 -5.7284 2.11391 0
M  V30 10481 H 992.473 -4.25476 3.84243 0
M  V30 10482 H 990.87 -3.90836 4.55376 0
M  V30 10483 H 991.94 -2.56452 4.11534 0
M  V30 10484 N 993.283 -1.25346 -0.955304 0
M  V30 10485 C 994.694 -1.09173 -1.51453 0
M  V30 10486 C 995.045 0.332755 -1.93358 0
M  V30 10487 O 994.17 1.22264 -1.78551 0
M  V30 10488 C 994.765 -1.97564 -2.75234 0
M  V30 10489 C 993.324 -1.85579 -3.27471 0
M  V30 10490 C 992.471 -1.91755 -2.00313 0
M  V30 10491 H 995.422 -1.38642 -0.772271 0
M  V30 10492 H 995.443 -1.51523 -3.49029 0
M  V30 10493 H 994.955 -3.01233 -2.44704 0
M  V30 10494 H 993.056 -0.847906 -3.62824 0
M  V30 10495 H 993.169 -2.70353 -3.95533 0
M  V30 10496 H 991.533 -1.35633 -2.15582 0
M  V30 10497 H 992.316 -2.97028 -1.72132 0
M  V30 10498 N 994.761 1.15782 -1.06922 0
M  V30 10499 C 995.989 1.90355 -0.81072 0
M  V30 10500 C 996.404 1.77779 0.635614 0
M  V30 10501 O 995.761 1.12675 1.43564 0
M  V30 10502 C 995.812 3.4085 -1.2043 0
M  V30 10503 O 995.533 3.53057 -2.59388 0
M  V30 10504 C 997.034 4.32457 -0.974473 0
M  V30 10505 H 994.254 0.60343 -0.293451 0
M  V30 10506 H 996.798 1.46723 -1.42452 0
M  V30 10507 H 994.953 3.82162 -0.634909 0
M  V30 10508 H 995.367 4.46426 -2.75326 0
M  V30 10509 H 996.841 5.36488 -1.29942 0
M  V30 10510 H 997.318 4.39109 0.0894481 0
M  V30 10511 H 997.924 3.96882 -1.52856 0
M  V30 10512 N 996.239 0.8527 1.3254 0
M  V30 10513 C 997.485 0.455798 1.97612 0
M  V30 10514 C 997.818 -0.985616 1.6733 0
M  V30 10515 O 997.093 -1.69129 0.960493 0
M  V30 10516 C 997.376 0.69312 3.53366 0
M  V30 10517 C 997.229 2.18281 3.93285 0
M  V30 10518 C 998.548 0.148236 4.3985 0
M  V30 10519 H 995.667 0.167078 0.717812 0
M  V30 10520 H 998.309 1.07076 1.56954 0
M  V30 10521 H 996.459 0.169677 3.88129 0
M  V30 10522 H 998.131 2.77218 3.68711 0
M  V30 10523 H 996.374 2.66206 3.42515 0
M  V30 10524 H 997.045 2.29957 5.01821 0
M  V30 10525 H 999.521 0.595834 4.11812 0
M  V30 10526 H 998.397 0.343873 5.47822 0
M  V30 10527 H 998.658 -0.948872 4.31797 0
M  V30 10528 N 997.718 -1.45297 0.610449 0
M  V30 10529 C 998.648 -2.33311 -0.0939698 0
M  V30 10530 C 999.629 -1.46999 -0.85588 0
M  V30 10531 O 1000.81 -1.75764 -0.825865 0
M  V30 10532 C 997.944 -3.29751 -1.09003 0
M  V30 10533 C 996.898 -4.2572 -0.441146 0
M  V30 10534 C 996.224 -5.11873 -1.54566 0
M  V30 10535 C 997.524 -5.1837 0.639489 0
M  V30 10536 H 999.218 -2.92459 0.640941 0
M  V30 10537 H 996.764 -1.40631 0.309675 0
M  V30 10538 H 998.717 -3.90195 -1.59141 0
M  V30 10539 H 997.441 -2.68768 -1.85557 0
M  V30 10540 H 996.1 -3.66579 0.0393908 0
M  V30 10541 H 995.748 -4.47256 -2.30155 0
M  V30 10542 H 995.448 -5.76886 -1.11698 0
M  V30 10543 H 996.972 -5.75185 -2.04925 0
M  V30 10544 H 998.386 -5.7287 0.22207 0
M  V30 10545 H 996.783 -5.91876 0.990089 0
M  V30 10546 H 997.853 -4.60627 1.51495 0
M  V30 10547 N 999.196 -0.349774 -1.5367 0
M  V30 10548 C 1000.11 0.512421 -2.28935 0
M  V30 10549 C 1001.12 1.1065 -1.34286 0
M  V30 10550 O 1002.3 1.12084 -1.67329 0
M  V30 10551 C 999.363 1.64449 -3.05217 0
M  V30 10552 C 998.424 1.07956 -4.15505 0
M  V30 10553 C 997.657 2.15768 -4.88139 0
M  V30 10554 O 997.88 3.366 -4.60496 0
M  V30 10555 O 996.814 1.79712 -5.74445 0
M  V30 10556 H 1000.64 -0.0996001 -3.03537 0
M  V30 10557 H 998.225 -0.114629 -1.4896 0
M  V30 10558 H 1000.11 2.30302 -3.52901 0
M  V30 10559 H 998.782 2.24221 -2.33467 0
M  V30 10560 H 997.689 0.385381 -3.7211 0
M  V30 10561 H 999.022 0.526621 -4.89375 0
M  V30 10562 N 1000.67 1.57404 -0.0785433 0
M  V30 10563 C 1001.62 2.13104 0.88631 0
M  V30 10564 C 1002.59 1.04527 1.29086 0
M  V30 10565 O 1003.78 1.32226 1.37553 0
M  V30 10566 C 1000.92 2.70252 2.14611 0
M  V30 10567 C 1000.03 3.93007 1.79358 0
M  V30 10568 C 999.164 4.38376 3 0
M  V30 10569 C 998.203 5.53761 2.60796 0
M  V30 10570 N 997.34 5.94058 3.74219 0
M  V30 10571 H 1002.18 2.95243 0.404452 0
M  V30 10572 H 999.717 1.45894 0.187982 0
M  V30 10573 H 1001.67 3.01497 2.88367 0
M  V30 10574 H 1000.3 1.90868 2.60326 0
M  V30 10575 H 999.357 3.68181 0.956384 0
M  V30 10576 H 1000.67 4.76795 1.4652 0
M  V30 10577 H 999.823 4.71317 3.82027 0
M  V30 10578 H 998.562 3.53455 3.36037 0
M  V30 10579 H 997.567 5.20464 1.77192 0
M  V30 10580 H 998.792 6.40419 2.25922 0
M  V30 10581 H 996.738 5.12085 4.10005 0
M  V30 10582 H 996.655 6.72602 3.45171 0
M  V30 10583 H 997.923 6.31624 4.56805 0
M  V30 10584 N 1002.15 -0.195058 1.56388 0
M  V30 10585 C 1003.08 -1.24444 1.97575 0
M  V30 10586 C 1004.06 -1.47471 0.847717 0
M  V30 10587 O 1005.25 -1.59208 1.11205 0
M  V30 10588 C 1002.38 -2.58866 2.31529 0
M  V30 10589 C 1001.33 -2.50451 3.47071 0
M  V30 10590 C 1000.66 -3.89146 3.667 0
M  V30 10591 C 1001.96 -2.02953 4.81256 0
M  V30 10592 H 1003.65 -0.902178 2.85484 0
M  V30 10593 H 1001.2 -0.43254 1.3735 0
M  V30 10594 H 1003.15 -3.3246 2.58936 0
M  V30 10595 H 1001.87 -2.94833 1.40502 0
M  V30 10596 H 1000.53 -1.79313 3.19754 0
M  V30 10597 H 1000.18 -4.22466 2.73004 0
M  V30 10598 H 999.882 -3.84391 4.44429 0
M  V30 10599 H 1001.41 -4.64363 3.96484 0
M  V30 10600 H 1002.82 -2.66306 5.07695 0
M  V30 10601 H 1001.22 -2.092 5.62455 0
M  V30 10602 H 1002.29 -0.982757 4.74837 0
M  V30 10603 N 1003.63 -1.50653 -0.462772 0
M  V30 10604 C 1004.56 -1.66286 -1.5774 0
M  V30 10605 C 1005.57 -0.544094 -1.53439 0
M  V30 10606 O 1006.76 -0.817566 -1.58676 0
M  V30 10607 C 1003.86 -1.63893 -2.96635 0
M  V30 10608 C 1003.04 -2.91939 -3.25716 0
M  V30 10609 C 1002.1 -2.82076 -4.44206 0
M  V30 10610 O 1001.12 -3.56032 -4.44106 0
M  V30 10611 N 1002.32 -1.96196 -5.4634 0
M  V30 10612 H 1005.09 -2.6243 -1.44742 0
M  V30 10613 H 1002.65 -1.48221 -0.651326 0
M  V30 10614 H 1004.64 -1.54897 -3.73884 0
M  V30 10615 H 1003.21 -0.75449 -3.03358 0
M  V30 10616 H 1002.43 -3.14998 -2.37002 0
M  V30 10617 H 1003.72 -3.7675 -3.4196 0
M  V30 10618 H 1003.12 -1.35439 -5.49247 0
M  V30 10619 H 1001.67 -1.93097 -6.2254 0
M  V30 10620 N 1005.11 0.71652 -1.4037 0
M  V30 10621 C 1006.06 1.8306 -1.40562 0
M  V30 10622 C 1007.03 1.64009 -0.262697 0
M  V30 10623 O 1008.21 1.85157 -0.460619 0
M  V30 10624 C 1005.35 3.2076 -1.27307 0
M  V30 10625 C 1004.46 3.51389 -2.51296 0
M  V30 10626 C 1003.6 4.78589 -2.30491 0
M  V30 10627 C 1002.64 5.02119 -3.50061 0
M  V30 10628 N 1001.77 6.20533 -3.28457 0
M  V30 10629 H 1006.61 1.82231 -2.35788 0
M  V30 10630 H 1004.15 0.890198 -1.17106 0
M  V30 10631 H 1006.11 4.00274 -1.17628 0
M  V30 10632 H 1004.74 3.2082 -0.357005 0
M  V30 10633 H 1003.79 2.66436 -2.71507 0
M  V30 10634 H 1005.1 3.64686 -3.40302 0
M  V30 10635 H 1004.26 5.66119 -2.1816 0
M  V30 10636 H 1003 4.67499 -1.38909 0
M  V30 10637 H 1002 4.13044 -3.6287 0
M  V30 10638 H 1003.23 5.15082 -4.42569 0
M  V30 10639 H 1001.17 6.10695 -2.39556 0
M  V30 10640 H 1001.09 6.34502 -4.11027 0
M  V30 10641 H 1002.36 7.10853 -3.19857 0
M  V30 10642 N 1006.59 1.25851 0.948643 0
M  V30 10643 C 1007.82 1.13546 1.726 0
M  V30 10644 C 1008.22 -0.312857 1.86595 0
M  V30 10645 O 1007.57 -1.22657 1.36751 0
M  V30 10646 C 1007.63 1.72315 3.15512 0
M  V30 10647 C 1007.29 3.2136 3.24926 0
M  V30 10648 C 1008.29 4.18274 3.08777 0
M  V30 10649 C 1005.98 3.61683 3.48555 0
M  V30 10650 C 1007.97 5.53491 3.16112 0
M  V30 10651 C 1005.66 4.97035 3.55526 0
M  V30 10652 C 1006.65 5.92749 3.3932 0
M  V30 10653 O 1006.34 7.25637 3.45985 0
M  V30 10654 H 1006.07 0.396555 0.547467 0
M  V30 10655 H 1008.63 1.66822 1.19832 0
M  V30 10656 H 1006.86 1.13494 3.6967 0
M  V30 10657 H 1008.55 1.55024 3.7513 0
M  V30 10658 H 1009.31 3.88461 2.90385 0
M  V30 10659 H 1005.19 2.87674 3.60229 0
M  V30 10660 H 1008.74 6.28177 3.0338 0
M  V30 10661 H 1004.63 5.26512 3.73437 0
M  V30 10662 H 1005.4 7.33812 3.62577 0
M  V30 10663 N 1008.06 -1.15214 1.07534 0
M  V30 10664 C 1009.29 -1.89647 0.819614 0
M  V30 10665 C 1009.7 -1.78365 -0.631072 0
M  V30 10666 O 1009.05 -1.1346 -1.44474 0
M  V30 10667 C 1009.11 -3.40573 1.1511 0
M  V30 10668 C 1008.77 -3.7564 2.60276 0
M  V30 10669 C 1009.77 -3.76507 3.58523 0
M  V30 10670 C 1007.45 -4.05891 2.95901 0
M  V30 10671 C 1009.45 -4.07133 4.9043 0
M  V30 10672 C 1007.13 -4.36182 4.28005 0
M  V30 10673 C 1008.13 -4.36785 5.25079 0
M  V30 10674 O 1007.82 -4.66348 6.54809 0
M  V30 10675 H 1007.55 -0.607836 0.295822 0
M  V30 10676 H 1010.11 -1.46895 1.43565 0
M  V30 10677 H 1008.34 -3.83734 0.478033 0
M  V30 10678 H 1010.03 -3.96299 0.877615 0
M  V30 10679 H 1010.79 -3.53233 3.32342 0
M  V30 10680 H 1006.67 -4.0458 2.20989 0
M  V30 10681 H 1010.21 -4.07519 5.66193 0
M  V30 10682 H 1006.11 -4.58924 4.53937 0
M  V30 10683 H 1006.88 -4.84105 6.59988 0
M  V30 10684 N 1009.54 -0.859717 -1.32086 0
M  V30 10685 C 1010.96 -0.55025 -1.49815 0
M  V30 10686 C 1011.16 0.917966 -1.79376 0
M  V30 10687 O 1010.21 1.70073 -1.86632 0
M  V30 10688 C 1011.53 -1.44161 -2.6389 0
M  V30 10689 C 1013.08 -1.44257 -2.77775 0
M  V30 10690 C 1013.55 -2.31926 -3.94936 0
M  V30 10691 N 1015.04 -2.2975 -4.02206 0
M  V30 10692 C 1015.78 -2.9431 -4.92107 0
M  V30 10693 N 1015.27 -3.68001 -5.86981 0
M  V30 10694 N 1017.07 -2.83671 -4.8527 0
M  V30 10695 H 1009.22 -1.80987 -1.11164 0
M  V30 10696 H 1011.48 -0.773313 -0.548353 0
M  V30 10697 H 1011.19 -2.48588 -2.4879 0
M  V30 10698 H 1011.06 -1.13268 -3.59792 0
M  V30 10699 H 1013.45 -0.405923 -2.92295 0
M  V30 10700 H 1013.53 -1.79169 -1.82571 0
M  V30 10701 H 1013.17 -3.35661 -3.81174 0
M  V30 10702 H 1013.1 -1.94344 -4.89426 0
M  V30 10703 H 1015.59 -1.76177 -3.3432 0
M  V30 10704 H 1015.91 -4.14417 -6.52287 0
M  V30 10705 H 1014.25 -3.72109 -5.86992 0
M  V30 10706 H 1017.44 -2.25647 -4.10123 0
M  V30 10707 H 1017.61 -3.34267 -5.5513 0
M  V30 10708 N 1011.02 1.44971 -0.618145 0
M  V30 10709 C 1011.95 2.28815 0.132751 0
M  V30 10710 C 1012.97 1.40551 0.821535 0
M  V30 10711 O 1014.15 1.64827 0.685155 0
M  V30 10712 C 1011.25 3.1658 1.20955 0
M  V30 10713 C 1010.43 4.33184 0.605821 0
M  V30 10714 C 1009.49 5.0208 1.57488 0
M  V30 10715 O 1008.51 5.58528 1.09706 0
M  V30 10716 N 1009.71 5.02335 2.9093 0
M  V30 10717 H 1012.48 2.939 -0.58674 0
M  V30 10718 H 1010.04 1.55276 -0.458375 0
M  V30 10719 H 1012.03 3.59535 1.85787 0
M  V30 10720 H 1010.6 2.53333 1.83143 0
M  V30 10721 H 1009.82 3.93581 -0.220827 0
M  V30 10722 H 1011.11 5.08471 0.182883 0
M  V30 10723 H 1010.51 4.57783 3.32342 0
M  V30 10724 H 1009.07 5.49119 3.51157 0
M  V30 10725 N 1012.5 0.357919 1.53482 0
M  V30 10726 C 1013.45 -0.507364 2.26999 0
M  V30 10727 C 1014.44 -1.08987 1.29685 0
M  V30 10728 O 1015.65 -1.03396 1.47341 0
M  V30 10729 H 1012.02 -0.182326 0.729562 0
M  V30 10730 H 1013.99 0.134547 2.98097 0
M  V30 10731 C 1012.74 -1.63911 3.06641 0
M  V30 10732 H 1012.06 -1.20017 3.81361 0
M  V30 10733 H 1013.5 -2.21943 3.61272 0
M  V30 10734 C 1011.96 -2.57697 2.17011 0
M  V30 10735 O 1012.49 -3.60318 1.77578 0
M  V30 10736 N 1010.7 -2.2671 1.818 0
M  V30 10737 H 1010.25 -1.43296 2.14065 0
M  V30 10738 H 1010.2 -2.89716 1.22115 0
M  V30 10739 N 1013.98 -1.5736 0.0868897 0
M  V30 10740 C 1015.39 -1.81356 -0.443499 0
M  V30 10741 C 1015.74 -1.00192 -1.68689 0
M  V30 10742 O 1014.86 -0.228863 -2.15186 0
M  V30 10743 C 1015.46 -3.28941 -0.811387 0
M  V30 10744 C 1014.02 -3.53729 -1.28656 0
M  V30 10745 C 1013.16 -2.75891 -0.279153 0
M  V30 10746 H 1016.12 -1.55594 0.312427 0
M  V30 10747 H 1016.14 -3.41815 -1.6716 0
M  V30 10748 H 1015.65 -3.87987 0.0937598 0
M  V30 10749 H 1013.75 -3.00005 -2.2097 0
M  V30 10750 H 1013.86 -4.62396 -1.25406 0
M  V30 10751 H 1012.23 -2.4311 -0.759595 0
M  V30 10752 H 1013.01 -3.37682 0.618529 0
M  V30 10753 N 1015.45 0.186762 -1.56489 0
M  V30 10754 C 1016.73 0.932229 -1.71956 0
M  V30 10755 C 1017.11 2.01037 -0.644006 0
M  V30 10756 O 1016.46 2.259 0.343694 0
M  V30 10757 C 1016.67 1.51106 -3.14592 0
M  V30 10758 C 1018.02 1.98997 -3.75081 0
M  V30 10759 O 1019.04 1.60931 -3.17773 0
M  V30 10760 O 1017.9 2.69067 -4.75673 0
M  V30 10761 H 1014.99 0.437736 -0.701652 0
M  V30 10762 H 1017.54 0.175803 -1.68787 0
M  V30 10763 H 1016.31 0.734327 -3.84348 0
M  V30 10764 H 1015.94 2.33209 -3.22024 0
M  V30 10765 N 1016.93 1.50896 0.454776 0
M  V30 10766 C 1018.18 1.61936 1.20248 0
M  V30 10767 C 1018.49 0.332983 1.92745 0
M  V30 10768 O 1019.7 0.322512 2.69578 0
M  V30 10769 C 1018.16 2.85916 2.18587 0
M  V30 10770 C 1017.76 4.21492 1.51818 0
M  V30 10771 C 1019.51 3.06307 2.93898 0
M  V30 10772 C 1017.42 5.3664 2.48539 0
M  V30 10773 H 1016.35 0.603098 0.452536 0
M  V30 10774 H 1019 1.77345 0.471257 0
M  V30 10775 H 1017.38 2.64101 2.95071 0
M  V30 10776 H 1018.55 4.53623 0.810123 0
M  V30 10777 H 1016.87 4.06837 0.887265 0
M  V30 10778 H 1019.46 3.89507 3.66317 0
M  V30 10779 H 1019.81 2.18683 3.54236 0
M  V30 10780 H 1020.34 3.2838 2.24525 0
M  V30 10781 H 1017.08 6.26469 1.92916 0
M  V30 10782 H 1016.6 5.08907 3.17449 0
M  V30 10783 H 1018.28 5.67881 3.10033 0
M  V30 10784 N 1018.41 -0.709066 1.40748 0
M  V30 10785 C 1019.82 -1.28847 1.35112 0
M  V30 10786 C 1020.17 -1.9618 0.0277149 0
M  V30 10787 O 1019.3 -1.97955 -0.874233 0
M  V30 10788 C 1019.89 -2.34306 2.44716 0
M  V30 10789 C 1018.45 -2.87856 2.4252 0
M  V30 10790 C 1017.6 -1.61723 2.25257 0
M  V30 10791 H 1020.55 -0.504742 1.50459 0
M  V30 10792 H 1020.57 -3.15297 2.12998 0
M  V30 10793 H 1020.08 -1.85271 3.41022 0
M  V30 10794 H 1018.18 -3.41103 1.49931 0
M  V30 10795 H 1018.3 -3.39205 3.38344 0
M  V30 10796 H 1016.66 -1.87032 1.7289 0
M  V30 10797 H 1017.44 -1.14703 3.23571 0
M  V30 10798 N 1019.89 -1.26353 -0.941956 0
M  V30 10799 C 1020.82 -1.03634 -2.04432 0
M  V30 10800 C 1021.83 0.00295864 -1.628 0
M  V30 10801 O 1023.02 -0.237029 -1.76919 0
M  V30 10802 C 1020.12 -0.547231 -3.34453 0
M  V30 10803 C 1019.3 -1.65559 -4.04857 0
M  V30 10804 C 1018.36 -1.16466 -5.13149 0
M  V30 10805 O 1017.38 -1.86158 -5.37898 0
M  V30 10806 N 1018.58 -0.0126703 -5.80499 0
M  V30 10807 H 1021.35 -1.98558 -2.24488 0
M  V30 10808 H 1018.91 -1.17728 -1.11138 0
M  V30 10809 H 1020.9 -0.203004 -4.04191 0
M  V30 10810 H 1019.47 0.308401 -3.11075 0
M  V30 10811 H 1018.69 -2.17079 -3.29044 0
M  V30 10812 H 1019.98 -2.39985 -4.48647 0
M  V30 10813 H 1019.38 0.569358 -5.62828 0
M  V30 10814 H 1017.93 0.272486 -6.5123 0
M  V30 10815 N 1021.37 1.14642 -1.08144 0
M  V30 10816 C 1022.3 2.21775 -0.730609 0
M  V30 10817 C 1023.28 1.67683 0.285702 0
M  V30 10818 O 1024.46 1.93567 0.156667 0
M  V30 10819 C 1021.59 3.47033 -0.136242 0
M  V30 10820 C 1020.55 4.14134 -1.0806 0
M  V30 10821 C 1019.87 5.33563 -0.348585 0
M  V30 10822 C 1021.17 4.62978 -2.41761 0
M  V30 10823 H 1022.87 2.51378 -1.62633 0
M  V30 10824 H 1020.41 1.20825 -0.783411 0
M  V30 10825 H 1022.37 4.21226 0.121182 0
M  V30 10826 H 1021.09 3.16786 0.7946 0
M  V30 10827 H 1019.75 3.41892 -1.32308 0
M  V30 10828 H 1019.4 4.99575 0.585974 0
M  V30 10829 H 1019.1 5.79402 -0.978122 0
M  V30 10830 H 1020.62 6.10519 -0.0991508 0
M  V30 10831 H 1022.04 5.28659 -2.21795 0
M  V30 10832 H 1020.43 5.1951 -3.00383 0
M  V30 10833 H 1021.5 3.78189 -3.03482 0
M  V30 10834 N 1022.85 0.866709 1.31628 0
M  V30 10835 C 1023.76 0.323408 2.3236 0
M  V30 10836 C 1024.77 -0.564995 1.64572 0
M  V30 10837 O 1025.95 -0.462489 1.96018 0
M  V30 10838 C 1023.01 -0.469045 3.43513 0
M  V30 10839 C 1022.07 0.446928 4.26967 0
M  V30 10840 C 1021.31 -0.307799 5.32812 0
M  V30 10841 O 1021.53 -1.5363 5.49321 0
M  V30 10842 O 1020.46 0.332653 6.0098 0
M  V30 10843 H 1024.29 1.15827 2.80745 0
M  V30 10844 H 1021.87 0.629987 1.35468 0
M  V30 10845 H 1023.76 -0.918405 4.1127 0
M  V30 10846 H 1022.43 -1.28051 2.97296 0
M  V30 10847 H 1021.34 0.944719 3.61975 0
M  V30 10848 H 1022.67 1.2239 4.76741 0
M  V30 10849 N 1024.32 -1.44642 0.625825 0
M  V30 10850 C 1025.73 -1.85502 0.211175 0
M  V30 10851 C 1026.09 -1.52356 -1.2362 0
M  V30 10852 O 1025.21 -0.959051 -1.93988 0
M  V30 10853 C 1025.81 -3.36702 0.37648 0
M  V30 10854 C 1024.36 -3.76396 0.0163795 0
M  V30 10855 C 1023.51 -2.68517 0.692368 0
M  V30 10856 H 1026.46 -1.35183 0.831333 0
M  V30 10857 H 1026.48 -3.78536 -0.386106 0
M  V30 10858 H 1026 -3.60795 1.42999 0
M  V30 10859 H 1024.1 -3.57919 -1.0356 0
M  V30 10860 H 1024.21 -4.77231 0.422742 0
M  V30 10861 H 1022.57 -2.54377 0.128191 0
M  V30 10862 H 1023.36 -2.95444 1.74837 0
M  V30 10863 N 1025.8 -0.366053 -1.5329 0
M  V30 10864 C 1027.03 0.226839 -2.06156 0
M  V30 10865 C 1027.45 1.41637 -1.23776 0
M  V30 10866 O 1026.81 1.7947 -0.256948 0
M  V30 10867 C 1026.86 0.597956 -3.55608 0
M  V30 10868 O 1025.96 1.69512 -3.75951 0
M  V30 10869 H 1025.3 0.0329156 -0.663184 0
M  V30 10870 H 1027.83 -0.526793 -1.97702 0
M  V30 10871 H 1027.84 0.868831 -3.98642 0
M  V30 10872 H 1026.52 -0.271838 -4.15011 0
M  V30 10873 H 1025.09 1.41976 -3.44815 0
M  V30 10874 N 1027.28 1.57312 -0.0952337 0
M  V30 10875 C 1028.56 1.85822 0.610715 0
M  V30 10876 C 1028.94 0.992114 1.86334 0
M  V30 10877 O 1028.28 0.0645669 2.28409 0
M  V30 10878 C 1028.49 3.36492 0.925967 0
M  V30 10879 C 1029.84 4.0455 1.28936 0
M  V30 10880 O 1030.87 3.41374 1.01698 0
M  V30 10881 O 1029.73 5.16024 1.79949 0
M  V30 10882 H 1026.82 0.768454 0.305626 0
M  V30 10883 H 1029.37 1.69217 -0.127941 0
M  V30 10884 H 1028.14 3.91282 0.0373127 0
M  V30 10885 H 1027.76 3.58443 1.7206 0
M  V30 10886 N 1028.76 -0.17846 1.56586 0
M  V30 10887 C 1029.99 -0.910674 1.85446 0
M  V30 10888 C 1030.4 -1.76647 0.677675 0
M  V30 10889 O 1029.74 -1.80086 -0.362584 0
M  V30 10890 C 1029.8 -1.84363 3.08627 0
M  V30 10891 C 1029.46 -1.16814 4.41818 0
M  V30 10892 C 1030.46 -0.53703 5.17119 0
M  V30 10893 C 1028.15 -1.16703 4.88555 0
M  V30 10894 C 1030.14 0.0861778 6.37342 0
M  V30 10895 C 1027.83 -0.539992 6.0871 0
M  V30 10896 C 1028.83 0.0855135 6.82946 0
M  V30 10897 O 1028.51 0.70268 8.00823 0
M  V30 10898 H 1028.25 -0.270377 0.619574 0
M  V30 10899 H 1030.8 -0.185591 2.0456 0
M  V30 10900 H 1029.03 -2.60884 2.85441 0
M  V30 10901 H 1030.72 -2.44506 3.23993 0
M  V30 10902 H 1031.48 -0.529915 4.82096 0
M  V30 10903 H 1027.36 -1.64329 4.30717 0
M  V30 10904 H 1030.91 0.575011 6.95226 0
M  V30 10905 H 1026.8 -0.544666 6.43198 0
M  V30 10906 H 1027.57 0.601224 8.16289 0
M  V30 10907 N 1030.24 -1.51135 -0.446768 0
M  V30 10908 C 1031.17 -1.74709 -1.54916 0
M  V30 10909 C 1032.15 -0.596628 -1.59293 0
M  V30 10910 O 1033.33 -0.838356 -1.75172 0
M  V30 10911 C 1030.46 -1.86353 -2.9307 0
M  V30 10912 C 1029.42 -3.01725 -3.03556 0
M  V30 10913 C 1028.74 -2.9854 -4.43597 0
M  V30 10914 C 1030.04 -4.41848 -2.7851 0
M  V30 10915 H 1031.74 -2.67014 -1.3544 0
M  V30 10916 H 1029.28 -1.28489 -0.650131 0
M  V30 10917 H 1031.23 -2.01428 -3.70141 0
M  V30 10918 H 1029.96 -0.906887 -3.13756 0
M  V30 10919 H 1028.62 -2.86339 -2.28922 0
M  V30 10920 H 1028.27 -2.00673 -4.61237 0
M  V30 10921 H 1027.97 -3.76008 -4.51544 0
M  V30 10922 H 1029.49 -3.15696 -5.22655 0
M  V30 10923 H 1030.9 -4.57633 -3.45319 0
M  V30 10924 H 1029.3 -5.2095 -2.97877 0
M  V30 10925 H 1030.37 -4.52536 -1.74182 0
M  V30 10926 N 1031.71 0.701592 -1.41122 0
M  V30 10927 C 1032.66 1.81559 -1.42495 0
M  V30 10928 C 1033.63 1.63722 -0.280078 0
M  V30 10929 O 1034.82 1.84658 -0.480231 0
M  V30 10930 C 1031.96 3.19392 -1.30702 0
M  V30 10931 C 1031.07 3.48704 -2.55009 0
M  V30 10932 C 1030.2 4.76118 -2.35554 0
M  V30 10933 C 1029.24 4.98378 -3.55367 0
M  V30 10934 N 1028.38 6.17014 -3.3502 0
M  V30 10935 H 1033.22 1.7972 -2.37707 0
M  V30 10936 H 1030.76 0.877727 -1.18044 0
M  V30 10937 H 1032.71 3.99004 -1.21867 0
M  V30 10938 H 1031.34 3.20423 -0.391012 0
M  V30 10939 H 1030.4 2.63542 -2.74317 0
M  V30 10940 H 1031.71 3.61057 -3.44151 0
M  V30 10941 H 1030.86 5.63774 -2.24152 0
M  V30 10942 H 1029.6 4.66 -1.43859 0
M  V30 10943 H 1028.61 4.09172 -3.6723 0
M  V30 10944 H 1029.83 5.10359 -4.48007 0
M  V30 10945 H 1027.78 6.0812 -2.4602 0
M  V30 10946 H 1027.69 6.30107 -4.17733 0
M  V30 10947 H 1028.96 7.0742 -3.27379 0
M  V30 10948 N 1033.19 1.2685 0.935242 0
M  V30 10949 C 1034.14 1.08923 2.03481 0
M  V30 10950 C 1035.11 -0.00749786 1.66098 0
M  V30 10951 O 1036.29 0.153401 1.90182 0
M  V30 10952 C 1033.43 0.734529 3.37192 0
M  V30 10953 C 1032.55 1.90812 3.87576 0
M  V30 10954 C 1031.68 1.49599 5.097 0
M  V30 10955 C 1030.72 2.63752 5.5236 0
M  V30 10956 N 1029.86 2.23179 6.65684 0
M  V30 10957 H 1034.7 2.03016 2.18148 0
M  V30 10958 H 1032.23 1.01072 1.06878 0
M  V30 10959 H 1034.19 0.509734 4.14074 0
M  V30 10960 H 1032.82 -0.169438 3.22355 0
M  V30 10961 H 1031.87 2.24567 3.0704 0
M  V30 10962 H 1033.19 2.7647 4.1517 0
M  V30 10963 H 1032.34 1.23199 5.9406 0
M  V30 10964 H 1031.08 0.61039 4.83865 0
M  V30 10965 H 1030.08 2.90874 4.66554 0
M  V30 10966 H 1031.31 3.5292 5.80193 0
M  V30 10967 H 1029.26 1.37061 6.41522 0
M  V30 10968 H 1029.17 3.02379 6.92895 0
M  V30 10969 H 1030.44 2.00007 7.53404 0
M  V30 10970 N 1034.67 -1.14067 1.0875 0
M  V30 10971 C 1035.6 -2.21385 0.74236 0
M  V30 10972 C 1036.58 -1.67833 -0.276805 0
M  V30 10973 O 1037.77 -1.93647 -0.1464 0
M  V30 10974 C 1034.9 -3.46956 0.154644 0
M  V30 10975 C 1033.85 -4.13555 1.10255 0
M  V30 10976 C 1033.18 -5.3337 0.376877 0
M  V30 10977 C 1034.48 -4.6169 2.44213 0
M  V30 10978 H 1036.17 -2.50512 1.63964 0
M  V30 10979 H 1033.72 -1.20408 0.789807 0
M  V30 10980 H 1035.67 -4.21284 -0.0988419 0
M  V30 10981 H 1034.39 -3.17203 -0.777789 0
M  V30 10982 H 1033.05 -3.41186 1.34119 0
M  V30 10983 H 1032.7 -4.99879 -0.559472 0
M  V30 10984 H 1032.4 -5.78875 1.00884 0
M  V30 10985 H 1033.92 -6.10458 0.131527 0
M  V30 10986 H 1035.34 -5.27475 2.24595 0
M  V30 10987 H 1033.74 -5.17909 3.03134 0
M  V30 10988 H 1034.81 -3.76574 3.05483 0
M  V30 10989 N 1036.15 -0.873678 -1.31166 0
M  V30 10990 C 1037.11 -0.337069 -2.26708 0
M  V30 10991 C 1038.11 0.51406 -1.52362 0
M  V30 10992 O 1039.3 0.322834 -1.71182 0
M  V30 10993 C 1036.43 0.520897 -3.36897 0
M  V30 10994 H 1037.63 -1.18056 -2.75686 0
M  V30 10995 H 1035.18 -0.649577 -1.42163 0
M  V30 10996 H 1035.91 1.38543 -2.93217 0
M  V30 10997 H 1035.7 -0.0886015 -3.92 0
M  V30 10998 H 1037.19 0.888497 -4.08039 0
M  V30 10999 N 1037.63 1.44308 -0.633487 0
M  V30 11000 C 1038.85 2.06897 -0.144347 0
M  V30 11001 C 1039.28 1.47045 1.173 0
M  V30 11002 O 1038.63 0.572806 1.72013 0
M  V30 11003 C 1038.68 3.60571 -0.0456324 0
M  V30 11004 O 1037.79 4.0015 0.997682 0
M  V30 11005 H 1037.13 0.658427 -0.0858499 0
M  V30 11006 H 1039.66 1.85142 -0.870833 0
M  V30 11007 H 1039.67 4.07745 0.144178 0
M  V30 11008 H 1038.34 4.03515 -1.0074 0
M  V30 11009 H 1036.92 3.64603 0.782252 0
M  V30 11010 N 1039.1 0.374177 1.53094 0
M  V30 11011 C 1040.04 -0.503065 2.23611 0
M  V30 11012 C 1041.05 -1.03915 1.25321 0
M  V30 11013 O 1042.24 -0.944064 1.51492 0
M  V30 11014 C 1039.34 -1.70825 2.92698 0
M  V30 11015 C 1038.51 -1.30217 4.17567 0
M  V30 11016 C 1037.57 -2.37036 4.69788 0
M  V30 11017 O 1036.6 -1.99069 5.33254 0
M  V30 11018 N 1037.8 -3.68743 4.4834 0
M  V30 11019 H 1040.56 0.101013 2.9953 0
M  V30 11020 H 1038.12 0.199778 1.60663 0
M  V30 11021 H 1040.12 -2.41779 3.24538 0
M  V30 11022 H 1038.69 -2.219 2.2018 0
M  V30 11023 H 1037.91 -0.422121 3.91933 0
M  V30 11024 H 1039.19 -1.00728 4.9873 0
M  V30 11025 H 1038.59 -4.0236 3.97647 0
M  V30 11026 H 1037.15 -4.35776 4.84709 0
M  V30 11027 N 1040.58 -1.57259 0.103575 0
M  V30 11028 C 1041.83 -1.94272 -0.557024 0
M  V30 11029 C 1042.15 -0.986739 -1.68192 0
M  V30 11030 O 1041.42 -0.0402818 -1.95859 0
M  V30 11031 H 1040 -0.717237 -0.208757 0
M  V30 11032 H 1042.66 -1.94167 0.168898 0
M  V30 11033 H 1041.76 -2.96914 -0.961691 0
M  V30 11034 N 1042.06 0.170153 -1.56679 0
M  V30 11035 C 1043.01 1.22997 -1.9742 0
M  V30 11036 C 1044 1.45762 -0.863117 0
M  V30 11037 O 1045.21 1.46328 -1.04824 0
M  V30 11038 H 1041.58 0.413482 -0.628122 0
M  V30 11039 H 1043.55 0.859502 -2.85754 0
M  V30 11040 C 1042.3 2.5615 -2.35122 0
M  V30 11041 H 1041.63 2.39456 -3.20158 0
M  V30 11042 H 1043.07 3.28991 -2.67471 0
M  V30 11043 C 1041.53 3.14992 -1.19507 0
M  V30 11044 O 1042.06 3.98781 -0.483357 0
M  V30 11045 N 1040.26 2.74098 -0.965332 0
M  V30 11046 H 1039.81 2.06062 -1.54585 0
M  V30 11047 H 1039.77 3.13803 -0.193611 0
M  V30 11048 N 1043.54 1.5137 0.438746 0
M  V30 11049 C 1044.95 1.56462 1.01866 0
M  V30 11050 C 1045.3 0.387244 1.9234 0
M  V30 11051 O 1044.43 -0.496131 2.10636 0
M  V30 11052 C 1045.02 2.83557 1.85421 0
M  V30 11053 C 1043.58 2.91224 2.38464 0
M  V30 11054 C 1042.73 2.51109 1.17641 0
M  V30 11055 H 1045.68 1.57167 0.220072 0
M  V30 11056 H 1045.7 2.6724 2.70857 0
M  V30 11057 H 1045.21 3.69229 1.19546 0
M  V30 11058 H 1043.31 2.09979 3.07798 0
M  V30 11059 H 1043.42 3.94844 2.71358 0
M  V30 11060 H 1041.79 2.04276 1.5213 0
M  V30 11061 H 1042.57 3.39125 0.533785 0
M  V30 11062 N 1045.02 -0.694098 1.41492 0
M  V30 11063 C 1046.43 -1.27407 1.36471 0
M  V30 11064 C 1046.78 -1.9614 0.0485209 0
M  V30 11065 O 1045.9 -1.98871 -0.853188 0
M  V30 11066 C 1046.5 -2.31698 2.47188 0
M  V30 11067 C 1045.06 -2.85268 2.45559 0
M  V30 11068 C 1044.2 -1.59325 2.2696 0
M  V30 11069 H 1047.16 -0.488756 1.50986 0
M  V30 11070 H 1047.18 -3.1302 2.1633 0
M  V30 11071 H 1046.69 -1.81644 3.42968 0
M  V30 11072 H 1044.79 -3.39494 1.5354 0
M  V30 11073 H 1044.9 -3.35598 3.41922 0
M  V30 11074 H 1043.27 -1.85188 1.74864 0
M  V30 11075 H 1044.05 -1.11265 3.24769 0
M  V30 11076 N 1046.49 -1.27344 -0.928501 0
M  V30 11077 C 1047.42 -1.12517 -2.04602 0
M  V30 11078 C 1048.41 -0.0268563 -1.70079 0
M  V30 11079 O 1049.59 -0.201197 -1.93155 0
M  V30 11080 C 1046.72 -0.770749 -3.3864 0
M  V30 11081 C 1045.67 -1.8222 -3.87272 0
M  V30 11082 C 1045 -1.32178 -5.18105 0
M  V30 11083 C 1046.3 -3.22614 -4.10752 0
M  V30 11084 H 1047.99 -2.06 -2.17265 0
M  V30 11085 H 1045.54 -0.991827 -1.04397 0
M  V30 11086 H 1047.49 -0.653843 -4.16297 0
M  V30 11087 H 1046.22 0.19979 -3.25988 0
M  V30 11088 H 1044.88 -1.928 -3.11807 0
M  V30 11089 H 1044.52 -0.340719 -5.01845 0
M  V30 11090 H 1044.22 -2.02474 -5.51614 0
M  V30 11091 H 1045.75 -1.2178 -5.98333 0
M  V30 11092 H 1047.16 -3.1504 -4.78981 0
M  V30 11093 H 1045.56 -3.90614 -4.55566 0
M  V30 11094 H 1046.63 -3.67727 -3.16077 0
M  V30 11095 N 1047.97 1.13488 -1.09353 0
M  V30 11096 C 1048.92 2.18876 -0.732251 0
M  V30 11097 C 1049.89 1.63616 0.286175 0
M  V30 11098 O 1051.07 1.90059 0.167981 0
M  V30 11099 C 1048.21 3.44737 -0.158157 0
M  V30 11100 C 1047.33 4.14104 -1.23053 0
M  V30 11101 C 1046.46 5.27578 -0.619272 0
M  V30 11102 C 1045.5 5.88793 -1.67301 0
M  V30 11103 N 1044.64 6.937 -1.08283 0
M  V30 11104 H 1049.48 2.49128 -1.63522 0
M  V30 11105 H 1047.02 1.22326 -0.816995 0
M  V30 11106 H 1048.97 4.16756 0.192488 0
M  V30 11107 H 1047.6 3.14938 0.708082 0
M  V30 11108 H 1046.66 3.40376 -1.69847 0
M  V30 11109 H 1047.97 4.55683 -2.02865 0
M  V30 11110 H 1047.12 6.0631 -0.217428 0
M  V30 11111 H 1045.86 4.87246 0.210399 0
M  V30 11112 H 1044.87 5.08756 -2.0844 0
M  V30 11113 H 1046.09 6.31197 -2.50533 0
M  V30 11114 H 1044.04 6.55426 -0.274426 0
M  V30 11115 H 1043.95 7.33817 -1.81792 0
M  V30 11116 H 1045.22 7.76286 -0.707167 0
M  V30 11117 N 1049.45 0.880621 1.30701 0
M  V30 11118 C 1050.36 0.348034 2.32004 0
M  V30 11119 C 1051.38 -0.547508 1.65162 0
M  V30 11120 O 1052.55 -0.441673 1.96497 0
M  V30 11121 C 1049.62 -0.432585 3.43991 0
M  V30 11122 C 1048.68 0.492189 4.26469 0
M  V30 11123 C 1047.91 -0.25127 5.33108 0
M  V30 11124 O 1048.14 -1.47795 5.5092 0
M  V30 11125 O 1047.07 0.396376 6.00593 0
M  V30 11126 H 1050.9 1.18798 2.79501 0
M  V30 11127 H 1048.48 0.64432 1.34792 0
M  V30 11128 H 1050.36 -0.874733 4.12221 0
M  V30 11129 H 1049.04 -1.2489 2.98637 0
M  V30 11130 H 1047.94 0.983058 3.60953 0
M  V30 11131 H 1049.28 1.27439 4.75416 0
M  V30 11132 N 1050.93 -1.4397 0.641131 0
M  V30 11133 C 1052.18 -2.02782 0.158406 0
M  V30 11134 C 1052.53 -1.496 -1.20986 0
M  V30 11135 O 1051.82 -0.674517 -1.79334 0
M  V30 11136 C 1052.02 -3.5727 0.0963368 0
M  V30 11137 C 1051.85 -4.25441 1.45704 0
M  V30 11138 C 1050.62 -4.62008 2.04637 0
M  V30 11139 C 1052.81 -4.55238 2.39297 0
M  V30 11140 N 1050.8 -5.15194 3.33839 0
M  V30 11141 C 1052.17 -5.09613 3.53121 0
M  V30 11142 C 1054.22 -4.37197 2.38251 0
M  V30 11143 C 1052.93 -5.47847 4.66108 0
M  V30 11144 C 1054.95 -4.76485 3.50309 0
M  V30 11145 C 1054.31 -5.30982 4.62858 0
M  V30 11146 H 1050.41 -0.775304 0.102117 0
M  V30 11147 H 1053 -1.75321 0.846805 0
M  V30 11148 H 1051.17 -3.84322 -0.561369 0
M  V30 11149 H 1052.9 -4.02757 -0.39614 0
M  V30 11150 H 1049.65 -4.46653 1.57474 0
M  V30 11151 H 1050.08 -5.46253 3.99921 0
M  V30 11152 H 1054.72 -3.94347 1.5248 0
M  V30 11153 H 1052.44 -5.89646 5.52579 0
M  V30 11154 H 1056.02 -4.6423 3.50687 0
M  V30 11155 H 1054.9 -5.6082 5.48133 0
M  V30 11156 N 1052.41 -0.382291 -1.52893 0
M  V30 11157 C 1053.34 0.491199 -2.23875 0
M  V30 11158 C 1054.35 1.03249 -1.25871 0
M  V30 11159 O 1055.54 0.936016 -1.5199 0
M  V30 11160 C 1052.64 1.6927 -2.936 0
M  V30 11161 C 1051.81 1.28 -4.18252 0
M  V30 11162 C 1050.87 2.34541 -4.71038 0
M  V30 11163 O 1049.9 1.96239 -5.34302 0
M  V30 11164 N 1051.1 3.6636 -4.50289 0
M  V30 11165 H 1053.87 -0.116897 -2.99472 0
M  V30 11166 H 1051.43 -0.208296 -1.60554 0
M  V30 11167 H 1053.42 2.40054 -3.25816 0
M  V30 11168 H 1051.99 2.20729 -2.21354 0
M  V30 11169 H 1051.21 0.40133 -3.92152 0
M  V30 11170 H 1052.5 0.98082 -4.99257 0
M  V30 11171 H 1051.9 4.00245 -3.99775 0
M  V30 11172 H 1050.45 4.332 -4.87013 0
M  V30 11173 N 1053.89 1.57202 -0.111913 0
M  V30 11174 C 1055.11 1.99723 0.559054 0
M  V30 11175 C 1055.54 0.990968 1.59879 0
M  V30 11176 O 1054.89 -0.038311 1.8126 0
M  V30 11177 C 1054.94 3.41151 1.16826 0
M  V30 11178 O 1054.05 3.43383 2.2839 0
M  V30 11179 H 1053.39 0.649004 0.140319 0
M  V30 11180 H 1055.92 2.03637 -0.198295 0
M  V30 11181 H 1055.93 3.79208 1.50551 0
M  V30 11182 H 1054.6 4.13907 0.406637 0
M  V30 11183 H 1053.18 3.17138 1.96158 0
M  V30 11184 N 1055.36 -0.161842 1.56767 0
M  V30 11185 C 1056.29 -1.20226 2.0017 0
M  V30 11186 C 1057.27 -1.4564 0.878807 0
M  V30 11187 O 1058.46 -1.56813 1.14557 0
M  V30 11188 C 1055.59 -2.53897 2.36968 0
M  V30 11189 C 1054.54 -2.43033 3.52305 0
M  V30 11190 C 1053.87 -3.81281 3.74872 0
M  V30 11191 C 1055.17 -1.927 4.85453 0
M  V30 11192 H 1056.86 -0.84142 2.87333 0
M  V30 11193 H 1054.41 -0.403309 1.38237 0
M  V30 11194 H 1056.36 -3.26893 2.6593 0
M  V30 11195 H 1055.09 -2.91787 1.46724 0
M  V30 11196 H 1053.75 -1.7249 3.23485 0
M  V30 11197 H 1053.39 -4.1658 2.81904 0
M  V30 11198 H 1053.09 -3.74877 4.52483 0
M  V30 11199 H 1054.62 -4.55848 4.06245 0
M  V30 11200 H 1056.03 -2.55477 5.13229 0
M  V30 11201 H 1054.43 -1.97222 5.66766 0
M  V30 11202 H 1055.5 -0.881816 4.76814 0
M  V30 11203 N 1056.84 -1.516 -0.430713 0
M  V30 11204 C 1057.8 -1.72794 -1.50582 0
M  V30 11205 C 1058.8 -0.597903 -1.49271 0
M  V30 11206 O 1059.99 -0.865535 -1.51176 0
M  V30 11207 C 1057.13 -1.79049 -2.90093 0
M  V30 11208 H 1058.32 -2.68751 -1.33091 0
M  V30 11209 H 1055.87 -1.4169 -0.659822 0
M  V30 11210 H 1056.61 -0.849309 -3.12981 0
M  V30 11211 H 1056.39 -2.61181 -2.92449 0
M  V30 11212 H 1057.88 -1.97262 -3.68072 0
M  V30 11213 N 1058.32 0.686584 -1.41858 0
M  V30 11214 C 1059.57 1.44379 -1.41418 0
M  V30 11215 C 1059.89 1.94981 -0.0273696 0
M  V30 11216 O 1059.16 1.72296 0.932248 0
M  V30 11217 H 1057.74 0.53574 -0.520568 0
M  V30 11218 H 1060.4 0.812056 -1.77177 0
M  V30 11219 H 1059.5 2.30258 -2.10684 0
M  V30 11220 N 1059.8 1.27835 0.921735 0
M  V30 11221 C 1061.02 1.17465 1.70929 0
M  V30 11222 C 1061.45 -0.264171 1.86236 0
M  V30 11223 O 1060.81 -1.19124 1.36671 0
M  V30 11224 C 1060.85 1.8697 3.08342 0
M  V30 11225 O 1059.96 1.17173 3.95404 0
M  V30 11226 H 1059.3 0.408206 0.523702 0
M  V30 11227 H 1061.83 1.69013 1.15307 0
M  V30 11228 H 1061.84 1.94564 3.58621 0
M  V30 11229 H 1060.51 2.91633 2.96518 0
M  V30 11230 H 1059.09 1.17688 3.53842 0
M  V30 11231 N 1061.28 -1.12907 1.09954 0
M  V30 11232 C 1062.69 -1.65847 0.857417 0
M  V30 11233 C 1063.04 -1.86372 -0.613176 0
M  V30 11234 O 1062.16 -1.58654 -1.47166 0
M  V30 11235 C 1062.76 -3.01269 1.54991 0
M  V30 11236 C 1061.32 -3.51179 1.35462 0
M  V30 11237 C 1060.46 -2.26307 1.60251 0
M  V30 11238 H 1063.41 -0.96755 1.25794 0
M  V30 11239 H 1063.44 -3.675 0.986091 0
M  V30 11240 H 1062.95 -2.86299 2.6202 0
M  V30 11241 H 1061.05 -3.71343 0.305742 0
M  V30 11242 H 1061.16 -4.30955 2.09318 0
M  V30 11243 H 1059.53 -2.33167 1.02494 0
M  V30 11244 H 1060.31 -2.13896 2.68521 0
M  V30 11245 N 1062.75 -0.88754 -1.30232 0
M  V30 11246 C 1063.98 -0.521562 -2.00735 0
M  V30 11247 C 1064.4 0.883247 -1.66073 0
M  V30 11248 O 1063.76 1.58581 -0.878731 0
M  V30 11249 C 1063.81 -0.706521 -3.53611 0
M  V30 11250 O 1062.91 0.246447 -4.11663 0
M  V30 11251 H 1062.25 -0.205216 -0.631492 0
M  V30 11252 H 1064.78 -1.19579 -1.66018 0
M  V30 11253 H 1064.79 -0.606501 -4.03467 0
M  V30 11254 H 1063.47 -1.73076 -3.78177 0
M  V30 11255 H 1062.05 0.0999062 -3.72766 0
M  V30 11256 N 1064.23 1.43628 -0.648757 0
M  V30 11257 C 1065.46 2.06732 -0.166284 0
M  V30 11258 C 1065.88 1.48281 1.15734 0
M  V30 11259 O 1065.24 0.591018 1.71396 0
M  V30 11260 C 1065.29 3.60502 -0.0838732 0
M  V30 11261 O 1064.39 4.01186 0.955185 0
M  V30 11262 H 1063.73 0.657479 -0.0928285 0
M  V30 11263 H 1066.26 1.84208 -0.890421 0
M  V30 11264 H 1066.27 4.07875 0.100923 0
M  V30 11265 H 1064.95 4.02424 -1.05014 0
M  V30 11266 H 1063.53 3.65412 0.743537 0
M  V30 11267 N 1065.71 0.390394 1.52688 0
M  V30 11268 C 1066.66 -0.444229 2.26485 0
M  V30 11269 C 1067.63 -1.05688 1.28138 0
M  V30 11270 O 1068.81 -1.0847 1.56968 0
M  V30 11271 C 1065.95 -1.56501 3.07574 0
M  V30 11272 C 1065.07 -0.975111 4.20851 0
M  V30 11273 C 1064.2 -2.06704 4.89333 0
M  V30 11274 C 1063.24 -1.45309 5.94602 0
M  V30 11275 N 1062.38 -2.48437 6.56676 0
M  V30 11276 H 1067.22 0.191535 2.97384 0
M  V30 11277 H 1064.75 0.106287 1.46716 0
M  V30 11278 H 1066.71 -2.22558 3.52879 0
M  V30 11279 H 1065.34 -2.17107 2.38881 0
M  V30 11280 H 1064.39 -0.204109 3.79852 0
M  V30 11281 H 1065.71 -0.486465 4.96422 0
M  V30 11282 H 1064.86 -2.80528 5.37949 0
M  V30 11283 H 1063.6 -2.58928 4.13289 0
M  V30 11284 H 1062.6 -0.700091 5.45324 0
M  V30 11285 H 1063.83 -0.938775 6.7258 0
M  V30 11286 H 1061.77 -2.99829 5.83471 0
M  V30 11287 H 1061.69 -2.04331 7.27863 0
M  V30 11288 H 1062.96 -3.21888 7.09935 0
M  V30 11289 N 1067.19 -1.57141 0.120249 0
M  V30 11290 C 1068.12 -2.18398 -0.826112 0
M  V30 11291 C 1069.1 -1.12439 -1.27638 0
M  V30 11292 O 1070.28 -1.40679 -1.33877 0
M  V30 11293 C 1067.41 -2.78438 -2.0758 0
M  V30 11294 C 1066.37 -3.89991 -1.76327 0
M  V30 11295 C 1065.69 -4.36844 -3.08336 0
M  V30 11296 C 1066.99 -5.12031 -1.03062 0
M  V30 11297 H 1068.69 -2.97731 -0.315656 0
M  V30 11298 H 1066.23 -1.43213 -0.150387 0
M  V30 11299 H 1068.19 -3.19951 -2.74243 0
M  V30 11300 H 1066.91 -1.96396 -2.60953 0
M  V30 11301 H 1065.57 -3.49055 -1.12053 0
M  V30 11302 H 1065.22 -3.51659 -3.59646 0
M  V30 11303 H 1064.92 -5.1207 -2.88199 0
M  V30 11304 H 1066.44 -4.81009 -3.76116 0
M  V30 11305 H 1067.86 -5.50555 -1.59881 0
M  V30 11306 H 1066.25 -5.92848 -0.930146 0
M  V30 11307 H 1067.32 -4.84897 -0.017582 0
M  V30 11308 O 1068.71 0.0191043 -1.61489 0
M  V30 11309 H 1069.4 0.638343 -1.82879 0
M  V30 END ATOM
M  V30 BEGIN BOND
M  V30 END BOND
M  V30 END CTAB
M  END
$$$$
