drugbank_target|P0A794 Pyridoxine 5'-phosphate synthase (DB02209; DB02496; DB02515)
 OpenBabel12092119563D

  0  0  0     0  0            999 V3000
M  V30 BEGIN CTAB
M  V30 COUNTS 3711 3733 0 0 0
M  V30 BEGIN ATOM
M  V30 1 H -0.908 1.98254 -0.117106 0
M  V30 2 N 0 1.576 0 0
M  V30 3 C 0.933 2.03868 1.02534 0
M  V30 4 C 1.911 0.928543 1.3348 0
M  V30 5 O 3.095 1.19667 1.45644 0
M  V30 6 C 0.222 2.43627 2.35294 0
M  V30 7 C -0.732 3.65373 2.2001 0
M  V30 8 S 0.101 5.13292 1.52614 0
M  V30 9 C 1.257 5.56322 2.86805 0
M  V30 10 H 1.49 2.90518 0.631377 0
M  V30 11 H -0.977 1.52953 0.210867 0
M  V30 12 H 0.981 2.67203 3.11629 0
M  V30 13 H -0.358 1.57376 2.7183 0
M  V30 14 H -1.165 3.90944 3.18086 0
M  V30 15 H -1.563 3.418 1.51819 0
M  V30 16 H 0.729 5.58782 3.83104 0
M  V30 17 H 1.672 6.56266 2.65933 0
M  V30 18 H 2.08 4.83886 2.90714 0
M  V30 19 N 1.4781 -0.272755 1.55222 0
M  V30 20 C 2.4411 -1.32041 1.87344 0
M  V30 21 C 3.4411 -1.42342 0.74803 0
M  V30 22 O 4.6311 -1.41488 1.0162 0
M  V30 23 C 1.7631 -2.70173 2.07893 0
M  V30 24 H 2.9561 -1.04789 2.80997 0
M  V30 25 H 0.5091 -0.51083 1.47717 0
M  V30 26 H 1.2441 -3.02605 1.16622 0
M  V30 27 H 1.0291 -2.64082 2.89833 0
M  V30 28 H 2.5191 -3.45869 2.34017 0
M  V30 29 N 2.9562 -1.48159 -0.537278 0
M  V30 30 C 3.8662 -1.64807 -1.6696 0
M  V30 31 C 4.8822 -0.530651 -1.65711 0
M  V30 32 O 6.0582 -0.800784 -1.84796 0
M  V30 33 C 3.1232 -1.67708 -3.03438 0
M  V30 34 C 2.1842 -2.91025 -3.156 0
M  V30 35 C 1.4172 -2.93778 -4.45567 0
M  V30 36 O 1.6402 -2.05153 -5.3223 0
M  V30 37 O 0.5742 -3.85868 -4.61941 0
M  V30 38 H 4.4002 -2.6066 -1.55853 0
M  V30 39 H 1.9852 -1.31475 -0.709549 0
M  V30 40 H 3.8672 -1.7218 -3.84619 0
M  V30 41 H 2.5422 -0.750278 -3.14885 0
M  V30 42 H 1.4492 -2.92089 -2.33741 0
M  V30 43 H 2.7822 -3.83065 -3.09066 0
M  V30 44 N 4.4343 0.785586 -1.36625 0
M  V30 45 C 5.3643 1.91259 -1.33949 0
M  V30 46 C 6.3453 1.68795 -0.210325 0
M  V30 47 O 7.5303 1.89854 -0.408561 0
M  V30 48 C 4.6603 3.28339 -1.13186 0
M  V30 49 C 3.6143 3.65335 -2.22967 0
M  V30 50 C 2.9403 5.00806 -1.87342 0
M  V30 51 C 4.2403 3.7352 -3.65075 0
M  V30 52 H 5.9343 1.93755 -2.28253 0
M  V30 53 H 3.4803 0.930788 -1.09874 0
M  V30 54 H 5.4333 4.06804 -1.09948 0
M  V30 55 H 4.1573 3.2624 -0.153332 0
M  V30 56 H 2.8163 2.89169 -2.25337 0
M  V30 57 H 2.4643 4.95233 -0.880545 0
M  V30 58 H 2.1643 5.26529 -2.60846 0
M  V30 59 H 3.6883 5.81687 -1.85667 0
M  V30 60 H 5.1023 4.42168 -3.64911 0
M  V30 61 H 3.4993 4.10731 -4.37516 0
M  V30 62 H 4.5693 2.74527 -3.99703 0
M  V30 63 N 5.9124 1.20967 1.01018 0
M  V30 64 C 6.8424 0.988272 2.11555 0
M  V30 65 C 7.8234 -0.0849778 1.69888 0
M  V30 66 O 9.0084 0.0738202 1.9406 0
M  V30 67 C 6.1384 0.546528 3.42973 0
M  V30 68 C 5.0924 1.56375 3.9841 0
M  V30 69 C 4.4184 0.97842 5.25672 0
M  V30 70 C 5.7184 2.94922 4.31066 0
M  V30 71 H 7.4124 1.91276 2.30334 0
M  V30 72 H 4.9584 0.921073 1.1069 0
M  V30 73 H 6.9114 0.378839 4.19694 0
M  V30 74 H 5.6354 -0.413598 3.23971 0
M  V30 75 H 4.2944 1.71891 3.23804 0
M  V30 76 H 3.9424 0.0101688 5.02999 0
M  V30 77 H 3.6424 1.65784 5.63728 0
M  V30 78 H 5.1664 0.821939 6.05043 0
M  V30 79 H 6.5804 2.8288 4.9865 0
M  V30 80 H 4.9774 3.5983 4.80253 0
M  V30 81 H 6.0474 3.4616 3.39561 0
M  V30 82 N 7.3905 -1.2043 1.01659 0
M  V30 83 C 8.3205 -2.25466 0.607226 0
M  V30 84 C 9.3015 -1.65853 -0.377716 0
M  V30 85 O 10.4865 -1.92409 -0.263149 0
M  V30 86 C 7.6165 -3.47256 -0.0552949 0
M  V30 87 C 6.5705 -4.19462 0.850632 0
M  V30 88 C 5.8965 -5.34673 0.0538859 0
M  V30 89 C 7.1965 -4.75603 2.15868 0
M  V30 90 H 8.8905 -2.59962 1.48526 0
M  V30 91 H 6.4365 -1.2496 0.715605 0
M  V30 92 H 8.3895 -4.19917 -0.353233 0
M  V30 93 H 7.1135 -3.11924 -0.968045 0
M  V30 94 H 5.7725 -3.48667 1.13257 0
M  V30 95 H 5.4205 -4.95585 -0.860514 0
M  V30 96 H 5.1205 -5.83913 0.657192 0
M  V30 97 H 6.6445 -6.10138 -0.237598 0
M  V30 98 H 8.0585 -5.40083 1.92311 0
M  V30 99 H 6.4555 -5.3528 2.71284 0
M  V30 100 H 7.5255 -3.94346 2.82169 0
M  V30 101 N 8.8686 -0.792821 -1.36206 0
M  V30 102 C 10.1166 -0.366062 -1.98757 0
M  V30 103 C 10.4376 1.0668 -1.63231 0
M  V30 104 O 9.7076 1.73587 -0.907978 0
M  V30 105 H 8.2876 -0.132364 -0.735179 0
M  V30 106 H 10.9496 -1.01562 -1.66347 0
M  V30 107 H 10.0456 -0.460638 -3.08682 0
M  V30 108 N 10.3467 1.47872 -0.545128 0
M  V30 109 C 11.5927 2.02793 -0.0166104 0
M  V30 110 C 11.9257 1.41987 1.32489 0
M  V30 111 O 11.2007 0.571045 1.85928 0
M  V30 112 C 11.4837 3.59989 0.0893294 0
M  V30 113 C 11.3367 4.3125 -1.27841 0
M  V30 114 C 12.6557 4.32606 0.808724 0
M  V30 115 H 9.7747 0.736962 -0.00751035 0
M  V30 116 H 12.4167 1.76433 -0.705085 0
M  V30 117 H 10.5667 3.82579 0.675681 0
M  V30 118 H 12.2387 4.20035 -1.90704 0
M  V30 119 H 10.4817 3.92076 -1.85632 0
M  V30 120 H 11.1527 5.39736 -1.15713 0
M  V30 121 H 13.6287 4.14936 0.310992 0
M  V30 122 H 12.5047 5.42251 0.851782 0
M  V30 123 H 12.7657 4.00963 1.86229 0
M  V30 124 N 11.8248 0.280983 1.55075 0
M  V30 125 C 12.7728 -0.619864 2.24188 0
M  V30 126 C 13.7668 -1.15315 1.24092 0
M  V30 127 O 14.9728 -1.1061 1.42005 0
M  V30 128 H 11.3478 -0.218459 0.719569 0
M  V30 129 H 13.3188 -0.0141831 2.98397 0
M  V30 130 C 12.0678 -1.7899 2.98091 0
M  V30 131 H 11.3908 -1.38874 3.74905 0
M  V30 132 H 12.8308 -2.39672 3.49762 0
M  V30 133 C 11.2898 -2.68192 2.03899 0
M  V30 134 O 11.8198 -3.6872 1.594 0
M  V30 135 N 10.0258 -2.35488 1.70275 0
M  V30 136 H 9.5728 -1.53787 2.06658 0
M  V30 137 H 9.5308 -2.95442 1.07524 0
M  V30 138 N 13.3029 -1.57598 0.00835791 0
M  V30 139 C 14.5519 -1.90107 -0.673968 0
M  V30 140 C 14.8649 -0.884275 -1.7447 0
M  V30 141 O 16.0709 -1.09987 -2.48224 0
M  V30 142 C 14.5269 -3.37497 -1.24995 0
M  V30 143 C 14.1349 -4.47491 -0.2136 0
M  V30 144 C 15.8789 -3.79104 -1.90999 0
M  V30 145 C 13.7859 -5.85963 -0.80005 0
M  V30 146 H 12.7159 -0.709393 -0.255495 0
M  V30 147 H 15.3669 -1.83365 0.0702693 0
M  V30 148 H 13.7489 -3.39102 -2.04513 0
M  V30 149 H 14.9229 -4.57414 0.557596 0
M  V30 150 H 13.2379 -4.14956 0.346474 0
M  V30 151 H 15.8349 -4.79901 -2.35795 0
M  V30 152 H 16.1779 -3.1306 -2.74407 0
M  V30 153 H 16.7109 -3.79833 -1.18203 0
M  V30 154 H 13.4499 -6.555 -0.00456708 0
M  V30 155 H 12.9699 -5.79687 -1.54021 0
M  V30 156 H 14.6489 -6.33884 -1.29615 0
M  V30 157 N 14.781 0.264519 -1.55364 0
M  V30 158 C 16.058 1.01677 -1.67096 0
M  V30 159 C 16.438 2.03996 -0.543015 0
M  V30 160 O 15.786 2.23907 0.45585 0
M  V30 161 C 15.996 1.66596 -3.0667 0
M  V30 162 C 17.344 2.17442 -3.64697 0
M  V30 163 O 18.368 1.76568 -3.09358 0
M  V30 164 O 17.227 2.92439 -4.61673 0
M  V30 165 H 14.321 0.472161 -0.678965 0
M  V30 166 H 16.867 0.259703 -1.67701 0
M  V30 167 H 15.639 0.924962 -3.80211 0
M  V30 168 H 15.262 2.48968 -3.10001 0
M  V30 169 N 16.2591 1.48442 0.529413 0
M  V30 170 C 17.2091 1.59407 1.63014 0
M  V30 171 C 18.1931 0.451166 1.54445 0
M  V30 172 O 19.3851 0.702635 1.62456 0
M  V30 173 C 16.5141 1.63746 3.01732 0
M  V30 174 C 15.6001 2.83518 3.15402 0
M  V30 175 N 15.9911 4.07929 2.99045 0
M  V30 176 C 14.2891 2.80862 3.46457 0
M  V30 177 C 14.9901 4.8829 3.16146 0
M  V30 178 N 13.9661 4.21117 3.43746 0
M  V30 179 H 17.7681 2.53343 1.48978 0
M  V30 180 H 15.2821 1.44821 0.734885 0
M  V30 181 H 17.2791 1.69695 3.80801 0
M  V30 182 H 15.9391 0.709264 3.16859 0
M  V30 183 H 16.9501 4.38357 2.75796 0
M  V30 184 H 13.6271 1.97301 3.67938 0
M  V30 185 H 15.0171 5.97028 3.08232 0
M  V30 186 N 17.7372 -0.778329 1.37039 0
M  V30 187 C 18.9862 -1.53189 1.3121 0
M  V30 188 C 19.2992 -1.95328 -0.103095 0
M  V30 189 O 20.5052 -2.70012 -0.283826 0
M  V30 190 C 18.9612 -2.76591 2.30272 0
M  V30 191 C 18.5692 -2.41577 3.77286 0
M  V30 192 C 20.3132 -3.5455 2.33441 0
M  V30 193 C 18.2202 -3.61441 4.68096 0
M  V30 194 H 17.1502 -0.5751 0.487622 0
M  V30 195 H 19.8012 -0.853101 1.62464 0
M  V30 196 H 18.1832 -3.46326 1.92027 0
M  V30 197 H 19.3572 -1.79668 4.2433 0
M  V30 198 H 17.6722 -1.76806 3.76999 0
M  V30 199 H 20.2692 -4.43628 2.98493 0
M  V30 200 H 20.6122 -3.93936 1.34611 0
M  V30 201 H 21.1452 -2.91805 2.7036 0
M  V30 202 H 17.8842 -3.27142 5.6803 0
M  V30 203 H 17.4042 -4.22478 4.25761 0
M  V30 204 H 19.0832 -4.28335 4.8491 0
M  V30 205 N 19.2153 -1.21501 -1.00376 0
M  V30 206 C 20.1783 -0.976927 -2.07337 0
M  V30 207 C 21.1783 0.0525322 -1.60714 0
M  V30 208 O 22.3683 -0.184869 -1.73216 0
M  V30 209 C 19.5003 -0.473423 -3.37597 0
M  V30 210 H 20.6933 -1.92587 -2.29892 0
M  V30 211 H 18.2463 -1.03217 -1.17371 0
M  V30 212 H 18.9813 0.480379 -3.20722 0
M  V30 213 H 18.7663 -1.216 -3.72768 0
M  V30 214 H 20.2563 -0.32675 -4.1632 0
M  V30 215 N 20.6934 1.19889 -1.02296 0
M  V30 216 C 21.9214 1.9339 -0.735399 0
M  V30 217 C 22.3364 1.75148 0.704887 0
M  V30 218 O 21.6934 1.06954 1.47875 0
M  V30 219 C 21.7444 3.45313 -1.06962 0
M  V30 220 O 21.4654 3.62964 -2.45334 0
M  V30 221 C 22.9664 4.35948 -0.804021 0
M  V30 222 H 20.1864 0.61448 -0.269546 0
M  V30 223 H 22.7304 1.522 -1.36585 0
M  V30 224 H 20.8854 3.84359 -0.484455 0
M  V30 225 H 21.2994 4.56886 -2.57595 0
M  V30 226 H 22.7734 5.41174 -1.0879 0
M  V30 227 H 23.2504 4.3842 0.261691 0
M  V30 228 H 23.8564 4.02574 -1.37164 0
M  V30 229 N 22.1715 0.800033 1.35784 0
M  V30 230 C 23.1015 0.220184 2.3246 0
M  V30 231 C 24.0825 -0.65073 1.57161 0
M  V30 232 O 25.2675 -0.582359 1.85263 0
M  V30 233 C 22.3975 -0.637353 3.41402 0
M  V30 234 C 21.3515 0.134531 4.27789 0
M  V30 235 C 20.6775 -0.844285 5.27992 0
M  V30 236 C 21.9775 1.32979 5.05088 0
M  V30 237 H 23.6715 1.02787 2.81203 0
M  V30 238 H 21.2175 0.495717 1.35199 0
M  V30 239 H 23.1705 -1.05302 4.08031 0
M  V30 240 H 21.8945 -1.47785 2.91251 0
M  V30 241 H 20.5535 0.531296 3.6273 0
M  V30 242 H 20.2015 -1.68011 4.74111 0
M  V30 243 H 19.9015 -0.332184 5.8666 0
M  V30 244 H 21.4255 -1.2583 5.97494 0
M  V30 245 H 22.8395 0.98934 5.64699 0
M  V30 246 H 21.2365 1.77593 5.7322 0
M  V30 247 H 22.3065 2.11978 4.36111 0
M  V30 248 N 23.6496 -1.47581 0.552962 0
M  V30 249 C 25.0656 -1.5818 0.212424 0
M  V30 250 C 25.2656 -1.55213 -1.28496 0
M  V30 251 O 24.3216 -1.45329 -2.06484 0
M  V30 252 C 25.6346 -2.88865 0.835318 0
M  V30 253 C 27.1826 -3.0244 0.806156 0
M  V30 254 C 27.6576 -4.35819 1.40804 0
M  V30 255 N 29.1486 -4.42444 1.37103 0
M  V30 256 C 29.8836 -5.44202 1.80641 0
M  V30 257 N 29.3796 -6.52795 2.32015 0
M  V30 258 N 31.1726 -5.35222 1.71738 0
M  V30 259 H 23.3236 -1.47753 1.52587 0
M  V30 260 H 25.5866 -0.702941 0.636064 0
M  V30 261 H 25.2926 -2.9676 1.88749 0
M  V30 262 H 25.1666 -3.7579 0.325848 0
M  V30 263 H 27.5536 -2.94144 -0.237317 0
M  V30 264 H 27.6346 -2.17068 1.35334 0
M  V30 265 H 27.2786 -4.44871 2.45056 0
M  V30 266 H 27.2086 -5.19916 0.836338 0
M  V30 267 H 29.6996 -3.6456 0.995202 0
M  V30 268 H 30.0126 -7.26609 2.63171 0
M  V30 269 H 28.3576 -6.53696 2.36023 0
M  V30 270 H 31.5486 -4.49284 1.31382 0
M  V30 271 H 31.7216 -6.14389 2.05987 0
M  V30 272 N 25.1277 -0.289203 -1.54924 0
M  V30 273 C 26.0757 0.607966 -2.24514 0
M  V30 274 C 27.0697 1.14655 -1.24702 0
M  V30 275 O 28.2757 1.09856 -1.4259 0
M  V30 276 H 24.6507 0.21464 -0.720718 0
M  V30 277 H 26.6217 -0.00164182 -2.984 0
M  V30 278 C 25.3707 1.77406 -2.99036 0
M  V30 279 H 24.6937 1.36884 -3.75637 0
M  V30 280 H 26.1337 2.37814 -3.51028 0
M  V30 281 C 24.5927 2.67107 -2.05318 0
M  V30 282 O 25.1227 3.6787 -1.61353 0
M  V30 283 N 23.3287 2.34582 -1.71521 0
M  V30 284 H 22.8757 1.52688 -2.07471 0
M  V30 285 H 22.8337 2.94867 -1.0909 0
M  V30 286 N 26.6058 1.57591 -0.0167156 0
M  V30 287 C 27.5688 2.08393 0.954204 0
M  V30 288 C 28.5688 0.996531 1.26198 0
M  V30 289 O 29.7588 1.25858 1.20438 0
M  V30 290 C 26.8908 2.5394 2.27436 0
M  V30 291 H 28.0838 2.95455 0.514451 0
M  V30 292 H 25.6368 1.54582 0.231089 0
M  V30 293 H 26.3718 1.70171 2.76066 0
M  V30 294 H 26.1568 3.33371 2.06412 0
M  V30 295 H 27.6468 2.93512 2.97053 0
M  V30 296 N 28.0839 -0.256276 1.55502 0
M  V30 297 C 29.4999 -0.604325 1.47716 0
M  V30 298 C 29.6999 -1.88763 0.705039 0
M  V30 299 O 28.7559 -2.51445 0.230613 0
M  V30 300 C 30.0689 -0.715756 2.92057 0
M  V30 301 C 31.6169 -0.808706 3.02372 0
M  V30 302 C 32.0919 -0.951777 4.48001 0
M  V30 303 N 33.5829 -1.01688 4.519 0
M  V30 304 C 34.3179 -1.14668 5.61817 0
M  V30 305 N 33.8139 -1.24261 6.81565 0
M  V30 306 N 35.6069 -1.1791 5.49594 0
M  V30 307 H 27.7579 0.586291 2.04148 0
M  V30 308 H 30.0209 0.201015 0.926443 0
M  V30 309 H 29.7269 0.157027 3.51349 0
M  V30 310 H 29.6009 -1.59071 3.42018 0
M  V30 311 H 31.9879 -1.67195 2.43166 0
M  V30 312 H 32.0689 0.0912063 2.55637 0
M  V30 313 H 31.7129 -0.0931291 5.07815 0
M  V30 314 H 31.6429 -1.86659 4.92408 0
M  V30 315 H 34.1339 -0.954468 3.65648 0
M  V30 316 H 34.4469 -1.34046 7.61086 0
M  V30 317 H 32.7919 -1.21236 6.84344 0
M  V30 318 H 35.9829 -1.10057 4.54978 0
M  V30 319 H 36.1559 -1.27681 6.35296 0
M  V30 320 N 29.562 -1.4872 -0.521534 0
M  V30 321 C 30.81 -1.56857 -1.27437 0
M  V30 322 C 31.131 -0.247982 -1.93417 0
M  V30 323 O 30.401 0.731151 -1.81744 0
M  V30 324 H 28.981 -0.577885 -0.473347 0
M  V30 325 H 31.643 -1.85233 -0.606205 0
M  V30 326 H 30.739 -2.35402 -2.0492 0
M  V30 327 N 31.0401 0.771051 -1.3745 0
M  V30 328 C 32.2681 1.56015 -1.35893 0
M  V30 329 C 32.6831 1.88718 0.0555523 0
M  V30 330 O 32.0401 1.51502 1.01752 0
M  V30 331 C 32.0911 2.87001 -2.19801 0
M  V30 332 O 31.8121 2.557 -3.55738 0
M  V30 333 C 33.3131 3.81228 -2.26231 0
M  V30 334 H 30.5331 0.483317 -0.465453 0
M  V30 335 H 33.0771 0.955611 -1.80799 0
M  V30 336 H 31.2321 3.43877 -1.78402 0
M  V30 337 H 31.6461 3.39584 -3.99729 0
M  V30 338 H 33.1201 4.70139 -2.89263 0
M  V30 339 H 33.5971 4.20409 -1.27093 0
M  V30 340 H 34.2031 3.30281 -2.67945 0
M  V30 341 N 32.5182 1.22032 0.997298 0
M  V30 342 C 33.4812 0.987909 2.06816 0
M  V30 343 C 34.4812 -0.0440084 1.6074 0
M  V30 344 O 35.6712 0.194053 1.73116 0
M  V30 345 C 32.8032 0.49132 3.37341 0
M  V30 346 H 33.9962 1.93803 2.28868 0
M  V30 347 H 31.5492 1.03838 1.16822 0
M  V30 348 H 32.2842 -0.463364 3.20973 0
M  V30 349 H 32.0692 1.23575 3.72118 0
M  V30 350 H 33.5592 0.348824 4.16141 0
M  V30 351 N 33.9963 -1.19345 1.0293 0
M  V30 352 C 35.2263 -1.92717 0.744563 0
M  V30 353 C 35.6343 -1.75751 -0.700579 0
M  V30 354 O 34.9773 -1.07703 -1.48815 0
M  V30 355 C 35.0393 -3.44828 1.01657 0
M  V30 356 C 34.7033 -3.85564 2.45335 0
M  V30 357 C 35.7003 -3.90286 3.43472 0
M  V30 358 C 33.3853 -4.1719 2.79746 0
M  V30 359 C 35.3793 -4.26065 4.74075 0
M  V30 360 C 33.0663 -4.52642 4.10559 0
M  V30 361 C 34.0643 -4.57054 5.07534 0
M  V30 362 O 33.7523 -4.91685 6.36004 0
M  V30 363 H 33.4843 -0.618977 0.271742 0
M  V30 364 H 36.0383 -1.52415 1.37691 0
M  V30 365 H 34.2683 -3.85314 0.327084 0
M  V30 366 H 35.9573 -3.99437 0.721427 0
M  V30 367 H 36.7233 -3.66002 3.18225 0
M  V30 368 H 32.6023 -4.1294 2.04943 0
M  V30 369 H 36.1463 -4.29423 5.49765 0
M  V30 370 H 32.0433 -4.76383 4.35579 0
M  V30 371 H 32.8113 -5.09631 6.40483 0
M  V30 372 N 35.4744 -0.807222 -1.35358 0
M  V30 373 C 36.8854 -0.44876 -1.81226 0
M  V30 374 C 37.2364 1.02929 -1.67033 0
M  V30 375 O 36.3614 1.79991 -1.20133 0
M  V30 376 C 36.9564 -0.807774 -3.2903 0
M  V30 377 C 35.5154 -0.501901 -3.73039 0
M  V30 378 C 34.6624 -1.03304 -2.57339 0
M  V30 379 H 37.6134 -0.998808 -1.23327 0
M  V30 380 H 37.6344 -0.10554 -3.80354 0
M  V30 381 H 37.1464 -1.88357 -3.39328 0
M  V30 382 H 35.2474 0.565128 -3.68289 0
M  V30 383 H 35.3604 -1.03497 -4.67787 0
M  V30 384 H 33.7244 -0.455339 -2.50597 0
M  V30 385 H 34.5074 -2.11496 -2.70415 0
M  V30 386 N 36.9525 1.47285 -0.560781 0
M  V30 387 C 38.2295 1.9558 0.0277798 0
M  V30 388 C 38.6095 1.5034 1.48192 0
M  V30 389 O 37.9575 0.743882 2.16052 0
M  V30 390 C 38.1675 3.48789 -0.121418 0
M  V30 391 C 39.5155 4.24594 0.0220912 0
M  V30 392 O 40.5395 3.56166 -0.0491439 0
M  V30 393 O 39.3985 5.46217 0.175958 0
M  V30 394 H 36.4925 0.824663 0.0621342 0
M  V30 395 H 39.0385 1.5767 -0.627556 0
M  V30 396 H 37.8105 3.74533 -1.13316 0
M  V30 397 H 37.4335 3.93473 0.571366 0
M  V30 398 N 38.4306 0.297415 1.54768 0
M  V30 399 C 39.8416 -0.195947 1.85669 0
M  V30 400 C 40.1926 -1.53707 1.21937 0
M  V30 401 O 39.3176 -2.10164 0.515754 0
M  V30 402 C 39.9126 -0.362318 3.36857 0
M  V30 403 C 38.4716 -0.799901 3.67802 0
M  V30 404 C 37.6186 0.0938578 2.77141 0
M  V30 405 H 40.5696 0.518538 1.4999 0
M  V30 406 H 40.5906 -1.19745 3.61167 0
M  V30 407 H 40.1026 0.613921 3.83214 0
M  V30 408 H 38.2036 -1.78682 3.26961 0
M  V30 409 H 38.3166 -0.621773 4.75048 0
M  V30 410 H 36.6806 -0.426254 2.51108 0
M  V30 411 H 37.4636 1.06639 3.26318 0
M  V30 412 N 39.9087 -1.5758 0.0250728 0
M  V30 413 C 41.1547 -1.91917 -0.655413 0
M  V30 414 C 41.4877 -0.901433 -1.72011 0
M  V30 415 O 40.7627 0.0764069 -1.9435 0
M  V30 416 C 41.0457 -3.36751 -1.27558 0
M  V30 417 C 40.8987 -4.49258 -0.220719 0
M  V30 418 C 42.2177 -3.81469 -2.19475 0
M  V30 419 H 39.3367 -0.697925 -0.23679 0
M  V30 420 H 41.9787 -1.89825 0.0815036 0
M  V30 421 H 40.1287 -3.38664 -1.90365 0
M  V30 422 H 41.8007 -4.59478 0.409601 0
M  V30 423 H 40.0437 -4.31415 0.454264 0
M  V30 424 H 40.7147 -5.47618 -0.694175 0
M  V30 425 H 43.1907 -3.81266 -1.66659 0
M  V30 426 H 42.0667 -4.83512 -2.59822 0
M  V30 427 H 42.3277 -3.16744 -3.08424 0
M  V30 428 N 41.3868 0.248026 -1.55636 0
M  V30 429 C 42.3188 1.32993 -1.8667 0
M  V30 430 C 43.3318 1.44345 -0.752877 0
M  V30 431 O 44.5208 1.45715 -1.03098 0
M  V30 432 C 41.6208 2.70863 -2.03682 0
M  V30 433 C 40.7938 2.81792 -3.34532 0
M  V30 434 C 39.8528 4.005 -3.41301 0
M  V30 435 O 38.8788 3.9008 -4.14519 0
M  V30 436 N 40.0808 5.13618 -2.70512 0
M  V30 437 H 42.8458 1.06707 -2.8006 0
M  V30 438 H 40.4068 0.438129 -1.55859 0
M  V30 439 H 42.3988 3.48612 -2.05553 0
M  V30 440 H 40.9688 2.89862 -1.17041 0
M  V30 441 H 40.1888 1.90729 -3.44987 0
M  V30 442 H 41.4768 2.86043 -4.20781 0
M  V30 443 H 40.8748 5.24975 -2.10755 0
M  V30 444 H 39.4318 5.89505 -2.78077 0
M  V30 445 N 42.8649 1.48995 0.513639 0
M  V30 446 C 43.8279 1.64229 1.59879 0
M  V30 447 C 44.8279 0.514696 1.5234 0
M  V30 448 O 46.0179 0.78087 1.55718 0
M  V30 449 C 43.1499 1.62783 2.99524 0
M  V30 450 H 44.3429 2.61004 1.47705 0
M  V30 451 H 41.8959 1.37837 0.736936 0
M  V30 452 H 42.6309 0.675461 3.17188 0
M  V30 453 H 42.4159 2.4466 3.06404 0
M  V30 454 H 43.9059 1.76669 3.78388 0
M  V30 455 N 44.343 -0.763751 1.37857 0
M  V30 456 C 45.306 -1.85889 1.34081 0
M  V30 457 C 46.306 -1.58949 0.243277 0
M  V30 458 O 47.496 -1.66882 0.499589 0
M  V30 459 C 44.628 -3.23176 1.08489 0
M  V30 460 H 45.821 -1.90648 2.31502 0
M  V30 461 H 43.374 -0.964367 1.23003 0
M  V30 462 H 44.109 -3.24091 0.116318 0
M  V30 463 H 43.894 -3.44124 1.8794 0
M  V30 464 H 45.384 -4.03254 1.08517 0
M  V30 465 N 45.8211 -1.22559 -0.990812 0
M  V30 466 C 47.0681 -1.05141 -1.73065 0
M  V30 467 C 47.3961 0.413191 -1.9006 0
M  V30 468 O 46.6511 1.32257 -1.44245 0
M  V30 469 C 46.9501 -1.71011 -3.13831 0
M  V30 470 C 46.6161 -3.20911 -3.16745 0
M  V30 471 C 45.2781 -3.61812 -3.17247 0
M  V30 472 C 47.6301 -4.16846 -3.12872 0
M  V30 473 C 44.9581 -4.97127 -3.1158 0
M  V30 474 C 47.3101 -5.5214 -3.08746 0
M  V30 475 C 45.9741 -5.92419 -3.07565 0
M  V30 476 H 45.2441 -0.384738 -0.633291 0
M  V30 477 H 47.8911 -1.5235 -1.16025 0
M  V30 478 H 46.1961 -1.16133 -3.74193 0
M  V30 479 H 47.8931 -1.55023 -3.69823 0
M  V30 480 H 44.4831 -2.88344 -3.17105 0
M  V30 481 H 48.6671 -3.86263 -3.11632 0
M  V30 482 H 43.9231 -5.27562 -3.09012 0
M  V30 483 H 48.0971 -6.26201 -3.04705 0
M  V30 484 H 45.7241 -6.97236 -3.02929 0
M  V30 485 N 47.2992 1.18797 -1.03562 0
M  V30 486 C 48.5482 1.87978 -0.731235 0
M  V30 487 C 48.8612 1.80911 0.743671 0
M  V30 488 O 50.0672 2.45407 1.16137 0
M  V30 489 C 48.5232 3.3721 -1.25768 0
M  V30 490 C 48.1312 3.52818 -2.76085 0
M  V30 491 C 49.8752 4.11825 -1.0296 0
M  V30 492 C 47.7822 4.9598 -3.22114 0
M  V30 493 H 46.7122 0.704063 -0.269835 0
M  V30 494 H 49.3632 1.34266 -1.25079 0
M  V30 495 H 47.7452 3.90359 -0.666011 0
M  V30 496 H 48.9192 3.09965 -3.40966 0
M  V30 497 H 47.2342 2.91602 -2.97249 0
M  V30 498 H 49.8312 5.17411 -1.34869 0
M  V30 499 H 50.1742 4.16287 0.0333546 0
M  V30 500 H 50.7072 3.64833 -1.58562 0
M  V30 501 H 47.4462 4.96684 -4.27768 0
M  V30 502 H 46.9662 5.39569 -2.61965 0
M  V30 503 H 48.6452 5.6467 -3.15844 0
M  V30 504 N 48.7773 0.814389 1.34928 0
M  V30 505 C 49.7403 0.235759 2.27984 0
M  V30 506 C 50.7403 -0.581412 1.49921 0
M  V30 507 O 51.9303 -0.398758 1.69575 0
M  V30 508 C 49.0623 -0.670433 3.34242 0
M  V30 509 H 50.2553 1.05659 2.80671 0
M  V30 510 H 47.8083 0.585614 1.44915 0
M  V30 511 H 48.5433 -1.51466 2.86755 0
M  V30 512 H 48.3283 -0.0860822 3.92005 0
M  V30 513 H 49.8183 -1.06935 4.03676 0
M  V30 514 N 50.2554 -1.46986 0.568584 0
M  V30 515 C 51.1654 -2.33942 -0.17555 0
M  V30 516 C 52.1814 -1.48891 -0.90041 0
M  V30 517 O 53.3574 -1.81794 -0.86676 0
M  V30 518 C 50.4224 -3.25811 -1.18524 0
M  V30 519 C 49.4834 -4.26757 -0.466582 0
M  V30 520 C 48.7164 -5.14236 -1.42817 0
M  V30 521 O 48.9394 -5.04379 -2.66379 0
M  V30 522 O 47.8734 -5.94412 -0.946453 0
M  V30 523 H 51.6994 -2.98896 0.538036 0
M  V30 524 H 49.2844 -1.4573 0.329097 0
M  V30 525 H 51.1664 -3.82527 -1.76779 0
M  V30 526 H 49.8414 -2.63471 -1.88055 0
M  V30 527 H 48.7484 -3.73769 0.157451 0
M  V30 528 H 50.0814 -4.91843 0.187485 0
M  V30 529 N 51.7335 -0.305618 -1.54608 0
M  V30 530 C 52.6655 0.602161 -2.21149 0
M  V30 531 C 53.6785 1.09394 -1.20569 0
M  V30 532 O 54.8675 1.0106 -1.47136 0
M  V30 533 C 51.9675 1.83692 -2.84799 0
M  V30 534 C 51.1405 1.48686 -4.11353 0
M  V30 535 C 50.1995 2.57725 -4.58764 0
M  V30 536 O 49.2255 2.22623 -5.23858 0
M  V30 537 N 50.4275 3.88346 -4.31471 0
M  V30 538 H 53.1925 0.0324966 -2.99682 0
M  V30 539 H 50.7535 -0.128021 -1.61393 0
M  V30 540 H 52.7455 2.55994 -3.13448 0
M  V30 541 H 51.3155 2.31486 -2.10078 0
M  V30 542 H 50.5355 0.596269 -3.89664 0
M  V30 543 H 51.8235 1.22842 -4.93748 0
M  V30 544 H 51.2215 4.19671 -3.79331 0
M  V30 545 H 49.7785 4.56932 -4.64818 0
M  V30 546 N 53.2116 1.57565 -0.0334293 0
M  V30 547 C 54.1746 2.09393 0.932048 0
M  V30 548 C 55.1746 1.00986 1.25134 0
M  V30 549 O 56.3646 1.27129 1.19096 0
M  V30 550 C 53.4966 2.56338 2.2473 0
M  V30 551 H 54.6896 2.95984 0.483085 0
M  V30 552 H 52.2426 1.54819 0.21468 0
M  V30 553 H 52.9776 1.7309 2.74245 0
M  V30 554 H 52.7626 3.35542 2.02865 0
M  V30 555 H 54.2526 2.96646 2.93923 0
M  V30 556 N 54.6897 -0.239769 1.55765 0
M  V30 557 C 55.9377 -0.964892 1.77579 0
M  V30 558 C 56.2587 -1.85582 0.598699 0
M  V30 559 O 55.5287 -1.92075 -0.385226 0
M  V30 560 H 54.1087 -0.359265 0.654933 0
M  V30 561 H 56.7707 -0.256001 1.93211 0
M  V30 562 H 55.8667 -1.58243 2.69009 0
M  V30 563 N 56.1678 -1.49265 -0.50573 0
M  V30 564 C 57.1308 -1.65075 -1.59006 0
M  V30 565 C 58.1308 -0.522768 -1.52065 0
M  V30 566 O 59.3208 -0.789117 -1.55302 0
M  V30 567 C 56.4528 -1.64369 -2.98656 0
M  V30 568 H 57.6458 -2.61784 -1.46319 0
M  V30 569 H 55.1988 -1.38226 -0.729616 0
M  V30 570 H 55.9338 -0.692272 -3.16825 0
M  V30 571 H 55.7188 -2.46282 -3.05103 0
M  V30 572 H 57.2088 -1.78674 -3.77446 0
M  V30 573 N 57.6459 0.756429 -1.3826 0
M  V30 574 C 58.9229 1.50584 -1.24835 0
M  V30 575 C 59.3029 2.10556 0.151485 0
M  V30 576 O 58.6509 1.96825 1.1607 0
M  V30 577 C 58.8609 2.57448 -2.3563 0
M  V30 578 C 60.2089 3.24429 -2.73917 0
M  V30 579 O 61.2329 2.67751 -2.34921 0
M  V30 580 O 60.0919 4.26937 -3.41156 0
M  V30 581 H 57.1859 0.667664 -0.48801 0
M  V30 582 H 59.7319 0.792083 -1.5008 0
M  V30 583 H 58.5039 2.11362 -3.29305 0
M  V30 584 H 58.1269 3.36408 -2.11933 0
M  V30 585 N 59.124 1.23083 0.984299 0
M  V30 586 C 60.372 1.05848 1.72165 0
M  V30 587 C 60.693 -0.406049 1.90726 0
M  V30 588 O 59.963 -1.29139 1.47309 0
M  V30 589 H 58.543 0.388685 0.637913 0
M  V30 590 H 61.205 1.54736 1.18503 0
M  V30 591 H 60.301 1.54327 2.71274 0
M  V30 592 N 60.6021 -1.18246 1.0419 0
M  V30 593 C 61.8511 -1.87588 0.741194 0
M  V30 594 C 62.1641 -1.81303 -0.734066 0
M  V30 595 O 63.3701 -2.46019 -1.14834 0
M  V30 596 C 61.8261 -3.36538 1.27555 0
M  V30 597 C 61.4341 -3.51349 2.77953 0
M  V30 598 C 63.1781 -4.11273 1.05143 0
M  V30 599 C 61.0851 -4.94265 3.2474 0
M  V30 600 H 60.0151 -0.702622 0.273565 0
M  V30 601 H 62.6661 -1.33601 1.25789 0
M  V30 602 H 61.0481 -3.9 0.686703 0
M  V30 603 H 62.2221 -3.08153 3.42605 0
M  V30 604 H 60.5371 -2.90022 2.98791 0
M  V30 605 H 63.1341 -5.16689 1.37611 0
M  V30 606 H 63.4771 -4.16298 -0.0112774 0
M  V30 607 H 64.0101 -3.63987 1.60495 0
M  V30 608 H 60.7491 -4.94408 4.30396 0
M  V30 609 H 60.2691 -5.38172 2.64823 0
M  V30 610 H 61.9481 -5.62987 3.18834 0
M  V30 611 N 62.0802 -0.821533 -1.34494 0
M  V30 612 C 63.3082 -0.421884 -2.02553 0
M  V30 613 C 63.7232 0.971745 -1.61872 0
M  V30 614 O 63.0802 1.62864 -0.823496 0
M  V30 615 C 63.1312 -0.51285 -3.57844 0
M  V30 616 O 62.8522 -1.85155 -3.97051 0
M  V30 617 C 64.3532 -0.107921 -4.43169 0
M  V30 618 H 61.5732 -0.169482 -0.649243 0
M  V30 619 H 64.1172 -1.1093 -1.71798 0
M  V30 620 H 62.2722 0.126474 -3.87193 0
M  V30 621 H 62.6862 -1.82482 -4.91732 0
M  V30 622 H 64.1602 -0.222657 -5.51551 0
M  V30 623 H 64.6372 0.948401 -4.28838 0
M  V30 624 H 65.2432 -0.720989 -4.19144 0
M  V30 625 N 63.5583 1.46682 -0.576371 0
M  V30 626 C 64.8043 2.02712 -0.0596221 0
M  V30 627 C 65.1373 1.44765 1.29448 0
M  V30 628 O 64.4123 0.610355 1.84675 0
M  V30 629 C 64.6953 3.60098 0.0129503 0
M  V30 630 C 64.5483 4.28441 -1.3696 0
M  V30 631 C 65.8673 4.34224 0.71678 0
M  V30 632 H 62.9863 0.736637 -0.0231407 0
M  V30 633 H 65.6283 1.74898 -0.742351 0
M  V30 634 H 63.7783 3.83926 0.594378 0
M  V30 635 H 65.4503 4.15896 -1.9957 0
M  V30 636 H 63.6933 3.8805 -1.93907 0
M  V30 637 H 64.3643 5.3716 -1.27135 0
M  V30 638 H 66.8403 4.15503 0.222908 0
M  V30 639 H 65.7163 5.43936 0.73657 0
M  V30 640 H 65.9773 4.04823 1.77682 0
M  V30 641 N 65.0364 0.313813 1.54444 0
M  V30 642 C 65.9864 -0.571898 2.20711 0
M  V30 643 C 66.9704 -1.08913 1.18435 0
M  V30 644 O 68.1624 -1.02777 1.44104 0
M  V30 645 C 65.2914 -1.7371 2.96108 0
M  V30 646 C 64.3774 -1.23522 4.05713 0
M  V30 647 N 64.7684 -0.452288 5.03774 0
M  V30 648 C 63.0664 -1.51482 4.19487 0
M  V30 649 C 63.7674 -0.183438 5.81411 0
M  V30 650 N 62.7434 -0.766845 5.38164 0
M  V30 651 H 66.5454 0.0336802 2.93881 0
M  V30 652 H 64.0594 0.119192 1.61962 0
M  V30 653 H 66.0564 -2.38329 3.4206 0
M  V30 654 H 64.7164 -2.34625 2.24458 0
M  V30 655 H 65.7274 -0.0960131 5.17811 0
M  V30 656 H 62.4044 -2.13053 3.59047 0
M  V30 657 H 63.7944 0.446216 6.70417 0
M  V30 658 N 66.5145 -1.57545 0.0417849 0
M  V30 659 C 67.4445 -2.14009 -0.933929 0
M  V30 660 C 68.4255 -1.05938 -1.33083 0
M  V30 661 O 69.6105 -1.33833 -1.40721 0
M  V30 662 C 66.7405 -2.67747 -2.21199 0
M  V30 663 C 65.6945 -3.80718 -1.95544 0
M  V30 664 C 65.0205 -4.20935 -3.29724 0
M  V30 665 C 66.3205 -5.06258 -1.28452 0
M  V30 666 H 68.0145 -2.95788 -0.463645 0
M  V30 667 H 65.5605 -1.42285 -0.221573 0
M  V30 668 H 67.5135 -3.05886 -2.89848 0
M  V30 669 H 66.2375 -1.83147 -2.70416 0
M  V30 670 H 64.8965 -3.43037 -1.2931 0
M  V30 671 H 64.5445 -3.33298 -3.76724 0
M  V30 672 H 64.2445 -4.9707 -3.13361 0
M  V30 673 H 65.7685 -4.61666 -3.9962 0
M  V30 674 H 67.1825 -5.41903 -1.8712 0
M  V30 675 H 65.5795 -5.87475 -1.22445 0
M  V30 676 H 66.6495 -4.84207 -0.259219 0
M  V30 677 N 67.9926 0.231505 -1.5589 0
M  V30 678 C 69.4086 0.580748 -1.48659 0
M  V30 679 C 69.6086 1.87617 -0.73498 0
M  V30 680 O 68.6646 2.51046 -0.270586 0
M  V30 681 C 69.9776 0.669202 -2.93159 0
M  V30 682 C 71.5256 0.760499 -3.03621 0
M  V30 683 C 72.0006 0.880383 -4.49459 0
M  V30 684 N 73.4916 0.944861 -4.53461 0
M  V30 685 C 74.2266 1.05716 -5.63571 0
M  V30 686 N 73.7226 1.13403 -6.83456 0
M  V30 687 N 75.5156 1.09152 -5.514 0
M  V30 688 H 67.6666 -0.618695 -2.03189 0
M  V30 689 H 69.9296 -0.215728 -0.923128 0
M  V30 690 H 69.6356 -0.212904 -3.51055 0
M  V30 691 H 69.5096 1.5361 -3.44505 0
M  V30 692 H 71.8966 1.63305 -2.45796 0
M  V30 693 H 71.9776 -0.131864 -2.5546 0
M  V30 694 H 71.6216 0.0123284 -5.07899 0
M  V30 695 H 71.5516 1.78802 -4.95316 0
M  V30 696 H 74.0426 0.896176 -3.6712 0
M  V30 697 H 74.3556 1.21921 -7.63122 0
M  V30 698 H 72.7006 1.10333 -6.86186 0
M  V30 699 H 75.8916 1.02805 -4.56671 0
M  V30 700 H 76.0646 1.17558 -6.37247 0
M  V30 701 N 69.4707 1.49531 0.497807 0
M  V30 702 C 70.3807 1.69176 1.62532 0
M  V30 703 C 71.3967 0.5744 1.64246 0
M  V30 704 O 72.5727 0.849497 1.82608 0
M  V30 705 C 69.6377 1.75695 2.98885 0
M  V30 706 C 68.6987 2.9929 3.07773 0
M  V30 707 C 67.9317 3.05488 4.37622 0
M  V30 708 O 68.1547 2.19192 5.26603 0
M  V30 709 O 67.0887 3.9798 4.51548 0
M  V30 710 H 70.9147 2.647 1.48887 0
M  V30 711 H 68.4997 1.3331 0.674441 0
M  V30 712 H 70.3817 1.82317 3.79919 0
M  V30 713 H 69.0567 0.8335 3.12785 0
M  V30 714 H 67.9637 2.98183 2.25915 0
M  V30 715 H 69.2967 3.91125 2.98801 0
M  V30 716 N 70.9488 -0.749086 1.3866 0
M  V30 717 C 72.2258 -1.4992 1.25632 0
M  V30 718 C 72.6058 -2.10633 -0.140317 0
M  V30 719 O 71.9538 -1.97437 -1.15025 0
M  V30 720 C 72.1638 -2.56195 2.36992 0
M  V30 721 C 73.5118 -3.22972 2.75634 0
M  V30 722 O 74.5358 -2.66502 2.36337 0
M  V30 723 O 73.3948 -4.25122 3.43415 0
M  V30 724 H 70.4888 -0.665067 0.491544 0
M  V30 725 H 73.0348 -0.784113 1.50498 0
M  V30 726 H 71.8068 -2.09612 3.30422 0
M  V30 727 H 71.4298 -3.35279 2.13714 0
M  V30 728 N 72.4269 -1.23603 -0.977757 0
M  V30 729 C 73.8429 -0.999251 -1.24447 0
M  V30 730 C 74.0429 0.298053 -1.99283 0
M  V30 731 O 73.0989 1.01681 -2.31122 0
M  V30 732 C 74.4119 -2.20784 -2.04144 0
M  V30 733 C 75.9599 -2.25303 -2.17273 0
M  V30 734 C 76.4349 -3.45755 -3.00362 0
M  V30 735 N 77.9259 -3.4601 -3.07947 0
M  V30 736 C 78.6609 -4.35868 -3.72568 0
M  V30 737 N 78.1569 -5.35966 -4.38991 0
M  V30 738 N 79.9499 -4.23605 -3.6948 0
M  V30 739 H 72.1009 -2.06986 -0.476483 0
M  V30 740 H 74.3639 -0.907801 -0.273134 0
M  V30 741 H 74.0699 -3.14945 -1.56533 0
M  V30 742 H 73.9439 -2.22085 -3.04891 0
M  V30 743 H 76.3309 -1.3168 -2.64092 0
M  V30 744 H 76.4119 -2.28033 -1.15907 0
M  V30 745 H 76.0559 -4.39687 -2.5424 0
M  V30 746 H 75.9859 -3.40266 -4.01904 0
M  V30 747 H 78.4769 -2.73588 -2.60688 0
M  V30 748 H 78.7899 -6.00783 -4.86086 0
M  V30 749 H 77.1349 -5.39863 -4.37691 0
M  V30 750 H 80.3259 -3.44647 -3.16759 0
M  V30 751 H 80.4989 -4.93836 -4.1956 0
M  V30 752 N 73.905 1.17692 -1.04816 0
M  V30 753 C 75.321 1.39863 -0.768794 0
M  V30 754 C 75.521 1.91118 0.638451 0
M  V30 755 O 74.577 2.10036 1.40146 0
M  V30 756 C 75.89 2.39274 -1.82122 0
M  V30 757 C 77.438 2.52987 -1.843 0
M  V30 758 C 77.913 3.55669 -2.88555 0
M  V30 759 N 79.404 3.63183 -2.87493 0
M  V30 760 C 80.139 4.42381 -3.64811 0
M  V30 761 N 79.635 5.25125 -4.51903 0
M  V30 762 N 81.428 4.37217 -3.53267 0
M  V30 763 H 73.579 0.82752 -1.95617 0
M  V30 764 H 75.842 0.426123 -0.846831 0
M  V30 765 H 75.548 2.08678 -2.83102 0
M  V30 766 H 75.422 3.38725 -1.65967 0
M  V30 767 H 77.809 2.82896 -0.839869 0
M  V30 768 H 77.89 1.53623 -2.04532 0
M  V30 769 H 77.534 3.26499 -3.89051 0
M  V30 770 H 77.464 4.54728 -2.65575 0
M  V30 771 H 79.955 3.04103 -2.24343 0
M  V30 772 H 80.268 5.82728 -5.07591 0
M  V30 773 H 78.613 5.24519 -4.55966 0
M  V30 774 H 81.804 3.71626 -2.84625 0
M  V30 775 H 81.977 4.98696 -4.13771 0
M  V30 776 N 75.3831 0.828654 1.34056 0
M  V30 777 C 76.3331 0.226828 2.26869 0
M  V30 778 C 77.3171 -0.612243 1.48796 0
M  V30 779 O 78.5091 -0.465884 1.70759 0
M  V30 780 C 75.6381 -0.605654 3.37915 0
M  V30 781 C 74.7241 0.244361 4.23395 0
M  V30 782 N 75.1151 1.31815 4.88322 0
M  V30 783 C 73.4131 0.0296616 4.4599 0
M  V30 784 C 74.1141 1.83895 5.51867 0
M  V30 785 N 73.0901 1.14196 5.3147 0
M  V30 786 H 76.8921 1.04811 2.74576 0
M  V30 787 H 74.4061 0.67205 1.47842 0
M  V30 788 H 76.4031 -1.05302 4.03382 0
M  V30 789 H 75.0631 -1.42504 2.91758 0
M  V30 790 H 76.0741 1.70099 4.8917 0
M  V30 791 H 72.7511 -0.757097 4.10578 0
M  V30 792 H 74.1411 2.7376 6.136 0
M  V30 793 N 76.8612 -1.46375 0.584142 0
M  V30 794 C 78.1102 -2.01585 0.0679741 0
M  V30 795 C 78.4232 -1.46109 -1.30045 0
M  V30 796 O 79.6292 -1.93148 -1.90804 0
M  V30 797 C 78.0852 -3.5983 0.0709207 0
M  V30 798 C 77.6932 -4.24303 1.43775 0
M  V30 799 C 79.4372 -4.22693 -0.391228 0
M  V30 800 C 77.3442 -5.74631 1.39834 0
M  V30 801 H 76.2742 -0.753689 0.0216421 0
M  V30 802 H 78.9252 -1.68093 0.736001 0
M  V30 803 H 77.3072 -3.90405 -0.663299 0
M  V30 804 H 78.4812 -4.05335 2.19181 0
M  V30 805 H 76.7962 -3.73539 1.84004 0
M  V30 806 H 79.3932 -5.3289 -0.439524 0
M  V30 807 H 79.7362 -3.91728 -1.40906 0
M  V30 808 H 80.2692 -3.96749 0.288974 0
M  V30 809 H 77.0082 -6.10258 2.39303 0
M  V30 810 H 76.5282 -5.95858 0.686505 0
M  V30 811 H 78.2072 -6.37375 1.11187 0
M  V30 812 N 78.3393 -0.321999 -1.54275 0
M  V30 813 C 79.5673 0.283052 -2.04955 0
M  V30 814 C 79.9823 1.45904 -1.19823 0
M  V30 815 O 79.3393 1.81063 -0.228545 0
M  V30 816 C 79.3903 0.719028 -3.54277 0
M  V30 817 O 79.1113 -0.410175 -4.36176 0
M  V30 818 C 80.6123 1.38705 -4.21041 0
M  V30 819 H 77.8323 0.0584616 -0.668448 0
M  V30 820 H 80.3763 -0.467734 -1.99079 0
M  V30 821 H 78.5313 1.41979 -3.60445 0
M  V30 822 H 78.9453 -0.0669416 -5.24457 0
M  V30 823 H 80.4193 1.64306 -5.2698 0
M  V30 824 H 80.8963 2.33385 -3.72059 0
M  V30 825 H 81.5023 0.728906 -4.19007 0
M  V30 826 N 79.8174 1.5752 -0.0501392 0
M  V30 827 C 81.0944 1.83996 0.663685 0
M  V30 828 C 81.4744 0.938339 1.89099 0
M  V30 829 O 80.8224 -0.00087759 2.285 0
M  V30 830 C 81.0324 3.33702 1.02196 0
M  V30 831 C 82.3804 4.00691 1.40469 0
M  V30 832 O 83.4044 3.38321 1.11433 0
M  V30 833 O 82.2634 5.10658 1.94654 0
M  V30 834 H 79.3574 0.759385 0.32751 0
M  V30 835 H 81.9034 1.69514 -0.0794238 0
M  V30 836 H 80.6754 3.91015 0.149364 0
M  V30 837 H 80.2984 3.53368 1.82255 0
M  V30 838 N 81.2955 -0.223234 1.56011 0
M  V30 839 C 82.7115 -0.572856 1.48965 0
M  V30 840 C 82.9115 -1.87225 0.74492 0
M  V30 841 O 81.9675 -2.50899 0.283896 0
M  V30 842 C 83.2805 -0.653646 2.9351 0
M  V30 843 C 84.8285 -0.744386 3.0402 0
M  V30 844 C 85.3035 -0.856535 4.49919 0
M  V30 845 N 86.7945 -0.9208 4.53955 0
M  V30 846 C 87.5295 -1.02726 5.64123 0
M  V30 847 N 87.0255 -1.09777 6.84047 0
M  V30 848 N 88.8185 -1.06226 5.51971 0
M  V30 849 H 80.9695 0.629462 2.02858 0
M  V30 850 H 83.2325 0.220621 0.921971 0
M  V30 851 H 82.9385 0.231518 3.50937 0
M  V30 852 H 82.8125 -1.51781 3.45315 0
M  V30 853 H 85.1995 -1.61999 2.46658 0
M  V30 854 H 85.2805 0.14541 2.55386 0
M  V30 855 H 84.9245 0.0146069 5.07898 0
M  V30 856 H 84.8545 -1.76172 4.96257 0
M  V30 857 H 87.3455 -0.876694 3.6759 0
M  V30 858 H 87.6585 -1.17872 7.63758 0
M  V30 859 H 86.0035 -1.06693 6.86762 0
M  V30 860 H 89.1945 -1.00382 4.5721 0
M  V30 861 H 89.3675 -1.14177 6.37862 0
M  V30 862 N 82.7736 -1.49793 -0.48987 0
M  V30 863 C 84.0506 -1.50348 -1.25119 0
M  V30 864 C 84.4306 -0.237466 -2.0976 0
M  V30 865 O 83.7786 0.77981 -2.14782 0
M  V30 866 C 83.9886 -2.78872 -2.09837 0
M  V30 867 C 85.3366 -3.288 -2.68655 0
M  V30 868 O 86.3606 -2.80065 -2.20096 0
M  V30 869 O 85.2196 -4.13707 -3.57083 0
M  V30 870 H 82.3136 -0.602242 -0.566775 0
M  V30 871 H 84.8596 -1.62067 -0.503229 0
M  V30 872 H 83.6316 -3.62499 -1.47343 0
M  V30 873 H 83.2546 -2.70066 -2.91805 0
M  V30 874 N 84.2517 0.741722 -1.39055 0
M  V30 875 C 85.4977 1.50336 -1.36113 0
M  V30 876 C 85.8307 1.94148 0.0450796 0
M  V30 877 O 85.1057 1.66301 1.00868 0
M  V30 878 C 85.3887 2.74773 -2.32749 0
M  V30 879 C 85.2417 2.37023 -3.82283 0
M  V30 880 C 86.5607 3.76846 -2.27322 0
M  V30 881 H 83.6797 0.545351 -0.495743 0
M  V30 882 H 86.3217 0.848624 -1.69995 0
M  V30 883 H 84.4717 3.30639 -2.03986 0
M  V30 884 H 86.1437 1.8684 -4.21768 0
M  V30 885 H 84.3867 1.69334 -3.99385 0
M  V30 886 H 85.0577 3.26104 -4.45376 0
M  V30 887 H 87.5337 3.30548 -2.5274 0
M  V30 888 H 86.4097 4.6159 -2.97028 0
M  V30 889 H 86.6707 4.23286 -1.27599 0
M  V30 890 N 85.7298 1.2412 0.971189 0
M  V30 891 C 87.1458 1.00584 1.23916 0
M  V30 892 C 87.3458 -0.287481 1.99439 0
M  V30 893 O 86.4018 -1.00454 2.31658 0
M  V30 894 C 87.7148 2.21864 2.0297 0
M  V30 895 C 89.2628 2.26452 2.16076 0
M  V30 896 C 89.7378 3.47343 2.98524 0
M  V30 897 N 91.2288 3.47639 3.06107 0
M  V30 898 C 91.9638 4.37837 3.70251 0
M  V30 899 N 91.4598 5.38286 4.36142 0
M  V30 900 N 93.2528 4.25558 3.67228 0
M  V30 901 H 85.4038 2.07236 0.465499 0
M  V30 902 H 87.6668 0.909236 0.268315 0
M  V30 903 H 87.3728 3.15771 1.54861 0
M  V30 904 H 87.2468 2.23698 3.03709 0
M  V30 905 H 89.6338 1.33078 2.6339 0
M  V30 906 H 89.7148 2.28645 1.14696 0
M  V30 907 H 89.3588 4.41029 2.51905 0
M  V30 908 H 89.2888 3.42393 4.00093 0
M  V30 909 H 91.7798 2.74966 2.59233 0
M  V30 910 H 92.0928 6.03352 4.82894 0
M  V30 911 H 90.4378 5.42176 4.34822 0
M  V30 912 H 93.6288 3.46322 3.14927 0
M  V30 913 H 93.8018 4.96054 4.16935 0
M  V30 914 N 87.2079 -1.17134 1.05439 0
M  V30 915 C 88.4569 -1.86791 0.761049 0
M  V30 916 C 88.7699 -1.82072 -0.714795 0
M  V30 917 O 89.9759 -2.47223 -1.12218 0
M  V30 918 C 88.4319 -3.35166 1.31117 0
M  V30 919 C 88.0399 -3.48381 2.81664 0
M  V30 920 C 89.7839 -4.10134 1.09499 0
M  V30 921 C 87.6909 -4.90793 3.29964 0
M  V30 922 H 86.6209 -0.699681 0.281002 0
M  V30 923 H 89.2719 -1.3226 1.27199 0
M  V30 924 H 87.6539 -3.8925 0.72803 0
M  V30 925 H 88.8279 -3.04502 3.45855 0
M  V30 926 H 87.1429 -2.86836 3.01851 0
M  V30 927 H 89.7399 -5.152 1.43084 0
M  V30 928 H 90.0829 -4.16287 0.0328772 0
M  V30 929 H 90.6159 -3.62264 1.64346 0
M  V30 930 H 87.3549 -4.89816 4.35616 0
M  V30 931 H 86.8749 -5.35333 2.70516 0
M  V30 932 H 88.5539 -5.59573 3.24787 0
M  V30 933 N 88.686 -0.835752 -1.33615 0
M  V30 934 C 89.616 -0.281739 -2.31794 0
M  V30 935 C 90.597 0.608833 -1.58831 0
M  V30 936 O 91.782 0.533035 -1.86741 0
M  V30 937 C 88.912 0.546612 -3.42971 0
M  V30 938 C 87.866 -0.247904 -4.27281 0
M  V30 939 C 87.192 0.704001 -5.30045 0
M  V30 940 C 88.492 -1.46324 -5.01385 0
M  V30 941 H 90.186 -1.10206 -2.78379 0
M  V30 942 H 87.732 -0.531388 -1.33837 0
M  V30 943 H 89.685 0.944467 -4.1068 0
M  V30 944 H 88.409 1.40011 -2.95067 0
M  V30 945 H 87.068 -0.627281 -3.61194 0
M  V30 946 H 86.716 1.55381 -4.78399 0
M  V30 947 H 86.416 0.176524 -5.87335 0
M  V30 948 H 87.94 1.09944 -6.0062 0
M  V30 949 H 89.354 -1.13871 -5.61877 0
M  V30 950 H 87.751 -1.92728 -5.6831 0
M  V30 951 H 88.821 -2.23467 -4.30338 0
M  V30 952 N 90.1641 1.46063 -0.591896 0
M  V30 953 C 91.5801 1.57561 -0.254288 0
M  V30 954 C 91.7801 1.58565 1.24336 0
M  V30 955 O 90.8361 1.50753 2.02558 0
M  V30 956 C 92.1491 2.86549 -0.911611 0
M  V30 957 C 93.6971 3.00197 -0.886059 0
M  V30 958 C 94.1721 4.31933 -1.5231 0
M  V30 959 N 95.6631 4.38654 -1.48786 0
M  V30 960 C 96.3981 5.39222 -1.95006 0
M  V30 961 N 95.8941 6.46414 -2.49241 0
M  V30 962 N 97.6871 5.3048 -1.85868 0
M  V30 963 H 89.8381 1.43655 -1.56451 0
M  V30 964 H 92.1011 0.68583 -0.654478 0
M  V30 965 H 91.8071 2.91651 -1.96551 0
M  V30 966 H 91.6811 3.74794 -0.425368 0
M  V30 967 H 94.0681 2.9467 0.159246 0
M  V30 968 H 94.1491 2.13403 -1.41041 0
M  V30 969 H 93.7931 4.38217 -2.56765 0
M  V30 970 H 93.7231 5.17516 -0.973891 0
M  V30 971 H 96.2141 3.61793 -1.09151 0
M  V30 972 H 96.5271 7.19376 -2.82344 0
M  V30 973 H 94.8721 6.47208 -2.53272 0
M  V30 974 H 98.0631 4.45643 -1.43248 0
M  V30 975 H 98.2361 6.08711 -2.22204 0
M  V30 976 N 91.6422 0.330177 1.54103 0
M  V30 977 C 92.5742 -0.566902 2.22079 0
M  V30 978 C 93.5872 -1.07462 1.22294 0
M  V30 979 O 94.7762 -0.987065 1.48726 0
M  V30 980 C 91.8762 -1.79138 2.87685 0
M  V30 981 C 91.0492 -1.42123 4.13666 0
M  V30 982 C 90.1082 -2.50394 4.62806 0
M  V30 983 O 89.1342 -2.14261 5.27334 0
M  V30 984 N 90.3362 -3.81433 4.37595 0
M  V30 985 H 93.1012 0.0151844 2.99696 0
M  V30 986 H 90.6622 0.153681 1.61169 0
M  V30 987 H 92.6542 -2.50975 3.1748 0
M  V30 988 H 91.2242 -2.28115 2.13734 0
M  V30 989 H 90.4442 -0.534201 3.90564 0
M  V30 990 H 91.7322 -1.14971 4.9564 0
M  V30 991 H 91.1302 -4.13584 3.8596 0
M  V30 992 H 89.6872 -4.4948 4.72029 0
M  V30 993 N 93.1203 -1.57491 0.0584922 0
M  V30 994 C 94.3483 -1.97296 -0.623037 0
M  V30 995 C 94.7633 -0.936338 -1.63946 0
M  V30 996 O 94.1203 0.0785981 -1.82331 0
M  V30 997 C 94.1713 -3.37183 -1.30345 0
M  V30 998 O 93.8923 -4.36872 -0.32773 0
M  V30 999 C 95.3933 -3.91788 -2.07406 0
M  V30 1000 H 92.6133 -0.649153 -0.169826 0
M  V30 1001 H 95.1573 -2.04106 0.12696 0
M  V30 1002 H 93.3123 -3.31502 -2.00463 0
M  V30 1003 H 93.7263 -5.18141 -0.814269 0
M  V30 1004 H 95.2003 -4.91926 -2.50425 0
M  V30 1005 H 95.6773 -3.27609 -2.92521 0
M  V30 1006 H 96.2833 -4.00829 -1.42184 0
M  V30 1007 N 94.5984 0.214957 -1.56127 0
M  V30 1008 C 95.5284 1.2695 -1.95974 0
M  V30 1009 C 96.5094 1.48539 -0.828868 0
M  V30 1010 O 97.6944 1.60611 -1.09168 0
M  V30 1011 C 94.8244 2.61794 -2.28214 0
M  V30 1012 C 93.7784 2.54851 -3.43853 0
M  V30 1013 C 93.1044 3.93785 -3.61715 0
M  V30 1014 C 94.4044 2.09065 -4.78632 0
M  V30 1015 H 96.0984 0.93846 -2.84312 0
M  V30 1016 H 93.6444 0.449996 -1.36788 0
M  V30 1017 H 95.5974 3.35731 -2.54682 0
M  V30 1018 H 94.3214 2.96599 -1.36736 0
M  V30 1019 H 92.9804 1.8337 -3.17444 0
M  V30 1020 H 92.6284 4.25908 -2.67602 0
M  V30 1021 H 92.3284 3.90019 -4.39498 0
M  V30 1022 H 93.8524 4.69374 -3.90539 0
M  V30 1023 H 95.2664 2.7275 -5.04262 0
M  V30 1024 H 93.6634 2.16346 -5.59745 0
M  V30 1025 H 94.7334 1.04315 -4.73547 0
M  V30 1026 N 96.0765 1.50051 0.48192 0
M  V30 1027 C 97.3535 1.51009 1.2432 0
M  V30 1028 C 97.7335 0.248587 2.09631 0
M  V30 1029 O 97.0815 -0.768409 2.15192 0
M  V30 1030 C 97.2915 2.79981 2.08355 0
M  V30 1031 C 98.6395 3.3022 2.66908 0
M  V30 1032 O 99.6635 2.81228 2.18607 0
M  V30 1033 O 98.5225 4.15595 3.54884 0
M  V30 1034 H 95.6165 0.605239 0.563573 0
M  V30 1035 H 98.1625 1.62332 0.494627 0
M  V30 1036 H 96.9345 3.63275 1.45419 0
M  V30 1037 H 96.5575 2.7161 2.90368 0
M  V30 1038 N 97.5546 -0.734337 1.39446 0
M  V30 1039 C 98.7826 -1.52358 1.39981 0
M  V30 1040 C 99.1976 -1.88799 -0.0054975 0
M  V30 1041 O 98.5546 -1.54146 -0.976998 0
M  V30 1042 C 98.6056 -2.81072 2.27333 0
M  V30 1043 O 98.3266 -2.46178 3.62392 0
M  V30 1044 C 99.8276 -3.75096 2.36259 0
M  V30 1045 H 97.0476 -0.470806 0.478103 0
M  V30 1046 H 99.5916 -0.907339 1.83269 0
M  V30 1047 H 97.7466 -3.39026 1.87457 0
M  V30 1048 H 98.1606 -3.28866 4.08592 0
M  V30 1049 H 99.6346 -4.62305 3.01626 0
M  V30 1050 H 100.112 -4.16892 1.38194 0
M  V30 1051 H 100.718 -3.23061 2.76608 0
M  V30 1052 N 99.0327 -1.24633 -0.964593 0
M  V30 1053 C 100.449 -1.01239 -1.2338 0
M  V30 1054 C 100.649 0.2769 -1.99588 0
M  V30 1055 O 99.7047 0.992241 -2.32187 0
M  V30 1056 C 101.018 -2.22937 -2.01791 0
M  V30 1057 C 102.566 -2.27594 -2.14872 0
M  V30 1058 C 103.041 -3.48921 -2.96678 0
M  V30 1059 N 104.532 -3.49257 -3.04259 0
M  V30 1060 C 105.267 -4.39795 -3.67924 0
M  V30 1061 N 104.763 -5.40591 -4.33281 0
M  V30 1062 N 106.556 -4.275 -3.64966 0
M  V30 1063 H 98.7067 -2.0748 -0.454502 0
M  V30 1064 H 100.97 -0.910647 -0.26349 0
M  V30 1065 H 100.676 -3.16587 -1.53184 0
M  V30 1066 H 100.55 -2.25306 -3.02518 0
M  V30 1067 H 102.937 -1.34473 -2.6268 0
M  V30 1068 H 103.018 -2.2925 -1.13482 0
M  V30 1069 H 102.662 -4.42359 -2.49562 0
M  V30 1070 H 102.592 -3.4451 -3.98272 0
M  V30 1071 H 105.083 -2.76337 -2.57771 0
M  V30 1072 H 105.396 -6.05904 -4.79687 0
M  V30 1073 H 103.741 -5.44475 -4.3194 0
M  V30 1074 H 106.932 -3.47987 -3.13086 0
M  V30 1075 H 107.105 -4.98258 -4.14298 0
M  V30 1076 N 100.511 1.16574 -1.06058 0
M  V30 1077 C 101.444 2.19798 -0.61352 0
M  V30 1078 C 102.422 1.58509 0.362453 0
M  V30 1079 O 103.606 1.86527 0.271994 0
M  V30 1080 C 100.733 3.3855 0.100915 0
M  V30 1081 C 99.7788 4.18317 -0.831438 0
M  V30 1082 S 100.612 4.82375 -2.32539 0
M  V30 1083 C 101.768 6.04508 -1.62238 0
M  V30 1084 H 102.001 2.5738 -1.48805 0
M  V30 1085 H 99.5338 1.27327 -0.873338 0
M  V30 1086 H 101.492 4.07358 0.506898 0
M  V30 1087 H 100.153 2.99338 0.951604 0
M  V30 1088 H 99.3458 5.03232 -0.278071 0
M  V30 1089 H 98.9478 3.5499 -1.17719 0
M  V30 1090 H 101.24 6.71133 -0.926622 0
M  V30 1091 H 102.183 6.64389 -2.44934 0
M  V30 1092 H 102.591 5.53559 -1.106 0
M  V30 1093 N 101.989 0.842826 1.3317 0
M  V30 1094 C 102.937 0.267495 2.31057 0
M  V30 1095 C 103.931 -0.602682 1.58316 0
M  V30 1096 O 105.137 -0.491803 1.73151 0
M  V30 1097 H 101.512 0.0677813 0.748939 0
M  V30 1098 H 103.483 1.10754 2.77085 0
M  V30 1099 C 102.232 -0.539331 3.43492 0
M  V30 1100 H 101.555 0.12095 3.99617 0
M  V30 1101 H 102.995 -0.90767 4.14171 0
M  V30 1102 C 101.454 -1.71981 2.89697 0
M  V30 1103 O 101.984 -2.81862 2.86211 0
M  V30 1104 N 100.19 -1.54299 2.46252 0
M  V30 1105 H 99.7369 -0.649143 2.49287 0
M  V30 1106 H 99.6949 -2.33431 2.10612 0
M  V30 1107 N 103.467 -1.45747 0.599634 0
M  V30 1108 C 104.397 -2.33235 -0.111306 0
M  V30 1109 C 105.378 -1.46359 -0.866781 0
M  V30 1110 O 106.563 -1.75146 -0.838904 0
M  V30 1111 C 103.693 -3.28932 -1.11451 0
M  V30 1112 C 102.647 -4.25381 -0.472772 0
M  V30 1113 C 101.973 -5.1071 -1.58365 0
M  V30 1114 C 103.273 -5.18831 0.600948 0
M  V30 1115 H 104.967 -2.92927 0.61919 0
M  V30 1116 H 102.513 -1.40857 0.299215 0
M  V30 1117 H 104.466 -3.89002 -1.62036 0
M  V30 1118 H 103.19 -2.67381 -1.8755 0
M  V30 1119 H 101.849 -3.66598 0.0121472 0
M  V30 1120 H 101.497 -4.45533 -2.33473 0
M  V30 1121 H 101.197 -5.7604 -1.15982 0
M  V30 1122 H 102.721 -5.73647 -2.09194 0
M  V30 1123 H 104.135 -5.73019 0.179491 0
M  V30 1124 H 102.532 -5.92595 0.946076 0
M  V30 1125 H 103.602 -4.6174 1.48068 0
M  V30 1126 N 104.945 -0.338344 -1.53925 0
M  V30 1127 C 105.855 0.529421 -2.28548 0
M  V30 1128 C 106.871 1.11645 -1.3346 0
M  V30 1129 O 108.047 1.13325 -1.66492 0
M  V30 1130 C 105.112 1.66713 -3.03987 0
M  V30 1131 C 104.173 1.11041 -4.14691 0
M  V30 1132 C 103.406 2.19389 -4.86522 0
M  V30 1133 O 103.629 3.40013 -4.57982 0
M  V30 1134 O 102.563 1.83976 -5.73094 0
M  V30 1135 H 106.389 -0.0770399 -3.03602 0
M  V30 1136 H 103.974 -0.103555 -1.49041 0
M  V30 1137 H 105.856 2.32918 -3.5118 0
M  V30 1138 H 104.531 2.25949 -2.31794 0
M  V30 1139 H 103.438 0.413024 -3.71813 0
M  V30 1140 H 104.771 0.562975 -4.8897 0
M  V30 1141 N 106.423 1.57458 -0.0668435 0
M  V30 1142 C 107.356 2.08033 0.93795 0
M  V30 1143 C 108.334 0.984321 1.29421 0
M  V30 1144 O 109.518 1.25736 1.40437 0
M  V30 1145 C 106.645 2.53388 2.24749 0
M  V30 1146 C 105.691 3.74376 2.04315 0
M  V30 1147 S 106.524 5.19303 1.30706 0
M  V30 1148 C 107.68 5.67986 2.62951 0
M  V30 1149 H 107.913 2.92935 0.50759 0
M  V30 1150 H 105.446 1.5371 0.145804 0
M  V30 1151 H 107.404 2.8018 3.00016 0
M  V30 1152 H 106.065 1.68763 2.64911 0
M  V30 1153 H 105.258 4.04083 3.01218 0
M  V30 1154 H 104.86 3.47931 1.37186 0
M  V30 1155 H 107.152 5.74528 3.5906 0
M  V30 1156 H 108.095 6.66955 2.3786 0
M  V30 1157 H 108.503 4.95781 2.69929 0
M  V30 1158 N 107.901 -0.206675 1.56239 0
M  V30 1159 C 108.864 -1.23976 1.92776 0
M  V30 1160 C 109.864 -1.39041 0.807729 0
M  V30 1161 O 111.054 -1.37051 1.0753 0
M  V30 1162 C 108.186 -2.61112 2.19165 0
M  V30 1163 H 109.379 -0.927764 2.85189 0
M  V30 1164 H 106.932 -0.447718 1.4975 0
M  V30 1165 H 107.667 -2.97386 1.29352 0
M  V30 1166 H 107.452 -2.51552 3.00772 0
M  V30 1167 H 108.942 -3.35633 2.48476 0
M  V30 1168 N 109.379 -1.50304 -0.473955 0
M  V30 1169 C 110.625 -1.61389 -1.22806 0
M  V30 1170 C 110.958 -0.311955 -1.91678 0
M  V30 1171 O 110.233 0.686384 -1.81986 0
M  V30 1172 C 110.516 -2.79219 -2.27396 0
M  V30 1173 C 110.369 -4.19286 -1.62848 0
M  V30 1174 C 111.688 -2.92614 -3.28732 0
M  V30 1175 H 108.807 -0.587399 -0.445119 0
M  V30 1176 H 111.449 -1.82681 -0.522265 0
M  V30 1177 H 109.599 -2.61195 -2.87592 0
M  V30 1178 H 111.271 -4.48892 -1.06271 0
M  V30 1179 H 109.514 -4.23677 -0.931693 0
M  V30 1180 H 110.185 -4.97655 -2.38838 0
M  V30 1181 H 112.661 -3.09105 -2.78556 0
M  V30 1182 H 111.537 -3.76688 -3.99246 0
M  V30 1183 H 111.798 -2.03107 -3.92683 0
M  V30 1184 N 110.857 0.726932 -1.39834 0
M  V30 1185 C 112.085 1.51613 -1.40787 0
M  V30 1186 C 112.5 1.88799 -0.00451505 0
M  V30 1187 O 111.857 1.54662 0.968809 0
M  V30 1188 C 111.908 2.79863 -2.28821 0
M  V30 1189 O 111.629 2.44253 -3.63692 0
M  V30 1190 C 113.13 3.73837 -2.38245 0
M  V30 1191 H 110.35 0.468264 -0.480593 0
M  V30 1192 H 112.894 0.897607 -1.83748 0
M  V30 1193 H 111.049 3.38027 -1.89252 0
M  V30 1194 H 111.463 3.26695 -4.1033 0
M  V30 1195 H 112.937 4.60699 -3.04073 0
M  V30 1196 H 113.414 4.16153 -1.40403 0
M  V30 1197 H 114.02 3.21589 -2.78317 0
M  V30 1198 N 112.336 1.25143 0.95797 0
M  V30 1199 C 113.246 1.06968 2.08794 0
M  V30 1200 C 114.262 0.00773911 1.73998 0
M  V30 1201 O 115.438 0.207972 2.00323 0
M  V30 1202 C 112.503 0.68691 3.39827 0
M  V30 1203 C 111.564 1.82641 3.88511 0
M  V30 1204 C 110.797 1.46181 5.1329 0
M  V30 1205 O 111.02 0.355971 5.69288 0
M  V30 1206 O 109.954 2.29085 5.566 0
M  V30 1207 H 113.78 2.01723 2.27027 0
M  V30 1208 H 111.365 1.04051 1.07209 0
M  V30 1209 H 113.247 0.485417 4.18595 0
M  V30 1210 H 111.922 -0.231417 3.22872 0
M  V30 1211 H 110.829 2.08274 3.10762 0
M  V30 1212 H 112.162 2.72386 4.09959 0
M  V30 1213 N 113.814 -1.1601 1.06675 0
M  V30 1214 C 114.724 -2.24156 0.692179 0
M  V30 1215 C 115.74 -1.71507 -0.293513 0
M  V30 1216 O 116.916 -2.009 -0.141861 0
M  V30 1217 C 113.981 -3.46587 0.0884131 0
M  V30 1218 C 113.042 -4.14257 1.12646 0
M  V30 1219 C 112.275 -5.30844 0.551416 0
M  V30 1220 O 112.498 -5.66858 -0.634656 0
M  V30 1221 O 111.432 -5.87848 1.29298 0
M  V30 1222 H 115.258 -2.58513 1.59388 0
M  V30 1223 H 112.843 -1.23599 0.83926 0
M  V30 1224 H 114.725 -4.20679 -0.246361 0
M  V30 1225 H 113.4 -3.13994 -0.786712 0
M  V30 1226 H 112.307 -3.42118 1.51348 0
M  V30 1227 H 113.64 -4.50914 1.97325 0
M  V30 1228 N 115.292 -0.849877 -1.32721 0
M  V30 1229 C 116.225 -0.235903 -2.26977 0
M  V30 1230 C 117.203 0.623355 -1.50177 0
M  V30 1231 O 118.387 0.581207 -1.79316 0
M  V30 1232 C 115.514 0.667712 -3.32053 0
M  V30 1233 C 114.56 -0.11753 -4.26338 0
M  V30 1234 S 115.393 -1.48277 -5.14562 0
M  V30 1235 C 116.549 -0.584741 -6.23163 0
M  V30 1236 H 116.782 -1.03495 -2.78704 0
M  V30 1237 H 114.315 -0.64724 -1.40179 0
M  V30 1238 H 116.273 1.18343 -3.93072 0
M  V30 1239 H 114.934 1.44052 -2.7912 0
M  V30 1240 H 114.127 0.57051 -5.00761 0
M  V30 1241 H 113.729 -0.564668 -3.69713 0
M  V30 1242 H 116.021 0.212968 -6.77165 0
M  V30 1243 H 116.964 -1.29947 -6.96074 0
M  V30 1244 H 117.372 -0.161202 -5.6427 0
M  V30 1245 N 116.77 1.45427 -0.607355 0
M  V30 1246 C 117.7 2.3329 0.0989352 0
M  V30 1247 C 118.681 1.46816 0.859007 0
M  V30 1248 O 119.866 1.75588 0.829604 0
M  V30 1249 C 116.996 3.29518 1.09705 0
M  V30 1250 C 115.95 4.25626 0.450206 0
M  V30 1251 C 115.276 5.11542 1.55655 0
M  V30 1252 C 116.576 5.18505 -0.628455 0
M  V30 1253 H 118.27 2.92595 -0.634716 0
M  V30 1254 H 115.816 1.40696 -0.306681 0
M  V30 1255 H 117.769 3.89855 1.59971 0
M  V30 1256 H 116.493 2.68372 1.86129 0
M  V30 1257 H 115.152 3.66586 -0.0315886 0
M  V30 1258 H 114.8 4.46765 2.31107 0
M  V30 1259 H 114.5 5.76647 1.12925 0
M  V30 1260 H 116.024 5.74748 2.06148 0
M  V30 1261 H 117.438 5.72916 -0.209877 0
M  V30 1262 H 115.835 5.92085 -0.977489 0
M  V30 1263 H 116.905 4.60948 -1.50514 0
M  V30 1264 N 118.248 0.346503 1.53744 0
M  V30 1265 C 119.211 -0.496439 2.23759 0
M  V30 1266 C 120.211 -1.0252 1.2388 0
M  V30 1267 O 121.401 -0.913974 1.48297 0
M  V30 1268 C 118.533 -1.69187 2.95954 0
M  V30 1269 H 119.726 0.115952 2.99676 0
M  V30 1270 H 117.279 0.0978939 1.55993 0
M  V30 1271 H 118.014 -2.34288 2.24231 0
M  V30 1272 H 117.799 -1.31989 3.69217 0
M  V30 1273 H 119.289 -2.28969 3.49232 0
M  V30 1274 N 119.726 -1.57421 0.075193 0
M  V30 1275 C 120.975 -1.92794 -0.592731 0
M  V30 1276 C 121.288 -0.957478 -1.70563 0
M  V30 1277 O 122.494 -1.20417 -2.43335 0
M  V30 1278 C 120.95 -3.42495 -1.10569 0
M  V30 1279 C 120.558 -4.47994 -0.0236121 0
M  V30 1280 C 122.302 -3.86864 -1.74748 0
M  V30 1281 C 120.209 -5.88829 -0.550803 0
M  V30 1282 H 119.139 -0.719591 -0.225177 0
M  V30 1283 H 121.79 -1.82902 0.147978 0
M  V30 1284 H 120.172 -3.47471 -1.89947 0
M  V30 1285 H 121.346 -4.54637 0.751099 0
M  V30 1286 H 119.661 -4.13113 0.522159 0
M  V30 1287 H 122.258 -4.8947 -2.15229 0
M  V30 1288 H 122.601 -3.24417 -2.60882 0
M  V30 1289 H 123.134 -3.84504 -1.01986 0
M  V30 1290 H 119.873 -6.54929 0.273457 0
M  V30 1291 H 119.393 -5.85698 -1.29296 0
M  V30 1292 H 121.072 -6.38811 -1.02613 0
M  V30 1293 N 121.204 0.198386 -1.56346 0
M  V30 1294 C 122.167 1.22952 -1.93431 0
M  V30 1295 C 123.167 1.38611 -0.815092 0
M  V30 1296 O 124.357 1.36479 -1.08255 0
M  V30 1297 C 121.489 2.59946 -2.20546 0
M  V30 1298 H 122.682 0.912626 -2.85677 0
M  V30 1299 H 120.235 0.43977 -1.49986 0
M  V30 1300 H 120.97 2.96696 -1.30927 0
M  V30 1301 H 120.755 2.49953 -3.02102 0
M  V30 1302 H 122.245 3.3431 -2.50253 0
M  V30 1303 N 122.682 1.50554 0.465978 0
M  V30 1304 C 123.928 1.62038 1.21949 0
M  V30 1305 C 124.261 0.322116 1.9151 0
M  V30 1306 O 123.536 -0.676723 1.82348 0
M  V30 1307 C 123.819 2.80421 2.25912 0
M  V30 1308 C 123.672 4.20144 1.60622 0
M  V30 1309 C 124.991 2.94354 3.27176 0
M  V30 1310 H 122.11 0.589752 0.441998 0
M  V30 1311 H 124.752 1.82956 0.51257 0
M  V30 1312 H 122.902 2.62717 2.86203 0
M  V30 1313 H 124.574 4.49449 1.03889 0
M  V30 1314 H 122.817 4.24165 0.909211 0
M  V30 1315 H 123.488 4.98914 2.36196 0
M  V30 1316 H 125.964 3.10578 2.76913 0
M  V30 1317 H 124.84 3.788 3.97242 0
M  V30 1318 H 125.101 2.05186 3.916 0
M  V30 1319 N 124.16 -0.719506 1.40217 0
M  V30 1320 C 125.07 -1.86378 1.42479 0
M  V30 1321 C 126.086 -1.71073 0.317834 0
M  V30 1322 O 127.262 -1.93406 0.561794 0
M  V30 1323 C 124.327 -3.22136 1.28178 0
M  V30 1324 C 123.388 -3.49723 2.48982 0
M  V30 1325 C 122.621 -4.79004 2.35353 0
M  V30 1326 O 122.844 -5.53821 1.36524 0
M  V30 1327 O 121.778 -5.06839 3.2465 0
M  V30 1328 H 125.604 -1.87425 2.38968 0
M  V30 1329 H 123.189 -0.869405 1.21498 0
M  V30 1330 H 125.071 -4.03234 1.22395 0
M  V30 1331 H 123.746 -3.21825 0.347934 0
M  V30 1332 H 122.653 -2.6865 2.60342 0
M  V30 1333 H 123.986 -3.54828 3.41113 0
M  V30 1334 N 125.638 -1.25649 -0.95132 0
M  V30 1335 C 126.866 -1.13343 -1.73092 0
M  V30 1336 C 127.281 0.312434 -1.86197 0
M  V30 1337 O 126.638 1.21465 -1.36207 0
M  V30 1338 C 126.689 -1.78602 -3.14299 0
M  V30 1339 O 126.41 -3.17537 -3.01831 0
M  V30 1340 C 127.911 -1.72119 -4.08522 0
M  V30 1341 H 125.131 -0.395181 -0.542285 0
M  V30 1342 H 127.675 -1.66076 -1.19328 0
M  V30 1343 H 125.83 -1.29832 -3.64996 0
M  V30 1344 H 126.244 -3.49676 -3.90931 0
M  V30 1345 H 127.718 -2.22435 -5.052 0
M  V30 1346 H 128.195 -0.685635 -4.33815 0
M  V30 1347 H 128.801 -2.20393 -3.63741 0
M  V30 1348 N 127.117 1.15442 -1.07289 0
M  V30 1349 C 128.064 2.20161 -0.692653 0
M  V30 1350 C 129.034 1.63073 0.31564 0
M  V30 1351 O 130.219 1.89725 0.202235 0
M  V30 1352 C 127.359 3.44967 -0.0959509 0
M  V30 1353 C 126.472 4.16256 -1.15564 0
M  V30 1354 C 125.607 5.28609 -0.524011 0
M  V30 1355 C 124.646 5.91715 -1.56653 0
M  V30 1356 N 123.783 6.9554 -0.957531 0
M  V30 1357 H 128.623 2.52037 -1.59002 0
M  V30 1358 H 126.16 1.2378 -0.794798 0
M  V30 1359 H 128.118 4.16341 0.267628 0
M  V30 1360 H 126.748 3.1361 0.764772 0
M  V30 1361 H 125.8 3.43385 -1.6368 0
M  V30 1362 H 127.112 4.59268 -1.94613 0
M  V30 1363 H 126.266 6.06604 -0.108032 0
M  V30 1364 H 125.005 4.86787 0.29825 0
M  V30 1365 H 124.01 5.12433 -1.9923 0
M  V30 1366 H 125.235 6.35614 -2.39107 0
M  V30 1367 H 123.181 6.55814 -0.156162 0
M  V30 1368 H 123.098 7.36977 -1.68526 0
M  V30 1369 H 124.366 7.77435 -0.567032 0
M  V30 1370 N 128.595 0.856903 1.32268 0
M  V30 1371 C 130.006 0.515711 1.79436 0
M  V30 1372 C 130.357 -0.966586 1.70738 0
M  V30 1373 O 129.482 -1.75409 1.26731 0
M  V30 1374 C 130.077 0.929335 3.25805 0
M  V30 1375 C 128.636 0.640006 3.70919 0
M  V30 1376 C 127.783 1.12784 2.53328 0
M  V30 1377 H 130.734 1.04389 1.19535 0
M  V30 1378 H 130.755 0.246633 3.797 0
M  V30 1379 H 130.267 2.00821 3.32103 0
M  V30 1380 H 128.368 -0.428051 3.70133 0
M  V30 1381 H 128.481 1.20788 4.63624 0
M  V30 1382 H 126.845 0.548033 2.48734 0
M  V30 1383 H 127.628 2.21387 2.62379 0
M  V30 1384 N 130.073 -1.45103 0.615059 0
M  V30 1385 C 131.023 -2.27679 -0.120966 0
M  V30 1386 C 132.007 -1.3775 -0.831491 0
M  V30 1387 O 133.199 -1.61683 -0.720249 0
M  V30 1388 C 130.328 -3.24767 -1.1127 0
M  V30 1389 C 129.414 -4.22184 -0.402627 0
M  V30 1390 N 129.805 -5.02692 0.559884 0
M  V30 1391 C 128.103 -4.4125 -0.649202 0
M  V30 1392 C 128.804 -5.73421 0.977942 0
M  V30 1393 N 127.78 -5.42657 0.320104 0
M  V30 1394 H 131.582 -2.87325 0.618181 0
M  V30 1395 H 129.096 -1.56345 0.439304 0
M  V30 1396 H 131.093 -3.82666 -1.65446 0
M  V30 1397 H 129.753 -2.66682 -1.85232 0
M  V30 1398 H 130.764 -5.09354 0.936976 0
M  V30 1399 H 127.441 -3.9428 -1.37293 0
M  V30 1400 H 128.831 -6.48107 1.77222 0
M  V30 1401 N 131.551 -0.354651 -1.53558 0
M  V30 1402 C 132.798 0.238443 -2.01091 0
M  V30 1403 C 133.126 1.49663 -1.24222 0
M  V30 1404 O 132.381 1.93049 -0.321003 0
M  V30 1405 C 132.68 0.587121 -3.52545 0
M  V30 1406 C 132.346 -0.575472 -4.47213 0
M  V30 1407 C 131.008 -0.894497 -4.72813 0
M  V30 1408 C 133.36 -1.35489 -5.03281 0
M  V30 1409 C 130.688 -1.99511 -5.51736 0
M  V30 1410 C 133.04 -2.44583 -5.83405 0
M  V30 1411 C 131.704 -2.77033 -6.07296 0
M  V30 1412 H 130.974 0.0872526 -0.735845 0
M  V30 1413 H 133.621 -0.484859 -1.8526 0
M  V30 1414 H 131.926 1.39129 -3.66265 0
M  V30 1415 H 133.623 1.05809 -3.86789 0
M  V30 1416 H 130.213 -0.316774 -4.27428 0
M  V30 1417 H 134.397 -1.12167 -4.83459 0
M  V30 1418 H 129.653 -2.25063 -5.68469 0
M  V30 1419 H 133.827 -3.05401 -6.25862 0
M  V30 1420 H 131.454 -3.6244 -6.68237 0
M  V30 1421 N 133.029 1.57378 -0.0835403 0
M  V30 1422 C 134.269 1.95808 0.586381 0
M  V30 1423 C 134.633 0.963706 1.66062 0
M  V30 1424 O 135.834 1.23608 2.38693 0
M  V30 1425 C 134.105 3.38808 1.13771 0
M  V30 1426 S 135.664 3.99225 1.82112 0
M  V30 1427 H 132.482 0.684675 0.191679 0
M  V30 1428 H 135.084 1.94843 -0.160194 0
M  V30 1429 H 133.788 4.08954 0.344197 0
M  V30 1430 H 133.319 3.43344 1.92038 0
M  V30 1431 H 135.334 3.87087 3.10449 0
M  V30 1432 N 134.507 -0.190092 1.56449 0
M  V30 1433 C 135.747 -0.916414 1.82705 0
M  V30 1434 C 136.111 -1.80235 0.661763 0
M  V30 1435 O 137.312 -2.56484 0.80433 0
M  V30 1436 C 135.583 -1.70691 3.14005 0
M  V30 1437 S 137.142 -2.48457 3.61683 0
M  V30 1438 H 133.96 -0.307281 0.64117 0
M  V30 1439 H 136.562 -0.179433 1.94675 0
M  V30 1440 H 135.266 -1.04677 3.96826 0
M  V30 1441 H 134.797 -2.48562 3.04927 0
M  V30 1442 H 136.812 -3.72756 3.27517 0
M  V30 1443 N 135.985 -1.50799 -0.457987 0
M  V30 1444 C 136.915 -1.73553 -1.5621 0
M  V30 1445 C 137.896 -0.584774 -1.59732 0
M  V30 1446 O 139.081 -0.825314 -1.7579 0
M  V30 1447 C 136.211 -1.84169 -2.94447 0
M  V30 1448 C 135.165 -2.99461 -3.0579 0
M  V30 1449 C 134.491 -2.95235 -4.45803 0
M  V30 1450 C 135.791 -4.39766 -2.81786 0
M  V30 1451 H 137.485 -2.66 -1.37421 0
M  V30 1452 H 135.031 -1.28002 -0.659662 0
M  V30 1453 H 136.984 -1.98672 -3.71628 0
M  V30 1454 H 135.708 -0.883545 -3.14422 0
M  V30 1455 H 134.367 -2.8463 -2.31044 0
M  V30 1456 H 134.015 -1.97239 -4.62715 0
M  V30 1457 H 133.715 -3.72642 -4.54326 0
M  V30 1458 H 135.239 -3.11803 -5.24987 0
M  V30 1459 H 136.653 -4.55054 -3.4871 0
M  V30 1460 H 135.05 -5.18722 -3.0174 0
M  V30 1461 H 136.12 -4.51229 -1.7754 0
M  V30 1462 N 137.463 0.71206 -1.40597 0
M  V30 1463 C 138.709 1.47416 -1.39271 0
M  V30 1464 C 139.042 1.942 0.00388791 0
M  V30 1465 O 138.317 1.68403 0.973179 0
M  V30 1466 C 138.6 2.69774 -2.38525 0
M  V30 1467 C 138.453 2.28861 -3.87224 0
M  V30 1468 C 139.772 3.71939 -2.35264 0
M  V30 1469 H 136.891 0.534713 -0.5072 0
M  V30 1470 H 139.533 0.812375 -1.71757 0
M  V30 1471 H 137.683 3.26238 -2.10953 0
M  V30 1472 H 139.355 1.77852 -4.25636 0
M  V30 1473 H 137.598 1.60824 -4.02887 0
M  V30 1474 H 138.269 3.16584 -4.52193 0
M  V30 1475 H 140.745 3.25113 -2.59694 0
M  V30 1476 H 139.621 4.55186 -3.06753 0
M  V30 1477 H 139.882 4.20484 -1.36549 0
M  V30 1478 N 138.941 1.26152 0.944643 0
M  V30 1479 C 140.352 1.10454 1.50522 0
M  V30 1480 C 140.703 -0.31635 1.93633 0
M  V30 1481 O 139.828 -1.20746 1.79581 0
M  V30 1482 C 140.423 1.99891 2.73549 0
M  V30 1483 C 138.982 1.88348 3.25886 0
M  V30 1484 C 138.129 1.93447 1.9868 0
M  V30 1485 H 141.08 1.39292 0.760489 0
M  V30 1486 H 141.101 1.54477 3.47732 0
M  V30 1487 H 140.613 3.03297 2.42141 0
M  V30 1488 H 138.714 0.878636 3.62092 0
M  V30 1489 H 138.827 2.73696 3.93227 0
M  V30 1490 H 137.191 1.37456 2.14425 0
M  V30 1491 H 137.974 2.98476 1.69607 0
M  V30 1492 N 140.419 -1.14872 1.07899 0
M  V30 1493 C 141.329 -2.2341 0.715915 0
M  V30 1494 C 142.345 -1.71808 -0.275306 0
M  V30 1495 O 143.521 -2.01039 -0.120545 0
M  V30 1496 C 140.586 -3.46474 0.125168 0
M  V30 1497 C 139.647 -4.13039 1.17034 0
M  V30 1498 C 138.88 -5.30229 0.607688 0
M  V30 1499 O 139.103 -5.675 -0.574497 0
M  V30 1500 O 138.037 -5.86444 1.35526 0
M  V30 1501 H 141.863 -2.56808 1.62121 0
M  V30 1502 H 139.448 -1.22702 0.852322 0
M  V30 1503 H 141.33 -4.20917 -0.201729 0
M  V30 1504 H 140.005 -3.14811 -0.753364 0
M  V30 1505 H 138.912 -3.40493 1.54968 0
M  V30 1506 H 140.245 -4.48796 2.02097 0
M  V30 1507 N 141.898 -0.863906 -1.31812 0
M  V30 1508 C 142.845 -0.313303 -2.28664 0
M  V30 1509 C 143.815 0.584868 -1.55462 0
M  V30 1510 O 145 0.517805 -1.83639 0
M  V30 1511 C 142.14 0.48441 -3.41683 0
M  V30 1512 C 141.253 -0.440594 -4.29747 0
M  V30 1513 C 140.388 0.370652 -5.29905 0
M  V30 1514 C 139.427 -0.551164 -6.09613 0
M  V30 1515 N 138.564 0.223462 -7.01744 0
M  V30 1516 H 143.404 -1.14444 -2.75148 0
M  V30 1517 H 140.941 -0.575769 -1.35364 0
M  V30 1518 H 142.899 0.962627 -4.05943 0
M  V30 1519 H 141.529 1.28029 -2.96325 0
M  V30 1520 H 140.581 -1.03724 -3.65986 0
M  V30 1521 H 141.893 -1.14767 -4.85417 0
M  V30 1522 H 141.047 0.911638 -5.99812 0
M  V30 1523 H 139.786 1.11105 -4.74876 0
M  V30 1524 H 138.791 -1.10396 -5.38603 0
M  V30 1525 H 140.016 -1.29032 -6.66729 0
M  V30 1526 H 137.962 0.946787 -6.49132 0
M  V30 1527 H 137.879 -0.424399 -7.54808 0
M  V30 1528 H 139.147 0.745876 -7.75923 0
M  V30 1529 N 143.376 1.44774 -0.622745 0
M  V30 1530 C 144.792 1.56986 -0.287652 0
M  V30 1531 C 144.992 1.61167 1.20944 0
M  V30 1532 O 144.048 1.55015 1.99315 0
M  V30 1533 C 145.361 2.84551 -0.972188 0
M  V30 1534 C 146.909 2.9825 -0.949536 0
M  V30 1535 C 147.384 4.28605 -1.61437 0
M  V30 1536 N 148.875 4.35399 -1.58057 0
M  V30 1537 C 149.61 5.34964 -2.064 0
M  V30 1538 N 149.106 6.40981 -2.62897 0
M  V30 1539 N 150.899 5.26419 -1.97078 0
M  V30 1540 H 143.05 1.40304 -1.59463 0
M  V30 1541 H 145.313 0.671794 -0.668878 0
M  V30 1542 H 145.019 2.87417 -2.02693 0
M  V30 1543 H 144.893 3.73807 -0.504771 0
M  V30 1544 H 147.28 2.94941 0.0967067 0
M  V30 1545 H 147.361 2.10364 -1.45536 0
M  V30 1546 H 147.005 4.32672 -2.66002 0
M  V30 1547 H 146.935 5.15334 -1.08344 0
M  V30 1548 H 149.426 3.59397 -1.16801 0
M  V30 1549 H 149.739 7.13225 -2.97539 0
M  V30 1550 H 148.084 6.4169 -2.66943 0
M  V30 1551 H 151.275 4.42504 -1.52669 0
M  V30 1552 H 151.448 6.03861 -2.35066 0
M  V30 1553 N 144.854 0.36279 1.53368 0
M  V30 1554 C 145.786 -0.519668 2.23231 0
M  V30 1555 C 146.799 -1.04844 1.24546 0
M  V30 1556 O 147.988 -0.955296 1.50786 0
M  V30 1557 C 145.088 -1.72995 2.9142 0
M  V30 1558 C 144.261 -1.33316 4.16588 0
M  V30 1559 C 143.32 -2.40521 4.68013 0
M  V30 1560 O 142.346 -2.03027 5.3176 0
M  V30 1561 N 143.548 -3.72065 4.45587 0
M  V30 1562 H 146.313 0.078751 2.99597 0
M  V30 1563 H 143.874 0.187833 1.60807 0
M  V30 1564 H 145.866 -2.44184 3.22733 0
M  V30 1565 H 144.436 -2.2353 2.18525 0
M  V30 1566 H 143.656 -0.451236 3.91609 0
M  V30 1567 H 144.944 -1.04432 4.97967 0
M  V30 1568 H 144.342 -4.05304 3.94646 0
M  V30 1569 H 142.899 -4.39366 4.81457 0
M  V30 1570 N 146.332 -1.57332 0.0918853 0
M  V30 1571 C 147.242 -2.17368 -0.882505 0
M  V30 1572 C 148.258 -1.14226 -1.31257 0
M  V30 1573 O 149.434 -1.46582 -1.38115 0
M  V30 1574 C 146.499 -2.73962 -2.12476 0
M  V30 1575 C 145.56 -3.92048 -1.7492 0
M  V30 1576 C 144.793 -4.45933 -2.93223 0
M  V30 1577 O 145.016 -3.98764 -4.07852 0
M  V30 1578 O 143.95 -5.36999 -2.71875 0
M  V30 1579 H 147.776 -3.01031 -0.40172 0
M  V30 1580 H 145.361 -1.48813 -0.132291 0
M  V30 1581 H 147.243 -3.10147 -2.85283 0
M  V30 1582 H 145.918 -1.93347 -2.59613 0
M  V30 1583 H 144.825 -3.6068 -0.993025 0
M  V30 1584 H 146.158 -4.74017 -1.32548 0
M  V30 1585 N 147.81 0.181792 -1.56548 0
M  V30 1586 C 149.056 0.901431 -1.81665 0
M  V30 1587 C 149.389 1.82347 -0.668075 0
M  V30 1588 O 148.664 1.91669 0.330615 0
M  V30 1589 C 148.947 1.70618 -3.17115 0
M  V30 1590 C 148.8 0.807964 -4.42484 0
M  V30 1591 C 150.119 2.67605 -3.49393 0
M  V30 1592 H 147.238 0.32627 -0.660846 0
M  V30 1593 H 149.88 0.168134 -1.89255 0
M  V30 1594 H 148.03 2.33133 -3.10775 0
M  V30 1595 H 149.702 0.19649 -4.60881 0
M  V30 1596 H 147.945 0.115411 -4.33646 0
M  V30 1597 H 148.616 1.40632 -5.33785 0
M  V30 1598 H 151.092 2.15218 -3.56118 0
M  V30 1599 H 149.968 3.20985 -4.45264 0
M  V30 1600 H 150.229 3.47298 -2.73563 0
M  V30 1601 N 149.288 1.51039 0.449983 0
M  V30 1602 C 150.516 1.66869 1.2232 0
M  V30 1603 C 150.931 0.360727 1.85322 0
M  V30 1604 O 150.288 -0.659531 1.70166 0
M  V30 1605 C 150.339 2.77524 2.31652 0
M  V30 1606 O 150.06 4.03252 1.7123 0
M  V30 1607 C 151.561 3.04512 3.2216 0
M  V30 1608 H 148.781 0.560326 0.369155 0
M  V30 1609 H 151.325 1.97385 0.534719 0
M  V30 1610 H 149.48 2.49642 2.96239 0
M  V30 1611 H 149.894 4.64609 2.43389 0
M  V30 1612 H 151.368 3.85551 3.95038 0
M  V30 1613 H 151.845 2.16415 3.8218 0
M  V30 1614 H 152.451 3.34005 2.63288 0
M  V30 1615 N 150.766 -0.704594 1.40972 0
M  V30 1616 C 151.994 -1.49354 1.43182 0
M  V30 1617 C 152.409 -1.88768 0.0345508 0
M  V30 1618 O 151.766 -1.56184 -0.944081 0
M  V30 1619 C 151.817 -2.76187 2.33244 0
M  V30 1620 O 151.538 -2.38436 3.67532 0
M  V30 1621 C 153.039 -3.7 2.44162 0
M  V30 1622 H 150.259 -0.460559 0.487982 0
M  V30 1623 H 152.803 -0.868261 1.85153 0
M  V30 1624 H 150.958 -3.34974 1.94606 0
M  V30 1625 H 151.372 -3.20126 4.15475 0
M  V30 1626 H 152.846 -4.55803 3.11364 0
M  V30 1627 H 153.323 -4.13867 1.47006 0
M  V30 1628 H 153.929 -3.17121 2.83398 0
M  V30 1629 N 152.244 -1.26651 -0.937939 0
M  V30 1630 C 153.154 -1.10276 -2.07066 0
M  V30 1631 C 154.17 -0.0354197 -1.73964 0
M  V30 1632 O 155.346 -0.239816 -1.99967 0
M  V30 1633 C 152.411 -0.740887 -3.38691 0
M  V30 1634 C 151.472 -1.88799 -3.85556 0
M  V30 1635 C 150.705 -1.54329 -5.10899 0
M  V30 1636 O 150.928 -0.446494 -5.6865 0
M  V30 1637 O 149.862 -2.37911 -5.52885 0
M  V30 1638 H 153.688 -2.05309 -2.23789 0
M  V30 1639 H 151.273 -1.05743 -1.0554 0
M  V30 1640 H 153.155 -0.55195 -4.1777 0
M  V30 1641 H 151.83 0.180022 -3.23199 0
M  V30 1642 H 150.737 -2.13191 -3.07409 0
M  V30 1643 H 152.07 -2.78874 -4.05574 0
M  V30 1644 N 153.722 1.14298 -1.08507 0
M  V30 1645 C 154.97 1.84993 -0.813763 0
M  V30 1646 C 155.291 1.83405 0.662393 0
M  V30 1647 O 154.561 1.28319 1.48024 0
M  V30 1648 H 153.141 0.684966 -0.298045 0
M  V30 1649 H 155.803 1.385 -1.37126 0
M  V30 1650 H 154.899 2.89788 -1.15884 0
M  V30 1651 N 155.201 0.870884 1.31352 0
M  V30 1652 C 156.449 0.48132 1.96285 0
M  V30 1653 C 156.77 -0.969813 1.69173 0
M  V30 1654 O 156.04 -1.67998 1.00764 0
M  V30 1655 H 154.62 0.175002 0.726212 0
M  V30 1656 H 157.282 1.11087 1.60143 0
M  V30 1657 H 156.378 0.639825 3.05471 0
M  V30 1658 N 156.679 -1.44442 0.630414 0
M  V30 1659 C 157.609 -2.33418 -0.0618083 0
M  V30 1660 C 158.59 -1.48165 -0.835541 0
M  V30 1661 O 159.775 -1.76886 -0.801564 0
M  V30 1662 C 156.905 -3.31222 -1.04449 0
M  V30 1663 C 155.859 -4.26288 -0.382436 0
M  V30 1664 C 155.185 -5.13954 -1.47497 0
M  V30 1665 C 156.485 -5.1744 0.710865 0
M  V30 1666 H 158.179 -2.91548 0.681184 0
M  V30 1667 H 155.725 -1.40191 0.329026 0
M  V30 1668 H 157.678 -3.92351 -1.53748 0
M  V30 1669 H 156.402 -2.71299 -1.81836 0
M  V30 1670 H 155.061 -3.6649 0.0899054 0
M  V30 1671 H 154.709 -4.50385 -2.2397 0
M  V30 1672 H 154.409 -5.7837 -1.03737 0
M  V30 1673 H 155.933 -5.77955 -1.96979 0
M  V30 1674 H 157.347 -5.72509 0.300996 0
M  V30 1675 H 155.744 -5.90455 1.07156 0
M  V30 1676 H 156.814 -4.58496 1.57829 0
M  V30 1677 N 158.157 -0.370918 -1.53173 0
M  V30 1678 C 159.434 0.273754 -1.93675 0
M  V30 1679 C 159.814 1.65938 -1.3049 0
M  V30 1680 O 159.162 2.23698 -0.465999 0
M  V30 1681 C 159.372 0.318602 -3.47543 0
M  V30 1682 C 160.72 0.556392 -4.20939 0
M  V30 1683 O 161.744 0.399587 -3.53952 0
M  V30 1684 O 160.603 0.862133 -5.39657 0
M  V30 1685 H 157.697 0.165448 -0.810281 0
M  V30 1686 H 160.243 -0.42409 -1.64315 0
M  V30 1687 H 159.015 -0.652687 -3.85818 0
M  V30 1688 H 158.638 1.06212 -3.83151 0
M  V30 1689 N 159.635 1.57281 -0.100228 0
M  V30 1690 C 160.881 1.94826 0.563101 0
M  V30 1691 C 161.214 0.982475 1.67514 0
M  V30 1692 O 160.489 0.0164069 1.94493 0
M  V30 1693 C 160.772 3.42453 1.11346 0
M  V30 1694 C 160.625 4.498 0.00612081 0
M  V30 1695 C 161.944 3.91506 2.01024 0
M  V30 1696 H 159.063 0.708428 0.203221 0
M  V30 1697 H 161.705 1.8922 -0.171979 0
M  V30 1698 H 159.855 3.47361 1.7399 0
M  V30 1699 H 161.527 4.57 -0.628357 0
M  V30 1700 H 159.77 4.28756 -0.659581 0
M  V30 1701 H 160.441 5.50306 0.432109 0
M  V30 1702 H 162.917 3.88784 1.48278 0
M  V30 1703 H 161.793 4.95358 2.36457 0
M  V30 1704 H 162.054 3.31099 2.92961 0
M  V30 1705 N 161.113 -0.173488 1.56642 0
M  V30 1706 C 162.076 -1.19859 1.95362 0
M  V30 1707 C 163.076 -1.37296 0.83704 0
M  V30 1708 O 164.266 -1.34739 1.10413 0
M  V30 1709 C 161.398 -2.56405 2.24654 0
M  V30 1710 H 162.591 -0.867062 2.87092 0
M  V30 1711 H 160.144 -0.415853 1.50666 0
M  V30 1712 H 160.879 -2.94576 1.35631 0
M  V30 1713 H 160.664 -2.45115 3.06041 0
M  V30 1714 H 162.154 -3.30287 2.5554 0
M  V30 1715 N 162.591 -1.51276 -0.441967 0
M  V30 1716 C 163.839 -1.63392 -1.18943 0
M  V30 1717 C 164.16 -0.350159 -1.9183 0
M  V30 1718 O 163.43 0.633784 -1.85364 0
M  V30 1719 H 162.01 -0.602164 -0.442049 0
M  V30 1720 H 164.672 -1.88186 -0.507165 0
M  V30 1721 H 163.768 -2.45934 -1.92154 0
M  V30 1722 N 164.069 0.697108 -1.41344 0
M  V30 1723 C 165.001 1.8224 -1.39001 0
M  V30 1724 C 166.014 1.60152 -0.292428 0
M  V30 1725 O 167.203 1.69684 -0.554048 0
M  V30 1726 C 164.303 3.18976 -1.14489 0
M  V30 1727 C 163.476 3.68105 -2.36258 0
M  V30 1728 C 162.535 4.83506 -2.07625 0
M  V30 1729 O 161.561 4.95201 -2.8065 0
M  V30 1730 N 162.763 5.70637 -1.06555 0
M  V30 1731 H 165.528 1.84742 -2.35988 0
M  V30 1732 H 163.089 0.87937 -1.35936 0
M  V30 1733 H 165.081 3.93801 -0.932885 0
M  V30 1734 H 163.651 3.11508 -0.261043 0
M  V30 1735 H 162.871 2.84204 -2.7317 0
M  V30 1736 H 164.159 3.97667 -3.17393 0
M  V30 1737 H 163.557 5.63817 -0.461125 0
M  V30 1738 H 162.114 6.45368 -0.913444 0
M  V30 1739 N 165.547 1.27147 0.931209 0
M  V30 1740 C 166.963 1.04475 1.20653 0
M  V30 1741 C 167.163 -0.223885 2.00252 0
M  V30 1742 O 166.219 -0.930332 2.34736 0
M  V30 1743 C 167.532 2.28209 1.95809 0
M  V30 1744 C 169.08 2.33211 2.08762 0
M  V30 1745 C 169.555 3.56665 2.87323 0
M  V30 1746 N 171.046 3.57201 2.94892 0
M  V30 1747 C 171.781 4.49395 3.56134 0
M  V30 1748 N 171.277 5.51889 4.18796 0
M  V30 1749 N 173.07 4.37026 3.53504 0
M  V30 1750 H 165.221 2.08612 0.399333 0
M  V30 1751 H 167.484 0.917312 0.239253 0
M  V30 1752 H 167.19 3.20538 1.44736 0
M  V30 1753 H 167.064 2.33247 2.96438 0
M  V30 1754 H 169.451 1.41391 2.59023 0
M  V30 1755 H 169.532 2.32178 1.07364 0
M  V30 1756 H 169.176 4.4882 2.37746 0
M  V30 1757 H 169.106 3.54948 3.88998 0
M  V30 1758 H 171.597 2.83074 2.50354 0
M  V30 1759 H 171.91 6.18409 4.63454 0
M  V30 1760 H 170.255 5.55735 4.17353 0
M  V30 1761 H 173.446 3.56166 3.03749 0
M  V30 1762 H 173.619 5.09067 4.00942 0
M  V30 1763 N 167.025 -1.13721 1.09112 0
M  V30 1764 C 168.302 -1.81155 0.737706 0
M  V30 1765 C 168.682 -1.96253 -0.777683 0
M  V30 1766 O 168.03 -1.52807 -1.69889 0
M  V30 1767 C 168.24 -3.16392 1.47299 0
M  V30 1768 C 169.588 -3.91787 1.63671 0
M  V30 1769 O 170.612 -3.26005 1.43524 0
M  V30 1770 O 169.471 -5.0977 1.96969 0
M  V30 1771 H 166.565 -0.783518 0.26463 0
M  V30 1772 H 169.111 -1.20676 1.19312 0
M  V30 1773 H 167.883 -3.0061 2.50498 0
M  V30 1774 H 167.506 -3.8457 1.00953 0
M  V30 1775 N 168.503 -0.877838 -1.30888 0
M  V30 1776 C 169.45 -0.337538 -2.28318 0
M  V30 1777 C 170.42 0.568346 -1.56074 0
M  V30 1778 O 171.605 0.498298 -1.84178 0
M  V30 1779 C 168.745 0.448142 -3.42178 0
M  V30 1780 C 167.858 -0.48615 -4.29256 0
M  V30 1781 C 166.993 0.314427 -5.30269 0
M  V30 1782 C 166.032 -0.615791 -6.08995 0
M  V30 1783 N 165.169 0.14902 -7.01942 0
M  V30 1784 H 170.009 -1.17356 -2.73919 0
M  V30 1785 H 167.546 -0.590094 -1.34745 0
M  V30 1786 H 169.504 0.919517 -4.06941 0
M  V30 1787 H 168.134 1.24879 -2.97666 0
M  V30 1788 H 167.186 -1.076 -3.64865 0
M  V30 1789 H 168.498 -1.19909 -4.84173 0
M  V30 1790 H 167.652 0.847969 -6.00745 0
M  V30 1791 H 166.391 1.06062 -4.76027 0
M  V30 1792 H 165.396 -1.16102 -5.37401 0
M  V30 1793 H 166.621 -1.36097 -6.65323 0
M  V30 1794 H 164.567 0.877884 -6.50099 0
M  V30 1795 H 164.484 -0.504433 -7.54315 0
M  V30 1796 H 165.752 0.663537 -7.76671 0
M  V30 1797 N 169.982 1.44106 -0.638065 0
M  V30 1798 C 170.915 2.27924 0.112161 0
M  V30 1799 C 171.893 1.38945 0.844574 0
M  V30 1800 O 173.077 1.68386 0.847248 0
M  V30 1801 C 170.204 3.18029 1.16512 0
M  V30 1802 C 169.25 4.23163 0.532458 0
M  V30 1803 S 170.083 5.31131 -0.682666 0
M  V30 1804 C 171.239 6.24805 0.37013 0
M  V30 1805 H 171.472 2.91205 -0.598887 0
M  V30 1806 H 169.005 1.48394 -0.426441 0
M  V30 1807 H 170.963 3.70492 1.76766 0
M  V30 1808 H 169.624 2.53955 1.8484 0
M  V30 1809 H 168.817 4.86252 1.32571 0
M  V30 1810 H 168.419 3.74 0.00437644 0
M  V30 1811 H 170.711 6.66042 1.24071 0
M  V30 1812 H 171.654 7.07741 -0.225349 0
M  V30 1813 H 172.062 5.60154 0.699141 0
M  V30 1814 N 171.46 0.379036 1.52974 0
M  V30 1815 C 172.876 0.0285448 1.59574 0
M  V30 1816 C 173.076 -1.45542 1.39355 0
M  V30 1817 O 172.132 -2.2187 1.20541 0
M  V30 1818 C 173.445 0.496535 2.96572 0
M  V30 1819 C 174.993 0.451909 3.0972 0
M  V30 1820 C 175.468 0.895924 4.49152 0
M  V30 1821 N 176.959 0.851522 4.55306 0
M  V30 1822 C 177.694 1.16661 5.61407 0
M  V30 1823 N 177.19 1.55166 6.752 0
M  V30 1824 N 178.983 1.08853 5.51459 0
M  V30 1825 H 171.134 1.34525 1.64367 0
M  V30 1826 H 173.397 0.550733 0.771619 0
M  V30 1827 H 173.103 1.53258 3.16552 0
M  V30 1828 H 172.977 -0.109802 3.7704 0
M  V30 1829 H 175.364 -0.575029 2.89443 0
M  V30 1830 H 175.445 1.09392 2.3123 0
M  V30 1831 H 175.089 1.92104 4.70168 0
M  V30 1832 H 175.019 0.23103 5.26093 0
M  V30 1833 H 177.51 0.568038 3.73606 0
M  V30 1834 H 177.823 1.776 7.52116 0
M  V30 1835 H 176.168 1.59044 6.76557 0
M  V30 1836 H 179.359 0.786803 4.6144 0
M  V30 1837 H 179.532 1.33742 6.34048 0
M  V30 1838 N 172.938 -1.57226 0.108567 0
M  V30 1839 C 174.215 -1.86333 -0.594939 0
M  V30 1840 C 174.595 -1.00788 -1.85486 0
M  V30 1841 O 173.943 -0.0839293 -2.28346 0
M  V30 1842 C 174.153 -3.37265 -0.897405 0
M  V30 1843 C 175.501 -4.05629 -1.25501 0
M  V30 1844 O 176.525 -3.42224 -0.987998 0
M  V30 1845 O 175.384 -5.17531 -1.75567 0
M  V30 1846 H 172.478 -0.771018 -0.2991 0
M  V30 1847 H 175.024 -1.69102 0.142283 0
M  V30 1848 H 173.796 -3.913 -0.00413806 0
M  V30 1849 H 173.419 -3.59889 -1.69014 0
M  V30 1850 N 174.416 0.165178 -1.56732 0
M  V30 1851 C 175.379 1.18822 -1.95995 0
M  V30 1852 C 176.379 1.3685 -0.84431 0
M  V30 1853 O 177.569 1.34152 -1.11126 0
M  V30 1854 C 174.701 2.5521 -2.26011 0
M  V30 1855 H 175.894 0.851825 -2.87548 0
M  V30 1856 H 173.447 0.407857 -1.50885 0
M  V30 1857 H 174.182 2.93852 -1.37191 0
M  V30 1858 H 173.967 2.43489 -3.07336 0
M  V30 1859 H 175.457 3.28927 -2.57288 0
M  V30 1860 N 175.894 1.51508 0.433938 0
M  V30 1861 C 177.134 1.66006 1.19253 0
M  V30 1862 C 177.498 0.369868 1.88404 0
M  V30 1863 O 178.699 0.39066 2.65946 0
M  V30 1864 C 176.97 2.83229 2.17981 0
M  V30 1865 S 178.529 3.18075 3.02281 0
M  V30 1866 H 175.347 0.584821 0.404358 0
M  V30 1867 H 177.949 1.89425 0.48357 0
M  V30 1868 H 176.653 3.75407 1.65824 0
M  V30 1869 H 176.184 2.6201 2.93453 0
M  V30 1870 H 178.199 2.64772 4.19655 0
M  V30 1871 N 177.372 -0.689602 1.41712 0
M  V30 1872 C 178.319 -1.80345 1.44029 0
M  V30 1873 C 179.289 -1.63478 0.293948 0
M  V30 1874 O 180.474 -1.84244 0.495869 0
M  V30 1875 C 177.614 -3.18272 1.33405 0
M  V30 1876 C 176.727 -3.46529 2.57956 0
M  V30 1877 C 175.862 -4.74103 2.39582 0
M  V30 1878 C 174.901 -4.95347 3.5958 0
M  V30 1879 N 174.038 -6.14151 3.40239 0
M  V30 1880 H 178.878 -1.77698 2.39222 0
M  V30 1881 H 176.415 -0.867688 1.18784 0
M  V30 1882 H 178.373 -3.97956 1.25246 0
M  V30 1883 H 177.003 -3.2008 0.418164 0
M  V30 1884 H 176.055 -2.61207 2.76542 0
M  V30 1885 H 177.367 -3.58126 3.47199 0
M  V30 1886 H 176.521 -5.61853 2.28924 0
M  V30 1887 H 175.26 -4.64763 1.47805 0
M  V30 1888 H 174.265 -4.06044 3.70686 0
M  V30 1889 H 175.49 -5.06542 4.52318 0
M  V30 1890 H 173.436 -6.06013 2.51167 0
M  V30 1891 H 173.353 -6.26543 4.23061 0
M  V30 1892 H 174.621 -7.04619 3.33365 0
M  V30 1893 N 178.85 -1.27639 -0.924453 0
M  V30 1894 C 180.266 -1.05113 -1.20097 0
M  V30 1895 C 180.466 0.213262 -2.00368 0
M  V30 1896 O 179.522 0.91787 -2.35226 0
M  V30 1897 C 180.835 -2.29244 -1.94596 0
M  V30 1898 C 182.383 -2.34315 -2.07522 0
M  V30 1899 C 182.858 -3.58183 -2.85427 0
M  V30 1900 N 184.349 -3.5876 -2.92994 0
M  V30 1901 C 185.084 -4.51277 -3.53746 0
M  V30 1902 N 184.58 -5.54102 -4.15863 0
M  V30 1903 N 186.373 -4.38894 -3.51181 0
M  V30 1904 H 178.524 -2.08821 -0.388264 0
M  V30 1905 H 180.787 -0.918568 -0.234385 0
M  V30 1906 H 180.493 -3.21301 -1.43034 0
M  V30 1907 H 180.367 -2.34816 -2.95197 0
M  V30 1908 H 182.754 -1.42762 -2.58269 0
M  V30 1909 H 182.835 -2.32744 -1.06131 0
M  V30 1910 H 182.479 -4.50074 -2.35363 0
M  V30 1911 H 182.409 -3.57006 -3.8711 0
M  V30 1912 H 184.9 -2.84398 -2.4885 0
M  V30 1913 H 185.213 -6.20859 -4.60168 0
M  V30 1914 H 183.558 -5.57941 -4.144 0
M  V30 1915 H 186.749 -3.57772 -3.01856 0
M  V30 1916 H 186.922 -5.11186 -3.98237 0
M  V30 1917 N 180.328 1.1314 -1.09713 0
M  V30 1918 C 181.258 2.20748 -0.761102 0
M  V30 1919 C 182.239 1.68061 0.262566 0
M  V30 1920 O 183.424 1.93765 0.129977 0
M  V30 1921 C 180.554 3.46812 -0.184054 0
M  V30 1922 C 179.508 4.12606 -1.13757 0
M  V30 1923 C 178.834 5.33031 -0.422083 0
M  V30 1924 C 180.134 4.59603 -2.48118 0
M  V30 1925 H 181.828 2.49113 -1.66082 0
M  V30 1926 H 179.374 1.19734 -0.799987 0
M  V30 1927 H 181.327 4.21353 0.0631215 0
M  V30 1928 H 180.051 3.17851 0.750868 0
M  V30 1929 H 178.71 3.40036 -1.37007 0
M  V30 1930 H 178.358 5.00335 0.517072 0
M  V30 1931 H 178.058 5.77999 -1.05788 0
M  V30 1932 H 179.582 6.10325 -0.183277 0
M  V30 1933 H 180.996 5.25552 -2.29059 0
M  V30 1934 H 179.393 5.15321 -3.07514 0
M  V30 1935 H 180.463 3.73971 -3.08665 0
M  V30 1936 N 181.806 0.884767 1.30421 0
M  V30 1937 C 182.769 0.356277 2.26414 0
M  V30 1938 C 183.769 -0.501124 1.52792 0
M  V30 1939 O 184.959 -0.30831 1.7145 0
M  V30 1940 C 182.091 -0.492316 3.37326 0
M  V30 1941 H 183.284 1.20389 2.74675 0
M  V30 1942 H 180.837 0.661607 1.41607 0
M  V30 1943 H 181.572 -1.36052 2.94381 0
M  V30 1944 H 181.357 0.121832 3.91911 0
M  V30 1945 H 182.847 -0.853871 4.08777 0
M  V30 1946 N 183.284 -1.43765 0.645699 0
M  V30 1947 C 184.561 -1.9541 0.0862963 0
M  V30 1948 C 184.941 -1.58725 -1.39175 0
M  V30 1949 O 184.289 -0.868581 -2.11348 0
M  V30 1950 C 184.499 -3.47488 0.324565 0
M  V30 1951 C 185.847 -4.24001 0.225497 0
M  V30 1952 O 186.871 -3.55274 0.256715 0
M  V30 1953 O 185.73 -5.46313 0.142801 0
M  V30 1954 H 182.824 -0.826882 -0.0139483 0
M  V30 1955 H 185.37 -1.53743 0.718415 0
M  V30 1956 H 184.142 -3.67289 1.3496 0
M  V30 1957 H 183.765 -3.96135 -0.340987 0
M  V30 1958 N 184.763 -0.387143 -1.52771 0
M  V30 1959 C 185.726 0.436939 -2.24997 0
M  V30 1960 C 186.726 0.991991 -1.26555 0
M  V30 1961 O 187.916 0.874335 -1.50669 0
M  V30 1962 C 185.048 1.61281 -3.00335 0
M  V30 1963 H 186.241 -0.195365 -2.99263 0
M  V30 1964 H 183.794 -0.139218 -1.55679 0
M  V30 1965 H 184.529 2.2826 -2.30364 0
M  V30 1966 H 184.314 1.22154 -3.72587 0
M  V30 1967 H 185.804 2.19629 -3.5518 0
M  V30 1968 N 186.241 1.57166 -0.116904 0
M  V30 1969 C 187.489 1.94737 0.540533 0
M  V30 1970 C 187.81 1.00096 1.67349 0
M  V30 1971 O 187.08 0.0568854 1.95817 0
M  V30 1972 H 185.66 0.718981 0.202669 0
M  V30 1973 H 188.322 1.94017 -0.185353 0
M  V30 1974 H 187.418 2.97719 0.936483 0
M  V30 1975 N 187.719 -0.156864 1.56817 0
M  V30 1976 C 188.968 -0.869504 1.81996 0
M  V30 1977 C 189.281 -1.82777 0.696545 0
M  V30 1978 O 190.487 -2.58384 0.833658 0
M  V30 1979 C 188.943 -1.59679 3.22538 0
M  V30 1980 C 188.551 -0.681431 4.42787 0
M  V30 1981 C 190.295 -2.2968 3.56997 0
M  V30 1982 C 188.202 -1.40978 5.74351 0
M  V30 1983 H 187.132 -0.328438 0.678708 0
M  V30 1984 H 189.783 -0.1223 1.83092 0
M  V30 1985 H 188.165 -2.38927 3.158 0
M  V30 1986 H 189.339 0.0751166 4.60739 0
M  V30 1987 H 187.654 -0.0903431 4.16302 0
M  V30 1988 H 190.251 -2.84794 4.52544 0
M  V30 1989 H 190.594 -3.05707 2.82576 0
M  V30 1990 H 191.127 -1.57361 3.65352 0
M  V30 1991 H 187.866 -0.691561 6.51842 0
M  V30 1992 H 187.386 -2.13929 5.60352 0
M  V30 1993 H 189.065 -1.95337 6.16808 0
M  V30 1994 N 189.197 -1.51736 -0.425897 0
M  V30 1995 C 190.129 -1.70083 -1.53638 0
M  V30 1996 C 191.142 -0.581349 -1.52066 0
M  V30 1997 O 192.331 -0.856017 -1.56635 0
M  V30 1998 C 189.431 -1.71078 -2.9255 0
M  V30 1999 C 188.604 -2.99795 -3.185 0
M  V30 2000 C 187.663 -2.92825 -4.37196 0
M  V30 2001 O 186.689 -3.66756 -4.35291 0
M  V30 2002 N 187.891 -2.0946 -5.41393 0
M  V30 2003 H 190.656 -2.65882 -1.383 0
M  V30 2004 H 188.217 -1.49765 -0.614988 0
M  V30 2005 H 190.209 -1.63969 -3.69995 0
M  V30 2006 H 188.779 -0.828242 -3.01428 0
M  V30 2007 H 187.999 -3.20684 -2.2925 0
M  V30 2008 H 189.287 -3.84977 -3.32671 0
M  V30 2009 H 188.685 -1.48792 -5.45781 0
M  V30 2010 H 187.242 -2.08221 -6.17647 0
M  V30 2011 N 190.675 0.682077 -1.42076 0
M  V30 2012 C 191.921 1.44428 -1.42367 0
M  V30 2013 C 192.254 1.94164 -0.0373056 0
M  V30 2014 O 191.529 1.70429 0.937239 0
M  V30 2015 C 191.812 2.64654 -2.44194 0
M  V30 2016 C 191.665 2.20596 -3.91991 0
M  V30 2017 C 192.984 3.66865 -2.431 0
M  V30 2018 H 190.103 0.523834 -0.518428 0
M  V30 2019 H 192.745 0.77576 -1.73442 0
M  V30 2020 H 190.895 3.2169 -2.17826 0
M  V30 2021 H 192.567 1.68783 -4.29313 0
M  V30 2022 H 190.81 1.52242 -4.06208 0
M  V30 2023 H 191.481 3.06921 -4.58807 0
M  V30 2024 H 193.957 3.19531 -2.66532 0
M  V30 2025 H 192.833 4.48577 -3.16339 0
M  V30 2026 H 193.094 4.17493 -1.45437 0
M  V30 2027 N 192.153 1.28127 0.917671 0
M  V30 2028 C 193.378 1.18007 1.70555 0
M  V30 2029 C 193.803 -0.258257 1.86319 0
M  V30 2030 O 193.161 -1.1869 1.37049 0
M  V30 2031 C 193.209 1.87948 3.07746 0
M  V30 2032 O 192.313 1.18427 3.9503 0
M  V30 2033 H 191.654 0.409867 0.522403 0
M  V30 2034 H 194.184 1.69379 1.1477 0
M  V30 2035 H 194.194 1.95701 3.58001 0
M  V30 2036 H 192.869 2.92573 2.95591 0
M  V30 2037 H 191.446 1.18811 3.53466 0
M  V30 2038 N 193.631 -1.12557 1.10312 0
M  V30 2039 C 194.561 -2.20341 0.772798 0
M  V30 2040 C 195.542 -1.68198 -0.25365 0
M  V30 2041 O 196.727 -1.93831 -0.119699 0
M  V30 2042 C 193.857 -3.46709 0.202443 0
M  V30 2043 C 192.811 -4.11996 1.15943 0
M  V30 2044 C 192.137 -5.328 0.450345 0
M  V30 2045 C 193.437 -4.5828 2.50552 0
M  V30 2046 H 195.131 -2.48229 1.674 0
M  V30 2047 H 192.677 -1.19308 0.806326 0
M  V30 2048 H 194.63 -4.2138 -0.0407752 0
M  V30 2049 H 193.354 -3.18245 -0.734001 0
M  V30 2050 H 192.013 -3.39305 1.38808 0
M  V30 2051 H 191.661 -5.00602 -0.490531 0
M  V30 2052 H 191.361 -5.7743 1.08851 0
M  V30 2053 H 192.885 -6.10219 0.215642 0
M  V30 2054 H 194.299 -5.2433 2.31843 0
M  V30 2055 H 192.696 -5.13683 3.10242 0
M  V30 2056 H 193.766 -3.72329 3.10643 0
M  V30 2057 N 195.109 -0.891671 -1.2995 0
M  V30 2058 C 196.356 -0.513501 -1.95881 0
M  V30 2059 C 196.684 0.938655 -1.70351 0
M  V30 2060 O 195.939 1.67936 -1.00478 0
M  V30 2061 C 196.238 -0.742868 -3.49594 0
M  V30 2062 C 195.904 -2.17114 -3.95186 0
M  V30 2063 C 194.566 -2.56169 -4.07346 0
M  V30 2064 C 196.918 -3.10162 -4.18866 0
M  V30 2065 C 194.246 -3.87469 -4.4055 0
M  V30 2066 C 196.598 -4.41001 -4.53542 0
M  V30 2067 C 195.262 -4.79941 -4.63911 0
M  V30 2068 H 194.532 -0.187903 -0.71678 0
M  V30 2069 H 197.179 -1.1288 -1.54694 0
M  V30 2070 H 195.484 -0.044586 -3.91775 0
M  V30 2071 H 197.181 -0.429767 -3.9869 0
M  V30 2072 H 193.771 -1.85801 -3.86233 0
M  V30 2073 H 197.955 -2.81206 -4.08946 0
M  V30 2074 H 193.211 -4.17371 -4.46779 0
M  V30 2075 H 197.385 -5.13133 -4.70815 0
M  V30 2076 H 195.012 -5.81719 -4.89395 0
M  V30 2077 N 196.587 1.43421 -0.653314 0
M  V30 2078 C 197.836 2.01032 -0.164076 0
M  V30 2079 C 198.149 1.52147 1.22926 0
M  V30 2080 O 199.355 2.02031 1.81371 0
M  V30 2081 C 197.811 3.59082 -0.24252 0
M  V30 2082 C 197.419 4.1696 -1.63855 0
M  V30 2083 C 199.163 4.24079 0.18911 0
M  V30 2084 C 197.07 5.67304 -1.67092 0
M  V30 2085 H 196 0.751798 -0.0575769 0
M  V30 2086 H 198.651 1.6439 -0.815362 0
M  V30 2087 H 197.033 3.93125 0.476276 0
M  V30 2088 H 198.207 3.94416 -2.38271 0
M  V30 2089 H 196.522 3.64335 -2.01616 0
M  V30 2090 H 199.119 5.34381 0.184775 0
M  V30 2091 H 199.462 3.98005 1.22056 0
M  V30 2092 H 199.995 3.94918 -0.477938 0
M  V30 2093 H 196.734 5.98145 -2.68146 0
M  V30 2094 H 196.254 5.91904 -0.970014 0
M  V30 2095 H 197.933 6.31344 -1.4147 0
M  V30 2096 N 198.065 0.39524 1.52563 0
M  V30 2097 C 199.342 -0.242908 1.94086 0
M  V30 2098 C 199.722 -1.63841 1.33114 0
M  V30 2099 O 199.07 -2.22928 0.501529 0
M  V30 2100 C 199.28 -0.26327 3.48006 0
M  V30 2101 C 200.628 -0.489354 4.21771 0
M  V30 2102 O 201.652 -0.343226 3.54543 0
M  V30 2103 O 200.511 -0.776169 5.4096 0
M  V30 2104 H 197.605 -0.152536 0.812811 0
M  V30 2105 H 200.151 0.450178 1.6362 0
M  V30 2106 H 198.923 0.713985 3.84731 0
M  V30 2107 H 198.546 -1.00103 3.84792 0
M  V30 2108 N 199.544 -1.57102 0.125237 0
M  V30 2109 C 200.507 -2.14471 -0.80838 0
M  V30 2110 C 201.507 -1.0811 -1.19033 0
M  V30 2111 O 202.697 -1.33856 -1.11482 0
M  V30 2112 C 199.829 -2.69005 -2.09402 0
M  V30 2113 H 201.022 -2.98297 -0.309696 0
M  V30 2114 H 198.575 -1.55807 -0.124051 0
M  V30 2115 H 199.31 -1.88785 -2.63687 0
M  V30 2116 H 199.095 -3.46799 -1.82957 0
M  V30 2117 H 200.585 -3.13278 -2.76128 0
M  V30 2118 N 201.022 0.148545 -1.56898 0
M  V30 2119 C 202.299 0.890019 -1.74178 0
M  V30 2120 C 202.679 1.99407 -0.692839 0
M  V30 2121 O 202.027 2.26671 0.288505 0
M  V30 2122 C 202.237 1.43389 -3.18183 0
M  V30 2123 C 203.585 1.89791 -3.79822 0
M  V30 2124 O 204.609 1.53134 -3.21603 0
M  V30 2125 O 203.468 2.57387 -4.82093 0
M  V30 2126 H 200.562 0.420496 -0.712118 0
M  V30 2127 H 203.108 0.134591 -1.69165 0
M  V30 2128 H 201.88 0.640383 -3.86024 0
M  V30 2129 H 201.503 2.25287 -3.27615 0
M  V30 2130 N 202.5 1.5196 0.417844 0
M  V30 2131 C 203.41 1.77554 1.53336 0
M  V30 2132 C 204.426 0.660655 1.6097 0
M  V30 2133 O 205.602 0.945099 1.77848 0
M  V30 2134 C 202.667 1.91291 2.89152 0
M  V30 2135 C 201.728 3.15183 2.91475 0
M  V30 2136 C 200.961 3.28256 4.20813 0
M  V30 2137 O 201.184 2.46798 5.14244 0
M  V30 2138 O 200.118 4.21356 4.29817 0
M  V30 2139 H 203.944 2.7222 1.34647 0
M  V30 2140 H 201.529 1.36698 0.602828 0
M  V30 2141 H 203.411 2.02199 3.69721 0
M  V30 2142 H 202.086 0.998129 3.07927 0
M  V30 2143 H 200.993 3.09739 2.09791 0
M  V30 2144 H 202.326 4.06414 2.77648 0
M  V30 2145 N 203.978 -0.674533 1.42435 0
M  V30 2146 C 204.888 -1.81751 1.48337 0
M  V30 2147 C 205.904 -1.69975 0.372099 0
M  V30 2148 O 207.08 -1.91521 0.62304 0
M  V30 2149 C 204.145 -3.17895 1.38361 0
M  V30 2150 C 203.206 -3.41625 2.59982 0
M  V30 2151 C 202.439 -4.71274 2.50473 0
M  V30 2152 O 202.662 -5.49197 1.54075 0
M  V30 2153 O 201.596 -4.96254 3.4061 0
M  V30 2154 H 205.422 -1.79728 2.44809 0
M  V30 2155 H 203.007 -0.830312 1.24202 0
M  V30 2156 H 204.889 -3.99136 1.35161 0
M  V30 2157 H 203.564 -3.20555 0.450144 0
M  V30 2158 H 202.471 -2.60231 2.68757 0
M  V30 2159 H 203.804 -3.43796 3.52229 0
M  V30 2160 N 205.456 -1.28612 -0.910864 0
M  V30 2161 C 206.388 -1.08589 -2.01844 0
M  V30 2162 C 207.401 -0.0367419 -1.62759 0
M  V30 2163 O 208.59 -0.280101 -1.76289 0
M  V30 2164 C 205.69 -0.628626 -3.33019 0
M  V30 2165 C 204.863 -1.75382 -4.00699 0
M  V30 2166 C 203.922 -1.28945 -5.10156 0
M  V30 2167 O 202.948 -1.9922 -5.33198 0
M  V30 2168 N 204.15 -0.154224 -5.80295 0
M  V30 2169 H 206.915 -2.03973 -2.19579 0
M  V30 2170 H 204.476 -1.20403 -1.08234 0
M  V30 2171 H 206.468 -0.301508 -4.03575 0
M  V30 2172 H 205.038 0.232451 -3.11735 0
M  V30 2173 H 204.258 -2.25039 -3.23653 0
M  V30 2174 H 205.546 -2.50854 -4.42662 0
M  V30 2175 H 204.944 0.43194 -5.64049 0
M  V30 2176 H 203.501 0.113599 -6.51701 0
M  V30 2177 N 206.934 1.1197 -1.10907 0
M  V30 2178 C 208.183 1.82947 -0.849302 0
M  V30 2179 C 208.496 1.85275 0.627112 0
M  V30 2180 O 209.702 2.52296 1.00295 0
M  V30 2181 C 208.158 3.28529 -1.46959 0
M  V30 2182 C 207.766 3.34546 -2.97965 0
M  V30 2183 C 209.51 4.04443 -1.28942 0
M  V30 2184 C 207.417 4.74491 -3.53004 0
M  V30 2185 H 206.347 0.685477 -0.314065 0
M  V30 2186 H 208.998 1.2604 -1.33365 0
M  V30 2187 H 207.38 3.85333 -0.912917 0
M  V30 2188 H 208.554 2.87654 -3.59989 0
M  V30 2189 H 206.869 2.72108 -3.15192 0
M  V30 2190 H 209.466 5.07787 -1.67502 0
M  V30 2191 H 209.809 4.15656 -0.231456 0
M  V30 2192 H 210.342 3.5401 -1.81443 0
M  V30 2193 H 207.081 4.68474 -4.58489 0
M  V30 2194 H 206.601 5.21816 -2.9575 0
M  V30 2195 H 208.28 5.4344 -3.51115 0
M  V30 2196 N 208.412 0.89855 1.29475 0
M  V30 2197 C 209.359 0.373819 2.27753 0
M  V30 2198 C 210.329 -0.543444 1.56958 0
M  V30 2199 O 211.514 -0.468934 1.84948 0
M  V30 2200 C 208.654 -0.393648 3.42848 0
M  V30 2201 C 207.767 0.554379 4.28428 0
M  V30 2202 C 206.902 -0.230026 5.30702 0
M  V30 2203 C 205.941 0.712599 6.07938 0
M  V30 2204 N 205.078 -0.0373283 7.0209 0
M  V30 2205 H 209.918 1.21699 2.72017 0
M  V30 2206 H 207.455 0.611456 1.33789 0
M  V30 2207 H 209.413 -0.85466 4.08352 0
M  V30 2208 H 208.043 -1.20128 2.99615 0
M  V30 2209 H 207.095 1.13391 3.63107 0
M  V30 2210 H 208.407 1.27597 4.82204 0
M  V30 2211 H 207.561 -0.752288 6.02018 0
M  V30 2212 H 206.3 -0.984758 4.77654 0
M  V30 2213 H 205.305 1.24637 5.35486 0
M  V30 2214 H 206.53 1.46664 6.63074 0
M  V30 2215 H 204.476 -0.774348 6.51414 0
M  V30 2216 H 204.393 0.624374 7.53417 0
M  V30 2217 H 205.661 -0.539891 7.77628 0
M  V30 2218 N 209.89 -1.43072 0.660911 0
M  V30 2219 C 210.853 -2.29194 -0.0166406 0
M  V30 2220 C 211.853 -1.42609 -0.742912 0
M  V30 2221 O 213.043 -1.64155 -0.583004 0
M  V30 2222 C 210.175 -3.24831 -1.0343 0
M  V30 2223 H 211.368 -2.90596 0.741208 0
M  V30 2224 H 208.921 -1.5048 0.422532 0
M  V30 2225 H 209.656 -2.68339 -1.82111 0
M  V30 2226 H 209.441 -3.88676 -0.517082 0
M  V30 2227 H 210.931 -3.89451 -1.50723 0
M  V30 2228 N 211.368 -0.403325 -1.52352 0
M  V30 2229 C 212.331 0.413051 -2.25447 0
M  V30 2230 C 213.331 0.978513 -1.276 0
M  V30 2231 O 214.521 0.858305 -1.51587 0
M  V30 2232 C 211.653 1.58087 -3.02029 0
M  V30 2233 H 212.846 -0.227094 -2.99039 0
M  V30 2234 H 210.399 -0.155722 -1.55522 0
M  V30 2235 H 211.134 2.25804 -2.32772 0
M  V30 2236 H 210.919 1.18195 -3.73861 0
M  V30 2237 H 212.409 2.1585 -3.57489 0
M  V30 2238 N 212.846 1.57033 -0.133567 0
M  V30 2239 C 213.809 2.14897 0.796995 0
M  V30 2240 C 214.809 1.0874 1.18458 0
M  V30 2241 O 215.999 1.34446 1.1077 0
M  V30 2242 C 213.131 2.70112 2.07973 0
M  V30 2243 H 214.324 2.98457 0.293873 0
M  V30 2244 H 211.877 1.55871 0.115787 0
M  V30 2245 H 212.612 1.9018 2.62682 0
M  V30 2246 H 212.397 3.47764 1.81115 0
M  V30 2247 H 213.887 3.14738 2.74462 0
M  V30 2248 N 214.325 -0.140222 1.56975 0
M  V30 2249 C 215.235 -1.19223 2.02047 0
M  V30 2250 C 216.251 -1.46612 0.937062 0
M  V30 2251 O 217.427 -1.58148 1.24704 0
M  V30 2252 C 214.492 -2.50414 2.39778 0
M  V30 2253 C 213.553 -2.30612 3.621 0
M  V30 2254 C 212.786 -3.55547 3.98023 0
M  V30 2255 O 213.009 -4.62004 3.34528 0
M  V30 2256 O 211.943 -3.47808 4.91237 0
M  V30 2257 H 215.769 -0.839559 2.91865 0
M  V30 2258 H 213.354 -0.349453 1.45256 0
M  V30 2259 H 215.236 -3.27747 2.64877 0
M  V30 2260 H 213.911 -2.85198 1.53114 0
M  V30 2261 H 212.818 -1.51207 3.4218 0
M  V30 2262 H 214.151 -2.00741 4.49404 0
M  V30 2263 N 215.803 -1.52179 -0.40978 0
M  V30 2264 C 217.049 -1.66453 -1.15851 0
M  V30 2265 C 217.382 -0.392972 -1.90182 0
M  V30 2266 O 216.657 0.608579 -1.84734 0
M  V30 2267 C 216.94 -2.88612 -2.15349 0
M  V30 2268 C 216.793 -4.25815 -1.44918 0
M  V30 2269 C 218.112 -3.06294 -3.16026 0
M  V30 2270 H 215.231 -0.60575 -0.419805 0
M  V30 2271 H 217.873 -1.84732 -0.444314 0
M  V30 2272 H 216.023 -2.73158 -2.76255 0
M  V30 2273 H 217.695 -4.52995 -0.871365 0
M  V30 2274 H 215.938 -4.27247 -0.751159 0
M  V30 2275 H 216.609 -5.07337 -2.17516 0
M  V30 2276 H 219.085 -3.20641 -2.65195 0
M  V30 2277 H 217.961 -3.93283 -3.8291 0
M  V30 2278 H 218.222 -2.19579 -3.83715 0
M  V30 2279 N 217.281 0.66697 -1.42791 0
M  V30 2280 C 218.529 1.42417 -1.43394 0
M  V30 2281 C 218.85 1.94925 -0.0542373 0
M  V30 2282 O 218.12 1.73564 0.908415 0
M  V30 2283 H 216.7 0.528515 -0.527902 0
M  V30 2284 H 219.362 0.787562 -1.78279 0
M  V30 2285 H 218.458 2.27333 -2.13837 0
M  V30 2286 N 218.759 1.29093 0.90403 0
M  V30 2287 C 219.722 1.1386 1.98919 0
M  V30 2288 C 220.722 0.0753457 1.60623 0
M  V30 2289 O 221.912 0.321931 1.71199 0
M  V30 2290 C 219.044 0.740198 3.32767 0
M  V30 2291 H 220.237 2.10246 2.13861 0
M  V30 2292 H 217.79 1.12218 1.08797 0
M  V30 2293 H 218.525 -0.223997 3.23525 0
M  V30 2294 H 218.31 1.50838 3.61926 0
M  V30 2295 H 219.8 0.656546 4.12407 0
M  V30 2296 N 220.237 -1.11381 1.11499 0
M  V30 2297 C 221.648 -1.6465 0.880191 0
M  V30 2298 C 221.999 -1.87199 -0.587434 0
M  V30 2299 O 221.124 -1.60667 -1.44966 0
M  V30 2300 C 221.719 -2.99105 1.59128 0
M  V30 2301 C 220.278 -3.49279 1.40289 0
M  V30 2302 C 219.425 -2.24077 1.63354 0
M  V30 2303 H 222.376 -0.950123 1.27116 0
M  V30 2304 H 222.397 -3.66107 1.03664 0
M  V30 2305 H 221.909 -2.82661 2.65941 0
M  V30 2306 H 220.01 -3.70887 0.356888 0
M  V30 2307 H 220.123 -4.2803 2.15238 0
M  V30 2308 H 218.487 -2.31733 1.05698 0
M  V30 2309 H 219.27 -2.10175 2.71443 0
M  V30 2310 N 221.715 -0.905404 -1.28997 0
M  V30 2311 C 222.962 -0.534248 -1.95325 0
M  V30 2312 C 223.29 0.920535 -1.71337 0
M  V30 2313 O 222.545 1.66861 -1.02254 0
M  V30 2314 C 222.844 -0.779906 -3.48787 0
M  V30 2315 C 222.51 -2.21293 -3.92861 0
M  V30 2316 C 221.172 -2.60475 -4.04606 0
M  V30 2317 C 223.524 -3.14587 -4.15553 0
M  V30 2318 C 220.852 -3.9212 -4.36416 0
M  V30 2319 C 223.204 -4.45787 -4.48839 0
M  V30 2320 C 221.868 -4.84834 -4.58794 0
M  V30 2321 H 221.138 -0.195495 -0.714747 0
M  V30 2322 H 223.785 -1.14514 -1.53488 0
M  V30 2323 H 222.09 -0.0861365 -3.91705 0
M  V30 2324 H 223.787 -0.472029 -3.98212 0
M  V30 2325 H 220.377 -1.89887 -3.84241 0
M  V30 2326 H 224.561 -2.85528 -4.0594 0
M  V30 2327 H 219.817 -4.22086 -4.42327 0
M  V30 2328 H 223.991 -5.18098 -4.65346 0
M  V30 2329 H 221.618 -5.86877 -4.83197 0
M  V30 2330 N 223.193 1.4272 -0.668489 0
M  V30 2331 C 224.442 2.00846 -0.185389 0
M  V30 2332 C 224.755 1.53442 1.21305 0
M  V30 2333 O 225.961 2.03944 1.79218 0
M  V30 2334 C 224.417 3.58805 -0.280591 0
M  V30 2335 C 224.025 4.15198 -1.68268 0
M  V30 2336 C 225.769 4.24255 0.14412 0
M  V30 2337 C 223.676 5.655 -1.73099 0
M  V30 2338 H 222.606 0.751145 -0.0655475 0
M  V30 2339 H 225.257 1.63516 -0.832752 0
M  V30 2340 H 223.639 3.93608 0.434553 0
M  V30 2341 H 224.813 3.91866 -2.42441 0
M  V30 2342 H 223.128 3.62176 -2.05469 0
M  V30 2343 H 225.725 5.34547 0.128086 0
M  V30 2344 H 226.068 3.99277 1.17827 0
M  V30 2345 H 226.601 3.94389 -0.519798 0
M  V30 2346 H 223.34 5.95268 -2.74475 0
M  V30 2347 H 222.86 5.90842 -1.03274 0
M  V30 2348 H 224.539 6.29808 -1.48158 0
M  V30 2349 N 224.671 0.411399 1.52136 0
M  V30 2350 C 225.581 -0.419774 2.30814 0
M  V30 2351 C 226.597 -1.0515 1.38634 0
M  V30 2352 O 227.773 -1.05252 1.71709 0
M  V30 2353 C 224.838 -1.52019 3.11594 0
M  V30 2354 C 223.899 -0.91129 4.19516 0
M  V30 2355 C 223.132 -1.95927 4.96436 0
M  V30 2356 O 223.355 -3.17775 4.73683 0
M  V30 2357 O 222.289 -1.56423 5.81219 0
M  V30 2358 H 226.115 0.221805 3.02889 0
M  V30 2359 H 223.7 0.174547 1.48377 0
M  V30 2360 H 225.582 -2.15898 3.61892 0
M  V30 2361 H 224.257 -2.14633 2.42311 0
M  V30 2362 H 223.164 -0.235157 3.7336 0
M  V30 2363 H 224.497 -0.32904 4.91099 0
M  V30 2364 N 226.149 -1.5696 0.141893 0
M  V30 2365 C 227.398 -1.95135 -0.510427 0
M  V30 2366 C 227.711 -1.02896 -1.66348 0
M  V30 2367 O 228.917 -1.30629 -2.38009 0
M  V30 2368 C 227.373 -3.46876 -0.959427 0
M  V30 2369 C 226.981 -4.47691 0.166419 0
M  V30 2370 C 228.725 -3.93927 -1.58183 0
M  V30 2371 C 226.632 -5.90636 -0.300565 0
M  V30 2372 H 225.562 -0.728494 -0.194454 0
M  V30 2373 H 228.213 -1.8211 0.22542 0
M  V30 2374 H 226.595 -3.55215 -1.75038 0
M  V30 2375 H 227.769 -4.51043 0.94325 0
M  V30 2376 H 226.084 -4.10527 0.696905 0
M  V30 2377 H 228.681 -4.98158 -1.94275 0
M  V30 2378 H 229.024 -3.3519 -2.46888 0
M  V30 2379 H 229.557 -3.88484 -0.855863 0
M  V30 2380 H 226.296 -6.5318 0.550989 0
M  V30 2381 H 225.816 -5.90655 -1.04338 0
M  V30 2382 H 227.495 -6.42588 -0.754265 0
M  V30 2383 N 227.627 0.131896 -1.57047 0
M  V30 2384 C 228.577 1.1679 -1.95816 0
M  V30 2385 C 229.561 1.37756 -0.831393 0
M  V30 2386 O 230.753 1.39065 -1.09499 0
M  V30 2387 C 227.882 2.49778 -2.35512 0
M  V30 2388 C 226.968 2.32342 -3.54793 0
M  V30 2389 N 227.359 1.8469 -4.70875 0
M  V30 2390 C 225.657 2.63043 -3.60173 0
M  V30 2391 C 226.358 1.80656 -5.52936 0
M  V30 2392 N 225.334 2.24528 -4.95064 0
M  V30 2393 H 229.136 0.791818 -2.83033 0
M  V30 2394 H 226.65 0.339791 -1.58805 0
M  V30 2395 H 228.647 3.24692 -2.61498 0
M  V30 2396 H 227.307 2.88156 -1.49654 0
M  V30 2397 H 228.318 1.54429 -4.9434 0
M  V30 2398 H 224.995 3.05193 -2.84892 0
M  V30 2399 H 226.385 1.45178 -6.56028 0
M  V30 2400 N 229.106 1.52395 0.401703 0
M  V30 2401 C 230.334 1.70676 1.16949 0
M  V30 2402 C 230.749 0.419503 1.8408 0
M  V30 2403 O 230.106 -0.605061 1.72178 0
M  V30 2404 C 230.157 2.84753 2.22706 0
M  V30 2405 O 229.878 4.08495 1.58314 0
M  V30 2406 C 231.379 3.14608 3.12309 0
M  V30 2407 H 228.599 0.571787 0.351142 0
M  V30 2408 H 231.143 1.98987 0.471652 0
M  V30 2409 H 229.298 2.58941 2.88147 0
M  V30 2410 H 229.712 4.72117 2.28485 0
M  V30 2411 H 231.186 3.97923 3.82572 0
M  V30 2412 H 231.663 2.28464 3.75101 0
M  V30 2413 H 232.269 3.42212 2.52529 0
M  V30 2414 N 230.584 -0.659388 1.43143 0
M  V30 2415 C 231.832 -1.41654 1.44147 0
M  V30 2416 C 232.153 -1.94893 0.0645739 0
M  V30 2417 O 231.423 -1.74044 -0.899198 0
M  V30 2418 H 230.003 -0.525708 0.530697 0
M  V30 2419 H 232.665 -0.778097 1.78694 0
M  V30 2420 H 231.761 -2.26195 2.1504 0
M  V30 2421 N 232.062 -1.29571 -0.897171 0
M  V30 2422 C 233.302 -1.18959 -1.66217 0
M  V30 2423 C 233.666 0.254271 -1.90309 0
M  V30 2424 O 234.867 0.483407 -2.64417 0
M  V30 2425 C 233.138 -1.98302 -2.9734 0
M  V30 2426 S 234.697 -2.04253 -3.88364 0
M  V30 2427 H 231.515 -0.424137 -0.570639 0
M  V30 2428 H 234.117 -1.6389 -1.06585 0
M  V30 2429 H 232.821 -3.02342 -2.77521 0
M  V30 2430 H 232.352 -1.53986 -3.62011 0
M  V30 2431 H 234.367 -1.16105 -4.82425 0
M  V30 2432 N 233.54 1.10788 -1.12088 0
M  V30 2433 C 234.77 1.86191 -0.895351 0
M  V30 2434 C 235.178 1.80763 0.558702 0
M  V30 2435 O 234.521 1.19188 1.39785 0
M  V30 2436 C 234.583 3.35659 -1.28737 0
M  V30 2437 C 234.247 3.64849 -2.75198 0
M  V30 2438 C 235.244 3.61757 -3.734 0
M  V30 2439 C 232.929 3.93641 -3.12013 0
M  V30 2440 C 234.923 3.87045 -5.06434 0
M  V30 2441 C 232.61 4.18585 -4.4523 0
M  V30 2442 C 233.608 4.15277 -5.42249 0
M  V30 2443 O 233.296 4.3959 -6.73065 0
M  V30 2444 H 233.028 0.595425 -0.32007 0
M  V30 2445 H 235.582 1.40992 -1.49367 0
M  V30 2446 H 233.812 3.81497 -0.63224 0
M  V30 2447 H 235.501 3.92441 -1.03656 0
M  V30 2448 H 236.267 3.39557 -3.46303 0
M  V30 2449 H 232.146 3.95348 -2.37109 0
M  V30 2450 H 235.69 3.84378 -5.82151 0
M  V30 2451 H 231.587 4.40264 -4.72057 0
M  V30 2452 H 232.355 4.57123 -6.78956 0
M  V30 2453 N 235.018 0.912232 1.28515 0
M  V30 2454 C 235.981 0.404223 2.25607 0
M  V30 2455 C 236.981 -0.468602 1.53821 0
M  V30 2456 O 238.171 -0.271873 1.72065 0
M  V30 2457 C 235.303 -0.420653 3.38295 0
M  V30 2458 H 236.496 1.26188 2.7206 0
M  V30 2459 H 234.049 0.691495 1.40171 0
M  V30 2460 H 234.784 -1.29777 2.97201 0
M  V30 2461 H 234.569 0.204935 3.91564 0
M  V30 2462 H 236.059 -0.766971 4.10496 0
M  V30 2463 N 236.496 -1.42363 0.676048 0
M  V30 2464 C 237.773 -1.95183 0.127726 0
M  V30 2465 C 238.153 -1.61641 -1.35777 0
M  V30 2466 O 237.501 -0.913216 -2.09458 0
M  V30 2467 C 237.711 -3.46721 0.398199 0
M  V30 2468 C 239.059 -4.23427 0.315383 0
M  V30 2469 O 240.083 -3.54649 0.332016 0
M  V30 2470 O 238.942 -5.45888 0.25865 0
M  V30 2471 H 236.036 -0.826992 0.00359427 0
M  V30 2472 H 238.582 -1.52184 0.750864 0
M  V30 2473 H 237.354 -3.64344 1.4272 0
M  V30 2474 H 236.977 -3.96769 -0.256885 0
M  V30 2475 N 237.974 -0.419461 -1.51915 0
M  V30 2476 C 238.937 0.389116 -2.25873 0
M  V30 2477 C 239.937 0.964924 -1.28631 0
M  V30 2478 O 241.127 0.842179 -1.52489 0
M  V30 2479 C 238.259 1.54874 -3.03689 0
M  V30 2480 H 239.452 -0.258799 -2.98781 0
M  V30 2481 H 237.005 -0.172209 -1.55348 0
M  V30 2482 H 237.74 2.23323 -2.35154 0
M  V30 2483 H 237.525 1.14223 -3.75094 0
M  V30 2484 H 239.015 2.12046 -3.59759 0
M  V30 2485 N 239.452 1.56882 -0.150215 0
M  V30 2486 C 240.399 2.16922 0.788244 0
M  V30 2487 C 241.369 1.10303 1.24187 0
M  V30 2488 O 242.554 1.38359 1.31383 0
M  V30 2489 C 239.694 2.79754 2.02068 0
M  V30 2490 C 238.807 4.00775 1.61257 0
M  V30 2491 C 237.942 4.51595 2.79705 0
M  V30 2492 C 236.981 5.65074 2.35282 0
M  V30 2493 N 236.118 6.10499 3.4675 0
M  V30 2494 H 240.958 2.96779 0.269444 0
M  V30 2495 H 238.495 1.46599 0.12128 0
M  V30 2496 H 240.453 3.14329 2.74323 0
M  V30 2497 H 239.083 2.02536 2.51354 0
M  V30 2498 H 238.135 3.72158 0.787553 0
M  V30 2499 H 239.447 4.82978 1.24633 0
M  V30 2500 H 238.601 4.88242 3.60145 0
M  V30 2501 H 237.34 3.68406 3.19576 0
M  V30 2502 H 236.345 5.28 1.53283 0
M  V30 2503 H 237.57 6.50052 1.96493 0
M  V30 2504 H 235.516 5.30243 3.86236 0
M  V30 2505 H 235.433 6.87637 3.14152 0
M  V30 2506 H 236.701 6.51791 4.27537 0
M  V30 2507 N 240.93 -0.123565 1.57115 0
M  V30 2508 C 242.158 -0.846461 1.88793 0
M  V30 2509 C 242.573 -1.73652 0.740976 0
M  V30 2510 O 241.93 -1.80207 -0.288393 0
M  V30 2511 C 241.981 -1.6837 3.19897 0
M  V30 2512 O 241.702 -0.829477 4.30176 0
M  V30 2513 C 243.203 -2.51214 3.65248 0
M  V30 2514 H 240.423 -0.243573 0.625231 0
M  V30 2515 H 242.967 -0.109324 2.04208 0
M  V30 2516 H 241.122 -2.37364 3.06165 0
M  V30 2517 H 241.536 -1.40651 5.0529 0
M  V30 2518 H 243.01 -3.05497 4.59756 0
M  V30 2519 H 243.487 -3.28359 2.9168 0
M  V30 2520 H 244.093 -1.8747 3.81752 0
M  V30 2521 N 242.408 -1.52605 -0.393616 0
M  V30 2522 C 243.685 -1.58001 -1.15304 0
M  V30 2523 C 244.065 -0.370385 -2.07825 0
M  V30 2524 O 243.413 0.641638 -2.19306 0
M  V30 2525 C 243.623 -2.91652 -1.91677 0
M  V30 2526 C 244.971 -3.4522 -2.47201 0
M  V30 2527 O 245.995 -2.93495 -2.01839 0
M  V30 2528 O 244.854 -4.35579 -3.3005 0
M  V30 2529 H 241.948 -0.637068 -0.527327 0
M  V30 2530 H 244.494 -1.64939 -0.399141 0
M  V30 2531 H 243.266 -3.71136 -1.23992 0
M  V30 2532 H 242.889 -2.88077 -2.74039 0
M  V30 2533 N 243.887 0.651787 -1.4349 0
M  V30 2534 C 244.85 1.74647 -1.48429 0
M  V30 2535 C 245.85 1.56513 -0.368817 0
M  V30 2536 O 247.04 1.62385 -0.630623 0
M  V30 2537 C 244.172 3.13533 -1.33827 0
M  V30 2538 H 245.365 1.71649 -2.4592 0
M  V30 2539 H 242.918 0.863573 -1.30277 0
M  V30 2540 H 243.653 3.22142 -0.37349 0
M  V30 2541 H 243.438 3.28101 -2.14691 0
M  V30 2542 H 244.928 3.93356 -1.40218 0
M  V30 2543 N 245.365 1.30045 0.890287 0
M  V30 2544 C 246.275 1.17885 2.02831 0
M  V30 2545 C 247.291 0.0999609 1.73713 0
M  V30 2546 O 248.467 0.313867 1.98939 0
M  V30 2547 C 245.532 0.866079 3.35708 0
M  V30 2548 C 244.593 2.02979 3.78283 0
M  V30 2549 C 243.826 1.73184 5.0482 0
M  V30 2550 O 244.049 0.657237 5.66601 0
M  V30 2551 O 242.983 2.58267 5.43674 0
M  V30 2552 H 246.809 2.13474 2.16015 0
M  V30 2553 H 244.394 1.09587 1.01543 0
M  V30 2554 H 246.276 0.706623 4.15433 0
M  V30 2555 H 244.951 -0.0599443 3.23644 0
M  V30 2556 H 243.858 2.24454 2.99285 0
M  V30 2557 H 245.191 2.93734 3.94944 0
M  V30 2558 N 246.843 -1.10192 1.12674 0
M  V30 2559 C 247.775 -2.16418 0.754701 0
M  V30 2560 C 248.788 -1.61309 -0.21986 0
M  V30 2561 O 249.977 -1.785 -0.000826841 0
M  V30 2562 C 247.077 -3.38762 0.096698 0
M  V30 2563 C 246.25 -4.23307 1.10136 0
M  V30 2564 C 245.309 -5.24092 0.470513 0
M  V30 2565 O 244.335 -5.57906 1.12824 0
M  V30 2566 N 245.537 -5.75491 -0.760948 0
M  V30 2567 H 248.302 -2.48943 1.66875 0
M  V30 2568 H 245.863 -1.25834 1.01869 0
M  V30 2569 H 247.855 -4.03291 -0.337384 0
M  V30 2570 H 246.425 -3.04192 -0.720153 0
M  V30 2571 H 245.645 -3.55036 1.71299 0
M  V30 2572 H 246.933 -4.76624 1.78064 0
M  V30 2573 H 246.331 -5.50222 -1.31424 0
M  V30 2574 H 244.888 -6.41792 -1.13781 0
M  V30 2575 N 248.321 -0.919034 -1.28029 0
M  V30 2576 C 249.284 -0.416182 -2.2539 0
M  V30 2577 C 250.284 0.460438 -1.54067 0
M  V30 2578 O 251.474 0.262744 -1.72207 0
M  V30 2579 C 248.606 0.402707 -3.38513 0
M  V30 2580 H 249.799 -1.27629 -2.71387 0
M  V30 2581 H 247.352 -0.698919 -1.39803 0
M  V30 2582 H 248.087 1.282 -2.97885 0
M  V30 2583 H 247.872 -0.225698 -3.9145 0
M  V30 2584 H 249.362 0.745191 -4.10897 0
M  V30 2585 N 249.799 1.42003 -0.683588 0
M  V30 2586 C 250.731 2.29183 0.0283068 0
M  V30 2587 C 251.744 1.4415 0.756611 0
M  V30 2588 O 252.933 1.67779 0.609306 0
M  V30 2589 C 250.033 3.21765 1.06398 0
M  V30 2590 C 249.206 4.35496 0.407723 0
M  V30 2591 C 248.265 5.08737 1.34437 0
M  V30 2592 O 247.291 5.62948 0.841318 0
M  V30 2593 N 248.493 5.15075 2.67728 0
M  V30 2594 H 251.258 2.9092 -0.720105 0
M  V30 2595 H 248.819 1.53025 -0.528682 0
M  V30 2596 H 250.811 3.6763 1.69204 0
M  V30 2597 H 249.381 2.61418 1.71404 0
M  V30 2598 H 248.601 3.92165 -0.400012 0
M  V30 2599 H 249.889 5.08776 -0.0490956 0
M  V30 2600 H 249.287 4.72457 3.11129 0
M  V30 2601 H 247.844 5.64556 3.2576 0
M  V30 2602 N 251.277 0.427512 1.51691 0
M  V30 2603 C 252.187 -0.39527 2.31246 0
M  V30 2604 C 253.203 -1.03674 1.39742 0
M  V30 2605 O 254.379 -1.03425 1.72816 0
M  V30 2606 C 251.444 -1.48706 3.13189 0
M  V30 2607 C 250.505 -0.866743 4.20459 0
M  V30 2608 C 249.738 -1.90651 4.98486 0
M  V30 2609 O 249.961 -3.12733 4.77026 0
M  V30 2610 O 248.895 -1.5025 5.82845 0
M  V30 2611 H 252.721 0.253918 3.02637 0
M  V30 2612 H 250.306 0.190274 1.48183 0
M  V30 2613 H 252.188 -2.12047 3.64162 0
M  V30 2614 H 250.863 -2.12051 2.44573 0
M  V30 2615 H 249.77 -0.195544 3.73589 0
M  V30 2616 H 251.103 -0.276934 4.9142 0
M  V30 2617 N 252.755 -1.56801 0.158532 0
M  V30 2618 C 253.685 -2.20347 -0.772609 0
M  V30 2619 C 254.666 -1.15518 -1.24859 0
M  V30 2620 O 255.851 -1.43902 -1.30406 0
M  V30 2621 C 252.981 -2.83417 -2.00729 0
M  V30 2622 C 251.935 -3.94174 -1.66765 0
M  V30 2623 C 251.261 -4.44233 -2.97592 0
M  V30 2624 C 252.561 -5.14392 -0.905447 0
M  V30 2625 H 254.255 -2.98413 -0.242959 0
M  V30 2626 H 251.801 -1.43537 -0.115419 0
M  V30 2627 H 253.754 -3.26543 -2.6636 0
M  V30 2628 H 252.478 -2.02701 -2.56086 0
M  V30 2629 H 251.137 -3.51684 -1.03508 0
M  V30 2630 H 250.785 -3.60325 -3.50963 0
M  V30 2631 H 250.485 -5.18945 -2.75626 0
M  V30 2632 H 252.009 -4.90037 -3.64274 0
M  V30 2633 H 253.423 -5.5429 -1.46408 0
M  V30 2634 H 251.82 -5.9494 -0.7853 0
M  V30 2635 H 252.89 -4.84795 0.100668 0
M  V30 2636 N 254.233 0.115231 -1.57178 0
M  V30 2637 C 255.196 1.12526 -1.99676 0
M  V30 2638 C 256.196 1.34095 -0.88742 0
M  V30 2639 O 257.386 1.30548 -1.15337 0
M  V30 2640 C 254.518 2.4789 -2.34015 0
M  V30 2641 H 255.711 0.759912 -2.90113 0
M  V30 2642 H 253.264 0.359648 -1.52106 0
M  V30 2643 H 253.999 2.89339 -1.4647 0
M  V30 2644 H 253.784 2.33588 -3.14927 0
M  V30 2645 H 255.274 3.20575 -2.67622 0
M  V30 2646 N 255.711 1.52812 0.385517 0
M  V30 2647 C 257.127 1.4214 0.725829 0
M  V30 2648 C 257.327 0.544589 1.94001 0
M  V30 2649 O 256.383 0.0193693 2.52493 0
M  V30 2650 C 257.696 2.85042 0.957668 0
M  V30 2651 C 259.244 2.94543 1.05892 0
M  V30 2652 C 259.719 4.38464 1.32337 0
M  V30 2653 N 261.21 4.41804 1.39151 0
M  V30 2654 C 261.945 5.5025 1.61285 0
M  V30 2655 N 261.441 6.68775 1.80866 0
M  V30 2656 N 263.234 5.37798 1.63492 0
M  V30 2657 H 255.385 2.08338 -0.413383 0
M  V30 2658 H 257.648 0.940016 -0.122775 0
M  V30 2659 H 257.354 3.51431 0.137568 0
M  V30 2660 H 257.228 3.27505 1.87137 0
M  V30 2661 H 259.615 2.28321 1.86959 0
M  V30 2662 H 259.696 2.55504 0.123057 0
M  V30 2663 H 259.34 5.05254 0.517793 0
M  V30 2664 H 259.27 4.75059 2.27214 0
M  V30 2665 H 261.761 3.56377 1.25713 0
M  V30 2666 H 262.074 7.47197 1.97271 0
M  V30 2667 H 260.419 6.71797 1.78083 0
M  V30 2668 H 263.61 4.44171 1.47749 0
M  V30 2669 H 263.783 6.22382 1.80402 0
M  V30 2670 N 257.189 -0.644168 1.43834 0
M  V30 2671 C 258.438 -1.39985 1.45214 0
M  V30 2672 C 258.751 -1.95421 0.0835494 0
M  V30 2673 O 259.957 -2.71488 -0.0251748 0
M  V30 2674 C 258.413 -2.53384 2.55587 0
M  V30 2675 C 258.021 -2.04517 3.98594 0
M  V30 2676 C 259.765 -3.30685 2.66172 0
M  V30 2677 C 257.672 -3.1518 5.00416 0
M  V30 2678 H 256.602 -0.526005 0.540218 0
M  V30 2679 H 259.253 -0.694367 1.69855 0
M  V30 2680 H 257.635 -3.26446 2.24163 0
M  V30 2681 H 258.809 -1.38405 4.39523 0
M  V30 2682 H 257.124 -1.40068 3.92135 0
M  V30 2683 H 259.721 -4.13158 3.39418 0
M  V30 2684 H 260.064 -3.79312 1.71546 0
M  V30 2685 H 260.597 -2.64708 2.96942 0
M  V30 2686 H 257.336 -2.71511 5.96625 0
M  V30 2687 H 256.856 -3.79974 4.64091 0
M  V30 2688 H 258.535 -3.80166 5.23529 0
M  V30 2689 N 258.668 -1.30515 -0.883378 0
M  V30 2690 C 259.631 -1.1701 -1.97082 0
M  V30 2691 C 260.631 -0.10089 -1.60483 0
M  V30 2692 O 261.821 -0.349127 -1.70666 0
M  V30 2693 C 258.953 -0.793045 -3.31547 0
M  V30 2694 H 260.146 -2.13622 -2.10489 0
M  V30 2695 H 257.699 -1.13935 -1.06998 0
M  V30 2696 H 258.434 0.172499 -3.23841 0
M  V30 2697 H 258.219 -1.56576 -3.5948 0
M  V30 2698 H 259.709 -0.722073 -4.1131 0
M  V30 2699 N 260.146 1.09593 -1.13257 0
M  V30 2700 C 261.093 2.1618 -0.808381 0
M  V30 2701 C 262.063 1.64517 0.228754 0
M  V30 2702 O 263.248 1.9053 0.101381 0
M  V30 2703 C 260.388 3.43973 -0.278675 0
M  V30 2704 C 259.501 4.09545 -1.37466 0
M  V30 2705 C 258.636 5.25088 -0.803479 0
M  V30 2706 C 257.675 5.82579 -1.87799 0
M  V30 2707 N 256.812 6.89486 -1.32488 0
M  V30 2708 H 261.652 2.43254 -1.72138 0
M  V30 2709 H 259.189 1.19392 -0.859294 0
M  V30 2710 H 261.147 4.17174 0.0465583 0
M  V30 2711 H 259.777 3.17223 0.597459 0
M  V30 2712 H 258.829 3.34226 -1.81652 0
M  V30 2713 H 260.141 4.48307 -2.18684 0
M  V30 2714 H 259.295 6.05178 -0.429427 0
M  V30 2715 H 258.034 4.87684 0.0397956 0
M  V30 2716 H 257.039 5.01152 -2.26113 0
M  V30 2717 H 258.264 6.22045 -2.72463 0
M  V30 2718 H 256.21 6.54064 -0.503575 0
M  V30 2719 H 256.127 7.27007 -2.07355 0
M  V30 2720 H 257.395 7.73336 -0.978336 0
M  V30 2721 N 261.624 0.925811 1.2754 0
M  V30 2722 C 262.587 0.428129 2.25166 0
M  V30 2723 C 263.587 -0.452261 1.54309 0
M  V30 2724 O 264.777 -0.253608 1.72344 0
M  V30 2725 C 261.909 -0.384749 3.38722 0
M  V30 2726 H 263.102 1.29066 2.70706 0
M  V30 2727 H 260.655 0.706323 1.3943 0
M  V30 2728 H 261.39 -1.26618 2.98561 0
M  V30 2729 H 261.175 0.246454 3.91325 0
M  V30 2730 H 262.665 -0.723389 4.11287 0
M  V30 2731 N 263.102 -1.41638 0.69111 0
M  V30 2732 C 264.065 -2.29178 0.0319786 0
M  V30 2733 C 265.065 -1.44153 -0.712496 0
M  V30 2734 O 266.255 -1.65354 -0.548053 0
M  V30 2735 C 263.387 -3.26952 -0.965161 0
M  V30 2736 H 264.58 -2.88959 0.802681 0
M  V30 2737 H 262.133 -1.4955 0.454356 0
M  V30 2738 H 262.868 -2.72142 -1.76378 0
M  V30 2739 H 262.653 -3.89685 -0.434522 0
M  V30 2740 H 264.143 -3.92561 -1.42428 0
M  V30 2741 N 264.58 -0.43555 -1.51462 0
M  V30 2742 C 265.808 0.130242 -2.0649 0
M  V30 2743 C 266.223 1.36614 -1.30315 0
M  V30 2744 O 265.58 1.78869 -0.362223 0
M  V30 2745 C 265.631 0.454253 -3.58635 0
M  V30 2746 O 265.352 -0.73259 -4.31931 0
M  V30 2747 C 266.853 1.07091 -4.3017 0
M  V30 2748 H 264.073 0.00871669 -0.670943 0
M  V30 2749 H 266.617 -0.614117 -1.95061 0
M  V30 2750 H 264.772 1.14851 -3.69984 0
M  V30 2751 H 265.186 -0.455787 -5.22516 0
M  V30 2752 H 266.66 1.24764 -5.37716 0
M  V30 2753 H 267.137 2.05144 -3.88346 0
M  V30 2754 H 267.743 0.416089 -4.2326 0
M  V30 2755 N 266.058 1.56714 -0.166846 0
M  V30 2756 C 267.305 1.96747 0.479252 0
M  V30 2757 C 267.633 1.05263 1.63554 0
M  V30 2758 O 266.888 0.0858098 1.95512 0
M  V30 2759 C 267.187 3.42889 1.00806 0
M  V30 2760 C 266.853 4.50889 -0.0318574 0
M  V30 2761 C 265.515 4.8015 -0.317675 0
M  V30 2762 C 267.867 5.15949 -0.737956 0
M  V30 2763 C 265.195 5.71772 -1.31506 0
M  V30 2764 C 267.547 6.08647 -1.72429 0
M  V30 2765 C 266.211 6.36277 -2.0176 0
M  V30 2766 H 265.481 0.719949 0.175371 0
M  V30 2767 H 268.128 1.89756 -0.257864 0
M  V30 2768 H 266.433 3.4681 1.82291 0
M  V30 2769 H 268.13 3.71203 1.51689 0
M  V30 2770 H 264.72 4.28128 0.201088 0
M  V30 2771 H 268.904 4.93458 -0.530351 0
M  V30 2772 H 264.16 5.91465 -1.54853 0
M  V30 2773 H 268.334 6.58129 -2.27682 0
M  V30 2774 H 265.961 7.07075 -2.79194 0
M  V30 2775 N 267.536 -0.106894 1.57237 0
M  V30 2776 C 268.499 -1.11466 2.0027 0
M  V30 2777 C 269.499 -1.33623 0.894519 0
M  V30 2778 O 270.689 -1.29935 1.16028 0
M  V30 2779 C 267.821 -2.46646 2.35327 0
M  V30 2780 H 269.014 -0.744516 2.90512 0
M  V30 2781 H 266.567 -0.351576 1.52295 0
M  V30 2782 H 267.302 -2.88558 1.48003 0
M  V30 2783 H 267.087 -2.31915 3.16161 0
M  V30 2784 H 268.577 -3.19151 2.69318 0
M  V30 2785 N 269.014 -1.53014 -0.377408 0
M  V30 2786 C 269.977 -1.77957 -1.44444 0
M  V30 2787 C 270.977 -0.649763 -1.47087 0
M  V30 2788 O 272.167 -0.917897 -1.48055 0
M  V30 2789 C 269.299 -1.89089 -2.83651 0
M  V30 2790 H 270.492 -2.73243 -1.23606 0
M  V30 2791 H 268.045 -1.43912 -0.609844 0
M  V30 2792 H 268.78 -0.958293 -3.09818 0
M  V30 2793 H 268.565 -2.71254 -2.83132 0
M  V30 2794 H 270.055 -2.1002 -3.60945 0
M  V30 2795 N 270.492 0.636531 -1.44174 0
M  V30 2796 C 271.717 1.42847 -1.50364 0
M  V30 2797 C 272.142 1.87665 -0.127867 0
M  V30 2798 O 271.5 1.58408 0.88185 0
M  V30 2799 C 271.548 2.62854 -2.4686 0
M  V30 2800 O 270.652 3.62501 -1.9664 0
M  V30 2801 H 269.993 0.427642 -0.507955 0
M  V30 2802 H 272.523 0.777422 -1.89255 0
M  V30 2803 H 272.533 3.10465 -2.64718 0
M  V30 2804 H 271.208 2.29578 -3.46795 0
M  V30 2805 H 269.785 3.21735 -1.88523 0
M  V30 2806 N 271.97 1.30982 0.876444 0
M  V30 2807 C 272.9 1.20668 1.99903 0
M  V30 2808 C 273.881 0.095354 1.69833 0
M  V30 2809 O 275.066 0.27885 1.92188 0
M  V30 2810 C 272.196 0.90655 3.3526 0
M  V30 2811 C 271.15 1.97675 3.79617 0
M  V30 2812 C 270.476 1.52943 5.1236 0
M  V30 2813 C 271.776 3.389 3.97422 0
M  V30 2814 H 273.47 2.14586 2.0879 0
M  V30 2815 H 271.016 1.03308 1.00317 0
M  V30 2816 H 272.969 0.821025 4.13324 0
M  V30 2817 H 271.693 -0.0682969 3.26529 0
M  V30 2818 H 270.352 2.05205 3.03787 0
M  V30 2819 H 270 0.54262 5.00065 0
M  V30 2820 H 269.7 2.24532 5.43009 0
M  V30 2821 H 271.224 1.45786 5.92941 0
M  V30 2822 H 272.638 3.34081 4.659 0
M  V30 2823 H 271.035 4.0865 4.3946 0
M  V30 2824 H 272.105 3.80163 3.01006 0
M  V30 2825 N 273.449 -1.08991 1.13837 0
M  V30 2826 C 274.697 -1.80899 0.901098 0
M  V30 2827 C 275.018 -1.86356 -0.574134 0
M  V30 2828 O 274.288 -1.35235 -1.41733 0
M  V30 2829 H 272.868 -0.669966 0.330386 0
M  V30 2830 H 275.53 -1.318 1.43578 0
M  V30 2831 H 274.626 -2.83929 1.29578 0
M  V30 2832 N 274.927 -0.932562 -1.27047 0
M  V30 2833 C 275.857 -0.452902 -2.29066 0
M  V30 2834 C 276.838 0.489338 -1.62909 0
M  V30 2835 O 278.023 0.393046 -1.90181 0
M  V30 2836 C 275.153 0.290698 -3.46081 0
M  V30 2837 C 274.107 -0.564168 -4.24265 0
M  V30 2838 C 273.433 0.308886 -5.33807 0
M  V30 2839 C 274.733 -1.83112 -4.89149 0
M  V30 2840 H 276.427 -1.30552 -2.69437 0
M  V30 2841 H 273.973 -0.629201 -1.29526 0
M  V30 2842 H 275.926 0.637233 -4.16554 0
M  V30 2843 H 274.65 1.17738 -3.0464 0
M  V30 2844 H 273.309 -0.893477 -3.55545 0
M  V30 2845 H 272.957 1.19467 -4.88607 0
M  V30 2846 H 272.657 -0.259633 -5.87026 0
M  V30 2847 H 274.181 0.650884 -6.07121 0
M  V30 2848 H 275.595 -1.55236 -5.51883 0
M  V30 2849 H 273.992 -2.34353 -5.52448 0
M  V30 2850 H 275.062 -2.54772 -4.12576 0
M  V30 2851 N 276.405 1.4127 -0.698611 0
M  V30 2852 C 277.352 2.30773 -0.0352094 0
M  V30 2853 C 278.322 1.47273 0.768111 0
M  V30 2854 O 279.507 1.76053 0.735524 0
M  V30 2855 C 276.647 3.33346 0.893 0
M  V30 2856 C 275.76 4.31924 0.0809695 0
M  V30 2857 C 274.895 5.21566 1.0071 0
M  V30 2858 C 273.934 6.11811 0.188155 0
M  V30 2859 N 273.071 6.93926 1.06825 0
M  V30 2860 H 277.911 2.86943 -0.804207 0
M  V30 2861 H 275.448 1.4132 -0.408294 0
M  V30 2862 H 277.406 3.91368 1.44523 0
M  V30 2863 H 276.036 2.78719 1.62836 0
M  V30 2864 H 275.088 3.75825 -0.588224 0
M  V30 2865 H 276.4 4.95716 -0.553801 0
M  V30 2866 H 275.554 5.84437 1.62845 0
M  V30 2867 H 274.293 4.58008 1.67572 0
M  V30 2868 H 273.298 5.47986 -0.446254 0
M  V30 2869 H 274.523 6.77425 -0.476716 0
M  V30 2870 H 272.469 6.32973 1.72283 0
M  V30 2871 H 272.386 7.54416 0.489123 0
M  V30 2872 H 273.654 7.61262 1.67632 0
M  V30 2873 N 277.883 0.443576 1.51229 0
M  V30 2874 C 279.129 -0.120975 2.02439 0
M  V30 2875 C 279.462 -1.41815 1.32674 0
M  V30 2876 O 278.737 -1.89373 0.443622 0
M  V30 2877 C 279.02 -0.333291 3.58554 0
M  V30 2878 C 278.873 0.982968 4.38928 0
M  V30 2879 C 280.192 -1.10028 4.26124 0
M  V30 2880 H 277.311 -0.0424923 0.735774 0
M  V30 2881 H 279.953 0.583794 1.80809 0
M  V30 2882 H 278.103 -0.933614 3.77115 0
M  V30 2883 H 279.775 1.61775 4.32003 0
M  V30 2884 H 278.018 1.58611 4.03763 0
M  V30 2885 H 278.689 0.788379 5.46341 0
M  V30 2886 H 281.165 -0.591711 4.11871 0
M  V30 2887 H 280.041 -1.21761 5.35225 0
M  V30 2888 H 280.302 -2.12996 3.87408 0
M  V30 2889 N 279.361 -1.56624 0.175154 0
M  V30 2890 C 280.309 -2.19468 -0.770495 0
M  V30 2891 C 281.303 -1.15985 -1.23466 0
M  V30 2892 O 282.509 -1.34176 -1.19987 0
M  V30 2893 H 278.884 -0.703095 -0.266761 0
M  V30 2894 H 280.855 -2.97613 -0.216542 0
M  V30 2895 C 279.604 -2.85264 -1.98796 0
M  V30 2896 H 278.927 -3.64623 -1.63983 0
M  V30 2897 H 280.367 -3.327 -2.62843 0
M  V30 2898 C 278.826 -1.85239 -2.81404 0
M  V30 2899 O 279.356 -1.34024 -3.78682 0
M  V30 2900 N 277.562 -1.53911 -2.46495 0
M  V30 2901 H 277.109 -1.95751 -1.67449 0
M  V30 2902 H 277.067 -0.872382 -3.02054 0
M  V30 2903 N 280.839 0.0985539 -1.57292 0
M  V30 2904 C 281.802 1.10402 -2.00858 0
M  V30 2905 C 282.802 1.33146 -0.901593 0
M  V30 2906 O 283.992 1.29318 -1.16716 0
M  V30 2907 C 281.124 2.45394 -2.36632 0
M  V30 2908 H 282.317 0.729099 -2.90902 0
M  V30 2909 H 279.87 0.343495 -1.52479 0
M  V30 2910 H 280.605 2.87769 -1.49531 0
M  V30 2911 H 280.39 2.30235 -3.17387 0
M  V30 2912 H 281.88 3.17718 -2.71007 0
M  V30 2913 N 282.317 1.53212 0.369288 0
M  V30 2914 C 283.565 1.68881 1.11012 0
M  V30 2915 C 283.886 0.441285 1.89941 0
M  V30 2916 O 283.156 -0.544623 1.88177 0
M  V30 2917 H 281.736 0.622569 0.412816 0
M  V30 2918 H 284.398 1.90391 0.416802 0
M  V30 2919 H 283.494 2.54822 1.80201 0
M  V30 2920 N 283.795 -0.628877 1.44509 0
M  V30 2921 C 284.745 -1.7345 1.47983 0
M  V30 2922 C 285.729 -1.5715 0.345373 0
M  V30 2923 O 286.921 -1.66848 0.590829 0
M  V30 2924 C 284.05 -3.12143 1.42904 0
M  V30 2925 C 283.136 -3.33906 2.61472 0
M  V30 2926 N 283.527 -3.26024 3.86706 0
M  V30 2927 C 281.825 -3.64709 2.56716 0
M  V30 2928 C 282.526 -3.48536 4.65722 0
M  V30 2929 N 281.502 -3.71517 3.96832 0
M  V30 2930 H 285.304 -1.65818 2.42655 0
M  V30 2931 H 282.818 -0.831419 1.39503 0
M  V30 2932 H 284.815 -3.91433 1.43476 0
M  V30 2933 H 283.475 -3.2094 0.492717 0
M  V30 2934 H 284.486 -3.04893 4.18641 0
M  V30 2935 H 281.163 -3.80473 1.71891 0
M  V30 2936 H 282.553 -3.48016 5.74747 0
M  V30 2937 N 285.273 -1.31445 -0.869486 0
M  V30 2938 C 286.521 -1.20918 -1.61936 0
M  V30 2939 C 286.842 0.232683 -1.93607 0
M  V30 2940 O 286.112 1.15352 -1.58338 0
M  V30 2941 H 284.692 -0.44454 -0.600328 0
M  V30 2942 H 287.354 -1.64776 -1.0409 0
M  V30 2943 H 286.45 -1.78124 -2.56278 0
M  V30 2944 N 286.751 1.08385 -1.14413 0
M  V30 2945 C 287.681 2.17321 -0.854044 0
M  V30 2946 C 288.662 1.69024 0.191049 0
M  V30 2947 O 289.847 1.94141 0.0476779 0
M  V30 2948 C 286.977 3.45719 -0.330983 0
M  V30 2949 C 285.931 4.07409 -1.31155 0
M  V30 2950 C 285.257 5.30762 -0.64778 0
M  V30 2951 C 286.557 4.48665 -2.67388 0
M  V30 2952 H 288.251 2.41845 -1.76498 0
M  V30 2953 H 285.797 1.16233 -0.850051 0
M  V30 2954 H 287.75 4.21241 -0.115645 0
M  V30 2955 H 286.474 3.2075 0.615381 0
M  V30 2956 H 285.133 3.33919 -1.51306 0
M  V30 2957 H 284.781 5.02078 0.304398 0
M  V30 2958 H 284.481 5.72992 -1.30207 0
M  V30 2959 H 286.005 6.08998 -0.441972 0
M  V30 2960 H 287.419 5.15364 -2.51143 0
M  V30 2961 H 285.816 5.01814 -3.29093 0
M  V30 2962 H 286.886 3.60543 -3.24248 0
M  V30 2963 N 288.23 0.939286 1.26551 0
M  V30 2964 C 289.458 0.602536 1.97932 0
M  V30 2965 C 289.873 -0.82206 1.69964 0
M  V30 2966 O 289.23 -1.54789 0.966784 0
M  V30 2967 C 289.281 0.832946 3.51773 0
M  V30 2968 O 289.002 2.20151 3.78768 0
M  V30 2969 C 290.503 0.506483 4.40397 0
M  V30 2970 H 287.723 0.227248 0.631347 0
M  V30 2971 H 290.267 1.25948 1.61113 0
M  V30 2972 H 288.422 0.222644 3.8676 0
M  V30 2973 H 288.836 2.26013 4.73306 0
M  V30 2974 H 290.31 0.718333 5.47306 0
M  V30 2975 H 290.787 -0.558451 4.35635 0
M  V30 2976 H 291.393 1.09543 4.10951 0
M  V30 2977 N 289.708 -1.40897 0.706093 0
M  V30 2978 C 290.938 -2.05075 0.250523 0
M  V30 2979 C 291.346 -1.53275 -1.10921 0
M  V30 2980 O 290.689 -0.680281 -1.7064 0
M  V30 2981 C 290.751 -3.59219 0.142178 0
M  V30 2982 C 290.415 -4.33864 1.43566 0
M  V30 2983 C 291.412 -4.62448 2.37566 0
M  V30 2984 C 289.097 -4.72946 1.69195 0
M  V30 2985 C 291.091 -5.29088 3.5545 0
M  V30 2986 C 288.778 -5.3932 2.87362 0
M  V30 2987 C 289.776 -5.6732 3.80312 0
M  V30 2988 O 289.464 -6.32325 4.96408 0
M  V30 2989 H 289.196 -0.666645 0.112074 0
M  V30 2990 H 291.75 -1.81467 0.962239 0
M  V30 2991 H 289.98 -3.81609 -0.6254 0
M  V30 2992 H 291.669 -4.0495 -0.277584 0
M  V30 2993 H 292.435 -4.32727 2.19027 0
M  V30 2994 H 288.314 -4.50527 0.977042 0
M  V30 2995 H 291.858 -5.50859 4.28018 0
M  V30 2996 H 287.755 -5.68461 3.05814 0
M  V30 2997 H 288.523 -6.50821 4.9636 0
M  V30 2998 N 291.186 -0.45159 -1.50991 0
M  V30 2999 C 292.136 0.370861 -2.24964 0
M  V30 3000 C 293.12 0.978074 -1.2776 0
M  V30 3001 O 294.312 0.893854 -1.52772 0
M  V30 3002 C 291.441 1.46344 -3.10545 0
M  V30 3003 C 290.527 0.864924 -4.15187 0
M  V30 3004 N 290.918 -0.00311354 -5.058 0
M  V30 3005 C 289.216 1.13099 -4.31422 0
M  V30 3006 C 289.917 -0.340772 -5.80701 0
M  V30 3007 N 288.893 0.279203 -5.42883 0
M  V30 3008 H 292.695 -0.298134 -2.92384 0
M  V30 3009 H 290.209 -0.264528 -1.60231 0
M  V30 3010 H 292.206 2.06565 -3.62128 0
M  V30 3011 H 290.866 2.13463 -2.4467 0
M  V30 3012 H 291.877 -0.37058 -5.16572 0
M  V30 3013 H 288.554 1.79861 -3.76771 0
M  V30 3014 H 289.944 -1.048 -6.63677 0
M  V30 3015 N 292.664 1.56529 -0.183458 0
M  V30 3016 C 293.612 2.19873 0.758845 0
M  V30 3017 C 294.606 1.16638 1.22849 0
M  V30 3018 O 295.812 1.3481 1.19274 0
M  V30 3019 H 292.187 0.7045 0.263029 0
M  V30 3020 H 294.158 2.97724 0.200755 0
M  V30 3021 C 292.907 2.86314 1.9728 0
M  V30 3022 H 292.23 3.65487 1.62047 0
M  V30 3023 H 293.67 3.3409 2.61075 0
M  V30 3024 C 292.129 1.86729 2.80418 0
M  V30 3025 O 292.659 1.36031 3.77966 0
M  V30 3026 N 290.865 1.55216 2.45675 0
M  V30 3027 H 290.412 1.96636 1.66409 0
M  V30 3028 H 290.37 0.888388 3.01588 0
M  V30 3029 N 294.142 -0.090211 1.57342 0
M  V30 3030 C 295.388 -0.793982 1.86611 0
M  V30 3031 C 295.721 -1.78142 0.773252 0
M  V30 3032 O 294.996 -1.93271 -0.218304 0
M  V30 3033 C 295.279 -1.51839 3.26523 0
M  V30 3034 C 295.132 -0.548609 4.46442 0
M  V30 3035 C 296.451 -2.46779 3.64401 0
M  V30 3036 H 293.57 -0.287186 0.678744 0
M  V30 3037 H 296.212 -0.0575076 1.89913 0
M  V30 3038 H 294.362 -2.14617 3.23839 0
M  V30 3039 H 296.034 0.0725513 4.61243 0
M  V30 3040 H 294.277 0.137614 4.33582 0
M  V30 3041 H 294.948 -1.09271 5.41076 0
M  V30 3042 H 297.424 -1.94089 3.68061 0
M  V30 3043 H 296.3 -2.94479 4.63221 0
M  V30 3044 H 296.561 -3.30758 2.93346 0
M  V30 3045 N 295.62 -1.53406 -0.361157 0
M  V30 3046 C 296.567 -1.80156 -1.44265 0
M  V30 3047 C 297.537 -0.646183 -1.53015 0
M  V30 3048 O 298.722 -0.888818 -1.68833 0
M  V30 3049 C 295.862 -2.00116 -2.81154 0
M  V30 3050 C 294.975 -3.27833 -2.81335 0
M  V30 3051 C 294.11 -3.37957 -4.09828 0
M  V30 3052 C 293.149 -4.59689 -4.04168 0
M  V30 3053 N 292.286 -4.66942 -5.24318 0
M  V30 3054 H 297.126 -2.72438 -1.20754 0
M  V30 3055 H 294.663 -1.34954 -0.585296 0
M  V30 3056 H 296.621 -2.09677 -3.60682 0
M  V30 3057 H 295.251 -1.11167 -3.03054 0
M  V30 3058 H 294.303 -3.27204 -1.94014 0
M  V30 3059 H 295.615 -4.17442 -2.73027 0
M  V30 3060 H 294.769 -3.46853 -4.97773 0
M  V30 3061 H 293.508 -2.46372 -4.20894 0
M  V30 3062 H 292.513 -4.50889 -3.14609 0
M  V30 3063 H 293.738 -5.5262 -3.947 0
M  V30 3064 H 291.684 -3.7826 -5.35962 0
M  V30 3065 H 291.601 -5.50462 -5.18197 0
M  V30 3066 H 292.869 -4.80127 -6.14084 0
M  V30 3067 N 297.098 0.621204 -1.44841 0
M  V30 3068 C 298.061 1.71459 -1.521 0
M  V30 3069 C 299.061 1.55696 -0.401933 0
M  V30 3070 O 300.251 1.61011 -0.664925 0
M  V30 3071 C 297.383 3.10624 -1.40447 0
M  V30 3072 H 298.576 1.66394 -2.49506 0
M  V30 3073 H 296.129 0.835745 -1.3208 0
M  V30 3074 H 296.864 3.21277 -0.441737 0
M  V30 3075 H 296.649 3.23473 -2.21602 0
M  V30 3076 H 298.139 3.90293 -1.4853 0
M  V30 3077 N 298.576 1.31904 0.862503 0
M  V30 3078 C 299.825 1.21373 1.61094 0
M  V30 3079 C 300.138 -0.22504 1.94301 0
M  V30 3080 O 301.344 -0.452121 2.67709 0
M  V30 3081 C 299.8 2.12525 2.9045 0
M  V30 3082 C 299.408 3.61441 2.64697 0
M  V30 3083 C 301.152 2.10813 3.68454 0
M  V30 3084 C 299.059 4.44578 3.90006 0
M  V30 3085 H 297.989 0.450705 0.604468 0
M  V30 3086 H 300.64 1.56811 0.953027 0
M  V30 3087 H 299.022 1.69994 3.57656 0
M  V30 3088 H 300.196 4.12264 2.05851 0
M  V30 3089 H 298.511 3.65205 2.00036 0
M  V30 3090 H 301.108 2.70167 4.61426 0
M  V30 3091 H 301.451 1.09713 4.01583 0
M  V30 3092 H 301.984 2.51583 3.08141 0
M  V30 3093 H 298.723 5.46461 3.62023 0
M  V30 3094 H 298.243 3.98508 4.48276 0
M  V30 3095 H 299.922 4.57176 4.5782 0
M  V30 3096 N 300.054 -1.07777 1.14986 0
M  V30 3097 C 301.017 -2.13041 0.845358 0
M  V30 3098 C 302.017 -1.60071 -0.152931 0
M  V30 3099 O 303.207 -1.74033 0.0761879 0
M  V30 3100 C 300.339 -3.39896 0.261383 0
M  V30 3101 H 301.532 -2.41485 1.77834 0
M  V30 3102 H 299.085 -1.23595 0.956757 0
M  V30 3103 H 299.82 -3.17091 -0.68 0
M  V30 3104 H 299.605 -3.79642 0.980514 0
M  V30 3105 H 301.095 -4.17548 0.0657687 0
M  V30 3106 N 301.532 -0.945985 -1.26051 0
M  V30 3107 C 302.495 -0.463897 -2.24456 0
M  V30 3108 C 303.495 0.427655 -1.55009 0
M  V30 3109 O 304.685 0.226157 -1.72726 0
M  V30 3110 C 301.817 0.330812 -3.39291 0
M  V30 3111 H 303.01 -1.33357 -2.68619 0
M  V30 3112 H 300.563 -0.728416 -1.38289 0
M  V30 3113 H 301.298 1.21852 -3.00537 0
M  V30 3114 H 301.083 -0.308679 -3.90883 0
M  V30 3115 H 302.573 0.657865 -4.12386 0
M  V30 3116 N 303.011 1.40521 -0.713556 0
M  V30 3117 C 304.26 2.00155 -0.249192 0
M  V30 3118 C 304.573 1.57224 1.16362 0
M  V30 3119 O 305.779 2.09542 1.72639 0
M  V30 3120 C 304.235 3.5773 -0.3946 0
M  V30 3121 C 303.843 4.09635 -1.81392 0
M  V30 3122 C 305.587 4.24499 0.00907364 0
M  V30 3123 C 303.494 5.59707 -1.91003 0
M  V30 3124 H 302.424 0.74868 -0.0894114 0
M  V30 3125 H 305.075 1.60784 -0.884352 0
M  V30 3126 H 303.457 3.94792 0.30911 0
M  V30 3127 H 304.631 3.83955 -2.54785 0
M  V30 3128 H 302.946 3.55456 -2.16888 0
M  V30 3129 H 305.543 5.34683 -0.0420404 0
M  V30 3130 H 305.886 4.02824 1.05065 0
M  V30 3131 H 306.419 3.92536 -0.645007 0
M  V30 3132 H 303.158 5.86234 -2.93275 0
M  V30 3133 H 302.678 5.87258 -1.22019 0
M  V30 3134 H 304.357 6.24776 -1.6812 0
M  V30 3135 N 304.489 0.459591 1.5075 0
M  V30 3136 C 305.9 0.00171547 1.867 0
M  V30 3137 C 306.251 -1.39934 1.37525 0
M  V30 3138 O 305.376 -2.03523 0.735349 0
M  V30 3139 C 305.971 -0.00366298 3.388 0
M  V30 3140 C 304.53 -0.406026 3.74204 0
M  V30 3141 C 303.677 0.38673 2.7459 0
M  V30 3142 H 306.628 0.674413 1.43657 0
M  V30 3143 H 306.649 -0.808371 3.71814 0
M  V30 3144 H 306.161 1.01617 3.74561 0
M  V30 3145 H 304.262 -1.43063 3.4404 0
M  V30 3146 H 304.375 -0.115362 4.78961 0
M  V30 3147 H 302.739 -0.158019 2.54209 0
M  V30 3148 H 303.522 1.40585 3.13194 0
M  V30 3149 N 305.967 -1.56429 0.191757 0
M  V30 3150 C 306.877 -2.22541 -0.742481 0
M  V30 3151 C 307.893 -1.22342 -1.23727 0
M  V30 3152 O 309.069 -1.55069 -1.28513 0
M  V30 3153 C 306.134 -2.8692 -1.94623 0
M  V30 3154 C 305.195 -4.02378 -1.49633 0
M  V30 3155 C 304.428 -4.63678 -2.6427 0
M  V30 3156 O 304.651 -4.23895 -3.81666 0
M  V30 3157 O 303.585 -5.53202 -2.37174 0
M  V30 3158 H 307.411 -3.02977 -0.209462 0
M  V30 3159 H 304.996 -1.49353 -0.0373832 0
M  V30 3160 H 306.878 -3.27663 -2.64982 0
M  V30 3161 H 305.553 -2.09466 -2.46791 0
M  V30 3162 H 304.46 -3.66265 -0.761636 0
M  V30 3163 H 305.793 -4.81487 -1.02134 0
M  V30 3164 N 307.445 0.0818655 -1.57387 0
M  V30 3165 C 308.378 1.12986 -1.98266 0
M  V30 3166 C 309.356 1.38123 -0.857954 0
M  V30 3167 O 310.54 1.51663 -1.1194 0
M  V30 3168 C 307.667 2.47632 -2.31076 0
M  V30 3169 C 306.713 2.38693 -3.53452 0
M  V30 3170 S 307.546 1.79071 -5.04672 0
M  V30 3171 C 308.702 3.15316 -5.40673 0
M  V30 3172 H 308.935 0.781435 -2.86846 0
M  V30 3173 H 306.468 0.290034 -1.51651 0
M  V30 3174 H 308.426 3.25089 -2.50654 0
M  V30 3175 H 307.087 2.79638 -1.43043 0
M  V30 3176 H 306.28 3.37964 -3.73893 0
M  V30 3177 H 305.882 1.69369 -3.33452 0
M  V30 3178 H 308.174 4.11613 -5.38127 0
M  V30 3179 H 309.117 2.99664 -6.41566 0
M  V30 3180 H 309.525 3.15457 -4.68132 0
M  V30 3181 N 308.923 1.53595 0.353017 0
M  V30 3182 C 309.873 1.77299 1.43349 0
M  V30 3183 C 310.857 0.627884 1.48143 0
M  V30 3184 O 312.049 0.88697 1.53173 0
M  V30 3185 C 309.178 1.97757 2.80619 0
M  V30 3186 C 308.264 3.18305 2.80254 0
M  V30 3187 N 308.655 4.39967 2.49526 0
M  V30 3188 C 306.953 3.19283 3.11407 0
M  V30 3189 C 307.654 5.21772 2.57156 0
M  V30 3190 N 306.63 4.58269 2.92388 0
M  V30 3191 H 310.432 2.68963 1.18474 0
M  V30 3192 H 307.946 1.52391 0.561306 0
M  V30 3193 H 309.943 2.1287 3.58458 0
M  V30 3194 H 308.603 1.07329 3.06448 0
M  V30 3195 H 309.614 4.67482 2.22893 0
M  V30 3196 H 306.291 2.3879 3.4247 0
M  V30 3197 H 307.681 6.2885 2.36638 0
M  V30 3198 N 310.401 -0.613514 1.45168 0
M  V30 3199 C 311.311 -1.75296 1.55912 0
M  V30 3200 C 312.327 -1.68244 0.443856 0
M  V30 3201 O 313.503 -1.88706 0.70371 0
M  V30 3202 C 310.568 -3.1174 1.5172 0
M  V30 3203 C 309.629 -3.30291 2.74238 0
M  V30 3204 C 308.862 -4.60226 2.70236 0
M  V30 3205 O 309.085 -5.42168 1.77229 0
M  V30 3206 O 308.019 -4.81361 3.61352 0
M  V30 3207 H 311.845 -1.69183 2.52212 0
M  V30 3208 H 309.43 -0.776886 1.27612 0
M  V30 3209 H 311.312 -3.93044 1.51968 0
M  V30 3210 H 309.987 -3.18357 0.585697 0
M  V30 3211 H 308.894 -2.48598 2.79553 0
M  V30 3212 H 310.227 -3.28547 3.66494 0
M  V30 3213 N 311.879 -1.3236 -0.855495 0
M  V30 3214 C 312.809 -1.23833 -1.97958 0
M  V30 3215 C 313.79 -0.122361 -1.69659 0
M  V30 3216 O 314.975 -0.30939 -1.9172 0
M  V30 3217 C 312.105 -0.959772 -3.33775 0
M  V30 3218 C 311.059 -2.03689 -3.76424 0
M  V30 3219 C 310.385 -1.61075 -5.09862 0
M  V30 3220 C 311.685 -3.4518 -3.9198 0
M  V30 3221 H 313.379 -2.1788 -2.0535 0
M  V30 3222 H 310.925 -1.04891 -0.986605 0
M  V30 3223 H 312.878 -0.886678 -4.11966 0
M  V30 3224 H 311.602 0.0163404 -3.26596 0
M  V30 3225 H 310.261 -2.10012 -3.00484 0
M  V30 3226 H 309.909 -0.622107 -4.99138 0
M  V30 3227 H 309.609 -2.33143 -5.39368 0
M  V30 3228 H 311.133 -1.55201 -5.90546 0
M  V30 3229 H 312.547 -3.4145 -4.60526 0
M  V30 3230 H 310.944 -4.1559 -4.32903 0
M  V30 3231 H 312.014 -3.84903 -2.94919 0
M  V30 3232 N 313.357 1.07166 -1.15556 0
M  V30 3233 C 314.305 2.16517 -0.8499 0
M  V30 3234 C 315.299 1.68468 0.177454 0
M  V30 3235 O 316.505 1.79971 0.0323026 0
M  V30 3236 H 312.88 0.706652 -0.25719 0
M  V30 3237 H 314.851 2.39514 -1.77976 0
M  V30 3238 C 313.6 3.45855 -0.357682 0
M  V30 3239 H 312.923 3.83214 -1.13961 0
M  V30 3240 H 314.363 4.23607 -0.182489 0
M  V30 3241 C 312.822 3.24062 0.921152 0
M  V30 3242 O 313.352 3.48813 1.9923 0
M  V30 3243 N 311.558 2.77539 0.86141 0
M  V30 3244 H 311.105 2.57598 -0.0104408 0
M  V30 3245 H 311.063 2.63337 1.71758 0
M  V30 3246 N 314.835 0.952656 1.25548 0
M  V30 3247 C 316.084 0.602053 1.92505 0
M  V30 3248 C 316.397 -0.864663 1.75451 0
M  V30 3249 O 317.603 -1.32514 2.36965 0
M  V30 3250 C 316.059 1.02607 3.44963 0
M  V30 3251 C 315.667 2.51519 3.70732 0
M  V30 3252 C 317.411 0.747905 4.1786 0
M  V30 3253 C 315.318 2.87732 5.16686 0
M  V30 3254 H 314.248 0.22146 0.720744 0
M  V30 3255 H 316.899 1.15684 1.42441 0
M  V30 3256 H 315.281 0.399712 3.93978 0
M  V30 3257 H 316.455 3.19157 3.32378 0
M  V30 3258 H 314.77 2.76786 3.11092 0
M  V30 3259 H 317.367 0.994647 5.25367 0
M  V30 3260 H 317.71 -0.315629 4.15102 0
M  V30 3261 H 318.243 1.33452 3.74747 0
M  V30 3262 H 314.982 3.93095 5.24554 0
M  V30 3263 H 314.502 2.24765 5.56094 0
M  V30 3264 H 316.181 2.76817 5.84792 0
M  V30 3265 N 316.313 -1.40141 0.720998 0
M  V30 3266 C 317.561 -2.0039 0.262323 0
M  V30 3267 C 317.882 -1.57469 -1.15015 0
M  V30 3268 O 317.152 -0.816582 -1.78069 0
M  V30 3269 H 315.732 -0.741063 0.093996 0
M  V30 3270 H 318.394 -1.71398 0.927835 0
M  V30 3271 H 317.49 -3.10658 0.299671 0
M  V30 3272 N 317.792 -0.46758 -1.50504 0
M  V30 3273 C 318.742 0.34698 -2.25344 0
M  V30 3274 C 319.726 0.964469 -1.2879 0
M  V30 3275 O 320.918 0.8776 -1.53711 0
M  V30 3276 C 318.047 1.43042 -3.1208 0
M  V30 3277 C 317.133 0.82084 -4.16081 0
M  V30 3278 N 317.524 -0.0567602 -5.05768 0
M  V30 3279 C 315.822 1.08517 -4.32597 0
M  V30 3280 C 316.523 -0.402343 -5.80307 0
M  V30 3281 N 315.499 0.221607 -5.43148 0
M  V30 3282 H 319.301 -0.329129 -2.92051 0
M  V30 3283 H 316.815 -0.281508 -1.59942 0
M  V30 3284 H 318.812 2.02712 -3.64299 0
M  V30 3285 H 317.472 2.10856 -2.46921 0
M  V30 3286 H 318.483 -0.425349 -5.1615 0
M  V30 3287 H 315.16 1.75855 -3.78657 0
M  V30 3288 H 316.55 -1.11834 -6.62528 0
M  V30 3289 N 319.27 1.56325 -0.20005 0
M  V30 3290 C 320.233 2.18084 0.705132 0
M  V30 3291 C 321.233 1.13666 1.1374 0
M  V30 3292 O 322.423 1.39023 1.04968 0
M  V30 3293 C 319.555 2.78689 1.96329 0
M  V30 3294 H 320.748 2.99435 0.167023 0
M  V30 3295 H 318.301 1.56221 0.0495725 0
M  V30 3296 H 319.036 2.0115 2.5438 0
M  V30 3297 H 318.821 3.55133 1.66202 0
M  V30 3298 H 320.311 3.26096 2.60866 0
M  V30 3299 N 320.748 -0.0735177 1.57428 0
M  V30 3300 C 321.997 -0.771809 1.86349 0
M  V30 3301 C 322.31 -1.78828 0.792452 0
M  V30 3302 O 323.516 -2.53602 0.96945 0
M  V30 3303 C 321.972 -1.42358 3.30548 0
M  V30 3304 C 321.58 -0.445761 4.45777 0
M  V30 3305 C 323.324 -2.10434 3.6867 0
M  V30 3306 C 321.231 -1.10335 5.81016 0
M  V30 3307 H 320.161 -0.291999 0.695164 0
M  V30 3308 H 322.812 -0.0250749 1.83483 0
M  V30 3309 H 321.194 -2.21852 3.28021 0
M  V30 3310 H 322.368 0.319239 4.59693 0
M  V30 3311 H 320.683 0.130457 4.16196 0
M  V30 3312 H 323.28 -2.60405 4.67004 0
M  V30 3313 H 323.623 -2.90298 2.98383 0
M  V30 3314 H 324.156 -1.37773 3.7318 0
M  V30 3315 H 320.895 -0.345061 6.54591 0
M  V30 3316 H 320.415 -1.83925 5.70904 0
M  V30 3317 H 322.094 -1.62367 6.26295 0
M  V30 3318 N 322.226 -1.5378 -0.344866 0
M  V30 3319 C 323.475 -1.7018 -1.08267 0
M  V30 3320 C 323.788 -0.471 -1.89845 0
M  V30 3321 O 324.994 -0.515917 -2.66553 0
M  V30 3322 C 323.45 -3.00923 -1.97417 0
M  V30 3323 C 323.058 -4.31335 -1.21053 0
M  V30 3324 C 324.802 -3.26688 -2.71063 0
M  V30 3325 C 322.709 -5.53153 -2.09225 0
M  V30 3326 H 321.639 -0.634138 -0.407903 0
M  V30 3327 H 324.29 -1.8028 -0.342246 0
M  V30 3328 H 322.672 -2.84676 -2.75274 0
M  V30 3329 H 323.846 -4.58281 -0.481159 0
M  V30 3330 H 322.161 -4.12173 -0.591813 0
M  V30 3331 H 324.758 -4.1489 -3.37299 0
M  V30 3332 H 325.101 -2.43639 -3.37558 0
M  V30 3333 H 325.634 -3.43705 -2.0028 0
M  V30 3334 H 322.373 -6.38741 -1.47274 0
M  V30 3335 H 321.893 -5.30458 -2.79955 0
M  V30 3336 H 323.572 -5.88744 -2.68308 0
M  V30 3337 N 323.704 0.605807 -1.45491 0
M  V30 3338 C 324.952 1.36207 -1.49305 0
M  V30 3339 C 325.273 1.94519 -0.136863 0
M  V30 3340 O 324.543 1.77261 0.833983 0
M  V30 3341 H 323.123 0.50565 -0.549843 0
M  V30 3342 H 325.785 0.711239 -1.81459 0
M  V30 3343 H 324.881 2.18058 -2.23287 0
M  V30 3344 N 325.182 1.32811 0.848464 0
M  V30 3345 C 326.598 1.11937 1.13764 0
M  V30 3346 C 326.798 -0.0960789 2.01271 0
M  V30 3347 O 325.854 -0.779165 2.40178 0
M  V30 3348 C 327.167 2.402 1.809 0
M  V30 3349 C 328.715 2.46016 1.93508 0
M  V30 3350 C 329.19 3.74215 2.64059 0
M  V30 3351 N 330.681 3.75232 2.71579 0
M  V30 3352 C 331.416 4.71134 3.26833 0
M  V30 3353 N 330.912 5.77406 3.8285 0
M  V30 3354 N 332.705 4.58623 3.24995 0
M  V30 3355 H 324.856 2.1073 0.265855 0
M  V30 3356 H 327.119 0.930671 0.180431 0
M  V30 3357 H 326.825 3.29093 1.24058 0
M  V30 3358 H 326.699 2.51628 2.81004 0
M  V30 3359 H 329.086 1.57577 2.49506 0
M  V30 3360 H 329.167 2.38536 0.923811 0
M  V30 3361 H 328.811 4.63031 2.08722 0
M  V30 3362 H 328.741 3.78968 3.65637 0
M  V30 3363 H 331.232 2.98423 2.31845 0
M  V30 3364 H 331.545 6.46632 4.23187 0
M  V30 3365 H 329.89 5.81152 3.81165 0
M  V30 3366 H 333.081 3.74762 2.80484 0
M  V30 3367 H 333.254 5.33535 3.67756 0
M  V30 3368 N 326.66 -1.06551 1.16123 0
M  V30 3369 C 327.623 -2.12132 0.867906 0
M  V30 3370 C 328.623 -1.60224 -0.135944 0
M  V30 3371 O 329.813 -1.73943 0.0946422 0
M  V30 3372 C 326.945 -3.396 0.297419 0
M  V30 3373 H 328.138 -2.39586 1.80385 0
M  V30 3374 H 325.691 -1.22574 0.969812 0
M  V30 3375 H 326.426 -3.17794 -0.64633 0
M  V30 3376 H 326.211 -3.78581 1.02073 0
M  V30 3377 H 327.701 -4.17455 0.110052 0
M  V30 3378 N 328.138 -0.959301 -1.25041 0
M  V30 3379 C 329.384 -0.617525 -1.9317 0
M  V30 3380 C 329.717 0.843981 -1.74902 0
M  V30 3381 O 328.992 1.60615 -1.09696 0
M  V30 3382 C 329.275 -0.982736 -3.46431 0
M  V30 3383 C 329.128 -2.50032 -3.73904 0
M  V30 3384 C 330.447 -0.511176 -4.37121 0
M  V30 3385 H 327.566 -0.22582 -0.701552 0
M  V30 3386 H 330.208 -1.19679 -1.4757 0
M  V30 3387 H 328.358 -0.489806 -3.854 0
M  V30 3388 H 330.03 -3.06737 -3.44544 0
M  V30 3389 H 328.273 -2.93598 -3.19348 0
M  V30 3390 H 328.944 -2.70635 -4.81103 0
M  V30 3391 H 331.42 -0.934075 -4.0548 0
M  V30 3392 H 330.296 -0.795361 -5.43107 0
M  V30 3393 H 330.557 0.588834 -4.38161 0
M  V30 3394 N 329.616 1.39756 -0.72842 0
M  V30 3395 C 330.549 2.28176 -0.0330172 0
M  V30 3396 C 331.527 1.44035 0.754501 0
M  V30 3397 O 332.711 1.73434 0.738445 0
M  V30 3398 C 329.838 3.24795 0.960504 0
M  V30 3399 C 328.884 4.25693 0.262264 0
M  V30 3400 S 329.717 5.25714 -1.01906 0
M  V30 3401 C 330.873 6.25894 -0.0279717 0
M  V30 3402 H 331.106 2.86807 -0.78287 0
M  V30 3403 H 328.639 1.45382 -0.519951 0
M  V30 3404 H 330.597 3.80983 1.52846 0
M  V30 3405 H 329.258 2.65196 1.68315 0
M  V30 3406 H 328.451 4.93699 1.01379 0
M  V30 3407 H 328.053 3.7327 -0.233482 0
M  V30 3408 H 330.345 6.72585 0.814621 0
M  V30 3409 H 331.288 7.04876 -0.67499 0
M  V30 3410 H 331.696 5.63466 0.341489 0
M  V30 3411 N 331.094 0.475555 1.50254 0
M  V30 3412 C 332.322 -0.0754493 2.06762 0
M  V30 3413 C 332.737 -1.33111 1.33891 0
M  V30 3414 O 332.094 -1.77846 0.40952 0
M  V30 3415 C 332.145 -0.359008 3.59713 0
M  V30 3416 O 331.866 0.846851 4.29837 0
M  V30 3417 C 333.367 -0.956484 4.32858 0
M  V30 3418 H 330.587 0.00907525 0.670939 0
M  V30 3419 H 333.131 0.665618 1.93364 0
M  V30 3420 H 331.286 -1.05001 3.72899 0
M  V30 3421 H 331.7 0.594162 5.21124 0
M  V30 3422 H 333.174 -1.10463 5.40834 0
M  V30 3423 H 333.651 -1.94775 3.93649 0
M  V30 3424 H 334.257 -0.303723 4.24214 0
M  V30 3425 N 332.573 -1.56217 0.208337 0
M  V30 3426 C 333.821 -1.97558 -0.426076 0
M  V30 3427 C 334.142 -1.09683 -1.61229 0
M  V30 3428 O 333.412 -0.170956 -1.95153 0
M  V30 3429 H 331.992 -0.729575 -0.160405 0
M  V30 3430 H 334.654 -1.92606 0.298155 0
M  V30 3431 H 333.75 -3.02672 -0.761312 0
M  V30 3432 N 334.051 0.0651679 -1.57465 0
M  V30 3433 C 334.981 1.07693 -2.07182 0
M  V30 3434 C 335.962 1.39962 -0.966673 0
M  V30 3435 O 337.147 1.49475 -1.2398 0
M  V30 3436 C 334.277 2.3885 -2.52127 0
M  V30 3437 C 333.231 2.20917 -3.66579 0
M  V30 3438 C 332.557 3.57515 -3.97601 0
M  V30 3439 C 333.857 1.62493 -4.9638 0
M  V30 3440 H 335.551 0.663199 -2.91962 0
M  V30 3441 H 333.097 0.317569 -1.40455 0
M  V30 3442 H 335.05 3.09928 -2.85522 0
M  V30 3443 H 333.774 2.82215 -1.64384 0
M  V30 3444 H 332.433 1.52279 -3.33477 0
M  V30 3445 H 332.081 3.98463 -3.06979 0
M  V30 3446 H 331.781 3.46353 -4.74672 0
M  V30 3447 H 333.305 4.30013 -4.33499 0
M  V30 3448 H 334.719 2.23445 -5.27963 0
M  V30 3449 H 333.116 1.62009 -5.77818 0
M  V30 3450 H 334.186 0.587041 -4.81333 0
M  V30 3451 N 335.529 1.53961 0.336706 0
M  V30 3452 C 336.476 1.82428 1.41381 0
M  V30 3453 C 337.446 0.670444 1.51968 0
M  V30 3454 O 338.631 0.915565 1.67398 0
M  V30 3455 C 335.771 2.04564 2.77934 0
M  V30 3456 C 334.884 3.32267 2.76084 0
M  V30 3457 C 334.019 3.44434 4.04399 0
M  V30 3458 C 333.058 4.66061 3.96804 0
M  V30 3459 N 332.195 4.75224 5.16823 0
M  V30 3460 H 337.035 2.74324 1.16405 0
M  V30 3461 H 334.572 1.35869 0.563752 0
M  V30 3462 H 336.53 2.15388 3.57301 0
M  V30 3463 H 335.16 1.15974 3.01247 0
M  V30 3464 H 334.212 3.3025 1.88784 0
M  V30 3465 H 335.524 4.21733 2.66351 0
M  V30 3466 H 334.678 3.54728 4.92192 0
M  V30 3467 H 333.417 2.53037 4.16921 0
M  V30 3468 H 332.422 4.55838 3.07396 0
M  V30 3469 H 333.647 5.58829 3.85858 0
M  V30 3470 H 331.593 3.86739 5.29876 0
M  V30 3471 H 331.51 5.58636 5.09374 0
M  V30 3472 H 332.778 4.89835 6.06367 0
M  V30 3473 N 337.007 -0.598083 1.45811 0
M  V30 3474 C 338.284 -1.35777 1.40797 0
M  V30 3475 C 338.664 -2.10935 0.083462 0
M  V30 3476 O 338.012 -2.08505 -0.934763 0
M  V30 3477 C 338.222 -2.29666 2.62783 0
M  V30 3478 C 339.57 -2.91977 3.08277 0
M  V30 3479 O 340.594 -2.39984 2.63223 0
M  V30 3480 O 339.453 -3.86376 3.86491 0
M  V30 3481 H 336.547 -0.609291 0.55919 0
M  V30 3482 H 339.093 -0.620379 1.57954 0
M  V30 3483 H 337.865 -1.73454 3.50756 0
M  V30 3484 H 337.488 -3.1077 2.48008 0
M  V30 3485 N 338.485 -1.33259 -0.841409 0
M  V30 3486 C 339.448 -1.23221 -1.9326 0
M  V30 3487 C 340.448 -0.151895 -1.60081 0
M  V30 3488 O 341.638 -0.403246 -1.69468 0
M  V30 3489 C 338.77 -0.898123 -3.28856 0
M  V30 3490 H 339.963 -2.2021 -2.03587 0
M  V30 3491 H 337.516 -1.17281 -1.03319 0
M  V30 3492 H 338.251 0.0693841 -3.24226 0
M  V30 3493 H 338.036 -1.67934 -3.54317 0
M  V30 3494 H 339.526 -0.852563 -4.08805 0
M  V30 3495 N 339.963 1.05934 -1.16686 0
M  V30 3496 C 341.209 1.79065 -0.95203 0
M  V30 3497 C 341.542 1.87147 0.518629 0
M  V30 3498 O 340.817 1.36574 1.38484 0
M  V30 3499 C 341.1 3.23359 -1.58464 0
M  V30 3500 C 340.953 3.23336 -3.12689 0
M  V30 3501 C 342.272 4.21004 -1.28232 0
M  V30 3502 H 339.391 0.65005 -0.34728 0
M  V30 3503 H 342.033 1.23868 -1.44072 0
M  V30 3504 H 340.183 3.70493 -1.16908 0
M  V30 3505 H 341.855 2.84336 -3.6325 0
M  V30 3506 H 340.098 2.61886 -3.4583 0
M  V30 3507 H 340.769 4.25144 -3.52075 0
M  V30 3508 H 343.245 3.8233 -1.64203 0
M  V30 3509 H 342.121 5.20225 -1.75092 0
M  V30 3510 H 342.382 4.41639 -0.201791 0
M  V30 3511 N 341.441 0.965919 1.2453 0
M  V30 3512 C 342.404 0.499547 2.2369 0
M  V30 3513 C 343.404 -0.40294 1.5567 0
M  V30 3514 O 344.594 -0.19865 1.73064 0
M  V30 3515 C 341.726 -0.276792 3.39774 0
M  V30 3516 H 342.919 1.37613 2.66463 0
M  V30 3517 H 340.472 0.750324 1.37112 0
M  V30 3518 H 341.207 -1.17055 3.02438 0
M  V30 3519 H 340.992 0.370826 3.90343 0
M  V30 3520 H 342.482 -0.592175 4.1338 0
M  V30 3521 N 342.919 -1.39368 0.735821 0
M  V30 3522 C 343.829 -2.34395 0.0979693 0
M  V30 3523 C 344.845 -1.58361 -0.720968 0
M  V30 3524 O 346.021 -1.90648 -0.649245 0
M  V30 3525 C 343.086 -3.37393 -0.797916 0
M  V30 3526 C 342.147 -4.29287 0.0333662 0
M  V30 3527 C 341.38 -5.27365 -0.819854 0
M  V30 3528 O 341.603 -5.31959 -2.05855 0
M  V30 3529 O 340.537 -6.01389 -0.248079 0
M  V30 3530 H 344.363 -2.90601 0.882315 0
M  V30 3531 H 341.948 -1.40909 0.4965 0
M  V30 3532 H 343.83 -4.00505 -1.31048 0
M  V30 3533 H 342.505 -2.83571 -1.56106 0
M  V30 3534 H 341.412 -3.69395 0.591475 0
M  V30 3535 H 342.745 -4.86317 0.758752 0
M  V30 3536 N 344.397 -0.483516 -1.5 0
M  V30 3537 C 345.33 0.350427 -2.25493 0
M  V30 3538 C 346.308 0.985549 -1.29328 0
M  V30 3539 O 347.492 1.01906 -1.58579 0
M  V30 3540 C 344.619 1.49202 -3.04066 0
M  V30 3541 C 343.665 0.973036 -4.15252 0
M  V30 3542 S 344.498 -0.122237 -5.3536 0
M  V30 3543 C 345.654 1.02294 -6.17484 0
M  V30 3544 H 345.887 -0.290381 -2.95878 0
M  V30 3545 H 343.42 -0.268562 -1.52046 0
M  V30 3546 H 345.378 2.14623 -3.49925 0
M  V30 3547 H 344.039 2.10438 -2.33183 0
M  V30 3548 H 343.232 1.82804 -4.69679 0
M  V30 3549 H 342.834 0.396335 -3.71894 0
M  V30 3550 H 345.126 1.93195 -6.49371 0
M  V30 3551 H 346.069 0.517664 -7.06205 0
M  V30 3552 H 346.477 1.28238 -5.49741 0
M  V30 3553 N 345.875 1.56104 -0.216619 0
M  V30 3554 C 346.822 2.2007 0.695531 0
M  V30 3555 C 347.792 1.15471 1.19397 0
M  V30 3556 O 348.977 1.43807 1.25396 0
M  V30 3557 C 346.117 2.88073 1.90021 0
M  V30 3558 C 345.23 4.07253 1.44113 0
M  V30 3559 C 344.365 4.63052 2.603 0
M  V30 3560 C 343.404 5.74545 2.11103 0
M  V30 3561 N 342.541 6.24656 3.20545 0
M  V30 3562 H 347.381 2.97655 0.143327 0
M  V30 3563 H 344.918 1.46982 0.0589934 0
M  V30 3564 H 346.876 3.25681 2.60745 0
M  V30 3565 H 345.506 2.13015 2.42538 0
M  V30 3566 H 344.558 3.75164 0.628999 0
M  V30 3567 H 345.87 4.8783 1.04036 0
M  V30 3568 H 345.024 5.03078 3.39113 0
M  V30 3569 H 343.763 3.81628 3.03663 0
M  V30 3570 H 342.768 5.34027 1.3075 0
M  V30 3571 H 343.993 6.57801 1.68746 0
M  V30 3572 H 341.939 5.46148 3.63399 0
M  V30 3573 H 341.856 7.00343 2.84704 0
M  V30 3574 H 343.124 6.69338 3.99508 0
M  V30 3575 N 347.353 -0.0568162 1.57498 0
M  V30 3576 C 348.769 -0.411933 1.54192 0
M  V30 3577 C 348.969 -1.78287 0.938942 0
M  V30 3578 O 348.025 -2.46483 0.547919 0
M  V30 3579 C 349.338 -0.339244 2.9878 0
M  V30 3580 C 350.886 -0.418348 3.10192 0
M  V30 3581 C 351.361 -0.375407 4.56459 0
M  V30 3582 N 352.852 -0.435038 4.61153 0
M  V30 3583 C 353.587 -0.424265 5.71828 0
M  V30 3584 N 353.083 -0.367418 6.91825 0
M  V30 3585 N 354.876 -0.471938 5.60115 0
M  V30 3586 H 347.027 0.840684 1.95055 0
M  V30 3587 H 349.29 0.316987 0.893433 0
M  V30 3588 H 348.996 0.601742 3.46514 0
M  V30 3589 H 348.87 -1.14371 3.59443 0
M  V30 3590 H 351.257 -1.34976 2.62422 0
M  V30 3591 H 351.338 0.414962 2.52412 0
M  V30 3592 H 350.982 0.552219 5.04889 0
M  V30 3593 H 350.912 -1.22645 5.12119 0
M  V30 3594 H 353.403 -0.482612 3.74806 0
M  V30 3595 H 353.716 -0.363535 7.71944 0
M  V30 3596 H 352.061 -0.333879 6.94198 0
M  V30 3597 H 355.252 -0.514145 4.65268 0
M  V30 3598 H 355.425 -0.460073 6.46365 0
M  V30 3599 N 348.832 -1.54138 -0.328536 0
M  V30 3600 C 349.762 -1.86167 -1.40939 0
M  V30 3601 C 350.743 -0.718044 -1.54202 0
M  V30 3602 O 351.928 -0.971328 -1.68163 0
M  V30 3603 C 349.058 -2.08461 -2.77779 0
M  V30 3604 C 348.012 -3.24299 -2.7931 0
M  V30 3605 C 347.338 -3.31955 -4.19178 0
M  V30 3606 C 348.638 -4.62065 -2.43502 0
M  V30 3607 H 350.332 -2.76689 -1.14383 0
M  V30 3608 H 347.878 -1.33132 -0.548806 0
M  V30 3609 H 349.831 -2.29453 -3.53454 0
M  V30 3610 H 348.555 -1.14684 -3.05802 0
M  V30 3611 H 347.214 -3.03187 -2.0609 0
M  V30 3612 H 346.862 -2.35745 -4.44335 0
M  V30 3613 H 346.562 -4.09805 -4.2111 0
M  V30 3614 H 348.086 -3.55175 -4.96672 0
M  V30 3615 H 349.5 -4.8297 -3.08889 0
M  V30 3616 H 347.897 -5.42429 -2.56693 0
M  V30 3617 H 348.967 -4.64652 -1.38659 0
M  V30 3618 N 350.31 0.590341 -1.46126 0
M  V30 3619 C 351.243 1.71434 -1.50617 0
M  V30 3620 C 352.221 1.58543 -0.360948 0
M  V30 3621 O 353.405 1.79865 -0.563985 0
M  V30 3622 C 350.532 3.09422 -1.37753 0
M  V30 3623 C 349.578 3.40854 -2.5636 0
M  V30 3624 S 350.411 3.33773 -4.18755 0
M  V30 3625 C 351.567 4.74312 -4.08386 0
M  V30 3626 H 351.8 1.67364 -2.45717 0
M  V30 3627 H 349.333 0.76845 -1.33919 0
M  V30 3628 H 351.291 3.8903 -1.31018 0
M  V30 3629 H 349.952 3.10989 -0.440949 0
M  V30 3630 H 349.145 4.41368 -2.43332 0
M  V30 3631 H 348.747 2.68798 -2.60046 0
M  V30 3632 H 351.039 5.64522 -3.74595 0
M  V30 3633 H 351.982 4.92397 -5.08872 0
M  V30 3634 H 352.39 4.50803 -3.3976 0
M  V30 3635 N 351.788 1.33704 0.83433 0
M  V30 3636 C 352.718 1.26967 1.95963 0
M  V30 3637 C 353.699 0.149337 1.69443 0
M  V30 3638 O 354.884 0.339852 1.91203 0
M  V30 3639 C 352.014 1.01275 3.32206 0
M  V30 3640 C 350.968 2.09652 3.73136 0
M  V30 3641 C 350.294 1.69166 5.07235 0
M  V30 3642 C 351.594 3.51372 3.86439 0
M  V30 3643 H 353.288 2.2112 2.01857 0
M  V30 3644 H 350.834 1.06447 0.969793 0
M  V30 3645 H 352.787 0.952106 4.10503 0
M  V30 3646 H 351.511 0.0356203 3.26581 0
M  V30 3647 H 350.17 2.14766 2.97104 0
M  V30 3648 H 349.818 0.701437 4.98085 0
M  V30 3649 H 349.518 2.41694 5.35591 0
M  V30 3650 H 351.042 1.64576 5.88003 0
M  V30 3651 H 352.456 3.48734 4.55036 0
M  V30 3652 H 350.853 4.22425 4.26236 0
M  V30 3653 H 351.923 3.89546 2.88759 0
M  V30 3654 N 353.266 -1.05314 1.17247 0
M  V30 3655 C 354.176 -2.16538 0.90268 0
M  V30 3656 C 355.192 -1.73523 -0.128707 0
M  V30 3657 O 356.368 -2.01337 0.0502701 0
M  V30 3658 C 353.433 -3.44167 0.418356 0
M  V30 3659 C 352.494 -4.01635 1.51618 0
M  V30 3660 C 351.727 -5.23171 1.05487 0
M  V30 3661 O 351.95 -5.70327 -0.0914715 0
M  V30 3662 O 350.884 -5.72848 1.8474 0
M  V30 3663 H 354.71 -2.42145 1.83302 0
M  V30 3664 H 352.295 -1.15037 0.953246 0
M  V30 3665 H 354.177 -4.21112 0.155726 0
M  V30 3666 H 352.852 -3.20063 -0.48385 0
M  V30 3667 H 351.759 -3.26135 1.83268 0
M  V30 3668 H 353.092 -4.30053 2.39405 0
M  V30 3669 N 354.744 -0.972509 -1.24016 0
M  V30 3670 C 355.707 -0.511403 -2.23422 0
M  V30 3671 C 356.707 0.394679 -1.55881 0
M  V30 3672 O 357.897 0.189469 -1.73167 0
M  V30 3673 C 355.029 0.258769 -3.39916 0
M  V30 3674 H 356.222 -1.39024 -2.6573 0
M  V30 3675 H 353.775 -0.757585 -1.36713 0
M  V30 3676 H 354.51 1.1545 -3.03054 0
M  V30 3677 H 354.295 -0.391522 -3.9014 0
M  V30 3678 H 355.785 0.570244 -4.13688 0
M  V30 3679 N 356.222 1.38976 -0.743202 0
M  V30 3680 C 357.638 1.53984 -0.419664 0
M  V30 3681 C 357.838 1.70837 1.0685 0
M  V30 3682 O 356.894 1.7135 1.8546 0
M  V30 3683 C 358.207 2.75287 -1.20985 0
M  V30 3684 C 359.755 2.89129 -1.19889 0
M  V30 3685 C 360.23 4.13381 -1.97181 0
M  V30 3686 N 361.721 4.20437 -1.94389 0
M  V30 3687 C 362.456 5.15547 -2.50996 0
M  V30 3688 N 361.952 6.16395 -3.16274 0
M  V30 3689 N 363.745 5.07822 -2.40984 0
M  V30 3690 H 355.896 1.26285 -1.7078 0
M  V30 3691 H 358.159 0.612689 -0.723406 0
M  V30 3692 H 357.865 2.69204 -2.26323 0
M  V30 3693 H 357.739 3.68184 -0.819759 0
M  V30 3694 H 360.126 2.947 -0.153606 0
M  V30 3695 H 360.207 1.97272 -1.62841 0
M  V30 3696 H 359.851 4.08572 -3.01714 0
M  V30 3697 H 359.781 5.04298 -1.51629 0
M  V30 3698 H 362.272 3.48205 -1.46839 0
M  V30 3699 H 362.585 6.85443 -3.56915 0
M  V30 3700 H 360.93 6.16758 -3.20367 0
M  V30 3701 H 364.121 4.27973 -1.89622 0
M  V30 3702 H 364.294 5.81767 -2.85397 0
M  V30 3703 N 357.7 0.491464 1.49741 0
M  V30 3704 C 358.948 -0.0563141 2.02022 0
M  V30 3705 C 359.269 -1.38363 1.37407 0
M  V30 3706 O 358.539 -1.88702 0.526166 0
M  V30 3707 H 357.119 -0.0238014 0.746621 0
M  V30 3708 H 359.781 0.646533 1.83864 0
M  V30 3709 H 358.877 -0.192967 3.11503 0
M  V30 3710 O 359.217 -1.57286 0.366498 0
M  V30 3711 H 359.908 -1.92825 -0.183877 0
M  V30 END ATOM
M  V30 BEGIN BOND
M  V30 END BOND
M  V30 END CTAB
M  END
$$$$
