drugbank_target|Q02218 2-oxoglutarate dehydrogenase, mitochondrial (DB00157; DB00313; DB09092)
 OpenBabel12092119253D

  0  0  0     0  0            999 V3000
M  V30 BEGIN CTAB
M  V30 COUNTS 16193 16398 0 0 0
M  V30 BEGIN ATOM
M  V30 1 H -0.908 1.98254 -0.117106 0
M  V30 2 N 0 1.576 0 0
M  V30 3 C 0.933 2.03868 1.02534 0
M  V30 4 C 1.911 0.928543 1.3348 0
M  V30 5 O 3.095 1.19667 1.45644 0
M  V30 6 C 0.222 2.43627 2.35294 0
M  V30 7 C -0.732 3.65373 2.2001 0
M  V30 8 S 0.101 5.13292 1.52614 0
M  V30 9 C 1.257 5.56322 2.86805 0
M  V30 10 H 1.49 2.90518 0.631377 0
M  V30 11 H -0.977 1.52953 0.210867 0
M  V30 12 H 0.981 2.67203 3.11629 0
M  V30 13 H -0.358 1.57376 2.7183 0
M  V30 14 H -1.165 3.90944 3.18086 0
M  V30 15 H -1.563 3.418 1.51819 0
M  V30 16 H 0.729 5.58782 3.83104 0
M  V30 17 H 1.672 6.56266 2.65933 0
M  V30 18 H 2.08 4.83886 2.90714 0
M  V30 19 N 1.4781 -0.272755 1.55222 0
M  V30 20 C 2.7251 -1.00433 1.7584 0
M  V30 21 C 3.0531 -1.86275 0.559629 0
M  V30 22 O 2.3081 -1.90269 -0.457857 0
M  V30 23 C 2.6071 -1.91642 3.01675 0
M  V30 24 C 2.2731 -1.21548 4.34208 0
M  V30 25 C 0.9351 -1.02166 4.70229 0
M  V30 26 C 3.2871 -0.716684 5.16249 0
M  V30 27 C 0.6151 -0.316334 5.85847 0
M  V30 28 C 2.9671 -0.0249476 6.32595 0
M  V30 29 C 1.6311 0.180579 6.67256 0
M  V30 30 H 0.9011 -0.367509 0.643443 0
M  V30 31 H 3.5481 -0.276596 1.89492 0
M  V30 32 H 1.8531 -2.71037 2.82924 0
M  V30 33 H 3.5501 -2.48369 3.14824 0
M  V30 34 H 0.1401 -1.37645 4.05896 0
M  V30 35 H 4.3241 -0.854047 4.88896 0
M  V30 36 H -0.4199 -0.146378 6.11225 0
M  V30 37 H 3.7541 0.369311 6.9542 0
M  V30 38 H 1.3811 0.729098 7.56696 0
M  V30 39 N 2.9562 -1.48159 -0.537278 0
M  V30 40 C 3.9062 -1.5854 -1.63857 0
M  V30 41 C 4.8902 -0.442969 -1.54682 0
M  V30 42 O 6.0822 -0.69401 -1.62827 0
M  V30 43 C 3.2112 -1.62144 -3.02596 0
M  V30 44 C 2.2972 -2.81841 -3.16901 0
M  V30 45 N 2.6882 -4.06337 -3.01204 0
M  V30 46 C 0.9862 -2.79021 -3.47942 0
M  V30 47 C 1.6872 -4.86606 -3.18731 0
M  V30 48 N 0.6632 -4.19288 -3.45974 0
M  V30 49 H 4.4652 -2.5255 -1.50319 0
M  V30 50 H 1.9792 -1.4443 -0.742555 0
M  V30 51 H 3.9762 -1.67674 -3.81695 0
M  V30 52 H 2.6362 -0.69245 -3.17231 0
M  V30 53 H 3.6472 -4.36888 -2.78117 0
M  V30 54 H 0.3242 -1.95347 -3.6898 0
M  V30 55 H 1.7142 -5.95385 -3.11394 0
M  V30 56 N 4.4343 0.785586 -1.36625 0
M  V30 57 C 5.3643 1.91259 -1.33949 0
M  V30 58 C 6.3453 1.68795 -0.210325 0
M  V30 59 O 7.5303 1.89854 -0.408561 0
M  V30 60 C 4.6603 3.28339 -1.13186 0
M  V30 61 C 3.6143 3.65335 -2.22967 0
M  V30 62 C 2.9403 5.00806 -1.87342 0
M  V30 63 C 4.2403 3.7352 -3.65075 0
M  V30 64 H 5.9343 1.93755 -2.28253 0
M  V30 65 H 3.4803 0.930788 -1.09874 0
M  V30 66 H 5.4333 4.06804 -1.09948 0
M  V30 67 H 4.1573 3.2624 -0.153332 0
M  V30 68 H 2.8163 2.89169 -2.25337 0
M  V30 69 H 2.4643 4.95233 -0.880545 0
M  V30 70 H 2.1643 5.26529 -2.60846 0
M  V30 71 H 3.6883 5.81687 -1.85667 0
M  V30 72 H 5.1023 4.42168 -3.64911 0
M  V30 73 H 3.4993 4.10731 -4.37516 0
M  V30 74 H 4.5693 2.74527 -3.99703 0
M  V30 75 N 5.9124 1.20967 1.01018 0
M  V30 76 C 7.3284 0.965905 1.27053 0
M  V30 77 C 7.5284 -0.350785 1.98423 0
M  V30 78 O 6.5844 -1.07773 2.28344 0
M  V30 79 C 7.8974 2.15294 2.09926 0
M  V30 80 C 9.4454 2.19463 2.23171 0
M  V30 81 C 9.9204 3.3767 3.09424 0
M  V30 82 N 11.4114 3.37724 3.17012 0
M  V30 83 C 12.1464 4.25837 3.83993 0
M  V30 84 N 11.6424 5.24138 4.53047 0
M  V30 85 N 13.4354 4.1366 3.80581 0
M  V30 86 H 5.5864 2.0565 0.531194 0
M  V30 87 H 7.8494 0.90024 0.297106 0
M  V30 88 H 7.5554 3.10684 1.64828 0
M  V30 89 H 7.4294 2.13923 3.10672 0
M  V30 90 H 9.8164 1.24632 2.6749 0
M  V30 91 H 9.8974 2.2488 1.21912 0
M  V30 92 H 9.5414 4.32791 2.65808 0
M  V30 93 H 9.4714 3.29491 4.10784 0
M  V30 94 H 11.9624 2.6658 2.6785 0
M  V30 95 H 12.2754 5.87684 5.01844 0
M  V30 96 H 10.6204 5.28068 4.5185 0
M  V30 97 H 13.8114 3.36127 3.25785 0
M  V30 98 H 13.9844 4.82538 4.32505 0
M  V30 99 N 7.3905 -1.2043 1.01659 0
M  V30 100 C 8.6185 -1.93777 0.725132 0
M  V30 101 C 9.0335 -1.74772 -0.714166 0
M  V30 102 O 8.3905 -1.06169 -1.4844 0
M  V30 103 C 8.4415 -3.45876 1.05129 0
M  V30 104 O 8.1625 -3.6426 2.43406 0
M  V30 105 C 9.6635 -4.36368 0.780891 0
M  V30 106 H 6.8835 -0.615901 0.266284 0
M  V30 107 H 9.4275 -1.52922 1.35776 0
M  V30 108 H 7.5825 -3.8461 0.464065 0
M  V30 109 H 7.9965 -4.58246 2.55169 0
M  V30 110 H 9.4705 -5.41743 1.05918 0
M  V30 111 H 9.9475 -4.38275 -0.284937 0
M  V30 112 H 10.5535 -4.03296 1.35027 0
M  V30 113 N 8.8686 -0.792821 -1.36206 0
M  V30 114 C 10.1086 -0.372238 -2.00982 0
M  V30 115 C 10.4726 1.03749 -1.61555 0
M  V30 116 O 11.6736 1.55934 -2.18948 0
M  V30 117 C 9.9446 -0.534566 -3.5338 0
M  V30 118 S 11.5036 -0.202365 -4.38333 0
M  V30 119 H 8.3216 -0.142044 -0.696667 0
M  V30 120 H 10.9236 -1.03206 -1.66039 0
M  V30 121 H 9.6276 -1.5608 -3.79562 0
M  V30 122 H 9.1586 0.141065 -3.93147 0
M  V30 123 H 11.1736 0.994869 -4.86124 0
M  V30 124 N 10.3467 1.47872 -0.545128 0
M  V30 125 C 11.3097 2.28337 0.198717 0
M  V30 126 C 12.3097 1.36255 0.853888 0
M  V30 127 O 13.4997 1.59003 0.711606 0
M  V30 128 C 10.6317 3.15585 1.28915 0
M  V30 129 H 11.8247 2.95567 -0.507941 0
M  V30 130 H 9.3777 1.53362 -0.301616 0
M  V30 131 H 10.1127 2.53019 2.02859 0
M  V30 132 H 9.8977 3.83337 0.824309 0
M  V30 133 H 11.3877 3.76243 1.81194 0
M  V30 134 N 11.8248 0.280983 1.55075 0
M  V30 135 C 12.7878 -0.590896 2.21452 0
M  V30 136 C 13.7878 -1.07682 1.19421 0
M  V30 137 O 14.9778 -0.97605 1.44288 0
M  V30 138 C 12.1098 -1.81587 2.88511 0
M  V30 139 H 13.3028 -0.0112554 2.99898 0
M  V30 140 H 10.8558 0.0316438 1.56268 0
M  V30 141 H 11.5908 -2.43587 2.14093 0
M  V30 142 H 11.3758 -1.4753 3.63287 0
M  V30 143 H 12.8658 -2.43575 3.39206 0
M  V30 144 N 13.3029 -1.57598 0.00835791 0
M  V30 145 C 14.2499 -2.08945 -0.980346 0
M  V30 146 C 15.2199 -0.986738 -1.33614 0
M  V30 147 O 16.4049 -1.25968 -1.43306 0
M  V30 148 C 13.5449 -2.60425 -2.26435 0
M  V30 149 C 12.6579 -3.84628 -1.96685 0
M  V30 150 C 11.7929 -4.24579 -3.19228 0
M  V30 151 C 10.8319 -5.41596 -2.85202 0
M  V30 152 N 9.9689 -5.768 -4.00307 0
M  V30 153 H 14.8089 -2.93148 -0.535551 0
M  V30 154 H 12.3459 -1.44912 -0.252776 0
M  V30 155 H 14.3039 -2.88354 -3.01509 0
M  V30 156 H 12.9339 -1.79083 -2.68568 0
M  V30 157 H 11.9859 -3.63556 -1.11942 0
M  V30 158 H 13.2979 -4.69796 -1.67611 0
M  V30 159 H 12.4519 -4.53834 -4.02641 0
M  V30 160 H 11.1909 -3.38137 -3.51447 0
M  V30 161 H 10.1959 -5.12056 -2.00198 0
M  V30 162 H 11.4209 -6.29721 -2.54222 0
M  V30 163 H 9.3669 -4.93316 -4.32407 0
M  V30 164 H 9.2839 -6.5656 -3.74786 0
M  V30 165 H 10.5519 -6.10652 -4.84484 0
M  V30 166 N 14.781 0.264519 -1.55364 0
M  V30 167 C 15.711 1.33121 -1.91836 0
M  V30 168 C 16.692 1.51101 -0.781192 0
M  V30 169 O 17.877 1.64003 -1.04003 0
M  V30 170 C 15.007 2.68921 -2.19769 0
M  V30 171 C 13.961 2.65661 -3.35571 0
M  V30 172 C 13.287 4.05093 -3.49004 0
M  V30 173 C 14.587 2.24187 -4.71739 0
M  V30 174 H 16.281 1.02844 -2.81182 0
M  V30 175 H 13.827 0.493286 -1.35287 0
M  V30 176 H 15.78 3.43663 -2.43872 0
M  V30 177 H 14.504 3.00799 -1.27231 0
M  V30 178 H 13.163 1.93377 -3.1145 0
M  V30 179 H 12.811 4.34206 -2.53917 0
M  V30 180 H 12.511 4.03804 -4.26868 0
M  V30 181 H 14.035 4.81561 -3.75408 0
M  V30 182 H 15.449 2.88654 -4.9533 0
M  V30 183 H 13.846 2.34044 -5.52579 0
M  V30 184 H 14.916 1.19327 -4.69988 0
M  V30 185 N 16.2591 1.48442 0.529413 0
M  V30 186 C 17.6751 1.34575 0.858004 0
M  V30 187 C 17.8751 0.3572 1.98309 0
M  V30 188 O 16.9311 -0.221379 2.51528 0
M  V30 189 C 18.2441 2.74617 1.22499 0
M  V30 190 C 19.7921 2.83109 1.33484 0
M  V30 191 C 20.2671 4.23854 1.73526 0
M  V30 192 N 21.7581 4.2653 1.80628 0
M  V30 193 C 22.4931 5.32372 2.12997 0
M  V30 194 N 21.9891 6.48491 2.43786 0
M  V30 195 N 23.7821 5.19766 2.14008 0
M  V30 196 H 15.9331 2.1133 -0.212925 0
M  V30 197 H 18.1961 0.947439 -0.0326199 0
M  V30 198 H 17.9021 3.4852 0.471905 0
M  V30 199 H 17.7761 3.08177 2.17501 0
M  V30 200 H 20.1631 2.09462 2.0787 0
M  V30 201 H 20.2441 2.53168 0.366027 0
M  V30 202 H 19.8881 4.98018 0.997013 0
M  V30 203 H 19.8181 4.5124 2.71459 0
M  V30 204 H 22.3091 3.42772 1.59108 0
M  V30 205 H 22.6221 7.24993 2.67592 0
M  V30 206 H 20.9671 6.51765 2.41304 0
M  V30 207 H 24.1581 4.28066 1.89412 0
M  V30 208 H 24.3311 6.02354 2.38902 0
M  V30 209 N 17.7372 -0.778329 1.37039 0
M  V30 210 C 19.1482 -1.35421 1.28523 0
M  V30 211 C 19.4992 -1.96075 -0.0700901 0
M  V30 212 O 18.6242 -1.93352 -0.971801 0
M  V30 213 C 19.2192 -2.46211 2.32735 0
M  V30 214 C 17.7782 -2.99585 2.27873 0
M  V30 215 C 16.9252 -1.72748 2.16918 0
M  V30 216 H 19.8762 -0.5791 1.47757 0
M  V30 217 H 19.8972 -3.2552 1.9702 0
M  V30 218 H 19.4092 -2.02036 3.31365 0
M  V30 219 H 17.5102 -3.48152 1.32745 0
M  V30 220 H 17.6232 -3.55646 3.21018 0
M  V30 221 H 15.9872 -1.95416 1.63354 0
M  V30 222 H 16.7702 -1.30686 3.17452 0
M  V30 223 N 19.2153 -1.21501 -1.00376 0
M  V30 224 C 20.1453 -0.999478 -2.11028 0
M  V30 225 C 21.1263 0.0759671 -1.6993 0
M  V30 226 O 22.3113 -0.0841106 -1.94018 0
M  V30 227 C 19.4413 -0.564709 -3.42678 0
M  V30 228 C 18.3953 -1.58486 -3.97576 0
M  V30 229 C 17.7213 -1.00628 -5.25146 0
M  V30 230 C 19.0213 -2.97204 -4.29496 0
M  V30 231 H 20.7153 -1.92495 -2.29317 0
M  V30 232 H 18.2613 -0.92693 -1.102 0
M  V30 233 H 20.2143 -0.401091 -4.19487 0
M  V30 234 H 18.9383 0.396411 -3.24185 0
M  V30 235 H 17.5973 -1.73606 -3.22888 0
M  V30 236 H 17.2453 -0.0368439 -5.02987 0
M  V30 237 H 16.9453 -1.68771 -5.62841 0
M  V30 238 H 18.4693 -0.854015 -6.04598 0
M  V30 239 H 19.8833 -2.8552 -4.97143 0
M  V30 240 H 18.2803 -3.62372 -4.78338 0
M  V30 241 H 19.3503 -3.47956 -3.3772 0
M  V30 242 N 20.6934 1.19889 -1.02296 0
M  V30 243 C 21.9214 1.9339 -0.735399 0
M  V30 244 C 22.3364 1.75148 0.704887 0
M  V30 245 O 21.6934 1.06954 1.47875 0
M  V30 246 C 21.7444 3.45313 -1.06962 0
M  V30 247 O 21.4654 3.62964 -2.45334 0
M  V30 248 C 22.9664 4.35948 -0.804021 0
M  V30 249 H 20.1864 0.61448 -0.269546 0
M  V30 250 H 22.7304 1.522 -1.36585 0
M  V30 251 H 20.8854 3.84359 -0.484455 0
M  V30 252 H 21.2994 4.56886 -2.57595 0
M  V30 253 H 22.7734 5.41174 -1.0879 0
M  V30 254 H 23.2504 4.3842 0.261691 0
M  V30 255 H 23.8564 4.02574 -1.37164 0
M  V30 256 N 22.1715 0.800033 1.35784 0
M  V30 257 C 23.1345 0.211565 2.28221 0
M  V30 258 C 24.1345 -0.59728 1.49296 0
M  V30 259 O 25.3245 -0.416721 1.69142 0
M  V30 260 C 22.4565 -0.705846 3.33513 0
M  V30 261 H 23.6495 1.02677 2.81776 0
M  V30 262 H 21.2025 0.570211 1.45528 0
M  V30 263 H 21.9375 -1.54498 2.85133 0
M  V30 264 H 21.7225 -0.127655 3.91892 0
M  V30 265 H 23.2125 -1.11211 4.02519 0
M  V30 266 N 23.6496 -1.47581 0.552962 0
M  V30 267 C 24.8746 -2.07378 0.0300593 0
M  V30 268 C 25.2996 -1.40355 -1.25229 0
M  V30 269 O 24.6576 -0.477099 -1.7491 0
M  V30 270 C 24.7056 -3.60274 -0.153231 0
M  V30 271 O 23.8096 -3.94041 -1.21678 0
M  V30 272 H 23.1506 -0.662158 0.0494182 0
M  V30 273 H 25.6806 -1.89662 0.767434 0
M  V30 274 H 25.6906 -4.0633 -0.368761 0
M  V30 275 H 24.3656 -4.08455 0.783397 0
M  V30 276 H 22.9426 -3.59735 -0.982079 0
M  V30 277 N 25.1277 -0.289203 -1.54924 0
M  V30 278 C 26.0597 0.625583 -2.20497 0
M  V30 279 C 27.0727 1.10667 -1.19402 0
M  V30 280 O 28.2617 1.02615 -1.46056 0
M  V30 281 C 25.3617 1.86702 -2.82835 0
M  V30 282 C 24.5347 1.5304 -4.09753 0
M  V30 283 C 23.5937 2.62576 -4.56005 0
M  V30 284 O 22.6197 2.28167 -5.21468 0
M  V30 285 N 23.8217 3.92901 -4.27328 0
M  V30 286 H 26.5867 0.0642801 -2.99631 0
M  V30 287 H 24.1477 -0.110896 -1.6152 0
M  V30 288 H 26.1397 2.59304 -3.10715 0
M  V30 289 H 24.7097 2.33702 -2.07611 0
M  V30 290 H 23.9297 0.637564 -3.8901 0
M  V30 291 H 25.2177 1.28072 -4.92418 0
M  V30 292 H 24.6157 4.23671 -3.74859 0
M  V30 293 H 23.1727 4.61837 -4.59946 0
M  V30 294 N 26.6058 1.57591 -0.0167156 0
M  V30 295 C 27.8338 1.95575 0.675128 0
M  V30 296 C 28.2488 0.892542 1.6637 0
M  V30 297 O 27.6058 -0.126912 1.82058 0
M  V30 298 C 27.6568 3.33608 1.39239 0
M  V30 299 O 27.3778 4.3585 0.443444 0
M  V30 300 C 28.8788 3.86151 2.17721 0
M  V30 301 H 26.0988 0.644423 0.186978 0
M  V30 302 H 28.6428 2.0437 -0.0728 0
M  V30 303 H 26.7978 3.2607 2.09182 0
M  V30 304 H 27.2118 5.158 0.951358 0
M  V30 305 H 28.6858 4.85114 2.63379 0
M  V30 306 H 29.1628 3.19738 3.01105 0
M  V30 307 H 29.7688 3.96918 1.52761 0
M  V30 308 N 28.0839 -0.256276 1.55502 0
M  V30 309 C 29.3299 -0.987079 1.77157 0
M  V30 310 C 29.6629 -1.85327 0.580315 0
M  V30 311 O 28.9379 -1.89874 -0.421686 0
M  V30 312 C 29.2209 -1.85553 3.08613 0
M  V30 313 C 29.0739 -1.01816 4.38125 0
M  V30 314 C 30.3929 -2.8397 3.36228 0
M  V30 315 H 27.5119 -0.357428 0.644526 0
M  V30 316 H 30.1539 -0.258239 1.88237 0
M  V30 317 H 28.3039 -2.47695 2.99298 0
M  V30 318 H 29.9759 -0.416159 4.59419 0
M  V30 319 H 28.2189 -0.322178 4.32602 0
M  V30 320 H 28.8899 -1.65939 5.26468 0
M  V30 321 H 31.3659 -2.31964 3.45445 0
M  V30 322 H 30.2419 -3.41864 4.29442 0
M  V30 323 H 30.5029 -3.59955 2.56681 0
M  V30 324 N 29.562 -1.4872 -0.521534 0
M  V30 325 C 30.509 -1.63871 -1.62527 0
M  V30 326 C 31.479 -0.480559 -1.58996 0
M  V30 327 O 32.664 -0.705085 -1.77294 0
M  V30 328 C 29.804 -1.69227 -3.00759 0
M  V30 329 C 28.917 -2.96207 -3.14461 0
M  V30 330 C 28.052 -2.92671 -4.43303 0
M  V30 331 C 27.091 -4.14318 -4.50563 0
M  V30 332 N 26.228 -4.0881 -5.70805 0
M  V30 333 H 31.068 -2.58123 -1.48918 0
M  V30 334 H 28.605 -1.28 -0.724878 0
M  V30 335 H 30.563 -1.70314 -3.80853 0
M  V30 336 H 29.193 -0.784586 -3.1312 0
M  V30 337 H 28.245 -3.04826 -2.27564 0
M  V30 338 H 29.557 -3.86192 -3.15686 0
M  V30 339 H 28.711 -2.92206 -5.31696 0
M  V30 340 H 27.45 -2.00429 -4.44612 0
M  V30 341 H 26.455 -4.15049 -3.60575 0
M  V30 342 H 27.68 -5.07729 -4.50986 0
M  V30 343 H 25.626 -3.19394 -5.72995 0
M  V30 344 H 25.543 -4.92509 -5.7356 0
M  V30 345 H 26.811 -4.12418 -6.61462 0
M  V30 346 N 31.0401 0.771051 -1.3745 0
M  V30 347 C 32.2681 1.56015 -1.35893 0
M  V30 348 C 32.6831 1.88718 0.0555523 0
M  V30 349 O 32.0401 1.51502 1.01752 0
M  V30 350 C 32.0911 2.87001 -2.19801 0
M  V30 351 O 31.8121 2.557 -3.55738 0
M  V30 352 C 33.3131 3.81228 -2.26231 0
M  V30 353 H 30.5331 0.483317 -0.465453 0
M  V30 354 H 33.0771 0.955611 -1.80799 0
M  V30 355 H 31.2321 3.43877 -1.78402 0
M  V30 356 H 31.6461 3.39584 -3.99729 0
M  V30 357 H 33.1201 4.70139 -2.89263 0
M  V30 358 H 33.5971 4.20409 -1.27093 0
M  V30 359 H 34.2031 3.30281 -2.67945 0
M  V30 360 N 32.5182 1.22032 0.997298 0
M  V30 361 C 33.7652 1.04222 1.73621 0
M  V30 362 C 34.0932 -0.423264 1.89839 0
M  V30 363 O 33.3482 -1.3302 1.43542 0
M  V30 364 C 33.6472 1.69345 3.14733 0
M  V30 365 C 33.3132 3.19226 3.18442 0
M  V30 366 C 31.9752 3.60124 3.19161 0
M  V30 367 C 34.3272 4.15181 3.15078 0
M  V30 368 C 31.6552 4.95467 3.14212 0
M  V30 369 C 34.0072 5.50495 3.1167 0
M  V30 370 C 32.6712 5.90779 3.10703 0
M  V30 371 H 31.9412 0.381374 0.635323 0
M  V30 372 H 34.5882 1.51732 1.16831 0
M  V30 373 H 32.8932 1.14147 3.74803 0
M  V30 374 H 34.5902 1.53059 3.7064 0
M  V30 375 H 31.1802 2.86659 3.18629 0
M  V30 376 H 35.3642 3.84605 3.13676 0
M  V30 377 H 30.6202 5.25916 3.11805 0
M  V30 378 H 34.7942 6.24576 3.08022 0
M  V30 379 H 32.4212 6.9562 3.06622 0
M  V30 380 N 33.9963 -1.19345 1.0293 0
M  V30 381 C 35.2213 -1.93538 0.745511 0
M  V30 382 C 35.6463 -1.75007 -0.689511 0
M  V30 383 O 35.0043 -1.05265 -1.47611 0
M  V30 384 C 35.0523 -3.43336 1.10239 0
M  V30 385 O 34.1563 -4.11806 0.221289 0
M  V30 386 H 33.4973 -0.604193 0.275404 0
M  V30 387 H 36.0273 -1.5141 1.37609 0
M  V30 388 H 36.0373 -3.94004 1.05947 0
M  V30 389 H 34.7123 -3.56146 2.14786 0
M  V30 390 H 33.2893 -3.715 0.322842 0
M  V30 391 N 35.4744 -0.807222 -1.35358 0
M  V30 392 C 36.4064 -0.175717 -2.28525 0
M  V30 393 C 37.4194 0.625354 -1.5031 0
M  V30 394 O 38.6084 0.457611 -1.72535 0
M  V30 395 C 35.7084 0.773471 -3.29956 0
M  V30 396 C 34.8814 0.0186296 -4.37396 0
M  V30 397 C 33.9404 0.886395 -5.18681 0
M  V30 398 O 32.9664 0.337106 -5.68201 0
M  V30 399 N 34.1684 2.20839 -5.36852 0
M  V30 400 H 36.9334 -0.976091 -2.83359 0
M  V30 401 H 34.4944 -0.662737 -1.47714 0
M  V30 402 H 36.4864 1.35824 -3.81227 0
M  V30 403 H 35.0564 1.47465 -2.75632 0
M  V30 404 H 34.2764 -0.747349 -3.87051 0
M  V30 405 H 35.5644 -0.501577 -5.06322 0
M  V30 406 H 34.9624 2.67858 -4.98265 0
M  V30 407 H 33.5194 2.74237 -5.91301 0
M  V30 408 N 36.9525 1.47285 -0.560781 0
M  V30 409 C 37.9005 2.31756 0.197942 0
M  V30 410 C 38.8945 1.43146 0.905854 0
M  V30 411 O 40.1005 1.59891 0.826733 0
M  V30 412 H 36.4755 0.747438 0.0827049 0
M  V30 413 H 38.4465 2.9359 -0.533629 0
M  V30 414 C 37.1955 3.25874 1.21249 0
M  V30 415 H 36.5185 3.94023 0.67719 0
M  V30 416 H 37.9585 3.87803 1.71419 0
M  V30 417 C 36.4175 2.49651 2.26221 0
M  V30 418 O 36.9475 2.24355 3.33208 0
M  V30 419 N 35.1535 2.10597 2.00243 0
M  V30 420 H 34.7005 2.31369 1.13252 0
M  V30 421 H 34.6585 1.59913 2.70694 0
M  V30 422 N 38.4306 0.297415 1.54768 0
M  V30 423 C 39.8466 -0.0560823 1.59501 0
M  V30 424 C 40.0466 -1.52725 1.31444 0
M  V30 425 O 39.1026 -2.27947 1.08611 0
M  V30 426 C 40.4156 0.338631 2.98787 0
M  V30 427 C 41.9636 0.287097 3.11681 0
M  V30 428 C 42.4386 0.656579 4.53269 0
M  V30 429 N 43.9296 0.608977 4.59179 0
M  V30 430 C 44.6646 0.867385 5.66802 0
M  V30 431 N 44.1606 1.19157 6.82476 0
M  V30 432 N 45.9536 0.794687 5.56454 0
M  V30 433 H 38.1046 1.25624 1.71267 0
M  V30 434 H 40.3676 0.509057 0.799728 0
M  V30 435 H 40.0736 1.36263 3.2423 0
M  V30 436 H 39.9476 -0.309508 3.75928 0
M  V30 437 H 42.3346 -0.727649 2.85988 0
M  V30 438 H 42.4156 0.969809 2.36703 0
M  V30 439 H 42.0596 1.66912 4.7969 0
M  V30 440 H 41.9896 -0.0481649 5.26578 0
M  V30 441 H 44.4806 0.369198 3.76092 0
M  V30 442 H 44.7936 1.37482 7.60473 0
M  V30 443 H 43.1386 1.22958 6.84037 0
M  V30 444 H 46.3296 0.541098 4.64962 0
M  V30 445 H 46.5026 0.999445 6.40246 0
M  V30 446 N 39.9087 -1.5758 0.0250728 0
M  V30 447 C 41.3197 -1.79476 -0.514323 0
M  V30 448 C 41.6707 -0.934956 -1.72491 0
M  V30 449 O 40.7957 -0.144245 -2.15919 0
M  V30 450 C 41.3907 -3.25503 -0.939842 0
M  V30 451 C 39.9497 -3.48408 -1.42438 0
M  V30 452 C 39.0967 -2.74583 -0.387201 0
M  V30 453 H 42.0477 -1.567 0.25113 0
M  V30 454 H 42.0687 -3.34992 -1.80445 0
M  V30 455 H 41.5807 -3.88056 -0.0585628 0
M  V30 456 H 39.6817 -2.91103 -2.32572 0
M  V30 457 H 39.7947 -4.57119 -1.43455 0
M  V30 458 H 38.1587 -2.39942 -0.854409 0
M  V30 459 H 38.9417 -3.39849 0.485543 0
M  V30 460 N 41.3868 0.248026 -1.55636 0
M  V30 461 C 42.3498 1.29044 -1.89421 0
M  V30 462 C 43.3498 1.41134 -0.770581 0
M  V30 463 O 44.5398 1.39854 -1.03858 0
M  V30 464 C 41.6718 2.66831 -2.12165 0
M  V30 465 H 42.8648 1.00305 -2.82629 0
M  V30 466 H 40.4178 0.487265 -1.48511 0
M  V30 467 H 41.1528 3.00711 -1.21422 0
M  V30 468 H 40.9378 2.59438 -2.93997 0
M  V30 469 H 42.4278 3.42103 -2.3949 0
M  V30 470 N 42.8649 1.48995 0.513639 0
M  V30 471 C 43.8279 1.64229 1.59879 0
M  V30 472 C 44.8279 0.514696 1.5234 0
M  V30 473 O 46.0179 0.78087 1.55718 0
M  V30 474 C 43.1499 1.62783 2.99524 0
M  V30 475 H 44.3429 2.61004 1.47705 0
M  V30 476 H 41.8959 1.37837 0.736936 0
M  V30 477 H 42.6309 0.675461 3.17188 0
M  V30 478 H 42.4159 2.4466 3.06404 0
M  V30 479 H 43.9059 1.76669 3.78388 0
M  V30 480 N 44.343 -0.763751 1.37857 0
M  V30 481 C 45.306 -1.85889 1.34081 0
M  V30 482 C 46.306 -1.58949 0.243277 0
M  V30 483 O 47.496 -1.66882 0.499589 0
M  V30 484 C 44.628 -3.23176 1.08489 0
M  V30 485 H 45.821 -1.90648 2.31502 0
M  V30 486 H 43.374 -0.964367 1.23003 0
M  V30 487 H 44.109 -3.24091 0.116318 0
M  V30 488 H 43.894 -3.44124 1.8794 0
M  V30 489 H 45.384 -4.03254 1.08517 0
M  V30 490 N 45.8211 -1.22559 -0.990812 0
M  V30 491 C 47.2371 -0.985996 -1.255 0
M  V30 492 C 47.4371 0.319173 -1.98956 0
M  V30 493 O 46.4931 1.04127 -2.3003 0
M  V30 494 C 47.8061 -2.18607 -2.06474 0
M  V30 495 C 49.3541 -2.22985 -2.19651 0
M  V30 496 C 49.8291 -3.4255 -3.04012 0
M  V30 497 N 51.3201 -3.42725 -3.11599 0
M  V30 498 C 52.0551 -4.31892 -3.7717 0
M  V30 499 N 51.5511 -5.31279 -4.44651 0
M  V30 500 N 53.3441 -4.19662 -3.73952 0
M  V30 501 H 45.4951 -2.06469 -0.49841 0
M  V30 502 H 47.7581 -0.904853 -0.282747 0
M  V30 503 H 47.4641 -3.13267 -1.59865 0
M  V30 504 H 47.3381 -2.18838 -3.07229 0
M  V30 505 H 49.7251 -1.28871 -2.65474 0
M  V30 506 H 49.8061 -2.26791 -1.18319 0
M  V30 507 H 49.4501 -4.36965 -2.58889 0
M  V30 508 H 49.3801 -3.35984 -4.0549 0
M  V30 509 H 51.8711 -2.70807 -2.63575 0
M  V30 510 H 52.1841 -5.95593 -4.92431 0
M  V30 511 H 50.5291 -5.3519 -4.43392 0
M  V30 512 H 53.7201 -3.41268 -3.20396 0
M  V30 513 H 53.8931 -4.89358 -4.24774 0
M  V30 514 N 47.2992 1.18797 -1.03562 0
M  V30 515 C 48.5272 1.92599 -0.755869 0
M  V30 516 C 48.9422 1.75886 0.686271 0
M  V30 517 O 48.2992 1.08517 1.46732 0
M  V30 518 C 48.3502 3.44159 -1.10619 0
M  V30 519 O 48.0712 3.60341 -2.4917 0
M  V30 520 C 49.5722 4.3507 -0.850214 0
M  V30 521 H 46.7922 0.611587 -0.276048 0
M  V30 522 H 49.3362 1.50742 -1.38192 0
M  V30 523 H 47.4912 3.83823 -0.525194 0
M  V30 524 H 47.9052 4.54128 -2.62427 0
M  V30 525 H 49.3792 5.39989 -1.14523 0
M  V30 526 H 49.8562 4.38673 0.215176 0
M  V30 527 H 50.4622 4.01097 -1.41426 0
M  V30 528 N 48.7773 0.814389 1.34928 0
M  V30 529 C 50.0243 0.398423 1.98542 0
M  V30 530 C 50.3523 -1.03638 1.64589 0
M  V30 531 O 49.6073 -1.73509 0.90516 0
M  V30 532 C 49.9063 0.537781 3.53331 0
M  V30 533 C 49.5723 1.93704 4.07172 0
M  V30 534 C 48.2343 2.31984 4.21589 0
M  V30 535 C 50.5863 2.85213 4.36237 0
M  V30 536 C 47.9143 3.61125 4.62391 0
M  V30 537 C 50.2663 4.13809 4.78482 0
M  V30 538 C 48.9303 4.52077 4.91104 0
M  V30 539 H 48.2003 0.145793 0.726516 0
M  V30 540 H 50.8473 1.03669 1.61012 0
M  V30 541 H 49.1523 -0.183906 3.91368 0
M  V30 542 H 50.8493 0.196588 4.00518 0
M  V30 543 H 47.4393 1.62966 3.96409 0
M  V30 544 H 51.6233 2.56885 4.24645 0
M  V30 545 H 46.8793 3.90612 4.70353 0
M  V30 546 H 51.0533 4.84811 4.99932 0
M  V30 547 H 48.6803 5.52196 5.22478 0
M  V30 548 N 50.2554 -1.46986 0.568584 0
M  V30 549 C 51.1874 -2.28233 -0.210337 0
M  V30 550 C 52.2004 -1.37682 -0.868767 0
M  V30 551 O 53.3894 -1.62406 -0.740705 0
M  V30 552 C 50.4894 -3.12293 -1.3163 0
M  V30 553 C 49.6624 -4.30878 -0.7525 0
M  V30 554 C 48.7214 -4.96445 -1.74439 0
M  V30 555 O 47.7474 -5.54482 -1.286 0
M  V30 556 N 48.9494 -4.92171 -3.07812 0
M  V30 557 H 51.7144 -2.95723 0.486648 0
M  V30 558 H 49.2754 -1.56742 0.405409 0
M  V30 559 H 51.2674 -3.53022 -1.97883 0
M  V30 560 H 49.8374 -2.46971 -1.91636 0
M  V30 561 H 49.0574 -3.94104 0.0871128 0
M  V30 562 H 50.3454 -5.07558 -0.35536 0
M  V30 563 H 49.7434 -4.46239 -3.47688 0
M  V30 564 H 48.3004 -5.36884 -3.69592 0
M  V30 565 N 51.7335 -0.305618 -1.54608 0
M  V30 566 C 52.6655 0.602161 -2.21149 0
M  V30 567 C 53.6785 1.09394 -1.20569 0
M  V30 568 O 54.8675 1.0106 -1.47136 0
M  V30 569 C 51.9675 1.83692 -2.84799 0
M  V30 570 C 51.1405 1.48686 -4.11353 0
M  V30 571 C 50.1995 2.57725 -4.58764 0
M  V30 572 O 49.2255 2.22623 -5.23858 0
M  V30 573 N 50.4275 3.88346 -4.31471 0
M  V30 574 H 53.1925 0.0324966 -2.99682 0
M  V30 575 H 50.7535 -0.128021 -1.61393 0
M  V30 576 H 52.7455 2.55994 -3.13448 0
M  V30 577 H 51.3155 2.31486 -2.10078 0
M  V30 578 H 50.5355 0.596269 -3.89664 0
M  V30 579 H 51.8235 1.22842 -4.93748 0
M  V30 580 H 51.2215 4.19671 -3.79331 0
M  V30 581 H 49.7785 4.56932 -4.64818 0
M  V30 582 N 53.2116 1.57565 -0.0334293 0
M  V30 583 C 54.4606 1.91155 0.643639 0
M  V30 584 C 54.7736 0.91192 1.73042 0
M  V30 585 O 55.9796 1.13923 2.46442 0
M  V30 586 C 54.4356 3.39443 1.1961 0
M  V30 587 C 54.0436 4.47774 0.142381 0
M  V30 588 C 55.7876 3.82094 1.84944 0
M  V30 589 C 53.6946 5.87162 0.706727 0
M  V30 590 H 52.6246 0.713368 0.244176 0
M  V30 591 H 55.2756 1.8323 -0.0994323 0
M  V30 592 H 53.6576 3.42313 1.99092 0
M  V30 593 H 54.8316 4.56469 -0.630296 0
M  V30 594 H 53.1466 4.14352 -0.412446 0
M  V30 595 H 55.7436 4.83591 2.2813 0
M  V30 596 H 56.0866 3.17386 2.69392 0
M  V30 597 H 56.6196 3.81665 1.12145 0
M  V30 598 H 53.3586 6.55424 -0.0997178 0
M  V30 599 H 52.8786 5.82064 1.44779 0
M  V30 600 H 54.5576 6.35866 1.19514 0
M  V30 601 N 54.6897 -0.239769 1.55765 0
M  V30 602 C 56.1057 -0.588624 1.48349 0
M  V30 603 C 56.3057 -1.88005 0.72502 0
M  V30 604 O 55.3617 -2.51186 0.257269 0
M  V30 605 C 56.6747 -0.68474 2.928 0
M  V30 606 C 58.2227 -0.77659 3.03213 0
M  V30 607 C 58.6977 -0.904207 4.48986 0
M  V30 608 N 60.1887 -0.968896 4.52953 0
M  V30 609 C 60.9237 -1.08703 5.63002 0
M  V30 610 N 60.4197 -1.17026 6.82845 0
M  V30 611 N 62.2127 -1.12074 5.50814 0
M  V30 612 H 54.3637 0.607911 2.03515 0
M  V30 613 H 56.6267 0.21083 0.924259 0
M  V30 614 H 56.3327 0.194284 3.51163 0
M  V30 615 H 56.2067 -1.55435 3.43686 0
M  V30 616 H 58.5937 -1.64606 2.44926 0
M  V30 617 H 58.6747 0.118315 2.55526 0
M  V30 618 H 58.3187 -0.0392633 5.07885 0
M  V30 619 H 58.2487 -1.81426 4.9436 0
M  V30 620 H 60.7397 -0.915633 3.6664 0
M  V30 621 H 61.0527 -1.25966 7.62465 0
M  V30 622 H 59.3977 -1.13971 6.85591 0
M  V30 623 H 62.5887 -1.05226 4.5612 0
M  V30 624 H 62.7617 -1.20936 6.36615 0
M  V30 625 N 56.1678 -1.49265 -0.50573 0
M  V30 626 C 57.4078 -1.60128 -1.27038 0
M  V30 627 C 57.7718 -0.279557 -1.89954 0
M  V30 628 O 58.9728 -0.263329 -2.67507 0
M  V30 629 C 57.2438 -2.72507 -2.31246 0
M  V30 630 S 58.8028 -3.0329 -3.17113 0
M  V30 631 H 55.6208 -0.564863 -0.4318 0
M  V30 632 H 58.2228 -1.86902 -0.573397 0
M  V30 633 H 56.9268 -3.67068 -1.83546 0
M  V30 634 H 56.4578 -2.4771 -3.05619 0
M  V30 635 H 58.4728 -2.44448 -4.31809 0
M  V30 636 N 57.6459 0.756429 -1.3826 0
M  V30 637 C 58.8759 1.54341 -1.3734 0
M  V30 638 C 59.2839 1.89159 0.0393917 0
M  V30 639 O 58.6269 1.5307 1.01565 0
M  V30 640 C 58.6889 2.87238 -2.16182 0
M  V30 641 C 58.3529 2.74973 -3.65019 0
M  V30 642 C 59.3499 2.44962 -4.58574 0
M  V30 643 C 57.0349 2.92515 -4.08338 0
M  V30 644 C 59.0289 2.32642 -5.93428 0
M  V30 645 C 56.7159 2.79815 -5.43274 0
M  V30 646 C 57.7139 2.49921 -6.35632 0
M  V30 647 O 57.4019 2.37275 -7.68086 0
M  V30 648 H 57.1339 0.484281 -0.471643 0
M  V30 649 H 59.6879 0.944152 -1.82414 0
M  V30 650 H 57.9179 3.49342 -1.65822 0
M  V30 651 H 59.6069 3.48731 -2.07705 0
M  V30 652 H 60.3729 2.31081 -4.26412 0
M  V30 653 H 56.2519 3.14781 -3.368 0
M  V30 654 H 59.7959 2.0923 -6.65484 0
M  V30 655 H 55.6929 2.93269 -5.75034 0
M  V30 656 H 56.4609 2.52509 -7.78577 0
M  V30 657 N 59.124 1.23083 0.984299 0
M  V30 658 C 60.349 1.088 1.76571 0
M  V30 659 C 60.774 -0.356657 1.84688 0
M  V30 660 O 60.132 -1.25788 1.30565 0
M  V30 661 C 60.18 1.71371 3.17277 0
M  V30 662 O 59.284 0.973213 4.00752 0
M  V30 663 H 58.625 0.381599 0.543395 0
M  V30 664 H 61.155 1.63057 1.23587 0
M  V30 665 H 61.165 1.76449 3.67872 0
M  V30 666 H 59.84 2.76493 3.10684 0
M  V30 667 H 58.417 0.999078 3.59267 0
M  V30 668 N 60.6021 -1.18246 1.0419 0
M  V30 669 C 61.5651 -2.20128 0.638452 0
M  V30 670 C 62.5651 -1.57885 -0.304805 0
M  V30 671 O 63.7551 -1.73967 -0.0900369 0
M  V30 672 C 60.8871 -3.4084 -0.0637751 0
M  V30 673 H 62.0801 -2.57336 1.54007 0
M  V30 674 H 59.6331 -1.32152 0.834598 0
M  V30 675 H 60.3681 -3.09166 -0.979136 0
M  V30 676 H 60.1531 -3.8726 0.614198 0
M  V30 677 H 61.6431 -4.16274 -0.332512 0
M  V30 678 N 62.0802 -0.821533 -1.34494 0
M  V30 679 C 63.4912 -0.467956 -1.8074 0
M  V30 680 C 63.8422 1.01151 -1.68116 0
M  V30 681 O 62.9672 1.78707 -1.22036 0
M  V30 682 C 63.5622 -0.842627 -3.28154 0
M  V30 683 C 62.1212 -0.541439 -3.72485 0
M  V30 684 C 61.2682 -1.06028 -2.56229 0
M  V30 685 H 64.2192 -1.01183 -1.22261 0
M  V30 686 H 64.2402 -0.145876 -3.8022 0
M  V30 687 H 63.7522 -1.91945 -3.37311 0
M  V30 688 H 61.8532 0.526034 -3.68868 0
M  V30 689 H 61.9662 -1.08453 -4.66663 0
M  V30 690 H 60.3302 -0.481892 -2.501 0
M  V30 691 H 61.1132 -2.14352 -2.68157 0
M  V30 692 N 63.5583 1.46682 -0.576371 0
M  V30 693 C 64.8043 2.02712 -0.0596221 0
M  V30 694 C 65.1373 1.44765 1.29448 0
M  V30 695 O 64.4123 0.610355 1.84675 0
M  V30 696 C 64.6953 3.60098 0.0129503 0
M  V30 697 C 64.5483 4.28441 -1.3696 0
M  V30 698 C 65.8673 4.34224 0.71678 0
M  V30 699 H 62.9863 0.736637 -0.0231407 0
M  V30 700 H 65.6283 1.74898 -0.742351 0
M  V30 701 H 63.7783 3.83926 0.594378 0
M  V30 702 H 65.4503 4.15896 -1.9957 0
M  V30 703 H 63.6933 3.8805 -1.93907 0
M  V30 704 H 64.3643 5.3716 -1.27135 0
M  V30 705 H 66.8403 4.15503 0.222908 0
M  V30 706 H 65.7163 5.43936 0.73657 0
M  V30 707 H 65.9773 4.04823 1.77682 0
M  V30 708 N 65.0364 0.313813 1.54444 0
M  V30 709 C 65.9994 -0.54379 2.22656 0
M  V30 710 C 66.9994 -1.05124 1.21678 0
M  V30 711 O 68.1894 -0.945225 1.46325 0
M  V30 712 C 65.3214 -1.75427 2.92298 0
M  V30 713 H 66.5144 0.0523599 2.99854 0
M  V30 714 H 64.0674 0.0647834 1.56166 0
M  V30 715 H 64.8024 -2.38991 2.19211 0
M  V30 716 H 64.5874 -1.39791 3.66334 0
M  V30 717 H 66.0774 -2.36325 3.44297 0
M  V30 718 N 66.5145 -1.57545 0.0417849 0
M  V30 719 C 67.4775 -2.09885 -0.92093 0
M  V30 720 C 68.4775 -1.01648 -1.24596 0
M  V30 721 O 69.6675 -1.27759 -1.1842 0
M  V30 722 C 66.7995 -2.57527 -2.23367 0
M  V30 723 H 67.9925 -2.96236 -0.467382 0
M  V30 724 H 65.5455 -1.5493 -0.206467 0
M  V30 725 H 66.2805 -1.74542 -2.73323 0
M  V30 726 H 66.0655 -3.36613 -2.01083 0
M  V30 727 H 67.5555 -2.98201 -2.92346 0
M  V30 728 N 67.9926 0.231505 -1.5589 0
M  V30 729 C 68.9026 1.308 -1.94752 0
M  V30 730 C 69.9186 1.51826 -0.849989 0
M  V30 731 O 71.0946 1.6515 -1.15271 0
M  V30 732 C 68.1596 2.63968 -2.24771 0
M  V30 733 C 67.2206 2.51331 -3.48039 0
M  V30 734 C 66.4536 3.78148 -3.76616 0
M  V30 735 O 66.6766 4.80722 -3.07022 0
M  V30 736 O 65.6106 3.75857 -4.70123 0
M  V30 737 H 69.4366 1.0083 -2.86474 0
M  V30 738 H 67.0216 0.433547 -1.42971 0
M  V30 739 H 68.9036 3.42633 -2.45318 0
M  V30 740 H 67.5786 2.9364 -1.36225 0
M  V30 741 H 66.4856 1.709 -3.32782 0
M  V30 742 H 67.8186 2.26601 -4.36936 0
M  V30 743 N 69.4707 1.49531 0.497807 0
M  V30 744 C 70.8817 1.52344 1.07927 0
M  V30 745 C 71.2327 0.311469 1.93712 0
M  V30 746 O 70.3577 -0.578405 2.08527 0
M  V30 747 C 70.9527 2.76062 1.96405 0
M  V30 748 C 69.5117 2.81643 2.49709 0
M  V30 749 C 68.6587 2.46299 1.27404 0
M  V30 750 H 71.6097 1.56182 0.281576 0
M  V30 751 H 71.6307 2.56405 2.81135 0
M  V30 752 H 71.1427 3.64254 1.33943 0
M  V30 753 H 69.2437 1.97739 3.15801 0
M  V30 754 H 69.3567 3.83891 2.86643 0
M  V30 755 H 67.7207 1.98148 1.60029 0
M  V30 756 H 68.5037 3.36769 0.66645 0
M  V30 757 N 70.9488 -0.749086 1.3866 0
M  V30 758 C 72.1958 -1.50833 1.35114 0
M  V30 759 C 72.5238 -1.94415 -0.0574049 0
M  V30 760 O 71.7788 -1.66065 -1.03541 0
M  V30 761 C 72.0778 -2.7712 2.25697 0
M  V30 762 C 71.7438 -2.52477 3.73585 0
M  V30 763 C 70.4058 -2.45466 4.13884 0
M  V30 764 C 72.7578 -2.31066 4.67181 0
M  V30 765 C 70.0858 -2.15064 5.45861 0
M  V30 766 C 72.4378 -2.02183 5.9942 0
M  V30 767 C 71.1018 -1.93631 6.38798 0
M  V30 768 H 70.3718 -0.551936 0.494416 0
M  V30 769 H 73.0188 -0.860979 1.71054 0
M  V30 770 H 71.3238 -3.46528 1.82827 0
M  V30 771 H 73.0208 -3.35096 2.20254 0
M  V30 772 H 69.6108 -2.58807 3.41638 0
M  V30 773 H 73.7948 -2.35459 4.3689 0
M  V30 774 H 69.0508 -2.06954 5.75308 0
M  V30 775 H 73.2248 -1.8462 6.71482 0
M  V30 776 H 70.8518 -1.69839 7.40985 0
M  V30 777 N 72.4269 -1.23603 -0.977757 0
M  V30 778 C 73.3569 -1.04401 -2.0886 0
M  V30 779 C 74.3379 0.0399052 -1.70053 0
M  V30 780 O 75.5229 -0.125246 -1.93796 0
M  V30 781 C 72.6529 -0.637269 -3.41403 0
M  V30 782 C 71.6069 -1.66883 -3.94124 0
M  V30 783 C 70.9329 -1.11745 -5.22893 0
M  V30 784 C 72.2329 -3.06247 -4.23096 0
M  V30 785 H 73.9269 -1.97316 -2.25182 0
M  V30 786 H 71.4729 -0.950096 -1.08209 0
M  V30 787 H 73.4259 -0.48998 -4.18542 0
M  V30 788 H 72.1499 0.327557 -3.24953 0
M  V30 789 H 70.8089 -1.80416 -3.19133 0
M  V30 790 H 70.4569 -0.143527 -5.02795 0
M  V30 791 H 70.1569 -1.80672 -5.59134 0
M  V30 792 H 71.6809 -0.982067 -6.02651 0
M  V30 793 H 73.0949 -2.96001 -4.90975 0
M  V30 794 H 71.4919 -3.72436 -4.70544 0
M  V30 795 H 72.5619 -3.55041 -3.30263 0
M  V30 796 N 73.905 1.17692 -1.04816 0
M  V30 797 C 75.13 1.92327 -0.776207 0
M  V30 798 C 75.555 1.76082 0.661581 0
M  V30 799 O 74.913 1.076 1.45917 0
M  V30 800 C 74.961 3.41539 -1.15687 0
M  V30 801 O 74.065 4.11402 -0.286775 0
M  V30 802 H 73.406 0.599735 -0.284981 0
M  V30 803 H 75.936 1.49201 -1.4 0
M  V30 804 H 75.946 3.92269 -1.12202 0
M  V30 805 H 74.621 3.52684 -2.20425 0
M  V30 806 H 73.198 3.70939 -0.381903 0
M  V30 807 N 75.3831 0.828654 1.34056 0
M  V30 808 C 76.6311 0.41863 1.97717 0
M  V30 809 C 76.9521 -1.02314 1.66002 0
M  V30 810 O 76.2221 -1.71119 0.953683 0
M  V30 811 H 74.8021 0.151809 0.731412 0
M  V30 812 H 77.4641 1.05936 1.63596 0
M  V30 813 H 76.5601 0.542318 3.07352 0
M  V30 814 N 76.8612 -1.46375 0.584142 0
M  V30 815 C 78.0892 -2.06761 0.0759296 0
M  V30 816 C 78.5042 -1.43266 -1.22965 0
M  V30 817 O 77.8612 -0.538458 -1.74376 0
M  V30 818 C 77.9122 -3.61375 -0.0950384 0
M  V30 819 O 77.6332 -4.22495 1.15887 0
M  V30 820 C 79.1342 -4.38693 -0.637434 0
M  V30 821 H 76.3542 -0.668479 0.0581075 0
M  V30 822 H 78.8982 -1.8798 0.805218 0
M  V30 823 H 77.0532 -3.79578 -0.774554 0
M  V30 824 H 77.4672 -5.15385 0.973598 0
M  V30 825 H 78.9412 -5.47464 -0.706237 0
M  V30 826 H 79.4182 -4.06836 -1.65472 0
M  V30 827 H 80.0242 -4.25299 0.00725967 0
M  V30 828 N 78.3393 -0.321999 -1.54275 0
M  V30 829 C 79.5643 0.285791 -2.05422 0
M  V30 830 C 79.9893 1.45124 -1.19669 0
M  V30 831 O 79.3473 1.80132 -0.205441 0
M  V30 832 C 79.3953 0.69956 -3.53749 0
M  V30 833 O 78.4993 1.8021 -3.70942 0
M  V30 834 H 77.8403 0.0518962 -0.661969 0
M  V30 835 H 80.3703 -0.469954 -1.9913 0
M  V30 836 H 80.3803 0.982649 -3.9599 0
M  V30 837 H 79.0553 -0.152864 -4.15619 0
M  V30 838 H 77.6323 1.51794 -3.40607 0
M  V30 839 N 79.8174 1.5752 -0.0501392 0
M  V30 840 C 81.0424 1.97376 0.636997 0
M  V30 841 C 81.4674 0.927466 1.63645 0
M  V30 842 O 80.8254 -0.10941 1.8097 0
M  V30 843 C 80.8734 3.36304 1.30123 0
M  V30 844 O 79.9774 3.34156 2.41689 0
M  V30 845 H 79.3184 0.642998 0.165679 0
M  V30 846 H 81.8484 2.04258 -0.118233 0
M  V30 847 H 81.8584 3.73008 1.65315 0
M  V30 848 H 80.5334 4.11993 0.568746 0
M  V30 849 H 79.1104 3.09196 2.08451 0
M  V30 850 N 81.2955 -0.223234 1.56011 0
M  V30 851 C 82.2435 -1.29627 1.93131 0
M  V30 852 C 83.2375 -1.48608 0.813146 0
M  V30 853 O 84.4435 -1.49802 0.997966 0
M  V30 854 H 80.8185 -0.434563 0.613726 0
M  V30 855 H 82.7895 -0.955995 2.82672 0
M  V30 856 C 81.5385 -2.63983 2.26292 0
M  V30 857 H 80.8615 -2.50185 3.11846 0
M  V30 858 H 82.3015 -3.3788 2.56151 0
M  V30 859 C 80.7605 -3.18866 1.08747 0
M  V30 860 O 81.2905 -4.00192 0.347727 0
M  V30 861 N 79.4965 -2.77217 0.871743 0
M  V30 862 H 79.0435 -2.1119 1.47501 0
M  V30 863 H 79.0015 -3.1428 0.0869905 0
M  V30 864 N 82.7736 -1.49793 -0.48987 0
M  V30 865 C 84.0036 -1.6333 -1.26518 0
M  V30 866 C 84.4116 -0.308392 -1.8667 0
M  V30 867 O 83.7546 0.717512 -1.69108 0
M  V30 868 C 83.8166 -2.6522 -2.4269 0
M  V30 869 C 83.4806 -4.09279 -2.03321 0
M  V30 870 C 84.4776 -4.95738 -1.56652 0
M  V30 871 C 82.1626 -4.55082 -2.12616 0
M  V30 872 C 84.1566 -6.26041 -1.19795 0
M  V30 873 C 81.8436 -5.85396 -1.75371 0
M  V30 874 C 82.8416 -6.707 -1.29036 0
M  V30 875 O 82.5296 -7.98584 -0.92299 0
M  V30 876 H 82.2616 -0.552502 -0.389509 0
M  V30 877 H 84.8156 -1.96642 -0.593381 0
M  V30 878 H 83.0456 -2.27112 -3.12981 0
M  V30 879 H 84.7346 -2.68171 -3.04695 0
M  V30 880 H 85.5006 -4.61575 -1.48908 0
M  V30 881 H 81.3796 -3.88844 -2.47631 0
M  V30 882 H 84.9236 -6.92578 -0.835582 0
M  V30 883 H 80.8206 -6.19085 -1.82768 0
M  V30 884 H 81.5886 -8.11692 -1.05349 0
M  V30 885 N 84.2517 0.741722 -1.39055 0
M  V30 886 C 85.4977 1.50336 -1.36113 0
M  V30 887 C 85.8307 1.94148 0.0450796 0
M  V30 888 O 85.1057 1.66301 1.00868 0
M  V30 889 C 85.3887 2.74773 -2.32749 0
M  V30 890 C 85.2417 2.37023 -3.82283 0
M  V30 891 C 86.5607 3.76846 -2.27322 0
M  V30 892 H 83.6797 0.545351 -0.495743 0
M  V30 893 H 86.3217 0.848624 -1.69995 0
M  V30 894 H 84.4717 3.30639 -2.03986 0
M  V30 895 H 86.1437 1.8684 -4.21768 0
M  V30 896 H 84.3867 1.69334 -3.99385 0
M  V30 897 H 85.0577 3.26104 -4.45376 0
M  V30 898 H 87.5337 3.30548 -2.5274 0
M  V30 899 H 86.4097 4.6159 -2.97028 0
M  V30 900 H 86.6707 4.23286 -1.27599 0
M  V30 901 N 85.7298 1.2412 0.971189 0
M  V30 902 C 86.6398 1.04747 2.09917 0
M  V30 903 C 87.6558 -0.0107162 1.73997 0
M  V30 904 O 88.8318 0.186714 2.00533 0
M  V30 905 C 85.8968 0.650828 3.40537 0
M  V30 906 C 84.9578 1.7851 3.90426 0
M  V30 907 C 84.1908 1.40729 5.14812 0
M  V30 908 O 84.4138 0.29557 5.69634 0
M  V30 909 O 83.3478 2.23168 5.58999 0
M  V30 910 H 87.1738 1.99304 2.29154 0
M  V30 911 H 84.7588 1.02908 1.08307 0
M  V30 912 H 86.6408 0.440992 4.19086 0
M  V30 913 H 85.3158 -0.265649 3.22608 0
M  V30 914 H 84.2228 2.04966 3.12953 0
M  V30 915 H 85.5558 2.68023 4.12825 0
M  V30 916 N 87.2079 -1.17134 1.05439 0
M  V30 917 C 88.1179 -2.24878 0.668365 0
M  V30 918 C 89.1339 -1.71186 -0.311687 0
M  V30 919 O 90.3099 -2.00738 -0.163161 0
M  V30 920 C 87.3749 -3.46662 0.051648 0
M  V30 921 C 86.4359 -4.15429 1.08246 0
M  V30 922 C 85.6689 -5.31399 0.495082 0
M  V30 923 O 85.8919 -5.66153 -0.694743 0
M  V30 924 O 84.8259 -5.89187 1.23056 0
M  V30 925 H 88.6519 -2.60189 1.56637 0
M  V30 926 H 86.2369 -1.24482 0.826104 0
M  V30 927 H 88.1189 -4.20394 -0.290966 0
M  V30 928 H 86.7939 -3.13142 -0.819971 0
M  V30 929 H 85.7009 -3.43704 1.47711 0
M  V30 930 H 87.0339 -4.52982 1.92532 0
M  V30 931 N 88.686 -0.835752 -1.33615 0
M  V30 932 C 89.619 -0.211815 -2.27215 0
M  V30 933 C 90.597 0.639249 -1.49507 0
M  V30 934 O 91.781 0.600193 -1.78689 0
M  V30 935 C 88.908 0.702893 -3.31326 0
M  V30 936 C 87.954 -0.0723049 -4.26439 0
M  V30 937 S 88.787 -1.42811 -5.16106 0
M  V30 938 C 89.943 -0.518613 -6.23748 0
M  V30 939 H 90.176 -1.00533 -2.79786 0
M  V30 940 H 87.709 -0.632336 -1.40858 0
M  V30 941 H 89.667 1.22505 -3.91794 0
M  V30 942 H 88.328 1.47004 -2.77576 0
M  V30 943 H 87.521 0.62359 -5.00127 0
M  V30 944 H 87.123 -0.525424 -3.70291 0
M  V30 945 H 89.415 0.284778 -6.76901 0
M  V30 946 H 90.358 -1.22556 -6.97413 0
M  V30 947 H 90.766 -0.101344 -5.64409 0
M  V30 948 N 90.1641 1.46063 -0.591896 0
M  V30 949 C 91.3941 2.06418 -0.0867676 0
M  V30 950 C 91.8021 1.43975 1.22751 0
M  V30 951 O 91.1451 0.542531 1.75506 0
M  V30 952 C 91.2071 3.59213 0.143725 0
M  V30 953 C 90.8711 4.439 -1.08635 0
M  V30 954 C 91.8681 4.79864 -2.00067 0
M  V30 955 C 89.5531 4.84896 -1.31077 0
M  V30 956 C 91.5471 5.55661 -3.12282 0
M  V30 957 C 89.2341 5.6045 -2.43596 0
M  V30 958 C 90.2321 5.95747 -3.34027 0
M  V30 959 O 89.9201 6.69772 -4.4459 0
M  V30 960 H 89.6521 0.673443 -0.0587447 0
M  V30 961 H 92.2061 1.88539 -0.814994 0
M  V30 962 H 90.4361 3.75433 0.926668 0
M  V30 963 H 92.1251 4.01463 0.5985 0
M  V30 964 H 92.8911 4.48763 -1.83947 0
M  V30 965 H 88.7701 4.56867 -0.61594 0
M  V30 966 H 92.3141 5.8313 -3.82891 0
M  V30 967 H 88.2111 5.90965 -2.59674 0
M  V30 968 H 88.9791 6.88207 -4.43073 0
M  V30 969 N 91.6422 0.330177 1.54103 0
M  V30 970 C 92.8822 -0.270916 2.02597 0
M  V30 971 C 93.2462 -1.48826 1.21304 0
M  V30 972 O 94.4472 -2.16266 1.59633 0
M  V30 973 C 92.7182 -0.590328 3.52491 0
M  V30 974 S 94.2772 -1.17014 4.2291 0
M  V30 975 H 91.0952 -0.0815379 0.706309 0
M  V30 976 H 93.6972 0.464835 1.89893 0
M  V30 977 H 92.4012 0.303691 4.09275 0
M  V30 978 H 91.9322 -1.3561 3.69288 0
M  V30 979 H 93.9472 -2.45662 4.3112 0
M  V30 980 N 93.1203 -1.57491 0.0584922 0
M  V30 981 C 94.0833 -2.1085 -0.898617 0
M  V30 982 C 95.0833 -1.02964 -1.23511 0
M  V30 983 O 96.2733 -1.29007 -1.17059 0
M  V30 984 C 93.4053 -2.59881 -2.20623 0
M  V30 985 H 94.5983 -2.96715 -0.435936 0
M  V30 986 H 92.1513 -1.55141 -0.190023 0
M  V30 987 H 92.8863 -1.77431 -2.71457 0
M  V30 988 H 92.6713 -3.38727 -1.97501 0
M  V30 989 H 94.1613 -3.01285 -2.89166 0
M  V30 990 N 94.5984 0.214957 -1.56127 0
M  V30 991 C 95.8444 0.935325 -1.80619 0
M  V30 992 C 96.1994 1.81706 -0.632507 0
M  V30 993 O 95.4924 1.87931 0.373182 0
M  V30 994 C 95.6864 1.80314 -3.0858 0
M  V30 995 C 95.5154 1.00691 -4.38282 0
M  V30 996 C 94.2854 0.699211 -5.00439 0
M  V30 997 C 96.4834 0.369057 -5.12974 0
M  V30 998 N 94.4654 -0.117734 -6.13787 0
M  V30 999 C 95.8364 -0.310981 -6.1922 0
M  V30 1000 C 97.8914 0.282759 -4.97096 0
M  V30 1001 C 96.5944 -1.06907 -7.11311 0
M  V30 1002 C 98.6204 -0.461881 -5.89594 0
M  V30 1003 C 97.9824 -1.13044 -6.9527 0
M  V30 1004 H 94.0814 0.322307 -0.71249 0
M  V30 1005 H 96.6654 0.205649 -1.93611 0
M  V30 1006 H 94.8364 2.50458 -2.96859 0
M  V30 1007 H 96.5684 2.46148 -3.21237 0
M  V30 1008 H 93.3234 1.01884 -4.62511 0
M  V30 1009 H 93.7474 -0.515235 -6.75037 0
M  V30 1010 H 98.3894 0.785292 -4.15443 0
M  V30 1011 H 96.1074 -1.5831 -7.92442 0
M  V30 1012 H 99.6934 -0.529746 -5.79383 0
M  V30 1013 H 98.5734 -1.69742 -7.65609 0
M  V30 1014 N 96.0765 1.50051 0.48192 0
M  V30 1015 C 97.0065 1.71046 1.58951 0
M  V30 1016 C 97.9875 0.559288 1.60642 0
M  V30 1017 O 99.1725 0.797243 1.77081 0
M  V30 1018 C 96.3025 1.79462 2.97339 0
M  V30 1019 C 95.2565 2.94558 3.10515 0
M  V30 1020 C 94.5825 2.88105 4.50444 0
M  V30 1021 C 95.8825 4.35227 2.88747 0
M  V30 1022 H 97.5765 2.6378 1.41635 0
M  V30 1023 H 95.1225 1.26936 0.679942 0
M  V30 1024 H 97.0755 1.92734 3.74742 0
M  V30 1025 H 95.7995 0.833412 3.15788 0
M  V30 1026 H 94.4585 2.80918 2.35543 0
M  V30 1027 H 94.1065 1.89853 4.65795 0
M  V30 1028 H 93.8065 3.65366 4.60197 0
M  V30 1029 H 95.3305 3.03412 5.29881 0
M  V30 1030 H 96.7445 4.49449 3.55905 0
M  V30 1031 H 95.1415 5.13856 3.09955 0
M  V30 1032 H 96.2115 4.48347 1.84696 0
M  V30 1033 N 97.5546 -0.734337 1.39446 0
M  V30 1034 C 98.4646 -1.87879 1.40495 0
M  V30 1035 C 99.4806 -1.714 0.299672 0
M  V30 1036 O 100.657 -1.93991 0.541249 0
M  V30 1037 C 97.7216 -3.23477 1.24754 0
M  V30 1038 C 96.7826 -3.52344 2.45259 0
M  V30 1039 C 96.0156 -4.81473 2.30259 0
M  V30 1040 O 96.2386 -5.55237 1.30643 0
M  V30 1041 O 95.1726 -5.10254 3.19256 0
M  V30 1042 H 98.9986 -1.89949 2.36966 0
M  V30 1043 H 96.5836 -0.882243 1.20569 0
M  V30 1044 H 98.4656 -4.04509 1.18111 0
M  V30 1045 H 97.1406 -3.22176 0.313781 0
M  V30 1046 H 96.0476 -2.71396 2.57478 0
M  V30 1047 H 97.3806 -3.58426 3.37331 0
M  V30 1048 N 99.0327 -1.24633 -0.964593 0
M  V30 1049 C 99.9807 -1.03917 -2.08096 0
M  V30 1050 C 100.975 0.0268581 -1.69379 0
M  V30 1051 O 102.181 -0.127952 -1.79545 0
M  V30 1052 H 98.5557 -0.319044 -0.680966 0
M  V30 1053 H 100.527 -1.98581 -2.22729 0
M  V30 1054 C 99.2757 -0.663983 -3.41301 0
M  V30 1055 H 98.5987 -1.47605 -3.71555 0
M  V30 1056 H 100.039 -0.558663 -4.20303 0
M  V30 1057 C 98.4977 0.629169 -3.30973 0
M  V30 1058 O 99.0277 1.67404 -3.65156 0
M  V30 1059 N 97.2337 0.611057 -2.84103 0
M  V30 1060 H 96.7807 -0.239593 -2.56483 0
M  V30 1061 H 96.7387 1.47647 -2.77575 0
M  V30 1062 N 100.511 1.16574 -1.06058 0
M  V30 1063 C 101.922 1.68662 -0.800632 0
M  V30 1064 C 102.273 1.84184 0.67608 0
M  V30 1065 O 101.398 1.53568 1.52466 0
M  V30 1066 C 101.993 3.06356 -1.44676 0
M  V30 1067 C 100.552 3.55575 -1.23465 0
M  V30 1068 C 99.6988 2.31616 -1.52477 0
M  V30 1069 H 102.65 1.00969 -1.22438 0
M  V30 1070 H 102.671 3.70636 -0.860788 0
M  V30 1071 H 102.183 2.95027 -2.52152 0
M  V30 1072 H 100.284 3.72167 -0.179527 0
M  V30 1073 H 100.397 4.37812 -1.94571 0
M  V30 1074 H 98.7608 2.36512 -0.945209 0
M  V30 1075 H 99.5438 2.22887 -2.61106 0
M  V30 1076 N 101.989 0.842826 1.3317 0
M  V30 1077 C 102.936 0.276885 2.29133 0
M  V30 1078 C 103.906 -0.609527 1.54512 0
M  V30 1079 O 105.091 -0.546955 1.82792 0
M  V30 1080 C 102.231 -0.538707 3.40869 0
M  V30 1081 C 101.344 0.372169 4.30394 0
M  V30 1082 C 100.479 -0.454908 5.29249 0
M  V30 1083 C 99.5179 0.45411 6.10413 0
M  V30 1084 N 98.6549 -0.335075 7.013 0
M  V30 1085 H 103.495 1.10052 2.76934 0
M  V30 1086 H 101.032 0.554161 1.36262 0
M  V30 1087 H 102.99 -1.02709 4.0436 0
M  V30 1088 H 101.62 -1.32727 2.9425 0
M  V30 1089 H 100.672 0.97888 3.6759 0
M  V30 1090 H 101.984 1.0703 4.87182 0
M  V30 1091 H 101.138 -1.00695 5.98285 0
M  V30 1092 H 99.8769 -1.18646 4.73048 0
M  V30 1093 H 98.8819 1.01813 5.40291 0
M  V30 1094 H 100.107 1.18409 6.68697 0
M  V30 1095 H 98.0529 -1.04994 6.47543 0
M  V30 1096 H 97.9699 0.304262 7.55387 0
M  V30 1097 H 99.2379 -0.869224 7.74638 0
M  V30 1098 N 103.467 -1.45747 0.599634 0
M  V30 1099 C 104.692 -2.07178 0.0960198 0
M  V30 1100 C 105.117 -1.44268 -1.207 0
M  V30 1101 O 104.475 -0.532503 -1.73303 0
M  V30 1102 C 104.523 -3.60579 -0.0385348 0
M  V30 1103 O 103.627 -3.97713 -1.0908 0
M  V30 1104 H 102.968 -0.660251 0.0704593 0
M  V30 1105 H 105.498 -1.87124 0.827385 0
M  V30 1106 H 105.508 -4.07298 -0.239304 0
M  V30 1107 H 104.183 -4.05756 0.912947 0
M  V30 1108 H 102.76 -3.62678 -0.867135 0
M  V30 1109 N 104.945 -0.338344 -1.53925 0
M  V30 1110 C 106.191 0.260143 -2.01125 0
M  V30 1111 C 106.524 1.50617 -1.22589 0
M  V30 1112 O 105.799 1.91979 -0.312113 0
M  V30 1113 C 106.082 0.579499 -3.55407 0
M  V30 1114 C 105.935 -0.678264 -4.44657 0
M  V30 1115 C 107.254 1.39122 -4.17532 0
M  V30 1116 H 104.373 0.0930772 -0.731099 0
M  V30 1117 H 107.015 -0.457852 -1.84401 0
M  V30 1118 H 105.165 1.19118 -3.69788 0
M  V30 1119 H 106.837 -1.31631 -4.42121 0
M  V30 1120 H 105.08 -1.3042 -4.13731 0
M  V30 1121 H 105.751 -0.410143 -5.50474 0
M  V30 1122 H 108.227 0.874035 -4.06817 0
M  V30 1123 H 107.103 1.58342 -5.25565 0
M  V30 1124 H 107.364 2.39178 -3.71815 0
M  V30 1125 N 106.423 1.57458 -0.0668435 0
M  V30 1126 C 107.373 2.0896 0.912119 0
M  V30 1127 C 108.357 0.998186 1.26195 0
M  V30 1128 O 109.549 1.26133 1.24175 0
M  V30 1129 C 106.678 2.6508 2.18145 0
M  V30 1130 C 105.764 3.81218 1.85832 0
M  V30 1131 N 106.155 4.90378 1.23948 0
M  V30 1132 C 104.453 3.9042 2.15612 0
M  V30 1133 C 105.154 5.71279 1.09616 0
M  V30 1134 N 104.13 5.19389 1.60423 0
M  V30 1135 H 107.932 2.90749 0.42924 0
M  V30 1136 H 105.446 1.6182 0.137184 0
M  V30 1137 H 107.443 3.0029 2.89192 0
M  V30 1138 H 106.103 1.84736 2.67025 0
M  V30 1139 H 107.114 5.09847 0.909731 0
M  V30 1140 H 103.791 3.21043 2.66903 0
M  V30 1141 H 105.181 6.69085 0.614425 0
M  V30 1142 N 107.901 -0.206675 1.56239 0
M  V30 1143 C 108.848 -1.25617 1.93621 0
M  V30 1144 C 109.818 -1.45824 0.795274 0
M  V30 1145 O 111.003 -1.59148 1.05245 0
M  V30 1146 C 108.143 -2.59839 2.27107 0
M  V30 1147 C 107.256 -2.47308 3.54207 0
M  V30 1148 C 106.391 -3.74155 3.7707 0
M  V30 1149 C 105.43 -3.56407 4.97635 0
M  V30 1150 N 104.567 -4.75238 5.1681 0
M  V30 1151 H 109.407 -0.930383 2.83104 0
M  V30 1152 H 106.944 -0.448065 1.4011 0
M  V30 1153 H 108.902 -3.38021 2.44535 0
M  V30 1154 H 107.532 -2.90485 1.40778 0
M  V30 1155 H 106.584 -1.60483 3.4489 0
M  V30 1156 H 107.896 -2.30122 4.42544 0
M  V30 1157 H 107.05 -4.60778 3.94675 0
M  V30 1158 H 105.789 -3.94282 2.87042 0
M  V30 1159 H 104.794 -2.68168 4.79964 0
M  V30 1160 H 106.019 -3.37736 5.89161 0
M  V30 1161 H 103.965 -4.95651 4.29728 0
M  V30 1162 H 103.882 -4.60835 5.99306 0
M  V30 1163 H 105.15 -5.63246 5.38864 0
M  V30 1164 N 109.379 -1.50304 -0.473955 0
M  V30 1165 C 110.604 -1.65175 -1.25427 0
M  V30 1166 C 111.029 -0.333673 -1.85117 0
M  V30 1167 O 110.387 0.702114 -1.67153 0
M  V30 1168 C 110.435 -2.74295 -2.34082 0
M  V30 1169 O 109.539 -2.35349 -3.38651 0
M  V30 1170 H 108.88 -0.551944 -0.369126 0
M  V30 1171 H 111.41 -1.96662 -0.564364 0
M  V30 1172 H 111.42 -2.97285 -2.79438 0
M  V30 1173 H 110.095 -3.69959 -1.90008 0
M  V30 1174 H 108.672 -2.22794 -2.99027 0
M  V30 1175 N 110.857 0.726932 -1.39834 0
M  V30 1176 C 112.103 1.48771 -1.38704 0
M  V30 1177 C 112.458 1.92394 0.0146387 0
M  V30 1178 O 111.751 1.64474 0.982797 0
M  V30 1179 C 111.945 2.73495 -2.30077 0
M  V30 1180 C 111.774 2.42068 -3.78989 0
M  V30 1181 C 110.544 2.33966 -4.4787 0
M  V30 1182 C 112.742 2.0708 -4.70768 0
M  V30 1183 N 110.724 1.95095 -5.82075 0
M  V30 1184 C 112.095 1.78719 -5.93683 0
M  V30 1185 C 114.15 1.93618 -4.58712 0
M  V30 1186 C 112.853 1.3825 -7.05889 0
M  V30 1187 C 114.879 1.54553 -5.70848 0
M  V30 1188 C 114.241 1.27082 -6.92842 0
M  V30 1189 H 110.34 0.542919 -0.562817 0
M  V30 1190 H 112.924 0.84408 -1.75452 0
M  V30 1191 H 111.095 3.35625 -1.95474 0
M  V30 1192 H 112.827 3.39755 -2.19883 0
M  V30 1193 H 109.582 2.51331 -4.0141 0
M  V30 1194 H 110.006 1.7823 -6.53118 0
M  V30 1195 H 114.648 2.13522 -3.64922 0
M  V30 1196 H 112.366 1.17088 -7.99572 0
M  V30 1197 H 115.952 1.44731 -5.6351 0
M  V30 1198 H 114.832 0.973069 -7.78139 0
M  V30 1199 N 112.336 1.25143 0.95797 0
M  V30 1200 C 113.613 1.00472 1.67823 0
M  V30 1201 C 113.993 -0.470056 2.058 0
M  V30 1202 O 113.341 -1.44663 1.76875 0
M  V30 1203 C 113.551 1.9372 2.90299 0
M  V30 1204 C 114.899 2.21371 3.62326 0
M  V30 1205 O 115.923 1.91451 3.00375 0
M  V30 1206 O 114.782 2.72231 4.7387 0
M  V30 1207 H 111.876 0.380752 0.734137 0
M  V30 1208 H 114.422 1.36283 1.01119 0
M  V30 1209 H 113.194 2.93316 2.59001 0
M  V30 1210 H 112.817 1.58286 3.64735 0
M  V30 1211 N 113.814 -1.1601 1.06675 0
M  V30 1212 C 115.063 -1.85973 0.780818 0
M  V30 1213 C 115.376 -1.82819 -0.695444 0
M  V30 1214 O 116.582 -2.484 -1.09589 0
M  V30 1215 C 115.038 -3.33757 1.34665 0
M  V30 1216 C 114.646 -3.45374 2.85343 0
M  V30 1217 C 116.39 -4.0895 1.13843 0
M  V30 1218 C 114.297 -4.87266 3.35151 0
M  V30 1219 H 113.227 -0.696661 0.288407 0
M  V30 1220 H 115.878 -1.30903 1.28595 0
M  V30 1221 H 114.26 -3.88456 0.769274 0
M  V30 1222 H 115.434 -3.00816 3.49065 0
M  V30 1223 H 113.749 -2.83619 3.04876 0
M  V30 1224 H 116.346 -5.13654 1.4854 0
M  V30 1225 H 116.689 -4.16229 0.0770282 0
M  V30 1226 H 117.222 -3.605 1.68179 0
M  V30 1227 H 113.961 -4.85168 4.40786 0
M  V30 1228 H 113.481 -5.32433 2.76179 0
M  V30 1229 H 115.16 -5.56097 3.30704 0
M  V30 1230 N 115.292 -0.849877 -1.32721 0
M  V30 1231 C 116.539 -0.450923 -1.97416 0
M  V30 1232 C 116.867 0.992376 -1.67279 0
M  V30 1233 O 116.122 1.71048 -0.950845 0
M  V30 1234 C 116.421 -0.631272 -3.51781 0
M  V30 1235 C 116.087 -2.04432 -4.01894 0
M  V30 1236 C 114.749 -2.4308 -4.1529 0
M  V30 1237 C 117.101 -2.96679 -4.28522 0
M  V30 1238 C 114.429 -3.73257 -4.52654 0
M  V30 1239 C 116.781 -4.26349 -4.67343 0
M  V30 1240 C 115.445 -4.64939 -4.78945 0
M  V30 1241 H 114.715 -0.165004 -0.722395 0
M  V30 1242 H 117.362 -1.07901 -1.58207 0
M  V30 1243 H 115.667 0.0800767 -3.91718 0
M  V30 1244 H 117.364 -0.302709 -3.99856 0
M  V30 1245 H 113.954 -1.73419 -3.91949 0
M  V30 1246 H 118.138 -2.68054 -4.17685 0
M  V30 1247 H 113.394 -4.02946 -4.59831 0
M  V30 1248 H 117.568 -4.97895 -4.86902 0
M  V30 1249 H 115.195 -5.65855 -5.07654 0
M  V30 1250 N 116.77 1.45427 -0.607355 0
M  V30 1251 C 118.017 2.02241 -0.102455 0
M  V30 1252 C 118.345 1.4758 1.26691 0
M  V30 1253 O 117.6 0.640468 1.84923 0
M  V30 1254 C 117.899 3.57398 -0.0129263 0
M  V30 1255 C 117.565 4.3121 -1.31792 0
M  V30 1256 C 116.227 4.51092 -1.67539 0
M  V30 1257 C 118.579 4.73401 -2.18039 0
M  V30 1258 C 115.907 5.10422 -2.89285 0
M  V30 1259 C 118.259 5.34078 -3.39034 0
M  V30 1260 C 116.923 5.52184 -3.75033 0
M  V30 1261 H 116.193 0.740051 -0.037491 0
M  V30 1262 H 118.84 1.74494 -0.788926 0
M  V30 1263 H 117.145 3.84421 0.756806 0
M  V30 1264 H 118.842 3.99061 0.393881 0
M  V30 1265 H 115.432 4.16047 -1.02968 0
M  V30 1266 H 119.616 4.57774 -1.91721 0
M  V30 1267 H 114.872 5.22629 -3.17283 0
M  V30 1268 H 119.046 5.65724 -4.06115 0
M  V30 1269 H 116.673 5.97925 -4.69457 0
M  V30 1270 N 118.248 0.346503 1.53744 0
M  V30 1271 C 119.664 -0.00530975 1.59599 0
M  V30 1272 C 119.864 -1.48465 1.36236 0
M  V30 1273 O 118.92 -2.24376 1.15808 0
M  V30 1274 C 120.233 0.433516 2.97559 0
M  V30 1275 C 121.781 0.386111 3.10609 0
M  V30 1276 C 122.256 0.800451 4.50951 0
M  V30 1277 N 123.747 0.754753 4.5701 0
M  V30 1278 C 124.482 1.04727 5.63755 0
M  V30 1279 N 123.978 1.4081 6.7834 0
M  V30 1280 N 125.771 0.971316 5.53644 0
M  V30 1281 H 117.922 1.31009 1.67184 0
M  V30 1282 H 120.185 0.534242 0.783128 0
M  V30 1283 H 119.891 1.46509 3.19731 0
M  V30 1284 H 119.765 -0.189753 3.76722 0
M  V30 1285 H 122.152 -0.636295 2.88158 0
M  V30 1286 H 122.233 1.04462 2.33498 0
M  V30 1287 H 121.877 1.82088 4.74137 0
M  V30 1288 H 121.807 0.119386 5.26465 0
M  V30 1289 H 124.298 0.488662 3.74727 0
M  V30 1290 H 124.611 1.61607 7.55714 0
M  V30 1291 H 122.956 1.44657 6.79779 0
M  V30 1292 H 126.147 0.688748 4.63005 0
M  V30 1293 H 126.32 1.20263 6.36742 0
M  V30 1294 N 119.726 -1.57421 0.075193 0
M  V30 1295 C 120.674 -2.14124 -0.908508 0
M  V30 1296 C 121.668 -1.07898 -1.30592 0
M  V30 1297 O 122.874 -1.26273 -1.28277 0
M  V30 1298 H 119.249 -0.684707 -0.310935 0
M  V30 1299 H 121.22 -2.95634 -0.405374 0
M  V30 1300 C 119.969 -2.72044 -2.16535 0
M  V30 1301 H 119.292 -3.53456 -1.86839 0
M  V30 1302 H 120.732 -3.15311 -2.83469 0
M  V30 1303 C 119.191 -1.66968 -2.92615 0
M  V30 1304 O 119.721 -1.0967 -3.86439 0
M  V30 1305 N 117.927 -1.37923 -2.55784 0
M  V30 1306 H 117.474 -1.84706 -1.79559 0
M  V30 1307 H 117.432 -0.67852 -3.06991 0
M  V30 1308 N 121.204 0.198386 -1.56346 0
M  V30 1309 C 122.432 0.935572 -1.84539 0
M  V30 1310 C 122.847 1.76989 -0.657281 0
M  V30 1311 O 122.204 1.78626 0.374043 0
M  V30 1312 C 122.255 1.8344 -3.11499 0
M  V30 1313 O 121.976 1.03377 -4.25728 0
M  V30 1314 C 123.477 2.68355 -3.52846 0
M  V30 1315 H 120.697 0.273126 -0.612897 0
M  V30 1316 H 123.241 0.20663 -2.03453 0
M  V30 1317 H 121.396 2.51701 -2.94492 0
M  V30 1318 H 121.81 1.64599 -4.98003 0
M  V30 1319 H 123.284 3.27085 -4.44657 0
M  V30 1320 H 123.761 3.41901 -2.75681 0
M  V30 1321 H 124.367 2.05471 -3.72373 0
M  V30 1322 N 122.682 1.50554 0.465978 0
M  V30 1323 C 123.63 1.70324 1.58406 0
M  V30 1324 C 124.624 0.569139 1.59553 0
M  V30 1325 O 125.83 0.749776 1.63641 0
M  V30 1326 H 122.205 0.537688 0.525734 0
M  V30 1327 H 124.176 2.64104 1.38894 0
M  V30 1328 C 122.925 1.81928 2.96307 0
M  V30 1329 H 122.248 2.68586 2.96144 0
M  V30 1330 H 123.688 1.99784 3.73982 0
M  V30 1331 C 122.147 0.572095 3.32007 0
M  V30 1332 O 122.677 -0.286416 4.00678 0
M  V30 1333 N 120.883 0.424606 2.87481 0
M  V30 1334 H 120.43 1.12427 2.31771 0
M  V30 1335 H 120.388 -0.408697 3.11732 0
M  V30 1336 N 124.16 -0.719506 1.40217 0
M  V30 1337 C 125.123 -1.8153 1.39927 0
M  V30 1338 C 126.123 -1.58095 0.293723 0
M  V30 1339 O 127.313 -1.65209 0.552429 0
M  V30 1340 C 124.445 -3.19561 1.18716 0
M  V30 1341 H 125.638 -1.83186 2.37451 0
M  V30 1342 H 123.191 -0.924746 1.26008 0
M  V30 1343 H 123.926 -3.23557 0.219366 0
M  V30 1344 H 123.711 -3.3797 1.98793 0
M  V30 1345 H 125.201 -3.99598 1.21291 0
M  V30 1346 N 125.638 -1.25649 -0.95132 0
M  V30 1347 C 126.886 -1.10375 -1.69298 0
M  V30 1348 C 127.207 0.355339 -1.91735 0
M  V30 1349 O 126.477 1.25188 -1.50681 0
M  V30 1350 H 125.057 -0.405461 -0.627384 0
M  V30 1351 H 127.719 -1.57823 -1.14358 0
M  V30 1352 H 126.815 -1.61465 -2.67087 0
M  V30 1353 N 127.117 1.15442 -1.07289 0
M  V30 1354 C 128.08 2.18358 -0.696591 0
M  V30 1355 C 129.08 1.58637 0.262837 0
M  V30 1356 O 130.27 1.74145 0.0438809 0
M  V30 1357 C 127.402 3.4089 -0.0266151 0
M  V30 1358 H 128.595 2.53162 -1.60776 0
M  V30 1359 H 126.148 1.29893 -0.869342 0
M  V30 1360 H 126.883 3.11653 0.896822 0
M  V30 1361 H 126.668 3.85495 -0.716657 0
M  V30 1362 H 128.158 4.17009 0.222028 0
M  V30 1363 N 128.595 0.856903 1.32268 0
M  V30 1364 C 130.006 0.515711 1.79436 0
M  V30 1365 C 130.357 -0.966586 1.70738 0
M  V30 1366 O 129.482 -1.75409 1.26731 0
M  V30 1367 C 130.077 0.929335 3.25805 0
M  V30 1368 C 128.636 0.640006 3.70919 0
M  V30 1369 C 127.783 1.12784 2.53328 0
M  V30 1370 H 130.734 1.04389 1.19535 0
M  V30 1371 H 130.755 0.246633 3.797 0
M  V30 1372 H 130.267 2.00821 3.32103 0
M  V30 1373 H 128.368 -0.428051 3.70133 0
M  V30 1374 H 128.481 1.20788 4.63624 0
M  V30 1375 H 126.845 0.548033 2.48734 0
M  V30 1376 H 127.628 2.21387 2.62379 0
M  V30 1377 N 130.073 -1.45103 0.615059 0
M  V30 1378 C 131.484 -1.85654 0.197383 0
M  V30 1379 C 131.835 -1.51433 -1.24749 0
M  V30 1380 O 130.96 -0.944608 -1.94695 0
M  V30 1381 C 131.555 -3.36972 0.351448 0
M  V30 1382 C 130.114 -3.76398 -0.011593 0
M  V30 1383 C 129.261 -2.69024 0.672394 0
M  V30 1384 H 132.212 -1.35797 0.821263 0
M  V30 1385 H 132.233 -3.78239 -0.414227 0
M  V30 1386 H 131.745 -3.61847 1.40314 0
M  V30 1387 H 129.846 -3.5714 -1.06217 0
M  V30 1388 H 129.959 -4.77532 0.387265 0
M  V30 1389 H 128.323 -2.54465 0.109284 0
M  V30 1390 H 129.106 -2.96735 1.72636 0
M  V30 1391 N 131.551 -0.354651 -1.53558 0
M  V30 1392 C 132.799 0.237972 -2.00694 0
M  V30 1393 C 133.12 1.50173 -1.24391 0
M  V30 1394 O 132.39 1.92673 -0.354135 0
M  V30 1395 H 130.97 0.0909256 -0.741446 0
M  V30 1396 H 133.632 -0.478368 -1.88938 0
M  V30 1397 H 132.728 0.47264 -3.085 0
M  V30 1398 N 133.029 1.57378 -0.0835403 0
M  V30 1399 C 134.257 1.98263 0.59157 0
M  V30 1400 C 134.672 0.962302 1.62435 0
M  V30 1401 O 134.029 -0.049581 1.82433 0
M  V30 1402 C 134.08 3.39214 1.24965 0
M  V30 1403 O 133.801 4.37339 0.258186 0
M  V30 1404 C 135.302 3.95038 2.01147 0
M  V30 1405 H 132.522 0.651773 0.159477 0
M  V30 1406 H 135.066 2.03878 -0.159415 0
M  V30 1407 H 133.221 3.34649 1.95164 0
M  V30 1408 H 133.635 5.19371 0.731734 0
M  V30 1409 H 135.109 4.95848 2.42567 0
M  V30 1410 H 135.586 3.32222 2.87272 0
M  V30 1411 H 136.192 4.0304 1.35789 0
M  V30 1412 N 134.507 -0.190092 1.56449 0
M  V30 1413 C 135.47 -1.21925 1.9408 0
M  V30 1414 C 136.47 -1.38176 0.822431 0
M  V30 1415 O 137.66 -1.35903 1.08977 0
M  V30 1416 C 134.792 -2.58773 2.21922 0
M  V30 1417 H 135.985 -0.897464 2.86157 0
M  V30 1418 H 133.538 -0.43181 1.50217 0
M  V30 1419 H 134.273 -2.95998 1.32499 0
M  V30 1420 H 134.058 -2.48348 3.03424 0
M  V30 1421 H 135.548 -3.32978 2.52022 0
M  V30 1422 N 135.985 -1.50799 -0.457987 0
M  V30 1423 C 137.215 -1.65977 -1.23025 0
M  V30 1424 C 137.623 -0.347918 -1.85974 0
M  V30 1425 O 136.966 0.68148 -1.70592 0
M  V30 1426 C 137.028 -2.70309 -2.3701 0
M  V30 1427 C 136.692 -4.135 -1.94594 0
M  V30 1428 C 137.689 -4.98949 -1.46101 0
M  V30 1429 C 135.374 -4.5949 -2.02915 0
M  V30 1430 C 137.368 -6.28442 -1.06489 0
M  V30 1431 C 135.055 -5.88984 -1.62914 0
M  V30 1432 C 136.053 -6.73286 -1.1478 0
M  V30 1433 O 135.741 -8.00362 -0.75339 0
M  V30 1434 H 135.473 -0.56064 -0.377702 0
M  V30 1435 H 138.027 -1.97857 -0.551537 0
M  V30 1436 H 136.257 -2.337 -3.08093 0
M  V30 1437 H 137.946 -2.74574 -2.98938 0
M  V30 1438 H 138.712 -4.6463 -1.39084 0
M  V30 1439 H 134.591 -3.94009 -2.39328 0
M  V30 1440 H 138.135 -6.94194 -0.688488 0
M  V30 1441 H 134.032 -6.22822 -1.69595 0
M  V30 1442 H 134.8 -8.13744 -0.88108 0
M  V30 1443 N 137.463 0.71206 -1.40597 0
M  V30 1444 C 138.395 1.83704 -1.37061 0
M  V30 1445 C 139.408 1.60453 -0.275426 0
M  V30 1446 O 140.597 1.70262 -0.53602 0
M  V30 1447 C 137.697 3.20172 -1.11099 0
M  V30 1448 C 136.87 3.7059 -2.3234 0
M  V30 1449 C 135.929 4.85681 -2.02485 0
M  V30 1450 O 134.955 4.9815 -2.75382 0
M  V30 1451 N 136.157 5.71735 -1.00497 0
M  V30 1452 H 138.922 1.87235 -2.34016 0
M  V30 1453 H 136.483 0.893739 -1.34996 0
M  V30 1454 H 138.475 3.94768 -0.891064 0
M  V30 1455 H 137.045 3.11767 -0.227989 0
M  V30 1456 H 136.265 2.87085 -2.7014 0
M  V30 1457 H 137.553 4.01011 -3.13157 0
M  V30 1458 H 136.951 5.64275 -0.401298 0
M  V30 1459 H 135.508 6.463 -0.844942 0
M  V30 1460 N 138.941 1.26152 0.944643 0
M  V30 1461 C 140.166 1.14363 1.7302 0
M  V30 1462 C 140.591 -0.29772 1.85729 0
M  V30 1463 O 139.949 -1.2157 1.34501 0
M  V30 1464 C 139.997 1.81378 3.11664 0
M  V30 1465 O 139.101 1.10022 3.97453 0
M  V30 1466 H 138.442 0.398694 0.53098 0
M  V30 1467 H 140.972 1.66906 1.18337 0
M  V30 1468 H 140.982 1.88064 3.62072 0
M  V30 1469 H 139.657 2.86237 3.0173 0
M  V30 1470 H 138.234 1.11287 3.55907 0
M  V30 1471 N 140.419 -1.14872 1.07899 0
M  V30 1472 C 141.83 -1.67367 0.827363 0
M  V30 1473 C 142.181 -1.85236 -0.646693 0
M  V30 1474 O 141.306 -1.55974 -1.50004 0
M  V30 1475 C 141.901 -3.04016 1.49532 0
M  V30 1476 C 140.46 -3.53566 1.29106 0
M  V30 1477 C 139.607 -2.29161 1.56143 0
M  V30 1478 H 142.558 -0.990083 1.24028 0
M  V30 1479 H 142.579 -3.69219 0.919643 0
M  V30 1480 H 142.091 -2.90978 2.56814 0
M  V30 1481 H 140.192 -3.71835 0.238713 0
M  V30 1482 H 140.305 -4.34661 2.01511 0
M  V30 1483 H 138.669 -2.34978 0.982717 0
M  V30 1484 H 139.452 -2.18705 2.64619 0
M  V30 1485 N 141.898 -0.863906 -1.31812 0
M  V30 1486 C 142.828 -0.330843 -2.31144 0
M  V30 1487 C 143.809 0.575005 -1.60087 0
M  V30 1488 O 144.994 0.493304 -1.8783 0
M  V30 1489 C 142.124 0.47374 -3.44054 0
M  V30 1490 C 141.078 -0.338481 -4.26659 0
M  V30 1491 C 140.404 0.591412 -5.31419 0
M  V30 1492 C 141.704 -1.56926 -4.98168 0
M  V30 1493 H 143.398 -1.16086 -2.75979 0
M  V30 1494 H 140.944 -0.559657 -1.32679 0
M  V30 1495 H 142.897 0.857143 -4.12591 0
M  V30 1496 H 141.621 1.33721 -2.9797 0
M  V30 1497 H 140.28 -0.703754 -3.59782 0
M  V30 1498 H 139.928 1.45199 -4.81587 0
M  V30 1499 H 139.628 0.0519022 -5.87577 0
M  V30 1500 H 141.152 0.97179 -6.02817 0
M  V30 1501 H 142.566 -1.25764 -5.59336 0
M  V30 1502 H 140.963 -2.04739 -5.64094 0
M  V30 1503 H 142.033 -2.32544 -4.25501 0
M  V30 1504 N 143.376 1.44774 -0.622745 0
M  V30 1505 C 144.787 1.85546 -0.207226 0
M  V30 1506 C 145.138 1.52093 1.23944 0
M  V30 1507 O 144.263 0.95492 1.94191 0
M  V30 1508 C 144.858 3.36781 -0.369313 0
M  V30 1509 C 143.417 3.76399 -0.00836847 0
M  V30 1510 C 142.564 2.68664 -0.686651 0
M  V30 1511 H 145.515 1.3536 -0.828454 0
M  V30 1512 H 145.536 3.78453 0.394162 0
M  V30 1513 H 145.048 3.61098 -1.42231 0
M  V30 1514 H 143.149 3.57698 1.04322 0
M  V30 1515 H 143.262 4.7732 -0.412584 0
M  V30 1516 H 141.626 2.54404 -0.122777 0
M  V30 1517 H 142.409 2.95815 -1.74208 0
M  V30 1518 N 144.854 0.36279 1.53368 0
M  V30 1519 C 145.784 -0.476976 2.28576 0
M  V30 1520 C 146.765 -1.08631 1.30894 0
M  V30 1521 O 147.95 -1.10409 1.59761 0
M  V30 1522 C 145.08 -1.61828 3.07293 0
M  V30 1523 C 144.034 -1.13633 4.1264 0
M  V30 1524 C 143.36 -2.36766 4.79423 0
M  V30 1525 C 144.66 -0.223061 5.21823 0
M  V30 1526 H 146.354 0.150474 2.99022 0
M  V30 1527 H 143.9 0.0738103 1.43811 0
M  V30 1528 H 145.853 -2.21237 3.58653 0
M  V30 1529 H 144.577 -2.27292 2.34533 0
M  V30 1530 H 143.236 -0.564945 3.62221 0
M  V30 1531 H 142.884 -3.0068 4.03238 0
M  V30 1532 H 142.584 -2.05192 5.50609 0
M  V30 1533 H 144.108 -2.96865 5.33576 0
M  V30 1534 H 145.522 -0.724545 5.68703 0
M  V30 1535 H 143.919 0.001678 6.001 0
M  V30 1536 H 144.989 0.735553 4.79289 0
M  V30 1537 N 146.332 -1.57332 0.0918853 0
M  V30 1538 C 147.557 -1.98995 -0.584442 0
M  V30 1539 C 147.982 -0.970528 -1.61128 0
M  V30 1540 O 147.34 0.0613904 -1.81196 0
M  V30 1541 C 147.388 -3.39636 -1.21161 0
M  V30 1542 O 146.492 -3.40447 -2.32744 0
M  V30 1543 H 145.833 -0.647165 -0.148572 0
M  V30 1544 H 148.363 -2.03873 0.172347 0
M  V30 1545 H 148.373 -3.7726 -1.55367 0
M  V30 1546 H 147.048 -4.13356 -0.459313 0
M  V30 1547 H 145.625 -3.14614 -2.0018 0
M  V30 1548 N 147.81 0.181792 -1.56548 0
M  V30 1549 C 149.226 0.53316 -1.50431 0
M  V30 1550 C 149.426 1.85184 -0.794297 0
M  V30 1551 O 148.482 2.50058 -0.350318 0
M  V30 1552 C 149.795 0.575597 -2.9514 0
M  V30 1553 C 151.343 0.663519 -3.05886 0
M  V30 1554 C 151.818 0.736946 -4.52032 0
M  V30 1555 N 153.309 0.800118 -4.56237 0
M  V30 1556 C 154.044 0.877327 -5.66649 0
M  V30 1557 N 153.54 0.916016 -6.86718 0
M  V30 1558 N 155.333 0.915542 -5.54594 0
M  V30 1559 H 147.484 -0.683025 -2.01118 0
M  V30 1560 H 149.747 -0.244988 -0.915797 0
M  V30 1561 H 149.453 -0.324482 -3.502 0
M  V30 1562 H 149.327 1.42572 -3.49218 0
M  V30 1563 H 151.714 1.55403 -2.50867 0
M  V30 1564 H 151.795 -0.21307 -2.54911 0
M  V30 1565 H 151.439 -0.149262 -5.07681 0
M  V30 1566 H 151.369 1.62953 -5.00753 0
M  V30 1567 H 153.86 0.778926 -3.69785 0
M  V30 1568 H 154.173 0.975813 -7.66614 0
M  V30 1569 H 152.518 0.884469 -6.89349 0
M  V30 1570 H 155.709 0.882245 -4.59711 0
M  V30 1571 H 155.882 0.972253 -6.40665 0
M  V30 1572 N 149.288 1.51039 0.449983 0
M  V30 1573 C 150.536 1.62759 1.19808 0
M  V30 1574 C 150.857 0.339981 1.92013 0
M  V30 1575 O 150.127 -0.643606 1.85026 0
M  V30 1576 H 148.707 0.599811 0.445237 0
M  V30 1577 H 151.369 1.87914 0.517138 0
M  V30 1578 H 150.465 2.44911 1.93455 0
M  V30 1579 N 150.766 -0.704594 1.40972 0
M  V30 1580 C 151.991 -1.49858 1.43378 0
M  V30 1581 C 152.416 -1.88061 0.038184 0
M  V30 1582 O 151.774 -1.5402 -0.956425 0
M  V30 1583 C 151.822 -2.74333 2.34038 0
M  V30 1584 O 150.926 -3.7147 1.7912 0
M  V30 1585 H 150.267 -0.45139 0.486974 0
M  V30 1586 H 152.797 -0.866832 1.8533 0
M  V30 1587 H 152.807 -3.22741 2.49604 0
M  V30 1588 H 151.482 -2.45863 3.35446 0
M  V30 1589 H 150.059 -3.30363 1.72958 0
M  V30 1590 N 152.244 -1.26651 -0.937939 0
M  V30 1591 C 153.174 -1.10993 -2.05433 0
M  V30 1592 C 154.155 -0.0142161 -1.70094 0
M  V30 1593 O 155.34 -0.186837 -1.93299 0
M  V30 1594 C 152.47 -0.745561 -3.39203 0
M  V30 1595 C 151.424 -1.79337 -3.88616 0
M  V30 1596 C 150.75 -1.28324 -5.19073 0
M  V30 1597 C 152.05 -3.19553 -4.13138 0
M  V30 1598 H 153.744 -2.0438 -2.1879 0
M  V30 1599 H 151.29 -0.984041 -1.05131 0
M  V30 1600 H 153.243 -0.622888 -4.16771 0
M  V30 1601 H 151.967 0.22401 -3.25831 0
M  V30 1602 H 150.626 -1.90477 -3.13231 0
M  V30 1603 H 150.274 -0.303414 -5.02084 0
M  V30 1604 H 149.974 -1.98369 -5.53103 0
M  V30 1605 H 151.498 -1.1733 -5.99221 0
M  V30 1606 H 152.912 -3.11471 -4.81309 0
M  V30 1607 H 151.309 -3.87218 -4.58457 0
M  V30 1608 H 152.379 -3.65368 -3.18801 0
M  V30 1609 N 153.722 1.14298 -1.08507 0
M  V30 1610 C 154.685 2.17607 -0.719711 0
M  V30 1611 C 155.685 1.58907 0.245997 0
M  V30 1612 O 156.875 1.74181 0.0254081 0
M  V30 1613 C 154.007 3.40842 -0.0627695 0
M  V30 1614 H 155.2 2.51443 -1.63452 0
M  V30 1615 H 152.753 1.28963 -0.88307 0
M  V30 1616 H 153.488 3.12587 0.863716 0
M  V30 1617 H 153.273 3.84713 -0.757504 0
M  V30 1618 H 154.763 4.17221 0.177786 0
M  V30 1619 N 155.201 0.870884 1.31352 0
M  V30 1620 C 156.164 0.332243 2.26779 0
M  V30 1621 C 157.164 -0.517302 1.52252 0
M  V30 1622 O 158.354 -0.326477 1.71113 0
M  V30 1623 C 155.486 -0.528066 3.36785 0
M  V30 1624 H 156.679 1.17469 2.75937 0
M  V30 1625 H 154.232 0.64655 1.423 0
M  V30 1626 H 154.967 -1.39167 2.92922 0
M  V30 1627 H 154.752 0.0802582 3.92018 0
M  V30 1628 H 156.242 -0.897179 4.07849 0
M  V30 1629 N 156.679 -1.44442 0.630414 0
M  V30 1630 C 157.925 -2.02351 0.134816 0
M  V30 1631 C 158.258 -1.4947 -1.23986 0
M  V30 1632 O 157.533 -0.678475 -1.82283 0
M  V30 1633 C 157.816 -3.59898 0.120707 0
M  V30 1634 C 157.669 -4.23063 1.52767 0
M  V30 1635 C 158.988 -4.36585 -0.555127 0
M  V30 1636 H 156.107 -0.73527 0.0504646 0
M  V30 1637 H 158.749 -1.72022 0.806751 0
M  V30 1638 H 156.899 -3.85868 -0.451477 0
M  V30 1639 H 158.571 -4.08202 2.14869 0
M  V30 1640 H 156.814 -3.80586 2.08175 0
M  V30 1641 H 157.485 -5.32071 1.46984 0
M  V30 1642 H 159.961 -4.16044 -0.0685429 0
M  V30 1643 H 158.837 -5.46294 -0.534185 0
M  V30 1644 H 159.098 -4.11138 -1.62535 0
M  V30 1645 N 158.157 -0.370918 -1.53173 0
M  V30 1646 C 159.12 0.460778 -2.24521 0
M  V30 1647 C 160.12 1.00536 -1.25496 0
M  V30 1648 O 161.31 0.890266 -1.49733 0
M  V30 1649 C 158.442 1.64457 -2.98608 0
M  V30 1650 H 159.635 -0.163613 -2.99453 0
M  V30 1651 H 157.188 -0.122699 -1.55818 0
M  V30 1652 H 157.923 2.30691 -2.2793 0
M  V30 1653 H 157.708 1.26099 -3.7127 0
M  V30 1654 H 159.198 2.23384 -3.5283 0
M  V30 1655 N 159.635 1.57281 -0.100228 0
M  V30 1656 C 160.585 2.10848 0.86759 0
M  V30 1657 C 161.569 1.02473 1.24049 0
M  V30 1658 O 162.761 1.28739 1.21471 0
M  V30 1659 C 159.89 2.69648 2.12474 0
M  V30 1660 C 158.976 3.85074 1.77704 0
M  V30 1661 N 159.367 4.92897 1.13518 0
M  V30 1662 C 157.665 3.94905 2.07282 0
M  V30 1663 C 158.366 5.73475 0.974735 0
M  V30 1664 N 157.342 5.22675 1.4937 0
M  V30 1665 H 161.144 2.91594 0.367471 0
M  V30 1666 H 158.658 1.62074 0.102829 0
M  V30 1667 H 160.655 3.06356 2.82757 0
M  V30 1668 H 159.315 1.90359 2.63047 0
M  V30 1669 H 160.326 5.11662 0.801381 0
M  V30 1670 H 157.003 3.26633 2.60033 0
M  V30 1671 H 158.393 6.70238 0.472364 0
M  V30 1672 N 161.113 -0.173488 1.56642 0
M  V30 1673 C 162.076 -1.19859 1.95362 0
M  V30 1674 C 163.076 -1.37296 0.83704 0
M  V30 1675 O 164.266 -1.34739 1.10413 0
M  V30 1676 C 161.398 -2.56405 2.24654 0
M  V30 1677 H 162.591 -0.867062 2.87092 0
M  V30 1678 H 160.144 -0.415853 1.50666 0
M  V30 1679 H 160.879 -2.94576 1.35631 0
M  V30 1680 H 160.664 -2.45115 3.06041 0
M  V30 1681 H 162.154 -3.30287 2.5554 0
M  V30 1682 N 162.591 -1.51276 -0.441967 0
M  V30 1683 C 163.523 -1.68444 -1.55433 0
M  V30 1684 C 164.536 -0.565187 -1.52674 0
M  V30 1685 O 165.725 -0.839356 -1.57534 0
M  V30 1686 C 162.825 -1.67966 -2.94348 0
M  V30 1687 C 161.998 -2.964 -3.21661 0
M  V30 1688 C 161.057 -2.88171 -4.40277 0
M  V30 1689 O 160.083 -3.62119 -4.39157 0
M  V30 1690 N 161.285 -2.03706 -5.43584 0
M  V30 1691 H 164.05 -2.644 -1.41112 0
M  V30 1692 H 161.611 -1.49104 -0.630838 0
M  V30 1693 H 163.603 -1.60035 -3.71713 0
M  V30 1694 H 162.173 -0.796225 -3.0229 0
M  V30 1695 H 161.393 -3.18234 -2.32638 0
M  V30 1696 H 162.681 -3.81427 -3.36736 0
M  V30 1697 H 162.079 -1.42995 -5.47329 0
M  V30 1698 H 160.636 -2.01658 -6.1982 0
M  V30 1699 N 164.069 0.697108 -1.41344 0
M  V30 1700 C 165.294 1.49096 -1.44171 0
M  V30 1701 C 165.719 1.88038 -0.0481568 0
M  V30 1702 O 165.077 1.54525 0.948243 0
M  V30 1703 C 165.125 2.73088 -2.3549 0
M  V30 1704 O 164.229 3.70514 -1.81088 0
M  V30 1705 H 163.57 0.448801 -0.489361 0
M  V30 1706 H 166.1 0.856992 -1.85787 0
M  V30 1707 H 166.11 3.21413 -2.51312 0
M  V30 1708 H 164.785 2.44081 -3.36745 0
M  V30 1709 H 163.362 3.29441 -1.74708 0
M  V30 1710 N 165.547 1.27147 0.931209 0
M  V30 1711 C 166.477 1.12081 2.04842 0
M  V30 1712 C 167.458 0.0232364 1.70084 0
M  V30 1713 O 168.643 0.197085 1.93197 0
M  V30 1714 C 165.773 0.76354 3.38803 0
M  V30 1715 C 164.727 1.81396 3.87659 0
M  V30 1716 C 164.053 1.31075 5.18385 0
M  V30 1717 C 165.353 3.21739 4.11438 0
M  V30 1718 H 167.047 2.05537 2.17703 0
M  V30 1719 H 164.593 0.989603 1.04608 0
M  V30 1720 H 166.546 0.644982 4.16435 0
M  V30 1721 H 165.27 -0.206727 3.25945 0
M  V30 1722 H 163.929 1.92136 3.12217 0
M  V30 1723 H 163.577 0.330037 5.01916 0
M  V30 1724 H 163.277 2.013 5.52044 0
M  V30 1725 H 164.801 1.20506 5.98591 0
M  V30 1726 H 166.215 3.14019 4.79651 0
M  V30 1727 H 164.612 3.89644 4.56397 0
M  V30 1728 H 165.682 3.67054 3.16859 0
M  V30 1729 N 167.025 -1.13721 1.09112 0
M  V30 1730 C 168.271 -1.85198 0.826414 0
M  V30 1731 C 168.604 -1.83129 -0.646319 0
M  V30 1732 O 167.879 -1.2671 -1.47563 0
M  V30 1733 C 168.162 -3.33507 1.35812 0
M  V30 1734 C 168.015 -3.44108 2.89672 0
M  V30 1735 C 169.334 -4.28838 0.989256 0
M  V30 1736 H 166.453 -0.67243 0.301675 0
M  V30 1737 H 169.095 -1.33499 1.35197 0
M  V30 1738 H 167.245 -3.77666 0.911082 0
M  V30 1739 H 168.917 -3.08684 3.428 0
M  V30 1740 H 167.16 -2.85087 3.26967 0
M  V30 1741 H 167.831 -4.48388 3.21951 0
M  V30 1742 H 170.307 -3.92734 1.37475 0
M  V30 1743 H 169.183 -5.31051 1.38838 0
M  V30 1744 H 169.444 -4.4198 -0.102924 0
M  V30 1745 N 168.503 -0.877838 -1.30888 0
M  V30 1746 C 169.413 -0.343096 -2.32078 0
M  V30 1747 C 170.429 0.551022 -1.65045 0
M  V30 1748 O 171.605 0.445854 -1.96403 0
M  V30 1749 C 168.67 0.439905 -3.43898 0
M  V30 1750 C 167.731 -0.483111 -4.26573 0
M  V30 1751 C 166.964 0.262616 -5.33053 0
M  V30 1752 O 167.187 1.48967 -5.50604 0
M  V30 1753 O 166.121 -0.383593 -6.00676 0
M  V30 1754 H 169.947 -1.18203 -2.79753 0
M  V30 1755 H 167.532 -0.64145 -1.34929 0
M  V30 1756 H 169.414 0.883504 -4.12034 0
M  V30 1757 H 168.089 1.25526 -2.98371 0
M  V30 1758 H 166.996 -0.975374 -3.61161 0
M  V30 1759 H 168.329 -1.26427 -4.75686 0
M  V30 1760 N 169.982 1.44106 -0.638065 0
M  V30 1761 C 170.945 2.29138 0.0531013 0
M  V30 1762 C 171.945 1.41409 0.765506 0
M  V30 1763 O 173.135 1.63206 0.609046 0
M  V30 1764 C 170.267 3.23144 1.08584 0
M  V30 1765 H 171.46 2.91739 -0.694883 0
M  V30 1766 H 169.013 1.51134 -0.398538 0
M  V30 1767 H 169.748 2.65408 1.86357 0
M  V30 1768 H 169.533 3.87804 0.578852 0
M  V30 1769 H 171.023 3.87004 1.56899 0
M  V30 1770 N 171.46 0.379036 1.52974 0
M  V30 1771 C 172.392 -0.495963 2.2377 0
M  V30 1772 C 173.405 -1.03517 1.25651 0
M  V30 1773 O 174.594 -0.939249 1.51791 0
M  V30 1774 C 171.694 -1.69894 2.93239 0
M  V30 1775 C 170.867 -1.2889 4.17979 0
M  V30 1776 C 169.926 -2.35543 4.70538 0
M  V30 1777 O 168.952 -1.97375 5.33883 0
M  V30 1778 N 170.154 -3.67318 4.49508 0
M  V30 1779 H 172.919 0.110523 2.99496 0
M  V30 1780 H 170.48 0.204878 1.60598 0
M  V30 1781 H 172.472 -2.40747 3.25304 0
M  V30 1782 H 171.042 -2.212 2.20883 0
M  V30 1783 H 170.262 -0.409676 3.92065 0
M  V30 1784 H 171.55 -0.991443 4.99047 0
M  V30 1785 H 170.948 -4.01095 3.98923 0
M  V30 1786 H 169.505 -4.34235 4.8609 0
M  V30 1787 N 172.938 -1.57226 0.108567 0
M  V30 1788 C 174.349 -1.8195 -0.418464 0
M  V30 1789 C 174.7 -1.02508 -1.67292 0
M  V30 1790 O 173.825 -0.258496 -2.14851 0
M  V30 1791 C 174.42 -3.30028 -0.765979 0
M  V30 1792 C 172.979 -3.55469 -1.23769 0
M  V30 1793 C 172.126 -2.7625 -0.241106 0
M  V30 1794 H 175.077 -1.55149 0.33384 0
M  V30 1795 H 175.098 -3.44086 -1.62434 0
M  V30 1796 H 174.61 -3.87821 0.147219 0
M  V30 1797 H 172.711 -3.03022 -2.16814 0
M  V30 1798 H 172.824 -4.6408 -1.19022 0
M  V30 1799 H 171.188 -2.44133 -0.72602 0
M  V30 1800 H 171.971 -3.36797 0.665007 0
M  V30 1801 N 174.416 0.165178 -1.56732 0
M  V30 1802 C 175.364 1.22369 -1.97809 0
M  V30 1803 C 176.358 1.45488 -0.867741 0
M  V30 1804 O 177.564 1.45995 -1.05288 0
M  V30 1805 H 173.939 0.411486 -0.629431 0
M  V30 1806 H 175.91 0.850425 -2.86025 0
M  V30 1807 C 174.659 2.55403 -2.35934 0
M  V30 1808 H 173.982 2.38438 -3.20916 0
M  V30 1809 H 175.422 3.2814 -2.68514 0
M  V30 1810 C 173.881 3.14611 -1.20506 0
M  V30 1811 O 174.411 3.98626 -0.496016 0
M  V30 1812 N 172.617 2.7379 -0.97403 0
M  V30 1813 H 172.164 2.0557 -1.55238 0
M  V30 1814 H 172.122 3.1374 -0.203573 0
M  V30 1815 N 175.894 1.51508 0.433938 0
M  V30 1816 C 177.14 1.64588 1.18484 0
M  V30 1817 C 177.473 0.362666 1.90784 0
M  V30 1818 O 176.748 -0.637892 1.83742 0
M  V30 1819 C 177.031 2.85149 2.19913 0
M  V30 1820 C 176.884 4.23456 1.51674 0
M  V30 1821 C 178.203 3.01227 3.20858 0
M  V30 1822 H 175.322 0.598994 0.429389 0
M  V30 1823 H 177.964 1.84002 0.473647 0
M  V30 1824 H 176.114 2.68729 2.80566 0
M  V30 1825 H 177.786 4.51552 0.943322 0
M  V30 1826 H 176.029 4.25998 0.819035 0
M  V30 1827 H 176.7 5.03812 2.2556 0
M  V30 1828 H 179.176 3.16382 2.70263 0
M  V30 1829 H 178.052 3.87141 3.89118 0
M  V30 1830 H 178.313 2.13447 3.8716 0
M  V30 1831 N 177.372 -0.689602 1.41712 0
M  V30 1832 C 178.649 -1.44457 1.31877 0
M  V30 1833 C 179.029 -2.11039 -0.0508537 0
M  V30 1834 O 178.377 -2.02138 -1.06547 0
M  V30 1835 C 178.587 -2.45913 2.47645 0
M  V30 1836 C 179.935 -3.10991 2.89084 0
M  V30 1837 O 180.959 -2.56238 2.47428 0
M  V30 1838 O 179.818 -4.10174 3.61137 0
M  V30 1839 H 176.912 -0.64362 0.519309 0
M  V30 1840 H 179.458 -0.719576 1.53689 0
M  V30 1841 H 178.23 -1.95409 3.39015 0
M  V30 1842 H 177.853 -3.25913 2.27742 0
M  V30 1843 N 178.85 -1.27639 -0.924453 0
M  V30 1844 C 179.797 -1.10644 -2.0255 0
M  V30 1845 C 180.767 -0.00658438 -1.66099 0
M  V30 1846 O 181.952 -0.16952 -1.90045 0
M  V30 1847 C 179.092 -0.76309 -3.36557 0
M  V30 1848 C 178.205 -1.94091 -3.85944 0
M  V30 1849 C 177.34 -1.53914 -5.08413 0
M  V30 1850 C 176.379 -2.68425 -5.50104 0
M  V30 1851 N 175.516 -2.28815 -6.63768 0
M  V30 1852 H 180.356 -2.04858 -2.16419 0
M  V30 1853 H 177.893 -1.01974 -1.06017 0
M  V30 1854 H 179.851 -0.544822 -4.13627 0
M  V30 1855 H 178.481 0.142102 -3.22487 0
M  V30 1856 H 177.533 -2.27162 -3.05125 0
M  V30 1857 H 178.845 -2.7998 -4.12811 0
M  V30 1858 H 177.999 -1.28231 -5.92994 0
M  V30 1859 H 176.738 -0.651391 -4.8333 0
M  V30 1860 H 175.743 -2.94819 -4.64071 0
M  V30 1861 H 176.968 -3.57826 -5.7718 0
M  V30 1862 H 174.914 -1.42495 -6.40337 0
M  V30 1863 H 174.831 -3.08242 -6.90306 0
M  V30 1864 H 176.099 -2.06387 -7.51681 0
M  V30 1865 N 180.328 1.1314 -1.09713 0
M  V30 1866 C 181.258 2.20748 -0.761102 0
M  V30 1867 C 182.239 1.68061 0.262566 0
M  V30 1868 O 183.424 1.93765 0.129977 0
M  V30 1869 C 180.554 3.46812 -0.184054 0
M  V30 1870 C 179.508 4.12606 -1.13757 0
M  V30 1871 C 178.834 5.33031 -0.422083 0
M  V30 1872 C 180.134 4.59603 -2.48118 0
M  V30 1873 H 181.828 2.49113 -1.66082 0
M  V30 1874 H 179.374 1.19734 -0.799987 0
M  V30 1875 H 181.327 4.21353 0.0631215 0
M  V30 1876 H 180.051 3.17851 0.750868 0
M  V30 1877 H 178.71 3.40036 -1.37007 0
M  V30 1878 H 178.358 5.00335 0.517072 0
M  V30 1879 H 178.058 5.77999 -1.05788 0
M  V30 1880 H 179.582 6.10325 -0.183277 0
M  V30 1881 H 180.996 5.25552 -2.29059 0
M  V30 1882 H 179.393 5.15321 -3.07514 0
M  V30 1883 H 180.463 3.73971 -3.08665 0
M  V30 1884 N 181.806 0.884767 1.30421 0
M  V30 1885 C 183.052 0.503851 1.96441 0
M  V30 1886 C 183.385 -0.944518 1.69684 0
M  V30 1887 O 182.66 -1.66737 1.00145 0
M  V30 1888 C 182.943 0.779085 3.51571 0
M  V30 1889 C 182.796 2.27807 3.87846 0
M  V30 1890 C 184.115 0.255452 4.39358 0
M  V30 1891 H 181.234 0.184533 0.713524 0
M  V30 1892 H 183.876 1.10872 1.54297 0
M  V30 1893 H 182.026 0.264274 3.876 0
M  V30 1894 H 183.698 2.86127 3.61841 0
M  V30 1895 H 181.941 2.74479 3.35922 0
M  V30 1896 H 182.612 2.42125 4.96064 0
M  V30 1897 H 185.088 0.696079 4.10236 0
M  V30 1898 H 183.964 0.477361 5.4682 0
M  V30 1899 H 184.225 -0.843293 4.33983 0
M  V30 1900 N 183.284 -1.43765 0.645699 0
M  V30 1901 C 184.194 -2.34544 -0.0512957 0
M  V30 1902 C 185.21 -1.53455 -0.82022 0
M  V30 1903 O 186.386 -1.86133 -0.769176 0
M  V30 1904 C 183.451 -3.31636 -1.01087 0
M  V30 1905 C 182.512 -4.2863 -0.239712 0
M  V30 1906 C 181.745 -5.21084 -1.15358 0
M  V30 1907 O 181.968 -5.1779 -2.39269 0
M  V30 1908 O 180.902 -5.98593 -0.630038 0
M  V30 1909 H 184.728 -2.95624 0.695718 0
M  V30 1910 H 182.313 -1.43781 0.405882 0
M  V30 1911 H 184.195 -3.9136 -1.56254 0
M  V30 1912 H 182.87 -2.73069 -1.73824 0
M  V30 1913 H 181.777 -3.72408 0.355356 0
M  V30 1914 H 183.11 -4.90157 0.447936 0
M  V30 1915 N 184.763 -0.387143 -1.52771 0
M  V30 1916 C 186.04 0.253197 -1.93954 0
M  V30 1917 C 186.42 1.64545 -1.32243 0
M  V30 1918 O 185.768 2.23191 -0.489699 0
M  V30 1919 C 185.978 0.281722 -3.47861 0
M  V30 1920 C 187.326 0.511715 -4.21505 0
M  V30 1921 O 188.35 0.362023 -3.54356 0
M  V30 1922 O 187.209 0.804847 -5.40541 0
M  V30 1923 H 184.303 0.156845 -0.811991 0
M  V30 1924 H 186.849 -0.441494 -1.63856 0
M  V30 1925 H 185.621 -0.693571 -3.85104 0
M  V30 1926 H 185.244 1.02142 -3.84256 0
M  V30 1927 N 186.241 1.57166 -0.116904 0
M  V30 1928 C 187.191 2.11756 0.845178 0
M  V30 1929 C 188.175 1.03783 1.22955 0
M  V30 1930 O 189.367 1.3002 1.20099 0
M  V30 1931 C 186.496 2.71886 2.09602 0
M  V30 1932 C 185.582 3.86937 1.7361 0
M  V30 1933 N 185.973 4.94073 1.08284 0
M  V30 1934 C 184.271 3.97082 2.03082 0
M  V30 1935 C 184.972 5.74477 0.913855 0
M  V30 1936 N 183.948 5.2423 1.43818 0
M  V30 1937 H 187.75 2.91967 0.336523 0
M  V30 1938 H 185.264 1.62174 0.0856332 0
M  V30 1939 H 187.261 3.09338 2.79492 0
M  V30 1940 H 185.921 1.93138 2.61013 0
M  V30 1941 H 186.932 5.12483 0.747067 0
M  V30 1942 H 183.609 3.29372 2.56554 0
M  V30 1943 H 184.999 6.70701 0.40125 0
M  V30 1944 N 187.719 -0.156864 1.56817 0
M  V30 1945 C 188.649 -1.19589 2.00551 0
M  V30 1946 C 189.63 -1.4536 0.883426 0
M  V30 1947 O 190.815 -1.56449 1.15054 0
M  V30 1948 C 187.945 -2.53143 2.37773 0
M  V30 1949 C 186.899 -2.41913 3.53075 0
M  V30 1950 C 186.225 -3.80088 3.76081 0
M  V30 1951 C 187.525 -1.91157 4.86062 0
M  V30 1952 H 189.219 -0.832293 2.87599 0
M  V30 1953 H 186.765 -0.398918 1.38364 0
M  V30 1954 H 188.718 -3.26047 2.66967 0
M  V30 1955 H 187.442 -2.91319 1.4765 0
M  V30 1956 H 186.101 -1.71462 3.24031 0
M  V30 1957 H 185.749 -4.15683 2.83225 0
M  V30 1958 H 185.449 -3.73439 4.53671 0
M  V30 1959 H 186.973 -4.54556 4.0769 0
M  V30 1960 H 188.387 -2.53846 5.14038 0
M  V30 1961 H 186.784 -1.95422 5.67389 0
M  V30 1962 H 187.854 -0.866673 4.77092 0
M  V30 1963 N 189.197 -1.51736 -0.425897 0
M  V30 1964 C 190.16 -1.73271 -1.50032 0
M  V30 1965 C 191.16 -0.602639 -1.4908 0
M  V30 1966 O 192.35 -0.87033 -1.509 0
M  V30 1967 C 189.482 -1.79969 -2.89523 0
M  V30 1968 H 190.675 -2.69172 -1.32237 0
M  V30 1969 H 188.228 -1.41899 -0.65532 0
M  V30 1970 H 188.963 -0.859241 -3.1271 0
M  V30 1971 H 188.748 -2.62109 -2.91619 0
M  V30 1972 H 190.238 -1.9843 -3.67444 0
M  V30 1973 N 190.675 0.682077 -1.42076 0
M  V30 1974 C 191.921 1.44428 -1.42367 0
M  V30 1975 C 192.254 1.94164 -0.0373056 0
M  V30 1976 O 191.529 1.70429 0.937239 0
M  V30 1977 C 191.812 2.64654 -2.44194 0
M  V30 1978 C 191.665 2.20596 -3.91991 0
M  V30 1979 C 192.984 3.66865 -2.431 0
M  V30 1980 H 190.103 0.523834 -0.518428 0
M  V30 1981 H 192.745 0.77576 -1.73442 0
M  V30 1982 H 190.895 3.2169 -2.17826 0
M  V30 1983 H 192.567 1.68783 -4.29313 0
M  V30 1984 H 190.81 1.52242 -4.06208 0
M  V30 1985 H 191.481 3.06921 -4.58807 0
M  V30 1986 H 193.957 3.19531 -2.66532 0
M  V30 1987 H 192.833 4.48577 -3.16339 0
M  V30 1988 H 193.094 4.17493 -1.45437 0
M  V30 1989 N 192.153 1.28127 0.917671 0
M  V30 1990 C 193.085 1.07517 2.02417 0
M  V30 1991 C 194.098 0.0281099 1.62776 0
M  V30 1992 O 195.287 0.270748 1.76435 0
M  V30 1993 C 192.387 0.610957 3.33347 0
M  V30 1994 C 191.56 1.73255 4.01624 0
M  V30 1995 C 190.619 1.26238 5.10833 0
M  V30 1996 O 189.645 1.96389 5.34247 0
M  V30 1997 N 190.847 0.123448 5.80369 0
M  V30 1998 H 193.612 2.02806 2.20658 0
M  V30 1999 H 191.173 1.19827 1.08871 0
M  V30 2000 H 193.165 0.280101 4.0373 0
M  V30 2001 H 191.735 -0.24898 3.11607 0
M  V30 2002 H 190.955 2.23319 3.24842 0
M  V30 2003 H 192.243 2.48503 4.43986 0
M  V30 2004 H 191.641 -0.461847 5.63812 0
M  V30 2005 H 190.198 -0.148158 6.51632 0
M  V30 2006 N 193.631 -1.12557 1.10312 0
M  V30 2007 C 194.856 -1.88405 0.867085 0
M  V30 2008 C 195.281 -1.79038 -0.576817 0
M  V30 2009 O 194.639 -1.14439 -1.40618 0
M  V30 2010 C 194.687 -3.3563 1.31851 0
M  V30 2011 O 193.791 -4.09565 0.482734 0
M  V30 2012 H 193.132 -0.585455 0.313271 0
M  V30 2013 H 195.662 -1.42352 1.4696 0
M  V30 2014 H 195.672 -3.86469 1.3079 0
M  V30 2015 H 194.347 -3.41765 2.37001 0
M  V30 2016 H 192.924 -3.68695 0.558448 0
M  V30 2017 N 195.109 -0.891671 -1.2995 0
M  V30 2018 C 196.039 -0.379797 -2.30391 0
M  V30 2019 C 197.02 0.540919 -1.6127 0
M  V30 2020 O 198.205 0.453352 -1.88834 0
M  V30 2021 C 195.335 0.400654 -3.44981 0
M  V30 2022 C 194.289 -0.428905 -4.25846 0
M  V30 2023 C 193.615 0.478557 -5.32554 0
M  V30 2024 C 194.915 -1.67458 -4.94727 0
M  V30 2025 H 196.609 -1.21914 -2.73454 0
M  V30 2026 H 194.155 -0.587675 -1.31462 0
M  V30 2027 H 196.108 0.769434 -4.14316 0
M  V30 2028 H 194.832 1.27371 -3.0074 0
M  V30 2029 H 193.491 -0.779911 -3.58208 0
M  V30 2030 H 193.139 1.34951 -4.84559 0
M  V30 2031 H 192.839 -0.0727433 -5.87555 0
M  V30 2032 H 194.363 0.843705 -6.04743 0
M  V30 2033 H 195.777 -1.376 -5.56542 0
M  V30 2034 H 194.174 -2.16659 -5.59624 0
M  V30 2035 H 195.244 -2.41518 -4.20473 0
M  V30 2036 N 196.587 1.43421 -0.653314 0
M  V30 2037 C 197.836 2.01032 -0.164076 0
M  V30 2038 C 198.149 1.52147 1.22926 0
M  V30 2039 O 199.355 2.02031 1.81371 0
M  V30 2040 C 197.811 3.59082 -0.24252 0
M  V30 2041 C 197.419 4.1696 -1.63855 0
M  V30 2042 C 199.163 4.24079 0.18911 0
M  V30 2043 C 197.07 5.67304 -1.67092 0
M  V30 2044 H 196 0.751798 -0.0575769 0
M  V30 2045 H 198.651 1.6439 -0.815362 0
M  V30 2046 H 197.033 3.93125 0.476276 0
M  V30 2047 H 198.207 3.94416 -2.38271 0
M  V30 2048 H 196.522 3.64335 -2.01616 0
M  V30 2049 H 199.119 5.34381 0.184775 0
M  V30 2050 H 199.462 3.98005 1.22056 0
M  V30 2051 H 199.995 3.94918 -0.477938 0
M  V30 2052 H 196.734 5.98145 -2.68146 0
M  V30 2053 H 196.254 5.91904 -0.970014 0
M  V30 2054 H 197.933 6.31344 -1.4147 0
M  V30 2055 N 198.065 0.39524 1.52563 0
M  V30 2056 C 199.481 0.0454682 1.59535 0
M  V30 2057 C 199.681 -1.44056 1.4089 0
M  V30 2058 O 198.737 -2.20579 1.22888 0
M  V30 2059 C 200.05 0.527963 2.96029 0
M  V30 2060 C 201.598 0.484733 3.09224 0
M  V30 2061 C 202.073 0.943512 4.48176 0
M  V30 2062 N 203.564 0.899765 4.54377 0
M  V30 2063 C 204.299 1.22609 5.60138 0
M  V30 2064 N 203.795 1.62319 6.73516 0
M  V30 2065 N 205.588 1.14696 5.50274 0
M  V30 2066 H 197.739 1.36261 1.62931 0
M  V30 2067 H 200.002 0.558887 0.765735 0
M  V30 2068 H 199.708 1.56607 3.14908 0
M  V30 2069 H 199.582 -0.0698056 3.77135 0
M  V30 2070 H 201.969 -0.544298 2.90037 0
M  V30 2071 H 202.05 1.11838 2.30056 0
M  V30 2072 H 201.694 1.9708 4.68104 0
M  V30 2073 H 201.624 0.286817 5.25818 0
M  V30 2074 H 204.115 0.607632 3.72983 0
M  V30 2075 H 204.428 1.85567 7.5019 0
M  V30 2076 H 202.773 1.66211 6.74833 0
M  V30 2077 H 205.964 0.835701 4.6058 0
M  V30 2078 H 206.137 1.40459 6.32594 0
M  V30 2079 N 199.544 -1.57102 0.125237 0
M  V30 2080 C 200.507 -2.14471 -0.80838 0
M  V30 2081 C 201.507 -1.0811 -1.19033 0
M  V30 2082 O 202.697 -1.33856 -1.11482 0
M  V30 2083 C 199.829 -2.69005 -2.09402 0
M  V30 2084 H 201.022 -2.98297 -0.309696 0
M  V30 2085 H 198.575 -1.55807 -0.124051 0
M  V30 2086 H 199.31 -1.88785 -2.63687 0
M  V30 2087 H 199.095 -3.46799 -1.82957 0
M  V30 2088 H 200.585 -3.13278 -2.76128 0
M  V30 2089 N 201.022 0.148545 -1.56898 0
M  V30 2090 C 202.252 0.875118 -1.8715 0
M  V30 2091 C 202.66 1.75322 -0.711262 0
M  V30 2092 O 202.003 1.80745 0.328151 0
M  V30 2093 C 202.065 1.7844 -3.12089 0
M  V30 2094 C 201.729 1.08361 -4.43967 0
M  V30 2095 C 202.726 0.438247 -5.1805 0
M  V30 2096 C 200.411 1.07358 -4.90693 0
M  V30 2097 C 202.405 -0.20779 -6.37061 0
M  V30 2098 C 200.092 0.42373 -6.09629 0
M  V30 2099 C 201.09 -0.215829 -6.82659 0
M  V30 2100 O 200.778 -0.855378 -7.99336 0
M  V30 2101 H 200.51 0.258504 -0.624621 0
M  V30 2102 H 203.064 0.14652 -2.04877 0
M  V30 2103 H 201.294 2.55389 -2.90367 0
M  V30 2104 H 202.983 2.38279 -3.286 0
M  V30 2105 H 203.749 0.437817 -4.8302 0
M  V30 2106 H 199.628 1.5608 -4.33774 0
M  V30 2107 H 203.172 -0.70758 -6.94002 0
M  V30 2108 H 199.069 0.421822 -6.4412 0
M  V30 2109 H 199.837 -0.756892 -8.14993 0
M  V30 2110 N 202.5 1.5196 0.417844 0
M  V30 2111 C 203.432 1.70895 1.52733 0
M  V30 2112 C 204.445 0.589405 1.51756 0
M  V30 2113 O 205.634 0.864312 1.56179 0
M  V30 2114 C 202.734 1.72627 2.91639 0
M  V30 2115 C 201.907 3.01479 3.16905 0
M  V30 2116 C 200.966 2.95139 4.35637 0
M  V30 2117 O 199.992 3.69059 4.3334 0
M  V30 2118 N 201.194 2.12328 5.40275 0
M  V30 2119 H 203.959 2.66612 1.36888 0
M  V30 2120 H 201.52 1.50089 0.607037 0
M  V30 2121 H 203.512 1.65928 3.6912 0
M  V30 2122 H 202.082 0.844216 3.00985 0
M  V30 2123 H 201.302 3.21895 2.27546 0
M  V30 2124 H 202.59 3.86736 3.30625 0
M  V30 2125 H 201.988 1.51685 5.44985 0
M  V30 2126 H 200.545 2.11494 6.16534 0
M  V30 2127 N 203.978 -0.674533 1.42435 0
M  V30 2128 C 205.227 -1.43034 1.42212 0
M  V30 2129 C 205.54 -1.95555 0.0420788 0
M  V30 2130 O 206.746 -2.71374 -0.0827558 0
M  V30 2131 C 205.202 -2.58748 2.50155 0
M  V30 2132 C 204.81 -2.12925 3.94166 0
M  V30 2133 C 206.554 -3.36257 2.59098 0
M  V30 2134 C 204.461 -3.25723 4.93618 0
M  V30 2135 H 203.391 -0.537345 0.528939 0
M  V30 2136 H 206.042 -0.73024 1.68344 0
M  V30 2137 H 204.424 -3.31128 2.17188 0
M  V30 2138 H 205.598 -1.47697 4.36488 0
M  V30 2139 H 203.913 -1.48354 3.89076 0
M  V30 2140 H 206.51 -4.20264 3.30578 0
M  V30 2141 H 206.853 -3.82866 1.63461 0
M  V30 2142 H 207.386 -2.70947 2.9126 0
M  V30 2143 H 204.125 -2.84105 5.90732 0
M  V30 2144 H 203.645 -3.89732 4.55926 0
M  V30 2145 H 205.324 -3.91186 5.15347 0
M  V30 2146 N 205.456 -1.28612 -0.910864 0
M  V30 2147 C 206.872 -1.06381 -1.18976 0
M  V30 2148 C 207.072 0.191998 -2.00583 0
M  V30 2149 O 206.128 0.892869 -2.36187 0
M  V30 2150 C 207.441 -2.31295 -1.92154 0
M  V30 2151 C 208.989 -2.36503 -2.05025 0
M  V30 2152 C 209.464 -3.61191 -2.81612 0
M  V30 2153 N 210.955 -3.61847 -2.89172 0
M  V30 2154 C 211.69 -4.55004 -3.4894 0
M  V30 2155 N 211.186 -5.58482 -4.09963 0
M  V30 2156 N 212.979 -4.42594 -3.46506 0
M  V30 2157 H 205.13 -2.09221 -0.366094 0
M  V30 2158 H 207.393 -0.921003 -0.224629 0
M  V30 2159 H 207.099 -3.228 -1.39618 0
M  V30 2160 H 206.973 -2.37934 -2.9269 0
M  V30 2161 H 209.36 -1.45494 -2.5674 0
M  V30 2162 H 209.441 -2.33857 -1.03657 0
M  V30 2163 H 209.085 -4.52545 -2.30576 0
M  V30 2164 H 209.015 -3.61092 -3.83302 0
M  V30 2165 H 211.506 -2.87022 -2.45819 0
M  V30 2166 H 211.819 -6.25704 -4.53557 0
M  V30 2167 H 210.164 -5.62305 -4.08459 0
M  V30 2168 H 213.355 -3.60953 -2.98045 0
M  V30 2169 H 213.528 -5.15381 -3.92793 0
M  V30 2170 N 206.934 1.1197 -1.10907 0
M  V30 2171 C 208.182 1.83225 -0.852819 0
M  V30 2172 C 208.503 1.84769 0.623341 0
M  V30 2173 O 207.773 1.3143 1.45269 0
M  V30 2174 H 206.353 0.67849 -0.312507 0
M  V30 2175 H 209.015 1.3556 -1.40033 0
M  V30 2176 H 208.111 2.87265 -1.22005 0
M  V30 2177 N 208.412 0.89855 1.29475 0
M  V30 2178 C 209.362 0.346767 2.25348 0
M  V30 2179 C 210.346 -0.532509 1.51833 0
M  V30 2180 O 211.538 -0.374714 1.72988 0
M  V30 2181 C 208.667 -0.425681 3.40651 0
M  V30 2182 C 207.753 0.46845 4.21505 0
M  V30 2183 N 208.144 1.57514 4.80648 0
M  V30 2184 C 206.442 0.26603 4.45206 0
M  V30 2185 C 207.143 2.12889 5.41344 0
M  V30 2186 N 206.119 1.42208 5.24669 0
M  V30 2187 H 209.921 1.19219 2.68634 0
M  V30 2188 H 207.435 0.749473 1.44072 0
M  V30 2189 H 209.432 -0.837716 4.08397 0
M  V30 2190 H 208.092 -1.26838 2.98902 0
M  V30 2191 H 209.103 1.95789 4.79465 0
M  V30 2192 H 205.78 -0.538394 4.14014 0
M  V30 2193 H 207.17 3.05901 5.98226 0
M  V30 2194 N 209.89 -1.43072 0.660911 0
M  V30 2195 C 210.84 -2.27948 -0.04847 0
M  V30 2196 C 211.824 -1.40325 -0.787246 0
M  V30 2197 O 213.016 -1.63893 -0.668446 0
M  V30 2198 C 210.145 -3.28143 -1.00881 0
M  V30 2199 C 209.231 -4.23252 -0.268108 0
M  V30 2200 N 209.622 -5.00656 0.719528 0
M  V30 2201 C 207.92 -4.43092 -0.508493 0
M  V30 2202 C 208.621 -5.70019 1.15988 0
M  V30 2203 N 207.597 -5.41364 0.492584 0
M  V30 2204 H 211.399 -2.85213 0.709279 0
M  V30 2205 H 208.913 -1.54869 0.488822 0
M  V30 2206 H 210.91 -3.87736 -1.53188 0
M  V30 2207 H 209.57 -2.7244 -1.76654 0
M  V30 2208 H 210.581 -5.06115 1.09855 0
M  V30 2209 H 207.258 -3.98449 -1.24679 0
M  V30 2210 H 208.648 -6.4214 1.97751 0
M  V30 2211 N 211.368 -0.403325 -1.52352 0
M  V30 2212 C 212.614 0.174605 -2.02047 0
M  V30 2213 C 212.947 1.45282 -1.28867 0
M  V30 2214 O 212.222 1.90483 -0.393257 0
M  V30 2215 C 212.505 0.428238 -3.57545 0
M  V30 2216 C 212.358 -0.866248 -4.4138 0
M  V30 2217 C 213.677 1.21287 -4.23057 0
M  V30 2218 H 210.796 0.0619851 -0.734389 0
M  V30 2219 H 213.438 -0.53565 -1.82293 0
M  V30 2220 H 211.588 1.03327 -3.74507 0
M  V30 2221 H 213.26 -1.50265 -4.3614 0
M  V30 2222 H 211.503 -1.47851 -4.07827 0
M  V30 2223 H 212.174 -0.643249 -5.48239 0
M  V30 2224 H 214.65 0.700703 -4.10158 0
M  V30 2225 H 213.526 1.35909 -5.31808 0
M  V30 2226 H 213.787 2.23193 -3.81625 0
M  V30 2227 N 212.846 1.57033 -0.133567 0
M  V30 2228 C 213.809 2.14897 0.796995 0
M  V30 2229 C 214.809 1.0874 1.18458 0
M  V30 2230 O 215.999 1.34446 1.1077 0
M  V30 2231 C 213.131 2.70112 2.07973 0
M  V30 2232 H 214.324 2.98457 0.293873 0
M  V30 2233 H 211.877 1.55871 0.115787 0
M  V30 2234 H 212.612 1.9018 2.62682 0
M  V30 2235 H 212.397 3.47764 1.81115 0
M  V30 2236 H 213.887 3.14738 2.74462 0
M  V30 2237 N 214.325 -0.140222 1.56975 0
M  V30 2238 C 215.257 -1.19818 1.95388 0
M  V30 2239 C 216.27 -1.38816 0.850525 0
M  V30 2240 O 217.459 -1.38267 1.12891 0
M  V30 2241 C 214.559 -2.56189 2.21857 0
M  V30 2242 C 213.732 -2.58077 3.5315 0
M  V30 2243 C 212.791 -3.76037 3.6808 0
M  V30 2244 O 211.817 -3.60598 4.40406 0
M  V30 2245 N 213.019 -4.93763 3.05251 0
M  V30 2246 H 215.784 -0.871609 2.86746 0
M  V30 2247 H 213.345 -0.32972 1.58507 0
M  V30 2248 H 215.337 -3.33623 2.2908 0
M  V30 2249 H 213.907 -2.81111 1.36731 0
M  V30 2250 H 213.127 -1.6651 3.57307 0
M  V30 2251 H 214.415 -2.56377 4.39486 0
M  V30 2252 H 213.813 -5.09209 2.46419 0
M  V30 2253 H 212.37 -5.68949 3.18026 0
M  V30 2254 N 215.803 -1.52179 -0.40978 0
M  V30 2255 C 216.733 -1.78435 -1.5061 0
M  V30 2256 C 217.714 -0.635295 -1.57791 0
M  V30 2257 O 218.899 -0.880823 -1.73076 0
M  V30 2258 C 216.029 -1.93444 -2.88439 0
M  V30 2259 C 214.983 -3.09038 -2.96108 0
M  V30 2260 C 214.309 -3.09268 -4.36185 0
M  V30 2261 C 215.609 -4.48508 -2.67652 0
M  V30 2262 H 217.303 -2.70237 -1.28889 0
M  V30 2263 H 214.849 -1.30036 -0.618605 0
M  V30 2264 H 216.802 -2.10394 -3.65119 0
M  V30 2265 H 215.526 -0.983129 -3.11452 0
M  V30 2266 H 214.185 -2.91837 -2.21872 0
M  V30 2267 H 213.833 -2.11861 -4.56206 0
M  V30 2268 H 213.533 -3.86907 -4.42241 0
M  V30 2269 H 215.057 -3.28348 -5.14801 0
M  V30 2270 H 216.471 -4.65918 -3.34056 0
M  V30 2271 H 214.868 -5.28059 -2.85085 0
M  V30 2272 H 215.938 -4.56649 -1.63095 0
M  V30 2273 N 217.281 0.66697 -1.42791 0
M  V30 2274 C 218.558 1.4234 -1.34159 0
M  V30 2275 C 218.938 2.11093 0.0172729 0
M  V30 2276 O 218.286 2.03808 1.03318 0
M  V30 2277 C 218.496 2.41942 -2.51526 0
M  V30 2278 C 219.844 3.06353 -2.93995 0
M  V30 2279 O 220.868 2.52269 -2.51473 0
M  V30 2280 O 219.727 4.04376 -3.67617 0
M  V30 2281 H 216.821 0.635277 -0.529483 0
M  V30 2282 H 219.367 0.695034 -1.54814 0
M  V30 2283 H 218.139 1.89991 -3.42081 0
M  V30 2284 H 217.762 3.22249 -2.32898 0
M  V30 2285 N 218.759 1.29093 0.90403 0
M  V30 2286 C 220.17 1.15186 1.46932 0
M  V30 2287 C 220.521 -0.254587 1.94541 0
M  V30 2288 O 219.646 -1.14972 1.83332 0
M  V30 2289 C 220.241 2.08492 2.67051 0
M  V30 2290 C 218.8 1.98621 3.19729 0
M  V30 2291 C 217.947 1.9967 1.92425 0
M  V30 2292 H 220.898 1.41641 0.715789 0
M  V30 2293 H 220.919 1.65461 3.42641 0
M  V30 2294 H 220.431 3.10847 2.3237 0
M  V30 2295 H 218.532 0.993389 3.59114 0
M  V30 2296 H 218.645 2.86068 3.8432 0
M  V30 2297 H 217.009 1.44208 2.09943 0
M  V30 2298 H 217.792 3.03721 1.60026 0
M  V30 2299 N 220.237 -1.11381 1.11499 0
M  V30 2300 C 221.167 -2.19509 0.796125 0
M  V30 2301 C 222.148 -1.68458 -0.235796 0
M  V30 2302 O 223.333 -1.93947 -0.0991344 0
M  V30 2303 C 220.463 -3.46475 0.239205 0
M  V30 2304 C 219.417 -4.10744 1.20307 0
M  V30 2305 C 218.743 -5.32293 0.50683 0
M  V30 2306 C 220.043 -4.55597 2.55399 0
M  V30 2307 H 221.737 -2.46439 1.70024 0
M  V30 2308 H 219.283 -1.18446 0.818935 0
M  V30 2309 H 221.236 -4.214 0.00392006 0
M  V30 2310 H 219.96 -3.19006 -0.700206 0
M  V30 2311 H 218.619 -3.37813 1.42399 0
M  V30 2312 H 218.267 -5.01095 -0.437408 0
M  V30 2313 H 217.967 -5.76243 1.1497 0
M  V30 2314 H 219.491 -6.09956 0.280351 0
M  V30 2315 H 220.905 -5.21841 2.37391 0
M  V30 2316 H 219.302 -5.10363 3.15673 0
M  V30 2317 H 220.372 -3.69013 3.14575 0
M  V30 2318 N 221.715 -0.905404 -1.28997 0
M  V30 2319 C 222.963 -0.533192 -1.9494 0
M  V30 2320 C 223.284 0.924618 -1.71685 0
M  V30 2321 O 222.554 1.65268 -1.05183 0
M  V30 2322 H 221.134 -0.194194 -0.721317 0
M  V30 2323 H 223.796 -1.15294 -1.57141 0
M  V30 2324 H 222.892 -0.72059 -3.03667 0
M  V30 2325 N 223.193 1.4272 -0.668489 0
M  V30 2326 C 224.442 2.00846 -0.185389 0
M  V30 2327 C 224.755 1.53442 1.21305 0
M  V30 2328 O 225.961 2.03944 1.79218 0
M  V30 2329 C 224.417 3.58805 -0.280591 0
M  V30 2330 C 224.025 4.15198 -1.68268 0
M  V30 2331 C 225.769 4.24255 0.14412 0
M  V30 2332 C 223.676 5.655 -1.73099 0
M  V30 2333 H 222.606 0.751145 -0.0655475 0
M  V30 2334 H 225.257 1.63516 -0.832752 0
M  V30 2335 H 223.639 3.93608 0.434553 0
M  V30 2336 H 224.813 3.91866 -2.42441 0
M  V30 2337 H 223.128 3.62176 -2.05469 0
M  V30 2338 H 225.725 5.34547 0.128086 0
M  V30 2339 H 226.068 3.99277 1.17827 0
M  V30 2340 H 226.601 3.94389 -0.519798 0
M  V30 2341 H 223.34 5.95268 -2.74475 0
M  V30 2342 H 222.86 5.90842 -1.03274 0
M  V30 2343 H 224.539 6.29808 -1.48158 0
M  V30 2344 N 224.671 0.411399 1.52136 0
M  V30 2345 C 225.601 -0.404015 2.29978 0
M  V30 2346 C 226.582 -1.04412 1.34284 0
M  V30 2347 O 227.767 -1.0527 1.63192 0
M  V30 2348 C 224.897 -1.5197 3.12286 0
M  V30 2349 C 223.851 -1.00448 4.16046 0
M  V30 2350 C 223.177 -2.21393 4.86712 0
M  V30 2351 C 224.477 -0.0569336 5.22269 0
M  V30 2352 H 226.171 0.245529 2.98392 0
M  V30 2353 H 223.717 0.119525 1.43503 0
M  V30 2354 H 225.67 -2.09715 3.6551 0
M  V30 2355 H 224.394 -2.19716 2.41646 0
M  V30 2356 H 223.053 -0.449421 3.63835 0
M  V30 2357 H 222.701 -2.87699 4.12599 0
M  V30 2358 H 222.401 -1.87571 5.56858 0
M  V30 2359 H 223.925 -2.7974 5.4275 0
M  V30 2360 H 225.339 -0.54325 5.7072 0
M  V30 2361 H 223.736 0.192594 5.99791 0
M  V30 2362 H 224.806 0.887663 4.76706 0
M  V30 2363 N 226.149 -1.5696 0.141893 0
M  V30 2364 C 227.426 -1.87553 -0.555281 0
M  V30 2365 C 227.806 -1.04699 -1.83306 0
M  V30 2366 O 227.154 -0.132346 -2.28116 0
M  V30 2367 C 227.364 -3.39093 -0.825664 0
M  V30 2368 C 228.712 -4.08199 -1.16869 0
M  V30 2369 O 229.736 -3.44242 -0.915185 0
M  V30 2370 O 228.595 -5.21139 -1.6455 0
M  V30 2371 H 225.689 -0.777188 -0.282679 0
M  V30 2372 H 228.235 -1.68763 0.17812 0
M  V30 2373 H 227.007 -3.91221 0.0788633 0
M  V30 2374 H 226.63 -3.63393 -1.61343 0
M  V30 2375 N 227.627 0.131896 -1.57047 0
M  V30 2376 C 228.59 1.14638 -1.98471 0
M  V30 2377 C 229.59 1.35029 -0.873148 0
M  V30 2378 O 230.78 1.31764 -1.13946 0
M  V30 2379 C 227.912 2.50358 -2.31373 0
M  V30 2380 H 229.105 0.79064 -2.8929 0
M  V30 2381 H 226.658 0.375761 -1.51716 0
M  V30 2382 H 227.393 2.90876 -1.43393 0
M  V30 2383 H 227.178 2.36915 -3.12432 0
M  V30 2384 H 228.668 3.23395 -2.64207 0
M  V30 2385 N 229.106 1.52395 0.401703 0
M  V30 2386 C 230.383 1.57387 1.16141 0
M  V30 2387 C 230.763 0.359359 2.08019 0
M  V30 2388 O 230.111 -0.65326 2.18963 0
M  V30 2389 C 230.321 2.90631 1.93221 0
M  V30 2390 C 231.669 3.43904 2.49028 0
M  V30 2391 O 232.693 2.92421 2.03393 0
M  V30 2392 O 231.552 4.33823 3.32356 0
M  V30 2393 H 228.646 0.634262 0.530698 0
M  V30 2394 H 231.192 1.64725 0.407883 0
M  V30 2395 H 229.964 3.70473 1.25958 0
M  V30 2396 H 229.587 2.8662 2.75563 0
M  V30 2397 N 230.584 -0.659388 1.43143 0
M  V30 2398 C 231.514 -1.78422 1.50625 0
M  V30 2399 C 232.495 -1.66216 0.361443 0
M  V30 2400 O 233.68 -1.85404 0.577834 0
M  V30 2401 C 230.81 -3.16815 1.42287 0
M  V30 2402 C 229.764 -3.43777 2.54954 0
M  V30 2403 C 229.09 -4.81905 2.31671 0
M  V30 2404 C 230.39 -3.39134 3.97222 0
M  V30 2405 H 232.084 -1.72417 2.44771 0
M  V30 2406 H 229.63 -0.828084 1.17808 0
M  V30 2407 H 231.583 -3.95253 1.46127 0
M  V30 2408 H 230.307 -3.23534 0.446435 0
M  V30 2409 H 228.966 -2.67707 2.50457 0
M  V30 2410 H 228.614 -4.85294 1.32284 0
M  V30 2411 H 228.314 -5.00906 3.07192 0
M  V30 2412 H 229.838 -5.62609 2.37284 0
M  V30 2413 H 231.252 -4.07518 4.03239 0
M  V30 2414 H 229.649 -3.69671 4.72719 0
M  V30 2415 H 230.719 -2.37426 4.22797 0
M  V30 2416 N 232.062 -1.29571 -0.897171 0
M  V30 2417 C 233.339 -1.08365 -1.62839 0
M  V30 2418 C 233.719 0.371331 -2.07808 0
M  V30 2419 O 233.067 1.3606 -1.83576 0
M  V30 2420 C 233.277 -2.0735 -2.80726 0
M  V30 2421 C 234.625 -2.38406 -3.51351 0
M  V30 2422 O 235.649 -2.05564 -2.90898 0
M  V30 2423 O 234.508 -2.9453 -4.60341 0
M  V30 2424 H 231.602 -0.415345 -0.715134 0
M  V30 2425 H 234.148 -1.40952 -0.945018 0
M  V30 2426 H 232.92 -3.05339 -2.44711 0
M  V30 2427 H 232.543 -1.75507 -3.56767 0
M  V30 2428 N 233.54 1.10788 -1.12088 0
M  V30 2429 C 234.765 1.87002 -0.896949 0
M  V30 2430 C 235.19 1.79933 0.548261 0
M  V30 2431 O 234.548 1.16662 1.38779 0
M  V30 2432 C 234.596 3.3349 -1.37174 0
M  V30 2433 O 233.7 4.08745 -0.547831 0
M  V30 2434 H 233.041 0.580397 -0.322545 0
M  V30 2435 H 235.571 1.39996 -1.49206 0
M  V30 2436 H 235.581 3.84339 -1.36922 0
M  V30 2437 H 234.256 3.37951 -2.42408 0
M  V30 2438 H 232.833 3.6776 -0.617034 0
M  V30 2439 N 235.018 0.912232 1.28515 0
M  V30 2440 C 236.243 0.559774 1.99703 0
M  V30 2441 C 236.668 -0.851393 1.67729 0
M  V30 2442 O 236.026 -1.56875 0.908834 0
M  V30 2443 C 236.074 0.773874 3.52198 0
M  V30 2444 O 235.178 -0.167842 4.12058 0
M  V30 2445 H 234.519 0.21723 0.627461 0
M  V30 2446 H 237.049 1.22725 1.63706 0
M  V30 2447 H 237.059 0.683386 4.02236 0
M  V30 2448 H 235.734 1.80261 3.74805 0
M  V30 2449 H 234.311 -0.0287509 3.72889 0
M  V30 2450 N 236.496 -1.42363 0.676048 0
M  V30 2451 C 237.742 -2.0182 0.199125 0
M  V30 2452 C 238.075 -1.53339 -1.19168 0
M  V30 2453 O 237.35 -0.736124 -1.80032 0
M  V30 2454 C 237.633 -3.59331 0.235144 0
M  V30 2455 C 237.486 -4.17989 1.66149 0
M  V30 2456 C 238.805 -4.3813 -0.41595 0
M  V30 2457 H 235.924 -0.733293 0.0738311 0
M  V30 2458 H 238.566 -1.69368 0.86107 0
M  V30 2459 H 236.716 -3.87109 -0.328487 0
M  V30 2460 H 238.388 -4.0116 2.27747 0
M  V30 2461 H 236.631 -3.7377 2.20178 0
M  V30 2462 H 237.302 -5.27126 1.63837 0
M  V30 2463 H 239.778 -4.16051 0.0638529 0
M  V30 2464 H 238.654 -5.47717 -0.360115 0
M  V30 2465 H 238.915 -4.16101 -1.49373 0
M  V30 2466 N 237.974 -0.419461 -1.51915 0
M  V30 2467 C 239.385 0.0477853 -1.86639 0
M  V30 2468 C 239.736 1.43531 -1.33766 0
M  V30 2469 O 238.861 2.05401 -0.68113 0
M  V30 2470 C 239.456 0.0934885 -3.38671 0
M  V30 2471 C 238.015 0.505097 -3.72996 0
M  V30 2472 C 237.162 -0.313792 -2.75519 0
M  V30 2473 H 240.113 -0.636088 -1.45395 0
M  V30 2474 H 240.134 0.906667 -3.6954 0
M  V30 2475 H 239.646 -0.916501 -3.77123 0
M  V30 2476 H 237.747 1.52135 -3.40126 0
M  V30 2477 H 237.86 0.242309 -4.78487 0
M  V30 2478 H 236.224 0.225363 -2.53701 0
M  V30 2479 H 237.007 -1.32232 -3.16812 0
M  V30 2480 N 239.452 1.56882 -0.150215 0
M  V30 2481 C 240.415 2.1573 0.774157 0
M  V30 2482 C 241.415 1.0999 1.17298 0
M  V30 2483 O 242.605 1.35613 1.09338 0
M  V30 2484 C 239.737 2.72302 2.05096 0
M  V30 2485 H 240.93 2.98752 0.262201 0
M  V30 2486 H 238.483 1.55985 0.099248 0
M  V30 2487 H 239.218 1.92956 2.6065 0
M  V30 2488 H 239.003 3.49665 1.77416 0
M  V30 2489 H 240.493 3.17632 2.71109 0
M  V30 2490 N 240.93 -0.123565 1.57115 0
M  V30 2491 C 242.207 -0.862196 1.75572 0
M  V30 2492 C 242.587 -1.98279 0.724475 0
M  V30 2493 O 241.935 -2.27102 -0.252407 0
M  V30 2494 C 242.145 -1.38309 3.20424 0
M  V30 2495 C 243.493 -1.83724 3.82793 0
M  V30 2496 O 244.517 -1.47999 3.23998 0
M  V30 2497 O 243.376 -2.49685 4.86127 0
M  V30 2498 H 240.47 -0.409113 0.718718 0
M  V30 2499 H 243.016 -0.107661 1.69358 0
M  V30 2500 H 241.788 -0.578889 3.86994 0
M  V30 2501 H 241.411 -2.20046 3.31158 0
M  V30 2502 N 242.408 -1.52605 -0.393616 0
M  V30 2503 C 243.657 -1.66649 -1.13627 0
M  V30 2504 C 243.97 -0.410364 -1.91247 0
M  V30 2505 O 245.176 -0.430854 -2.68059 0
M  V30 2506 C 243.632 -2.9449 -2.06891 0
M  V30 2507 C 243.24 -4.27266 -1.34714 0
M  V30 2508 C 244.984 -3.17899 -2.81319 0
M  V30 2509 C 242.891 -5.46217 -2.26717 0
M  V30 2510 H 241.821 -0.62084 -0.427871 0
M  V30 2511 H 244.472 -1.791 -0.399428 0
M  V30 2512 H 242.854 -2.75774 -2.84191 0
M  V30 2513 H 244.028 -4.56518 -0.626714 0
M  V30 2514 H 242.343 -4.10081 -0.722643 0
M  V30 2515 H 244.94 -4.03949 -3.50328 0
M  V30 2516 H 245.283 -2.32777 -3.45139 0
M  V30 2517 H 245.816 -3.37159 -2.11113 0
M  V30 2518 H 242.555 -6.33733 -1.67521 0
M  V30 2519 H 242.075 -5.21283 -2.96689 0
M  V30 2520 H 243.754 -5.7991 -2.86903 0
M  V30 2521 N 243.887 0.651787 -1.4349 0
M  V30 2522 C 245.136 1.40754 -1.44469 0
M  V30 2523 C 245.449 1.95463 -0.0731845 0
M  V30 2524 O 246.655 2.71471 0.0395721 0
M  V30 2525 C 245.111 2.54735 -2.5424 0
M  V30 2526 C 244.719 2.06628 -3.97504 0
M  V30 2527 C 246.463 3.32092 -2.64414 0
M  V30 2528 C 244.37 3.17829 -4.98737 0
M  V30 2529 H 243.3 0.528862 -0.53742 0
M  V30 2530 H 245.951 0.703365 -1.69485 0
M  V30 2531 H 244.333 3.2763 -2.22428 0
M  V30 2532 H 245.507 1.40734 -4.38783 0
M  V30 2533 H 243.822 1.42146 -3.91387 0
M  V30 2534 H 246.419 4.14952 -3.37223 0
M  V30 2535 H 246.762 3.80217 -1.69532 0
M  V30 2536 H 247.295 2.66279 -2.95534 0
M  V30 2537 H 244.034 2.74671 -5.95177 0
M  V30 2538 H 243.554 3.82429 -4.62069 0
M  V30 2539 H 245.233 3.82937 -5.21505 0
M  V30 2540 N 245.365 1.30045 0.890287 0
M  V30 2541 C 246.59 1.21598 1.68014 0
M  V30 2542 C 247.015 -0.218678 1.86825 0
M  V30 2543 O 246.373 -1.15756 1.39536 0
M  V30 2544 C 246.421 1.94434 3.03691 0
M  V30 2545 O 245.525 1.2678 3.92429 0
M  V30 2546 H 244.866 0.420856 0.513592 0
M  V30 2547 H 247.396 1.71775 1.11151 0
M  V30 2548 H 247.406 2.03251 3.5377 0
M  V30 2549 H 246.081 2.98777 2.89318 0
M  V30 2550 H 244.658 1.26282 3.50866 0
M  V30 2551 N 246.843 -1.10192 1.12674 0
M  V30 2552 C 248.068 -1.86523 0.906853 0
M  V30 2553 C 248.493 -1.80221 -0.538711 0
M  V30 2554 O 247.851 -1.17396 -1.38158 0
M  V30 2555 C 247.899 -3.32758 1.3894 0
M  V30 2556 O 247.003 -4.08449 0.5695 0
M  V30 2557 H 246.344 -0.578678 0.325619 0
M  V30 2558 H 248.874 -1.39203 1.49946 0
M  V30 2559 H 248.884 -3.83608 1.38958 0
M  V30 2560 H 247.559 -3.36661 2.44197 0
M  V30 2561 H 246.136 -3.67427 0.636528 0
M  V30 2562 N 248.321 -0.919034 -1.28029 0
M  V30 2563 C 249.549 -0.570971 -1.98866 0
M  V30 2564 C 249.964 0.848996 -1.68634 0
M  V30 2565 O 249.321 1.56307 -0.942036 0
M  V30 2566 C 249.372 -0.776876 -3.53054 0
M  V30 2567 O 249.093 -2.14097 -3.82222 0
M  V30 2568 C 250.594 -0.436356 -4.41147 0
M  V30 2569 H 247.814 -0.217175 -0.634883 0
M  V30 2570 H 250.358 -1.23368 -1.63097 0
M  V30 2571 H 248.513 -0.161085 -3.87065 0
M  V30 2572 H 248.927 -2.18455 -4.76841 0
M  V30 2573 H 250.401 -0.63117 -5.4838 0
M  V30 2574 H 250.878 0.627686 -4.34692 0
M  V30 2575 H 251.484 -1.02991 -4.12641 0
M  V30 2576 N 249.799 1.42003 -0.683588 0
M  V30 2577 C 251.076 1.95112 -0.138075 0
M  V30 2578 C 251.456 1.62359 1.34918 0
M  V30 2579 O 250.804 0.924311 2.08971 0
M  V30 2580 C 251.014 3.46505 -0.416581 0
M  V30 2581 C 252.362 4.23254 -0.337834 0
M  V30 2582 O 253.386 3.54468 -0.35082 0
M  V30 2583 O 252.245 5.45743 -0.287596 0
M  V30 2584 H 249.339 0.826961 -0.00797996 0
M  V30 2585 H 251.885 1.51784 -0.758924 0
M  V30 2586 H 250.657 3.63582 -1.4465 0
M  V30 2587 H 250.28 3.969 0.235839 0
M  V30 2588 N 251.277 0.427512 1.51691 0
M  V30 2589 C 252.224 -0.388867 2.275 0
M  V30 2590 C 253.194 -1.02532 1.30677 0
M  V30 2591 O 254.379 -1.0461 1.59566 0
M  V30 2592 C 251.519 -1.48954 3.11298 0
M  V30 2593 C 250.632 -0.872194 4.23104 0
M  V30 2594 C 249.767 -1.94709 4.94228 0
M  V30 2595 C 248.806 -1.30766 5.97969 0
M  V30 2596 N 247.943 -2.32349 6.62539 0
M  V30 2597 H 252.783 0.263997 2.96828 0
M  V30 2598 H 250.32 0.142033 1.46413 0
M  V30 2599 H 252.278 -2.13887 3.58201 0
M  V30 2600 H 250.908 -2.11217 2.44105 0
M  V30 2601 H 249.96 -0.111419 3.80237 0
M  V30 2602 H 251.272 -0.365264 4.97461 0
M  V30 2603 H 250.426 -2.67327 5.44629 0
M  V30 2604 H 249.165 -2.48773 4.1948 0
M  V30 2605 H 248.17 -0.566902 5.4687 0
M  V30 2606 H 249.395 -0.774483 6.74669 0
M  V30 2607 H 247.341 -2.85511 5.90609 0
M  V30 2608 H 247.258 -1.8652 7.3263 0
M  V30 2609 H 248.526 -3.04481 7.17574 0
M  V30 2610 N 252.755 -1.56801 0.158532 0
M  V30 2611 C 253.685 -2.20347 -0.772609 0
M  V30 2612 C 254.666 -1.15518 -1.24859 0
M  V30 2613 O 255.851 -1.43902 -1.30406 0
M  V30 2614 C 252.981 -2.83417 -2.00729 0
M  V30 2615 C 251.935 -3.94174 -1.66765 0
M  V30 2616 C 251.261 -4.44233 -2.97592 0
M  V30 2617 C 252.561 -5.14392 -0.905447 0
M  V30 2618 H 254.255 -2.98413 -0.242959 0
M  V30 2619 H 251.801 -1.43537 -0.115419 0
M  V30 2620 H 253.754 -3.26543 -2.6636 0
M  V30 2621 H 252.478 -2.02701 -2.56086 0
M  V30 2622 H 251.137 -3.51684 -1.03508 0
M  V30 2623 H 250.785 -3.60325 -3.50963 0
M  V30 2624 H 250.485 -5.18945 -2.75626 0
M  V30 2625 H 252.009 -4.90037 -3.64274 0
M  V30 2626 H 253.423 -5.5429 -1.46408 0
M  V30 2627 H 251.82 -5.9494 -0.7853 0
M  V30 2628 H 252.89 -4.84795 0.100668 0
M  V30 2629 N 254.233 0.115231 -1.57178 0
M  V30 2630 C 255.481 0.820727 -1.84685 0
M  V30 2631 C 255.802 1.80237 -0.744279 0
M  V30 2632 O 255.072 1.94529 0.231375 0
M  V30 2633 H 253.652 0.306084 -0.681411 0
M  V30 2634 H 256.314 0.101656 -1.94635 0
M  V30 2635 H 255.41 1.36366 -2.80733 0
M  V30 2636 N 255.711 1.52812 0.385517 0
M  V30 2637 C 256.958 1.68026 1.1302 0
M  V30 2638 C 257.286 0.421934 1.89868 0
M  V30 2639 O 256.541 -0.595749 1.86412 0
M  V30 2640 C 256.84 2.86856 2.13187 0
M  V30 2641 C 256.506 4.24159 1.5297 0
M  V30 2642 C 255.168 4.61501 1.36274 0
M  V30 2643 C 257.52 5.09627 1.09223 0
M  V30 2644 C 254.848 5.81966 0.743837 0
M  V30 2645 C 257.2 6.30719 0.487411 0
M  V30 2646 C 255.864 6.6679 0.307777 0
M  V30 2647 H 255.134 0.614849 0.413571 0
M  V30 2648 H 257.781 1.86962 0.414405 0
M  V30 2649 H 256.086 2.6235 2.90998 0
M  V30 2650 H 257.783 2.95821 2.70722 0
M  V30 2651 H 254.373 3.94746 1.66954 0
M  V30 2652 H 258.557 4.81343 1.20922 0
M  V30 2653 H 253.813 6.08519 0.592891 0
M  V30 2654 H 257.987 6.96259 0.140143 0
M  V30 2655 H 255.614 7.60001 -0.173879 0
M  V30 2656 N 257.189 -0.644168 1.43834 0
M  V30 2657 C 258.419 -1.42939 1.49171 0
M  V30 2658 C 258.827 -1.88874 0.111048 0
M  V30 2659 O 258.17 -1.60656 -0.8908 0
M  V30 2660 C 258.232 -2.69151 2.38324 0
M  V30 2661 C 257.896 -2.45097 3.85715 0
M  V30 2662 C 258.893 -2.07747 4.76589 0
M  V30 2663 C 256.578 -2.59141 4.30292 0
M  V30 2664 C 258.572 -1.8475 6.10038 0
M  V30 2665 C 256.259 -2.35759 5.63792 0
M  V30 2666 C 257.257 -1.9862 6.53482 0
M  V30 2667 O 256.945 -1.75489 7.84512 0
M  V30 2668 H 256.677 -0.445271 0.508635 0
M  V30 2669 H 259.231 -0.79621 1.8934 0
M  V30 2670 H 257.461 -3.3506 1.93058 0
M  V30 2671 H 259.15 -3.31123 2.3476 0
M  V30 2672 H 259.916 -1.96465 4.43426 0
M  V30 2673 H 255.795 -2.87022 3.60749 0
M  V30 2674 H 259.339 -1.55686 6.80006 0
M  V30 2675 H 255.236 -2.46646 5.9652 0
M  V30 2676 H 256.004 -1.89841 7.9618 0
M  V30 2677 N 258.668 -1.30515 -0.883378 0
M  V30 2678 C 259.916 -1.19194 -1.63209 0
M  V30 2679 C 260.237 0.253205 -1.93349 0
M  V30 2680 O 259.507 1.17025 -1.57105 0
M  V30 2681 H 258.087 -0.438148 -0.605009 0
M  V30 2682 H 260.749 -1.63663 -1.05832 0
M  V30 2683 H 259.845 -1.75396 -2.58153 0
M  V30 2684 N 260.146 1.09593 -1.13257 0
M  V30 2685 C 261.076 2.18214 -0.830946 0
M  V30 2686 C 262.057 1.68812 0.208966 0
M  V30 2687 O 263.242 1.9408 0.0682666 0
M  V30 2688 C 260.372 3.46051 -0.294296 0
M  V30 2689 C 259.326 4.08778 -1.26826 0
M  V30 2690 C 258.652 5.31419 -0.591449 0
M  V30 2691 C 259.952 4.51476 -2.62615 0
M  V30 2692 H 261.646 2.43703 -1.73923 0
M  V30 2693 H 259.192 1.17128 -0.837675 0
M  V30 2694 H 261.145 4.2134 -0.0709606 0
M  V30 2695 H 259.869 3.20079 0.649366 0
M  V30 2696 H 258.528 3.35505 -1.47756 0
M  V30 2697 H 258.176 5.01727 0.357633 0
M  V30 2698 H 257.876 5.74341 -1.24123 0
M  V30 2699 H 259.4 6.09433 -0.377355 0
M  V30 2700 H 260.814 5.17999 -2.45663 0
M  V30 2701 H 259.211 5.05277 -3.23752 0
M  V30 2702 H 260.281 3.63962 -3.20406 0
M  V30 2703 N 261.624 0.925811 1.2754 0
M  V30 2704 C 262.901 0.483726 1.89524 0
M  V30 2705 C 263.281 -1.03809 1.83812 0
M  V30 2706 O 262.629 -1.89143 1.28207 0
M  V30 2707 C 262.839 1.02769 3.33526 0
M  V30 2708 C 264.187 1.08703 4.10449 0
M  V30 2709 O 265.211 0.977175 3.42534 0
M  V30 2710 O 264.07 1.25599 5.31871 0
M  V30 2711 H 261.164 0.15529 0.812289 0
M  V30 2712 H 263.71 1.01738 1.35822 0
M  V30 2713 H 262.482 2.07155 3.31967 0
M  V30 2714 H 262.105 0.475567 3.94746 0
M  V30 2715 N 263.102 -1.41638 0.69111 0
M  V30 2716 C 264.012 -2.34588 0.0233487 0
M  V30 2717 C 265.028 -1.55987 -0.770984 0
M  V30 2718 O 266.204 -1.88486 -0.709569 0
M  V30 2719 C 263.269 -3.34684 -0.904851 0
M  V30 2720 C 262.33 -4.29176 -0.103225 0
M  V30 2721 C 261.563 -5.2449 -0.987216 0
M  V30 2722 O 261.786 -5.2514 -2.22674 0
M  V30 2723 O 260.72 -6.00295 -0.439281 0
M  V30 2724 H 264.546 -2.93261 0.789416 0
M  V30 2725 H 262.131 -1.42417 0.45142 0
M  V30 2726 H 264.013 -3.96133 -1.43724 0
M  V30 2727 H 262.688 -2.78461 -1.65049 0
M  V30 2728 H 261.595 -3.71089 0.473655 0
M  V30 2729 H 262.928 -4.88484 0.60365 0
M  V30 2730 N 264.58 -0.43555 -1.51462 0
M  V30 2731 C 265.805 0.132627 -2.06976 0
M  V30 2732 C 266.23 1.35848 -1.30104 0
M  V30 2733 O 265.588 1.78112 -0.338493 0
M  V30 2734 C 265.636 0.43523 -3.57964 0
M  V30 2735 O 264.74 1.52198 -3.83288 0
M  V30 2736 H 264.081 0.00265 -0.663995 0
M  V30 2737 H 266.611 -0.616369 -1.95095 0
M  V30 2738 H 266.621 0.686206 -4.02188 0
M  V30 2739 H 265.296 -0.460739 -4.1334 0
M  V30 2740 H 263.873 1.2611 -3.50928 0
M  V30 2741 N 266.058 1.56714 -0.166846 0
M  V30 2742 C 267.335 1.88412 0.525373 0
M  V30 2743 C 267.715 1.07602 1.81618 0
M  V30 2744 O 267.063 0.168621 2.27877 0
M  V30 2745 C 267.273 3.40363 0.771613 0
M  V30 2746 C 268.621 4.10007 1.1036 0
M  V30 2747 O 269.645 3.45655 0.860304 0
M  V30 2748 O 268.504 5.2369 1.56239 0
M  V30 2749 H 265.598 0.781587 0.270278 0
M  V30 2750 H 268.144 1.68458 -0.204946 0
M  V30 2751 H 266.916 3.91046 -0.141093 0
M  V30 2752 H 266.539 3.65914 1.55541 0
M  V30 2753 N 267.536 -0.106894 1.57237 0
M  V30 2754 C 268.466 -1.13148 2.04254 0
M  V30 2755 C 269.447 -1.42476 0.929224 0
M  V30 2756 O 270.632 -1.52709 1.19973 0
M  V30 2757 C 267.762 -2.4545 2.45706 0
M  V30 2758 C 266.716 -2.30558 3.60592 0
M  V30 2759 C 266.042 -3.67931 3.87983 0
M  V30 2760 C 267.342 -1.75597 4.91897 0
M  V30 2761 H 269.036 -0.740374 2.90101 0
M  V30 2762 H 266.582 -0.354696 1.39563 0
M  V30 2763 H 268.535 -3.17389 2.77205 0
M  V30 2764 H 267.259 -2.86475 1.56843 0
M  V30 2765 H 265.918 -1.61067 3.29322 0
M  V30 2766 H 265.566 -4.06462 2.96306 0
M  V30 2767 H 265.266 -3.58817 4.65322 0
M  V30 2768 H 266.79 -4.41356 4.21945 0
M  V30 2769 H 268.204 -2.37364 5.21854 0
M  V30 2770 H 266.601 -1.77272 5.73319 0
M  V30 2771 H 267.671 -0.714451 4.79608 0
M  V30 2772 N 269.014 -1.53014 -0.377408 0
M  V30 2773 C 270.291 -1.59215 -1.13622 0
M  V30 2774 C 270.671 -0.392407 -2.07421 0
M  V30 2775 O 270.019 0.618342 -2.19975 0
M  V30 2776 C 270.229 -2.93669 -1.88573 0
M  V30 2777 C 271.577 -3.47822 -2.43526 0
M  V30 2778 O 272.601 -2.9562 -1.98715 0
M  V30 2779 O 271.46 -4.39055 -3.25412 0
M  V30 2780 H 268.554 -0.642625 -0.52054 0
M  V30 2781 H 271.1 -1.65353 -0.381625 0
M  V30 2782 H 269.872 -3.7243 -1.20048 0
M  V30 2783 H 269.495 -2.90968 -2.70968 0
M  V30 2784 N 270.492 0.636531 -1.44174 0
M  V30 2785 C 271.439 1.74875 -1.50624 0
M  V30 2786 C 272.409 1.62275 -0.35442 0
M  V30 2787 O 273.594 1.82276 -0.563908 0
M  V30 2788 C 270.734 3.13102 -1.45125 0
M  V30 2789 C 269.847 3.36717 -2.7064 0
M  V30 2790 C 268.982 4.64885 -2.57013 0
M  V30 2791 C 268.021 4.8166 -3.77717 0
M  V30 2792 N 267.158 6.01101 -3.62798 0
M  V30 2793 H 271.998 1.68697 -2.45653 0
M  V30 2794 H 269.535 0.823004 -1.21922 0
M  V30 2795 H 271.493 3.93034 -1.39929 0
M  V30 2796 H 270.123 3.18308 -0.536671 0
M  V30 2797 H 269.175 2.50763 -2.86046 0
M  V30 2798 H 270.487 3.44993 -3.60252 0
M  V30 2799 H 269.641 5.52969 -2.49619 0
M  V30 2800 H 268.38 4.58957 -1.64953 0
M  V30 2801 H 267.385 3.92007 -3.85501 0
M  V30 2802 H 268.61 4.89406 -4.70807 0
M  V30 2803 H 266.556 5.96273 -2.73486 0
M  V30 2804 H 266.473 6.10409 -4.46023 0
M  V30 2805 H 267.741 6.91761 -3.59286 0
M  V30 2806 N 271.97 1.30982 0.876444 0
M  V30 2807 C 273.216 1.20474 1.63138 0
M  V30 2808 C 273.549 -0.238096 1.92735 0
M  V30 2809 O 272.824 -1.1692 1.55435 0
M  V30 2810 C 273.107 2.04244 2.96574 0
M  V30 2811 C 272.96 3.56793 2.73896 0
M  V30 2812 C 274.279 1.88684 3.97601 0
M  V30 2813 H 271.398 0.439001 0.591985 0
M  V30 2814 H 274.04 1.60704 1.01361 0
M  V30 2815 H 272.19 1.70063 3.493 0
M  V30 2816 H 273.862 4.01077 2.27892 0
M  V30 2817 H 272.105 3.80548 2.08245 0
M  V30 2818 H 272.776 4.10706 3.68815 0
M  V30 2819 H 275.252 2.18584 3.54062 0
M  V30 2820 H 274.128 2.4961 4.88862 0
M  V30 2821 H 274.389 0.848343 4.33884 0
M  V30 2822 N 273.449 -1.08991 1.13837 0
M  V30 2823 C 274.696 -1.81258 0.902882 0
M  V30 2824 C 275.024 -1.85936 -0.570803 0
M  V30 2825 O 274.279 -1.3267 -1.43865 0
M  V30 2826 C 274.578 -3.27042 1.44147 0
M  V30 2827 C 274.244 -3.4249 2.93276 0
M  V30 2828 C 272.906 -3.46414 3.33992 0
M  V30 2829 C 275.258 -3.4666 3.892 0
M  V30 2830 C 272.586 -3.52091 4.69307 0
M  V30 2831 C 274.938 -3.53872 5.24364 0
M  V30 2832 C 273.602 -3.56066 5.646 0
M  V30 2833 H 272.872 -0.663268 0.330388 0
M  V30 2834 H 275.519 -1.28368 1.42105 0
M  V30 2835 H 273.824 -3.82599 0.844097 0
M  V30 2836 H 275.521 -3.81499 1.23528 0
M  V30 2837 H 272.111 -3.40124 2.60794 0
M  V30 2838 H 276.295 -3.42865 3.58828 0
M  V30 2839 H 271.551 -3.52079 4.9985 0
M  V30 2840 H 275.725 -3.56043 5.98503 0
M  V30 2841 H 273.352 -3.60218 6.69438 0
M  V30 2842 N 274.927 -0.932562 -1.27047 0
M  V30 2843 C 275.877 -0.406392 -2.24349 0
M  V30 2844 C 276.861 0.492066 -1.53191 0
M  V30 2845 O 278.053 0.328717 -1.73921 0
M  V30 2846 C 275.182 0.335214 -3.41659 0
M  V30 2847 C 274.268 -0.58004 -4.20115 0
M  V30 2848 N 274.659 -1.70203 -4.76303 0
M  V30 2849 C 272.957 -0.383974 -4.44344 0
M  V30 2850 C 273.658 -2.27167 -5.35509 0
M  V30 2851 N 272.634 -1.56068 -5.20715 0
M  V30 2852 H 276.436 -1.26299 -2.65378 0
M  V30 2853 H 273.95 -0.787408 -1.42034 0
M  V30 2854 H 275.947 0.729142 -4.10474 0
M  V30 2855 H 274.607 1.18868 -3.0216 0
M  V30 2856 H 275.618 -2.08433 -4.74106 0
M  V30 2857 H 272.295 0.428436 -4.15296 0
M  V30 2858 H 273.685 -3.21654 -5.89905 0
M  V30 2859 N 276.405 1.4127 -0.698611 0
M  V30 2860 C 277.335 2.33447 -0.049629 0
M  V30 2861 C 278.316 1.51982 0.763898 0
M  V30 2862 O 279.501 1.80509 0.716257 0
M  V30 2863 C 276.631 3.35828 0.885267 0
M  V30 2864 C 275.585 4.27627 0.178613 0
M  V30 2865 C 274.911 5.20406 1.22807 0
M  V30 2866 C 276.211 5.13459 -0.956933 0
M  V30 2867 H 277.905 2.87966 -0.81951 0
M  V30 2868 H 275.451 1.38461 -0.395538 0
M  V30 2869 H 277.404 3.9924 1.34854 0
M  V30 2870 H 276.128 2.79666 1.68685 0
M  V30 2871 H 274.787 3.65643 -0.26466 0
M  V30 2872 H 274.435 4.60558 2.02226 0
M  V30 2873 H 274.135 5.82661 0.760239 0
M  V30 2874 H 275.659 5.86695 1.69179 0
M  V30 2875 H 277.073 5.70421 -0.573805 0
M  V30 2876 H 275.47 5.8467 -1.35205 0
M  V30 2877 H 276.54 4.50443 -1.79524 0
M  V30 2878 N 277.883 0.443576 1.51229 0
M  V30 2879 C 279.294 -0.0180867 1.86691 0
M  V30 2880 C 279.645 -1.41384 1.36033 0
M  V30 2881 O 278.77 -2.04291 0.713722 0
M  V30 2882 C 279.365 -0.039597 3.38777 0
M  V30 2883 C 277.924 -0.445692 3.73752 0
M  V30 2884 C 277.071 0.357584 2.74985 0
M  V30 2885 H 280.022 0.659138 1.44364 0
M  V30 2886 H 280.043 -0.847761 3.70936 0
M  V30 2887 H 279.555 0.976382 3.75617 0
M  V30 2888 H 277.656 -1.46704 3.42503 0
M  V30 2889 H 277.769 -0.166155 4.78812 0
M  V30 2890 H 276.133 -0.184973 2.54027 0
M  V30 2891 H 276.916 1.37256 3.14668 0
M  V30 2892 N 279.361 -1.56624 0.175154 0
M  V30 2893 C 280.589 -2.01374 -0.474971 0
M  V30 2894 C 281.004 -1.05537 -1.56548 0
M  V30 2895 O 280.361 -0.0568668 -1.82411 0
M  V30 2896 C 280.412 -3.45923 -1.04975 0
M  V30 2897 O 280.133 -4.381 -0.00276605 0
M  V30 2898 C 281.634 -4.06093 -1.77773 0
M  V30 2899 H 278.854 -0.659962 -0.121206 0
M  V30 2900 H 281.398 -2.02601 0.27801 0
M  V30 2901 H 279.553 -3.45458 -1.75321 0
M  V30 2902 H 279.967 -5.22753 -0.427681 0
M  V30 2903 H 281.441 -5.09147 -2.13245 0
M  V30 2904 H 281.918 -3.48405 -2.67414 0
M  V30 2905 H 282.524 -4.10272 -1.12059 0
M  V30 2906 N 280.839 0.0985539 -1.57292 0
M  V30 2907 C 282.067 0.816318 -1.90115 0
M  V30 2908 C 282.482 1.72451 -0.768509 0
M  V30 2909 O 281.839 1.80643 0.259687 0
M  V30 2910 C 281.89 1.63259 -3.22535 0
M  V30 2911 O 281.611 0.760934 -4.31441 0
M  V30 2912 C 283.112 2.45372 -3.69199 0
M  V30 2913 H 280.332 0.233595 -0.629027 0
M  V30 2914 H 282.876 0.0768229 -2.04356 0
M  V30 2915 H 281.031 2.32463 -3.09903 0
M  V30 2916 H 281.445 1.32595 -5.07463 0
M  V30 2917 H 282.919 2.98144 -4.64558 0
M  V30 2918 H 283.396 3.23677 -2.96867 0
M  V30 2919 H 284.002 1.81373 -3.84687 0
M  V30 2920 N 282.317 1.53212 0.369288 0
M  V30 2921 C 283.545 1.73119 1.13303 0
M  V30 2922 C 283.96 0.458455 1.83149 0
M  V30 2923 O 283.317 -0.568403 1.73423 0
M  V30 2924 C 283.368 2.89413 2.16616 0
M  V30 2925 O 283.089 4.11761 1.49614 0
M  V30 2926 C 284.59 3.21161 3.05566 0
M  V30 2927 H 281.81 0.579107 0.338934 0
M  V30 2928 H 284.354 1.99942 0.429338 0
M  V30 2929 H 282.509 2.64994 2.82589 0
M  V30 2930 H 282.923 4.76858 2.18419 0
M  V30 2931 H 284.397 4.05949 3.74045 0
M  V30 2932 H 284.874 2.36369 3.70171 0
M  V30 2933 H 285.48 3.47492 2.45213 0
M  V30 2934 N 283.795 -0.628877 1.44509 0
M  V30 2935 C 285.042 -1.38839 1.47411 0
M  V30 2936 C 285.37 -1.94202 0.10757 0
M  V30 2937 O 284.625 -1.74243 -0.890947 0
M  V30 2938 C 284.924 -2.56995 2.48371 0
M  V30 2939 C 284.59 -2.19908 3.93639 0
M  V30 2940 C 283.252 -2.09506 4.33198 0
M  V30 2941 C 285.604 -1.9064 4.85083 0
M  V30 2942 C 282.932 -1.68028 5.62124 0
M  V30 2943 C 285.284 -1.50655 6.14399 0
M  V30 2944 C 283.948 -1.38796 6.5291 0
M  V30 2945 H 283.218 -0.508048 0.539414 0
M  V30 2946 H 285.865 -0.712913 1.77735 0
M  V30 2947 H 284.17 -3.29786 2.11538 0
M  V30 2948 H 285.867 -3.15223 2.47861 0
M  V30 2949 H 282.457 -2.28922 3.62343 0
M  V30 2950 H 286.641 -1.97585 4.55273 0
M  V30 2951 H 281.897 -1.57452 5.90778 0
M  V30 2952 H 286.071 -1.27048 6.84713 0
M  V30 2953 H 283.698 -1.06429 7.52713 0
M  V30 2954 N 285.273 -1.31445 -0.869486 0
M  V30 2955 C 286.522 -1.20517 -1.61736 0
M  V30 2956 C 286.835 0.235341 -1.94179 0
M  V30 2957 O 288.041 0.466312 -2.67465 0
M  V30 2958 C 286.497 -2.10982 -2.91573 0
M  V30 2959 C 286.105 -3.60032 -2.66611 0
M  V30 2960 C 287.849 -2.08856 -3.69567 0
M  V30 2961 C 285.756 -4.42503 -3.92358 0
M  V30 2962 H 284.686 -0.447493 -0.606849 0
M  V30 2963 H 287.337 -1.56303 -0.96133 0
M  V30 2964 H 285.719 -1.68095 -3.58553 0
M  V30 2965 H 286.893 -4.11167 -2.08035 0
M  V30 2966 H 285.208 -3.64139 -2.0197 0
M  V30 2967 H 287.805 -2.67716 -4.62852 0
M  V30 2968 H 288.148 -1.07582 -4.02159 0
M  V30 2969 H 288.681 -2.49945 -3.09471 0
M  V30 2970 H 285.42 -5.44533 -3.64916 0
M  V30 2971 H 284.94 -3.96125 -4.50383 0
M  V30 2972 H 286.619 -4.54741 -4.60238 0
M  V30 2973 N 286.751 1.08385 -1.14413 0
M  V30 2974 C 287.999 1.80419 -0.910679 0
M  V30 2975 C 288.32 1.86658 0.564243 0
M  V30 2976 O 287.59 1.35985 1.41014 0
M  V30 2977 H 286.17 0.668204 -0.333934 0
M  V30 2978 H 288.832 1.31037 -1.44275 0
M  V30 2979 H 287.928 2.83238 -1.31082 0
M  V30 2980 N 288.23 0.939286 1.26551 0
M  V30 2981 C 289.478 0.58469 1.93457 0
M  V30 2982 C 289.799 -0.878774 1.74076 0
M  V30 2983 O 289.069 -1.62421 1.09528 0
M  V30 2984 H 287.649 0.21325 0.715914 0
M  V30 2985 H 290.311 1.1942 1.54029 0
M  V30 2986 H 289.407 0.800849 3.0165 0
M  V30 2987 N 289.708 -1.40897 0.706093 0
M  V30 2988 C 290.64 -2.29199 0.00815776 0
M  V30 2989 C 291.653 -1.45336 -0.733582 0
M  V30 2990 O 292.842 -1.68727 -0.582537 0
M  V30 2991 C 289.942 -3.23417 -1.01265 0
M  V30 2992 C 289.115 -4.36089 -0.338387 0
M  V30 2993 C 288.174 -5.10811 -1.26326 0
M  V30 2994 O 287.2 -5.64215 -0.751651 0
M  V30 2995 N 288.402 -5.19269 -2.595 0
M  V30 2996 H 291.167 -2.89738 0.766297 0
M  V30 2997 H 288.728 -1.52164 0.55296 0
M  V30 2998 H 290.72 -3.70276 -1.63334 0
M  V30 2999 H 289.29 -2.64112 -1.67223 0
M  V30 3000 H 288.51 -3.91479 0.462352 0
M  V30 3001 H 289.798 -5.08634 0.130031 0
M  V30 3002 H 289.196 -4.77347 -3.03573 0
M  V30 3003 H 287.753 -5.69667 -3.16737 0
M  V30 3004 N 291.186 -0.45159 -1.50991 0
M  V30 3005 C 292.096 0.358431 -2.31846 0
M  V30 3006 C 293.112 1.01438 -1.41373 0
M  V30 3007 O 294.288 1.00663 -1.74439 0
M  V30 3008 C 291.353 1.43704 -3.15515 0
M  V30 3009 C 290.414 0.799742 -4.21785 0
M  V30 3010 C 289.647 1.82696 -5.01456 0
M  V30 3011 O 289.87 3.05105 -4.81941 0
M  V30 3012 O 288.804 1.40958 -5.85162 0
M  V30 3013 H 292.63 -0.302032 -3.02194 0
M  V30 3014 H 290.215 -0.213825 -1.47862 0
M  V30 3015 H 292.097 2.06227 -3.67489 0
M  V30 3016 H 290.772 2.08133 -2.47916 0
M  V30 3017 H 289.679 0.136084 -3.73852 0
M  V30 3018 H 291.012 0.198718 -4.91799 0
M  V30 3019 N 292.664 1.56529 -0.183458 0
M  V30 3020 C 293.889 2.02064 0.467428 0
M  V30 3021 C 294.314 1.06282 1.55196 0
M  V30 3022 O 293.672 0.0443565 1.81246 0
M  V30 3023 C 293.72 3.46122 1.01153 0
M  V30 3024 O 292.824 3.53437 2.12499 0
M  V30 3025 H 292.165 0.654726 0.110588 0
M  V30 3026 H 294.695 2.02521 -0.290917 0
M  V30 3027 H 294.705 3.85676 1.33108 0
M  V30 3028 H 293.38 4.15331 0.217533 0
M  V30 3029 H 291.957 3.2575 1.81497 0
M  V30 3030 N 294.142 -0.090211 1.57342 0
M  V30 3031 C 295.105 -1.09335 2.01441 0
M  V30 3032 C 296.105 -1.32666 0.908641 0
M  V30 3033 O 297.295 -1.28697 1.174 0
M  V30 3034 C 294.427 -2.44136 2.3793 0
M  V30 3035 H 295.62 -0.713662 2.91285 0
M  V30 3036 H 293.173 -0.335404 1.52659 0
M  V30 3037 H 293.908 -2.86972 1.51055 0
M  V30 3038 H 293.693 -2.28548 3.18603 0
M  V30 3039 H 295.183 -3.16277 2.72688 0
M  V30 3040 N 295.62 -1.53406 -0.361157 0
M  V30 3041 C 296.55 -1.83136 -1.44857 0
M  V30 3042 C 297.531 -0.685174 -1.5569 0
M  V30 3043 O 298.716 -0.93544 -1.70186 0
M  V30 3044 C 295.846 -2.02522 -2.82138 0
M  V30 3045 C 294.8 -3.18302 -2.86126 0
M  V30 3046 C 294.126 -3.22989 -4.26125 0
M  V30 3047 C 295.426 -4.56796 -2.53248 0
M  V30 3048 H 297.12 -2.74201 -1.20226 0
M  V30 3049 H 294.666 -1.31938 -0.576922 0
M  V30 3050 H 296.619 -2.21904 -3.58241 0
M  V30 3051 H 295.343 -1.08172 -3.08166 0
M  V30 3052 H 294.002 -2.98747 -2.12475 0
M  V30 3053 H 293.65 -2.26267 -4.49235 0
M  V30 3054 H 293.35 -4.00781 -4.29708 0
M  V30 3055 H 294.874 -3.44559 -5.04094 0
M  V30 3056 H 296.288 -4.7631 -3.19064 0
M  V30 3057 H 294.685 -5.36862 -2.68141 0
M  V30 3058 H 295.755 -4.61606 -1.48484 0
M  V30 3059 N 297.098 0.621204 -1.44841 0
M  V30 3060 C 298.509 1.20298 -1.42777 0
M  V30 3061 C 298.86 1.95639 -0.148259 0
M  V30 3062 O 297.985 2.02955 0.750892 0
M  V30 3063 C 298.58 2.1882 -2.58657 0
M  V30 3064 C 297.139 2.72403 -2.59756 0
M  V30 3065 C 296.286 1.4757 -2.34773 0
M  V30 3066 H 299.237 0.411297 -1.53278 0
M  V30 3067 H 299.258 3.01607 -2.31977 0
M  V30 3068 H 298.77 1.63957 -3.51766 0
M  V30 3069 H 296.871 3.31242 -1.70615 0
M  V30 3070 H 296.984 3.17765 -3.58556 0
M  V30 3071 H 295.348 1.76051 -1.8406 0
M  V30 3072 H 296.131 0.945954 -3.3001 0
M  V30 3073 N 298.576 1.31904 0.862503 0
M  V30 3074 C 299.506 1.22782 1.98612 0
M  V30 3075 C 300.487 0.113362 1.69722 0
M  V30 3076 O 301.672 0.299218 1.91881 0
M  V30 3077 C 298.802 0.942058 3.34279 0
M  V30 3078 C 297.756 2.0169 3.77499 0
M  V30 3079 C 297.082 1.58369 5.10709 0
M  V30 3080 C 298.382 3.43096 3.93805 0
M  V30 3081 H 300.076 2.16788 2.06502 0
M  V30 3082 H 297.622 1.04366 0.992154 0
M  V30 3083 H 299.575 0.864818 4.1243 0
M  V30 3084 H 298.299 -0.0336603 3.26583 0
M  V30 3085 H 296.958 2.08416 3.01593 0
M  V30 3086 H 296.606 0.595628 4.99461 0
M  V30 3087 H 296.306 2.30279 5.40597 0
M  V30 3088 H 297.83 1.52067 5.91361 0
M  V30 3089 H 299.244 3.39003 4.62331 0
M  V30 3090 H 297.641 4.13288 4.35101 0
M  V30 3091 H 298.711 3.83334 2.96957 0
M  V30 3092 N 300.054 -1.07777 1.14986 0
M  V30 3093 C 301.47 -1.32373 0.891596 0
M  V30 3094 C 301.67 -1.9609 -0.463788 0
M  V30 3095 O 300.726 -2.21801 -1.20667 0
M  V30 3096 C 302.039 -2.21905 2.02925 0
M  V30 3097 C 303.587 -2.35367 2.06329 0
M  V30 3098 C 304.062 -3.28245 3.19405 0
M  V30 3099 N 305.553 -3.35824 3.19024 0
M  V30 3100 C 306.288 -4.07739 4.03158 0
M  V30 3101 N 305.784 -4.82306 4.97346 0
M  V30 3102 N 307.577 -4.03635 3.91197 0
M  V30 3103 H 299.728 -0.648039 2.02273 0
M  V30 3104 H 301.991 -0.348149 0.881757 0
M  V30 3105 H 301.697 -1.82342 3.0074 0
M  V30 3106 H 301.571 -3.22407 1.95789 0
M  V30 3107 H 303.958 -2.74186 1.09116 0
M  V30 3108 H 304.039 -1.34585 2.17533 0
M  V30 3109 H 303.683 -2.90146 4.16867 0
M  V30 3110 H 303.613 -4.28971 3.05437 0
M  V30 3111 H 306.104 -2.8267 2.50811 0
M  V30 3112 H 306.417 -5.34661 5.57994 0
M  V30 3113 H 304.762 -4.81337 5.01338 0
M  V30 3114 H 307.953 -3.44491 3.16928 0
M  V30 3115 H 308.126 -4.59417 4.5699 0
M  V30 3116 N 301.532 -0.945985 -1.26051 0
M  V30 3117 C 302.442 -0.465633 -2.29933 0
M  V30 3118 C 303.458 0.462761 -1.67733 0
M  V30 3119 O 304.634 0.341118 -1.9849 0
M  V30 3120 C 301.699 0.256994 -3.45746 0
M  V30 3121 C 300.76 -0.708549 -4.23412 0
M  V30 3122 C 299.993 -0.0203135 -5.33696 0
M  V30 3123 O 300.216 1.19571 -5.57726 0
M  V30 3124 O 299.15 -0.701459 -5.97799 0
M  V30 3125 H 302.976 -1.32866 -2.73094 0
M  V30 3126 H 300.561 -0.712071 -1.31339 0
M  V30 3127 H 302.443 0.663852 -4.16138 0
M  V30 3128 H 301.118 1.09533 -3.04605 0
M  V30 3129 H 300.025 -1.16545 -3.55483 0
M  V30 3130 H 301.358 -1.51465 -4.68315 0
M  V30 3131 N 303.011 1.40521 -0.713556 0
M  V30 3132 C 304.26 2.00155 -0.249192 0
M  V30 3133 C 304.573 1.57224 1.16362 0
M  V30 3134 O 305.779 2.09542 1.72639 0
M  V30 3135 C 304.235 3.5773 -0.3946 0
M  V30 3136 C 303.843 4.09635 -1.81392 0
M  V30 3137 C 305.587 4.24499 0.00907364 0
M  V30 3138 C 303.494 5.59707 -1.91003 0
M  V30 3139 H 302.424 0.74868 -0.0894114 0
M  V30 3140 H 305.075 1.60784 -0.884352 0
M  V30 3141 H 303.457 3.94792 0.30911 0
M  V30 3142 H 304.631 3.83955 -2.54785 0
M  V30 3143 H 302.946 3.55456 -2.16888 0
M  V30 3144 H 305.543 5.34683 -0.0420404 0
M  V30 3145 H 305.886 4.02824 1.05065 0
M  V30 3146 H 306.419 3.92536 -0.645007 0
M  V30 3147 H 303.158 5.86234 -2.93275 0
M  V30 3148 H 302.678 5.87258 -1.22019 0
M  V30 3149 H 304.357 6.24776 -1.6812 0
M  V30 3150 N 304.489 0.459591 1.5075 0
M  V30 3151 C 305.738 -0.100971 2.01447 0
M  V30 3152 C 306.051 -1.41816 1.34713 0
M  V30 3153 O 307.257 -2.06299 1.76502 0
M  V30 3154 C 305.713 -0.23047 3.59161 0
M  V30 3155 C 305.321 1.0776 4.34847 0
M  V30 3156 C 307.065 -0.743608 4.17936 0
M  V30 3157 C 304.972 0.91253 5.84317 0
M  V30 3158 H 303.902 -0.0415102 0.752856 0
M  V30 3159 H 306.553 0.592742 1.73663 0
M  V30 3160 H 304.935 -0.987703 3.83485 0
M  V30 3161 H 306.109 1.8449 4.22256 0
M  V30 3162 H 304.424 1.52097 3.87628 0
M  V30 3163 H 307.021 -0.883959 5.27343 0
M  V30 3164 H 307.364 -1.73196 3.78562 0
M  V30 3165 H 307.897 -0.04408 3.97776 0
M  V30 3166 H 304.636 1.87391 6.28144 0
M  V30 3167 H 304.156 0.185422 5.99513 0
M  V30 3168 H 305.835 0.574547 6.44444 0
M  V30 3169 N 305.967 -1.56429 0.191757 0
M  V30 3170 C 307.383 -1.58754 -0.164137 0
M  V30 3171 C 307.583 -1.20782 -1.61288 0
M  V30 3172 O 306.639 -0.928999 -2.34789 0
M  V30 3173 C 307.952 -3.00396 0.135195 0
M  V30 3174 C 309.5 -3.1291 0.0750351 0
M  V30 3175 C 309.975 -4.56679 0.347632 0
M  V30 3176 N 311.466 -4.62252 0.296131 0
M  V30 3177 C 312.201 -5.71379 0.480948 0
M  V30 3178 N 311.697 -6.88986 0.725933 0
M  V30 3179 N 313.49 -5.60563 0.415435 0
M  V30 3180 H 305.641 -1.79393 1.13718 0
M  V30 3181 H 307.904 -0.832414 0.453643 0
M  V30 3182 H 307.61 -3.32726 1.13958 0
M  V30 3183 H 307.484 -3.72963 -0.563773 0
M  V30 3184 H 309.871 -2.80394 -0.919948 0
M  V30 3185 H 309.952 -2.42736 0.807029 0
M  V30 3186 H 309.596 -4.89907 1.33992 0
M  V30 3187 H 309.526 -5.25039 -0.405212 0
M  V30 3188 H 312.017 -3.7773 0.113259 0
M  V30 3189 H 312.33 -7.68046 0.855857 0
M  V30 3190 H 310.675 -6.90801 0.762788 0
M  V30 3191 H 313.866 -4.67561 0.224486 0
M  V30 3192 H 314.039 -6.45551 0.562889 0
M  V30 3193 N 307.445 0.0818655 -1.57387 0
M  V30 3194 C 308.861 0.436412 -1.53517 0
M  V30 3195 C 309.061 1.79758 -0.910459 0
M  V30 3196 O 308.117 2.47324 -0.508636 0
M  V30 3197 C 309.43 0.386734 -2.98203 0
M  V30 3198 C 310.978 0.467644 -3.09487 0
M  V30 3199 C 311.453 0.447978 -4.55804 0
M  V30 3200 N 312.944 0.508348 -4.60402 0
M  V30 3201 C 313.679 0.515184 -5.71081 0
M  V30 3202 N 313.175 0.477435 -6.91153 0
M  V30 3203 N 314.968 0.560988 -5.59294 0
M  V30 3204 H 307.119 -0.809546 -1.96367 0
M  V30 3205 H 309.382 -0.302733 -0.898363 0
M  V30 3206 H 309.088 -0.546539 -3.47427 0
M  V30 3207 H 308.962 1.20075 -3.57578 0
M  V30 3208 H 311.349 1.39134 -2.60242 0
M  V30 3209 H 311.43 -0.374753 -2.5304 0
M  V30 3210 H 311.074 -0.471826 -5.05704 0
M  V30 3211 H 311.004 1.30777 -5.10103 0
M  V30 3212 H 313.495 0.54218 -3.7399 0
M  V30 3213 H 313.808 0.486299 -7.71268 0
M  V30 3214 H 312.153 0.444278 -6.93579 0
M  V30 3215 H 315.344 0.5881 -4.64391 0
M  V30 3216 H 315.517 0.562846 -6.45551 0
M  V30 3217 N 308.923 1.53595 0.353017 0
M  V30 3218 C 309.853 1.83902 1.43883 0
M  V30 3219 C 310.834 0.693421 1.55324 0
M  V30 3220 O 312.019 0.944452 1.69687 0
M  V30 3221 C 309.149 2.04016 2.8106 0
M  V30 3222 C 308.103 3.19814 2.84434 0
M  V30 3223 C 307.429 3.25244 4.24406 0
M  V30 3224 C 308.729 4.58133 2.50822 0
M  V30 3225 H 310.423 2.74835 1.1877 0
M  V30 3226 H 307.969 1.32242 0.569917 0
M  V30 3227 H 309.922 2.238 3.57059 0
M  V30 3228 H 308.646 1.09804 3.07588 0
M  V30 3229 H 307.305 2.9987 2.10887 0
M  V30 3230 H 306.953 2.28646 4.48029 0
M  V30 3231 H 306.653 4.03054 4.27576 0
M  V30 3232 H 308.177 3.47228 5.0226 0
M  V30 3233 H 309.591 4.77995 3.16534 0
M  V30 3234 H 307.988 5.38276 2.6529 0
M  V30 3235 H 309.058 4.62387 1.46034 0
M  V30 3236 N 310.401 -0.613514 1.45168 0
M  V30 3237 C 311.311 -1.75296 1.55912 0
M  V30 3238 C 312.327 -1.68244 0.443856 0
M  V30 3239 O 313.503 -1.88706 0.70371 0
M  V30 3240 C 310.568 -3.1174 1.5172 0
M  V30 3241 C 309.629 -3.30291 2.74238 0
M  V30 3242 C 308.862 -4.60226 2.70236 0
M  V30 3243 O 309.085 -5.42168 1.77229 0
M  V30 3244 O 308.019 -4.81361 3.61352 0
M  V30 3245 H 311.845 -1.69183 2.52212 0
M  V30 3246 H 309.43 -0.776886 1.27612 0
M  V30 3247 H 311.312 -3.93044 1.51968 0
M  V30 3248 H 309.987 -3.18357 0.585697 0
M  V30 3249 H 308.894 -2.48598 2.79553 0
M  V30 3250 H 310.227 -3.28547 3.66494 0
M  V30 3251 N 311.879 -1.3236 -0.855495 0
M  V30 3252 C 312.812 -1.15559 -1.96777 0
M  V30 3253 C 313.79 -0.0552681 -1.62506 0
M  V30 3254 O 314.974 -0.214419 -1.87277 0
M  V30 3255 C 312.101 -0.768851 -3.29858 0
M  V30 3256 C 311.147 -1.87429 -3.83109 0
M  V30 3257 S 311.98 -3.48243 -4.06801 0
M  V30 3258 C 313.136 -3.11539 -5.42858 0
M  V30 3259 H 313.369 -2.09717 -2.10727 0
M  V30 3260 H 310.902 -1.17011 -1.00737 0
M  V30 3261 H 312.86 -0.55248 -4.06765 0
M  V30 3262 H 311.521 0.153857 -3.13723 0
M  V30 3263 H 310.714 -1.55667 -4.79358 0
M  V30 3264 H 310.316 -2.04647 -3.13042 0
M  V30 3265 H 312.608 -2.61331 -6.2507 0
M  V30 3266 H 313.551 -4.06806 -5.79582 0
M  V30 3267 H 313.959 -2.48582 -5.06821 0
M  V30 3268 N 313.357 1.07166 -1.15556 0
M  V30 3269 C 314.32 2.12589 -0.856644 0
M  V30 3270 C 315.32 1.6015 0.14444 0
M  V30 3271 O 316.51 1.7399 -0.0854163 0
M  V30 3272 C 313.642 3.39753 -0.279405 0
M  V30 3273 H 314.835 2.40539 -1.79112 0
M  V30 3274 H 312.388 1.23086 -0.963298 0
M  V30 3275 H 313.123 3.17447 0.663174 0
M  V30 3276 H 312.908 3.79117 -1.00063 0
M  V30 3277 H 314.398 4.17507 -0.0879113 0
M  V30 3278 N 314.835 0.952656 1.25548 0
M  V30 3279 C 316.065 0.622592 1.96996 0
M  V30 3280 C 316.473 -0.809112 1.71026 0
M  V30 3281 O 315.816 -1.55258 0.981861 0
M  V30 3282 C 315.878 0.798946 3.5051 0
M  V30 3283 C 315.542 2.20744 4.00151 0
M  V30 3284 C 316.539 3.18394 4.11001 0
M  V30 3285 C 314.224 2.5311 4.33867 0
M  V30 3286 C 316.218 4.46504 4.54877 0
M  V30 3287 C 313.905 3.8145 4.7743 0
M  V30 3288 C 314.903 4.77959 4.87897 0
M  V30 3289 O 314.591 6.04012 5.30494 0
M  V30 3290 H 314.323 0.232503 0.634758 0
M  V30 3291 H 316.877 1.2789 1.60728 0
M  V30 3292 H 315.107 0.0854903 3.86605 0
M  V30 3293 H 316.796 0.47023 4.03167 0
M  V30 3294 H 317.562 2.94715 3.85186 0
M  V30 3295 H 313.441 1.78719 4.24948 0
M  V30 3296 H 316.985 5.21835 4.62962 0
M  V30 3297 H 312.882 4.04936 5.0269 0
M  V30 3298 H 313.65 6.0736 5.48685 0
M  V30 3299 N 316.313 -1.40141 0.720998 0
M  V30 3300 C 317.553 -2.02644 0.267335 0
M  V30 3301 C 317.917 -1.55948 -1.12001 0
M  V30 3302 O 319.118 -2.10552 -1.67097 0
M  V30 3303 C 317.389 -3.55679 0.350281 0
M  V30 3304 S 318.948 -4.38793 -0.0256004 0
M  V30 3305 H 315.766 -0.703105 0.105664 0
M  V30 3306 H 318.368 -1.71175 0.944416 0
M  V30 3307 H 317.072 -3.87157 1.36153 0
M  V30 3308 H 316.603 -3.91883 -0.345096 0
M  V30 3309 H 318.618 -4.803 -1.24604 0
M  V30 3310 N 317.792 -0.46758 -1.50504 0
M  V30 3311 C 318.724 0.364655 -2.26281 0
M  V30 3312 C 319.737 0.960151 -1.31472 0
M  V30 3313 O 320.926 0.849153 -1.57008 0
M  V30 3314 C 318.026 1.52509 -3.02645 0
M  V30 3315 C 317.199 1.04302 -4.24782 0
M  V30 3316 C 316.258 2.07709 -4.8347 0
M  V30 3317 O 315.284 1.65913 -5.44483 0
M  V30 3318 N 316.486 3.40485 -4.70159 0
M  V30 3319 H 319.251 -0.28495 -2.98342 0
M  V30 3320 H 316.812 -0.298163 -1.59131 0
M  V30 3321 H 318.804 2.21371 -3.38787 0
M  V30 3322 H 317.374 2.07945 -2.33404 0
M  V30 3323 H 316.594 0.180393 -3.93787 0
M  V30 3324 H 317.882 0.698798 -5.03978 0
M  V30 3325 H 317.28 3.77155 -4.21629 0
M  V30 3326 H 315.837 4.05156 -5.1058 0
M  V30 3327 N 319.27 1.56325 -0.20005 0
M  V30 3328 C 320.22 2.15939 0.731743 0
M  V30 3329 C 321.204 1.10154 1.17281 0
M  V30 3330 O 322.396 1.36203 1.13038 0
M  V30 3331 C 319.525 2.82614 1.94895 0
M  V30 3332 C 318.611 3.95596 1.52855 0
M  V30 3333 N 319.002 4.99118 0.819418 0
M  V30 3334 C 317.3 4.07288 1.81748 0
M  V30 3335 C 318.001 5.78513 0.608053 0
M  V30 3336 N 316.977 5.31117 1.15828 0
M  V30 3337 H 320.779 2.9334 0.181285 0
M  V30 3338 H 318.293 1.624 -0.000452172 0
M  V30 3339 H 320.29 3.23718 2.62702 0
M  V30 3340 H 318.95 2.06702 2.50408 0
M  V30 3341 H 319.961 5.15723 0.47436 0
M  V30 3342 H 316.638 3.42509 2.38734 0
M  V30 3343 H 318.028 6.71885 0.0451619 0
M  V30 3344 N 320.748 -0.0735177 1.57428 0
M  V30 3345 C 321.997 -0.771809 1.86349 0
M  V30 3346 C 322.31 -1.78828 0.792452 0
M  V30 3347 O 323.516 -2.53602 0.96945 0
M  V30 3348 C 321.972 -1.42358 3.30548 0
M  V30 3349 C 321.58 -0.445761 4.45777 0
M  V30 3350 C 323.324 -2.10434 3.6867 0
M  V30 3351 C 321.231 -1.10335 5.81016 0
M  V30 3352 H 320.161 -0.291999 0.695164 0
M  V30 3353 H 322.812 -0.0250749 1.83483 0
M  V30 3354 H 321.194 -2.21852 3.28021 0
M  V30 3355 H 322.368 0.319239 4.59693 0
M  V30 3356 H 320.683 0.130457 4.16196 0
M  V30 3357 H 323.28 -2.60405 4.67004 0
M  V30 3358 H 323.623 -2.90298 2.98383 0
M  V30 3359 H 324.156 -1.37773 3.7318 0
M  V30 3360 H 320.895 -0.345061 6.54591 0
M  V30 3361 H 320.415 -1.83925 5.70904 0
M  V30 3362 H 322.094 -1.62367 6.26295 0
M  V30 3363 N 322.226 -1.5378 -0.344866 0
M  V30 3364 C 323.474 -1.70625 -1.08311 0
M  V30 3365 C 323.795 -0.471447 -1.89215 0
M  V30 3366 O 323.065 0.514616 -1.8902 0
M  V30 3367 H 321.645 -0.629058 -0.402859 0
M  V30 3368 H 324.307 -1.9103 -0.386459 0
M  V30 3369 H 323.403 -2.57656 -1.76124 0
M  V30 3370 N 323.704 0.605807 -1.45491 0
M  V30 3371 C 324.95 1.36679 -1.49823 0
M  V30 3372 C 325.283 1.93693 -0.140175 0
M  V30 3373 O 324.558 1.75158 0.845581 0
M  V30 3374 C 324.841 2.51337 -2.57879 0
M  V30 3375 C 324.694 1.99508 -4.03134 0
M  V30 3376 C 326.013 3.53463 -2.62205 0
M  V30 3377 H 323.132 0.495617 -0.545466 0
M  V30 3378 H 325.774 0.682732 -1.7731 0
M  V30 3379 H 323.924 3.09691 -2.34571 0
M  V30 3380 H 325.596 1.45789 -4.37656 0
M  V30 3381 H 323.839 1.30496 -4.13707 0
M  V30 3382 H 324.51 2.82169 -4.74431 0
M  V30 3383 H 326.986 3.04953 -2.83095 0
M  V30 3384 H 325.862 4.31178 -3.39672 0
M  V30 3385 H 326.123 4.09197 -1.67363 0
M  V30 3386 N 325.182 1.32811 0.848464 0
M  V30 3387 C 326.092 1.24278 1.98978 0
M  V30 3388 C 327.108 0.155176 1.73307 0
M  V30 3389 O 328.284 0.376999 1.9784 0
M  V30 3390 C 325.349 0.972444 3.32783 0
M  V30 3391 C 324.41 2.14911 3.71634 0
M  V30 3392 C 323.643 1.89157 4.99054 0
M  V30 3393 O 323.866 0.837165 5.64223 0
M  V30 3394 O 322.8 2.75433 5.35183 0
M  V30 3395 H 326.626 2.20238 2.09115 0
M  V30 3396 H 324.211 1.12762 0.980052 0
M  V30 3397 H 326.093 0.838432 4.12975 0
M  V30 3398 H 324.768 0.043051 3.23671 0
M  V30 3399 H 323.675 2.33862 2.91992 0
M  V30 3400 H 325.008 3.06151 3.85399 0
M  V30 3401 N 326.66 -1.06551 1.16123 0
M  V30 3402 C 327.907 -1.79302 0.941126 0
M  V30 3403 C 328.235 -1.87105 -0.531235 0
M  V30 3404 O 327.49 -1.35692 -1.41018 0
M  V30 3405 C 327.789 -3.23911 1.51052 0
M  V30 3406 C 327.455 -3.36193 3.00475 0
M  V30 3407 C 326.117 -3.39252 3.41265 0
M  V30 3408 C 328.469 -3.38326 3.96465 0
M  V30 3409 C 325.797 -3.42057 4.76669 0
M  V30 3410 C 328.149 -3.4267 5.31752 0
M  V30 3411 C 326.813 -3.4401 5.72026 0
M  V30 3412 H 326.083 -0.656111 0.344382 0
M  V30 3413 H 328.73 -1.25325 1.44796 0
M  V30 3414 H 327.035 -3.80723 0.925063 0
M  V30 3415 H 328.732 -3.78793 1.31593 0
M  V30 3416 H 325.322 -3.34516 2.6795 0
M  V30 3417 H 329.506 -3.35176 3.6602 0
M  V30 3418 H 324.762 -3.41398 5.07206 0
M  V30 3419 H 328.936 -3.43268 6.05921 0
M  V30 3420 H 326.563 -3.45937 6.76928 0
M  V30 3421 N 328.138 -0.959301 -1.25041 0
M  V30 3422 C 329.071 -0.427418 -2.24161 0
M  V30 3423 C 330.049 0.493837 -1.54919 0
M  V30 3424 O 331.233 0.427144 -1.83597 0
M  V30 3425 C 328.36 0.383893 -3.36517 0
M  V30 3426 C 327.406 -0.478431 -4.23808 0
M  V30 3427 S 328.239 -1.91353 -5.00144 0
M  V30 3428 C 329.395 -1.11077 -6.15965 0
M  V30 3429 H 329.628 -1.26743 -2.6893 0
M  V30 3430 H 327.161 -0.763714 -1.34189 0
M  V30 3431 H 329.119 0.846039 -4.01687 0
M  V30 3432 H 327.78 1.19878 -2.90324 0
M  V30 3433 H 326.973 0.14406 -5.03794 0
M  V30 3434 H 326.575 -0.87597 -3.63597 0
M  V30 3435 H 328.867 -0.361699 -6.76534 0
M  V30 3436 H 329.81 -1.88472 -6.82557 0
M  V30 3437 H 330.218 -0.638843 -5.60873 0
M  V30 3438 N 329.616 1.39756 -0.72842 0
M  V30 3439 C 330.863 2.00645 -0.273487 0
M  V30 3440 C 331.191 1.57786 1.13727 0
M  V30 3441 O 330.446 0.794886 1.7883 0
M  V30 3442 C 330.745 3.56002 -0.315776 0
M  V30 3443 C 330.411 4.18489 -1.67863 0
M  V30 3444 C 329.073 4.3527 -2.05166 0
M  V30 3445 C 331.425 4.53219 -2.57375 0
M  V30 3446 C 328.753 4.84069 -3.31503 0
M  V30 3447 C 331.105 5.03423 -3.83077 0
M  V30 3448 C 329.769 5.18413 -4.20481 0
M  V30 3449 H 329.039 0.734211 -0.100076 0
M  V30 3450 H 331.686 1.6718 -0.933972 0
M  V30 3451 H 329.991 3.89452 0.428285 0
M  V30 3452 H 331.688 4.00963 0.0542575 0
M  V30 3453 H 328.278 4.05824 -1.37858 0
M  V30 3454 H 332.462 4.39878 -2.29827 0
M  V30 3455 H 327.718 4.93859 -3.60435 0
M  V30 3456 H 331.892 5.2927 -4.52599 0
M  V30 3457 H 329.519 5.55987 -5.18443 0
M  V30 3458 N 331.094 0.475555 1.50254 0
M  V30 3459 C 332.343 -0.0795996 2.01543 0
M  V30 3460 C 332.656 -1.4038 1.36209 0
M  V30 3461 O 333.862 -2.04415 1.7868 0
M  V30 3462 C 332.318 -0.192363 3.59386 0
M  V30 3463 C 331.926 1.12367 4.33679 0
M  V30 3464 C 333.67 -0.699238 4.18701 0
M  V30 3465 C 331.577 0.974453 5.83317 0
M  V30 3466 H 330.507 -0.0335228 0.753254 0
M  V30 3467 H 333.158 0.611128 1.73025 0
M  V30 3468 H 331.54 -0.946974 3.84511 0
M  V30 3469 H 332.714 1.88958 4.20276 0
M  V30 3470 H 331.029 1.562 3.85993 0
M  V30 3471 H 333.626 -0.827978 5.28251 0
M  V30 3472 H 333.969 -1.69171 3.80377 0
M  V30 3473 H 334.502 -0.00188807 3.978 0
M  V30 3474 H 331.241 1.94042 6.26121 0
M  V30 3475 H 330.761 0.248998 5.99283 0
M  V30 3476 H 332.44 0.642867 6.43798 0
M  V30 3477 N 332.573 -1.56217 0.208337 0
M  V30 3478 C 333.521 -2.21053 -0.723769 0
M  V30 3479 C 334.515 -1.18578 -1.20978 0
M  V30 3480 O 335.721 -1.36691 -1.17114 0
M  V30 3481 H 332.096 -0.708595 -0.251788 0
M  V30 3482 H 334.067 -2.98006 -0.153365 0
M  V30 3483 C 332.816 -2.89417 -1.927 0
M  V30 3484 H 332.139 -3.68019 -1.56212 0
M  V30 3485 H 333.579 -3.38201 -2.55727 0
M  V30 3486 C 332.038 -1.91166 -2.77411 0
M  V30 3487 O 332.568 -1.42026 -3.75754 0
M  V30 3488 N 330.774 -1.59105 -2.43175 0
M  V30 3489 H 330.321 -1.99259 -1.63259 0
M  V30 3490 H 330.279 -0.936255 -3.00136 0
M  V30 3491 N 334.051 0.0651679 -1.57465 0
M  V30 3492 C 335.328 0.79644 -1.78651 0
M  V30 3493 C 335.708 1.95454 -0.797566 0
M  V30 3494 O 335.056 2.27882 0.167946 0
M  V30 3495 C 335.266 1.26322 -3.25337 0
M  V30 3496 C 336.614 1.6939 -3.89348 0
M  V30 3497 O 337.638 1.35872 -3.29268 0
M  V30 3498 O 336.497 2.31471 -4.95059 0
M  V30 3499 H 333.591 0.382157 -0.733407 0
M  V30 3500 H 336.137 0.0447311 -1.69641 0
M  V30 3501 H 334.909 0.434859 -3.88876 0
M  V30 3502 H 334.532 2.07604 -3.39096 0
M  V30 3503 N 335.529 1.53961 0.336706 0
M  V30 3504 C 336.459 1.85417 1.41925 0
M  V30 3505 C 337.44 0.709856 1.5458 0
M  V30 3506 O 338.625 0.962396 1.68676 0
M  V30 3507 C 335.755 2.06985 2.78881 0
M  V30 3508 C 334.709 3.22813 2.81026 0
M  V30 3509 C 334.035 3.29727 4.20932 0
M  V30 3510 C 335.335 4.60767 2.45949 0
M  V30 3511 H 337.029 2.76079 1.15848 0
M  V30 3512 H 334.575 1.32839 0.555859 0
M  V30 3513 H 336.528 2.27575 3.54665 0
M  V30 3514 H 335.252 1.13061 3.06406 0
M  V30 3515 H 333.911 3.0209 2.07695 0
M  V30 3516 H 333.559 2.33385 4.45579 0
M  V30 3517 H 333.259 4.07566 4.23277 0
M  V30 3518 H 334.783 3.52536 4.98549 0
M  V30 3519 H 336.197 4.81325 3.11446 0
M  V30 3520 H 334.594 5.4106 2.59566 0
M  V30 3521 H 335.664 4.6391 1.41122 0
M  V30 3522 N 337.007 -0.598083 1.45811 0
M  V30 3523 C 337.917 -1.73632 1.57763 0
M  V30 3524 C 338.933 -1.67763 0.461676 0
M  V30 3525 O 340.109 -1.87949 0.723685 0
M  V30 3526 C 337.174 -3.10114 1.55018 0
M  V30 3527 C 336.235 -3.27364 2.77726 0
M  V30 3528 C 335.468 -4.57334 2.75102 0
M  V30 3529 O 335.691 -5.40258 1.8297 0
M  V30 3530 O 334.625 -4.77502 3.66437 0
M  V30 3531 H 338.451 -1.66498 2.53992 0
M  V30 3532 H 336.036 -0.763308 1.28429 0
M  V30 3533 H 337.918 -3.9141 1.56129 0
M  V30 3534 H 336.593 -3.17718 0.619431 0
M  V30 3535 H 335.5 -2.45619 2.82174 0
M  V30 3536 H 336.833 -3.24641 3.69958 0
M  V30 3537 N 338.485 -1.33259 -0.841409 0
M  V30 3538 C 339.417 -1.19136 -1.95804 0
M  V30 3539 C 340.43 -0.122965 -1.62335 0
M  V30 3540 O 341.619 -0.373154 -1.74556 0
M  V30 3541 C 338.719 -0.804268 -3.29218 0
M  V30 3542 C 337.892 -1.96376 -3.90839 0
M  V30 3543 C 336.951 -1.55806 -5.02604 0
M  V30 3544 O 335.977 -2.27203 -5.21888 0
M  V30 3545 N 337.179 -0.461609 -5.78662 0
M  V30 3546 H 339.944 -2.15326 -2.08458 0
M  V30 3547 H 337.505 -1.25971 -1.017 0
M  V30 3548 H 339.497 -0.51501 -4.0141 0
M  V30 3549 H 338.067 0.0668809 -3.12528 0
M  V30 3550 H 337.287 -2.41879 -3.11269 0
M  V30 3551 H 338.575 -2.73966 -4.28742 0
M  V30 3552 H 337.973 0.132343 -5.65545 0
M  V30 3553 H 336.53 -0.232013 -6.51387 0
M  V30 3554 N 339.963 1.05934 -1.16686 0
M  V30 3555 C 341.203 1.80382 -0.961345 0
M  V30 3556 C 341.567 1.85331 0.501643 0
M  V30 3557 O 342.768 2.55795 0.825986 0
M  V30 3558 C 341.039 3.20777 -1.57596 0
M  V30 3559 S 342.598 4.11795 -1.51559 0
M  V30 3560 H 339.416 0.621332 -0.345641 0
M  V30 3561 H 342.018 1.27157 -1.48497 0
M  V30 3562 H 340.722 3.14773 -2.63337 0
M  V30 3563 H 340.253 3.79078 -1.05182 0
M  V30 3564 H 342.268 4.93485 -0.518374 0
M  V30 3565 N 341.441 0.965919 1.2453 0
M  V30 3566 C 342.373 0.452465 2.2469 0
M  V30 3567 C 343.386 -0.437821 1.56802 0
M  V30 3568 O 344.575 -0.244283 1.76821 0
M  V30 3569 C 341.675 -0.366258 3.36915 0
M  V30 3570 C 340.848 0.513701 4.34373 0
M  V30 3571 C 339.907 -0.248716 5.25612 0
M  V30 3572 O 338.933 0.356745 5.68081 0
M  V30 3573 N 340.135 -1.53877 5.59734 0
M  V30 3574 H 342.9 1.31361 2.69378 0
M  V30 3575 H 340.461 0.837541 1.38553 0
M  V30 3576 H 342.453 -0.884297 3.94921 0
M  V30 3577 H 341.023 -1.12832 2.91526 0
M  V30 3578 H 340.243 1.21273 3.75082 0
M  V30 3579 H 341.531 1.11391 4.96457 0
M  V30 3580 H 340.929 -2.05243 5.27154 0
M  V30 3581 H 339.486 -2.00254 6.20275 0
M  V30 3582 N 342.919 -1.39368 0.735821 0
M  V30 3583 C 344.165 -2.01272 0.293439 0
M  V30 3584 C 344.52 -1.57344 -1.10728 0
M  V30 3585 O 343.813 -0.792744 -1.74431 0
M  V30 3586 C 344.007 -3.5583 0.334651 0
M  V30 3587 C 343.836 -4.14764 1.73784 0
M  V30 3588 C 342.606 -4.47315 2.35026 0
M  V30 3589 C 344.804 -4.38246 2.69157 0
M  V30 3590 N 342.786 -4.91756 3.6749 0
M  V30 3591 C 344.157 -4.849 3.86357 0
M  V30 3592 C 346.212 -4.20315 2.66908 0
M  V30 3593 C 344.915 -5.15505 5.01645 0
M  V30 3594 C 346.941 -4.52033 3.8134 0
M  V30 3595 C 346.303 -4.98895 4.97276 0
M  V30 3596 H 342.402 -0.766756 0.153652 0
M  V30 3597 H 344.986 -1.69276 0.961967 0
M  V30 3598 H 343.157 -3.87212 -0.303527 0
M  V30 3599 H 344.889 -4.04503 -0.126358 0
M  V30 3600 H 341.644 -4.35143 1.86943 0
M  V30 3601 H 342.068 -5.18333 4.35499 0
M  V30 3602 H 346.71 -3.83287 1.78468 0
M  V30 3603 H 344.428 -5.51437 5.90713 0
M  V30 3604 H 348.014 -4.39781 3.80899 0
M  V30 3605 H 346.894 -5.22973 5.84353 0
M  V30 3606 N 344.397 -0.483516 -1.5 0
M  V30 3607 C 345.646 0.0689102 -2.01582 0
M  V30 3608 C 345.959 1.39655 -1.36952 0
M  V30 3609 O 347.165 2.03465 -1.79762 0
M  V30 3610 C 345.621 0.173302 -3.59483 0
M  V30 3611 C 345.229 -1.14665 -4.33077 0
M  V30 3612 C 346.973 0.677024 -4.19066 0
M  V30 3613 C 344.88 -1.00537 -5.82792 0
M  V30 3614 H 343.81 0.0295277 -0.753422 0
M  V30 3615 H 346.461 -0.620295 -1.72698 0
M  V30 3616 H 344.843 0.926569 -3.85007 0
M  V30 3617 H 346.017 -1.91184 -4.19268 0
M  V30 3618 H 344.332 -1.58244 -3.85159 0
M  V30 3619 H 346.929 0.799952 -5.28682 0
M  V30 3620 H 347.272 1.67151 -3.81269 0
M  V30 3621 H 347.805 -0.0192083 -3.97795 0
M  V30 3622 H 344.544 -1.9736 -6.25083 0
M  V30 3623 H 344.064 -0.280776 -5.99142 0
M  V30 3624 H 345.743 -0.677 -6.43448 0
M  V30 3625 N 345.875 1.56104 -0.216619 0
M  V30 3626 C 347.291 1.58995 0.13886 0
M  V30 3627 C 347.491 1.23333 1.59346 0
M  V30 3628 O 346.547 0.966234 2.33281 0
M  V30 3629 C 347.86 3.00143 -0.182968 0
M  V30 3630 C 349.408 3.12751 -0.124807 0
M  V30 3631 C 349.883 4.56068 -0.420241 0
M  V30 3632 N 351.374 4.61723 -0.369634 0
M  V30 3633 C 352.109 5.70542 -0.571789 0
M  V30 3634 N 351.605 6.87744 -0.835453 0
M  V30 3635 N 353.398 5.59831 -0.504563 0
M  V30 3636 H 345.549 1.77562 -1.16557 0
M  V30 3637 H 347.812 0.825091 -0.466828 0
M  V30 3638 H 347.518 3.30871 -1.19237 0
M  V30 3639 H 347.392 3.73813 0.504367 0
M  V30 3640 H 349.779 2.81822 0.875223 0
M  V30 3641 H 349.86 2.41421 -0.845544 0
M  V30 3642 H 349.504 4.87713 -1.41769 0
M  V30 3643 H 349.434 5.25617 0.321631 0
M  V30 3644 H 351.925 3.77502 -0.173338 0
M  V30 3645 H 352.238 7.66587 -0.977938 0
M  V30 3646 H 350.583 6.895 -0.872592 0
M  V30 3647 H 353.774 4.67145 -0.298842 0
M  V30 3648 H 353.947 6.44573 -0.665519 0
M  V30 3649 N 347.353 -0.0568162 1.57498 0
M  V30 3650 C 348.285 -1.09292 2.01464 0
M  V30 3651 C 349.298 -1.34112 0.922913 0
M  V30 3652 O 350.487 -1.32089 1.20062 0
M  V30 3653 C 347.587 -2.44068 2.35125 0
M  V30 3654 C 346.76 -2.38995 3.66333 0
M  V30 3655 C 345.819 -3.55997 3.87495 0
M  V30 3656 O 344.845 -3.36746 4.58901 0
M  V30 3657 N 346.047 -4.76888 3.30996 0
M  V30 3658 H 348.812 -0.718386 2.90963 0
M  V30 3659 H 346.373 -0.245235 1.60032 0
M  V30 3660 H 348.365 -3.21011 2.46443 0
M  V30 3661 H 346.935 -2.73468 1.5144 0
M  V30 3662 H 346.155 -1.47336 3.65631 0
M  V30 3663 H 347.443 -2.3272 4.52458 0
M  V30 3664 H 346.841 -4.95431 2.73065 0
M  V30 3665 H 345.398 -5.51291 3.47738 0
M  V30 3666 N 348.832 -1.54138 -0.328536 0
M  V30 3667 C 349.779 -1.83176 -1.40411 0
M  V30 3668 C 350.749 -0.678494 -1.5161 0
M  V30 3669 O 351.934 -0.92443 -1.6691 0
M  V30 3670 C 349.074 -2.06035 -2.76846 0
M  V30 3671 C 348.187 -3.33727 -2.74318 0
M  V30 3672 C 347.322 -3.46574 -4.02567 0
M  V30 3673 C 346.361 -4.68159 -3.94327 0
M  V30 3674 N 345.498 -4.77959 -5.14296 0
M  V30 3675 H 350.338 -2.74938 -1.14948 0
M  V30 3676 H 347.875 -1.36166 -0.556538 0
M  V30 3677 H 349.833 -2.1728 -3.56153 0
M  V30 3678 H 348.463 -1.1757 -3.00628 0
M  V30 3679 H 347.515 -3.31246 -1.8703 0
M  V30 3680 H 348.827 -4.23139 -2.64111 0
M  V30 3681 H 347.981 -3.57333 -4.90304 0
M  V30 3682 H 346.72 -2.55245 -4.15574 0
M  V30 3683 H 345.725 -4.57461 -3.04974 0
M  V30 3684 H 346.95 -5.60868 -3.82889 0
M  V30 3685 H 344.896 -3.89544 -5.27818 0
M  V30 3686 H 344.813 -5.6133 -5.06404 0
M  V30 3687 H 346.081 -4.93044 -6.03761 0
M  V30 3688 N 350.31 0.590341 -1.46126 0
M  V30 3689 C 351.557 1.34882 -1.5104 0
M  V30 3690 C 351.885 1.93849 -0.159021 0
M  V30 3691 O 351.14 1.76544 0.844436 0
M  V30 3692 C 351.439 2.5032 -2.55097 0
M  V30 3693 C 351.105 2.09394 -3.99331 0
M  V30 3694 C 349.767 1.97947 -4.38601 0
M  V30 3695 C 352.119 1.77712 -4.89967 0
M  V30 3696 C 349.447 1.53065 -5.66381 0
M  V30 3697 C 351.799 1.34312 -6.18177 0
M  V30 3698 C 350.463 1.21436 -6.56361 0
M  V30 3699 H 349.733 0.493568 -0.552695 0
M  V30 3700 H 352.38 0.665539 -1.79563 0
M  V30 3701 H 350.685 3.24062 -2.20207 0
M  V30 3702 H 352.382 3.08541 -2.56132 0
M  V30 3703 H 348.972 2.19235 -3.68285 0
M  V30 3704 H 353.156 1.85445 -4.60352 0
M  V30 3705 H 348.412 1.41733 -5.94745 0
M  V30 3706 H 352.586 1.08849 -6.87841 0
M  V30 3707 H 350.213 0.864345 -7.5527 0
M  V30 3708 N 351.788 1.33704 0.83433 0
M  V30 3709 C 352.698 1.26382 1.97648 0
M  V30 3710 C 353.714 0.173548 1.73132 0
M  V30 3711 O 354.89 0.397962 1.97429 0
M  V30 3712 C 351.955 1.00769 3.31733 0
M  V30 3713 C 351.016 2.1884 3.69334 0
M  V30 3714 C 350.249 1.9444 4.9702 0
M  V30 3715 O 350.472 0.896961 5.63303 0
M  V30 3716 O 349.406 2.81093 5.32231 0
M  V30 3717 H 353.232 2.22444 2.06767 0
M  V30 3718 H 350.817 1.13795 0.968037 0
M  V30 3719 H 352.699 0.882186 4.12062 0
M  V30 3720 H 351.374 0.0773783 3.23608 0
M  V30 3721 H 350.281 2.36946 2.89495 0
M  V30 3722 H 351.614 3.10221 3.82131 0
M  V30 3723 N 353.266 -1.05314 1.17247 0
M  V30 3724 C 354.494 -1.81971 0.984593 0
M  V30 3725 C 354.909 -1.82929 -0.467166 0
M  V30 3726 O 354.266 -1.25564 -1.32438 0
M  V30 3727 C 354.317 -3.28143 1.51672 0
M  V30 3728 O 354.038 -3.27347 2.91163 0
M  V30 3729 C 355.539 -4.21493 1.37326 0
M  V30 3730 H 352.759 -0.573455 0.348411 0
M  V30 3731 H 355.303 -1.32808 1.55506 0
M  V30 3732 H 353.458 -3.74582 0.988302 0
M  V30 3733 H 353.872 -4.18824 3.15732 0
M  V30 3734 H 355.346 -5.22043 1.79375 0
M  V30 3735 H 355.823 -4.38031 0.320169 0
M  V30 3736 H 356.429 -3.80909 1.89178 0
M  V30 3737 N 354.744 -0.972509 -1.24016 0
M  V30 3738 C 356.155 -0.67517 -1.74064 0
M  V30 3739 C 356.506 0.808939 -1.78747 0
M  V30 3740 O 355.631 1.63286 -1.42009 0
M  V30 3741 C 356.226 -1.21889 -3.16115 0
M  V30 3742 C 354.785 -0.971358 -3.6365 0
M  V30 3743 C 353.932 -1.35134 -2.42145 0
M  V30 3744 H 356.883 -1.14727 -1.09651 0
M  V30 3745 H 356.904 -0.587489 -3.75937 0
M  V30 3746 H 356.416 -2.29906 -3.12674 0
M  V30 3747 H 354.517 0.0930686 -3.72484 0
M  V30 3748 H 354.63 -1.62039 -4.50866 0
M  V30 3749 H 352.994 -0.769751 -2.4279 0
M  V30 3750 H 353.777 -2.4411 -2.41381 0
M  V30 3751 N 356.222 1.38976 -0.743202 0
M  V30 3752 C 357.47 1.99948 -0.29417 0
M  V30 3753 C 357.791 1.59279 1.12495 0
M  V30 3754 O 357.061 0.844808 1.76748 0
M  V30 3755 H 355.641 0.739473 -0.105774 0
M  V30 3756 H 358.303 1.699 -0.954986 0
M  V30 3757 H 357.399 3.10142 -0.349056 0
M  V30 3758 N 357.7 0.491464 1.49741 0
M  V30 3759 C 358.949 -0.0582189 2.01616 0
M  V30 3760 C 359.262 -1.38927 1.3769 0
M  V30 3761 O 360.468 -2.02509 1.80838 0
M  V30 3762 C 358.924 -0.154235 3.59569 0
M  V30 3763 C 358.532 1.1696 4.32463 0
M  V30 3764 C 360.276 -0.65479 4.1942 0
M  V30 3765 C 358.183 1.03627 5.8225 0
M  V30 3766 H 357.113 -0.0255317 0.753568 0
M  V30 3767 H 359.764 0.629445 1.72367 0
M  V30 3768 H 358.146 -0.906138 3.85493 0
M  V30 3769 H 359.32 1.93405 4.18248 0
M  V30 3770 H 357.635 1.60285 3.84315 0
M  V30 3771 H 360.232 -0.771903 5.29099 0
M  V30 3772 H 360.575 -1.65127 3.8215 0
M  V30 3773 H 361.108 0.040304 3.9778 0
M  V30 3774 H 357.847 2.00672 6.24028 0
M  V30 3775 H 357.367 0.312546 5.98985 0
M  V30 3776 H 359.046 0.711114 6.4308 0
M  V30 3777 N 359.178 -1.55987 0.224894 0
M  V30 3778 C 360.111 -2.16413 -0.723929 0
M  V30 3779 C 361.089 -1.10952 -1.18863 0
M  V30 3780 O 362.273 -1.39225 -1.27077 0
M  V30 3781 C 359.4 -2.74711 -1.98121 0
M  V30 3782 C 358.446 -3.9303 -1.6562 0
M  V30 3783 S 359.279 -5.29817 -0.778058 0
M  V30 3784 C 360.435 -5.91555 -2.04483 0
M  V30 3785 H 360.668 -2.96555 -0.210347 0
M  V30 3786 H 358.201 -1.54397 0.00955457 0
M  V30 3787 H 360.159 -3.08938 -2.70311 0
M  V30 3788 H 358.82 -1.94555 -2.46591 0
M  V30 3789 H 358.013 -4.32334 -2.59043 0
M  V30 3790 H 357.615 -3.59966 -1.01491 0
M  V30 3791 H 359.907 -6.07732 -2.99446 0
M  V30 3792 H 360.85 -6.87498 -1.69563 0
M  V30 3793 H 361.258 -5.20419 -2.18688 0
M  V30 3794 N 360.656 0.0484629 -1.57525 0
M  V30 3795 C 361.588 1.08222 -2.02041 0
M  V30 3796 C 362.601 1.33621 -0.930012 0
M  V30 3797 O 363.79 1.3145 -1.20761 0
M  V30 3798 C 360.89 2.42818 -2.36416 0
M  V30 3799 C 360.063 2.37049 -3.67596 0
M  V30 3800 C 359.122 3.53937 -3.89378 0
M  V30 3801 O 358.148 3.34308 -4.60681 0
M  V30 3802 N 359.35 4.75126 -3.3352 0
M  V30 3803 H 362.115 0.702946 -2.9134 0
M  V30 3804 H 359.676 0.236745 -1.6016 0
M  V30 3805 H 361.668 3.197 -2.48141 0
M  V30 3806 H 360.238 2.72661 -1.52888 0
M  V30 3807 H 359.458 1.45395 -3.66407 0
M  V30 3808 H 360.746 2.30318 -4.53686 0
M  V30 3809 H 360.144 4.93976 -2.75688 0
M  V30 3810 H 358.701 5.49439 -3.50656 0
M  V30 3811 N 362.134 1.5431 0.320358 0
M  V30 3812 C 363.381 1.72668 1.05792 0
M  V30 3813 C 363.709 0.502084 1.87908 0
M  V30 3814 O 362.964 -0.516149 1.88771 0
M  V30 3815 C 363.263 2.95639 2.00828 0
M  V30 3816 C 362.929 4.30265 1.34843 0
M  V30 3817 C 361.591 4.66865 1.16578 0
M  V30 3818 C 363.943 5.13801 0.875095 0
M  V30 3819 C 361.271 5.84597 0.496336 0
M  V30 3820 C 363.623 6.32219 0.219463 0
M  V30 3821 C 362.287 6.67495 0.0246915 0
M  V30 3822 H 361.557 0.631837 0.387121 0
M  V30 3823 H 364.204 1.88552 0.334735 0
M  V30 3824 H 362.509 2.74456 2.79609 0
M  V30 3825 H 364.206 3.07038 2.57932 0
M  V30 3826 H 360.796 4.01472 1.50061 0
M  V30 3827 H 364.98 4.86039 1.00398 0
M  V30 3828 H 360.236 6.10486 0.334264 0
M  V30 3829 H 364.41 6.96227 -0.155291 0
M  V30 3830 H 362.037 7.5858 -0.496065 0
M  V30 3831 N 363.613 -0.582584 1.46437 0
M  V30 3832 C 364.841 -1.36682 1.55324 0
M  V30 3833 C 365.256 -1.87796 0.194409 0
M  V30 3834 O 364.613 -1.63623 -0.808318 0
M  V30 3835 C 364.664 -2.55426 2.55812 0
M  V30 3836 O 364.385 -2.0643 3.86417 0
M  V30 3837 C 365.886 -3.47976 2.74641 0
M  V30 3838 H 363.106 -0.417545 0.525259 0
M  V30 3839 H 365.65 -0.708219 1.91845 0
M  V30 3840 H 363.805 -3.17275 2.22295 0
M  V30 3841 H 364.219 -2.83762 4.41111 0
M  V30 3842 H 365.693 -4.27775 3.48874 0
M  V30 3843 H 366.17 -3.99919 1.81553 0
M  V30 3844 H 366.776 -2.91962 3.09255 0
M  V30 3845 N 365.091 -1.34144 -0.827227 0
M  V30 3846 C 366.039 -1.25364 -1.95925 0
M  V30 3847 C 367.033 -0.152608 -1.68711 0
M  V30 3848 O 368.239 -0.317311 -1.77181 0
M  V30 3849 H 364.614 -0.389342 -0.643364 0
M  V30 3850 H 366.585 -2.21045 -2.00454 0
M  V30 3851 C 365.334 -1.02158 -3.32354 0
M  V30 3852 H 364.657 -1.86111 -3.5384 0
M  V30 3853 H 366.097 -1.00048 -4.12027 0
M  V30 3854 C 364.556 0.275244 -3.35774 0
M  V30 3855 O 365.086 1.27806 -3.80826 0
M  V30 3856 N 363.292 0.306853 -2.88975 0
M  V30 3857 H 362.839 -0.509777 -2.52506 0
M  V30 3858 H 362.797 1.17432 -2.91646 0
M  V30 3859 N 366.569 1.04691 -1.17803 0
M  V30 3860 C 367.479 2.16057 -0.914151 0
M  V30 3861 C 368.495 1.73589 0.119503 0
M  V30 3862 O 369.671 2.01308 -0.0609468 0
M  V30 3863 C 366.736 3.4394 -0.436603 0
M  V30 3864 C 365.797 4.00825 -1.53746 0
M  V30 3865 C 365.03 5.22604 -1.0826 0
M  V30 3866 O 365.253 5.70367 0.0612244 0
M  V30 3867 O 364.187 5.7186 -1.87775 0
M  V30 3868 H 368.013 2.41169 -1.84584 0
M  V30 3869 H 365.598 1.1453 -0.959334 0
M  V30 3870 H 367.48 4.21024 -0.178057 0
M  V30 3871 H 366.155 3.20316 0.466869 0
M  V30 3872 H 365.062 3.25158 -1.84995 0
M  V30 3873 H 366.395 4.28778 -2.41683 0
M  V30 3874 N 368.047 0.979072 1.23499 0
M  V30 3875 C 368.957 0.526431 2.28617 0
M  V30 3876 C 369.973 -0.418126 1.68901 0
M  V30 3877 O 371.149 -0.288372 1.99325 0
M  V30 3878 C 368.214 -0.165235 3.46306 0
M  V30 3879 C 367.275 0.82056 4.21385 0
M  V30 3880 C 366.508 0.161807 5.33455 0
M  V30 3881 O 366.731 -1.04742 5.60701 0
M  V30 3882 O 365.665 0.859708 5.95729 0
M  V30 3883 H 369.491 1.4006 2.69475 0
M  V30 3884 H 367.076 0.746643 1.29405 0
M  V30 3885 H 368.958 -0.553287 4.17752 0
M  V30 3886 H 367.633 -1.01419 3.07402 0
M  V30 3887 H 366.54 1.25929 3.52268 0
M  V30 3888 H 367.873 1.63828 4.64135 0
M  V30 3889 N 369.525 -1.3858 0.750561 0
M  V30 3890 C 370.472 -2.30483 0.120835 0
M  V30 3891 C 371.442 -1.50022 -0.712923 0
M  V30 3892 O 372.627 -1.78662 -0.669676 0
M  V30 3893 C 369.767 -3.36431 -0.768666 0
M  V30 3894 C 368.88 -4.31927 0.0793922 0
M  V30 3895 C 368.015 -5.24944 -0.81283 0
M  V30 3896 C 367.054 -6.12088 0.0390447 0
M  V30 3897 N 366.191 -6.97412 -0.809969 0
M  V30 3898 H 371.031 -2.83761 0.91015 0
M  V30 3899 H 368.568 -1.39707 0.460463 0
M  V30 3900 H 370.526 -3.96462 -1.29898 0
M  V30 3901 H 369.156 -2.8457 -1.5238 0
M  V30 3902 H 368.208 -3.73382 0.727303 0
M  V30 3903 H 369.52 -4.93319 0.737401 0
M  V30 3904 H 368.674 -5.90078 -1.41042 0
M  V30 3905 H 367.413 -4.63911 -1.50458 0
M  V30 3906 H 366.418 -5.45952 0.649328 0
M  V30 3907 H 367.643 -6.75189 0.727809 0
M  V30 3908 H 365.589 -6.38931 -1.48672 0
M  V30 3909 H 365.506 -7.55712 -0.208789 0
M  V30 3910 H 366.774 -7.66959 -1.39263 0
M  V30 3911 N 371.003 -0.499398 -1.49478 0
M  V30 3912 C 372.419 -0.155261 -1.58843 0
M  V30 3913 C 372.619 1.34008 -1.50479 0
M  V30 3914 O 371.675 2.11589 -1.37791 0
M  V30 3915 C 372.988 -0.730636 -2.91689 0
M  V30 3916 C 374.536 -0.696599 -3.0515 0
M  V30 3917 C 375.011 -1.25001 -4.40612 0
M  V30 3918 N 376.502 -1.21064 -4.47099 0
M  V30 3919 C 377.237 -1.60905 -5.50361 0
M  V30 3920 N 376.733 -2.08331 -6.60735 0
M  V30 3921 N 378.526 -1.52331 -5.41065 0
M  V30 3922 H 370.677 -1.47162 -1.53158 0
M  V30 3923 H 372.94 -0.610309 -0.725415 0
M  V30 3924 H 372.646 -1.77928 -3.03372 0
M  V30 3925 H 372.52 -0.190161 -3.7672 0
M  V30 3926 H 374.907 0.343204 -2.93097 0
M  V30 3927 H 374.988 -1.2742 -2.21806 0
M  V30 3928 H 374.632 -2.28859 -4.53416 0
M  V30 3929 H 374.562 -0.64836 -5.22593 0
M  V30 3930 H 377.053 -0.863128 -3.67911 0
M  V30 3931 H 377.366 -2.36805 -7.35624 0
M  V30 3932 H 375.711 -2.12304 -6.6178 0
M  V30 3933 H 378.902 -1.151 -4.53729 0
M  V30 3934 H 379.075 -1.83704 -6.21415 0
M  V30 3935 N 372.481 1.55866 -0.233164 0
M  V30 3936 C 373.709 2.02998 0.399905 0
M  V30 3937 C 374.124 1.11274 1.52524 0
M  V30 3938 O 373.481 0.124528 1.82075 0
M  V30 3939 C 373.532 3.4958 0.920639 0
M  V30 3940 O 373.253 4.37808 -0.159834 0
M  V30 3941 C 374.754 4.12411 1.62578 0
M  V30 3942 H 371.974 0.664006 0.0966281 0
M  V30 3943 H 374.518 2.0143 -0.353013 0
M  V30 3944 H 372.673 3.51727 1.62379 0
M  V30 3945 H 373.087 5.23981 0.23337 0
M  V30 3946 H 374.561 5.16711 1.94201 0
M  V30 3947 H 375.038 3.5809 2.54299 0
M  V30 3948 H 375.644 4.14148 0.967553 0
M  V30 3949 N 373.959 -0.0401083 1.57549 0
M  V30 3950 C 374.889 -1.04384 2.08869 0
M  V30 3951 C 375.87 -1.38407 0.988817 0
M  V30 3952 O 377.055 -1.47483 1.26342 0
M  V30 3953 C 374.185 -2.34808 2.55895 0
M  V30 3954 C 373.139 -2.15057 3.70047 0
M  V30 3955 C 372.465 -3.51145 4.03239 0
M  V30 3956 C 373.765 -1.54576 4.98902 0
M  V30 3957 H 375.459 -0.616666 2.92981 0
M  V30 3958 H 373.005 -0.295184 1.40942 0
M  V30 3959 H 374.958 -3.05346 2.90417 0
M  V30 3960 H 373.682 -2.79565 1.68853 0
M  V30 3961 H 372.341 -1.46954 3.35857 0
M  V30 3962 H 371.989 -3.93529 3.13279 0
M  V30 3963 H 371.689 -3.38758 4.80122 0
M  V30 3964 H 373.213 -4.23062 4.40285 0
M  V30 3965 H 374.627 -2.15017 5.31451 0
M  V30 3966 H 373.024 -1.52796 5.80322 0
M  V30 3967 H 374.094 -0.51039 4.82206 0
M  V30 3968 N 375.437 -1.54477 -0.31217 0
M  V30 3969 C 376.367 -1.87652 -1.38957 0
M  V30 3970 C 377.348 -0.734358 -1.53431 0
M  V30 3971 O 378.533 -0.98911 -1.67123 0
M  V30 3972 C 375.663 -2.11396 -2.75552 0
M  V30 3973 C 374.617 -3.27243 -2.75855 0
M  V30 3974 C 373.943 -3.36382 -4.15633 0
M  V30 3975 C 375.243 -4.64622 -2.38587 0
M  V30 3976 H 376.937 -2.77887 -1.11442 0
M  V30 3977 H 374.483 -1.33707 -0.534655 0
M  V30 3978 H 376.436 -2.33189 -3.51 0
M  V30 3979 H 375.16 -1.17921 -3.04569 0
M  V30 3980 H 373.819 -3.05356 -2.02863 0
M  V30 3981 H 373.467 -2.40445 -4.41809 0
M  V30 3982 H 373.167 -4.14249 -4.1674 0
M  V30 3983 H 374.691 -3.60422 -4.92877 0
M  V30 3984 H 376.105 -4.86219 -3.03749 0
M  V30 3985 H 374.502 -5.45121 -2.50925 0
M  V30 3986 H 375.572 -4.66097 -1.33723 0
M  V30 3987 N 376.915 0.57481 -1.46744 0
M  V30 3988 C 377.878 1.66533 -1.57478 0
M  V30 3989 C 378.878 1.54338 -0.451263 0
M  V30 3990 O 380.068 1.58814 -0.715813 0
M  V30 3991 C 377.2 3.05999 -1.50259 0
M  V30 3992 H 378.393 1.58372 -2.54673 0
M  V30 3993 H 375.946 0.793301 -1.34672 0
M  V30 3994 H 376.681 3.19709 -0.543725 0
M  V30 3995 H 376.466 3.16259 -2.31781 0
M  V30 3996 H 377.956 3.8537 -1.60872 0
M  V30 3997 N 378.394 1.34581 0.820102 0
M  V30 3998 C 379.81 1.14325 1.11364 0
M  V30 3999 C 380.01 -0.0533648 2.01429 0
M  V30 4000 O 379.066 -0.728044 2.41776 0
M  V30 4001 C 380.379 2.43983 1.75764 0
M  V30 4002 C 381.927 2.50065 1.88246 0
M  V30 4003 C 382.402 3.79732 2.56061 0
M  V30 4004 N 383.893 3.80908 2.63558 0
M  V30 4005 C 384.628 4.77961 3.16766 0
M  V30 4006 N 384.124 5.85397 3.70517 0
M  V30 4007 N 385.917 4.65413 3.15194 0
M  V30 4008 H 378.068 2.11246 0.221096 0
M  V30 4009 H 380.331 0.934289 0.160649 0
M  V30 4010 H 380.037 3.31651 1.1705 0
M  V30 4011 H 379.911 2.57531 2.75604 0
M  V30 4012 H 382.298 1.62834 2.46108 0
M  V30 4013 H 382.379 2.40442 0.873006 0
M  V30 4014 H 382.023 4.67354 1.98853 0
M  V30 4015 H 381.953 3.86639 3.57516 0
M  V30 4016 H 384.444 3.03274 2.25463 0
M  V30 4017 H 384.757 6.55463 4.09376 0
M  V30 4018 H 383.102 5.89107 3.68752 0
M  V30 4019 H 386.293 3.80627 2.72471 0
M  V30 4020 H 386.466 5.41216 3.56356 0
M  V30 4021 N 379.872 -1.04064 1.18357 0
M  V30 4022 C 380.802 -2.14001 0.934113 0
M  V30 4023 C 381.783 -1.69616 -0.128186 0
M  V30 4024 O 382.968 -1.94185 0.0244093 0
M  V30 4025 C 380.098 -3.44253 0.459066 0
M  V30 4026 C 379.052 -4.02261 1.46185 0
M  V30 4027 C 378.378 -5.27992 0.844322 0
M  V30 4028 C 379.678 -4.38432 2.83856 0
M  V30 4029 H 381.372 -2.35127 1.85352 0
M  V30 4030 H 378.918 -1.12998 0.892604 0
M  V30 4031 H 380.871 -4.20522 0.271907 0
M  V30 4032 H 379.595 -3.22813 -0.495912 0
M  V30 4033 H 378.254 -3.28074 1.63595 0
M  V30 4034 H 377.902 -5.02862 -0.117845 0
M  V30 4035 H 377.602 -5.67765 1.51384 0
M  V30 4036 H 379.126 -6.06938 0.667693 0
M  V30 4037 H 380.54 -5.05688 2.70098 0
M  V30 4038 H 378.937 -4.89254 3.47491 0
M  V30 4039 H 380.007 -3.4826 3.37406 0
M  V30 4040 N 381.35 -0.985608 -1.22978 0
M  V30 4041 C 382.596 -0.65836 -1.91816 0
M  V30 4042 C 382.929 0.806692 -1.76653 0
M  V30 4043 O 382.204 1.58252 -1.13078 0
M  V30 4044 C 382.487 -1.056 -3.44268 0
M  V30 4045 C 382.34 -2.57906 -3.68516 0
M  V30 4046 C 383.659 -0.603781 -4.35939 0
M  V30 4047 H 380.778 -0.24065 -0.696604 0
M  V30 4048 H 383.42 -1.22783 -1.44998 0
M  V30 4049 H 381.57 -0.571445 -3.84274 0
M  V30 4050 H 383.242 -3.13976 -3.3796 0
M  V30 4051 H 381.485 -3.00305 -3.13048 0
M  V30 4052 H 382.156 -2.80779 -4.75255 0
M  V30 4053 H 384.632 -1.01987 -4.03408 0
M  V30 4054 H 383.508 -0.910383 -5.41298 0
M  V30 4055 H 383.769 0.495761 -4.39312 0
M  V30 4056 N 382.828 1.3818 -0.7579 0
M  V30 4057 C 384.244 1.5353 -0.435972 0
M  V30 4058 C 384.444 1.71961 1.05032 0
M  V30 4059 O 383.5 1.73307 1.83633 0
M  V30 4060 C 384.813 2.73989 -1.23898 0
M  V30 4061 C 386.361 2.87841 -1.22949 0
M  V30 4062 C 386.836 4.11266 -2.01554 0
M  V30 4063 N 388.327 4.18352 -1.98837 0
M  V30 4064 C 389.062 5.12856 -2.5645 0
M  V30 4065 N 388.558 6.13005 -3.22794 0
M  V30 4066 N 390.351 5.05238 -2.46356 0
M  V30 4067 H 382.502 1.24467 -1.7211 0
M  V30 4068 H 384.765 0.604982 -0.729864 0
M  V30 4069 H 384.471 2.66789 -2.29165 0
M  V30 4070 H 384.345 3.67294 -0.858764 0
M  V30 4071 H 386.732 2.9452 -0.184854 0
M  V30 4072 H 386.813 1.95534 -1.64924 0
M  V30 4073 H 386.457 4.05349 -3.06031 0
M  V30 4074 H 386.387 5.02661 -1.5697 0
M  V30 4075 H 388.878 3.46628 -1.50524 0
M  V30 4076 H 389.191 6.81619 -3.64165 0
M  V30 4077 H 387.536 6.13325 -3.2689 0
M  V30 4078 H 390.727 4.25938 -1.9415 0
M  V30 4079 H 390.9 5.78707 -2.91552 0
M  V30 4080 N 384.306 0.507319 1.49211 0
M  V30 4081 C 385.531 -0.033725 2.07373 0
M  V30 4082 C 385.956 -1.29485 1.36437 0
M  V30 4083 O 385.314 -1.76294 0.423087 0
M  V30 4084 C 385.362 -0.263945 3.59633 0
M  V30 4085 O 384.466 -1.33737 3.90113 0
M  V30 4086 H 383.807 0.0290331 0.663365 0
M  V30 4087 H 386.337 0.708749 1.91932 0
M  V30 4088 H 386.347 -0.493536 4.05004 0
M  V30 4089 H 385.022 0.657424 4.10671 0
M  V30 4090 H 383.599 -1.09224 3.56545 0
M  V30 4091 N 385.784 -1.5574 0.241426 0
M  V30 4092 C 387.012 -2.03208 -0.389134 0
M  V30 4093 C 387.427 -1.12082 -1.51931 0
M  V30 4094 O 386.784 -0.134183 -1.82006 0
M  V30 4095 C 386.835 -3.50064 -0.902087 0
M  V30 4096 O 386.556 -4.37717 0.18305 0
M  V30 4097 C 388.057 -4.13268 -1.60389 0
M  V30 4098 H 385.277 -0.664509 -0.0931053 0
M  V30 4099 H 387.821 -2.0124 0.36369 0
M  V30 4100 H 385.976 -3.52583 -1.60511 0
M  V30 4101 H 386.39 -5.24097 -0.205579 0
M  V30 4102 H 387.864 -5.17733 -1.91458 0
M  V30 4103 H 388.341 -3.59434 -2.52397 0
M  V30 4104 H 388.947 -4.14655 -0.945576 0
M  V30 4105 N 387.262 0.0317525 -1.57568 0
M  V30 4106 C 388.678 0.38735 -1.54828 0
M  V30 4107 C 388.878 1.7677 -0.967187 0
M  V30 4108 O 387.934 2.45581 -0.587063 0
M  V30 4109 C 389.247 0.291667 -2.99282 0
M  V30 4110 C 390.795 0.368946 -3.10818 0
M  V30 4111 C 391.27 0.302741 -4.56998 0
M  V30 4112 N 392.761 0.361617 -4.61786 0
M  V30 4113 C 393.496 0.333238 -5.72431 0
M  V30 4114 N 392.992 0.257308 -6.92322 0
M  V30 4115 N 394.785 0.382769 -5.60795 0
M  V30 4116 H 386.936 -0.871609 -1.93692 0
M  V30 4117 H 389.199 -0.331161 -0.888277 0
M  V30 4118 H 388.905 -0.656794 -3.45513 0
M  V30 4119 H 388.779 1.08638 -3.61217 0
M  V30 4120 H 391.166 1.30784 -2.64536 0
M  V30 4121 H 391.247 -0.455066 -2.5172 0
M  V30 4122 H 390.891 -0.632473 -5.03947 0
M  V30 4123 H 390.821 1.14482 -5.14005 0
M  V30 4124 H 393.312 0.422923 -3.75526 0
M  V30 4125 H 393.625 0.24068 -7.72425 0
M  V30 4126 H 391.97 0.223396 -6.94641 0
M  V30 4127 H 395.161 0.44006 -4.66027 0
M  V30 4128 H 395.334 0.357184 -6.47015 0
M  V30 4129 N 388.74 1.54641 0.303973 0
M  V30 4130 C 389.987 1.7378 1.03955 0
M  V30 4131 C 390.315 0.521986 1.87365 0
M  V30 4132 O 389.57 -0.496099 1.89308 0
M  V30 4133 C 389.869 2.97753 1.97681 0
M  V30 4134 C 389.535 4.31671 1.30271 0
M  V30 4135 C 388.197 4.68075 1.11619 0
M  V30 4136 C 390.549 5.147 0.82055 0
M  V30 4137 C 387.877 5.8509 0.434304 0
M  V30 4138 C 390.229 6.32416 0.152395 0
M  V30 4139 C 388.893 6.67484 -0.0461067 0
M  V30 4140 H 388.163 0.635908 0.380398 0
M  V30 4141 H 390.81 1.88896 0.314718 0
M  V30 4142 H 389.115 2.77406 2.76682 0
M  V30 4143 H 390.812 3.09756 2.54661 0
M  V30 4144 H 387.402 4.03041 1.45795 0
M  V30 4145 H 391.586 4.87077 0.952374 0
M  V30 4146 H 386.842 6.10806 0.269495 0
M  V30 4147 H 391.016 6.96023 -0.229126 0
M  V30 4148 H 388.643 7.58011 -0.576494 0
M  V30 4149 N 390.218 -0.567019 1.47046 0
M  V30 4150 C 391.128 -1.70247 1.6141 0
M  V30 4151 C 392.144 -1.66746 0.497157 0
M  V30 4152 O 393.32 -1.86371 0.763389 0
M  V30 4153 C 390.385 -3.06756 1.61561 0
M  V30 4154 C 389.446 -3.21399 2.84607 0
M  V30 4155 C 388.679 -4.51396 2.84741 0
M  V30 4156 O 388.902 -5.36255 1.94388 0
M  V30 4157 O 387.836 -4.69621 3.76483 0
M  V30 4158 H 391.662 -1.61073 2.57467 0
M  V30 4159 H 389.247 -0.735894 1.30019 0
M  V30 4160 H 391.129 -3.8801 1.64396 0
M  V30 4161 H 389.804 -3.16333 0.686684 0
M  V30 4162 H 388.711 -2.39579 2.8732 0
M  V30 4163 H 390.044 -3.16721 3.76761 0
M  V30 4164 N 391.696 -1.35014 -0.812953 0
M  V30 4165 C 392.606 -1.2951 -1.95613 0
M  V30 4166 C 393.622 -0.20107 -1.72834 0
M  V30 4167 O 394.798 -0.42932 -1.96771 0
M  V30 4168 C 391.863 -1.06033 -3.30088 0
M  V30 4169 C 390.924 -2.24688 -3.65805 0
M  V30 4170 C 390.157 -2.02322 -4.93864 0
M  V30 4171 O 390.38 -0.986464 -5.61805 0
M  V30 4172 O 389.314 -2.89525 -5.27692 0
M  V30 4173 H 393.14 -2.25705 -2.03202 0
M  V30 4174 H 390.725 -1.15321 -0.949811 0
M  V30 4175 H 392.607 -0.94763 -4.10607 0
M  V30 4176 H 391.282 -0.128852 -3.23443 0
M  V30 4177 H 390.189 -2.41521 -2.85689 0
M  V30 4178 H 391.522 -3.16261 -3.77147 0
M  V30 4179 N 393.175 1.03435 -1.18907 0
M  V30 4180 C 394.422 1.76743 -0.988334 0
M  V30 4181 C 394.75 1.88447 0.481441 0
M  V30 4182 O 394.005 1.39383 1.37371 0
M  V30 4183 C 394.304 3.19792 -1.59586 0
M  V30 4184 C 393.97 3.28108 -3.09283 0
M  V30 4185 C 392.632 3.30084 -3.5014 0
M  V30 4186 C 394.984 3.27696 -4.05296 0
M  V30 4187 C 392.312 3.29299 -4.85571 0
M  V30 4188 C 394.664 3.28451 -5.4065 0
M  V30 4189 C 393.328 3.28723 -5.80946 0
M  V30 4190 H 392.598 0.64675 -0.361657 0
M  V30 4191 H 395.245 1.21442 -1.48068 0
M  V30 4192 H 393.55 3.78136 -1.02568 0
M  V30 4193 H 395.247 3.75171 -1.41589 0
M  V30 4194 H 391.837 3.27294 -2.76725 0
M  V30 4195 H 396.021 3.25354 -3.74778 0
M  V30 4196 H 391.277 3.2783 -5.16079 0
M  V30 4197 H 395.451 3.27082 -6.14809 0
M  V30 4198 H 393.078 3.27868 -6.85862 0
M  V30 4199 N 394.653 0.992116 1.22453 0
M  V30 4200 C 395.583 0.561677 2.26644 0
M  V30 4201 C 396.564 -0.411055 1.65059 0
M  V30 4202 O 397.749 -0.301861 1.9184 0
M  V30 4203 C 394.879 -0.125247 3.47074 0
M  V30 4204 C 393.833 0.765948 4.21091 0
M  V30 4205 C 393.159 -0.0538484 5.34673 0
M  V30 4206 C 394.459 2.06242 4.79856 0
M  V30 4207 H 396.153 1.43259 2.62902 0
M  V30 4208 H 393.699 0.690283 1.26377 0
M  V30 4209 H 395.652 -0.437764 4.1912 0
M  V30 4210 H 394.376 -1.03069 3.0991 0
M  V30 4211 H 393.035 1.0621 3.50878 0
M  V30 4212 H 392.683 -0.960188 4.9375 0
M  V30 4213 H 392.383 0.539415 5.85119 0
M  V30 4214 H 393.907 -0.360477 6.09535 0
M  V30 4215 H 395.321 1.8139 5.43848 0
M  V30 4216 H 393.718 2.60444 5.40638 0
M  V30 4217 H 394.788 2.74167 3.99951 0
M  V30 4218 N 396.131 -1.37776 0.765217 0
M  V30 4219 C 397.063 -2.28958 0.105361 0
M  V30 4220 C 398.076 -1.48316 -0.67128 0
M  V30 4221 O 399.265 -1.71046 -0.51045 0
M  V30 4222 C 396.365 -3.27421 -0.874569 0
M  V30 4223 C 395.538 -4.37132 -0.153123 0
M  V30 4224 C 394.597 -5.1571 -1.04547 0
M  V30 4225 O 393.623 -5.66896 -0.511672 0
M  V30 4226 N 394.825 -5.29808 -2.37243 0
M  V30 4227 H 397.59 -2.86227 0.888495 0
M  V30 4228 H 395.151 -1.49682 0.617 0
M  V30 4229 H 397.143 -3.7687 -1.47483 0
M  V30 4230 H 395.713 -2.70967 -1.55871 0
M  V30 4231 H 394.933 -3.89166 0.627975 0
M  V30 4232 H 396.221 -5.07625 0.345643 0
M  V30 4233 H 395.619 -4.89793 -2.83054 0
M  V30 4234 H 394.176 -5.82589 -2.9229 0
M  V30 4235 N 397.609 -0.515225 -1.4894 0
M  V30 4236 C 399.025 -0.172099 -1.58669 0
M  V30 4237 C 399.225 1.32405 -1.51892 0
M  V30 4238 O 398.281 2.10116 -1.40027 0
M  V30 4239 C 399.594 -0.761533 -2.90897 0
M  V30 4240 C 401.142 -0.728926 -3.04394 0
M  V30 4241 C 401.617 -1.29667 -4.39261 0
M  V30 4242 N 403.108 -1.25799 -4.4579 0
M  V30 4243 C 403.843 -1.66733 -5.48623 0
M  V30 4244 N 403.339 -2.15327 -6.58488 0
M  V30 4245 N 405.132 -1.58061 -5.39419 0
M  V30 4246 H 397.283 -1.48778 -1.51588 0
M  V30 4247 H 399.546 -0.617968 -0.718901 0
M  V30 4248 H 399.252 -1.81136 -3.01468 0
M  V30 4249 H 399.126 -0.230106 -3.76497 0
M  V30 4250 H 401.513 0.312098 -2.93445 0
M  V30 4251 H 401.594 -1.29766 -2.20442 0
M  V30 4252 H 401.238 -2.33655 -4.50963 0
M  V30 4253 H 401.168 -0.703752 -5.21876 0
M  V30 4254 H 403.659 -0.902102 -3.66975 0
M  V30 4255 H 403.972 -2.44594 -7.33071 0
M  V30 4256 H 402.317 -2.19311 -6.59491 0
M  V30 4257 H 405.508 -1.19906 -4.52482 0
M  V30 4258 H 405.681 -1.90284 -6.19432 0
M  V30 4259 N 399.087 1.5561 -0.249682 0
M  V30 4260 C 400.034 2.21496 0.648694 0
M  V30 4261 C 401.004 1.17977 1.16921 0
M  V30 4262 O 402.189 1.46434 1.22318 0
M  V30 4263 C 399.329 2.92039 1.83868 0
M  V30 4264 C 398.442 4.10219 1.35442 0
M  V30 4265 C 397.577 4.6847 2.50419 0
M  V30 4266 C 396.616 5.78893 1.98869 0
M  V30 4267 N 395.753 6.31315 3.07223 0
M  V30 4268 H 400.593 2.97892 0.0801582 0
M  V30 4269 H 398.13 1.47074 0.0278031 0
M  V30 4270 H 400.088 3.31138 2.53778 0
M  V30 4271 H 398.718 2.18111 2.37965 0
M  V30 4272 H 397.77 3.76413 0.54928 0
M  V30 4273 H 399.082 4.89927 0.936649 0
M  V30 4274 H 398.236 5.10158 3.28366 0
M  V30 4275 H 396.975 3.87984 2.95499 0
M  V30 4276 H 395.98 5.3668 1.19393 0
M  V30 4277 H 397.205 6.61232 1.54755 0
M  V30 4278 H 395.151 5.53733 3.51732 0
M  V30 4279 H 395.068 7.06224 2.69784 0
M  V30 4280 H 396.336 6.77662 3.8522 0
M  V30 4281 N 400.565 -0.0233959 1.57583 0
M  V30 4282 C 401.811 -0.708611 1.90657 0
M  V30 4283 C 402.166 -1.7266 0.848895 0
M  V30 4284 O 401.459 -1.91075 -0.141749 0
M  V30 4285 C 401.653 -1.41428 3.28227 0
M  V30 4286 C 401.482 -0.466155 4.47277 0
M  V30 4287 C 400.252 -0.085117 5.05228 0
M  V30 4288 C 402.45 0.257836 5.13653 0
M  V30 4289 N 400.432 0.863672 6.07794 0
M  V30 4290 C 401.803 1.06209 6.10835 0
M  V30 4291 C 403.858 0.324174 4.96844 0
M  V30 4292 C 402.561 1.9266 6.93018 0
M  V30 4293 C 404.587 1.17583 5.79593 0
M  V30 4294 C 403.949 1.96799 6.7635 0
M  V30 4295 H 400.048 -0.233222 0.746412 0
M  V30 4296 H 402.632 0.0314512 1.94675 0
M  V30 4297 H 400.803 -2.12477 3.25128 0
M  V30 4298 H 402.535 -2.05233 3.488 0
M  V30 4299 H 399.29 -0.448516 4.71471 0
M  V30 4300 H 399.714 1.33274 6.63752 0
M  V30 4301 H 404.356 -0.273975 4.21911 0
M  V30 4302 H 402.074 2.53552 7.67292 0
M  V30 4303 H 405.66 1.23076 5.68633 0
M  V30 4304 H 404.54 2.61635 7.39268 0
M  V30 4305 N 402.043 -1.548 -0.295768 0
M  V30 4306 C 403.268 -1.78653 -1.05346 0
M  V30 4307 C 403.693 -0.546894 -1.79974 0
M  V30 4308 O 403.051 0.502763 -1.7419 0
M  V30 4309 C 403.099 -2.99679 -2.00561 0
M  V30 4310 O 402.203 -2.7317 -3.08953 0
M  V30 4311 H 401.544 -0.59116 -0.302367 0
M  V30 4312 H 404.074 -2.01895 -0.331598 0
M  V30 4313 H 404.084 -3.27793 -2.42932 0
M  V30 4314 H 402.759 -3.89562 -1.4565 0
M  V30 4315 H 401.336 -2.56089 -2.71059 0
M  V30 4316 N 403.521 0.559213 -1.47345 0
M  V30 4317 C 404.746 1.34676 -1.57725 0
M  V30 4318 C 405.171 1.86723 -0.227164 0
M  V30 4319 O 404.529 1.6286 0.796642 0
M  V30 4320 C 404.577 2.49399 -2.60447 0
M  V30 4321 O 403.681 3.51567 -2.15578 0
M  V30 4322 H 403.022 0.400115 -0.52991 0
M  V30 4323 H 405.552 0.676009 -1.93109 0
M  V30 4324 H 405.562 2.95996 -2.80803 0
M  V30 4325 H 404.237 2.10873 -3.58477 0
M  V30 4326 H 402.814 3.11289 -2.05313 0
M  V30 4327 N 404.999 1.35443 0.805782 0
M  V30 4328 C 405.909 1.30546 1.94923 0
M  V30 4329 C 406.925 0.210233 1.72725 0
M  V30 4330 O 408.101 0.43975 1.9654 0
M  V30 4331 C 405.166 1.07782 3.29521 0
M  V30 4332 C 404.227 2.26625 3.64609 0
M  V30 4333 C 403.46 2.04938 4.92784 0
M  V30 4334 O 403.683 1.01624 5.61274 0
M  V30 4335 O 402.617 2.9232 5.26149 0
M  V30 4336 H 406.443 2.26779 2.02002 0
M  V30 4337 H 404.028 1.15823 0.943682 0
M  V30 4338 H 405.91 0.969392 4.10098 0
M  V30 4339 H 404.585 0.146003 3.23371 0
M  V30 4340 H 403.492 2.43033 2.84404 0
M  V30 4341 H 404.825 3.18257 3.75464 0
M  V30 4342 N 406.477 -1.02803 1.19454 0
M  V30 4343 C 407.424 -2.11099 0.933046 0
M  V30 4344 C 408.394 -1.65571 -0.132447 0
M  V30 4345 O 409.579 -1.90797 0.00987576 0
M  V30 4346 C 406.719 -3.41763 0.478747 0
M  V30 4347 C 405.832 -4.00833 1.6111 0
M  V30 4348 C 404.967 -5.19511 1.10825 0
M  V30 4349 C 404.006 -5.70639 2.21445 0
M  V30 4350 N 403.143 -6.80589 1.72461 0
M  V30 4351 H 407.983 -2.32804 1.86028 0
M  V30 4352 H 405.52 -1.14179 0.927441 0
M  V30 4353 H 407.478 -4.16736 0.196745 0
M  V30 4354 H 406.108 -3.20166 -0.411493 0
M  V30 4355 H 405.16 -3.23066 2.00829 0
M  V30 4356 H 406.472 -4.34794 2.4445 0
M  V30 4357 H 405.626 -6.01645 0.781533 0
M  V30 4358 H 404.365 -4.87086 0.244606 0
M  V30 4359 H 403.37 -4.87116 2.54947 0
M  V30 4360 H 404.595 -6.05102 3.08267 0
M  V30 4361 H 402.541 -6.50016 0.884056 0
M  V30 4362 H 402.458 -7.13681 2.49389 0
M  V30 4363 H 403.726 -7.66317 1.42755 0
M  V30 4364 N 407.956 -0.998596 -1.21925 0
M  V30 4365 C 409.372 -0.710303 -1.42923 0
M  V30 4366 C 409.572 0.716933 -1.88314 0
M  V30 4367 O 408.628 1.48712 -2.04062 0
M  V30 4368 C 409.941 -1.72072 -2.466 0
M  V30 4369 C 411.489 -1.73681 -2.60392 0
M  V30 4370 C 411.964 -2.73601 -3.67296 0
M  V30 4371 N 413.455 -2.7223 -3.7476 0
M  V30 4372 C 414.19 -3.46206 -4.57087 0
M  V30 4373 N 413.686 -4.29802 -5.43362 0
M  V30 4374 N 415.479 -3.34886 -4.51451 0
M  V30 4375 H 407.63 -1.92028 -0.9077 0
M  V30 4376 H 409.893 -0.828487 -0.460775 0
M  V30 4377 H 409.599 -2.74231 -2.20206 0
M  V30 4378 H 409.473 -1.51818 -3.45299 0
M  V30 4379 H 411.86 -0.722173 -2.86127 0
M  V30 4380 H 411.941 -1.98005 -1.61949 0
M  V30 4381 H 411.585 -3.75217 -3.42307 0
M  V30 4382 H 411.515 -2.46545 -4.65321 0
M  V30 4383 H 414.006 -2.11576 -3.1312 0
M  V30 4384 H 414.319 -4.83061 -6.03218 0
M  V30 4385 H 412.664 -4.33887 -5.42925 0
M  V30 4386 H 415.855 -2.69015 -3.83078 0
M  V30 4387 H 416.028 -3.92796 -5.15379 0
M  V30 4388 N 409.434 1.37368 -0.772513 0
M  V30 4389 C 410.681 1.99673 -0.337182 0
M  V30 4390 C 411.009 1.61324 1.0865 0
M  V30 4391 O 410.264 0.851377 1.7621 0
M  V30 4392 C 410.563 3.54817 -0.428876 0
M  V30 4393 C 410.229 4.12936 -1.81092 0
M  V30 4394 C 408.891 4.28523 -2.1891 0
M  V30 4395 C 411.243 4.44801 -2.71664 0
M  V30 4396 C 408.571 4.73277 -3.46735 0
M  V30 4397 C 410.923 4.90981 -3.98899 0
M  V30 4398 C 409.587 5.04773 -4.36761 0
M  V30 4399 H 408.857 0.730656 -0.123384 0
M  V30 4400 H 411.504 1.64124 -0.986686 0
M  V30 4401 H 409.809 3.90618 0.304167 0
M  V30 4402 H 411.506 4.00933 -0.0733334 0
M  V30 4403 H 408.096 4.01233 -1.50699 0
M  V30 4404 H 412.28 4.32344 -2.43706 0
M  V30 4405 H 407.536 4.82142 -3.75964 0
M  V30 4406 H 411.71 5.14603 -4.69208 0
M  V30 4407 H 409.337 5.39211 -5.35868 0
M  V30 4408 N 410.912 0.523116 1.48665 0
M  V30 4409 C 412.16 -0.0134497 2.02096 0
M  V30 4410 C 412.481 -1.35418 1.40311 0
M  V30 4411 O 411.751 -1.87543 0.566074 0
M  V30 4412 H 410.331 -0.00795915 0.746958 0
M  V30 4413 H 412.993 0.685388 1.82451 0
M  V30 4414 H 412.089 -0.126849 3.11842 0
M  V30 4415 N 412.39 -1.55475 0.257931 0
M  V30 4416 C 413.32 -2.24815 -0.630912 0
M  V30 4417 C 414.301 -1.23224 -1.17259 0
M  V30 4418 O 415.486 -1.51904 -1.20991 0
M  V30 4419 C 412.616 -2.95609 -1.82298 0
M  V30 4420 C 411.57 -4.03982 -1.41359 0
M  V30 4421 C 410.896 -4.6226 -2.68738 0
M  V30 4422 C 412.196 -5.19109 -0.57648 0
M  V30 4423 H 413.89 -2.99354 -0.0526878 0
M  V30 4424 H 411.436 -1.4398 -0.023901 0
M  V30 4425 H 413.389 -3.42822 -2.45054 0
M  V30 4426 H 412.113 -2.18577 -2.42676 0
M  V30 4427 H 410.772 -3.57555 -0.809324 0
M  V30 4428 H 410.42 -3.81915 -3.27338 0
M  V30 4429 H 410.12 -5.35424 -2.42065 0
M  V30 4430 H 411.644 -5.12212 -3.32372 0
M  V30 4431 H 413.058 -5.62479 -1.10861 0
M  V30 4432 H 411.455 -5.98729 -0.405351 0
M  V30 4433 H 412.525 -4.83174 0.408776 0
M  V30 4434 N 413.868 0.0150385 -1.57593 0
M  V30 4435 C 414.778 1.02791 -2.10882 0
M  V30 4436 C 415.794 1.38702 -1.0506 0
M  V30 4437 O 416.97 1.47739 -1.36877 0
M  V30 4438 C 414.035 2.30568 -2.58919 0
M  V30 4439 C 413.096 2.01108 -3.79281 0
M  V30 4440 C 412.329 3.22794 -4.25018 0
M  V30 4441 O 412.552 4.33959 -3.70183 0
M  V30 4442 O 411.486 3.07672 -5.17322 0
M  V30 4443 H 415.312 0.604973 -2.97613 0
M  V30 4444 H 412.897 0.23292 -1.47573 0
M  V30 4445 H 414.779 3.05662 -2.90084 0
M  V30 4446 H 413.454 2.72129 -1.75293 0
M  V30 4447 H 412.361 1.23537 -3.53114 0
M  V30 4448 H 413.694 1.64394 -4.63935 0
M  V30 4449 N 415.346 1.54954 0.287554 0
M  V30 4450 C 416.594 1.74528 1.01904 0
M  V30 4451 C 416.915 0.541349 1.87335 0
M  V30 4452 O 416.185 -0.444108 1.908 0
M  V30 4453 H 414.765 0.643576 0.379235 0
M  V30 4454 H 417.427 1.92333 0.315294 0
M  V30 4455 H 416.523 2.64015 1.6644 0
M  V30 4456 N 416.824 -0.551391 1.4764 0
M  V30 4457 C 418.064 -1.31901 1.56145 0
M  V30 4458 C 418.428 -1.90724 0.221013 0
M  V30 4459 O 419.629 -2.6819 0.180945 0
M  V30 4460 C 417.9 -2.39517 2.65267 0
M  V30 4461 S 419.459 -3.26289 2.93395 0
M  V30 4462 H 416.277 -0.448965 0.551318 0
M  V30 4463 H 418.879 -0.630599 1.85051 0
M  V30 4464 H 417.583 -1.94747 3.6125 0
M  V30 4465 H 417.114 -3.13092 2.38195 0
M  V30 4466 H 419.129 -4.39122 2.31055 0
M  V30 4467 N 418.302 -1.35869 -0.798587 0
M  V30 4468 C 419.212 -1.31578 -1.94228 0
M  V30 4469 C 420.228 -0.21939 -1.72611 0
M  V30 4470 O 421.404 -0.450167 -1.96305 0
M  V30 4471 C 418.469 -1.09528 -3.28944 0
M  V30 4472 C 417.53 -2.28556 -3.63402 0
M  V30 4473 C 416.763 -2.07549 -4.9169 0
M  V30 4474 O 416.986 -1.046 -5.60727 0
M  V30 4475 O 415.92 -2.95106 -5.24591 0
M  V30 4476 H 419.746 -2.27847 -2.00796 0
M  V30 4477 H 417.331 -1.16322 -0.937526 0
M  V30 4478 H 419.213 -0.991127 -4.09579 0
M  V30 4479 H 417.888 -0.16315 -3.23289 0
M  V30 4480 H 416.795 -2.44538 -2.83112 0
M  V30 4481 H 418.128 -3.20244 -3.73771 0
M  V30 4482 N 419.78 1.02168 -1.19998 0
M  V30 4483 C 421.026 1.75945 -1.00852 0
M  V30 4484 C 421.359 1.88702 0.458828 0
M  V30 4485 O 420.634 1.40911 1.34069 0
M  V30 4486 C 420.917 3.18154 -1.68671 0
M  V30 4487 C 420.77 3.13224 -3.22817 0
M  V30 4488 C 422.089 4.16711 -1.41561 0
M  V30 4489 H 419.208 0.638673 -0.367785 0
M  V30 4490 H 421.85 1.19222 -1.4794 0
M  V30 4491 H 420 3.66586 -1.28636 0
M  V30 4492 H 421.672 2.72635 -3.72112 0
M  V30 4493 H 419.915 2.50751 -3.53986 0
M  V30 4494 H 420.586 4.13728 -3.65422 0
M  V30 4495 H 423.062 3.76913 -1.76284 0
M  V30 4496 H 421.938 5.14391 -1.91553 0
M  V30 4497 H 422.199 4.40774 -0.342193 0
M  V30 4498 N 421.258 1.00505 1.21394 0
M  V30 4499 C 422.188 0.585684 2.26035 0
M  V30 4500 C 423.169 -0.393525 1.65485 0
M  V30 4501 O 424.354 -0.281497 1.92149 0
M  V30 4502 C 421.484 -0.0884283 3.47187 0
M  V30 4503 C 420.438 0.810567 4.20254 0
M  V30 4504 C 419.764 0.00286382 5.347 0
M  V30 4505 C 421.064 2.1132 4.77641 0
M  V30 4506 H 422.758 1.46039 2.61368 0
M  V30 4507 H 420.304 0.703648 1.25638 0
M  V30 4508 H 422.257 -0.393286 4.19561 0
M  V30 4509 H 420.981 -0.997766 3.10986 0
M  V30 4510 H 419.64 1.09925 3.49731 0
M  V30 4511 H 419.288 -0.907765 4.94741 0
M  V30 4512 H 418.988 0.601444 5.84514 0
M  V30 4513 H 420.512 -0.295808 6.09883 0
M  V30 4514 H 421.926 1.87148 5.41893 0
M  V30 4515 H 420.323 2.66164 5.37845 0
M  V30 4516 H 421.393 2.78393 3.9702 0
M  V30 4517 N 422.737 -1.36956 0.779787 0
M  V30 4518 C 423.986 -1.98738 0.344405 0
M  V30 4519 C 424.299 -1.62596 -1.08728 0
M  V30 4520 O 425.505 -2.1754 -1.62445 0
M  V30 4521 C 423.961 -3.5544 0.564829 0
M  V30 4522 C 423.569 -4.00514 2.0073 0
M  V30 4523 C 425.313 -4.24059 0.193471 0
M  V30 4524 C 423.22 -5.49957 2.17489 0
M  V30 4525 H 422.15 -0.743561 0.12503 0
M  V30 4526 H 424.801 -1.56381 0.960057 0
M  V30 4527 H 423.183 -3.95817 -0.120397 0
M  V30 4528 H 424.357 -3.71362 2.72814 0
M  V30 4529 H 422.672 -3.44703 2.336 0
M  V30 4530 H 425.269 -5.33874 0.297097 0
M  V30 4531 H 425.612 -4.07378 -0.857263 0
M  V30 4532 H 426.145 -3.89012 0.831556 0
M  V30 4533 H 422.884 -5.71574 3.2091 0
M  V30 4534 H 422.404 -5.80767 1.49899 0
M  V30 4535 H 424.083 -6.16043 1.97738 0
M  V30 4536 N 424.215 -0.530993 -1.48385 0
M  V30 4537 C 425.626 -0.0907905 -1.86479 0
M  V30 4538 C 425.977 1.33213 -1.44044 0
M  V30 4539 O 425.102 1.99783 -0.831615 0
M  V30 4540 C 425.697 -0.157987 -3.38431 0
M  V30 4541 C 424.256 0.227026 -3.75715 0
M  V30 4542 C 423.403 -0.5173 -2.72432 0
M  V30 4543 H 426.354 -0.742186 -1.40276 0
M  V30 4544 H 426.375 0.630053 -3.75247 0
M  V30 4545 H 425.887 -1.19372 -3.69286 0
M  V30 4546 H 423.988 1.26486 -3.50474 0
M  V30 4547 H 424.101 -0.113288 -4.78966 0
M  V30 4548 H 422.465 0.0365527 -2.54674 0
M  V30 4549 H 423.248 -1.55368 -3.0613 0
M  V30 4550 N 425.693 1.55336 -0.266172 0
M  V30 4551 C 426.656 2.20878 0.612001 0
M  V30 4552 C 427.656 1.18388 1.08816 0
M  V30 4553 O 428.846 1.4335 0.989774 0
M  V30 4554 C 425.978 2.86765 1.84332 0
M  V30 4555 H 427.171 2.99873 0.0398718 0
M  V30 4556 H 424.724 1.56291 -0.0167309 0
M  V30 4557 H 425.459 2.11759 2.45619 0
M  V30 4558 H 425.244 3.61862 1.5099 0
M  V30 4559 H 426.734 3.36867 2.46801 0
M  V30 4560 N 427.171 -0.0066808 1.57599 0
M  V30 4561 C 428.101 -0.999296 2.11036 0
M  V30 4562 C 429.082 -1.36278 1.01795 0
M  V30 4563 O 430.267 -1.4477 1.29442 0
M  V30 4564 C 427.397 -2.29328 2.60818 0
M  V30 4565 C 426.351 -2.07159 3.74525 0
M  V30 4566 C 425.677 -3.42512 4.10596 0
M  V30 4567 C 426.977 -1.43959 5.02069 0
M  V30 4568 H 428.671 -0.554382 2.94223 0
M  V30 4569 H 426.217 -0.265221 1.41536 0
M  V30 4570 H 428.17 -2.99117 2.96828 0
M  V30 4571 H 426.894 -2.7592 1.74745 0
M  V30 4572 H 425.553 -1.39797 3.38899 0
M  V30 4573 H 425.201 -3.86795 3.21556 0
M  V30 4574 H 424.901 -3.28498 4.87199 0
M  V30 4575 H 426.425 -4.13628 4.4916 0
M  V30 4576 H 427.839 -2.03696 5.35893 0
M  V30 4577 H 426.236 -1.40452 5.83432 0
M  V30 4578 H 427.306 -0.407992 4.83181 0
M  V30 4579 N 428.649 -1.55105 -0.279332 0
M  V30 4580 C 429.596 -1.8755 -1.34513 0
M  V30 4581 C 430.566 -0.726384 -1.49375 0
M  V30 4582 O 431.751 -0.977063 -1.63884 0
M  V30 4583 C 428.891 -2.14738 -2.70151 0
M  V30 4584 C 428.004 -3.42285 -2.63562 0
M  V30 4585 C 427.139 -3.59206 -3.91337 0
M  V30 4586 C 426.178 -4.80467 -3.79233 0
M  V30 4587 N 425.315 -4.94079 -4.98829 0
M  V30 4588 H 430.155 -2.78456 -1.06143 0
M  V30 4589 H 427.692 -1.37867 -0.512936 0
M  V30 4590 H 429.65 -2.28501 -3.49061 0
M  V30 4591 H 428.28 -1.27075 -2.96735 0
M  V30 4592 H 427.332 -3.37029 -1.76397 0
M  V30 4593 H 428.644 -4.31328 -2.50515 0
M  V30 4594 H 427.798 -3.72751 -4.78687 0
M  V30 4595 H 426.537 -2.68337 -4.07243 0
M  V30 4596 H 425.542 -4.66932 -2.90266 0
M  V30 4597 H 426.767 -5.72765 -3.64852 0
M  V30 4598 H 424.713 -4.06139 -5.15158 0
M  V30 4599 H 424.63 -5.77156 -4.8829 0
M  V30 4600 H 425.898 -5.12003 -5.8777 0
M  V30 4601 N 430.127 0.543554 -1.4793 0
M  V30 4602 C 431.355 1.32516 -1.58894 0
M  V30 4603 C 431.77 1.87215 -0.244131 0
M  V30 4604 O 431.127 1.65709 0.764652 0
M  V30 4605 C 431.178 2.48554 -2.62494 0
M  V30 4606 O 430.899 1.96112 -3.91755 0
M  V30 4607 C 432.4 3.40572 -2.8377 0
M  V30 4608 H 429.62 0.403472 -0.536145 0
M  V30 4609 H 432.164 0.657106 -1.93655 0
M  V30 4610 H 430.319 3.1127 -2.30629 0
M  V30 4611 H 430.733 2.71967 -4.4848 0
M  V30 4612 H 432.207 4.18375 -3.60093 0
M  V30 4613 H 432.684 3.94965 -1.92092 0
M  V30 4614 H 433.29 2.8366 -3.16887 0
M  V30 4615 N 431.605 1.3629 0.791371 0
M  V30 4616 C 432.854 1.29742 1.54434 0
M  V30 4617 C 433.167 -0.121729 1.95221 0
M  V30 4618 O 434.373 -0.309579 2.69729 0
M  V30 4619 C 432.829 2.27623 2.78776 0
M  V30 4620 C 432.437 3.74963 2.45166 0
M  V30 4621 C 434.181 2.30047 3.56761 0
M  V30 4622 C 432.088 4.64626 3.65891 0
M  V30 4623 H 431.018 0.482113 0.579727 0
M  V30 4624 H 433.669 1.61642 0.868565 0
M  V30 4625 H 432.051 1.88714 3.48142 0
M  V30 4626 H 433.225 4.22596 1.83709 0
M  V30 4627 H 431.54 3.75295 1.80396 0
M  V30 4628 H 434.137 2.94247 4.46456 0
M  V30 4629 H 434.48 1.30846 3.95203 0
M  V30 4630 H 435.013 2.67563 2.94372 0
M  V30 4631 H 431.752 5.64883 3.32547 0
M  V30 4632 H 431.272 4.2171 4.26521 0
M  V30 4633 H 432.951 4.80801 4.32943 0
M  V30 4634 N 433.083 -1.0153 1.20538 0
M  V30 4635 C 434.332 -1.74558 1.01057 0
M  V30 4636 C 434.645 -1.90168 -0.457756 0
M  V30 4637 O 435.851 -2.60301 -0.771722 0
M  V30 4638 C 434.307 -3.13963 1.75941 0
M  V30 4639 C 433.915 -3.06361 3.26875 0
M  V30 4640 C 435.659 -3.91191 1.64832 0
M  V30 4641 C 433.566 -4.40782 3.94291 0
M  V30 4642 H 432.496 -0.654417 0.374505 0
M  V30 4643 H 435.147 -1.13521 1.44171 0
M  V30 4644 H 433.529 -3.75549 1.25614 0
M  V30 4645 H 434.703 -2.54074 3.84425 0
M  V30 4646 H 433.018 -2.42625 3.38411 0
M  V30 4647 H 435.615 -4.90644 2.12539 0
M  V30 4648 H 435.958 -4.11884 0.604745 0
M  V30 4649 H 436.491 -3.36236 2.12579 0
M  V30 4650 H 433.23 -4.25292 4.98805 0
M  V30 4651 H 432.75 -4.9307 3.41529 0
M  V30 4652 H 434.429 -5.09621 3.98617 0
M  V30 4653 N 434.561 -1.01147 -1.20859 0
M  V30 4654 C 435.838 -0.613136 -1.85742 0
M  V30 4655 C 436.218 0.909004 -1.90526 0
M  V30 4656 O 435.566 1.79862 -1.40932 0
M  V30 4657 C 435.776 -1.255 -3.25654 0
M  V30 4658 C 437.124 -1.3672 -4.01986 0
M  V30 4659 O 438.148 -1.21082 -3.34989 0
M  V30 4660 O 437.007 -1.6194 -5.21956 0
M  V30 4661 H 434.101 -0.210878 -0.799662 0
M  V30 4662 H 436.647 -1.10853 -1.2849 0
M  V30 4663 H 435.419 -2.29532 -3.16908 0
M  V30 4664 H 435.042 -0.746369 -3.90532 0
M  V30 4665 N 436.039 1.36541 -0.78704 0
M  V30 4666 C 436.986 2.30082 -0.181901 0
M  V30 4667 C 437.956 1.5186 0.672896 0
M  V30 4668 O 439.141 1.80374 0.622072 0
M  V30 4669 C 436.281 3.3835 0.679197 0
M  V30 4670 C 435.394 4.31565 -0.193882 0
M  V30 4671 C 434.529 5.26915 0.673364 0
M  V30 4672 C 433.568 6.11769 -0.201315 0
M  V30 4673 N 432.705 6.99315 0.624777 0
M  V30 4674 H 437.545 2.81248 -0.985064 0
M  V30 4675 H 435.082 1.38437 -0.497342 0
M  V30 4676 H 437.04 3.99767 1.19341 0
M  V30 4677 H 435.67 2.8851 1.44781 0
M  V30 4678 H 434.722 3.71323 -0.826044 0
M  V30 4679 H 436.034 4.91191 -0.867937 0
M  V30 4680 H 435.188 5.9361 1.25348 0
M  V30 4681 H 433.927 4.67737 1.38105 0
M  V30 4682 H 432.932 5.44039 -0.793849 0
M  V30 4683 H 434.157 6.73022 -0.906568 0
M  V30 4684 H 432.103 6.42648 1.3168 0
M  V30 4685 H 432.02 7.56 0.00835237 0
M  V30 4686 H 433.288 7.70382 1.18879 0
M  V30 4687 N 437.518 0.538854 1.48102 0
M  V30 4688 C 438.743 0.0102694 2.07397 0
M  V30 4689 C 439.168 -1.26562 1.39153 0
M  V30 4690 O 438.526 -1.75357 0.460387 0
M  V30 4691 C 438.574 -0.187602 3.60112 0
M  V30 4692 O 437.678 -1.25432 3.92862 0
M  V30 4693 H 437.019 0.0430975 0.6626 0
M  V30 4694 H 439.549 0.749301 1.90385 0
M  V30 4695 H 439.559 -0.407517 4.0596 0
M  V30 4696 H 438.234 0.744386 4.09184 0
M  V30 4697 H 436.811 -1.01636 3.58782 0
M  V30 4698 N 438.996 -1.55193 0.274407 0
M  V30 4699 C 440.221 -2.04446 -0.348824 0
M  V30 4700 C 440.646 -1.15149 -1.48735 0
M  V30 4701 O 440.004 -0.149952 -1.80679 0
M  V30 4702 C 440.052 -3.51431 -0.808009 0
M  V30 4703 O 439.156 -3.65225 -1.91531 0
M  V30 4704 H 438.497 -0.66006 -0.0722276 0
M  V30 4705 H 441.027 -2.00481 0.408498 0
M  V30 4706 H 441.037 -3.92781 -1.10395 0
M  V30 4707 H 439.712 -4.15892 0.0249865 0
M  V30 4708 H 438.289 -3.35778 -1.62196 0
M  V30 4709 N 440.474 -0.00167713 -1.576 0
M  V30 4710 C 441.384 1.00548 -2.1196 0
M  V30 4711 C 442.4 1.3758 -1.06526 0
M  V30 4712 O 443.576 1.46278 -1.38436 0
M  V30 4713 C 440.641 2.27809 -2.6135 0
M  V30 4714 C 439.702 1.97074 -3.81393 0
M  V30 4715 C 438.935 3.18267 -4.28417 0
M  V30 4716 O 439.158 4.30009 -3.74765 0
M  V30 4717 O 438.092 3.02167 -5.20556 0
M  V30 4718 H 441.918 0.573373 -2.98238 0
M  V30 4719 H 439.503 0.217255 -1.47812 0
M  V30 4720 H 441.385 3.02568 -2.93309 0
M  V30 4721 H 440.06 2.70254 -1.78169 0
M  V30 4722 H 438.967 1.19785 -3.54404 0
M  V30 4723 H 440.3 1.59464 -4.65652 0
M  V30 4724 N 441.952 1.55251 0.271103 0
M  V30 4725 C 442.9 1.89054 1.35504 0
M  V30 4726 C 443.894 0.767064 1.51038 0
M  V30 4727 O 445.1 0.951429 1.528 0
M  V30 4728 H 441.475 0.600072 0.45323 0
M  V30 4729 H 443.446 2.79598 1.04247 0
M  V30 4730 C 442.195 2.18068 2.70817 0
M  V30 4731 H 441.518 3.04005 2.59656 0
M  V30 4732 H 442.958 2.4564 3.45597 0
M  V30 4733 C 441.417 0.988901 3.2206 0
M  V30 4734 O 441.947 0.224501 4.01072 0
M  V30 4735 N 440.153 0.786085 2.79766 0
M  V30 4736 H 439.7 1.40937 2.15626 0
M  V30 4737 H 439.658 -0.00969349 3.14399 0
M  V30 4738 N 443.43 -0.535701 1.48216 0
M  V30 4739 C 444.678 -1.28928 1.55634 0
M  V30 4740 C 444.999 -1.93645 0.229514 0
M  V30 4741 O 444.269 -1.81038 -0.74846 0
M  V30 4742 H 442.849 -0.47884 0.573342 0
M  V30 4743 H 445.511 -0.623853 1.84646 0
M  V30 4744 H 444.607 -2.07157 2.33436 0
M  V30 4745 N 444.908 -1.36708 -0.784132 0
M  V30 4746 C 446.154 -1.31426 -1.54451 0
M  V30 4747 C 446.487 0.10476 -1.93917 0
M  V30 4748 O 445.762 1.05934 -1.6312 0
M  V30 4749 C 446.045 -2.24189 -2.818 0
M  V30 4750 C 445.898 -3.74813 -2.48667 0
M  V30 4751 C 447.217 -2.15626 -3.83658 0
M  V30 4752 H 444.336 -0.478739 -0.560337 0
M  V30 4753 H 446.978 -1.67305 -0.900498 0
M  V30 4754 H 445.128 -1.93722 -3.36755 0
M  V30 4755 H 446.8 -4.15823 -1.99722 0
M  V30 4756 H 445.043 -3.93989 -1.81535 0
M  V30 4757 H 445.714 -4.35138 -3.39646 0
M  V30 4758 H 448.19 -2.42456 -3.38163 0
M  V30 4759 H 447.066 -2.82694 -4.70506 0
M  V30 4760 H 447.327 -1.14522 -4.27009 0
M  V30 4761 N 446.386 1.0089 -1.21074 0
M  V30 4762 C 447.663 1.71834 -0.934469 0
M  V30 4763 C 448.043 2.0368 0.554753 0
M  V30 4764 O 447.391 1.70742 1.51854 0
M  V30 4765 C 447.601 2.98061 -1.8155 0
M  V30 4766 C 448.949 3.7117 -2.06199 0
M  V30 4767 O 449.973 3.08034 -1.78867 0
M  V30 4768 O 448.832 4.84721 -2.52404 0
M  V30 4769 H 445.926 0.749253 -0.35007 0
M  V30 4770 H 448.472 1.06668 -1.31985 0
M  V30 4771 H 447.244 2.70908 -2.82355 0
M  V30 4772 H 446.867 3.70968 -1.43068 0
M  V30 4773 N 447.864 1.01787 1.20321 0
M  V30 4774 C 449.094 0.72614 1.93419 0
M  V30 4775 C 449.502 -0.717317 1.75075 0
M  V30 4776 O 448.845 -1.49836 1.06278 0
M  V30 4777 C 448.907 0.983621 3.45782 0
M  V30 4778 C 448.571 2.41645 3.87888 0
M  V30 4779 C 449.568 3.39732 3.93545 0
M  V30 4780 C 447.253 2.75752 4.19841 0
M  V30 4781 C 449.247 4.69988 4.30569 0
M  V30 4782 C 446.934 4.06221 4.56539 0
M  V30 4783 C 447.932 5.0315 4.61876 0
M  V30 4784 O 447.62 6.31284 4.97731 0
M  V30 4785 H 447.352 0.265824 0.621541 0
M  V30 4786 H 449.906 1.3623 1.53722 0
M  V30 4787 H 448.136 0.290301 3.85609 0
M  V30 4788 H 449.825 0.683279 4.00108 0
M  V30 4789 H 450.591 3.14718 3.69022 0
M  V30 4790 H 446.47 2.00993 4.14877 0
M  V30 4791 H 450.014 5.45642 4.3465 0
M  V30 4792 H 445.911 4.31013 4.80518 0
M  V30 4793 H 446.679 6.35591 5.15719 0
M  V30 4794 N 449.342 -1.36122 0.79427 0
M  V30 4795 C 450.588 -1.99406 0.369452 0
M  V30 4796 C 450.921 -1.62886 -1.05743 0
M  V30 4797 O 450.196 -0.886053 -1.73145 0
M  V30 4798 C 450.479 -3.56046 0.538833 0
M  V30 4799 C 450.332 -4.02404 2.00976 0
M  V30 4800 C 451.651 -4.40079 -0.0431359 0
M  V30 4801 H 448.77 -0.724397 0.135712 0
M  V30 4802 H 451.412 -1.61461 1.00151 0
M  V30 4803 H 449.562 -3.885 0.000771004 0
M  V30 4804 H 451.234 -3.80415 2.60926 0
M  V30 4805 H 449.477 -3.53765 2.51063 0
M  V30 4806 H 450.148 -5.11344 2.07922 0
M  V30 4807 H 452.624 -4.14013 0.416228 0
M  V30 4808 H 451.5 -5.48799 0.105374 0
M  V30 4809 H 451.761 -4.27264 -1.13571 0
M  V30 4810 N 450.82 -0.546701 -1.47814 0
M  V30 4811 C 452.069 -0.0166497 -2.01693 0
M  V30 4812 C 452.382 1.33721 -1.42752 0
M  V30 4813 O 453.588 1.95658 -1.8823 0
M  V30 4814 C 452.044 0.0206769 -3.59894 0
M  V30 4815 C 451.652 -1.3293 -4.27824 0
M  V30 4816 C 453.396 0.498674 -4.21561 0
M  V30 4817 C 451.303 -1.25165 -5.78003 0
M  V30 4818 H 450.233 -0.0024541 -0.753996 0
M  V30 4819 H 452.884 -0.692984 -1.69912 0
M  V30 4820 H 451.266 0.76244 -3.88591 0
M  V30 4821 H 452.44 -2.08795 -4.10781 0
M  V30 4822 H 450.755 -1.74438 -3.78101 0
M  V30 4823 H 453.352 0.575 -5.31599 0
M  V30 4824 H 453.695 1.5083 -3.88016 0
M  V30 4825 H 454.228 -0.18791 -3.97356 0
M  V30 4826 H 450.967 -2.23695 -6.1615 0
M  V30 4827 H 450.487 -0.53464 -5.97412 0
M  V30 4828 H 452.166 -0.949299 -6.39998 0
M  V30 4829 N 452.299 1.55045 -0.282633 0
M  V30 4830 C 453.232 2.18951 0.64311 0
M  V30 4831 C 454.21 1.15287 1.14664 0
M  V30 4832 O 455.394 1.43846 1.21822 0
M  V30 4833 C 452.521 2.81874 1.87789 0
M  V30 4834 C 451.567 3.98906 1.50919 0
M  V30 4835 S 452.4 5.3234 0.580884 0
M  V30 4836 C 453.556 5.98737 1.82387 0
M  V30 4837 H 453.789 2.97131 0.100138 0
M  V30 4838 H 451.322 1.54255 -0.0668514 0
M  V30 4839 H 453.28 3.18757 2.58658 0
M  V30 4840 H 451.941 2.03573 2.392 0
M  V30 4841 H 451.134 4.4165 2.42819 0
M  V30 4842 H 450.736 3.63485 0.88061 0
M  V30 4843 H 453.028 6.18427 2.76684 0
M  V30 4844 H 453.971 6.93318 1.4393 0
M  V30 4845 H 454.379 5.28177 1.99223 0
M  V30 4846 N 453.777 0.010035 1.57597 0
M  V30 4847 C 455.025 -0.671371 1.90623 0
M  V30 4848 C 455.346 -1.73753 0.885151 0
M  V30 4849 O 454.616 -1.95752 -0.0760611 0
M  V30 4850 H 453.196 -0.250968 0.703579 0
M  V30 4851 H 455.858 0.0533325 1.94827 0
M  V30 4852 H 454.954 -1.13626 2.90681 0
M  V30 4853 N 455.255 -1.55392 -0.262866 0
M  V30 4854 C 456.188 -1.8391 -1.35101 0
M  V30 4855 C 457.166 -0.692901 -1.47097 0
M  V30 4856 O 458.35 -0.936979 -1.63563 0
M  V30 4857 C 455.477 -2.00969 -2.72634 0
M  V30 4858 C 454.523 -3.23559 -2.7787 0
M  V30 4859 S 455.356 -4.80647 -2.3609 0
M  V30 4860 C 456.512 -5.00692 -3.75578 0
M  V30 4861 H 456.745 -2.75918 -1.1071 0
M  V30 4862 H 454.278 -1.47294 -0.463029 0
M  V30 4863 H 456.236 -2.11482 -3.51832 0
M  V30 4864 H 454.897 -1.09832 -2.94272 0
M  V30 4865 H 454.09 -3.32413 -3.78837 0
M  V30 4866 H 453.692 -3.11689 -2.06702 0
M  V30 4867 H 455.984 -4.87055 -4.70939 0
M  V30 4868 H 456.927 -6.02717 -3.71669 0
M  V30 4869 H 457.335 -4.28619 -3.6735 0
M  V30 4870 N 456.733 0.527833 -1.48498 0
M  V30 4871 C 458.144 1.10975 -1.50138 0
M  V30 4872 C 458.495 1.943 -0.272378 0
M  V30 4873 O 457.62 2.07319 0.620301 0
M  V30 4874 C 458.215 2.01927 -2.72049 0
M  V30 4875 C 456.774 2.55332 -2.76554 0
M  V30 4876 C 455.921 1.32341 -2.43683 0
M  V30 4877 H 458.872 0.312986 -1.55583 0
M  V30 4878 H 458.893 2.86244 -2.50689 0
M  V30 4879 H 458.405 1.41254 -3.61481 0
M  V30 4880 H 456.506 3.19721 -1.91336 0
M  V30 4881 H 456.619 2.94319 -3.78038 0
M  V30 4882 H 454.983 1.63989 -1.94884 0
M  V30 4883 H 455.766 0.734165 -3.35358 0
M  V30 4884 N 458.211 1.37122 0.776871 0
M  V30 4885 C 459.161 1.28989 1.88005 0
M  V30 4886 C 460.145 0.178765 1.59904 0
M  V30 4887 O 461.337 0.412705 1.72121 0
M  V30 4888 C 458.466 1.09402 3.25402 0
M  V30 4889 C 457.552 2.25036 3.59471 0
M  V30 4890 N 457.943 3.50407 3.64759 0
M  V30 4891 C 456.241 2.17078 3.89607 0
M  V30 4892 C 456.942 4.26628 3.95428 0
M  V30 4893 N 455.918 3.55709 4.11062 0
M  V30 4894 H 459.72 2.2394 1.90337 0
M  V30 4895 H 457.234 1.30021 0.973052 0
M  V30 4896 H 459.231 1.01661 4.04315 0
M  V30 4897 H 457.891 0.153632 3.24336 0
M  V30 4898 H 458.902 3.8438 3.47091 0
M  V30 4899 H 455.579 1.31067 3.96393 0
M  V30 4900 H 456.969 5.35107 4.06338 0
M  V30 4901 N 459.689 -1.00246 1.21608 0
M  V30 4902 C 461.105 -1.26435 0.973975 0
M  V30 4903 C 461.305 -1.98642 -0.338143 0
M  V30 4904 O 460.361 -2.29026 -1.06317 0
M  V30 4905 C 461.674 -2.08551 2.16626 0
M  V30 4906 C 463.222 -2.21769 2.20879 0
M  V30 4907 C 463.697 -3.07267 3.39633 0
M  V30 4908 N 465.188 -3.14855 3.39736 0
M  V30 4909 C 465.923 -3.81274 4.28273 0
M  V30 4910 N 465.419 -4.497 5.27012 0
M  V30 4911 N 467.212 -3.7794 4.16074 0
M  V30 4912 H 459.363 -0.518089 2.05984 0
M  V30 4913 H 461.626 -0.291368 0.902113 0
M  V30 4914 H 461.332 -1.62847 3.11727 0
M  V30 4915 H 461.206 -3.09303 2.15897 0
M  V30 4916 H 463.593 -2.66691 1.26332 0
M  V30 4917 H 463.674 -1.20478 2.25652 0
M  V30 4918 H 463.318 -2.63047 4.34475 0
M  V30 4919 H 463.248 -4.08678 3.321 0
M  V30 4920 H 465.739 -2.66147 2.6828 0
M  V30 4921 H 466.052 -4.98092 5.90867 0
M  V30 4922 H 464.397 -4.48479 5.30935 0
M  V30 4923 H 467.588 -3.23638 3.38195 0
M  V30 4924 H 467.761 -4.29424 4.85282 0
M  V30 4925 N 461.167 -1.02423 -1.1978 0
M  V30 4926 C 462.415 -0.716569 -1.8897 0
M  V30 4927 C 462.736 0.756769 -1.79716 0
M  V30 4928 O 462.006 1.5449 -1.20456 0
M  V30 4929 H 460.586 -0.262062 -0.699523 0
M  V30 4930 H 463.248 -1.29747 -1.45436 0
M  V30 4931 H 462.344 -1.00675 -2.95417 0
M  V30 4932 N 462.645 1.35699 -0.801477 0
M  V30 4933 C 464.061 1.52065 -0.484596 0
M  V30 4934 C 464.261 1.75215 0.995084 0
M  V30 4935 O 463.317 1.79061 1.78026 0
M  V30 4936 C 464.63 2.69908 -1.32552 0
M  V30 4937 C 466.178 2.83784 -1.32044 0
M  V30 4938 C 466.653 4.04646 -2.14536 0
M  V30 4939 N 468.144 4.11814 -2.12046 0
M  V30 4940 C 468.879 5.04437 -2.72636 0
M  V30 4941 N 468.375 6.02426 -3.42133 0
M  V30 4942 N 470.168 4.97144 -2.62305 0
M  V30 4943 H 462.319 1.18928 -1.75983 0
M  V30 4944 H 464.582 0.581455 -0.748741 0
M  V30 4945 H 464.288 2.59363 -2.37537 0
M  V30 4946 H 464.162 3.64376 -0.975181 0
M  V30 4947 H 466.549 2.93783 -0.27846 0
M  V30 4948 H 466.63 1.90188 -1.71062 0
M  V30 4949 H 466.274 3.95407 -3.18772 0
M  V30 4950 H 466.204 4.97413 -1.72882 0
M  V30 4951 H 468.695 3.41664 -1.61476 0
M  V30 4952 H 469.008 6.69688 -3.85666 0
M  V30 4953 H 467.353 6.02615 -3.46237 0
M  V30 4954 H 470.544 4.19546 -2.07603 0
M  V30 4955 H 470.717 5.69138 -3.09815 0
M  V30 4956 N 464.123 0.554532 1.47522 0
M  V30 4957 C 465.053 -0.182974 2.32782 0
M  V30 4958 C 466.034 -0.911377 1.43624 0
M  V30 4959 O 467.219 -0.892366 1.72483 0
M  V30 4960 C 464.349 -1.21513 3.25349 0
M  V30 4961 C 463.303 -0.603355 4.23726 0
M  V30 4962 C 462.629 -1.73995 5.05598 0
M  V30 4963 C 463.929 0.441121 5.20434 0
M  V30 4964 H 465.623 0.52882 2.94693 0
M  V30 4965 H 463.169 0.255759 1.41711 0
M  V30 4966 H 465.122 -1.73922 3.83835 0
M  V30 4967 H 463.846 -1.95683 2.61487 0
M  V30 4968 H 462.505 -0.10059 3.66462 0
M  V30 4969 H 462.153 -2.47063 4.38143 0
M  V30 4970 H 461.853 -1.3364 5.72201 0
M  V30 4971 H 463.377 -2.26735 5.66942 0
M  V30 4972 H 464.791 0.00319931 5.733 0
M  V30 4973 H 463.188 0.763402 5.95224 0
M  V30 4974 H 464.258 1.33799 4.66075 0
M  V30 4975 N 465.601 -1.54893 0.290851 0
M  V30 4976 C 466.549 -2.24579 -0.605576 0
M  V30 4977 C 467.543 -1.24824 -1.14522 0
M  V30 4978 O 468.749 -1.42706 -1.09704 0
M  V30 4979 H 465.124 -0.720946 -0.213872 0
M  V30 4980 H 467.095 -2.984 0.0048173 0
M  V30 4981 C 465.844 -2.99224 -1.77088 0
M  V30 4982 H 465.167 -3.75782 -1.36484 0
M  V30 4983 H 466.607 -3.51281 -2.3744 0
M  V30 4984 C 465.066 -2.05602 -2.66888 0
M  V30 4985 O 465.596 -1.61745 -3.67698 0
M  V30 4986 N 463.802 -1.71771 -2.34399 0
M  V30 4987 H 463.349 -2.07633 -1.52468 0
M  V30 4988 H 463.307 -1.09403 -2.94751 0
M  V30 4989 N 467.08 -0.0183926 -1.57589 0
M  V30 4990 C 468.326 0.663543 -1.91638 0
M  V30 4991 C 468.659 1.72392 -0.894134 0
M  V30 4992 O 467.934 1.94316 0.0846449 0
M  V30 4993 C 468.217 1.28984 -3.36207 0
M  V30 4994 C 468.07 0.239761 -4.49161 0
M  V30 4995 C 469.389 2.2109 -3.80536 0
M  V30 4996 H 466.508 0.239746 -0.696915 0
M  V30 4997 H 469.15 -0.073456 -1.89858 0
M  V30 4998 H 467.3 1.91799 -3.37854 0
M  V30 4999 H 468.972 -0.390119 -4.59647 0
M  V30 5000 H 467.215 -0.435972 -4.31604 0
M  V30 5001 H 467.886 0.717383 -5.47319 0
M  V30 5002 H 470.362 1.68273 -3.80557 0
M  V30 5003 H 469.238 2.61869 -4.82406 0
M  V30 5004 H 469.499 3.09764 -3.15434 0
M  V30 5005 N 468.558 1.5553 0.254621 0
M  V30 5006 C 469.488 1.9268 1.31897 0
M  V30 5007 C 470.469 0.790797 1.506 0
M  V30 5008 O 471.654 1.05045 1.63337 0
M  V30 5009 C 468.784 2.21477 2.67517 0
M  V30 5010 C 467.738 3.37256 2.63519 0
M  V30 5011 C 467.064 3.51576 4.02862 0
M  V30 5012 C 468.364 4.73157 2.21179 0
M  V30 5013 H 470.058 2.81832 1.01051 0
M  V30 5014 H 467.604 1.35599 0.484662 0
M  V30 5015 H 469.557 2.46055 3.42104 0
M  V30 5016 H 468.281 1.29144 2.99982 0
M  V30 5017 H 466.94 3.12675 1.9139 0
M  V30 5018 H 466.588 2.56676 4.32581 0
M  V30 5019 H 466.288 4.2943 4.01078 0
M  V30 5020 H 467.812 3.78467 4.79161 0
M  V30 5021 H 469.226 4.97158 2.85494 0
M  V30 5022 H 467.623 5.54058 2.30521 0
M  V30 5023 H 468.693 4.70739 1.16332 0
M  V30 5024 N 470.036 -0.519951 1.48776 0
M  V30 5025 C 470.999 -1.60574 1.6355 0
M  V30 5026 C 471.999 -1.52557 0.508234 0
M  V30 5027 O 473.189 -1.56047 0.774262 0
M  V30 5028 C 470.321 -3.00211 1.61512 0
M  V30 5029 H 471.514 -1.4881 2.60376 0
M  V30 5030 H 469.067 -0.742772 1.37523 0
M  V30 5031 H 469.802 -3.17471 0.662009 0
M  V30 5032 H 469.587 -3.07439 2.43359 0
M  V30 5033 H 471.077 -3.79134 1.75064 0
M  V30 5034 N 471.514 -1.37532 -0.769588 0
M  V30 5035 C 472.462 -1.33561 -1.90432 0
M  V30 5036 C 473.456 -0.224027 -1.67912 0
M  V30 5037 O 474.662 -0.392174 -1.75676 0
M  V30 5038 H 471.037 -0.416279 -0.626271 0
M  V30 5039 H 473.008 -2.29348 -1.90899 0
M  V30 5040 C 471.757 -1.16162 -3.27722 0
M  V30 5041 H 471.08 -2.00951 -3.45628 0
M  V30 5042 H 472.52 -1.17434 -4.07413 0
M  V30 5043 C 470.979 0.132583 -3.36639 0
M  V30 5044 O 471.509 1.11539 -3.85904 0
M  V30 5045 N 469.715 0.184013 -2.90017 0
M  V30 5046 H 469.262 -0.616415 -2.50116 0
M  V30 5047 H 469.22 1.04956 -2.96364 0
M  V30 5048 N 472.992 0.995999 -1.22138 0
M  V30 5049 C 474.238 1.73767 -1.04561 0
M  V30 5050 C 474.571 1.89633 0.418698 0
M  V30 5051 O 473.846 1.43723 1.3105 0
M  V30 5052 C 474.129 3.14505 -1.75382 0
M  V30 5053 C 473.982 3.06306 -3.29388 0
M  V30 5054 C 475.301 4.13615 -1.50369 0
M  V30 5055 H 472.42 0.630728 -0.38125 0
M  V30 5056 H 475.062 1.16057 -1.50435 0
M  V30 5057 H 473.212 3.63775 -1.36383 0
M  V30 5058 H 474.884 2.64681 -3.77812 0
M  V30 5059 H 473.127 2.43186 -3.59226 0
M  V30 5060 H 473.798 4.05884 -3.74116 0
M  V30 5061 H 476.274 3.73089 -1.84239 0
M  V30 5062 H 475.15 5.10212 -2.02421 0
M  V30 5063 H 475.411 4.39949 -0.435611 0
M  V30 5064 N 474.47 1.03057 1.19235 0
M  V30 5065 C 475.719 0.72326 1.88287 0
M  V30 5066 C 476.032 -0.751333 1.80594 0
M  V30 5067 O 477.238 -1.17176 2.44912 0
M  V30 5068 C 475.694 1.24338 3.3774 0
M  V30 5069 C 475.302 2.74587 3.53986 0
M  V30 5070 C 477.046 1.01213 4.12257 0
M  V30 5071 C 474.953 3.20009 4.97341 0
M  V30 5072 H 473.883 0.266848 0.705201 0
M  V30 5073 H 476.534 1.24509 1.34795 0
M  V30 5074 H 474.916 0.649457 3.90638 0
M  V30 5075 H 476.09 3.39649 3.11408 0
M  V30 5076 H 474.405 2.9601 2.9286 0
M  V30 5077 H 477.002 1.32675 5.17978 0
M  V30 5078 H 477.345 -0.051001 4.16269 0
M  V30 5079 H 477.878 1.57014 3.65501 0
M  V30 5080 H 474.617 4.25659 4.98493 0
M  V30 5081 H 474.137 2.59676 5.40674 0
M  V30 5082 H 475.816 3.13447 5.66003 0
M  V30 5083 N 475.948 -1.35272 0.808662 0
M  V30 5084 C 477.364 -1.51806 0.492653 0
M  V30 5085 C 477.564 -1.7574 -0.985778 0
M  V30 5086 O 476.62 -1.80003 -1.77074 0
M  V30 5087 C 477.933 -2.69202 1.33981 0
M  V30 5088 C 479.481 -2.8308 1.33547 0
M  V30 5089 C 479.956 -4.03502 2.16679 0
M  V30 5090 N 481.447 -4.10684 2.14227 0
M  V30 5091 C 482.182 -5.02984 2.75308 0
M  V30 5092 N 481.678 -6.00603 3.45323 0
M  V30 5093 N 483.471 -4.95746 2.64938 0
M  V30 5094 H 475.622 -1.17993 1.76611 0
M  V30 5095 H 477.885 -0.577476 0.751814 0
M  V30 5096 H 477.591 -2.581 2.38909 0
M  V30 5097 H 477.465 -3.63854 0.994491 0
M  V30 5098 H 479.852 -2.93631 0.294036 0
M  V30 5099 H 479.933 -1.89278 1.72068 0
M  V30 5100 H 479.577 -3.93711 3.20864 0
M  V30 5101 H 479.507 -4.96489 1.75517 0
M  V30 5102 H 481.998 -3.40802 1.63285 0
M  V30 5103 H 482.311 -6.67633 3.89212 0
M  V30 5104 H 480.656 -6.0077 3.49428 0
M  V30 5105 H 483.847 -4.18439 2.09825 0
M  V30 5106 H 484.02 -5.67487 3.12829 0
M  V30 5107 N 477.426 -0.562348 -1.47226 0
M  V30 5108 C 478.373 0.182461 -2.30078 0
M  V30 5109 C 479.343 0.903503 -1.39377 0
M  V30 5110 O 480.528 0.898188 -1.68337 0
M  V30 5111 C 477.668 1.20322 -3.23445 0
M  V30 5112 C 476.781 0.487717 -4.29238 0
M  V30 5113 C 475.916 1.49422 -5.09752 0
M  V30 5114 C 474.955 0.763976 -6.07314 0
M  V30 5115 N 474.092 1.71755 -6.80768 0
M  V30 5116 H 478.932 -0.530169 -2.93246 0
M  V30 5117 H 476.469 -0.273276 -1.44539 0
M  V30 5118 H 478.427 1.80768 -3.76004 0
M  V30 5119 H 477.057 1.88382 -2.6213 0
M  V30 5120 H 476.109 -0.231374 -3.79696 0
M  V30 5121 H 477.421 -0.0841003 -4.98729 0
M  V30 5122 H 476.575 2.17206 -5.66486 0
M  V30 5123 H 475.314 2.09995 -4.40174 0
M  V30 5124 H 474.319 0.0722344 -5.49753 0
M  V30 5125 H 475.544 0.16391 -6.78902 0
M  V30 5126 H 473.49 2.31177 -6.13916 0
M  V30 5127 H 473.407 1.19802 -7.46447 0
M  V30 5128 H 474.675 2.38638 -7.42073 0
M  V30 5129 N 478.904 1.54736 -0.299062 0
M  V30 5130 C 479.814 2.27127 0.587413 0
M  V30 5131 C 480.83 1.30575 1.15005 0
M  V30 5132 O 482.006 1.63554 1.17525 0
M  V30 5133 C 479.071 2.99645 1.74395 0
M  V30 5134 C 478.132 4.11731 1.21559 0
M  V30 5135 C 477.365 4.80781 2.317 0
M  V30 5136 O 477.588 4.4918 3.51558 0
M  V30 5137 O 476.522 5.68226 1.98501 0
M  V30 5138 H 480.348 3.037 0.000250109 0
M  V30 5139 H 477.933 1.49256 -0.0655919 0
M  V30 5140 H 479.815 3.45138 2.4178 0
M  V30 5141 H 478.49 2.25969 2.31775 0
M  V30 5142 H 477.397 3.70641 0.507514 0
M  V30 5143 H 478.73 4.87379 0.687233 0
M  V30 5144 N 480.382 0.0267497 1.57577 0
M  V30 5145 C 481.312 -0.954308 2.13108 0
M  V30 5146 C 482.293 -1.34088 1.04663 0
M  V30 5147 O 483.478 -1.41992 1.32484 0
M  V30 5148 C 480.608 -2.23744 2.65624 0
M  V30 5149 C 479.562 -1.99168 3.78835 0
M  V30 5150 C 478.888 -3.33726 4.17769 0
M  V30 5151 C 480.188 -1.33277 5.0501 0
M  V30 5152 H 481.882 -0.491848 2.95332 0
M  V30 5153 H 479.428 -0.23514 1.42067 0
M  V30 5154 H 481.381 -2.92754 3.03106 0
M  V30 5155 H 480.105 -2.72151 1.80558 0
M  V30 5156 H 478.764 -1.32577 3.41788 0
M  V30 5157 H 478.412 -3.79888 3.29688 0
M  V30 5158 H 478.112 -3.18089 4.94058 0
M  V30 5159 H 479.636 -4.04008 4.57832 0
M  V30 5160 H 481.05 -1.92283 5.40093 0
M  V30 5161 H 479.447 -1.28045 5.8628 0
M  V30 5162 H 480.517 -0.305411 4.83937 0
M  V30 5163 N 481.861 -1.55662 -0.24637 0
M  V30 5164 C 482.771 -1.93495 -1.32653 0
M  V30 5165 C 483.787 -0.835462 -1.5263 0
M  V30 5166 O 484.963 -1.1369 -1.66242 0
M  V30 5167 C 482.028 -2.22242 -2.66101 0
M  V30 5168 C 481.089 -3.45625 -2.54641 0
M  V30 5169 C 480.322 -3.72991 -3.81724 0
M  V30 5170 O 480.545 -3.02421 -4.8363 0
M  V30 5171 O 479.479 -4.66515 -3.80325 0
M  V30 5172 H 483.305 -2.85498 -1.03559 0
M  V30 5173 H 480.89 -1.42551 -0.44717 0
M  V30 5174 H 482.772 -2.42037 -3.44958 0
M  V30 5175 H 481.447 -1.33417 -2.94926 0
M  V30 5176 H 480.354 -3.31136 -1.74067 0
M  V30 5177 H 481.687 -4.34754 -2.3076 0
M  V30 5178 N 483.339 0.512053 -1.4905 0
M  V30 5179 C 484.271 1.63121 -1.6101 0
M  V30 5180 C 485.284 1.55145 -0.493352 0
M  V30 5181 O 486.473 1.61278 -0.764955 0
M  V30 5182 C 483.573 3.01863 -1.54052 0
M  V30 5183 C 482.746 3.35138 -2.81072 0
M  V30 5184 C 481.805 4.5324 -2.67319 0
M  V30 5185 O 480.831 4.55571 -3.41238 0
M  V30 5186 N 482.033 5.52495 -1.78127 0
M  V30 5187 H 484.798 1.53292 -2.5753 0
M  V30 5188 H 482.359 0.699706 -1.45999 0
M  V30 5189 H 484.351 3.78774 -1.42521 0
M  V30 5190 H 482.921 3.05675 -0.654345 0
M  V30 5191 H 482.141 2.4723 -3.07036 0
M  V30 5192 H 483.429 3.54162 -3.65304 0
M  V30 5193 H 482.827 5.53403 -1.17308 0
M  V30 5194 H 481.384 6.28553 -1.72525 0
M  V30 5195 N 484.817 1.37938 0.762283 0
M  V30 5196 C 486.066 1.32989 1.51647 0
M  V30 5197 C 486.379 -0.0802922 1.95435 0
M  V30 5198 O 487.585 -0.252295 2.70325 0
M  V30 5199 C 486.041 2.33485 2.73885 0
M  V30 5200 C 485.649 3.80079 2.37157 0
M  V30 5201 C 487.393 2.37563 3.51801 0
M  V30 5202 C 485.3 4.72283 3.55954 0
M  V30 5203 H 484.23 0.494301 0.56937 0
M  V30 5204 H 486.881 1.63448 0.834083 0
M  V30 5205 H 485.263 1.96056 3.44061 0
M  V30 5206 H 486.437 4.26398 1.74704 0
M  V30 5207 H 484.752 3.79037 1.72395 0
M  V30 5208 H 487.349 3.0365 4.40114 0
M  V30 5209 H 487.692 1.39199 3.92338 0
M  V30 5210 H 488.225 2.73747 2.8863 0
M  V30 5211 H 484.964 5.7181 3.2049 0
M  V30 5212 H 484.484 4.30663 4.1748 0
M  V30 5213 H 486.163 4.89876 4.22647 0
M  V30 5214 N 486.295 -0.989507 1.22664 0
M  V30 5215 C 487.542 -1.72953 1.05325 0
M  V30 5216 C 487.87 -1.90104 -0.411168 0
M  V30 5217 O 487.125 -1.44386 -1.32103 0
M  V30 5218 C 487.424 -3.13649 1.71345 0
M  V30 5219 C 487.09 -3.16403 3.21248 0
M  V30 5220 C 485.752 -3.16862 3.62149 0
M  V30 5221 C 488.104 -3.12428 4.17179 0
M  V30 5222 C 485.432 -3.11051 4.97458 0
M  V30 5223 C 487.784 -3.08159 5.52468 0
M  V30 5224 C 486.448 -3.06935 5.92746 0
M  V30 5225 H 485.718 -0.632881 0.385412 0
M  V30 5226 H 488.365 -1.15863 1.52473 0
M  V30 5227 H 486.67 -3.74069 1.16532 0
M  V30 5228 H 488.367 -3.69658 1.55416 0
M  V30 5229 H 484.957 -3.16798 2.88682 0
M  V30 5230 H 489.141 -3.11221 3.86595 0
M  V30 5231 H 484.397 -3.0845 5.27891 0
M  V30 5232 H 488.571 -3.04039 6.26525 0
M  V30 5233 H 486.198 -3.02186 6.97558 0
M  V30 5234 N 487.773 -1.03688 -1.18687 0
M  V30 5235 C 489.013 -0.746858 -1.90267 0
M  V30 5236 C 489.377 0.712075 -1.78307 0
M  V30 5237 O 490.578 1.11553 -2.44559 0
M  V30 5238 C 488.849 -1.19543 -3.36815 0
M  V30 5239 S 490.408 -1.03047 -4.26529 0
M  V30 5240 H 487.226 -0.271663 -0.657054 0
M  V30 5241 H 489.828 -1.32838 -1.43437 0
M  V30 5242 H 488.532 -2.2527 -3.43047 0
M  V30 5243 H 488.063 -0.607533 -3.88681 0
M  V30 5244 H 490.078 0.0543232 -4.9617 0
M  V30 5245 N 489.251 1.34841 -0.815825 0
M  V30 5246 C 490.183 2.28409 -0.190265 0
M  V30 5247 C 491.196 1.50705 0.615771 0
M  V30 5248 O 492.385 1.72822 0.446616 0
M  V30 5249 C 489.485 3.30441 0.752446 0
M  V30 5250 C 488.658 4.37399 -0.00922152 0
M  V30 5251 C 487.717 5.19234 0.853351 0
M  V30 5252 O 486.743 5.68404 0.300919 0
M  V30 5253 N 487.945 5.38248 2.17416 0
M  V30 5254 H 490.71 2.82732 -0.994114 0
M  V30 5255 H 488.271 1.47289 -0.672129 0
M  V30 5256 H 490.263 3.82084 1.33394 0
M  V30 5257 H 488.833 2.76565 1.45707 0
M  V30 5258 H 488.053 3.86567 -0.771979 0
M  V30 5259 H 489.341 5.05992 -0.533807 0
M  V30 5260 H 488.739 4.99961 2.6468 0
M  V30 5261 H 487.296 5.93035 2.70467 0
M  V30 5262 N 490.729 0.570148 1.46925 0
M  V30 5263 C 491.976 0.0509529 2.02436 0
M  V30 5264 C 492.304 -1.30405 1.44308 0
M  V30 5265 O 491.559 -1.86493 0.593198 0
M  V30 5266 C 491.858 -0.0780336 3.57315 0
M  V30 5267 C 491.524 1.20775 4.34424 0
M  V30 5268 C 490.186 1.56004 4.5521 0
M  V30 5269 C 492.538 2.0592 4.78797 0
M  V30 5270 C 489.866 2.76201 5.17619 0
M  V30 5271 C 492.218 3.25332 5.42533 0
M  V30 5272 C 490.882 3.60859 5.61549 0
M  V30 5273 H 490.152 0.018645 0.740765 0
M  V30 5274 H 492.799 0.744262 1.76445 0
M  V30 5275 H 491.104 -0.854394 3.82371 0
M  V30 5276 H 492.801 -0.495312 3.97929 0
M  V30 5277 H 489.391 0.923469 4.18533 0
M  V30 5278 H 493.575 1.80008 4.62505 0
M  V30 5279 H 488.831 3.0388 5.30535 0
M  V30 5280 H 493.005 3.91586 5.75876 0
M  V30 5281 H 490.632 4.54088 6.09678 0
M  V30 5282 N 492.207 -1.54576 0.307264 0
M  V30 5283 C 493.484 -1.92377 -0.353605 0
M  V30 5284 C 493.864 -1.23517 -1.71192 0
M  V30 5285 O 493.212 -0.373101 -2.25433 0
M  V30 5286 C 493.422 -3.45928 -0.462039 0
M  V30 5287 C 494.77 -4.18278 -0.729975 0
M  V30 5288 O 495.794 -3.51997 -0.545605 0
M  V30 5289 O 494.653 -5.3563 -1.08454 0
M  V30 5290 H 491.747 -0.802747 -0.198812 0
M  V30 5291 H 494.293 -1.65929 0.355783 0
M  V30 5292 H 493.065 -3.88187 0.492592 0
M  V30 5293 H 492.688 -3.78431 -1.21965 0
M  V30 5294 N 493.685 -0.035106 -1.57561 0
M  V30 5295 C 494.91 0.655802 -1.96759 0
M  V30 5296 C 495.335 1.64523 -0.911809 0
M  V30 5297 O 494.693 1.80857 0.126673 0
M  V30 5298 C 494.741 1.33326 -3.35047 0
M  V30 5299 O 493.845 2.44866 -3.31835 0
M  V30 5300 H 493.186 0.171807 -0.641388 0
M  V30 5301 H 495.716 -0.0987369 -2.04362 0
M  V30 5302 H 495.726 1.68867 -3.71413 0
M  V30 5303 H 494.401 0.608033 -4.11431 0
M  V30 5304 H 492.978 2.11392 -3.07193 0
M  V30 5305 N 495.163 1.55791 0.238111 0
M  V30 5306 C 496.11 1.9105 1.29493 0
M  V30 5307 C 497.08 0.765733 1.47397 0
M  V30 5308 O 498.265 1.02017 1.61236 0
M  V30 5309 C 495.405 2.21826 2.64362 0
M  V30 5310 C 494.518 3.49153 2.54394 0
M  V30 5311 C 493.653 3.69455 3.81676 0
M  V30 5312 C 492.692 4.90353 3.66361 0
M  V30 5313 N 491.829 5.07131 4.85554 0
M  V30 5314 H 496.669 2.81172 0.987233 0
M  V30 5315 H 494.206 1.39179 0.476203 0
M  V30 5316 H 496.164 2.37675 3.4288 0
M  V30 5317 H 494.794 1.34897 2.93262 0
M  V30 5318 H 493.846 3.41587 1.67399 0
M  V30 5319 H 495.158 4.37818 2.38991 0
M  V30 5320 H 494.312 3.85311 4.68636 0
M  V30 5321 H 493.051 2.7904 3.99985 0
M  V30 5322 H 492.056 4.74464 2.77784 0
M  V30 5323 H 493.281 5.82237 3.49538 0
M  V30 5324 H 491.227 4.19654 5.04209 0
M  V30 5325 H 491.144 5.89899 4.72816 0
M  V30 5326 H 492.412 5.27407 5.73988 0
M  V30 5327 N 496.642 -0.504142 1.49319 0
M  V30 5328 C 497.572 -1.61473 1.68667 0
M  V30 5329 C 498.553 -1.61455 0.535378 0
M  V30 5330 O 499.738 -1.78245 0.770868 0
M  V30 5331 C 496.868 -2.99971 1.75028 0
M  V30 5332 C 495.822 -3.14854 2.89916 0
M  V30 5333 C 495.148 -4.54671 2.81387 0
M  V30 5334 C 496.448 -2.95176 4.30893 0
M  V30 5335 H 498.142 -1.45535 2.61648 0
M  V30 5336 H 495.688 -0.698711 1.25913 0
M  V30 5337 H 497.641 -3.77562 1.8715 0
M  V30 5338 H 496.365 -3.1699 0.786441 0
M  V30 5339 H 495.024 -2.39687 2.77391 0
M  V30 5340 H 494.672 -4.68562 1.82917 0
M  V30 5341 H 494.372 -4.6557 3.58494 0
M  V30 5342 H 495.896 -5.34327 2.95512 0
M  V30 5343 H 497.31 -3.62538 4.44116 0
M  V30 5344 H 495.707 -3.17549 5.09198 0
M  V30 5345 H 496.777 -1.91332 4.45556 0
M  V30 5346 N 498.12 -1.38341 -0.754957 0
M  V30 5347 C 499.03 -1.3769 -1.89944 0
M  V30 5348 C 500.046 -0.274194 -1.71826 0
M  V30 5349 O 501.222 -0.512391 -1.94773 0
M  V30 5350 C 498.287 -1.19938 -3.25293 0
M  V30 5351 C 497.348 -2.40001 -3.55946 0
M  V30 5352 C 496.581 -2.23087 -4.84838 0
M  V30 5353 O 496.804 -1.22386 -5.57116 0
M  V30 5354 O 495.738 -3.11646 -5.14937 0
M  V30 5355 H 499.564 -2.3412 -1.93446 0
M  V30 5356 H 497.149 -1.19246 -0.900044 0
M  V30 5357 H 499.031 -1.12093 -4.06218 0
M  V30 5358 H 497.706 -0.265919 -3.22606 0
M  V30 5359 H 496.613 -2.53421 -2.75188 0
M  V30 5360 H 497.946 -3.31973 -3.63394 0
M  V30 5361 N 499.598 0.982988 -1.23187 0
M  V30 5362 C 500.561 2.05649 -1.01198 0
M  V30 5363 C 501.561 1.6078 0.0252464 0
M  V30 5364 O 502.751 1.72878 -0.214243 0
M  V30 5365 C 499.883 3.36744 -0.530656 0
M  V30 5366 H 501.076 2.2659 -1.96461 0
M  V30 5367 H 498.629 1.15602 -1.05195 0
M  V30 5368 H 499.364 3.21492 0.425873 0
M  V30 5369 H 499.149 3.7065 -1.2791 0
M  V30 5370 H 500.639 4.15705 -0.397366 0
M  V30 5371 N 501.076 1.04316 1.18135 0
M  V30 5372 C 502.039 0.640794 2.2006 0
M  V30 5373 C 503.039 -0.303124 1.57917 0
M  V30 5374 O 504.229 -0.0881855 1.73977 0
M  V30 5375 C 501.361 -0.060148 3.40847 0
M  V30 5376 H 502.554 1.54281 2.57172 0
M  V30 5377 H 500.107 0.836004 1.32063 0
M  V30 5378 H 500.842 -0.975845 3.0927 0
M  V30 5379 H 500.627 0.618319 3.87194 0
M  V30 5380 H 502.117 -0.328082 4.16309 0
M  V30 5381 N 502.554 -1.34406 0.822964 0
M  V30 5382 C 503.831 -1.92733 0.333641 0
M  V30 5383 C 504.211 -1.75107 -1.17901 0
M  V30 5384 O 503.559 -1.12983 -1.98613 0
M  V30 5385 C 503.769 -3.40557 0.763023 0
M  V30 5386 C 505.117 -4.17709 0.761879 0
M  V30 5387 O 506.141 -3.49141 0.705606 0
M  V30 5388 O 505 -5.40082 0.835109 0
M  V30 5389 H 502.094 -0.821964 0.0911249 0
M  V30 5390 H 504.64 -1.4338 0.907757 0
M  V30 5391 H 503.412 -3.47187 1.8049 0
M  V30 5392 H 503.035 -3.97259 0.164605 0
M  V30 5393 N 504.032 -0.577932 -1.46621 0
M  V30 5394 C 504.942 0.160651 -2.34049 0
M  V30 5395 C 505.958 0.890911 -1.49462 0
M  V30 5396 O 507.134 0.855166 -1.82343 0
M  V30 5397 C 504.199 1.16447 -3.26559 0
M  V30 5398 C 503.26 0.4394 -4.27045 0
M  V30 5399 C 502.493 1.3954 -5.15135 0
M  V30 5400 O 502.716 2.63162 -5.06065 0
M  V30 5401 O 501.65 0.908585 -5.95003 0
M  V30 5402 H 505.476 -0.557057 -2.98547 0
M  V30 5403 H 503.061 -0.338369 -1.45518 0
M  V30 5404 H 504.943 1.7434 -3.83645 0
M  V30 5405 H 503.618 1.86373 -2.64663 0
M  V30 5406 H 502.525 -0.181247 -3.73661 0
M  V30 5407 H 503.858 -0.218799 -4.91713 0
M  V30 5408 N 505.51 1.54411 -0.315457 0
M  V30 5409 C 506.758 2.00023 0.288971 0
M  V30 5410 C 507.079 1.20529 1.5329 0
M  V30 5411 O 506.349 0.304986 1.93511 0
M  V30 5412 H 504.929 0.738891 0.109766 0
M  V30 5413 H 507.591 1.90094 -0.430129 0
M  V30 5414 H 506.687 3.07198 0.550999 0
M  V30 5415 N 506.988 0.0434614 1.5754 0
M  V30 5416 C 508.213 -0.645358 1.97104 0
M  V30 5417 C 508.638 -1.64037 0.920521 0
M  V30 5418 O 507.996 -1.80922 -0.11708 0
M  V30 5419 C 508.044 -1.31547 3.35749 0
M  V30 5420 O 507.148 -2.43103 3.33129 0
M  V30 5421 H 506.489 -0.168403 0.64229 0
M  V30 5422 H 509.019 0.109573 2.04306 0
M  V30 5423 H 509.029 -1.66895 3.72304 0
M  V30 5424 H 507.704 -0.586205 4.11748 0
M  V30 5425 H 506.281 -2.0976 3.0831 0
M  V30 5426 N 508.466 -1.55915 -0.229846 0
M  V30 5427 C 509.714 -1.7819 -0.953565 0
M  V30 5428 C 510.035 -0.610504 -1.85197 0
M  V30 5429 O 509.305 0.372988 -1.92316 0
M  V30 5430 H 507.885 -0.657208 -0.355087 0
M  V30 5431 H 510.547 -1.9337 -0.243693 0
M  V30 5432 H 509.643 -2.70011 -1.56527 0
M  V30 5433 N 509.944 0.496216 -1.49584 0
M  V30 5434 C 511.221 1.25755 -1.49816 0
M  V30 5435 C 511.601 2.09859 -0.228572 0
M  V30 5436 O 510.949 2.14449 0.788908 0
M  V30 5437 C 511.159 2.11017 -2.7798 0
M  V30 5438 C 512.507 2.70047 -3.27658 0
M  V30 5439 O 513.531 2.21281 -2.79129 0
M  V30 5440 O 512.39 3.58834 -4.1219 0
M  V30 5441 H 509.484 0.569322 -0.599834 0
M  V30 5442 H 512.03 0.510094 -1.61852 0
M  V30 5443 H 510.802 1.48879 -3.61871 0
M  V30 5444 H 510.425 2.92947 -2.68827 0
M  V30 5445 N 511.423 1.38739 0.74761 0
M  V30 5446 C 512.669 1.35475 1.50912 0
M  V30 5447 C 513.002 -0.0533093 1.94127 0
M  V30 5448 O 512.277 -1.01572 1.65871 0
M  V30 5449 C 512.56 2.31582 2.75757 0
M  V30 5450 C 512.413 3.81274 2.38642 0
M  V30 5451 C 513.732 2.25722 3.77806 0
M  V30 5452 H 510.851 0.493427 0.547447 0
M  V30 5453 H 513.493 1.69634 0.855823 0
M  V30 5454 H 511.643 2.02582 3.31501 0
M  V30 5455 H 513.315 4.20972 1.88626 0
M  V30 5456 H 511.558 3.98664 1.71025 0
M  V30 5457 H 512.229 4.4399 3.27989 0
M  V30 5458 H 514.705 2.51336 3.31616 0
M  V30 5459 H 513.581 2.95069 4.62845 0
M  V30 5460 H 513.842 1.25803 4.23823 0
M  V30 5461 N 512.901 -0.976442 1.23707 0
M  V30 5462 C 513.848 -2.06952 1.02174 0
M  V30 5463 C 514.818 -1.65984 -0.0621034 0
M  V30 5464 O 516.003 -1.90584 0.0907906 0
M  V30 5465 C 513.143 -3.39425 0.62327 0
M  V30 5466 C 512.256 -3.9364 1.77966 0
M  V30 5467 C 511.391 -5.14343 1.3276 0
M  V30 5468 C 510.43 -5.60733 2.45449 0
M  V30 5469 N 509.567 -6.72662 2.01172 0
M  V30 5470 H 514.407 -2.24704 1.95734 0
M  V30 5471 H 511.944 -1.10143 0.975034 0
M  V30 5472 H 513.902 -4.15526 0.37332 0
M  V30 5473 H 512.532 -3.21624 -0.275329 0
M  V30 5474 H 511.584 -3.14258 2.14351 0
M  V30 5475 H 512.896 -4.24035 2.62671 0
M  V30 5476 H 512.05 -5.97789 1.03601 0
M  V30 5477 H 510.789 -4.8561 0.450975 0
M  V30 5478 H 509.794 -4.75865 2.75378 0
M  V30 5479 H 511.019 -5.91483 3.33654 0
M  V30 5480 H 508.965 -6.45681 1.15895 0
M  V30 5481 H 508.882 -7.02462 2.79434 0
M  V30 5482 H 510.15 -7.59572 1.75129 0
M  V30 5483 N 514.379 -1.04941 -1.1758 0
M  V30 5484 C 515.609 -0.777166 -1.91425 0
M  V30 5485 C 516.017 0.670647 -1.76915 0
M  V30 5486 O 515.36 1.46965 -1.10213 0
M  V30 5487 C 515.422 -1.07495 -3.43052 0
M  V30 5488 C 515.086 -2.51844 -3.81345 0
M  V30 5489 C 516.083 -3.50047 -3.844 0
M  V30 5490 C 513.768 -2.86787 -4.12382 0
M  V30 5491 C 515.762 -4.81239 -4.17957 0
M  V30 5492 C 513.449 -4.18182 -4.45608 0
M  V30 5493 C 514.447 -5.15219 -4.48373 0
M  V30 5494 O 514.135 -6.44258 -4.80819 0
M  V30 5495 H 513.867 -0.282209 -0.614275 0
M  V30 5496 H 516.421 -1.40258 -1.50056 0
M  V30 5497 H 514.651 -0.392437 -3.84704 0
M  V30 5498 H 516.34 -0.78912 -3.98155 0
M  V30 5499 H 517.106 -3.24391 -3.60548 0
M  V30 5500 H 512.985 -2.11922 -4.09402 0
M  V30 5501 H 516.529 -5.56974 -4.2003 0
M  V30 5502 H 512.426 -4.43602 -4.68922 0
M  V30 5503 H 513.194 -6.49041 -4.98686 0
M  V30 5504 N 515.857 1.33968 -0.830081 0
M  V30 5505 C 516.807 2.26845 -0.229242 0
M  V30 5506 C 517.791 1.48862 0.610659 0
M  V30 5507 O 518.983 1.70808 0.464067 0
M  V30 5508 C 516.112 3.3798 0.602057 0
M  V30 5509 C 515.198 4.23369 -0.248866 0
M  V30 5510 N 515.589 4.88182 -1.32334 0
M  V30 5511 C 513.887 4.45987 -0.0344077 0
M  V30 5512 C 514.588 5.51671 -1.84482 0
M  V30 5513 N 513.564 5.31348 -1.14762 0
M  V30 5514 H 517.366 2.74464 -1.05104 0
M  V30 5515 H 514.88 1.4777 -0.673623 0
M  V30 5516 H 516.877 4.03494 1.04873 0
M  V30 5517 H 515.537 2.9191 1.42193 0
M  V30 5518 H 516.548 4.88988 -1.70619 0
M  V30 5519 H 513.225 4.10658 0.752727 0
M  V30 5520 H 514.615 6.13308 -2.74413 0
M  V30 5521 N 517.335 0.585699 1.46312 0
M  V30 5522 C 518.265 -0.133556 2.33118 0
M  V30 5523 C 519.246 -0.880707 1.45525 0
M  V30 5524 O 520.431 -0.855579 1.74337 0
M  V30 5525 C 517.561 -1.14585 3.27853 0
M  V30 5526 C 516.515 -0.513341 4.2491 0
M  V30 5527 C 515.841 -1.63231 5.09175 0
M  V30 5528 C 517.141 0.551413 5.19381 0
M  V30 5529 H 518.835 0.59121 2.93505 0
M  V30 5530 H 516.381 0.285761 1.41136 0
M  V30 5531 H 518.334 -1.65741 3.87438 0
M  V30 5532 H 517.058 -1.90093 2.65579 0
M  V30 5533 H 515.717 -0.0228349 3.66593 0
M  V30 5534 H 515.365 -2.37713 4.43285 0
M  V30 5535 H 515.065 -1.21473 5.74907 0
M  V30 5536 H 516.589 -2.14658 5.71624 0
M  V30 5537 H 518.003 0.124804 5.73164 0
M  V30 5538 H 516.4 0.889486 5.93471 0
M  V30 5539 H 517.47 1.43655 4.63132 0
M  V30 5540 N 518.813 -1.54241 0.323641 0
M  V30 5541 C 520.061 -2.00174 -0.278359 0
M  V30 5542 C 520.382 -1.2134 -1.52648 0
M  V30 5543 O 519.652 -0.315244 -1.93347 0
M  V30 5544 H 518.232 -0.739463 -0.105845 0
M  V30 5545 H 520.894 -1.89864 0.440204 0
M  V30 5546 H 519.99 -3.07486 -0.5347 0
M  V30 5547 N 520.291 -0.0518155 -1.57515 0
M  V30 5548 C 521.224 0.957758 -2.07129 0
M  V30 5549 C 522.202 1.30355 -0.971927 0
M  V30 5550 O 523.386 1.41631 -1.2439 0
M  V30 5551 C 520.513 2.27157 -2.51232 0
M  V30 5552 C 519.559 2.07879 -3.72409 0
M  V30 5553 S 520.392 1.35656 -5.18033 0
M  V30 5554 C 521.548 2.68359 -5.65451 0
M  V30 5555 H 521.781 0.53552 -2.92437 0
M  V30 5556 H 519.314 0.160465 -1.53564 0
M  V30 5557 H 521.272 3.02676 -2.77304 0
M  V30 5558 H 519.933 2.66509 -1.66228 0
M  V30 5559 H 519.126 3.05061 -4.01191 0
M  V30 5560 H 518.728 1.40499 -3.46606 0
M  V30 5561 H 521.02 3.64526 -5.71076 0
M  V30 5562 H 521.963 2.44213 -6.64654 0
M  V30 5563 H 522.371 2.74647 -4.93183 0
M  V30 5564 N 521.769 1.56035 0.221574 0
M  V30 5565 C 522.999 1.82864 0.961468 0
M  V30 5566 C 523.407 0.628703 1.78449 0
M  V30 5567 O 522.75 -0.412109 1.79018 0
M  V30 5568 C 522.812 3.03425 1.92804 0
M  V30 5569 C 522.476 4.38429 1.28954 0
M  V30 5570 C 523.473 5.15441 0.679431 0
M  V30 5571 C 521.158 4.85151 1.30131 0
M  V30 5572 C 523.152 6.37337 0.0896148 0
M  V30 5573 C 520.839 6.06989 0.707651 0
M  V30 5574 C 521.837 6.82923 0.102855 0
M  V30 5575 O 521.525 8.02456 -0.48157 0
M  V30 5576 H 521.257 0.611883 0.28736 0
M  V30 5577 H 523.811 2.0397 0.241932 0
M  V30 5578 H 522.041 2.78138 2.68656 0
M  V30 5579 H 523.73 3.17127 2.53348 0
M  V30 5580 H 524.496 4.80452 0.662661 0
M  V30 5581 H 520.375 4.26021 1.76145 0
M  V30 5582 H 523.919 6.96547 -0.383069 0
M  V30 5583 H 519.816 6.41451 0.721834 0
M  V30 5584 H 520.584 8.17636 -0.375887 0
M  V30 5585 N 523.247 -0.488276 1.49845 0
M  V30 5586 C 524.197 -1.58556 1.63842 0
M  V30 5587 C 525.181 -1.53142 0.493586 0
M  V30 5588 O 526.373 -1.60457 0.747169 0
M  V30 5589 C 523.502 -2.97101 1.72005 0
M  V30 5590 C 522.588 -3.07463 2.92108 0
M  V30 5591 N 522.979 -2.87681 4.16021 0
M  V30 5592 C 521.277 -3.3858 2.90309 0
M  V30 5593 C 521.978 -3.0256 4.96822 0
M  V30 5594 N 520.954 -3.32002 4.30437 0
M  V30 5595 H 524.756 -1.41935 2.57355 0
M  V30 5596 H 522.27 -0.694668 1.46793 0
M  V30 5597 H 524.267 -3.75976 1.80132 0
M  V30 5598 H 522.927 -3.14782 0.796375 0
M  V30 5599 H 523.938 -2.63603 4.45796 0
M  V30 5600 H 520.615 -3.62357 2.07372 0
M  V30 5601 H 522.005 -2.9165 6.05301 0
M  V30 5602 N 524.725 -1.39134 -0.740242 0
M  V30 5603 C 526.141 -1.20623 -1.0451 0
M  V30 5604 C 526.341 -0.0641651 -2.01398 0
M  V30 5605 O 525.397 0.585843 -2.4561 0
M  V30 5606 C 526.71 -2.53815 -1.6124 0
M  V30 5607 C 528.258 -2.60615 -1.73346 0
M  V30 5608 C 528.733 -3.94015 -2.33486 0
M  V30 5609 N 530.224 -3.95627 -2.40902 0
M  V30 5610 C 530.959 -4.95616 -2.88361 0
M  V30 5611 N 530.455 -6.06003 -3.35756 0
M  V30 5612 N 532.248 -4.82998 -2.87523 0
M  V30 5613 H 524.399 -2.12176 -0.0975576 0
M  V30 5614 H 526.662 -0.942066 -0.105904 0
M  V30 5615 H 526.368 -3.37911 -0.975144 0
M  V30 5616 H 526.242 -2.73162 -2.6012 0
M  V30 5617 H 528.629 -1.76906 -2.36195 0
M  V30 5618 H 528.71 -2.45123 -0.731336 0
M  V30 5619 H 528.354 -4.78153 -1.71267 0
M  V30 5620 H 528.284 -4.06825 -3.34366 0
M  V30 5621 H 530.775 -3.15903 -2.07398 0
M  V30 5622 H 531.088 -6.78215 -3.70464 0
M  V30 5623 H 529.433 -6.09604 -3.33778 0
M  V30 5624 H 532.624 -3.95866 -2.49816 0
M  V30 5625 H 532.797 -5.61072 -3.24196 0
M  V30 5626 N 526.204 0.969867 -1.24223 0
M  V30 5627 C 527.62 1.23809 -1.00716 0
M  V30 5628 C 527.82 1.99469 0.285358 0
M  V30 5629 O 526.876 2.31764 1.00207 0
M  V30 5630 C 528.189 2.02734 -2.2208 0
M  V30 5631 C 529.737 2.15834 -2.26681 0
M  V30 5632 C 530.212 2.98154 -3.47661 0
M  V30 5633 N 531.703 3.05737 -3.47964 0
M  V30 5634 C 532.438 3.69785 -4.38231 0
M  V30 5635 N 531.934 4.35569 -5.3875 0
M  V30 5636 N 533.727 3.66775 -4.25949 0
M  V30 5637 H 525.878 0.463294 -2.07286 0
M  V30 5638 H 528.141 0.267348 -0.909521 0
M  V30 5639 H 527.847 1.54524 -3.15935 0
M  V30 5640 H 527.721 3.0347 -2.24021 0
M  V30 5641 H 530.108 2.63248 -1.33359 0
M  V30 5642 H 530.189 1.14453 -2.28767 0
M  V30 5643 H 529.833 2.51435 -4.41297 0
M  V30 5644 H 529.763 3.99729 -3.42818 0
M  V30 5645 H 532.254 2.58941 -2.75242 0
M  V30 5646 H 532.567 4.82251 -6.03866 0
M  V30 5647 H 530.912 4.34244 -5.42639 0
M  V30 5648 H 534.103 3.14558 -3.46657 0
M  V30 5649 H 534.276 4.16407 -4.96497 0
M  V30 5650 N 527.682 1.05563 1.17022 0
M  V30 5651 C 528.931 0.763036 1.8671 0
M  V30 5652 C 529.244 -0.712857 1.82147 0
M  V30 5653 O 530.45 -1.11955 2.47343 0
M  V30 5654 C 528.906 1.31474 3.35026 0
M  V30 5655 C 528.514 2.82034 3.48081 0
M  V30 5656 C 530.258 1.09935 4.10018 0
M  V30 5657 C 528.165 3.30486 4.90442 0
M  V30 5658 H 527.095 0.281747 0.699382 0
M  V30 5659 H 529.746 1.2734 1.32124 0
M  V30 5660 H 528.128 0.732171 3.89173 0
M  V30 5661 H 529.302 3.46178 3.04133 0
M  V30 5662 H 527.617 3.02156 2.86515 0
M  V30 5663 H 530.214 1.43632 5.15048 0
M  V30 5664 H 530.557 0.0373072 4.16283 0
M  V30 5665 H 531.09 1.64732 3.62089 0
M  V30 5666 H 527.829 4.36137 4.89352 0
M  V30 5667 H 527.349 2.71086 5.35044 0
M  V30 5668 H 529.028 3.25382 5.59227 0
M  V30 5669 N 529.16 -1.33526 0.837174 0
M  V30 5670 C 530.108 -2.31168 0.257698 0
M  V30 5671 C 531.102 -1.5806 -0.609388 0
M  V30 5672 O 532.308 -1.72941 -0.499139 0
M  V30 5673 H 528.683 -0.74922 0.0646058 0
M  V30 5674 H 530.654 -2.77552 1.09578 0
M  V30 5675 C 529.403 -3.4326 -0.553887 0
M  V30 5676 H 528.726 -3.99665 0.104008 0
M  V30 5677 H 530.166 -4.13782 -0.925219 0
M  V30 5678 C 528.625 -2.88965 -1.73207 0
M  V30 5679 O 529.155 -2.85013 -2.83073 0
M  V30 5680 N 527.361 -2.45596 -1.55342 0
M  V30 5681 H 526.908 -2.49009 -0.659705 0
M  V30 5682 H 526.866 -2.0962 -2.34322 0
M  V30 5683 N 530.638 -0.59345 -1.46 0
M  V30 5684 C 532.054 -0.255965 -1.57534 0
M  V30 5685 C 532.254 1.24167 -1.58697 0
M  V30 5686 O 531.31 2.02398 -1.50968 0
M  V30 5687 C 532.623 -0.91466 -2.86451 0
M  V30 5688 C 534.171 -0.889253 -3.00102 0
M  V30 5689 C 534.646 -1.52769 -4.3177 0
M  V30 5690 N 536.137 -1.49253 -4.38495 0
M  V30 5691 C 536.872 -1.9558 -5.39014 0
M  V30 5692 N 536.368 -2.49929 -6.46148 0
M  V30 5693 N 538.161 -1.86432 -5.30282 0
M  V30 5694 H 530.312 -1.56604 -1.43489 0
M  V30 5695 H 532.575 -0.655207 -0.685133 0
M  V30 5696 H 532.281 -1.96861 -2.91442 0
M  V30 5697 H 532.155 -0.429356 -3.74748 0
M  V30 5698 H 534.542 0.156111 -2.94687 0
M  V30 5699 H 534.623 -1.41268 -2.13253 0
M  V30 5700 H 534.267 -2.57231 -4.37944 0
M  V30 5701 H 534.197 -0.979398 -5.17412 0
M  V30 5702 H 536.688 -1.09536 -3.61677 0
M  V30 5703 H 537.001 -2.83109 -7.19075 0
M  V30 5704 H 535.346 -2.53961 -6.46938 0
M  V30 5705 H 538.537 -1.43722 -4.4549 0
M  V30 5706 H 538.71 -2.22852 -6.08474 0
M  V30 5707 N 532.116 1.54067 -0.331816 0
M  V30 5708 C 533.362 2.01012 0.268667 0
M  V30 5709 C 533.695 1.2195 1.51136 0
M  V30 5710 O 532.97 0.303972 1.9211 0
M  V30 5711 C 533.253 3.55158 0.59456 0
M  V30 5712 C 533.106 4.4494 -0.659409 0
M  V30 5713 C 534.425 4.16939 1.4089 0
M  V30 5714 H 531.544 0.730698 0.0961756 0
M  V30 5715 H 534.186 1.84593 -0.450031 0
M  V30 5716 H 532.336 3.6928 1.20685 0
M  V30 5717 H 534.008 4.42675 -1.29756 0
M  V30 5718 H 532.251 4.1428 -1.28665 0
M  V30 5719 H 532.922 5.50643 -0.386804 0
M  V30 5720 H 535.398 4.06443 0.891272 0
M  V30 5721 H 534.274 5.24889 1.60569 0
M  V30 5722 H 534.535 3.70798 2.40752 0
M  V30 5723 N 533.594 0.0601682 1.57485 0
M  V30 5724 C 534.822 -0.620937 1.97363 0
M  V30 5725 C 535.237 -1.63846 0.938082 0
M  V30 5726 O 534.594 -1.82339 -0.0766578 0
M  V30 5727 C 534.645 -1.29987 3.37321 0
M  V30 5728 O 534.366 -0.323081 4.36907 0
M  V30 5729 C 535.867 -2.06989 3.92008 0
M  V30 5730 H 533.087 -0.169135 0.649334 0
M  V30 5731 H 535.631 0.129132 2.04092 0
M  V30 5732 H 533.786 -2.0011 3.31715 0
M  V30 5733 H 534.2 -0.808754 5.18227 0
M  V30 5734 H 535.674 -2.49901 4.92192 0
M  V30 5735 H 536.151 -2.92173 3.2792 0
M  V30 5736 H 536.757 -1.41757 4.0098 0
M  V30 5737 N 535.072 -1.5615 -0.213296 0
M  V30 5738 C 536.349 -1.70349 -0.961281 0
M  V30 5739 C 536.729 -0.609791 -2.02101 0
M  V30 5740 O 536.077 0.381987 -2.25285 0
M  V30 5741 C 536.287 -3.11982 -1.56424 0
M  V30 5742 C 537.635 -3.71649 -2.05334 0
M  V30 5743 O 538.659 -3.14995 -1.66302 0
M  V30 5744 O 537.518 -4.71038 -2.77102 0
M  V30 5745 H 534.612 -0.694121 -0.449582 0
M  V30 5746 H 537.158 -1.68464 -0.204426 0
M  V30 5747 H 535.93 -3.83046 -0.799457 0
M  V30 5748 H 535.553 -3.18019 -2.38641 0
M  V30 5749 N 536.55 0.480323 -1.50102 0
M  V30 5750 C 537.966 0.813295 -1.37323 0
M  V30 5751 C 538.166 1.97027 -0.422206 0
M  V30 5752 O 537.222 2.5212 0.138563 0
M  V30 5753 C 538.535 1.13404 -2.78496 0
M  V30 5754 C 540.083 1.24104 -2.87345 0
M  V30 5755 C 540.558 1.59497 -4.29331 0
M  V30 5756 N 542.049 1.66507 -4.32238 0
M  V30 5757 C 542.784 1.95378 -5.39087 0
M  V30 5758 N 542.28 2.22333 -6.56155 0
M  V30 5759 N 544.073 1.96803 -5.26522 0
M  V30 5760 H 536.224 -0.282291 -2.10516 0
M  V30 5761 H 538.487 -0.063752 -0.945854 0
M  V30 5762 H 538.193 0.357064 -3.49883 0
M  V30 5763 H 538.067 2.07251 -3.15162 0
M  V30 5764 H 540.454 2.00871 -2.16183 0
M  V30 5765 H 540.535 0.282593 -2.54234 0
M  V30 5766 H 540.179 0.832736 -5.01027 0
M  V30 5767 H 540.109 2.56477 -4.59921 0
M  V30 5768 H 542.6 1.47753 -3.47818 0
M  V30 5769 H 542.913 2.43611 -7.33399 0
M  V30 5770 H 541.258 2.19745 -6.59346 0
M  V30 5771 H 544.449 1.75235 -4.34062 0
M  V30 5772 H 544.622 2.18969 -6.09883 0
M  V30 5773 N 538.028 1.39524 0.732853 0
M  V30 5774 C 538.976 1.38563 1.86824 0
M  V30 5775 C 539.97 0.268467 1.67259 0
M  V30 5776 O 541.176 0.438613 1.74574 0
M  V30 5777 H 537.551 0.432737 0.615014 0
M  V30 5778 H 539.522 2.34328 1.84751 0
M  V30 5779 C 538.271 1.2481 3.24527 0
M  V30 5780 H 537.594 2.10044 3.40179 0
M  V30 5781 H 539.034 1.28194 4.04156 0
M  V30 5782 C 537.493 -0.0432825 3.36872 0
M  V30 5783 O 538.023 -1.01268 3.88726 0
M  V30 5784 N 536.229 -0.107055 2.90403 0
M  V30 5785 H 535.776 0.682512 2.48394 0
M  V30 5786 H 535.734 -0.970618 2.99042 0
M  V30 5787 N 539.506 -0.963266 1.24736 0
M  V30 5788 C 540.755 -1.70115 1.08369 0
M  V30 5789 C 541.068 -1.91939 -0.376688 0
M  V30 5790 O 542.274 -2.6334 -0.660624 0
M  V30 5791 C 540.73 -3.06218 1.89099 0
M  V30 5792 C 540.338 -2.92221 3.39574 0
M  V30 5793 C 542.082 -3.83848 1.81275 0
M  V30 5794 C 539.989 -4.23662 4.12631 0
M  V30 5795 H 538.919 -0.637944 0.401924 0
M  V30 5796 H 541.57 -1.07304 1.48856 0
M  V30 5797 H 539.952 -3.69884 1.41429 0
M  V30 5798 H 541.126 -2.37541 3.94856 0
M  V30 5799 H 539.441 -2.28054 3.48397 0
M  V30 5800 H 542.038 -4.81188 2.33158 0
M  V30 5801 H 542.381 -4.08949 0.778895 0
M  V30 5802 H 542.914 -3.26918 2.26649 0
M  V30 5803 H 539.653 -4.03753 5.16395 0
M  V30 5804 H 539.173 -4.78141 3.62135 0
M  V30 5805 H 540.852 -4.92256 4.19873 0
M  V30 5806 N 540.985 -1.06182 -1.16461 0
M  V30 5807 C 542.213 -0.798583 -1.90867 0
M  V30 5808 C 542.628 0.646921 -1.77371 0
M  V30 5809 O 541.985 1.44279 -1.11758 0
M  V30 5810 C 542.036 -1.18258 -3.4161 0
M  V30 5811 O 541.757 -2.57135 -3.54701 0
M  V30 5812 C 543.258 -0.946917 -4.33069 0
M  V30 5813 H 540.478 -0.289603 -0.605286 0
M  V30 5814 H 543.022 -1.41515 -1.47627 0
M  V30 5815 H 541.177 -0.610562 -3.82558 0
M  V30 5816 H 541.591 -2.72477 -4.4817 0
M  V30 5817 H 543.065 -1.26523 -5.37304 0
M  V30 5818 H 543.542 0.117406 -4.39043 0
M  V30 5819 H 544.148 -1.50326 -3.97847 0
M  V30 5820 N 542.463 1.3308 -0.844243 0
M  V30 5821 C 543.393 2.3161 -0.296493 0
M  V30 5822 C 544.374 1.59215 0.598707 0
M  V30 5823 O 545.559 1.87077 0.521134 0
M  V30 5824 C 542.689 3.43313 0.524762 0
M  V30 5825 C 541.643 4.27115 -0.275106 0
M  V30 5826 C 540.969 5.30483 0.670236 0
M  V30 5827 C 542.269 5.00443 -1.49514 0
M  V30 5828 H 543.963 2.77672 -1.11976 0
M  V30 5829 H 541.509 1.33496 -0.539899 0
M  V30 5830 H 543.462 4.11273 0.918298 0
M  V30 5831 H 542.186 2.95952 1.3813 0
M  V30 5832 H 540.845 3.60787 -0.650267 0
M  V30 5833 H 540.493 4.79379 1.52332 0
M  V30 5834 H 540.193 5.87435 0.139123 0
M  V30 5835 H 541.717 6.01308 1.06117 0
M  V30 5836 H 543.131 5.61141 -1.17447 0
M  V30 5837 H 541.528 5.67071 -1.96343 0
M  V30 5838 H 542.598 4.28906 -2.26202 0
M  V30 5839 N 543.941 0.601185 1.45683 0
M  V30 5840 C 545.166 0.0982245 2.07167 0
M  V30 5841 C 545.591 -1.20546 1.44396 0
M  V30 5842 O 544.949 -1.73247 0.534347 0
M  V30 5843 C 544.997 -0.0346976 3.60583 0
M  V30 5844 O 544.101 -1.08657 3.97828 0
M  V30 5845 H 543.442 0.0711618 0.660176 0
M  V30 5846 H 545.972 0.829376 1.87036 0
M  V30 5847 H 545.982 -0.234969 4.07323 0
M  V30 5848 H 544.657 0.917265 4.05659 0
M  V30 5849 H 543.234 -0.863275 3.6277 0
M  V30 5850 N 545.419 -1.53889 0.339982 0
M  V30 5851 C 546.349 -2.27843 -0.510856 0
M  V30 5852 C 547.33 -1.29267 -1.10563 0
M  V30 5853 O 548.515 -1.58104 -1.12768 0
M  V30 5854 C 545.645 -3.04857 -1.66372 0
M  V30 5855 C 544.599 -4.10907 -1.19746 0
M  V30 5856 C 543.925 -4.75855 -2.43857 0
M  V30 5857 C 545.225 -5.21435 -0.300501 0
M  V30 5858 H 546.919 -2.99212 0.106067 0
M  V30 5859 H 544.465 -1.43904 0.0524533 0
M  V30 5860 H 546.418 -3.5533 -2.26537 0
M  V30 5861 H 545.142 -2.31133 -2.30749 0
M  V30 5862 H 543.801 -3.61342 -0.618654 0
M  V30 5863 H 543.449 -3.9873 -3.06633 0
M  V30 5864 H 543.149 -5.47502 -2.13343 0
M  V30 5865 H 544.673 -5.2911 -3.04754 0
M  V30 5866 H 546.087 -5.67565 -0.80889 0
M  V30 5867 H 544.484 -6.00036 -0.0874076 0
M  V30 5868 H 545.554 -4.80328 0.664321 0
M  V30 5869 N 546.897 -0.0685191 -1.57451 0
M  V30 5870 C 548.143 0.602239 -1.93652 0
M  V30 5871 C 548.476 1.6946 -0.948526 0
M  V30 5872 O 547.751 1.94487 0.022782 0
M  V30 5873 C 548.034 1.18223 -3.4014 0
M  V30 5874 C 547.887 0.0967431 -4.49696 0
M  V30 5875 C 549.206 2.08872 -3.87377 0
M  V30 5876 H 546.325 0.217453 -0.70419 0
M  V30 5877 H 548.967 -0.133821 -1.89528 0
M  V30 5878 H 547.117 1.80953 -3.43785 0
M  V30 5879 H 548.789 -0.536155 -4.58174 0
M  V30 5880 H 547.032 -0.573063 -4.29998 0
M  V30 5881 H 547.703 0.542894 -5.49324 0
M  V30 5882 H 550.179 1.56081 -3.85717 0
M  V30 5883 H 549.055 2.46389 -4.90493 0
M  V30 5884 H 549.316 2.99572 -3.25129 0
M  V30 5885 N 548.375 1.56261 0.205012 0
M  V30 5886 C 549.338 1.92908 1.23771 0
M  V30 5887 C 550.338 0.809208 1.38955 0
M  V30 5888 O 551.528 1.07676 1.36936 0
M  V30 5889 C 548.66 2.19442 2.60879 0
M  V30 5890 H 549.853 2.85287 0.924728 0
M  V30 5891 H 547.406 1.49798 0.446125 0
M  V30 5892 H 548.141 1.29668 2.97248 0
M  V30 5893 H 547.926 3.0104 2.51232 0
M  V30 5894 H 549.416 2.48833 3.35368 0
M  V30 5895 N 549.853 -0.472356 1.50355 0
M  V30 5896 C 550.801 -1.59126 1.69651 0
M  V30 5897 C 551.795 -1.59793 0.56237 0
M  V30 5898 O 553.001 -1.63957 0.742832 0
M  V30 5899 H 549.376 -0.528008 0.535454 0
M  V30 5900 H 551.347 -1.40013 2.63513 0
M  V30 5901 C 550.096 -2.97075 1.8067 0
M  V30 5902 H 549.419 -2.9728 2.67329 0
M  V30 5903 H 550.859 -3.74825 1.98197 0
M  V30 5904 C 549.318 -3.32247 0.558016 0
M  V30 5905 O 549.848 -4.00553 -0.303399 0
M  V30 5906 N 548.054 -2.87659 0.412415 0
M  V30 5907 H 547.601 -2.32246 1.11443 0
M  V30 5908 H 547.559 -3.11556 -0.421908 0
M  V30 5909 N 551.331 -1.39911 -0.725443 0
M  V30 5910 C 552.742 -1.33599 -1.30415 0
M  V30 5911 C 553.093 -0.00481792 -1.96199 0
M  V30 5912 O 552.218 0.897275 -1.96921 0
M  V30 5913 C 552.813 -2.41965 -2.37146 0
M  V30 5914 C 551.372 -2.39144 -2.90667 0
M  V30 5915 C 550.519 -2.23355 -1.64341 0
M  V30 5916 H 553.47 -1.4986 -0.522267 0
M  V30 5917 H 553.491 -2.09304 -3.17761 0
M  V30 5918 H 553.003 -3.38837 -1.89238 0
M  V30 5919 H 551.104 -1.4594 -3.4283 0
M  V30 5920 H 551.217 -3.34362 -3.43131 0
M  V30 5921 H 549.581 -1.70696 -1.89037 0
M  V30 5922 H 550.364 -3.2221 -1.18471 0
M  V30 5923 N 552.809 0.956637 -1.25245 0
M  V30 5924 C 554.034 1.74104 -1.12706 0
M  V30 5925 C 554.459 1.85436 0.315429 0
M  V30 5926 O 553.817 1.33334 1.22848 0
M  V30 5927 C 553.865 3.1338 -1.78396 0
M  V30 5928 O 552.969 3.98485 -1.06224 0
M  V30 5929 H 552.31 0.53476 -0.393609 0
M  V30 5930 H 554.84 1.19924 -1.65769 0
M  V30 5931 H 554.85 3.6385 -1.846 0
M  V30 5932 H 553.525 3.04448 -2.83345 0
M  V30 5933 H 552.102 3.56952 -1.07886 0
M  V30 5934 N 554.287 1.06798 1.15896 0
M  V30 5935 C 555.237 0.653213 2.18443 0
M  V30 5936 C 556.221 -0.318763 1.57711 0
M  V30 5937 O 557.413 -0.133388 1.76497 0
M  V30 5938 C 554.542 0.0465785 3.43268 0
M  V30 5939 C 553.628 1.04336 4.11066 0
M  V30 5940 N 554.019 2.22084 4.54436 0
M  V30 5941 C 552.317 0.875433 4.37324 0
M  V30 5942 C 553.018 2.85276 5.06944 0
M  V30 5943 N 551.994 2.12973 5.00143 0
M  V30 5944 H 555.796 1.55011 2.49698 0
M  V30 5945 H 553.31 0.940384 1.32403 0
M  V30 5946 H 555.307 -0.26843 4.16035 0
M  V30 5947 H 553.967 -0.845504 3.13499 0
M  V30 5948 H 554.978 2.59833 4.48004 0
M  V30 5949 H 551.655 0.0357721 4.17485 0
M  V30 5950 H 553.045 3.85223 5.50503 0
M  V30 5951 N 555.766 -1.3263 0.851289 0
M  V30 5952 C 556.696 -2.31449 0.308771 0
M  V30 5953 C 557.677 -1.59531 -0.590255 0
M  V30 5954 O 558.862 -1.87351 -0.511205 0
M  V30 5955 C 555.992 -3.43586 -0.506548 0
M  V30 5956 C 554.946 -4.26963 0.297753 0
M  V30 5957 C 554.272 -5.30831 -0.642094 0
M  V30 5958 C 555.572 -4.99643 1.52166 0
M  V30 5959 H 557.266 -2.77074 1.13447 0
M  V30 5960 H 554.812 -1.33207 0.546971 0
M  V30 5961 H 556.765 -4.11754 -0.896474 0
M  V30 5962 H 555.489 -2.96681 -1.36558 0
M  V30 5963 H 554.148 -3.60437 0.669391 0
M  V30 5964 H 553.796 -4.8018 -1.49788 0
M  V30 5965 H 553.496 -5.87501 -0.107968 0
M  V30 5966 H 555.02 -6.01862 -1.02927 0
M  V30 5967 H 556.434 -5.6051 1.20421 0
M  V30 5968 H 554.831 -5.66022 1.99347 0
M  V30 5969 H 555.901 -4.27701 2.28474 0
M  V30 5970 N 557.244 -0.608902 -1.45362 0
M  V30 5971 C 558.154 0.110969 -2.34337 0
M  V30 5972 C 559.17 0.859007 -1.51318 0
M  V30 5973 O 560.346 0.816296 -1.84116 0
M  V30 5974 C 557.411 1.09494 -3.28956 0
M  V30 5975 C 556.472 0.348718 -4.27881 0
M  V30 5976 C 555.705 1.28582 -5.17979 0
M  V30 5977 O 555.928 2.52369 -5.11533 0
M  V30 5978 O 554.862 0.782172 -5.96796 0
M  V30 5979 H 558.688 -0.620258 -2.97299 0
M  V30 5980 H 556.273 -0.36916 -1.44767 0
M  V30 5981 H 558.155 1.66163 -3.87257 0
M  V30 5982 H 556.83 1.80717 -2.68557 0
M  V30 5983 H 555.737 -0.260465 -3.73192 0
M  V30 5984 H 557.07 -0.323049 -4.91139 0
M  V30 5985 N 558.722 1.53707 -0.348139 0
M  V30 5986 C 559.685 2.23812 0.494058 0
M  V30 5987 C 560.685 1.23989 1.02388 0
M  V30 5988 O 561.875 1.48395 0.912396 0
M  V30 5989 C 559.007 2.96133 1.68872 0
M  V30 5990 H 560.2 2.99663 -0.119141 0
M  V30 5991 H 557.753 1.55983 -0.0995539 0
M  V30 5992 H 558.488 2.24481 2.34049 0
M  V30 5993 H 558.273 3.69357 1.31596 0
M  V30 5994 H 559.763 3.49475 2.28597 0
M  V30 5995 N 560.2 0.0768682 1.57412 0
M  V30 5996 C 561.163 -0.873949 2.11884 0
M  V30 5997 C 562.163 -1.22301 1.04398 0
M  V30 5998 O 563.353 -1.15545 1.30365 0
M  V30 5999 C 560.485 -2.17575 2.62438 0
M  V30 6000 H 561.678 -0.401278 2.97203 0
M  V30 6001 H 559.231 -0.171904 1.55352 0
M  V30 6002 H 559.966 -2.69368 1.80587 0
M  V30 6003 H 559.751 -1.93534 3.41009 0
M  V30 6004 H 561.241 -2.85631 3.04639 0
M  V30 6005 N 561.678 -1.56367 -0.196722 0
M  V30 6006 C 562.955 -1.71359 -0.943159 0
M  V30 6007 C 563.335 -0.631192 -2.01443 0
M  V30 6008 O 562.683 0.358071 -2.25677 0
M  V30 6009 C 562.893 -3.13623 -1.53106 0
M  V30 6010 C 564.241 -3.73806 -2.01381 0
M  V30 6011 O 565.265 -3.16742 -1.62951 0
M  V30 6012 O 564.124 -4.73951 -2.7209 0
M  V30 6013 H 561.218 -0.698851 -0.442195 0
M  V30 6014 H 563.764 -1.68672 -0.186547 0
M  V30 6015 H 562.536 -3.83873 -0.758785 0
M  V30 6016 H 562.159 -3.20532 -2.35255 0
M  V30 6017 N 563.156 0.464375 -1.50603 0
M  V30 6018 C 564.567 1.04507 -1.5471 0
M  V30 6019 C 564.918 1.9297 -0.354542 0
M  V30 6020 O 564.043 2.09763 0.531812 0
M  V30 6021 C 564.638 1.90207 -2.80369 0
M  V30 6022 C 563.197 2.43373 -2.87135 0
M  V30 6023 C 562.344 1.21886 -2.49076 0
M  V30 6024 H 565.295 0.246716 -1.56771 0
M  V30 6025 H 565.316 2.75353 -2.62604 0
M  V30 6026 H 564.828 1.25796 -3.67147 0
M  V30 6027 H 562.929 3.11318 -2.04724 0
M  V30 6028 H 563.042 2.7802 -3.90181 0
M  V30 6029 H 561.406 1.55575 -2.01664 0
M  V30 6030 H 562.189 0.591268 -3.3817 0
M  V30 6031 N 564.634 1.40294 0.718013 0
M  V30 6032 C 565.88 1.38645 1.48005 0
M  V30 6033 C 566.213 -0.0121202 1.94196 0
M  V30 6034 O 565.488 -0.980309 1.67989 0
M  V30 6035 C 565.771 2.37379 2.70782 0
M  V30 6036 C 565.624 3.8625 2.30501 0
M  V30 6037 C 566.943 2.33685 3.72933 0
M  V30 6038 H 564.062 0.504928 0.536858 0
M  V30 6039 H 566.704 1.71411 0.819649 0
M  V30 6040 H 564.854 2.09568 3.27129 0
M  V30 6041 H 566.526 4.24879 1.79655 0
M  V30 6042 H 564.769 4.02202 1.6253 0
M  V30 6043 H 565.44 4.50847 3.18498 0
M  V30 6044 H 567.916 2.58314 3.2621 0
M  V30 6045 H 566.792 3.0482 4.56482 0
M  V30 6046 H 567.053 1.34765 4.21059 0
M  V30 6047 N 566.112 -0.949982 1.2575 0
M  V30 6048 C 567.358 -1.69766 1.10938 0
M  V30 6049 C 567.691 -1.91056 -0.348028 0
M  V30 6050 O 566.966 -1.48488 -1.25625 0
M  V30 6051 C 567.249 -3.07779 1.86933 0
M  V30 6052 C 567.102 -2.9387 3.4053 0
M  V30 6053 C 568.421 -4.07749 1.65616 0
M  V30 6054 H 565.54 -0.616144 0.404396 0
M  V30 6055 H 568.182 -1.10394 1.54639 0
M  V30 6056 H 566.332 -3.58462 1.4979 0
M  V30 6057 H 568.004 -2.50476 3.87375 0
M  V30 6058 H 566.247 -2.29686 3.68004 0
M  V30 6059 H 566.918 -3.91719 3.88922 0
M  V30 6060 H 569.394 -3.65994 1.97959 0
M  V30 6061 H 568.27 -5.02348 2.21218 0
M  V30 6062 H 568.531 -4.38029 0.598595 0
M  V30 6063 N 567.59 -1.07411 -1.15328 0
M  V30 6064 C 568.523 -0.63913 -2.19067 0
M  V30 6065 C 569.501 0.343929 -1.58921 0
M  V30 6066 O 570.685 0.250207 -1.86832 0
M  V30 6067 C 567.812 0.0613977 -3.38644 0
M  V30 6068 C 566.858 -0.880201 -4.17318 0
M  V30 6069 S 567.691 -2.38152 -4.79629 0
M  V30 6070 C 568.847 -1.69281 -6.02573 0
M  V30 6071 H 569.08 -1.51799 -2.55626 0
M  V30 6072 H 566.613 -0.888138 -1.26299 0
M  V30 6073 H 568.571 0.459323 -4.07922 0
M  V30 6074 H 567.232 0.916605 -3.00428 0
M  V30 6075 H 566.425 -0.336781 -5.02874 0
M  V30 6076 H 566.027 -1.21854 -3.53592 0
M  V30 6077 H 568.319 -1.00488 -6.70006 0
M  V30 6078 H 569.262 -2.52671 -6.61485 0
M  V30 6079 H 569.67 -1.17053 -5.52231 0
M  V30 6080 N 569.068 1.32177 -0.85831 0
M  V30 6081 C 570.316 1.96735 -0.462568 0
M  V30 6082 C 570.637 1.6824 0.985911 0
M  V30 6083 O 569.907 0.991564 1.68952 0
M  V30 6084 H 568.487 0.727849 -0.168064 0
M  V30 6085 H 571.149 1.61195 -1.09554 0
M  V30 6086 H 570.245 3.06068 -0.610647 0
M  V30 6087 N 570.547 0.616602 1.45037 0
M  V30 6088 C 571.494 -0.0969439 2.30596 0
M  V30 6089 C 572.464 -0.851151 1.42635 0
M  V30 6090 O 573.649 -0.835092 1.71554 0
M  V30 6091 C 570.789 -1.08234 3.27688 0
M  V30 6092 C 569.902 -0.328072 4.30752 0
M  V30 6093 C 569.037 -1.30399 5.14946 0
M  V30 6094 C 568.076 -0.538049 6.09731 0
M  V30 6095 N 567.213 -1.46371 6.86673 0
M  V30 6096 H 572.053 0.63864 2.91076 0
M  V30 6097 H 569.59 0.326733 1.43425 0
M  V30 6098 H 571.548 -1.66688 3.82454 0
M  V30 6099 H 570.178 -1.78523 2.68941 0
M  V30 6100 H 569.23 0.372136 3.78575 0
M  V30 6101 H 570.542 0.269142 4.98073 0
M  V30 6102 H 569.696 -1.96032 5.74157 0
M  V30 6103 H 568.435 -1.93514 4.47665 0
M  V30 6104 H 567.44 0.131852 5.49642 0
M  V30 6105 H 568.665 0.0881732 6.79043 0
M  V30 6106 H 566.611 -2.08233 6.22073 0
M  V30 6107 H 566.528 -0.920152 7.50379 0
M  V30 6108 H 567.796 -2.10932 7.50418 0
M  V30 6109 N 572.025 -1.5352 0.356285 0
M  V30 6110 C 573.253 -2.05534 -0.237328 0
M  V30 6111 C 573.668 -1.23043 -1.43199 0
M  V30 6112 O 573.025 -0.268821 -1.80509 0
M  V30 6113 C 573.076 -3.55791 -0.639933 0
M  V30 6114 O 572.797 -4.35154 0.507233 0
M  V30 6115 C 574.298 -4.24027 -1.29292 0
M  V30 6116 H 571.518 -0.669585 -0.0435572 0
M  V30 6117 H 574.062 -1.97988 0.511963 0
M  V30 6118 H 572.217 -3.63518 -1.33915 0
M  V30 6119 H 572.631 -5.24178 0.18375 0
M  V30 6120 H 574.105 -5.30509 -1.52527 0
M  V30 6121 H 574.582 -3.77166 -2.25039 0
M  V30 6122 H 575.188 -4.20527 -0.63539 0
M  V30 6123 N 573.503 -0.0852151 -1.57369 0
M  V30 6124 C 574.45 0.877268 -2.13478 0
M  V30 6125 C 575.42 1.28642 -1.05073 0
M  V30 6126 O 576.605 1.36992 -1.32808 0
M  V30 6127 C 573.745 2.13464 -2.71159 0
M  V30 6128 C 572.858 1.77691 -3.93764 0
M  V30 6129 C 571.993 2.98139 -4.39643 0
M  V30 6130 C 571.032 2.58447 -5.54862 0
M  V30 6131 N 570.169 3.71698 -5.95639 0
M  V30 6132 H 575.009 0.391933 -2.95411 0
M  V30 6133 H 572.546 0.181796 -1.45972 0
M  V30 6134 H 574.504 2.87086 -3.02717 0
M  V30 6135 H 573.134 2.59514 -1.91969 0
M  V30 6136 H 572.186 0.940768 -3.68583 0
M  V30 6137 H 573.498 1.44497 -4.77412 0
M  V30 6138 H 572.652 3.80026 -4.72933 0
M  V30 6139 H 571.391 3.34536 -3.54876 0
M  V30 6140 H 570.396 1.74984 -5.21211 0
M  V30 6141 H 571.621 2.23205 -6.41371 0
M  V30 6142 H 569.567 4.07831 -5.13819 0
M  V30 6143 H 569.484 3.42317 -6.74059 0
M  V30 6144 H 570.752 4.54123 -6.33555 0
M  V30 6145 N 574.981 1.5647 0.188427 0
M  V30 6146 C 575.944 1.9421 1.21718 0
M  V30 6147 C 576.944 0.823901 1.38089 0
M  V30 6148 O 578.134 1.09122 1.35787 0
M  V30 6149 C 575.266 2.22197 2.58537 0
M  V30 6150 H 576.459 2.86252 0.894418 0
M  V30 6151 H 574.012 1.50263 0.430211 0
M  V30 6152 H 574.747 1.32814 2.95856 0
M  V30 6153 H 574.532 3.03688 2.48025 0
M  V30 6154 H 576.022 2.52376 3.3271 0
M  V30 6155 N 576.459 -0.456382 1.50847 0
M  V30 6156 C 577.369 -1.57805 1.73594 0
M  V30 6157 C 578.385 -1.62599 0.619476 0
M  V30 6158 O 579.561 -1.80195 0.899532 0
M  V30 6159 C 576.626 -2.93926 1.8387 0
M  V30 6160 C 575.687 -2.99402 3.07663 0
M  V30 6161 C 574.92 -4.29031 3.1744 0
M  V30 6162 O 575.143 -5.20358 2.33631 0
M  V30 6163 O 574.077 -4.40401 4.10281 0
M  V30 6164 H 577.903 -1.41531 2.68705 0
M  V30 6165 H 575.488 -0.637422 1.3512 0
M  V30 6166 H 577.37 -3.74747 1.92725 0
M  V30 6167 H 576.045 -3.10368 0.91944 0
M  V30 6168 H 574.952 -2.17606 3.043 0
M  V30 6169 H 576.285 -2.87901 3.99216 0
M  V30 6170 N 577.937 -1.40673 -0.710563 0
M  V30 6171 C 578.869 -1.37256 -1.83558 0
M  V30 6172 C 579.882 -0.277133 -1.60424 0
M  V30 6173 O 581.071 -0.537831 -1.70205 0
M  V30 6174 C 578.171 -1.1144 -3.20054 0
M  V30 6175 C 577.344 -2.32734 -3.70342 0
M  V30 6176 C 576.403 -2.03002 -4.85465 0
M  V30 6177 O 575.429 -2.75912 -4.97857 0
M  V30 6178 N 576.631 -1.01105 -5.71627 0
M  V30 6179 H 579.396 -2.34215 -1.86985 0
M  V30 6180 H 576.957 -1.35091 -0.892301 0
M  V30 6181 H 578.949 -0.895265 -3.94673 0
M  V30 6182 H 577.519 -0.231307 -3.11743 0
M  V30 6183 H 576.739 -2.70446 -2.86798 0
M  V30 6184 H 578.027 -3.13584 -4.00678 0
M  V30 6185 H 577.425 -0.407303 -5.64232 0
M  V30 6186 H 575.982 -0.85182 -6.4621 0
M  V30 6187 N 579.415 0.9433 -1.26252 0
M  V30 6188 C 580.662 1.68925 -1.11672 0
M  V30 6189 C 580.99 1.91499 0.340329 0
M  V30 6190 O 580.245 1.49189 1.26653 0
M  V30 6191 C 580.544 3.07073 -1.82868 0
M  V30 6192 C 580.21 3.04262 -3.32769 0
M  V30 6193 C 578.872 3.03203 -3.7366 0
M  V30 6194 C 581.224 2.96729 -4.28487 0
M  V30 6195 C 578.552 2.92373 -5.0866 0
M  V30 6196 C 580.904 2.87442 -5.63525 0
M  V30 6197 C 579.568 2.84724 -6.03729 0
M  V30 6198 H 578.838 0.618141 -0.408635 0
M  V30 6199 H 581.485 1.10124 -1.56668 0
M  V30 6200 H 579.79 3.69486 -1.30335 0
M  V30 6201 H 581.487 3.63635 -1.69029 0
M  V30 6202 H 578.077 3.05865 -3.00241 0
M  V30 6203 H 582.261 2.96658 -3.97879 0
M  V30 6204 H 577.517 2.88645 -5.38975 0
M  V30 6205 H 581.691 2.80576 -6.37377 0
M  V30 6206 H 579.318 2.76089 -7.08293 0
M  V30 6207 N 580.893 1.08022 1.14757 0
M  V30 6208 C 582.123 0.827646 1.89298 0
M  V30 6209 C 582.531 -0.623506 1.78631 0
M  V30 6210 O 581.874 -1.43991 1.14071 0
M  V30 6211 C 581.936 1.16553 3.40082 0
M  V30 6212 C 581.6 2.61866 3.74533 0
M  V30 6213 C 582.597 3.60116 3.74984 0
M  V30 6214 C 580.282 2.97619 4.04633 0
M  V30 6215 C 582.276 4.92151 4.05051 0
M  V30 6216 C 579.963 4.2985 4.34364 0
M  V30 6217 C 580.961 5.26926 4.34555 0
M  V30 6218 O 580.649 6.5678 4.63568 0
M  V30 6219 H 580.381 0.298396 0.606577 0
M  V30 6220 H 582.935 1.44187 1.46285 0
M  V30 6221 H 581.165 0.494296 3.83528 0
M  V30 6222 H 582.854 0.894407 3.95923 0
M  V30 6223 H 583.62 3.33837 3.51821 0
M  V30 6224 H 579.499 2.22702 4.03639 0
M  V30 6225 H 583.043 5.67915 4.05115 0
M  V30 6226 H 578.94 4.55879 4.56995 0
M  V30 6227 H 579.708 6.62035 4.81303 0
M  V30 6228 N 582.371 -1.3172 0.865308 0
M  V30 6229 C 583.611 -1.98675 0.480365 0
M  V30 6230 C 583.975 -1.66929 -0.948621 0
M  V30 6231 O 585.176 -2.27059 -1.43867 0
M  V30 6232 C 583.447 -3.49972 0.724858 0
M  V30 6233 S 585.006 -4.36598 0.439078 0
M  V30 6234 H 581.824 -0.687967 0.179506 0
M  V30 6235 H 584.426 -1.60215 1.12033 0
M  V30 6236 H 583.13 -3.70567 1.76375 0
M  V30 6237 H 582.661 -3.93335 0.0717173 0
M  V30 6238 H 584.676 -4.90792 -0.730564 0
M  V30 6239 N 583.85 -0.624285 -1.44708 0
M  V30 6240 C 585.098 -0.125802 -2.01708 0
M  V30 6241 C 585.418 1.2543 -1.49306 0
M  V30 6242 O 584.689 1.83198 -0.693924 0
M  V30 6243 H 583.269 -0.0435161 -0.745731 0
M  V30 6244 H 585.931 -0.809446 -1.77296 0
M  V30 6245 H 585.027 -0.0882734 -3.11975 0
M  V30 6246 N 585.328 1.53329 -0.364422 0
M  V30 6247 C 586.605 1.93557 0.281962 0
M  V30 6248 C 586.985 1.29786 1.6649 0
M  V30 6249 O 586.333 0.456512 2.23893 0
M  V30 6250 C 586.543 3.47405 0.333331 0
M  V30 6251 C 587.891 4.20699 0.574231 0
M  V30 6252 O 588.915 3.53779 0.414588 0
M  V30 6253 O 587.774 5.39287 0.885002 0
M  V30 6254 H 584.868 0.809573 0.168881 0
M  V30 6255 H 587.414 1.64494 -0.417121 0
M  V30 6256 H 586.186 3.86091 -0.636326 0
M  V30 6257 H 585.809 3.82697 1.07836 0
M  V30 6258 N 586.806 0.0935595 1.57322 0
M  V30 6259 C 588.034 -0.578934 1.98635 0
M  V30 6260 C 588.449 -1.61819 0.972626 0
M  V30 6261 O 587.806 -1.82461 -0.0379638 0
M  V30 6262 C 587.857 -1.22802 3.40003 0
M  V30 6263 O 587.578 -0.230334 4.37494 0
M  V30 6264 C 589.079 -1.98627 3.96311 0
M  V30 6265 H 586.299 -0.155324 0.652775 0
M  V30 6266 H 588.843 0.172393 2.03772 0
M  V30 6267 H 586.998 -1.93029 3.35885 0
M  V30 6268 H 587.412 -0.698649 5.19826 0
M  V30 6269 H 588.886 -2.39405 4.97382 0
M  V30 6270 H 589.363 -2.85151 3.34044 0
M  V30 6271 H 589.969 -1.3322 4.03897 0
M  V30 6272 N 588.284 -1.56567 -0.180126 0
M  V30 6273 C 589.194 -1.98947 -1.24327 0
M  V30 6274 C 590.21 -0.899446 -1.4895 0
M  V30 6275 O 591.386 -1.20639 -1.61271 0
M  V30 6276 C 588.451 -2.33328 -2.56435 0
M  V30 6277 C 587.512 -3.56114 -2.39752 0
M  V30 6278 C 586.745 -3.88845 -3.65561 0
M  V30 6279 O 586.968 -3.22662 -4.70368 0
M  V30 6280 O 585.902 -4.82226 -3.60197 0
M  V30 6281 H 589.728 -2.89634 -0.913565 0
M  V30 6282 H 587.313 -1.44319 -0.386306 0
M  V30 6283 H 589.195 -2.5645 -3.34382 0
M  V30 6284 H 587.87 -1.45806 -2.89002 0
M  V30 6285 H 586.777 -3.38221 -1.59866 0
M  V30 6286 H 588.11 -4.4415 -2.12113 0
M  V30 6287 N 589.762 0.448376 -1.51087 0
M  V30 6288 C 591.01 1.19635 -1.62886 0
M  V30 6289 C 591.331 1.91977 -0.342024 0
M  V30 6290 O 590.601 1.85094 0.641636 0
M  V30 6291 H 589.181 0.444598 -0.600285 0
M  V30 6292 H 591.843 0.515138 -1.87969 0
M  V30 6293 H 590.939 1.93194 -2.45117 0
M  V30 6294 N 591.24 1.41047 0.703093 0
M  V30 6295 C 592.187 1.42302 1.81711 0
M  V30 6296 C 593.157 0.278336 1.63751 0
M  V30 6297 O 594.342 0.478266 1.84709 0
M  V30 6298 C 591.482 1.30362 3.19531 0
M  V30 6299 C 590.595 2.54638 3.48975 0
M  V30 6300 C 589.73 2.35047 4.76368 0
M  V30 6301 C 588.769 3.54837 4.98756 0
M  V30 6302 N 587.906 3.34363 6.1737 0
M  V30 6303 H 592.746 2.37516 1.79973 0
M  V30 6304 H 590.283 1.1795 0.878983 0
M  V30 6305 H 592.241 1.21443 3.99134 0
M  V30 6306 H 590.871 0.387602 3.20464 0
M  V30 6307 H 589.923 2.74037 2.63833 0
M  V30 6308 H 591.235 3.43766 3.61423 0
M  V30 6309 H 590.389 2.23552 5.64012 0
M  V30 6310 H 589.128 1.43363 4.66153 0
M  V30 6311 H 588.133 3.66795 4.09563 0
M  V30 6312 H 589.358 4.47464 5.10835 0
M  V30 6313 H 587.304 2.45373 6.08382 0
M  V30 6314 H 587.221 4.17063 6.30551 0
M  V30 6315 H 588.489 3.26626 7.07768 0
M  V30 6316 N 592.718 -0.936591 1.26751 0
M  V30 6317 C 593.665 -2.03597 1.08706 0
M  V30 6318 C 594.635 -1.66097 -0.00926542 0
M  V30 6319 O 595.82 -1.90199 0.151377 0
M  V30 6320 C 592.96 -3.3727 0.73094 0
M  V30 6321 C 592.073 -3.87778 1.90399 0
M  V30 6322 C 591.208 -5.09859 1.49056 0
M  V30 6323 C 590.247 -5.5264 2.63164 0
M  V30 6324 N 589.384 -6.65921 2.22471 0
M  V30 6325 H 594.224 -2.18364 2.02784 0
M  V30 6326 H 591.761 -1.06985 1.00958 0
M  V30 6327 H 593.719 -4.14128 0.505328 0
M  V30 6328 H 592.349 -3.22337 -0.172868 0
M  V30 6329 H 591.401 -3.07279 2.2424 0
M  V30 6330 H 592.713 -4.15464 2.76028 0
M  V30 6331 H 591.867 -5.9419 1.22567 0
M  V30 6332 H 590.606 -4.8393 0.60524 0
M  V30 6333 H 589.611 -4.66863 2.90377 0
M  V30 6334 H 590.836 -5.80568 3.52303 0
M  V30 6335 H 588.782 -6.41667 1.36379 0
M  V30 6336 H 588.699 -6.93216 3.01641 0
M  V30 6337 H 589.967 -7.53616 1.99205 0
M  V30 6338 N 594.196 -1.08629 -1.14182 0
M  V30 6339 C 595.442 -0.818556 -1.85546 0
M  V30 6340 C 595.775 0.654076 -1.82854 0
M  V30 6341 O 595.05 1.48099 -1.26083 0
M  V30 6342 C 595.333 -1.34397 -3.3408 0
M  V30 6343 C 595.186 -2.8821 -3.45333 0
M  V30 6344 C 596.505 -0.971069 -4.29253 0
M  V30 6345 H 593.624 -0.298821 -0.673702 0
M  V30 6346 H 596.266 -1.34629 -1.34071 0
M  V30 6347 H 594.416 -0.895064 -3.78049 0
M  V30 6348 H 596.088 -3.41488 -3.10134 0
M  V30 6349 H 594.331 -3.25756 -2.86471 0
M  V30 6350 H 595.002 -3.20047 -4.49749 0
M  V30 6351 H 597.478 -1.35809 -3.93313 0
M  V30 6352 H 596.354 -1.36586 -5.31635 0
M  V30 6353 H 596.615 0.121659 -4.41933 0
M  V30 6354 N 595.674 1.31259 -0.872281 0
M  V30 6355 C 596.607 2.26544 -0.274394 0
M  V30 6356 C 597.585 1.51213 0.597776 0
M  V30 6357 O 598.769 1.80277 0.550687 0
M  V30 6358 C 595.896 3.33139 0.611256 0
M  V30 6359 C 594.942 4.26077 -0.189876 0
M  V30 6360 S 595.775 5.11971 -1.56989 0
M  V30 6361 C 596.931 6.2208 -0.690427 0
M  V30 6362 H 597.164 2.76908 -1.0821 0
M  V30 6363 H 594.697 1.3906 -0.670939 0
M  V30 6364 H 596.655 3.95024 1.11654 0
M  V30 6365 H 595.316 2.81525 1.39294 0
M  V30 6366 H 594.509 5.01657 0.485433 0
M  V30 6367 H 594.111 3.68701 -0.627339 0
M  V30 6368 H 596.403 6.77429 0.098001 0
M  V30 6369 H 597.346 6.93768 -1.41742 0
M  V30 6370 H 597.754 5.63915 -0.256953 0
M  V30 6371 N 597.152 0.631951 1.44375 0
M  V30 6372 C 598.377 0.142146 2.06912 0
M  V30 6373 C 598.802 -1.17456 1.4692 0
M  V30 6374 O 598.16 -1.72074 0.570975 0
M  V30 6375 C 598.208 0.0417952 3.60576 0
M  V30 6376 O 597.312 -1.00194 4.00044 0
M  V30 6377 H 596.653 0.0851491 0.658518 0
M  V30 6378 H 599.183 0.868863 1.85235 0
M  V30 6379 H 599.193 -0.148517 4.0773 0
M  V30 6380 H 597.868 1.0031 4.03622 0
M  V30 6381 H 596.445 -0.786131 3.64519 0
M  V30 6382 N 598.631 -1.53133 0.372548 0
M  V30 6383 C 599.88 -2.00539 -0.216115 0
M  V30 6384 C 600.193 -1.26374 -1.49295 0
M  V30 6385 O 601.399 -1.64404 -2.16064 0
M  V30 6386 C 599.855 -3.57253 -0.435678 0
M  V30 6387 C 599.463 -4.40302 0.82693 0
M  V30 6388 C 601.207 -4.12995 -0.981618 0
M  V30 6389 C 599.114 -5.88583 0.576567 0
M  V30 6390 H 598.044 -0.749246 -0.084536 0
M  V30 6391 H 600.695 -1.76771 0.492364 0
M  V30 6392 H 599.077 -3.77202 -1.20559 0
M  V30 6393 H 600.251 -4.32124 1.60017 0
M  V30 6394 H 598.566 -3.95699 1.29659 0
M  V30 6395 H 601.163 -5.21418 -1.18436 0
M  V30 6396 H 601.506 -3.68027 -1.94581 0
M  V30 6397 H 602.039 -3.96871 -0.271696 0
M  V30 6398 H 598.778 -6.37841 1.51128 0
M  V30 6399 H 598.298 -5.99592 -0.158047 0
M  V30 6400 H 599.977 -6.46676 0.204722 0
M  V30 6401 N 600.109 -0.101901 -1.5727 0
M  V30 6402 C 601.039 0.851544 -2.17419 0
M  V30 6403 C 602.02 1.28942 -1.10941 0
M  V30 6404 O 603.205 1.35509 -1.39107 0
M  V30 6405 C 600.335 2.10816 -2.75996 0
M  V30 6406 C 599.289 1.80867 -3.87906 0
M  V30 6407 C 598.615 3.13413 -4.33216 0
M  V30 6408 C 599.915 1.0903 -5.10793 0
M  V30 6409 H 601.609 0.350381 -2.97343 0
M  V30 6410 H 599.155 0.16709 -1.43027 0
M  V30 6411 H 601.108 2.77959 -3.16729 0
M  V30 6412 H 599.832 2.63227 -1.93337 0
M  V30 6413 H 598.491 1.16119 -3.47724 0
M  V30 6414 H 598.139 3.63725 -3.47438 0
M  V30 6415 H 597.839 2.94155 -5.08671 0
M  V30 6416 H 599.363 3.81704 -4.76586 0
M  V30 6417 H 600.777 1.66295 -5.48652 0
M  V30 6418 H 599.174 0.99927 -5.91722 0
M  V30 6419 H 600.244 0.0741704 -4.84843 0
M  V30 6420 N 601.587 1.56661 0.17182 0
M  V30 6421 C 602.517 1.99401 1.21498 0
M  V30 6422 C 603.498 0.869516 1.46197 0
M  V30 6423 O 604.683 1.13556 1.57539 0
M  V30 6424 C 601.813 2.35346 2.55401 0
M  V30 6425 C 600.767 3.5075 2.45272 0
M  V30 6426 C 600.093 3.72437 3.8366 0
M  V30 6427 C 601.393 4.84216 1.95787 0
M  V30 6428 H 603.087 2.86792 0.859699 0
M  V30 6429 H 600.633 1.37977 0.412103 0
M  V30 6430 H 602.586 2.63843 3.2858 0
M  V30 6431 H 601.31 1.44864 2.92715 0
M  V30 6432 H 599.969 3.2238 1.74547 0
M  V30 6433 H 599.617 2.79246 4.18367 0
M  V30 6434 H 599.317 4.50087 3.77751 0
M  V30 6435 H 600.841 4.03334 4.58426 0
M  V30 6436 H 602.255 5.11592 2.5874 0
M  V30 6437 H 600.652 5.65498 2.00827 0
M  V30 6438 H 601.722 4.76243 0.912159 0
M  V30 6439 N 603.065 -0.440357 1.51323 0
M  V30 6440 C 604.015 -1.53263 1.68803 0
M  V30 6441 C 604.999 -1.51494 0.542057 0
M  V30 6442 O 606.191 -1.57999 0.797839 0
M  V30 6443 C 603.32 -2.91479 1.8137 0
M  V30 6444 C 602.406 -2.98015 3.01742 0
M  V30 6445 N 602.797 -2.743 4.24962 0
M  V30 6446 C 601.095 -3.29173 3.00934 0
M  V30 6447 C 601.796 -2.86601 5.06197 0
M  V30 6448 N 600.772 -3.1814 4.40781 0
M  V30 6449 H 604.574 -1.33675 2.61741 0
M  V30 6450 H 602.088 -0.647616 1.48929 0
M  V30 6451 H 604.085 -3.70055 1.92002 0
M  V30 6452 H 602.745 -3.12089 0.896117 0
M  V30 6453 H 603.756 -2.49287 4.53957 0
M  V30 6454 H 600.433 -3.55577 2.18796 0
M  V30 6455 H 601.823 -2.72246 6.14274 0
M  V30 6456 N 604.543 -1.41418 -0.695603 0
M  V30 6457 C 605.791 -1.40496 -1.45277 0
M  V30 6458 C 606.112 -0.0149538 -1.94994 0
M  V30 6459 O 605.382 0.9432 -1.71699 0
M  V30 6460 H 603.962 -0.517147 -0.539044 0
M  V30 6461 H 606.624 -1.76656 -0.823321 0
M  V30 6462 H 605.72 -2.09214 -2.31595 0
M  V30 6463 N 606.021 0.929856 -1.27246 0
M  V30 6464 C 607.298 1.65544 -1.04186 0
M  V30 6465 C 607.678 2.06796 0.424097 0
M  V30 6466 O 607.026 1.80053 1.40688 0
M  V30 6467 C 607.236 2.85912 -2.00138 0
M  V30 6468 C 608.584 3.57305 -2.29387 0
M  V30 6469 O 609.608 2.96036 -1.98094 0
M  V30 6470 O 608.467 4.67688 -2.82719 0
M  V30 6471 H 605.561 0.725473 -0.397011 0
M  V30 6472 H 608.107 0.980583 -1.38501 0
M  V30 6473 H 606.879 2.52403 -2.99013 0
M  V30 6474 H 606.502 3.61118 -1.66371 0
M  V30 6475 N 607.499 1.09233 1.13605 0
M  V30 6476 C 608.462 0.733553 2.17144 0
M  V30 6477 C 609.462 -0.235873 1.59061 0
M  V30 6478 O 610.652 -0.0143167 1.74194 0
M  V30 6479 C 607.784 0.084471 3.40795 0
M  V30 6480 H 608.977 1.65049 2.50397 0
M  V30 6481 H 606.53 0.891264 1.28399 0
M  V30 6482 H 607.265 -0.843795 3.1313 0
M  V30 6483 H 607.05 0.781985 3.84223 0
M  V30 6484 H 608.54 -0.151216 4.17326 0
M  V30 6485 N 608.977 -1.30795 0.87923 0
M  V30 6486 C 609.94 -2.26563 0.346676 0
M  V30 6487 C 610.94 -1.52578 -0.507597 0
M  V30 6488 O 612.13 -1.71318 -0.315575 0
M  V30 6489 C 609.262 -3.37115 -0.506611 0
M  V30 6490 H 610.455 -2.75183 1.19223 0
M  V30 6491 H 608.008 -1.41886 0.655598 0
M  V30 6492 H 608.743 -2.93802 -1.37299 0
M  V30 6493 H 608.528 -3.91959 0.105218 0
M  V30 6494 H 610.018 -4.08412 -0.871192 0
M  V30 6495 N 610.455 -0.639598 -1.44038 0
M  V30 6496 C 611.702 -0.14748 -2.01962 0
M  V30 6497 C 612.03 1.23372 -1.50365 0
M  V30 6498 O 611.285 1.8345 -0.681501 0
M  V30 6499 C 611.584 -0.0925348 -3.5728 0
M  V30 6500 C 611.25 -1.41365 -4.28167 0
M  V30 6501 C 609.912 -1.77545 -4.47248 0
M  V30 6502 C 612.264 -2.2853 -4.68427 0
M  V30 6503 C 609.592 -3.00583 -5.03852 0
M  V30 6504 C 611.944 -3.50846 -5.26393 0
M  V30 6505 C 610.608 -3.8724 -5.43692 0
M  V30 6506 H 609.878 -0.0539666 -0.739032 0
M  V30 6507 H 612.525 -0.827599 -1.72694 0
M  V30 6508 H 610.83 0.670987 -3.86012 0
M  V30 6509 H 612.527 0.304891 -3.99839 0
M  V30 6510 H 609.117 -1.1221 -4.13651 0
M  V30 6511 H 613.301 -2.0187 -4.5339 0
M  V30 6512 H 608.557 -3.28846 -5.15432 0
M  V30 6513 H 612.731 -4.18616 -5.56537 0
M  V30 6514 H 610.358 -4.8266 -5.87319 0
M  V30 6515 N 611.933 1.52934 -0.380664 0
M  V30 6516 C 612.896 2.24809 0.446473 0
M  V30 6517 C 613.896 1.26133 0.997347 0
M  V30 6518 O 615.086 1.50297 0.880714 0
M  V30 6519 C 612.218 2.99649 1.62553 0
M  V30 6520 H 613.411 2.99343 -0.182677 0
M  V30 6521 H 610.964 1.55736 -0.132618 0
M  V30 6522 H 611.699 2.29395 2.29235 0
M  V30 6523 H 611.484 3.72066 1.23732 0
M  V30 6524 H 612.974 3.54246 2.21133 0
M  V30 6525 N 613.412 0.11024 1.57214 0
M  V30 6526 C 614.66 -0.548783 1.94506 0
M  V30 6527 C 614.981 -1.67772 0.99386 0
M  V30 6528 O 614.251 -1.9584 0.0485841 0
M  V30 6529 H 612.831 -0.205715 0.718116 0
M  V30 6530 H 615.493 0.177127 1.94093 0
M  V30 6531 H 614.589 -0.949096 2.97319 0
M  V30 6532 N 614.89 -1.56749 -0.16351 0
M  V30 6533 C 615.822 -1.93587 -1.22705 0
M  V30 6534 C 616.835 -0.829824 -1.40063 0
M  V30 6535 O 618.024 -1.10826 -1.39928 0
M  V30 6536 C 615.124 -2.1803 -2.59454 0
M  V30 6537 C 614.297 -3.4928 -2.63292 0
M  V30 6538 C 613.356 -3.62457 -3.8146 0
M  V30 6539 O 612.382 -4.35004 -3.67096 0
M  V30 6540 N 613.584 -2.97888 -4.9824 0
M  V30 6541 H 616.349 -2.8542 -0.914081 0
M  V30 6542 H 613.91 -1.58 -0.353214 0
M  V30 6543 H 615.902 -2.24102 -3.36987 0
M  V30 6544 H 614.472 -1.32543 -2.8311 0
M  V30 6545 H 613.692 -3.54795 -1.71796 0
M  V30 6546 H 614.98 -4.35632 -2.62873 0
M  V30 6547 H 614.378 -2.38833 -5.12811 0
M  V30 6548 H 612.935 -3.09545 -5.73607 0
M  V30 6549 N 616.368 0.432326 -1.51554 0
M  V30 6550 C 617.616 1.17901 -1.64146 0
M  V30 6551 C 617.937 1.91604 -0.362367 0
M  V30 6552 O 617.207 1.85764 0.621968 0
M  V30 6553 H 615.787 0.438206 -0.604966 0
M  V30 6554 H 618.449 0.495172 -1.88505 0
M  V30 6555 H 617.545 1.90584 -2.47152 0
M  V30 6556 N 617.846 1.41785 0.688094 0
M  V30 6557 C 619.095 1.4084 1.44385 0
M  V30 6558 C 619.408 0.0234166 1.95586 0
M  V30 6559 O 620.614 -0.108647 2.71283 0
M  V30 6560 C 619.07 2.47675 2.61123 0
M  V30 6561 C 618.678 3.92116 2.16677 0
M  V30 6562 C 620.422 2.55877 3.38714 0
M  V30 6563 C 618.329 4.90487 3.30419 0
M  V30 6564 H 617.259 0.523787 0.542368 0
M  V30 6565 H 619.91 1.6764 0.74627 0
M  V30 6566 H 618.292 2.14018 3.33185 0
M  V30 6567 H 619.466 4.35059 1.51856 0
M  V30 6568 H 617.781 3.87642 1.5206 0
M  V30 6569 H 620.378 3.26553 4.234 0
M  V30 6570 H 620.721 1.59801 3.84408 0
M  V30 6571 H 621.254 2.88662 2.73714 0
M  V30 6572 H 617.993 5.87994 2.89729 0
M  V30 6573 H 617.513 4.52187 3.94065 0
M  V30 6574 H 619.192 5.11591 3.96085 0
M  V30 6575 N 619.324 -0.923095 1.27737 0
M  V30 6576 C 620.57 -1.67375 1.14514 0
M  V30 6577 C 620.903 -1.91751 -0.307424 0
M  V30 6578 O 620.178 -1.51119 -1.22447 0
M  V30 6579 C 620.461 -3.03745 1.9342 0
M  V30 6580 C 620.314 -2.86581 3.46686 0
M  V30 6581 C 621.633 -4.04144 1.74228 0
M  V30 6582 H 618.752 -0.607427 0.417374 0
M  V30 6583 H 621.394 -1.07089 1.56946 0
M  V30 6584 H 619.544 -3.55204 1.5736 0
M  V30 6585 H 621.216 -2.42203 3.92601 0
M  V30 6586 H 619.459 -2.21829 3.72793 0
M  V30 6587 H 620.13 -3.83381 3.97143 0
M  V30 6588 H 622.606 -3.61712 2.05678 0
M  V30 6589 H 621.482 -4.97543 2.31824 0
M  V30 6590 H 621.743 -4.36661 0.691373 0
M  V30 6591 N 620.802 -1.09834 -1.13024 0
M  V30 6592 C 622.032 -0.857657 -1.87957 0
M  V30 6593 C 622.44 0.595008 -1.796 0
M  V30 6594 O 621.783 1.42158 -1.16347 0
M  V30 6595 C 621.845 -1.21949 -3.38185 0
M  V30 6596 C 621.509 -2.67791 -3.7032 0
M  V30 6597 C 622.506 -3.66036 -3.69207 0
M  V30 6598 C 620.191 -3.04019 -3.99847 0
M  V30 6599 C 622.185 -4.98533 -3.9717 0
M  V30 6600 C 619.872 -4.36706 -4.27471 0
M  V30 6601 C 620.87 -5.33772 -4.26118 0
M  V30 6602 O 620.558 -6.64072 -4.53061 0
M  V30 6603 H 620.29 -0.308009 -0.601753 0
M  V30 6604 H 622.844 -1.46496 -1.43973 0
M  V30 6605 H 621.074 -0.555249 -3.82693 0
M  V30 6606 H 622.763 -0.957281 -3.9445 0
M  V30 6607 H 623.529 -3.39392 -3.46465 0
M  V30 6608 H 619.408 -2.29096 -4.00045 0
M  V30 6609 H 622.952 -5.74288 -3.96029 0
M  V30 6610 H 618.849 -4.63091 -4.49685 0
M  V30 6611 H 619.617 -6.69608 -4.7071 0
M  V30 6612 N 622.28 1.30327 -0.886154 0
M  V30 6613 C 623.19 2.31854 -0.357866 0
M  V30 6614 C 624.206 1.65392 0.540502 0
M  V30 6615 O 625.382 1.96683 0.433339 0
M  V30 6616 C 622.447 3.44171 0.417999 0
M  V30 6617 C 621.508 4.26257 -0.510263 0
M  V30 6618 C 620.741 5.3321 0.228669 0
M  V30 6619 O 620.964 5.51542 1.45458 0
M  V30 6620 O 619.898 6.0042 -0.421832 0
M  V30 6621 H 623.724 2.78995 -1.19982 0
M  V30 6622 H 621.309 1.34518 -0.650028 0
M  V30 6623 H 623.191 4.12588 0.857251 0
M  V30 6624 H 621.866 2.99164 1.23623 0
M  V30 6625 H 620.773 3.60533 -0.99835 0
M  V30 6626 H 622.106 4.74871 -1.29454 0
M  V30 6627 N 623.758 0.647228 1.43697 0
M  V30 6628 C 624.986 0.16575 2.06235 0
M  V30 6629 C 625.401 -1.1662 1.48476 0
M  V30 6630 O 624.758 -1.7187 0.613762 0
M  V30 6631 C 624.809 0.0621651 3.61447 0
M  V30 6632 O 624.53 1.34146 4.17057 0
M  V30 6633 C 626.031 -0.446102 4.4105 0
M  V30 6634 H 623.251 0.0871158 0.665321 0
M  V30 6635 H 625.795 0.886183 1.84301 0
M  V30 6636 H 623.95 -0.608794 3.82587 0
M  V30 6637 H 624.364 1.19675 5.10664 0
M  V30 6638 H 625.838 -0.46755 5.50016 0
M  V30 6639 H 626.315 -1.47627 4.13646 0
M  V30 6640 H 626.921 0.192159 4.24866 0
M  V30 6641 N 625.236 -1.5273 0.388769 0
M  V30 6642 C 626.483 -2.01573 -0.19359 0
M  V30 6643 C 626.811 -1.27525 -1.46859 0
M  V30 6644 O 626.066 -0.363926 -1.92286 0
M  V30 6645 C 626.365 -3.53765 -0.508445 0
M  V30 6646 C 626.031 -4.4582 0.674947 0
M  V30 6647 C 624.693 -4.70703 0.999596 0
M  V30 6648 C 627.045 -5.00138 1.46666 0
M  V30 6649 C 624.373 -5.47155 2.11751 0
M  V30 6650 C 626.725 -5.77812 2.57518 0
M  V30 6651 C 625.389 -6.00975 2.90492 0
M  V30 6652 H 624.659 -0.737606 -0.0708397 0
M  V30 6653 H 627.306 -1.84134 0.526006 0
M  V30 6654 H 625.611 -3.69274 -1.30936 0
M  V30 6655 H 627.308 -3.8905 -0.971664 0
M  V30 6656 H 623.898 -4.26616 0.411906 0
M  V30 6657 H 628.082 -4.8084 1.22909 0
M  V30 6658 H 623.338 -5.63314 2.3767 0
M  V30 6659 H 627.512 -6.18904 3.19267 0
M  V30 6660 H 625.139 -6.59998 3.77236 0
M  V30 6661 N 626.714 -0.118576 -1.57153 0
M  V30 6662 C 627.664 0.842924 -2.11846 0
M  V30 6663 C 628.648 1.22845 -1.03914 0
M  V30 6664 O 629.84 1.19961 -1.30148 0
M  V30 6665 C 626.969 2.09312 -2.72109 0
M  V30 6666 C 626.055 1.73198 -3.87122 0
M  V30 6667 N 626.446 1.07758 -4.94188 0
M  V30 6668 C 624.744 2.02659 -3.97298 0
M  V30 6669 C 625.445 0.907741 -5.74574 0
M  V30 6670 N 624.421 1.4326 -5.24383 0
M  V30 6671 H 628.223 0.333416 -2.92003 0
M  V30 6672 H 625.737 0.0839073 -1.62183 0
M  V30 6673 H 627.734 2.79162 -3.09635 0
M  V30 6674 H 626.394 2.60807 -1.93416 0
M  V30 6675 H 627.405 0.741613 -5.12563 0
M  V30 6676 H 624.082 2.56204 -3.29645 0
M  V30 6677 H 625.472 0.394112 -6.70743 0
M  V30 6678 N 628.193 1.56834 0.155195 0
M  V30 6679 C 629.123 2.00678 1.19376 0
M  V30 6680 C 630.104 0.884973 1.45266 0
M  V30 6681 O 631.289 1.1522 1.56326 0
M  V30 6682 C 628.419 2.38042 2.5289 0
M  V30 6683 C 627.373 3.53332 2.41538 0
M  V30 6684 C 626.699 3.76485 3.79688 0
M  V30 6685 C 627.999 4.86265 1.9064 0
M  V30 6686 H 629.693 2.87688 0.829232 0
M  V30 6687 H 627.239 1.38407 0.397445 0
M  V30 6688 H 629.192 2.67314 3.25763 0
M  V30 6689 H 627.916 1.4796 2.91162 0
M  V30 6690 H 626.575 3.24213 1.71117 0
M  V30 6691 H 626.223 2.83667 4.15382 0
M  V30 6692 H 625.923 4.54068 3.72956 0
M  V30 6693 H 627.447 4.08174 4.54122 0
M  V30 6694 H 628.861 5.14308 2.53299 0
M  V30 6695 H 627.258 5.67597 1.94818 0
M  V30 6696 H 628.328 4.77184 0.861596 0
M  V30 6697 N 629.671 -0.424282 1.51781 0
M  V30 6698 C 630.896 -1.19928 1.6921 0
M  V30 6699 C 631.321 -1.8392 0.394355 0
M  V30 6700 O 630.679 -1.69371 -0.646778 0
M  V30 6701 C 630.727 -2.24937 2.81843 0
M  V30 6702 O 629.831 -3.3073 2.46356 0
M  V30 6703 H 629.172 -0.35078 0.563781 0
M  V30 6704 H 631.702 -0.499401 1.98412 0
M  V30 6705 H 631.712 -2.69512 3.06312 0
M  V30 6706 H 630.387 -1.77742 3.76006 0
M  V30 6707 H 628.964 -2.9154 2.32505 0
M  V30 6708 N 631.149 -1.42148 -0.680565 0
M  V30 6709 C 632.426 -1.32795 -1.43614 0
M  V30 6710 C 632.806 0.037415 -2.11067 0
M  V30 6711 O 632.154 1.05258 -2.02813 0
M  V30 6712 C 632.364 -2.49206 -2.44331 0
M  V30 6713 C 633.712 -2.91059 -3.09144 0
M  V30 6714 O 634.736 -2.49054 -2.54657 0
M  V30 6715 O 633.595 -3.63741 -4.07866 0
M  V30 6716 H 630.689 -0.523397 -0.640301 0
M  V30 6717 H 633.235 -1.54144 -0.709775 0
M  V30 6718 H 632.007 -3.40252 -1.93247 0
M  V30 6719 H 631.63 -2.29813 -3.24456 0
M  V30 6720 N 632.627 0.916307 -1.28225 0
M  V30 6721 C 633.557 2.0352 -1.14464 0
M  V30 6722 C 634.538 1.70045 -0.0430844 0
M  V30 6723 O 635.723 1.92954 -0.219619 0
M  V30 6724 C 632.853 3.37889 -0.803027 0
M  V30 6725 C 631.807 3.85516 -1.85908 0
M  V30 6726 C 631.133 5.1682 -1.37116 0
M  V30 6727 C 632.433 4.07655 -3.26519 0
M  V30 6728 H 634.127 2.1529 -2.08064 0
M  V30 6729 H 631.673 1.03446 -1.00174 0
M  V30 6730 H 633.626 4.15654 -0.693537 0
M  V30 6731 H 632.35 3.26164 0.168674 0
M  V30 6732 H 631.009 3.09953 -1.95767 0
M  V30 6733 H 630.657 5.01497 -0.38859 0
M  V30 6734 H 630.357 5.49657 -2.07728 0
M  V30 6735 H 631.881 5.97143 -1.27484 0
M  V30 6736 H 633.295 4.75953 -3.19596 0
M  V30 6737 H 631.692 4.51818 -3.94943 0
M  V30 6738 H 632.762 3.12553 -3.70727 0
M  V30 6739 N 634.105 1.10431 1.1244 0
M  V30 6740 C 635.516 0.864439 1.65482 0
M  V30 6741 C 635.867 -0.60527 1.8663 0
M  V30 6742 O 634.992 -1.46492 1.59276 0
M  V30 6743 C 635.587 1.56267 3.0061 0
M  V30 6744 C 634.146 1.3695 3.50602 0
M  V30 6745 C 633.293 1.61209 2.25626 0
M  V30 6746 H 636.244 1.26203 0.962209 0
M  V30 6747 H 636.265 1.00166 3.67079 0
M  V30 6748 H 635.777 2.63231 2.85186 0
M  V30 6749 H 633.878 0.321481 3.71211 0
M  V30 6750 H 633.991 2.11143 4.30064 0
M  V30 6751 H 632.355 1.03482 2.32731 0
M  V30 6752 H 633.138 2.69425 2.12756 0
M  V30 6753 N 635.583 -1.29855 0.893053 0
M  V30 6754 C 636.808 -2.00512 0.530066 0
M  V30 6755 C 637.233 -1.66446 -0.876199 0
M  V30 6756 O 636.591 -0.885446 -1.58207 0
M  V30 6757 C 636.639 -3.53308 0.721505 0
M  V30 6758 O 635.743 -4.11764 -0.228994 0
M  V30 6759 H 635.084 -0.630617 0.207891 0
M  V30 6760 H 637.614 -1.6551 1.20282 0
M  V30 6761 H 637.624 -4.03206 0.623599 0
M  V30 6762 H 636.299 -3.77439 1.74678 0
M  V30 6763 H 634.876 -3.72805 -0.0841034 0
M  V30 6764 N 637.061 -0.65484 -1.43351 0
M  V30 6765 C 638.291 -0.176429 -2.05845 0
M  V30 6766 C 638.699 1.16375 -1.49176 0
M  V30 6767 O 638.042 1.72981 -0.618322 0
M  V30 6768 C 638.104 -0.0125844 -3.59498 0
M  V30 6769 C 637.768 -1.27831 -4.38758 0
M  V30 6770 C 638.765 -2.2074 -4.70712 0
M  V30 6771 C 636.45 -1.52035 -4.78739 0
M  V30 6772 C 638.444 -3.36145 -5.41558 0
M  V30 6773 C 636.131 -2.67732 -5.49329 0
M  V30 6774 C 637.129 -3.59612 -5.80662 0
M  V30 6775 O 636.817 -4.73289 -6.4981 0
M  V30 6776 H 636.549 -0.0879682 -0.670252 0
M  V30 6777 H 639.103 -0.896193 -1.84818 0
M  V30 6778 H 637.333 0.762567 -3.79107 0
M  V30 6779 H 639.022 0.423392 -4.03686 0
M  V30 6780 H 639.788 -2.03284 -4.40341 0
M  V30 6781 H 635.667 -0.813987 -4.53757 0
M  V30 6782 H 639.211 -4.07881 -5.65932 0
M  V30 6783 H 635.108 -2.85122 -5.79116 0
M  V30 6784 H 635.876 -4.72575 -6.68293 0
M  V30 6785 N 638.539 1.52521 -0.396863 0
M  V30 6786 C 639.767 2.06091 0.18275 0
M  V30 6787 C 640.182 1.26796 1.39886 0
M  V30 6788 O 639.539 0.316585 1.79733 0
M  V30 6789 C 639.59 3.57362 0.545377 0
M  V30 6790 O 639.311 4.33656 -0.622428 0
M  V30 6791 C 640.812 4.27305 1.18004 0
M  V30 6792 H 638.032 0.670504 0.025789 0
M  V30 6793 H 640.576 1.96561 -0.564276 0
M  V30 6794 H 638.731 3.66941 1.2423 0
M  V30 6795 H 639.145 5.23507 -0.322662 0
M  V30 6796 H 640.619 5.34366 1.38408 0
M  V30 6797 H 641.096 3.83 2.1496 0
M  V30 6798 H 641.702 4.22064 0.523671 0
M  V30 6799 N 640.017 0.126909 1.57088 0
M  V30 6800 C 641.245 -0.53667 1.99819 0
M  V30 6801 C 641.66 -1.5972 1.00673 0
M  V30 6802 O 641.017 -1.825 0.000747365 0
M  V30 6803 C 641.068 -1.15563 3.42531 0
M  V30 6804 O 640.789 -0.137483 4.37884 0
M  V30 6805 C 642.29 -1.90176 4.00435 0
M  V30 6806 H 639.51 -0.141443 0.655923 0
M  V30 6807 H 642.054 0.215578 2.03361 0
M  V30 6808 H 640.209 -1.85861 3.39904 0
M  V30 6809 H 640.623 -0.588229 5.21191 0
M  V30 6810 H 642.097 -2.28801 5.02349 0
M  V30 6811 H 642.574 -2.78002 3.40017 0
M  V30 6812 H 643.18 -1.24623 4.06632 0
M  V30 6813 N 641.495 -1.56914 -0.146875 0
M  V30 6814 C 642.445 -1.94693 -1.18653 0
M  V30 6815 C 643.429 -0.81821 -1.38543 0
M  V30 6816 O 644.621 -1.08167 -1.40103 0
M  V30 6817 C 641.75 -2.33117 -2.52014 0
M  V30 6818 C 640.836 -3.5256 -2.35717 0
M  V30 6819 N 641.227 -4.69091 -1.89175 0
M  V30 6820 C 639.525 -3.57647 -2.66467 0
M  V30 6821 C 640.226 -5.51187 -1.85924 0
M  V30 6822 N 639.202 -4.92899 -2.29242 0
M  V30 6823 H 643.004 -2.82264 -0.81879 0
M  V30 6824 H 640.518 -1.58474 -0.354929 0
M  V30 6825 H 642.515 -2.58387 -3.27172 0
M  V30 6826 H 641.175 -1.46898 -2.89571 0
M  V30 6827 H 642.186 -4.92844 -1.59139 0
M  V30 6828 H 638.863 -2.81967 -3.07898 0
M  V30 6829 H 640.253 -6.54613 -1.51431 0
M  V30 6830 N 642.974 0.416227 -1.52004 0
M  V30 6831 C 644.222 1.16153 -1.65387 0
M  V30 6832 C 644.543 1.91208 -0.382669 0
M  V30 6833 O 643.813 1.86413 0.602231 0
M  V30 6834 H 642.393 0.431765 -0.60958 0
M  V30 6835 H 645.055 0.475151 -1.89019 0
M  V30 6836 H 644.151 1.87952 -2.4916 0
M  V30 6837 N 644.452 1.42507 0.673017 0
M  V30 6838 C 645.68 1.46473 1.46128 0
M  V30 6839 C 646.095 0.0765912 1.88645 0
M  V30 6840 O 645.452 -0.909057 1.58248 0
M  V30 6841 C 645.503 2.39339 2.70923 0
M  V30 6842 O 645.224 3.72752 2.3019 0
M  V30 6843 C 646.725 2.52343 3.64469 0
M  V30 6844 H 643.945 0.49812 0.449575 0
M  V30 6845 H 646.489 1.87041 0.826802 0
M  V30 6846 H 644.644 2.02019 3.30556 0
M  V30 6847 H 645.058 4.22503 3.10791 0
M  V30 6848 H 646.532 3.2144 4.48754 0
M  V30 6849 H 647.009 1.56189 4.1049 0
M  V30 6850 H 647.615 2.90392 3.10729 0
M  V30 6851 N 645.93 -0.909495 1.28709 0
M  V30 6852 C 647.176 -1.66151 1.16283 0
M  V30 6853 C 647.509 -1.92067 -0.287069 0
M  V30 6854 O 646.784 -1.52409 -1.20837 0
M  V30 6855 C 647.067 -3.01676 1.9663 0
M  V30 6856 C 646.92 -2.82888 3.49707 0
M  V30 6857 C 648.239 -4.02274 1.78504 0
M  V30 6858 H 645.358 -0.602966 0.423793 0
M  V30 6859 H 648 -1.05418 1.58073 0
M  V30 6860 H 646.15 -3.53515 1.61119 0
M  V30 6861 H 647.822 -2.38026 3.95147 0
M  V30 6862 H 646.065 -2.17862 3.75125 0
M  V30 6863 H 646.736 -3.79147 4.01187 0
M  V30 6864 H 649.212 -3.59511 2.09503 0
M  V30 6865 H 648.088 -4.95056 2.37088 0
M  V30 6866 H 648.349 -4.35903 0.737647 0
M  V30 6867 N 647.408 -1.11026 -1.11852 0
M  V30 6868 C 648.358 -0.733836 -2.15868 0
M  V30 6869 C 649.342 0.26001 -1.58785 0
M  V30 6870 O 650.534 0.0677901 -1.7687 0
M  V30 6871 C 647.663 -0.173948 -3.42859 0
M  V30 6872 C 646.749 -1.1952 -4.0691 0
M  V30 6873 N 647.14 -2.38797 -4.45881 0
M  V30 6874 C 645.438 -1.03714 -4.33773 0
M  V30 6875 C 646.139 -3.03894 -4.96007 0
M  V30 6876 N 645.115 -2.31389 -4.91894 0
M  V30 6877 H 648.917 -1.64171 -2.43773 0
M  V30 6878 H 646.431 -0.988877 -1.28822 0
M  V30 6879 H 648.428 0.113836 -4.16745 0
M  V30 6880 H 647.088 0.728568 -3.16421 0
M  V30 6881 H 648.099 -2.76281 -4.38051 0
M  V30 6882 H 644.776 -0.190694 -4.17064 0
M  V30 6883 H 646.166 -4.05389 -5.35826 0
M  V30 6884 N 648.886 1.2938 -0.899927 0
M  V30 6885 C 650.132 1.9584 -0.526742 0
M  V30 6886 C 650.465 1.70774 0.924651 0
M  V30 6887 O 649.74 1.02084 1.65557 0
M  V30 6888 C 650.023 3.50638 -0.820062 0
M  V30 6889 C 649.876 3.85161 -2.32317 0
M  V30 6890 C 651.195 4.3903 -0.30671 0
M  V30 6891 H 648.314 0.711322 -0.192848 0
M  V30 6892 H 650.956 1.52992 -1.12665 0
M  V30 6893 H 649.106 3.87265 -0.309491 0
M  V30 6894 H 650.778 3.58477 -2.9033 0
M  V30 6895 H 649.021 3.32696 -2.78381 0
M  V30 6896 H 649.692 4.93204 -2.47898 0
M  V30 6897 H 652.168 4.09396 -0.743908 0
M  V30 6898 H 651.044 5.46226 -0.541144 0
M  V30 6899 H 651.305 4.34937 0.792588 0
M  V30 6900 N 650.364 0.662433 1.43002 0
M  V30 6901 C 651.61 0.179857 2.02001 0
M  V30 6902 C 651.943 -1.20625 1.52195 0
M  V30 6903 O 651.218 -1.80726 0.718911 0
M  V30 6904 C 651.501 0.200845 3.59539 0
M  V30 6905 C 651.354 1.62153 4.19555 0
M  V30 6906 C 652.673 -0.457738 4.37713 0
M  V30 6907 H 649.792 0.0668305 0.733964 0
M  V30 6908 H 652.434 0.84487 1.70182 0
M  V30 6909 H 650.584 -0.365411 3.86778 0
M  V30 6910 H 652.256 2.23908 4.03315 0
M  V30 6911 H 650.499 2.16601 3.75854 0
M  V30 6912 H 651.17 1.58799 5.28665 0
M  V30 6913 H 653.646 0.0241495 4.16093 0
M  V30 6914 H 652.522 -0.412363 5.47349 0
M  V30 6915 H 652.783 -1.53336 4.14657 0
M  V30 6916 N 651.842 -1.52309 0.404946 0
M  V30 6917 C 653.088 -2.02065 -0.172455 0
M  V30 6918 C 653.421 -1.29022 -1.45145 0
M  V30 6919 O 652.696 -0.395284 -1.90441 0
M  V30 6920 C 652.979 -3.5759 -0.424433 0
M  V30 6921 C 652.832 -4.41287 0.870945 0
M  V30 6922 C 654.151 -4.23186 -1.20837 0
M  V30 6923 H 651.27 -0.734454 -0.0612035 0
M  V30 6924 H 653.912 -1.82236 0.53759 0
M  V30 6925 H 652.062 -3.74617 -1.02929 0
M  V30 6926 H 653.734 -4.3598 1.50729 0
M  V30 6927 H 651.977 -4.07669 1.48284 0
M  V30 6928 H 652.648 -5.48171 0.649083 0
M  V30 6929 H 655.124 -4.10232 -0.696338 0
M  V30 6930 H 654 -5.31953 -1.35343 0
M  V30 6931 H 654.261 -3.81862 -2.22786 0
M  V30 6932 N 653.32 -0.135238 -1.57019 0
M  V30 6933 C 654.268 0.826099 -2.17436 0
M  V30 6934 C 655.262 1.26378 -1.12805 0
M  V30 6935 O 656.468 1.23363 -1.31079 0
M  V30 6936 H 652.843 0.284568 -0.696078 0
M  V30 6937 H 654.814 0.292212 -2.96966 0
M  V30 6938 C 653.563 2.05991 -2.80112 0
M  V30 6939 H 652.886 1.73209 -3.60331 0
M  V30 6940 H 654.326 2.71225 -3.25903 0
M  V30 6941 C 652.785 2.86027 -1.78017 0
M  V30 6942 O 653.315 3.81971 -1.24344 0
M  V30 6943 N 651.521 2.50332 -1.47588 0
M  V30 6944 H 651.068 1.72377 -1.91426 0
M  V30 6945 H 651.026 3.04177 -0.795228 0
M  V30 6946 N 654.798 1.5699 0.138552 0
M  V30 6947 C 655.746 1.99858 1.18994 0
M  V30 6948 C 656.74 0.89231 1.43994 0
M  V30 6949 O 657.946 1.0775 1.44187 0
M  V30 6950 H 654.321 0.636325 0.400743 0
M  V30 6951 H 656.292 2.87427 0.801755 0
M  V30 6952 C 655.041 2.40235 2.51361 0
M  V30 6953 H 654.364 3.24917 2.32957 0
M  V30 6954 H 655.804 2.74045 3.23535 0
M  V30 6955 C 654.263 1.25829 3.1252 0
M  V30 6956 O 654.793 0.563604 3.97727 0
M  V30 6957 N 652.999 1.02036 2.72097 0
M  V30 6958 H 652.546 1.58705 2.02905 0
M  V30 6959 H 652.504 0.256796 3.1335 0
M  V30 6960 N 656.276 -0.40816 1.52223 0
M  V30 6961 C 657.208 -1.51642 1.71864 0
M  V30 6962 C 658.221 -1.51378 0.599056 0
M  V30 6963 O 659.41 -1.55626 0.874239 0
M  V30 6964 C 656.51 -2.90534 1.74481 0
M  V30 6965 C 655.683 -3.14979 3.03491 0
M  V30 6966 C 654.742 -4.33749 2.97907 0
M  V30 6967 O 653.768 -4.30982 3.71811 0
M  V30 6968 N 654.97 -5.38912 2.15764 0
M  V30 6969 H 657.735 -1.35188 2.67478 0
M  V30 6970 H 655.296 -0.597468 1.50472 0
M  V30 6971 H 657.288 -3.68056 1.68275 0
M  V30 6972 H 655.858 -3.00441 0.863363 0
M  V30 6973 H 655.078 -2.25492 3.23337 0
M  V30 6974 H 656.366 -3.28156 3.88833 0
M  V30 6975 H 655.764 -5.44008 1.55152 0
M  V30 6976 H 654.321 -6.15174 2.15415 0
M  V30 6977 N 657.755 -1.42862 -0.66545 0
M  V30 6978 C 659.004 -1.43119 -1.42126 0
M  V30 6979 C 659.317 -0.0545297 -1.95524 0
M  V30 6980 O 660.523 0.0654747 -2.71421 0
M  V30 6981 C 658.979 -2.51797 -2.5715 0
M  V30 6982 C 658.587 -3.95514 -2.10411 0
M  V30 6983 C 660.331 -2.61233 -3.346 0
M  V30 6984 C 658.238 -4.95682 -3.22573 0
M  V30 6985 H 657.168 -0.532349 -0.533966 0
M  V30 6986 H 659.819 -1.68806 -0.719506 0
M  V30 6987 H 658.201 -2.19292 -3.29738 0
M  V30 6988 H 659.375 -4.3742 -1.44915 0
M  V30 6989 H 657.69 -3.90012 -1.45874 0
M  V30 6990 H 660.287 -3.33248 -4.18151 0
M  V30 6991 H 660.63 -1.65896 -3.81817 0
M  V30 6992 H 661.163 -2.9298 -2.69087 0
M  V30 6993 H 657.902 -5.92529 -2.80338 0
M  V30 6994 H 657.422 -4.58399 -3.86821 0
M  V30 6995 H 659.101 -5.17828 -3.87896 0
M  V30 6996 N 659.233 0.902656 -1.29189 0
M  V30 6997 C 660.481 1.6496 -1.16758 0
M  V30 6998 C 660.802 1.92952 0.28188 0
M  V30 6999 O 660.072 1.55351 1.19344 0
M  V30 7000 H 658.652 0.611447 -0.429118 0
M  V30 7001 H 661.314 1.0825 -1.62074 0
M  V30 7002 H 660.41 2.60728 -1.71544 0
M  V30 7003 N 660.711 1.11618 1.11262 0
M  V30 7004 C 661.958 0.86618 1.8304 0
M  V30 7005 C 662.286 -0.608149 1.84748 0
M  V30 7006 O 661.541 -1.46508 1.29745 0
M  V30 7007 C 661.84 1.37529 3.2988 0
M  V30 7008 C 661.506 2.86317 3.4833 0
M  V30 7009 C 660.168 3.26945 3.53073 0
M  V30 7010 C 662.52 3.82136 3.54431 0
M  V30 7011 C 659.848 4.62117 3.61475 0
M  V30 7012 C 662.2 5.17128 3.64365 0
M  V30 7013 C 660.864 5.57312 3.67369 0
M  V30 7014 H 660.134 0.316958 0.66979 0
M  V30 7015 H 662.781 1.3949 1.31205 0
M  V30 7016 H 661.086 0.766842 3.84222 0
M  V30 7017 H 662.783 1.15817 3.83911 0
M  V30 7018 H 659.373 2.53889 3.45309 0
M  V30 7019 H 663.557 3.51847 3.50025 0
M  V30 7020 H 658.813 4.92655 3.62079 0
M  V30 7021 H 662.987 5.91208 3.68029 0
M  V30 7022 H 660.614 6.62045 3.73632 0
M  V30 7023 N 662.189 -1.289 0.906776 0
M  V30 7024 C 663.417 -1.99401 0.551969 0
M  V30 7025 C 663.832 -1.67816 -0.865048 0
M  V30 7026 O 663.189 -0.927078 -1.57199 0
M  V30 7027 C 663.24 -3.53779 0.743152 0
M  V30 7028 O 662.961 -3.84248 2.1044 0
M  V30 7029 C 664.462 -4.41543 0.39424 0
M  V30 7030 H 661.682 -0.636926 0.211106 0
M  V30 7031 H 664.226 -1.64266 1.21807 0
M  V30 7032 H 662.381 -3.87201 0.124143 0
M  V30 7033 H 662.795 -4.78904 2.13895 0
M  V30 7034 H 664.269 -5.48957 0.578814 0
M  V30 7035 H 664.746 -4.34073 -0.669137 0
M  V30 7036 H 665.352 -4.13605 0.990491 0
M  V30 7037 N 663.667 -0.670007 -1.42649 0
M  V30 7038 C 664.895 -0.19854 -2.05945 0
M  V30 7039 C 665.31 1.14243 -1.50313 0
M  V30 7040 O 664.667 1.70872 -0.641027 0
M  V30 7041 C 664.718 -0.11966 -3.61302 0
M  V30 7042 O 664.439 -1.40764 -4.1487 0
M  V30 7043 C 665.94 0.375878 -4.41704 0
M  V30 7044 H 663.16 -0.0976894 -0.663851 0
M  V30 7045 H 665.704 -0.915392 -1.82868 0
M  V30 7046 H 663.859 0.547851 -3.83507 0
M  V30 7047 H 664.273 -1.27784 -5.08696 0
M  V30 7048 H 665.747 0.379988 -5.50691 0
M  V30 7049 H 666.224 1.41028 -4.15942 0
M  V30 7050 H 666.83 -0.259727 -4.24506 0
M  V30 7051 N 665.145 1.52092 -0.413018 0
M  V30 7052 C 666.422 1.94356 0.22024 0
M  V30 7053 C 666.802 1.35017 1.62277 0
M  V30 7054 O 666.15 0.527511 2.22328 0
M  V30 7055 C 666.36 3.48289 0.222638 0
M  V30 7056 C 667.708 4.22313 0.440098 0
M  V30 7057 O 668.732 3.54919 0.301826 0
M  V30 7058 O 667.591 5.41829 0.712984 0
M  V30 7059 H 664.685 0.814536 0.14304 0
M  V30 7060 H 667.231 1.63083 -0.469242 0
M  V30 7061 H 666.003 3.83872 -0.758836 0
M  V30 7062 H 665.626 3.85934 0.956057 0
M  V30 7063 N 666.623 0.143563 1.56945 0
M  V30 7064 C 668.034 -0.37783 1.82837 0
M  V30 7065 C 668.385 -1.64967 1.06209 0
M  V30 7066 O 667.51 -2.14221 0.306291 0
M  V30 7067 C 668.105 -0.692274 3.31652 0
M  V30 7068 C 666.664 -1.1582 3.58138 0
M  V30 7069 C 665.811 -0.17951 2.76718 0
M  V30 7070 H 668.762 0.368317 1.54367 0
M  V30 7071 H 668.783 -1.54729 3.47619 0
M  V30 7072 H 668.295 0.233572 3.87397 0
M  V30 7073 H 666.396 -2.10011 3.07776 0
M  V30 7074 H 666.509 -1.08655 4.66616 0
M  V30 7075 H 664.873 -0.671458 2.4569 0
M  V30 7076 H 665.656 0.739865 3.35233 0
M  V30 7077 N 668.101 -1.57061 -0.130224 0
M  V30 7078 C 669.517 -1.52103 -0.483413 0
M  V30 7079 C 669.717 -0.854752 -1.82473 0
M  V30 7080 O 668.773 -0.432342 -2.48771 0
M  V30 7081 C 670.086 -2.96872 -0.47825 0
M  V30 7082 C 671.634 -3.07902 -0.562592 0
M  V30 7083 C 672.109 -4.54211 -0.587929 0
M  V30 7084 N 673.6 -4.58621 -0.649684 0
M  V30 7085 C 674.335 -5.69227 -0.690551 0
M  V30 7086 N 673.831 -6.89358 -0.689743 0
M  V30 7087 N 675.624 -5.57304 -0.732708 0
M  V30 7088 H 667.775 -1.98764 0.748779 0
M  V30 7089 H 670.038 -0.907248 0.274965 0
M  V30 7090 H 669.744 -3.48944 0.439444 0
M  V30 7091 H 669.618 -3.53716 -1.31013 0
M  V30 7092 H 672.005 -2.5584 -1.47071 0
M  V30 7093 H 672.086 -2.54073 0.296764 0
M  V30 7094 H 671.73 -5.06915 0.316096 0
M  V30 7095 H 671.66 -5.0584 -1.46401 0
M  V30 7096 H 674.151 -3.72146 -0.656927 0
M  V30 7097 H 674.464 -7.69408 -0.723239 0
M  V30 7098 H 672.809 -6.91884 -0.657347 0
M  V30 7099 H 676 -4.62363 -0.730625 0
M  V30 7100 H 676.173 -6.43515 -0.76109 0
M  V30 7101 N 669.579 0.400081 -1.52437 0
M  V30 7102 C 670.512 1.50929 -1.7116 0
M  V30 7103 C 671.49 1.52679 -0.559275 0
M  V30 7104 O 672.674 1.71251 -0.787735 0
M  V30 7105 C 669.801 2.89433 -1.75915 0
M  V30 7106 C 668.847 3.05556 -2.97553 0
M  V30 7107 S 669.68 2.77919 -4.57735 0
M  V30 7108 C 670.836 4.18636 -4.6529 0
M  V30 7109 H 671.069 1.3482 -2.64973 0
M  V30 7110 H 668.602 0.592245 -1.4259 0
M  V30 7111 H 670.56 3.69253 -1.7934 0
M  V30 7112 H 669.221 3.02877 -0.832137 0
M  V30 7113 H 668.414 4.0691 -2.97388 0
M  V30 7114 H 668.016 2.33615 -2.92062 0
M  V30 7115 H 670.308 5.12406 -4.43223 0
M  V30 7116 H 671.251 4.23821 -5.67258 0
M  V30 7117 H 671.659 4.04029 -3.94234 0
M  V30 7118 N 671.057 1.43213 0.657864 0
M  V30 7119 C 672.02 1.47687 1.75275 0
M  V30 7120 C 673.02 0.362179 1.56668 0
M  V30 7121 O 674.21 0.623734 1.62651 0
M  V30 7122 C 671.342 1.32497 3.14098 0
M  V30 7123 H 672.535 2.4519 1.7269 0
M  V30 7124 H 670.088 1.2991 0.869087 0
M  V30 7125 H 670.823 0.359831 3.22298 0
M  V30 7126 H 670.608 2.13299 3.29008 0
M  V30 7127 H 672.098 1.38549 3.93946 0
M  V30 7128 N 672.536 -0.895792 1.29666 0
M  V30 7129 C 673.952 -1.17726 1.07763 0
M  V30 7130 C 674.152 -2.00794 -0.168576 0
M  V30 7131 O 673.208 -2.37213 -0.865244 0
M  V30 7132 C 674.521 -1.89441 2.33522 0
M  V30 7133 C 676.069 -2.02251 2.3888 0
M  V30 7134 C 676.544 -2.77378 3.64452 0
M  V30 7135 N 678.035 -2.8493 3.65198 0
M  V30 7136 C 678.77 -3.43606 4.59045 0
M  V30 7137 N 678.266 -4.03417 5.63228 0
M  V30 7138 N 680.059 -3.41317 4.46608 0
M  V30 7139 H 672.21 -0.341652 2.09634 0
M  V30 7140 H 674.473 -0.213865 0.923561 0
M  V30 7141 H 674.179 -1.35842 3.24407 0
M  V30 7142 H 674.053 -2.89893 2.41334 0
M  V30 7143 H 676.44 -2.55025 1.4848 0
M  V30 7144 H 676.521 -1.0092 2.3505 0
M  V30 7145 H 676.165 -2.25279 4.55205 0
M  V30 7146 H 676.095 -3.79062 3.65541 0
M  V30 7147 H 678.586 -2.42453 2.89871 0
M  V30 7148 H 678.899 -4.46224 6.30955 0
M  V30 7149 H 677.244 -4.01868 5.67033 0
M  V30 7150 H 680.435 -2.93812 3.64407 0
M  V30 7151 H 680.608 -3.86751 5.1993 0
M  V30 7152 N 674.014 -1.12206 -1.10668 0
M  V30 7153 C 675.239 -0.898938 -1.86906 0
M  V30 7154 C 675.664 0.546346 -1.79991 0
M  V30 7155 O 675.022 1.38655 -1.1681 0
M  V30 7156 C 675.07 -1.37529 -3.33344 0
M  V30 7157 O 674.174 -0.55218 -4.08687 0
M  V30 7158 H 673.515 -0.323163 -0.580053 0
M  V30 7159 H 676.045 -1.49355 -1.39837 0
M  V30 7160 H 676.055 -1.3733 -3.84193 0
M  V30 7161 H 674.73 -2.42767 -3.37693 0
M  V30 7162 H 673.307 -0.620947 -3.67694 0
M  V30 7163 N 675.492 1.28418 -0.913599 0
M  V30 7164 C 676.717 1.99643 -0.561899 0
M  V30 7165 C 677.142 1.67819 0.849608 0
M  V30 7166 O 676.5 0.910503 1.56779 0
M  V30 7167 C 676.548 3.52116 -0.777622 0
M  V30 7168 O 675.652 4.12076 0.163457 0
M  V30 7169 H 674.993 0.627229 -0.217898 0
M  V30 7170 H 677.523 1.63575 -1.229 0
M  V30 7171 H 677.533 4.02163 -0.687666 0
M  V30 7172 H 676.208 3.74613 -1.8066 0
M  V30 7173 H 674.785 3.72892 0.0247827 0
M  V30 7174 N 676.97 0.677563 1.42291 0
M  V30 7175 C 678.381 0.277912 1.8462 0
M  V30 7176 C 678.732 -1.18048 1.56714 0
M  V30 7177 O 677.857 -1.90404 1.02836 0
M  V30 7178 C 678.452 0.497619 3.35126 0
M  V30 7179 C 677.011 0.152063 3.76093 0
M  V30 7180 C 676.158 0.78872 2.65847 0
M  V30 7181 H 679.109 0.879527 1.32098 0
M  V30 7182 H 679.13 -0.24939 3.79682 0
M  V30 7183 H 678.642 1.55913 3.55405 0
M  V30 7184 H 676.743 -0.905896 3.6142 0
M  V30 7185 H 676.856 0.594514 4.75397 0
M  V30 7186 H 675.22 0.219813 2.5375 0
M  V30 7187 H 676.003 1.85374 2.88949 0
M  V30 7188 N 678.448 -1.51871 0.421078 0
M  V30 7189 C 679.678 -2.06057 -0.149723 0
M  V30 7190 C 680.086 -1.29002 -1.38402 0
M  V30 7191 O 679.429 -0.338385 -1.80556 0
M  V30 7192 C 679.491 -3.55216 -0.553339 0
M  V30 7193 C 679.155 -4.53408 0.571879 0
M  V30 7194 C 680.152 -4.99586 1.4391 0
M  V30 7195 C 677.837 -4.967 0.747979 0
M  V30 7196 C 679.831 -5.87711 2.46727 0
M  V30 7197 C 677.518 -5.84619 1.77944 0
M  V30 7198 C 678.516 -6.30021 2.63748 0
M  V30 7199 O 678.204 -7.16197 3.65126 0
M  V30 7200 H 677.936 -0.675744 -0.0186102 0
M  V30 7201 H 680.49 -1.96618 0.594166 0
M  V30 7202 H 678.72 -3.62381 -1.34969 0
M  V30 7203 H 680.409 -3.91992 -1.05342 0
M  V30 7204 H 681.175 -4.66846 1.31451 0
M  V30 7205 H 677.054 -4.60913 0.0897357 0
M  V30 7206 H 680.598 -6.2307 3.13734 0
M  V30 7207 H 676.495 -6.16771 1.90429 0
M  V30 7208 H 677.263 -7.34337 3.61512 0
M  V30 7209 N 679.926 -0.151884 -1.56866 0
M  V30 7210 C 681.337 0.368128 -1.83035 0
M  V30 7211 C 681.688 1.64402 -1.07082 0
M  V30 7212 O 680.813 2.14056 -0.317647 0
M  V30 7213 C 681.408 0.674676 -3.32014 0
M  V30 7214 C 679.967 1.13919 -3.58747 0
M  V30 7215 C 679.114 0.164833 -2.7681 0
M  V30 7216 H 682.065 -0.376499 -1.54169 0
M  V30 7217 H 682.086 1.52883 -3.48435 0
M  V30 7218 H 681.598 -0.254113 -3.87267 0
M  V30 7219 H 679.699 2.08375 -3.08886 0
M  V30 7220 H 679.812 1.06179 -4.67186 0
M  V30 7221 H 678.176 0.658419 -2.46043 0
M  V30 7222 H 678.959 -0.757633 -3.34836 0
M  V30 7223 N 681.404 1.57128 0.121893 0
M  V30 7224 C 682.632 1.88883 0.844451 0
M  V30 7225 C 683.047 0.742824 1.73573 0
M  V30 7226 O 682.404 -0.286475 1.80238 0
M  V30 7227 C 682.455 3.20076 1.68029 0
M  V30 7228 O 682.176 4.30264 0.824898 0
M  V30 7229 C 683.677 3.65515 2.50826 0
M  V30 7230 H 680.897 0.62549 0.242907 0
M  V30 7231 H 683.441 2.04219 0.107151 0
M  V30 7232 H 681.596 3.06418 2.37038 0
M  V30 7233 H 682.01 5.05439 1.40113 0
M  V30 7234 H 683.484 4.60081 3.05008 0
M  V30 7235 H 683.961 2.92029 3.28048 0
M  V30 7236 H 684.567 3.81952 1.87064 0
M  V30 7237 N 682.882 -0.391992 1.52647 0
M  V30 7238 C 684.159 -1.15136 1.58123 0
M  V30 7239 C 684.539 -2.07786 0.372597 0
M  V30 7240 O 683.887 -2.19374 -0.639304 0
M  V30 7241 C 684.097 -1.91367 2.91856 0
M  V30 7242 C 685.445 -2.46833 3.45483 0
M  V30 7243 O 686.469 -2.01527 2.9371 0
M  V30 7244 O 685.328 -3.29587 4.3593 0
M  V30 7245 H 682.422 -0.526649 0.637629 0
M  V30 7246 H 684.968 -0.397386 1.64982 0
M  V30 7247 H 683.74 -1.23597 3.71268 0
M  V30 7248 H 683.363 -2.73732 2.88369 0
M  V30 7249 N 684.36 -1.4356 -0.65026 0
M  V30 7250 C 685.606 -1.45549 -1.41221 0
M  V30 7251 C 685.939 -0.0805472 -1.94033 0
M  V30 7252 O 685.214 0.899043 -1.72475 0
M  V30 7253 C 685.497 -2.50028 -2.59148 0
M  V30 7254 C 685.35 -3.96808 -2.1181 0
M  V30 7255 C 686.669 -2.51212 -3.61359 0
M  V30 7256 H 683.788 -0.529967 -0.512156 0
M  V30 7257 H 686.43 -1.75127 -0.736933 0
M  V30 7258 H 684.58 -2.24937 -3.16758 0
M  V30 7259 H 686.252 -4.32966 -1.59178 0
M  V30 7260 H 684.495 -4.09498 -1.43156 0
M  V30 7261 H 685.166 -4.6553 -2.96625 0
M  V30 7262 H 687.642 -2.73583 -3.13515 0
M  V30 7263 H 686.518 -3.26252 -4.41419 0
M  V30 7264 H 686.779 -1.54701 -4.1415 0
M  V30 7265 N 685.838 0.888903 -1.30139 0
M  V30 7266 C 686.801 1.97576 -1.16174 0
M  V30 7267 C 687.801 1.60525 -0.094086 0
M  V30 7268 O 688.991 1.70812 -0.341889 0
M  V30 7269 C 686.123 3.3188 -0.778983 0
M  V30 7270 H 687.316 2.11393 -2.12728 0
M  V30 7271 H 684.869 1.0748 -1.1348 0
M  V30 7272 H 685.604 3.23765 0.186225 0
M  V30 7273 H 685.389 3.60141 -1.55051 0
M  V30 7274 H 686.879 4.11612 -0.704631 0
M  V30 7275 N 687.317 1.12792 1.10072 0
M  V30 7276 C 688.733 0.864745 1.34143 0
M  V30 7277 C 688.933 -0.503201 1.95116 0
M  V30 7278 O 687.989 -1.25111 2.19325 0
M  V30 7279 C 689.302 1.98413 2.25949 0
M  V30 7280 C 690.85 2.01545 2.39476 0
M  V30 7281 C 691.325 3.12727 3.34613 0
M  V30 7282 N 692.816 3.12194 3.42183 0
M  V30 7283 C 693.551 3.94862 4.15779 0
M  V30 7284 N 693.047 4.87528 4.92228 0
M  V30 7285 N 694.84 3.82985 4.11435 0
M  V30 7286 H 686.991 2.00926 0.68866 0
M  V30 7287 H 689.254 0.874564 0.365844 0
M  V30 7288 H 688.96 2.97005 1.88364 0
M  V30 7289 H 688.834 1.89254 3.26287 0
M  V30 7290 H 691.221 1.0357 2.76328 0
M  V30 7291 H 691.302 2.14777 1.3894 0
M  V30 7292 H 690.946 4.10936 2.98486 0
M  V30 7293 H 690.876 2.96732 4.35037 0
M  V30 7294 H 693.367 2.45065 2.87666 0
M  V30 7295 H 693.68 5.47109 5.45794 0
M  V30 7296 H 692.025 4.91539 4.9134 0
M  V30 7297 H 695.216 3.09923 3.50807 0
M  V30 7298 H 695.389 4.47641 4.68531 0
M  V30 7299 N 688.795 -1.27931 0.920396 0
M  V30 7300 C 690.041 -1.94977 0.557832 0
M  V30 7301 C 690.374 -1.72224 -0.897365 0
M  V30 7302 O 689.649 -1.04705 -1.63912 0
M  V30 7303 C 689.932 -3.49289 0.875741 0
M  V30 7304 C 689.785 -3.81416 2.38416 0
M  V30 7305 C 691.104 -4.38486 0.376517 0
M  V30 7306 H 688.223 -0.708164 0.20414 0
M  V30 7307 H 690.865 -1.5118 1.15085 0
M  V30 7308 H 689.015 -3.86724 0.371062 0
M  V30 7309 H 690.687 -3.53813 2.95997 0
M  V30 7310 H 688.93 -3.28225 2.83639 0
M  V30 7311 H 689.601 -4.89198 2.55713 0
M  V30 7312 H 692.077 -4.08161 0.808945 0
M  V30 7313 H 690.953 -5.45296 0.627976 0
M  V30 7314 H 691.214 -4.36143 -0.723293 0
M  V30 7315 N 690.273 -0.685099 -1.4193 0
M  V30 7316 C 691.519 -0.211971 -2.01689 0
M  V30 7317 C 691.852 1.18189 -1.54094 0
M  V30 7318 O 691.127 1.79559 -0.747572 0
M  V30 7319 C 691.41 -0.258019 -3.59174 0
M  V30 7320 C 691.263 -1.68807 -4.16922 0
M  V30 7321 C 692.582 0.388044 -4.38386 0
M  V30 7322 H 689.701 -0.0784987 -0.732808 0
M  V30 7323 H 692.343 -0.871837 -1.68816 0
M  V30 7324 H 690.493 0.303832 -3.8731 0
M  V30 7325 H 692.165 -2.30296 -3.99702 0
M  V30 7326 H 690.408 -2.22553 -3.72361 0
M  V30 7327 H 691.079 -1.6719 -5.26072 0
M  V30 7328 H 693.555 -0.0903432 -4.16002 0
M  V30 7329 H 692.431 0.325232 -5.47936 0
M  V30 7330 H 692.692 1.4672 -4.17044 0
M  V30 7331 N 691.751 1.51645 -0.429126 0
M  V30 7332 C 692.699 2.29119 0.400921 0
M  V30 7333 C 693.693 1.34628 1.02819 0
M  V30 7334 O 694.899 1.52004 0.964098 0
M  V30 7335 H 691.274 0.737273 0.148095 0
M  V30 7336 H 693.245 2.97144 -0.273457 0
M  V30 7337 C 691.994 3.13953 1.49429 0
M  V30 7338 H 691.317 3.86544 1.02097 0
M  V30 7339 H 692.757 3.71232 2.04849 0
M  V30 7340 C 691.216 2.28796 2.47293 0
M  V30 7341 O 691.746 1.94193 3.51642 0
M  V30 7342 N 689.952 1.92177 2.17982 0
M  V30 7343 H 689.499 2.20517 1.33154 0
M  V30 7344 H 689.457 1.35497 2.83704 0
M  V30 7345 N 693.229 0.160201 1.56784 0
M  V30 7346 C 694.192 -0.760405 2.16219 0
M  V30 7347 C 695.192 -1.16595 1.10735 0
M  V30 7348 O 696.382 -1.08472 1.36306 0
M  V30 7349 C 693.514 -2.03358 2.73603 0
M  V30 7350 H 694.707 -0.243173 2.98912 0
M  V30 7351 H 692.26 -0.0893139 1.56045 0
M  V30 7352 H 692.995 -2.59416 1.94612 0
M  V30 7353 H 692.78 -1.75186 3.50788 0
M  V30 7354 H 694.27 -2.69081 3.19351 0
M  V30 7355 N 694.707 -1.5719 -0.113559 0
M  V30 7356 C 696.118 -1.74259 -0.670116 0
M  V30 7357 C 696.469 -0.779694 -1.80042 0
M  V30 7358 O 695.594 0.0461353 -2.16351 0
M  V30 7359 C 696.189 -3.15981 -1.22236 0
M  V30 7360 C 694.748 -3.34537 -1.72516 0
M  V30 7361 C 693.895 -2.70116 -0.627098 0
M  V30 7362 H 696.846 -1.58301 0.112396 0
M  V30 7363 H 696.867 -3.17832 -2.09197 0
M  V30 7364 H 696.379 -3.86038 -0.39949 0
M  V30 7365 H 694.48 -2.6953 -2.57263 0
M  V30 7366 H 694.593 -4.42737 -1.83086 0
M  V30 7367 H 692.957 -2.31501 -1.06204 0
M  V30 7368 H 693.74 -3.42802 0.184889 0
M  V30 7369 N 696.185 0.383891 -1.52853 0
M  V30 7370 C 697.434 1.12563 -1.67369 0
M  V30 7371 C 697.747 1.90982 -0.422533 0
M  V30 7372 O 698.953 2.6778 -0.447914 0
M  V30 7373 C 697.409 2.05011 -2.95801 0
M  V30 7374 C 697.017 1.31991 -4.28115 0
M  V30 7375 C 698.761 2.79289 -3.19684 0
M  V30 7376 C 696.668 2.23235 -5.4765 0
M  V30 7377 H 695.598 0.42391 -0.623552 0
M  V30 7378 H 698.249 0.388016 -1.79351 0
M  V30 7379 H 696.631 2.82429 -2.77578 0
M  V30 7380 H 697.805 0.597633 -4.56908 0
M  V30 7381 H 696.12 0.696517 -4.10533 0
M  V30 7382 H 698.717 3.47749 -4.06171 0
M  V30 7383 H 699.06 3.43649 -2.3497 0
M  V30 7384 H 699.593 2.08962 -3.38496 0
M  V30 7385 H 696.332 1.63482 -6.34786 0
M  V30 7386 H 695.852 2.93364 -5.23161 0
M  V30 7387 H 697.531 2.83205 -5.81725 0
M  V30 7388 N 697.663 1.43903 0.642637 0
M  V30 7389 C 698.91 1.46079 1.40239 0
M  V30 7390 C 699.238 0.0890335 1.94296 0
M  V30 7391 O 698.493 -0.907533 1.73385 0
M  V30 7392 C 698.792 2.45907 2.59354 0
M  V30 7393 C 698.458 3.91522 2.23654 0
M  V30 7394 C 697.12 4.31179 2.1363 0
M  V30 7395 C 699.472 4.83242 1.95261 0
M  V30 7396 C 696.8 5.60495 1.73384 0
M  V30 7397 C 699.152 6.12933 1.56511 0
M  V30 7398 C 697.816 6.51556 1.4502 0
M  V30 7399 H 697.086 0.534542 0.513172 0
M  V30 7400 H 699.733 1.77047 0.72984 0
M  V30 7401 H 698.038 2.08381 3.3179 0
M  V30 7402 H 699.735 2.44842 3.17574 0
M  V30 7403 H 696.325 3.60142 2.32369 0
M  V30 7404 H 700.509 4.53367 2.0192 0
M  V30 7405 H 695.765 5.89249 1.63082 0
M  V30 7406 H 699.939 6.83469 1.33576 0
M  V30 7407 H 697.566 7.51663 1.13606 0
M  V30 7408 N 699.141 -0.881989 1.30609 0
M  V30 7409 C 700.091 -1.97539 1.13852 0
M  V30 7410 C 701.075 -1.60813 0.0528428 0
M  V30 7411 O 702.267 -1.74827 0.276484 0
M  V30 7412 C 699.396 -3.32977 0.835519 0
M  V30 7413 C 698.482 -3.76008 1.96159 0
M  V30 7414 N 698.873 -3.91109 3.20729 0
M  V30 7415 C 697.171 -4.05427 1.85863 0
M  V30 7416 C 697.872 -4.27661 3.94311 0
M  V30 7417 N 696.848 -4.37686 3.22385 0
M  V30 7418 H 700.65 -2.07309 2.08327 0
M  V30 7419 H 698.164 -1.072 1.21992 0
M  V30 7420 H 700.161 -4.11041 0.696477 0
M  V30 7421 H 698.821 -3.24542 -0.101135 0
M  V30 7422 H 699.832 -3.7616 3.55984 0
M  V30 7423 H 696.509 -4.05449 0.995847 0
M  V30 7424 H 697.899 -4.47042 5.01601 0
M  V30 7425 N 700.619 -1.13374 -1.09472 0
M  V30 7426 C 701.865 -0.896516 -1.81908 0
M  V30 7427 C 702.198 0.575933 -1.85463 0
M  V30 7428 O 701.473 1.42618 -1.32251 0
M  V30 7429 C 701.756 -1.48445 -3.28079 0
M  V30 7430 C 701.609 -3.02598 -3.32798 0
M  V30 7431 C 702.928 -1.15226 -4.24748 0
M  V30 7432 H 700.047 -0.327127 -0.660422 0
M  V30 7433 H 702.689 -1.40195 -1.2824 0
M  V30 7434 H 700.839 -1.0546 -3.73912 0
M  V30 7435 H 702.511 -3.54335 -2.95372 0
M  V30 7436 H 700.754 -3.37613 -2.72397 0
M  V30 7437 H 701.425 -3.38835 -4.3577 0
M  V30 7438 H 703.901 -1.52369 -3.87199 0
M  V30 7439 H 702.777 -1.59012 -5.25363 0
M  V30 7440 H 703.038 -0.0658891 -4.42051 0
M  V30 7441 N 702.098 1.27442 -0.927168 0
M  V30 7442 C 703.046 2.28844 -0.416333 0
M  V30 7443 C 704.04 1.61882 0.499057 0
M  V30 7444 O 705.246 1.75969 0.378817 0
M  V30 7445 H 701.621 0.742989 -0.116065 0
M  V30 7446 H 703.592 2.69344 -1.28438 0
M  V30 7447 C 702.341 3.4626 0.316107 0
M  V30 7448 H 701.664 3.97999 -0.379082 0
M  V30 7449 H 703.104 4.19173 0.637975 0
M  V30 7450 C 701.563 3.00211 1.5289 0
M  V30 7451 O 702.093 3.03837 2.62766 0
M  V30 7452 N 700.299 2.55713 1.38054 0
M  V30 7453 H 699.846 2.52962 0.4866 0
M  V30 7454 H 699.804 2.25264 2.19325 0
M  V30 7455 N 703.576 0.692616 1.41565 0
M  V30 7456 C 704.801 0.229776 2.06123 0
M  V30 7457 C 705.226 -1.11119 1.5177 0
M  V30 7458 O 704.584 -1.69498 0.643444 0
M  V30 7459 C 704.632 0.19469 3.60074 0
M  V30 7460 O 703.736 -0.831366 4.03933 0
M  V30 7461 H 703.077 0.113002 0.654314 0
M  V30 7462 H 705.607 0.946645 1.81383 0
M  V30 7463 H 705.617 0.0245487 4.07993 0
M  V30 7464 H 704.292 1.17339 3.99004 0
M  V30 7465 H 702.869 -0.630819 3.67526 0
M  V30 7466 N 705.054 -1.51416 0.437162 0
M  V30 7467 C 706.331 -1.94682 -0.189292 0
M  V30 7468 C 706.711 -1.37581 -1.60108 0
M  V30 7469 O 706.059 -0.562815 -2.2146 0
M  V30 7470 C 706.269 -3.48599 -0.167201 0
M  V30 7471 C 707.617 -4.2296 -0.372856 0
M  V30 7472 O 708.641 -3.55354 -0.245323 0
M  V30 7473 O 707.5 -5.42895 -0.626693 0
M  V30 7474 H 704.594 -0.816708 -0.130063 0
M  V30 7475 H 707.14 -1.62316 0.495128 0
M  V30 7476 H 705.912 -3.82616 0.81981 0
M  V30 7477 H 705.535 -3.87406 -0.894537 0
M  V30 7478 N 706.532 -0.168513 -1.56696 0
M  V30 7479 C 707.809 0.523367 -1.88468 0
M  V30 7480 C 708.189 1.81503 -1.07796 0
M  V30 7481 O 707.537 2.27859 -0.171045 0
M  V30 7482 C 707.747 0.767991 -3.40445 0
M  V30 7483 C 709.095 1.09924 -4.10124 0
M  V30 7484 O 710.119 0.856625 -3.45746 0
M  V30 7485 O 708.978 1.55681 -5.23856 0
M  V30 7486 H 706.072 0.269447 -0.781874 0
M  V30 7487 H 708.618 -0.206739 -1.68436 0
M  V30 7488 H 707.39 -0.145254 -3.9103 0
M  V30 7489 H 707.013 1.55151 -3.66079 0
M  V30 7490 N 708.01 1.57248 0.105221 0
M  V30 7491 C 709.421 1.74612 0.660865 0
M  V30 7492 C 709.772 0.789231 1.79626 0
M  V30 7493 O 708.897 -0.0346611 2.16372 0
M  V30 7494 C 709.492 3.16624 1.20559 0
M  V30 7495 C 708.051 3.35447 1.7074 0
M  V30 7496 C 707.198 2.70445 0.612764 0
M  V30 7497 H 710.149 1.5824 -0.12079 0
M  V30 7498 H 710.17 3.18937 2.07508 0
M  V30 7499 H 709.682 3.86245 0.379012 0
M  V30 7500 H 707.783 2.7089 2.5583 0
M  V30 7501 H 707.896 4.43702 1.80736 0
M  V30 7502 H 706.26 2.32061 1.04975 0
M  V30 7503 H 707.043 3.42699 -0.203066 0
M  V30 7504 N 709.488 -0.375779 1.53054 0
M  V30 7505 C 710.398 -1.48381 1.81715 0
M  V30 7506 C 711.414 -1.59087 0.704795 0
M  V30 7507 O 712.59 -1.75174 0.993785 0
M  V30 7508 C 709.655 -2.83767 1.99192 0
M  V30 7509 C 708.716 -2.82673 3.23102 0
M  V30 7510 C 707.949 -4.11601 3.39736 0
M  V30 7511 O 708.172 -5.07243 2.60885 0
M  V30 7512 O 707.106 -4.18034 4.33049 0
M  V30 7513 H 710.932 -1.27089 2.7583 0
M  V30 7514 H 708.517 -0.564902 1.38308 0
M  V30 7515 H 710.399 -3.64004 2.12318 0
M  V30 7516 H 709.074 -3.05057 1.08267 0
M  V30 7517 H 707.981 -2.0117 3.15407 0
M  V30 7518 H 709.314 -2.66335 4.13916 0
M  V30 7519 N 710.966 -1.44241 -0.634997 0
M  V30 7520 C 711.929 -1.50457 -1.72903 0
M  V30 7521 C 712.929 -0.387058 -1.56072 0
M  V30 7522 O 714.119 -0.649531 -1.61638 0
M  V30 7523 C 711.251 -1.37477 -3.1195 0
M  V30 7524 H 712.444 -2.47907 -1.68767 0
M  V30 7525 H 709.997 -1.31276 -0.84831 0
M  V30 7526 H 710.732 -0.41106 -3.21684 0
M  V30 7527 H 710.517 -2.18506 -3.25573 0
M  V30 7528 H 712.007 -1.44799 -3.91692 0
M  V30 7529 N 712.444 0.87505 -1.31075 0
M  V30 7530 C 713.69 1.63009 -1.20647 0
M  V30 7531 C 714.023 1.9276 0.236045 0
M  V30 7532 O 713.298 1.55559 1.16754 0
M  V30 7533 C 713.581 2.96357 -2.0456 0
M  V30 7534 C 713.434 2.73516 -3.57084 0
M  V30 7535 C 714.753 3.974 -1.89107 0
M  V30 7536 H 711.872 0.591518 -0.439631 0
M  V30 7537 H 714.514 1.0119 -1.60812 0
M  V30 7538 H 712.664 3.49119 -1.70435 0
M  V30 7539 H 714.336 2.27465 -4.01319 0
M  V30 7540 H 712.579 2.0784 -3.80769 0
M  V30 7541 H 713.25 3.68377 -4.11099 0
M  V30 7542 H 715.726 3.5383 -2.18961 0
M  V30 7543 H 714.602 4.88596 -2.5013 0
M  V30 7544 H 714.863 4.33794 -0.85296 0
M  V30 7545 N 713.922 1.13953 1.08869 0
M  V30 7546 C 714.855 0.765765 2.14968 0
M  V30 7547 C 715.833 -0.250689 1.60656 0
M  V30 7548 O 717.017 -0.140852 1.87973 0
M  V30 7549 C 714.144 0.136146 3.38426 0
M  V30 7550 C 713.19 1.12201 4.11477 0
M  V30 7551 S 714.023 2.65711 4.64928 0
M  V30 7552 C 715.179 2.04125 5.91679 0
M  V30 7553 H 715.412 1.66444 2.46341 0
M  V30 7554 H 712.945 0.960263 1.20906 0
M  V30 7555 H 714.903 -0.220712 4.09906 0
M  V30 7556 H 713.564 -0.739887 3.05261 0
M  V30 7557 H 712.757 0.629398 5.00055 0
M  V30 7558 H 712.359 1.42262 3.45886 0
M  V30 7559 H 714.651 1.39381 6.63008 0
M  V30 7560 H 715.594 2.90808 6.45629 0
M  V30 7561 H 716.002 1.4905 5.44467 0
M  V30 7562 N 715.4 -1.26948 0.933913 0
M  V30 7563 C 716.63 -1.97898 0.593279 0
M  V30 7564 C 717.038 -1.69806 -0.834412 0
M  V30 7565 O 716.381 -0.958704 -1.56699 0
M  V30 7566 C 716.443 -3.51657 0.746825 0
M  V30 7567 C 716.107 -4.03384 2.14779 0
M  V30 7568 C 717.104 -4.15682 3.12257 0
M  V30 7569 C 714.789 -4.37577 2.46641 0
M  V30 7570 C 716.783 -4.61455 4.39702 0
M  V30 7571 C 714.47 -4.8304 3.7432 0
M  V30 7572 C 715.468 -4.94939 4.70664 0
M  V30 7573 O 715.156 -5.39403 5.96071 0
M  V30 7574 H 714.888 -0.63814 0.223055 0
M  V30 7575 H 717.442 -1.62608 1.2549 0
M  V30 7576 H 715.672 -3.8669 0.0280889 0
M  V30 7577 H 717.361 -4.03821 0.410328 0
M  V30 7578 H 718.127 -3.89519 2.88964 0
M  V30 7579 H 714.006 -4.27554 1.72391 0
M  V30 7580 H 717.55 -4.70658 5.14905 0
M  V30 7581 H 713.447 -5.08646 3.97429 0
M  V30 7582 H 714.215 -5.57641 5.99148 0
M  V30 7583 N 716.879 -0.700114 -1.41195 0
M  V30 7584 C 718.125 -0.233351 -2.01453 0
M  V30 7585 C 718.458 1.16548 -1.55339 0
M  V30 7586 O 717.733 1.78756 -0.766575 0
M  V30 7587 C 718.016 -0.2961 -3.58881 0
M  V30 7588 C 717.869 -1.7322 -4.15108 0
M  V30 7589 C 719.188 0.341525 -4.38773 0
M  V30 7590 H 716.307 -0.0862667 -0.731934 0
M  V30 7591 H 718.949 -0.889693 -1.67882 0
M  V30 7592 H 717.099 0.262736 -3.87611 0
M  V30 7593 H 718.771 -2.34523 -3.97236 0
M  V30 7594 H 717.014 -2.2649 -3.69979 0
M  V30 7595 H 717.685 -1.7276 -5.24269 0
M  V30 7596 H 720.161 -0.134461 -4.15883 0
M  V30 7597 H 719.037 0.267098 -5.4825 0
M  V30 7598 H 719.298 1.42289 -4.18577 0
M  V30 7599 N 718.357 1.51182 -0.445186 0
M  V30 7600 C 719.597 2.04061 0.117717 0
M  V30 7601 C 719.961 1.32158 1.39278 0
M  V30 7602 O 721.162 1.75452 2.03642 0
M  V30 7603 C 719.433 3.55933 0.323445 0
M  V30 7604 S 720.992 4.30516 0.848627 0
M  V30 7605 H 717.81 0.710442 0.028165 0
M  V30 7606 H 720.412 1.85858 -0.606391 0
M  V30 7607 H 719.116 4.0583 -0.610764 0
M  V30 7608 H 718.647 3.78444 1.07441 0
M  V30 7609 H 720.662 4.48382 2.12528 0
M  V30 7610 N 719.835 0.176821 1.56605 0
M  V30 7611 C 720.782 -0.751312 2.18229 0
M  V30 7612 C 721.752 -1.22297 1.12395 0
M  V30 7613 O 722.937 -1.29015 1.40569 0
M  V30 7614 C 720.077 -1.97291 2.83143 0
M  V30 7615 C 719.19 -1.54431 4.03454 0
M  V30 7616 C 718.325 -2.72 4.56278 0
M  V30 7617 C 717.364 -2.25657 5.68986 0
M  V30 7618 N 716.501 -3.36338 6.16296 0
M  V30 7619 H 721.341 -0.219033 2.97194 0
M  V30 7620 H 718.878 -0.0963803 1.46784 0
M  V30 7621 H 720.836 -2.68949 3.1894 0
M  V30 7622 H 719.466 -2.4788 2.06773 0
M  V30 7623 H 718.518 -0.724273 3.73441 0
M  V30 7624 H 719.83 -1.16417 4.85024 0
M  V30 7625 H 718.984 -3.51806 4.94285 0
M  V30 7626 H 717.723 -3.13277 3.73777 0
M  V30 7627 H 716.728 -1.44299 5.30526 0
M  V30 7628 H 717.953 -1.85432 6.53293 0
M  V30 7629 H 715.899 -3.7718 5.36723 0
M  V30 7630 H 715.816 -3.02435 6.9287 0
M  V30 7631 H 717.084 -4.16413 6.58954 0
M  V30 7632 N 721.313 -1.57302 -0.09688 0
M  V30 7633 C 722.559 -1.86273 -0.801885 0
M  V30 7634 C 722.892 -0.765694 -1.78468 0
M  V30 7635 O 722.167 0.226495 -1.93177 0
M  V30 7636 C 722.45 -3.25876 -1.53221 0
M  V30 7637 C 722.303 -4.46205 -0.567529 0
M  V30 7638 C 723.622 -3.63352 -2.48321 0
M  V30 7639 H 720.741 -0.67752 -0.29006 0
M  V30 7640 H 723.383 -1.89887 -0.0655577 0
M  V30 7641 H 721.533 -3.22926 -2.15988 0
M  V30 7642 H 723.205 -4.6127 0.0529982 0
M  V30 7643 H 721.448 -4.33636 0.119233 0
M  V30 7644 H 722.119 -5.40608 -1.11564 0
M  V30 7645 H 724.595 -3.67234 -1.95648 0
M  V30 7646 H 723.471 -4.61968 -2.9644 0
M  V30 7647 H 723.732 -2.91941 -3.31998 0
M  V30 7648 N 722.791 0.367657 -1.53252 0
M  V30 7649 C 723.754 1.43308 -1.78873 0
M  V30 7650 C 724.754 1.46671 -0.659115 0
M  V30 7651 O 725.944 1.47468 -0.927306 0
M  V30 7652 C 723.076 2.82442 -1.90892 0
M  V30 7653 H 724.269 1.21864 -2.74024 0
M  V30 7654 H 721.822 0.600668 -1.44297 0
M  V30 7655 H 722.557 3.09202 -0.978 0
M  V30 7656 H 722.342 2.81399 -2.73051 0
M  V30 7657 H 723.832 3.59601 -2.12314 0
M  V30 7658 N 724.269 1.44576 0.627338 0
M  V30 7659 C 725.232 1.51372 1.72102 0
M  V30 7660 C 726.232 0.395329 1.55865 0
M  V30 7661 O 727.422 0.658094 1.61291 0
M  V30 7662 C 724.554 1.39129 3.11217 0
M  V30 7663 H 725.747 2.48798 1.6745 0
M  V30 7664 H 723.3 1.31724 0.841336 0
M  V30 7665 H 724.035 0.428114 3.21462 0
M  V30 7666 H 723.82 2.20229 3.24409 0
M  V30 7667 H 725.31 1.46874 3.90919 0
M  V30 7668 N 725.747 -0.868086 1.31537 0
M  V30 7669 C 726.657 -2.00801 1.21311 0
M  V30 7670 C 727.673 -1.73518 0.129431 0
M  V30 7671 O 728.849 -1.98378 0.347588 0
M  V30 7672 C 725.914 -3.3419 0.922935 0
M  V30 7673 C 724.975 -3.74783 2.0937 0
M  V30 7674 C 724.208 -5.01807 1.81728 0
M  V30 7675 O 724.431 -5.65404 0.753313 0
M  V30 7676 O 723.365 -5.39213 2.67457 0
M  V30 7677 H 727.191 -2.12361 2.17109 0
M  V30 7678 H 724.776 -0.996684 1.11295 0
M  V30 7679 H 726.658 -4.14174 0.777033 0
M  V30 7680 H 725.333 -3.237 -0.00500301 0
M  V30 7681 H 724.24 -2.95432 2.29501 0
M  V30 7682 H 725.573 -3.89902 3.00396 0
M  V30 7683 N 727.225 -1.14528 -1.08264 0
M  V30 7684 C 728.471 -0.925721 -1.81113 0
M  V30 7685 C 728.826 0.54185 -1.84612 0
M  V30 7686 O 728.119 1.39628 -1.31205 0
M  V30 7687 C 728.313 -1.46226 -3.26117 0
M  V30 7688 C 728.142 -2.98047 -3.36746 0
M  V30 7689 C 726.912 -3.66508 -3.4785 0
M  V30 7690 C 729.11 -3.95903 -3.28277 0
M  V30 7691 N 727.092 -5.06227 -3.47285 0
M  V30 7692 C 728.463 -5.21883 -3.34721 0
M  V30 7693 C 730.518 -3.88002 -3.12024 0
M  V30 7694 C 729.221 -6.40886 -3.26585 0
M  V30 7695 C 731.247 -5.06553 -3.05219 0
M  V30 7696 C 730.609 -6.31403 -3.12266 0
M  V30 7697 H 726.708 -0.392294 -0.676483 0
M  V30 7698 H 729.292 -1.45567 -1.293 0
M  V30 7699 H 727.463 -0.959076 -3.76373 0
M  V30 7700 H 729.195 -1.18247 -3.8704 0
M  V30 7701 H 725.95 -3.17067 -3.51804 0
M  V30 7702 H 726.374 -5.79172 -3.50555 0
M  V30 7703 H 731.016 -2.9235 -3.05436 0
M  V30 7704 H 728.734 -7.36781 -3.31934 0
M  V30 7705 H 732.32 -5.02191 -2.93761 0
M  V30 7706 H 731.2 -7.21596 -3.07032 0
M  V30 7707 N 728.703 1.26451 -0.940633 0
M  V30 7708 C 730.119 1.4608 -0.642859 0
M  V30 7709 C 730.319 1.84765 0.803998 0
M  V30 7710 O 729.375 1.96902 1.58069 0
M  V30 7711 C 730.688 2.54359 -1.60381 0
M  V30 7712 C 732.236 2.6821 -1.61345 0
M  V30 7713 C 732.711 3.79659 -2.56169 0
M  V30 7714 N 734.202 3.87051 -2.54452 0
M  V30 7715 C 734.937 4.72739 -3.24507 0
M  V30 7716 N 734.433 5.6282 -4.03987 0
M  V30 7717 N 736.226 4.66581 -3.13462 0
M  V30 7718 H 728.377 0.996289 -1.87584 0
M  V30 7719 H 730.64 0.498921 -0.80609 0
M  V30 7720 H 730.346 2.32758 -2.6366 0
M  V30 7721 H 730.22 3.52005 -1.35545 0
M  V30 7722 H 732.607 2.89184 -0.587913 0
M  V30 7723 H 732.688 1.7101 -1.90235 0
M  V30 7724 H 732.332 3.59438 -3.58841 0
M  V30 7725 H 732.262 4.76315 -2.2457 0
M  V30 7726 H 734.753 3.22649 -1.96739 0
M  V30 7727 H 735.066 6.25095 -4.54396 0
M  V30 7728 H 733.411 5.62574 -4.08088 0
M  V30 7729 H 736.602 3.9521 -2.50852 0
M  V30 7730 H 736.775 5.33141 -3.68327 0
M  V30 7731 N 730.181 0.707592 1.40822 0
M  V30 7732 C 731.406 0.251626 2.05868 0
M  V30 7733 C 731.831 -1.09503 1.5294 0
M  V30 7734 O 731.189 -1.68806 0.661385 0
M  V30 7735 C 731.237 0.23287 3.59847 0
M  V30 7736 O 730.341 -0.788477 4.04792 0
M  V30 7737 H 729.682 0.119936 0.653078 0
M  V30 7738 H 732.212 0.96583 1.80369 0
M  V30 7739 H 732.222 0.0678204 4.07944 0
M  V30 7740 H 730.897 1.21565 3.97737 0
M  V30 7741 H 729.474 -0.591802 3.68174 0
M  V30 7742 N 731.66 -1.50943 0.453197 0
M  V30 7743 C 732.888 -2.06628 -0.106135 0
M  V30 7744 C 733.303 -1.31901 -1.35084 0
M  V30 7745 O 732.66 -0.383074 -1.78434 0
M  V30 7746 C 732.711 -3.5914 -0.412368 0
M  V30 7747 O 732.432 -4.31047 0.782948 0
M  V30 7748 C 733.933 -4.31391 -1.02064 0
M  V30 7749 H 731.153 -0.670999 -0.000885896 0
M  V30 7750 H 733.697 -1.94331 0.63684 0
M  V30 7751 H 731.852 -3.71299 -1.10526 0
M  V30 7752 H 732.266 -5.21948 0.516736 0
M  V30 7753 H 733.74 -5.39135 -1.1848 0
M  V30 7754 H 734.217 -3.90714 -2.00598 0
M  V30 7755 H 734.823 -4.23716 -0.366664 0
M  V30 7756 N 733.138 -0.185124 -1.56509 0
M  V30 7757 C 734.385 0.456258 -1.97293 0
M  V30 7758 C 734.713 1.62314 -1.07165 0
M  V30 7759 O 733.968 1.95398 -0.108621 0
M  V30 7760 C 734.267 0.967977 -3.44042 0
M  V30 7761 C 733.933 -0.084476 -4.50821 0
M  V30 7762 C 732.595 -0.373689 -4.79747 0
M  V30 7763 C 734.947 -0.79812 -5.15053 0
M  V30 7764 C 732.275 -1.3817 -5.70198 0
M  V30 7765 C 734.627 -1.79521 -6.06593 0
M  V30 7766 C 733.291 -2.09172 -6.3388 0
M  V30 7767 H 732.561 0.166957 -0.721946 0
M  V30 7768 H 735.208 -0.279992 -1.89442 0
M  V30 7769 H 733.513 1.78231 -3.48914 0
M  V30 7770 H 735.21 1.47347 -3.72948 0
M  V30 7771 H 731.8 0.15111 -4.28334 0
M  V30 7772 H 735.984 -0.587903 -4.92806 0
M  V30 7773 H 731.24 -1.61745 -5.89617 0
M  V30 7774 H 735.414 -2.35347 -6.55427 0
M  V30 7775 H 733.041 -2.87427 -7.03768 0
M  V30 7776 N 734.616 1.57351 0.0885366 0
M  V30 7777 C 735.566 1.98963 1.11346 0
M  V30 7778 C 736.55 0.869065 1.35411 0
M  V30 7779 O 737.742 1.13292 1.35992 0
M  V30 7780 C 734.871 2.4231 2.43189 0
M  V30 7781 C 733.957 3.61065 2.22469 0
M  V30 7782 N 734.348 4.75789 1.71635 0
M  V30 7783 C 732.646 3.6729 2.5301 0
M  V30 7784 C 733.347 5.57708 1.65339 0
M  V30 7785 N 732.323 5.01067 2.1079 0
M  V30 7786 H 736.125 2.85109 0.713465 0
M  V30 7787 H 733.639 1.59682 0.295868 0
M  V30 7788 H 735.636 2.70352 3.17357 0
M  V30 7789 H 734.296 1.57544 2.83919 0
M  V30 7790 H 735.307 4.98411 1.40738 0
M  V30 7791 H 731.984 2.932 2.9722 0
M  V30 7792 H 733.374 6.59782 1.27031 0
M  V30 7793 N 736.094 -0.359525 1.53444 0
M  V30 7794 C 737.041 -1.44073 1.8031 0
M  V30 7795 C 738.011 -1.52946 0.647811 0
M  V30 7796 O 739.196 -1.68739 0.890614 0
M  V30 7797 C 736.336 -2.80941 2.00416 0
M  V30 7798 C 735.449 -2.80986 3.28132 0
M  V30 7799 C 734.584 -4.09468 3.38393 0
M  V30 7800 C 733.623 -4.03679 4.60119 0
M  V30 7801 N 732.76 -5.23821 4.675 0
M  V30 7802 H 737.6 -1.20464 2.72566 0
M  V30 7803 H 735.137 -0.583859 1.35017 0
M  V30 7804 H 737.095 -3.60459 2.1006 0
M  V30 7805 H 735.725 -3.02936 1.11489 0
M  V30 7806 H 734.777 -1.93666 3.27411 0
M  V30 7807 H 736.089 -2.72583 4.17732 0
M  V30 7808 H 735.243 -4.97404 3.47382 0
M  V30 7809 H 733.982 -4.20632 2.4682 0
M  V30 7810 H 732.987 -3.14129 4.51224 0
M  V30 7811 H 734.212 -3.94112 5.5304 0
M  V30 7812 H 732.158 -5.35559 3.7883 0
M  V30 7813 H 732.075 -5.17611 5.51013 0
M  V30 7814 H 733.343 -6.13572 4.8078 0
M  V30 7815 N 737.572 -1.44907 -0.619662 0
M  V30 7816 C 738.849 -1.38766 -1.37852 0
M  V30 7817 C 739.229 -0.0521393 -2.11036 0
M  V30 7818 O 738.577 0.965613 -2.07095 0
M  V30 7819 C 738.787 -2.59344 -2.33541 0
M  V30 7820 C 740.135 -3.03909 -2.96521 0
M  V30 7821 O 741.159 -2.59631 -2.43865 0
M  V30 7822 O 740.018 -3.80713 -3.92071 0
M  V30 7823 H 737.112 -0.550083 -0.617525 0
M  V30 7824 H 739.658 -1.57015 -0.643759 0
M  V30 7825 H 738.43 -3.48142 -1.78642 0
M  V30 7826 H 738.053 -2.43367 -3.14417 0
M  V30 7827 N 739.05 0.861098 -1.31996 0
M  V30 7828 C 740.296 1.61721 -1.22369 0
M  V30 7829 C 740.629 1.93 0.215587 0
M  V30 7830 O 739.904 1.56789 1.15098 0
M  V30 7831 C 740.187 2.9417 -2.07691 0
M  V30 7832 C 740.04 2.69714 -3.59965 0
M  V30 7833 C 741.359 3.95372 -1.93312 0
M  V30 7834 H 738.478 0.586822 -0.44588 0
M  V30 7835 H 741.12 0.994788 -1.61876 0
M  V30 7836 H 739.27 3.47292 -1.74128 0
M  V30 7837 H 740.942 2.23196 -4.03709 0
M  V30 7838 H 739.185 2.03789 -3.82952 0
M  V30 7839 H 739.856 3.63996 -4.14983 0
M  V30 7840 H 742.332 3.51487 -2.22701 0
M  V30 7841 H 741.208 4.85916 -2.55298 0
M  V30 7842 H 741.469 4.32865 -0.898922 0
M  V30 7843 N 740.528 1.15101 1.07655 0
M  V30 7844 C 741.774 0.925343 1.80458 0
M  V30 7845 C 742.107 -0.546354 1.86356 0
M  V30 7846 O 741.382 -1.40496 1.34503 0
M  V30 7847 C 741.665 1.53646 3.25676 0
M  V30 7848 C 741.518 3.07854 3.27942 0
M  V30 7849 C 742.837 1.21968 4.22861 0
M  V30 7850 H 739.956 0.337592 0.655134 0
M  V30 7851 H 742.598 1.42217 1.25993 0
M  V30 7852 H 740.748 1.11395 3.72187 0
M  V30 7853 H 742.42 3.58989 2.89697 0
M  V30 7854 H 740.663 3.41904 2.66991 0
M  V30 7855 H 741.334 3.45725 4.30324 0
M  V30 7856 H 743.81 1.5851 3.84726 0
M  V30 7857 H 742.686 1.67349 5.22767 0
M  V30 7858 H 742.947 0.136207 4.4189 0
M  V30 7859 N 742.006 -1.2595 0.947325 0
M  V30 7860 C 743.252 -1.9375 0.599064 0
M  V30 7861 C 743.585 -1.74088 -0.860632 0
M  V30 7862 O 742.86 -1.08158 -1.61654 0
M  V30 7863 C 743.143 -3.47353 0.949634 0
M  V30 7864 C 742.996 -3.76273 2.46452 0
M  V30 7865 C 744.315 -4.37589 0.469442 0
M  V30 7866 H 741.434 -0.703674 0.219115 0
M  V30 7867 H 744.076 -1.48705 1.18266 0
M  V30 7868 H 742.226 -3.8585 0.453008 0
M  V30 7869 H 743.898 -3.47455 3.03435 0
M  V30 7870 H 742.141 -3.22135 2.90537 0
M  V30 7871 H 742.812 -4.83664 2.66032 0
M  V30 7872 H 745.288 -4.06353 0.89534 0
M  V30 7873 H 744.164 -5.43841 0.7435 0
M  V30 7874 H 744.425 -4.37579 -0.630618 0
M  V30 7875 N 743.484 -0.715051 -1.40445 0
M  V30 7876 C 744.761 -0.181503 -1.94756 0
M  V30 7877 C 745.141 1.31268 -1.65324 0
M  V30 7878 O 744.489 2.0686 -0.970631 0
M  V30 7879 C 744.699 -0.493663 -3.45491 0
M  V30 7880 C 746.047 -0.432032 -4.22396 0
M  V30 7881 O 747.071 -0.429692 -3.53599 0
M  V30 7882 O 745.93 -0.409091 -5.44967 0
M  V30 7883 H 743.024 -0.0263989 -0.826579 0
M  V30 7884 H 745.57 -0.792546 -1.50056 0
M  V30 7885 H 744.342 -1.52713 -3.6027 0
M  V30 7886 H 743.965 0.14737 -3.97327 0
M  V30 7887 N 744.962 1.50701 -0.461195 0
M  V30 7888 C 745.892 2.31182 0.328184 0
M  V30 7889 C 746.873 1.37644 0.999408 0
M  V30 7890 O 748.058 1.66565 0.99848 0
M  V30 7891 C 745.188 3.17113 1.41621 0
M  V30 7892 C 744.142 4.19124 0.867148 0
M  V30 7893 C 743.468 4.93728 2.05272 0
M  V30 7894 C 744.768 5.22174 -0.114808 0
M  V30 7895 H 746.462 2.97423 -0.343501 0
M  V30 7896 H 744.008 1.43033 -0.166641 0
M  V30 7897 H 745.961 3.72208 1.97584 0
M  V30 7898 H 744.685 2.48739 2.11652 0
M  V30 7899 H 743.344 3.65116 0.329557 0
M  V30 7900 H 742.992 4.21835 2.73978 0
M  V30 7901 H 742.692 5.62724 1.69161 0
M  V30 7902 H 744.216 5.51654 2.61744 0
M  V30 7903 H 745.63 5.72198 0.355316 0
M  V30 7904 H 744.027 5.98833 -0.389689 0
M  V30 7905 H 745.097 4.7353 -1.04391 0
M  V30 7906 N 746.441 0.193421 1.56409 0
M  V30 7907 C 747.687 -0.446449 1.97825 0
M  V30 7908 C 748.02 -1.61386 1.08019 0
M  V30 7909 O 747.295 -1.94053 0.131839 0
M  V30 7910 C 747.578 -0.908199 3.48459 0
M  V30 7911 C 747.431 0.260914 4.49043 0
M  V30 7912 C 748.75 -1.77428 4.0275 0
M  V30 7913 H 745.869 -0.160807 0.719243 0
M  V30 7914 H 748.511 0.284006 1.87865 0
M  V30 7915 H 746.661 -1.53062 3.57077 0
M  V30 7916 H 748.333 0.898548 4.52464 0
M  V30 7917 H 746.576 0.912949 4.24085 0
M  V30 7918 H 747.247 -0.104657 5.51901 0
M  V30 7919 H 749.723 -1.24936 3.96901 0
M  V30 7920 H 748.599 -2.06633 5.08521 0
M  V30 7921 H 748.86 -2.72788 3.47907 0
M  V30 7922 N 747.919 -1.57396 -0.0801906 0
M  V30 7923 C 749.159 -1.88668 -0.786367 0
M  V30 7924 C 749.523 -0.786216 -1.75165 0
M  V30 7925 O 750.724 -0.981769 -2.50229 0
M  V30 7926 C 748.995 -3.25176 -1.48308 0
M  V30 7927 S 750.554 -3.78177 -2.22549 0
M  V30 7928 H 747.372 -0.661094 -0.261679 0
M  V30 7929 H 749.974 -1.95453 -0.0428196 0
M  V30 7930 H 748.678 -4.03176 -0.766629 0
M  V30 7931 H 748.209 -3.21567 -2.26623 0
M  V30 7932 H 750.224 -3.52789 -3.48934 0
M  V30 7933 N 749.397 0.351382 -1.53633 0
M  V30 7934 C 750.627 1.11113 -1.74176 0
M  V30 7935 C 751.035 1.83084 -0.477154 0
M  V30 7936 O 750.378 1.74941 0.560483 0
M  V30 7937 C 750.44 2.17521 -2.86225 0
M  V30 7938 C 750.104 1.65193 -4.26099 0
M  V30 7939 C 751.101 1.10842 -5.07947 0
M  V30 7940 C 748.786 1.70277 -4.72558 0
M  V30 7941 C 750.78 0.622689 -6.34351 0
M  V30 7942 C 748.467 1.21316 -5.98937 0
M  V30 7943 C 749.465 0.674033 -6.79666 0
M  V30 7944 O 749.153 0.191696 -8.03671 0
M  V30 7945 H 748.885 0.33756 -0.585687 0
M  V30 7946 H 751.439 0.411786 -2.0123 0
M  V30 7947 H 749.669 2.90991 -2.54678 0
M  V30 7948 H 751.358 2.78999 -2.94812 0
M  V30 7949 H 752.124 1.06243 -4.7322 0
M  V30 7950 H 748.003 2.11181 -4.09785 0
M  V30 7951 H 751.547 0.201216 -6.9731 0
M  V30 7952 H 747.444 1.25613 -6.3316 0
M  V30 7953 H 748.212 0.309712 -8.17914 0
M  V30 7954 N 750.875 1.45233 0.611969 0
M  V30 7955 C 752.291 1.29542 0.932251 0
M  V30 7956 C 752.491 0.24523 2.00002 0
M  V30 7957 O 751.547 -0.362333 2.49887 0
M  V30 7958 C 752.86 2.67301 1.37733 0
M  V30 7959 C 754.408 2.75163 1.49178 0
M  V30 7960 C 754.883 4.13437 1.97064 0
M  V30 7961 N 756.374 4.15709 2.04304 0
M  V30 7962 C 757.109 5.19566 2.42568 0
M  V30 7963 N 756.605 6.33771 2.79832 0
M  V30 7964 N 758.398 5.06923 2.42869 0
M  V30 7965 H 750.549 2.12192 -0.0938679 0
M  V30 7966 H 752.812 0.947775 0.0206569 0
M  V30 7967 H 752.518 3.45318 0.666951 0
M  V30 7968 H 752.392 2.95472 2.3447 0
M  V30 7969 H 754.779 1.97453 2.19309 0
M  V30 7970 H 754.86 2.50712 0.507674 0
M  V30 7971 H 754.504 4.91631 1.27521 0
M  V30 7972 H 754.434 4.35277 2.9638 0
M  V30 7973 H 756.925 3.33293 1.78113 0
M  V30 7974 H 757.238 7.08815 3.07898 0
M  V30 7975 H 755.583 6.37179 2.77538 0
M  V30 7976 H 758.774 4.1675 2.1316 0
M  V30 7977 H 758.947 5.87981 2.72364 0
M  V30 7978 N 752.353 -0.854086 1.3245 0
M  V30 7979 C 753.769 -1.14238 1.11453 0
M  V30 7980 C 753.969 -2.01228 -0.10461 0
M  V30 7981 O 753.025 -2.39845 -0.789339 0
M  V30 7982 C 754.338 -1.81916 2.39431 0
M  V30 7983 C 755.886 -1.94549 2.45193 0
M  V30 7984 C 756.361 -2.65642 3.73093 0
M  V30 7985 N 757.852 -2.73167 3.74078 0
M  V30 7986 C 758.587 -3.28828 4.69744 0
M  V30 7987 N 758.083 -3.85295 5.75778 0
M  V30 7988 N 759.876 -3.26936 4.57241 0
M  V30 7989 H 752.027 -0.274786 2.10615 0
M  V30 7990 H 754.29 -0.184375 0.929898 0
M  V30 7991 H 753.996 -1.25452 3.28565 0
M  V30 7992 H 753.87 -2.82068 2.50434 0
M  V30 7993 H 756.257 -2.50172 1.56518 0
M  V30 7994 H 756.338 -0.933914 2.38142 0
M  V30 7995 H 755.982 -2.10683 4.62142 0
M  V30 7996 H 755.912 -3.6724 3.77415 0
M  V30 7997 H 758.403 -2.33108 2.97438 0
M  V30 7998 H 758.716 -4.25925 6.44832 0
M  V30 7999 H 757.061 -3.83625 5.79531 0
M  V30 8000 H 760.252 -2.8207 3.7357 0
M  V30 8001 H 760.425 -3.70014 5.31971 0
M  V30 8002 N 753.831 -1.1567 -1.07043 0
M  V30 8003 C 754.779 -0.852204 -2.16426 0
M  V30 8004 C 755.773 0.175661 -1.68487 0
M  V30 8005 O 756.979 0.0303874 -1.79974 0
M  V30 8006 H 753.354 -0.257942 -0.706378 0
M  V30 8007 H 755.325 -1.78231 -2.39324 0
M  V30 8008 C 754.074 -0.361362 -3.45817 0
M  V30 8009 H 753.397 -1.14369 -3.83092 0
M  V30 8010 H 754.837 -0.186997 -4.23587 0
M  V30 8011 C 753.296 0.917703 -3.2416 0
M  V30 8012 O 753.826 1.98858 -3.49025 0
M  V30 8013 N 752.032 0.858456 -2.77631 0
M  V30 8014 H 751.579 -0.0131821 -2.57597 0
M  V30 8015 H 751.537 1.71478 -2.6352 0
M  V30 8016 N 755.309 1.25446 -0.953992 0
M  V30 8017 C 756.557 1.92762 -0.607227 0
M  V30 8018 C 756.878 1.7509 0.858399 0
M  V30 8019 O 756.148 1.11416 1.61132 0
M  V30 8020 H 754.728 0.713377 -0.221591 0
M  V30 8021 H 757.39 1.52625 -1.21209 0
M  V30 8022 H 756.486 3.00695 -0.835998 0
M  V30 8023 N 756.787 0.722489 1.40064 0
M  V30 8024 C 757.737 0.0506801 2.27944 0
M  V30 8025 C 758.721 -0.725493 1.43615 0
M  V30 8026 O 759.913 -0.596559 1.66644 0
M  V30 8027 C 757.042 -0.865195 3.32219 0
M  V30 8028 C 756.128 -0.0838393 4.24017 0
M  V30 8029 N 756.519 0.936516 4.97054 0
M  V30 8030 C 754.817 -0.315371 4.44884 0
M  V30 8031 C 755.518 1.4066 5.64437 0
M  V30 8032 N 754.494 0.727485 5.3871 0
M  V30 8033 H 758.296 0.832609 2.8186 0
M  V30 8034 H 755.81 0.555691 1.52597 0
M  V30 8035 H 757.807 -1.36186 3.94029 0
M  V30 8036 H 756.467 -1.64642 2.79862 0
M  V30 8037 H 757.478 1.31755 5.0086 0
M  V30 8038 H 754.155 -1.07238 4.03492 0
M  V30 8039 H 755.545 2.25482 6.32936 0
M  V30 8040 N 758.265 -1.50454 0.469181 0
M  V30 8041 C 759.213 -2.30101 -0.340033 0
M  V30 8042 C 760.207 -1.37306 -0.992135 0
M  V30 8043 O 761.413 -1.54506 -0.923458 0
M  V30 8044 H 757.788 -0.740941 -0.128495 0
M  V30 8045 H 759.759 -2.96315 0.352144 0
M  V30 8046 C 758.508 -3.17804 -1.41052 0
M  V30 8047 H 757.831 -3.89115 -0.918124 0
M  V30 8048 H 759.271 -3.76533 -1.94934 0
M  V30 8049 C 757.73 -2.35272 -2.4114 0
M  V30 8050 O 758.26 -2.03448 -3.4637 0
M  V30 8051 N 756.466 -1.97889 -2.1281 0
M  V30 8052 H 756.013 -2.2397 -1.27261 0
M  V30 8053 H 755.971 -1.42971 -2.80012 0
M  V30 8054 N 759.743 -0.201713 -1.56304 0
M  V30 8055 C 760.653 0.728296 -2.23009 0
M  V30 8056 C 761.669 1.22945 -1.23128 0
M  V30 8057 O 762.845 1.27523 -1.55884 0
M  V30 8058 C 759.91 1.92792 -2.88153 0
M  V30 8059 C 758.971 1.47068 -4.03323 0
M  V30 8060 C 758.204 2.61312 -4.65351 0
M  V30 8061 O 758.427 3.7896 -4.26317 0
M  V30 8062 O 757.361 2.33646 -5.54701 0
M  V30 8063 H 761.187 0.190166 -3.03104 0
M  V30 8064 H 758.772 0.0278725 -1.49374 0
M  V30 8065 H 760.654 2.6289 -3.29343 0
M  V30 8066 H 759.329 2.45452 -2.11033 0
M  V30 8067 H 758.236 0.738299 -3.66742 0
M  V30 8068 H 759.569 0.990666 -4.82127 0
M  V30 8069 N 761.222 1.57436 0.0718424 0
M  V30 8070 C 762.155 1.98982 1.11721 0
M  V30 8071 C 763.133 0.866731 1.37574 0
M  V30 8072 O 764.317 1.12903 1.50948 0
M  V30 8073 C 761.444 2.32648 2.46155 0
M  V30 8074 C 760.49 3.54964 2.36437 0
M  V30 8075 S 761.323 5.05802 1.75854 0
M  V30 8076 C 762.479 5.42669 3.11867 0
M  V30 8077 H 762.712 2.87338 0.763154 0
M  V30 8078 H 760.245 1.51833 0.280372 0
M  V30 8079 H 762.203 2.52719 3.23486 0
M  V30 8080 H 760.864 1.44821 2.78722 0
M  V30 8081 H 760.057 3.76038 3.35577 0
M  V30 8082 H 759.659 3.34524 1.67242 0
M  V30 8083 H 761.951 5.40737 4.08178 0
M  V30 8084 H 762.894 6.43461 2.95573 0
M  V30 8085 H 763.302 4.70131 3.1247 0
M  V30 8086 N 762.7 -0.34323 1.53817 0
M  V30 8087 C 763.977 -1.10047 1.61706 0
M  V30 8088 C 764.357 -2.06495 0.438514 0
M  V30 8089 O 763.705 -2.21297 -0.569188 0
M  V30 8090 C 763.915 -1.81985 2.97796 0
M  V30 8091 C 765.263 -2.35717 3.53161 0
M  V30 8092 O 766.287 -1.9208 2.99973 0
M  V30 8093 O 765.146 -3.15551 4.46195 0
M  V30 8094 H 762.24 -0.506096 0.654061 0
M  V30 8095 H 764.786 -0.344697 1.66162 0
M  V30 8096 H 763.558 -1.11722 3.75012 0
M  V30 8097 H 763.181 -2.64419 2.96931 0
M  V30 8098 N 764.178 -1.45556 -0.604258 0
M  V30 8099 C 765.088 -1.57025 -1.74299 0
M  V30 8100 C 766.104 -0.45456 -1.67958 0
M  V30 8101 O 767.28 -0.715711 -1.88254 0
M  V30 8102 C 764.345 -1.53702 -3.10768 0
M  V30 8103 C 763.406 -2.76335 -3.28538 0
M  V30 8104 C 762.639 -2.73161 -4.58496 0
M  V30 8105 O 762.862 -1.80678 -5.41028 0
M  V30 8106 O 761.796 -3.64409 -4.79051 0
M  V30 8107 H 765.622 -2.53284 -1.67573 0
M  V30 8108 H 763.207 -1.28104 -0.768745 0
M  V30 8109 H 765.089 -1.54468 -3.92068 0
M  V30 8110 H 763.764 -0.605957 -3.17978 0
M  V30 8111 H 762.671 -2.8113 -2.46813 0
M  V30 8112 H 764.004 -3.68578 -3.26207 0
M  V30 8113 N 765.656 0.84705 -1.32902 0
M  V30 8114 C 767.067 1.41785 -1.21466 0
M  V30 8115 C 767.418 1.95464 0.169767 0
M  V30 8116 O 766.543 1.88157 1.06892 0
M  V30 8117 C 767.138 2.57734 -2.19906 0
M  V30 8118 C 765.697 3.10791 -2.12334 0
M  V30 8119 C 764.844 1.83562 -2.07847 0
M  V30 8120 H 767.795 0.653532 -1.44619 0
M  V30 8121 H 767.816 3.35123 -1.80202 0
M  V30 8122 H 767.328 2.18635 -3.20656 0
M  V30 8123 H 765.429 3.54455 -1.14858 0
M  V30 8124 H 765.542 3.71519 -3.02506 0
M  V30 8125 H 763.906 2.03475 -1.53199 0
M  V30 8126 H 764.689 1.4667 -3.10392 0
M  V30 8127 N 767.134 1.16236 1.06428 0
M  V30 8128 C 768.067 0.81119 2.13295 0
M  V30 8129 C 769.045 -0.216555 1.61151 0
M  V30 8130 O 770.229 -0.100949 1.88229 0
M  V30 8131 C 767.356 0.207901 3.38061 0
M  V30 8132 C 766.402 1.20904 4.09004 0
M  V30 8133 S 767.235 2.75513 4.59187 0
M  V30 8134 C 768.391 2.1663 5.87216 0
M  V30 8135 H 768.624 1.71632 2.42755 0
M  V30 8136 H 766.157 0.985693 1.18842 0
M  V30 8137 H 768.115 -0.133715 4.10282 0
M  V30 8138 H 766.776 -0.67497 3.06762 0
M  V30 8139 H 765.969 0.735326 4.98607 0
M  V30 8140 H 765.571 1.49567 3.42791 0
M  V30 8141 H 767.863 1.53413 6.59902 0
M  V30 8142 H 768.806 3.04437 6.39315 0
M  V30 8143 H 769.214 1.60565 5.41183 0
M  V30 8144 N 768.612 -1.24939 0.960631 0
M  V30 8145 C 769.859 -1.92818 0.618663 0
M  V30 8146 C 770.187 -1.75177 -0.845173 0
M  V30 8147 O 769.442 -1.09412 -1.62258 0
M  V30 8148 C 769.741 -3.45066 0.930809 0
M  V30 8149 C 769.407 -3.82869 2.38164 0
M  V30 8150 C 768.069 -3.92899 2.7782 0
M  V30 8151 C 770.421 -4.01483 3.32356 0
M  V30 8152 C 767.749 -4.18955 4.10723 0
M  V30 8153 C 770.101 -4.29033 4.6488 0
M  V30 8154 C 768.765 -4.37282 5.04322 0
M  V30 8155 H 768.035 -0.705571 0.226385 0
M  V30 8156 H 770.682 -1.48365 1.21079 0
M  V30 8157 H 768.987 -3.9096 0.256355 0
M  V30 8158 H 770.684 -3.95783 0.644712 0
M  V30 8159 H 767.274 -3.75622 2.06413 0
M  V30 8160 H 771.458 -3.93143 3.02907 0
M  V30 8161 H 766.714 -4.23558 4.40918 0
M  V30 8162 H 770.888 -4.42381 5.3784 0
M  V30 8163 H 768.515 -4.57225 6.0733 0
M  V30 8164 N 770.09 -0.729906 -1.39679 0
M  V30 8165 C 771.318 -0.285709 -2.04918 0
M  V30 8166 C 771.733 1.07765 -1.55023 0
M  V30 8167 O 771.09 1.67999 -0.712923 0
M  V30 8168 C 771.141 -0.272793 -3.60469 0
M  V30 8169 O 770.862 -1.58233 -4.08527 0
M  V30 8170 C 772.363 0.188199 -4.429 0
M  V30 8171 H 769.583 -0.125758 -0.65911 0
M  V30 8172 H 772.127 -0.992129 -1.78821 0
M  V30 8173 H 770.282 0.384699 -3.85485 0
M  V30 8174 H 770.696 -1.49245 -5.02818 0
M  V30 8175 H 772.17 0.14608 -5.51807 0
M  V30 8176 H 772.647 1.2326 -4.21549 0
M  V30 8177 H 773.253 -0.439541 -4.23023 0
M  V30 8178 N 771.568 1.50203 -0.477153 0
M  V30 8179 C 772.5 2.26508 0.350239 0
M  V30 8180 C 773.513 1.32081 0.95176 0
M  V30 8181 O 774.702 1.57546 0.839139 0
M  V30 8182 C 771.802 3.0361 1.50579 0
M  V30 8183 C 770.975 4.25438 1.01595 0
M  V30 8184 C 770.034 4.84783 2.04626 0
M  V30 8185 O 769.06 5.45528 1.62442 0
M  V30 8186 N 770.262 4.72318 3.37485 0
M  V30 8187 H 773.027 2.98155 -0.30394 0
M  V30 8188 H 770.588 1.58938 -0.308289 0
M  V30 8189 H 772.58 3.4019 2.1921 0
M  V30 8190 H 771.15 2.34724 2.06455 0
M  V30 8191 H 770.37 3.93894 0.155316 0
M  V30 8192 H 771.658 5.04413 0.666694 0
M  V30 8193 H 771.056 4.24022 3.74462 0
M  V30 8194 H 769.613 5.13149 4.01897 0
M  V30 8195 N 773.046 0.209999 1.56195 0
M  V30 8196 C 774.457 -0.299943 1.84275 0
M  V30 8197 C 774.808 -1.60314 1.1311 0
M  V30 8198 O 773.933 -2.1273 0.396874 0
M  V30 8199 C 774.528 -0.550986 3.3429 0
M  V30 8200 C 773.087 -1.00526 3.62728 0
M  V30 8201 C 772.234 -0.0619828 2.77231 0
M  V30 8202 H 775.185 0.433458 1.52666 0
M  V30 8203 H 775.206 -1.39846 3.53869 0
M  V30 8204 H 774.718 0.397669 3.86057 0
M  V30 8205 H 772.819 -1.96768 3.16407 0
M  V30 8206 H 772.932 -0.887664 4.70805 0
M  V30 8207 H 771.296 -0.566648 2.48317 0
M  V30 8208 H 772.079 0.881383 3.31793 0
M  V30 8209 N 774.524 -1.57472 -0.0634922 0
M  V30 8210 C 775.454 -2.07297 -1.07473 0
M  V30 8211 C 776.435 -0.968162 -1.39859 0
M  V30 8212 O 777.62 -1.24139 -1.49343 0
M  V30 8213 C 774.75 -2.52381 -2.38581 0
M  V30 8214 C 773.704 -3.66813 -2.20526 0
M  V30 8215 C 773.03 -3.97982 -3.57092 0
M  V30 8216 C 774.33 -4.96553 -1.61965 0
M  V30 8217 H 776.024 -2.92033 -0.660092 0
M  V30 8218 H 773.57 -1.40488 -0.316074 0
M  V30 8219 H 775.523 -2.85852 -3.09624 0
M  V30 8220 H 774.247 -1.64684 -2.8204 0
M  V30 8221 H 772.906 -3.33639 -1.51924 0
M  V30 8222 H 772.554 -3.07403 -3.98136 0
M  V30 8223 H 772.254 -4.7504 -3.45848 0
M  V30 8224 H 773.778 -4.33956 -4.29552 0
M  V30 8225 H 775.192 -5.28201 -2.22883 0
M  V30 8226 H 773.589 -5.7799 -1.61394 0
M  V30 8227 H 774.659 -4.81396 -0.581918 0
M  V30 8228 N 776.003 0.335068 -1.53997 0
M  V30 8229 C 776.936 1.43533 -1.77407 0
M  V30 8230 C 777.914 1.5017 -0.623529 0
M  V30 8231 O 779.098 1.67756 -0.85966 0
M  V30 8232 C 776.225 2.81712 -1.88033 0
M  V30 8233 C 775.271 2.92661 -3.10245 0
M  V30 8234 S 776.104 2.58254 -4.69111 0
M  V30 8235 C 777.26 3.98525 -4.82627 0
M  V30 8236 H 777.493 1.2346 -2.70453 0
M  V30 8237 H 775.026 0.531234 -1.44973 0
M  V30 8238 H 776.984 3.61314 -1.9484 0
M  V30 8239 H 775.645 2.99075 -0.959849 0
M  V30 8240 H 774.838 3.93931 -3.14379 0
M  V30 8241 H 774.44 2.21017 -3.01708 0
M  V30 8242 H 776.732 4.93146 -4.64557 0
M  V30 8243 H 777.675 3.9938 -5.84723 0
M  V30 8244 H 778.083 3.86945 -4.11016 0
M  V30 8245 N 777.481 1.45874 0.596531 0
M  V30 8246 C 778.711 1.5379 1.37958 0
M  V30 8247 C 779.119 0.173086 1.88407 0
M  V30 8248 O 778.462 -0.837498 1.63498 0
M  V30 8249 C 778.524 2.47044 2.61169 0
M  V30 8250 C 778.188 3.93565 2.32283 0
M  V30 8251 C 779.185 4.83162 1.91965 0
M  V30 8252 C 776.87 4.38579 2.44854 0
M  V30 8253 C 778.864 6.15782 1.64593 0
M  V30 8254 C 776.551 5.71238 2.17095 0
M  V30 8255 C 777.549 6.59659 1.77028 0
M  V30 8256 O 777.237 7.89857 1.49601 0
M  V30 8257 H 776.969 0.523 0.428307 0
M  V30 8258 H 779.523 1.91855 0.733529 0
M  V30 8259 H 777.753 2.0397 3.28532 0
M  V30 8260 H 779.442 2.4552 3.23226 0
M  V30 8261 H 780.208 4.49646 1.8178 0
M  V30 8262 H 776.087 3.6999 2.75006 0
M  V30 8263 H 779.631 6.84757 1.33245 0
M  V30 8264 H 775.528 6.04306 2.26901 0
M  V30 8265 H 776.296 8.01991 1.63561 0
M  V30 8266 N 778.959 -0.83999 1.33349 0
M  V30 8267 C 779.906 -1.94972 1.23509 0
M  V30 8268 C 780.876 -1.65709 0.113967 0
M  V30 8269 O 782.061 -1.88552 0.292045 0
M  V30 8270 C 779.201 -3.30919 0.979105 0
M  V30 8271 C 778.314 -3.72587 2.18639 0
M  V30 8272 C 777.449 -4.97397 1.86465 0
M  V30 8273 C 776.488 -5.31597 3.03432 0
M  V30 8274 N 775.625 -6.47584 2.71254 0
M  V30 8275 H 780.465 -2.0272 2.18423 0
M  V30 8276 H 778.002 -0.992017 1.08616 0
M  V30 8277 H 779.96 -4.09239 0.811126 0
M  V30 8278 H 778.59 -3.22731 0.0667099 0
M  V30 8279 H 777.642 -2.89799 2.46416 0
M  V30 8280 H 778.954 -3.93844 3.06086 0
M  V30 8281 H 778.108 -5.83462 1.66305 0
M  V30 8282 H 776.847 -4.78107 0.96254 0
M  V30 8283 H 775.852 -4.44037 3.24208 0
M  V30 8284 H 777.077 -5.52836 3.94397 0
M  V30 8285 H 775.023 -6.29783 1.836 0
M  V30 8286 H 774.94 -6.68931 3.52231 0
M  V30 8287 H 776.208 -7.36764 2.54558 0
M  V30 8288 N 780.437 -1.16799 -1.0581 0
M  V30 8289 C 781.369 -0.836774 -2.13379 0
M  V30 8290 C 782.382 0.158116 -1.6203 0
M  V30 8291 O 783.571 -0.0673211 -1.78373 0
M  V30 8292 C 780.671 -0.225959 -3.38146 0
M  V30 8293 C 779.844 -1.26217 -4.18794 0
M  V30 8294 C 778.903 -0.670257 -5.21914 0
M  V30 8295 O 777.929 -1.34042 -5.53192 0
M  V30 8296 N 779.131 0.540683 -5.77977 0
M  V30 8297 H 781.896 -1.76257 -2.42391 0
M  V30 8298 H 779.457 -1.06599 -1.21853 0
M  V30 8299 H 781.449 0.18317 -4.04285 0
M  V30 8300 H 780.019 0.603494 -3.06719 0
M  V30 8301 H 779.239 -1.84729 -3.48237 0
M  V30 8302 H 780.527 -1.9613 -4.69479 0
M  V30 8303 H 779.925 1.10322 -5.54838 0
M  V30 8304 H 778.482 0.891958 -6.45668 0
M  V30 8305 N 781.915 1.24427 -0.967243 0
M  V30 8306 C 783.164 1.91789 -0.624478 0
M  V30 8307 C 783.477 1.76448 0.844129 0
M  V30 8308 O 784.683 2.38495 1.2974 0
M  V30 8309 C 783.139 3.43743 -1.06626 0
M  V30 8310 C 782.747 3.67771 -2.55829 0
M  V30 8311 C 784.491 4.16958 -0.79662 0
M  V30 8312 C 782.398 5.13293 -2.93742 0
M  V30 8313 H 781.328 0.71811 -0.229856 0
M  V30 8314 H 783.979 1.41081 -1.17339 0
M  V30 8315 H 782.361 3.93484 -0.445663 0
M  V30 8316 H 783.535 3.28631 -3.23015 0
M  V30 8317 H 781.85 3.07841 -2.80398 0
M  V30 8318 H 784.447 5.24171 -1.05589 0
M  V30 8319 H 784.79 4.15442 0.267163 0
M  V30 8320 H 785.323 3.73164 -1.37816 0
M  V30 8321 H 782.062 5.19931 -3.9919 0
M  V30 8322 H 781.582 5.53433 -2.3124 0
M  V30 8323 H 783.261 5.81521 -2.83623 0
M  V30 8324 N 783.393 0.737304 1.3929 0
M  V30 8325 C 784.809 0.413132 1.5416 0
M  V30 8326 C 785.009 -1.07574 1.70382 0
M  V30 8327 O 784.065 -1.86185 1.70562 0
M  V30 8328 C 785.378 1.19817 2.75798 0
M  V30 8329 C 786.926 1.18662 2.89635 0
M  V30 8330 C 787.401 1.95427 4.14213 0
M  V30 8331 N 788.892 1.92605 4.21257 0
M  V30 8332 C 789.627 2.48808 5.16606 0
M  V30 8333 N 789.123 3.13659 6.1773 0
M  V30 8334 N 790.916 2.38829 5.08839 0
M  V30 8335 H 783.067 1.70243 1.27008 0
M  V30 8336 H 785.33 0.720802 0.61575 0
M  V30 8337 H 785.036 2.25179 2.70161 0
M  V30 8338 H 784.91 0.804144 3.68529 0
M  V30 8339 H 787.297 0.141112 2.94762 0
M  V30 8340 H 787.378 1.62003 1.97961 0
M  V30 8341 H 787.022 2.9998 4.09847 0
M  V30 8342 H 786.952 1.4949 5.04936 0
M  V30 8343 H 789.443 1.45362 3.48824 0
M  V30 8344 H 789.756 3.54006 6.8695 0
M  V30 8345 H 788.101 3.17749 6.1811 0
M  V30 8346 H 791.292 1.87806 4.28773 0
M  V30 8347 H 791.465 2.82929 5.82971 0
M  V30 8348 N 784.871 -1.49948 0.485112 0
M  V30 8349 C 785.818 -2.28819 -0.301729 0
M  V30 8350 C 786.788 -1.34496 -0.974683 0
M  V30 8351 O 787.973 -1.63444 -0.984418 0
M  V30 8352 C 785.113 -3.16758 -1.36961 0
M  V30 8353 C 784.226 -4.26125 -0.710027 0
M  V30 8354 C 783.361 -5.01302 -1.75699 0
M  V30 8355 C 782.4 -6.02525 -1.07841 0
M  V30 8356 N 781.537 -6.70927 -2.06886 0
M  V30 8357 H 786.377 -2.95604 0.377127 0
M  V30 8358 H 783.914 -1.45764 0.197826 0
M  V30 8359 H 785.872 -3.66106 -2.00056 0
M  V30 8360 H 784.502 -2.51991 -2.01744 0
M  V30 8361 H 783.554 -3.80385 0.0338278 0
M  V30 8362 H 784.866 -4.98493 -0.175079 0
M  V30 8363 H 784.02 -5.54438 -2.46339 0
M  V30 8364 H 782.759 -4.28672 -2.32577 0
M  V30 8365 H 781.764 -5.48635 -0.357706 0
M  V30 8366 H 782.989 -6.77134 -0.516345 0
M  V30 8367 H 780.935 -6.01079 -2.62755 0
M  V30 8368 H 780.852 -7.39216 -1.58414 0
M  V30 8369 H 782.12 -7.28675 -2.76863 0
M  V30 8370 N 786.349 -0.21828 -1.56081 0
M  V30 8371 C 787.281 0.725447 -2.17416 0
M  V30 8372 C 788.294 1.15995 -1.14233 0
M  V30 8373 O 789.483 1.09166 -1.41227 0
M  V30 8374 C 786.583 1.99401 -2.7403 0
M  V30 8375 C 785.756 1.7156 -4.02351 0
M  V30 8376 C 784.815 2.8309 -4.43561 0
M  V30 8377 O 783.841 2.51701 -5.10525 0
M  V30 8378 N 785.043 4.11972 -4.08973 0
M  V30 8379 H 787.808 0.200801 -2.99027 0
M  V30 8380 H 785.369 -0.0371514 -1.61857 0
M  V30 8381 H 787.361 2.73198 -2.98571 0
M  V30 8382 H 785.931 2.42923 -1.96742 0
M  V30 8383 H 785.151 0.814233 -3.85699 0
M  V30 8384 H 786.439 1.50385 -4.86068 0
M  V30 8385 H 785.837 4.40319 -3.55156 0
M  V30 8386 H 784.394 4.82323 -4.38415 0
M  V30 8387 N 787.827 1.57504 0.0551401 0
M  V30 8388 C 788.774 2.04825 1.06373 0
M  V30 8389 C 789.744 0.932108 1.37481 0
M  V30 8390 O 790.929 1.20093 1.48265 0
M  V30 8391 C 788.069 2.51091 2.36743 0
M  V30 8392 C 787.182 3.76392 2.12021 0
M  V30 8393 C 786.317 4.11373 3.36074 0
M  V30 8394 C 785.356 5.29666 3.0679 0
M  V30 8395 N 784.493 5.60205 4.2322 0
M  V30 8396 H 789.333 2.90753 0.653216 0
M  V30 8397 H 786.87 1.43776 0.310951 0
M  V30 8398 H 788.828 2.75973 3.12881 0
M  V30 8399 H 787.458 1.68118 2.75565 0
M  V30 8400 H 786.51 3.58751 1.26498 0
M  V30 8401 H 787.822 4.62662 1.86401 0
M  V30 8402 H 786.976 4.37245 4.20597 0
M  V30 8403 H 785.715 3.23704 3.64784 0
M  V30 8404 H 784.72 5.03574 2.20664 0
M  V30 8405 H 785.945 6.18968 2.79385 0
M  V30 8406 H 783.891 4.75495 4.5193 0
M  V30 8407 H 783.808 6.40928 4.00933 0
M  V30 8408 H 785.076 5.90637 5.08692 0
M  V30 8409 N 789.305 -0.326896 1.54172 0
M  V30 8410 C 790.716 -0.901533 1.63491 0
M  V30 8411 C 791.067 -1.88994 0.52684 0
M  V30 8412 O 790.192 -2.137 -0.340794 0
M  V30 8413 C 790.787 -1.64192 2.96355 0
M  V30 8414 C 789.346 -2.16533 3.07881 0
M  V30 8415 C 788.493 -0.98966 2.59039 0
M  V30 8416 H 791.444 -0.104568 1.58355 0
M  V30 8417 H 791.465 -2.50592 2.86328 0
M  V30 8418 H 790.977 -0.922291 3.76982 0
M  V30 8419 H 789.078 -2.91622 2.31922 0
M  V30 8420 H 789.191 -2.41762 4.13628 0
M  V30 8421 H 787.555 -1.36787 2.14852 0
M  V30 8422 H 788.338 -0.284401 3.4212 0
M  V30 8423 N 790.784 -1.46188 -0.588786 0
M  V30 8424 C 792.03 -1.51407 -1.34921 0
M  V30 8425 C 792.363 -0.162771 -1.93517 0
M  V30 8426 O 791.638 0.825082 -1.76132 0
M  V30 8427 C 791.921 -2.60795 -2.48311 0
M  V30 8428 C 791.774 -4.05435 -1.94789 0
M  V30 8429 C 793.093 -2.66313 -3.50379 0
M  V30 8430 H 790.212 -0.551213 -0.489217 0
M  V30 8431 H 792.854 -1.78095 -0.661993 0
M  V30 8432 H 791.004 -2.3817 -3.06932 0
M  V30 8433 H 792.676 -4.39328 -1.40672 0
M  V30 8434 H 790.919 -4.15202 -1.25659 0
M  V30 8435 H 791.59 -4.77691 -2.76613 0
M  V30 8436 H 794.066 -2.86634 -3.01629 0
M  V30 8437 H 792.942 -3.44681 -4.27184 0
M  V30 8438 H 793.203 -1.72127 -4.07216 0
M  V30 8439 N 792.262 0.832906 -1.33792 0
M  V30 8440 C 793.192 1.95828 -1.27176 0
M  V30 8441 C 794.173 1.69427 -0.15114 0
M  V30 8442 O 795.358 1.91167 -0.341886 0
M  V30 8443 C 792.488 3.32098 -1.01629 0
M  V30 8444 C 791.442 3.72912 -2.10049 0
M  V30 8445 C 790.768 5.07054 -1.69706 0
M  V30 8446 C 792.068 3.86064 -3.51783 0
M  V30 8447 H 793.762 2.01622 -2.21334 0
M  V30 8448 H 791.308 0.96866 -1.0655 0
M  V30 8449 H 793.261 4.10402 -0.956474 0
M  V30 8450 H 791.985 3.26577 -0.0390956 0
M  V30 8451 H 790.644 2.96876 -2.15082 0
M  V30 8452 H 790.292 4.9801 -0.706737 0
M  V30 8453 H 789.992 5.35333 -2.42264 0
M  V30 8454 H 791.516 5.87827 -1.65202 0
M  V30 8455 H 792.93 4.54665 -3.49218 0
M  V30 8456 H 791.327 4.25787 -4.22878 0
M  V30 8457 H 792.397 2.88344 -3.89854 0
M  V30 8458 N 793.74 1.17359 1.05189 0
M  V30 8459 C 794.672 0.848078 2.12933 0
M  V30 8460 C 795.685 -0.149521 1.62112 0
M  V30 8461 O 796.874 0.0767797 1.78335 0
M  V30 8462 C 793.974 0.243889 3.38021 0
M  V30 8463 C 793.147 1.28436 4.18118 0
M  V30 8464 C 792.206 0.697926 5.21551 0
M  V30 8465 O 791.232 1.36973 5.52473 0
M  V30 8466 N 792.434 -0.510024 5.78255 0
M  V30 8467 H 795.199 1.7754 2.41453 0
M  V30 8468 H 792.76 1.07244 1.21286 0
M  V30 8469 H 794.752 -0.161727 4.04377 0
M  V30 8470 H 793.322 -0.58722 3.07035 0
M  V30 8471 H 792.542 1.86573 3.47252 0
M  V30 8472 H 793.83 1.98617 4.68432 0
M  V30 8473 H 793.228 -1.07378 5.55416 0
M  V30 8474 H 791.785 -0.857705 6.46132 0
M  V30 8475 N 795.218 -1.23913 0.973828 0
M  V30 8476 C 796.165 -2.25132 0.508366 0
M  V30 8477 C 797.135 -1.59908 -0.449307 0
M  V30 8478 O 798.32 -1.87405 -0.358313 0
M  V30 8479 C 795.46 -3.4458 -0.189422 0
M  V30 8480 C 794.573 -4.24381 0.807738 0
M  V30 8481 C 793.708 -5.31131 0.0854315 0
M  V30 8482 C 792.747 -6.02635 1.07225 0
M  V30 8483 N 791.884 -7.01073 0.379535 0
M  V30 8484 H 796.724 -2.64313 1.37632 0
M  V30 8485 H 794.261 -1.29924 0.689802 0
M  V30 8486 H 796.219 -4.12706 -0.610733 0
M  V30 8487 H 794.849 -3.06218 -1.02129 0
M  V30 8488 H 793.901 -3.55735 1.34747 0
M  V30 8489 H 795.213 -4.73778 1.55998 0
M  V30 8490 H 794.367 -6.05422 -0.393572 0
M  V30 8491 H 793.106 -4.82658 -0.699461 0
M  V30 8492 H 792.111 -5.27143 1.56207 0
M  V30 8493 H 793.336 -6.53197 1.85769 0
M  V30 8494 H 791.282 -6.54862 -0.386269 0
M  V30 8495 H 791.199 -7.48382 1.07054 0
M  V30 8496 H 792.467 -7.79462 -0.0772984 0
M  V30 8497 N 796.696 -0.74468 -1.38897 0
M  V30 8498 C 797.926 -0.306982 -2.04307 0
M  V30 8499 C 798.334 1.06652 -1.56275 0
M  V30 8500 O 797.677 1.68699 -0.72708 0
M  V30 8501 C 797.739 -0.241186 -3.5869 0
M  V30 8502 C 797.403 -1.55476 -4.2974 0
M  V30 8503 C 798.4 -2.50229 -4.55721 0
M  V30 8504 C 796.085 -1.82173 -4.68101 0
M  V30 8505 C 798.079 -3.69905 -5.19085 0
M  V30 8506 C 795.766 -3.02125 -5.31191 0
M  V30 8507 C 796.764 -3.95812 -5.56616 0
M  V30 8508 O 796.452 -5.13656 -6.18395 0
M  V30 8509 H 796.184 -0.130416 -0.663301 0
M  V30 8510 H 798.738 -1.01192 -1.78744 0
M  V30 8511 H 796.968 0.519925 -3.83189 0
M  V30 8512 H 798.657 0.165806 -4.05561 0
M  V30 8513 H 799.423 -2.30877 -4.26522 0
M  V30 8514 H 795.302 -1.10091 -4.47662 0
M  V30 8515 H 798.846 -4.43047 -5.38846 0
M  V30 8516 H 794.743 -3.21374 -5.59811 0
M  V30 8517 H 795.511 -5.14119 -6.36886 0
M  V30 8518 N 798.174 1.49689 -0.493057 0
M  V30 8519 C 799.137 2.27502 0.278485 0
M  V30 8520 C 800.137 1.33184 0.901037 0
M  V30 8521 O 801.327 1.56415 0.766801 0
M  V30 8522 C 798.459 3.10881 1.39878 0
M  V30 8523 H 799.652 2.97163 -0.404219 0
M  V30 8524 H 797.205 1.54324 -0.247774 0
M  V30 8525 H 797.94 2.45767 2.11587 0
M  V30 8526 H 797.725 3.80219 0.957924 0
M  V30 8527 H 799.215 3.69673 1.94247 0
M  V30 8528 N 799.652 0.226554 1.55963 0
M  V30 8529 C 800.562 -0.692725 2.24139 0
M  V30 8530 C 801.578 -1.20971 1.25068 0
M  V30 8531 O 802.754 -1.25027 1.57893 0
M  V30 8532 C 799.819 -1.88183 2.91184 0
M  V30 8533 C 798.88 -1.40633 4.05612 0
M  V30 8534 C 798.113 -2.53875 4.6945 0
M  V30 8535 O 798.336 -3.72129 4.32292 0
M  V30 8536 O 797.27 -2.24792 5.58348 0
M  V30 8537 H 801.096 -0.141921 3.03368 0
M  V30 8538 H 798.681 -0.0041049 1.49399 0
M  V30 8539 H 800.563 -2.57617 3.33484 0
M  V30 8540 H 799.238 -2.42064 2.14911 0
M  V30 8541 H 798.145 -0.67986 3.67871 0
M  V30 8542 H 799.478 -0.913838 4.83642 0
M  V30 8543 N 801.13 -1.57531 -0.0467866 0
M  V30 8544 C 802.06 -2.08425 -1.05268 0
M  V30 8545 C 803.041 -0.982941 -1.38825 0
M  V30 8546 O 804.226 -1.25716 -1.48018 0
M  V30 8547 C 801.356 -2.54897 -2.35891 0
M  V30 8548 C 800.31 -3.69132 -2.16623 0
M  V30 8549 C 799.636 -4.01747 -3.52851 0
M  V30 8550 C 800.936 -4.98243 -1.56689 0
M  V30 8551 H 802.63 -2.92716 -0.62908 0
M  V30 8552 H 800.176 -1.40816 -0.301156 0
M  V30 8553 H 802.129 -2.8912 -3.06574 0
M  V30 8554 H 800.853 -1.67666 -2.80278 0
M  V30 8555 H 799.512 -3.35231 -1.48377 0
M  V30 8556 H 799.16 -3.11608 -3.94853 0
M  V30 8557 H 798.86 -4.78681 -3.4079 0
M  V30 8558 H 800.384 -4.38487 -4.24925 0
M  V30 8559 H 801.798 -5.30535 -2.17268 0
M  V30 8560 H 800.195 -5.79669 -1.55255 0
M  V30 8561 H 801.265 -4.81986 -0.530827 0
M  V30 8562 N 802.608 0.318715 -1.54344 0
M  V30 8563 C 803.538 1.39751 -1.87061 0
M  V30 8564 C 804.519 1.53741 -0.727848 0
M  V30 8565 O 805.704 1.67541 -0.982016 0
M  V30 8566 C 802.834 2.76446 -2.10226 0
M  V30 8567 C 801.788 2.77239 -3.26071 0
M  V30 8568 C 801.114 4.17056 -3.34617 0
M  V30 8569 C 802.414 2.40555 -4.63606 0
M  V30 8570 H 804.108 1.12619 -2.77412 0
M  V30 8571 H 801.654 0.540318 -1.33479 0
M  V30 8572 H 803.607 3.51985 -2.31699 0
M  V30 8573 H 802.331 3.05066 -1.16629 0
M  V30 8574 H 800.99 2.04155 -3.04493 0
M  V30 8575 H 800.638 4.42824 -2.3857 0
M  V30 8576 H 800.338 4.18492 -4.12478 0
M  V30 8577 H 801.862 4.94401 -3.5833 0
M  V30 8578 H 803.276 3.05808 -4.84927 0
M  V30 8579 H 801.673 2.53234 -5.44052 0
M  V30 8580 H 802.743 1.35698 -4.65526 0
M  V30 8581 N 804.086 1.46499 0.581025 0
M  V30 8582 C 805.332 1.52121 1.34116 0
M  V30 8583 C 805.665 0.173031 1.93428 0
M  V30 8584 O 804.94 -0.815729 1.76568 0
M  V30 8585 C 805.223 2.62108 2.46924 0
M  V30 8586 C 805.076 4.06462 1.92636 0
M  V30 8587 C 806.395 2.68167 3.48962 0
M  V30 8588 H 803.514 0.5538 0.486287 0
M  V30 8589 H 806.156 1.78443 0.652538 0
M  V30 8590 H 804.306 2.39794 3.05665 0
M  V30 8591 H 805.978 4.40068 1.3834 0
M  V30 8592 H 804.221 4.15862 1.23455 0
M  V30 8593 H 804.892 4.79152 2.74076 0
M  V30 8594 H 807.368 2.8823 3.00104 0
M  V30 8595 H 806.244 3.46942 4.2535 0
M  V30 8596 H 806.505 1.74284 4.06297 0
M  V30 8597 N 805.565 -0.825799 1.34232 0
M  V30 8598 C 806.79 -1.61883 1.29648 0
M  V30 8599 C 807.215 -1.87669 -0.127295 0
M  V30 8600 O 806.573 -1.45016 -1.08813 0
M  V30 8601 C 806.621 -2.93846 2.09014 0
M  V30 8602 O 805.725 -3.85778 1.4577 0
M  V30 8603 H 805.066 -0.492454 0.445405 0
M  V30 8604 H 807.596 -1.02641 1.76992 0
M  V30 8605 H 807.606 -3.43435 2.20264 0
M  V30 8606 H 806.281 -2.74401 3.12533 0
M  V30 8607 H 804.858 -3.4429 1.43245 0
M  V30 8608 N 807.043 -1.17915 -1.04565 0
M  V30 8609 C 807.975 -0.859359 -2.1248 0
M  V30 8610 C 808.988 0.140922 -1.62189 0
M  V30 8611 O 810.177 -0.0862361 -1.78292 0
M  V30 8612 C 807.277 -0.261811 -3.37887 0
M  V30 8613 C 806.45 -1.30651 -4.17431 0
M  V30 8614 C 805.509 -0.725575 -5.21174 0
M  V30 8615 O 804.535 -1.39901 -5.51739 0
M  V30 8616 N 805.737 0.479351 -5.78517 0
M  V30 8617 H 808.502 -1.78818 -2.40508 0
M  V30 8618 H 806.063 -1.07885 -1.20716 0
M  V30 8619 H 808.055 0.14028 -4.04457 0
M  V30 8620 H 806.625 0.570929 -3.07342 0
M  V30 8621 H 805.845 -1.88412 -3.46258 0
M  V30 8622 H 807.133 -2.01099 -4.67372 0
M  V30 8623 H 806.531 1.04431 -5.55977 0
M  V30 8624 H 805.088 0.823427 -6.46578 0
M  V30 8625 N 808.521 1.23394 -0.980386 0
M  V30 8626 C 809.769 1.91431 -0.647978 0
M  V30 8627 C 810.09 1.76871 0.821066 0
M  V30 8628 O 809.36 1.14808 1.58732 0
M  V30 8629 H 807.94 0.708516 -0.236673 0
M  V30 8630 H 810.602 1.50019 -1.2442 0
M  V30 8631 H 809.698 2.98854 -0.899592 0
M  V30 8632 N 809.999 0.752036 1.385 0
M  V30 8633 C 811.245 0.307958 2.00448 0
M  V30 8634 C 811.578 -1.10702 1.59558 0
M  V30 8635 O 810.853 -1.75788 0.832391 0
M  V30 8636 C 811.136 0.429092 3.57534 0
M  V30 8637 C 810.989 1.88507 4.08393 0
M  V30 8638 C 812.308 -0.178442 4.39738 0
M  V30 8639 H 809.427 0.113373 0.728228 0
M  V30 8640 H 812.069 0.951389 1.64465 0
M  V30 8641 H 810.219 -0.118695 3.88319 0
M  V30 8642 H 811.891 2.49104 3.88259 0
M  V30 8643 H 810.134 2.40066 3.61318 0
M  V30 8644 H 810.805 1.92099 5.17496 0
M  V30 8645 H 813.281 0.28872 4.15097 0
M  V30 8646 H 812.157 -0.0634349 5.48863 0
M  V30 8647 H 812.418 -1.26655 4.23569 0
M  V30 8648 N 811.477 -1.49425 0.500989 0
M  V30 8649 C 812.723 -2.02753 -0.0436 0
M  V30 8650 C 813.056 -1.37991 -1.36646 0
M  V30 8651 O 812.331 -0.515597 -1.87542 0
M  V30 8652 C 812.614 -3.59565 -0.19616 0
M  V30 8653 C 812.467 -4.34855 1.14982 0
M  V30 8654 C 813.786 -4.30014 -0.936795 0
M  V30 8655 H 810.905 -0.73686 -0.0143711 0
M  V30 8656 H 813.547 -1.78448 0.652397 0
M  V30 8657 H 811.697 -3.80405 -0.788959 0
M  V30 8658 H 813.369 -4.25512 1.7815 0
M  V30 8659 H 811.612 -3.97414 1.73911 0
M  V30 8660 H 812.283 -5.42933 0.996385 0
M  V30 8661 H 814.759 -4.1383 -0.434036 0
M  V30 8662 H 813.635 -5.39483 -1.01238 0
M  V30 8663 H 813.896 -3.95257 -1.9805 0
M  V30 8664 N 812.955 -0.234822 -1.55841 0
M  V30 8665 C 813.903 0.686145 -2.22249 0
M  V30 8666 C 814.897 1.18948 -1.20614 0
M  V30 8667 O 816.103 1.14777 -1.38659 0
M  V30 8668 H 812.478 0.239724 -0.712767 0
M  V30 8669 H 814.449 0.102762 -2.98223 0
M  V30 8670 C 813.198 1.8776 -2.92646 0
M  V30 8671 H 812.521 1.49943 -3.70617 0
M  V30 8672 H 813.961 2.4995 -3.42493 0
M  V30 8673 C 812.42 2.74127 -1.95847 0
M  V30 8674 O 812.95 3.7329 -1.48384 0
M  V30 8675 N 811.156 2.4044 -1.63209 0
M  V30 8676 H 810.703 1.59854 -2.02001 0
M  V30 8677 H 810.661 2.98504 -0.987063 0
M  V30 8678 N 814.433 1.57553 0.0384317 0
M  V30 8679 C 815.365 2.02726 1.06934 0
M  V30 8680 C 816.378 0.938502 1.33026 0
M  V30 8681 O 817.567 1.21595 1.30678 0
M  V30 8682 C 814.667 2.37958 2.41308 0
M  V30 8683 C 813.84 3.69098 2.34703 0
M  V30 8684 C 812.899 3.91623 3.51451 0
M  V30 8685 O 811.925 4.628 3.31368 0
M  V30 8686 N 813.127 3.36538 4.72993 0
M  V30 8687 H 815.892 2.91781 0.684381 0
M  V30 8688 H 813.453 1.60307 0.226542 0
M  V30 8689 H 815.445 2.50172 3.18113 0
M  V30 8690 H 814.015 1.54621 2.71682 0
M  V30 8691 H 813.235 3.67325 1.43059 0
M  V30 8692 H 814.523 4.55144 2.27424 0
M  V30 8693 H 813.921 2.78828 4.92211 0
M  V30 8694 H 812.478 3.54148 5.47195 0
M  V30 8695 N 815.911 -0.310526 1.54511 0
M  V30 8696 C 817.322 -0.884142 1.64438 0
M  V30 8697 C 817.673 -1.88425 0.546855 0
M  V30 8698 O 816.798 -2.14049 -0.31811 0
M  V30 8699 C 817.393 -1.6104 2.9808 0
M  V30 8700 C 815.952 -2.13255 3.1016 0
M  V30 8701 C 815.099 -0.96213 2.60074 0
M  V30 8702 H 818.05 -0.0877666 1.58457 0
M  V30 8703 H 818.071 -2.47541 2.8897 0
M  V30 8704 H 817.583 -0.882255 3.77939 0
M  V30 8705 H 815.684 -2.89145 2.35002 0
M  V30 8706 H 815.797 -2.37361 4.16169 0
M  V30 8707 H 814.161 -1.34501 2.16291 0
M  V30 8708 H 814.944 -0.248098 3.42402 0
M  V30 8709 N 817.389 -1.46805 -0.573248 0
M  V30 8710 C 818.299 -1.60687 -1.70929 0
M  V30 8711 C 819.315 -0.490084 -1.66956 0
M  V30 8712 O 820.491 -0.755482 -1.86693 0
M  V30 8713 C 817.556 -1.60259 -3.07438 0
M  V30 8714 C 816.617 -2.83242 -3.22603 0
M  V30 8715 C 815.85 -2.82825 -4.52599 0
M  V30 8716 O 816.073 -1.92113 -5.37074 0
M  V30 8717 O 815.007 -3.74489 -4.71213 0
M  V30 8718 H 818.833 -2.56782 -1.62163 0
M  V30 8719 H 816.418 -1.29706 -0.741399 0
M  V30 8720 H 818.3 -1.6275 -3.88704 0
M  V30 8721 H 816.975 -0.673268 -3.16621 0
M  V30 8722 H 815.882 -2.86302 -2.40794 0
M  V30 8723 H 817.215 -3.75415 -3.18315 0
M  V30 8724 N 818.867 0.818669 -1.34668 0
M  V30 8725 C 820.097 1.60441 -1.30162 0
M  V30 8726 C 820.505 1.88783 0.125579 0
M  V30 8727 O 819.848 1.48281 1.08437 0
M  V30 8728 C 819.91 2.96794 -2.02864 0
M  V30 8729 C 819.574 2.91327 -3.52105 0
M  V30 8730 C 820.571 2.65611 -4.4693 0
M  V30 8731 C 818.256 3.10825 -3.9458 0
M  V30 8732 C 820.25 2.59452 -5.82206 0
M  V30 8733 C 817.937 3.0429 -5.29954 0
M  V30 8734 C 818.935 2.78637 -6.23579 0
M  V30 8735 O 818.623 2.72042 -7.56471 0
M  V30 8736 H 818.355 0.505278 -0.449077 0
M  V30 8737 H 820.909 1.02632 -1.77921 0
M  V30 8738 H 819.139 3.56538 -1.49725 0
M  V30 8739 H 820.828 3.57837 -1.91592 0
M  V30 8740 H 821.594 2.50278 -4.15434 0
M  V30 8741 H 817.473 3.29807 -3.221 0
M  V30 8742 H 821.017 2.39349 -6.55254 0
M  V30 8743 H 816.914 3.19177 -5.61067 0
M  V30 8744 H 817.682 2.87738 -7.66257 0
M  V30 8745 N 820.346 1.18468 1.03938 0
M  V30 8746 C 821.256 0.927889 2.1547 0
M  V30 8747 C 822.272 -0.108447 1.73662 0
M  V30 8748 O 823.448 0.0737636 2.01265 0
M  V30 8749 C 820.513 0.458494 3.43655 0
M  V30 8750 C 819.574 1.56295 3.99838 0
M  V30 8751 C 818.807 1.11586 5.21904 0
M  V30 8752 O 819.03 -0.0249057 5.70395 0
M  V30 8753 O 817.964 1.91412 5.70653 0
M  V30 8754 H 821.79 1.86116 2.39989 0
M  V30 8755 H 819.375 0.966607 1.13917 0
M  V30 8756 H 821.257 0.204861 4.20902 0
M  V30 8757 H 819.932 -0.446464 3.20606 0
M  V30 8758 H 818.839 1.87061 3.23974 0
M  V30 8759 H 820.172 2.44408 4.2723 0
M  V30 8760 N 821.824 -1.22873 0.986916 0
M  V30 8761 C 822.734 -2.28277 0.540978 0
M  V30 8762 C 823.75 -1.69164 -0.407363 0
M  V30 8763 O 824.926 -1.99504 -0.275674 0
M  V30 8764 C 821.991 -3.46404 -0.143181 0
M  V30 8765 C 821.052 -4.20854 0.847375 0
M  V30 8766 C 820.285 -5.33341 0.19577 0
M  V30 8767 O 820.508 -5.61356 -1.0117 0
M  V30 8768 O 819.442 -5.95169 0.897623 0
M  V30 8769 H 823.268 -2.68578 1.41773 0
M  V30 8770 H 820.853 -1.28927 0.754867 0
M  V30 8771 H 822.735 -4.18096 -0.526676 0
M  V30 8772 H 821.41 -3.08041 -0.994593 0
M  V30 8773 H 820.317 -3.51459 1.28169 0
M  V30 8774 H 821.65 -4.63082 1.6678 0
M  V30 8775 N 823.302 -0.75937 -1.38099 0
M  V30 8776 C 824.212 -0.13774 -2.34195 0
M  V30 8777 C 825.228 0.693985 -1.59561 0
M  V30 8778 O 826.404 0.616792 -1.91723 0
M  V30 8779 C 823.469 0.740535 -3.38699 0
M  V30 8780 C 822.53 -0.106225 -4.29169 0
M  V30 8781 C 821.763 0.730225 -5.28681 0
M  V30 8782 O 821.986 1.96796 -5.35376 0
M  V30 8783 O 820.92 0.145969 -6.01723 0
M  V30 8784 H 824.746 -0.931512 -2.89061 0
M  V30 8785 H 822.331 -0.520345 -1.40046 0
M  V30 8786 H 824.213 1.24232 -4.02672 0
M  V30 8787 H 822.888 1.51271 -2.8618 0
M  V30 8788 H 821.795 -0.654088 -3.68337 0
M  V30 8789 H 823.128 -0.841186 -4.84959 0
M  V30 8790 N 824.78 1.49157 -0.508906 0
M  V30 8791 C 826.029 2.0167 0.0346854 0
M  V30 8792 C 826.342 1.39302 1.37311 0
M  V30 8793 O 827.548 1.83189 2.00385 0
M  V30 8794 C 826.004 3.59725 0.112261 0
M  V30 8795 C 825.612 4.31069 -1.21999 0
M  V30 8796 C 827.356 4.20155 0.605798 0
M  V30 8797 C 825.263 5.81001 -1.10415 0
M  V30 8798 H 824.193 0.753814 0.0167355 0
M  V30 8799 H 826.844 1.7162 -0.649518 0
M  V30 8800 H 825.226 3.86525 0.861087 0
M  V30 8801 H 826.4 4.15962 -1.98273 0
M  V30 8802 H 824.715 3.82418 -1.64759 0
M  V30 8803 H 827.312 5.29964 0.710102 0
M  V30 8804 H 827.655 3.84051 1.60656 0
M  V30 8805 H 828.188 3.97705 -0.0867239 0
M  V30 8806 H 824.927 6.21643 -2.07941 0
M  V30 8807 H 824.447 5.9858 -0.382428 0
M  V30 8808 H 826.126 6.42207 -0.786116 0
M  V30 8809 N 826.258 0.243083 1.55714 0
M  V30 8810 C 827.483 -0.389944 2.03701 0
M  V30 8811 C 827.908 -1.51025 1.12129 0
M  V30 8812 O 827.266 -1.80944 0.11352 0
M  V30 8813 C 827.314 -0.878649 3.49731 0
M  V30 8814 O 826.418 -1.98851 3.61292 0
M  V30 8815 H 825.759 -0.0855115 0.658471 0
M  V30 8816 H 828.289 0.368023 2.01263 0
M  V30 8817 H 828.299 -1.18287 3.90477 0
M  V30 8818 H 826.974 -0.0588107 4.15858 0
M  V30 8819 H 825.551 -1.68928 3.32442 0
M  V30 8820 N 827.736 -1.57571 -0.0300757 0
M  V30 8821 C 828.683 -2.06492 -1.03101 0
M  V30 8822 C 829.653 -0.953862 -1.3598 0
M  V30 8823 O 830.838 -1.22436 -1.46335 0
M  V30 8824 C 827.978 -2.54826 -2.32718 0
M  V30 8825 C 827.091 -3.79718 -2.06006 0
M  V30 8826 C 826.226 -4.16668 -3.29487 0
M  V30 8827 C 825.265 -5.3448 -2.98324 0
M  V30 8828 N 824.402 -5.66867 -4.14254 0
M  V30 8829 H 829.242 -2.91755 -0.606877 0
M  V30 8830 H 826.779 -1.44252 -0.288038 0
M  V30 8831 H 828.737 -2.80916 -3.08451 0
M  V30 8832 H 827.367 -1.72481 -2.72856 0
M  V30 8833 H 826.419 -3.60718 -1.20774 0
M  V30 8834 H 827.731 -4.65569 -1.79017 0
M  V30 8835 H 826.885 -4.43881 -4.13588 0
M  V30 8836 H 825.624 -3.29466 -3.59588 0
M  V30 8837 H 824.629 -5.07021 -2.12625 0
M  V30 8838 H 825.854 -6.23334 -2.69502 0
M  V30 8839 H 823.8 -4.82625 -4.44308 0
M  V30 8840 H 823.717 -6.47226 -3.90685 0
M  V30 8841 H 824.985 -5.98656 -4.99231 0
M  V30 8842 N 829.214 0.302327 -1.54673 0
M  V30 8843 C 830.444 1.05516 -1.77623 0
M  V30 8844 C 830.852 1.81474 -0.535159 0
M  V30 8845 O 830.195 1.76635 0.504543 0
M  V30 8846 C 830.257 2.08305 -2.93001 0
M  V30 8847 C 829.921 1.51554 -4.31139 0
M  V30 8848 C 830.918 0.946261 -5.11216 0
M  V30 8849 C 828.603 1.55157 -4.77736 0
M  V30 8850 C 830.597 0.420559 -6.36011 0
M  V30 8851 C 828.284 1.022 -6.02494 0
M  V30 8852 C 829.282 0.457461 -6.81466 0
M  V30 8853 O 828.97 -0.064083 -8.03874 0
M  V30 8854 H 828.702 0.318756 -0.59613 0
M  V30 8855 H 831.256 0.347558 -2.02438 0
M  V30 8856 H 829.486 2.82742 -2.63807 0
M  V30 8857 H 831.175 2.69479 -3.03539 0
M  V30 8858 H 831.941 0.911338 -4.76361 0
M  V30 8859 H 827.82 1.98037 -4.16296 0
M  V30 8860 H 831.364 -0.0207298 -6.97597 0
M  V30 8861 H 827.261 1.05406 -6.36836 0
M  V30 8862 H 828.029 0.0493422 -8.18485 0
M  V30 8863 N 830.692 1.47107 0.565454 0
M  V30 8864 C 831.969 1.43787 1.32607 0
M  V30 8865 C 832.349 0.130428 2.10697 0
M  V30 8866 O 831.697 -0.888086 2.10536 0
M  V30 8867 C 831.907 2.67833 2.23755 0
M  V30 8868 C 833.255 3.14704 2.85037 0
M  V30 8869 O 834.279 2.68503 2.34061 0
M  V30 8870 O 833.138 3.95002 3.77671 0
M  V30 8871 H 830.232 0.572623 0.596684 0
M  V30 8872 H 832.778 1.59296 0.58504 0
M  V30 8873 H 831.55 3.54532 1.65597 0
M  V30 8874 H 831.173 2.54869 3.05168 0
M  V30 8875 N 832.17 -0.811516 1.35101 0
M  V30 8876 C 833.117 -1.92308 1.27617 0
M  V30 8877 C 834.087 -1.6543 0.149091 0
M  V30 8878 O 835.272 -1.8789 0.331974 0
M  V30 8879 C 832.412 -3.28768 1.04908 0
M  V30 8880 C 831.525 -3.67865 2.26493 0
M  V30 8881 C 830.66 -4.9333 1.96974 0
M  V30 8882 C 829.699 -5.25041 3.1464 0
M  V30 8883 N 828.836 -6.41685 2.84929 0
M  V30 8884 H 833.676 -1.98041 2.22674 0
M  V30 8885 H 831.213 -0.968755 1.10696 0
M  V30 8886 H 833.171 -4.07426 0.897749 0
M  V30 8887 H 831.801 -3.22517 0.135151 0
M  V30 8888 H 830.853 -2.84507 2.52507 0
M  V30 8889 H 832.165 -3.87263 3.14371 0
M  V30 8890 H 831.319 -5.79803 1.78643 0
M  V30 8891 H 830.058 -4.75958 1.06374 0
M  V30 8892 H 829.063 -4.3706 3.33554 0
M  V30 8893 H 830.288 -5.44346 4.06035 0
M  V30 8894 H 828.234 -6.25747 1.96918 0
M  V30 8895 H 828.151 -6.6131 3.66341 0
M  V30 8896 H 829.419 -7.31198 2.70128 0
M  V30 8897 N 833.648 -1.19017 -1.03309 0
M  V30 8898 C 834.897 -0.984542 -1.76039 0
M  V30 8899 C 835.21 0.485937 -1.89468 0
M  V30 8900 O 836.416 0.810278 -2.59127 0
M  V30 8901 C 834.872 -1.71261 -3.1654 0
M  V30 8902 C 834.48 -3.22291 -3.11179 0
M  V30 8903 C 836.224 -1.59007 -3.93595 0
M  V30 8904 C 834.131 -3.87704 -4.46587 0
M  V30 8905 H 833.061 -0.364749 -0.659905 0
M  V30 8906 H 835.712 -1.4247 -1.15649 0
M  V30 8907 H 834.094 -1.20025 -3.77373 0
M  V30 8908 H 835.268 -3.80611 -2.59753 0
M  V30 8909 H 833.583 -3.34772 -2.47622 0
M  V30 8910 H 836.18 -2.05232 -4.93745 0
M  V30 8911 H 836.523 -0.543534 -4.12736 0
M  V30 8912 H 837.056 -2.07564 -3.39355 0
M  V30 8913 H 833.795 -4.92437 -4.3265 0
M  V30 8914 H 833.315 -3.34172 -4.98085 0
M  V30 8915 H 834.994 -3.91008 -5.15482 0
M  V30 8916 N 835.127 1.22348 -0.993418 0
M  V30 8917 C 836.367 1.92835 -0.677779 0
M  V30 8918 C 836.731 1.75624 0.775893 0
M  V30 8919 O 837.932 2.40379 1.20297 0
M  V30 8920 C 836.203 3.40906 -1.07322 0
M  V30 8921 S 837.762 4.29966 -0.876032 0
M  V30 8922 H 834.58 0.666421 -0.247799 0
M  V30 8923 H 837.182 1.48133 -1.27581 0
M  V30 8924 H 835.886 3.50946 -2.12756 0
M  V30 8925 H 835.417 3.90618 -0.467015 0
M  V30 8926 H 837.432 4.95652 0.233162 0
M  V30 8927 N 836.605 0.766683 1.37694 0
M  V30 8928 C 837.515 0.150158 2.34119 0
M  V30 8929 C 838.531 -0.685513 1.59927 0
M  V30 8930 O 839.707 -0.606616 1.92047 0
M  V30 8931 C 836.772 -0.722562 3.39087 0
M  V30 8932 C 835.833 0.128983 4.29106 0
M  V30 8933 C 835.066 -0.702178 5.29061 0
M  V30 8934 O 835.289 -1.93954 5.36412 0
M  V30 8935 O 834.223 -0.114056 6.01792 0
M  V30 8936 H 838.049 0.946829 2.88563 0
M  V30 8937 H 835.634 0.527765 1.39768 0
M  V30 8938 H 837.516 -1.22095 4.03325 0
M  V30 8939 H 836.191 -1.49751 2.86978 0
M  V30 8940 H 835.098 0.673612 3.67985 0
M  V30 8941 H 836.431 0.866892 4.84506 0
M  V30 8942 N 838.083 -1.48885 0.516809 0
M  V30 8943 C 838.993 -2.33185 -0.257293 0
M  V30 8944 C 840.009 -1.4565 -0.951952 0
M  V30 8945 O 841.185 -1.78651 -0.929834 0
M  V30 8946 C 838.25 -3.21465 -1.29851 0
M  V30 8947 C 837.311 -4.24863 -0.615608 0
M  V30 8948 C 836.544 -5.08925 -1.60722 0
M  V30 8949 O 836.767 -4.9475 -2.83863 0
M  V30 8950 O 835.701 -5.90737 -1.15384 0
M  V30 8951 H 839.527 -3.00596 0.433131 0
M  V30 8952 H 837.112 -1.46792 0.277908 0
M  V30 8953 H 838.994 -3.76108 -1.90055 0
M  V30 8954 H 837.669 -2.5673 -1.97158 0
M  V30 8955 H 836.576 -3.74091 0.0265829 0
M  V30 8956 H 837.909 -4.92198 0.0152871 0
M  V30 8957 N 839.561 -0.251338 -1.55583 0
M  V30 8958 C 840.524 0.63305 -2.20284 0
M  V30 8959 C 841.524 1.09941 -1.17344 0
M  V30 8960 O 842.714 1.00341 -1.42399 0
M  V30 8961 C 839.846 1.8706 -2.84993 0
M  V30 8962 H 841.039 0.0684846 -2.99822 0
M  V30 8963 H 838.592 -0.00181653 -1.563 0
M  V30 8964 H 839.327 2.47629 -2.09405 0
M  V30 8965 H 839.112 1.54436 -3.60405 0
M  V30 8966 H 840.602 2.50004 -3.34496 0
M  V30 8967 N 841.039 1.57585 0.0217189 0
M  V30 8968 C 842.286 1.89606 0.711045 0
M  V30 8969 C 842.614 0.849535 1.74966 0
M  V30 8970 O 841.869 -0.14856 1.95135 0
M  V30 8971 C 842.168 3.28377 1.41079 0
M  V30 8972 C 841.834 4.48035 0.507454 0
M  V30 8973 C 840.496 4.80504 0.258672 0
M  V30 8974 C 842.848 5.21071 -0.115793 0
M  V30 8975 C 840.176 5.83393 -0.622013 0
M  V30 8976 C 842.528 6.24897 -0.984224 0
M  V30 8977 C 841.192 6.55836 -1.2424 0
M  V30 8978 H 840.462 0.693817 0.26019 0
M  V30 8979 H 843.109 1.91478 -0.0291424 0
M  V30 8980 H 841.414 3.22528 2.22448 0
M  V30 8981 H 843.111 3.50404 1.94982 0
M  V30 8982 H 839.701 4.22653 0.711516 0
M  V30 8983 H 843.885 4.96259 0.0634327 0
M  V30 8984 H 839.141 6.05736 -0.830267 0
M  V30 8985 H 843.315 6.8063 -1.47363 0
M  V30 8986 H 840.942 7.35383 -1.92653 0
M  V30 8987 N 842.517 -0.29412 1.54831 0
M  V30 8988 C 843.48 -1.3461 1.85507 0
M  V30 8989 C 844.48 -1.43359 0.728343 0
M  V30 8990 O 845.67 -1.42875 0.996609 0
M  V30 8991 C 842.802 -2.73012 2.0415 0
M  V30 8992 H 843.995 -1.08651 2.79526 0
M  V30 8993 H 841.548 -0.531138 1.46999 0
M  V30 8994 H 842.283 -3.04183 1.12441 0
M  V30 8995 H 842.068 -2.68051 2.86166 0
M  V30 8996 H 843.558 -3.49061 2.29229 0
M  V30 8997 N 843.995 -1.47404 -0.557645 0
M  V30 8998 C 845.411 -1.32913 -0.88353 0
M  V30 8999 C 845.611 -0.31929 -1.98954 0
M  V30 9000 O 844.667 0.26934 -2.51059 0
M  V30 9001 C 845.98 -2.72229 -1.27718 0
M  V30 9002 C 847.528 -2.8051 -1.38863 0
M  V30 9003 C 848.003 -4.20466 -1.81583 0
M  V30 9004 N 849.494 -4.23005 -1.88735 0
M  V30 9005 C 850.229 -5.2821 -2.23118 0
M  V30 9006 N 849.725 -6.4372 -2.56117 0
M  V30 9007 N 851.518 -5.15588 -2.23888 0
M  V30 9008 H 843.669 -2.11698 0.172557 0
M  V30 9009 H 845.932 -0.947889 0.0145334 0
M  V30 9010 H 845.638 -3.47556 -0.538329 0
M  V30 9011 H 845.512 -3.03971 -2.23342 0
M  V30 9012 H 847.899 -2.05457 -2.11829 0
M  V30 9013 H 847.98 -2.52423 -0.414274 0
M  V30 9014 H 847.624 -4.96025 -1.09187 0
M  V30 9015 H 847.554 -4.45977 -2.80021 0
M  V30 9016 H 850.045 -3.39674 -1.65621 0
M  V30 9017 H 850.358 -7.19754 -2.81378 0
M  V30 9018 H 848.703 -6.47041 -2.53698 0
M  V30 9019 H 851.894 -4.24374 -1.97546 0
M  V30 9020 H 852.067 -5.97685 -2.50353 0
M  V30 9021 N 845.473 0.80434 -1.35529 0
M  V30 9022 C 846.698 1.598 -1.32207 0
M  V30 9023 C 847.123 1.87848 0.0974226 0
M  V30 9024 O 846.481 1.46728 1.06492 0
M  V30 9025 C 846.529 2.90483 -2.13663 0
M  V30 9026 O 845.633 3.83411 -1.51888 0
M  V30 9027 H 844.974 0.485305 -0.453183 0
M  V30 9028 H 847.504 0.998119 -1.78602 0
M  V30 9029 H 847.514 3.39888 -2.257 0
M  V30 9030 H 846.189 2.69395 -3.16859 0
M  V30 9031 H 844.766 3.41967 -1.48704 0
M  V30 9032 N 846.951 1.19563 1.02676 0
M  V30 9033 C 847.898 0.935291 2.11 0
M  V30 9034 C 848.868 -0.130685 1.65585 0
M  V30 9035 O 850.053 0.0119062 1.90796 0
M  V30 9036 C 847.193 0.482384 3.41712 0
M  V30 9037 C 846.306 1.61537 4.00662 0
M  V30 9038 C 845.441 1.11378 5.19392 0
M  V30 9039 C 844.48 2.22052 5.70403 0
M  V30 9040 N 843.617 1.73185 6.80405 0
M  V30 9041 H 848.457 1.86275 2.32606 0
M  V30 9042 H 845.994 0.928656 1.14081 0
M  V30 9043 H 847.952 0.20118 4.16715 0
M  V30 9044 H 846.582 -0.408086 3.2021 0
M  V30 9045 H 845.634 2.01173 3.22852 0
M  V30 9046 H 846.946 2.44912 4.34534 0
M  V30 9047 H 846.1 0.787935 6.01562 0
M  V30 9048 H 844.839 0.249789 4.8706 0
M  V30 9049 H 843.844 2.55465 4.86845 0
M  V30 9050 H 845.069 3.08911 6.04774 0
M  V30 9051 H 843.015 0.890973 6.49921 0
M  V30 9052 H 842.932 2.50148 7.13416 0
M  V30 9053 H 844.2 1.4357 7.66164 0
M  V30 9054 N 848.429 -1.21819 0.999893 0
M  V30 9055 C 849.706 -1.86318 0.595384 0
M  V30 9056 C 850.086 -1.8965 -0.927143 0
M  V30 9057 O 849.434 -1.3921 -1.81199 0
M  V30 9058 C 849.644 -3.26837 1.22387 0
M  V30 9059 C 850.992 -4.03272 1.32878 0
M  V30 9060 O 852.016 -3.36129 1.1788 0
M  V30 9061 O 850.875 -5.23477 1.56952 0
M  V30 9062 H 847.969 -0.801638 0.203238 0
M  V30 9063 H 850.515 -1.29542 1.09622 0
M  V30 9064 H 849.287 -3.19084 2.26497 0
M  V30 9065 H 848.91 -3.91226 0.709069 0
M  V30 9066 N 849.908 -0.773975 -1.37286 0
M  V30 9067 C 850.818 -0.162571 -2.34036 0
M  V30 9068 C 851.834 0.677022 -1.60289 0
M  V30 9069 O 853.01 0.596423 -1.92366 0
M  V30 9070 C 850.075 0.70457 -3.39465 0
M  V30 9071 C 849.136 -0.151738 -4.29032 0
M  V30 9072 C 848.369 0.674111 -5.29426 0
M  V30 9073 O 848.592 1.91107 -5.37433 0
M  V30 9074 O 847.526 0.0821398 -6.01844 0
M  V30 9075 H 851.352 -0.962119 -2.88057 0
M  V30 9076 H 848.937 -0.53517 -1.39486 0
M  V30 9077 H 850.819 1.19954 -4.03967 0
M  V30 9078 H 849.494 1.48227 -2.87768 0
M  V30 9079 H 848.401 -0.693118 -3.67623 0
M  V30 9080 H 849.734 -0.892575 -4.84039 0
M  V30 9081 N 851.386 1.48609 -0.524698 0
M  V30 9082 C 852.333 2.29539 0.240956 0
M  V30 9083 C 853.303 1.37033 0.938681 0
M  V30 9084 O 854.488 1.65996 0.940737 0
M  V30 9085 C 851.628 3.20278 1.28514 0
M  V30 9086 C 850.741 4.27858 0.596798 0
M  V30 9087 C 849.876 5.05784 1.62346 0
M  V30 9088 C 848.915 6.05173 0.918287 0
M  V30 9089 N 848.052 6.76176 1.89025 0
M  V30 9090 H 852.892 2.945 -0.455368 0
M  V30 9091 H 850.429 1.45188 -0.236403 0
M  V30 9092 H 852.387 3.71281 1.90279 0
M  V30 9093 H 851.017 2.57251 1.94992 0
M  V30 9094 H 850.069 3.80162 -0.134668 0
M  V30 9095 H 851.381 4.98782 0.0428506 0
M  V30 9096 H 850.535 5.60775 2.31553 0
M  V30 9097 H 849.274 4.34687 2.2113 0
M  V30 9098 H 848.279 5.49391 0.21212 0
M  V30 9099 H 849.504 6.78265 0.336633 0
M  V30 9100 H 847.45 6.07834 2.46726 0
M  V30 9101 H 847.367 7.43157 1.3876 0
M  V30 9102 H 848.635 7.35759 2.57446 0
M  V30 9103 N 852.864 0.259585 1.55447 0
M  V30 9104 C 854.113 -0.362163 1.98422 0
M  V30 9105 C 854.426 -1.58135 1.1512 0
M  V30 9106 O 855.632 -2.27506 1.48166 0
M  V30 9107 C 854.088 -0.695722 3.53111 0
M  V30 9108 C 853.696 0.502784 4.4517 0
M  V30 9109 C 855.44 -1.28096 4.04712 0
M  V30 9110 C 853.347 0.144674 5.91223 0
M  V30 9111 H 852.277 -0.139092 0.74106 0
M  V30 9112 H 854.928 0.361798 1.79898 0
M  V30 9113 H 853.31 -1.47816 3.67378 0
M  V30 9114 H 854.484 1.27994 4.42667 0
M  V30 9115 H 852.799 1.0038 4.0412 0
M  V30 9116 H 855.396 -1.56243 5.11363 0
M  V30 9117 H 855.739 -2.20969 3.52815 0
M  V30 9118 H 856.272 -0.561146 3.93822 0
M  V30 9119 H 853.011 1.04087 6.47183 0
M  V30 9120 H 852.531 -0.596023 5.96831 0
M  V30 9121 H 854.21 -0.268651 6.46442 0
M  V30 9122 N 854.342 -1.57594 -0.0133615 0
M  V30 9123 C 855.272 -2.10611 -1.00823 0
M  V30 9124 C 856.253 -1.01217 -1.36708 0
M  V30 9125 O 857.438 -1.28827 -1.45318 0
M  V30 9126 C 854.568 -2.59844 -2.30431 0
M  V30 9127 C 853.522 -3.73644 -2.08745 0
M  V30 9128 C 852.848 -4.09141 -3.4425 0
M  V30 9129 C 854.148 -5.01454 -1.46086 0
M  V30 9130 H 855.842 -2.93985 -0.566849 0
M  V30 9131 H 853.388 -1.41423 -0.271219 0
M  V30 9132 H 855.341 -2.95557 -3.00373 0
M  V30 9133 H 854.065 -1.73573 -2.76658 0
M  V30 9134 H 852.724 -3.38303 -1.41232 0
M  V30 9135 H 852.372 -3.19914 -3.88155 0
M  V30 9136 H 852.072 -4.85802 -3.3056 0
M  V30 9137 H 853.596 -4.47402 -4.15528 0
M  V30 9138 H 855.01 -5.35024 -2.05966 0
M  V30 9139 H 853.407 -5.82832 -1.42924 0
M  V30 9140 H 854.477 -4.83003 -0.428471 0
M  V30 9141 N 855.82 0.285905 -1.54985 0
M  V30 9142 C 856.77 1.35505 -1.83364 0
M  V30 9143 C 857.754 1.45273 -0.691698 0
M  V30 9144 O 858.946 1.49172 -0.952725 0
M  V30 9145 C 856.075 2.71756 -2.0977 0
M  V30 9146 C 855.161 2.6615 -3.30189 0
M  V30 9147 N 855.552 2.30161 -4.50399 0
M  V30 9148 C 853.85 2.97232 -3.3252 0
M  V30 9149 C 854.551 2.34228 -5.32459 0
M  V30 9150 N 853.527 2.72187 -4.70548 0
M  V30 9151 H 857.329 1.06668 -2.7386 0
M  V30 9152 H 854.843 0.494521 -1.54688 0
M  V30 9153 H 856.84 3.48864 -2.28253 0
M  V30 9154 H 855.5 3.01492 -1.20551 0
M  V30 9155 H 856.511 2.02358 -4.7673 0
M  V30 9156 H 853.188 3.31764 -2.53454 0
M  V30 9157 H 854.578 2.09074 -6.38543 0
M  V30 9158 N 857.298 1.47698 0.54982 0
M  V30 9159 C 858.547 1.53961 1.30303 0
M  V30 9160 C 858.86 0.209731 1.94472 0
M  V30 9161 O 860.066 0.150418 2.71083 0
M  V30 9162 C 858.522 2.71436 2.36328 0
M  V30 9163 C 858.13 4.10983 1.78316 0
M  V30 9164 C 859.874 2.86996 3.12783 0
M  V30 9165 C 857.781 5.19747 2.82164 0
M  V30 9166 H 856.711 0.573098 0.489975 0
M  V30 9167 H 859.362 1.73989 0.583089 0
M  V30 9168 H 857.744 2.44801 3.11269 0
M  V30 9169 H 858.918 4.47552 1.09697 0
M  V30 9170 H 857.233 4.00371 1.1442 0
M  V30 9171 H 859.83 3.65422 3.90347 0
M  V30 9172 H 860.173 1.95712 3.67427 0
M  V30 9173 H 860.706 3.13436 2.44954 0
M  V30 9174 H 857.445 6.12932 2.32366 0
M  V30 9175 H 856.965 4.87688 3.49171 0
M  V30 9176 H 858.644 5.47014 3.4552 0
M  V30 9177 N 858.776 -0.797141 1.35954 0
M  V30 9178 C 859.723 -1.90944 1.2965 0
M  V30 9179 C 860.693 -1.65262 0.166628 0
M  V30 9180 O 861.878 -1.87527 0.351883 0
M  V30 9181 C 859.018 -3.27637 1.08389 0
M  V30 9182 C 858.131 -3.65442 2.30382 0
M  V30 9183 C 857.266 -4.91213 2.02195 0
M  V30 9184 C 856.305 -5.21674 3.20191 0
M  V30 9185 N 855.442 -6.38627 2.91719 0
M  V30 9186 H 860.282 -1.95668 2.24762 0
M  V30 9187 H 857.819 -0.95696 1.11717 0
M  V30 9188 H 859.777 -4.06451 0.940912 0
M  V30 9189 H 858.407 -3.22355 0.169351 0
M  V30 9190 H 857.459 -2.81813 2.55511 0
M  V30 9191 H 858.771 -3.83907 3.18461 0
M  V30 9192 H 857.925 -5.77876 1.84783 0
M  V30 9193 H 856.664 -4.74803 1.11416 0
M  V30 9194 H 855.669 -4.33498 3.38171 0
M  V30 9195 H 856.894 -5.40009 4.11786 0
M  V30 9196 H 854.84 -6.23623 2.03543 0
M  V30 9197 H 854.757 -6.57387 3.73334 0
M  V30 9198 H 856.025 -7.28292 2.77868 0
M  V30 9199 N 860.254 -1.20106 -1.0204 0
M  V30 9200 C 861.204 -0.914145 -2.08872 0
M  V30 9201 C 862.188 0.124503 -1.60418 0
M  V30 9202 O 863.38 -0.0823521 -1.76808 0
M  V30 9203 C 860.509 -0.463897 -3.40151 0
M  V30 9204 C 859.595 -1.53576 -3.95317 0
M  V30 9205 N 859.986 -2.75726 -4.24038 0
M  V30 9206 C 858.284 -1.40103 -4.23423 0
M  V30 9207 C 858.985 -3.44838 -4.68468 0
M  V30 9208 N 857.961 -2.72245 -4.70514 0
M  V30 9209 H 861.763 -1.8424 -2.28982 0
M  V30 9210 H 859.277 -1.0945 -1.19977 0
M  V30 9211 H 861.274 -0.239766 -4.1621 0
M  V30 9212 H 859.934 0.457779 -3.21457 0
M  V30 9213 H 860.945 -3.12412 -4.13061 0
M  V30 9214 H 857.622 -0.543472 -4.13948 0
M  V30 9215 H 859.012 -4.49342 -4.99541 0
M  V30 9216 N 861.732 1.21287 -1.00634 0
M  V30 9217 C 862.978 1.90957 -0.70051 0
M  V30 9218 C 863.333 1.76729 0.760567 0
M  V30 9219 O 862.626 1.13405 1.54434 0
M  V30 9220 C 862.82 3.41374 -1.05824 0
M  V30 9221 C 862.649 3.70237 -2.55254 0
M  V30 9222 C 861.419 3.89518 -3.21876 0
M  V30 9223 C 863.617 3.73633 -3.53417 0
M  V30 9224 N 861.599 4.05809 -4.60643 0
M  V30 9225 C 862.97 3.95225 -4.777 0
M  V30 9226 C 865.025 3.56545 -3.47534 0
M  V30 9227 C 863.728 4.01502 -5.96815 0
M  V30 9228 C 865.754 3.64089 -4.6604 0
M  V30 9229 C 865.116 3.86144 -5.89128 0
M  V30 9230 H 861.215 0.718861 -0.307835 0
M  V30 9231 H 863.799 1.45913 -1.28908 0
M  V30 9232 H 861.97 3.85193 -0.498106 0
M  V30 9233 H 863.702 3.98476 -0.707006 0
M  V30 9234 H 860.457 3.87479 -2.72318 0
M  V30 9235 H 860.881 4.17854 -5.32661 0
M  V30 9236 H 865.523 3.38469 -2.53375 0
M  V30 9237 H 863.241 4.18378 -6.91365 0
M  V30 9238 H 866.827 3.52188 -4.63092 0
M  V30 9239 H 865.707 3.91827 -6.79295 0
M  V30 9240 N 863.21 0.781244 1.36873 0
M  V30 9241 C 864.14 0.188128 2.32741 0
M  V30 9242 C 865.121 -0.672326 1.56249 0
M  V30 9243 O 866.306 -0.607835 1.84442 0
M  V30 9244 C 863.436 -0.684341 3.40491 0
M  V30 9245 C 862.39 0.0755641 4.27933 0
M  V30 9246 C 861.716 -0.916968 5.26779 0
M  V30 9247 C 863.016 1.26006 5.06873 0
M  V30 9248 H 864.71 0.989016 2.82593 0
M  V30 9249 H 862.256 0.477038 1.35869 0
M  V30 9250 H 864.209 -1.10915 4.06541 0
M  V30 9251 H 862.933 -1.51785 2.89187 0
M  V30 9252 H 861.592 0.481258 3.63427 0
M  V30 9253 H 861.24 -1.74528 4.71751 0
M  V30 9254 H 860.94 -0.413 5.86147 0
M  V30 9255 H 862.464 -1.34052 5.95703 0
M  V30 9256 H 863.878 0.911425 5.66009 0
M  V30 9257 H 862.275 1.69676 5.75613 0
M  V30 9258 H 863.345 2.05948 4.38991 0
M  V30 9259 N 864.689 -1.48329 0.532571 0
M  V30 9260 C 865.966 -1.95492 -0.0650985 0
M  V30 9261 C 866.346 -1.47485 -1.51034 0
M  V30 9262 O 865.694 -0.702516 -2.17433 0
M  V30 9263 C 865.904 -3.48957 0.0548341 0
M  V30 9264 C 867.252 -4.24475 -0.103115 0
M  V30 9265 O 868.276 -3.56195 -0.0188343 0
M  V30 9266 O 867.135 -5.45781 -0.280164 0
M  V30 9267 H 864.229 -0.823327 -0.0778603 0
M  V30 9268 H 866.775 -1.58839 0.597353 0
M  V30 9269 H 865.547 -3.76628 1.06148 0
M  V30 9270 H 865.17 -3.92311 -0.64635 0
M  V30 9271 N 866.167 -0.267825 -1.55308 0
M  V30 9272 C 867.392 0.357487 -2.04296 0
M  V30 9273 C 867.817 1.49222 -1.14518 0
M  V30 9274 O 867.175 1.80741 -0.142292 0
M  V30 9275 C 867.223 0.822899 -3.51085 0
M  V30 9276 O 866.327 1.93078 -3.6441 0
M  V30 9277 H 865.668 0.075025 -0.659748 0
M  V30 9278 H 868.198 -0.399996 -2.00652 0
M  V30 9279 H 868.208 1.12059 -3.92309 0
M  V30 9280 H 866.883 -0.0073562 -4.15899 0
M  V30 9281 H 865.46 1.63618 -3.35087 0
M  V30 9282 N 867.645 1.57599 0.00500368 0
M  V30 9283 C 869.056 1.78462 0.54848 0
M  V30 9284 C 869.407 0.901869 1.74243 0
M  V30 9285 O 868.532 0.103014 2.16155 0
M  V30 9286 C 869.127 3.2365 1.00179 0
M  V30 9287 C 867.686 3.45627 1.49061 0
M  V30 9288 C 866.833 2.73794 0.439531 0
M  V30 9289 H 869.784 1.57151 -0.22118 0
M  V30 9290 H 869.805 3.31488 1.86805 0
M  V30 9291 H 869.317 3.87873 0.132607 0
M  V30 9292 H 867.418 2.86612 2.38085 0
M  V30 9293 H 867.531 4.54298 1.52152 0
M  V30 9294 H 865.895 2.38267 0.900043 0
M  V30 9295 H 866.678 3.40714 -0.420599 0
M  V30 9296 N 869.123 -0.277682 1.55134 0
M  V30 9297 C 870.369 -1.00733 1.76704 0
M  V30 9298 C 870.724 -1.84107 0.55879 0
M  V30 9299 O 870.017 -1.86275 -0.448591 0
M  V30 9300 C 870.211 -1.92599 3.01065 0
M  V30 9301 C 870.04 -1.18266 4.3387 0
M  V30 9302 C 868.81 -0.900254 4.97216 0
M  V30 9303 C 871.008 -0.575419 5.11071 0
M  V30 9304 N 868.99 -0.129637 6.13763 0
M  V30 9305 C 870.361 0.0612637 6.1997 0
M  V30 9306 C 872.416 -0.482794 4.95554 0
M  V30 9307 C 871.119 0.781637 7.15041 0
M  V30 9308 C 873.145 0.223977 5.90976 0
M  V30 9309 C 872.507 0.849416 6.9926 0
M  V30 9310 H 868.606 -0.35075 0.698927 0
M  V30 9311 H 871.19 -0.283482 1.92625 0
M  V30 9312 H 869.361 -2.62214 2.86528 0
M  V30 9313 H 871.093 -2.5889 3.1106 0
M  V30 9314 H 867.848 -1.20434 4.58031 0
M  V30 9315 H 868.272 0.242865 6.76564 0
M  V30 9316 H 872.914 -0.952023 4.11942 0
M  V30 9317 H 870.632 1.26256 7.98176 0
M  V30 9318 H 874.218 0.2959 5.81047 0
M  V30 9319 H 873.098 1.3876 7.71826 0
M  V30 9320 N 870.601 -1.47988 -0.541979 0
M  V30 9321 C 872.012 -1.49073 -1.12402 0
M  V30 9322 C 872.363 -0.253825 -1.94551 0
M  V30 9323 O 871.488 0.640056 -2.06718 0
M  V30 9324 C 872.083 -2.7011 -2.04514 0
M  V30 9325 C 870.642 -2.74105 -2.5796 0
M  V30 9326 C 869.789 -2.42409 -1.3466 0
M  V30 9327 H 872.74 -1.55277 -0.327818 0
M  V30 9328 H 872.761 -2.47946 -2.88623 0
M  V30 9329 H 872.273 -3.60117 -1.44697 0
M  V30 9330 H 870.374 -1.88276 -3.21532 0
M  V30 9331 H 870.487 -3.75213 -2.97913 0
M  V30 9332 H 868.851 -1.9331 -1.65841 0
M  V30 9333 H 869.634 -3.34642 -0.766133 0
M  V30 9334 N 872.079 0.78992 -1.36375 0
M  V30 9335 C 873.327 1.54472 -1.30319 0
M  V30 9336 C 873.648 1.94647 0.117338 0
M  V30 9337 O 872.918 1.64906 1.05748 0
M  V30 9338 H 871.498 0.572879 -0.479394 0
M  V30 9339 H 874.16 0.941245 -1.70665 0
M  V30 9340 H 873.256 2.45252 -1.93024 0
M  V30 9341 N 873.557 1.20646 1.01402 0
M  V30 9342 C 874.804 1.01819 1.7504 0
M  V30 9343 C 875.132 -0.449386 1.89237 0
M  V30 9344 O 874.387 -1.34985 1.41695 0
M  V30 9345 C 874.686 1.64991 3.17037 0
M  V30 9346 C 874.352 3.14808 3.22811 0
M  V30 9347 C 873.014 3.55692 3.24094 0
M  V30 9348 C 875.366 4.108 3.2077 0
M  V30 9349 C 872.694 4.9109 3.2101 0
M  V30 9350 C 875.046 5.46147 3.19227 0
M  V30 9351 C 873.71 5.86441 3.18815 0
M  V30 9352 H 872.98 0.372582 0.640518 0
M  V30 9353 H 875.627 1.50108 1.18911 0
M  V30 9354 H 873.932 1.08971 3.76341 0
M  V30 9355 H 875.629 1.47937 3.72714 0
M  V30 9356 H 872.219 2.8224 3.2255 0
M  V30 9357 H 876.403 3.80246 3.18946 0
M  V30 9358 H 871.659 5.21569 3.19023 0
M  V30 9359 H 875.833 6.20272 3.166 0
M  V30 9360 H 873.46 6.91328 3.16179 0
M  V30 9361 N 875.035 -1.20752 1.01276 0
M  V30 9362 C 876.282 -1.90021 0.699887 0
M  V30 9363 C 876.61 -1.78604 -0.770113 0
M  V30 9364 O 875.865 -1.16195 -1.57471 0
M  V30 9365 C 876.164 -3.40808 1.07633 0
M  V30 9366 C 875.83 -3.72423 2.54189 0
M  V30 9367 C 874.492 -3.80762 2.94234 0
M  V30 9368 C 876.844 -3.87025 3.49086 0
M  V30 9369 C 874.172 -4.01158 4.28123 0
M  V30 9370 C 876.524 -4.0893 4.82658 0
M  V30 9371 C 875.188 -4.15498 5.22415 0
M  V30 9372 H 874.458 -0.695335 0.256107 0
M  V30 9373 H 877.105 -1.43096 1.27263 0
M  V30 9374 H 875.41 -3.89521 0.421944 0
M  V30 9375 H 877.107 -3.92693 0.811997 0
M  V30 9376 H 873.697 -3.66529 2.22158 0
M  V30 9377 H 877.881 -3.79942 3.19309 0
M  V30 9378 H 873.137 -4.04476 4.58486 0
M  V30 9379 H 877.311 -4.19172 5.56119 0
M  V30 9380 H 874.938 -4.31055 6.26176 0
M  V30 9381 N 876.513 -0.788492 -1.36457 0
M  V30 9382 C 877.741 -0.372365 -2.03522 0
M  V30 9383 C 878.156 1.01093 -1.59454 0
M  V30 9384 O 877.513 1.64824 -0.783535 0
M  V30 9385 C 877.564 -0.425435 -3.58988 0
M  V30 9386 O 877.285 -1.75418 -4.01448 0
M  V30 9387 C 878.786 0.000180167 -4.433 0
M  V30 9388 H 876.006 -0.1536 -0.653183 0
M  V30 9389 H 878.55 -1.06708 -1.74452 0
M  V30 9390 H 876.705 0.220856 -3.8677 0
M  V30 9391 H 877.119 -1.70437 -4.96036 0
M  V30 9392 H 878.593 -0.0880919 -5.5193 0
M  V30 9393 H 879.07 1.05269 -4.26398 0
M  V30 9394 H 879.676 -0.618563 -4.20778 0
M  V30 9395 N 877.991 1.48044 -0.54043 0
M  V30 9396 C 878.921 2.32597 0.205178 0
M  V30 9397 C 879.902 1.42748 0.925041 0
M  V30 9398 O 881.087 1.71624 0.908784 0
M  V30 9399 C 878.217 3.24175 1.24612 0
M  V30 9400 C 877.171 4.23131 0.64376 0
M  V30 9401 C 876.497 5.03915 1.78812 0
M  V30 9402 C 877.797 5.20831 -0.39144 0
M  V30 9403 H 879.491 2.95184 -0.500676 0
M  V30 9404 H 877.037 1.41948 -0.242225 0
M  V30 9405 H 878.99 3.82158 1.77576 0
M  V30 9406 H 877.714 2.59608 1.98169 0
M  V30 9407 H 876.373 3.66349 0.135554 0
M  V30 9408 H 876.021 4.35765 2.51232 0
M  V30 9409 H 875.721 5.709 1.39094 0
M  V30 9410 H 877.245 5.64753 2.32134 0
M  V30 9411 H 878.659 5.73277 0.0515064 0
M  V30 9412 H 877.056 5.95926 -0.706569 0
M  V30 9413 H 878.126 4.6733 -1.29345 0
M  V30 9414 N 879.47 0.276058 1.55163 0
M  V30 9415 C 880.747 -0.392292 1.91626 0
M  V30 9416 C 881.127 -1.73646 1.20043 0
M  V30 9417 O 880.475 -2.26139 0.327606 0
M  V30 9418 C 880.685 -0.531641 3.44927 0
M  V30 9419 C 882.033 -0.8141 4.16722 0
M  V30 9420 O 883.057 -0.616413 3.50826 0
M  V30 9421 O 881.916 -1.19224 5.33337 0
M  V30 9422 H 879.01 -0.214945 0.798579 0
M  V30 9423 H 881.556 0.32228 1.66612 0
M  V30 9424 H 880.328 0.414282 3.89101 0
M  V30 9425 H 879.951 -1.29564 3.75897 0
M  V30 9426 N 880.948 -1.576 0.00335426 0
M  V30 9427 C 882.196 -1.90336 -0.679446 0
M  V30 9428 C 882.517 -0.877777 -1.74127 0
M  V30 9429 O 881.787 0.0843585 -1.95718 0
M  V30 9430 H 880.367 -0.702509 -0.253948 0
M  V30 9431 H 883.029 -1.94848 0.0450731 0
M  V30 9432 H 882.125 -2.90197 -1.14857 0
M  V30 9433 N 882.426 0.269451 -1.5528 0
M  V30 9434 C 883.358 1.35553 -1.84819 0
M  V30 9435 C 884.371 1.45369 -0.732914 0
M  V30 9436 O 885.56 1.47122 -1.0108 0
M  V30 9437 C 882.66 2.73645 -1.9993 0
M  V30 9438 C 881.833 2.86376 -3.30617 0
M  V30 9439 C 880.892 4.05165 -3.35749 0
M  V30 9440 O 879.918 3.95756 -4.09104 0
M  V30 9441 N 881.12 5.17297 -2.63408 0
M  V30 9442 H 883.885 1.10557 -2.78563 0
M  V30 9443 H 881.446 0.459566 -1.5524 0
M  V30 9444 H 883.438 3.51411 -2.00729 0
M  V30 9445 H 882.008 2.91448 -1.13035 0
M  V30 9446 H 881.228 1.95465 -3.42326 0
M  V30 9447 H 882.516 2.91815 -4.16799 0
M  V30 9448 H 881.914 5.2783 -2.03501 0
M  V30 9449 H 880.471 5.93281 -2.69927 0
M  V30 9450 N 883.904 1.48273 0.534124 0
M  V30 9451 C 885.315 1.49667 1.1161 0
M  V30 9452 C 885.666 0.264139 1.94414 0
M  V30 9453 O 884.791 -0.629084 2.07054 0
M  V30 9454 C 885.386 2.71191 2.03079 0
M  V30 9455 C 883.945 2.7547 2.56502 0
M  V30 9456 C 883.092 2.43119 1.33373 0
M  V30 9457 H 886.043 1.55449 0.319578 0
M  V30 9458 H 886.064 2.49473 2.87304 0
M  V30 9459 H 885.576 3.60879 1.42785 0
M  V30 9460 H 883.677 1.89979 3.20529 0
M  V30 9461 H 883.79 3.76787 2.95919 0
M  V30 9462 H 882.154 1.94187 1.64813 0
M  V30 9463 H 882.937 3.35044 0.748375 0
M  V30 9464 N 885.382 -0.782676 1.36792 0
M  V30 9465 C 886.798 -1.08169 1.17352 0
M  V30 9466 C 886.998 -2.015 0.0022037 0
M  V30 9467 O 886.054 -2.43692 -0.661093 0
M  V30 9468 C 887.367 -1.68969 2.48737 0
M  V30 9469 C 888.915 -1.81278 2.55161 0
M  V30 9470 C 889.39 -2.45492 3.86649 0
M  V30 9471 N 890.881 -2.52954 3.88032 0
M  V30 9472 C 891.616 -3.03465 4.86515 0
M  V30 9473 N 891.112 -3.54232 5.95392 0
M  V30 9474 N 892.905 -3.02239 4.73928 0
M  V30 9475 H 885.056 -0.162757 2.11775 0
M  V30 9476 H 887.319 -0.134823 0.938364 0
M  V30 9477 H 887.025 -1.07859 3.34753 0
M  V30 9478 H 886.899 -2.68397 2.65034 0
M  V30 9479 H 889.286 -2.41524 1.69559 0
M  V30 9480 H 889.367 -0.806367 2.42758 0
M  V30 9481 H 889.011 -1.85889 4.7266 0
M  V30 9482 H 888.941 -3.46718 3.96351 0
M  V30 9483 H 891.432 -2.17014 3.09376 0
M  V30 9484 H 891.745 -3.91145 6.66503 0
M  V30 9485 H 890.09 -3.52366 5.99052 0
M  V30 9486 H 893.281 -2.61871 3.87996 0
M  V30 9487 H 893.454 -3.41295 5.50837 0
M  V30 9488 N 886.86 -1.21182 -1.00761 0
M  V30 9489 C 888.085 -1.05411 -1.78615 0
M  V30 9490 C 888.51 0.391837 -1.83973 0
M  V30 9491 O 887.868 1.28256 -1.28141 0
M  V30 9492 C 887.916 -1.65285 -3.20489 0
M  V30 9493 O 887.02 -0.896558 -4.02536 0
M  V30 9494 H 886.361 -0.37116 -0.550578 0
M  V30 9495 H 888.891 -1.60669 -1.26676 0
M  V30 9496 H 888.901 -1.69397 -3.71172 0
M  V30 9497 H 887.576 -2.70514 -3.15904 0
M  V30 9498 H 886.153 -0.930335 -3.61108 0
M  V30 9499 N 888.338 1.20213 -1.01915 0
M  V30 9500 C 889.271 2.2181 -0.536243 0
M  V30 9501 C 890.249 1.57144 0.417689 0
M  V30 9502 O 891.433 1.85461 0.337088 0
M  V30 9503 C 888.56 3.37989 0.219303 0
M  V30 9504 C 887.606 4.2097 -0.684571 0
M  V30 9505 S 888.439 4.90216 -2.15519 0
M  V30 9506 C 889.595 6.09814 -1.40988 0
M  V30 9507 H 889.828 2.62429 -1.39709 0
M  V30 9508 H 887.361 1.30305 -0.828254 0
M  V30 9509 H 889.319 4.05335 0.649112 0
M  V30 9510 H 887.98 2.95825 1.05575 0
M  V30 9511 H 887.173 5.03897 -0.101833 0
M  V30 9512 H 886.775 3.58892 -1.05227 0
M  V30 9513 H 889.067 6.73964 -0.691243 0
M  V30 9514 H 890.01 6.72552 -2.21539 0
M  V30 9515 H 890.418 5.5709 -0.911645 0
M  V30 9516 N 889.816 0.795718 1.36037 0
M  V30 9517 C 891.041 0.38204 2.03851 0
M  V30 9518 C 891.466 -0.995553 1.59594 0
M  V30 9519 O 890.824 -1.64258 0.767401 0
M  V30 9520 C 890.872 0.461248 3.57638 0
M  V30 9521 O 889.976 -0.529448 4.08987 0
M  V30 9522 H 889.317 0.161227 0.644129 0
M  V30 9523 H 891.847 1.07858 1.73861 0
M  V30 9524 H 891.857 0.32712 4.06687 0
M  V30 9525 H 890.532 1.46613 3.89201 0
M  V30 9526 H 889.109 -0.35646 3.71192 0
M  V30 9527 N 891.294 -1.47756 0.548274 0
M  V30 9528 C 892.534 -2.04387 0.0231354 0
M  V30 9529 C 892.898 -1.41438 -1.29843 0
M  V30 9530 O 894.099 -1.89064 -1.91072 0
M  V30 9531 C 892.37 -3.57316 -0.077482 0
M  V30 9532 S 893.929 -4.35339 -0.550038 0
M  V30 9533 H 890.747 -0.710694 0.0208428 0
M  V30 9534 H 893.349 -1.81239 0.732984 0
M  V30 9535 H 892.053 -4.00658 0.88888 0
M  V30 9536 H 891.584 -3.84947 -0.811157 0
M  V30 9537 H 893.599 -4.61957 -1.81135 0
M  V30 9538 N 892.772 -0.284283 -1.55015 0
M  V30 9539 C 894.183 0.211681 -1.85496 0
M  V30 9540 C 894.534 1.54735 -1.2063 0
M  V30 9541 O 893.659 2.10594 -0.497918 0
M  V30 9542 C 894.254 0.390864 -3.36538 0
M  V30 9543 C 892.813 0.831055 -3.67111 0
M  V30 9544 C 891.96 -0.0703581 -2.77211 0
M  V30 9545 H 894.911 -0.505803 -1.50424 0
M  V30 9546 H 894.932 1.22803 -3.60138 0
M  V30 9547 H 894.444 -0.581409 -3.8372 0
M  V30 9548 H 892.545 1.81447 -3.25434 0
M  V30 9549 H 892.658 0.662026 -4.74504 0
M  V30 9550 H 891.022 0.447528 -2.50737 0
M  V30 9551 H 891.805 -1.03868 -3.2721 0
M  V30 9552 N 894.251 1.57596 -0.0117121 0
M  V30 9553 C 895.476 1.95764 0.684938 0
M  V30 9554 C 895.901 0.887285 1.65858 0
M  V30 9555 O 895.259 -0.153508 1.80649 0
M  V30 9556 C 895.307 3.33031 1.38285 0
M  V30 9557 O 894.411 3.28163 2.49765 0
M  V30 9558 H 893.752 0.638767 0.181309 0
M  V30 9559 H 896.282 2.04486 -0.0683883 0
M  V30 9560 H 896.292 3.68866 1.74362 0
M  V30 9561 H 894.967 4.10483 0.669043 0
M  V30 9562 H 893.544 3.04021 2.15929 0
M  V30 9563 N 895.729 -0.261212 1.5542 0
M  V30 9564 C 896.957 -1.00916 1.8062 0
M  V30 9565 C 897.372 -1.79494 0.585444 0
M  V30 9566 O 896.729 -1.76974 -0.445702 0
M  V30 9567 C 896.78 -1.95841 3.03856 0
M  V30 9568 O 896.501 -1.20445 4.21218 0
M  V30 9569 C 898.002 -2.82352 3.41749 0
M  V30 9570 H 895.222 -0.297596 0.601397 0
M  V30 9571 H 897.766 -0.288427 2.02456 0
M  V30 9572 H 895.921 -2.63361 2.84112 0
M  V30 9573 H 896.335 -1.84528 4.90968 0
M  V30 9574 H 897.809 -3.44733 4.31118 0
M  V30 9575 H 898.286 -3.5273 2.61683 0
M  V30 9576 H 898.892 -2.20306 3.63793 0
M  V30 9577 N 897.207 -1.48554 -0.526253 0
M  V30 9578 C 898.455 -1.56452 -1.27935 0
M  V30 9579 C 898.776 -0.24184 -1.93495 0
M  V30 9580 O 898.046 0.736917 -1.81511 0
M  V30 9581 H 896.626 -0.576379 -0.47518 0
M  V30 9582 H 899.288 -1.85039 -0.612083 0
M  V30 9583 H 898.384 -2.34751 -2.05666 0
M  V30 9584 N 898.685 0.775411 -1.37205 0
M  V30 9585 C 899.615 1.90258 -1.35367 0
M  V30 9586 C 900.596 1.68634 -0.222864 0
M  V30 9587 O 901.781 1.89545 -0.422659 0
M  V30 9588 C 898.911 3.27488 -1.15623 0
M  V30 9589 C 897.865 3.63668 -2.25676 0
M  V30 9590 C 897.191 4.994 -1.91059 0
M  V30 9591 C 898.491 3.70797 -3.67841 0
M  V30 9592 H 900.185 1.92053 -2.29687 0
M  V30 9593 H 897.731 0.922597 -1.10563 0
M  V30 9594 H 899.684 4.05976 -1.12968 0
M  V30 9595 H 898.408 3.26117 -0.177573 0
M  V30 9596 H 897.067 2.87486 -2.2748 0
M  V30 9597 H 896.715 4.94565 -0.917324 0
M  V30 9598 H 896.415 5.24576 -2.64751 0
M  V30 9599 H 897.939 5.80291 -1.89985 0
M  V30 9600 H 899.353 4.39444 -3.68187 0
M  V30 9601 H 897.75 4.07468 -4.40556 0
M  V30 9602 H 898.82 2.71549 -4.01732 0
M  V30 9603 N 900.163 1.21714 1.00117 0
M  V30 9604 C 901.391 1.06278 1.77518 0
M  V30 9605 C 901.806 -0.387193 1.84787 0
M  V30 9606 O 901.163 -1.26854 1.31203 0
M  V30 9607 C 901.214 1.65795 3.21239 0
M  V30 9608 O 900.935 3.05119 3.14378 0
M  V30 9609 C 902.436 1.55521 4.15124 0
M  V30 9610 H 899.656 0.373013 0.557765 0
M  V30 9611 H 902.2 1.61133 1.25922 0
M  V30 9612 H 900.355 1.15022 3.69931 0
M  V30 9613 H 900.769 3.33643 4.04701 0
M  V30 9614 H 902.243 2.01902 5.13751 0
M  V30 9615 H 902.72 0.510307 4.36225 0
M  V30 9616 H 903.326 2.0556 3.72324 0
M  V30 9617 N 901.641 -1.19671 1.02551 0
M  V30 9618 C 902.551 -2.26441 0.613329 0
M  V30 9619 C 903.567 -1.70375 -0.353339 0
M  V30 9620 O 904.743 -2.0028 -0.212064 0
M  V30 9621 C 901.808 -3.46684 -0.0329028 0
M  V30 9622 C 900.869 -4.17945 0.980837 0
M  V30 9623 C 900.102 -5.32448 0.36535 0
M  V30 9624 O 900.325 -5.64291 -0.832596 0
M  V30 9625 O 899.259 -5.92012 1.08652 0
M  V30 9626 H 903.085 -2.63932 1.50246 0
M  V30 9627 H 900.67 -1.2646 0.795502 0
M  V30 9628 H 902.552 -4.1956 -0.393395 0
M  V30 9629 H 901.227 -3.1105 -0.896089 0
M  V30 9630 H 900.134 -3.47204 1.39286 0
M  V30 9631 H 901.467 -4.57542 1.81428 0
M  V30 9632 N 903.119 -0.802921 -1.35613 0
M  V30 9633 C 904.396 -0.304993 -1.93208 0
M  V30 9634 C 904.776 1.20488 -1.73337 0
M  V30 9635 O 904.124 2.00268 -1.10022 0
M  V30 9636 C 904.334 -0.712383 -3.41652 0
M  V30 9637 C 905.682 -0.699785 -4.18794 0
M  V30 9638 O 906.706 -0.653698 -3.5015 0
M  V30 9639 O 905.565 -0.754842 -5.41262 0
M  V30 9640 H 902.659 -0.0789127 -0.823226 0
M  V30 9641 H 905.205 -0.886372 -1.44712 0
M  V30 9642 H 903.977 -1.75316 -3.49829 0
M  V30 9643 H 903.6 -0.105614 -3.9746 0
M  V30 9644 N 904.597 1.47463 -0.556102 0
M  V30 9645 C 905.846 2.01678 -0.029492 0
M  V30 9646 C 906.159 1.436 1.32809 0
M  V30 9647 O 907.365 1.89472 1.94455 0
M  V30 9648 C 905.821 3.599 -0.00223937 0
M  V30 9649 C 905.429 4.26969 -1.35651 0
M  V30 9650 C 907.173 4.2187 0.471822 0
M  V30 9651 C 905.08 5.77194 -1.28843 0
M  V30 9652 H 904.01 0.753965 -0.00725504 0
M  V30 9653 H 906.661 1.69467 -0.703789 0
M  V30 9654 H 905.043 3.89068 0.737682 0
M  V30 9655 H 906.217 4.09444 -2.11406 0
M  V30 9656 H 904.532 3.76983 -1.76842 0
M  V30 9657 H 907.129 5.31955 0.541139 0
M  V30 9658 H 907.472 3.88968 1.48356 0
M  V30 9659 H 908.005 3.97228 -0.213207 0
M  V30 9660 H 904.744 6.14713 -2.27613 0
M  V30 9661 H 904.264 5.9706 -0.572668 0
M  V30 9662 H 905.943 6.3938 -0.990031 0
M  V30 9663 N 906.075 0.2925 1.54862 0
M  V30 9664 C 907.005 -0.580677 2.26165 0
M  V30 9665 C 907.986 -1.14485 1.25806 0
M  V30 9666 O 909.171 -1.17577 1.54562 0
M  V30 9667 C 906.301 -1.75668 2.99596 0
M  V30 9668 C 905.255 -1.32325 4.07031 0
M  V30 9669 C 904.581 -2.58374 4.68131 0
M  V30 9670 C 905.881 -0.460703 5.20264 0
M  V30 9671 H 907.575 0.0140075 2.99397 0
M  V30 9672 H 905.121 0.00817706 1.43998 0
M  V30 9673 H 907.074 -2.37356 3.48195 0
M  V30 9674 H 905.798 -2.37747 2.23928 0
M  V30 9675 H 904.457 -0.729477 3.59269 0
M  V30 9676 H 904.105 -3.18749 3.89112 0
M  V30 9677 H 903.805 -2.30078 5.40683 0
M  V30 9678 H 905.329 -3.2088 5.19489 0
M  V30 9679 H 906.743 -0.983037 5.64809 0
M  V30 9680 H 905.14 -0.271881 5.99484 0
M  V30 9681 H 906.21 0.516304 4.82143 0
M  V30 9682 N 907.553 -1.57587 0.0200696 0
M  V30 9683 C 908.781 -1.95718 -0.670964 0
M  V30 9684 C 909.196 -0.896081 -1.6618 0
M  V30 9685 O 908.553 0.123037 -1.82085 0
M  V30 9686 C 908.604 -3.33904 -1.38529 0
M  V30 9687 O 908.325 -4.35943 -0.434167 0
M  V30 9688 C 909.826 -3.86614 -2.16898 0
M  V30 9689 H 907.046 -0.644819 -0.185606 0
M  V30 9690 H 909.59 -2.04354 0.0771495 0
M  V30 9691 H 907.745 -3.26515 -2.08487 0
M  V30 9692 H 908.159 -5.16001 -0.940378 0
M  V30 9693 H 909.633 -4.85673 -2.62346 0
M  V30 9694 H 910.11 -3.20379 -3.00423 0
M  V30 9695 H 910.716 -3.97243 -1.51916 0
M  V30 9696 N 909.032 0.252966 -1.55557 0
M  V30 9697 C 909.982 1.31585 -1.86197 0
M  V30 9698 C 910.966 1.43773 -0.722357 0
M  V30 9699 O 912.158 1.47117 -0.984152 0
M  V30 9700 C 909.287 2.67245 -2.15487 0
M  V30 9701 C 908.373 2.59087 -3.3576 0
M  V30 9702 N 908.764 2.20556 -4.5518 0
M  V30 9703 C 907.062 2.90112 -3.3875 0
M  V30 9704 C 907.763 2.22881 -5.37307 0
M  V30 9705 N 906.739 2.62145 -4.76215 0
M  V30 9706 H 910.541 1.00835 -2.76061 0
M  V30 9707 H 908.055 0.461598 -1.55702 0
M  V30 9708 H 910.052 3.43944 -2.35602 0
M  V30 9709 H 908.712 2.98867 -1.26919 0
M  V30 9710 H 909.723 1.922 -4.80915 0
M  V30 9711 H 906.4 3.26313 -2.60434 0
M  V30 9712 H 907.79 1.95482 -6.42835 0
M  V30 9713 N 910.51 1.48831 0.518367 0
M  V30 9714 C 911.759 1.5669 1.27008 0
M  V30 9715 C 912.072 0.250934 1.93984 0
M  V30 9716 O 913.278 0.207884 2.70703 0
M  V30 9717 C 911.734 2.76387 2.30517 0
M  V30 9718 C 911.342 4.14673 1.69559 0
M  V30 9719 C 913.086 2.93566 3.06625 0
M  V30 9720 C 910.993 5.25616 2.71076 0
M  V30 9721 H 909.923 0.583362 0.477708 0
M  V30 9722 H 912.574 1.75187 0.546052 0
M  V30 9723 H 910.956 2.51348 3.06006 0
M  V30 9724 H 912.13 4.49779 1.00179 0
M  V30 9725 H 910.445 4.02708 1.05902 0
M  V30 9726 H 913.042 3.7362 3.82508 0
M  V30 9727 H 913.385 2.03462 3.63193 0
M  V30 9728 H 913.918 3.18562 2.38251 0
M  V30 9729 H 910.657 6.17723 2.19313 0
M  V30 9730 H 910.177 4.94985 3.38748 0
M  V30 9731 H 911.856 5.5422 3.3384 0
M  V30 9732 N 911.988 -0.768124 1.37614 0
M  V30 9733 C 913.236 -1.52379 1.3276 0
M  V30 9734 C 913.557 -1.94809 -0.0863564 0
M  V30 9735 O 912.827 -1.66568 -1.03112 0
M  V30 9736 H 911.407 -0.565179 0.488448 0
M  V30 9737 H 914.069 -0.913974 1.72141 0
M  V30 9738 H 913.165 -2.4215 1.96901 0
M  V30 9739 N 913.466 -1.22244 -0.994698 0
M  V30 9740 C 914.414 -0.988118 -2.10568 0
M  V30 9741 C 915.408 0.0681541 -1.69263 0
M  V30 9742 O 916.614 -0.0841311 -1.79803 0
M  V30 9743 H 912.989 -0.302343 -0.688544 0
M  V30 9744 H 914.96 -1.93091 -2.27505 0
M  V30 9745 C 913.709 -0.580557 -3.42819 0
M  V30 9746 H 913.032 -1.385 -3.75044 0
M  V30 9747 H 914.472 -0.456004 -4.21541 0
M  V30 9748 C 912.931 0.709692 -3.2934 0
M  V30 9749 O 913.461 1.76259 -3.60965 0
M  V30 9750 N 911.667 0.680155 -2.82528 0
M  V30 9751 H 911.214 -0.176977 -2.56991 0
M  V30 9752 H 911.172 1.54372 -2.73892 0
M  V30 9753 N 914.944 1.19125 -1.03184 0
M  V30 9754 C 916.19 1.89163 -0.731111 0
M  V30 9755 C 916.523 1.79604 0.738662 0
M  V30 9756 O 915.798 1.19037 1.53819 0
M  V30 9757 C 916.081 3.39986 -1.18666 0
M  V30 9758 C 915.934 3.58401 -2.71788 0
M  V30 9759 C 917.253 4.33316 -0.769772 0
M  V30 9760 H 914.372 0.686908 -0.267069 0
M  V30 9761 H 917.014 1.40205 -1.28229 0
M  V30 9762 H 915.164 3.81813 -0.717736 0
M  V30 9763 H 916.836 3.25727 -3.26649 0
M  V30 9764 H 915.079 3.01355 -3.12038 0
M  V30 9765 H 915.75 4.64189 -2.98719 0
M  V30 9766 H 918.226 3.9922 -1.17314 0
M  V30 9767 H 917.102 5.37427 -1.11637 0
M  V30 9768 H 917.363 4.40884 0.327681 0
M  V30 9769 N 916.422 0.810101 1.35185 0
M  V30 9770 C 917.385 0.22852 2.28058 0
M  V30 9771 C 918.385 -0.586168 1.49735 0
M  V30 9772 O 919.575 -0.40414 1.69447 0
M  V30 9773 C 916.707 -0.681041 3.34028 0
M  V30 9774 H 917.9 1.04768 2.81005 0
M  V30 9775 H 915.453 0.58101 1.451 0
M  V30 9776 H 916.188 -1.52375 2.86273 0
M  V30 9777 H 915.973 -0.0985276 3.91976 0
M  V30 9778 H 917.463 -1.08217 4.03335 0
M  V30 9779 N 917.9 -1.47166 0.563914 0
M  V30 9780 C 919.125 -2.0735 0.0454698 0
M  V30 9781 C 919.55 -1.41281 -1.24182 0
M  V30 9782 O 918.908 -0.490084 -1.7455 0
M  V30 9783 C 918.956 -3.60378 -0.126453 0
M  V30 9784 O 918.06 -3.94934 -1.18746 0
M  V30 9785 H 917.401 -0.661773 0.0543377 0
M  V30 9786 H 919.931 -1.89086 0.781508 0
M  V30 9787 H 919.941 -4.06593 -0.338554 0
M  V30 9788 H 918.616 -4.07862 0.81373 0
M  V30 9789 H 917.193 -3.60455 -0.955318 0
M  V30 9790 N 919.378 -0.300708 -1.54705 0
M  V30 9791 C 920.603 0.314073 -2.05008 0
M  V30 9792 C 921.028 1.46759 -1.17657 0
M  V30 9793 O 920.386 1.80398 -0.180598 0
M  V30 9794 C 920.434 0.748243 -3.52752 0
M  V30 9795 O 919.538 1.85305 -3.68424 0
M  V30 9796 H 918.879 0.0610139 -0.661191 0
M  V30 9797 H 921.409 -0.442467 -1.99758 0
M  V30 9798 H 921.419 1.03713 -3.94598 0
M  V30 9799 H 920.094 -0.095573 -4.1579 0
M  V30 9800 H 918.671 1.56473 -3.38483 0
M  V30 9801 N 920.856 1.57574 -0.0284266 0
M  V30 9802 C 922.102 1.92056 0.651327 0
M  V30 9803 C 922.435 0.905092 1.71819 0
M  V30 9804 O 921.71 -0.0722703 1.94366 0
M  V30 9805 C 921.993 3.37021 1.26841 0
M  V30 9806 C 921.846 4.49304 0.211157 0
M  V30 9807 C 923.165 3.81936 2.18662 0
M  V30 9808 H 920.284 0.698428 0.235304 0
M  V30 9809 H 922.926 1.89807 -0.0855435 0
M  V30 9810 H 921.076 3.39068 1.89644 0
M  V30 9811 H 922.748 4.5939 -0.419379 0
M  V30 9812 H 920.991 4.31317 -0.463445 0
M  V30 9813 H 921.662 5.47764 0.682518 0
M  V30 9814 H 924.138 3.8162 1.65847 0
M  V30 9815 H 923.014 4.84064 2.58792 0
M  V30 9816 H 923.275 3.174 3.07749 0
M  V30 9817 N 922.334 -0.244713 1.55689 0
M  V30 9818 C 923.745 -0.813603 1.6804 0
M  V30 9819 C 924.096 -1.85936 0.626281 0
M  V30 9820 O 923.221 -2.15206 -0.227038 0
M  V30 9821 C 923.816 -1.48252 3.04642 0
M  V30 9822 C 922.375 -1.99908 3.18926 0
M  V30 9823 C 921.522 -0.850958 2.6392 0
M  V30 9824 H 924.473 -0.0204805 1.58687 0
M  V30 9825 H 924.494 -2.35062 2.99209 0
M  V30 9826 H 924.006 -0.721164 3.81341 0
M  V30 9827 H 922.107 -2.78918 2.47054 0
M  V30 9828 H 922.22 -2.19497 4.25862 0
M  V30 9829 H 920.584 -1.25206 2.21801 0
M  V30 9830 H 921.367 -0.10265 3.43146 0
M  V30 9831 N 923.813 -1.49104 -0.510467 0
M  V30 9832 C 925.059 -1.58346 -1.26705 0
M  V30 9833 C 925.392 -0.265121 -1.92382 0
M  V30 9834 O 924.667 0.730558 -1.80258 0
M  V30 9835 C 924.95 -2.7359 -2.34137 0
M  V30 9836 C 924.803 -4.1519 -1.73024 0
M  V30 9837 C 926.122 -2.84511 -3.3577 0
M  V30 9838 H 923.241 -0.57637 -0.459311 0
M  V30 9839 H 925.883 -1.81353 -0.566658 0
M  V30 9840 H 924.033 -2.54105 -2.93876 0
M  V30 9841 H 925.705 -4.46167 -1.17186 0
M  V30 9842 H 923.948 -4.21279 -1.03473 0
M  V30 9843 H 924.619 -4.91683 -2.50903 0
M  V30 9844 H 927.095 -3.0222 -2.86011 0
M  V30 9845 H 925.971 -3.6684 -4.08313 0
M  V30 9846 H 926.232 -1.93471 -3.97519 0
M  V30 9847 N 925.291 0.760815 -1.38019 0
M  V30 9848 C 926.201 1.90526 -1.36884 0
M  V30 9849 C 927.217 1.71941 -0.266908 0
M  V30 9850 O 928.393 1.94988 -0.50413 0
M  V30 9851 C 925.458 3.25799 -1.18558 0
M  V30 9852 C 924.519 3.56961 -2.3849 0
M  V30 9853 C 923.752 4.8578 -2.21029 0
M  V30 9854 O 923.975 5.57629 -1.20023 0
M  V30 9855 O 922.909 5.16254 -3.0946 0
M  V30 9856 H 926.735 1.94437 -2.33298 0
M  V30 9857 H 924.32 0.905091 -1.18863 0
M  V30 9858 H 926.202 4.0669 -1.1037 0
M  V30 9859 H 924.877 3.22716 -0.252241 0
M  V30 9860 H 923.784 2.7626 -2.52252 0
M  V30 9861 H 925.117 3.64798 -3.30429 0
M  V30 9862 N 926.769 1.22769 0.988202 0
M  V30 9863 C 927.717 0.999271 2.10041 0
M  V30 9864 C 928.711 -0.0591767 1.69297 0
M  V30 9865 O 929.917 0.0936653 1.79756 0
M  V30 9866 H 926.292 0.30599 0.686931 0
M  V30 9867 H 928.263 1.94294 2.26478 0
M  V30 9868 C 927.012 0.59873 3.42506 0
M  V30 9869 H 926.335 1.40487 3.74304 0
M  V30 9870 H 927.775 0.478353 4.21293 0
M  V30 9871 C 926.234 -0.692216 3.29712 0
M  V30 9872 O 926.764 -1.74342 3.61895 0
M  V30 9873 N 924.97 -0.665163 2.82885 0
M  V30 9874 H 924.517 0.190604 2.56894 0
M  V30 9875 H 924.475 -1.52917 2.74706 0
M  V30 9876 N 928.247 -1.18576 1.03814 0
M  V30 9877 C 929.494 -1.88493 0.740036 0
M  V30 9878 C 929.822 -1.80198 -0.732056 0
M  V30 9879 O 929.077 -1.19509 -1.54971 0
M  V30 9880 C 929.376 -3.38448 1.14837 0
M  V30 9881 C 929.042 -3.66947 2.62031 0
M  V30 9882 C 927.704 -3.74435 3.02244 0
M  V30 9883 C 930.056 -3.79534 3.57217 0
M  V30 9884 C 927.384 -3.91986 4.36536 0
M  V30 9885 C 929.736 -3.986 4.91223 0
M  V30 9886 C 928.4 -4.04323 5.31111 0
M  V30 9887 H 927.67 -0.689746 0.270798 0
M  V30 9888 H 930.317 -1.40364 1.3027 0
M  V30 9889 H 928.622 -3.88539 0.504472 0
M  V30 9890 H 930.319 -3.90882 0.89511 0
M  V30 9891 H 926.909 -3.61734 2.29883 0
M  V30 9892 H 931.093 -3.73083 3.27296 0
M  V30 9893 H 926.349 -3.9466 4.66962 0
M  V30 9894 H 930.523 -4.07281 5.64885 0
M  V30 9895 H 928.15 -4.17676 6.35178 0
M  V30 9896 N 929.725 -0.817259 -1.34754 0
M  V30 9897 C 930.953 -0.415451 -2.02686 0
M  V30 9898 C 931.368 0.97688 -1.61563 0
M  V30 9899 O 930.725 1.63125 -0.818321 0
M  V30 9900 C 930.776 -0.501486 -3.58005 0
M  V30 9901 O 930.497 -1.83893 -3.97637 0
M  V30 9902 C 931.998 -0.0938504 -4.43201 0
M  V30 9903 H 929.218 -0.16742 -0.649778 0
M  V30 9904 H 931.762 -1.10384 -1.7215 0
M  V30 9905 H 929.917 0.138766 -3.87151 0
M  V30 9906 H 930.331 -1.8092 -4.92309 0
M  V30 9907 H 931.805 -0.205145 -5.51619 0
M  V30 9908 H 932.282 0.962011 -4.28535 0
M  V30 9909 H 932.888 -0.707677 -4.19371 0
M  V30 9910 N 931.203 1.46865 -0.571711 0
M  V30 9911 C 932.452 2.01636 -0.050881 0
M  V30 9912 C 932.765 1.45001 1.31279 0
M  V30 9913 O 933.971 1.91523 1.92435 0
M  V30 9914 C 932.427 3.59877 -0.0404114 0
M  V30 9915 C 932.035 4.25506 -1.40172 0
M  V30 9916 C 933.779 4.22346 0.42705 0
M  V30 9917 C 931.686 5.75795 -1.34958 0
M  V30 9918 H 930.616 0.753846 -0.0152514 0
M  V30 9919 H 933.267 1.68711 -0.721723 0
M  V30 9920 H 931.649 3.89829 0.696374 0
M  V30 9921 H 932.823 4.07178 -2.15737 0
M  V30 9922 H 931.138 3.75086 -1.8083 0
M  V30 9923 H 933.735 5.32499 0.484688 0
M  V30 9924 H 934.078 3.9052 1.44222 0
M  V30 9925 H 934.611 3.9698 -0.255326 0
M  V30 9926 H 931.35 6.12265 -2.3412 0
M  V30 9927 H 930.87 5.96419 -0.635962 0
M  V30 9928 H 932.549 6.38294 -1.05779 0
M  V30 9929 N 932.681 0.308908 1.54543 0
M  V30 9930 C 933.631 -0.578902 2.20528 0
M  V30 9931 C 934.615 -1.09288 1.18088 0
M  V30 9932 O 935.807 -1.03234 1.43777 0
M  V30 9933 C 932.936 -1.74649 2.95555 0
M  V30 9934 C 932.022 -1.24809 4.05319 0
M  V30 9935 N 932.413 -0.46828 5.03628 0
M  V30 9936 C 930.711 -1.52813 4.19004 0
M  V30 9937 C 931.412 -0.201896 5.8135 0
M  V30 9938 N 930.388 -0.783927 5.37918 0
M  V30 9939 H 934.19 0.0243496 2.9389 0
M  V30 9940 H 931.704 0.114049 1.61999 0
M  V30 9941 H 933.701 -2.39414 3.41301 0
M  V30 9942 H 932.361 -2.35336 2.23712 0
M  V30 9943 H 933.372 -0.112453 5.17778 0
M  V30 9944 H 930.049 -2.14191 3.58369 0
M  V30 9945 H 931.439 0.424929 6.70555 0
M  V30 9946 N 934.159 -1.57557 0.0367827 0
M  V30 9947 C 935.407 -1.91735 -0.63892 0
M  V30 9948 C 935.728 -0.914515 -1.72226 0
M  V30 9949 O 934.998 0.0428248 -1.95853 0
M  V30 9950 H 933.578 -0.707738 -0.23899 0
M  V30 9951 H 936.24 -1.94708 0.0863931 0
M  V30 9952 H 935.336 -2.92568 -1.08676 0
M  V30 9953 N 935.637 0.236453 -1.55816 0
M  V30 9954 C 936.885 0.96111 -1.77784 0
M  V30 9955 C 937.206 1.85454 -0.602648 0
M  V30 9956 O 936.476 1.92157 0.381137 0
M  V30 9957 H 935.056 0.35787 -0.655697 0
M  V30 9958 H 937.718 0.251888 -1.93265 0
M  V30 9959 H 936.814 1.5767 -2.69345 0
M  V30 9960 N 937.115 1.49373 0.502552 0
M  V30 9961 C 938.045 1.68839 1.61294 0
M  V30 9962 C 939.026 0.537096 1.61398 0
M  V30 9963 O 940.211 0.772764 1.78163 0
M  V30 9964 C 937.341 1.75347 2.99784 0
M  V30 9965 C 936.295 2.90251 3.14545 0
M  V30 9966 C 935.621 2.8187 4.54371 0
M  V30 9967 C 936.921 4.31207 2.94717 0
M  V30 9968 H 938.615 2.61803 1.45257 0
M  V30 9969 H 936.161 1.25987 0.697371 0
M  V30 9970 H 938.114 1.87552 3.77362 0
M  V30 9971 H 936.838 0.789814 3.16906 0
M  V30 9972 H 935.497 2.77646 2.39392 0
M  V30 9973 H 935.145 1.83416 4.68367 0
M  V30 9974 H 934.845 3.5899 4.65188 0
M  V30 9975 H 936.369 2.96081 5.34012 0
M  V30 9976 H 937.783 4.44501 3.62065 0
M  V30 9977 H 936.18 5.09536 3.17007 0
M  V30 9978 H 937.25 4.45759 1.90857 0
M  V30 9979 N 938.594 -0.753485 1.38421 0
M  V30 9980 C 939.819 -1.54783 1.38047 0
M  V30 9981 C 940.244 -1.8808 -0.0276371 0
M  V30 9982 O 939.602 -1.5058 -1.00973 0
M  V30 9983 C 939.65 -2.82353 2.24297 0
M  V30 9984 O 938.754 -3.77509 1.66014 0
M  V30 9985 H 938.095 -0.468151 0.470883 0
M  V30 9986 H 940.625 -0.931144 1.82184 0
M  V30 9987 H 940.635 -3.31277 2.38159 0
M  V30 9988 H 939.31 -2.57449 3.26639 0
M  V30 9989 H 937.887 -3.36212 1.61294 0
M  V30 9990 N 940.072 -1.23292 -0.981677 0
M  V30 9991 C 941.488 -0.995295 -1.24764 0
M  V30 9992 C 941.688 0.304379 -1.99188 0
M  V30 9993 O 940.744 1.02414 -2.30798 0
M  V30 9994 C 942.057 -2.20135 -2.04844 0
M  V30 9995 C 943.605 -2.24612 -2.17988 0
M  V30 9996 C 944.08 -3.448 -3.01458 0
M  V30 9997 N 945.571 -3.45031 -3.09044 0
M  V30 9998 C 946.306 -4.34683 -3.7395 0
M  V30 9999 N 945.802 -5.34569 -4.4069 0
M  V30 10000 N 947.595 -4.22429 -3.70823 0
M  V30 10001 H 939.746 -2.06834 -0.483052 0
M  V30 10002 H 942.009 -0.906929 -0.276014 0
M  V30 10003 H 941.715 -3.14446 -1.57532 0
M  V30 10004 H 941.589 -2.21115 -3.05594 0
M  V30 10005 H 943.976 -1.30841 -2.64508 0
M  V30 10006 H 944.057 -2.27664 -1.16631 0
M  V30 10007 H 943.701 -4.38877 -2.55635 0
M  V30 10008 H 943.631 -3.38988 -4.02982 0
M  V30 10009 H 946.122 -2.72759 -2.61555 0
M  V30 10010 H 946.435 -5.99236 -4.87991 0
M  V30 10011 H 944.78 -5.3847 -4.39403 0
M  V30 10012 H 947.971 -3.43639 -3.17851 0
M  V30 10013 H 948.144 -4.92501 -4.21126 0
M  V30 10014 N 941.55 1.18024 -1.04442 0
M  V30 10015 C 942.799 1.8743 -0.745185 0
M  V30 10016 C 943.112 1.81459 0.730206 0
M  V30 10017 O 944.318 2.46263 1.1431 0
M  V30 10018 C 942.774 3.36266 -1.28271 0
M  V30 10019 C 942.382 3.50757 -2.787 0
M  V30 10020 C 944.126 4.11048 -1.06018 0
M  V30 10021 C 942.033 4.93573 -3.25791 0
M  V30 10022 H 940.963 0.702038 -0.27506 0
M  V30 10023 H 943.614 1.33333 -1.26073 0
M  V30 10024 H 941.996 3.89853 -0.695002 0
M  V30 10025 H 943.17 3.07423 -3.43261 0
M  V30 10026 H 941.485 2.89385 -2.99408 0
M  V30 10027 H 944.082 5.16395 -1.38711 0
M  V30 10028 H 944.425 4.163 0.00241716 0
M  V30 10029 H 944.958 3.63644 -1.61269 0
M  V30 10030 H 941.697 4.93491 -4.31447 0
M  V30 10031 H 941.217 5.37607 -2.65968 0
M  V30 10032 H 942.896 5.62307 -3.20031 0
M  V30 10033 N 943.028 0.824394 1.34319 0
M  V30 10034 C 943.958 0.262077 2.32025 0
M  V30 10035 C 944.939 -0.622277 1.58309 0
M  V30 10036 O 946.124 -0.548848 1.86283 0
M  V30 10037 C 943.254 -0.57567 3.42496 0
M  V30 10038 C 942.208 0.21167 4.27476 0
M  V30 10039 C 941.534 -0.748913 5.29429 0
M  V30 10040 C 942.834 1.42068 5.02607 0
M  V30 10041 H 944.528 1.07842 2.79304 0
M  V30 10042 H 942.074 0.520022 1.34282 0
M  V30 10043 H 944.027 -0.979251 4.09864 0
M  V30 10044 H 942.751 -1.42508 2.93869 0
M  V30 10045 H 941.41 0.596636 3.61712 0
M  V30 10046 H 941.058 -1.59432 4.77064 0
M  V30 10047 H 940.758 -0.226313 5.87164 0
M  V30 10048 H 942.282 -1.15032 5.99667 0
M  V30 10049 H 943.696 1.09103 5.62823 0
M  V30 10050 H 942.093 1.87903 5.69923 0
M  V30 10051 H 943.163 2.1981 4.32217 0
M  V30 10052 N 944.506 -1.46559 0.579492 0
M  V30 10053 C 945.453 -2.30275 -0.155598 0
M  V30 10054 C 946.423 -1.40422 -0.887175 0
M  V30 10055 O 947.608 -1.69373 -0.878481 0
M  V30 10056 C 944.748 -3.24827 -1.16539 0
M  V30 10057 C 943.861 -4.29778 -0.43759 0
M  V30 10058 C 942.996 -5.11461 -1.43462 0
M  V30 10059 C 942.035 -6.08164 -0.693048 0
M  V30 10060 N 941.172 -6.82726 -1.63799 0
M  V30 10061 H 946.012 -2.92607 0.564356 0
M  V30 10062 H 943.549 -1.44211 0.290126 0
M  V30 10063 H 945.507 -3.78088 -1.76368 0
M  V30 10064 H 944.137 -2.64311 -1.8531 0
M  V30 10065 H 943.189 -3.794 0.27567 0
M  V30 10066 H 944.501 -4.98597 0.142298 0
M  V30 10067 H 943.655 -5.68982 -2.1058 0
M  V30 10068 H 942.394 -4.42595 -2.04844 0
M  V30 10069 H 941.399 -5.49799 -0.00807093 0
M  V30 10070 H 942.624 -6.79047 -0.0846678 0
M  V30 10071 H 940.57 -6.16572 -2.23997 0
M  V30 10072 H 940.487 -7.47795 -1.11082 0
M  V30 10073 H 941.755 -7.44807 -2.29962 0
M  V30 10074 N 945.984 -0.3171 -1.54377 0
M  V30 10075 C 947.212 0.289558 -2.04864 0
M  V30 10076 C 947.627 1.46284 -1.19359 0
M  V30 10077 O 946.984 1.81135 -0.222795 0
M  V30 10078 C 947.035 0.730273 -3.54047 0
M  V30 10079 O 946.756 -0.396325 -4.36304 0
M  V30 10080 C 948.257 1.40041 -4.20599 0
M  V30 10081 H 945.477 0.0605836 -0.668259 0
M  V30 10082 H 948.021 -0.461411 -1.99227 0
M  V30 10083 H 946.176 1.43123 -3.59992 0
M  V30 10084 H 946.59 -0.0502901 -5.24476 0
M  V30 10085 H 948.064 1.65979 -5.26455 0
M  V30 10086 H 948.541 2.34565 -3.71316 0
M  V30 10087 H 949.147 0.742206 -4.18774 0
M  V30 10088 N 947.462 1.57535 -0.0451378 0
M  V30 10089 C 948.878 1.56533 0.311373 0
M  V30 10090 C 949.078 1.05225 1.71843 0
M  V30 10091 O 948.134 0.706144 2.42425 0
M  V30 10092 C 949.447 3.00349 0.145348 0
M  V30 10093 C 950.995 3.12248 0.216908 0
M  V30 10094 C 951.47 4.57931 0.0794834 0
M  V30 10095 N 952.961 4.63 0.135954 0
M  V30 10096 C 953.696 5.73375 0.0536426 0
M  V30 10097 N 953.192 6.92753 -0.0806725 0
M  V30 10098 N 954.985 5.61995 0.108789 0
M  V30 10099 H 947.136 1.89211 -0.965044 0
M  V30 10100 H 949.399 0.871068 -0.374091 0
M  V30 10101 H 949.105 3.41898 -0.824533 0
M  V30 10102 H 948.979 3.66086 0.908903 0
M  V30 10103 H 951.366 2.70601 1.17726 0
M  V30 10104 H 951.447 2.49201 -0.577299 0
M  V30 10105 H 951.091 5.00262 -0.877516 0
M  V30 10106 H 951.021 5.18977 0.892758 0
M  V30 10107 H 953.512 3.77142 0.23926 0
M  V30 10108 H 953.825 7.7268 -0.136351 0
M  V30 10109 H 952.17 6.94904 -0.115675 0
M  V30 10110 H 955.361 4.67619 0.212235 0
M  V30 10111 H 955.534 6.47987 0.0411822 0
M  V30 10112 N 948.94 -0.228186 1.55939 0
M  V30 10113 C 950.188 -0.951668 1.78291 0
M  V30 10114 C 950.509 -1.85132 0.612474 0
M  V30 10115 O 949.779 -1.92356 -0.370942 0
M  V30 10116 H 948.359 -0.354388 0.657585 0
M  V30 10117 H 951.021 -0.241635 1.93396 0
M  V30 10118 H 950.117 -1.56239 2.70177 0
M  V30 10119 N 950.418 -1.49637 -0.494624 0
M  V30 10120 C 951.328 -1.69522 -1.62172 0
M  V30 10121 C 952.344 -0.577894 -1.64123 0
M  V30 10122 O 953.52 -0.853382 -1.82426 0
M  V30 10123 C 950.585 -1.7633 -2.9851 0
M  V30 10124 C 949.646 -2.99944 -3.07135 0
M  V30 10125 C 948.879 -3.06419 -4.36971 0
M  V30 10126 O 949.102 -2.20312 -5.26136 0
M  V30 10127 O 948.036 -3.9894 -4.507 0
M  V30 10128 H 951.862 -2.65017 -1.48324 0
M  V30 10129 H 949.447 -1.33454 -0.671603 0
M  V30 10130 H 951.329 -1.83125 -3.7953 0
M  V30 10131 H 950.004 -0.840155 -3.12607 0
M  V30 10132 H 948.911 -2.98664 -2.2528 0
M  V30 10133 H 950.244 -3.9176 -2.97968 0
M  V30 10134 N 951.896 0.746133 -1.38819 0
M  V30 10135 C 952.829 1.86833 -1.31029 0
M  V30 10136 C 953.807 1.61533 -0.185948 0
M  V30 10137 O 954.991 1.84942 -0.364529 0
M  V30 10138 C 952.118 3.22596 -1.03198 0
M  V30 10139 C 951.164 3.66772 -2.17671 0
M  V30 10140 S 951.997 3.77438 -3.7987 0
M  V30 10141 C 953.153 5.16008 -3.54241 0
M  V30 10142 H 953.386 1.93155 -2.26005 0
M  V30 10143 H 950.919 0.909872 -1.24742 0
M  V30 10144 H 952.877 4.00995 -0.878237 0
M  V30 10145 H 951.538 3.13943 -0.0992704 0
M  V30 10146 H 950.731 4.65266 -1.93762 0
M  V30 10147 H 950.333 2.95547 -2.2919 0
M  V30 10148 H 952.625 6.01996 -3.10816 0
M  V30 10149 H 953.568 5.44941 -4.52156 0
M  V30 10150 H 953.976 4.85158 -2.88587 0
M  V30 10151 N 953.375 1.23811 0.975125 0
M  V30 10152 C 954.621 1.07495 1.71967 0
M  V30 10153 C 954.954 -0.386451 1.90316 0
M  V30 10154 O 954.229 -1.28591 1.45927 0
M  V30 10155 C 954.512 1.80694 3.11483 0
M  V30 10156 C 954.365 3.3454 3.00671 0
M  V30 10157 C 955.684 1.57367 4.11003 0
M  V30 10158 H 952.803 0.3919 0.624166 0
M  V30 10159 H 955.445 1.52383 1.13487 0
M  V30 10160 H 953.595 1.42538 3.61407 0
M  V30 10161 H 955.267 3.8225 2.5823 0
M  V30 10162 H 953.51 3.63301 2.37054 0
M  V30 10163 H 954.181 3.80951 3.99475 0
M  V30 10164 H 956.657 1.90545 3.69908 0
M  V30 10165 H 955.533 2.11052 5.06703 0
M  V30 10166 H 955.794 0.510221 4.39146 0
M  V30 10167 N 954.853 -1.17469 1.05066 0
M  V30 10168 C 955.8 -2.21443 0.650512 0
M  V30 10169 C 956.77 -1.62441 -0.346702 0
M  V30 10170 O 957.955 -1.89305 -0.238404 0
M  V30 10171 C 955.095 -3.45087 0.0301014 0
M  V30 10172 C 954.208 -4.18385 1.07599 0
M  V30 10173 C 953.343 -5.29513 0.423038 0
M  V30 10174 C 952.382 -5.94596 1.45333 0
M  V30 10175 N 951.519 -6.97241 0.824623 0
M  V30 10176 H 956.359 -2.55025 1.54163 0
M  V30 10177 H 953.896 -1.25274 0.771032 0
M  V30 10178 H 955.854 -4.15754 -0.347032 0
M  V30 10179 H 954.484 -3.12093 -0.824481 0
M  V30 10180 H 953.536 -3.46446 1.57097 0
M  V30 10181 H 954.848 -4.62899 1.85813 0
M  V30 10182 H 954.002 -6.067 -0.00774975 0
M  V30 10183 H 952.741 -4.86129 -0.391092 0
M  V30 10184 H 951.746 -5.16142 1.89415 0
M  V30 10185 H 952.971 -6.40061 2.26934 0
M  V30 10186 H 950.917 -6.55993 0.0309804 0
M  V30 10187 H 950.834 -7.40059 1.54432 0
M  V30 10188 H 952.102 -7.78375 0.418567 0
M  V30 10189 N 956.331 -0.831506 -1.3388 0
M  V30 10190 C 957.279 -0.247896 -2.31275 0
M  V30 10191 C 958.273 0.616083 -1.578 0
M  V30 10192 O 959.479 0.506465 -1.72728 0
M  V30 10193 H 955.854 -0.0614293 -0.749487 0
M  V30 10194 H 957.825 -1.08401 -2.78014 0
M  V30 10195 C 956.574 0.568434 -3.43022 0
M  V30 10196 H 955.897 -0.0870654 -3.99705 0
M  V30 10197 H 957.337 0.942751 -4.13386 0
M  V30 10198 C 955.796 1.74431 -2.88228 0
M  V30 10199 O 956.326 2.84278 -2.83811 0
M  V30 10200 N 954.532 1.56382 -2.44935 0
M  V30 10201 H 954.079 0.670255 -2.48727 0
M  V30 10202 H 954.037 2.35208 -2.08625 0
M  V30 10203 N 957.809 1.4625 -0.587256 0
M  V30 10204 C 959.225 1.57641 -0.249284 0
M  V30 10205 C 959.425 1.58169 1.24839 0
M  V30 10206 O 958.481 1.50109 2.03036 0
M  V30 10207 C 959.794 2.86837 -0.902509 0
M  V30 10208 C 961.342 3.00476 -0.876524 0
M  V30 10209 C 961.817 4.32414 -1.50938 0
M  V30 10210 N 963.308 4.39124 -1.47392 0
M  V30 10211 C 964.043 5.39838 -1.93293 0
M  V30 10212 N 963.539 6.47202 -2.47188 0
M  V30 10213 N 965.332 5.31068 -1.84183 0
M  V30 10214 H 957.483 1.44151 -1.55994 0
M  V30 10215 H 959.746 0.687905 -0.652297 0
M  V30 10216 H 959.452 2.92274 -1.95624 0
M  V30 10217 H 959.326 3.74927 -0.413466 0
M  V30 10218 H 961.713 2.94618 0.168601 0
M  V30 10219 H 961.794 2.1385 -1.40363 0
M  V30 10220 H 961.438 4.3903 -2.55372 0
M  V30 10221 H 961.368 5.17823 -0.957455 0
M  V30 10222 H 963.859 3.62138 -1.08002 0
M  V30 10223 H 964.172 7.20269 -2.80058 0
M  V30 10224 H 962.517 6.48009 -2.51216 0
M  V30 10225 H 965.708 4.46095 -1.41833 0
M  V30 10226 H 965.881 6.09414 -2.2027 0
M  V30 10227 N 959.287 0.325282 1.54207 0
M  V30 10228 C 960.515 -0.27869 2.05014 0
M  V30 10229 C 960.93 -1.45649 1.20133 0
M  V30 10230 O 960.287 -1.81014 0.232398 0
M  V30 10231 C 960.338 -0.711486 3.54429 0
M  V30 10232 O 960.059 0.419458 4.36087 0
M  V30 10233 C 961.56 -1.37809 4.21336 0
M  V30 10234 H 958.78 -0.0570388 0.668571 0
M  V30 10235 H 961.324 0.47197 1.98979 0
M  V30 10236 H 959.479 -1.41212 3.60746 0
M  V30 10237 H 959.893 0.0781037 5.24442 0
M  V30 10238 H 961.367 -1.63184 5.27328 0
M  V30 10239 H 961.844 -2.32593 3.72555 0
M  V30 10240 H 962.45 -0.719987 4.19161 0
M  V30 10241 N 960.765 -1.57509 0.0534917 0
M  V30 10242 C 962.011 -1.93068 -0.62069 0
M  V30 10243 C 962.344 -0.932313 -1.70357 0
M  V30 10244 O 961.619 0.0413393 -1.94456 0
M  V30 10245 C 961.902 -3.38997 -1.21463 0
M  V30 10246 C 961.755 -4.49583 -0.13965 0
M  V30 10247 C 963.074 -3.85366 -2.12558 0
M  V30 10248 H 960.193 -0.702083 -0.224163 0
M  V30 10249 H 962.835 -1.89647 0.115729 0
M  V30 10250 H 960.985 -3.42043 -1.84226 0
M  V30 10251 H 962.657 -4.58664 0.492411 0
M  V30 10252 H 960.9 -4.30525 0.532006 0
M  V30 10253 H 961.571 -5.48781 -0.595287 0
M  V30 10254 H 964.047 -3.8421 -1.59755 0
M  V30 10255 H 962.923 -4.8812 -2.51058 0
M  V30 10256 H 963.184 -3.22256 -3.02661 0
M  V30 10257 N 962.243 0.219913 -1.56058 0
M  V30 10258 C 963.52 0.968493 -1.6994 0
M  V30 10259 C 963.9 2.02358 -0.601219 0
M  V30 10260 O 963.248 2.25121 0.391534 0
M  V30 10261 C 963.458 1.57745 -3.11316 0
M  V30 10262 C 964.806 2.06908 -3.70775 0
M  V30 10263 O 965.83 1.67636 -3.14288 0
M  V30 10264 O 964.689 2.79096 -4.69859 0
M  V30 10265 H 961.783 0.452521 -0.692209 0
M  V30 10266 H 964.329 0.211566 -1.68376 0
M  V30 10267 H 963.101 0.815687 -3.82704 0
M  V30 10268 H 962.724 2.39987 -3.17005 0
M  V30 10269 N 963.721 1.49897 0.486681 0
M  V30 10270 C 964.967 1.61313 1.23893 0
M  V30 10271 C 965.322 0.302457 1.90008 0
M  V30 10272 O 964.615 -0.698466 1.78415 0
M  V30 10273 C 964.809 2.71982 2.31863 0
M  V30 10274 C 964.638 4.13685 1.76338 0
M  V30 10275 C 963.408 4.8029 1.57002 0
M  V30 10276 C 965.606 4.98446 1.26711 0
M  V30 10277 N 963.588 6.06259 0.965564 0
M  V30 10278 C 964.959 6.15011 0.784912 0
M  V30 10279 C 967.014 4.84338 1.15419 0
M  V30 10280 C 965.717 7.19019 0.200942 0
M  V30 10281 C 967.743 5.88508 0.584173 0
M  V30 10282 C 967.105 7.04311 0.112272 0
M  V30 10283 H 963.204 0.644555 0.442801 0
M  V30 10284 H 965.788 1.86959 0.543562 0
M  V30 10285 H 963.959 2.48086 2.98844 0
M  V30 10286 H 965.691 2.72842 2.98897 0
M  V30 10287 H 962.446 4.37324 1.81781 0
M  V30 10288 H 962.87 6.73554 0.6822 0
M  V30 10289 H 967.512 3.95107 1.50499 0
M  V30 10290 H 965.23 8.07937 -0.162099 0
M  V30 10291 H 968.816 5.79653 0.49938 0
M  V30 10292 H 967.696 7.83539 -0.321907 0
M  V30 10293 N 965.199 -0.738761 1.39212 0
M  V30 10294 C 966.162 -1.83441 1.37412 0
M  V30 10295 C 967.162 -1.58484 0.271908 0
M  V30 10296 O 968.352 -1.65954 0.529609 0
M  V30 10297 C 965.484 -3.21167 1.143 0
M  V30 10298 H 966.677 -1.86441 2.34904 0
M  V30 10299 H 964.23 -0.942023 1.24722 0
M  V30 10300 H 964.965 -3.23829 0.174756 0
M  V30 10301 H 964.75 -3.40678 1.94116 0
M  V30 10302 H 966.24 -4.01231 1.15773 0
M  V30 10303 N 966.677 -1.24326 -0.968545 0
M  V30 10304 C 967.607 -1.05951 -2.08079 0
M  V30 10305 C 968.588 0.0272666 -1.70078 0
M  V30 10306 O 969.773 -0.139644 -1.93697 0
M  V30 10307 C 966.903 -0.662623 -3.4092 0
M  V30 10308 C 965.857 -1.69807 -3.92873 0
M  V30 10309 C 965.183 -1.15628 -5.22048 0
M  V30 10310 C 966.483 -3.09383 -4.20808 0
M  V30 10311 H 968.177 -1.98984 -2.23709 0
M  V30 10312 H 965.723 -0.958112 -1.075 0
M  V30 10313 H 967.676 -0.521071 -4.18166 0
M  V30 10314 H 966.4 0.303399 -3.25188 0
M  V30 10315 H 965.059 -1.82783 -3.17783 0
M  V30 10316 H 964.707 -0.180888 -5.02675 0
M  V30 10317 H 964.407 -1.84822 -5.57776 0
M  V30 10318 H 965.931 -1.02683 -6.01904 0
M  V30 10319 H 967.345 -2.99642 -4.88761 0
M  V30 10320 H 965.742 -3.75923 -4.67763 0
M  V30 10321 H 966.812 -3.57486 -3.27616 0
M  V30 10322 N 968.156 1.1691 -1.05688 0
M  V30 10323 C 969.119 2.19297 -0.666433 0
M  V30 10324 C 970.119 1.5826 0.284674 0
M  V30 10325 O 971.309 1.74068 0.0678757 0
M  V30 10326 C 968.441 3.40894 0.0203656 0
M  V30 10327 H 969.634 2.55354 -1.57272 0
M  V30 10328 H 967.187 1.31078 -0.851359 0
M  V30 10329 H 967.922 3.10388 0.939686 0
M  V30 10330 H 967.707 3.86446 -0.663464 0
M  V30 10331 H 969.197 4.16664 0.279475 0
M  V30 10332 N 969.634 0.838594 1.33437 0
M  V30 10333 C 970.544 0.274048 2.32994 0
M  V30 10334 C 971.56 -0.599776 1.63336 0
M  V30 10335 O 972.736 -0.503963 1.94993 0
M  V30 10336 C 969.801 -0.541804 3.4244 0
M  V30 10337 C 968.862 0.356262 4.27819 0
M  V30 10338 C 968.095 -0.420747 5.32039 0
M  V30 10339 O 968.318 -1.65247 5.45939 0
M  V30 10340 O 967.252 0.205101 6.0155 0
M  V30 10341 H 971.078 1.09846 2.83139 0
M  V30 10342 H 968.663 0.601111 1.36774 0
M  V30 10343 H 970.545 -1.00544 4.0923 0
M  V30 10344 H 969.22 -1.34328 2.94513 0
M  V30 10345 H 968.127 0.867726 3.63897 0
M  V30 10346 H 969.46 1.1225 4.79229 0
M  V30 10347 N 971.112 -1.45937 0.595003 0
M  V30 10348 C 972.342 -2.06399 0.0911607 0
M  V30 10349 C 972.75 -1.44236 -1.22444 0
M  V30 10350 O 972.093 -0.546265 -1.7539 0
M  V30 10351 C 972.155 -3.59242 -0.136079 0
M  V30 10352 C 971.819 -4.43668 1.09579 0
M  V30 10353 C 972.816 -4.79437 2.01088 0
M  V30 10354 C 970.501 -4.84616 1.32109 0
M  V30 10355 C 972.495 -5.54995 3.13464 0
M  V30 10356 C 970.182 -5.5993 2.44788 0
M  V30 10357 C 971.18 -5.95035 3.35294 0
M  V30 10358 O 970.868 -6.68825 4.46014 0
M  V30 10359 H 970.6 -0.673316 0.0601779 0
M  V30 10360 H 973.154 -1.88365 0.819005 0
M  V30 10361 H 971.384 -3.75629 -0.918676 0
M  V30 10362 H 973.073 -4.0159 -0.589954 0
M  V30 10363 H 973.839 -4.48371 1.84902 0
M  V30 10364 H 969.718 -4.56735 0.625662 0
M  V30 10365 H 973.262 -5.82314 3.84131 0
M  V30 10366 H 969.159 -5.90411 2.60931 0
M  V30 10367 H 969.927 -6.87262 4.44537 0
M  V30 10368 N 972.59 -0.333456 -1.54032 0
M  V30 10369 C 973.523 0.570776 -2.20947 0
M  V30 10370 C 974.501 1.10811 -1.18994 0
M  V30 10371 O 975.685 1.17027 -1.47773 0
M  V30 10372 C 972.812 1.7842 -2.87896 0
M  V30 10373 C 971.858 1.37722 -4.03652 0
M  V30 10374 S 972.691 0.405548 -5.33962 0
M  V30 10375 C 973.847 1.62603 -6.0441 0
M  V30 10376 H 974.08 0.0023936 -2.973 0
M  V30 10377 H 971.613 -0.117531 -1.53952 0
M  V30 10378 H 973.571 2.48038 -3.27089 0
M  V30 10379 H 972.232 2.32378 -2.11327 0
M  V30 10380 H 971.425 2.28167 -4.49395 0
M  V30 10381 H 971.027 0.760628 -3.66184 0
M  V30 10382 H 973.319 2.56202 -6.2719 0
M  V30 10383 H 974.262 1.21058 -6.97675 0
M  V30 10384 H 974.67 1.8175 -5.34441 0
M  V30 10385 N 974.068 1.57479 -0.061844 0
M  V30 10386 C 975.031 2.1104 0.894127 0
M  V30 10387 C 976.031 1.03227 1.23292 0
M  V30 10388 O 977.221 1.29256 1.16784 0
M  V30 10389 C 974.353 2.6035 2.20069 0
M  V30 10390 H 975.546 2.96807 0.429619 0
M  V30 10391 H 973.099 1.55181 0.18672 0
M  V30 10392 H 973.834 1.78008 2.71079 0
M  V30 10393 H 973.619 3.39146 1.9678 0
M  V30 10394 H 975.109 3.019 2.88525 0
M  V30 10395 N 975.546 -0.211634 1.56173 0
M  V30 10396 C 976.793 -0.93455 1.79645 0
M  V30 10397 C 977.121 -1.83936 0.632294 0
M  V30 10398 O 976.376 -1.91919 -0.382841 0
M  V30 10399 C 976.675 -1.79657 3.08963 0
M  V30 10400 C 976.341 -1.04415 4.38644 0
M  V30 10401 C 975.003 -0.836351 4.73876 0
M  V30 10402 C 977.355 -0.51355 5.18664 0
M  V30 10403 C 974.683 -0.0861976 5.86637 0
M  V30 10404 C 977.035 0.223309 6.32206 0
M  V30 10405 C 975.699 0.442279 6.66033 0
M  V30 10406 H 974.969 -0.341976 0.657368 0
M  V30 10407 H 977.616 -0.202024 1.90431 0
M  V30 10408 H 975.921 -2.59726 2.93342 0
M  V30 10409 H 977.618 -2.35823 3.24328 0
M  V30 10410 H 974.208 -1.21611 4.10985 0
M  V30 10411 H 978.392 -0.661541 4.91871 0
M  V30 10412 H 973.648 0.0935866 6.11328 0
M  V30 10413 H 977.822 0.641917 6.93435 0
M  V30 10414 H 975.449 1.02547 7.53252 0
M  V30 10415 N 977.024 -1.50153 -0.478725 0
M  V30 10416 C 978.272 -1.60443 -1.22892 0
M  V30 10417 C 978.593 -0.303276 -1.92627 0
M  V30 10418 O 977.863 0.678798 -1.83764 0
M  V30 10419 H 976.443 -0.591205 -0.456602 0
M  V30 10420 H 979.105 -1.86893 -0.552905 0
M  V30 10421 H 978.201 -2.41175 -1.98094 0
M  V30 10422 N 978.502 0.731368 -1.39602 0
M  V30 10423 C 979.727 1.52567 -1.40492 0
M  V30 10424 C 980.152 1.881 -0.00228828 0
M  V30 10425 O 979.51 1.52167 0.985643 0
M  V30 10426 C 979.558 2.78749 -2.2876 0
M  V30 10427 O 978.662 3.7482 -1.71999 0
M  V30 10428 H 978.003 0.460601 -0.478271 0
M  V30 10429 H 980.533 0.902042 -1.83642 0
M  V30 10430 H 980.543 3.27446 -2.43399 0
M  V30 10431 H 979.218 2.5222 -3.30693 0
M  V30 10432 H 977.795 3.33604 -1.66622 0
M  V30 10433 N 979.98 1.24838 0.961938 0
M  V30 10434 C 980.91 1.07053 2.07514 0
M  V30 10435 C 981.891 -0.0182465 1.7009 0
M  V30 10436 O 983.076 0.149915 1.9362 0
M  V30 10437 C 980.206 0.680693 3.40564 0
M  V30 10438 C 979.16 1.71889 3.91967 0
M  V30 10439 C 978.486 1.18395 5.21428 0
M  V30 10440 C 979.786 3.1161 4.19161 0
M  V30 10441 H 981.48 2.00167 2.22651 0
M  V30 10442 H 979.026 0.963799 1.0699 0
M  V30 10443 H 980.979 0.54324 4.17884 0
M  V30 10444 H 979.703 -0.28615 3.25344 0
M  V30 10445 H 978.362 1.84465 3.16809 0
M  V30 10446 H 978.01 0.207543 5.02572 0
M  V30 10447 H 977.71 1.87778 5.56788 0
M  V30 10448 H 979.234 1.05873 6.01351 0
M  V30 10449 H 980.648 3.0223 4.87165 0
M  V30 10450 H 979.045 3.78398 4.65763 0
M  V30 10451 H 980.115 3.59218 3.25715 0
M  V30 10452 N 981.458 -1.16348 1.06306 0
M  V30 10453 C 982.388 -2.2291 0.695234 0
M  V30 10454 C 983.369 -1.67208 -0.312343 0
M  V30 10455 O 984.554 -1.93293 -0.187442 0
M  V30 10456 C 981.684 -3.47205 0.0810149 0
M  V30 10457 C 980.638 -4.15801 1.01458 0
M  V30 10458 C 979.964 -5.3405 0.263656 0
M  V30 10459 C 981.264 -4.66766 2.34365 0
M  V30 10460 H 982.958 -2.53934 1.58613 0
M  V30 10461 H 980.504 -1.22056 0.76409 0
M  V30 10462 H 982.457 -4.2098 -0.18818 0
M  V30 10463 H 981.181 -3.15482 -0.844897 0
M  V30 10464 H 979.84 -3.43954 1.26852 0
M  V30 10465 H 979.488 -4.9858 -0.665378 0
M  V30 10466 H 979.188 -5.80885 0.88582 0
M  V30 10467 H 980.712 -6.106 0.00200994 0
M  V30 10468 H 982.126 -5.3212 2.13356 0
M  V30 10469 H 980.523 -5.24223 2.9208 0
M  V30 10470 H 981.593 -3.82969 2.97426 0
M  V30 10471 N 982.937 -0.845659 -1.3299 0
M  V30 10472 C 983.884 -0.281761 -2.29074 0
M  V30 10473 C 984.854 0.606237 -1.54641 0
M  V30 10474 O 986.039 0.543063 -1.82908 0
M  V30 10475 C 983.179 0.531451 -3.40983 0
M  V30 10476 C 982.292 -0.381328 -4.30314 0
M  V30 10477 C 981.427 0.443643 -5.29344 0
M  V30 10478 C 980.466 -0.467101 -6.10315 0
M  V30 10479 N 979.603 0.320148 -7.0137 0
M  V30 10480 H 984.443 -1.10641 -2.76699 0
M  V30 10481 H 981.98 -0.55706 -1.36144 0
M  V30 10482 H 983.938 1.01848 -4.04577 0
M  V30 10483 H 982.568 1.32101 -2.94532 0
M  V30 10484 H 981.62 -0.986701 -3.6738 0
M  V30 10485 H 982.932 -1.08067 -4.86953 0
M  V30 10486 H 982.086 0.994212 -5.98498 0
M  V30 10487 H 980.825 1.17639 -4.73299 0
M  V30 10488 H 979.83 -1.02963 -5.40073 0
M  V30 10489 H 981.055 -1.19832 -6.68444 0
M  V30 10490 H 979.001 1.03615 -6.47765 0
M  V30 10491 H 978.918 -0.320338 -7.55321 0
M  V30 10492 H 980.186 0.852735 -7.74822 0
M  V30 10493 N 984.415 1.45619 -0.602734 0
M  V30 10494 C 985.325 2.34288 0.120902 0
M  V30 10495 C 986.341 1.50952 0.865414 0
M  V30 10496 O 987.517 1.83768 0.824094 0
M  V30 10497 C 984.582 3.28489 1.10888 0
M  V30 10498 C 983.643 4.2773 0.366853 0
M  V30 10499 C 982.876 5.17429 1.30776 0
M  V30 10500 O 983.099 5.10459 2.54535 0
M  V30 10501 O 982.033 5.96459 0.807464 0
M  V30 10502 H 985.859 2.97559 -0.60765 0
M  V30 10503 H 983.444 1.44922 -0.363019 0
M  V30 10504 H 985.326 3.86549 1.67803 0
M  V30 10505 H 984.001 2.67789 1.81854 0
M  V30 10506 H 982.908 3.73299 -0.244643 0
M  V30 10507 H 984.241 4.91271 -0.302226 0
M  V30 10508 N 985.893 0.34162 1.53853 0
M  V30 10509 C 987.141 -0.254979 2.00485 0
M  V30 10510 C 987.462 -1.51222 1.23114 0
M  V30 10511 O 986.732 -1.92966 0.337787 0
M  V30 10512 H 985.312 -0.0972084 0.740648 0
M  V30 10513 H 987.974 0.462332 1.89337 0
M  V30 10514 H 987.07 -0.498778 3.08089 0
M  V30 10515 N 987.371 -1.57444 0.0701946 0
M  V30 10516 C 988.62 -1.92605 -0.598849 0
M  V30 10517 C 988.933 -0.952058 -1.70866 0
M  V30 10518 O 990.139 -1.19643 -2.43716 0
M  V30 10519 C 988.595 -3.42142 -1.11655 0
M  V30 10520 C 988.203 -4.47984 -0.0378355 0
M  V30 10521 C 989.947 -3.86307 -1.75975 0
M  V30 10522 C 987.854 -5.88652 -0.569495 0
M  V30 10523 H 986.784 -0.718873 -0.22746 0
M  V30 10524 H 989.435 -1.82948 0.14217 0
M  V30 10525 H 987.817 -3.46866 -1.91049 0
M  V30 10526 H 988.991 -4.54874 0.736661 0
M  V30 10527 H 987.306 -4.13277 0.50904 0
M  V30 10528 H 989.903 -4.88784 -2.16782 0
M  V30 10529 H 990.246 -3.23587 -2.61911 0
M  V30 10530 H 990.779 -3.84179 -1.03206 0
M  V30 10531 H 987.518 -6.55013 0.252662 0
M  V30 10532 H 987.038 -5.85285 -1.31155 0
M  V30 10533 H 988.717 -6.38482 -1.04641 0
M  V30 10534 N 988.849 0.203349 -1.56283 0
M  V30 10535 C 989.799 1.25595 -1.90289 0
M  V30 10536 C 990.783 1.41403 -0.767732 0
M  V30 10537 O 991.975 1.43912 -1.03046 0
M  V30 10538 C 989.104 2.60255 -2.23881 0
M  V30 10539 C 988.19 2.48274 -3.43833 0
M  V30 10540 N 988.581 2.05963 -4.61966 0
M  V30 10541 C 986.879 2.79188 -3.47808 0
M  V30 10542 C 987.58 2.05674 -5.44126 0
M  V30 10543 N 986.556 2.46862 -4.84314 0
M  V30 10544 H 990.358 0.920016 -2.79129 0
M  V30 10545 H 987.872 0.411829 -1.57091 0
M  V30 10546 H 989.869 3.36274 -2.46425 0
M  V30 10547 H 988.529 2.94678 -1.36363 0
M  V30 10548 H 989.54 1.76803 -4.86787 0
M  V30 10549 H 986.217 3.17863 -2.70684 0
M  V30 10550 H 987.607 1.74932 -6.48728 0
M  V30 10551 N 990.327 1.50405 0.470755 0
M  V30 10552 C 991.576 1.60652 1.21959 0
M  V30 10553 C 991.889 0.312521 1.93087 0
M  V30 10554 O 993.095 0.293901 2.69905 0
M  V30 10555 C 991.551 2.83581 2.21607 0
M  V30 10556 C 991.159 4.19858 1.5628 0
M  V30 10557 C 992.903 3.03173 2.9713 0
M  V30 10558 C 990.81 5.33974 2.54217 0
M  V30 10559 H 989.74 0.598264 0.458907 0
M  V30 10560 H 992.391 1.76836 0.490041 0
M  V30 10561 H 990.773 2.60957 2.97855 0
M  V30 10562 H 991.947 4.52738 0.85819 0
M  V30 10563 H 990.262 4.05873 0.930366 0
M  V30 10564 H 992.859 3.856 3.70428 0
M  V30 10565 H 993.202 2.14914 3.56536 0
M  V30 10566 H 993.735 3.2598 2.27995 0
M  V30 10567 H 990.474 6.24388 1.99549 0
M  V30 10568 H 989.994 5.05511 3.22829 0
M  V30 10569 H 991.673 5.64561 3.16039 0
M  V30 10570 N 991.805 -0.723954 1.39988 0
M  V30 10571 C 993.221 -1.03095 1.21834 0
M  V30 10572 C 993.421 -2.01309 0.0876647 0
M  V30 10573 O 992.477 -2.46277 -0.55714 0
M  V30 10574 C 993.79 -1.58267 2.5568 0
M  V30 10575 C 995.338 -1.70293 2.6262 0
M  V30 10576 C 995.813 -2.28872 3.96713 0
M  V30 10577 N 997.304 -2.36269 3.98411 0
M  V30 10578 C 998.039 -2.82557 4.98948 0
M  V30 10579 N 997.535 -3.28661 6.0988 0
M  V30 10580 N 999.328 -2.81866 4.86321 0
M  V30 10581 H 991.479 -0.0727891 2.12275 0
M  V30 10582 H 993.742 -0.0949029 0.943238 0
M  V30 10583 H 993.448 -0.935642 3.39026 0
M  V30 10584 H 993.322 -2.56914 2.76179 0
M  V30 10585 H 995.709 -2.34115 1.7965 0
M  V30 10586 H 995.79 -0.70268 2.45959 0
M  V30 10587 H 995.434 -1.65675 4.80119 0
M  V30 10588 H 995.364 -3.29595 4.107 0
M  V30 10589 H 997.855 -2.03697 3.18302 0
M  V30 10590 H 998.168 -3.62524 6.82493 0
M  V30 10591 H 996.513 -3.26641 6.13458 0
M  V30 10592 H 999.704 -2.45179 3.98754 0
M  V30 10593 H 999.877 -3.17626 5.64817 0
M  V30 10594 N 993.283 -1.25346 -0.955304 0
M  V30 10595 C 994.213 -1.08152 -2.06943 0
M  V30 10596 C 995.194 0.00922598 -1.70097 0
M  V30 10597 O 996.379 -0.160181 -1.93538 0
M  V30 10598 C 993.509 -0.698745 -3.40198 0
M  V30 10599 C 992.463 -1.73965 -3.9105 0
M  V30 10600 C 991.789 -1.21158 -5.20792 0
M  V30 10601 C 993.089 -3.13829 -4.17503 0
M  V30 10602 H 994.783 -2.01345 -2.21586 0
M  V30 10603 H 992.329 -0.969459 -1.06478 0
M  V30 10604 H 994.282 -0.565394 -4.1759 0
M  V30 10605 H 993.006 0.268892 -3.25491 0
M  V30 10606 H 991.665 -1.86143 -3.15827 0
M  V30 10607 H 991.313 -0.234193 -5.02455 0
M  V30 10608 H 991.013 -1.90728 -5.55785 0
M  V30 10609 H 992.537 -1.09061 -6.00781 0
M  V30 10610 H 993.951 -3.04809 -4.85556 0
M  V30 10611 H 992.348 -3.80863 -4.63749 0
M  V30 10612 H 993.418 -3.6094 -3.23806 0
M  V30 10613 N 994.761 1.15782 -1.06922 0
M  V30 10614 C 995.986 1.90896 -0.810771 0
M  V30 10615 C 996.411 1.77246 0.629714 0
M  V30 10616 O 995.769 1.10215 1.43953 0
M  V30 10617 C 995.817 3.39397 -1.21829 0
M  V30 10618 O 994.921 4.10818 -0.360934 0
M  V30 10619 H 994.262 0.594497 -0.295752 0
M  V30 10620 H 996.792 1.46652 -1.42669 0
M  V30 10621 H 996.802 3.90181 -1.19259 0
M  V30 10622 H 995.477 3.4865 -2.2675 0
M  V30 10623 H 994.054 3.7019 -0.448748 0
M  V30 10624 N 996.239 0.8527 1.3254 0
M  V30 10625 C 997.487 0.454224 1.96929 0
M  V30 10626 C 997.808 -0.993034 1.67821 0
M  V30 10627 O 997.078 -1.69371 0.984393 0
M  V30 10628 H 995.658 0.164977 0.728554 0
M  V30 10629 H 998.32 1.0887 1.61658 0
M  V30 10630 H 997.416 0.597667 3.06324 0
M  V30 10631 N 997.718 -1.45297 0.610449 0
M  V30 10632 C 998.65 -2.28742 -0.144884 0
M  V30 10633 C 999.663 -1.40114 -0.828977 0
M  V30 10634 O 1000.85 -1.64461 -0.693887 0
M  V30 10635 C 997.952 -3.15934 -1.22632 0
M  V30 10636 C 997.125 -4.32857 -0.628785 0
M  V30 10637 C 996.184 -5.01237 -1.60148 0
M  V30 10638 O 995.21 -5.57938 -1.12667 0
M  V30 10639 N 996.412 -5.00785 -2.9359 0
M  V30 10640 H 999.177 -2.94207 0.571145 0
M  V30 10641 H 996.738 -1.55517 0.450134 0
M  V30 10642 H 998.73 -3.58545 -1.87691 0
M  V30 10643 H 997.3 -2.52358 -1.84483 0
M  V30 10644 H 996.52 -3.93693 0.199951 0
M  V30 10645 H 997.808 -5.08367 -0.209845 0
M  V30 10646 H 997.206 -4.56014 -3.34765 0
M  V30 10647 H 995.763 -5.4725 -3.54064 0
M  V30 10648 N 999.196 -0.349774 -1.5367 0
M  V30 10649 C 1000.47 0.300419 -1.93279 0
M  V30 10650 C 1000.85 1.67721 -1.28191 0
M  V30 10651 O 1000.2 2.24319 -0.435127 0
M  V30 10652 C 1000.41 0.366466 -3.47071 0
M  V30 10653 C 1001.76 0.614349 -4.20132 0
M  V30 10654 O 1002.78 0.448327 -3.53367 0
M  V30 10655 O 1001.64 0.936421 -5.38417 0
M  V30 10656 H 998.736 0.176599 -0.807924 0
M  V30 10657 H 1001.28 -0.401405 -1.64884 0
M  V30 10658 H 1000.05 -0.599455 -3.86681 0
M  V30 10659 H 999.677 1.11482 -3.81651 0
M  V30 10660 N 1000.67 1.57404 -0.0785433 0
M  V30 10661 C 1001.92 1.94031 0.589896 0
M  V30 10662 C 1002.25 0.959297 1.68852 0
M  V30 10663 O 1001.53 -0.0103978 1.94497 0
M  V30 10664 C 1001.81 3.40886 1.16055 0
M  V30 10665 C 1001.66 4.49748 0.0681072 0
M  V30 10666 C 1002.98 3.88699 2.06401 0
M  V30 10667 H 1000.1 0.70556 0.212965 0
M  V30 10668 H 1002.74 1.89439 -0.145886 0
M  V30 10669 H 1000.89 3.4493 1.78761 0
M  V30 10670 H 1002.57 4.57823 -0.565318 0
M  V30 10671 H 1000.81 4.29625 -0.600431 0
M  V30 10672 H 1001.48 5.49658 0.507906 0
M  V30 10673 H 1003.96 3.86703 1.53622 0
M  V30 10674 H 1002.83 4.92052 2.43261 0
M  V30 10675 H 1003.09 3.2703 2.97496 0
M  V30 10676 N 1002.15 -0.195058 1.56388 0
M  V30 10677 C 1003.06 -1.26219 1.97752 0
M  V30 10678 C 1004.08 -1.49801 0.885192 0
M  V30 10679 O 1005.25 -1.62415 1.19094 0
M  V30 10680 C 1002.32 -2.5865 2.3087 0
M  V30 10681 C 1001.38 -2.4314 3.5381 0
M  V30 10682 C 1000.61 -3.69255 3.85339 0
M  V30 10683 O 1000.84 -4.73425 3.18159 0
M  V30 10684 O 999.77 -3.64782 4.78767 0
M  V30 10685 H 1003.6 -0.941161 2.88749 0
M  V30 10686 H 1001.18 -0.40006 1.43944 0
M  V30 10687 H 1003.06 -3.36814 2.53247 0
M  V30 10688 H 1001.74 -2.9038 1.43042 0
M  V30 10689 H 1000.64 -1.63086 3.3668 0
M  V30 10690 H 1001.98 -2.16341 4.42105 0
M  V30 10691 N 1003.63 -1.50653 -0.462772 0
M  V30 10692 C 1005.05 -1.38263 -0.797213 0
M  V30 10693 C 1005.25 -0.445172 -1.96521 0
M  V30 10694 O 1004.3 0.10913 -2.52264 0
M  V30 10695 C 1005.61 -2.798 -1.10146 0
M  V30 10696 C 1007.16 -2.88774 -1.20742 0
M  V30 10697 C 1007.64 -4.31163 -1.54476 0
M  V30 10698 N 1009.13 -4.34152 -1.61451 0
M  V30 10699 C 1009.86 -5.4133 -1.89074 0
M  V30 10700 N 1009.36 -6.58705 -2.1466 0
M  V30 10701 N 1011.15 -5.28783 -1.90645 0
M  V30 10702 H 1003.3 -2.10172 0.30684 0
M  V30 10703 H 1005.57 -0.945046 0.0747862 0
M  V30 10704 H 1005.27 -3.50276 -0.316207 0
M  V30 10705 H 1005.15 -3.17559 -2.03559 0
M  V30 10706 H 1007.53 -2.18512 -1.98334 0
M  V30 10707 H 1007.61 -2.54547 -0.252904 0
M  V30 10708 H 1007.26 -5.01965 -0.774207 0
M  V30 10709 H 1007.19 -4.62883 -2.51092 0
M  V30 10710 H 1009.68 -3.49519 -1.43684 0
M  V30 10711 H 1009.99 -7.36192 -2.35035 0
M  V30 10712 H 1008.34 -6.61866 -2.12035 0
M  V30 10713 H 1011.53 -4.36078 -1.70158 0
M  V30 10714 H 1011.7 -6.12396 -2.11836 0
M  V30 10715 N 1005.11 0.71652 -1.4037 0
M  V30 10716 C 1006.36 1.47347 -1.38324 0
M  V30 10717 C 1006.68 1.94995 0.0139949 0
M  V30 10718 O 1005.95 1.7028 0.968585 0
M  V30 10719 H 1004.53 0.546662 -0.509087 0
M  V30 10720 H 1007.19 0.849455 -1.75415 0
M  V30 10721 H 1006.29 2.34675 -2.05752 0
M  V30 10722 N 1006.59 1.25851 0.948643 0
M  V30 10723 C 1007.81 1.13711 1.72851 0
M  V30 10724 C 1008.23 -0.308471 1.86263 0
M  V30 10725 O 1007.59 -1.21175 1.36465 0
M  V30 10726 C 1007.64 1.79271 3.13918 0
M  V30 10727 O 1007.36 3.18179 3.01154 0
M  V30 10728 C 1008.86 1.72988 4.08154 0
M  V30 10729 H 1006.08 0.396334 0.541443 0
M  V30 10730 H 1008.62 1.66329 1.18974 0
M  V30 10731 H 1006.78 1.30609 3.64719 0
M  V30 10732 H 1007.19 3.50507 3.90186 0
M  V30 10733 H 1008.67 2.2351 5.04725 0
M  V30 10734 H 1009.14 0.694866 4.33668 0
M  V30 10735 H 1009.75 2.21166 3.63271 0
M  V30 10736 N 1008.06 -1.15214 1.07534 0
M  V30 10737 C 1009.31 -1.86043 0.799629 0
M  V30 10738 C 1009.64 -1.82435 -0.674356 0
M  V30 10739 O 1008.89 -1.24379 -1.51091 0
M  V30 10740 C 1009.19 -3.34623 1.25547 0
M  V30 10741 C 1008.86 -3.58425 2.73573 0
M  V30 10742 C 1007.52 -3.6463 3.14004 0
M  V30 10743 C 1009.87 -3.67977 3.6911 0
M  V30 10744 C 1007.2 -3.779 4.48786 0
M  V30 10745 C 1009.55 -3.82771 5.03656 0
M  V30 10746 C 1008.22 -3.87222 5.43705 0
M  V30 10747 H 1007.49 -0.680781 0.292605 0
M  V30 10748 H 1010.13 -1.36149 1.34669 0
M  V30 10749 H 1008.44 -3.86737 0.627828 0
M  V30 10750 H 1010.14 -3.87836 1.01901 0
M  V30 10751 H 1006.73 -3.54238 2.41275 0
M  V30 10752 H 1010.91 -3.62482 3.39 0
M  V30 10753 H 1006.17 -3.79604 4.79281 0
M  V30 10754 H 1010.34 -3.89104 5.77556 0
M  V30 10755 H 1007.97 -3.97256 6.48145 0
M  V30 10756 N 1009.54 -0.859717 -1.32086 0
M  V30 10757 C 1010.77 -0.478865 -2.01796 0
M  V30 10758 C 1011.19 0.918274 -1.64163 0
M  V30 10759 O 1010.55 1.60409 -0.844896 0
M  V30 10760 C 1010.6 -0.631356 -3.5503 0
M  V30 10761 O 1009.7 0.333712 -4.11048 0
M  V30 10762 H 1009.04 -0.191775 -0.635703 0
M  V30 10763 H 1011.57 -1.16031 -1.68517 0
M  V30 10764 H 1011.58 -0.520783 -4.04663 0
M  V30 10765 H 1010.26 -1.65015 -3.81763 0
M  V30 10766 H 1008.84 0.178953 -3.7247 0
M  V30 10767 N 1011.02 1.44971 -0.618145 0
M  V30 10768 C 1011.97 2.27704 0.116119 0
M  V30 10769 C 1012.95 1.37927 0.828558 0
M  V30 10770 O 1014.15 1.61836 0.716806 0
M  V30 10771 C 1011.28 3.25004 1.10578 0
M  V30 10772 C 1010.36 4.22269 0.39364 0
M  V30 10773 N 1010.75 5.02571 -0.570581 0
M  V30 10774 C 1009.05 4.41387 0.639809 0
M  V30 10775 C 1009.75 5.73211 -0.990144 0
M  V30 10776 N 1008.73 5.42587 -0.331653 0
M  V30 10777 H 1012.53 2.87193 -0.624295 0
M  V30 10778 H 1010.04 1.56252 -0.442631 0
M  V30 10779 H 1012.04 3.83017 1.64631 0
M  V30 10780 H 1010.7 2.67075 1.84664 0
M  V30 10781 H 1011.71 5.09153 -0.947814 0
M  V30 10782 H 1008.39 3.94572 1.36453 0
M  V30 10783 H 1009.78 6.47728 -1.78601 0
M  V30 10784 N 1012.5 0.357919 1.53482 0
M  V30 10785 C 1013.91 0.00655107 1.59599 0
M  V30 10786 C 1014.11 -1.47449 1.37336 0
M  V30 10787 O 1013.17 -2.2351 1.17472 0
M  V30 10788 C 1014.48 0.455617 2.97228 0
M  V30 10789 C 1016.03 0.409183 3.10314 0
M  V30 10790 C 1016.51 0.833941 4.50344 0
M  V30 10791 N 1018 0.788695 4.56436 0
M  V30 10792 C 1018.73 1.08914 5.62961 0
M  V30 10793 N 1018.23 1.45847 6.77274 0
M  V30 10794 N 1020.02 1.01243 5.52907 0
M  V30 10795 H 1012.17 1.32248 1.66206 0
M  V30 10796 H 1014.44 0.540047 0.779136 0
M  V30 10797 H 1014.14 1.48881 3.18634 0
M  V30 10798 H 1014.02 -0.161751 3.76853 0
M  V30 10799 H 1016.4 -0.614863 2.88623 0
M  V30 10800 H 1016.48 1.06195 2.32715 0
M  V30 10801 H 1016.13 1.85607 4.72771 0
M  V30 10802 H 1016.06 0.158507 5.26361 0
M  V30 10803 H 1018.55 0.516497 3.74354 0
M  V30 10804 H 1018.86 1.67218 7.54492 0
M  V30 10805 H 1017.21 1.49705 6.78685 0
M  V30 10806 H 1020.4 0.723137 4.62481 0
M  V30 10807 H 1020.57 1.24991 6.35831 0
M  V30 10808 N 1013.98 -1.5736 0.0868897 0
M  V30 10809 C 1014.93 -2.10105 -0.885435 0
M  V30 10810 C 1015.91 -1.01417 -1.24913 0
M  V30 10811 O 1017.1 -1.27704 -1.22558 0
M  V30 10812 C 1014.23 -2.67837 -2.14752 0
M  V30 10813 C 1013.32 -3.83553 -1.80963 0
M  V30 10814 N 1013.71 -4.91917 -1.17693 0
M  V30 10815 C 1012.01 -3.93134 -2.10622 0
M  V30 10816 C 1012.71 -5.72628 -1.02332 0
M  V30 10817 N 1011.68 -5.2139 -1.53796 0
M  V30 10818 H 1015.49 -2.91272 -0.392179 0
M  V30 10819 H 1013 -1.61981 -0.116566 0
M  V30 10820 H 1015 -3.03948 -2.85344 0
M  V30 10821 H 1013.66 -1.88122 -2.64651 0
M  V30 10822 H 1014.67 -5.10964 -0.844731 0
M  V30 10823 H 1011.34 -3.24416 -2.62793 0
M  V30 10824 H 1012.73 -6.69813 -0.529171 0
M  V30 10825 N 1015.45 0.186762 -1.56489 0
M  V30 10826 C 1016.4 1.2357 -1.9161 0
M  V30 10827 C 1017.39 1.4058 -0.782686 0
M  V30 10828 O 1018.58 1.42811 -1.04566 0
M  V30 10829 C 1015.71 2.57865 -2.26628 0
M  V30 10830 C 1014.8 2.44613 -3.46447 0
M  V30 10831 N 1015.19 2.01052 -4.64125 0
M  V30 10832 C 1013.48 2.75483 -3.50749 0
M  V30 10833 C 1014.19 1.99891 -5.46277 0
M  V30 10834 N 1013.16 2.41711 -4.86905 0
M  V30 10835 H 1016.96 0.890359 -2.80089 0
M  V30 10836 H 1014.48 0.395144 -1.57519 0
M  V30 10837 H 1016.47 3.33642 -2.49977 0
M  V30 10838 H 1015.13 2.93215 -1.39481 0
M  V30 10839 H 1016.15 1.7163 -4.88634 0
M  V30 10840 H 1012.82 3.14974 -2.7404 0
M  V30 10841 H 1014.21 1.68042 -6.50547 0
M  V30 10842 N 1016.93 1.50896 0.454776 0
M  V30 10843 C 1018.18 1.6294 1.20741 0
M  V30 10844 C 1018.51 0.336339 1.91265 0
M  V30 10845 O 1017.79 -0.663153 1.82846 0
M  V30 10846 C 1018.07 2.82092 2.23822 0
M  V30 10847 C 1017.92 4.21326 1.57495 0
M  V30 10848 C 1019.24 2.96777 3.24979 0
M  V30 10849 H 1016.36 0.59302 0.437603 0
M  V30 10850 H 1019 1.83331 0.498959 0
M  V30 10851 H 1017.15 2.64837 2.84243 0
M  V30 10852 H 1018.82 4.50209 1.00546 0
M  V30 10853 H 1017.07 4.24829 0.877664 0
M  V30 10854 H 1017.74 5.00656 2.32482 0
M  V30 10855 H 1020.21 3.12627 2.74597 0
M  V30 10856 H 1019.09 3.81742 3.94416 0
M  V30 10857 H 1019.35 2.08091 3.90065 0
M  V30 10858 N 1018.41 -0.709066 1.40748 0
M  V30 10859 C 1019.34 -1.83583 1.4429 0
M  V30 10860 C 1020.32 -1.67378 0.303067 0
M  V30 10861 O 1021.51 -1.87312 0.512612 0
M  V30 10862 C 1018.64 -3.21599 1.31116 0
M  V30 10863 C 1017.59 -3.52486 2.4277 0
M  V30 10864 C 1016.92 -4.89716 2.14668 0
M  V30 10865 C 1018.22 -3.52824 3.85113 0
M  V30 10866 H 1019.91 -1.80876 2.38588 0
M  V30 10867 H 1017.46 -0.868795 1.14839 0
M  V30 10868 H 1019.41 -4.00123 1.32209 0
M  V30 10869 H 1018.13 -3.24898 0.332965 0
M  V30 10870 H 1016.79 -2.76305 2.40937 0
M  V30 10871 H 1016.44 -4.89625 1.15224 0
M  V30 10872 H 1016.14 -5.11347 2.89478 0
M  V30 10873 H 1017.66 -5.70566 2.17455 0
M  V30 10874 H 1019.08 -4.21377 3.88734 0
M  V30 10875 H 1017.48 -3.85984 4.59496 0
M  V30 10876 H 1018.55 -2.52073 4.14231 0
M  V30 10877 N 1019.89 -1.26353 -0.941956 0
M  V30 10878 C 1020.84 -1.04513 -2.02635 0
M  V30 10879 C 1021.82 0.0222314 -1.60885 0
M  V30 10880 O 1023.02 -0.194629 -1.75927 0
M  V30 10881 C 1020.14 -0.679282 -3.36512 0
M  V30 10882 C 1019.23 -1.78406 -3.8475 0
M  V30 10883 N 1019.62 -3.02136 -4.05645 0
M  V30 10884 C 1017.92 -1.66748 -4.13656 0
M  V30 10885 C 1018.62 -3.73932 -4.45589 0
M  V30 10886 N 1017.6 -3.01616 -4.52248 0
M  V30 10887 H 1021.4 -1.9843 -2.16801 0
M  V30 10888 H 1018.91 -1.16858 -1.12774 0
M  V30 10889 H 1020.91 -0.503975 -4.13843 0
M  V30 10890 H 1019.57 0.252418 -3.23717 0
M  V30 10891 H 1020.58 -3.38049 -3.92356 0
M  V30 10892 H 1017.26 -0.805627 -4.09653 0
M  V30 10893 H 1018.65 -4.80201 -4.69954 0
M  V30 10894 N 1021.37 1.14642 -1.08144 0
M  V30 10895 C 1022.64 1.81774 -0.72232 0
M  V30 10896 C 1023.02 1.95587 0.794294 0
M  V30 10897 O 1022.37 1.51361 1.71178 0
M  V30 10898 C 1022.58 3.1763 -1.44611 0
M  V30 10899 C 1023.93 3.93161 -1.60343 0
M  V30 10900 O 1024.95 3.2721 -1.40755 0
M  V30 10901 O 1023.81 5.11422 -1.9264 0
M  V30 10902 H 1020.91 0.785733 -0.257978 0
M  V30 10903 H 1023.45 1.21683 -1.18285 0
M  V30 10904 H 1022.23 3.02723 -2.4794 0
M  V30 10905 H 1021.85 3.85412 -0.976892 0
M  V30 10906 N 1022.85 0.866709 1.31628 0
M  V30 10907 C 1023.78 0.277328 2.27516 0
M  V30 10908 C 1024.79 -0.557786 1.52946 0
M  V30 10909 O 1025.98 -0.38031 1.74402 0
M  V30 10910 C 1023.08 -0.625742 3.33073 0
M  V30 10911 C 1022.25 0.176204 4.37045 0
M  V30 10912 C 1021.31 -0.654497 5.22114 0
M  V30 10913 O 1020.34 -0.0836961 5.69138 0
M  V30 10914 N 1021.54 -1.96708 5.46156 0
M  V30 10915 H 1024.3 1.10133 2.78731 0
M  V30 10916 H 1021.87 0.72787 1.44616 0
M  V30 10917 H 1023.86 -1.18709 3.86898 0
M  V30 10918 H 1022.43 -1.35042 2.81926 0
M  V30 10919 H 1021.65 0.918999 3.83338 0
M  V30 10920 H 1022.94 0.726594 5.03585 0
M  V30 10921 H 1022.33 -2.454 5.09701 0
M  V30 10922 H 1020.89 -2.47629 6.02929 0
M  V30 10923 N 1024.32 -1.44642 0.625825 0
M  V30 10924 C 1025.27 -2.32408 -0.0945221 0
M  V30 10925 C 1026.27 -1.47038 -0.841198 0
M  V30 10926 O 1027.47 -1.63415 -0.754698 0
M  V30 10927 H 1023.85 -0.75038 -0.0493321 0
M  V30 10928 H 1025.82 -2.90922 0.663863 0
M  V30 10929 C 1024.57 -3.30951 -1.06615 0
M  V30 10930 H 1023.89 -3.96648 -0.501021 0
M  V30 10931 H 1025.33 -3.95054 -1.53976 0
M  V30 10932 C 1023.79 -2.59479 -2.14877 0
M  V30 10933 O 1024.32 -2.38974 -3.22885 0
M  V30 10934 N 1022.52 -2.19307 -1.90665 0
M  V30 10935 H 1022.07 -2.36184 -1.02835 0
M  V30 10936 H 1022.03 -1.71811 -2.63303 0
M  V30 10937 N 1025.8 -0.366053 -1.5329 0
M  V30 10938 C 1027.05 0.223824 -2.01561 0
M  V30 10939 C 1027.38 1.48382 -1.25286 0
M  V30 10940 O 1026.66 1.91385 -0.34669 0
M  V30 10941 C 1026.94 0.5153 -3.56394 0
M  V30 10942 C 1026.79 -0.758357 -4.43361 0
M  V30 10943 C 1028.11 1.31568 -4.19974 0
M  V30 10944 H 1025.23 0.0798751 -0.732659 0
M  V30 10945 H 1027.87 -0.491038 -1.83545 0
M  V30 10946 H 1026.02 1.12429 -3.71876 0
M  V30 10947 H 1027.69 -1.39584 -4.39675 0
M  V30 10948 H 1025.94 -1.37862 -4.11311 0
M  V30 10949 H 1026.61 -0.509366 -5.49645 0
M  V30 10950 H 1029.08 0.800514 -4.08327 0
M  V30 10951 H 1027.96 1.48837 -5.28336 0
M  V30 10952 H 1028.22 2.32432 -3.76069 0
M  V30 10953 N 1027.28 1.57312 -0.0952337 0
M  V30 10954 C 1028.56 1.85822 0.610715 0
M  V30 10955 C 1028.94 0.992114 1.86334 0
M  V30 10956 O 1028.28 0.0645669 2.28409 0
M  V30 10957 C 1028.49 3.36492 0.925967 0
M  V30 10958 C 1029.84 4.0455 1.28936 0
M  V30 10959 O 1030.87 3.41374 1.01698 0
M  V30 10960 O 1029.73 5.16024 1.79949 0
M  V30 10961 H 1026.82 0.768454 0.305626 0
M  V30 10962 H 1029.37 1.69217 -0.127941 0
M  V30 10963 H 1028.14 3.91282 0.0373127 0
M  V30 10964 H 1027.76 3.58443 1.7206 0
M  V30 10965 N 1028.76 -0.17846 1.56586 0
M  V30 10966 C 1029.7 -1.22104 1.95855 0
M  V30 10967 C 1030.67 -1.44366 0.821447 0
M  V30 10968 O 1031.86 -1.57224 1.08098 0
M  V30 10969 C 1029 -2.55701 2.31757 0
M  V30 10970 C 1028.11 -2.40879 3.5861 0
M  V30 10971 C 1027.25 -3.67293 3.83757 0
M  V30 10972 C 1026.29 -3.47373 5.03982 0
M  V30 10973 N 1025.42 -4.65839 5.25298 0
M  V30 10974 H 1030.26 -0.879168 2.84736 0
M  V30 10975 H 1027.8 -0.422721 1.40895 0
M  V30 10976 H 1029.76 -3.33556 2.50592 0
M  V30 10977 H 1028.39 -2.87898 1.45995 0
M  V30 10978 H 1027.44 -1.54236 3.47729 0
M  V30 10979 H 1028.75 -2.22102 4.46623 0
M  V30 10980 H 1027.91 -4.53584 4.02922 0
M  V30 10981 H 1026.65 -3.89041 2.94107 0
M  V30 10982 H 1025.65 -2.59467 4.84723 0
M  V30 10983 H 1026.88 -3.27055 5.95157 0
M  V30 10984 H 1024.82 -4.8782 4.38598 0
M  V30 10985 H 1024.74 -4.4995 6.0752 0
M  V30 10986 H 1026.01 -5.53435 5.48936 0
M  V30 10987 N 1030.24 -1.51135 -0.446768 0
M  V30 10988 C 1031.65 -1.39101 -0.782504 0
M  V30 10989 C 1031.85 -0.46599 -1.96038 0
M  V30 10990 O 1030.91 0.0823679 -2.52366 0
M  V30 10991 C 1032.22 -2.80953 -1.07173 0
M  V30 10992 C 1033.77 -2.90038 -1.17673 0
M  V30 10993 C 1034.24 -4.32777 -1.49894 0
M  V30 10994 N 1035.73 -4.3584 -1.56837 0
M  V30 10995 C 1036.47 -5.43305 -1.83322 0
M  V30 10996 N 1035.97 -6.60945 -2.07662 0
M  V30 10997 N 1037.76 -5.30775 -1.85026 0
M  V30 10998 H 1029.91 -2.09835 0.329114 0
M  V30 10999 H 1032.17 -0.944199 0.0848054 0
M  V30 11000 H 1031.88 -3.50591 -0.279037 0
M  V30 11001 H 1031.75 -3.197 -2.00179 0
M  V30 11002 H 1034.14 -2.20603 -1.96005 0
M  V30 11003 H 1034.22 -2.54801 -0.225892 0
M  V30 11004 H 1033.86 -5.02757 -0.720924 0
M  V30 11005 H 1033.79 -4.6552 -2.46168 0
M  V30 11006 H 1036.29 -3.51023 -1.39968 0
M  V30 11007 H 1036.6 -7.38643 -2.27214 0
M  V30 11008 H 1034.94 -6.64077 -2.05003 0
M  V30 11009 H 1038.13 -4.37858 -1.65523 0
M  V30 11010 H 1038.31 -6.14609 -2.05329 0
M  V30 11011 N 1031.71 0.701592 -1.41122 0
M  V30 11012 C 1032.94 1.49049 -1.43499 0
M  V30 11013 C 1033.36 1.88761 -0.0385684 0
M  V30 11014 O 1032.71 1.56384 0.940755 0
M  V30 11015 C 1032.76 2.7569 -2.33832 0
M  V30 11016 O 1032.49 2.37653 -3.68039 0
M  V30 11017 C 1033.99 3.69479 -2.44949 0
M  V30 11018 H 1031.21 0.459519 -0.488961 0
M  V30 11019 H 1033.75 0.864318 -1.85337 0
M  V30 11020 H 1031.91 3.34559 -1.95318 0
M  V30 11021 H 1032.32 3.19241 -4.16156 0
M  V30 11022 H 1033.79 4.55139 -3.12334 0
M  V30 11023 H 1034.27 4.13553 -1.47887 0
M  V30 11024 H 1034.88 3.16517 -2.84072 0
M  V30 11025 N 1033.19 1.2685 0.935242 0
M  V30 11026 C 1034.43 1.13972 1.69675 0
M  V30 11027 C 1034.8 -0.310655 1.8947 0
M  V30 11028 O 1036 -0.561692 2.62866 0
M  V30 11029 C 1034.27 1.89387 3.03096 0
M  V30 11030 S 1035.83 1.92633 3.94256 0
M  V30 11031 H 1032.64 0.407009 0.582979 0
M  V30 11032 H 1035.25 1.60653 1.11404 0
M  V30 11033 H 1033.95 2.9397 2.86374 0
M  V30 11034 H 1033.48 1.43171 3.66423 0
M  V30 11035 H 1035.5 1.01732 4.85659 0
M  V30 11036 N 1034.67 -1.14067 1.0875 0
M  V30 11037 C 1035.92 -1.84535 0.814235 0
M  V30 11038 C 1036.23 -1.84044 -0.662355 0
M  V30 11039 O 1037.44 -2.50336 -1.05091 0
M  V30 11040 C 1035.89 -3.31273 1.40663 0
M  V30 11041 C 1035.5 -3.40171 2.91526 0
M  V30 11042 C 1037.25 -4.0683 1.21201 0
M  V30 11043 C 1035.15 -4.81141 3.43885 0
M  V30 11044 H 1034.08 -0.691346 0.300926 0
M  V30 11045 H 1036.73 -1.28562 1.30935 0
M  V30 11046 H 1035.12 -3.87005 0.839215 0
M  V30 11047 H 1036.29 -2.94471 3.54434 0
M  V30 11048 H 1034.61 -2.78073 3.09942 0
M  V30 11049 H 1037.2 -5.10891 1.57781 0
M  V30 11050 H 1037.55 -4.16022 0.152092 0
M  V30 11051 H 1038.08 -3.57408 1.74655 0
M  V30 11052 H 1034.82 -4.77138 4.49466 0
M  V30 11053 H 1034.34 -5.27365 2.85738 0
M  V30 11054 H 1036.02 -5.50042 3.40681 0
M  V30 11055 N 1036.15 -0.873678 -1.31166 0
M  V30 11056 C 1037.56 -0.53852 -1.78765 0
M  V30 11057 C 1037.91 0.944765 -1.71955 0
M  V30 11058 O 1037.04 1.73781 -1.28954 0
M  V30 11059 C 1037.63 -0.970749 -3.24595 0
M  V30 11060 C 1036.19 -0.687189 -3.70074 0
M  V30 11061 C 1035.34 -1.16001 -2.51871 0
M  V30 11062 H 1038.29 -1.05903 -1.18196 0
M  V30 11063 H 1038.31 -0.294966 -3.79355 0
M  V30 11064 H 1037.82 -2.05034 -3.29519 0
M  V30 11065 H 1035.92 0.380881 -3.70648 0
M  V30 11066 H 1036.03 -1.26682 -4.62048 0
M  V30 11067 H 1034.4 -0.579663 -2.48016 0
M  V30 11068 H 1035.18 -2.2471 -2.59539 0
M  V30 11069 N 1037.63 1.44308 -0.633487 0
M  V30 11070 C 1038.56 2.27887 0.119397 0
M  V30 11071 C 1039.54 1.38676 0.848981 0
M  V30 11072 O 1040.72 1.68116 0.85259 0
M  V30 11073 C 1037.85 3.17658 1.17521 0
M  V30 11074 C 1036.89 4.22992 0.54589 0
M  V30 11075 S 1037.73 5.31345 -0.6658 0
M  V30 11076 C 1038.88 6.24684 0.389965 0
M  V30 11077 H 1039.12 2.91394 -0.589638 0
M  V30 11078 H 1036.65 1.48529 -0.421727 0
M  V30 11079 H 1038.61 3.69929 1.77941 0
M  V30 11080 H 1037.27 2.53367 1.85645 0
M  V30 11081 H 1036.46 4.85828 1.34115 0
M  V30 11082 H 1036.06 3.73996 0.0162506 0
M  V30 11083 H 1038.36 6.65645 1.26185 0
M  V30 11084 H 1039.3 7.07809 -0.202878 0
M  V30 11085 H 1039.71 5.59929 0.716922 0
M  V30 11086 N 1039.1 0.374177 1.53094 0
M  V30 11087 C 1040.05 -0.48326 2.27524 0
M  V30 11088 C 1041.05 -1.07606 1.30833 0
M  V30 11089 O 1042.25 -1.01827 1.48429 0
M  V30 11090 H 1038.63 -0.174578 0.731455 0
M  V30 11091 H 1040.6 0.166156 2.97937 0
M  V30 11092 C 1039.35 -1.6065 3.08362 0
M  V30 11093 H 1038.67 -1.15966 3.82612 0
M  V30 11094 H 1040.11 -2.18099 3.63606 0
M  V30 11095 C 1038.57 -2.55381 2.19732 0
M  V30 11096 O 1039.1 -3.58414 1.8139 0
M  V30 11097 N 1037.31 -2.24769 1.84194 0
M  V30 11098 H 1036.85 -1.41018 2.15573 0
M  V30 11099 H 1036.81 -2.88404 1.25181 0
M  V30 11100 N 1040.58 -1.57259 0.103575 0
M  V30 11101 C 1041.53 -2.11032 -0.863101 0
M  V30 11102 C 1042.52 -1.02737 -1.2383 0
M  V30 11103 O 1043.71 -1.28997 -1.21197 0
M  V30 11104 C 1040.84 -2.70099 -2.11899 0
M  V30 11105 C 1039.92 -3.85451 -1.76885 0
M  V30 11106 N 1040.31 -4.93137 -1.12469 0
M  V30 11107 C 1038.61 -3.95346 -2.06441 0
M  V30 11108 C 1039.31 -5.73681 -0.962527 0
M  V30 11109 N 1038.29 -5.22992 -1.48258 0
M  V30 11110 H 1042.09 -2.91671 -0.361264 0
M  V30 11111 H 1039.61 -1.62096 -0.0993794 0
M  V30 11112 H 1041.6 -3.06957 -2.82104 0
M  V30 11113 H 1040.26 -1.90918 -2.62641 0
M  V30 11114 H 1041.27 -5.11832 -0.790489 0
M  V30 11115 H 1037.95 -3.27185 -2.59338 0
M  V30 11116 H 1039.34 -6.70337 -0.458098 0
M  V30 11117 N 1042.06 0.170153 -1.56679 0
M  V30 11118 C 1042.99 1.21285 -1.9953 0
M  V30 11119 C 1043.97 1.46104 -0.871071 0
M  V30 11120 O 1045.16 1.57419 -1.13724 0
M  V30 11121 C 1042.29 2.5515 -2.35618 0
M  V30 11122 C 1041.24 2.44898 -3.51011 0
M  V30 11123 C 1040.57 3.83263 -3.72845 0
M  V30 11124 C 1041.87 1.95271 -4.84424 0
M  V30 11125 H 1043.56 0.856646 -2.86883 0
M  V30 11126 H 1041.11 0.410634 -1.38021 0
M  V30 11127 H 1043.06 3.28299 -2.64193 0
M  V30 11128 H 1041.78 2.92561 -1.45175 0
M  V30 11129 H 1040.44 1.74203 -3.22566 0
M  V30 11130 H 1040.09 4.18069 -2.79691 0
M  V30 11131 H 1039.79 3.77272 -4.50488 0
M  V30 11132 H 1041.31 4.57996 -4.03822 0
M  V30 11133 H 1042.73 2.58195 -5.11867 0
M  V30 11134 H 1041.13 2.00225 -5.65712 0
M  V30 11135 H 1042.2 0.90709 -4.7634 0
M  V30 11136 N 1043.54 1.5137 0.438746 0
M  V30 11137 C 1044.78 1.65173 1.18698 0
M  V30 11138 C 1045.14 0.362753 1.88949 0
M  V30 11139 O 1044.43 -0.641351 1.80547 0
M  V30 11140 C 1044.63 2.79221 2.23093 0
M  V30 11141 C 1044.46 4.19085 1.63088 0
M  V30 11142 C 1043.23 4.85042 1.41642 0
M  V30 11143 C 1045.42 5.02225 1.10789 0
M  V30 11144 N 1043.41 6.09024 0.772198 0
M  V30 11145 C 1044.78 6.17197 0.588854 0
M  V30 11146 C 1046.83 4.87764 0.999516 0
M  V30 11147 C 1045.53 7.19295 -0.0279103 0
M  V30 11148 C 1047.56 5.90068 0.396648 0
M  V30 11149 C 1046.92 7.04311 -0.111855 0
M  V30 11150 H 1043.02 0.658316 0.422071 0
M  V30 11151 H 1045.61 1.88593 0.483808 0
M  V30 11152 H 1043.78 2.57468 2.908 0
M  V30 11153 H 1045.51 2.82213 2.90066 0
M  V30 11154 H 1042.26 4.42886 1.67776 0
M  V30 11155 H 1042.69 6.75383 0.467568 0
M  V30 11156 H 1047.33 3.99695 1.37853 0
M  V30 11157 H 1045.05 8.07013 -0.419056 0
M  V30 11158 H 1048.63 5.80948 0.314715 0
M  V30 11159 H 1047.51 7.82118 -0.571021 0
M  V30 11160 N 1045.02 -0.694098 1.41492 0
M  V30 11161 C 1046.43 -1.27407 1.36471 0
M  V30 11162 C 1046.78 -1.9614 0.0485209 0
M  V30 11163 O 1045.9 -1.98871 -0.853188 0
M  V30 11164 C 1046.5 -2.31698 2.47188 0
M  V30 11165 C 1045.06 -2.85268 2.45559 0
M  V30 11166 C 1044.2 -1.59325 2.2696 0
M  V30 11167 H 1047.16 -0.488756 1.50986 0
M  V30 11168 H 1047.18 -3.1302 2.1633 0
M  V30 11169 H 1046.69 -1.81644 3.42968 0
M  V30 11170 H 1044.79 -3.39494 1.5354 0
M  V30 11171 H 1044.9 -3.35598 3.41922 0
M  V30 11172 H 1043.27 -1.85188 1.74864 0
M  V30 11173 H 1044.05 -1.11265 3.24769 0
M  V30 11174 N 1046.49 -1.27344 -0.928501 0
M  V30 11175 C 1047.44 -1.09835 -2.05034 0
M  V30 11176 C 1048.44 -0.0216643 -1.69386 0
M  V30 11177 O 1049.64 -0.179323 -1.79105 0
M  V30 11178 H 1046.02 -0.338416 -0.671549 0
M  V30 11179 H 1047.99 -2.04879 -2.1695 0
M  V30 11180 C 1046.74 -0.761462 -3.3926 0
M  V30 11181 H 1046.06 -1.58186 -3.67175 0
M  V30 11182 H 1047.5 -0.678812 -4.18531 0
M  V30 11183 C 1045.96 0.534118 -3.32639 0
M  V30 11184 O 1046.49 1.56877 -3.69801 0
M  V30 11185 N 1044.7 0.529437 -2.85736 0
M  V30 11186 H 1044.24 -0.312954 -2.55692 0
M  V30 11187 H 1044.2 1.39637 -2.81689 0
M  V30 11188 N 1047.97 1.13488 -1.09353 0
M  V30 11189 C 1048.9 2.18563 -0.69012 0
M  V30 11190 C 1049.92 1.60585 0.267651 0
M  V30 11191 O 1051.11 1.78419 0.0538176 0
M  V30 11192 C 1048.21 3.389 0.00391255 0
M  V30 11193 C 1047.38 4.2639 -0.975209 0
M  V30 11194 C 1046.44 5.25258 -0.314719 0
M  V30 11195 O 1045.46 5.6101 -0.962119 0
M  V30 11196 N 1046.67 5.72978 0.931458 0
M  V30 11197 H 1049.43 2.53788 -1.59411 0
M  V30 11198 H 1046.99 1.28803 -0.980886 0
M  V30 11199 H 1048.98 4.02112 0.45696 0
M  V30 11200 H 1047.55 3.0192 0.81014 0
M  V30 11201 H 1046.77 3.59964 -1.60684 0
M  V30 11202 H 1048.06 4.817 -1.63836 0
M  V30 11203 H 1047.46 5.46078 1.477 0
M  V30 11204 H 1046.02 6.38131 1.32784 0
M  V30 11205 N 1049.45 0.880621 1.30701 0
M  V30 11206 C 1050.41 0.349087 2.26526 0
M  V30 11207 C 1051.41 -0.505973 1.52632 0
M  V30 11208 O 1052.6 -0.313751 1.71351 0
M  V30 11209 C 1049.74 -0.503023 3.37168 0
M  V30 11210 H 1050.93 1.19516 2.75056 0
M  V30 11211 H 1048.48 0.657107 1.41816 0
M  V30 11212 H 1049.22 -1.36986 2.93948 0
M  V30 11213 H 1049 0.109389 3.91947 0
M  V30 11214 H 1050.49 -0.866845 4.08504 0
M  V30 11215 N 1050.93 -1.4397 0.641131 0
M  V30 11216 C 1052.34 -1.85267 0.230838 0
M  V30 11217 C 1052.69 -1.53659 -1.21998 0
M  V30 11218 O 1051.82 -0.979572 -1.92959 0
M  V30 11219 C 1052.41 -3.36284 0.412171 0
M  V30 11220 C 1050.97 -3.76358 0.0563004 0
M  V30 11221 C 1050.12 -2.67768 0.720809 0
M  V30 11222 H 1053.07 -1.34294 0.845624 0
M  V30 11223 H 1053.09 -3.78924 -0.345936 0
M  V30 11224 H 1052.6 -3.59258 1.46818 0
M  V30 11225 H 1050.7 -3.58997 -0.997582 0
M  V30 11226 H 1050.82 -4.76756 0.473335 0
M  V30 11227 H 1049.18 -2.54227 0.155164 0
M  V30 11228 H 1049.96 -2.93573 1.77961 0
M  V30 11229 N 1052.41 -0.382291 -1.52893 0
M  V30 11230 C 1053.64 0.202114 -2.05609 0
M  V30 11231 C 1054.05 1.4164 -1.25438 0
M  V30 11232 O 1053.39 1.81359 -0.292324 0
M  V30 11233 C 1053.45 0.64356 -3.53693 0
M  V30 11234 C 1053.11 -0.456305 -4.54716 0
M  V30 11235 C 1054.11 -1.3115 -5.03086 0
M  V30 11236 C 1051.8 -0.621329 -4.98442 0
M  V30 11237 C 1053.79 -2.3169 -5.938 0
M  V30 11238 C 1051.48 -1.63008 -5.88958 0
M  V30 11239 C 1052.48 -2.47629 -6.36529 0
M  V30 11240 O 1052.16 -3.46781 -7.25257 0
M  V30 11241 H 1051.9 0.0358014 -0.675051 0
M  V30 11242 H 1054.45 -0.543935 -1.98067 0
M  V30 11243 H 1052.68 1.44148 -3.58829 0
M  V30 11244 H 1054.37 1.15284 -3.89184 0
M  V30 11245 H 1055.13 -1.19528 -4.70041 0
M  V30 11246 H 1051.01 0.027593 -4.60992 0
M  V30 11247 H 1054.56 -2.97776 -6.30853 0
M  V30 11248 H 1050.45 -1.74671 -6.21418 0
M  V30 11249 H 1051.22 -3.42707 -7.433 0
M  V30 11250 N 1053.89 1.57202 -0.111913 0
M  V30 11251 C 1055.11 1.99297 0.555713 0
M  V30 11252 C 1055.53 0.991444 1.60673 0
M  V30 11253 O 1054.89 -0.0166672 1.82492 0
M  V30 11254 C 1054.94 3.41413 1.18826 0
M  V30 11255 O 1054.66 4.37733 0.179261 0
M  V30 11256 C 1056.16 3.98602 1.93989 0
M  V30 11257 H 1053.38 0.654543 0.147695 0
M  V30 11258 H 1055.92 2.03557 -0.196163 0
M  V30 11259 H 1054.08 3.38115 1.89096 0
M  V30 11260 H 1054.49 5.20606 0.637935 0
M  V30 11261 H 1055.97 5.00143 2.33584 0
M  V30 11262 H 1056.44 3.37349 2.81233 0
M  V30 11263 H 1057.05 4.05424 1.28497 0
M  V30 11264 N 1055.36 -0.161842 1.56767 0
M  V30 11265 C 1056.61 -0.878224 1.82798 0
M  V30 11266 C 1056.94 -1.81481 0.691242 0
M  V30 11267 O 1056.22 -1.92075 -0.30618 0
M  V30 11268 C 1056.5 -1.66565 3.19262 0
M  V30 11269 C 1056.35 -0.751551 4.43477 0
M  V30 11270 C 1057.67 -2.63134 3.52773 0
M  V30 11271 H 1054.79 -0.317828 0.664947 0
M  V30 11272 H 1057.43 -0.14402 1.89453 0
M  V30 11273 H 1055.58 -2.29157 3.13719 0
M  V30 11274 H 1057.26 -0.137783 4.61094 0
M  V30 11275 H 1055.5 -0.0601785 4.33758 0
M  V30 11276 H 1056.17 -1.33823 5.35533 0
M  V30 11277 H 1058.65 -2.10666 3.5883 0
M  V30 11278 H 1057.52 -3.15289 4.49315 0
M  V30 11279 H 1057.78 -3.43786 2.77963 0
M  V30 11280 N 1056.84 -1.516 -0.430713 0
M  V30 11281 C 1058.08 -1.6626 -1.18899 0
M  V30 11282 C 1058.45 -0.373877 -1.88325 0
M  V30 11283 O 1059.65 -0.39632 -2.65862 0
M  V30 11284 C 1057.92 -2.83693 -2.17378 0
M  V30 11285 S 1059.48 -3.18717 -3.01604 0
M  V30 11286 H 1056.29 -0.585681 -0.403112 0
M  V30 11287 H 1058.9 -1.89528 -0.479538 0
M  V30 11288 H 1057.6 -3.75759 -1.65025 0
M  V30 11289 H 1057.13 -2.62634 -2.92894 0
M  V30 11290 H 1059.15 -2.65665 -4.1909 0
M  V30 11291 N 1058.32 0.686584 -1.41858 0
M  V30 11292 C 1059.27 1.82167 -1.4463 0
M  V30 11293 C 1060.26 1.66286 -0.323313 0
M  V30 11294 O 1061.47 1.73038 -0.495773 0
M  V30 11295 H 1057.84 0.600454 -0.452724 0
M  V30 11296 H 1059.81 1.76947 -2.40276 0
M  V30 11297 C 1058.56 3.20248 -1.35412 0
M  V30 11298 H 1057.89 3.33089 -2.21115 0
M  V30 11299 H 1059.33 3.99723 -1.41413 0
M  V30 11300 C 1057.78 3.36832 -0.0674972 0
M  V30 11301 O 1058.31 3.91845 0.884325 0
M  V30 11302 N 1056.52 2.90598 0.011519 0
M  V30 11303 H 1056.07 2.46016 -0.76381 0
M  V30 11304 H 1056.03 3.02072 0.871774 0
M  V30 11305 N 1059.8 1.27835 0.921735 0
M  V30 11306 C 1061.02 1.17465 1.70929 0
M  V30 11307 C 1061.45 -0.264171 1.86236 0
M  V30 11308 O 1060.81 -1.19124 1.36671 0
M  V30 11309 C 1060.85 1.8697 3.08342 0
M  V30 11310 O 1059.96 1.17173 3.95404 0
M  V30 11311 H 1059.3 0.408206 0.523702 0
M  V30 11312 H 1061.83 1.69013 1.15307 0
M  V30 11313 H 1061.84 1.94564 3.58621 0
M  V30 11314 H 1060.51 2.91633 2.96518 0
M  V30 11315 H 1059.09 1.17688 3.53842 0
M  V30 11316 N 1061.28 -1.12907 1.09954 0
M  V30 11317 C 1062.5 -1.88679 0.861099 0
M  V30 11318 C 1062.93 -1.78853 -0.582499 0
M  V30 11319 O 1062.28 -1.13992 -1.4098 0
M  V30 11320 C 1062.33 -3.36047 1.30785 0
M  V30 11321 O 1061.44 -4.09716 0.469728 0
M  V30 11322 H 1060.78 -0.586447 0.31141 0
M  V30 11323 H 1063.31 -1.42818 1.46507 0
M  V30 11324 H 1063.32 -3.86882 1.29562 0
M  V30 11325 H 1061.99 -3.42516 2.35914 0
M  V30 11326 H 1060.57 -3.6887 0.54674 0
M  V30 11327 N 1062.75 -0.88754 -1.30232 0
M  V30 11328 C 1063.68 -0.372481 -2.3051 0
M  V30 11329 C 1064.66 0.546037 -1.61098 0
M  V30 11330 O 1065.85 0.459345 -1.88689 0
M  V30 11331 C 1062.98 0.411605 -3.44852 0
M  V30 11332 C 1061.93 -0.415383 -4.2598 0
M  V30 11333 C 1061.26 0.495463 -5.324 0
M  V30 11334 C 1062.56 -1.65886 -4.95257 0
M  V30 11335 H 1064.25 -1.21045 -2.7384 0
M  V30 11336 H 1061.8 -0.583498 -1.31648 0
M  V30 11337 H 1063.75 0.782584 -4.1407 0
M  V30 11338 H 1062.48 1.28325 -3.00334 0
M  V30 11339 H 1061.14 -0.768534 -3.58454 0
M  V30 11340 H 1060.78 1.36489 -4.84128 0
M  V30 11341 H 1060.48 -0.0540885 -5.87575 0
M  V30 11342 H 1062.01 0.862901 -6.04472 0
M  V30 11343 H 1063.42 -1.35832 -5.56976 0
M  V30 11344 H 1061.82 -2.14881 -5.60309 0
M  V30 11345 H 1062.89 -2.40181 -4.21237 0
M  V30 11346 N 1064.23 1.43628 -0.648757 0
M  V30 11347 C 1065.46 2.06732 -0.166284 0
M  V30 11348 C 1065.88 1.48281 1.15734 0
M  V30 11349 O 1065.24 0.591018 1.71396 0
M  V30 11350 C 1065.29 3.60502 -0.0838732 0
M  V30 11351 O 1064.39 4.01186 0.955185 0
M  V30 11352 H 1063.73 0.657479 -0.0928285 0
M  V30 11353 H 1066.26 1.84208 -0.890421 0
M  V30 11354 H 1066.27 4.07875 0.100923 0
M  V30 11355 H 1064.95 4.02424 -1.05014 0
M  V30 11356 H 1063.53 3.65412 0.743537 0
M  V30 11357 N 1065.71 0.390394 1.52688 0
M  V30 11358 C 1066.62 -0.451543 2.30213 0
M  V30 11359 C 1067.64 -1.07051 1.37172 0
M  V30 11360 O 1068.81 -1.07609 1.70242 0
M  V30 11361 C 1065.88 -1.56299 3.0947 0
M  V30 11362 C 1064.94 -0.969017 4.18221 0
M  V30 11363 C 1064.17 -2.0275 4.93688 0
M  V30 11364 O 1064.39 -3.24273 4.69258 0
M  V30 11365 O 1063.33 -1.64418 5.79008 0
M  V30 11366 H 1067.15 0.180042 3.03166 0
M  V30 11367 H 1064.74 0.154082 1.48603 0
M  V30 11368 H 1066.62 -2.20864 3.58883 0
M  V30 11369 H 1065.3 -2.17952 2.3933 0
M  V30 11370 H 1064.2 -0.286587 3.73001 0
M  V30 11371 H 1065.54 -0.396687 4.90599 0
M  V30 11372 N 1067.19 -1.57141 0.120249 0
M  V30 11373 C 1068.42 -1.993 -0.544346 0
M  V30 11374 C 1068.83 -0.998858 -1.60684 0
M  V30 11375 O 1068.17 0.0162197 -1.83693 0
M  V30 11376 C 1068.23 -3.37874 -1.22808 0
M  V30 11377 C 1067.9 -4.55924 -0.313374 0
M  V30 11378 C 1068.89 -5.17962 0.448501 0
M  V30 11379 C 1066.58 -5.018 -0.224082 0
M  V30 11380 C 1068.57 -6.24264 1.28739 0
M  V30 11381 C 1066.26 -6.07963 0.618437 0
M  V30 11382 C 1067.26 -6.69061 1.3728 0
M  V30 11383 O 1066.94 -7.73173 2.20133 0
M  V30 11384 H 1066.68 -0.659466 -0.148596 0
M  V30 11385 H 1069.23 -2.04387 0.203779 0
M  V30 11386 H 1067.46 -3.29545 -2.02329 0
M  V30 11387 H 1069.15 -3.64314 -1.7897 0
M  V30 11388 H 1069.92 -4.83434 0.389395 0
M  V30 11389 H 1065.79 -4.53989 -0.80094 0
M  V30 11390 H 1069.34 -6.71883 1.87667 0
M  V30 11391 H 1065.24 -6.4192 0.678932 0
M  V30 11392 H 1066 -7.90276 2.13088 0
M  V30 11393 N 1068.67 0.153526 -1.5685 0
M  V30 11394 C 1069.91 0.865519 -1.82629 0
M  V30 11395 C 1070.24 1.81999 -0.700105 0
M  V30 11396 O 1069.51 1.93907 0.278744 0
M  V30 11397 H 1068.09 0.32261 -0.673745 0
M  V30 11398 H 1070.75 0.149088 -1.94329 0
M  V30 11399 H 1069.84 1.43171 -2.77324 0
M  V30 11400 N 1070.14 1.51827 0.422667 0
M  V30 11401 C 1071.39 1.65464 1.17258 0
M  V30 11402 C 1071.72 0.376834 1.90509 0
M  V30 11403 O 1071 -0.624219 1.84211 0
M  V30 11404 C 1071.28 2.86776 2.17788 0
M  V30 11405 C 1071.13 4.24571 1.48523 0
M  V30 11406 C 1072.45 3.03603 3.18611 0
M  V30 11407 H 1069.57 0.602169 0.424925 0
M  V30 11408 H 1072.21 1.84349 0.45996 0
M  V30 11409 H 1070.36 2.70806 2.78561 0
M  V30 11410 H 1072.04 4.5224 0.909739 0
M  V30 11411 H 1070.28 4.26595 0.787354 0
M  V30 11412 H 1070.95 5.05475 2.2181 0
M  V30 11413 H 1073.43 3.18381 2.67904 0
M  V30 11414 H 1072.3 3.90022 3.8623 0
M  V30 11415 H 1072.56 2.16318 3.85563 0
M  V30 11416 N 1071.62 -0.679052 1.4222 0
M  V30 11417 C 1072.55 -1.80481 1.48152 0
M  V30 11418 C 1073.53 -1.66698 0.338502 0
M  V30 11419 O 1074.72 -1.86183 0.552228 0
M  V30 11420 C 1071.85 -3.18746 1.37908 0
M  V30 11421 C 1070.8 -3.47258 2.50192 0
M  V30 11422 C 1070.13 -4.85052 2.25008 0
M  V30 11423 C 1071.43 -3.44576 3.92511 0
M  V30 11424 H 1073.12 -1.75774 2.42371 0
M  V30 11425 H 1070.67 -0.844241 1.16656 0
M  V30 11426 H 1072.62 -3.97229 1.40666 0
M  V30 11427 H 1071.35 -3.24119 0.401806 0
M  V30 11428 H 1070 -2.71133 2.46744 0
M  V30 11429 H 1069.65 -4.8707 1.25584 0
M  V30 11430 H 1069.35 -5.05092 3.00259 0
M  V30 11431 H 1070.88 -5.65825 2.29508 0
M  V30 11432 H 1072.29 -4.13036 3.97585 0
M  V30 11433 H 1070.69 -3.76151 4.67579 0
M  V30 11434 H 1071.76 -2.4323 4.19484 0
M  V30 11435 N 1073.1 -1.28322 -0.914942 0
M  V30 11436 C 1074.35 -1.15179 -1.66067 0
M  V30 11437 C 1074.67 0.300279 -1.92674 0
M  V30 11438 O 1073.94 1.20821 -1.54205 0
M  V30 11439 H 1072.52 -0.423264 -0.615513 0
M  V30 11440 H 1075.18 -1.61034 -1.09791 0
M  V30 11441 H 1074.28 -1.69048 -2.62353 0
M  V30 11442 N 1074.58 1.12322 -1.10551 0
M  V30 11443 C 1075.83 1.83858 -0.848674 0
M  V30 11444 C 1076.15 1.84159 0.62575 0
M  V30 11445 O 1075.41 1.28341 1.4774 0
M  V30 11446 C 1075.71 3.31177 -1.34375 0
M  V30 11447 C 1075.37 3.51046 -2.8298 0
M  V30 11448 C 1074.04 3.56177 -3.23561 0
M  V30 11449 C 1076.39 3.58061 -3.78737 0
M  V30 11450 C 1073.72 3.65868 -4.58647 0
M  V30 11451 C 1076.07 3.69283 -5.13627 0
M  V30 11452 C 1074.73 3.7267 -5.53781 0
M  V30 11453 H 1074 0.672784 -0.310552 0
M  V30 11454 H 1076.65 1.3253 -1.38232 0
M  V30 11455 H 1074.95 3.84937 -0.730144 0
M  V30 11456 H 1076.65 3.84998 -1.12148 0
M  V30 11457 H 1073.24 3.47716 -2.50582 0
M  V30 11458 H 1077.42 3.53366 -3.48491 0
M  V30 11459 H 1072.68 3.66763 -4.89178 0
M  V30 11460 H 1076.85 3.73654 -5.8767 0
M  V30 11461 H 1074.48 3.79932 -6.58449 0
M  V30 11462 N 1076.06 0.894434 1.2976 0
M  V30 11463 C 1076.97 0.372622 2.31622 0
M  V30 11464 C 1077.98 -0.52996 1.65733 0
M  V30 11465 O 1079.16 -0.420807 1.96955 0
M  V30 11466 C 1076.22 -0.396076 3.4443 0
M  V30 11467 C 1075.28 0.537394 4.25923 0
M  V30 11468 C 1074.52 -0.194713 5.33345 0
M  V30 11469 O 1074.74 -1.41943 5.52457 0
M  V30 11470 O 1073.67 0.460055 6.00139 0
M  V30 11471 H 1077.5 1.21756 2.78225 0
M  V30 11472 H 1075.09 0.65858 1.34101 0
M  V30 11473 H 1076.97 -0.830962 4.13126 0
M  V30 11474 H 1075.64 -1.21716 2.99945 0
M  V30 11475 H 1074.55 1.02129 3.5989 0
M  V30 11476 H 1075.88 1.32475 4.74037 0
M  V30 11477 N 1077.53 -1.43282 0.656365 0
M  V30 11478 C 1078.46 -2.33492 -0.0196962 0
M  V30 11479 C 1079.45 -1.49647 -0.80868 0
M  V30 11480 O 1080.63 -1.78303 -0.769529 0
M  V30 11481 C 1077.76 -3.33052 -0.984574 0
M  V30 11482 C 1076.71 -4.26908 -0.305483 0
M  V30 11483 C 1076.04 -5.16531 -1.38202 0
M  V30 11484 C 1077.34 -5.16073 0.804081 0
M  V30 11485 H 1079.03 -2.90272 0.733661 0
M  V30 11486 H 1076.58 -1.39574 0.354259 0
M  V30 11487 H 1078.53 -3.9506 -1.46647 0
M  V30 11488 H 1077.26 -2.74535 -1.76913 0
M  V30 11489 H 1075.92 -3.66268 0.155995 0
M  V30 11490 H 1075.56 -4.54351 -2.1581 0
M  V30 11491 H 1075.26 -5.80148 -0.932878 0
M  V30 11492 H 1076.79 -5.81414 -1.86522 0
M  V30 11493 H 1078.2 -5.71873 0.404212 0
M  V30 11494 H 1076.6 -5.88427 1.17789 0
M  V30 11495 H 1077.67 -4.55574 1.66073 0
M  V30 11496 N 1079.01 -0.398486 -1.52479 0
M  V30 11497 C 1080.26 0.180394 -2.01293 0
M  V30 11498 C 1080.58 1.46548 -1.28641 0
M  V30 11499 O 1079.85 1.91579 -0.409173 0
M  V30 11500 H 1078.43 0.0696528 -0.743746 0
M  V30 11501 H 1081.09 -0.532285 -1.87491 0
M  V30 11502 H 1080.19 0.38409 -3.09728 0
M  V30 11503 N 1080.49 1.57075 -0.12858 0
M  V30 11504 C 1081.74 1.9552 0.527087 0
M  V30 11505 C 1082.07 1.01243 1.66072 0
M  V30 11506 O 1081.32 0.0381076 1.95663 0
M  V30 11507 C 1081.62 3.40329 1.09138 0
M  V30 11508 C 1081.29 4.50832 0.0781039 0
M  V30 11509 C 1079.95 4.80782 -0.200493 0
M  V30 11510 C 1082.3 5.17595 -0.61192 0
M  V30 11511 C 1079.63 5.74809 -1.17524 0
M  V30 11512 C 1081.98 6.12671 -1.57536 0
M  V30 11513 C 1080.64 6.41008 -1.86184 0
M  V30 11514 H 1079.91 0.715458 0.192875 0
M  V30 11515 H 1082.56 1.90328 -0.211515 0
M  V30 11516 H 1080.87 3.42262 1.90694 0
M  V30 11517 H 1082.56 3.67393 1.60696 0
M  V30 11518 H 1079.15 4.2751 0.30543 0
M  V30 11519 H 1083.34 4.94605 -0.40986 0
M  V30 11520 H 1078.59 5.95065 -1.40384 0
M  V30 11521 H 1082.77 6.63486 -2.11565 0
M  V30 11522 H 1080.39 7.13673 -2.61868 0
M  V30 11523 N 1081.97 -0.145205 1.5693 0
M  V30 11524 C 1082.93 -1.16316 1.97492 0
M  V30 11525 C 1083.93 -1.35764 0.861668 0
M  V30 11526 O 1085.12 -1.32726 1.12825 0
M  V30 11527 C 1082.25 -2.52311 2.29242 0
M  V30 11528 H 1083.45 -0.815138 2.8861 0
M  V30 11529 H 1081 -0.38861 1.51392 0
M  V30 11530 H 1081.74 -2.92081 1.40922 0
M  V30 11531 H 1081.52 -2.39555 3.10412 0
M  V30 11532 H 1083.01 -3.25624 2.61456 0
M  V30 11533 N 1083.45 -1.52049 -0.414609 0
M  V30 11534 C 1084.38 -1.69712 -1.52555 0
M  V30 11535 C 1085.36 -0.544681 -1.53206 0
M  V30 11536 O 1086.54 -0.771358 -1.71995 0
M  V30 11537 C 1083.67 -1.73145 -2.91099 0
M  V30 11538 C 1082.72 -2.94624 -3.08382 0
M  V30 11539 S 1083.55 -4.55062 -2.82274 0
M  V30 11540 C 1084.7 -4.61274 -4.23057 0
M  V30 11541 H 1084.94 -2.63675 -1.37342 0
M  V30 11542 H 1082.47 -1.42018 -0.605824 0
M  V30 11543 H 1084.43 -1.75808 -3.70947 0
M  V30 11544 H 1083.09 -0.803198 -3.03657 0
M  V30 11545 H 1082.28 -2.93492 -4.0973 0
M  V30 11546 H 1081.88 -2.8982 -2.36391 0
M  V30 11547 H 1084.18 -4.38313 -5.16612 0
M  V30 11548 H 1085.12 -5.63188 -4.29214 0
M  V30 11549 H 1085.53 -3.90361 -4.07773 0
M  V30 11550 N 1084.93 0.6715 -1.42579 0
M  V30 11551 C 1085.89 1.76676 -1.46008 0
M  V30 11552 C 1086.89 1.57007 -0.347213 0
M  V30 11553 O 1088.08 1.63238 -0.608185 0
M  V30 11554 C 1085.21 3.15348 -1.29494 0
M  V30 11555 H 1086.4 1.75021 -2.43531 0
M  V30 11556 H 1083.96 0.881444 -1.29075 0
M  V30 11557 H 1084.69 3.22626 -0.32906 0
M  V30 11558 H 1084.48 3.31028 -2.10149 0
M  V30 11559 H 1085.97 3.95251 -1.34784 0
M  V30 11560 N 1086.4 1.28806 0.908124 0
M  V30 11561 C 1087.63 1.19271 1.69674 0
M  V30 11562 C 1088.05 -0.244403 1.86505 0
M  V30 11563 O 1087.41 -1.17668 1.37927 0
M  V30 11564 C 1087.46 1.9023 3.06341 0
M  V30 11565 O 1086.56 1.2136 3.94139 0
M  V30 11566 H 1085.9 0.413738 0.519343 0
M  V30 11567 H 1088.43 1.70227 1.13508 0
M  V30 11568 H 1088.44 1.98356 3.56537 0
M  V30 11569 H 1087.12 2.94762 2.93408 0
M  V30 11570 H 1085.7 1.21435 3.52573 0
M  V30 11571 N 1087.88 -1.11734 1.11145 0
M  V30 11572 C 1089.29 -1.64928 0.874959 0
M  V30 11573 C 1089.64 -1.87012 -0.593375 0
M  V30 11574 O 1088.77 -1.60206 -1.45475 0
M  V30 11575 C 1089.36 -2.99608 1.58178 0
M  V30 11576 C 1087.92 -3.49723 1.39179 0
M  V30 11577 C 1087.07 -2.24595 1.62642 0
M  V30 11578 H 1090.02 -0.954154 1.26813 0
M  V30 11579 H 1090.04 -3.66434 1.02501 0
M  V30 11580 H 1089.55 -2.83504 2.65042 0
M  V30 11581 H 1087.65 -3.70998 0.345111 0
M  V30 11582 H 1087.77 -4.28711 2.13878 0
M  V30 11583 H 1086.13 -2.32067 1.04961 0
M  V30 11584 H 1086.91 -2.11036 2.70774 0
M  V30 11585 N 1089.36 -0.901303 -1.29284 0
M  V30 11586 C 1090.31 -0.370142 -2.29636 0
M  V30 11587 C 1091.3 0.53157 -1.60844 0
M  V30 11588 O 1092.51 0.414194 -1.7517 0
M  V30 11589 H 1088.88 -0.101072 -0.745177 0
M  V30 11590 H 1090.85 -1.22985 -2.71877 0
M  V30 11591 C 1089.6 0.385806 -3.45553 0
M  V30 11592 H 1088.93 -0.298818 -3.98682 0
M  V30 11593 H 1090.37 0.722299 -4.17802 0
M  V30 11594 C 1088.82 1.58907 -2.97069 0
M  V30 11595 O 1089.35 2.68835 -2.98481 0
M  V30 11596 N 1087.56 1.43178 -2.5288 0
M  V30 11597 H 1087.11 0.537467 -2.51931 0
M  V30 11598 H 1087.07 2.23819 -2.208 0
M  V30 11599 N 1090.84 1.42931 -0.663954 0
M  V30 11600 C 1091.8 2.29197 0.0117626 0
M  V30 11601 C 1092.8 1.42767 0.739875 0
M  V30 11602 O 1093.99 1.64278 0.579509 0
M  V30 11603 C 1091.12 3.2505 1.02738 0
M  V30 11604 H 1092.32 2.90438 -0.747391 0
M  V30 11605 H 1089.87 1.5039 -0.425733 0
M  V30 11606 H 1090.6 2.68726 1.8154 0
M  V30 11607 H 1090.39 3.88785 0.508809 0
M  V30 11608 H 1091.88 3.89771 1.49893 0
M  V30 11609 N 1092.32 0.406567 1.52266 0
M  V30 11610 C 1093.25 -0.411314 2.29849 0
M  V30 11611 C 1094.23 -1.04838 1.33952 0
M  V30 11612 O 1095.41 -1.05788 1.62857 0
M  V30 11613 C 1092.54 -1.52961 3.11802 0
M  V30 11614 C 1091.5 -1.01768 4.15725 0
M  V30 11615 C 1090.82 -2.22938 4.86007 0
M  V30 11616 C 1092.12 -0.073515 5.22248 0
M  V30 11617 H 1093.82 0.236054 2.98468 0
M  V30 11618 H 1091.36 0.114968 1.4354 0
M  V30 11619 H 1093.31 -2.10874 3.64843 0
M  V30 11620 H 1092.04 -2.20482 2.40947 0
M  V30 11621 H 1090.7 -0.46097 3.6369 0
M  V30 11622 H 1090.35 -2.89007 4.11684 0
M  V30 11623 H 1090.05 -1.89338 5.5626 0
M  V30 11624 H 1091.57 -2.81462 5.41859 0
M  V30 11625 H 1092.98 -0.561367 5.70545 0
M  V30 11626 H 1091.38 0.173551 5.99849 0
M  V30 11627 H 1092.45 0.872524 4.76985 0
M  V30 11628 N 1093.79 -1.57004 0.136909 0
M  V30 11629 C 1095.04 -1.96087 -0.517477 0
M  V30 11630 C 1095.37 -1.0213 -1.65176 0
M  V30 11631 O 1094.65 -0.0617958 -1.94402 0
M  V30 11632 C 1094.93 -3.44958 -1.03323 0
M  V30 11633 C 1094.78 -4.49691 0.0988609 0
M  V30 11634 C 1096.1 -3.96091 -1.91832 0
M  V30 11635 H 1093.22 -0.712978 -0.186632 0
M  V30 11636 H 1095.86 -1.88767 0.216095 0
M  V30 11637 H 1094.01 -3.51327 -1.65836 0
M  V30 11638 H 1095.69 -4.55409 0.734847 0
M  V30 11639 H 1093.93 -4.271 0.75947 0
M  V30 11640 H 1094.6 -5.51165 -0.303554 0
M  V30 11641 H 1097.08 -3.92139 -1.39164 0
M  V30 11642 H 1095.95 -5.00742 -2.24831 0
M  V30 11643 H 1096.21 -3.37846 -2.85153 0
M  V30 11644 N 1095.27 0.136881 -1.57004 0
M  V30 11645 C 1096.2 1.17026 -2.02057 0
M  V30 11646 C 1097.18 1.44223 -0.901866 0
M  V30 11647 O 1098.37 1.54971 -1.17037 0
M  V30 11648 C 1095.5 2.50095 -2.40977 0
M  V30 11649 C 1094.45 2.37398 -3.56127 0
M  V30 11650 C 1093.78 3.75268 -3.80891 0
M  V30 11651 C 1095.08 1.84952 -4.88457 0
M  V30 11652 H 1096.77 0.795601 -2.88636 0
M  V30 11653 H 1094.32 0.381266 -1.38861 0
M  V30 11654 H 1096.27 3.22621 -2.71097 0
M  V30 11655 H 1095 2.89416 -1.51348 0
M  V30 11656 H 1093.65 1.67322 -3.26188 0
M  V30 11657 H 1093.3 4.12043 -2.88496 0
M  V30 11658 H 1093 3.67631 -4.5839 0
M  V30 11659 H 1094.53 4.49327 -4.13446 0
M  V30 11660 H 1095.94 2.4728 -5.17229 0
M  V30 11661 H 1094.34 1.88181 -5.69832 0
M  V30 11662 H 1095.41 0.805848 -4.78157 0
M  V30 11663 N 1096.75 1.52266 0.40654 0
M  V30 11664 C 1098 1.67654 1.15168 0
M  V30 11665 C 1098.35 0.402751 1.88137 0
M  V30 11666 O 1097.64 -0.60291 1.81867 0
M  V30 11667 C 1097.84 2.8389 2.1712 0
M  V30 11668 C 1097.67 4.2245 1.54162 0
M  V30 11669 C 1096.44 4.87937 1.31322 0
M  V30 11670 C 1098.64 5.04462 1.00112 0
M  V30 11671 N 1096.62 6.10525 0.642842 0
M  V30 11672 C 1097.99 6.18307 0.457805 0
M  V30 11673 C 1100.04 4.89775 0.89583 0
M  V30 11674 C 1098.75 7.19074 -0.180477 0
M  V30 11675 C 1100.77 5.90777 0.271397 0
M  V30 11676 C 1100.13 7.03915 -0.261225 0
M  V30 11677 H 1096.23 0.667121 0.408012 0
M  V30 11678 H 1098.82 1.89577 0.443695 0
M  V30 11679 H 1096.99 2.63578 2.85274 0
M  V30 11680 H 1098.72 2.88302 2.84014 0
M  V30 11681 H 1095.48 4.46345 1.58344 0
M  V30 11682 H 1095.9 6.76223 0.324204 0
M  V30 11683 H 1100.54 4.0253 1.29344 0
M  V30 11684 H 1098.26 8.05942 -0.590141 0
M  V30 11685 H 1101.85 5.81485 0.191417 0
M  V30 11686 H 1100.73 7.80731 -0.736791 0
M  V30 11687 N 1098.23 -0.663929 1.42933 0
M  V30 11688 C 1099.14 -1.80643 1.49683 0
M  V30 11689 C 1100.15 -1.69694 0.38472 0
M  V30 11690 O 1101.33 -1.91052 0.637256 0
M  V30 11691 C 1098.4 -3.16858 1.4072 0
M  V30 11692 C 1097.46 -3.39684 2.62514 0
M  V30 11693 C 1096.69 -4.69399 2.53969 0
M  V30 11694 O 1096.91 -5.48037 1.58152 0
M  V30 11695 O 1095.85 -4.93709 3.44289 0
M  V30 11696 H 1099.67 -1.77903 2.46138 0
M  V30 11697 H 1097.26 -0.821059 1.24816 0
M  V30 11698 H 1099.14 -3.9812 1.38124 0
M  V30 11699 H 1097.81 -3.20211 0.473954 0
M  V30 11700 H 1096.72 -2.58227 2.70684 0
M  V30 11701 H 1098.05 -3.41169 3.54774 0
M  V30 11702 N 1099.71 -1.29285 -0.901281 0
M  V30 11703 C 1100.67 -1.14283 -1.98676 0
M  V30 11704 C 1101.67 -0.0787641 -1.60607 0
M  V30 11705 O 1102.86 -0.325574 -1.71131 0
M  V30 11706 C 1099.99 -0.747279 -3.32609 0
M  V30 11707 H 1101.18 -2.10701 -2.13413 0
M  V30 11708 H 1098.74 -1.12449 -1.08558 0
M  V30 11709 H 1099.47 0.217111 -3.23572 0
M  V30 11710 H 1099.26 -1.51608 -3.61604 0
M  V30 11711 H 1100.75 -0.665322 -4.12266 0
M  V30 11712 N 1101.18 1.11143 -1.11736 0
M  V30 11713 C 1102.12 2.1705 -0.736325 0
M  V30 11714 C 1103.13 1.61116 0.233528 0
M  V30 11715 O 1104.32 1.78493 0.0159602 0
M  V30 11716 C 1101.42 3.38832 -0.067974 0
M  V30 11717 C 1100.59 4.24226 -1.06543 0
M  V30 11718 C 1099.65 5.24472 -0.426063 0
M  V30 11719 O 1098.68 5.58843 -1.0809 0
M  V30 11720 N 1099.88 5.74825 0.809711 0
M  V30 11721 H 1102.64 2.50349 -1.64758 0
M  V30 11722 H 1100.2 1.26693 -1.00799 0
M  V30 11723 H 1102.2 4.02991 0.371563 0
M  V30 11724 H 1100.77 3.0357 0.745917 0
M  V30 11725 H 1099.99 3.56475 -1.68283 0
M  V30 11726 H 1101.27 4.78117 -1.74016 0
M  V30 11727 H 1100.67 5.49088 1.36084 0
M  V30 11728 H 1099.23 6.40804 1.19218 0
M  V30 11729 N 1102.66 0.908147 1.28804 0
M  V30 11730 C 1103.91 0.538404 1.95211 0
M  V30 11731 C 1104.24 -0.916886 1.71533 0
M  V30 11732 O 1103.49 -1.66643 1.02609 0
M  V30 11733 C 1103.79 0.787327 3.4862 0
M  V30 11734 C 1103.46 2.22129 3.92389 0
M  V30 11735 C 1102.12 2.61336 4.04051 0
M  V30 11736 C 1104.47 3.15471 4.14883 0
M  V30 11737 C 1101.8 3.93048 4.3558 0
M  V30 11738 C 1104.15 4.46741 4.47889 0
M  V30 11739 C 1102.82 4.85809 4.57761 0
M  V30 11740 H 1102.09 0.197016 0.714329 0
M  V30 11741 H 1104.73 1.14841 1.53244 0
M  V30 11742 H 1103.04 0.0944731 3.91686 0
M  V30 11743 H 1104.73 0.480503 3.98111 0
M  V30 11744 H 1101.32 1.90704 3.83836 0
M  V30 11745 H 1105.51 2.86391 4.05332 0
M  V30 11746 H 1100.76 4.23027 4.41428 0
M  V30 11747 H 1104.94 5.19087 4.64243 0
M  V30 11748 H 1102.57 5.87904 4.81947 0
M  V30 11749 N 1104.14 -1.42577 0.671525 0
M  V30 11750 C 1105.39 -2.01185 0.192051 0
M  V30 11751 C 1105.71 -1.53349 -1.20454 0
M  V30 11752 O 1104.98 -0.753781 -1.80817 0
M  V30 11753 H 1103.56 -0.743898 0.0680106 0
M  V30 11754 H 1106.22 -1.74539 0.8673 0
M  V30 11755 H 1105.32 -3.11516 0.190796 0
M  V30 11756 N 1105.62 -0.414636 -1.52048 0
M  V30 11757 C 1106.9 0.218172 -1.94379 0
M  V30 11758 C 1107.28 1.62133 -1.35189 0
M  V30 11759 O 1106.62 2.22271 -0.529877 0
M  V30 11760 C 1106.83 0.218932 -3.48313 0
M  V30 11761 C 1108.18 0.435604 -4.2236 0
M  V30 11762 O 1109.21 0.298049 -3.54951 0
M  V30 11763 O 1108.06 0.707217 -5.41905 0
M  V30 11764 H 1105.16 0.142173 -0.814688 0
M  V30 11765 H 1107.7 -0.470977 -1.63033 0
M  V30 11766 H 1106.48 -0.76292 -3.83791 0
M  V30 11767 H 1106.1 0.951949 -3.86036 0
M  V30 11768 N 1107.1 1.56929 -0.145233 0
M  V30 11769 C 1108.34 1.96068 0.50632 0
M  V30 11770 C 1108.67 1.02999 1.64989 0
M  V30 11771 O 1107.93 0.0588581 1.95611 0
M  V30 11772 C 1108.23 3.41467 1.05522 0
M  V30 11773 C 1107.89 4.5089 0.0302827 0
M  V30 11774 C 1106.55 4.80542 -0.251475 0
M  V30 11775 C 1108.91 5.16917 -0.666783 0
M  V30 11776 C 1106.23 5.7353 -1.23614 0
M  V30 11777 C 1108.59 6.10965 -1.64025 0
M  V30 11778 C 1107.25 6.38998 -1.92973 0
M  V30 11779 H 1106.52 0.717464 0.185276 0
M  V30 11780 H 1109.17 1.90093 -0.23169 0
M  V30 11781 H 1107.47 3.44265 1.87053 0
M  V30 11782 H 1109.17 3.69077 1.5679 0
M  V30 11783 H 1105.76 4.2781 0.260069 0
M  V30 11784 H 1109.94 4.94142 -0.462297 0
M  V30 11785 H 1105.2 5.93543 -1.46687 0
M  V30 11786 H 1109.37 6.61204 -2.18591 0
M  V30 11787 H 1107 7.10855 -2.69423 0
M  V30 11788 N 1108.58 -0.128553 1.57075 0
M  V30 11789 C 1109.53 -1.16373 1.96065 0
M  V30 11790 C 1110.51 -1.37579 0.834323 0
M  V30 11791 O 1111.7 -1.38831 1.09795 0
M  V30 11792 C 1108.83 -2.49276 2.36043 0
M  V30 11793 C 1107.92 -2.31586 3.55287 0
M  V30 11794 N 1108.31 -1.83688 4.71267 0
M  V30 11795 C 1106.61 -2.62275 3.60732 0
M  V30 11796 C 1107.31 -1.79479 5.53319 0
M  V30 11797 N 1106.28 -2.23474 4.95541 0
M  V30 11798 H 1110.08 -0.785792 2.832 0
M  V30 11799 H 1107.6 -0.33641 1.58877 0
M  V30 11800 H 1109.6 -3.24134 2.62188 0
M  V30 11801 H 1108.26 -2.87837 1.50267 0
M  V30 11802 H 1109.27 -1.53376 4.94668 0
M  V30 11803 H 1105.94 -3.04586 2.85541 0
M  V30 11804 H 1107.33 -1.43781 6.56336 0
M  V30 11805 N 1110.05 -1.5248 -0.398459 0
M  V30 11806 C 1111 -1.77211 -1.50662 0
M  V30 11807 C 1112 -0.639638 -1.5686 0
M  V30 11808 O 1113.2 -0.821917 -1.60139 0
M  V30 11809 H 1109.58 -0.56057 -0.501264 0
M  V30 11810 H 1111.55 -2.70028 -1.26993 0
M  V30 11811 C 1110.3 -1.94944 -2.8791 0
M  V30 11812 H 1109.62 -2.8151 -2.83888 0
M  V30 11813 H 1111.06 -2.16243 -3.64712 0
M  V30 11814 C 1109.52 -0.719402 -3.29129 0
M  V30 11815 O 1110.05 0.107671 -4.01556 0
M  V30 11816 N 1108.25 -0.552228 -2.85305 0
M  V30 11817 H 1107.8 -1.22638 -2.26534 0
M  V30 11818 H 1107.76 0.269447 -3.13243 0
M  V30 11819 N 1111.53 0.65634 -1.43283 0
M  V30 11820 C 1112.76 1.44408 -1.48168 0
M  V30 11821 C 1113.17 1.88542 -0.0986016 0
M  V30 11822 O 1112.53 1.59298 0.890527 0
M  V30 11823 C 1112.58 2.68111 -2.42484 0
M  V30 11824 O 1112.3 2.25824 -3.75413 0
M  V30 11825 C 1113.8 3.61499 -2.56579 0
M  V30 11826 H 1111.02 0.443731 -0.503333 0
M  V30 11827 H 1113.57 0.804917 -1.87993 0
M  V30 11828 H 1111.72 3.28175 -2.05863 0
M  V30 11829 H 1112.14 3.05839 -4.26102 0
M  V30 11830 H 1113.61 4.44972 -3.26655 0
M  V30 11831 H 1114.09 4.08639 -1.60969 0
M  V30 11832 H 1114.69 3.07319 -2.93998 0
M  V30 11833 N 1113.01 1.29761 0.894412 0
M  V30 11834 C 1113.97 1.15335 1.98067 0
M  V30 11835 C 1114.97 0.0872804 1.60563 0
M  V30 11836 O 1116.16 0.334645 1.70955 0
M  V30 11837 C 1113.29 0.764907 3.32208 0
M  V30 11838 H 1114.49 2.11829 2.12293 0
M  V30 11839 H 1112.04 1.13023 1.0796 0
M  V30 11840 H 1112.78 -0.199948 3.23683 0
M  V30 11841 H 1112.56 1.53523 3.60795 0
M  V30 11842 H 1114.05 0.687176 4.11907 0
M  V30 11843 N 1114.49 -1.10549 1.12324 0
M  V30 11844 C 1115.42 -2.16657 0.747826 0
M  V30 11845 C 1116.43 -1.61238 -0.224981 0
M  V30 11846 O 1117.62 -1.78499 -0.00649408 0
M  V30 11847 C 1114.72 -3.38791 0.0859421 0
M  V30 11848 C 1113.89 -4.23655 1.08792 0
M  V30 11849 C 1112.95 -5.24239 0.453871 0
M  V30 11850 O 1111.98 -5.58262 1.11052 0
M  V30 11851 N 1113.18 -5.75246 -0.779215 0
M  V30 11852 H 1115.95 -2.49472 1.66084 0
M  V30 11853 H 1113.51 -1.26157 1.01469 0
M  V30 11854 H 1115.5 -4.03182 -0.350186 0
M  V30 11855 H 1114.07 -3.03961 -0.729807 0
M  V30 11856 H 1113.29 -3.55578 1.70171 0
M  V30 11857 H 1114.58 -4.77187 1.76549 0
M  V30 11858 H 1113.98 -5.49802 -1.3317 0
M  V30 11859 H 1112.53 -6.41428 -1.15818 0
M  V30 11860 N 1115.97 -0.914965 -1.28321 0
M  V30 11861 C 1117.21 -0.555865 -1.96696 0
M  V30 11862 C 1117.57 0.8842 -1.70429 0
M  V30 11863 O 1118.77 1.35094 -2.32386 0
M  V30 11864 C 1117.04 -0.857942 -3.4695 0
M  V30 11865 S 1118.6 -0.605441 -4.34603 0
M  V30 11866 H 1115.42 -0.20564 -0.680612 0
M  V30 11867 H 1118.02 -1.18068 -1.55821 0
M  V30 11868 H 1116.72 -1.90394 -3.63563 0
M  V30 11869 H 1116.26 -0.221831 -3.92774 0
M  V30 11870 H 1118.27 0.542657 -4.93224 0
M  V30 11871 N 1117.44 1.42219 -0.679077 0
M  V30 11872 C 1118.69 2.00703 -0.200309 0
M  V30 11873 C 1119.01 1.54339 1.20161 0
M  V30 11874 O 1120.21 2.0527 1.77698 0
M  V30 11875 C 1118.67 3.58586 -0.307248 0
M  V30 11876 C 1118.28 4.13937 -1.71349 0
M  V30 11877 C 1120.02 4.24351 0.112588 0
M  V30 11878 C 1117.93 5.64198 -1.77297 0
M  V30 11879 H 1116.86 0.750638 -0.0711279 0
M  V30 11880 H 1119.51 1.62893 -0.844881 0
M  V30 11881 H 1117.89 3.93921 0.40529 0
M  V30 11882 H 1119.06 3.90054 -2.45346 0
M  V30 11883 H 1117.38 3.60639 -2.08155 0
M  V30 11884 H 1119.98 5.34627 0.0883578 0
M  V30 11885 H 1120.32 4.00142 1.14857 0
M  V30 11886 H 1120.85 3.93992 -0.549093 0
M  V30 11887 H 1117.59 5.93211 -2.78892 0
M  V30 11888 H 1117.11 5.90058 -1.07662 0
M  V30 11889 H 1118.79 6.2869 -1.52835 0
M  V30 11890 N 1118.92 0.422693 1.51826 0
M  V30 11891 C 1120.17 -0.150066 2.01141 0
M  V30 11892 C 1120.48 -1.45059 1.31214 0
M  V30 11893 O 1121.69 -2.10542 1.71419 0
M  V30 11894 C 1120.15 -0.317985 3.58492 0
M  V30 11895 C 1119.75 0.971244 4.37345 0
M  V30 11896 C 1121.5 -0.845303 4.15999 0
M  V30 11897 C 1119.4 0.769769 5.86369 0
M  V30 11898 H 1118.33 -0.0598567 0.75162 0
M  V30 11899 H 1120.99 0.550217 1.75057 0
M  V30 11900 H 1119.37 -1.08092 3.80962 0
M  V30 11901 H 1120.54 1.74138 4.26629 0
M  V30 11902 H 1118.86 1.42599 3.91222 0
M  V30 11903 H 1121.45 -1.01229 5.2503 0
M  V30 11904 H 1121.8 -1.82375 3.74226 0
M  V30 11905 H 1122.33 -0.141067 3.9755 0
M  V30 11906 H 1119.07 1.72017 6.32527 0
M  V30 11907 H 1118.59 0.0391717 5.99787 0
M  V30 11908 H 1120.27 0.417225 6.45653 0
M  V30 11909 N 1120.4 -1.5685 0.153553 0
M  V30 11910 C 1121.68 -1.8796 -0.541328 0
M  V30 11911 C 1122.06 -1.06059 -1.82523 0
M  V30 11912 O 1121.4 -0.149295 -2.28012 0
M  V30 11913 C 1121.61 -3.39697 -0.800442 0
M  V30 11914 C 1122.96 -4.09057 -1.13832 0
M  V30 11915 O 1123.99 -3.44913 -0.889578 0
M  V30 11916 O 1122.85 -5.22347 -1.60673 0
M  V30 11917 H 1119.94 -0.779268 -0.276895 0
M  V30 11918 H 1122.49 -1.68626 0.190657 0
M  V30 11919 H 1121.26 -3.91151 0.107935 0
M  V30 11920 H 1120.88 -3.64582 -1.58638 0
M  V30 11921 N 1121.88 0.120221 -1.57141 0
M  V30 11922 C 1122.81 1.1732 -1.96898 0
M  V30 11923 C 1123.82 1.37722 -0.868134 0
M  V30 11924 O 1125.01 1.36818 -1.14643 0
M  V30 11925 C 1122.11 2.53343 -2.25102 0
M  V30 11926 C 1121.28 2.53559 -3.56408 0
M  V30 11927 C 1120.34 3.71319 -3.72838 0
M  V30 11928 O 1119.37 3.54961 -4.44962 0
M  V30 11929 N 1120.57 4.89836 -3.11514 0
M  V30 11930 H 1123.34 0.835023 -2.87832 0
M  V30 11931 H 1120.9 0.309508 -1.58914 0
M  V30 11932 H 1122.89 3.30679 -2.3331 0
M  V30 11933 H 1121.46 2.79347 -1.403 0
M  V30 11934 H 1120.68 1.61946 -3.59398 0
M  V30 11935 H 1121.97 2.5076 -4.42716 0
M  V30 11936 H 1121.37 5.0603 -2.52884 0
M  V30 11937 H 1119.92 5.64853 -3.25246 0
M  V30 11938 N 1123.36 1.52689 0.390367 0
M  V30 11939 C 1124.6 1.67666 1.13553 0
M  V30 11940 C 1124.93 0.415903 1.90001 0
M  V30 11941 O 1124.19 -0.601664 1.86222 0
M  V30 11942 C 1124.49 2.86177 2.14096 0
M  V30 11943 C 1124.15 4.23671 1.54316 0
M  V30 11944 C 1122.81 4.61066 1.37739 0
M  V30 11945 C 1125.17 5.09278 1.1084 0
M  V30 11946 C 1122.49 5.81727 0.76231 0
M  V30 11947 C 1124.85 6.30562 0.507433 0
M  V30 11948 C 1123.51 6.66689 0.328945 0
M  V30 11949 H 1122.78 0.613533 0.415521 0
M  V30 11950 H 1125.43 1.8683 0.420339 0
M  V30 11951 H 1123.73 2.61424 2.9183 0
M  V30 11952 H 1125.43 2.9496 2.7166 0
M  V30 11953 H 1122.02 3.94214 1.68207 0
M  V30 11954 H 1126.2 4.80957 1.2245 0
M  V30 11955 H 1121.46 6.08327 0.612208 0
M  V30 11956 H 1125.63 6.96211 0.162248 0
M  V30 11957 H 1123.26 7.60052 -0.149748 0
M  V30 11958 N 1124.83 -0.648732 1.43629 0
M  V30 11959 C 1126.08 -1.40446 1.44768 0
M  V30 11960 C 1126.4 -1.95447 0.0773445 0
M  V30 11961 O 1127.6 -2.71479 -0.0337942 0
M  V30 11962 C 1126.06 -2.54194 2.54781 0
M  V30 11963 C 1125.67 -2.05781 3.97942 0
M  V30 11964 C 1127.41 -3.31529 2.65121 0
M  V30 11965 C 1125.32 -3.16767 4.99412 0
M  V30 11966 H 1124.25 -0.527717 0.538545 0
M  V30 11967 H 1126.9 -0.699756 1.69634 0
M  V30 11968 H 1125.28 -3.27156 2.23125 0
M  V30 11969 H 1126.45 -1.398 4.39081 0
M  V30 11970 H 1124.77 -1.41312 3.91688 0
M  V30 11971 H 1127.37 -4.14233 3.38105 0
M  V30 11972 H 1127.71 -3.79855 1.70341 0
M  V30 11973 H 1128.24 -2.65649 2.961 0
M  V30 11974 H 1124.98 -2.73404 5.9576 0
M  V30 11975 H 1124.5 -3.81445 4.62882 0
M  V30 11976 H 1126.18 -3.81827 5.22319 0
M  V30 11977 N 1126.31 -1.30234 -0.887518 0
M  V30 11978 C 1127.55 -1.20191 -1.65328 0
M  V30 11979 C 1127.92 0.240121 -1.90493 0
M  V30 11980 O 1129.12 0.463744 -2.64769 0
M  V30 11981 C 1127.39 -2.00506 -2.95858 0
M  V30 11982 S 1128.95 -2.07133 -3.86835 0
M  V30 11983 H 1125.77 -0.428366 -0.567472 0
M  V30 11984 H 1128.37 -1.64677 -1.05364 0
M  V30 11985 H 1127.07 -3.04396 -2.75266 0
M  V30 11986 H 1126.6 -1.56672 -3.60857 0
M  V30 11987 H 1128.62 -1.19687 -4.81549 0
M  V30 11988 N 1127.79 1.09952 -1.12909 0
M  V30 11989 C 1129.2 1.63516 -0.901087 0
M  V30 11990 C 1129.55 1.87932 0.563547 0
M  V30 11991 O 1128.68 1.625 1.42908 0
M  V30 11992 C 1129.27 2.97054 -1.62924 0
M  V30 11993 C 1127.83 3.47464 -1.44725 0
M  V30 11994 C 1126.98 2.21979 -1.66194 0
M  V30 11995 H 1129.93 0.933858 -1.28315 0
M  V30 11996 H 1129.95 3.64757 -1.08318 0
M  V30 11997 H 1129.46 2.79251 -2.69519 0
M  V30 11998 H 1127.56 3.70402 -0.40409 0
M  V30 11999 H 1127.68 4.25254 -2.20671 0
M  V30 12000 H 1126.04 2.30368 -1.0864 0
M  V30 12001 H 1126.82 2.06702 -2.74097 0
M  V30 12002 N 1129.27 0.921757 1.27833 0
M  V30 12003 C 1130.52 0.557974 1.94245 0
M  V30 12004 C 1130.84 -0.90268 1.72849 0
M  V30 12005 O 1130.11 -1.63915 1.07279 0
M  V30 12006 H 1128.69 0.203364 0.718785 0
M  V30 12007 H 1131.35 1.17286 1.5566 0
M  V30 12008 H 1130.45 0.759202 3.02725 0
M  V30 12009 N 1130.75 -1.41857 0.686609 0
M  V30 12010 C 1131.68 -2.29188 -0.0234289 0
M  V30 12011 C 1132.69 -1.44311 -0.753541 0
M  V30 12012 O 1133.88 -1.67908 -0.605734 0
M  V30 12013 C 1130.98 -3.21991 -1.05713 0
M  V30 12014 C 1130.15 -4.35581 -0.398453 0
M  V30 12015 C 1129.21 -5.09022 -1.33354 0
M  V30 12016 O 1128.24 -5.63126 -0.829334 0
M  V30 12017 N 1129.44 -5.15643 -2.66632 0
M  V30 12018 H 1132.21 -2.90766 0.726295 0
M  V30 12019 H 1129.77 -1.52912 0.531937 0
M  V30 12020 H 1131.76 -3.6799 -1.68421 0
M  V30 12021 H 1130.33 -2.61782 -1.70847 0
M  V30 12022 H 1129.55 -3.92079 0.408358 0
M  V30 12023 H 1130.84 -5.08765 0.0599239 0
M  V30 12024 H 1130.23 -4.73118 -3.10122 0
M  V30 12025 H 1128.79 -5.65248 -3.24558 0
M  V30 12026 N 1132.22 -0.430739 -1.51599 0
M  V30 12027 C 1133.19 0.372319 -2.26156 0
M  V30 12028 C 1134.19 0.955338 -1.29344 0
M  V30 12029 O 1135.38 0.830823 -1.53111 0
M  V30 12030 C 1132.51 1.52613 -3.04831 0
M  V30 12031 H 1133.7 -0.280996 -2.98581 0
M  V30 12032 H 1131.26 -0.183749 -1.55216 0
M  V30 12033 H 1131.99 2.21569 -2.36807 0
M  V30 12034 H 1131.78 1.11433 -3.75932 0
M  V30 12035 H 1133.27 2.09366 -3.61325 0
M  V30 12036 N 1133.7 1.56767 -0.161869 0
M  V30 12037 C 1134.65 2.17502 0.772102 0
M  V30 12038 C 1135.62 1.11223 1.23364 0
M  V30 12039 O 1136.8 1.39332 1.30351 0
M  V30 12040 C 1133.94 2.81248 1.99984 0
M  V30 12041 C 1133.06 4.01962 1.58274 0
M  V30 12042 C 1132.19 4.53662 2.76341 0
M  V30 12043 C 1131.23 5.66807 2.31076 0
M  V30 12044 N 1130.37 6.13059 3.42203 0
M  V30 12045 H 1135.21 2.96971 0.247382 0
M  V30 12046 H 1132.75 1.46685 0.110382 0
M  V30 12047 H 1134.7 3.16359 2.7198 0
M  V30 12048 H 1133.33 2.04398 2.49842 0
M  V30 12049 H 1132.39 3.72733 0.759874 0
M  V30 12050 H 1133.7 4.83891 1.2104 0
M  V30 12051 H 1132.85 4.90905 3.56507 0
M  V30 12052 H 1131.59 3.7077 3.16829 0
M  V30 12053 H 1130.6 5.29125 1.49354 0
M  V30 12054 H 1131.82 6.51494 1.91657 0
M  V30 12055 H 1129.77 5.33099 3.82285 0
M  V30 12056 H 1129.68 6.89953 3.09033 0
M  V30 12057 H 1130.95 6.54951 4.22682 0
M  V30 12058 N 1135.18 -0.111886 1.57202 0
M  V30 12059 C 1136.43 -0.8146 1.86376 0
M  V30 12060 C 1136.78 -1.77156 0.750558 0
M  V30 12061 O 1136.07 -1.89977 -0.248867 0
M  V30 12062 C 1136.27 -1.59644 3.19763 0
M  V30 12063 C 1136.1 -0.71669 4.43952 0
M  V30 12064 C 1134.87 -0.36881 5.03952 0
M  V30 12065 C 1137.07 -0.0311316 5.14291 0
M  V30 12066 N 1135.05 0.520861 6.11686 0
M  V30 12067 C 1136.42 0.71726 6.15837 0
M  V30 12068 C 1138.47 0.0445453 4.9788 0
M  V30 12069 C 1137.18 1.53423 7.02747 0
M  V30 12070 C 1139.2 0.848364 5.85283 0
M  V30 12071 C 1138.56 1.58493 6.86338 0
M  V30 12072 H 1134.66 -0.274785 0.732132 0
M  V30 12073 H 1137.25 -0.0779628 1.94544 0
M  V30 12074 H 1135.42 -2.30407 3.12678 0
M  V30 12075 H 1137.15 -2.24504 3.36719 0
M  V30 12076 H 1133.91 -0.712671 4.68207 0
M  V30 12077 H 1134.33 0.957756 6.70191 0
M  V30 12078 H 1138.97 -0.510564 4.19706 0
M  V30 12079 H 1136.69 2.10047 7.80324 0
M  V30 12080 H 1140.28 0.909372 5.74649 0
M  V30 12081 H 1139.16 2.19691 7.52798 0
M  V30 12082 N 1136.66 -1.52894 -0.382264 0
M  V30 12083 C 1137.9 -1.68515 -1.12829 0
M  V30 12084 C 1138.24 -0.427211 -1.89443 0
M  V30 12085 O 1137.51 0.57516 -1.85801 0
M  V30 12086 C 1137.8 -2.92449 -2.10108 0
M  V30 12087 C 1137.65 -4.2836 -1.37214 0
M  V30 12088 C 1138.97 -3.11944 -3.1045 0
M  V30 12089 H 1136.09 -0.613223 -0.408811 0
M  V30 12090 H 1138.73 -1.85503 -0.410921 0
M  V30 12091 H 1136.88 -2.78097 -2.71283 0
M  V30 12092 H 1138.55 -4.54493 -0.789516 0
M  V30 12093 H 1136.79 -4.28532 -0.673973 0
M  V30 12094 H 1137.46 -5.11178 -2.0833 0
M  V30 12095 H 1139.94 -3.25372 -2.59369 0
M  V30 12096 H 1138.82 -4.00125 -3.75754 0
M  V30 12097 H 1139.08 -2.26465 -3.79692 0
M  V30 12098 N 1138.14 0.641106 -1.43971 0
M  V30 12099 C 1139.55 0.958161 -1.27638 0
M  V30 12100 C 1139.75 2.00456 -0.204885 0
M  V30 12101 O 1138.81 2.49106 0.412606 0
M  V30 12102 C 1140.12 1.43091 -2.64472 0
M  V30 12103 C 1141.67 1.54692 -2.72102 0
M  V30 12104 C 1142.15 2.05353 -4.09382 0
M  V30 12105 N 1143.64 2.12638 -4.11509 0
M  V30 12106 C 1144.37 2.52987 -5.14573 0
M  V30 12107 N 1143.87 2.92544 -6.28005 0
M  V30 12108 N 1145.66 2.53033 -5.01927 0
M  V30 12109 H 1137.81 -0.0510973 -2.12339 0
M  V30 12110 H 1140.07 0.039748 -0.947166 0
M  V30 12111 H 1139.78 0.736389 -3.43904 0
M  V30 12112 H 1139.65 2.40375 -2.90688 0
M  V30 12113 H 1142.04 2.23242 -1.92994 0
M  V30 12114 H 1142.12 0.558083 -2.49638 0
M  V30 12115 H 1141.77 1.37401 -4.88962 0
M  V30 12116 H 1141.7 3.0509 -4.29218 0
M  V30 12117 H 1144.19 1.84792 -3.29636 0
M  V30 12118 H 1144.5 3.22116 -7.02468 0
M  V30 12119 H 1142.85 2.90319 -6.31458 0
M  V30 12120 H 1146.04 2.21514 -4.1237 0
M  V30 12121 H 1146.21 2.84155 -5.82375 0
M  V30 12122 N 1139.62 1.30703 0.880598 0
M  V30 12123 C 1140.55 1.1327 1.99255 0
M  V30 12124 C 1141.56 0.0747186 1.62628 0
M  V30 12125 O 1142.75 0.321169 1.75587 0
M  V30 12126 C 1139.85 0.706179 3.31461 0
M  V30 12127 C 1139.02 1.84687 3.96497 0
M  V30 12128 C 1138.08 1.40817 5.07008 0
M  V30 12129 O 1137.11 2.1161 5.28403 0
M  V30 12130 N 1138.31 0.289619 5.79777 0
M  V30 12131 H 1141.07 2.09043 2.14759 0
M  V30 12132 H 1138.64 1.22896 1.05395 0
M  V30 12133 H 1140.63 0.395617 4.02762 0
M  V30 12134 H 1139.2 -0.159631 3.12192 0
M  V30 12135 H 1138.42 2.32531 3.18312 0
M  V30 12136 H 1139.71 2.61117 4.36687 0
M  V30 12137 H 1139.1 -0.300177 5.64903 0
M  V30 12138 H 1137.66 0.0385346 6.51789 0
M  V30 12139 N 1141.09 -1.09351 1.1349 0
M  V30 12140 C 1142.04 -2.18099 0.808426 0
M  V30 12141 C 1143.04 -1.68099 -0.209571 0
M  V30 12142 O 1144.24 -1.79877 -0.0666417 0
M  V30 12143 H 1140.62 -0.711432 0.243658 0
M  V30 12144 H 1142.59 -2.42867 1.73373 0
M  V30 12145 C 1141.34 -3.46475 0.291615 0
M  V30 12146 H 1140.66 -3.85319 1.06627 0
M  V30 12147 H 1142.1 -4.23878 0.101616 0
M  V30 12148 C 1140.56 -3.22245 -0.982827 0
M  V30 12149 O 1141.09 -3.44947 -2.0585 0
M  V30 12150 N 1139.29 -2.75845 -0.914218 0
M  V30 12151 H 1138.84 -2.57571 -0.03872 0
M  V30 12152 H 1138.8 -2.60011 -1.76753 0
M  V30 12153 N 1142.57 -0.928524 -1.27343 0
M  V30 12154 C 1143.82 -0.568267 -1.93946 0
M  V30 12155 C 1144.14 0.893501 -1.73325 0
M  V30 12156 O 1143.41 1.63344 -1.08147 0
M  V30 12157 H 1141.99 -0.207173 -0.717696 0
M  V30 12158 H 1144.65 -1.1811 -1.55036 0
M  V30 12159 H 1143.75 -0.775246 -3.02318 0
M  V30 12160 N 1144.05 1.41491 -0.694123 0
M  V30 12161 C 1145.3 2.00479 -0.221585 0
M  V30 12162 C 1145.61 1.55605 1.18518 0
M  V30 12163 O 1146.82 2.07143 1.7551 0
M  V30 12164 C 1145.27 3.5824 -0.345264 0
M  V30 12165 C 1144.88 4.12096 -1.7573 0
M  V30 12166 C 1146.63 4.24446 0.0675731 0
M  V30 12167 C 1144.53 5.62286 -1.83271 0
M  V30 12168 H 1143.46 0.749841 -0.0790854 0
M  V30 12169 H 1146.11 1.61987 -0.86211 0
M  V30 12170 H 1144.5 3.94328 0.363487 0
M  V30 12171 H 1145.67 3.8743 -2.49469 0
M  V30 12172 H 1143.98 3.58411 -2.11969 0
M  V30 12173 H 1146.58 5.34691 0.0316485 0
M  V30 12174 H 1146.92 4.01338 1.10606 0
M  V30 12175 H 1147.46 3.93388 -0.59085 0
M  V30 12176 H 1144.2 5.9022 -2.85168 0
M  V30 12177 H 1143.72 5.88883 -1.13914 0
M  V30 12178 H 1145.4 6.27033 -1.59494 0
M  V30 12179 N 1145.53 0.438773 1.51369 0
M  V30 12180 C 1146.77 -0.127401 2.02399 0
M  V30 12181 C 1147.11 -1.42235 1.32223 0
M  V30 12182 O 1146.38 -1.89513 0.437607 0
M  V30 12183 C 1146.66 -0.344673 3.58447 0
M  V30 12184 C 1146.52 0.969027 4.39238 0
M  V30 12185 C 1147.84 -1.11381 4.25773 0
M  V30 12186 H 1144.96 -0.0448281 0.735635 0
M  V30 12187 H 1147.6 0.57805 1.80993 0
M  V30 12188 H 1145.75 -0.945582 3.76817 0
M  V30 12189 H 1147.42 1.60403 4.32514 0
M  V30 12190 H 1145.66 1.57329 4.04265 0
M  V30 12191 H 1146.33 0.771029 5.46589 0
M  V30 12192 H 1148.81 -0.604785 4.11681 0
M  V30 12193 H 1147.69 -1.23459 5.34835 0
M  V30 12194 H 1147.95 -2.14225 3.8673 0
M  V30 12195 N 1147.01 -1.56678 0.170181 0
M  V30 12196 C 1147.94 -2.20916 -0.756213 0
M  V30 12197 C 1148.92 -1.16442 -1.23997 0
M  V30 12198 O 1150.1 -1.44867 -1.29333 0
M  V30 12199 C 1147.23 -2.84901 -1.98617 0
M  V30 12200 C 1146.19 -3.95403 -1.63831 0
M  V30 12201 C 1145.51 -4.46432 -2.94282 0
M  V30 12202 C 1146.81 -5.15051 -0.867195 0
M  V30 12203 H 1148.51 -2.98585 -0.220776 0
M  V30 12204 H 1146.05 -1.43619 -0.104748 0
M  V30 12205 H 1148 -3.28514 -2.63926 0
M  V30 12206 H 1146.73 -2.04598 -2.54572 0
M  V30 12207 H 1145.39 -3.52444 -1.00891 0
M  V30 12208 H 1145.04 -3.62923 -3.48276 0
M  V30 12209 H 1144.74 -5.20979 -2.71762 0
M  V30 12210 H 1146.26 -4.92731 -3.60622 0
M  V30 12211 H 1147.67 -5.55363 -1.42285 0
M  V30 12212 H 1146.07 -5.95507 -0.741065 0
M  V30 12213 H 1147.14 -4.84707 0.136693 0
M  V30 12214 N 1148.48 0.103547 -1.57259 0
M  V30 12215 C 1149.41 1.12714 -2.04494 0
M  V30 12216 C 1150.39 1.42278 -0.932255 0
M  V30 12217 O 1151.58 1.52453 -1.20298 0
M  V30 12218 C 1148.71 2.44927 -2.46228 0
M  V30 12219 C 1147.66 2.2979 -3.61082 0
M  V30 12220 C 1146.99 3.67105 -3.88765 0
M  V30 12221 C 1148.29 1.7455 -4.9227 0
M  V30 12222 H 1149.98 0.734198 -2.90258 0
M  V30 12223 H 1147.53 0.351725 -1.39638 0
M  V30 12224 H 1149.48 3.16798 -2.77879 0
M  V30 12225 H 1148.21 2.8614 -1.57453 0
M  V30 12226 H 1146.87 1.60366 -3.29664 0
M  V30 12227 H 1146.51 4.05831 -2.97171 0
M  V30 12228 H 1146.21 3.57825 -4.66084 0
M  V30 12229 H 1147.74 4.40456 -4.22884 0
M  V30 12230 H 1149.15 2.36253 -5.22358 0
M  V30 12231 H 1147.55 1.76051 -5.73695 0
M  V30 12232 H 1148.62 0.704242 -4.79759 0
M  V30 12233 N 1149.96 1.53094 0.37415 0
M  V30 12234 C 1150.89 1.81901 1.46404 0
M  V30 12235 C 1151.87 0.671949 1.56265 0
M  V30 12236 O 1153.06 0.920978 1.70973 0
M  V30 12237 C 1150.19 2.00123 2.83845 0
M  V30 12238 C 1149.14 3.15864 2.88814 0
M  V30 12239 C 1148.47 3.19364 4.28848 0
M  V30 12240 C 1149.77 4.54633 2.57112 0
M  V30 12241 H 1151.46 2.73172 1.22546 0
M  V30 12242 H 1149.01 1.31444 0.588087 0
M  V30 12243 H 1150.96 2.18859 3.6011 0
M  V30 12244 H 1149.68 1.05555 3.09072 0
M  V30 12245 H 1148.34 2.96935 2.15 0
M  V30 12246 H 1147.99 2.2245 4.51137 0
M  V30 12247 H 1147.69 3.97123 4.3309 0
M  V30 12248 H 1149.22 3.40273 5.06997 0
M  V30 12249 H 1150.63 4.73587 3.23091 0
M  V30 12250 H 1149.03 5.34569 2.72683 0
M  V30 12251 H 1150.1 4.60331 1.52392 0
M  V30 12252 N 1151.44 -0.633461 1.44309 0
M  V30 12253 C 1152.85 -1.21504 1.41752 0
M  V30 12254 C 1153.2 -1.95758 0.131667 0
M  V30 12255 O 1152.33 -2.02311 -0.768072 0
M  V30 12256 C 1152.92 -2.21005 2.56792 0
M  V30 12257 C 1151.48 -2.74596 2.57438 0
M  V30 12258 C 1150.63 -1.49555 2.33513 0
M  V30 12259 H 1153.58 -0.424277 1.52923 0
M  V30 12260 H 1153.6 -3.03563 2.29412 0
M  V30 12261 H 1153.11 -1.66934 3.50364 0
M  V30 12262 H 1151.21 -3.32676 1.67801 0
M  V30 12263 H 1151.33 -3.20794 3.55849 0
M  V30 12264 H 1149.69 -1.77605 1.82561 0
M  V30 12265 H 1150.47 -0.973899 3.29196 0
M  V30 12266 N 1152.92 -1.31168 -0.873655 0
M  V30 12267 C 1153.87 -1.15107 -1.9681 0
M  V30 12268 C 1154.85 -0.0630813 -1.60776 0
M  V30 12269 O 1156.04 -0.28761 -1.74648 0
M  V30 12270 C 1153.17 -0.856705 -3.32439 0
M  V30 12271 C 1152.26 -1.9855 -3.74752 0
M  V30 12272 N 1152.65 -3.23213 -3.89059 0
M  V30 12273 C 1150.95 -1.8844 -4.04235 0
M  V30 12274 C 1151.65 -3.97026 -4.25141 0
M  V30 12275 N 1150.63 -3.25165 -4.35624 0
M  V30 12276 H 1154.43 -2.09643 -2.05978 0
M  V30 12277 H 1151.94 -1.22672 -1.06421 0
M  V30 12278 H 1153.94 -0.722635 -4.10589 0
M  V30 12279 H 1152.6 0.0804676 -3.246 0
M  V30 12280 H 1153.61 -3.58372 -3.73885 0
M  V30 12281 H 1150.29 -1.02164 -4.04807 0
M  V30 12282 H 1151.68 -5.04437 -4.43839 0
M  V30 12283 N 1154.4 1.08748 -1.14068 0
M  V30 12284 C 1155.64 1.80707 -0.904947 0
M  V30 12285 C 1155.97 1.86478 0.570167 0
M  V30 12286 O 1155.24 1.35536 1.41445 0
M  V30 12287 H 1153.82 0.669261 -0.331811 0
M  V30 12288 H 1156.48 1.31494 -1.43859 0
M  V30 12289 H 1155.57 2.83653 -1.30182 0
M  V30 12290 N 1155.87 0.935264 1.26849 0
M  V30 12291 C 1156.81 0.384563 2.24936 0
M  V30 12292 C 1157.79 -0.523311 1.53949 0
M  V30 12293 O 1158.97 -0.462103 1.82748 0
M  V30 12294 C 1156.1 -0.448043 3.35723 0
M  V30 12295 C 1155.14 0.397466 4.24644 0
M  V30 12296 S 1155.98 1.81773 5.03705 0
M  V30 12297 C 1157.13 0.99302 6.17972 0
M  V30 12298 H 1157.36 1.21588 2.713 0
M  V30 12299 H 1154.9 0.737966 1.35622 0
M  V30 12300 H 1156.86 -0.922541 3.99999 0
M  V30 12301 H 1155.52 -1.25397 2.87983 0
M  V30 12302 H 1154.71 -0.240176 5.03427 0
M  V30 12303 H 1154.31 0.806423 3.65202 0
M  V30 12304 H 1156.6 0.232526 6.77101 0
M  V30 12305 H 1157.55 1.75412 6.86029 0
M  V30 12306 H 1157.95 0.531692 5.6199 0
M  V30 12307 N 1157.35 -1.41121 0.701616 0
M  V30 12308 C 1158.26 -2.34565 0.0407815 0
M  V30 12309 C 1159.28 -1.56555 -0.75937 0
M  V30 12310 O 1160.45 -1.89008 -0.695542 0
M  V30 12311 C 1157.52 -3.35347 -0.879954 0
M  V30 12312 C 1156.58 -4.29241 -0.0713279 0
M  V30 12313 C 1155.81 -5.25209 -0.948211 0
M  V30 12314 O 1156.04 -5.26781 -2.18766 0
M  V30 12315 O 1154.97 -6.00605 -0.394657 0
M  V30 12316 H 1158.8 -2.92666 0.811188 0
M  V30 12317 H 1156.38 -1.42077 0.461991 0
M  V30 12318 H 1158.26 -3.9719 -1.40776 0
M  V30 12319 H 1156.94 -2.7968 -1.62975 0
M  V30 12320 H 1155.85 -3.70727 0.50122 0
M  V30 12321 H 1157.18 -4.88022 0.639935 0
M  V30 12322 N 1158.83 -0.446794 -1.51134 0
M  V30 12323 C 1160.08 0.116263 -2.01765 0
M  V30 12324 C 1160.4 1.42382 -1.33238 0
M  V30 12325 O 1159.67 1.9018 -0.469915 0
M  V30 12326 H 1158.25 0.0459558 -0.745585 0
M  V30 12327 H 1160.91 -0.591664 -1.85702 0
M  V30 12328 H 1160.01 0.285358 -3.10793 0
M  V30 12329 N 1160.31 1.56586 -0.178487 0
M  V30 12330 C 1161.24 2.14168 0.787856 0
M  V30 12331 C 1162.22 1.07374 1.22105 0
M  V30 12332 O 1163.4 1.35391 1.31154 0
M  V30 12333 C 1160.53 2.68708 2.06189 0
M  V30 12334 C 1159.58 3.8794 1.77215 0
M  V30 12335 S 1160.41 5.27274 0.935002 0
M  V30 12336 C 1161.57 5.85224 2.21954 0
M  V30 12337 H 1161.8 2.958 0.298293 0
M  V30 12338 H 1159.33 1.54357 0.0362853 0
M  V30 12339 H 1161.29 3.00777 2.79363 0
M  V30 12340 H 1159.95 1.87149 2.52258 0
M  V30 12341 H 1159.14 4.24453 2.71764 0
M  V30 12342 H 1158.75 3.56795 1.12132 0
M  V30 12343 H 1161.04 5.98575 3.17355 0
M  V30 12344 H 1161.98 6.82162 1.89898 0
M  V30 12345 H 1162.39 5.13697 2.34042 0
M  V30 12346 N 1161.79 -0.095206 1.57312 0
M  V30 12347 C 1163.03 -0.797142 1.85715 0
M  V30 12348 C 1163.36 -1.79275 0.767171 0
M  V30 12349 O 1162.63 -1.94808 -0.206584 0
M  V30 12350 H 1161.21 -0.297382 0.685254 0
M  V30 12351 H 1163.87 -0.0768617 1.94748 0
M  V30 12352 H 1162.96 -1.32779 2.82447 0
M  V30 12353 N 1163.26 -1.53291 -0.366026 0
M  V30 12354 C 1164.68 -1.61144 -0.942849 0
M  V30 12355 C 1165.03 -0.478571 -1.90274 0
M  V30 12356 O 1164.15 0.395069 -2.12763 0
M  V30 12357 C 1164.75 -2.92081 -1.71681 0
M  V30 12358 C 1163.31 -3.0227 -2.24298 0
M  V30 12359 C 1162.45 -2.56436 -1.05526 0
M  V30 12360 H 1165.4 -1.58038 -0.144835 0
M  V30 12361 H 1165.42 -2.79858 -2.57798 0
M  V30 12362 H 1164.94 -3.74513 -1.01793 0
M  V30 12363 H 1163.04 -2.24425 -2.97429 0
M  V30 12364 H 1163.15 -4.07341 -2.5221 0
M  V30 12365 H 1161.51 -2.11301 -1.42211 0
M  V30 12366 H 1162.3 -3.41285 -0.371376 0
M  V30 12367 N 1164.74 0.6258 -1.44643 0
M  V30 12368 C 1165.65 1.76611 -1.5442 0
M  V30 12369 C 1166.67 1.68614 -0.429576 0
M  V30 12370 O 1167.84 1.89296 -0.687686 0
M  V30 12371 C 1164.91 3.13015 -1.49071 0
M  V30 12372 C 1163.97 3.32604 -2.71428 0
M  V30 12373 C 1163.2 4.62501 -2.66325 0
M  V30 12374 O 1163.43 5.43651 -1.72626 0
M  V30 12375 O 1162.36 4.84408 -3.57258 0
M  V30 12376 H 1166.19 1.71315 -2.50769 0
M  V30 12377 H 1163.77 0.787677 -1.26949 0
M  V30 12378 H 1165.65 3.94318 -1.48631 0
M  V30 12379 H 1164.33 3.18842 -0.558686 0
M  V30 12380 H 1163.24 2.50959 -2.77435 0
M  V30 12381 H 1164.57 3.31642 -3.63695 0
M  V30 12382 N 1166.22 1.31629 0.866686 0
M  V30 12383 C 1167.17 1.16149 1.96197 0
M  V30 12384 C 1168.15 0.0716068 1.60741 0
M  V30 12385 O 1169.35 0.296868 1.74493 0
M  V30 12386 C 1166.48 0.874322 3.3198 0
M  V30 12387 C 1165.56 2.00534 3.73693 0
M  V30 12388 N 1165.95 3.25272 3.87339 0
M  V30 12389 C 1164.25 1.90582 4.0323 0
M  V30 12390 C 1164.95 3.99275 4.2303 0
M  V30 12391 N 1163.93 3.27471 4.33894 0
M  V30 12392 H 1167.73 2.10732 2.04864 0
M  V30 12393 H 1165.24 1.23234 1.05769 0
M  V30 12394 H 1167.24 0.7444 4.102 0
M  V30 12395 H 1165.9 -0.0632521 3.24638 0
M  V30 12396 H 1166.91 3.60349 3.71979 0
M  V30 12397 H 1163.59 1.0431 4.0426 0
M  V30 12398 H 1164.98 5.06784 4.41157 0
M  V30 12399 N 1167.7 -1.08142 1.14644 0
M  V30 12400 C 1168.92 -1.84857 0.940349 0
M  V30 12401 C 1169.35 -1.81163 -0.506117 0
M  V30 12402 O 1168.71 -1.19869 -1.36019 0
M  V30 12403 C 1168.76 -3.30198 1.4492 0
M  V30 12404 O 1167.86 -4.07355 0.64308 0
M  V30 12405 H 1167.2 -0.572711 0.336003 0
M  V30 12406 H 1169.73 -1.36475 1.52432 0
M  V30 12407 H 1169.74 -3.81039 1.45854 0
M  V30 12408 H 1168.42 -3.32202 2.50229 0
M  V30 12409 H 1166.99 -3.66219 0.702698 0
M  V30 12410 N 1169.18 -0.941978 -1.26351 0
M  V30 12411 C 1170.4 -0.606231 -1.98342 0
M  V30 12412 C 1170.83 0.812014 -1.6967 0
M  V30 12413 O 1170.19 1.54712 -0.9452 0
M  V30 12414 C 1170.23 -0.855864 -3.50296 0
M  V30 12415 O 1169.34 0.0716251 -4.12338 0
M  V30 12416 H 1168.68 -0.231815 -0.62222 0
M  V30 12417 H 1171.21 -1.26513 -1.60797 0
M  V30 12418 H 1171.22 -0.777079 -4.00531 0
M  V30 12419 H 1169.89 -1.8896 -3.70496 0
M  V30 12420 H 1168.47 -0.0582866 -3.72854 0
M  V30 12421 N 1170.66 1.40747 -0.709091 0
M  V30 12422 C 1171.62 2.29118 -0.0611607 0
M  V30 12423 C 1172.62 1.45049 0.694081 0
M  V30 12424 O 1173.81 1.66039 0.526952 0
M  V30 12425 C 1170.94 3.28154 0.923447 0
M  V30 12426 H 1172.13 2.87913 -0.839413 0
M  V30 12427 H 1169.69 1.4896 -0.473363 0
M  V30 12428 H 1170.42 2.74366 1.72899 0
M  V30 12429 H 1170.21 3.90207 0.384862 0
M  V30 12430 H 1171.7 3.94343 1.37417 0
M  V30 12431 N 1172.13 0.454803 1.50895 0
M  V30 12432 C 1173.55 0.108037 1.59234 0
M  V30 12433 C 1173.75 -1.38416 1.46435 0
M  V30 12434 O 1172.81 -2.15586 1.31449 0
M  V30 12435 C 1174.12 0.643721 2.93729 0
M  V30 12436 C 1175.67 0.605703 3.07083 0
M  V30 12437 C 1176.14 1.11865 4.44128 0
M  V30 12438 N 1177.63 1.07738 4.50496 0
M  V30 12439 C 1178.37 1.44495 5.54895 0
M  V30 12440 N 1177.86 1.88624 6.66628 0
M  V30 12441 N 1179.66 1.36201 5.45349 0
M  V30 12442 H 1171.81 1.4255 1.57459 0
M  V30 12443 H 1174.07 0.588504 0.743214 0
M  V30 12444 H 1173.78 1.68844 3.0852 0
M  V30 12445 H 1173.65 0.0782404 3.77119 0
M  V30 12446 H 1176.04 -0.430065 2.91949 0
M  V30 12447 H 1176.12 1.2078 2.2549 0
M  V30 12448 H 1175.76 2.15297 4.6001 0
M  V30 12449 H 1175.69 0.492933 5.24288 0
M  V30 12450 H 1178.18 0.753526 3.70311 0
M  V30 12451 H 1178.5 2.14863 7.4233 0
M  V30 12452 H 1176.84 1.92564 6.6779 0
M  V30 12453 H 1180.03 1.01579 4.56946 0
M  V30 12454 H 1180.21 1.65175 6.26595 0
M  V30 12455 N 1173.61 -1.56489 0.186789 0
M  V30 12456 C 1175.02 -1.83809 -0.327265 0
M  V30 12457 C 1175.37 -1.10718 -1.61976 0
M  V30 12458 O 1174.5 -0.36525 -2.13295 0
M  V30 12459 C 1175.09 -3.33435 -0.600551 0
M  V30 12460 C 1173.65 -3.61195 -1.059 0
M  V30 12461 C 1172.8 -2.77108 -0.103131 0
M  V30 12462 H 1175.75 -1.53292 0.410747 0
M  V30 12463 H 1175.77 -3.51754 -1.45084 0
M  V30 12464 H 1175.28 -3.86605 0.340315 0
M  V30 12465 H 1173.38 -3.13451 -2.01443 0
M  V30 12466 H 1173.5 -4.69435 -0.957458 0
M  V30 12467 H 1171.86 -2.47448 -0.603449 0
M  V30 12468 H 1172.64 -3.33065 0.832031 0
M  V30 12469 N 1175.09 0.086862 -1.5736 0
M  V30 12470 C 1176 1.12297 -2.05977 0
M  V30 12471 C 1177.02 1.43347 -0.986284 0
M  V30 12472 O 1178.19 1.53825 -1.3 0
M  V30 12473 C 1175.26 2.42131 -2.4814 0
M  V30 12474 C 1174.32 2.18189 -3.69719 0
M  V30 12475 C 1173.55 3.41833 -4.09861 0
M  V30 12476 O 1173.77 4.50383 -3.50016 0
M  V30 12477 O 1172.71 3.30934 -5.02759 0
M  V30 12478 H 1176.53 0.740012 -2.94546 0
M  V30 12479 H 1174.12 0.29995 -1.46358 0
M  V30 12480 H 1176 3.18568 -2.75848 0
M  V30 12481 H 1174.68 2.79837 -1.62705 0
M  V30 12482 H 1173.58 1.39506 -3.47115 0
M  V30 12483 H 1174.92 1.85372 -4.55959 0
M  V30 12484 N 1176.57 1.53483 0.357892 0
M  V30 12485 C 1177.98 1.43426 0.700073 0
M  V30 12486 C 1178.18 0.579493 1.92987 0
M  V30 12487 O 1177.24 0.0649086 2.52417 0
M  V30 12488 C 1178.55 2.86723 0.906099 0
M  V30 12489 C 1180.1 2.96405 1.00563 0
M  V30 12490 C 1180.58 4.4078 1.24407 0
M  V30 12491 N 1182.07 4.44243 1.3116 0
M  V30 12492 C 1182.8 5.53069 1.51333 0
M  V30 12493 N 1182.3 6.71928 1.68774 0
M  V30 12494 N 1184.09 5.40659 1.53765 0
M  V30 12495 H 1176.24 2.07559 -0.450894 0
M  V30 12496 H 1178.5 0.937649 -0.139711 0
M  V30 12497 H 1178.21 3.51622 0.0741579 0
M  V30 12498 H 1178.08 3.30827 1.81199 0
M  V30 12499 H 1180.47 2.31656 1.8281 0
M  V30 12500 H 1180.55 2.55684 0.0769512 0
M  V30 12501 H 1180.2 5.06105 0.426575 0
M  V30 12502 H 1180.13 4.7908 2.18608 0
M  V30 12503 H 1182.62 3.58587 1.19265 0
M  V30 12504 H 1182.93 7.50634 1.83762 0
M  V30 12505 H 1181.28 6.749 1.65937 0
M  V30 12506 H 1184.47 4.46764 1.39713 0
M  V30 12507 H 1184.64 6.25535 1.69146 0
M  V30 12508 N 1178.05 -0.61812 1.44973 0
M  V30 12509 C 1179.29 -1.3774 1.48439 0
M  V30 12510 C 1179.62 -1.94117 0.121999 0
M  V30 12511 O 1178.88 -1.749 -0.877974 0
M  V30 12512 C 1179.17 -2.55143 2.50274 0
M  V30 12513 C 1178.84 -2.16976 3.95262 0
M  V30 12514 C 1177.5 -2.06281 4.34743 0
M  V30 12515 C 1179.85 -1.8703 4.86486 0
M  V30 12516 C 1177.18 -1.63846 5.63357 0
M  V30 12517 C 1179.53 -1.46085 6.15501 0
M  V30 12518 C 1178.2 -1.3394 6.53924 0
M  V30 12519 H 1177.47 -0.504026 0.543175 0
M  V30 12520 H 1180.12 -0.699685 1.7826 0
M  V30 12521 H 1178.42 -3.28205 2.13983 0
M  V30 12522 H 1180.12 -3.13373 2.50197 0
M  V30 12523 H 1176.71 -2.26223 3.64034 0
M  V30 12524 H 1180.89 -1.94196 4.56729 0
M  V30 12525 H 1176.15 -1.53058 5.91932 0
M  V30 12526 H 1180.32 -1.21956 6.85638 0
M  V30 12527 H 1177.95 -1.00832 7.53483 0
M  V30 12528 N 1179.52 -1.32087 -0.859693 0
M  V30 12529 C 1180.45 -1.23204 -1.98351 0
M  V30 12530 C 1181.43 -0.116974 -1.69697 0
M  V30 12531 O 1182.62 -0.303301 -1.91817 0
M  V30 12532 C 1179.75 -0.949171 -3.34078 0
M  V30 12533 C 1178.7 -2.02493 -3.77069 0
M  V30 12534 C 1178.03 -1.59455 -5.1037 0
M  V30 12535 C 1179.33 -3.43934 -3.93074 0
M  V30 12536 H 1181.02 -2.17227 -2.0604 0
M  V30 12537 H 1178.57 -1.04577 -0.989931 0
M  V30 12538 H 1180.52 -0.873594 -4.12245 0
M  V30 12539 H 1179.25 0.0267095 -3.26589 0
M  V30 12540 H 1177.91 -2.09057 -3.01149 0
M  V30 12541 H 1177.55 -0.606256 -4.99333 0
M  V30 12542 H 1177.25 -2.31429 -5.40106 0
M  V30 12543 H 1178.78 -1.53325 -5.91036 0
M  V30 12544 H 1180.19 -3.39986 -4.61608 0
M  V30 12545 H 1178.59 -4.14214 -4.3422 0
M  V30 12546 H 1179.66 -3.83965 -2.9614 0
M  V30 12547 N 1181 1.07532 -1.15215 0
M  V30 12548 C 1181.93 2.14598 -0.805006 0
M  V30 12549 C 1182.95 1.61778 0.182152 0
M  V30 12550 O 1184.14 1.78453 -0.040834 0
M  V30 12551 C 1181.24 3.38444 -0.175736 0
M  V30 12552 C 1180.41 4.20621 -1.19986 0
M  V30 12553 C 1179.47 5.22851 -0.592705 0
M  V30 12554 O 1178.49 5.55121 -1.25815 0
M  V30 12555 N 1179.7 5.7711 0.626425 0
M  V30 12556 H 1182.46 2.44981 -1.7264 0
M  V30 12557 H 1180.02 1.23423 -1.04778 0
M  V30 12558 H 1182.01 4.03969 0.243166 0
M  V30 12559 H 1180.58 3.0579 0.64896 0
M  V30 12560 H 1179.8 3.50941 -1.79539 0
M  V30 12561 H 1181.09 4.72339 -1.89139 0
M  V30 12562 H 1180.49 5.53139 1.18546 0
M  V30 12563 H 1179.05 6.44273 0.98771 0
M  V30 12564 N 1182.48 0.948665 1.2585 0
M  V30 12565 C 1183.41 0.408398 2.24516 0
M  V30 12566 C 1184.39 -0.506954 1.54495 0
M  V30 12567 O 1185.58 -0.442695 1.83228 0
M  V30 12568 C 1182.7 -0.41241 3.3618 0
M  V30 12569 C 1181.75 0.442483 4.24198 0
M  V30 12570 S 1182.58 1.87106 5.01749 0
M  V30 12571 C 1183.74 1.05851 6.16884 0
M  V30 12572 H 1183.97 1.24458 2.69995 0
M  V30 12573 H 1181.5 0.752309 1.34832 0
M  V30 12574 H 1183.46 -0.880064 4.00955 0
M  V30 12575 H 1182.12 -1.22335 2.89297 0
M  V30 12576 H 1181.32 -0.186767 5.03654 0
M  V30 12577 H 1180.92 0.845113 3.64327 0
M  V30 12578 H 1183.21 0.304329 6.76816 0
M  V30 12579 H 1184.15 1.82678 6.8413 0
M  V30 12580 H 1184.56 0.591269 5.61395 0
M  V30 12581 N 1183.96 -1.40369 0.716545 0
M  V30 12582 C 1185.2 -2.02728 0.2609 0
M  V30 12583 C 1185.56 -1.55591 -1.12496 0
M  V30 12584 O 1186.76 -2.1002 -1.67764 0
M  V30 12585 C 1185.03 -3.55789 0.338987 0
M  V30 12586 S 1186.59 -4.38782 -0.0395316 0
M  V30 12587 H 1183.41 -0.703437 0.103431 0
M  V30 12588 H 1186.01 -1.71474 0.938976 0
M  V30 12589 H 1184.72 -3.87587 1.34923 0
M  V30 12590 H 1184.25 -3.91772 -0.357536 0
M  V30 12591 H 1186.26 -4.79902 -1.26129 0
M  V30 12592 N 1185.44 -0.462799 -1.50652 0
M  V30 12593 C 1186.38 0.349784 -2.29955 0
M  V30 12594 C 1187.38 0.997947 -1.36885 0
M  V30 12595 O 1188.58 0.93 -1.54114 0
M  V30 12596 H 1184.96 0.131635 -0.740389 0
M  V30 12597 H 1186.93 -0.33958 -2.96461 0
M  V30 12598 C 1185.68 1.42398 -3.17204 0
M  V30 12599 H 1185 0.934611 -3.88722 0
M  V30 12600 H 1186.44 1.96528 -3.75703 0
M  V30 12601 C 1184.9 2.42135 -2.34248 0
M  V30 12602 O 1185.43 3.47229 -2.01978 0
M  V30 12603 N 1183.64 2.13647 -1.96985 0
M  V30 12604 H 1183.18 1.28209 -2.23428 0
M  V30 12605 H 1183.14 2.80615 -1.41783 0
M  V30 12606 N 1186.91 1.56388 -0.195085 0
M  V30 12607 C 1188.19 1.89329 0.491303 0
M  V30 12608 C 1188.57 1.10861 1.79647 0
M  V30 12609 O 1187.92 0.209696 2.27536 0
M  V30 12610 C 1188.13 3.417 0.710096 0
M  V30 12611 C 1189.48 4.11931 1.02947 0
M  V30 12612 O 1190.5 3.4715 0.797817 0
M  V30 12613 O 1189.36 5.26423 1.46767 0
M  V30 12614 H 1186.45 0.786335 0.256137 0
M  V30 12615 H 1189 1.68061 -0.235298 0
M  V30 12616 H 1187.77 3.90727 -0.211604 0
M  V30 12617 H 1187.4 3.6866 1.48916 0
M  V30 12618 N 1188.39 -0.0785156 1.57404 0
M  V30 12619 C 1189.67 -0.811557 1.77969 0
M  V30 12620 C 1190.05 -1.96123 0.780966 0
M  V30 12621 O 1189.4 -2.27731 -0.18726 0
M  V30 12622 C 1189.61 -1.29075 3.24254 0
M  V30 12623 C 1190.96 -1.72685 3.87898 0
M  V30 12624 O 1191.98 -1.38658 3.28104 0
M  V30 12625 O 1190.84 -2.3566 4.93079 0
M  V30 12626 H 1187.93 -0.388361 0.73014 0
M  V30 12627 H 1190.48 -0.0591118 1.69597 0
M  V30 12628 H 1189.25 -0.467813 3.88494 0
M  V30 12629 H 1188.87 -2.10472 3.37324 0
M  V30 12630 N 1189.87 -1.5367 -0.349747 0
M  V30 12631 C 1191.28 -1.62135 -0.925704 0
M  V30 12632 C 1191.63 -0.498725 -1.89756 0
M  V30 12633 O 1190.76 0.372481 -2.1317 0
M  V30 12634 C 1191.35 -2.93885 -1.68573 0
M  V30 12635 C 1189.91 -3.04632 -2.2108 0
M  V30 12636 C 1189.06 -2.57541 -1.02801 0
M  V30 12637 H 1192.01 -1.58182 -0.128065 0
M  V30 12638 H 1192.03 -2.82577 -2.54815 0
M  V30 12639 H 1191.54 -3.75571 -0.978153 0
M  V30 12640 H 1189.64 -2.27567 -2.95032 0
M  V30 12641 H 1189.76 -4.09993 -2.47876 0
M  V30 12642 H 1188.12 -2.12798 -1.39962 0
M  V30 12643 H 1188.9 -3.4166 -0.335157 0
M  V30 12644 N 1191.35 0.610423 -1.45298 0
M  V30 12645 C 1192.63 1.36966 -1.39641 0
M  V30 12646 C 1193.01 2.10998 -0.0655757 0
M  V30 12647 O 1192.35 2.07705 0.952407 0
M  V30 12648 C 1192.56 2.31885 -2.60826 0
M  V30 12649 C 1193.91 2.9458 -3.05791 0
M  V30 12650 O 1194.94 2.42207 -2.61179 0
M  V30 12651 O 1193.79 3.89639 -3.83202 0
M  V30 12652 H 1190.89 0.61401 -0.554004 0
M  V30 12653 H 1193.43 0.633748 -1.57422 0
M  V30 12654 H 1192.21 1.76421 -3.49272 0
M  V30 12655 H 1191.83 3.12861 -2.45364 0
M  V30 12656 N 1192.83 1.32541 0.852676 0
M  V30 12657 C 1194.07 1.23397 1.60938 0
M  V30 12658 C 1194.41 -0.203294 1.93133 0
M  V30 12659 O 1193.68 -1.14097 1.57519 0
M  V30 12660 C 1193.96 2.0956 2.92842 0
M  V30 12661 C 1193.82 3.61675 2.67416 0
M  V30 12662 C 1195.14 1.95825 3.94133 0
M  V30 12663 H 1192.25 0.449608 0.583971 0
M  V30 12664 H 1194.9 1.62507 0.98446 0
M  V30 12665 H 1193.05 1.76336 3.46176 0
M  V30 12666 H 1194.72 4.05122 2.20621 0
M  V30 12667 H 1192.96 3.84242 2.01347 0
M  V30 12668 H 1193.63 4.17292 3.61347 0
M  V30 12669 H 1196.11 2.24935 3.50062 0
M  V30 12670 H 1194.98 2.58387 4.8428 0
M  V30 12671 H 1195.25 0.926466 4.32284 0
M  V30 12672 N 1194.3 -1.0692 1.15784 0
M  V30 12673 C 1195.23 -2.16216 0.881649 0
M  V30 12674 C 1196.22 -1.69253 -0.16951 0
M  V30 12675 O 1197.4 -1.94186 -0.0229511 0
M  V30 12676 C 1194.53 -3.4527 0.374982 0
M  V30 12677 C 1193.48 -4.05706 1.36332 0
M  V30 12678 C 1192.81 -5.29894 0.715317 0
M  V30 12679 C 1194.11 -4.45224 2.7308 0
M  V30 12680 H 1195.8 -2.39577 1.79563 0
M  V30 12681 H 1193.35 -1.15141 0.864784 0
M  V30 12682 H 1195.3 -4.2106 0.169279 0
M  V30 12683 H 1194.03 -3.21508 -0.574485 0
M  V30 12684 H 1192.69 -3.31965 1.55546 0
M  V30 12685 H 1192.33 -5.02425 -0.240436 0
M  V30 12686 H 1192.03 -5.71287 1.37494 0
M  V30 12687 H 1193.56 -6.08386 0.519489 0
M  V30 12688 H 1194.97 -5.12124 2.57686 0
M  V30 12689 H 1193.37 -4.97583 3.35457 0
M  V30 12690 H 1194.44 -3.56384 3.28813 0
M  V30 12691 N 1195.78 -0.955326 -1.25345 0
M  V30 12692 C 1197.19 -0.651118 -1.74978 0
M  V30 12693 C 1197.54 0.833495 -1.77616 0
M  V30 12694 O 1196.67 1.65228 -1.39745 0
M  V30 12695 C 1197.26 -1.17521 -3.17764 0
M  V30 12696 C 1195.82 -0.921151 -3.64954 0
M  V30 12697 C 1194.97 -1.31784 -2.43984 0
M  V30 12698 H 1197.92 -1.13205 -1.11222 0
M  V30 12699 H 1197.94 -0.535625 -3.76711 0
M  V30 12700 H 1197.45 -2.25575 -3.15813 0
M  V30 12701 H 1195.56 0.144392 -3.7232 0
M  V30 12702 H 1195.67 -1.5581 -4.53056 0
M  V30 12703 H 1194.03 -0.736219 -2.43828 0
M  V30 12704 H 1194.82 -2.40761 -2.44723 0
M  V30 12705 N 1197.26 1.39987 -0.723979 0
M  V30 12706 C 1198.54 1.94637 -0.1939 0
M  V30 12707 C 1198.92 1.66156 1.30212 0
M  V30 12708 O 1198.27 0.983783 2.06238 0
M  V30 12709 C 1198.48 3.4517 -0.515652 0
M  V30 12710 C 1199.82 4.22113 -0.458919 0
M  V30 12711 O 1200.85 3.53318 -0.452198 0
M  V30 12712 O 1199.71 5.44695 -0.443783 0
M  V30 12713 H 1196.8 0.826394 -0.0316615 0
M  V30 12714 H 1199.35 1.49548 -0.802085 0
M  V30 12715 H 1198.12 3.5929 -1.55004 0
M  V30 12716 H 1197.74 3.97413 0.122067 0
M  V30 12717 N 1198.74 0.470782 1.50404 0
M  V30 12718 C 1199.67 -0.313458 2.31386 0
M  V30 12719 C 1200.65 -0.990623 1.38278 0
M  V30 12720 O 1201.84 -0.987854 1.67198 0
M  V30 12721 C 1198.97 -1.39599 3.18009 0
M  V30 12722 C 1197.92 -0.840443 4.19667 0
M  V30 12723 C 1197.25 -2.02124 4.95025 0
M  V30 12724 C 1198.55 0.148055 5.2209 0
M  V30 12725 H 1200.24 0.362432 2.97198 0
M  V30 12726 H 1197.79 0.175745 1.42924 0
M  V30 12727 H 1199.74 -1.9521 3.73458 0
M  V30 12728 H 1198.46 -2.10064 2.50081 0
M  V30 12729 H 1197.12 -0.306302 3.65318 0
M  V30 12730 H 1196.77 -2.71286 4.23571 0
M  V30 12731 H 1196.47 -1.65574 5.6379 0
M  V30 12732 H 1197.99 -2.58226 5.5331 0
M  V30 12733 H 1199.41 -0.318874 5.72413 0
M  V30 12734 H 1197.8 0.427811 5.98573 0
M  V30 12735 H 1198.87 1.07404 4.72855 0
M  V30 12736 N 1200.22 -1.56282 0.203376 0
M  V30 12737 C 1201.16 -2.19473 -0.714164 0
M  V30 12738 C 1202.13 -1.14454 -1.20372 0
M  V30 12739 O 1203.32 -1.42739 -1.26611 0
M  V30 12740 C 1200.46 -2.86451 -1.92457 0
M  V30 12741 C 1199.57 -4.06017 -1.47561 0
M  V30 12742 C 1198.71 -4.60829 -2.64216 0
M  V30 12743 C 1197.75 -5.72734 -2.15967 0
M  V30 12744 N 1196.88 -6.21916 -3.25829 0
M  V30 12745 H 1201.72 -2.97523 -0.168558 0
M  V30 12746 H 1199.26 -1.46926 -0.0714525 0
M  V30 12747 H 1201.22 -3.23459 -2.63496 0
M  V30 12748 H 1199.85 -2.10951 -2.44335 0
M  V30 12749 H 1198.9 -3.74617 -0.660784 0
M  V30 12750 H 1200.21 -4.8693 -1.08168 0
M  V30 12751 H 1199.37 -5.00185 -3.43366 0
M  V30 12752 H 1198.11 -3.7904 -3.06887 0
M  V30 12753 H 1197.11 -5.32899 -1.35273 0
M  V30 12754 H 1198.34 -6.56346 -1.74316 0
M  V30 12755 H 1196.28 -5.43047 -3.68016 0
M  V30 12756 H 1196.2 -6.97904 -2.90631 0
M  V30 12757 H 1197.47 -6.65927 -4.05168 0
M  V30 12758 N 1201.7 0.070167 -1.57444 0
M  V30 12759 C 1202.61 1.10106 -2.07157 0
M  V30 12760 C 1203.62 1.42293 -1.00143 0
M  V30 12761 O 1204.8 1.52437 -1.31624 0
M  V30 12762 C 1201.86 2.39486 -2.50694 0
M  V30 12763 C 1200.92 2.14255 -3.72012 0
M  V30 12764 C 1200.16 3.37466 -4.13464 0
M  V30 12765 O 1200.38 4.46645 -3.54773 0
M  V30 12766 O 1199.31 3.25583 -5.0624 0
M  V30 12767 H 1203.14 0.70873 -2.95315 0
M  V30 12768 H 1200.72 0.28441 -1.46668 0
M  V30 12769 H 1202.61 3.15625 -2.79212 0
M  V30 12770 H 1201.28 2.78095 -1.65664 0
M  V30 12771 H 1200.19 1.35816 -3.48575 0
M  V30 12772 H 1201.52 1.80525 -4.57899 0
M  V30 12773 N 1203.17 1.53854 0.341593 0
M  V30 12774 C 1204.14 1.8128 1.40251 0
M  V30 12775 C 1205.14 0.683915 1.45531 0
M  V30 12776 O 1206.33 0.952202 1.45872 0
M  V30 12777 C 1203.46 1.95658 2.79161 0
M  V30 12778 H 1204.65 2.76053 1.17195 0
M  V30 12779 H 1202.2 1.45296 0.57609 0
M  V30 12780 H 1202.94 1.03034 3.07497 0
M  V30 12781 H 1202.72 2.77788 2.76724 0
M  V30 12782 H 1204.21 2.18387 3.55945 0
M  V30 12783 N 1204.65 -0.602709 1.4562 0
M  V30 12784 C 1205.6 -1.73425 1.55005 0
M  V30 12785 C 1206.59 -1.64118 0.419713 0
M  V30 12786 O 1207.8 -1.69853 0.595815 0
M  V30 12787 H 1204.17 -0.573038 0.486962 0
M  V30 12788 H 1206.15 -1.62637 2.50184 0
M  V30 12789 C 1204.89 -3.11808 1.53853 0
M  V30 12790 H 1204.22 -3.19631 2.40158 0
M  V30 12791 H 1205.66 -3.90798 1.64477 0
M  V30 12792 C 1204.12 -3.35866 0.263765 0
M  V30 12793 O 1204.65 -3.96334 -0.654364 0
M  V30 12794 N 1202.85 -2.90171 0.157927 0
M  V30 12795 H 1202.4 -2.41144 0.905944 0
M  V30 12796 H 1202.36 -3.06641 -0.694175 0
M  V30 12797 N 1206.13 -1.32992 -0.845635 0
M  V30 12798 C 1207.38 -1.24065 -1.60044 0
M  V30 12799 C 1207.7 0.195282 -1.93517 0
M  V30 12800 O 1206.96 1.1507 -1.58296 0
M  V30 12801 C 1207.26 -2.05454 -2.92444 0
M  V30 12802 C 1206.92 -3.54718 -2.78362 0
M  V30 12803 C 1205.59 -3.95413 -2.74229 0
M  V30 12804 C 1207.94 -4.49598 -2.63649 0
M  V30 12805 C 1205.27 -5.29216 -2.53274 0
M  V30 12806 C 1207.62 -5.83554 -2.44228 0
M  V30 12807 C 1206.28 -6.2344 -2.38493 0
M  V30 12808 H 1205.55 -0.453985 -0.585644 0
M  V30 12809 H 1208.2 -1.6451 -0.980244 0
M  V30 12810 H 1206.5 -1.57765 -3.58633 0
M  V30 12811 H 1208.2 -1.95909 -3.49887 0
M  V30 12812 H 1204.79 -3.22403 -2.82409 0
M  V30 12813 H 1208.98 -4.19072 -2.65881 0
M  V30 12814 H 1204.23 -5.59164 -2.47275 0
M  V30 12815 H 1208.41 -6.56681 -2.31825 0
M  V30 12816 H 1206.03 -7.27058 -2.22015 0
M  V30 12817 N 1207.61 1.06304 -1.1635 0
M  V30 12818 C 1208.88 1.75916 -0.855166 0
M  V30 12819 C 1209.26 2.0094 0.647024 0
M  V30 12820 O 1208.61 1.63642 1.59479 0
M  V30 12821 C 1208.82 3.06028 -1.67774 0
M  V30 12822 C 1210.17 3.80184 -1.89065 0
M  V30 12823 O 1211.19 3.15868 -1.64639 0
M  V30 12824 O 1210.05 4.95723 -2.30045 0
M  V30 12825 H 1207.15 0.764432 -0.315551 0
M  V30 12826 H 1209.69 1.12574 -1.26985 0
M  V30 12827 H 1208.47 2.83498 -2.69712 0
M  V30 12828 H 1208.09 3.77104 -1.26009 0
M  V30 12829 N 1209.09 0.96196 1.24836 0
M  V30 12830 C 1210.33 0.616342 1.92052 0
M  V30 12831 C 1210.65 -0.851601 1.76088 0
M  V30 12832 O 1211.85 -1.3075 2.37943 0
M  V30 12833 C 1210.31 1.05168 3.44191 0
M  V30 12834 C 1209.92 2.54268 3.68852 0
M  V30 12835 C 1211.66 0.778938 4.17292 0
M  V30 12836 C 1209.57 2.91564 5.14533 0
M  V30 12837 H 1208.5 0.22681 0.719078 0
M  V30 12838 H 1211.15 1.1674 1.41577 0
M  V30 12839 H 1209.53 0.428979 3.9367 0
M  V30 12840 H 1210.71 3.21619 3.29997 0
M  V30 12841 H 1209.02 2.79091 3.09026 0
M  V30 12842 H 1211.62 1.03366 5.24614 0
M  V30 12843 H 1211.96 -0.284772 4.15325 0
M  V30 12844 H 1212.49 1.36233 3.73745 0
M  V30 12845 H 1209.23 3.96982 5.21618 0
M  V30 12846 H 1208.75 2.28892 5.54408 0
M  V30 12847 H 1210.43 2.81155 5.82718 0
M  V30 12848 N 1210.56 -1.39601 0.731392 0
M  V30 12849 C 1211.51 -2.32469 0.0781328 0
M  V30 12850 C 1212.51 -1.52873 -0.729811 0
M  V30 12851 O 1213.71 -1.68563 -0.631402 0
M  V30 12852 H 1210.09 -0.751972 0.00646515 0
M  V30 12853 H 1212.06 -2.85196 0.877833 0
M  V30 12854 C 1210.81 -3.37948 -0.817717 0
M  V30 12855 H 1210.13 -3.99272 -0.205417 0
M  V30 12856 H 1211.57 -4.05387 -1.24248 0
M  V30 12857 C 1210.03 -2.74703 -1.95038 0
M  V30 12858 O 1210.56 -2.62266 -3.04269 0
M  V30 12859 N 1208.76 -2.32845 -1.73872 0
M  V30 12860 H 1208.31 -2.43161 -0.850321 0
M  V30 12861 H 1208.27 -1.90869 -2.49833 0
M  V30 12862 N 1212.04 -0.478751 -1.50152 0
M  V30 12863 C 1212.97 0.347829 -2.26545 0
M  V30 12864 C 1213.99 0.950354 -1.32182 0
M  V30 12865 O 1215.18 0.837462 -1.57635 0
M  V30 12866 C 1212.28 1.50255 -3.0377 0
M  V30 12867 C 1211.45 1.01142 -4.25546 0
M  V30 12868 C 1210.51 2.0411 -4.85 0
M  V30 12869 O 1209.53 1.61862 -5.45701 0
M  V30 12870 N 1210.74 3.36982 -4.72677 0
M  V30 12871 H 1213.5 -0.307113 -2.98122 0
M  V30 12872 H 1211.06 -0.309981 -1.58905 0
M  V30 12873 H 1213.05 2.18848 -3.40423 0
M  V30 12874 H 1211.62 2.06205 -2.34943 0
M  V30 12875 H 1210.84 0.151124 -3.9391 0
M  V30 12876 H 1212.13 0.661326 -5.04484 0
M  V30 12877 H 1211.53 3.74011 -4.2442 0
M  V30 12878 H 1210.09 4.0135 -5.13577 0
M  V30 12879 N 1213.52 1.56172 -0.211661 0
M  V30 12880 C 1214.45 2.22843 0.697375 0
M  V30 12881 C 1215.43 1.19689 1.20866 0
M  V30 12882 O 1216.62 1.48245 1.25447 0
M  V30 12883 C 1213.75 2.90067 1.90993 0
M  V30 12884 C 1212.7 3.99608 1.5329 0
M  V30 12885 C 1212.03 4.54078 2.82343 0
M  V30 12886 C 1213.33 5.17169 0.730333 0
M  V30 12887 H 1215.02 2.99065 0.141533 0
M  V30 12888 H 1212.57 1.43846 0.0666337 0
M  V30 12889 H 1214.52 3.35396 2.55123 0
M  V30 12890 H 1213.24 2.11276 2.49058 0
M  V30 12891 H 1211.9 3.54995 0.915115 0
M  V30 12892 H 1211.55 3.72029 3.38531 0
M  V30 12893 H 1211.25 5.28001 2.57853 0
M  V30 12894 H 1212.77 5.02119 3.47432 0
M  V30 12895 H 1214.19 5.5894 1.2751 0
M  V30 12896 H 1212.59 5.97262 0.582916 0
M  V30 12897 H 1213.66 4.84174 -0.265157 0
M  V30 12898 N 1215 -0.0618163 1.57479 0
M  V30 12899 C 1216.23 -0.770605 1.9169 0
M  V30 12900 C 1216.64 -1.71134 0.806841 0
M  V30 12901 O 1215.98 -1.8228 -0.228002 0
M  V30 12902 C 1216.04 -1.60962 3.21452 0
M  V30 12903 C 1215.71 -0.837193 4.49266 0
M  V30 12904 C 1216.7 -0.151964 5.19678 0
M  V30 12905 C 1214.39 -0.801414 4.95866 0
M  V30 12906 C 1216.38 0.558705 6.34947 0
M  V30 12907 C 1214.07 -0.0869788 6.11038 0
M  V30 12908 C 1215.07 0.591871 6.80431 0
M  V30 12909 O 1214.75 1.29478 7.93405 0
M  V30 12910 H 1214.49 -0.223673 0.637923 0
M  V30 12911 H 1217.04 -0.0333424 2.05373 0
M  V30 12912 H 1215.27 -2.38992 3.04006 0
M  V30 12913 H 1216.96 -2.19799 3.41238 0
M  V30 12914 H 1217.73 -0.170848 4.84699 0
M  V30 12915 H 1213.6 -1.31927 4.4172 0
M  V30 12916 H 1217.15 1.08913 6.89046 0
M  V30 12917 H 1213.05 -0.066057 6.45466 0
M  V30 12918 H 1213.81 1.20507 8.0958 0
M  V30 12919 N 1216.48 -1.54033 -0.333429 0
M  V30 12920 C 1217.75 -1.62404 -1.09015 0
M  V30 12921 C 1218.13 -0.451653 -2.06212 0
M  V30 12922 O 1217.48 0.555086 -2.21655 0
M  V30 12923 C 1217.69 -2.98949 -1.80085 0
M  V30 12924 C 1219.04 -3.54655 -2.33464 0
M  V30 12925 O 1220.06 -3.0119 -1.90166 0
M  V30 12926 O 1218.92 -4.48195 -3.12703 0
M  V30 12927 H 1216.02 -0.65727 -0.501921 0
M  V30 12928 H 1218.56 -1.66378 -0.33411 0
M  V30 12929 H 1217.33 -3.75716 -1.09332 0
M  V30 12930 H 1216.96 -2.98609 -2.62523 0
M  V30 12931 N 1217.95 0.594978 -1.45938 0
M  V30 12932 C 1219.19 1.36479 -1.52161 0
M  V30 12933 C 1219.56 1.91296 -0.164295 0
M  V30 12934 O 1220.76 2.68609 -0.101247 0
M  V30 12935 C 1219.03 2.47286 -2.5804 0
M  V30 12936 S 1220.59 3.34855 -2.8358 0
M  V30 12937 H 1217.41 0.465134 -0.537746 0
M  V30 12938 H 1220.01 0.685257 -1.83097 0
M  V30 12939 H 1218.71 2.05386 -3.5531 0
M  V30 12940 H 1218.24 3.20025 -2.28795 0
M  V30 12941 H 1220.26 4.45788 -2.17916 0
M  V30 12942 N 1219.43 1.33438 0.838571 0
M  V30 12943 C 1220.38 1.23698 1.96981 0
M  V30 12944 C 1221.37 0.138299 1.68835 0
M  V30 12945 O 1222.58 0.302278 1.77444 0
M  V30 12946 H 1218.96 0.383874 0.646641 0
M  V30 12947 H 1220.93 2.19337 2.02321 0
M  V30 12948 C 1219.68 0.993362 3.33208 0
M  V30 12949 H 1219 1.83104 3.55405 0
M  V30 12950 H 1220.44 0.965517 4.1286 0
M  V30 12951 C 1218.9 -0.303701 3.35528 0
M  V30 12952 O 1219.43 -1.3103 3.79729 0
M  V30 12953 N 1217.63 -0.331342 2.88705 0
M  V30 12954 H 1217.18 0.488351 2.52929 0
M  V30 12955 H 1217.14 -1.199 2.9064 0
M  V30 12956 N 1220.91 -1.05686 1.16912 0
M  V30 12957 C 1222.16 -1.79006 0.965835 0
M  V30 12958 C 1222.51 -1.85774 -0.500593 0
M  V30 12959 O 1221.8 -1.34282 -1.3667 0
M  V30 12960 C 1222 -3.22779 1.53455 0
M  V30 12961 C 1221.83 -3.30023 3.05474 0
M  V30 12962 C 1220.6 -3.396 3.74166 0
M  V30 12963 C 1222.8 -3.19376 4.03117 0
M  V30 12964 N 1220.78 -3.35923 5.13838 0
M  V30 12965 C 1222.15 -3.23013 5.2921 0
M  V30 12966 C 1224.2 -3.03304 3.94856 0
M  V30 12967 C 1222.91 -3.12228 6.48002 0
M  V30 12968 C 1224.93 -2.93859 5.13226 0
M  V30 12969 C 1224.29 -2.98124 6.38202 0
M  V30 12970 H 1220.39 -0.667577 0.407266 0
M  V30 12971 H 1222.98 -1.26025 1.48411 0
M  V30 12972 H 1221.15 -3.74143 1.04268 0
M  V30 12973 H 1222.88 -3.8431 1.26839 0
M  V30 12974 H 1219.64 -3.44654 3.24824 0
M  V30 12975 H 1220.06 -3.37567 5.86837 0
M  V30 12976 H 1224.7 -2.98848 2.99081 0
M  V30 12977 H 1222.42 -3.15439 7.43992 0
M  V30 12978 H 1226.01 -2.82501 5.0861 0
M  V30 12979 H 1224.89 -2.90882 7.28256 0
M  V30 12980 N 1222.39 -0.968567 -1.24324 0
M  V30 12981 C 1223.63 -0.631863 -1.92705 0
M  V30 12982 C 1223.97 0.83096 -1.75524 0
M  V30 12983 O 1223.24 1.59795 -1.10887 0
M  V30 12984 C 1223.53 -1.00845 -3.45691 0
M  V30 12985 C 1223.38 -2.52803 -3.72036 0
M  V30 12986 C 1224.7 -0.543647 -4.36729 0
M  V30 12987 H 1221.82 -0.231027 -0.699854 0
M  V30 12988 H 1224.46 -1.20773 -1.46676 0
M  V30 12989 H 1222.61 -0.518434 -3.85025 0
M  V30 12990 H 1224.28 -3.09289 -3.42255 0
M  V30 12991 H 1222.52 -2.95963 -3.17157 0
M  V30 12992 H 1223.19 -2.74203 -4.79079 0
M  V30 12993 H 1225.67 -0.964182 -4.04775 0
M  V30 12994 H 1224.55 -0.8357 -5.42501 0
M  V30 12995 H 1224.81 0.556256 -4.38587 0
M  V30 12996 N 1223.87 1.39211 -0.738786 0
M  V30 12997 C 1225.11 2.00733 -0.288817 0
M  V30 12998 C 1225.45 1.58494 1.1222 0
M  V30 12999 O 1224.72 0.815579 1.76575 0
M  V30 13000 C 1225 3.57928 -0.394956 0
M  V30 13001 C 1224.86 4.10174 -1.84601 0
M  V30 13002 C 1226.18 4.39548 0.220395 0
M  V30 13003 H 1223.29 0.729276 -0.106418 0
M  V30 13004 H 1225.94 1.65365 -0.935652 0
M  V30 13005 H 1224.09 3.88188 0.155744 0
M  V30 13006 H 1225.76 3.90618 -2.45388 0
M  V30 13007 H 1224 3.63593 -2.36607 0
M  V30 13008 H 1224.67 5.19305 -1.87152 0
M  V30 13009 H 1227.15 4.15354 -0.249098 0
M  V30 13010 H 1226.02 5.48778 0.115806 0
M  V30 13011 H 1226.29 4.22341 1.30691 0
M  V30 13012 N 1225.34 0.486708 1.49896 0
M  V30 13013 C 1226.59 -0.0629451 2.02702 0
M  V30 13014 C 1226.92 -1.37956 1.36681 0
M  V30 13015 O 1226.2 -1.88025 0.497678 0
M  V30 13016 C 1226.48 -0.230461 3.59362 0
M  V30 13017 C 1226.33 1.10828 4.35933 0
M  V30 13018 C 1227.65 -0.977785 4.29101 0
M  V30 13019 H 1224.77 -0.0214017 0.736689 0
M  V30 13020 H 1227.41 0.635339 1.79063 0
M  V30 13021 H 1225.56 -0.825222 3.79634 0
M  V30 13022 H 1227.24 1.74082 4.27192 0
M  V30 13023 H 1225.48 1.7011 3.99055 0
M  V30 13024 H 1226.15 0.944532 5.43859 0
M  V30 13025 H 1228.63 -0.473505 4.13397 0
M  V30 13026 H 1227.5 -1.06382 5.38492 0
M  V30 13027 H 1227.76 -2.01813 3.9335 0
M  V30 13028 N 1226.82 -1.56058 0.219941 0
M  V30 13029 C 1227.77 -2.21585 -0.707321 0
M  V30 13030 C 1228.77 -1.19473 -1.20094 0
M  V30 13031 O 1229.97 -1.37557 -1.16095 0
M  V30 13032 H 1226.35 -0.710447 -0.246515 0
M  V30 13033 H 1228.32 -2.98111 -0.131214 0
M  V30 13034 C 1227.07 -2.90841 -1.90544 0
M  V30 13035 H 1226.39 -3.6917 -1.53472 0
M  V30 13036 H 1227.83 -3.40092 -2.53206 0
M  V30 13037 C 1226.29 -1.93223 -2.75983 0
M  V30 13038 O 1226.82 -1.44815 -3.74689 0
M  V30 13039 N 1225.02 -1.60907 -2.41986 0
M  V30 13040 H 1224.57 -2.00467 -1.61774 0
M  V30 13041 H 1224.53 -0.958534 -2.99432 0
M  V30 13042 N 1228.3 0.053464 -1.57509 0
M  V30 13043 C 1229.54 0.754231 -1.89976 0
M  V30 13044 C 1229.91 1.73805 -0.815833 0
M  V30 13045 O 1231.11 2.48527 -1.0241 0
M  V30 13046 C 1229.38 1.42768 -3.27646 0
M  V30 13047 S 1230.94 2.16098 -3.81899 0
M  V30 13048 H 1227.75 0.250421 -0.66544 0
M  V30 13049 H 1230.36 0.00963883 -1.95498 0
M  V30 13050 H 1229.06 0.698087 -4.04419 0
M  V30 13051 H 1228.59 2.21133 -3.25367 0
M  V30 13052 H 1230.61 3.42895 -3.5866 0
M  V30 13053 N 1229.78 1.54207 0.325255 0
M  V30 13054 C 1231 1.7661 1.08736 0
M  V30 13055 C 1231.43 0.512449 1.80985 0
M  V30 13056 O 1230.79 -0.535913 1.73198 0
M  V30 13057 C 1230.84 2.95797 2.06243 0
M  V30 13058 O 1229.94 2.67225 3.14109 0
M  V30 13059 H 1229.28 0.585282 0.313593 0
M  V30 13060 H 1231.81 2.01225 0.370066 0
M  V30 13061 H 1231.82 3.23097 2.49143 0
M  V30 13062 H 1230.5 3.86712 1.53058 0
M  V30 13063 H 1229.07 2.50869 2.75897 0
M  V30 13064 N 1231.26 -0.58723 1.46251 0
M  V30 13065 C 1232.49 -1.37174 1.5489 0
M  V30 13066 C 1232.9 -1.87857 0.188445 0
M  V30 13067 O 1232.26 -1.63365 -0.813509 0
M  V30 13068 C 1232.31 -2.56237 2.55 0
M  V30 13069 O 1232.03 -2.07655 3.8576 0
M  V30 13070 C 1233.53 -3.48846 2.73535 0
M  V30 13071 H 1230.75 -0.419211 0.523931 0
M  V30 13072 H 1233.29 -0.714307 1.91619 0
M  V30 13073 H 1231.45 -3.1798 2.21287 0
M  V30 13074 H 1231.86 -2.85161 4.40208 0
M  V30 13075 H 1233.34 -4.2888 3.47514 0
M  V30 13076 H 1233.81 -4.00493 1.80282 0
M  V30 13077 H 1234.42 -2.92942 3.08326 0
M  V30 13078 N 1232.74 -1.33881 -0.831482 0
M  V30 13079 C 1234.15 -1.23112 -1.40358 0
M  V30 13080 C 1234.5 0.146944 -1.95649 0
M  V30 13081 O 1233.62 1.04689 -1.89391 0
M  V30 13082 C 1234.22 -2.22899 -2.5515 0
M  V30 13083 C 1232.78 -2.15946 -3.08292 0
M  V30 13084 C 1231.92 -2.09975 -1.81124 0
M  V30 13085 H 1234.87 -1.45372 -0.63661 0
M  V30 13086 H 1234.9 -1.841 -3.32997 0
M  V30 13087 H 1234.41 -3.23186 -2.14878 0
M  V30 13088 H 1232.51 -1.18987 -3.53091 0
M  V30 13089 H 1232.62 -3.06822 -3.67964 0
M  V30 13090 H 1230.99 -1.55564 -2.01673 0
M  V30 13091 H 1231.77 -3.12082 -1.43037 0
M  V30 13092 N 1234.21 1.05064 -1.1747 0
M  V30 13093 C 1235.46 1.77737 -0.961979 0
M  V30 13094 C 1235.78 1.88198 0.510551 0
M  V30 13095 O 1235.05 1.39968 1.37062 0
M  V30 13096 H 1233.63 0.658366 -0.352935 0
M  V30 13097 H 1236.29 1.26851 -1.47969 0
M  V30 13098 H 1235.39 2.79368 -1.39141 0
M  V30 13099 N 1235.69 0.975146 1.23809 0
M  V30 13100 C 1236.64 0.503396 2.27087 0
M  V30 13101 C 1237.63 -0.43689 1.63669 0
M  V30 13102 O 1238.84 -0.31136 1.77287 0
M  V30 13103 H 1235.21 0.144346 0.738017 0
M  V30 13104 H 1237.19 1.38627 2.64244 0
M  V30 13105 C 1235.93 -0.183682 3.47214 0
M  V30 13106 H 1235.26 0.530753 3.96261 0
M  V30 13107 H 1236.7 -0.477479 4.21303 0
M  V30 13108 C 1235.16 -1.41317 3.05829 0
M  V30 13109 O 1235.69 -2.50975 3.13647 0
M  V30 13110 N 1233.89 -1.28191 2.60798 0
M  V30 13111 H 1233.44 -0.38967 2.54636 0
M  V30 13112 H 1233.4 -2.10565 2.33473 0
M  V30 13113 N 1237.17 -1.38817 0.746158 0
M  V30 13114 C 1238.42 -2.0028 0.299016 0
M  V30 13115 C 1238.74 -1.59221 -1.11709 0
M  V30 13116 O 1238 -0.817595 -1.77803 0
M  V30 13117 C 1238.3 -3.55571 0.361086 0
M  V30 13118 C 1237.96 -4.16317 1.73179 0
M  V30 13119 C 1236.63 -4.32622 2.10693 0
M  V30 13120 C 1238.98 -4.49905 2.63126 0
M  V30 13121 C 1236.31 -4.79808 3.3764 0
M  V30 13122 C 1238.66 -4.98504 3.89457 0
M  V30 13123 C 1237.32 -5.13016 4.27049 0
M  V30 13124 H 1236.59 -0.732877 0.109418 0
M  V30 13125 H 1239.24 -1.65977 0.955186 0
M  V30 13126 H 1237.54 -3.89966 -0.378655 0
M  V30 13127 H 1239.24 -4.01 -0.00319228 0
M  V30 13128 H 1235.83 -4.04035 1.43015 0
M  V30 13129 H 1240.02 -4.36916 2.3541 0
M  V30 13130 H 1235.27 -4.89229 3.66695 0
M  V30 13131 H 1239.45 -5.23464 4.59302 0
M  V30 13132 H 1237.07 -5.4934 5.25481 0
M  V30 13133 N 1238.65 -0.49465 -1.49636 0
M  V30 13134 C 1239.89 0.0521172 -2.02433 0
M  V30 13135 C 1240.22 1.37579 -1.37485 0
M  V30 13136 O 1239.48 1.8927 -0.497538 0
M  V30 13137 C 1239.78 0.259743 -3.56455 0
M  V30 13138 C 1239.44 -0.985143 -4.40007 0
M  V30 13139 C 1238.1 -1.3264 -4.62558 0
M  V30 13140 C 1240.46 -1.81291 -4.88654 0
M  V30 13141 C 1237.78 -2.49506 -5.31003 0
M  V30 13142 C 1240.14 -2.97305 -5.58384 0
M  V30 13143 C 1238.8 -3.31818 -5.79183 0
M  V30 13144 H 1238.07 0.0190711 -0.740755 0
M  V30 13145 H 1240.72 -0.653519 -1.80004 0
M  V30 13146 H 1239.02 1.04785 -3.77528 0
M  V30 13147 H 1240.72 0.697146 -3.94893 0
M  V30 13148 H 1237.31 -0.709313 -4.2269 0
M  V30 13149 H 1241.49 -1.56242 -4.71065 0
M  V30 13150 H 1236.75 -2.76491 -5.4531 0
M  V30 13151 H 1240.92 -3.61777 -5.95055 0
M  V30 13152 H 1238.55 -4.22478 -6.31994 0
M  V30 13153 N 1240.13 1.55939 -0.228214 0
M  V30 13154 C 1241.08 2.17223 0.692674 0
M  V30 13155 C 1242.06 1.12252 1.15275 0
M  V30 13156 O 1243.25 1.3822 1.10563 0
M  V30 13157 C 1240.38 2.86084 1.89766 0
M  V30 13158 C 1239.47 3.98288 1.45695 0
M  V30 13159 N 1239.86 5.00515 0.729258 0
M  V30 13160 C 1238.16 4.105 1.74372 0
M  V30 13161 C 1238.86 5.79516 0.503606 0
M  V30 13162 N 1237.83 5.33119 1.06229 0
M  V30 13163 H 1241.63 2.9362 0.128345 0
M  V30 13164 H 1239.15 1.62373 -0.0297445 0
M  V30 13165 H 1241.15 3.28404 2.5682 0
M  V30 13166 H 1239.81 2.11185 2.46639 0
M  V30 13167 H 1240.82 5.16495 0.381261 0
M  V30 13168 H 1237.49 3.46759 2.32518 0
M  V30 13169 H 1238.88 6.71857 -0.0760344 0
M  V30 13170 N 1241.6 -0.0451101 1.57535 0
M  V30 13171 C 1242.85 -0.740209 1.88809 0
M  V30 13172 C 1243.18 -1.75854 0.823956 0
M  V30 13173 O 1242.46 -1.93817 -0.16286 0
M  V30 13174 C 1242.74 -1.42424 3.30737 0
M  V30 13175 C 1242.59 -0.42052 4.4783 0
M  V30 13176 C 1243.91 -2.36241 3.7132 0
M  V30 13177 H 1241.03 -0.267628 0.686691 0
M  V30 13178 H 1243.67 -0.00309149 1.9 0
M  V30 13179 H 1241.82 -2.05254 3.29853 0
M  V30 13180 H 1243.5 0.204625 4.60846 0
M  V30 13181 H 1241.74 0.261739 4.3301 0
M  V30 13182 H 1242.41 -0.937298 5.43984 0
M  V30 13183 H 1244.89 -1.83468 3.73468 0
M  V30 13184 H 1243.76 -2.81091 4.71465 0
M  V30 13185 H 1244.02 -3.2222 3.02699 0
M  V30 13186 N 1243.08 -1.54377 -0.317073 0
M  V30 13187 C 1244.01 -1.8721 -1.39552 0
M  V30 13188 C 1244.99 -0.729483 -1.53664 0
M  V30 13189 O 1246.18 -0.983799 -1.67437 0
M  V30 13190 C 1243.31 -2.1052 -2.76222 0
M  V30 13191 C 1242.26 -3.26366 -2.76892 0
M  V30 13192 C 1241.59 -3.35061 -4.16699 0
M  V30 13193 C 1242.89 -4.63862 -2.40061 0
M  V30 13194 H 1244.58 -2.77532 -1.12323 0
M  V30 13195 H 1242.13 -1.33536 -0.538897 0
M  V30 13196 H 1244.08 -2.32073 -3.51739 0
M  V30 13197 H 1242.81 -1.16953 -3.04942 0
M  V30 13198 H 1241.46 -3.0471 -2.03831 0
M  V30 13199 H 1241.11 -2.39041 -4.4257 0
M  V30 13200 H 1240.81 -4.12923 -4.18053 0
M  V30 13201 H 1242.34 -3.58856 -4.94019 0
M  V30 13202 H 1243.75 -4.85252 -3.05292 0
M  V30 13203 H 1242.15 -5.44321 -2.52655 0
M  V30 13204 H 1243.22 -4.6567 -1.35202 0
M  V30 13205 N 1244.56 0.579466 -1.4656 0
M  V30 13206 C 1245.98 0.903163 -1.31587 0
M  V30 13207 C 1246.18 1.99406 -0.28972 0
M  V30 13208 O 1245.23 2.50632 0.30658 0
M  V30 13209 C 1246.55 1.31745 -2.70303 0
M  V30 13210 C 1248.09 1.43012 -2.78418 0
M  V30 13211 C 1248.57 1.87805 -4.17724 0
M  V30 13212 N 1250.06 1.94993 -4.20157 0
M  V30 13213 C 1250.79 2.30934 -5.2484 0
M  V30 13214 N 1250.29 2.65645 -6.39847 0
M  V30 13215 N 1252.08 2.31517 -5.12207 0
M  V30 13216 H 1244.23 -0.141111 -2.11931 0
M  V30 13217 H 1246.5 -0.000460304 -0.948 0
M  V30 13218 H 1246.2 0.589864 -3.46718 0
M  V30 13219 H 1246.08 2.2783 -3.00622 0
M  V30 13220 H 1248.46 2.14856 -2.02289 0
M  V30 13221 H 1248.55 0.451701 -2.5178 0
M  V30 13222 H 1248.19 1.16539 -4.94349 0
M  V30 13223 H 1248.12 2.86611 -4.41771 0
M  V30 13224 H 1250.61 1.70645 -3.37178 0
M  V30 13225 H 1250.92 2.92032 -7.15498 0
M  V30 13226 H 1249.27 2.63276 -6.43204 0
M  V30 13227 H 1252.46 2.03824 -4.21394 0
M  V30 13228 H 1252.63 2.59199 -5.93902 0
M  V30 13229 N 1246.04 1.3432 0.824371 0
M  V30 13230 C 1247.45 1.1397 1.11727 0
M  V30 13231 C 1247.65 -0.0597597 2.01411 0
M  V30 13232 O 1246.71 -0.735717 2.41544 0
M  V30 13233 C 1248.02 2.43423 1.76538 0
M  V30 13234 C 1249.57 2.49466 1.89039 0
M  V30 13235 C 1250.05 3.78917 2.57266 0
M  V30 13236 N 1251.54 3.8007 2.64767 0
M  V30 13237 C 1252.27 4.76953 3.18282 0
M  V30 13238 N 1251.77 5.84217 3.72373 0
M  V30 13239 N 1253.56 4.6441 3.1667 0
M  V30 13240 H 1245.71 2.11175 0.227802 0
M  V30 13241 H 1247.98 0.933774 0.163615 0
M  V30 13242 H 1247.68 3.31278 1.18102 0
M  V30 13243 H 1247.56 2.56655 2.7642 0
M  V30 13244 H 1249.94 1.62052 2.46623 0
M  V30 13245 H 1250.02 2.40163 0.880635 0
M  V30 13246 H 1249.67 4.6672 2.00336 0
M  V30 13247 H 1249.6 3.85502 3.58742 0
M  V30 13248 H 1252.09 3.02556 2.26425 0
M  V30 13249 H 1252.4 6.54159 4.11455 0
M  V30 13250 H 1250.75 5.87933 3.70621 0
M  V30 13251 H 1253.94 3.7976 2.73678 0
M  V30 13252 H 1254.11 5.40081 3.58073 0
M  V30 13253 N 1247.52 -1.0444 1.18026 0
M  V30 13254 C 1248.45 -2.12388 0.86162 0
M  V30 13255 C 1249.46 -1.62204 -0.139196 0
M  V30 13256 O 1250.65 -1.78282 0.0881334 0
M  V30 13257 C 1247.75 -3.37859 0.265407 0
M  V30 13258 C 1246.92 -4.17292 1.31096 0
M  V30 13259 C 1245.98 -5.21096 0.731121 0
M  V30 13260 O 1245.01 -5.5159 1.40488 0
M  V30 13261 N 1246.21 -5.78568 -0.473194 0
M  V30 13262 H 1248.98 -2.40317 1.79074 0
M  V30 13263 H 1246.54 -1.20601 1.08014 0
M  V30 13264 H 1248.53 -4.04472 -0.135976 0
M  V30 13265 H 1247.1 -3.07403 -0.567658 0
M  V30 13266 H 1246.32 -3.46057 1.8878 0
M  V30 13267 H 1247.61 -4.67158 2.01596 0
M  V30 13268 H 1247 -5.56088 -1.03839 0
M  V30 13269 H 1245.56 -6.46665 -0.816545 0
M  V30 13270 N 1248.99 -0.981699 -1.2329 0
M  V30 13271 C 1250.24 -0.646818 -1.91048 0
M  V30 13272 C 1250.56 0.823479 -1.77421 0
M  V30 13273 O 1251.76 1.26948 -2.39993 0
M  V30 13274 C 1250.22 -1.1063 -3.42475 0
M  V30 13275 C 1249.83 -2.60103 -3.6476 0
M  V30 13276 C 1251.57 -0.845227 -4.16 0
M  V30 13277 C 1249.48 -2.99712 -5.0983 0
M  V30 13278 H 1248.41 -0.238221 -0.715379 0
M  V30 13279 H 1251.06 -1.18977 -1.39702 0
M  V30 13280 H 1249.44 -0.491554 -3.92937 0
M  V30 13281 H 1250.61 -3.26828 -3.24839 0
M  V30 13282 H 1248.93 -2.83972 -3.04547 0
M  V30 13283 H 1251.53 -1.11699 -5.22903 0
M  V30 13284 H 1251.87 0.218661 -4.15725 0
M  V30 13285 H 1252.4 -1.42162 -3.7153 0
M  V30 13286 H 1249.14 -4.0523 -5.15237 0
M  V30 13287 H 1248.66 -2.37683 -5.50697 0
M  V30 13288 H 1250.34 -2.9039 -5.78172 0
M  V30 13289 N 1250.47 1.3842 -0.753509 0
M  V30 13290 C 1251.4 2.33073 -0.141198 0
M  V30 13291 C 1252.38 1.54863 0.70367 0
M  V30 13292 O 1253.57 1.8318 0.644872 0
M  V30 13293 C 1250.7 3.39043 0.752802 0
M  V30 13294 C 1249.65 4.27999 0.0106692 0
M  V30 13295 C 1248.98 5.24824 1.02291 0
M  V30 13296 C 1250.28 5.09308 -1.15768 0
M  V30 13297 H 1251.97 2.84528 -0.93188 0
M  V30 13298 H 1249.52 1.36802 -0.449567 0
M  V30 13299 H 1251.47 4.04224 1.19083 0
M  V30 13300 H 1250.2 2.8607 1.57581 0
M  V30 13301 H 1248.85 3.64323 -0.407939 0
M  V30 13302 H 1248.5 4.68139 1.83998 0
M  V30 13303 H 1248.2 5.85196 0.53101 0
M  V30 13304 H 1249.73 5.92882 1.46026 0
M  V30 13305 H 1251.14 5.6773 -0.797203 0
M  V30 13306 H 1249.54 5.78914 -1.58044 0
M  V30 13307 H 1250.61 4.43051 -1.97062 0
M  V30 13308 N 1251.95 0.502579 1.49372 0
M  V30 13309 C 1252.88 -0.264307 2.31999 0
M  V30 13310 C 1253.86 -0.96107 1.40348 0
M  V30 13311 O 1255.05 -0.952167 1.69255 0
M  V30 13312 C 1252.18 -1.32822 3.20898 0
M  V30 13313 C 1251.13 -0.751236 4.21355 0
M  V30 13314 C 1250.46 -1.91578 4.99201 0
M  V30 13315 C 1251.76 0.258764 5.21659 0
M  V30 13316 H 1253.45 0.425391 2.96363 0
M  V30 13317 H 1251 0.206022 1.42519 0
M  V30 13318 H 1252.95 -1.87245 3.77515 0
M  V30 13319 H 1251.67 -2.04712 2.54481 0
M  V30 13320 H 1250.33 -0.228743 3.65886 0
M  V30 13321 H 1249.98 -2.62241 4.2923 0
M  V30 13322 H 1249.68 -1.53578 5.67175 0
M  V30 13323 H 1251.2 -2.46432 5.58663 0
M  V30 13324 H 1252.62 -0.197385 5.7296 0
M  V30 13325 H 1251.02 0.554681 5.97531 0
M  V30 13326 H 1252.09 1.1741 4.70471 0
M  V30 13327 N 1253.43 -1.55816 0.23648 0
M  V30 13328 C 1254.84 -1.84757 -0.268622 0
M  V30 13329 C 1255.19 -1.15815 -1.58371 0
M  V30 13330 O 1254.32 -0.432923 -2.12025 0
M  V30 13331 C 1254.91 -3.35177 -0.494167 0
M  V30 13332 C 1253.47 -3.64382 -0.943551 0
M  V30 13333 C 1252.62 -2.77296 -0.0149191 0
M  V30 13334 H 1255.57 -1.51908 0.459308 0
M  V30 13335 H 1255.59 -3.56192 -1.3382 0
M  V30 13336 H 1255.1 -3.85327 0.463138 0
M  V30 13337 H 1253.2 -3.19701 -1.91369 0
M  V30 13338 H 1253.31 -4.72244 -0.807626 0
M  V30 13339 H 1251.68 -2.49243 -0.524419 0
M  V30 13340 H 1252.46 -3.30249 0.937571 0
M  V30 13341 N 1254.91 0.036755 -1.57557 0
M  V30 13342 C 1256.15 0.729106 -1.88919 0
M  V30 13343 C 1256.48 1.75769 -0.832801 0
M  V30 13344 O 1255.74 1.94985 0.167173 0
M  V30 13345 C 1256.04 1.44206 -3.27016 0
M  V30 13346 C 1255.7 0.550184 -4.47531 0
M  V30 13347 C 1254.36 0.304511 -4.80236 0
M  V30 13348 C 1256.72 -0.0660664 -5.21158 0
M  V30 13349 C 1254.04 -0.566316 -5.8396 0
M  V30 13350 C 1256.4 -0.92455 -6.25807 0
M  V30 13351 C 1255.06 -1.17976 -6.56992 0
M  V30 13352 H 1254.33 0.266799 -0.691303 0
M  V30 13353 H 1256.98 -0.0108698 -1.91497 0
M  V30 13354 H 1255.28 2.25516 -3.2039 0
M  V30 13355 H 1256.98 1.98317 -3.48527 0
M  V30 13356 H 1253.57 0.751814 -4.21955 0
M  V30 13357 H 1257.75 0.110784 -4.96176 0
M  V30 13358 H 1253.01 -0.772428 -6.06501 0
M  V30 13359 H 1257.18 -1.40861 -6.82005 0
M  V30 13360 H 1254.81 -1.85627 -7.37188 0
M  V30 13361 N 1256.39 1.54543 0.308881 0
M  V30 13362 C 1257.8 1.45581 0.654088 0
M  V30 13363 C 1258 0.640597 1.91046 0
M  V30 13364 O 1257.06 0.14518 2.52082 0
M  V30 13365 C 1258.37 2.89461 0.814422 0
M  V30 13366 C 1259.92 2.99455 0.910817 0
M  V30 13367 C 1260.39 4.44515 1.10321 0
M  V30 13368 N 1261.88 4.4819 1.1696 0
M  V30 13369 C 1262.62 5.57604 1.33661 0
M  V30 13370 N 1262.12 6.76957 1.47311 0
M  V30 13371 N 1263.91 5.45278 1.36487 0
M  V30 13372 H 1256.06 2.06019 -0.516699 0
M  V30 13373 H 1258.32 0.932729 -0.169471 0
M  V30 13374 H 1258.03 3.5168 -0.0377455 0
M  V30 13375 H 1257.9 3.36425 1.70582 0
M  V30 13376 H 1260.29 2.37355 1.75348 0
M  V30 13377 H 1260.37 2.558 -0.00443172 0
M  V30 13378 H 1260.01 5.07206 0.265346 0
M  V30 13379 H 1259.94 4.85793 2.03256 0
M  V30 13380 H 1262.44 3.62199 1.07796 0
M  V30 13381 H 1262.75 7.561 1.59788 0
M  V30 13382 H 1261.09 6.79837 1.44382 0
M  V30 13383 H 1264.28 4.50983 1.25429 0
M  V30 13384 H 1264.46 6.30599 1.4916 0
M  V30 13385 N 1257.86 -0.571685 1.46866 0
M  V30 13386 C 1258.81 -1.67992 1.58263 0
M  V30 13387 C 1259.78 -1.60535 0.426345 0
M  V30 13388 O 1260.97 -1.79584 0.644534 0
M  V30 13389 C 1258.11 -3.06327 1.58927 0
M  V30 13390 C 1257.22 -3.24328 2.85369 0
M  V30 13391 C 1256.35 -4.52976 2.77464 0
M  V30 13392 C 1255.39 -4.64359 3.98795 0
M  V30 13393 N 1254.53 -5.84345 3.89211 0
M  V30 13394 H 1259.37 -1.57589 2.52922 0
M  V30 13395 H 1256.91 -0.767883 1.25467 0
M  V30 13396 H 1258.86 -3.86411 1.57296 0
M  V30 13397 H 1257.49 -3.15601 0.677912 0
M  V30 13398 H 1256.55 -2.37774 2.96931 0
M  V30 13399 H 1257.86 -3.28605 3.7526 0
M  V30 13400 H 1257.01 -5.41303 2.74001 0
M  V30 13401 H 1255.75 -4.51155 1.85231 0
M  V30 13402 H 1254.76 -3.74448 4.02578 0
M  V30 13403 H 1255.98 -4.6795 4.92137 0
M  V30 13404 H 1253.93 -5.835 2.99772 0
M  V30 13405 H 1253.84 -5.89938 4.72768 0
M  V30 13406 H 1255.11 -6.75072 3.89741 0
M  V30 13407 N 1259.34 -1.34755 -0.817236 0
M  V30 13408 C 1260.75 -1.24594 -1.39044 0
M  V30 13409 C 1261.1 0.126184 -1.95794 0
M  V30 13410 O 1260.23 1.02675 -1.90491 0
M  V30 13411 C 1260.82 -2.25592 -2.52772 0
M  V30 13412 C 1259.38 -2.19204 -3.05984 0
M  V30 13413 C 1258.53 -2.11884 -1.78886 0
M  V30 13414 H 1261.48 -1.46039 -0.621155 0
M  V30 13415 H 1261.5 -1.87622 -3.31026 0
M  V30 13416 H 1261.01 -3.25447 -2.11438 0
M  V30 13417 H 1259.11 -1.22725 -3.51809 0
M  V30 13418 H 1259.23 -3.10707 -3.64689 0
M  V30 13419 H 1257.59 -1.57694 -2.00012 0
M  V30 13420 H 1258.37 -3.13582 -1.39719 0
M  V30 13421 N 1260.82 1.03812 -1.18578 0
M  V30 13422 C 1261.75 2.13802 -0.938665 0
M  V30 13423 C 1262.73 1.69643 0.124575 0
M  V30 13424 O 1263.92 1.94179 -0.0285421 0
M  V30 13425 C 1261.05 3.44154 -0.466392 0
M  V30 13426 C 1260 4.01949 -1.47041 0
M  V30 13427 C 1259.33 5.27811 -0.855558 0
M  V30 13428 C 1260.63 4.37827 -2.84789 0
M  V30 13429 H 1262.32 2.34732 -1.85852 0
M  V30 13430 H 1259.87 1.12808 -0.895007 0
M  V30 13431 H 1261.82 4.20463 -0.280856 0
M  V30 13432 H 1260.54 3.22918 0.489041 0
M  V30 13433 H 1259.2 3.27725 -1.64293 0
M  V30 13434 H 1258.85 5.02886 0.107142 0
M  V30 13435 H 1258.55 5.67441 -1.52592 0
M  V30 13436 H 1260.07 6.06795 -0.680609 0
M  V30 13437 H 1261.49 5.05112 -2.71173 0
M  V30 13438 H 1259.88 4.88514 -3.48532 0
M  V30 13439 H 1260.95 3.47541 -3.38147 0
M  V30 13440 N 1262.3 0.988223 1.22768 0
M  V30 13441 C 1263.55 0.656941 1.90702 0
M  V30 13442 C 1263.86 -0.814058 1.77855 0
M  V30 13443 O 1265.07 -1.25673 2.40663 0
M  V30 13444 C 1263.52 1.12445 3.41883 0
M  V30 13445 C 1263.13 2.62034 3.63376 0
M  V30 13446 C 1264.87 0.867277 4.15546 0
M  V30 13447 C 1262.78 3.02412 5.08233 0
M  V30 13448 H 1261.71 0.242012 0.714105 0
M  V30 13449 H 1264.36 1.19716 1.39069 0
M  V30 13450 H 1262.74 0.512386 3.92671 0
M  V30 13451 H 1263.92 3.28546 3.23101 0
M  V30 13452 H 1262.23 2.85583 3.03037 0
M  V30 13453 H 1264.83 1.14471 5.22303 0
M  V30 13454 H 1265.17 -0.196611 4.15835 0
M  V30 13455 H 1265.71 1.4413 3.70771 0
M  V30 13456 H 1262.44 4.07957 5.1308 0
M  V30 13457 H 1261.96 2.406 5.49429 0
M  V30 13458 H 1263.64 2.93452 5.76624 0
M  V30 13459 N 1263.78 -1.38018 0.760839 0
M  V30 13460 C 1265.02 -1.99194 0.316984 0
M  V30 13461 C 1265.34 -1.61083 -1.10958 0
M  V30 13462 O 1266.54 -2.15281 -1.65428 0
M  V30 13463 C 1265 -3.56185 0.515792 0
M  V30 13464 C 1264.61 -4.03242 1.95191 0
M  V30 13465 C 1266.35 -4.24285 0.135013 0
M  V30 13466 C 1264.26 -5.52902 2.0989 0
M  V30 13467 H 1263.19 -0.745214 0.114771 0
M  V30 13468 H 1265.84 -1.5769 0.938415 0
M  V30 13469 H 1264.22 -3.95613 -0.174934 0
M  V30 13470 H 1265.4 -3.75086 2.6767 0
M  V30 13471 H 1263.71 -3.47889 2.28827 0
M  V30 13472 H 1266.31 -5.34233 0.223495 0
M  V30 13473 H 1266.65 -4.06158 -0.913322 0
M  V30 13474 H 1267.18 -3.90121 0.777868 0
M  V30 13475 H 1263.92 -5.75942 3.13003 0
M  V30 13476 H 1263.44 -5.82778 1.41881 0
M  V30 13477 H 1265.12 -6.18709 1.89229 0
M  V30 13478 N 1265.25 -0.510493 -1.49103 0
M  V30 13479 C 1266.5 0.0306436 -2.02477 0
M  V30 13480 C 1266.83 1.36113 -1.38937 0
M  V30 13481 O 1266.08 1.88731 -0.517584 0
M  V30 13482 C 1266.38 0.221921 -3.5671 0
M  V30 13483 C 1266.05 -1.03176 -4.38937 0
M  V30 13484 C 1264.71 -1.37539 -4.61125 0
M  V30 13485 C 1267.06 -1.86464 -4.86704 0
M  V30 13486 C 1264.39 -2.55124 -5.28326 0
M  V30 13487 C 1266.74 -3.03211 -5.55199 0
M  V30 13488 C 1265.41 -3.37943 -5.75631 0
M  V30 13489 H 1264.68 0.0112133 -0.740915 0
M  V30 13490 H 1267.32 -0.672574 -1.79301 0
M  V30 13491 H 1265.63 1.00775 -3.78618 0
M  V30 13492 H 1267.33 0.655223 -3.95611 0
M  V30 13493 H 1263.92 -0.754105 -4.21914 0
M  V30 13494 H 1268.1 -1.61229 -4.69381 0
M  V30 13495 H 1263.36 -2.8226 -5.42346 0
M  V30 13496 H 1267.53 -3.68068 -5.91185 0
M  V30 13497 H 1265.16 -4.29158 -6.27477 0
M  V30 13498 N 1266.73 1.55688 -0.24474 0
M  V30 13499 C 1267.96 2.0329 0.384808 0
M  V30 13500 C 1268.37 1.12405 1.51692 0
M  V30 13501 O 1267.73 0.138056 1.81977 0
M  V30 13502 C 1267.78 3.50255 0.894635 0
M  V30 13503 O 1267.5 4.37677 -0.192365 0
M  V30 13504 C 1269 4.13608 1.59509 0
M  V30 13505 H 1266.22 0.664706 0.0916908 0
M  V30 13506 H 1268.77 2.01162 -0.367973 0
M  V30 13507 H 1266.92 3.52924 1.5976 0
M  V30 13508 H 1267.34 5.2414 0.194424 0
M  V30 13509 H 1268.81 5.1814 1.90356 0
M  V30 13510 H 1269.29 3.5997 2.51631 0
M  V30 13511 H 1269.89 4.14856 0.936749 0
M  V30 13512 N 1268.21 -0.0283989 1.57574 0
M  V30 13513 C 1269.62 -0.574912 1.77628 0
M  V30 13514 C 1269.97 -1.75563 0.875903 0
M  V30 13515 O 1269.1 -2.16284 0.0709141 0
M  V30 13516 C 1269.69 -1.04972 3.22128 0
M  V30 13517 C 1268.25 -1.54175 3.43376 0
M  V30 13518 C 1267.4 -0.480127 2.73112 0
M  V30 13519 H 1270.35 0.197826 1.57462 0
M  V30 13520 H 1270.37 -1.91705 3.28678 0
M  V30 13521 H 1269.88 -0.190173 3.87634 0
M  V30 13522 H 1267.98 -2.42313 2.83046 0
M  V30 13523 H 1268.1 -1.58879 4.51989 0
M  V30 13524 H 1266.46 -0.935314 2.36905 0
M  V30 13525 H 1267.24 0.369973 3.41301 0
M  V30 13526 N 1269.69 -1.54705 -0.300681 0
M  V30 13527 C 1270.63 -1.85678 -1.37084 0
M  V30 13528 C 1271.6 -0.70573 -1.50362 0
M  V30 13529 O 1272.79 -0.954385 -1.65215 0
M  V30 13530 C 1269.93 -2.10995 -2.73084 0
M  V30 13531 C 1269.04 -3.38621 -2.68254 0
M  V30 13532 C 1268.18 -3.53779 -3.9625 0
M  V30 13533 C 1267.22 -4.75195 -3.85818 0
M  V30 13534 N 1266.35 -4.87157 -5.05591 0
M  V30 13535 H 1271.19 -2.76967 -1.09971 0
M  V30 13536 H 1268.73 -1.37147 -0.531887 0
M  V30 13537 H 1270.69 -2.23669 -3.52176 0
M  V30 13538 H 1269.32 -1.22973 -2.98458 0
M  V30 13539 H 1268.37 -3.34566 -1.81025 0
M  V30 13540 H 1269.68 -4.27834 -2.56436 0
M  V30 13541 H 1268.84 -3.66119 -4.83779 0
M  V30 13542 H 1267.58 -2.62699 -4.10902 0
M  V30 13543 H 1266.58 -4.62888 -2.96673 0
M  V30 13544 H 1267.81 -5.67683 -3.72711 0
M  V30 13545 H 1265.75 -3.99001 -5.20706 0
M  V30 13546 H 1265.67 -5.70372 -4.96197 0
M  V30 13547 H 1266.94 -5.03854 -5.9477 0
M  V30 13548 N 1271.17 0.563888 -1.47167 0
M  V30 13549 C 1272.39 1.35176 -1.57297 0
M  V30 13550 C 1272.82 1.86794 -0.221235 0
M  V30 13551 O 1272.17 1.62606 0.801809 0
M  V30 13552 C 1272.22 2.50225 -2.59654 0
M  V30 13553 O 1271.33 3.5225 -2.14461 0
M  V30 13554 H 1270.67 0.401795 -0.528637 0
M  V30 13555 H 1273.2 0.682137 -1.92894 0
M  V30 13556 H 1273.21 2.96886 -2.79862 0
M  V30 13557 H 1271.88 2.1201 -3.57805 0
M  V30 13558 H 1270.46 3.1194 -2.04323 0
M  V30 13559 N 1272.64 1.35187 0.810078 0
M  V30 13560 C 1273.57 1.30481 1.93641 0
M  V30 13561 C 1274.56 0.179875 1.69146 0
M  V30 13562 O 1275.74 0.374284 1.90559 0
M  V30 13563 C 1272.87 1.07251 3.30325 0
M  V30 13564 C 1271.82 2.16348 3.69293 0
M  V30 13565 C 1271.15 1.78288 5.04101 0
M  V30 13566 C 1272.45 3.58285 3.80038 0
M  V30 13567 H 1274.14 2.24725 1.97836 0
M  V30 13568 H 1271.69 1.08179 0.950436 0
M  V30 13569 H 1273.64 1.02599 4.08719 0
M  V30 13570 H 1272.37 0.0945203 3.26463 0
M  V30 13571 H 1271.03 2.2009 2.93182 0
M  V30 13572 H 1270.67 0.791163 4.96739 0
M  V30 13573 H 1270.37 2.51315 5.31144 0
M  V30 13574 H 1271.9 1.75155 5.84938 0
M  V30 13575 H 1273.31 3.56884 4.48672 0
M  V30 13576 H 1271.71 4.30044 4.18548 0
M  V30 13577 H 1272.78 3.94691 2.81685 0
M  V30 13578 N 1274.12 -1.03182 1.19127 0
M  V30 13579 C 1275.05 -2.13301 0.94999 0
M  V30 13580 C 1276.03 -1.69707 -0.115577 0
M  V30 13581 O 1277.22 -1.94161 0.0388395 0
M  V30 13582 C 1274.35 -3.43902 0.484637 0
M  V30 13583 C 1273.3 -4.01164 1.4917 0
M  V30 13584 C 1272.63 -5.2735 0.883537 0
M  V30 13585 C 1273.93 -4.36311 2.87107 0
M  V30 13586 H 1275.62 -2.33743 1.87095 0
M  V30 13587 H 1273.17 -1.12332 0.900977 0
M  V30 13588 H 1275.12 -4.20308 0.30315 0
M  V30 13589 H 1273.85 -3.23173 -0.471909 0
M  V30 13590 H 1272.5 -3.26849 1.66028 0
M  V30 13591 H 1272.15 -5.02936 -0.0804712 0
M  V30 13592 H 1271.85 -5.66624 1.55599 0
M  V30 13593 H 1273.38 -6.06425 0.71278 0
M  V30 13594 H 1274.79 -5.03666 2.73848 0
M  V30 13595 H 1273.19 -4.86659 3.51117 0
M  V30 13596 H 1274.26 -3.45743 3.39985 0
M  V30 13597 N 1275.6 -0.99472 -1.22242 0
M  V30 13598 C 1277.02 -0.705762 -1.43147 0
M  V30 13599 C 1277.22 0.722908 -1.88086 0
M  V30 13600 O 1276.27 1.49359 -2.03588 0
M  V30 13601 C 1277.59 -1.71288 -2.47145 0
M  V30 13602 C 1279.13 -1.72853 -2.60942 0
M  V30 13603 C 1279.61 -2.72433 -3.68163 0
M  V30 13604 N 1281.1 -2.71039 -3.75623 0
M  V30 13605 C 1281.83 -3.44753 -4.58184 0
M  V30 13606 N 1281.33 -4.28075 -5.44724 0
M  V30 13607 N 1283.12 -3.33451 -4.52512 0
M  V30 13608 H 1275.27 -1.91738 -0.913792 0
M  V30 13609 H 1277.54 -0.82702 -0.463403 0
M  V30 13610 H 1277.24 -2.7353 -2.21075 0
M  V30 13611 H 1277.12 -1.50721 -3.45779 0
M  V30 13612 H 1279.5 -0.713085 -2.86355 0
M  V30 13613 H 1279.59 -1.9749 -1.62577 0
M  V30 13614 H 1279.23 -3.74129 -3.43497 0
M  V30 13615 H 1279.16 -2.45066 -4.66101 0
M  V30 13616 H 1281.65 -2.10581 -3.1379 0
M  V30 13617 H 1281.96 -4.81143 -6.04749 0
M  V30 13618 H 1280.31 -4.32161 -5.44299 0
M  V30 13619 H 1283.5 -2.67797 -3.8393 0
M  V30 13620 H 1283.67 -3.91158 -5.16623 0
M  V30 13621 N 1277.08 1.37613 -0.768148 0
M  V30 13622 C 1278.03 2.27654 -0.125596 0
M  V30 13623 C 1279.01 1.45923 0.677883 0
M  V30 13624 O 1280.2 1.68515 0.541448 0
M  V30 13625 C 1277.33 3.34884 0.7555 0
M  V30 13626 C 1276.42 4.24064 -0.0556137 0
M  V30 13627 N 1276.81 4.93707 -1.09943 0
M  V30 13628 C 1275.11 4.4568 0.168932 0
M  V30 13629 C 1275.81 5.59508 -1.59142 0
M  V30 13630 N 1274.79 5.36027 -0.904208 0
M  V30 13631 H 1278.59 2.7897 -0.924828 0
M  V30 13632 H 1276.1 1.50687 -0.605561 0
M  V30 13633 H 1278.1 3.98294 1.23157 0
M  V30 13634 H 1276.76 2.85124 1.55352 0
M  V30 13635 H 1277.77 4.96258 -1.48151 0
M  V30 13636 H 1274.45 4.068 0.939144 0
M  V30 13637 H 1275.84 6.2518 -2.4617 0
M  V30 13638 N 1278.56 0.518393 1.4883 0
M  V30 13639 C 1279.97 0.0749773 1.86549 0
M  V30 13640 C 1280.32 -1.34429 1.4291 0
M  V30 13641 O 1279.44 -2.00481 0.814648 0
M  V30 13642 C 1280.04 0.129289 3.38553 0
M  V30 13643 C 1278.6 -0.258871 3.75509 0
M  V30 13644 C 1277.74 0.494185 2.72861 0
M  V30 13645 H 1280.7 0.730266 1.409 0
M  V30 13646 H 1280.72 -0.661844 3.747 0
M  V30 13647 H 1280.23 1.16237 3.70285 0
M  V30 13648 H 1278.33 -1.29453 3.49389 0
M  V30 13649 H 1278.44 0.0726769 4.79045 0
M  V30 13650 H 1276.81 -0.0581428 2.54634 0
M  V30 13651 H 1277.59 1.52767 3.07436 0
M  V30 13652 N 1280.03 -1.55556 0.252993 0
M  V30 13653 C 1280.94 -2.25283 -0.654581 0
M  V30 13654 C 1281.96 -1.27103 -1.18831 0
M  V30 13655 O 1283.14 -1.59993 -1.22329 0
M  V30 13656 C 1280.2 -2.94336 -1.83214 0
M  V30 13657 C 1279.26 -4.0794 -1.33728 0
M  V30 13658 C 1278.5 -4.73691 -2.45871 0
M  V30 13659 O 1278.72 -4.38545 -3.64738 0
M  V30 13660 O 1277.65 -5.62083 -2.15283 0
M  V30 13661 H 1281.48 -3.03565 -0.0904091 0
M  V30 13662 H 1279.06 -1.49385 0.0212535 0
M  V30 13663 H 1280.95 -3.37808 -2.5192 0
M  V30 13664 H 1279.62 -2.18989 -2.38381 0
M  V30 13665 H 1278.53 -3.68971 -0.617323 0
M  V30 13666 H 1279.86 -4.85124 -0.831617 0
M  V30 13667 N 1281.51 0.0200419 -1.57587 0
M  V30 13668 C 1282.48 1.00255 -2.06111 0
M  V30 13669 C 1283.48 1.28488 -0.966829 0
M  V30 13670 O 1284.67 1.2334 -1.23015 0
M  V30 13671 C 1281.8 2.33296 -2.48567 0
M  V30 13672 H 1282.99 0.583216 -2.94174 0
M  V30 13673 H 1280.54 0.267077 -1.54001 0
M  V30 13674 H 1281.28 2.79959 -1.63687 0
M  V30 13675 H 1281.06 2.14131 -3.28467 0
M  V30 13676 H 1282.55 3.03817 -2.86505 0
M  V30 13677 N 1282.99 1.54862 0.292472 0
M  V30 13678 C 1284.41 1.46267 0.638611 0
M  V30 13679 C 1284.61 0.660824 1.90356 0
M  V30 13680 O 1283.66 0.171909 2.51914 0
M  V30 13681 C 1284.98 2.90309 0.783675 0
M  V30 13682 C 1286.52 3.00404 0.879004 0
M  V30 13683 C 1287 4.4566 1.056 0
M  V30 13684 N 1288.49 4.49406 1.122 0
M  V30 13685 C 1289.22 5.5899 1.2774 0
M  V30 13686 N 1288.72 6.78482 1.40123 0
M  V30 13687 N 1290.51 5.46695 1.30696 0
M  V30 13688 H 1282.66 2.0546 -0.538521 0
M  V30 13689 H 1284.93 0.930879 -0.179354 0
M  V30 13690 H 1284.63 3.5162 -0.0750437 0
M  V30 13691 H 1284.51 3.38215 1.67004 0
M  V30 13692 H 1286.89 2.39201 1.7282 0
M  V30 13693 H 1286.98 2.55781 -0.0315624 0
M  V30 13694 H 1286.62 5.07459 0.211535 0
M  V30 13695 H 1286.55 4.87921 1.98092 0
M  V30 13696 H 1289.04 3.63322 1.03948 0
M  V30 13697 H 1289.35 7.57752 1.5176 0
M  V30 13698 H 1287.7 6.81331 1.37163 0
M  V30 13699 H 1290.89 4.52288 1.20638 0
M  V30 13700 H 1291.06 6.32146 1.42463 0
M  V30 13701 N 1284.47 -0.556076 1.47464 0
M  V30 13702 C 1285.69 -1.3434 1.58011 0
M  V30 13703 C 1286.12 -1.86674 0.231138 0
M  V30 13704 O 1285.48 -1.63029 -0.793174 0
M  V30 13705 C 1285.52 -2.48844 2.60977 0
M  V30 13706 O 1284.63 -3.51108 2.16326 0
M  V30 13707 H 1283.97 -0.398986 0.53076 0
M  V30 13708 H 1286.5 -0.671898 1.93253 0
M  V30 13709 H 1286.51 -2.95398 2.81432 0
M  V30 13710 H 1285.18 -2.10109 3.58925 0
M  V30 13711 H 1283.76 -3.10852 2.05975 0
M  V30 13712 N 1285.95 -1.35615 -0.802897 0
M  V30 13713 C 1287.17 -1.32377 -1.59659 0
M  V30 13714 C 1287.6 0.0954235 -1.87858 0
M  V30 13715 O 1286.96 1.06336 -1.46842 0
M  V30 13716 C 1287 -2.13972 -2.90256 0
M  V30 13717 O 1286.11 -1.52296 -3.83249 0
M  V30 13718 H 1285.45 -0.453699 -0.484823 0
M  V30 13719 H 1287.98 -1.78708 -0.996217 0
M  V30 13720 H 1287.99 -2.26061 -3.39647 0
M  V30 13721 H 1286.66 -3.17145 -2.69057 0
M  V30 13722 H 1285.24 -1.49068 -3.41809 0
M  V30 13723 N 1287.43 1.02549 -1.19673 0
M  V30 13724 C 1288.67 1.76004 -1.00144 0
M  V30 13725 C 1289 1.888 0.467423 0
M  V30 13726 O 1288.26 1.404 1.36331 0
M  V30 13727 C 1288.55 3.18597 -1.61959 0
M  V30 13728 C 1288.22 3.258 -3.11713 0
M  V30 13729 C 1286.88 3.27473 -3.52583 0
M  V30 13730 C 1289.23 3.24675 -4.0772 0
M  V30 13731 C 1286.56 3.25681 -4.88005 0
M  V30 13732 C 1288.91 3.24424 -5.43076 0
M  V30 13733 C 1287.58 3.24396 -5.83372 0
M  V30 13734 H 1286.85 0.644044 -0.366453 0
M  V30 13735 H 1289.5 1.20338 -1.48966 0
M  V30 13736 H 1287.8 3.77364 -1.05375 0
M  V30 13737 H 1289.5 3.74109 -1.44374 0
M  V30 13738 H 1286.09 3.25228 -2.7915 0
M  V30 13739 H 1290.27 3.2256 -3.77185 0
M  V30 13740 H 1285.53 3.23986 -5.18501 0
M  V30 13741 H 1289.7 3.22504 -6.17223 0
M  V30 13742 H 1287.33 3.22762 -6.8828 0
M  V30 13743 N 1288.9 1.00119 1.21713 0
M  V30 13744 C 1290.18 0.597366 1.86255 0
M  V30 13745 C 1290.56 -0.925124 1.89749 0
M  V30 13746 O 1289.91 -1.8105 1.39402 0
M  V30 13747 C 1290.12 1.22735 3.26707 0
M  V30 13748 C 1291.47 1.33307 4.03131 0
M  V30 13749 O 1292.49 1.18237 3.36003 0
M  V30 13750 O 1291.35 1.57509 5.2331 0
M  V30 13751 H 1288.44 0.204091 0.801421 0
M  V30 13752 H 1290.99 1.09759 1.29426 0
M  V30 13753 H 1289.76 2.26837 3.18843 0
M  V30 13754 H 1289.38 0.713232 3.91151 0
M  V30 13755 N 1290.38 -1.37203 0.775435 0
M  V30 13756 C 1291.29 -2.34019 0.165062 0
M  V30 13757 C 1292.31 -1.6036 -0.675316 0
M  V30 13758 O 1293.48 -1.9243 -0.594375 0
M  V30 13759 C 1290.55 -3.3954 -0.700957 0
M  V30 13760 C 1289.61 -4.29015 0.156304 0
M  V30 13761 C 1288.84 -5.29497 -0.668476 0
M  V30 13762 O 1289.07 -5.37636 -1.90535 0
M  V30 13763 O 1288 -6.01852 -0.0757351 0
M  V30 13764 H 1291.83 -2.87955 0.965184 0
M  V30 13765 H 1289.41 -1.39429 0.536654 0
M  V30 13766 H 1291.29 -4.04094 -1.19524 0
M  V30 13767 H 1289.97 -2.87926 -1.4792 0
M  V30 13768 H 1288.87 -3.67549 0.69703 0
M  V30 13769 H 1290.21 -4.83944 0.897725 0
M  V30 13770 N 1291.86 -0.526279 -1.48553 0
M  V30 13771 C 1292.79 0.2857 -2.26404 0
M  V30 13772 C 1293.77 0.948104 -1.32098 0
M  V30 13773 O 1294.95 0.973228 -1.61433 0
M  V30 13774 C 1292.08 1.40432 -3.08215 0
M  V30 13775 C 1291.13 0.853705 -4.17869 0
M  V30 13776 S 1291.96 -0.275518 -5.34791 0
M  V30 13777 C 1293.12 0.845667 -6.20161 0
M  V30 13778 H 1293.35 -0.375004 -2.94925 0
M  V30 13779 H 1290.88 -0.311999 -1.51215 0
M  V30 13780 H 1292.84 2.04513 -3.55928 0
M  V30 13781 H 1291.5 2.03673 -2.39115 0
M  V30 13782 H 1290.69 1.69278 -4.74722 0
M  V30 13783 H 1290.3 0.289659 -3.72877 0
M  V30 13784 H 1292.59 1.74517 -6.54637 0
M  V30 13785 H 1293.53 0.315189 -7.07398 0
M  V30 13786 H 1293.94 1.1244 -5.53188 0
M  V30 13787 N 1293.34 1.5542 -0.261239 0
M  V30 13788 C 1294.27 2.24949 0.626126 0
M  V30 13789 C 1295.25 1.23474 1.16997 0
M  V30 13790 O 1296.43 1.52161 1.20667 0
M  V30 13791 C 1293.56 2.95996 1.81669 0
M  V30 13792 C 1292.52 4.04282 1.40499 0
M  V30 13793 C 1291.84 4.62831 2.67753 0
M  V30 13794 C 1293.14 5.1923 0.56543 0
M  V30 13795 H 1294.84 2.99364 0.0463164 0
M  V30 13796 H 1292.38 1.43985 0.0208366 0
M  V30 13797 H 1294.34 3.43343 2.44323 0
M  V30 13798 H 1293.06 2.19093 2.42211 0
M  V30 13799 H 1291.72 3.57726 0.801712 0
M  V30 13800 H 1291.37 3.82611 3.26524 0
M  V30 13801 H 1291.07 5.35938 2.40925 0
M  V30 13802 H 1292.59 5.12918 3.31281 0
M  V30 13803 H 1294.01 5.62714 1.09663 0
M  V30 13804 H 1292.4 5.98814 0.392607 0
M  V30 13805 H 1293.47 4.83086 -0.419059 0
M  V30 13806 N 1294.82 -0.0116844 1.57596 0
M  V30 13807 C 1296.23 -0.55604 1.78228 0
M  V30 13808 C 1296.58 -1.74624 0.894474 0
M  V30 13809 O 1295.7 -2.16196 0.0938498 0
M  V30 13810 C 1296.3 -1.0155 3.23223 0
M  V30 13811 C 1294.86 -1.50525 3.44992 0
M  V30 13812 C 1294 -0.451133 2.73606 0
M  V30 13813 H 1296.95 0.214516 1.57243 0
M  V30 13814 H 1296.98 -1.88208 3.30693 0
M  V30 13815 H 1296.49 -0.149048 3.87814 0
M  V30 13816 H 1294.59 -2.39298 2.856 0
M  V30 13817 H 1294.7 -1.54076 4.53649 0
M  V30 13818 H 1293.07 -0.910135 2.37884 0
M  V30 13819 H 1293.85 0.406152 3.40889 0
M  V30 13820 N 1296.29 -1.55015 -0.284256 0
M  V30 13821 C 1297.54 -1.74744 -1.01532 0
M  V30 13822 C 1297.86 -0.545334 -1.87219 0
M  V30 13823 O 1297.13 0.440046 -1.90894 0
M  V30 13824 H 1295.71 -0.644382 -0.377864 0
M  V30 13825 H 1298.37 -1.92399 -0.311199 0
M  V30 13826 H 1297.47 -2.64369 -1.65878 0
M  V30 13827 N 1297.77 0.548248 -1.47757 0
M  V30 13828 C 1299 1.3302 -1.58472 0
M  V30 13829 C 1299.41 1.87292 -0.238186 0
M  V30 13830 O 1298.77 1.65465 0.76991 0
M  V30 13831 C 1298.82 2.49386 -2.61704 0
M  V30 13832 O 1298.54 1.97355 -3.9113 0
M  V30 13833 C 1300.04 3.41471 -2.82688 0
M  V30 13834 H 1297.26 0.405172 -0.534861 0
M  V30 13835 H 1299.81 0.663251 -1.93446 0
M  V30 13836 H 1297.96 3.12001 -2.29639 0
M  V30 13837 H 1298.38 2.7339 -4.47614 0
M  V30 13838 H 1299.85 4.19516 -3.58762 0
M  V30 13839 H 1300.33 3.95573 -1.90837 0
M  V30 13840 H 1300.93 2.84664 -3.15985 0
M  V30 13841 N 1299.25 1.36039 0.795694 0
M  V30 13842 C 1300.2 1.26386 1.89765 0
M  V30 13843 C 1301.18 0.156711 1.60135 0
M  V30 13844 O 1302.38 0.388946 1.72674 0
M  V30 13845 C 1299.5 1.04907 3.26878 0
M  V30 13846 C 1298.59 2.20061 3.62538 0
M  V30 13847 N 1298.98 3.45347 3.69553 0
M  V30 13848 C 1297.28 2.11688 3.92561 0
M  V30 13849 C 1297.98 4.21138 4.0127 0
M  V30 13850 N 1296.96 3.5001 4.15925 0
M  V30 13851 H 1300.76 2.21295 1.93405 0
M  V30 13852 H 1298.27 1.28668 0.990877 0
M  V30 13853 H 1300.27 0.960791 4.05678 0
M  V30 13854 H 1298.93 0.108921 3.24517 0
M  V30 13855 H 1299.94 3.79561 3.52355 0
M  V30 13856 H 1296.62 1.25592 3.98162 0
M  V30 13857 H 1298.01 5.29456 4.13673 0
M  V30 13858 N 1300.73 -1.01913 1.20215 0
M  V30 13859 C 1301.98 -1.7547 1.01076 0
M  V30 13860 C 1302.3 -1.89045 -0.457404 0
M  V30 13861 O 1301.56 -1.41121 -1.35585 0
M  V30 13862 C 1301.86 -3.17734 1.63646 0
M  V30 13863 C 1301.52 -3.24143 3.13436 0
M  V30 13864 C 1300.19 -3.25599 3.54315 0
M  V30 13865 C 1302.54 -3.22508 4.09436 0
M  V30 13866 C 1299.87 -3.23089 4.89725 0
M  V30 13867 C 1302.22 -3.21539 5.44789 0
M  V30 13868 C 1300.88 -3.21298 5.85085 0
M  V30 13869 H 1300.15 -0.642092 0.369864 0
M  V30 13870 H 1302.8 -1.19547 1.49602 0
M  V30 13871 H 1301.1 -3.76799 1.07375 0
M  V30 13872 H 1302.8 -3.73338 1.46356 0
M  V30 13873 H 1299.39 -3.23743 2.80871 0
M  V30 13874 H 1303.57 -3.20555 3.7889 0
M  V30 13875 H 1298.83 -3.21231 5.20212 0
M  V30 13876 H 1303 -3.19226 6.18924 0
M  V30 13877 H 1300.63 -3.19107 6.89982 0
M  V30 13878 N 1302.21 -1.00763 -1.2118 0
M  V30 13879 C 1303.14 -0.528468 -2.23024 0
M  V30 13880 C 1304.15 0.384348 -1.58198 0
M  V30 13881 O 1305.34 0.184127 -1.77548 0
M  V30 13882 C 1302.44 0.251693 -3.37964 0
M  V30 13883 C 1301.61 -0.660838 -4.32379 0
M  V30 13884 C 1300.67 0.0701723 -5.26153 0
M  V30 13885 O 1299.7 -0.549355 -5.66543 0
M  V30 13886 N 1300.9 1.34791 -5.64634 0
M  V30 13887 H 1303.67 -1.40428 -2.64764 0
M  V30 13888 H 1301.23 -0.884085 -1.3563 0
M  V30 13889 H 1303.22 0.749746 -3.97694 0
M  V30 13890 H 1301.79 1.02872 -2.95188 0
M  V30 13891 H 1301.01 -1.33934 -3.7075 0
M  V30 13892 H 1302.3 -1.28177 -4.9239 0
M  V30 13893 H 1301.69 1.87232 -5.33817 0
M  V30 13894 H 1300.25 1.79086 -6.26715 0
M  V30 13895 N 1303.68 1.3679 -0.7827 0
M  V30 13896 C 1305.1 1.52719 -0.463594 0
M  V30 13897 C 1305.3 1.73827 1.01914 0
M  V30 13898 O 1304.36 1.76591 1.80477 0
M  V30 13899 C 1305.67 2.71709 -1.2882 0
M  V30 13900 C 1307.22 2.85577 -1.2812 0
M  V30 13901 C 1307.69 4.07564 -2.0894 0
M  V30 13902 N 1309.18 4.14697 -2.0635 0
M  V30 13903 C 1309.92 5.08147 -2.65659 0
M  V30 13904 N 1309.41 6.07083 -3.33799 0
M  V30 13905 N 1311.21 5.00712 -2.55429 0
M  V30 13906 H 1303.36 1.21342 -1.74327 0
M  V30 13907 H 1305.62 0.591719 -0.740657 0
M  V30 13908 H 1305.33 2.62612 -2.3394 0
M  V30 13909 H 1305.2 3.65686 -0.924873 0
M  V30 13910 H 1307.59 2.94139 -0.237947 0
M  V30 13911 H 1307.67 1.92528 -1.68424 0
M  V30 13912 H 1307.31 3.99763 -3.13293 0
M  V30 13913 H 1307.24 4.99748 -1.66011 0
M  V30 13914 H 1309.73 3.43856 -1.56752 0
M  V30 13915 H 1310.05 6.74939 -3.764 0
M  V30 13916 H 1308.39 6.07329 -3.379 0
M  V30 13917 H 1311.58 4.22367 -2.01802 0
M  V30 13918 H 1311.76 5.73354 -3.01943 0
M  V30 13919 N 1305.16 0.53415 1.48272 0
M  V30 13920 C 1306.41 0.00157492 2.028 0
M  V30 13921 C 1306.74 -1.33538 1.41001 0
M  V30 13922 O 1306.02 -1.86347 0.557245 0
M  V30 13923 C 1306.3 -0.116016 3.59913 0
M  V30 13924 C 1306.15 1.2464 4.32186 0
M  V30 13925 C 1307.47 -0.840775 4.31994 0
M  V30 13926 H 1304.59 0.00204634 0.736997 0
M  V30 13927 H 1307.23 0.691985 1.76951 0
M  V30 13928 H 1305.38 -0.704027 3.82068 0
M  V30 13929 H 1307.05 1.87584 4.21438 0
M  V30 13930 H 1305.3 1.8272 3.93441 0
M  V30 13931 H 1305.97 1.11708 5.40579 0
M  V30 13932 H 1308.44 -0.341746 4.14694 0
M  V30 13933 H 1307.32 -0.89196 5.41604 0
M  V30 13934 H 1307.58 -1.89197 3.99571 0
M  V30 13935 N 1306.64 -1.55279 0.269478 0
M  V30 13936 C 1307.89 -1.98649 -0.349522 0
M  V30 13937 C 1308.2 -1.16125 -1.57399 0
M  V30 13938 O 1309.41 -1.49612 -2.26558 0
M  V30 13939 C 1307.86 -3.53547 -0.673224 0
M  V30 13940 C 1307.47 -4.44841 0.531119 0
M  V30 13941 C 1309.22 -4.05519 -1.25516 0
M  V30 13942 C 1307.12 -5.91119 0.182317 0
M  V30 13943 H 1306.05 -0.74193 -0.13437 0
M  V30 13944 H 1308.7 -1.79664 0.373246 0
M  V30 13945 H 1307.09 -3.68311 -1.45474 0
M  V30 13946 H 1308.26 -4.41843 1.3081 0
M  V30 13947 H 1306.58 -4.03472 1.02952 0
M  V30 13948 H 1309.17 -5.12347 -1.52984 0
M  V30 13949 H 1309.52 -3.54215 -2.18718 0
M  V30 13950 H 1310.05 -3.94172 -0.536059 0
M  V30 13951 H 1306.79 -6.46507 1.08206 0
M  V30 13952 H 1306.31 -5.97199 -0.558008 0
M  V30 13953 H 1307.99 -6.466 -0.227484 0
M  V30 13954 N 1308.12 0.00332656 -1.576 0
M  V30 13955 C 1309.53 0.546581 -1.7852 0
M  V30 13956 C 1309.88 1.74147 -0.903722 0
M  V30 13957 O 1309.01 2.16144 -0.105314 0
M  V30 13958 C 1309.6 0.998344 -3.23757 0
M  V30 13959 C 1308.16 1.48693 -3.45785 0
M  V30 13960 C 1307.31 0.436617 -2.73841 0
M  V30 13961 H 1310.26 -0.222852 -1.57128 0
M  V30 13962 H 1310.28 1.86452 -3.31686 0
M  V30 13963 H 1309.79 0.128479 -3.87887 0
M  V30 13964 H 1307.89 2.3778 -2.86865 0
M  V30 13965 H 1308 1.51668 -4.5446 0
M  V30 13966 H 1306.37 0.897506 -2.38363 0
M  V30 13967 H 1307.15 -0.424225 -3.40669 0
M  V30 13968 N 1309.6 1.55164 0.276031 0
M  V30 13969 C 1310.51 1.90928 1.36321 0
M  V30 13970 C 1311.52 0.806183 1.54197 0
M  V30 13971 O 1312.7 1.10497 1.68382 0
M  V30 13972 C 1309.76 2.17123 2.70293 0
M  V30 13973 C 1308.82 3.40703 2.6119 0
M  V30 13974 C 1308.06 3.65638 3.88773 0
M  V30 13975 O 1308.28 2.93137 4.89313 0
M  V30 13976 O 1307.21 4.59172 3.89159 0
M  V30 13977 H 1311.04 2.8347 1.08988 0
M  V30 13978 H 1308.63 1.41672 0.474292 0
M  V30 13979 H 1310.51 2.3541 3.49514 0
M  V30 13980 H 1309.18 1.27765 2.97419 0
M  V30 13981 H 1308.09 3.27754 1.80355 0
M  V30 13982 H 1309.42 4.30271 2.39014 0
M  V30 13983 N 1311.07 -0.540404 1.48045 0
M  V30 13984 C 1312.35 -1.30148 1.46017 0
M  V30 13985 C 1312.73 -2.10445 0.166171 0
M  V30 13986 O 1312.08 -2.12013 -0.852223 0
M  V30 13987 C 1312.29 -2.19177 2.71593 0
M  V30 13988 C 1313.64 -2.79655 3.19497 0
M  V30 13989 O 1314.66 -2.2947 2.72437 0
M  V30 13990 O 1313.52 -3.70912 4.01356 0
M  V30 13991 H 1310.61 -0.586879 0.582668 0
M  V30 13992 H 1313.16 -0.557918 1.60267 0
M  V30 13993 H 1311.93 -1.59556 3.57292 0
M  V30 13994 H 1311.56 -3.00798 2.60012 0
M  V30 13995 N 1312.55 -1.36459 -0.788468 0
M  V30 13996 C 1313.8 -1.30483 -1.54333 0
M  V30 13997 C 1314.12 0.115266 -1.94659 0
M  V30 13998 O 1313.39 1.05573 -1.65019 0
M  V30 13999 H 1311.97 -0.480004 -0.572368 0
M  V30 14000 H 1314.63 -1.70765 -0.939428 0
M  V30 14001 H 1313.73 -1.93284 -2.45046 0
M  V30 14002 N 1314.03 1.01274 -1.20754 0
M  V30 14003 C 1315.44 1.56381 -1.0199 0
M  V30 14004 C 1315.79 1.91595 0.422591 0
M  V30 14005 O 1314.92 1.72653 1.3046 0
M  V30 14006 C 1315.51 2.8415 -1.8451 0
M  V30 14007 C 1314.07 3.35772 -1.70101 0
M  V30 14008 C 1313.22 2.0904 -1.82202 0
M  V30 14009 H 1316.17 0.836105 -1.34889 0
M  V30 14010 H 1316.19 3.55717 -1.35076 0
M  V30 14011 H 1315.7 2.5849 -2.8949 0
M  V30 14012 H 1313.8 3.66384 -0.677732 0
M  V30 14013 H 1313.92 4.07714 -2.51607 0
M  V30 14014 H 1312.28 2.21675 -1.25429 0
M  V30 14015 H 1313.06 1.858 -2.88675 0
M  V30 14016 N 1315.51 1.01404 1.20644 0
M  V30 14017 C 1316.47 0.586941 2.21557 0
M  V30 14018 C 1317.47 -0.341543 1.57131 0
M  V30 14019 O 1318.66 -0.130585 1.7371 0
M  V30 14020 C 1315.79 -0.143248 3.40599 0
M  V30 14021 H 1316.99 1.47964 2.60858 0
M  V30 14022 H 1314.54 0.803551 1.34063 0
M  V30 14023 H 1315.28 -1.05097 3.06798 0
M  V30 14024 H 1315.06 0.523716 3.88587 0
M  V30 14025 H 1316.55 -0.429504 4.15385 0
M  V30 14026 N 1316.99 -1.36373 0.789944 0
M  V30 14027 C 1317.95 -2.28372 0.194639 0
M  V30 14028 C 1318.95 -1.48849 -0.608332 0
M  V30 14029 O 1320.14 -1.68829 -0.42925 0
M  V30 14030 C 1317.27 -3.3298 -0.730553 0
M  V30 14031 H 1318.47 -2.82529 1.00585 0
M  V30 14032 H 1316.02 -1.45946 0.559406 0
M  V30 14033 H 1316.75 -2.8398 -1.56608 0
M  V30 14034 H 1316.54 -3.91787 -0.156706 0
M  V30 14035 H 1318.03 -4.01684 -1.14192 0
M  V30 14036 N 1318.47 -0.542005 -1.47987 0
M  V30 14037 C 1319.4 0.25143 -2.27817 0
M  V30 14038 C 1320.41 0.893436 -1.36094 0
M  V30 14039 O 1321.6 0.769849 -1.61045 0
M  V30 14040 C 1318.7 1.37236 -3.0987 0
M  V30 14041 C 1317.87 0.830021 -4.29452 0
M  V30 14042 C 1316.93 1.83356 -4.93221 0
M  V30 14043 O 1315.96 1.38571 -5.52075 0
M  V30 14044 N 1317.16 3.16631 -4.86544 0
M  V30 14045 H 1319.92 -0.433281 -2.96551 0
M  V30 14046 H 1317.49 -0.377099 -1.57447 0
M  V30 14047 H 1319.48 2.04212 -3.49399 0
M  V30 14048 H 1318.05 1.96055 -2.43478 0
M  V30 14049 H 1317.27 -0.0160827 -3.94197 0
M  V30 14050 H 1318.56 0.446762 -5.06835 0
M  V30 14051 H 1317.95 3.55673 -4.39901 0
M  V30 14052 H 1316.51 3.79207 -5.30137 0
M  V30 14053 N 1319.94 1.55134 -0.277709 0
M  V30 14054 C 1320.89 2.24057 0.624594 0
M  V30 14055 C 1321.89 1.23848 1.15577 0
M  V30 14056 O 1323.09 1.41771 1.1091 0
M  V30 14057 H 1319.47 0.719106 0.219977 0
M  V30 14058 H 1321.44 2.98393 0.0204815 0
M  V30 14059 C 1320.19 2.97712 1.79618 0
M  V30 14060 H 1319.51 3.74611 1.39665 0
M  V30 14061 H 1320.95 3.49255 2.4041 0
M  V30 14062 C 1319.41 2.03332 2.68622 0
M  V30 14063 O 1319.94 1.58622 3.69056 0
M  V30 14064 N 1318.14 1.69778 2.35847 0
M  V30 14065 H 1317.69 2.06333 1.54222 0
M  V30 14066 H 1317.65 1.06901 2.95668 0
M  V30 14067 N 1321.42 0.00503138 1.57599 0
M  V30 14068 C 1322.83 -0.537106 1.78807 0
M  V30 14069 C 1323.18 -1.73666 0.912945 0
M  V30 14070 O 1322.31 -2.16085 0.116775 0
M  V30 14071 C 1322.9 -0.98116 3.24282 0
M  V30 14072 C 1321.46 -1.46857 3.46569 0
M  V30 14073 C 1320.61 -0.422088 2.74069 0
M  V30 14074 H 1323.56 0.231182 1.57007 0
M  V30 14075 H 1323.58 -1.8469 3.32671 0
M  V30 14076 H 1323.09 -0.107907 3.8795 0
M  V30 14077 H 1321.19 -2.36255 2.88122 0
M  V30 14078 H 1321.31 -1.49256 4.55258 0
M  V30 14079 H 1319.67 -0.884853 2.38836 0
M  V30 14080 H 1320.45 0.442285 3.40439 0
M  V30 14081 N 1322.9 -1.55308 -0.267798 0
M  V30 14082 C 1323.81 -1.91649 -1.35307 0
M  V30 14083 C 1324.83 -0.814349 -1.53767 0
M  V30 14084 O 1326 -1.11388 -1.67793 0
M  V30 14085 C 1323.07 -2.18553 -2.69138 0
M  V30 14086 C 1322.13 -3.42083 -2.5938 0
M  V30 14087 C 1321.36 -3.67695 -3.86828 0
M  V30 14088 O 1321.58 -2.95728 -4.87751 0
M  V30 14089 O 1320.52 -4.61229 -3.86718 0
M  V30 14090 H 1324.34 -2.84044 -1.07483 0
M  V30 14091 H 1321.93 -1.41921 -0.466772 0
M  V30 14092 H 1323.81 -2.3726 -3.48261 0
M  V30 14093 H 1322.49 -1.2934 -2.96737 0
M  V30 14094 H 1321.39 -3.28706 -1.78614 0
M  V30 14095 H 1322.73 -4.31532 -2.36729 0
M  V30 14096 N 1324.38 0.532545 -1.4833 0
M  V30 14097 C 1325.33 1.65832 -1.63103 0
M  V30 14098 C 1326.32 1.61929 -0.497538 0
M  V30 14099 O 1327.53 1.66817 -0.676176 0
M  V30 14100 H 1323.9 0.549152 -0.513748 0
M  V30 14101 H 1325.87 1.50515 -2.57658 0
M  V30 14102 C 1324.62 3.04113 -1.68555 0
M  V30 14103 H 1323.94 3.07809 -2.55135 0
M  V30 14104 H 1325.38 3.82506 -1.82936 0
M  V30 14105 C 1323.84 3.34225 -0.423711 0
M  V30 14106 O 1324.37 3.99005 0.464523 0
M  V30 14107 N 1322.58 2.89087 -0.296192 0
M  V30 14108 H 1322.13 2.36547 -1.01997 0
M  V30 14109 H 1322.08 3.09604 0.547082 0
M  V30 14110 N 1325.86 1.36875 0.78122 0
M  V30 14111 C 1327.1 1.31754 1.54171 0
M  V30 14112 C 1327.43 -0.100632 1.93939 0
M  V30 14113 O 1326.71 -1.05587 1.63345 0
M  V30 14114 C 1326.99 2.24789 2.81322 0
M  V30 14115 C 1326.85 3.75342 2.47868 0
M  V30 14116 C 1328.16 2.16442 3.83198 0
M  V30 14117 H 1325.28 0.479931 0.559317 0
M  V30 14118 H 1327.93 1.67497 0.896935 0
M  V30 14119 H 1326.08 1.94438 3.36342 0
M  V30 14120 H 1327.75 4.16247 1.98836 0
M  V30 14121 H 1325.99 3.94375 1.80696 0
M  V30 14122 H 1326.66 4.3586 3.38719 0
M  V30 14123 H 1329.14 2.43175 3.37647 0
M  V30 14124 H 1328.01 2.83695 4.69903 0
M  V30 14125 H 1328.27 1.15431 4.26765 0
M  V30 14126 N 1327.33 -1.00632 1.21289 0
M  V30 14127 C 1328.28 -2.09382 0.97097 0
M  V30 14128 C 1329.25 -1.65783 -0.102561 0
M  V30 14129 O 1330.44 -1.90749 0.0442886 0
M  V30 14130 C 1327.58 -3.40844 0.540314 0
M  V30 14131 C 1326.69 -3.97862 1.68314 0
M  V30 14132 C 1325.82 -5.17427 1.20178 0
M  V30 14133 C 1324.86 -5.66552 2.31702 0
M  V30 14134 N 1324 -6.77368 1.84709 0
M  V30 14135 H 1328.84 -2.29411 1.90196 0
M  V30 14136 H 1326.38 -1.12488 0.947885 0
M  V30 14137 H 1328.33 -4.16313 0.271881 0
M  V30 14138 H 1326.96 -3.20857 -0.353677 0
M  V30 14139 H 1326.02 -3.19391 2.06624 0
M  V30 14140 H 1327.33 -4.30314 2.52252 0
M  V30 14141 H 1326.48 -6.00138 0.889926 0
M  V30 14142 H 1325.22 -4.86566 0.332422 0
M  V30 14143 H 1324.23 -4.82438 2.63691 0
M  V30 14144 H 1325.45 -5.99443 3.19131 0
M  V30 14145 H 1323.4 -6.48315 1.00116 0
M  V30 14146 H 1323.31 -7.09067 2.62221 0
M  V30 14147 H 1324.58 -7.63617 1.56554 0
M  V30 14148 N 1328.81 -1.02043 -1.20104 0
M  V30 14149 C 1330.23 -0.735967 -1.41618 0
M  V30 14150 C 1330.43 0.68285 -1.89577 0
M  V30 14151 O 1329.48 1.45007 -2.06711 0
M  V30 14152 C 1330.8 -1.76492 -2.43457 0
M  V30 14153 C 1332.34 -1.78349 -2.57217 0
M  V30 14154 C 1332.82 -2.80181 -3.62302 0
M  V30 14155 N 1334.31 -2.78945 -3.69789 0
M  V30 14156 C 1335.05 -3.54395 -4.50768 0
M  V30 14157 N 1334.54 -4.39533 -5.35521 0
M  V30 14158 N 1336.33 -3.42974 -4.45337 0
M  V30 14159 H 1328.49 -1.93634 -0.872916 0
M  V30 14160 H 1330.75 -0.836663 -0.445757 0
M  V30 14161 H 1330.45 -2.78158 -2.15223 0
M  V30 14162 H 1330.33 -1.58022 -3.42504 0
M  V30 14163 H 1332.72 -0.773665 -2.84778 0
M  V30 14164 H 1332.8 -2.00894 -1.58352 0
M  V30 14165 H 1332.44 -3.81331 -3.35484 0
M  V30 14166 H 1332.37 -2.54898 -4.60798 0
M  V30 14167 H 1334.86 -2.17189 -3.09253 0
M  V30 14168 H 1335.17 -4.93863 -5.94407 0
M  V30 14169 H 1333.52 -4.43609 -5.3501 0
M  V30 14170 H 1336.71 -2.75881 -3.78163 0
M  V30 14171 H 1336.88 -4.02028 -5.0821 0
M  V30 14172 N 1330.29 1.35952 -0.797165 0
M  V30 14173 C 1331.22 2.32506 -0.215277 0
M  V30 14174 C 1332.2 1.57023 0.654046 0
M  V30 14175 O 1333.39 1.85139 0.586268 0
M  V30 14176 C 1330.52 3.41266 0.644557 0
M  V30 14177 C 1329.47 4.27816 -0.125501 0
M  V30 14178 C 1328.8 5.27813 0.855428 0
M  V30 14179 C 1330.1 5.05367 -1.31913 0
M  V30 14180 H 1331.79 2.8142 -1.02193 0
M  V30 14181 H 1329.34 1.35303 -0.492862 0
M  V30 14182 H 1331.29 4.07808 1.06163 0
M  V30 14183 H 1330.01 2.90938 1.484 0
M  V30 14184 H 1328.67 3.62841 -0.523639 0
M  V30 14185 H 1328.32 4.73755 1.69011 0
M  V30 14186 H 1328.02 5.86589 0.344566 0
M  V30 14187 H 1329.54 5.97227 1.2709 0
M  V30 14188 H 1330.96 5.64907 -0.977418 0
M  V30 14189 H 1329.36 5.73593 -1.76382 0
M  V30 14190 H 1330.43 4.36558 -2.11057 0
M  V30 14191 N 1331.77 0.549846 1.47697 0
M  V30 14192 C 1332.7 -0.190364 2.32723 0
M  V30 14193 C 1333.68 -0.915933 1.43334 0
M  V30 14194 O 1334.86 -0.897838 1.72199 0
M  V30 14195 C 1331.99 -1.22545 3.24961 0
M  V30 14196 C 1330.95 -0.616805 4.23532 0
M  V30 14197 C 1330.27 -1.75599 5.05044 0
M  V30 14198 C 1331.57 0.424595 5.20571 0
M  V30 14199 H 1333.27 0.519461 2.94859 0
M  V30 14200 H 1330.81 0.251259 1.41791 0
M  V30 14201 H 1332.77 -1.75139 3.83281 0
M  V30 14202 H 1331.49 -1.96512 2.60865 0
M  V30 14203 H 1330.15 -0.112224 3.66428 0
M  V30 14204 H 1329.8 -2.48453 4.37356 0
M  V30 14205 H 1329.5 -1.35456 5.71774 0
M  V30 14206 H 1331.02 -2.28533 5.6622 0
M  V30 14207 H 1332.44 -0.0150025 5.73298 0
M  V30 14208 H 1330.83 0.7445 5.95464 0
M  V30 14209 H 1331.9 1.32318 4.66497 0
M  V30 14210 N 1333.25 -1.54984 0.285932 0
M  V30 14211 C 1334.49 -1.9983 -0.327737 0
M  V30 14212 C 1334.82 -1.17435 -1.55046 0
M  V30 14213 O 1334.08 -0.234735 -1.94287 0
M  V30 14214 C 1334.38 -3.49581 -0.7435 0
M  V30 14215 C 1334.04 -4.49331 0.375792 0
M  V30 14216 C 1332.7 -4.76327 0.683103 0
M  V30 14217 C 1335.06 -5.08815 1.12947 0
M  V30 14218 C 1332.38 -5.60071 1.74748 0
M  V30 14219 C 1334.74 -5.93716 2.18366 0
M  V30 14220 C 1333.4 -6.19028 2.4972 0
M  V30 14221 H 1332.67 -0.731231 -0.119928 0
M  V30 14222 H 1335.32 -1.87235 0.401896 0
M  V30 14223 H 1333.62 -3.59708 -1.55298 0
M  V30 14224 H 1335.32 -3.81694 -1.22924 0
M  V30 14225 H 1331.91 -4.28414 0.126159 0
M  V30 14226 H 1336.09 -4.87973 0.905313 0
M  V30 14227 H 1331.35 -5.77925 1.9953 0
M  V30 14228 H 1335.52 -6.38838 2.77233 0
M  V30 14229 H 1333.15 -6.83711 3.3233 0
M  V30 14230 N 1334.72 -0.0133892 -1.57594 0
M  V30 14231 C 1335.96 0.672977 -1.93004 0
M  V30 14232 C 1336.33 1.70188 -0.888816 0
M  V30 14233 O 1337.53 2.4396 -1.12859 0
M  V30 14234 C 1335.8 1.28743 -3.33407 0
M  V30 14235 S 1337.36 1.99706 -3.90721 0
M  V30 14236 H 1334.18 0.221972 -0.675462 0
M  V30 14237 H 1336.78 -0.0732871 -1.95363 0
M  V30 14238 H 1335.48 0.525931 -4.07016 0
M  V30 14239 H 1335.01 2.07134 -3.34454 0
M  V30 14240 H 1337.03 3.27375 -3.72881 0
M  V30 14241 N 1336.2 1.55448 0.259558 0
M  V30 14242 C 1337.43 1.80727 1.00723 0
M  V30 14243 C 1337.85 0.587354 1.79431 0
M  V30 14244 O 1337.2 -0.443819 1.77021 0
M  V30 14245 C 1337.25 3.04064 1.95517 0
M  V30 14246 O 1336.97 4.21346 1.19996 0
M  V30 14247 C 1338.48 3.42049 2.81988 0
M  V30 14248 H 1335.7 0.601713 0.296956 0
M  V30 14249 H 1338.24 2.02486 0.286273 0
M  V30 14250 H 1336.39 2.84392 2.63058 0
M  V30 14251 H 1336.81 4.91164 1.84006 0
M  V30 14252 H 1338.28 4.31485 3.44274 0
M  V30 14253 H 1338.76 2.62059 3.52451 0
M  V30 14254 H 1339.37 3.64027 2.19918 0
M  V30 14255 N 1337.68 -0.524672 1.4861 0
M  V30 14256 C 1338.93 -1.27768 1.56588 0
M  V30 14257 C 1339.25 -1.93469 0.243899 0
M  V30 14258 O 1338.52 -1.8159 -0.734985 0
M  V30 14259 H 1337.1 -0.474566 0.576885 0
M  V30 14260 H 1339.76 -0.610114 1.85104 0
M  V30 14261 H 1338.86 -2.05416 2.34969 0
M  V30 14262 N 1339.16 -1.37287 -0.77395 0
M  V30 14263 C 1340.11 -1.32872 -1.88716 0
M  V30 14264 C 1341.08 -0.194655 -1.64955 0
M  V30 14265 O 1342.26 -0.383662 -1.86903 0
M  V30 14266 C 1339.4 -1.13934 -3.2575 0
M  V30 14267 C 1338.51 -2.36552 -3.61479 0
M  V30 14268 C 1337.65 -2.10504 -4.87711 0
M  V30 14269 C 1336.69 -3.28999 -5.16165 0
M  V30 14270 N 1335.82 -3.02517 -6.33584 0
M  V30 14271 H 1340.66 -2.28051 -1.91825 0
M  V30 14272 H 1338.2 -1.13325 -0.93786 0
M  V30 14273 H 1340.16 -1.00976 -4.04796 0
M  V30 14274 H 1338.79 -0.22404 -3.22022 0
M  V30 14275 H 1337.84 -2.60257 -2.77435 0
M  V30 14276 H 1339.15 -3.24931 -3.78446 0
M  V30 14277 H 1338.31 -1.94564 -5.74656 0
M  V30 14278 H 1337.05 -1.19459 -4.72843 0
M  V30 14279 H 1336.05 -3.4548 -4.27696 0
M  V30 14280 H 1337.28 -4.20892 -5.32942 0
M  V30 14281 H 1335.22 -2.14099 -6.20079 0
M  V30 14282 H 1335.14 -3.84439 -6.50955 0
M  V30 14283 H 1336.41 -2.9019 -7.23471 0
M  V30 14284 N 1340.64 0.999871 -1.21821 0
M  V30 14285 C 1341.88 1.74098 -1.04009 0
M  V30 14286 C 1342.22 1.89499 0.424716 0
M  V30 14287 O 1341.49 1.43306 1.31505 0
M  V30 14288 C 1341.77 3.1506 -1.74382 0
M  V30 14289 C 1341.63 3.0735 -3.28414 0
M  V30 14290 C 1342.95 4.1409 -1.49055 0
M  V30 14291 H 1340.06 0.631935 -0.379245 0
M  V30 14292 H 1342.71 1.16534 -1.50066 0
M  V30 14293 H 1340.86 3.64206 -1.35227 0
M  V30 14294 H 1342.53 2.65879 -3.76969 0
M  V30 14295 H 1340.77 2.44325 -3.58452 0
M  V30 14296 H 1341.44 4.07069 -3.72825 0
M  V30 14297 H 1343.92 3.73672 -1.83054 0
M  V30 14298 H 1342.79 5.10853 -2.008 0
M  V30 14299 H 1343.06 4.40085 -0.421641 0
M  V30 14300 N 1342.11 1.02678 1.19562 0
M  V30 14301 C 1343.34 0.740493 1.92874 0
M  V30 14302 C 1343.75 -0.704287 1.75603 0
M  V30 14303 O 1343.1 -1.49042 1.07389 0
M  V30 14304 C 1343.16 1.00929 3.45041 0
M  V30 14305 C 1342.82 2.4452 3.86081 0
M  V30 14306 C 1343.82 3.42647 3.9101 0
M  V30 14307 C 1341.5 2.78865 4.1778 0
M  V30 14308 C 1343.5 4.73175 4.27065 0
M  V30 14309 C 1341.18 4.09603 4.53507 0
M  V30 14310 C 1342.18 5.06568 4.58124 0
M  V30 14311 O 1341.87 6.34965 4.93026 0
M  V30 14312 H 1341.6 0.270435 0.619549 0
M  V30 14313 H 1344.16 1.37369 1.52706 0
M  V30 14314 H 1342.39 0.31895 3.85382 0
M  V30 14315 H 1344.08 0.712994 3.99589 0
M  V30 14316 H 1344.84 3.17452 3.66673 0
M  V30 14317 H 1340.72 2.04071 4.13372 0
M  V30 14318 H 1344.26 5.48857 4.30583 0
M  V30 14319 H 1340.16 4.34573 4.77302 0
M  V30 14320 H 1340.93 6.39406 5.10982 0
M  V30 14321 N 1343.59 -1.35528 0.804364 0
M  V30 14322 C 1344.82 -2.02779 0.395517 0
M  V30 14323 C 1345.23 -1.60764 -0.997572 0
M  V30 14324 O 1344.57 -0.799737 -1.65378 0
M  V30 14325 C 1344.64 -3.57302 0.396904 0
M  V30 14326 C 1344.3 -4.22574 1.74012 0
M  V30 14327 C 1345.3 -4.44411 2.69806 0
M  V30 14328 C 1342.98 -4.59738 2.02352 0
M  V30 14329 C 1344.98 -5.02511 3.92124 0
M  V30 14330 C 1342.66 -5.17553 3.24934 0
M  V30 14331 C 1343.66 -5.38881 4.19638 0
M  V30 14332 O 1343.35 -5.95478 5.40056 0
M  V30 14333 H 1343.08 -0.657003 0.15913 0
M  V30 14334 H 1345.63 -1.74176 1.08867 0
M  V30 14335 H 1343.86 -3.85087 -0.352836 0
M  V30 14336 H 1345.55 -4.05899 0.0106754 0
M  V30 14337 H 1346.32 -4.16081 2.49202 0
M  V30 14338 H 1342.2 -4.42452 1.2945 0
M  V30 14339 H 1345.74 -5.19075 4.66055 0
M  V30 14340 H 1341.64 -5.4531 3.45409 0
M  V30 14341 H 1342.41 -6.13931 5.41323 0
M  V30 14342 N 1345.07 -0.557671 -1.47404 0
M  V30 14343 C 1346.35 0.031908 -1.95574 0
M  V30 14344 C 1346.73 1.48509 -1.50027 0
M  V30 14345 O 1346.08 2.16209 -0.73932 0
M  V30 14346 C 1346.29 -0.114055 -3.48814 0
M  V30 14347 C 1347.63 0.0310533 -4.24589 0
M  V30 14348 O 1348.66 -0.041626 -3.56176 0
M  V30 14349 O 1347.52 0.187487 -5.46178 0
M  V30 14350 H 1344.61 0.0638747 -0.82453 0
M  V30 14351 H 1347.16 -0.624227 -1.57802 0
M  V30 14352 H 1345.93 -1.12525 -3.74772 0
M  V30 14353 H 1345.55 0.57967 -3.93352 0
M  V30 14354 N 1346.55 1.54831 -0.294147 0
M  V30 14355 C 1347.48 2.26226 0.57827 0
M  V30 14356 C 1348.46 1.25928 1.14351 0
M  V30 14357 O 1349.65 1.54687 1.17412 0
M  V30 14358 C 1346.78 2.99783 1.75349 0
M  V30 14359 C 1345.73 4.07171 1.31892 0
M  V30 14360 C 1345.06 4.68406 2.57876 0
M  V30 14361 C 1346.36 5.20313 0.455167 0
M  V30 14362 H 1348.05 2.99395 -0.0171936 0
M  V30 14363 H 1345.6 1.43997 -0.00970944 0
M  V30 14364 H 1347.55 3.48448 2.36986 0
M  V30 14365 H 1346.27 2.24181 2.37509 0
M  V30 14366 H 1344.93 3.59346 0.725653 0
M  V30 14367 H 1344.58 3.89451 3.18335 0
M  V30 14368 H 1344.28 5.40927 2.29502 0
M  V30 14369 H 1345.8 5.1983 3.20327 0
M  V30 14370 H 1347.22 5.64913 0.977026 0
M  V30 14371 H 1345.61 5.99512 0.265501 0
M  V30 14372 H 1346.68 4.82088 -0.521434 0
M  V30 14373 N 1348.03 0.0217466 1.57585 0
M  V30 14374 C 1349.26 -0.668881 1.9579 0
M  V30 14375 C 1349.67 -1.66085 0.897849 0
M  V30 14376 O 1349.03 -1.82098 -0.121099 0
M  V30 14377 C 1349.08 -1.38174 3.34051 0
M  V30 14378 O 1348.8 -0.429527 4.35989 0
M  V30 14379 C 1350.3 -2.16487 3.86844 0
M  V30 14380 H 1347.52 -0.184919 0.645016 0
M  V30 14381 H 1350.06 0.0793241 2.04346 0
M  V30 14382 H 1348.22 -2.0814 3.26736 0
M  V30 14383 H 1348.63 -0.934887 5.16101 0
M  V30 14384 H 1350.11 -2.61829 4.85952 0
M  V30 14385 H 1350.58 -3.00082 3.20698 0
M  V30 14386 H 1351.19 -1.51493 3.97404 0
M  V30 14387 N 1349.51 -1.55583 -0.251311 0
M  V30 14388 C 1350.92 -1.47908 -0.599606 0
M  V30 14389 C 1351.12 -0.711061 -1.88537 0
M  V30 14390 O 1350.18 -0.238639 -2.5137 0
M  V30 14391 C 1351.49 -2.92284 -0.706429 0
M  V30 14392 C 1353.04 -3.02629 -0.799049 0
M  V30 14393 C 1353.51 -4.48303 -0.93747 0
M  V30 14394 N 1355 -4.52222 -1.00245 0
M  V30 14395 C 1355.74 -5.62181 -1.12874 0
M  V30 14396 N 1355.24 -6.81958 -1.22085 0
M  V30 14397 N 1357.03 -5.49968 -1.16155 0
M  V30 14398 H 1349.18 -2.0396 0.592806 0
M  V30 14399 H 1351.44 -0.925797 0.203971 0
M  V30 14400 H 1351.15 -3.51297 0.168243 0
M  V30 14401 H 1351.02 -3.42524 -1.57979 0
M  V30 14402 H 1353.41 -2.43699 -1.66418 0
M  V30 14403 H 1353.49 -2.55607 0.099367 0
M  V30 14404 H 1353.13 -5.07842 -0.0769166 0
M  V30 14405 H 1353.06 -4.93002 -1.85086 0
M  V30 14406 H 1355.56 -3.65951 -0.94279 0
M  V30 14407 H 1355.87 -7.6151 -1.31616 0
M  V30 14408 H 1354.21 -6.84728 -1.1905 0
M  V30 14409 H 1357.4 -4.55327 -1.08604 0
M  V30 14410 H 1357.58 -6.35701 -1.25653 0
M  V30 14411 N 1350.98 0.516783 -1.48886 0
M  V30 14412 C 1351.89 1.6467 -1.67095 0
M  V30 14413 C 1352.91 1.64963 -0.553466 0
M  V30 14414 O 1354.09 1.83673 -0.826206 0
M  V30 14415 C 1351.15 3.01095 -1.71879 0
M  V30 14416 C 1350.21 3.11554 -2.95352 0
M  V30 14417 C 1349.44 4.41471 -2.99898 0
M  V30 14418 O 1349.67 5.29348 -2.12477 0
M  V30 14419 O 1348.6 4.56573 -3.92205 0
M  V30 14420 H 1352.43 1.52242 -2.62785 0
M  V30 14421 H 1350.01 0.69134 -1.32442 0
M  V30 14422 H 1351.89 3.82207 -1.77471 0
M  V30 14423 H 1350.57 3.1382 -0.793656 0
M  V30 14424 H 1349.48 2.29689 -2.95286 0
M  V30 14425 H 1350.81 3.03751 -3.87294 0
M  V30 14426 N 1352.46 1.37696 0.766659 0
M  V30 14427 C 1353.88 1.18607 1.06792 0
M  V30 14428 C 1354.08 0.0257195 2.01484 0
M  V30 14429 O 1353.13 -0.632608 2.44447 0
M  V30 14430 C 1354.45 2.50692 1.66054 0
M  V30 14431 C 1355.99 2.57259 1.78288 0
M  V30 14432 C 1356.47 3.89488 2.40963 0
M  V30 14433 N 1357.96 3.90957 2.48408 0
M  V30 14434 C 1358.7 4.90023 2.97767 0
M  V30 14435 N 1358.19 5.99485 3.4726 0
M  V30 14436 N 1359.98 4.77423 2.96688 0
M  V30 14437 H 1352.14 2.11951 0.138031 0
M  V30 14438 H 1354.4 0.939873 0.123863 0
M  V30 14439 H 1354.1 3.35989 1.03945 0
M  V30 14440 H 1353.98 2.68148 2.65286 0
M  V30 14441 H 1356.37 1.72366 2.39528 0
M  V30 14442 H 1356.45 2.43682 0.777981 0
M  V30 14443 H 1356.09 4.74797 1.8036 0
M  V30 14444 H 1356.02 4.0037 3.42069 0
M  V30 14445 H 1358.51 3.11888 2.13388 0
M  V30 14446 H 1358.82 6.71022 3.8334 0
M  V30 14447 H 1357.17 6.03123 3.45351 0
M  V30 14448 H 1360.36 3.91026 2.57325 0
M  V30 14449 H 1360.53 5.54783 3.34844 0
M  V30 14450 N 1353.94 -0.993397 1.22349 0
M  V30 14451 C 1354.89 -2.0834 0.993123 0
M  V30 14452 C 1355.86 -1.65883 -0.0849717 0
M  V30 14453 O 1357.04 -1.90691 0.0645176 0
M  V30 14454 C 1354.18 -3.40252 0.576434 0
M  V30 14455 C 1353.29 -3.96055 1.72524 0
M  V30 14456 C 1352.43 -5.16123 1.25659 0
M  V30 14457 C 1351.47 -5.64062 2.37698 0
M  V30 14458 N 1350.61 -6.7537 1.91883 0
M  V30 14459 H 1355.45 -2.27381 1.92619 0
M  V30 14460 H 1352.98 -1.11476 0.959763 0
M  V30 14461 H 1354.94 -4.16001 0.316021 0
M  V30 14462 H 1353.57 -3.21214 -0.319626 0
M  V30 14463 H 1352.62 -3.17182 2.1 0
M  V30 14464 H 1353.93 -4.27614 2.56802 0
M  V30 14465 H 1353.09 -5.9916 0.953528 0
M  V30 14466 H 1351.83 -4.86186 0.384011 0
M  V30 14467 H 1350.83 -4.79614 2.68794 0
M  V30 14468 H 1352.06 -5.96025 3.25471 0
M  V30 14469 H 1350 -6.47217 1.06986 0
M  V30 14470 H 1349.92 -7.06246 2.69727 0
M  V30 14471 H 1351.19 -7.61914 1.64644 0
M  V30 14472 N 1355.42 -1.03311 -1.19015 0
M  V30 14473 C 1356.38 -0.622114 -2.20596 0
M  V30 14474 C 1357.38 0.316502 -1.57654 0
M  V30 14475 O 1358.57 0.102932 -1.73896 0
M  V30 14476 C 1355.7 0.0890432 -3.40784 0
M  V30 14477 H 1356.9 -1.52095 -2.58471 0
M  V30 14478 H 1354.45 -0.824777 -1.32767 0
M  V30 14479 H 1355.18 1.00203 -3.08431 0
M  V30 14480 H 1354.97 -0.58547 -3.87704 0
M  V30 14481 H 1356.46 0.363366 -4.16016 0
M  V30 14482 N 1356.9 1.35099 -0.81154 0
M  V30 14483 C 1358.31 1.51701 -0.495883 0
M  V30 14484 C 1358.51 1.7595 0.982035 0
M  V30 14485 O 1357.57 1.8038 1.7669 0
M  V30 14486 C 1358.88 2.68916 -1.34554 0
M  V30 14487 C 1360.43 2.82795 -1.34149 0
M  V30 14488 C 1360.9 4.0304 -2.17538 0
M  V30 14489 N 1362.39 4.10227 -2.151 0
M  V30 14490 C 1363.13 5.02397 -2.76377 0
M  V30 14491 N 1362.63 5.99866 -3.46601 0
M  V30 14492 N 1364.42 4.95181 -2.65992 0
M  V30 14493 H 1356.57 1.17617 -1.76862 0
M  V30 14494 H 1358.83 0.575875 -0.753042 0
M  V30 14495 H 1358.54 2.57591 -2.39458 0
M  V30 14496 H 1358.41 3.63641 -1.00223 0
M  V30 14497 H 1360.8 2.93568 -0.300285 0
M  V30 14498 H 1360.88 1.88912 -1.7247 0
M  V30 14499 H 1360.52 3.93027 -3.21702 0
M  V30 14500 H 1360.45 4.96114 -1.76574 0
M  V30 14501 H 1362.95 3.40454 -1.6401 0
M  V30 14502 H 1363.26 6.66803 -3.90632 0
M  V30 14503 H 1361.6 6.00025 -3.50706 0
M  V30 14504 H 1364.79 4.17991 -2.10715 0
M  V30 14505 H 1364.97 5.6682 -3.14036 0
M  V30 14506 N 1358.37 0.56548 1.47106 0
M  V30 14507 C 1359.65 -0.0215358 1.95588 0
M  V30 14508 C 1360.03 -1.47712 1.50813 0
M  V30 14509 O 1359.38 -2.15814 0.750776 0
M  V30 14510 C 1359.59 0.132552 3.48748 0
M  V30 14511 C 1360.94 -0.00853591 4.24599 0
M  V30 14512 O 1361.96 0.0605142 3.56149 0
M  V30 14513 O 1360.82 -0.158519 5.4627 0
M  V30 14514 H 1357.91 -0.0595011 0.824857 0
M  V30 14515 H 1360.46 0.632586 1.57469 0
M  V30 14516 H 1359.23 1.14511 3.7417 0
M  V30 14517 H 1358.85 -0.558801 3.93654 0
M  V30 14518 N 1359.85 -1.54672 0.302354 0
M  V30 14519 C 1360.79 -2.19752 -0.615175 0
M  V30 14520 C 1361.76 -1.16737 -1.13186 0
M  V30 14521 O 1362.95 -1.45385 -1.19981 0
M  V30 14522 C 1360.07 -2.84243 -1.84184 0
M  V30 14523 C 1359.12 -4.00795 -1.45827 0
M  V30 14524 S 1359.95 -5.33037 -0.513046 0
M  V30 14525 C 1361.11 -6.01011 -1.74747 0
M  V30 14526 H 1361.34 -2.97235 -0.0622917 0
M  V30 14527 H 1358.88 -1.54158 0.0864897 0
M  V30 14528 H 1360.83 -3.22025 -2.54578 0
M  V30 14529 H 1359.49 -2.06603 -2.36589 0
M  V30 14530 H 1358.69 -4.44707 -2.37175 0
M  V30 14531 H 1358.29 -3.64577 -0.83425 0
M  V30 14532 H 1360.58 -6.21901 -2.68786 0
M  V30 14533 H 1361.52 -6.95095 -1.35089 0
M  V30 14534 H 1361.93 -5.30671 -1.9248 0
M  V30 14535 N 1361.33 -0.0301034 -1.57571 0
M  V30 14536 C 1362.58 0.649283 -1.92125 0
M  V30 14537 C 1362.91 1.71722 -0.90692 0
M  V30 14538 O 1362.18 1.94373 0.0702019 0
M  V30 14539 C 1362.47 1.26482 -3.37156 0
M  V30 14540 C 1362.32 0.206375 -4.49326 0
M  V30 14541 C 1363.64 2.18256 -3.82168 0
M  V30 14542 H 1360.76 0.234561 -0.698678 0
M  V30 14543 H 1363.4 -0.0875634 -1.89798 0
M  V30 14544 H 1361.55 1.89283 -3.3927 0
M  V30 14545 H 1363.22 -0.424268 -4.59345 0
M  V30 14546 H 1361.47 -0.468035 -4.31268 0
M  V30 14547 H 1362.14 0.676689 -5.47837 0
M  V30 14548 H 1364.61 1.65441 -3.81797 0
M  V30 14549 H 1363.49 2.58277 -4.84339 0
M  V30 14550 H 1363.75 3.07411 -3.17727 0
M  V30 14551 N 1362.81 1.55714 0.243056 0
M  V30 14552 C 1364.06 1.77375 0.968638 0
M  V30 14553 C 1364.38 0.594781 1.85708 0
M  V30 14554 O 1363.65 -0.38928 1.91993 0
M  V30 14555 H 1362.23 0.654174 0.360646 0
M  V30 14556 H 1364.89 1.93157 0.260079 0
M  V30 14557 H 1363.99 2.68674 1.5881 0
M  V30 14558 N 1364.29 -0.50888 1.49158 0
M  V30 14559 C 1365.22 -1.62778 1.61356 0
M  V30 14560 C 1366.23 -1.55039 0.496653 0
M  V30 14561 O 1367.42 -1.61115 0.768386 0
M  V30 14562 C 1364.52 -3.01534 1.54694 0
M  V30 14563 C 1363.69 -3.34539 2.81785 0
M  V30 14564 C 1362.75 -4.5267 2.68283 0
M  V30 14565 O 1361.78 -4.54844 3.42207 0
M  V30 14566 N 1362.98 -5.52115 1.79303 0
M  V30 14567 H 1365.75 -1.52744 2.57855 0
M  V30 14568 H 1363.31 -0.696597 1.46148 0
M  V30 14569 H 1365.3 -3.7847 1.43327 0
M  V30 14570 H 1363.87 -3.05535 0.660849 0
M  V30 14571 H 1363.09 -2.46576 3.07561 0
M  V30 14572 H 1364.38 -3.53384 3.66057 0
M  V30 14573 H 1363.77 -5.53153 1.18485 0
M  V30 14574 H 1362.33 -6.28184 1.73863 0
M  V30 14575 N 1365.76 -1.381 -0.759346 0
M  V30 14576 C 1367.01 -1.3419 -1.52055 0
M  V30 14577 C 1367.34 0.0697657 -1.94075 0
M  V30 14578 O 1366.62 1.02975 -1.65004 0
M  V30 14579 C 1366.9 -2.29236 -2.7771 0
M  V30 14580 C 1366.75 -3.79237 -2.41866 0
M  V30 14581 C 1368.07 -2.22511 -3.79706 0
M  V30 14582 H 1365.19 -0.488768 -0.551611 0
M  V30 14583 H 1367.83 -1.68902 -0.870174 0
M  V30 14584 H 1365.98 -1.99764 -3.33206 0
M  V30 14585 H 1367.66 -4.19358 -1.92189 0
M  V30 14586 H 1365.9 -3.97199 -1.74399 0
M  V30 14587 H 1366.57 -4.41193 -3.31742 0
M  V30 14588 H 1369.05 -2.48516 -3.33735 0
M  V30 14589 H 1367.92 -2.91134 -4.6533 0
M  V30 14590 H 1368.18 -1.22206 -4.24874 0
M  V30 14591 N 1367.24 0.986894 -1.22875 0
M  V30 14592 C 1368.21 2.0597 -1.00544 0
M  V30 14593 C 1369.21 1.60771 0.0303509 0
M  V30 14594 O 1370.4 1.72945 -0.208753 0
M  V30 14595 C 1367.53 3.36911 -0.519962 0
M  V30 14596 H 1368.72 2.27213 -1.9574 0
M  V30 14597 H 1366.27 1.15935 -1.04827 0
M  V30 14598 H 1367.01 3.21355 0.436078 0
M  V30 14599 H 1366.79 3.71054 -1.26732 0
M  V30 14600 H 1368.28 4.15829 -0.384166 0
M  V30 14601 N 1368.72 1.0394 1.18466 0
M  V30 14602 C 1369.97 0.737233 1.87744 0
M  V30 14603 C 1370.28 -0.737891 1.81148 0
M  V30 14604 O 1371.49 -1.15353 2.45776 0
M  V30 14605 C 1369.94 1.26844 3.36806 0
M  V30 14606 C 1369.55 2.7721 3.51935 0
M  V30 14607 C 1371.3 1.04274 4.11494 0
M  V30 14608 C 1369.2 3.23696 4.9495 0
M  V30 14609 H 1368.13 0.272082 0.703198 0
M  V30 14610 H 1370.78 1.25507 1.33866 0
M  V30 14611 H 1369.17 0.67847 3.90145 0
M  V30 14612 H 1370.34 3.41954 3.08875 0
M  V30 14613 H 1368.66 2.98179 2.90652 0
M  V30 14614 H 1371.25 1.3652 5.16978 0
M  V30 14615 H 1371.6 -0.0200645 4.16295 0
M  V30 14616 H 1372.13 1.59726 3.64325 0
M  V30 14617 H 1368.87 4.29351 4.95316 0
M  V30 14618 H 1368.39 2.63687 5.38729 0
M  V30 14619 H 1370.07 3.17645 5.63658 0
M  V30 14620 N 1370.2 -1.34667 0.818693 0
M  V30 14621 C 1371.43 -2.02642 0.417608 0
M  V30 14622 C 1371.84 -1.61667 -0.97516 0
M  V30 14623 O 1371.2 -0.820056 -1.63038 0
M  V30 14624 C 1371.25 -3.57951 0.505295 0
M  V30 14625 O 1370.97 -3.97441 1.84317 0
M  V30 14626 C 1372.47 -4.4319 0.0985667 0
M  V30 14627 H 1369.69 -0.6496 0.168111 0
M  V30 14628 H 1372.24 -1.72032 1.10568 0
M  V30 14629 H 1370.39 -3.87166 -0.134646 0
M  V30 14630 H 1370.8 -4.92116 1.81444 0
M  V30 14631 H 1372.28 -5.51597 0.211015 0
M  V30 14632 H 1372.76 -4.28637 -0.95745 0
M  V30 14633 H 1373.36 -4.19295 0.71214 0
M  V30 14634 N 1371.68 -0.573274 -1.46804 0
M  V30 14635 C 1373.09 -0.23423 -1.57872 0
M  V30 14636 C 1373.29 1.26342 -1.56971 0
M  V30 14637 O 1372.35 2.04459 -1.48165 0
M  V30 14638 C 1373.66 -0.875097 -2.87685 0
M  V30 14639 C 1375.21 -0.847812 -3.01299 0
M  V30 14640 C 1375.68 -1.46804 -4.33835 0
M  V30 14641 N 1377.18 -1.43196 -4.4051 0
M  V30 14642 C 1377.91 -1.88133 -5.41658 0
M  V30 14643 N 1377.41 -2.41001 -6.49531 0
M  V30 14644 N 1379.2 -1.79107 -5.32801 0
M  V30 14645 H 1371.35 -1.54612 -1.45633 0
M  V30 14646 H 1373.61 -0.645703 -0.694098 0
M  V30 14647 H 1373.32 -1.92826 -2.94127 0
M  V30 14648 H 1373.19 -0.377671 -3.75305 0
M  V30 14649 H 1375.58 0.196707 -2.94444 0
M  V30 14650 H 1375.66 -1.38316 -2.1518 0
M  V30 14651 H 1375.31 -2.51171 -4.41447 0
M  V30 14652 H 1375.24 -0.908 -5.18713 0
M  V30 14653 H 1377.73 -1.04541 -3.63152 0
M  V30 14654 H 1378.04 -2.73172 -7.22908 0
M  V30 14655 H 1376.38 -2.45021 -6.50377 0
M  V30 14656 H 1379.58 -1.37569 -4.47429 0
M  V30 14657 H 1379.75 -2.14445 -6.11488 0
M  V30 14658 N 1373.15 1.5451 -0.310553 0
M  V30 14659 C 1374.4 1.99505 0.296731 0
M  V30 14660 C 1374.72 1.20257 1.54265 0
M  V30 14661 O 1375.92 1.55566 2.22512 0
M  V30 14662 C 1374.38 3.55208 0.579251 0
M  V30 14663 C 1373.99 4.43276 -0.648874 0
M  V30 14664 C 1375.73 4.08705 1.1472 0
M  V30 14665 C 1373.64 5.90428 -0.338978 0
M  V30 14666 H 1372.57 0.745232 0.114652 0
M  V30 14667 H 1375.22 1.78611 -0.420749 0
M  V30 14668 H 1373.6 3.72039 1.35658 0
M  V30 14669 H 1374.77 4.3822 -1.42478 0
M  V30 14670 H 1373.09 4.00601 -1.13613 0
M  V30 14671 H 1375.69 5.16223 1.39346 0
M  V30 14672 H 1376.03 3.59889 2.09249 0
M  V30 14673 H 1376.56 3.95454 0.431363 0
M  V30 14674 H 1373.3 6.43411 -1.25309 0
M  V30 14675 H 1372.82 5.98468 0.399475 0
M  V30 14676 H 1374.5 6.46976 0.0559696 0
M  V30 14677 N 1374.63 0.0384594 1.57553 0
M  V30 14678 C 1375.54 -0.955737 2.14249 0
M  V30 14679 C 1376.56 -1.35056 1.09708 0
M  V30 14680 O 1377.74 -1.43008 1.41812 0
M  V30 14681 C 1374.8 -2.21647 2.66596 0
M  V30 14682 C 1373.86 -1.88119 3.85888 0
M  V30 14683 C 1373.09 -3.08182 4.35729 0
M  V30 14684 O 1373.32 -4.21145 3.84699 0
M  V30 14685 O 1372.25 -2.89936 5.27467 0
M  V30 14686 H 1376.08 -0.50361 2.99495 0
M  V30 14687 H 1373.66 -0.182698 1.48279 0
M  V30 14688 H 1375.54 -2.9564 3.00291 0
M  V30 14689 H 1374.22 -2.66022 1.84428 0
M  V30 14690 H 1373.13 -1.11481 3.57103 0
M  V30 14691 H 1374.46 -1.48553 4.69247 0
M  V30 14692 N 1376.11 -1.55841 -0.234795 0
M  V30 14693 C 1377.04 -1.87793 -1.31402 0
M  V30 14694 C 1378.06 -0.765113 -1.43701 0
M  V30 14695 O 1379.25 -1.04332 -1.44834 0
M  V30 14696 C 1376.35 -2.05976 -2.69123 0
M  V30 14697 C 1375.52 -3.36914 -2.7894 0
M  V30 14698 C 1374.58 -3.44691 -3.97586 0
M  V30 14699 O 1373.6 -4.17818 -3.86545 0
M  V30 14700 N 1374.81 -2.74866 -5.11301 0
M  V30 14701 H 1377.57 -2.80957 -1.04324 0
M  V30 14702 H 1375.13 -1.56226 -0.424872 0
M  V30 14703 H 1377.12 -2.08507 -3.46853 0
M  V30 14704 H 1375.69 -1.195 -2.88857 0
M  V30 14705 H 1374.91 -3.46595 -1.87791 0
M  V30 14706 H 1376.2 -4.23196 -2.82458 0
M  V30 14707 H 1375.6 -2.15208 -5.23165 0
M  V30 14708 H 1374.16 -2.83075 -5.87122 0
M  V30 14709 N 1377.59 0.500963 -1.49426 0
M  V30 14710 C 1378.52 1.61114 -1.69011 0
M  V30 14711 C 1379.5 1.61341 -0.538813 0
M  V30 14712 O 1380.69 1.78081 -0.77466 0
M  V30 14713 C 1377.82 2.99598 -1.75666 0
M  V30 14714 C 1376.77 3.14236 -2.90585 0
M  V30 14715 C 1376.1 4.54071 -2.82354 0
M  V30 14716 C 1377.4 2.94258 -4.3152 0
M  V30 14717 H 1379.09 1.44978 -2.61957 0
M  V30 14718 H 1376.64 0.69603 -1.26061 0
M  V30 14719 H 1378.59 3.77163 -1.87953 0
M  V30 14720 H 1377.31 3.16822 -0.793186 0
M  V30 14721 H 1375.97 2.39096 -2.779 0
M  V30 14722 H 1375.62 4.68172 -1.83914 0
M  V30 14723 H 1375.32 4.64806 -3.59485 0
M  V30 14724 H 1376.84 5.33696 -2.96649 0
M  V30 14725 H 1378.26 3.61592 -4.44886 0
M  V30 14726 H 1376.65 3.16464 -5.09873 0
M  V30 14727 H 1377.72 1.90383 -4.45962 0
M  V30 14728 N 1379.07 1.38501 0.752011 0
M  V30 14729 C 1380.29 1.38212 1.54636 0
M  V30 14730 C 1380.72 -0.0256356 1.88083 0
M  V30 14731 O 1380.08 -1.00812 1.50687 0
M  V30 14732 C 1380.12 2.24597 2.82114 0
M  V30 14733 O 1379.23 1.66415 3.77332 0
M  V30 14734 H 1378.57 0.47138 0.46765 0
M  V30 14735 H 1381.1 1.82283 0.929205 0
M  V30 14736 H 1381.11 2.38511 3.31023 0
M  V30 14737 H 1379.78 3.26913 2.57101 0
M  V30 14738 H 1378.36 1.61651 3.36041 0
M  V30 14739 N 1380.55 -0.980364 1.23396 0
M  V30 14740 C 1381.96 -1.53622 1.061 0
M  V30 14741 C 1382.31 -1.92648 -0.371645 0
M  V30 14742 O 1381.43 -1.76051 -1.25837 0
M  V30 14743 C 1382.03 -2.79159 1.91979 0
M  V30 14744 C 1380.59 -3.31144 1.78943 0
M  V30 14745 C 1379.73 -2.04135 1.87681 0
M  V30 14746 H 1382.68 -0.800047 1.37058 0
M  V30 14747 H 1382.71 -3.52011 1.4446 0
M  V30 14748 H 1382.22 -2.50723 2.96242 0
M  V30 14749 H 1380.32 -3.64459 0.774634 0
M  V30 14750 H 1380.43 -4.009 2.62329 0
M  V30 14751 H 1378.8 -2.18271 1.31262 0
M  V30 14752 H 1379.58 -1.78081 2.93499 0
M  V30 14753 N 1382.02 -1.04567 -1.17913 0
M  V30 14754 C 1383.27 -0.752023 -1.88018 0
M  V30 14755 C 1383.6 0.720567 -1.8066 0
M  V30 14756 O 1382.85 1.54207 -1.20493 0
M  V30 14757 C 1383.15 -1.1699 -3.3771 0
M  V30 14758 C 1382.82 -2.64363 -3.65271 0
M  V30 14759 C 1381.48 -3.04622 -3.72503 0
M  V30 14760 C 1383.83 -3.59626 -3.77251 0
M  V30 14761 C 1381.16 -4.39023 -3.89199 0
M  V30 14762 C 1383.51 -4.93752 -3.95465 0
M  V30 14763 C 1382.18 -5.33675 -4.00933 0
M  V30 14764 H 1381.45 -0.275185 -0.688008 0
M  V30 14765 H 1384.09 -1.31161 -1.39532 0
M  V30 14766 H 1382.4 -0.529202 -3.8821 0
M  V30 14767 H 1384.1 -0.919981 -3.90304 0
M  V30 14768 H 1380.69 -2.32182 -3.60263 0
M  V30 14769 H 1384.87 -3.29665 -3.70992 0
M  V30 14770 H 1380.13 -4.69466 -3.91679 0
M  V30 14771 H 1384.3 -5.67467 -4.03676 0
M  V30 14772 H 1381.93 -6.37825 -4.13623 0
M  V30 14773 N 1383.5 1.34231 -0.825823 0
M  V30 14774 C 1384.91 1.8059 -0.473724 0
M  V30 14775 C 1385.26 1.68438 1.00614 0
M  V30 14776 O 1384.39 1.22606 1.78317 0
M  V30 14777 C 1384.98 3.27884 -0.853099 0
M  V30 14778 C 1383.54 3.72311 -0.553327 0
M  V30 14779 C 1382.69 2.55889 -1.06845 0
M  V30 14780 H 1385.64 1.21937 -1.01573 0
M  V30 14781 H 1385.66 3.80172 -0.158014 0
M  V30 14782 H 1385.17 3.36696 -1.93021 0
M  V30 14783 H 1383.27 3.69034 0.514256 0
M  V30 14784 H 1383.39 4.66315 -1.09942 0
M  V30 14785 H 1381.75 2.49945 -0.489874 0
M  V30 14786 H 1382.53 2.67471 -2.15207 0
M  V30 14787 N 1384.98 0.581051 1.46498 0
M  V30 14788 C 1386.23 0.0659956 2.02392 0
M  V30 14789 C 1386.55 -1.29329 1.45273 0
M  V30 14790 O 1385.81 -1.86047 0.607041 0
M  V30 14791 C 1386.11 -0.0514774 3.57363 0
M  V30 14792 C 1385.77 1.24 4.33514 0
M  V30 14793 C 1384.44 1.59383 4.54038 0
M  V30 14794 C 1386.79 2.09473 4.77253 0
M  V30 14795 C 1384.12 2.8004 5.15552 0
M  V30 14796 C 1386.47 3.29355 5.401 0
M  V30 14797 C 1385.13 3.65022 5.58852 0
M  V30 14798 H 1384.4 0.0241495 0.740606 0
M  V30 14799 H 1387.05 0.757354 1.75887 0
M  V30 14800 H 1385.35 -0.825955 3.82995 0
M  V30 14801 H 1387.05 -0.465726 3.98286 0
M  V30 14802 H 1383.64 0.954547 4.17835 0
M  V30 14803 H 1387.83 1.83441 4.61154 0
M  V30 14804 H 1383.08 3.07814 5.28262 0
M  V30 14805 H 1387.26 3.95855 5.7295 0
M  V30 14806 H 1384.88 4.58607 6.06287 0
M  V30 14807 N 1386.46 -1.54343 0.318742 0
M  V30 14808 C 1387.73 -1.92635 -0.339299 0
M  V30 14809 C 1388.11 -1.24786 -1.7027 0
M  V30 14810 O 1387.46 -0.389844 -2.2515 0
M  V30 14811 C 1387.67 -3.46262 -0.436318 0
M  V30 14812 C 1389.02 -4.18809 -0.698871 0
M  V30 14813 O 1390.04 -3.52392 -0.519431 0
M  V30 14814 O 1388.9 -5.36422 -1.04471 0
M  V30 14815 H 1386 -0.804202 -0.192841 0
M  V30 14816 H 1388.54 -1.6566 0.368104 0
M  V30 14817 H 1387.32 -3.8781 0.521427 0
M  V30 14818 H 1386.94 -3.79327 -1.19149 0
M  V30 14819 N 1387.94 -0.0468143 -1.5753 0
M  V30 14820 C 1388.87 0.927092 -2.14306 0
M  V30 14821 C 1389.85 1.32745 -1.06362 0
M  V30 14822 O 1391.03 1.40293 -1.34281 0
M  V30 14823 C 1388.16 2.20343 -2.68452 0
M  V30 14824 C 1387.12 1.94328 -3.81341 0
M  V30 14825 C 1386.44 3.28379 -4.21985 0
M  V30 14826 C 1387.74 1.26835 -5.06666 0
M  V30 14827 H 1389.44 0.454199 -2.95935 0
M  V30 14828 H 1386.98 0.217029 -1.42355 0
M  V30 14829 H 1388.93 2.8887 -3.0681 0
M  V30 14830 H 1387.66 2.6983 -1.84009 0
M  V30 14831 H 1386.32 1.28214 -3.43448 0
M  V30 14832 H 1385.97 3.75658 -3.34499 0
M  V30 14833 H 1385.67 3.11772 -4.98068 0
M  V30 14834 H 1387.19 3.98145 -4.6294 0
M  V30 14835 H 1388.6 1.85389 -5.42498 0
M  V30 14836 H 1387 1.20569 -5.87863 0
M  V30 14837 H 1388.07 0.243759 -4.84287 0
M  V30 14838 N 1389.41 1.55964 0.226527 0
M  V30 14839 C 1390.34 1.95028 1.284 0
M  V30 14840 C 1391.33 0.817833 1.49149 0
M  V30 14841 O 1392.51 1.07975 1.61416 0
M  V30 14842 C 1389.64 2.26266 2.63478 0
M  V30 14843 C 1388.59 3.41954 2.57393 0
M  V30 14844 C 1387.92 3.58786 3.96456 0
M  V30 14845 C 1389.22 4.77069 2.12608 0
M  V30 14846 H 1390.91 2.83608 0.959513 0
M  V30 14847 H 1388.46 1.36451 0.460125 0
M  V30 14848 H 1390.41 2.52186 3.3761 0
M  V30 14849 H 1389.14 1.34533 2.97604 0
M  V30 14850 H 1387.8 3.16076 1.85719 0
M  V30 14851 H 1387.44 2.64437 4.27881 0
M  V30 14852 H 1387.14 4.36595 3.93267 0
M  V30 14853 H 1388.67 3.87048 4.72256 0
M  V30 14854 H 1390.08 5.02226 2.76481 0
M  V30 14855 H 1388.48 5.58126 2.2049 0
M  V30 14856 H 1389.55 4.7276 1.07823 0
M  V30 14857 N 1390.89 -0.493031 1.4969 0
M  V30 14858 C 1391.82 -1.60215 1.69863 0
M  V30 14859 C 1392.8 -1.61053 0.547362 0
M  V30 14860 O 1393.99 -1.77667 0.784093 0
M  V30 14861 C 1391.12 -2.98662 1.77252 0
M  V30 14862 C 1390.07 -3.1269 2.92248 0
M  V30 14863 C 1389.4 -4.52567 2.84758 0
M  V30 14864 C 1390.7 -2.91965 4.33074 0
M  V30 14865 H 1392.39 -1.43587 2.62723 0
M  V30 14866 H 1389.94 -0.689334 1.26429 0
M  V30 14867 H 1391.89 -3.7616 1.89951 0
M  V30 14868 H 1390.62 -3.16397 0.809976 0
M  V30 14869 H 1389.27 -2.37619 2.79164 0
M  V30 14870 H 1388.92 -4.6719 1.86394 0
M  V30 14871 H 1388.62 -4.62893 3.61944 0
M  V30 14872 H 1390.15 -5.32116 2.99475 0
M  V30 14873 H 1391.56 -3.59228 4.46798 0
M  V30 14874 H 1389.96 -3.13756 5.11544 0
M  V30 14875 H 1391.03 -1.88015 4.46966 0
M  V30 14876 N 1392.37 -1.38898 -0.744656 0
M  V30 14877 C 1393.32 -1.36845 -1.85855 0
M  V30 14878 C 1394.29 -0.2296 -1.64505 0
M  V30 14879 O 1395.47 -0.423221 -1.86047 0
M  V30 14880 C 1392.61 -1.20818 -3.2326 0
M  V30 14881 C 1391.73 -2.44166 -3.5638 0
M  V30 14882 C 1390.86 -2.20801 -4.83136 0
M  V30 14883 C 1389.9 -3.39874 -5.0907 0
M  V30 14884 N 1389.04 -3.15888 -6.27024 0
M  V30 14885 H 1393.88 -2.32068 -1.86945 0
M  V30 14886 H 1391.41 -1.15289 -0.913611 0
M  V30 14887 H 1393.37 -1.0954 -4.02563 0
M  V30 14888 H 1392 -0.292295 -3.21474 0
M  V30 14889 H 1391.05 -2.66083 -2.71852 0
M  V30 14890 H 1392.37 -3.32885 -3.71469 0
M  V30 14891 H 1391.52 -2.0671 -5.704 0
M  V30 14892 H 1390.26 -1.29462 -4.70203 0
M  V30 14893 H 1389.26 -3.54474 -4.20271 0
M  V30 14894 H 1390.49 -4.32102 -5.23894 0
M  V30 14895 H 1388.43 -2.27204 -6.15398 0
M  V30 14896 H 1388.35 -3.9816 -6.42655 0
M  V30 14897 H 1389.62 -3.0547 -7.17153 0
M  V30 14898 N 1393.85 0.973806 -1.23914 0
M  V30 14899 C 1394.76 2.10138 -1.04304 0
M  V30 14900 C 1395.77 1.73994 0.0143888 0
M  V30 14901 O 1396.95 2.00572 -0.182481 0
M  V30 14902 C 1394.02 3.40673 -0.643639 0
M  V30 14903 C 1393.08 3.90802 -1.77686 0
M  V30 14904 C 1392.31 5.15108 -1.39642 0
M  V30 14905 O 1392.53 5.69695 -0.283546 0
M  V30 14906 O 1391.47 5.59468 -2.21988 0
M  V30 14907 H 1395.29 2.29574 -1.9882 0
M  V30 14908 H 1392.88 1.08524 -1.02679 0
M  V30 14909 H 1394.76 4.19178 -0.432145 0
M  V30 14910 H 1393.43 3.22551 0.272458 0
M  V30 14911 H 1392.34 3.13385 -2.04305 0
M  V30 14912 H 1393.67 4.1339 -2.67151 0
M  V30 14913 N 1395.33 1.05191 1.17357 0
M  V30 14914 C 1396.57 0.763113 1.87895 0
M  V30 14915 C 1396.91 -0.708071 1.80831 0
M  V30 14916 O 1396.18 -1.51777 1.21631 0
M  V30 14917 C 1396.46 1.2442 3.37923 0
M  V30 14918 C 1396.32 2.77832 3.53737 0
M  V30 14919 C 1397.64 0.843209 4.31947 0
M  V30 14920 H 1394.75 0.27869 0.682276 0
M  V30 14921 H 1397.4 1.3059 1.38008 0
M  V30 14922 H 1395.55 0.782438 3.80539 0
M  V30 14923 H 1397.22 3.32131 3.20135 0
M  V30 14924 H 1395.46 3.17108 2.96015 0
M  V30 14925 H 1396.13 3.06555 4.59052 0
M  V30 14926 H 1398.61 1.24073 3.97171 0
M  V30 14927 H 1397.48 1.20743 5.35455 0
M  V30 14928 H 1397.75 -0.252802 4.41377 0
M  V30 14929 N 1396.8 -1.33791 0.83293 0
M  V30 14930 C 1397.74 -2.28148 0.219336 0
M  V30 14931 C 1398.75 -1.51477 -0.596529 0
M  V30 14932 O 1399.94 -1.73377 -0.424571 0
M  V30 14933 C 1397.04 -3.31373 -0.710305 0
M  V30 14934 C 1396.21 -4.37352 0.0649215 0
M  V30 14935 C 1395.27 -5.20279 -0.78716 0
M  V30 14936 O 1394.3 -5.68741 -0.228511 0
M  V30 14937 N 1395.5 -5.40973 -2.10544 0
M  V30 14938 H 1398.26 -2.81443 1.03004 0
M  V30 14939 H 1395.82 -1.46421 0.690831 0
M  V30 14940 H 1397.82 -3.83752 -1.28517 0
M  V30 14941 H 1396.39 -2.78398 -1.42173 0
M  V30 14942 H 1395.61 -3.85553 0.821144 0
M  V30 14943 H 1396.89 -5.05271 0.598199 0
M  V30 14944 H 1396.29 -5.03291 -2.58292 0
M  V30 14945 H 1394.85 -5.96432 -2.62893 0
M  V30 14946 N 1398.28 -0.588812 -1.46187 0
M  V30 14947 C 1399.23 0.140932 -2.30369 0
M  V30 14948 C 1400.2 0.878216 -1.40984 0
M  V30 14949 O 1401.38 0.867678 -1.69929 0
M  V30 14950 C 1398.52 1.14468 -3.25563 0
M  V30 14951 C 1397.64 0.410215 -4.30048 0
M  V30 14952 C 1396.77 1.40203 -5.12364 0
M  V30 14953 C 1395.81 0.65431 -6.08593 0
M  V30 14954 N 1394.95 1.59448 -6.83755 0
M  V30 14955 H 1399.79 -0.582976 -2.92242 0
M  V30 14956 H 1397.33 -0.299302 -1.44023 0
M  V30 14957 H 1399.28 1.73957 -3.79203 0
M  V30 14958 H 1397.91 1.83623 -2.65485 0
M  V30 14959 H 1396.97 -0.299822 -3.79217 0
M  V30 14960 H 1398.28 -0.174043 -4.98496 0
M  V30 14961 H 1397.43 2.06953 -5.70312 0
M  V30 14962 H 1396.17 2.02022 -4.4389 0
M  V30 14963 H 1395.18 -0.0269371 -5.49793 0
M  V30 14964 H 1396.4 0.0414285 -6.79087 0
M  V30 14965 H 1394.35 2.20066 -6.17986 0
M  V30 14966 H 1394.26 1.06318 -7.48487 0
M  V30 14967 H 1395.53 2.25215 -7.46256 0
M  V30 14968 N 1399.76 1.54172 -0.326923 0
M  V30 14969 C 1400.99 2.04747 0.276107 0
M  V30 14970 C 1401.4 1.20251 1.4607 0
M  V30 14971 O 1400.74 0.226753 1.82295 0
M  V30 14972 C 1400.8 3.51143 0.770651 0
M  V30 14973 C 1400.47 4.56066 -0.292079 0
M  V30 14974 C 1401.46 5.07487 -1.12928 0
M  V30 14975 C 1399.15 5.00358 -0.441232 0
M  V30 14976 C 1401.14 6.01767 -2.10133 0
M  V30 14977 C 1398.83 5.94452 -1.4167 0
M  V30 14978 C 1399.83 6.45042 -2.24521 0
M  V30 14979 O 1399.52 7.37288 -3.20409 0
M  V30 14980 H 1399.25 0.673322 0.0601144 0
M  V30 14981 H 1401.8 1.99899 -0.472176 0
M  V30 14982 H 1400.03 3.53399 1.5699 0
M  V30 14983 H 1401.72 3.84775 1.2924 0
M  V30 14984 H 1402.49 4.74044 -1.02505 0
M  V30 14985 H 1398.37 4.60593 0.193767 0
M  V30 14986 H 1401.91 6.41178 -2.74839 0
M  V30 14987 H 1397.81 6.27311 -1.52155 0
M  V30 14988 H 1398.58 7.55171 -3.15687 0
M  V30 14989 N 1401.24 0.0551678 1.57503 0
M  V30 14990 C 1402.65 -0.479948 1.80426 0
M  V30 14991 C 1403 -1.70673 0.967733 0
M  V30 14992 O 1402.13 -2.15604 0.185462 0
M  V30 14993 C 1402.72 -0.877496 3.27239 0
M  V30 14994 C 1401.28 -1.35757 3.51066 0
M  V30 14995 C 1400.43 -0.334681 2.75273 0
M  V30 14996 H 1403.38 0.281016 1.56192 0
M  V30 14997 H 1403.4 -1.74013 3.38378 0
M  V30 14998 H 1402.91 0.015571 3.88097 0
M  V30 14999 H 1401.01 -2.26969 2.95492 0
M  V30 15000 H 1401.12 -1.34697 4.59776 0
M  V30 15001 H 1399.49 -0.808421 2.4153 0
M  V30 15002 H 1400.27 0.550369 3.3886 0
M  V30 15003 N 1402.72 -1.56081 -0.218252 0
M  V30 15004 C 1403.66 -1.93544 -1.2901 0
M  V30 15005 C 1404.66 -0.817886 -1.48348 0
M  V30 15006 O 1405.86 -1.00274 -1.49483 0
M  V30 15007 H 1402.24 -0.61511 -0.432601 0
M  V30 15008 H 1404.21 -2.82975 -0.946966 0
M  V30 15009 C 1402.96 -2.27134 -2.63259 0
M  V30 15010 H 1402.28 -3.12643 -2.49188 0
M  V30 15011 H 1403.72 -2.57228 -3.3706 0
M  V30 15012 C 1402.18 -1.09764 -3.18518 0
M  V30 15013 O 1402.71 -0.360501 -4.00079 0
M  V30 15014 N 1400.92 -0.880589 -2.76937 0
M  V30 15015 H 1400.46 -1.48175 -2.10718 0
M  V30 15016 H 1400.42 -0.0970234 -3.1425 0
M  V30 15017 N 1404.2 0.485086 -1.49949 0
M  V30 15018 C 1405.16 1.56713 -1.67253 0
M  V30 15019 C 1406.16 1.51329 -0.543701 0
M  V30 15020 O 1407.35 1.54198 -0.810472 0
M  V30 15021 C 1404.48 2.9636 -1.68475 0
M  V30 15022 H 1405.67 1.42693 -2.63778 0
M  V30 15023 H 1403.23 0.710473 -1.39219 0
M  V30 15024 H 1403.96 3.1584 -0.735924 0
M  V30 15025 H 1403.75 3.01675 -2.50469 0
M  V30 15026 H 1405.24 3.74945 -1.83865 0
M  V30 15027 N 1405.67 1.39291 0.737279 0
M  V30 15028 C 1406.58 1.40098 1.88175 0
M  V30 15029 C 1407.6 0.296053 1.71463 0
M  V30 15030 O 1408.78 0.537153 1.94105 0
M  V30 15031 C 1405.84 1.24071 3.2374 0
M  V30 15032 C 1404.9 2.44515 3.52861 0
M  V30 15033 C 1404.13 2.29243 4.81958 0
M  V30 15034 O 1404.36 1.2947 5.55512 0
M  V30 15035 O 1403.29 3.18178 5.10927 0
M  V30 15036 H 1407.12 2.36565 1.90449 0
M  V30 15037 H 1404.7 1.20382 0.884786 0
M  V30 15038 H 1406.58 1.17257 4.04758 0
M  V30 15039 H 1405.26 0.30698 3.22241 0
M  V30 15040 H 1404.17 2.56905 2.71939 0
M  V30 15041 H 1405.5 3.36573 3.59137 0
M  V30 15042 N 1407.15 -0.967221 1.24429 0
M  V30 15043 C 1408.08 -2.07966 1.06172 0
M  V30 15044 C 1409.06 -1.70081 -0.0254566 0
M  V30 15045 O 1410.25 -1.93682 0.141705 0
M  V30 15046 C 1407.38 -3.4085 0.666251 0
M  V30 15047 C 1406.33 -3.92692 1.70225 0
M  V30 15048 C 1405.66 -5.21925 1.16183 0
M  V30 15049 C 1406.96 -4.20478 3.09831 0
M  V30 15050 H 1408.65 -2.23497 1.99222 0
M  V30 15051 H 1406.2 -1.07398 0.959255 0
M  V30 15052 H 1408.15 -4.1811 0.52552 0
M  V30 15053 H 1406.87 -3.2522 -0.299939 0
M  V30 15054 H 1405.53 -3.17588 1.83121 0
M  V30 15055 H 1405.18 -5.02655 0.186237 0
M  V30 15056 H 1404.88 -5.57579 1.85416 0
M  V30 15057 H 1406.41 -6.01795 1.03323 0
M  V30 15058 H 1407.82 -4.88442 3.00162 0
M  V30 15059 H 1406.22 -4.67362 3.7642 0
M  V30 15060 H 1407.29 -3.27235 3.57834 0
M  V30 15061 N 1408.63 -1.05812 -1.16797 0
M  V30 15062 C 1409.59 -0.668766 -2.19226 0
M  V30 15063 C 1410.59 0.28299 -1.5829 0
M  V30 15064 O 1411.78 0.0660233 -1.74075 0
M  V30 15065 C 1408.91 0.0167379 -3.40896 0
M  V30 15066 H 1410.11 -1.57543 -2.55187 0
M  V30 15067 H 1407.66 -0.852753 -1.30988 0
M  V30 15068 H 1408.4 0.936382 -3.10487 0
M  V30 15069 H 1408.18 -0.667576 -3.86375 0
M  V30 15070 H 1409.67 0.275041 -4.16693 0
M  V30 15071 N 1410.11 1.33347 -0.840014 0
M  V30 15072 C 1411.35 1.98447 -0.446154 0
M  V30 15073 C 1411.71 1.65334 0.984 0
M  V30 15074 O 1411 0.923523 1.67874 0
M  V30 15075 C 1411.2 3.52239 -0.605173 0
M  V30 15076 C 1411.02 4.00295 -2.04923 0
M  V30 15077 C 1409.79 4.28079 -2.68471 0
M  V30 15078 C 1411.99 4.16431 -3.0181 0
M  V30 15079 N 1409.97 4.62283 -4.0394 0
M  V30 15080 C 1411.35 4.54008 -4.22229 0
M  V30 15081 C 1413.4 3.98724 -2.982 0
M  V30 15082 C 1412.1 4.75727 -5.39515 0
M  V30 15083 C 1414.13 4.21619 -4.14718 0
M  V30 15084 C 1413.49 4.59499 -5.33892 0
M  V30 15085 H 1409.59 0.752797 -0.211707 0
M  V30 15086 H 1412.17 1.61443 -1.08832 0
M  V30 15087 H 1410.35 3.88399 0.00719937 0
M  V30 15088 H 1412.08 4.04288 -0.182645 0
M  V30 15089 H 1408.83 4.1961 -2.196 0
M  V30 15090 H 1409.26 4.83594 -4.73779 0
M  V30 15091 H 1413.9 3.68553 -2.07193 0
M  V30 15092 H 1411.62 5.04759 -6.31066 0
M  V30 15093 H 1415.2 4.09437 -4.13343 0
M  V30 15094 H 1414.08 4.76863 -6.22553 0
M  V30 15095 N 1411.59 0.596556 1.45873 0
M  V30 15096 C 1412.83 0.090321 2.042 0
M  V30 15097 C 1413.19 -1.25123 1.45631 0
M  V30 15098 O 1414.39 -1.84752 1.95243 0
M  V30 15099 C 1412.66 0.0400377 3.57378 0
M  V30 15100 S 1414.22 -0.40661 4.36912 0
M  V30 15101 H 1411.04 0.0441976 0.709625 0
M  V30 15102 H 1413.64 0.792175 1.78731 0
M  V30 15103 H 1412.34 1.02013 3.97519 0
M  V30 15104 H 1411.88 -0.684156 3.87405 0
M  V30 15105 H 1413.89 -1.65849 4.67663 0
M  V30 15106 N 1413.06 -1.53996 0.335095 0
M  V30 15107 C 1414 -2.22258 -0.559809 0
M  V30 15108 C 1415.01 -1.22636 -1.07071 0
M  V30 15109 O 1416.2 -1.4904 -0.982312 0
M  V30 15110 C 1413.3 -2.88256 -1.78218 0
M  V30 15111 C 1412.47 -4.14118 -1.40801 0
M  V30 15112 C 1411.53 -4.63603 -2.48915 0
M  V30 15113 O 1410.56 -5.28015 -2.12576 0
M  V30 15114 N 1411.76 -4.3881 -3.80034 0
M  V30 15115 H 1414.52 -2.9969 0.0247521 0
M  V30 15116 H 1412.08 -1.61119 0.158826 0
M  V30 15117 H 1414.08 -3.1828 -2.4996 0
M  V30 15118 H 1412.65 -2.14461 -2.27431 0
M  V30 15119 H 1411.87 -3.90732 -0.521729 0
M  V30 15120 H 1413.15 -4.96005 -1.13388 0
M  V30 15121 H 1412.55 -3.87278 -4.12349 0
M  V30 15122 H 1411.11 -4.73461 -4.47971 0
M  V30 15123 N 1414.54 -0.0635198 -1.57472 0
M  V30 15124 C 1415.45 0.921531 -2.15743 0
M  V30 15125 C 1416.47 1.33294 -1.11842 0
M  V30 15126 O 1417.64 1.40733 -1.4407 0
M  V30 15127 C 1414.71 2.17378 -2.70088 0
M  V30 15128 C 1413.77 1.81956 -3.88832 0
M  V30 15129 C 1413 3.01211 -4.40577 0
M  V30 15130 O 1413.23 4.14971 -3.9135 0
M  V30 15131 O 1412.16 2.81507 -5.32012 0
M  V30 15132 H 1415.99 0.455899 -3.00259 0
M  V30 15133 H 1413.57 0.159085 -1.48551 0
M  V30 15134 H 1415.45 2.90826 -3.04956 0
M  V30 15135 H 1414.13 2.63055 -1.88637 0
M  V30 15136 H 1413.03 1.05786 -3.58832 0
M  V30 15137 H 1414.37 1.41069 -4.71551 0
M  V30 15138 N 1416.02 1.56195 0.209972 0
M  V30 15139 C 1416.93 1.96539 1.28101 0
M  V30 15140 C 1417.95 0.870858 1.50639 0
M  V30 15141 O 1419.12 1.17539 1.63544 0
M  V30 15142 C 1416.19 2.28392 2.60841 0
M  V30 15143 C 1415.25 3.51474 2.46505 0
M  V30 15144 C 1414.48 3.81798 3.72915 0
M  V30 15145 O 1414.7 3.13627 4.76439 0
M  V30 15146 O 1413.64 4.75264 3.69334 0
M  V30 15147 H 1417.46 2.87838 0.968671 0
M  V30 15148 H 1415.05 1.43556 0.413777 0
M  V30 15149 H 1416.93 2.50022 3.39215 0
M  V30 15150 H 1415.61 1.40264 2.91732 0
M  V30 15151 H 1414.51 3.35109 1.66292 0
M  V30 15152 H 1415.85 4.40021 2.2055 0
M  V30 15153 N 1417.5 -0.477127 1.50204 0
M  V30 15154 C 1418.45 -1.57334 1.65015 0
M  V30 15155 C 1419.43 -1.52771 0.504953 0
M  V30 15156 O 1420.62 -1.59897 0.759072 0
M  V30 15157 C 1417.75 -2.95815 1.74208 0
M  V30 15158 C 1416.84 -3.05284 2.94385 0
M  V30 15159 N 1417.23 -2.84582 4.18147 0
M  V30 15160 C 1415.53 -3.36413 2.92817 0
M  V30 15161 C 1416.23 -2.98859 4.99057 0
M  V30 15162 N 1415.2 -3.28794 4.32892 0
M  V30 15163 H 1419.01 -1.40018 2.58403 0
M  V30 15164 H 1416.52 -0.68374 1.47305 0
M  V30 15165 H 1418.52 -3.74627 1.82921 0
M  V30 15166 H 1417.18 -3.14182 0.819746 0
M  V30 15167 H 1418.19 -2.60282 4.47743 0
M  V30 15168 H 1414.87 -3.60806 2.1006 0
M  V30 15169 H 1416.26 -2.87144 6.07452 0
M  V30 15170 N 1418.98 -1.3968 -0.729882 0
M  V30 15171 C 1419.92 -1.38808 -1.84393 0
M  V30 15172 C 1420.89 -0.247035 -1.64253 0
M  V30 15173 O 1422.08 -0.44293 -1.85588 0
M  V30 15174 C 1419.22 -1.2424 -3.2196 0
M  V30 15175 C 1418.33 -2.47932 -3.53771 0
M  V30 15176 C 1417.47 -2.25913 -4.80767 0
M  V30 15177 C 1416.51 -3.45254 -5.05436 0
M  V30 15178 N 1415.64 -3.2252 -6.23638 0
M  V30 15179 H 1420.48 -2.34038 -1.84473 0
M  V30 15180 H 1418.02 -1.16252 -0.901332 0
M  V30 15181 H 1419.98 -1.13804 -4.01378 0
M  V30 15182 H 1418.61 -0.326375 -3.21146 0
M  V30 15183 H 1417.66 -2.68952 -2.69015 0
M  V30 15184 H 1418.97 -3.36806 -3.67917 0
M  V30 15185 H 1418.13 -2.12748 -5.68175 0
M  V30 15186 H 1416.86 -1.34441 -4.68804 0
M  V30 15187 H 1415.87 -3.58912 -4.16488 0
M  V30 15188 H 1417.09 -4.37634 -5.19282 0
M  V30 15189 H 1415.04 -2.33718 -6.12953 0
M  V30 15190 H 1414.96 -4.04954 -6.38395 0
M  V30 15191 H 1416.23 -3.1306 -7.13872 0
M  V30 15192 N 1420.45 0.960609 -1.2494 0
M  V30 15193 C 1421.4 2.07763 -1.04581 0
M  V30 15194 C 1422.4 1.69386 0.0214505 0
M  V30 15195 O 1423.6 1.79503 -0.133683 0
M  V30 15196 H 1419.98 0.679944 -0.321216 0
M  V30 15197 H 1421.95 2.22094 -1.99291 0
M  V30 15198 C 1420.7 3.41088 -0.674876 0
M  V30 15199 H 1420.02 3.71082 -1.4879 0
M  V30 15200 H 1421.46 4.20123 -0.572079 0
M  V30 15201 C 1419.92 3.31172 0.6186 0
M  V30 15202 O 1420.45 3.65688 1.66238 0
M  V30 15203 N 1418.66 2.84297 0.601984 0
M  V30 15204 H 1418.2 2.56406 -0.24778 0
M  V30 15205 H 1418.16 2.78045 1.4676 0
M  V30 15206 N 1421.93 1.0643 1.16234 0
M  V30 15207 C 1422.86 0.634274 2.20249 0
M  V30 15208 C 1423.88 -0.308432 1.59852 0
M  V30 15209 O 1425.07 -0.0992067 1.78224 0
M  V30 15210 C 1422.17 -0.0901593 3.3878 0
M  V30 15211 C 1421.34 0.866379 4.28734 0
M  V30 15212 C 1420.4 0.180942 5.25889 0
M  V30 15213 O 1419.42 0.819034 5.63277 0
M  V30 15214 N 1420.63 -1.07698 5.70422 0
M  V30 15215 H 1423.39 1.52901 2.57762 0
M  V30 15216 H 1420.95 0.947789 1.31258 0
M  V30 15217 H 1422.94 -0.559147 4.00819 0
M  V30 15218 H 1421.51 -0.886715 2.9976 0
M  V30 15219 H 1420.73 1.51471 3.63937 0
M  V30 15220 H 1422.02 1.51524 4.85714 0
M  V30 15221 H 1421.42 -1.6155 5.42142 0
M  V30 15222 H 1419.98 -1.48981 6.34545 0
M  V30 15223 N 1423.41 -1.329 0.847073 0
M  V30 15224 C 1424.66 -1.9712 0.445872 0
M  V30 15225 C 1424.98 -1.67398 -1.00014 0
M  V30 15226 O 1424.25 -0.977204 -1.69787 0
M  V30 15227 H 1422.83 -0.729247 0.161887 0
M  V30 15228 H 1425.49 -1.62118 1.08184 0
M  V30 15229 H 1424.59 -3.06575 0.584676 0
M  V30 15230 N 1424.89 -0.604284 -1.45555 0
M  V30 15231 C 1426.12 -0.104301 -2.06337 0
M  V30 15232 C 1426.53 1.21523 -1.45013 0
M  V30 15233 O 1425.87 1.75039 -0.557422 0
M  V30 15234 C 1425.93 0.113202 -3.59322 0
M  V30 15235 C 1425.6 -1.12402 -4.42961 0
M  V30 15236 C 1426.59 -2.04136 -4.78147 0
M  V30 15237 C 1424.28 -1.35192 -4.83765 0
M  V30 15238 C 1426.27 -3.16991 -5.52988 0
M  V30 15239 C 1423.96 -2.48348 -5.5836 0
M  V30 15240 C 1424.96 -3.39076 -5.92888 0
M  V30 15241 O 1424.64 -4.50264 -6.65971 0
M  V30 15242 H 1424.38 -0.0644639 -0.672919 0
M  V30 15243 H 1426.93 -0.830982 -1.8784 0
M  V30 15244 H 1425.16 0.894739 -3.76206 0
M  V30 15245 H 1426.85 0.564372 -4.01957 0
M  V30 15246 H 1427.62 -1.87753 -4.47184 0
M  V30 15247 H 1423.49 -0.654731 -4.56327 0
M  V30 15248 H 1427.04 -3.87831 -5.79856 0
M  V30 15249 H 1422.94 -2.64686 -5.88737 0
M  V30 15250 H 1423.7 -4.48904 -6.84418 0
M  V30 15251 N 1426.37 1.53816 -0.343257 0
M  V30 15252 C 1427.6 2.05028 0.254375 0
M  V30 15253 C 1428 1.21793 1.44786 0
M  V30 15254 O 1427.35 0.246075 1.82044 0
M  V30 15255 C 1427.41 3.5194 0.733364 0
M  V30 15256 C 1427.07 4.5573 -0.340434 0
M  V30 15257 C 1428.07 5.06261 -1.18304 0
M  V30 15258 C 1425.76 4.99862 -0.494277 0
M  V30 15259 C 1427.75 5.99504 -2.16503 0
M  V30 15260 C 1425.44 5.92916 -1.47967 0
M  V30 15261 C 1426.43 6.42625 -2.3135 0
M  V30 15262 O 1426.12 7.33848 -3.28211 0
M  V30 15263 H 1425.85 0.673922 0.0529695 0
M  V30 15264 H 1428.41 1.99387 -0.493352 0
M  V30 15265 H 1426.64 3.55044 1.53233 0
M  V30 15266 H 1428.33 3.86124 1.25151 0
M  V30 15267 H 1429.09 4.7293 -1.07527 0
M  V30 15268 H 1424.97 4.60772 0.144904 0
M  V30 15269 H 1428.52 6.38227 -2.81624 0
M  V30 15270 H 1424.41 6.25662 -1.588 0
M  V30 15271 H 1425.18 7.51781 -3.23679 0
M  V30 15272 N 1427.84 0.0718701 1.57436 0
M  V30 15273 C 1429.12 -0.638233 1.84894 0
M  V30 15274 C 1429.5 -1.87786 0.964343 0
M  V30 15275 O 1428.85 -2.28479 0.0306523 0
M  V30 15276 C 1429.06 -0.975817 3.3508 0
M  V30 15277 C 1430.41 -1.34927 4.02591 0
M  V30 15278 O 1431.43 -1.06754 3.39826 0
M  V30 15279 O 1430.29 -1.87589 5.13296 0
M  V30 15280 H 1427.38 -0.317 0.763832 0
M  V30 15281 H 1429.93 0.102807 1.69388 0
M  V30 15282 H 1428.7 -0.0953948 3.91184 0
M  V30 15283 H 1428.33 -1.77362 3.55849 0
M  V30 15284 N 1429.32 -1.56304 -0.201686 0
M  V30 15285 C 1430.55 -1.84074 -0.938103 0
M  V30 15286 C 1430.96 -0.651377 -1.77634 0
M  V30 15287 O 1430.3 0.389278 -1.79528 0
M  V30 15288 C 1430.37 -3.05856 -1.88924 0
M  V30 15289 C 1430.03 -4.40036 -1.2336 0
M  V30 15290 C 1431.03 -5.16265 -0.613737 0
M  V30 15291 C 1428.71 -4.86768 -1.23942 0
M  V30 15292 C 1430.71 -6.37399 -0.00844569 0
M  V30 15293 C 1428.39 -6.07841 -0.630296 0
M  V30 15294 C 1429.39 -6.82998 -0.0158799 0
M  V30 15295 O 1429.08 -8.01778 0.58372 0
M  V30 15296 H 1428.81 -0.615492 -0.279545 0
M  V30 15297 H 1431.36 -2.04262 -0.215938 0
M  V30 15298 H 1429.59 -2.81536 -2.65093 0
M  V30 15299 H 1431.28 -3.20328 -2.49289 0
M  V30 15300 H 1432.05 -4.81257 -0.601424 0
M  V30 15301 H 1427.93 -4.2823 -1.70705 0
M  V30 15302 H 1431.47 -6.96003 0.47174 0
M  V30 15303 H 1427.37 -6.42319 -0.640089 0
M  V30 15304 H 1428.14 -8.17091 0.479979 0
M  V30 15305 N 1430.8 0.469154 -1.50455 0
M  V30 15306 C 1432.05 1.2229 -1.6178 0
M  V30 15307 C 1432.38 1.91577 -0.318073 0
M  V30 15308 O 1431.65 1.82205 0.68057 0
M  V30 15309 C 1431.94 2.26504 -2.79943 0
M  V30 15310 C 1431.79 1.61509 -4.19804 0
M  V30 15311 C 1433.11 3.27796 -2.93662 0
M  V30 15312 H 1430.23 0.443241 -0.588817 0
M  V30 15313 H 1432.87 0.516431 -1.82847 0
M  V30 15314 H 1431.02 2.86757 -2.62112 0
M  V30 15315 H 1432.69 1.04838 -4.49229 0
M  V30 15316 H 1430.94 0.918162 -4.23972 0
M  V30 15317 H 1431.61 2.37248 -4.98415 0
M  V30 15318 H 1434.08 2.77568 -3.09992 0
M  V30 15319 H 1432.96 3.98041 -3.77961 0
M  V30 15320 H 1433.22 3.92033 -2.04359 0
M  V30 15321 N 1432.28 1.40065 0.722464 0
M  V30 15322 C 1433.23 1.39784 1.83655 0
M  V30 15323 C 1434.2 0.255743 1.64119 0
M  V30 15324 O 1435.38 0.452766 1.8535 0
M  V30 15325 C 1432.52 1.25946 3.21297 0
M  V30 15326 C 1431.63 2.49805 3.52451 0
M  V30 15327 C 1430.77 2.2846 4.79562 0
M  V30 15328 C 1429.81 3.4793 5.03598 0
M  V30 15329 N 1428.94 3.25823 6.21919 0
M  V30 15330 H 1433.78 2.35013 1.83229 0
M  V30 15331 H 1431.32 1.16728 0.895154 0
M  V30 15332 H 1433.28 1.15931 4.00769 0
M  V30 15333 H 1431.91 0.343402 3.20968 0
M  V30 15334 H 1430.96 2.70375 2.67585 0
M  V30 15335 H 1432.27 3.38753 3.66126 0
M  V30 15336 H 1431.43 2.15758 5.67039 0
M  V30 15337 H 1430.17 1.36926 4.68084 0
M  V30 15338 H 1429.17 3.61116 4.14579 0
M  V30 15339 H 1430.4 4.40382 5.16953 0
M  V30 15340 H 1428.34 2.36965 6.11705 0
M  V30 15341 H 1428.26 4.08333 6.36239 0
M  V30 15342 H 1429.53 3.16841 7.12202 0
M  V30 15343 N 1433.76 -0.95397 1.25448 0
M  V30 15344 C 1435.17 -1.51337 1.09335 0
M  V30 15345 C 1435.52 -1.93393 -0.330698 0
M  V30 15346 O 1434.64 -1.78681 -1.22074 0
M  V30 15347 C 1435.24 -2.75024 1.97857 0
M  V30 15348 C 1433.8 -3.27274 1.85927 0
M  V30 15349 C 1432.95 -2.00108 1.91969 0
M  V30 15350 H 1435.9 -0.770795 1.38724 0
M  V30 15351 H 1435.92 -3.48867 1.51894 0
M  V30 15352 H 1435.43 -2.44383 3.01494 0
M  V30 15353 H 1433.53 -3.62734 0.851767 0
M  V30 15354 H 1433.64 -3.95245 2.70773 0
M  V30 15355 H 1432.01 -2.15438 1.35862 0
M  V30 15356 H 1432.79 -1.71816 2.97211 0
M  V30 15357 N 1435.24 -1.07045 -1.15668 0
M  V30 15358 C 1436.65 -0.795369 -1.38369 0
M  V30 15359 C 1436.85 0.601829 -1.92303 0
M  V30 15360 O 1435.91 1.36109 -2.12675 0
M  V30 15361 C 1437.22 -1.86659 -2.35752 0
M  V30 15362 C 1438.77 -1.89098 -2.49421 0
M  V30 15363 C 1439.24 -2.95296 -3.50092 0
M  V30 15364 N 1440.73 -2.94378 -3.57625 0
M  V30 15365 C 1441.47 -3.73194 -4.35331 0
M  V30 15366 N 1440.97 -4.61851 -5.16397 0
M  V30 15367 N 1442.76 -3.61554 -4.30389 0
M  V30 15368 H 1434.91 -1.97162 -0.790004 0
M  V30 15369 H 1437.17 -0.854816 -0.40987 0
M  V30 15370 H 1436.88 -2.87036 -2.03232 0
M  V30 15371 H 1436.75 -1.72406 -3.35494 0
M  V30 15372 H 1439.14 -0.893752 -2.8124 0
M  V30 15373 H 1439.22 -2.07429 -1.49689 0
M  V30 15374 H 1438.86 -3.95217 -3.19008 0
M  V30 15375 H 1438.79 -2.74212 -4.49572 0
M  V30 15376 H 1441.29 -2.3011 -2.99763 0
M  V30 15377 H 1441.6 -5.18629 -5.72926 0
M  V30 15378 H 1439.94 -4.65902 -5.15714 0
M  V30 15379 H 1443.13 -2.91672 -3.66122 0
M  V30 15380 H 1443.31 -4.23221 -4.90701 0
M  V30 15381 N 1436.71 1.32449 -0.85411 0
M  V30 15382 C 1437.64 2.31383 -0.313697 0
M  V30 15383 C 1438.62 1.59656 0.586858 0
M  V30 15384 O 1439.81 1.87459 0.507216 0
M  V30 15385 C 1436.94 3.43693 0.499235 0
M  V30 15386 C 1435.89 4.26899 -0.306839 0
M  V30 15387 C 1435.22 5.30966 0.630795 0
M  V30 15388 C 1436.52 4.99318 -1.53229 0
M  V30 15389 H 1438.21 2.76832 -1.14037 0
M  V30 15390 H 1435.76 1.33091 -0.549805 0
M  V30 15391 H 1437.71 4.11944 0.887709 0
M  V30 15392 H 1436.44 2.96971 1.35926 0
M  V30 15393 H 1435.1 3.60294 -0.677061 0
M  V30 15394 H 1434.74 4.80498 1.48765 0
M  V30 15395 H 1434.44 5.87522 0.0954635 0
M  V30 15396 H 1435.97 6.0208 1.01646 0
M  V30 15397 H 1437.38 5.60253 -1.21614 0
M  V30 15398 H 1435.78 5.65596 -2.00552 0
M  V30 15399 H 1436.85 4.27213 -2.29383 0
M  V30 15400 N 1438.19 0.611994 1.45232 0
M  V30 15401 C 1439.61 0.276005 1.57195 0
M  V30 15402 C 1439.81 -1.22136 1.60266 0
M  V30 15403 O 1438.86 -2.00459 1.53533 0
M  V30 15404 C 1440.18 0.951064 2.85263 0
M  V30 15405 C 1441.72 0.927398 2.98945 0
M  V30 15406 C 1442.2 1.58255 4.2979 0
M  V30 15407 N 1443.69 1.54825 4.36559 0
M  V30 15408 C 1444.43 2.02428 5.3648 0
M  V30 15409 N 1443.92 2.58137 6.42913 0
M  V30 15410 N 1445.71 1.9317 5.27865 0
M  V30 15411 H 1437.87 1.58418 1.41483 0
M  V30 15412 H 1440.13 0.663879 0.676734 0
M  V30 15413 H 1439.83 2.00557 2.88912 0
M  V30 15414 H 1439.71 0.477044 3.74171 0
M  V30 15415 H 1442.1 -0.118571 2.94862 0
M  V30 15416 H 1442.18 1.43973 2.11437 0
M  V30 15417 H 1441.82 2.62787 4.34632 0
M  V30 15418 H 1441.75 1.04521 5.16123 0
M  V30 15419 H 1444.24 1.14133 3.60253 0
M  V30 15420 H 1444.55 2.92243 7.15412 0
M  V30 15421 H 1442.9 2.62179 6.43652 0
M  V30 15422 H 1446.09 1.49384 4.43624 0
M  V30 15423 H 1446.26 2.30582 6.05587 0
M  V30 15424 N 1439.67 -1.53632 0.351409 0
M  V30 15425 C 1440.9 -2.05458 -0.243852 0
M  V30 15426 C 1441.31 -1.22588 -1.43589 0
M  V30 15427 O 1440.67 -0.263088 -1.80594 0
M  V30 15428 C 1440.72 -3.55586 -0.651226 0
M  V30 15429 O 1440.44 -4.35313 0.493415 0
M  V30 15430 C 1441.94 -4.23614 -1.30637 0
M  V30 15431 H 1439.16 -0.669443 -0.0456828 0
M  V30 15432 H 1441.71 -1.98149 0.505675 0
M  V30 15433 H 1439.86 -3.63091 -1.35068 0
M  V30 15434 H 1440.28 -5.24234 0.167107 0
M  V30 15435 H 1441.75 -5.30022 -1.5421 0
M  V30 15436 H 1442.23 -3.76449 -2.26236 0
M  V30 15437 H 1442.83 -4.20323 -0.648738 0
M  V30 15438 N 1441.15 -0.0802183 -1.57396 0
M  V30 15439 C 1442.38 0.595754 -1.98137 0
M  V30 15440 C 1442.79 1.62638 -0.958871 0
M  V30 15441 O 1442.15 1.82422 0.0534316 0
M  V30 15442 C 1442.2 1.2568 -3.38949 0
M  V30 15443 O 1441.92 0.267417 -4.37283 0
M  V30 15444 C 1443.42 2.0198 -3.94612 0
M  V30 15445 H 1440.64 0.160853 -0.651435 0
M  V30 15446 H 1443.18 -0.155111 -2.03911 0
M  V30 15447 H 1441.34 1.9587 -3.34236 0
M  V30 15448 H 1441.75 0.742695 -5.19215 0
M  V30 15449 H 1443.23 2.43613 -4.95335 0
M  V30 15450 H 1443.7 2.87973 -3.31614 0
M  V30 15451 H 1444.31 1.36639 -4.02753 0
M  V30 15452 N 1442.63 1.56409 0.193394 0
M  V30 15453 C 1443.87 1.79919 0.911712 0
M  V30 15454 C 1444.19 0.653729 1.84352 0
M  V30 15455 O 1445.39 0.773172 2.60258 0
M  V30 15456 C 1443.85 3.18726 1.67158 0
M  V30 15457 C 1443.46 4.41078 0.784512 0
M  V30 15458 C 1445.2 3.51544 2.37944 0
M  V30 15459 C 1443.11 5.70907 1.54335 0
M  V30 15460 H 1442.04 0.670864 0.344177 0
M  V30 15461 H 1444.69 1.82757 0.164967 0
M  V30 15462 H 1443.07 3.10142 2.46227 0
M  V30 15463 H 1444.25 4.60789 0.032356 0
M  V30 15464 H 1442.56 4.15978 0.187407 0
M  V30 15465 H 1445.16 4.45779 2.95271 0
M  V30 15466 H 1445.5 2.75369 3.12214 0
M  V30 15467 H 1446.03 3.61583 1.65839 0
M  V30 15468 H 1442.77 6.50052 0.843393 0
M  V30 15469 H 1442.29 5.5521 2.26939 0
M  V30 15470 H 1443.97 6.12085 2.09669 0
M  V30 15471 N 1444.1 -0.461169 1.50702 0
M  V30 15472 C 1445.33 -1.24019 1.66235 0
M  V30 15473 C 1445.75 -1.84827 0.349388 0
M  V30 15474 O 1445.11 -1.67743 -0.687888 0
M  V30 15475 C 1445.16 -2.31743 2.76274 0
M  V30 15476 O 1444.26 -3.3664 2.38217 0
M  V30 15477 H 1443.6 -0.364424 0.55506 0
M  V30 15478 H 1446.13 -0.547636 1.97135 0
M  V30 15479 H 1446.14 -2.76902 2.99649 0
M  V30 15480 H 1444.82 -1.86858 3.7156 0
M  V30 15481 H 1443.4 -2.97123 2.25327 0
M  V30 15482 N 1445.58 -1.40446 -0.715026 0
M  V30 15483 C 1447 -1.22488 -1.02317 0
M  V30 15484 C 1447.2 -0.100481 -2.01249 0
M  V30 15485 O 1446.25 0.541447 -2.46626 0
M  V30 15486 C 1447.57 -2.56682 -1.56636 0
M  V30 15487 C 1449.11 -2.63699 -1.68617 0
M  V30 15488 C 1449.59 -3.98163 -2.26342 0
M  V30 15489 N 1451.08 -3.99907 -2.33727 0
M  V30 15490 C 1451.82 -5.00737 -2.79375 0
M  V30 15491 N 1451.31 -6.11961 -3.24771 0
M  V30 15492 N 1453.1 -4.88106 -2.78764 0
M  V30 15493 H 1445.26 -2.12317 -0.0592712 0
M  V30 15494 H 1447.52 -0.943823 -0.088895 0
M  V30 15495 H 1447.22 -3.39615 -0.914036 0
M  V30 15496 H 1447.1 -2.77809 -2.55151 0
M  V30 15497 H 1449.49 -1.81138 -2.32966 0
M  V30 15498 H 1449.57 -2.46402 -0.687004 0
M  V30 15499 H 1449.21 -4.81164 -1.62614 0
M  V30 15500 H 1449.14 -4.1279 -3.26974 0
M  V30 15501 H 1451.63 -3.19592 -2.01666 0
M  V30 15502 H 1451.94 -6.84787 -3.58171 0
M  V30 15503 H 1450.29 -6.15525 -3.22729 0
M  V30 15504 H 1453.48 -4.00307 -2.42635 0
M  V30 15505 H 1453.65 -5.66828 -3.14023 0
M  V30 15506 N 1447.06 0.947303 -1.25952 0
M  V30 15507 C 1448.02 2.02667 -1.07046 0
M  V30 15508 C 1449.02 1.60787 -0.0208127 0
M  V30 15509 O 1450.21 1.72193 -0.263668 0
M  V30 15510 C 1447.34 3.35087 -0.626885 0
M  V30 15511 H 1448.54 2.20871 -2.0287 0
M  V30 15512 H 1446.09 1.12541 -1.08462 0
M  V30 15513 H 1446.83 3.22579 0.333621 0
M  V30 15514 H 1446.61 3.66835 -1.38473 0
M  V30 15515 H 1448.1 4.14397 -0.516264 0
M  V30 15516 N 1448.54 1.07657 1.15099 0
M  V30 15517 C 1449.49 0.699678 2.19939 0
M  V30 15518 C 1450.46 -0.310432 1.63173 0
M  V30 15519 O 1451.64 -0.196177 1.89789 0
M  V30 15520 C 1448.78 0.106963 3.44934 0
M  V30 15521 C 1447.89 1.16892 4.15885 0
M  V30 15522 C 1447.03 0.540884 5.28439 0
M  V30 15523 C 1446.07 1.58542 5.91211 0
M  V30 15524 N 1445.2 0.979731 6.95231 0
M  V30 15525 H 1450.04 1.59805 2.51528 0
M  V30 15526 H 1447.58 0.798746 1.23525 0
M  V30 15527 H 1449.54 -0.254335 4.16424 0
M  V30 15528 H 1448.17 -0.754756 3.13852 0
M  V30 15529 H 1447.22 1.64775 3.4286 0
M  V30 15530 H 1448.53 1.96078 4.58645 0
M  V30 15531 H 1447.69 0.127397 6.06566 0
M  V30 15532 H 1446.43 -0.282708 4.8688 0
M  V30 15533 H 1445.43 2.00865 5.11794 0
M  V30 15534 H 1446.66 2.41135 6.34847 0
M  V30 15535 H 1444.6 0.177098 6.55761 0
M  V30 15536 H 1444.52 1.70878 7.36435 0
M  V30 15537 H 1445.79 0.591849 7.7725 0
M  V30 15538 N 1450.02 -1.31994 0.861122 0
M  V30 15539 C 1451.43 -1.79271 0.521437 0
M  V30 15540 C 1451.78 -1.71046 -0.96113 0
M  V30 15541 O 1450.9 -1.2729 -1.75003 0
M  V30 15542 C 1451.5 -3.25507 0.939731 0
M  V30 15543 C 1450.06 -3.70713 0.651845 0
M  V30 15544 C 1449.2 -2.52967 1.13592 0
M  V30 15545 H 1452.16 -1.19201 1.0477 0
M  V30 15546 H 1452.18 -3.79619 0.258754 0
M  V30 15547 H 1451.69 -3.3146 2.0188 0
M  V30 15548 H 1449.79 -3.70268 -0.416232 0
M  V30 15549 H 1449.9 -4.63236 1.22267 0
M  V30 15550 H 1448.27 -2.48558 0.555971 0
M  V30 15551 H 1449.05 -2.61671 2.22223 0
M  V30 15552 N 1451.49 -0.619688 -1.44906 0
M  V30 15553 C 1452.74 -0.11981 -2.02446 0
M  V30 15554 C 1453.07 1.2509 -1.48546 0
M  V30 15555 O 1452.35 1.82781 -0.664942 0
M  V30 15556 C 1452.63 -0.0940205 -3.59977 0
M  V30 15557 C 1452.48 -1.49626 -4.24184 0
M  V30 15558 C 1453.8 0.58748 -4.36161 0
M  V30 15559 H 1450.92 -0.0450119 -0.735624 0
M  V30 15560 H 1453.56 -0.793975 -1.72615 0
M  V30 15561 H 1451.71 0.480073 -3.85522 0
M  V30 15562 H 1453.39 -2.11836 -4.09784 0
M  V30 15563 H 1451.63 -2.05348 -3.82119 0
M  V30 15564 H 1452.3 -1.43035 -5.33146 0
M  V30 15565 H 1454.78 0.0993863 -4.15981 0
M  V30 15566 H 1453.65 0.574672 -5.45883 0
M  V30 15567 H 1453.91 1.65579 -4.09922 0
M  V30 15568 N 1452.97 1.53444 -0.359552 0
M  V30 15569 C 1454.22 2.02152 0.224969 0
M  V30 15570 C 1454.57 1.24236 1.46912 0
M  V30 15571 O 1453.87 0.325976 1.88807 0
M  V30 15572 C 1454.06 3.5273 0.575863 0
M  V30 15573 C 1453.89 4.45226 -0.63273 0
M  V30 15574 C 1452.66 4.92204 -1.14296 0
M  V30 15575 C 1454.86 4.92058 -1.49611 0
M  V30 15576 N 1452.84 5.68692 -2.31221 0
M  V30 15577 C 1454.21 5.66829 -2.51208 0
M  V30 15578 C 1456.27 4.74141 -1.51969 0
M  V30 15579 C 1454.97 6.25587 -3.55012 0
M  V30 15580 C 1456.99 5.33761 -2.54663 0
M  V30 15581 C 1456.36 6.08412 -3.54984 0
M  V30 15582 H 1452.46 0.780693 0.0451987 0
M  V30 15583 H 1455.04 1.88097 -0.502735 0
M  V30 15584 H 1453.21 3.66958 1.27265 0
M  V30 15585 H 1454.94 3.88166 1.14495 0
M  V30 15586 H 1451.7 4.6827 -0.70853 0
M  V30 15587 H 1452.12 6.116 -2.90301 0
M  V30 15588 H 1456.76 4.15956 -0.757639 0
M  V30 15589 H 1454.48 6.82871 -4.32102 0
M  V30 15590 H 1458.07 5.21795 -2.57334 0
M  V30 15591 H 1456.95 6.53724 -4.33145 0
M  V30 15592 N 1454.45 0.0885642 1.57351 0
M  V30 15593 C 1455.68 -0.584389 1.98163 0
M  V30 15594 C 1456.09 -1.62664 0.966281 0
M  V30 15595 O 1455.43 -1.83623 -0.053226 0
M  V30 15596 C 1455.49 -1.2959 3.35331 0
M  V30 15597 C 1455.16 -0.405168 4.552 0
M  V30 15598 C 1456.15 0.344053 5.1876 0
M  V30 15599 C 1453.84 -0.325136 5.01247 0
M  V30 15600 C 1455.83 1.16135 6.26731 0
M  V30 15601 C 1453.52 0.495821 6.09085 0
M  V30 15602 C 1454.52 1.23772 6.71691 0
M  V30 15603 O 1454.21 2.04511 7.77451 0
M  V30 15604 H 1453.94 -0.161852 0.656338 0
M  V30 15605 H 1456.49 0.162558 2.04756 0
M  V30 15606 H 1454.72 -2.08928 3.25401 0
M  V30 15607 H 1456.41 -1.86274 3.60634 0
M  V30 15608 H 1457.18 0.291916 4.84121 0
M  V30 15609 H 1453.06 -0.892245 4.52283 0
M  V30 15610 H 1456.6 1.74093 6.75528 0
M  V30 15611 H 1452.5 0.549463 6.43157 0
M  V30 15612 H 1453.27 1.97123 7.94409 0
M  V30 15613 N 1455.93 -1.56509 -0.185096 0
M  V30 15614 C 1456.89 -1.94468 -1.21305 0
M  V30 15615 C 1457.89 -0.826838 -1.37913 0
M  V30 15616 O 1459.08 -1.09411 -1.35554 0
M  V30 15617 C 1456.21 -2.22747 -2.58063 0
M  V30 15618 H 1457.41 -2.86442 -0.888323 0
M  V30 15619 H 1454.96 -1.50354 -0.427012 0
M  V30 15620 H 1455.69 -1.33443 -2.95573 0
M  V30 15621 H 1455.48 -3.04215 -2.47378 0
M  V30 15622 H 1456.97 -2.53084 -3.32172 0
M  V30 15623 N 1457.41 0.45317 -1.50944 0
M  V30 15624 C 1458.65 1.20151 -1.62506 0
M  V30 15625 C 1458.98 1.92085 -0.335927 0
M  V30 15626 O 1458.25 1.84889 0.64751 0
M  V30 15627 H 1456.83 0.446502 -0.59887 0
M  V30 15628 H 1459.49 0.521103 -1.87804 0
M  V30 15629 H 1458.58 1.93972 -2.44502 0
M  V30 15630 N 1458.88 1.40823 0.707568 0
M  V30 15631 C 1460.3 1.23029 1.01666 0
M  V30 15632 C 1460.5 0.111152 2.01193 0
M  V30 15633 O 1459.56 -0.52836 2.4691 0
M  V30 15634 C 1460.87 2.57509 1.55272 0
M  V30 15635 C 1462.42 2.6459 1.67216 0
M  V30 15636 C 1462.89 3.99357 2.24227 0
M  V30 15637 N 1464.38 4.01141 2.31603 0
M  V30 15638 C 1465.12 5.02211 2.76715 0
M  V30 15639 N 1464.61 6.13674 3.21521 0
M  V30 15640 N 1466.41 4.89577 2.76172 0
M  V30 15641 H 1458.56 2.12346 0.0480107 0
M  V30 15642 H 1460.82 0.944281 0.0838885 0
M  V30 15643 H 1460.53 3.40095 0.896012 0
M  V30 15644 H 1460.4 2.79158 2.53674 0
M  V30 15645 H 1462.79 1.8237 2.32002 0
M  V30 15646 H 1462.87 2.46763 0.673927 0
M  V30 15647 H 1462.51 4.8202 1.6006 0
M  V30 15648 H 1462.44 4.14518 3.2478 0
M  V30 15649 H 1464.93 3.20657 1.99968 0
M  V30 15650 H 1465.25 6.86677 3.54534 0
M  V30 15651 H 1463.59 6.17228 3.1946 0
M  V30 15652 H 1466.78 4.01588 2.40509 0
M  V30 15653 H 1466.96 5.68485 3.11012 0
M  V30 15654 N 1460.36 -0.94061 1.26453 0
M  V30 15655 C 1461.64 -1.66421 1.02779 0
M  V30 15656 C 1462.02 -2.06429 -0.441614 0
M  V30 15657 O 1461.37 -1.78854 -1.42209 0
M  V30 15658 C 1461.58 -2.87599 1.97707 0
M  V30 15659 C 1462.93 -3.59237 2.26349 0
M  V30 15660 O 1463.95 -2.97704 1.95577 0
M  V30 15661 O 1462.81 -4.70068 2.78744 0
M  V30 15662 H 1459.9 -0.728813 0.390846 0
M  V30 15663 H 1462.45 -0.99229 1.37665 0
M  V30 15664 H 1461.22 -2.54929 2.96862 0
M  V30 15665 H 1460.84 -3.62516 1.63303 0
M  V30 15666 N 1461.84 -1.08266 -1.14527 0
M  V30 15667 C 1463.25 -0.832702 -1.67102 0
M  V30 15668 C 1463.6 0.640776 -1.85441 0
M  V30 15669 O 1462.73 1.49505 -1.56452 0
M  V30 15670 C 1463.32 -1.50502 -3.03537 0
M  V30 15671 C 1461.88 -1.30234 -3.53152 0
M  V30 15672 C 1461.03 -1.56873 -2.28661 0
M  V30 15673 H 1463.98 -1.24344 -0.986118 0
M  V30 15674 H 1464 -0.931426 -3.68924 0
M  V30 15675 H 1463.51 -2.57741 -2.90157 0
M  V30 15676 H 1461.61 -0.250582 -3.71756 0
M  V30 15677 H 1461.73 -2.02898 -4.34015 0
M  V30 15678 H 1460.09 -0.990214 -2.34663 0
M  V30 15679 H 1460.87 -2.65316 -2.17859 0
M  V30 15680 N 1463.32 1.31536 -0.86811 0
M  V30 15681 C 1464.28 2.26849 -0.327456 0
M  V30 15682 C 1465.28 1.52142 0.520514 0
M  V30 15683 O 1466.47 1.71044 0.330088 0
M  V30 15684 C 1463.6 3.36673 0.535174 0
M  V30 15685 H 1464.8 2.76184 -1.16886 0
M  V30 15686 H 1462.35 1.42437 -0.643545 0
M  V30 15687 H 1463.09 2.92627 1.39785 0
M  V30 15688 H 1462.87 3.92034 -0.0719835 0
M  V30 15689 H 1464.36 4.07658 0.905786 0
M  V30 15690 N 1464.8 0.627364 1.44575 0
M  V30 15691 C 1465.76 -0.0700881 2.29093 0
M  V30 15692 C 1466.76 -0.775969 1.40838 0
M  V30 15693 O 1467.95 -0.621129 1.6275 0
M  V30 15694 C 1465.08 -1.10977 3.2233 0
M  V30 15695 H 1466.28 0.673234 2.92246 0
M  V30 15696 H 1463.83 0.387322 1.51425 0
M  V30 15697 H 1464.56 -1.8832 2.64019 0
M  V30 15698 H 1464.35 -0.607587 3.87364 0
M  V30 15699 H 1465.84 -1.59764 3.8583 0
M  V30 15700 N 1466.28 -1.53251 0.367684 0
M  V30 15701 C 1467.24 -2.24423 -0.465516 0
M  V30 15702 C 1468.24 -1.25283 -1.00801 0
M  V30 15703 O 1469.43 -1.49545 -0.893424 0
M  V30 15704 C 1466.56 -2.9826 -1.65087 0
M  V30 15705 H 1467.75 -2.99487 0.157292 0
M  V30 15706 H 1465.31 -1.55843 0.119409 0
M  V30 15707 H 1466.04 -2.27443 -2.31171 0
M  V30 15708 H 1465.83 -3.71003 -1.26882 0
M  V30 15709 H 1467.32 -3.52358 -2.24128 0
M  V30 15710 N 1467.75 -0.0969077 -1.57302 0
M  V30 15711 C 1469.16 0.431942 -1.81635 0
M  V30 15712 C 1469.52 1.68047 -1.01264 0
M  V30 15713 O 1468.64 2.15036 -0.24256 0
M  V30 15714 C 1469.24 0.790426 -3.29451 0
M  V30 15715 C 1467.79 1.26401 -3.54542 0
M  V30 15716 C 1466.94 0.26158 -2.76063 0
M  V30 15717 H 1469.89 -0.322328 -1.55392 0
M  V30 15718 H 1469.91 1.64981 -3.42873 0
M  V30 15719 H 1469.43 -0.118463 -3.87919 0
M  V30 15720 H 1467.53 2.19055 -3.01406 0
M  V30 15721 H 1467.64 1.22459 -4.63185 0
M  V30 15722 H 1466 0.7441 -2.43588 0
M  V30 15723 H 1466.79 -0.640018 -3.37281 0
M  V30 15724 N 1469.23 1.56605 0.176793 0
M  V30 15725 C 1470.19 1.95109 1.20271 0
M  V30 15726 C 1471.19 0.83414 1.37473 0
M  V30 15727 O 1472.38 1.10128 1.34972 0
M  V30 15728 C 1469.52 2.24112 2.56878 0
M  V30 15729 H 1470.71 2.86909 0.87312 0
M  V30 15730 H 1468.26 1.50578 0.419033 0
M  V30 15731 H 1469 1.35009 2.94861 0
M  V30 15732 H 1468.78 3.05523 2.45761 0
M  V30 15733 H 1470.27 2.54842 3.30825 0
M  V30 15734 N 1470.71 -0.445159 1.51182 0
M  V30 15735 C 1471.94 -1.21787 1.67259 0
M  V30 15736 C 1472.35 -1.85206 0.366641 0
M  V30 15737 O 1471.71 -1.70376 -0.654095 0
M  V30 15738 C 1471.76 -2.30765 2.78262 0
M  V30 15739 O 1471.48 -1.69942 4.03796 0
M  V30 15740 C 1472.98 -3.21186 3.05539 0
M  V30 15741 H 1470.2 -0.367364 0.561502 0
M  V30 15742 H 1472.75 -0.528415 1.97555 0
M  V30 15743 H 1470.9 -2.9544 2.50587 0
M  V30 15744 H 1471.32 -2.41905 4.65384 0
M  V30 15745 H 1472.79 -3.93805 3.8681 0
M  V30 15746 H 1473.27 -3.81487 2.17634 0
M  V30 15747 H 1473.87 -2.62221 3.34844 0
M  V30 15748 N 1472.19 -1.41197 -0.700089 0
M  V30 15749 C 1473.44 -1.40034 -1.45722 0
M  V30 15750 C 1473.76 -0.00876281 -1.94998 0
M  V30 15751 O 1473.03 0.948647 -1.71399 0
M  V30 15752 H 1471.61 -0.515433 -0.540683 0
M  V30 15753 H 1474.27 -1.76394 -0.828926 0
M  V30 15754 H 1473.36 -2.08477 -2.32258 0
M  V30 15755 N 1473.67 0.933891 -1.2695 0
M  V30 15756 C 1474.61 2.05498 -1.08964 0
M  V30 15757 C 1475.61 1.69394 -0.0144837 0
M  V30 15758 O 1476.81 1.79179 -0.171729 0
M  V30 15759 H 1473.19 0.672978 -0.335566 0
M  V30 15760 H 1475.16 2.17817 -2.03957 0
M  V30 15761 C 1473.91 3.39579 -0.747074 0
M  V30 15762 H 1473.23 3.67842 -1.56628 0
M  V30 15763 H 1474.67 4.18815 -0.661064 0
M  V30 15764 C 1473.13 3.3241 0.548214 0
M  V30 15765 O 1473.66 3.69132 1.58443 0
M  V30 15766 N 1471.87 2.85509 0.541545 0
M  V30 15767 H 1471.41 2.55822 -0.302112 0
M  V30 15768 H 1471.37 2.81095 1.4083 0
M  V30 15769 N 1475.14 1.08871 1.13951 0
M  V30 15770 C 1476.09 0.722966 2.19184 0
M  V30 15771 C 1477.06 -0.293108 1.63493 0
M  V30 15772 O 1478.25 -0.176036 1.89986 0
M  V30 15773 C 1475.39 0.143542 3.44801 0
M  V30 15774 C 1474.5 1.21297 4.14622 0
M  V30 15775 C 1473.63 0.596902 5.27836 0
M  V30 15776 C 1472.67 1.64803 5.89497 0
M  V30 15777 N 1471.81 1.05341 6.94152 0
M  V30 15778 H 1476.65 1.62464 2.49819 0
M  V30 15779 H 1474.19 0.811803 1.22671 0
M  V30 15780 H 1476.14 -0.210153 4.1667 0
M  V30 15781 H 1474.77 -0.721426 3.14635 0
M  V30 15782 H 1473.83 1.68403 3.41093 0
M  V30 15783 H 1475.14 2.00931 4.56539 0
M  V30 15784 H 1474.29 0.191724 6.06397 0
M  V30 15785 H 1473.03 -0.231052 4.87152 0
M  V30 15786 H 1472.04 2.06282 5.09635 0
M  V30 15787 H 1473.26 2.47855 6.32254 0
M  V30 15788 H 1471.21 0.24664 6.55536 0
M  V30 15789 H 1471.12 1.7868 7.34581 0
M  V30 15790 H 1472.39 0.674253 7.76578 0
M  V30 15791 N 1476.62 -1.31073 0.875073 0
M  V30 15792 C 1477.57 -2.28389 0.332718 0
M  V30 15793 C 1478.54 -1.55954 -0.571639 0
M  V30 15794 O 1479.72 -1.84073 -0.502185 0
M  V30 15795 C 1476.86 -3.42083 -0.455364 0
M  V30 15796 C 1475.98 -4.29358 0.477088 0
M  V30 15797 C 1475.11 -5.30201 -0.325619 0
M  V30 15798 C 1474.15 -6.09123 0.602935 0
M  V30 15799 N 1473.29 -7.01909 -0.163836 0
M  V30 15800 H 1478.13 -2.74166 1.16777 0
M  V30 15801 H 1475.66 -1.3487 0.587248 0
M  V30 15802 H 1477.62 -4.06746 -0.928104 0
M  V30 15803 H 1476.25 -2.97402 -1.25507 0
M  V30 15804 H 1475.3 -3.65091 1.06829 0
M  V30 15805 H 1476.62 -4.84425 1.18887 0
M  V30 15806 H 1475.77 -6.00565 -0.860647 0
M  V30 15807 H 1474.51 -4.75802 -1.07067 0
M  V30 15808 H 1473.51 -5.37645 1.14968 0
M  V30 15809 H 1474.74 -6.65609 1.34692 0
M  V30 15810 H 1472.69 -6.49913 -0.891604 0
M  V30 15811 H 1472.6 -7.5442 0.48851 0
M  V30 15812 H 1473.87 -7.76529 -0.679929 0
M  V30 15813 N 1478.1 -0.635022 -1.4424 0
M  V30 15814 C 1479.33 -0.14826 -2.06368 0
M  V30 15815 C 1479.74 1.17875 -1.47482 0
M  V30 15816 O 1479.1 1.72384 -0.599168 0
M  V30 15817 C 1479.15 -0.031519 -3.61486 0
M  V30 15818 O 1478.87 -1.30605 -4.18179 0
M  V30 15819 C 1480.37 0.483479 -4.40656 0
M  V30 15820 H 1477.59 -0.081472 -0.666036 0
M  V30 15821 H 1480.14 -0.870526 -1.85046 0
M  V30 15822 H 1478.29 0.641208 -3.82057 0
M  V30 15823 H 1478.71 -1.15341 -5.11661 0
M  V30 15824 H 1480.18 0.514164 -5.496 0
M  V30 15825 H 1480.66 1.51129 -4.12379 0
M  V30 15826 H 1481.26 -0.156131 -4.25013 0
M  V30 15827 N 1479.58 1.53054 -0.375806 0
M  V30 15828 C 1480.53 2.22837 0.482477 0
M  V30 15829 C 1481.51 1.22728 1.04051 0
M  V30 15830 O 1482.7 1.48129 0.968854 0
M  V30 15831 C 1479.83 3.02869 1.61634 0
M  V30 15832 C 1478.92 4.10362 1.07069 0
M  V30 15833 N 1479.31 5.05187 0.248878 0
M  V30 15834 C 1477.61 4.25251 1.34452 0
M  V30 15835 C 1478.31 5.81678 -0.0510458 0
M  V30 15836 N 1477.29 5.40817 0.549318 0
M  V30 15837 H 1481.09 2.93506 -0.1521 0
M  V30 15838 H 1478.6 1.6135 -0.184373 0
M  V30 15839 H 1480.6 3.51387 2.24349 0
M  V30 15840 H 1479.26 2.33732 2.25387 0
M  V30 15841 H 1480.27 5.17777 -0.112766 0
M  V30 15842 H 1476.95 3.67342 1.98408 0
M  V30 15843 H 1478.34 6.68073 -0.716061 0
M  V30 15844 N 1481.06 0.105248 1.57248 0
M  V30 15845 C 1481.99 -0.846915 2.176 0
M  V30 15846 C 1482.97 -1.28706 1.11216 0
M  V30 15847 O 1484.15 -1.35213 1.39396 0
M  V30 15848 C 1481.28 -2.10228 2.76445 0
M  V30 15849 C 1480.24 -1.80041 3.8829 0
M  V30 15850 C 1479.56 -3.12491 4.33882 0
M  V30 15851 C 1480.86 -1.07943 5.11024 0
M  V30 15852 H 1482.56 -0.344052 2.97417 0
M  V30 15853 H 1480.1 -0.164045 1.43063 0
M  V30 15854 H 1482.06 -2.77284 3.17319 0
M  V30 15855 H 1480.78 -2.62815 1.93897 0
M  V30 15856 H 1479.44 -1.15379 3.4797 0
M  V30 15857 H 1479.09 -3.62985 3.48211 0
M  V30 15858 H 1478.79 -2.93072 5.09296 0
M  V30 15859 H 1480.31 -3.80688 4.77398 0
M  V30 15860 H 1481.72 -1.65127 5.49004 0
M  V30 15861 H 1480.12 -0.986674 5.91933 0
M  V30 15862 H 1481.19 -0.0638511 4.84858 0
M  V30 15863 N 1482.53 -1.56697 -0.168486 0
M  V30 15864 C 1483.76 -1.86292 -0.900152 0
M  V30 15865 C 1484.18 -0.690968 -1.75702 0
M  V30 15866 O 1483.53 0.339855 -1.79308 0
M  V30 15867 C 1483.59 -3.14946 -1.77457 0
M  V30 15868 O 1483.31 -4.27625 -0.952267 0
M  V30 15869 C 1484.81 -3.57908 -2.61566 0
M  V30 15870 H 1482.03 -0.618003 -0.261369 0
M  V30 15871 H 1484.57 -2.03811 -0.16773 0
M  V30 15872 H 1482.73 -2.99246 -2.4603 0
M  V30 15873 H 1483.14 -5.01057 -1.55056 0
M  V30 15874 H 1484.61 -4.50823 -3.18532 0
M  V30 15875 H 1485.09 -2.82162 -3.36573 0
M  V30 15876 H 1485.7 -3.7623 -1.98321 0
M  V30 15877 N 1484.01 0.437135 -1.51416 0
M  V30 15878 C 1484.92 1.55581 -1.75589 0
M  V30 15879 C 1485.94 1.61797 -0.640132 0
M  V30 15880 O 1487.11 1.79035 -0.922406 0
M  V30 15881 C 1484.18 2.91561 -1.87598 0
M  V30 15882 C 1483.24 2.9546 -3.11451 0
M  V30 15883 C 1482.47 4.24954 -3.22878 0
M  V30 15884 O 1482.7 5.17341 -2.40238 0
M  V30 15885 O 1481.63 4.35141 -4.15856 0
M  V30 15886 H 1485.46 1.38098 -2.70486 0
M  V30 15887 H 1483.04 0.620163 -1.3592 0
M  V30 15888 H 1484.92 3.72262 -1.97481 0
M  V30 15889 H 1483.6 3.09171 -0.958889 0
M  V30 15890 H 1482.51 2.13713 -3.07046 0
M  V30 15891 H 1483.84 2.82794 -4.0285 0
M  V30 15892 N 1485.49 1.41566 0.692592 0
M  V30 15893 C 1486.42 1.46423 1.81886 0
M  V30 15894 C 1487.4 0.32258 1.67013 0
M  V30 15895 O 1488.59 0.534437 1.86701 0
M  V30 15896 C 1485.72 1.3486 3.20047 0
M  V30 15897 C 1484.67 2.46867 3.49629 0
M  V30 15898 C 1484 2.20369 4.87177 0
M  V30 15899 C 1485.3 3.89205 3.48306 0
M  V30 15900 H 1486.99 2.40683 1.78079 0
M  V30 15901 H 1484.54 1.15845 0.855334 0
M  V30 15902 H 1486.49 1.36869 3.98553 0
M  V30 15903 H 1485.21 0.370859 3.24488 0
M  V30 15904 H 1483.87 2.44146 2.73475 0
M  V30 15905 H 1483.52 1.20931 4.88247 0
M  V30 15906 H 1483.22 2.95426 5.07934 0
M  V30 15907 H 1484.74 2.24099 5.6799 0
M  V30 15908 H 1486.16 3.93626 4.16811 0
M  V30 15909 H 1484.56 4.63969 3.80595 0
M  V30 15910 H 1485.63 4.17144 2.47222 0
M  V30 15911 N 1486.97 -0.927146 1.27443 0
M  V30 15912 C 1487.9 -2.03209 1.06013 0
M  V30 15913 C 1488.91 -1.62792 0.016041 0
M  V30 15914 O 1490.1 -1.76631 0.25766 0
M  V30 15915 C 1487.2 -3.33791 0.586225 0
M  V30 15916 C 1486.38 -4.02897 1.70273 0
M  V30 15917 C 1485.43 -5.11755 1.22447 0
M  V30 15918 O 1484.46 -5.35688 1.92423 0
M  V30 15919 N 1485.66 -5.80444 0.0804162 0
M  V30 15920 H 1488.43 -2.22155 2.01165 0
M  V30 15921 H 1485.99 -1.09757 1.19017 0
M  V30 15922 H 1487.98 -4.03926 0.250161 0
M  V30 15923 H 1486.55 -3.11414 -0.272076 0
M  V30 15924 H 1485.77 -3.26489 2.20905 0
M  V30 15925 H 1487.06 -4.45816 2.45205 0
M  V30 15926 H 1486.46 -5.63454 -0.503635 0
M  V30 15927 H 1485.01 -6.51504 -0.196466 0
M  V30 15928 N 1488.45 -1.09474 -1.13372 0
M  V30 15929 C 1489.86 -0.824541 -1.36651 0
M  V30 15930 C 1490.06 0.560903 -1.93536 0
M  V30 15931 O 1489.12 1.31567 -2.15514 0
M  V30 15932 C 1490.43 -1.91618 -2.31739 0
M  V30 15933 C 1491.98 -1.94346 -2.45354 0
M  V30 15934 C 1492.45 -3.02655 -3.4375 0
M  V30 15935 N 1493.95 -3.01898 -3.513 0
M  V30 15936 C 1494.68 -3.82344 -4.27318 0
M  V30 15937 N 1494.18 -4.727 -5.06484 0
M  V30 15938 N 1495.97 -3.70602 -4.22623 0
M  V30 15939 H 1488.12 -1.98793 -0.748005 0
M  V30 15940 H 1490.38 -0.863318 -0.391646 0
M  V30 15941 H 1490.09 -2.91282 -1.97098 0
M  V30 15942 H 1489.96 -1.79484 -3.31761 0
M  V30 15943 H 1492.35 -0.953206 -2.79281 0
M  V30 15944 H 1492.43 -2.10558 -1.45255 0
M  V30 15945 H 1492.08 -4.01894 -3.10553 0
M  V30 15946 H 1492.01 -2.83687 -4.43655 0
M  V30 15947 H 1494.5 -2.36417 -2.94814 0
M  V30 15948 H 1494.81 -5.30665 -5.61796 0
M  V30 15949 H 1493.15 -4.76736 -5.05715 0
M  V30 15950 H 1496.35 -2.99372 -3.59853 0
M  V30 15951 H 1496.52 -4.33535 -4.81614 0
M  V30 15952 N 1489.92 1.30607 -0.882012 0
M  V30 15953 C 1490.85 2.30666 -0.362706 0
M  V30 15954 C 1491.84 1.60865 0.552861 0
M  V30 15955 O 1493.02 1.88493 0.467339 0
M  V30 15956 C 1490.15 3.44675 0.42622 0
M  V30 15957 C 1489.1 4.26152 -0.397322 0
M  V30 15958 C 1488.43 5.32185 0.518027 0
M  V30 15959 C 1489.73 4.95955 -1.63785 0
M  V30 15960 H 1491.42 2.74351 -1.19883 0
M  V30 15961 H 1488.97 1.31895 -0.577912 0
M  V30 15962 H 1490.92 4.13734 0.80013 0
M  V30 15963 H 1489.65 2.99787 1.29597 0
M  V30 15964 H 1488.31 3.58776 -0.753332 0
M  V30 15965 H 1487.95 4.83545 1.3854 0
M  V30 15966 H 1487.65 5.87593 -0.0291802 0
M  V30 15967 H 1489.18 6.04101 0.888518 0
M  V30 15968 H 1490.59 5.57547 -1.3347 0
M  V30 15969 H 1488.99 5.61215 -2.12504 0
M  V30 15970 H 1490.06 4.22252 -2.38394 0
M  V30 15971 N 1491.4 0.642663 1.43901 0
M  V30 15972 C 1492.33 -0.0419756 2.33462 0
M  V30 15973 C 1493.31 -0.822923 1.48869 0
M  V30 15974 O 1494.5 -0.786508 1.7756 0
M  V30 15975 C 1491.63 -1.01631 3.32097 0
M  V30 15976 C 1490.58 -0.346206 4.26597 0
M  V30 15977 C 1489.91 -1.43125 5.15189 0
M  V30 15978 C 1491.21 0.754799 5.16817 0
M  V30 15979 H 1492.9 0.705929 2.90959 0
M  V30 15980 H 1490.45 0.340924 1.39906 0
M  V30 15981 H 1492.4 -1.5041 3.93643 0
M  V30 15982 H 1491.13 -1.79525 2.72834 0
M  V30 15983 H 1489.78 0.121038 3.664 0
M  V30 15984 H 1489.43 -2.20135 4.52271 0
M  V30 15985 H 1489.13 -0.988194 5.79231 0
M  V30 15986 H 1490.66 -1.92061 5.79607 0
M  V30 15987 H 1492.07 0.349624 5.72233 0
M  V30 15988 H 1490.47 1.12169 5.89524 0
M  V30 15989 H 1491.54 1.61718 4.57138 0
M  V30 15990 N 1492.88 -1.52852 0.383918 0
M  V30 15991 C 1494.16 -1.939 -0.25729 0
M  V30 15992 C 1494.54 -1.31895 -1.64824 0
M  V30 15993 O 1493.89 -0.484987 -2.23294 0
M  V30 15994 C 1494.1 -3.47801 -0.289064 0
M  V30 15995 C 1495.44 -4.21396 -0.520611 0
M  V30 15996 O 1496.47 -3.54278 -0.369502 0
M  V30 15997 O 1495.33 -5.4037 -0.816254 0
M  V30 15998 H 1492.42 -0.811658 -0.158558 0
M  V30 15999 H 1494.97 -1.63949 0.438034 0
M  V30 16000 H 1493.74 -3.8525 0.685441 0
M  V30 16001 H 1493.36 -3.8404 -1.02953 0
M  V30 16002 N 1494.36 -0.113586 -1.5719 0
M  V30 16003 C 1495.59 0.553592 -1.99356 0
M  V30 16004 C 1496 1.60567 -0.993154 0
M  V30 16005 O 1495.36 1.82494 0.0147252 0
M  V30 16006 C 1495.41 1.18462 -3.41539 0
M  V30 16007 O 1495.13 0.174602 -4.37752 0
M  V30 16008 C 1496.63 1.93564 -3.98808 0
M  V30 16009 H 1493.85 0.146998 -0.6547 0
M  V30 16010 H 1496.4 -0.198329 -2.03536 0
M  V30 16011 H 1494.55 1.88736 -3.38316 0
M  V30 16012 H 1494.97 0.632395 -5.20674 0
M  V30 16013 H 1496.44 2.33051 -5.00391 0
M  V30 16014 H 1496.92 2.80874 -3.37648 0
M  V30 16015 H 1497.52 1.28066 -4.0556 0
M  V30 16016 N 1495.84 1.56784 0.160173 0
M  V30 16017 C 1496.8 1.96373 1.18195 0
M  V30 16018 C 1497.8 0.848674 1.3658 0
M  V30 16019 O 1498.99 1.11553 1.33796 0
M  V30 16020 C 1496.12 2.26824 2.54487 0
M  V30 16021 H 1497.32 2.87819 0.842641 0
M  V30 16022 H 1494.87 1.51014 0.403038 0
M  V30 16023 H 1495.6 1.38129 2.93413 0
M  V30 16024 H 1495.39 3.08112 2.42507 0
M  V30 16025 H 1496.88 2.58337 3.28104 0
M  V30 16026 N 1497.32 -0.429099 1.51646 0
M  V30 16027 C 1498.56 -1.17784 1.64722 0
M  V30 16028 C 1498.89 -1.90998 0.367415 0
M  V30 16029 O 1498.15 -1.8463 -0.648862 0
M  V30 16030 C 1498.44 -2.2131 2.80636 0
M  V30 16031 C 1498.11 -1.65048 4.19607 0
M  V30 16032 C 1496.77 -1.49428 4.57411 0
M  V30 16033 C 1499.12 -1.23765 5.06292 0
M  V30 16034 C 1496.45 -0.910109 5.79598 0
M  V30 16035 C 1498.8 -0.667743 6.29066 0
M  V30 16036 C 1497.47 -0.498507 6.65636 0
M  V30 16037 H 1496.74 -0.431001 0.60276 0
M  V30 16038 H 1499.39 -0.46775 1.857 0
M  V30 16039 H 1497.69 -2.98388 2.53913 0
M  V30 16040 H 1499.39 -2.79079 2.87951 0
M  V30 16041 H 1495.98 -1.78185 3.89805 0
M  V30 16042 H 1500.16 -1.3465 4.77685 0
M  V30 16043 H 1495.42 -0.766825 6.06572 0
M  V30 16044 H 1499.59 -0.339377 6.95573 0
M  V30 16045 H 1497.22 -0.0437292 7.60187 0
M  V30 16046 N 1498.79 -1.41931 -0.685074 0
M  V30 16047 C 1500.07 -1.32338 -1.44035 0
M  V30 16048 C 1500.45 0.0441161 -2.11054 0
M  V30 16049 O 1499.8 1.05901 -2.02478 0
M  V30 16050 C 1500.01 -2.48429 -2.45121 0
M  V30 16051 C 1501.36 -2.90076 -3.10067 0
M  V30 16052 O 1502.38 -2.48245 -2.55447 0
M  V30 16053 O 1501.24 -3.62445 -4.09019 0
M  V30 16054 H 1498.33 -0.521361 -0.641959 0
M  V30 16055 H 1500.88 -1.53918 -0.714666 0
M  V30 16056 H 1499.65 -3.39637 -1.94326 0
M  V30 16057 H 1499.27 -2.28781 -3.25184 0
M  V30 16058 N 1500.27 0.920374 -1.27933 0
M  V30 16059 C 1501.2 2.03882 -1.13817 0
M  V30 16060 C 1502.18 1.70058 -0.0376853 0
M  V30 16061 O 1503.37 1.93023 -0.213492 0
M  V30 16062 C 1500.5 3.38142 -0.792296 0
M  V30 16063 C 1499.45 3.86104 -1.84683 0
M  V30 16064 C 1498.78 5.17253 -1.35474 0
M  V30 16065 C 1500.08 4.0869 -3.25223 0
M  V30 16066 H 1501.77 2.15949 -2.07379 0
M  V30 16067 H 1499.32 1.03764 -0.998454 0
M  V30 16068 H 1501.27 4.15872 -0.680337 0
M  V30 16069 H 1499.99 3.26109 0.179029 0
M  V30 16070 H 1498.65 3.10573 -1.94782 0
M  V30 16071 H 1498.3 5.01618 -0.372666 0
M  V30 16072 H 1498 5.50314 -2.05982 0
M  V30 16073 H 1499.53 5.97545 -1.25587 0
M  V30 16074 H 1500.94 4.76965 -3.18083 0
M  V30 16075 H 1499.34 4.5307 -3.93507 0
M  V30 16076 H 1500.41 3.13729 -3.69733 0
M  V30 16077 N 1501.75 1.10074 1.1279 0
M  V30 16078 C 1503.03 0.753069 1.80522 0
M  V30 16079 C 1503.41 -0.760982 1.96907 0
M  V30 16080 O 1502.75 -1.68584 1.54245 0
M  V30 16081 C 1502.96 1.49982 3.15129 0
M  V30 16082 C 1504.31 1.66993 3.90382 0
M  V30 16083 O 1505.34 1.46289 3.24774 0
M  V30 16084 O 1504.2 2.01293 5.08078 0
M  V30 16085 H 1501.29 0.271277 0.781241 0
M  V30 16086 H 1503.84 1.20333 1.19658 0
M  V30 16087 H 1502.61 2.53043 2.98471 0
M  V30 16088 H 1502.23 1.04217 3.83699 0
M  V30 16089 N 1503.23 -1.30138 0.888926 0
M  V30 16090 C 1504.47 -1.96279 0.51012 0
M  V30 16091 C 1504.81 -1.69984 -0.939096 0
M  V30 16092 O 1504.08 -1.00677 -1.66416 0
M  V30 16093 C 1504.36 -3.51321 0.790305 0
M  V30 16094 C 1504.22 -3.87116 2.29044 0
M  V30 16095 C 1505.54 -4.39274 0.269477 0
M  V30 16096 H 1502.66 -0.712931 0.18681 0
M  V30 16097 H 1505.3 -1.53942 1.11364 0
M  V30 16098 H 1503.45 -3.87514 0.276647 0
M  V30 16099 H 1505.12 -3.60926 2.87281 0
M  V30 16100 H 1503.36 -3.35044 2.7555 0
M  V30 16101 H 1504.03 -4.95288 2.43708 0
M  V30 16102 H 1506.51 -4.10012 0.709173 0
M  V30 16103 H 1505.39 -5.46665 0.494815 0
M  V30 16104 H 1505.65 -4.3425 -0.829434 0
M  V30 16105 N 1504.71 -0.650285 -1.43559 0
M  V30 16106 C 1505.95 -0.162484 -2.01847 0
M  V30 16107 C 1506.28 1.22251 -1.51278 0
M  V30 16108 O 1505.54 1.82939 -0.695115 0
M  V30 16109 C 1505.83 -0.119084 -3.57202 0
M  V30 16110 C 1505.5 -1.44543 -4.27104 0
M  V30 16111 C 1504.16 -1.80864 -4.45917 0
M  V30 16112 C 1506.51 -2.32005 -4.66715 0
M  V30 16113 C 1503.84 -3.04319 -5.01604 0
M  V30 16114 C 1506.19 -3.54748 -5.23771 0
M  V30 16115 C 1504.86 -3.9127 -5.408 0
M  V30 16116 H 1504.13 -0.0594573 -0.738611 0
M  V30 16117 H 1506.78 -0.84041 -1.72074 0
M  V30 16118 H 1505.08 0.642282 -3.865 0
M  V30 16119 H 1506.78 0.275168 -4.00055 0
M  V30 16120 H 1503.37 -1.15281 -4.12805 0
M  V30 16121 H 1507.55 -2.05234 -4.51877 0
M  V30 16122 H 1502.81 -3.32668 -5.12974 0
M  V30 16123 H 1506.98 -4.2274 -5.53411 0
M  V30 16124 H 1504.61 -4.87011 -5.83716 0
M  V30 16125 N 1506.18 1.52647 -0.392018 0
M  V30 16126 C 1507.13 2.26532 0.441819 0
M  V30 16127 C 1508.1 1.2825 1.05552 0
M  V30 16128 O 1509.29 1.57083 1.08303 0
M  V30 16129 C 1506.43 3.0774 1.56174 0
M  V30 16130 C 1505.54 4.20955 0.970632 0
M  V30 16131 C 1504.67 4.89553 2.06183 0
M  V30 16132 C 1503.71 5.94756 1.44676 0
M  V30 16133 N 1502.85 6.5694 2.47738 0
M  V30 16134 H 1507.69 2.97363 -0.194699 0
M  V30 16135 H 1505.23 1.46704 -0.107848 0
M  V30 16136 H 1507.18 3.53116 2.22183 0
M  V30 16137 H 1505.81 2.39112 2.16853 0
M  V30 16138 H 1504.87 3.79874 0.200067 0
M  V30 16139 H 1506.18 4.96474 0.481181 0
M  V30 16140 H 1505.33 5.38247 2.79956 0
M  V30 16141 H 1504.07 4.13564 2.58488 0
M  V30 16142 H 1503.08 5.45399 0.694288 0
M  V30 16143 H 1504.3 6.72679 0.931617 0
M  V30 16144 H 1502.25 5.8379 2.99208 0
M  V30 16145 H 1502.16 7.2808 2.03556 0
M  V30 16146 H 1503.43 7.10277 3.21133 0
M  V30 16147 N 1507.66 0.121921 1.57128 0
M  V30 16148 C 1508.61 -0.844503 2.16728 0
M  V30 16149 C 1509.6 -1.2733 1.1173 0
M  V30 16150 O 1510.81 -1.2447 1.30028 0
M  V30 16151 H 1507.19 -0.290459 0.693641 0
M  V30 16152 H 1509.16 -0.317379 2.96707 0
M  V30 16153 C 1507.91 -2.08359 2.78356 0
M  V30 16154 H 1507.23 -1.76258 3.5885 0
M  V30 16155 H 1508.67 -2.73978 3.23592 0
M  V30 16156 C 1507.13 -2.87526 1.75586 0
M  V30 16157 O 1507.66 -3.83011 1.21101 0
M  V30 16158 N 1505.86 -2.51575 1.4546 0
M  V30 16159 H 1505.41 -1.73993 1.89958 0
M  V30 16160 H 1505.37 -3.0484 0.769411 0
M  V30 16161 N 1509.14 -1.56867 -0.151857 0
M  V30 16162 C 1510.39 -1.83082 -0.865285 0
M  V30 16163 C 1510.72 -0.702056 -1.81387 0
M  V30 16164 O 1509.97 0.309291 -1.9324 0
M  V30 16165 C 1510.27 -3.15597 -1.6773 0
M  V30 16166 C 1509.94 -4.4231 -0.875929 0
M  V30 16167 C 1508.6 -4.76724 -0.654826 0
M  V30 16168 C 1510.95 -5.20246 -0.315162 0
M  V30 16169 C 1508.28 -5.86538 0.13783 0
M  V30 16170 C 1510.63 -6.30892 0.464508 0
M  V30 16171 C 1509.29 -6.63859 0.696233 0
M  V30 16172 H 1508.56 -0.669945 -0.31663 0
M  V30 16173 H 1511.21 -1.91064 -0.129175 0
M  V30 16174 H 1509.52 -3.03044 -2.48338 0
M  V30 16175 H 1511.21 -3.33094 -2.23269 0
M  V30 16176 H 1507.8 -4.15328 -1.05832 0
M  V30 16177 H 1511.99 -4.94038 -0.473273 0
M  V30 16178 H 1507.24 -6.10525 0.32691 0
M  V30 16179 H 1511.42 -6.90479 0.906187 0
M  V30 16180 H 1509.04 -7.48788 1.3123 0
M  V30 16181 N 1510.62 0.421051 -1.51871 0
M  V30 16182 C 1511.84 1.19568 -1.69465 0
M  V30 16183 C 1512.27 1.83835 -0.398269 0
M  V30 16184 O 1511.63 1.69508 0.643172 0
M  V30 16185 C 1511.67 2.24337 -2.82321 0
M  V30 16186 O 1510.78 3.30205 -2.47059 0
M  V30 16187 H 1510.12 0.349579 -0.564527 0
M  V30 16188 H 1512.65 0.495177 -1.98517 0
M  V30 16189 H 1512.66 2.6886 -3.06885 0
M  V30 16190 H 1511.33 1.76941 -3.76384 0
M  V30 16191 H 1509.91 2.91045 -2.33125 0
M  V30 16192 O 1512.14 1.51224 0.566886 0
M  V30 16193 H 1512.83 1.50292 1.22196 0
M  V30 END ATOM
M  V30 BEGIN BOND
M  V30 END BOND
M  V30 END CTAB
M  END
$$$$
