drugbank_target|P00722 Beta-galactosidase (DB01862; DB01885; DB01920; DB02228; DB02294; DB02632; DB04116; DB04155; DB04382; DB04465; DB04530; DB13503)
 OpenBabel12092119543D

  0  0  0     0  0            999 V3000
M  V30 BEGIN CTAB
M  V30 COUNTS 16046 16288 0 0 0
M  V30 BEGIN ATOM
M  V30 1 H -0.908 1.98254 -0.117106 0
M  V30 2 N 0 1.576 0 0
M  V30 3 C 0.933 2.03868 1.02534 0
M  V30 4 C 1.911 0.928543 1.3348 0
M  V30 5 O 3.095 1.19667 1.45644 0
M  V30 6 C 0.222 2.43627 2.35294 0
M  V30 7 C -0.732 3.65373 2.2001 0
M  V30 8 S 0.101 5.13292 1.52614 0
M  V30 9 C 1.257 5.56322 2.86805 0
M  V30 10 H 1.49 2.90518 0.631377 0
M  V30 11 H -0.977 1.52953 0.210867 0
M  V30 12 H 0.981 2.67203 3.11629 0
M  V30 13 H -0.358 1.57376 2.7183 0
M  V30 14 H -1.165 3.90944 3.18086 0
M  V30 15 H -1.563 3.418 1.51819 0
M  V30 16 H 0.729 5.58782 3.83104 0
M  V30 17 H 1.672 6.56266 2.65933 0
M  V30 18 H 2.08 4.83886 2.90714 0
M  V30 19 N 1.4781 -0.272755 1.55222 0
M  V30 20 C 2.7061 -1.02255 1.79865 0
M  V30 21 C 3.1211 -1.79924 0.572088 0
M  V30 22 O 2.4781 -1.76638 -0.458842 0
M  V30 23 C 2.5291 -1.98094 3.02392 0
M  V30 24 O 2.2501 -1.23572 4.20311 0
M  V30 25 C 3.7511 -2.84884 3.39641 0
M  V30 26 H 0.9711 -0.302057 0.599168 0
M  V30 27 H 3.5151 -0.303465 2.02236 0
M  V30 28 H 1.6701 -2.65465 2.82147 0
M  V30 29 H 2.0841 -1.88172 4.89583 0
M  V30 30 H 3.5581 -3.47927 4.28545 0
M  V30 31 H 4.0351 -3.54665 2.59055 0
M  V30 32 H 4.6411 -2.23003 3.62146 0
M  V30 33 N 2.9562 -1.48159 -0.537278 0
M  V30 34 C 3.8892 -1.567 -1.65893 0
M  V30 35 C 4.8672 -0.41787 -1.57139 0
M  V30 36 O 6.0512 -0.628461 -1.77715 0
M  V30 37 C 3.1782 -1.48818 -3.04255 0
M  V30 38 C 2.2242 -2.68482 -3.31391 0
M  V30 39 S 3.0572 -4.30516 -3.1846 0
M  V30 40 C 4.2132 -4.2522 -4.59281 0
M  V30 41 H 4.4462 -2.5159 -1.58397 0
M  V30 42 H 1.9792 -1.36602 -0.719672 0
M  V30 43 H 3.9372 -1.44958 -3.84054 0
M  V30 44 H 2.5982 -0.552777 -3.09198 0
M  V30 45 H 1.7912 -2.59085 -4.32309 0
M  V30 46 H 1.3932 -2.69567 -2.59248 0
M  V30 47 H 3.6852 -3.94703 -5.5065 0
M  V30 48 H 4.6282 -5.26292 -4.73732 0
M  V30 49 H 5.0362 -3.55791 -4.38261 0
M  V30 50 N 4.4343 0.785586 -1.36625 0
M  V30 51 C 5.6833 1.53883 -1.30396 0
M  V30 52 C 5.9963 1.95271 0.113452 0
M  V30 53 O 7.2023 2.69858 0.298142 0
M  V30 54 C 5.6583 2.77808 -2.28802 0
M  V30 55 C 5.2663 2.43574 -3.75999 0
M  V30 56 C 7.0103 3.55783 -2.31558 0
M  V30 57 C 4.9173 3.63919 -4.66173 0
M  V30 58 H 3.8473 0.577678 -0.484566 0
M  V30 59 H 6.4983 0.861705 -1.62009 0
M  V30 60 H 4.8803 3.47339 -1.90188 0
M  V30 61 H 6.0543 1.81916 -4.23371 0
M  V30 62 H 4.3693 1.78803 -3.76056 0
M  V30 63 H 6.9663 4.45205 -2.96137 0
M  V30 64 H 7.3093 3.94644 -1.3252 0
M  V30 65 H 7.8423 2.93235 -2.68809 0
M  V30 66 H 4.5813 3.3015 -5.66287 0
M  V30 67 H 4.1013 4.2473 -4.23515 0
M  V30 68 H 5.7803 4.30901 -4.82632 0
M  V30 69 N 5.9124 1.20967 1.01018 0
M  V30 70 C 7.1404 1.04956 1.78303 0
M  V30 71 C 7.5554 -0.400915 1.84494 0
M  V30 72 O 6.9124 -1.27826 1.30257 0
M  V30 73 C 6.9634 1.63403 3.22462 0
M  V30 74 O 6.6844 3.02775 3.16637 0
M  V30 75 C 8.1854 1.52432 4.16268 0
M  V30 76 H 5.4054 0.368858 0.560522 0
M  V30 77 H 7.9494 1.60193 1.27116 0
M  V30 78 H 6.1044 1.1227 3.70775 0
M  V30 79 H 6.5184 3.30626 4.07169 0
M  V30 80 H 7.9924 1.98078 5.15237 0
M  V30 81 H 8.4694 0.477875 4.36592 0
M  V30 82 H 9.0754 2.02787 3.73841 0
M  V30 83 N 7.3905 -1.2043 1.01659 0
M  V30 84 C 8.6675 -1.8548 0.621004 0
M  V30 85 C 9.0475 -1.9091 -0.900919 0
M  V30 86 O 8.3955 -1.41694 -1.79263 0
M  V30 87 C 8.6055 -3.25119 1.2688 0
M  V30 88 C 9.9535 -4.01403 1.38423 0
M  V30 89 O 10.9775 -3.34473 1.22501 0
M  V30 90 O 9.8365 -5.21265 1.64151 0
M  V30 91 H 6.9305 -0.798761 0.214266 0
M  V30 92 H 9.4765 -1.28019 1.11396 0
M  V30 93 H 8.2485 -3.15932 2.30873 0
M  V30 94 H 7.8715 -3.90212 0.762917 0
M  V30 95 N 8.8686 -0.792821 -1.36206 0
M  V30 96 C 10.0936 -0.377701 -2.03932 0
M  V30 97 C 10.5186 0.998947 -1.59382 0
M  V30 98 O 9.8766 1.64421 -0.763903 0
M  V30 99 C 9.9246 -0.453635 -3.57735 0
M  V30 100 O 9.0286 0.538151 -4.08874 0
M  V30 101 H 8.3696 -0.159855 -0.644471 0
M  V30 102 H 10.8996 -1.07488 -1.7409 0
M  V30 103 H 10.9096 -0.318464 -4.06755 0
M  V30 104 H 9.5846 -1.45784 -3.89512 0
M  V30 105 H 8.1616 0.364359 -3.71116 0
M  V30 106 N 10.3467 1.47872 -0.545128 0
M  V30 107 C 11.2767 2.32661 0.197793 0
M  V30 108 C 12.2577 1.43041 0.920504 0
M  V30 109 O 13.4427 1.71912 0.90333 0
M  V30 110 C 10.5727 3.24569 1.23582 0
M  V30 111 C 9.5267 4.23333 0.630323 0
M  V30 112 C 8.8527 5.0448 1.77211 0
M  V30 113 C 10.1527 5.20704 -0.407974 0
M  V30 114 H 11.8467 2.95024 -0.510045 0
M  V30 115 H 9.3927 1.4187 -0.246731 0
M  V30 116 H 11.3457 3.8272 1.76362 0
M  V30 117 H 10.0697 2.60236 1.97344 0
M  V30 118 H 8.7287 3.6639 0.123922 0
M  V30 119 H 8.3767 4.36561 2.49847 0
M  V30 120 H 8.0767 5.71339 1.37281 0
M  V30 121 H 9.6007 5.65487 2.3034 0
M  V30 122 H 11.0147 5.7329 0.033305 0
M  V30 123 H 9.4117 5.95699 -0.725486 0
M  V30 124 H 10.4817 4.66917 -1.30828 0
M  V30 125 N 11.8248 0.280983 1.55075 0
M  V30 126 C 12.7878 -0.590896 2.21452 0
M  V30 127 C 13.7878 -1.07682 1.19421 0
M  V30 128 O 14.9778 -0.97605 1.44288 0
M  V30 129 C 12.1098 -1.81587 2.88511 0
M  V30 130 H 13.3028 -0.0112554 2.99898 0
M  V30 131 H 10.8558 0.0316438 1.56268 0
M  V30 132 H 11.5908 -2.43587 2.14093 0
M  V30 133 H 11.3758 -1.4753 3.63287 0
M  V30 134 H 12.8658 -2.43575 3.39206 0
M  V30 135 N 13.3029 -1.57598 0.00835791 0
M  V30 136 C 14.5489 -1.91211 -0.675732 0
M  V30 137 C 14.8819 -0.883139 -1.72958 0
M  V30 138 O 14.1569 0.097016 -1.94258 0
M  V30 139 C 14.4399 -3.35379 -1.31123 0
M  V30 140 C 14.2929 -4.48999 -0.268356 0
M  V30 141 C 15.6119 -3.7912 -2.23508 0
M  V30 142 H 12.7309 -0.695374 -0.244179 0
M  V30 143 H 15.3729 -1.89901 0.0613655 0
M  V30 144 H 13.5229 -3.36626 -1.93946 0
M  V30 145 H 15.1949 -4.59887 0.360844 0
M  V30 146 H 13.4379 -4.31873 0.408482 0
M  V30 147 H 14.1089 -5.46851 -0.752218 0
M  V30 148 H 16.5849 -3.79477 -1.70693 0
M  V30 149 H 15.4609 -4.80729 -2.64936 0
M  V30 150 H 15.7219 -3.13455 -3.11766 0
M  V30 151 N 14.781 0.264519 -1.55364 0
M  V30 152 C 16.027 0.99646 -1.76631 0
M  V30 153 C 16.36 1.85632 -0.570478 0
M  V30 154 O 15.635 1.89647 0.43175 0
M  V30 155 C 15.918 1.87187 -3.07625 0
M  V30 156 C 15.771 1.04138 -4.37579 0
M  V30 157 C 17.09 2.85749 -3.34717 0
M  V30 158 H 14.209 0.360841 -0.642622 0
M  V30 159 H 16.851 0.268218 -1.88097 0
M  V30 160 H 15.001 2.49279 -2.9798 0
M  V30 161 H 16.673 0.440517 -4.59192 0
M  V30 162 H 14.916 0.345115 -4.32425 0
M  V30 163 H 15.587 1.68729 -5.2558 0
M  V30 164 H 18.063 2.33793 -3.4421 0
M  V30 165 H 16.939 3.44136 -4.27623 0
M  V30 166 H 17.2 3.61311 -2.54768 0
M  V30 167 N 16.2591 1.48442 0.529413 0
M  V30 168 C 17.1891 1.65902 1.64313 0
M  V30 169 C 18.1701 0.507897 1.6234 0
M  V30 170 O 19.3551 0.740503 1.79528 0
M  V30 171 C 16.4851 1.69911 3.02898 0
M  V30 172 C 15.4391 2.8453 3.19729 0
M  V30 173 C 14.7651 2.73629 4.59381 0
M  V30 174 C 16.0651 4.25821 3.02447 0
M  V30 175 H 17.7591 2.5914 1.49955 0
M  V30 176 H 15.3051 1.24709 0.719982 0
M  V30 177 H 17.2581 1.80715 3.80684 0
M  V30 178 H 15.9821 0.732524 3.18279 0
M  V30 179 H 14.6411 2.73283 2.44361 0
M  V30 180 H 14.2891 1.74938 4.71599 0
M  V30 181 H 13.9891 3.50541 4.71588 0
M  V30 182 H 15.5131 2.86401 5.39265 0
M  V30 183 H 16.9271 4.37898 3.70024 0
M  V30 184 H 15.3241 5.03735 3.26146 0
M  V30 185 H 16.3941 4.42244 1.98867 0
M  V30 186 N 17.7372 -0.778329 1.37039 0
M  V30 187 C 18.6692 -1.90034 1.2814 0
M  V30 188 C 19.6822 -1.61585 0.198558 0
M  V30 189 O 20.8712 -1.72625 0.454175 0
M  V30 190 C 17.9712 -3.25108 0.956968 0
M  V30 191 C 17.1442 -3.81253 2.14394 0
M  V30 192 C 16.2032 -4.94789 1.79082 0
M  V30 193 O 15.2292 -5.10721 2.51301 0
M  V30 194 N 16.4312 -5.75878 0.731043 0
M  V30 195 H 19.1962 -1.98186 2.24816 0
M  V30 196 H 16.7572 -0.957129 1.30578 0
M  V30 197 H 18.7492 -3.9857 0.701701 0
M  V30 198 H 17.3192 -3.125 0.0789812 0
M  V30 199 H 16.5392 -2.99647 2.56135 0
M  V30 200 H 17.8272 -4.15495 2.93668 0
M  V30 201 H 17.2252 -5.65547 0.131618 0
M  V30 202 H 15.7822 -6.49596 0.535622 0
M  V30 203 N 19.2153 -1.21501 -1.00376 0
M  V30 204 C 20.6313 -0.972629 -1.26539 0
M  V30 205 C 20.8313 0.340257 -1.98606 0
M  V30 206 O 19.8873 1.06561 -2.28913 0
M  V30 207 C 21.2003 -2.16404 -2.08781 0
M  V30 208 C 22.7483 -2.20643 -2.22004 0
M  V30 209 C 23.2233 -3.39306 -3.07629 0
M  V30 210 N 24.7143 -3.39401 -3.15217 0
M  V30 211 C 25.4493 -4.27867 -3.81729 0
M  V30 212 N 24.9453 -5.26533 -4.5026 0
M  V30 213 N 26.7383 -4.15672 -3.78382 0
M  V30 214 H 18.8893 -2.05929 -0.520281 0
M  V30 215 H 21.1523 -0.901803 -0.292328 0
M  V30 216 H 20.8583 -3.11554 -1.63178 0
M  V30 217 H 20.7323 -2.15567 -3.09533 0
M  V30 218 H 23.1193 -1.26048 -2.66825 0
M  V30 219 H 23.2003 -2.25523 -1.20718 0
M  V30 220 H 22.8443 -4.34195 -2.63509 0
M  V30 221 H 22.7743 -3.31665 -4.09031 0
M  V30 222 H 25.2653 -2.67997 -2.66432 0
M  V30 223 H 25.5783 -5.90337 -4.98721 0
M  V30 224 H 23.9233 -5.30457 -4.49044 0
M  V30 225 H 27.1143 -3.3785 -3.23998 0
M  V30 226 H 27.2873 -4.84825 -4.2994 0
M  V30 227 N 20.6934 1.19889 -1.02296 0
M  V30 228 C 22.1094 1.41462 -0.738954 0
M  V30 229 C 22.3094 1.89721 0.678846 0
M  V30 230 O 21.3654 2.07016 1.4457 0
M  V30 231 C 22.6784 2.43083 -1.77005 0
M  V30 232 C 24.2264 2.5684 -1.78892 0
M  V30 233 C 24.7014 3.61709 -2.80945 0
M  V30 234 N 26.1924 3.69199 -2.79725 0
M  V30 235 C 26.9274 4.50019 -3.55345 0
M  V30 236 N 26.4234 5.34592 -4.40662 0
M  V30 237 N 28.2164 4.44612 -3.43914 0
M  V30 238 H 20.3674 0.868827 -1.93817 0
M  V30 239 H 22.6304 0.44399 -0.837602 0
M  V30 240 H 22.3364 2.14636 -2.78612 0
M  V30 241 H 22.2104 3.4217 -1.58744 0
M  V30 242 H 24.5974 2.84614 -0.779674 0
M  V30 243 H 24.6784 1.57927 -2.01228 0
M  V30 244 H 24.3224 3.34678 -3.82038 0
M  V30 245 H 24.2524 4.60259 -2.5587 0
M  V30 246 H 26.7434 3.08794 -2.17842 0
M  V30 247 H 27.0564 5.93363 -4.95116 0
M  V30 248 H 25.4014 5.34073 -4.44737 0
M  V30 249 H 28.5924 3.7758 -2.76679 0
M  V30 250 H 28.7654 5.0736 -4.031 0
M  V30 251 N 22.1715 0.800033 1.35784 0
M  V30 252 C 23.4485 0.30088 1.93272 0
M  V30 253 C 23.8285 -1.20857 1.73081 0
M  V30 254 O 23.1765 -2.00502 1.09596 0
M  V30 255 C 23.3865 0.70511 3.41803 0
M  V30 256 C 24.7345 0.690871 4.18942 0
M  V30 257 O 25.7585 0.646244 3.50289 0
M  V30 258 O 24.6175 0.74332 5.41421 0
M  V30 259 H 21.7115 0.0771605 0.823393 0
M  V30 260 H 24.2575 0.88329 1.449 0
M  V30 261 H 23.0295 1.74571 3.50201 0
M  V30 262 H 22.6525 0.0971541 3.97481 0
M  V30 263 N 23.6496 -1.47581 0.552962 0
M  V30 264 C 24.8956 -2.03369 0.0355807 0
M  V30 265 C 25.2506 -1.42016 -1.29805 0
M  V30 266 O 24.5436 -0.564917 -1.83083 0
M  V30 267 C 24.7376 -3.57199 -0.119728 0
M  V30 268 C 24.5666 -4.33468 1.1973 0
M  V30 269 C 23.3366 -4.7353 1.76345 0
M  V30 270 C 25.5346 -4.68866 2.11351 0
M  V30 271 N 23.5166 -5.34426 3.02097 0
M  V30 272 C 24.8876 -5.3002 3.21681 0
M  V30 273 C 26.9426 -4.50795 2.11397 0
M  V30 274 C 25.6456 -5.75011 4.32151 0
M  V30 275 C 27.6716 -4.96782 3.20876 0
M  V30 276 C 27.0336 -5.57981 4.29926 0
M  V30 277 H 23.1326 -0.780058 0.0550806 0
M  V30 278 H 25.7166 -1.80117 0.739315 0
M  V30 279 H 23.8876 -3.80227 -0.792579 0
M  V30 280 H 25.6196 -3.99627 -0.638792 0
M  V30 281 H 22.3746 -4.55352 1.30196 0
M  V30 282 H 22.7986 -5.69421 3.66182 0
M  V30 283 H 27.4406 -4.0284 1.28372 0
M  V30 284 H 25.1586 -6.21959 5.15938 0
M  V30 285 H 28.7446 -4.84573 3.21994 0
M  V30 286 H 27.6246 -5.92918 5.13243 0
M  V30 287 N 25.1277 -0.289203 -1.54924 0
M  V30 288 C 26.0377 0.601863 -2.26748 0
M  V30 289 C 27.0537 1.15834 -1.2984 0
M  V30 290 O 28.2297 1.18564 -1.62802 0
M  V30 291 C 25.2947 1.76299 -2.98529 0
M  V30 292 C 24.3557 1.24178 -4.10948 0
M  V30 293 C 23.5887 2.34757 -4.79296 0
M  V30 294 O 23.8117 3.54411 -4.46933 0
M  V30 295 O 22.7457 2.02115 -5.66951 0
M  V30 296 H 26.5717 0.0195879 -3.03694 0
M  V30 297 H 24.1567 -0.0560868 -1.49295 0
M  V30 298 H 26.0387 2.43973 -3.43592 0
M  V30 299 H 24.7137 2.33209 -2.24488 0
M  V30 300 H 23.6207 0.531104 -3.70311 0
M  V30 301 H 24.9537 0.718252 -4.86931 0
M  V30 302 N 26.6058 1.57591 -0.0167156 0
M  V30 303 C 27.5538 2.10604 0.987353 0
M  V30 304 C 28.5478 1.02977 1.34507 0
M  V30 305 O 29.7538 1.21425 1.32875 0
M  V30 306 H 26.1288 0.672695 0.336134 0
M  V30 307 H 28.0998 2.93925 0.514817 0
M  V30 308 C 26.8488 2.6382 2.26483 0
M  V30 309 H 26.1718 3.46278 1.99829 0
M  V30 310 H 27.6118 3.04573 2.94977 0
M  V30 311 C 26.0708 1.55992 2.9861 0
M  V30 312 O 26.6008 0.952521 3.90243 0
M  V30 313 N 24.8068 1.28335 2.60727 0
M  V30 314 H 24.3538 1.77914 1.86291 0
M  V30 315 H 24.3118 0.564115 3.09298 0
M  V30 316 N 28.0839 -0.256276 1.55502 0
M  V30 317 C 29.4949 -0.826068 1.67431 0
M  V30 318 C 29.8459 -1.86396 0.612446 0
M  V30 319 O 28.9709 -2.15031 -0.243025 0
M  V30 320 C 29.5659 -1.50512 3.03532 0
M  V30 321 C 28.1249 -2.02273 3.17431 0
M  V30 322 C 27.2719 -0.870548 2.63281 0
M  V30 323 H 30.2229 -0.0322728 1.58667 0
M  V30 324 H 30.2439 -2.37279 2.97454 0
M  V30 325 H 29.7559 -0.749484 3.80794 0
M  V30 326 H 27.8569 -2.80746 2.44974 0
M  V30 327 H 27.9699 -2.22655 4.24219 0
M  V30 328 H 26.3339 -1.26851 2.20864 0
M  V30 329 H 27.1169 -0.128149 3.43061 0
M  V30 330 N 29.562 -1.4872 -0.521534 0
M  V30 331 C 30.81 -1.56857 -1.27437 0
M  V30 332 C 31.131 -0.247982 -1.93417 0
M  V30 333 O 30.401 0.731151 -1.81744 0
M  V30 334 H 28.981 -0.577885 -0.473347 0
M  V30 335 H 31.643 -1.85233 -0.606205 0
M  V30 336 H 30.739 -2.35402 -2.0492 0
M  V30 337 N 31.0401 0.771051 -1.3745 0
M  V30 338 C 32.2861 1.5319 -1.32894 0
M  V30 339 C 32.6191 1.94008 0.0862511 0
M  V30 340 O 31.8941 1.64124 1.04373 0
M  V30 341 C 32.1771 2.79648 -2.26868 0
M  V30 342 C 32.0301 2.45079 -3.77169 0
M  V30 343 C 33.3491 3.81583 -2.19277 0
M  V30 344 H 30.4681 0.555744 -0.484064 0
M  V30 345 H 33.1101 0.884492 -1.68157 0
M  V30 346 H 31.2601 3.34891 -1.96926 0
M  V30 347 H 32.9321 1.95745 -4.1771 0
M  V30 348 H 31.1751 1.77767 -3.95704 0
M  V30 349 H 31.8461 3.35478 -4.38359 0
M  V30 350 H 34.3221 3.35835 -2.45671 0
M  V30 351 H 33.1981 4.67787 -2.87171 0
M  V30 352 H 33.4591 4.25897 -1.18592 0
M  V30 353 N 32.5182 1.22032 0.997298 0
M  V30 354 C 33.7462 1.06841 1.7718 0
M  V30 355 C 34.1612 -0.381325 1.84909 0
M  V30 356 O 33.5182 -1.26437 1.31605 0
M  V30 357 C 33.5692 1.66814 3.20711 0
M  V30 358 O 33.2902 3.06116 3.13408 0
M  V30 359 C 34.7912 1.56838 4.14628 0
M  V30 360 H 32.0112 0.374782 0.556578 0
M  V30 361 H 34.5552 1.61532 1.2541 0
M  V30 362 H 32.7102 1.16196 3.69564 0
M  V30 363 H 33.1242 3.34926 4.0364 0
M  V30 364 H 34.5982 2.03532 5.13107 0
M  V30 365 H 35.0752 0.524155 4.36061 0
M  V30 366 H 35.6812 2.06741 3.7167 0
M  V30 367 N 33.9963 -1.19345 1.0293 0
M  V30 368 C 34.9283 -2.22036 0.56857 0
M  V30 369 C 35.9413 -1.58865 -0.355779 0
M  V30 370 O 37.1303 -1.77851 -0.152103 0
M  V30 371 C 34.2303 -3.38363 -0.190752 0
M  V30 372 C 33.4033 -4.31118 0.738643 0
M  V30 373 C 32.4623 -5.26194 0.0246497 0
M  V30 374 O 31.4883 -5.65461 0.651354 0
M  V30 375 N 32.6903 -5.66971 -1.24594 0
M  V30 376 H 35.4553 -2.6219 1.45177 0
M  V30 377 H 33.0163 -1.34015 0.908381 0
M  V30 378 H 35.0083 -3.98981 -0.677961 0
M  V30 379 H 33.5783 -2.96994 -0.975366 0
M  V30 380 H 32.7983 -3.68276 1.40593 0
M  V30 381 H 34.0863 -4.90001 1.37029 0
M  V30 382 H 33.4843 -5.37104 -1.77583 0
M  V30 383 H 32.0413 -6.2984 -1.67764 0
M  V30 384 N 35.4744 -0.807222 -1.35358 0
M  V30 385 C 36.4044 -0.232509 -2.3234 0
M  V30 386 C 37.3854 0.642386 -1.57504 0
M  V30 387 O 38.5704 0.572526 -1.85569 0
M  V30 388 C 35.7004 0.619238 -3.41735 0
M  V30 389 C 34.6544 -0.157215 -4.27711 0
M  V30 390 C 33.9804 0.816273 -5.28433 0
M  V30 391 C 35.2804 -1.35656 -5.04376 0
M  V30 392 H 36.9744 -1.04276 -2.80654 0
M  V30 393 H 34.5204 -0.50288 -1.34934 0
M  V30 394 H 36.4734 1.03137 -4.08584 0
M  V30 395 H 35.1974 1.46239 -2.92031 0
M  V30 396 H 33.8564 -0.550525 -3.62443 0
M  V30 397 H 33.5044 1.65494 -4.74996 0
M  V30 398 H 33.2044 0.301067 -5.86828 0
M  V30 399 H 34.7284 1.22659 -5.98153 0
M  V30 400 H 36.1424 -1.01927 -5.64166 0
M  V30 401 H 34.5394 -1.8063 -5.7227 0
M  V30 402 H 35.6094 -2.14288 -4.34981 0
M  V30 403 N 36.9525 1.47285 -0.560781 0
M  V30 404 C 37.9005 2.31756 0.197942 0
M  V30 405 C 38.8945 1.43146 0.905854 0
M  V30 406 O 40.1005 1.59891 0.826733 0
M  V30 407 H 36.4755 0.747438 0.0827049 0
M  V30 408 H 38.4465 2.9359 -0.533629 0
M  V30 409 C 37.1955 3.25874 1.21249 0
M  V30 410 H 36.5185 3.94023 0.67719 0
M  V30 411 H 37.9585 3.87803 1.71419 0
M  V30 412 C 36.4175 2.49651 2.26221 0
M  V30 413 O 36.9475 2.24355 3.33208 0
M  V30 414 N 35.1535 2.10597 2.00243 0
M  V30 415 H 34.7005 2.31369 1.13252 0
M  V30 416 H 34.6585 1.59913 2.70694 0
M  V30 417 N 38.4306 0.297415 1.54768 0
M  V30 418 C 39.8466 -0.0560823 1.59501 0
M  V30 419 C 40.0466 -1.52725 1.31444 0
M  V30 420 O 39.1026 -2.27947 1.08611 0
M  V30 421 C 40.4156 0.338631 2.98787 0
M  V30 422 C 41.9636 0.287097 3.11681 0
M  V30 423 C 42.4386 0.656579 4.53269 0
M  V30 424 N 43.9296 0.608977 4.59179 0
M  V30 425 C 44.6646 0.867385 5.66802 0
M  V30 426 N 44.1606 1.19157 6.82476 0
M  V30 427 N 45.9536 0.794687 5.56454 0
M  V30 428 H 38.1046 1.25624 1.71267 0
M  V30 429 H 40.3676 0.509057 0.799728 0
M  V30 430 H 40.0736 1.36263 3.2423 0
M  V30 431 H 39.9476 -0.309508 3.75928 0
M  V30 432 H 42.3346 -0.727649 2.85988 0
M  V30 433 H 42.4156 0.969809 2.36703 0
M  V30 434 H 42.0596 1.66912 4.7969 0
M  V30 435 H 41.9896 -0.0481649 5.26578 0
M  V30 436 H 44.4806 0.369198 3.76092 0
M  V30 437 H 44.7936 1.37482 7.60473 0
M  V30 438 H 43.1386 1.22958 6.84037 0
M  V30 439 H 46.3296 0.541098 4.64962 0
M  V30 440 H 46.5026 0.999445 6.40246 0
M  V30 441 N 39.9087 -1.5758 0.0250728 0
M  V30 442 C 40.8387 -2.13007 -0.956575 0
M  V30 443 C 41.8197 -1.0452 -1.342 0
M  V30 444 O 43.0047 -1.32332 -1.42133 0
M  V30 445 C 40.1347 -2.65386 -2.24026 0
M  V30 446 C 39.0887 -3.78623 -1.99571 0
M  V30 447 C 38.4147 -4.17414 -3.3417 0
M  V30 448 C 39.7147 -5.04867 -1.33814 0
M  V30 449 H 41.4087 -2.9528 -0.494991 0
M  V30 450 H 38.9547 -1.42042 -0.236651 0
M  V30 451 H 40.9077 -3.02794 -2.93076 0
M  V30 452 H 39.6317 -1.80268 -2.72343 0
M  V30 453 H 38.2907 -3.41646 -1.32941 0
M  V30 454 H 37.9387 -3.29284 -3.80238 0
M  V30 455 H 37.6387 -4.93719 -3.18615 0
M  V30 456 H 39.1627 -4.57402 -4.04495 0
M  V30 457 H 40.5767 -5.39888 -1.92857 0
M  V30 458 H 38.9737 -5.86144 -1.28669 0
M  V30 459 H 40.0437 -4.83904 -0.310561 0
M  V30 460 N 41.3868 0.248026 -1.55636 0
M  V30 461 C 42.3498 1.29044 -1.89421 0
M  V30 462 C 43.3498 1.41134 -0.770581 0
M  V30 463 O 44.5398 1.39854 -1.03858 0
M  V30 464 C 41.6718 2.66831 -2.12165 0
M  V30 465 H 42.8648 1.00305 -2.82629 0
M  V30 466 H 40.4178 0.487265 -1.48511 0
M  V30 467 H 41.1528 3.00711 -1.21422 0
M  V30 468 H 40.9378 2.59438 -2.93997 0
M  V30 469 H 42.4278 3.42103 -2.3949 0
M  V30 470 N 42.8649 1.48995 0.513639 0
M  V30 471 C 43.8279 1.64229 1.59879 0
M  V30 472 C 44.8279 0.514696 1.5234 0
M  V30 473 O 46.0179 0.78087 1.55718 0
M  V30 474 C 43.1499 1.62783 2.99524 0
M  V30 475 H 44.3429 2.61004 1.47705 0
M  V30 476 H 41.8959 1.37837 0.736936 0
M  V30 477 H 42.6309 0.675461 3.17188 0
M  V30 478 H 42.4159 2.4466 3.06404 0
M  V30 479 H 43.9059 1.76669 3.78388 0
M  V30 480 N 44.343 -0.763751 1.37857 0
M  V30 481 C 45.293 -1.86765 1.30777 0
M  V30 482 C 46.277 -1.59726 0.194015 0
M  V30 483 O 47.469 -1.7172 0.42911 0
M  V30 484 C 44.598 -3.24343 1.12502 0
M  V30 485 C 43.684 -3.57307 2.28456 0
M  V30 486 N 44.075 -3.61398 3.53871 0
M  V30 487 C 42.373 -3.87517 2.20786 0
M  V30 488 C 43.074 -3.91339 4.30382 0
M  V30 489 N 42.05 -4.07649 3.59615 0
M  V30 490 H 45.852 -1.88191 2.25746 0
M  V30 491 H 43.366 -0.9606 1.30944 0
M  V30 492 H 45.363 -4.03327 1.05514 0
M  V30 493 H 44.023 -3.24175 0.184574 0
M  V30 494 H 45.034 -3.43407 3.87675 0
M  V30 495 H 41.711 -3.95125 1.34844 0
M  V30 496 H 43.101 -4.01213 5.3896 0
M  V30 497 N 45.8211 -1.22559 -0.990812 0
M  V30 498 C 47.2321 -1.04791 -1.54518 0
M  V30 499 C 47.5831 0.387998 -1.92325 0
M  V30 500 O 46.7081 1.27328 -1.74976 0
M  V30 501 C 47.3031 -1.896 -2.80779 0
M  V30 502 C 45.8621 -1.76124 -3.32652 0
M  V30 503 C 45.0091 -1.8594 -2.05722 0
M  V30 504 H 47.9601 -1.36374 -0.811662 0
M  V30 505 H 47.9811 -1.41464 -3.53225 0
M  V30 506 H 47.4931 -2.94101 -2.53231 0
M  V30 507 H 45.5941 -0.743643 -3.65104 0
M  V30 508 H 45.7071 -2.58913 -4.03114 0
M  V30 509 H 44.0711 -1.29403 -2.19379 0
M  V30 510 H 44.8541 -2.91976 -1.80568 0
M  V30 511 N 47.2992 1.18797 -1.03562 0
M  V30 512 C 48.7102 1.70322 -0.764676 0
M  V30 513 C 49.0612 1.82708 0.714996 0
M  V30 514 O 48.1862 1.50299 1.55689 0
M  V30 515 C 48.7812 3.09356 -1.38145 0
M  V30 516 C 47.3402 3.58114 -1.15895 0
M  V30 517 C 46.4872 2.34798 -1.4753 0
M  V30 518 H 49.4382 1.03543 -1.20268 0
M  V30 519 H 49.4592 3.72378 -0.781977 0
M  V30 520 H 48.9712 3.00309 -2.45837 0
M  V30 521 H 47.0722 3.72464 -0.100544 0
M  V30 522 H 47.1852 4.4184 -1.8524 0
M  V30 523 H 45.5492 2.38464 -0.894829 0
M  V30 524 H 46.3322 2.28375 -2.56319 0
M  V30 525 N 48.7773 0.814389 1.34928 0
M  V30 526 C 50.0243 0.398423 1.98542 0
M  V30 527 C 50.3523 -1.03638 1.64589 0
M  V30 528 O 49.6073 -1.73509 0.90516 0
M  V30 529 C 49.9063 0.537781 3.53331 0
M  V30 530 C 49.5723 1.93704 4.07172 0
M  V30 531 C 48.2343 2.31984 4.21589 0
M  V30 532 C 50.5863 2.85213 4.36237 0
M  V30 533 C 47.9143 3.61125 4.62391 0
M  V30 534 C 50.2663 4.13809 4.78482 0
M  V30 535 C 48.9303 4.52077 4.91104 0
M  V30 536 H 48.2003 0.145793 0.726516 0
M  V30 537 H 50.8473 1.03669 1.61012 0
M  V30 538 H 49.1523 -0.183906 3.91368 0
M  V30 539 H 50.8493 0.196588 4.00518 0
M  V30 540 H 47.4393 1.62966 3.96409 0
M  V30 541 H 51.6233 2.56885 4.24645 0
M  V30 542 H 46.8793 3.90612 4.70353 0
M  V30 543 H 51.0533 4.84811 4.99932 0
M  V30 544 H 48.6803 5.52196 5.22478 0
M  V30 545 N 50.2554 -1.46986 0.568584 0
M  V30 546 C 51.2184 -2.28624 -0.162366 0
M  V30 547 C 52.2184 -1.37596 -0.832103 0
M  V30 548 O 53.4084 -1.60115 -0.68622 0
M  V30 549 C 50.5404 -3.17596 -1.23878 0
M  V30 550 H 51.7334 -2.94722 0.554899 0
M  V30 551 H 49.2864 -1.52863 0.325976 0
M  V30 552 H 50.0214 -2.56214 -1.98808 0
M  V30 553 H 49.8064 -3.846 -0.763219 0
M  V30 554 H 51.2964 -3.79078 -1.75185 0
M  V30 555 N 51.7335 -0.305618 -1.54608 0
M  V30 556 C 52.9585 0.307562 -2.05107 0
M  V30 557 C 53.3835 1.46385 -1.18123 0
M  V30 558 O 52.7415 1.8034 -0.186324 0
M  V30 559 C 52.7895 0.73704 -3.52987 0
M  V30 560 O 51.8935 1.84134 -3.6901 0
M  V30 561 H 51.2345 0.0589143 -0.661381 0
M  V30 562 H 53.7645 -0.448807 -1.99617 0
M  V30 563 H 53.7745 1.02459 -3.94925 0
M  V30 564 H 52.4495 -0.108773 -4.15758 0
M  V30 565 H 51.0265 1.55398 -3.38978 0
M  V30 566 N 53.2116 1.57565 -0.0334293 0
M  V30 567 C 54.4576 1.93088 0.639417 0
M  V30 568 C 54.8126 0.910589 1.69488 0
M  V30 569 O 54.1056 -0.0727725 1.91462 0
M  V30 570 C 54.2996 3.33112 1.29504 0
M  V30 571 C 54.1286 4.48667 0.304604 0
M  V30 572 C 52.8986 5.05207 -0.0970777 0
M  V30 573 C 55.0966 5.1239 -0.442845 0
M  V30 574 N 53.0786 6.04286 -1.08223 0
M  V30 575 C 54.4496 6.06609 -1.28161 0
M  V30 576 C 56.5046 4.95352 -0.50308 0
M  V30 577 C 55.2076 6.85622 -2.17519 0
M  V30 578 C 57.2336 5.74978 -1.38401 0
M  V30 579 C 56.5956 6.68816 -2.21054 0
M  V30 580 H 52.6946 0.754335 0.206161 0
M  V30 581 H 55.2786 1.94435 -0.101613 0
M  V30 582 H 53.4496 3.32576 2.00618 0
M  V30 583 H 55.1816 3.55972 1.92525 0
M  V30 584 H 51.9366 4.72782 0.278255 0
M  V30 585 H 52.3606 6.58516 -1.57117 0
M  V30 586 H 57.0026 4.22625 0.121694 0
M  V30 587 H 54.7206 7.57652 -2.81049 0
M  V30 588 H 58.3066 5.63826 -1.43496 0
M  V30 589 H 57.1866 7.29355 -2.88116 0
M  V30 590 N 54.6897 -0.239769 1.55765 0
M  V30 591 C 56.1057 -0.588624 1.48349 0
M  V30 592 C 56.3057 -1.88005 0.72502 0
M  V30 593 O 55.3617 -2.51186 0.257269 0
M  V30 594 C 56.6747 -0.68474 2.928 0
M  V30 595 C 58.2227 -0.77659 3.03213 0
M  V30 596 C 58.6977 -0.904207 4.48986 0
M  V30 597 N 60.1887 -0.968896 4.52953 0
M  V30 598 C 60.9237 -1.08703 5.63002 0
M  V30 599 N 60.4197 -1.17026 6.82845 0
M  V30 600 N 62.2127 -1.12074 5.50814 0
M  V30 601 H 54.3637 0.607911 2.03515 0
M  V30 602 H 56.6267 0.21083 0.924259 0
M  V30 603 H 56.3327 0.194284 3.51163 0
M  V30 604 H 56.2067 -1.55435 3.43686 0
M  V30 605 H 58.5937 -1.64606 2.44926 0
M  V30 606 H 58.6747 0.118315 2.55526 0
M  V30 607 H 58.3187 -0.0392633 5.07885 0
M  V30 608 H 58.2487 -1.81426 4.9436 0
M  V30 609 H 60.7397 -0.915633 3.6664 0
M  V30 610 H 61.0527 -1.25966 7.62465 0
M  V30 611 H 59.3977 -1.13971 6.85591 0
M  V30 612 H 62.5887 -1.05226 4.5612 0
M  V30 613 H 62.7617 -1.20936 6.36615 0
M  V30 614 N 56.1678 -1.49265 -0.50573 0
M  V30 615 C 57.1158 -1.66065 -1.62866 0
M  V30 616 C 58.1098 -0.526636 -1.61006 0
M  V30 617 O 59.3158 -0.706126 -1.65571 0
M  V30 618 H 55.6908 -0.52356 -0.539805 0
M  V30 619 H 57.6618 -2.60329 -1.45848 0
M  V30 620 C 56.4108 -1.74008 -3.01026 0
M  V30 621 H 55.7338 -2.6064 -3.03161 0
M  V30 622 H 57.1738 -1.89798 -3.79147 0
M  V30 623 C 55.6328 -0.483868 -3.33407 0
M  V30 624 O 56.1628 0.392548 -3.99777 0
M  V30 625 N 54.3688 -0.348236 -2.88506 0
M  V30 626 H 53.9158 -1.06242 -2.34671 0
M  V30 627 H 53.8738 0.491204 -3.10539 0
M  V30 628 N 57.6459 0.756429 -1.3826 0
M  V30 629 C 58.8709 1.55077 -1.37717 0
M  V30 630 C 59.2959 1.88073 0.03164 0
M  V30 631 O 58.6539 1.50364 1.01293 0
M  V30 632 C 58.7019 2.8283 -2.23695 0
M  V30 633 O 57.8059 3.77862 -1.6521 0
M  V30 634 H 57.1469 0.469152 -0.469885 0
M  V30 635 H 59.6769 0.935019 -1.81985 0
M  V30 636 H 59.6869 3.31783 -2.37453 0
M  V30 637 H 58.3619 2.58144 -3.2609 0
M  V30 638 H 56.9389 3.36555 -1.60578 0
M  V30 639 N 59.124 1.23083 0.984299 0
M  V30 640 C 60.034 1.02515 2.11016 0
M  V30 641 C 61.05 -0.0291702 1.73976 0
M  V30 642 O 62.226 0.165434 2.00719 0
M  V30 643 C 59.291 0.614673 3.41208 0
M  V30 644 C 58.352 1.74359 3.92297 0
M  V30 645 C 57.585 1.35261 5.16275 0
M  V30 646 O 57.808 0.235136 5.69915 0
M  V30 647 O 56.742 2.17227 5.61334 0
M  V30 648 H 60.568 1.96862 2.31255 0
M  V30 649 H 58.153 1.01753 1.09392 0
M  V30 650 H 60.035 0.396518 4.1953 0
M  V30 651 H 58.71 -0.299851 3.22308 0
M  V30 652 H 57.617 2.01635 3.1511 0
M  V30 653 H 58.95 2.63629 4.15645 0
M  V30 654 N 60.6021 -1.18246 1.0419 0
M  V30 655 C 61.5121 -2.25574 0.644476 0
M  V30 656 C 62.5281 -1.70845 -0.329826 0
M  V30 657 O 63.7041 -2.00554 -0.184443 0
M  V30 658 C 60.7691 -3.46697 0.014877 0
M  V30 659 C 59.8301 -4.16554 1.03834 0
M  V30 660 C 59.0631 -5.31894 0.438692 0
M  V30 661 O 59.2861 -5.65385 -0.754752 0
M  V30 662 O 58.2201 -5.90459 1.168 0
M  V30 663 H 62.0461 -2.61836 1.53869 0
M  V30 664 H 59.6311 -1.25352 0.812854 0
M  V30 665 H 61.5131 -4.20062 -0.335538 0
M  V30 666 H 60.1881 -3.12255 -0.853138 0
M  V30 667 H 59.0951 -3.45251 1.44057 0
M  V30 668 H 60.4281 -4.54998 1.87716 0
M  V30 669 N 62.0802 -0.821533 -1.34494 0
M  V30 670 C 63.0432 -0.247847 -2.27856 0
M  V30 671 C 64.0432 0.573453 -1.50227 0
M  V30 672 O 65.2332 0.389759 -1.69784 0
M  V30 673 C 62.3652 0.652698 -3.34593 0
M  V30 674 H 63.5582 -1.07146 -2.80107 0
M  V30 675 H 61.1112 -0.593291 -1.44602 0
M  V30 676 H 61.8462 1.49943 -2.87555 0
M  V30 677 H 61.6312 0.065292 -3.92046 0
M  V30 678 H 63.1212 1.04793 -4.04238 0
M  V30 679 N 63.5583 1.46682 -0.576371 0
M  V30 680 C 64.9743 1.57822 -0.237562 0
M  V30 681 C 65.1743 1.57237 1.26011 0
M  V30 682 O 64.2303 1.48596 2.04146 0
M  V30 683 C 65.5433 2.87499 -0.881168 0
M  V30 684 C 67.0913 3.01119 -0.85417 0
M  V30 685 C 67.5663 4.33524 -1.4772 0
M  V30 686 N 69.0573 4.40207 -1.44125 0
M  V30 687 C 69.7923 5.4126 -1.89276 0
M  V30 688 N 69.2883 6.49021 -2.42371 0
M  V30 689 N 71.0813 5.32422 -1.80231 0
M  V30 690 H 63.2323 1.45306 -1.54919 0
M  V30 691 H 65.4953 0.692733 -0.647167 0
M  V30 692 H 65.2013 2.9372 -1.93447 0
M  V30 693 H 65.0753 3.75224 -0.385592 0
M  V30 694 H 67.4623 2.94485 0.190491 0
M  V30 695 H 67.5433 2.14887 -1.3877 0
M  V30 696 H 67.1873 4.40916 -2.52103 0
M  V30 697 H 67.1173 5.1852 -0.918947 0
M  V30 698 H 69.6083 3.62931 -1.05307 0
M  V30 699 H 69.9213 7.2233 -2.74698 0
M  V30 700 H 68.2663 6.49858 -2.46393 0
M  V30 701 H 71.4573 4.47137 -1.38514 0
M  V30 702 H 71.6303 6.11034 -2.15735 0
M  V30 703 N 65.0364 0.313813 1.54444 0
M  V30 704 C 66.2644 -0.293918 2.04802 0
M  V30 705 C 66.6794 -1.46537 1.19047 0
M  V30 706 O 66.0364 -1.81182 0.218939 0
M  V30 707 C 66.0874 -0.737806 3.53891 0
M  V30 708 O 65.8084 0.387038 4.36387 0
M  V30 709 C 67.3094 -1.40936 4.203 0
M  V30 710 H 64.5294 -0.0620057 0.668129 0
M  V30 711 H 67.0734 0.457169 1.99324 0
M  V30 712 H 65.2284 -1.43889 3.59687 0
M  V30 713 H 65.6424 0.0391274 5.24485 0
M  V30 714 H 67.1164 -1.67099 5.26101 0
M  V30 715 H 67.5934 -2.35355 3.70816 0
M  V30 716 H 68.1994 -0.751117 4.18615 0
M  V30 717 N 66.5145 -1.57545 0.0417849 0
M  V30 718 C 67.7915 -1.83642 -0.673433 0
M  V30 719 C 68.1715 -0.928298 -1.89594 0
M  V30 720 O 67.5195 0.0129955 -2.28496 0
M  V30 721 C 67.7295 -3.33155 -1.03964 0
M  V30 722 C 69.0775 -3.99941 -1.42592 0
M  V30 723 O 70.1015 -3.37725 -1.13226 0
M  V30 724 O 68.9605 -5.09619 -1.9736 0
M  V30 725 H 66.0545 -0.757638 -0.331533 0
M  V30 726 H 68.6005 -1.69554 0.070433 0
M  V30 727 H 67.3725 -3.9093 -0.170098 0
M  V30 728 H 66.9955 -3.52396 -1.84126 0
M  V30 729 N 67.9926 0.231505 -1.5589 0
M  V30 730 C 69.4086 0.580748 -1.48659 0
M  V30 731 C 69.6086 1.87617 -0.73498 0
M  V30 732 O 68.6646 2.51046 -0.270586 0
M  V30 733 C 69.9776 0.669202 -2.93159 0
M  V30 734 C 71.5256 0.760499 -3.03621 0
M  V30 735 C 72.0006 0.880383 -4.49459 0
M  V30 736 N 73.4916 0.944861 -4.53461 0
M  V30 737 C 74.2266 1.05716 -5.63571 0
M  V30 738 N 73.7226 1.13403 -6.83456 0
M  V30 739 N 75.5156 1.09152 -5.514 0
M  V30 740 H 67.6666 -0.618695 -2.03189 0
M  V30 741 H 69.9296 -0.215728 -0.923128 0
M  V30 742 H 69.6356 -0.212904 -3.51055 0
M  V30 743 H 69.5096 1.5361 -3.44505 0
M  V30 744 H 71.8966 1.63305 -2.45796 0
M  V30 745 H 71.9776 -0.131864 -2.5546 0
M  V30 746 H 71.6216 0.0123284 -5.07899 0
M  V30 747 H 71.5516 1.78802 -4.95316 0
M  V30 748 H 74.0426 0.896176 -3.6712 0
M  V30 749 H 74.3556 1.21921 -7.63122 0
M  V30 750 H 72.7006 1.10333 -6.86186 0
M  V30 751 H 75.8916 1.02805 -4.56671 0
M  V30 752 H 76.0646 1.17558 -6.37247 0
M  V30 753 N 69.4707 1.49531 0.497807 0
M  V30 754 C 70.8817 1.52344 1.07927 0
M  V30 755 C 71.2327 0.311469 1.93712 0
M  V30 756 O 70.3577 -0.578405 2.08527 0
M  V30 757 C 70.9527 2.76062 1.96405 0
M  V30 758 C 69.5117 2.81643 2.49709 0
M  V30 759 C 68.6587 2.46299 1.27404 0
M  V30 760 H 71.6097 1.56182 0.281576 0
M  V30 761 H 71.6307 2.56405 2.81135 0
M  V30 762 H 71.1427 3.64254 1.33943 0
M  V30 763 H 69.2437 1.97739 3.15801 0
M  V30 764 H 69.3567 3.83891 2.86643 0
M  V30 765 H 67.7207 1.98148 1.60029 0
M  V30 766 H 68.5037 3.36769 0.66645 0
M  V30 767 N 70.9488 -0.749086 1.3866 0
M  V30 768 C 72.1738 -1.54344 1.38538 0
M  V30 769 C 72.5988 -1.88088 -0.0216655 0
M  V30 770 O 71.9568 -1.50899 -1.00494 0
M  V30 771 C 72.0048 -2.8164 2.25192 0
M  V30 772 O 71.1088 -3.7698 1.67212 0
M  V30 773 H 70.4498 -0.466654 0.472367 0
M  V30 774 H 72.9798 -0.925355 1.82478 0
M  V30 775 H 72.9898 -3.30519 2.3921 0
M  V30 776 H 71.6648 -2.56411 3.27454 0
M  V30 777 H 70.2418 -3.35699 1.6236 0
M  V30 778 N 72.4269 -1.23603 -0.977757 0
M  V30 779 C 73.3589 -0.977369 -2.07317 0
M  V30 780 C 74.3719 0.0495845 -1.62724 0
M  V30 781 O 75.5609 -0.186261 -1.77526 0
M  V30 782 C 72.6609 -0.451216 -3.35883 0
M  V30 783 C 71.8339 -1.53896 -4.09432 0
M  V30 784 C 70.8929 -1.01721 -5.16274 0
M  V30 785 O 69.9189 -1.70676 -5.43009 0
M  V30 786 N 71.1209 0.153594 -5.80297 0
M  V30 787 H 73.8859 -1.92047 -2.30082 0
M  V30 788 H 71.4469 -1.14497 -1.14465 0
M  V30 789 H 73.4389 -0.0871574 -4.04606 0
M  V30 790 H 72.0089 0.397368 -3.10064 0
M  V30 791 H 71.2289 -2.07566 -3.35127 0
M  V30 792 H 72.5169 -2.27037 -4.55337 0
M  V30 793 H 71.9149 0.730323 -5.60966 0
M  V30 794 H 70.4719 0.458892 -6.50183 0
M  V30 795 N 73.905 1.17692 -1.04816 0
M  V30 796 C 74.837 2.21103 -0.603822 0
M  V30 797 C 75.85 1.59411 0.33046 0
M  V30 798 O 77.039 1.7807 0.12379 0
M  V30 799 C 74.139 3.38623 0.136898 0
M  V30 800 C 73.312 4.29888 -0.807137 0
M  V30 801 C 72.371 5.26088 -0.10836 0
M  V30 802 O 71.397 5.64353 -0.741232 0
M  V30 803 N 72.599 5.68882 1.15558 0
M  V30 804 H 75.364 2.59848 -1.49329 0
M  V30 805 H 72.925 1.32553 -0.929587 0
M  V30 806 H 74.917 4.00009 0.614401 0
M  V30 807 H 73.487 2.98508 0.927993 0
M  V30 808 H 72.707 3.65993 -1.46434 0
M  V30 809 H 73.995 4.87759 -1.44807 0
M  V30 810 H 73.393 5.39861 1.69015 0
M  V30 811 H 71.95 6.32429 1.57722 0
M  V30 812 N 75.3831 0.828654 1.34056 0
M  V30 813 C 76.3131 0.269443 2.3194 0
M  V30 814 C 77.2941 -0.617247 1.58506 0
M  V30 815 O 78.4791 -0.542931 1.86456 0
M  V30 816 C 75.6091 -0.564793 3.42677 0
M  V30 817 C 74.5631 0.225241 4.27407 0
M  V30 818 C 73.8891 -0.7321 5.29664 0
M  V30 819 C 75.1891 1.43663 5.02154 0
M  V30 820 H 76.8831 1.08728 2.7896 0
M  V30 821 H 74.4291 0.524283 1.34117 0
M  V30 822 H 76.3821 -0.966233 4.10173 0
M  V30 823 H 75.1061 -1.41574 2.9432 0
M  V30 824 H 73.7651 0.608117 3.61521 0
M  V30 825 H 73.4131 -1.57916 4.77568 0
M  V30 826 H 73.1131 -0.20767 5.87233 0
M  V30 827 H 74.6371 -1.13128 6.00029 0
M  V30 828 H 76.0511 1.1089 5.62473 0
M  V30 829 H 74.4481 1.89711 5.69324 0
M  V30 830 H 75.5181 2.21181 4.31517 0
M  V30 831 N 76.8612 -1.46375 0.584142 0
M  V30 832 C 78.2772 -1.57694 0.245929 0
M  V30 833 C 78.4772 -1.57903 -1.25175 0
M  V30 834 O 77.5332 -1.49676 -2.03355 0
M  V30 835 C 78.8462 -2.87028 0.896402 0
M  V30 836 C 80.3942 -3.00662 0.870127 0
M  V30 837 C 80.8692 -4.32734 1.50017 0
M  V30 838 N 82.3602 -4.39436 1.46458 0
M  V30 839 C 83.0952 -5.40248 1.92144 0
M  V30 840 N 82.5912 -6.47726 2.4581 0
M  V30 841 N 84.3842 -5.31459 1.83052 0
M  V30 842 H 76.5352 -1.44483 1.55687 0
M  V30 843 H 78.7982 -0.689291 0.650831 0
M  V30 844 H 78.5042 -2.9269 1.95002 0
M  V30 845 H 78.3782 -3.75014 0.405486 0
M  V30 846 H 80.7652 -2.94581 -0.174871 0
M  V30 847 H 80.8462 -2.14148 1.39908 0
M  V30 848 H 80.4902 -4.39573 2.54437 0
M  V30 849 H 80.4202 -5.18025 0.946432 0
M  V30 850 H 82.9112 -3.62367 1.07231 0
M  V30 851 H 83.2242 -7.20863 2.78525 0
M  V30 852 H 81.5692 -6.48542 2.49836 0
M  V30 853 H 84.7602 -4.46396 1.40883 0
M  V30 854 H 84.9332 -6.09881 2.18973 0
M  V30 855 N 78.3393 -0.321999 -1.54275 0
M  V30 856 C 79.5643 0.285791 -2.05422 0
M  V30 857 C 79.9893 1.45124 -1.19669 0
M  V30 858 O 79.3473 1.80132 -0.205441 0
M  V30 859 C 79.3953 0.69956 -3.53749 0
M  V30 860 O 78.4993 1.8021 -3.70942 0
M  V30 861 H 77.8403 0.0518962 -0.661969 0
M  V30 862 H 80.3703 -0.469954 -1.9913 0
M  V30 863 H 80.3803 0.982649 -3.9599 0
M  V30 864 H 79.0553 -0.152864 -4.15619 0
M  V30 865 H 77.6323 1.51794 -3.40607 0
M  V30 866 N 79.8174 1.5752 -0.0501392 0
M  V30 867 C 80.7474 2.14502 0.922566 0
M  V30 868 C 81.7284 1.06642 1.3252 0
M  V30 869 O 82.9134 1.34577 1.4001 0
M  V30 870 C 80.0434 2.68916 2.19776 0
M  V30 871 C 78.9974 3.8175 1.93523 0
M  V30 872 C 78.3234 4.22677 3.27487 0
M  V30 873 C 79.6234 5.06932 1.25765 0
M  V30 874 H 81.3174 2.9603 0.447952 0
M  V30 875 H 78.8634 1.42401 0.214024 0
M  V30 876 H 80.8164 3.07419 2.88222 0
M  V30 877 H 79.5404 1.84578 2.69441 0
M  V30 878 H 78.1994 3.43718 1.27489 0
M  V30 879 H 77.8474 3.35291 3.74952 0
M  V30 880 H 77.5474 4.98725 3.1072 0
M  V30 881 H 79.0714 4.63779 3.97166 0
M  V30 882 H 80.4854 5.42888 1.84244 0
M  V30 883 H 78.8824 5.88116 1.19328 0
M  V30 884 H 79.9524 4.84337 0.233536 0
M  V30 885 N 81.2955 -0.223234 1.56011 0
M  V30 886 C 82.2435 -1.29627 1.93131 0
M  V30 887 C 83.2375 -1.48608 0.813146 0
M  V30 888 O 84.4435 -1.49802 0.997966 0
M  V30 889 H 80.8185 -0.434563 0.613726 0
M  V30 890 H 82.7895 -0.955995 2.82672 0
M  V30 891 C 81.5385 -2.63983 2.26292 0
M  V30 892 H 80.8615 -2.50185 3.11846 0
M  V30 893 H 82.3015 -3.3788 2.56151 0
M  V30 894 C 80.7605 -3.18866 1.08747 0
M  V30 895 O 81.2905 -4.00192 0.347727 0
M  V30 896 N 79.4965 -2.77217 0.871743 0
M  V30 897 H 79.0435 -2.1119 1.47501 0
M  V30 898 H 79.0015 -3.1428 0.0869905 0
M  V30 899 N 82.7736 -1.49793 -0.48987 0
M  V30 900 C 84.0216 -1.59525 -1.24081 0
M  V30 901 C 84.3426 -0.288953 -1.92847 0
M  V30 902 O 83.6126 0.692436 -1.83254 0
M  V30 903 H 82.1926 -0.587796 -0.460983 0
M  V30 904 H 84.8546 -1.86477 -0.566778 0
M  V30 905 H 83.9506 -2.39696 -1.99881 0
M  V30 906 N 84.2517 0.741722 -1.39055 0
M  V30 907 C 85.1617 1.88621 -1.39496 0
M  V30 908 C 86.1777 1.71557 -0.290578 0
M  V30 909 O 87.3537 1.94275 -0.530954 0
M  V30 910 C 84.4187 3.24134 -1.23037 0
M  V30 911 C 83.4797 3.5364 -2.43387 0
M  V30 912 C 82.7127 4.82687 -2.27703 0
M  V30 913 O 82.9357 5.55922 -1.27696 0
M  V30 914 O 81.8697 5.1194 -3.16545 0
M  V30 915 H 85.6957 1.91203 -2.35956 0
M  V30 916 H 83.2807 0.888625 -1.20099 0
M  V30 917 H 85.1627 4.0513 -1.15964 0
M  V30 918 H 83.8377 3.22337 -0.296691 0
M  V30 919 H 82.7447 2.72758 -2.56035 0
M  V30 920 H 84.0777 3.60209 -3.35425 0
M  V30 921 N 85.7298 1.2412 0.971189 0
M  V30 922 C 86.9758 1.09048 1.71698 0
M  V30 923 C 87.3308 -0.367442 1.88859 0
M  V30 924 O 86.6238 -1.26792 1.43646 0
M  V30 925 C 86.8178 1.75983 3.11071 0
M  V30 926 C 86.6468 3.28133 3.07504 0
M  V30 927 C 85.4168 3.97331 3.1218 0
M  V30 928 C 87.6148 4.24773 2.89952 0
M  V30 929 N 85.5968 5.3639 2.98596 0
M  V30 930 C 86.9678 5.50806 2.84627 0
M  V30 931 C 89.0228 4.15392 2.74506 0
M  V30 932 C 87.7258 6.68533 2.65437 0
M  V30 933 C 89.7518 5.32793 2.56682 0
M  V30 934 C 89.1138 6.57756 2.52063 0
M  V30 935 H 85.2128 0.453632 0.636979 0
M  V30 936 H 87.7968 1.56983 1.15171 0
M  V30 937 H 85.9678 1.30566 3.65796 0
M  V30 938 H 87.6998 1.53803 3.74335 0
M  V30 939 H 84.4548 3.48473 3.20724 0
M  V30 940 H 84.8788 6.09321 2.95054 0
M  V30 941 H 89.5208 3.19543 2.76861 0
M  V30 942 H 87.2388 7.64509 2.61825 0
M  V30 943 H 90.8248 5.27383 2.4568 0
M  V30 944 H 89.7048 7.4707 2.38446 0
M  V30 945 N 87.2079 -1.17134 1.05439 0
M  V30 946 C 88.6239 -1.39454 0.776201 0
M  V30 947 C 88.8239 -1.91454 -0.628307 0
M  V30 948 O 87.8799 -2.10777 -1.39031 0
M  V30 949 C 89.1929 -2.38305 1.83388 0
M  V30 950 C 90.7409 -2.52006 1.85639 0
M  V30 951 C 91.2159 -3.54133 2.90437 0
M  V30 952 N 92.7069 -3.61653 2.89415 0
M  V30 953 C 93.4419 -4.4044 3.67152 0
M  V30 954 N 92.9379 -5.22721 4.54681 0
M  V30 955 N 94.7309 -4.35337 3.55581 0
M  V30 956 H 86.8819 -0.817134 1.96053 0
M  V30 957 H 89.1449 -0.421626 0.849079 0
M  V30 958 H 88.8509 -2.07173 2.84204 0
M  V30 959 H 88.7249 -3.37841 1.67761 0
M  V30 960 H 91.1119 -2.82447 0.85486 0
M  V30 961 H 91.1929 -1.52537 2.05344 0
M  V30 962 H 90.8369 -3.24431 3.90777 0
M  V30 963 H 90.7669 -4.53313 2.67983 0
M  V30 964 H 93.2579 -3.02909 2.25952 0
M  V30 965 H 93.5709 -5.80027 5.10674 0
M  V30 966 H 91.9159 -5.22093 4.58741 0
M  V30 967 H 95.1069 -3.70112 2.86592 0
M  V30 968 H 95.2799 -4.96494 4.1641 0
M  V30 969 N 88.686 -0.835752 -1.33615 0
M  V30 970 C 89.933 -0.429959 -1.97883 0
M  V30 971 C 90.261 1.01006 -1.66217 0
M  V30 972 O 89.516 1.72047 -0.93265 0
M  V30 973 C 89.815 -0.593925 -3.52431 0
M  V30 974 C 89.481 -2.00158 -4.04039 0
M  V30 975 C 88.143 -2.38662 -4.17844 0
M  V30 976 C 90.495 -2.92117 -4.31644 0
M  V30 977 C 87.823 -3.68435 -4.56588 0
M  V30 978 C 90.175 -4.21368 -4.71838 0
M  V30 979 C 88.839 -4.59833 -4.83849 0
M  V30 980 H 88.109 -0.157333 -0.724104 0
M  V30 981 H 90.756 -1.06217 -1.59343 0
M  V30 982 H 89.061 0.121619 -3.91611 0
M  V30 983 H 90.758 -0.260282 -4.00154 0
M  V30 984 H 87.348 -1.69252 -3.93766 0
M  V30 985 H 91.532 -2.63608 -4.20505 0
M  V30 986 H 86.788 -3.98046 -4.64079 0
M  V30 987 H 90.962 -4.92703 -4.92155 0
M  V30 988 H 88.589 -5.60438 -5.13627 0
M  V30 989 N 90.1641 1.46063 -0.591896 0
M  V30 990 C 91.1271 2.28854 0.125973 0
M  V30 991 C 92.1271 1.38903 0.810107 0
M  V30 992 O 93.3171 1.61186 0.66066 0
M  V30 993 C 90.4491 3.19526 1.1881 0
M  V30 994 H 91.6421 2.93802 -0.601717 0
M  V30 995 H 89.1951 1.52325 -0.350254 0
M  V30 996 H 89.9301 2.59345 1.94707 0
M  V30 997 H 89.7151 3.85766 0.701936 0
M  V30 998 H 91.2051 3.81817 1.69132 0
M  V30 999 N 91.6422 0.330177 1.54103 0
M  V30 1000 C 92.8882 -0.263542 2.01685 0
M  V30 1001 C 93.2432 -1.49258 1.21408 0
M  V30 1002 O 92.5362 -1.89395 0.289852 0
M  V30 1003 C 92.7302 -0.643134 3.51566 0
M  V30 1004 C 92.5592 0.547571 4.46354 0
M  V30 1005 C 91.3292 1.04873 4.94297 0
M  V30 1006 C 93.5272 1.40184 4.94826 0
M  V30 1007 N 91.5092 2.20316 5.73005 0
M  V30 1008 C 92.8802 2.40335 5.71524 0
M  V30 1009 C 94.9352 1.42884 4.76958 0
M  V30 1010 C 93.6382 3.42998 6.32254 0
M  V30 1011 C 95.6642 2.44421 5.38528 0
M  V30 1012 C 95.0262 3.43298 6.15082 0
M  V30 1013 H 91.1252 -0.0601026 0.779687 0
M  V30 1014 H 93.7092 0.466714 1.89023 0
M  V30 1015 H 91.8802 -1.34251 3.6446 0
M  V30 1016 H 93.6122 -1.21889 3.85908 0
M  V30 1017 H 90.3672 0.618956 4.69538 0
M  V30 1018 H 90.7912 2.78565 6.17034 0
M  V30 1019 H 95.4332 0.678049 4.17328 0
M  V30 1020 H 93.1512 4.1898 6.91 0
M  V30 1021 H 96.7372 2.4732 5.26616 0
M  V30 1022 H 95.6172 4.20579 6.61878 0
M  V30 1023 N 93.1203 -1.57491 0.0584922 0
M  V30 1024 C 94.3673 -1.92978 -0.613648 0
M  V30 1025 C 94.6953 -0.937461 -1.70417 0
M  V30 1026 O 93.9503 0.049078 -1.95638 0
M  V30 1027 C 94.2493 -3.3513 -1.24188 0
M  V30 1028 C 93.9153 -4.50037 -0.278826 0
M  V30 1029 C 92.5773 -4.81198 -0.0138447 0
M  V30 1030 C 94.9293 -5.19807 0.380777 0
M  V30 1031 C 92.2573 -5.79473 0.918052 0
M  V30 1032 C 94.6093 -6.19079 1.30091 0
M  V30 1033 C 93.2733 -6.48665 1.57449 0
M  V30 1034 H 92.5433 -0.706157 -0.22455 0
M  V30 1035 H 95.1903 -1.91082 0.126533 0
M  V30 1036 H 93.4953 -3.33429 -2.05749 0
M  V30 1037 H 95.1923 -3.59871 -1.769 0
M  V30 1038 H 91.7823 -4.25726 -0.495539 0
M  V30 1039 H 95.9663 -4.95939 0.189158 0
M  V30 1040 H 91.2223 -6.00727 1.1374 0
M  V30 1041 H 95.3963 -6.7225 1.81804 0
M  V30 1042 H 93.0233 -7.24628 2.29822 0
M  V30 1043 N 94.5984 0.214957 -1.56127 0
M  V30 1044 C 96.0094 0.781386 -1.69562 0
M  V30 1045 C 96.3604 1.84707 -0.66165 0
M  V30 1046 O 95.4854 2.156 0.185927 0
M  V30 1047 C 96.0804 1.42411 -3.07416 0
M  V30 1048 C 94.6394 1.93786 -3.22683 0
M  V30 1049 C 93.7864 0.800438 -2.65496 0
M  V30 1050 H 96.7374 -0.00980633 -1.58697 0
M  V30 1051 H 96.7584 2.29309 -3.0364 0
M  V30 1052 H 96.2704 0.64826 -3.82648 0
M  V30 1053 H 94.3714 2.74152 -2.52332 0
M  V30 1054 H 94.4844 2.1133 -4.29973 0
M  V30 1055 H 92.8484 1.2095 -2.2415 0
M  V30 1056 H 93.6314 0.0371471 -3.4328 0
M  V30 1057 N 96.0765 1.50051 0.48192 0
M  V30 1058 C 97.0395 1.67584 1.5636 0
M  V30 1059 C 98.0395 0.546894 1.51214 0
M  V30 1060 O 99.2295 0.813725 1.54026 0
M  V30 1061 C 96.3615 1.691 2.96003 0
M  V30 1062 H 97.5545 2.64078 1.42136 0
M  V30 1063 H 95.1075 1.39369 0.707533 0
M  V30 1064 H 95.8425 0.742589 3.15684 0
M  V30 1065 H 95.6275 2.51105 3.01146 0
M  V30 1066 H 97.1175 1.84656 3.74556 0
M  V30 1067 N 97.5546 -0.734337 1.39446 0
M  V30 1068 C 98.9656 -1.31264 1.32766 0
M  V30 1069 C 99.3166 -1.96198 -0.00767497 0
M  V30 1070 O 98.4416 -1.96346 -0.909796 0
M  V30 1071 C 99.0366 -2.38682 2.4045 0
M  V30 1072 C 97.5956 -2.92184 2.37288 0
M  V30 1073 C 96.7426 -1.6576 2.22304 0
M  V30 1074 H 99.6936 -0.531799 1.49525 0
M  V30 1075 H 99.7146 -3.19087 2.07276 0
M  V30 1076 H 99.2266 -1.91392 3.37625 0
M  V30 1077 H 97.3276 -3.43752 1.43754 0
M  V30 1078 H 97.4406 -3.45253 3.3217 0
M  V30 1079 H 95.8046 -1.9012 1.69489 0
M  V30 1080 H 96.5876 -1.20521 3.21449 0
M  V30 1081 N 99.0327 -1.24633 -0.964593 0
M  V30 1082 C 99.9427 -1.05859 -2.09359 0
M  V30 1083 C 100.959 0.00148855 -1.74 0
M  V30 1084 O 102.135 -0.197346 -2.00431 0
M  V30 1085 C 99.1997 -0.668879 -3.40187 0
M  V30 1086 C 98.2607 -1.80578 -3.89474 0
M  V30 1087 C 97.4937 -1.43457 -5.14058 0
M  V30 1088 O 97.7167 -0.325775 -5.69469 0
M  V30 1089 O 96.6507 -2.2613 -5.57807 0
M  V30 1090 H 100.477 -2.00516 -2.28094 0
M  V30 1091 H 98.0617 -1.03481 -1.0776 0
M  V30 1092 H 99.9437 -0.463211 -4.18846 0
M  V30 1093 H 98.6187 0.248536 -3.22744 0
M  V30 1094 H 97.5257 -2.06623 -3.11862 0
M  V30 1095 H 98.8587 -2.70208 -4.11398 0
M  V30 1096 N 100.511 1.16574 -1.06058 0
M  V30 1097 C 101.474 2.19085 -0.673392 0
M  V30 1098 C 102.474 1.5835 0.279648 0
M  V30 1099 O 103.664 1.74088 0.0623488 0
M  V30 1100 C 100.796 3.40899 0.00954234 0
M  V30 1101 H 101.989 2.54853 -1.58081 0
M  V30 1102 H 99.5418 1.30808 -0.855516 0
M  V30 1103 H 100.277 3.10684 0.929826 0
M  V30 1104 H 100.062 3.86233 -0.67573 0
M  V30 1105 H 101.552 4.1675 0.266245 0
M  V30 1106 N 101.989 0.842826 1.3317 0
M  V30 1107 C 103.235 0.441099 1.97945 0
M  V30 1108 C 103.568 -0.998024 1.66593 0
M  V30 1109 O 102.843 -1.69839 0.947898 0
M  V30 1110 C 103.126 0.666841 3.53872 0
M  V30 1111 C 102.979 2.15352 3.94897 0
M  V30 1112 C 104.298 0.115544 4.39948 0
M  V30 1113 H 101.417 0.161739 0.719034 0
M  V30 1114 H 104.059 1.05907 1.57746 0
M  V30 1115 H 102.209 0.140828 3.88245 0
M  V30 1116 H 103.881 2.7447 3.70761 0
M  V30 1117 H 102.124 2.63653 3.44484 0
M  V30 1118 H 102.795 2.26221 5.03516 0
M  V30 1119 H 105.271 0.565213 4.12243 0
M  V30 1120 H 104.147 0.303152 5.48062 0
M  V30 1121 H 104.408 -0.980935 4.3108 0
M  V30 1122 N 103.467 -1.45747 0.599634 0
M  V30 1123 C 104.878 -1.85853 0.177681 0
M  V30 1124 C 105.229 -1.50102 -1.26348 0
M  V30 1125 O 104.354 -0.923905 -1.95686 0
M  V30 1126 C 104.949 -3.37326 0.315688 0
M  V30 1127 C 103.508 -3.76365 -0.0515144 0
M  V30 1128 C 102.655 -2.69722 0.643822 0
M  V30 1129 H 105.606 -1.36661 0.806814 0
M  V30 1130 H 105.627 -3.77778 -0.454321 0
M  V30 1131 H 105.139 -3.63315 1.36468 0
M  V30 1132 H 103.24 -3.55993 -1.09999 0
M  V30 1133 H 103.353 -4.77916 0.336594 0
M  V30 1134 H 101.717 -2.54567 0.0822881 0
M  V30 1135 H 102.5 -2.98549 1.6948 0
M  V30 1136 N 104.945 -0.338344 -1.53925 0
M  V30 1137 C 105.855 0.529421 -2.28548 0
M  V30 1138 C 106.871 1.11645 -1.3346 0
M  V30 1139 O 108.047 1.13325 -1.66492 0
M  V30 1140 C 105.112 1.66713 -3.03987 0
M  V30 1141 C 104.173 1.11041 -4.14691 0
M  V30 1142 C 103.406 2.19389 -4.86522 0
M  V30 1143 O 103.629 3.40013 -4.57982 0
M  V30 1144 O 102.563 1.83976 -5.73094 0
M  V30 1145 H 106.389 -0.0770399 -3.03602 0
M  V30 1146 H 103.974 -0.103555 -1.49041 0
M  V30 1147 H 105.856 2.32918 -3.5118 0
M  V30 1148 H 104.531 2.25949 -2.31794 0
M  V30 1149 H 103.438 0.413024 -3.71813 0
M  V30 1150 H 104.771 0.562975 -4.8897 0
M  V30 1151 N 106.423 1.57458 -0.0668435 0
M  V30 1152 C 107.648 1.9804 0.616027 0
M  V30 1153 C 108.073 0.944771 1.62652 0
M  V30 1154 O 107.431 -0.0902094 1.81075 0
M  V30 1155 C 107.479 3.37665 1.26549 0
M  V30 1156 O 106.583 3.36701 2.38131 0
M  V30 1157 H 105.924 0.644719 0.158849 0
M  V30 1158 H 108.454 2.04121 -0.139891 0
M  V30 1159 H 108.464 3.7474 1.6135 0
M  V30 1160 H 107.139 4.12573 0.525016 0
M  V30 1161 H 105.716 3.1139 2.0516 0
M  V30 1162 N 107.901 -0.206675 1.56239 0
M  V30 1163 C 109.147 -0.925733 1.81113 0
M  V30 1164 C 109.502 -1.81368 0.642135 0
M  V30 1165 O 108.795 -1.88126 -0.363211 0
M  V30 1166 C 108.989 -1.78675 3.09532 0
M  V30 1167 C 108.818 -0.98365 4.3881 0
M  V30 1168 C 107.588 -0.672661 5.00803 0
M  V30 1169 C 109.786 -0.341847 5.13163 0
M  V30 1170 N 107.768 0.150283 6.13716 0
M  V30 1171 C 109.139 0.343815 6.19046 0
M  V30 1172 C 111.194 -0.256392 4.97239 0
M  V30 1173 C 109.897 1.10678 7.10734 0
M  V30 1174 C 111.923 0.493142 5.8934 0
M  V30 1175 C 111.285 1.16729 6.94661 0
M  V30 1176 H 107.384 -0.318524 0.714189 0
M  V30 1177 H 109.968 -0.195378 1.93717 0
M  V30 1178 H 108.139 -2.4888 2.98183 0
M  V30 1179 H 109.871 -2.44441 3.22538 0
M  V30 1180 H 106.626 -0.994294 4.63045 0
M  V30 1181 H 107.05 0.551026 6.74754 0
M  V30 1182 H 111.692 -0.763249 4.15854 0
M  V30 1183 H 109.41 1.6251 7.91591 0
M  V30 1184 H 112.996 0.560465 5.79094 0
M  V30 1185 H 111.876 1.738 7.64698 0
M  V30 1186 N 109.379 -1.50304 -0.473955 0
M  V30 1187 C 110.309 -1.71886 -1.58042 0
M  V30 1188 C 111.29 -0.567799 -1.60344 0
M  V30 1189 O 112.475 -0.806623 -1.76656 0
M  V30 1190 C 109.605 -1.81036 -2.96384 0
M  V30 1191 C 108.559 -2.962 -3.08949 0
M  V30 1192 C 107.885 -2.9049 -4.48909 0
M  V30 1193 C 109.185 -4.36752 -2.86434 0
M  V30 1194 H 110.879 -2.64527 -1.40234 0
M  V30 1195 H 108.425 -1.27295 -0.673201 0
M  V30 1196 H 110.378 -1.94719 -3.73714 0
M  V30 1197 H 109.102 -0.850147 -3.15341 0
M  V30 1198 H 107.761 -2.82164 -2.3405 0
M  V30 1199 H 107.409 -1.92321 -4.64781 0
M  V30 1200 H 107.109 -3.67802 -4.58253 0
M  V30 1201 H 108.633 -3.06218 -5.28264 0
M  V30 1202 H 110.047 -4.5133 -3.53517 0
M  V30 1203 H 108.444 -5.15493 -3.07225 0
M  V30 1204 H 109.514 -4.49321 -1.82316 0
M  V30 1205 N 110.857 0.726932 -1.39834 0
M  V30 1206 C 111.767 1.87131 -1.41489 0
M  V30 1207 C 112.783 1.71239 -0.308757 0
M  V30 1208 O 113.959 1.93701 -0.551529 0
M  V30 1209 C 111.024 3.22811 -1.26468 0
M  V30 1210 C 110.085 3.51039 -2.47124 0
M  V30 1211 C 109.318 4.80245 -2.3281 0
M  V30 1212 O 109.541 5.54537 -1.33585 0
M  V30 1213 O 108.475 5.08554 -3.21957 0
M  V30 1214 H 112.301 1.8869 -2.3797 0
M  V30 1215 H 109.886 0.875837 -1.21035 0
M  V30 1216 H 111.768 4.03877 -1.20255 0
M  V30 1217 H 110.443 3.22005 -0.330862 0
M  V30 1218 H 109.35 2.70027 -2.58914 0
M  V30 1219 H 110.683 3.56632 -3.39227 0
M  V30 1220 N 112.336 1.25143 0.95797 0
M  V30 1221 C 113.576 1.10893 1.71703 0
M  V30 1222 C 113.94 -0.34478 1.88879 0
M  V30 1223 O 115.141 -0.609014 2.6181 0
M  V30 1224 C 113.412 1.83889 3.06463 0
M  V30 1225 S 114.971 1.85491 3.97666 0
M  V30 1226 H 111.789 0.396428 0.590226 0
M  V30 1227 H 114.391 1.58618 1.14283 0
M  V30 1228 H 113.095 2.88756 2.9163 0
M  V30 1229 H 112.626 1.36538 3.68946 0
M  V30 1230 H 114.641 0.929553 4.87415 0
M  V30 1231 N 113.814 -1.1601 1.06675 0
M  V30 1232 C 115.091 -1.82679 0.699114 0
M  V30 1233 C 115.471 -1.94559 -0.819137 0
M  V30 1234 O 114.819 -1.49169 -1.73092 0
M  V30 1235 C 115.029 -3.19445 1.40555 0
M  V30 1236 C 116.377 -3.95171 1.55323 0
M  V30 1237 O 117.401 -3.28976 1.36577 0
M  V30 1238 O 116.26 -5.13833 1.86112 0
M  V30 1239 H 113.354 -0.788954 0.247951 0
M  V30 1240 H 115.9 -1.23179 1.16726 0
M  V30 1241 H 114.672 -3.05856 2.44065 0
M  V30 1242 H 114.295 -3.86625 0.927733 0
M  V30 1243 N 115.292 -0.849877 -1.32721 0
M  V30 1244 C 116.222 -0.306308 -2.31482 0
M  V30 1245 C 117.203 0.591952 -1.59468 0
M  V30 1246 O 118.388 0.513199 -1.87296 0
M  V30 1247 C 115.518 0.510204 -3.43532 0
M  V30 1248 C 114.472 -0.293209 -4.26994 0
M  V30 1249 C 113.798 0.647743 -5.30762 0
M  V30 1250 C 115.098 -1.51634 -4.99804 0
M  V30 1251 H 116.792 -1.13153 -2.77195 0
M  V30 1252 H 114.338 -0.545553 -1.33266 0
M  V30 1253 H 116.291 0.900856 -4.11658 0
M  V30 1254 H 115.015 1.36874 -2.96535 0
M  V30 1255 H 113.674 -0.665555 -3.60508 0
M  V30 1256 H 113.322 1.50299 -4.8002 0
M  V30 1257 H 113.022 0.11422 -5.87489 0
M  V30 1258 H 114.546 1.03567 -6.01753 0
M  V30 1259 H 115.96 -1.19824 -5.60638 0
M  V30 1260 H 114.357 -1.98745 -5.66234 0
M  V30 1261 H 115.427 -2.28018 -4.27943 0
M  V30 1262 N 116.77 1.45427 -0.607355 0
M  V30 1263 C 118.181 1.85756 -0.187535 0
M  V30 1264 C 118.532 1.5077 1.25551 0
M  V30 1265 O 117.657 0.93427 1.95193 0
M  V30 1266 C 118.252 3.37154 -0.333572 0
M  V30 1267 C 116.811 3.76387 0.0315542 0
M  V30 1268 C 115.958 2.69377 -0.658117 0
M  V30 1269 H 118.909 1.36231 -0.81405 0
M  V30 1270 H 118.93 3.78014 0.43428 0
M  V30 1271 H 118.442 3.62586 -1.38393 0
M  V30 1272 H 116.543 3.56571 1.0811 0
M  V30 1273 H 116.656 4.77731 -0.361935 0
M  V30 1274 H 115.02 2.5452 -0.0957873 0
M  V30 1275 H 115.803 2.97646 -1.7106 0
M  V30 1276 N 118.248 0.346503 1.53744 0
M  V30 1277 C 119.158 -0.517293 2.28826 0
M  V30 1278 C 120.174 -1.10935 1.3405 0
M  V30 1279 O 121.35 -1.1244 1.6709 0
M  V30 1280 C 118.415 -1.65098 3.04866 0
M  V30 1281 C 117.476 -1.0884 4.15274 0
M  V30 1282 C 116.709 -2.16806 4.87679 0
M  V30 1283 O 116.932 -3.3758 4.59778 0
M  V30 1284 O 115.866 -1.80934 5.74061 0
M  V30 1285 H 119.692 0.0931396 3.03557 0
M  V30 1286 H 117.277 0.111458 1.48984 0
M  V30 1287 H 119.159 -2.31053 3.5241 0
M  V30 1288 H 117.834 -2.24717 2.32989 0
M  V30 1289 H 116.741 -0.3933 3.72027 0
M  V30 1290 H 118.074 -0.537036 4.89261 0
M  V30 1291 N 119.726 -1.57421 0.075193 0
M  V30 1292 C 120.689 -2.11791 -0.876203 0
M  V30 1293 C 121.689 -1.04268 -1.22412 0
M  V30 1294 O 122.879 -1.30242 -1.15684 0
M  V30 1295 C 120.011 -2.62207 -2.17854 0
M  V30 1296 H 121.204 -2.9716 -0.40444 0
M  V30 1297 H 118.757 -1.55333 -0.173557 0
M  V30 1298 H 119.492 -1.803 -2.6956 0
M  V30 1299 H 119.277 -3.40802 -1.93897 0
M  V30 1300 H 120.767 -3.04335 -2.85955 0
M  V30 1301 N 121.204 0.198386 -1.56346 0
M  V30 1302 C 122.481 0.944982 -1.71258 0
M  V30 1303 C 122.861 2.0151 -0.629048 0
M  V30 1304 O 122.209 2.25639 0.360473 0
M  V30 1305 C 122.419 1.5344 -3.1346 0
M  V30 1306 C 123.767 2.01778 -3.73591 0
M  V30 1307 O 124.791 1.63288 -3.16568 0
M  V30 1308 O 123.65 2.72594 -4.73661 0
M  V30 1309 H 120.744 0.442939 -0.69838 0
M  V30 1310 H 123.29 0.188342 -1.68652 0
M  V30 1311 H 122.062 0.762869 -3.83792 0
M  V30 1312 H 121.685 2.35596 -3.20282 0
M  V30 1313 N 122.682 1.50554 0.465978 0
M  V30 1314 C 123.91 1.65563 1.24083 0
M  V30 1315 C 124.325 0.341051 1.85694 0
M  V30 1316 O 123.682 -0.677543 1.69457 0
M  V30 1317 C 123.733 2.75051 2.34583 0
M  V30 1318 O 123.454 4.01413 1.75497 0
M  V30 1319 C 124.955 3.01078 3.25372 0
M  V30 1320 H 122.175 0.55638 0.375077 0
M  V30 1321 H 124.719 1.96807 0.555624 0
M  V30 1322 H 122.874 2.46486 2.9887 0
M  V30 1323 H 123.288 4.62002 2.48303 0
M  V30 1324 H 124.762 3.81339 3.99105 0
M  V30 1325 H 125.239 2.12349 3.84453 0
M  V30 1326 H 125.845 3.31194 2.66816 0
M  V30 1327 N 124.16 -0.719506 1.40217 0
M  V30 1328 C 125.406 -1.48152 1.38488 0
M  V30 1329 C 125.739 -1.94195 -0.0141867 0
M  V30 1330 O 125.014 -1.67884 -0.982096 0
M  V30 1331 C 125.297 -2.71035 2.37091 0
M  V30 1332 C 125.15 -2.30912 3.86005 0
M  V30 1333 C 126.469 -3.73182 2.33288 0
M  V30 1334 H 123.588 -0.537395 0.504357 0
M  V30 1335 H 126.23 -0.821472 1.71324 0
M  V30 1336 H 124.38 -3.27352 2.0922 0
M  V30 1337 H 126.052 -1.80107 4.24687 0
M  V30 1338 H 124.295 -1.62958 4.02029 0
M  V30 1339 H 124.966 -3.18978 4.50508 0
M  V30 1340 H 127.442 -3.26485 2.57966 0
M  V30 1341 H 126.318 -4.56806 3.04334 0
M  V30 1342 H 126.579 -4.21202 1.34317 0
M  V30 1343 N 125.638 -1.25649 -0.95132 0
M  V30 1344 C 126.884 -1.10757 -1.69884 0
M  V30 1345 C 127.217 0.350061 -1.91019 0
M  V30 1346 O 126.492 1.25783 -1.48354 0
M  V30 1347 C 126.775 -1.86606 -3.07978 0
M  V30 1348 C 126.628 -3.40217 -2.94232 0
M  V30 1349 C 127.947 -1.65182 -4.07925 0
M  V30 1350 H 125.066 -0.40374 -0.616574 0
M  V30 1351 H 127.708 -1.54521 -1.10558 0
M  V30 1352 H 125.858 -1.49409 -3.58621 0
M  V30 1353 H 127.53 -3.87108 -2.50889 0
M  V30 1354 H 125.773 -3.67759 -2.30078 0
M  V30 1355 H 126.444 -3.88505 -3.92133 0
M  V30 1356 H 128.92 -1.9757 -3.66204 0
M  V30 1357 H 127.796 -2.20683 -5.02583 0
M  V30 1358 H 128.057 -0.593933 -4.38092 0
M  V30 1359 N 127.117 1.15442 -1.07289 0
M  V30 1360 C 128.363 1.86489 -0.796846 0
M  V30 1361 C 128.696 1.82078 0.675371 0
M  V30 1362 O 127.971 1.24346 1.4956 0
M  V30 1363 C 128.254 3.35626 -1.30489 0
M  V30 1364 C 128.107 3.48673 -2.84161 0
M  V30 1365 C 129.426 4.30357 -0.920907 0
M  V30 1366 H 126.545 0.677144 -0.290939 0
M  V30 1367 H 129.187 1.35633 -1.33056 0
M  V30 1368 H 127.337 3.79068 -0.850883 0
M  V30 1369 H 129.009 3.14099 -3.37846 0
M  V30 1370 H 127.252 2.90253 -3.22391 0
M  V30 1371 H 127.923 4.53453 -3.14777 0
M  V30 1372 H 130.399 3.94871 -1.3121 0
M  V30 1373 H 129.275 5.33193 -1.30372 0
M  V30 1374 H 129.536 4.4176 0.173226 0
M  V30 1375 N 128.595 0.856903 1.32268 0
M  V30 1376 C 130.006 0.515711 1.79436 0
M  V30 1377 C 130.357 -0.966586 1.70738 0
M  V30 1378 O 129.482 -1.75409 1.26731 0
M  V30 1379 C 130.077 0.929335 3.25805 0
M  V30 1380 C 128.636 0.640006 3.70919 0
M  V30 1381 C 127.783 1.12784 2.53328 0
M  V30 1382 H 130.734 1.04389 1.19535 0
M  V30 1383 H 130.755 0.246633 3.797 0
M  V30 1384 H 130.267 2.00821 3.32103 0
M  V30 1385 H 128.368 -0.428051 3.70133 0
M  V30 1386 H 128.481 1.20788 4.63624 0
M  V30 1387 H 126.845 0.548033 2.48734 0
M  V30 1388 H 127.628 2.21387 2.62379 0
M  V30 1389 N 130.073 -1.45103 0.615059 0
M  V30 1390 C 131.298 -2.07064 0.117988 0
M  V30 1391 C 131.723 -1.4554 -1.19163 0
M  V30 1392 O 131.081 -0.550855 -1.72729 0
M  V30 1393 C 131.129 -3.606 -0.000288387 0
M  V30 1394 O 130.233 -3.98847 -1.04856 0
M  V30 1395 H 129.574 -0.659467 0.0774581 0
M  V30 1396 H 132.104 -1.86236 0.847186 0
M  V30 1397 H 132.114 -4.07529 -0.196091 0
M  V30 1398 H 130.789 -4.04765 0.955932 0
M  V30 1399 H 129.366 -3.63577 -0.828619 0
M  V30 1400 N 131.551 -0.354651 -1.53558 0
M  V30 1401 C 132.499 0.512195 -2.26891 0
M  V30 1402 C 133.493 1.09263 -1.29452 0
M  V30 1403 O 134.699 1.03709 -1.47121 0
M  V30 1404 H 131.074 0.183878 -0.729173 0
M  V30 1405 H 133.045 -0.128202 -2.98124 0
M  V30 1406 C 131.794 1.64563 -3.06291 0
M  V30 1407 H 131.117 1.20829 -3.81104 0
M  V30 1408 H 132.557 2.22711 -3.60799 0
M  V30 1409 C 131.016 2.58158 -2.16462 0
M  V30 1410 O 131.546 3.60695 -1.76811 0
M  V30 1411 N 129.752 2.27096 -1.81317 0
M  V30 1412 H 129.299 1.43751 -2.1376 0
M  V30 1413 H 129.257 2.89975 -1.21498 0
M  V30 1414 N 133.029 1.57378 -0.0835403 0
M  V30 1415 C 134.275 1.95025 0.577664 0
M  V30 1416 C 134.63 0.964049 1.66505 0
M  V30 1417 O 133.923 -0.0118235 1.91596 0
M  V30 1418 C 134.117 3.37063 1.1884 0
M  V30 1419 C 133.946 4.49409 0.16171 0
M  V30 1420 C 132.716 5.04642 -0.257756 0
M  V30 1421 C 134.914 5.10722 -0.605634 0
M  V30 1422 N 132.896 6.00537 -1.27393 0
M  V30 1423 C 134.267 6.02225 -1.47395 0
M  V30 1424 C 136.322 4.93501 -0.660418 0
M  V30 1425 C 135.025 6.78355 -2.39221 0
M  V30 1426 C 137.051 5.70283 -1.56623 0
M  V30 1427 C 136.413 6.61444 -2.4222 0
M  V30 1428 H 132.512 0.760512 0.182058 0
M  V30 1429 H 135.096 1.94013 -0.163419 0
M  V30 1430 H 133.267 3.3879 1.89936 0
M  V30 1431 H 134.999 3.61917 1.81103 0
M  V30 1432 H 131.754 4.73428 0.127702 0
M  V30 1433 H 132.178 6.53184 -1.77987 0
M  V30 1434 H 136.82 4.22798 -0.0128221 0
M  V30 1435 H 134.538 7.48327 -3.05011 0
M  V30 1436 H 138.124 5.58976 -1.61361 0
M  V30 1437 H 137.004 7.1982 -3.11174 0
M  V30 1438 N 134.507 -0.190092 1.56449 0
M  V30 1439 C 135.439 -1.25973 1.91477 0
M  V30 1440 C 136.452 -1.41452 0.805931 0
M  V30 1441 O 137.641 -1.41789 1.08435 0
M  V30 1442 C 134.741 -2.63117 2.13594 0
M  V30 1443 C 133.914 -2.69182 3.4476 0
M  V30 1444 C 132.973 -3.87557 3.5593 0
M  V30 1445 O 131.999 -3.74427 4.28711 0
M  V30 1446 N 133.201 -5.03224 2.89388 0
M  V30 1447 H 135.966 -0.962394 2.83828 0
M  V30 1448 H 133.527 -0.379981 1.57378 0
M  V30 1449 H 135.519 -3.40742 2.1835 0
M  V30 1450 H 134.089 -2.85319 1.27719 0
M  V30 1451 H 133.309 -1.77793 3.51828 0
M  V30 1452 H 134.597 -2.70229 4.31107 0
M  V30 1453 H 133.995 -5.16791 2.30094 0
M  V30 1454 H 132.552 -5.78778 2.99764 0
M  V30 1455 N 135.985 -1.50799 -0.457987 0
M  V30 1456 C 136.918 -1.65273 -1.57353 0
M  V30 1457 C 137.896 -0.500578 -1.54703 0
M  V30 1458 O 139.08 -0.721781 -1.74134 0
M  V30 1459 C 136.207 -1.64737 -2.95938 0
M  V30 1460 C 135.253 -2.8567 -3.16693 0
M  V30 1461 S 136.086 -4.46791 -2.95191 0
M  V30 1462 C 137.242 -4.48968 -4.36095 0
M  V30 1463 H 137.475 -2.59633 -1.44838 0
M  V30 1464 H 135.008 -1.40225 -0.64625 0
M  V30 1465 H 136.966 -1.65112 -3.7583 0
M  V30 1466 H 135.627 -0.715899 -3.05833 0
M  V30 1467 H 134.82 -2.81637 -4.17967 0
M  V30 1468 H 134.422 -2.8293 -2.44594 0
M  V30 1469 H 136.714 -4.23337 -5.28954 0
M  V30 1470 H 137.657 -5.50664 -4.45168 0
M  V30 1471 H 138.065 -3.78522 -4.18786 0
M  V30 1472 N 137.463 0.71206 -1.40597 0
M  V30 1473 C 138.413 1.81783 -1.37619 0
M  V30 1474 C 139.397 1.58896 -0.253162 0
M  V30 1475 O 140.589 1.70009 -0.492547 0
M  V30 1476 C 137.718 3.19944 -1.24462 0
M  V30 1477 C 136.804 3.48582 -2.4156 0
M  V30 1478 N 137.195 3.48016 -3.67041 0
M  V30 1479 C 135.493 3.79056 -2.35016 0
M  V30 1480 C 136.194 3.75096 -4.44609 0
M  V30 1481 N 135.17 3.94022 -3.74497 0
M  V30 1482 H 138.972 1.79683 -2.32575 0
M  V30 1483 H 136.486 0.91134 -1.34419 0
M  V30 1484 H 138.483 3.99133 -1.20411 0
M  V30 1485 H 137.143 3.23267 -0.304762 0
M  V30 1486 H 138.154 3.28782 -4.00153 0
M  V30 1487 H 134.831 3.89848 -1.49415 0
M  V30 1488 H 136.221 3.80934 -5.53479 0
M  V30 1489 N 138.941 1.26152 0.944643 0
M  V30 1490 C 140.189 1.11271 1.6871 0
M  V30 1491 C 140.51 -0.345166 1.91921 0
M  V30 1492 O 139.78 -1.24387 1.51343 0
M  V30 1493 H 138.36 0.408783 0.625224 0
M  V30 1494 H 141.022 1.58427 1.1352 0
M  V30 1495 H 140.118 1.62879 2.66227 0
M  V30 1496 N 140.419 -1.14872 1.07899 0
M  V30 1497 C 141.649 -1.89386 0.825631 0
M  V30 1498 C 142.057 -1.78565 -0.625406 0
M  V30 1499 O 141.4 -1.13918 -1.44113 0
M  V30 1500 C 141.462 -3.40206 1.16191 0
M  V30 1501 C 141.126 -3.74812 2.61467 0
M  V30 1502 C 142.123 -3.75367 3.59716 0
M  V30 1503 C 139.808 -4.0495 2.97189 0
M  V30 1504 C 141.802 -4.05574 4.9172 0
M  V30 1505 C 139.489 -4.34821 4.29388 0
M  V30 1506 C 140.487 -4.35116 5.26463 0
M  V30 1507 O 140.175 -4.64267 6.56286 0
M  V30 1508 H 139.907 -0.606894 0.297751 0
M  V30 1509 H 142.461 -1.46438 1.44031 0
M  V30 1510 H 140.691 -3.8358 0.490214 0
M  V30 1511 H 142.38 -3.96018 0.890193 0
M  V30 1512 H 143.146 -3.52176 3.33462 0
M  V30 1513 H 139.025 -4.03876 2.22273 0
M  V30 1514 H 142.569 -4.05719 5.67484 0
M  V30 1515 H 138.466 -4.5748 4.55392 0
M  V30 1516 H 139.234 -4.82007 6.61522 0
M  V30 1517 N 141.898 -0.863906 -1.31812 0
M  V30 1518 C 143.175 -0.39275 -1.91616 0
M  V30 1519 C 143.555 1.12461 -1.7865 0
M  V30 1520 O 142.903 1.95045 -1.19037 0
M  V30 1521 C 143.113 -0.867385 -3.38049 0
M  V30 1522 C 144.461 -0.889966 -4.15168 0
M  V30 1523 O 145.485 -0.812635 -3.46806 0
M  V30 1524 O 144.344 -1.00079 -5.37258 0
M  V30 1525 H 141.438 -0.116358 -0.818773 0
M  V30 1526 H 143.984 -0.951418 -1.40521 0
M  V30 1527 H 142.756 -1.91081 -3.41473 0
M  V30 1528 H 142.379 -0.286687 -3.96565 0
M  V30 1529 N 143.376 1.44774 -0.622745 0
M  V30 1530 C 144.339 2.29069 0.0774015 0
M  V30 1531 C 145.339 1.4059 0.780461 0
M  V30 1532 O 146.529 1.62551 0.626322 0
M  V30 1533 C 143.661 3.21974 1.12006 0
M  V30 1534 H 144.854 2.92459 -0.663901 0
M  V30 1535 H 142.407 1.51548 -0.382486 0
M  V30 1536 H 143.142 2.63417 1.89162 0
M  V30 1537 H 142.927 3.87168 0.619951 0
M  V30 1538 H 144.417 3.85318 1.60995 0
M  V30 1539 N 144.854 0.36279 1.53368 0
M  V30 1540 C 146.265 -0.117022 1.86333 0
M  V30 1541 C 146.616 -1.48397 1.28347 0
M  V30 1542 O 145.741 -2.07787 0.604428 0
M  V30 1543 C 146.336 -0.21912 3.38091 0
M  V30 1544 C 144.895 -0.643184 3.70864 0
M  V30 1545 C 144.042 0.211318 2.76494 0
M  V30 1546 H 146.993 0.581687 1.47655 0
M  V30 1547 H 147.014 -1.04319 3.6592 0
M  V30 1548 H 146.526 0.775902 3.80265 0
M  V30 1549 H 144.627 -1.64654 3.34245 0
M  V30 1550 H 144.74 -0.41973 4.77258 0
M  V30 1551 H 143.104 -0.319367 2.5269 0
M  V30 1552 H 143.887 1.20383 3.21501 0
M  V30 1553 N 146.332 -1.57332 0.0918853 0
M  V30 1554 C 147.581 -1.93412 -0.572249 0
M  V30 1555 C 147.894 -0.975515 -1.69538 0
M  V30 1556 O 149.1 -1.22991 -2.42045 0
M  V30 1557 C 147.556 -3.43648 -1.0693 0
M  V30 1558 C 147.164 -4.47994 0.0239049 0
M  V30 1559 C 148.908 -3.88695 -1.70635 0
M  V30 1560 C 146.815 -5.89381 -0.488319 0
M  V30 1561 H 145.745 -0.721939 -0.217532 0
M  V30 1562 H 148.396 -1.82735 0.167369 0
M  V30 1563 H 146.778 -3.49466 -1.8625 0
M  V30 1564 H 147.952 -4.53815 0.799277 0
M  V30 1565 H 146.267 -4.12536 0.565946 0
M  V30 1566 H 148.864 -4.91725 -2.10025 0
M  V30 1567 H 149.207 -3.27166 -2.57426 0
M  V30 1568 H 149.74 -3.85564 -0.979023 0
M  V30 1569 H 146.479 -6.54602 0.342906 0
M  V30 1570 H 145.999 -5.87037 -1.23077 0
M  V30 1571 H 147.678 -6.39863 -0.958317 0
M  V30 1572 N 147.81 0.181792 -1.56548 0
M  V30 1573 C 149.04 0.914618 -1.85252 0
M  V30 1574 C 149.448 1.76791 -0.673914 0
M  V30 1575 O 148.791 1.80009 0.366416 0
M  V30 1576 C 148.853 1.85019 -3.08234 0
M  V30 1577 C 148.517 1.17754 -4.41569 0
M  V30 1578 C 149.514 0.548035 -5.17003 0
M  V30 1579 C 147.199 1.17742 -4.88305 0
M  V30 1580 C 149.193 -0.0726128 -6.37359 0
M  V30 1581 C 146.88 0.552946 -6.08593 0
M  V30 1582 C 147.878 -0.070978 -6.82963 0
M  V30 1583 O 147.566 -0.685635 -8.00971 0
M  V30 1584 H 147.298 0.271695 -0.618998 0
M  V30 1585 H 149.852 0.189944 -2.0452 0
M  V30 1586 H 148.082 2.61491 -2.84885 0
M  V30 1587 H 149.771 2.45195 -3.23472 0
M  V30 1588 H 150.537 0.540174 -4.81982 0
M  V30 1589 H 146.416 1.65246 -4.30366 0
M  V30 1590 H 149.96 -0.560213 -6.95347 0
M  V30 1591 H 145.857 0.558354 -6.43081 0
M  V30 1592 H 146.625 -0.58385 -8.16415 0
M  V30 1593 N 149.288 1.51039 0.449983 0
M  V30 1594 C 150.516 1.66869 1.2232 0
M  V30 1595 C 150.931 0.360727 1.85322 0
M  V30 1596 O 150.288 -0.659531 1.70166 0
M  V30 1597 C 150.339 2.77524 2.31652 0
M  V30 1598 O 150.06 4.03252 1.7123 0
M  V30 1599 C 151.561 3.04512 3.2216 0
M  V30 1600 H 148.781 0.560326 0.369155 0
M  V30 1601 H 151.325 1.97385 0.534719 0
M  V30 1602 H 149.48 2.49642 2.96239 0
M  V30 1603 H 149.894 4.64609 2.43389 0
M  V30 1604 H 151.368 3.85551 3.95038 0
M  V30 1605 H 151.845 2.16415 3.8218 0
M  V30 1606 H 152.451 3.34005 2.63288 0
M  V30 1607 N 150.766 -0.704594 1.40972 0
M  V30 1608 C 151.714 -1.83994 1.42299 0
M  V30 1609 C 152.708 -1.66684 0.302111 0
M  V30 1610 O 153.914 -1.73655 0.473697 0
M  V30 1611 H 150.289 -0.606171 0.44504 0
M  V30 1612 H 152.26 -1.79992 2.38003 0
M  V30 1613 C 151.009 -3.21946 1.31323 0
M  V30 1614 H 150.332 -3.35878 2.16855 0
M  V30 1615 H 151.772 -4.01491 1.36311 0
M  V30 1616 C 150.231 -3.36891 0.0245977 0
M  V30 1617 O 150.761 -3.90687 -0.934153 0
M  V30 1618 N 148.967 -2.90559 -0.0485243 0
M  V30 1619 H 148.514 -2.46968 0.732419 0
M  V30 1620 H 148.472 -3.00937 -0.910171 0
M  V30 1621 N 152.244 -1.26651 -0.937939 0
M  V30 1622 C 153.49 -1.12553 -1.687 0
M  V30 1623 C 153.823 0.329782 -1.91379 0
M  V30 1624 O 153.098 1.24202 -1.4968 0
M  V30 1625 C 153.381 -1.89862 -3.05981 0
M  V30 1626 C 153.234 -3.43318 -2.90607 0
M  V30 1627 C 154.553 -1.69499 -4.0615 0
M  V30 1628 H 151.672 -0.410257 -0.612257 0
M  V30 1629 H 154.314 -1.55685 -1.08913 0
M  V30 1630 H 152.464 -1.53204 -3.57017 0
M  V30 1631 H 154.136 -3.89747 -2.46769 0
M  V30 1632 H 152.379 -3.70179 -2.26164 0
M  V30 1633 H 153.05 -3.92642 -3.8799 0
M  V30 1634 H 155.526 -2.01442 -3.64088 0
M  V30 1635 H 154.402 -2.26002 -5.00214 0
M  V30 1636 H 154.663 -0.640365 -4.37438 0
M  V30 1637 N 153.722 1.14298 -1.08507 0
M  V30 1638 C 154.95 1.89219 -0.836876 0
M  V30 1639 C 155.365 1.78638 0.611054 0
M  V30 1640 O 154.722 1.14643 1.41998 0
M  V30 1641 C 154.773 3.39158 -1.25116 0
M  V30 1642 O 154.494 3.49449 -2.64229 0
M  V30 1643 C 155.995 4.31073 -1.03398 0
M  V30 1644 H 153.215 0.599328 -0.301739 0
M  V30 1645 H 155.759 1.44746 -1.44461 0
M  V30 1646 H 153.914 3.81251 -0.687514 0
M  V30 1647 H 154.328 4.42589 -2.81452 0
M  V30 1648 H 155.802 5.34646 -1.37323 0
M  V30 1649 H 156.279 4.3919 0.0289259 0
M  V30 1650 H 156.885 3.94738 -1.58311 0
M  V30 1651 N 155.201 0.870884 1.31352 0
M  V30 1652 C 156.431 0.496049 2.00557 0
M  V30 1653 C 156.839 -0.916241 1.65534 0
M  V30 1654 O 156.182 -1.61188 0.881134 0
M  V30 1655 C 156.244 0.574418 3.54881 0
M  V30 1656 C 155.908 1.94849 4.1338 0
M  V30 1657 C 156.905 2.91611 4.30417 0
M  V30 1658 C 154.59 2.25005 4.49086 0
M  V30 1659 C 156.584 4.16672 4.82352 0
M  V30 1660 C 154.271 3.50315 5.00722 0
M  V30 1661 C 155.269 4.45964 5.17306 0
M  V30 1662 O 154.957 5.69052 5.67833 0
M  V30 1663 H 154.689 0.191664 0.64826 0
M  V30 1664 H 157.243 1.17409 1.68536 0
M  V30 1665 H 155.473 -0.160549 3.86367 0
M  V30 1666 H 157.162 0.212879 4.05341 0
M  V30 1667 H 157.928 2.69622 4.03149 0
M  V30 1668 H 153.807 1.51332 4.35453 0
M  V30 1669 H 157.351 4.91336 4.95211 0
M  V30 1670 H 153.248 3.72147 5.27424 0
M  V30 1671 H 154.016 5.71236 5.86201 0
M  V30 1672 N 156.679 -1.44442 0.630414 0
M  V30 1673 C 158.09 -1.85434 0.217063 0
M  V30 1674 C 158.441 -1.52748 -1.23136 0
M  V30 1675 O 157.566 -0.965205 -1.93682 0
M  V30 1676 C 158.161 -3.36581 0.387168 0
M  V30 1677 C 156.72 -3.76389 0.0283297 0
M  V30 1678 C 155.867 -2.68296 0.700889 0
M  V30 1679 H 158.818 -1.34919 0.83562 0
M  V30 1680 H 158.839 -3.78657 -0.374086 0
M  V30 1681 H 158.351 -3.60339 1.44144 0
M  V30 1682 H 156.452 -3.58246 -1.02423 0
M  V30 1683 H 156.565 -4.77095 0.437892 0
M  V30 1684 H 154.929 -2.54335 0.136267 0
M  V30 1685 H 155.712 -2.94887 1.75774 0
M  V30 1686 N 158.157 -0.370918 -1.53173 0
M  V30 1687 C 159.406 0.218249 -2.00516 0
M  V30 1688 C 159.719 1.49429 -1.26215 0
M  V30 1689 O 160.925 2.16239 -1.64174 0
M  V30 1690 C 159.381 0.43948 -3.57207 0
M  V30 1691 C 158.989 -0.822244 -4.4039 0
M  V30 1692 C 160.733 0.986012 -4.1289 0
M  V30 1693 C 158.64 -0.570304 -5.88644 0
M  V30 1694 H 157.57 0.0853333 -0.749156 0
M  V30 1695 H 160.221 -0.490483 -1.76823 0
M  V30 1696 H 158.603 1.20961 -3.77074 0
M  V30 1697 H 159.777 -1.59557 -4.32294 0
M  V30 1698 H 158.092 -1.29238 -3.95836 0
M  V30 1699 H 160.689 1.18991 -5.21292 0
M  V30 1700 H 161.032 1.94972 -3.6782 0
M  V30 1701 H 161.565 0.27592 -3.96842 0
M  V30 1702 H 158.304 -1.50449 -6.38001 0
M  V30 1703 H 157.824 0.164427 -5.99575 0
M  V30 1704 H 159.503 -0.19784 -6.46697 0
M  V30 1705 N 159.635 1.57281 -0.100228 0
M  V30 1706 C 160.863 1.98879 0.570509 0
M  V30 1707 C 161.278 0.979476 1.61405 0
M  V30 1708 O 160.635 -0.0302288 1.82475 0
M  V30 1709 C 160.686 3.4052 1.2136 0
M  V30 1710 O 160.407 4.37588 0.211786 0
M  V30 1711 C 161.908 3.97149 1.96945 0
M  V30 1712 H 159.128 0.653428 0.152555 0
M  V30 1713 H 161.672 2.03697 -0.18103 0
M  V30 1714 H 159.827 3.367 1.91603 0
M  V30 1715 H 160.241 5.20118 0.676607 0
M  V30 1716 H 161.715 4.98393 2.37294 0
M  V30 1717 H 162.192 3.3525 2.83733 0
M  V30 1718 H 162.798 4.04458 1.31506 0
M  V30 1719 N 161.113 -0.173488 1.56642 0
M  V30 1720 C 162.359 -0.891784 1.8214 0
M  V30 1721 C 162.692 -1.8199 0.677736 0
M  V30 1722 O 161.967 -1.91842 -0.320446 0
M  V30 1723 C 162.25 -1.68933 3.18015 0
M  V30 1724 C 162.103 -0.784487 4.42906 0
M  V30 1725 C 163.422 -2.65748 3.50808 0
M  V30 1726 H 160.541 -0.322761 0.662567 0
M  V30 1727 H 163.183 -0.158095 1.89341 0
M  V30 1728 H 161.333 -2.31482 3.12007 0
M  V30 1729 H 163.005 -0.172046 4.60979 0
M  V30 1730 H 161.248 -0.0924117 4.33702 0
M  V30 1731 H 161.919 -1.37799 5.34524 0
M  V30 1732 H 164.395 -2.13327 3.57255 0
M  V30 1733 H 163.271 -3.18619 4.4696 0
M  V30 1734 H 163.532 -3.45842 2.75401 0
M  V30 1735 N 162.591 -1.51276 -0.441967 0
M  V30 1736 C 163.539 -1.72823 -1.55676 0
M  V30 1737 C 164.533 -0.59445 -1.58627 0
M  V30 1738 O 165.739 -0.775715 -1.62427 0
M  V30 1739 H 162.114 -0.545983 -0.517113 0
M  V30 1740 H 164.085 -2.6628 -1.34675 0
M  V30 1741 C 162.834 -1.86619 -2.93375 0
M  V30 1742 H 162.157 -2.73264 -2.91834 0
M  V30 1743 H 163.597 -2.05709 -3.70756 0
M  V30 1744 C 162.056 -0.624842 -3.31055 0
M  V30 1745 O 162.586 0.222636 -4.01083 0
M  V30 1746 N 160.792 -0.470288 -2.86769 0
M  V30 1747 H 160.339 -1.161 -2.29953 0
M  V30 1748 H 160.297 0.359051 -3.12343 0
M  V30 1749 N 164.069 0.697108 -1.41344 0
M  V30 1750 C 165.48 1.27697 -1.36199 0
M  V30 1751 C 165.831 1.9615 -0.0443463 0
M  V30 1752 O 164.956 1.98689 0.857419 0
M  V30 1753 C 165.551 2.32223 -2.46694 0
M  V30 1754 C 164.11 2.8579 -2.44952 0
M  V30 1755 C 163.257 1.59807 -2.26621 0
M  V30 1756 H 166.208 0.491968 -1.50882 0
M  V30 1757 H 166.229 3.1348 -2.15664 0
M  V30 1758 H 165.741 1.82373 -3.42581 0
M  V30 1759 H 163.842 3.3982 -1.52817 0
M  V30 1760 H 163.955 3.36325 -3.41207 0
M  V30 1761 H 162.319 1.8556 -1.7447 0
M  V30 1762 H 163.102 1.11956 -3.24532 0
M  V30 1763 N 165.547 1.27147 0.931209 0
M  V30 1764 C 166.958 1.12044 1.49342 0
M  V30 1765 C 167.309 -0.295795 1.93957 0
M  V30 1766 O 166.434 -1.18835 1.80852 0
M  V30 1767 C 167.029 2.02781 2.71414 0
M  V30 1768 C 165.588 1.91794 3.2387 0
M  V30 1769 C 164.735 1.95543 1.96617 0
M  V30 1770 H 167.686 1.40091 0.745672 0
M  V30 1771 H 167.707 1.58156 3.46074 0
M  V30 1772 H 167.219 3.05848 2.38911 0
M  V30 1773 H 165.32 0.916992 3.6114 0
M  V30 1774 H 165.433 2.77852 3.90302 0
M  V30 1775 H 163.797 1.39722 2.12955 0
M  V30 1776 H 164.58 3.00259 1.66432 0
M  V30 1777 N 167.025 -1.13721 1.09112 0
M  V30 1778 C 168.272 -1.84924 0.825192 0
M  V30 1779 C 168.6 -1.83347 -0.649151 0
M  V30 1780 O 167.855 -1.26449 -1.49362 0
M  V30 1781 C 168.154 -3.32861 1.30146 0
M  V30 1782 C 167.82 -3.54621 2.78486 0
M  V30 1783 C 166.482 -3.60268 3.18999 0
M  V30 1784 C 168.834 -3.62855 3.74146 0
M  V30 1785 C 166.162 -3.71679 4.53951 0
M  V30 1786 C 168.514 -3.75793 5.08883 0
M  V30 1787 C 167.178 -3.79692 5.4899 0
M  V30 1788 H 166.448 -0.676684 0.301959 0
M  V30 1789 H 169.095 -1.3428 1.36533 0
M  V30 1790 H 167.4 -3.85835 0.681064 0
M  V30 1791 H 169.097 -3.86395 1.07236 0
M  V30 1792 H 165.687 -3.50879 2.46134 0
M  V30 1793 H 169.871 -3.57775 3.43963 0
M  V30 1794 H 165.127 -3.72963 4.84467 0
M  V30 1795 H 169.301 -3.81107 5.82864 0
M  V30 1796 H 166.928 -3.88287 6.53558 0
M  V30 1797 N 168.503 -0.877838 -1.30888 0
M  V30 1798 C 169.749 -0.493426 -1.96706 0
M  V30 1799 C 170.082 0.953504 -1.6918 0
M  V30 1800 O 169.357 1.67266 -0.992594 0
M  V30 1801 C 169.64 -0.760429 -3.51979 0
M  V30 1802 C 169.493 -2.25747 -3.89048 0
M  V30 1803 C 170.812 -0.232148 -4.39487 0
M  V30 1804 H 167.931 -0.180746 -0.714493 0
M  V30 1805 H 170.573 -1.10052 -1.54882 0
M  V30 1806 H 168.723 -0.243715 -3.87735 0
M  V30 1807 H 170.395 -2.84204 -3.63354 0
M  V30 1808 H 168.638 -2.72694 -3.37373 0
M  V30 1809 H 169.309 -2.39491 -4.97341 0
M  V30 1810 H 171.785 -0.674314 -4.106 0
M  V30 1811 H 170.661 -0.448355 -5.47066 0
M  V30 1812 H 170.922 0.866297 -4.33529 0
M  V30 1813 N 169.982 1.44106 -0.638065 0
M  V30 1814 C 171.393 1.85316 -0.226894 0
M  V30 1815 C 171.744 1.53399 1.22324 0
M  V30 1816 O 170.869 0.975463 1.93167 0
M  V30 1817 C 171.464 3.3637 -0.405013 0
M  V30 1818 C 170.023 3.76369 -0.0482902 0
M  V30 1819 C 169.17 2.67921 -0.715108 0
M  V30 1820 H 172.121 1.34474 -0.842764 0
M  V30 1821 H 172.142 3.7885 0.354 0
M  V30 1822 H 171.654 3.59569 -1.46053 0
M  V30 1823 H 169.755 3.58784 1.00522 0
M  V30 1824 H 169.868 4.76856 -0.463187 0
M  V30 1825 H 168.232 2.54259 -0.149753 0
M  V30 1826 H 169.015 2.93951 -1.77335 0
M  V30 1827 N 171.46 0.379036 1.52974 0
M  V30 1828 C 172.688 -0.20679 2.05864 0
M  V30 1829 C 173.103 -1.41356 1.25155 0
M  V30 1830 O 172.46 -1.8009 0.295588 0
M  V30 1831 C 172.511 -0.587045 3.56702 0
M  V30 1832 O 172.232 0.571776 4.34353 0
M  V30 1833 C 173.733 -1.22983 4.25899 0
M  V30 1834 H 170.953 -0.0336123 0.670158 0
M  V30 1835 H 173.497 0.541298 1.97206 0
M  V30 1836 H 171.652 -1.28504 3.65466 0
M  V30 1837 H 172.066 0.261544 5.23847 0
M  V30 1838 H 173.54 -1.44635 5.32715 0
M  V30 1839 H 174.017 -2.19416 3.80465 0
M  V30 1840 H 174.623 -0.572892 4.21424 0
M  V30 1841 N 172.938 -1.57226 0.108567 0
M  V30 1842 C 173.848 -2.18292 -0.859401 0
M  V30 1843 C 174.864 -1.15612 -1.30038 0
M  V30 1844 O 176.04 -1.48039 -1.36552 0
M  V30 1845 C 173.105 -2.762 -2.09558 0
M  V30 1846 C 172.166 -3.93881 -1.70752 0
M  V30 1847 C 171.399 -4.49018 -2.88477 0
M  V30 1848 O 171.622 -4.03068 -4.036 0
M  V30 1849 O 170.556 -5.39852 -2.66164 0
M  V30 1850 H 174.382 -3.01441 -0.369769 0
M  V30 1851 H 171.967 -1.48945 -0.1165 0
M  V30 1852 H 173.849 -3.13156 -2.81978 0
M  V30 1853 H 172.524 -1.96089 -2.57548 0
M  V30 1854 H 171.431 -3.61713 -0.954714 0
M  V30 1855 H 172.764 -4.75396 -1.27513 0
M  V30 1856 N 174.416 0.165178 -1.56732 0
M  V30 1857 C 175.364 1.22369 -1.97809 0
M  V30 1858 C 176.358 1.45488 -0.867741 0
M  V30 1859 O 177.564 1.45995 -1.05288 0
M  V30 1860 H 173.939 0.411486 -0.629431 0
M  V30 1861 H 175.91 0.850425 -2.86025 0
M  V30 1862 C 174.659 2.55403 -2.35934 0
M  V30 1863 H 173.982 2.38438 -3.20916 0
M  V30 1864 H 175.422 3.2814 -2.68514 0
M  V30 1865 C 173.881 3.14611 -1.20506 0
M  V30 1866 O 174.411 3.98626 -0.496016 0
M  V30 1867 N 172.617 2.7379 -0.97403 0
M  V30 1868 H 172.164 2.0557 -1.55238 0
M  V30 1869 H 172.122 3.1374 -0.203573 0
M  V30 1870 N 175.894 1.51508 0.433938 0
M  V30 1871 C 177.305 1.56784 1.01369 0
M  V30 1872 C 177.656 0.393349 1.92217 0
M  V30 1873 O 176.781 -0.489441 2.10792 0
M  V30 1874 C 177.376 2.84144 1.8452 0
M  V30 1875 C 175.935 2.9198 2.37539 0
M  V30 1876 C 175.082 2.51482 1.16843 0
M  V30 1877 H 178.033 1.57236 0.215081 0
M  V30 1878 H 178.054 2.68098 2.70007 0
M  V30 1879 H 177.566 3.69607 1.18373 0
M  V30 1880 H 175.667 2.10955 3.0713 0
M  V30 1881 H 175.78 3.95704 2.70103 0
M  V30 1882 H 174.144 2.04758 1.51481 0
M  V30 1883 H 174.927 3.39293 0.523015 0
M  V30 1884 N 177.372 -0.689602 1.41712 0
M  V30 1885 C 178.6 -1.47827 1.44758 0
M  V30 1886 C 179.015 -1.88721 0.0545703 0
M  V30 1887 O 178.372 -1.57176 -0.927463 0
M  V30 1888 C 178.423 -2.73698 2.3616 0
M  V30 1889 O 178.144 -2.34524 3.7004 0
M  V30 1890 C 179.645 -3.67389 2.48072 0
M  V30 1891 H 176.865 -0.455357 0.49284 0
M  V30 1892 H 179.409 -0.848574 1.86063 0
M  V30 1893 H 177.564 -3.32891 1.98148 0
M  V30 1894 H 177.978 -3.15701 4.18847 0
M  V30 1895 H 179.452 -4.52475 3.16181 0
M  V30 1896 H 179.929 -4.12284 1.51388 0
M  V30 1897 H 180.535 -3.14097 2.86746 0
M  V30 1898 N 178.85 -1.27639 -0.924453 0
M  V30 1899 C 180.098 -1.13941 -1.66918 0
M  V30 1900 C 180.419 0.314589 -1.92446 0
M  V30 1901 O 179.689 1.21964 -1.53303 0
M  V30 1902 H 178.269 -0.418678 -0.618642 0
M  V30 1903 H 180.931 -1.60213 -1.10985 0
M  V30 1904 H 180.027 -1.67094 -2.63602 0
M  V30 1905 N 180.328 1.1314 -1.09713 0
M  V30 1906 C 181.568 1.8613 -0.844683 0
M  V30 1907 C 181.932 1.81765 0.618491 0
M  V30 1908 O 183.133 2.50024 0.98699 0
M  V30 1909 C 181.404 3.30151 -1.36877 0
M  V30 1910 S 182.963 4.206 -1.25064 0
M  V30 1911 H 179.781 0.642056 -0.305427 0
M  V30 1912 H 182.383 1.36343 -1.4011 0
M  V30 1913 H 181.087 3.30883 -2.42786 0
M  V30 1914 H 180.618 3.85 -0.808614 0
M  V30 1915 H 182.633 4.95783 -0.203486 0
M  V30 1916 N 181.806 0.884767 1.30421 0
M  V30 1917 C 183.036 0.517293 2.00019 0
M  V30 1918 C 183.444 -0.898632 1.66497 0
M  V30 1919 O 182.787 -1.60245 0.898181 0
M  V30 1920 C 182.849 0.612025 3.54252 0
M  V30 1921 C 182.513 1.99222 4.1129 0
M  V30 1922 C 183.51 2.9616 4.273 0
M  V30 1923 C 181.195 2.29755 4.46674 0
M  V30 1924 C 183.189 4.21764 4.77906 0
M  V30 1925 C 180.876 3.55606 4.96979 0
M  V30 1926 C 181.874 4.51425 5.12547 0
M  V30 1927 O 181.562 5.75043 5.61766 0
M  V30 1928 H 181.294 0.198529 0.64619 0
M  V30 1929 H 183.848 1.1919 1.67281 0
M  V30 1930 H 182.078 -0.119561 3.86515 0
M  V30 1931 H 183.767 0.255859 4.05093 0
M  V30 1932 H 184.533 2.73882 4.00267 0
M  V30 1933 H 180.412 1.55942 4.33824 0
M  V30 1934 H 183.956 4.96561 4.89972 0
M  V30 1935 H 179.853 3.7772 5.23448 0
M  V30 1936 H 180.621 5.77422 5.80109 0
M  V30 1937 N 183.284 -1.43765 0.645699 0
M  V30 1938 C 184.509 -2.06767 0.161883 0
M  V30 1939 C 184.934 -1.48034 -1.16049 0
M  V30 1940 O 184.292 -0.587369 -1.71522 0
M  V30 1941 C 184.34 -3.60519 0.0762003 0
M  V30 1942 O 183.444 -4.00982 -0.963721 0
M  V30 1943 H 182.785 -0.657675 0.091429 0
M  V30 1944 H 185.315 -1.84397 0.886499 0
M  V30 1945 H 185.325 -4.07853 -0.109604 0
M  V30 1946 H 184 -4.02646 1.04157 0
M  V30 1947 H 182.577 -3.65253 -0.751312 0
M  V30 1948 N 184.763 -0.387143 -1.52771 0
M  V30 1949 C 185.693 0.440551 -2.29306 0
M  V30 1950 C 186.674 1.06535 -1.32606 0
M  V30 1951 O 187.859 1.07853 -1.61497 0
M  V30 1952 C 184.989 1.56919 -3.09829 0
M  V30 1953 C 183.943 1.07054 -4.14395 0
M  V30 1954 C 183.269 2.29109 -4.83129 0
M  V30 1955 C 184.569 0.140015 -5.22112 0
M  V30 1956 H 186.263 -0.198026 -2.98744 0
M  V30 1957 H 183.809 -0.09668 -1.43675 0
M  V30 1958 H 185.762 2.15503 -3.62128 0
M  V30 1959 H 184.486 2.23532 -2.3812 0
M  V30 1960 H 183.145 0.507247 -3.63074 0
M  V30 1961 H 182.793 2.94227 -4.0797 0
M  V30 1962 H 182.493 1.96406 -5.53804 0
M  V30 1963 H 184.017 2.88339 -5.38231 0
M  V30 1964 H 185.431 0.633978 -5.69784 0
M  V30 1965 H 183.828 -0.0971485 -6.00021 0
M  V30 1966 H 184.898 -0.811711 -4.78058 0
M  V30 1967 N 186.241 1.57166 -0.116904 0
M  V30 1968 C 187.469 1.99473 0.549383 0
M  V30 1969 C 187.884 0.996541 1.60357 0
M  V30 1970 O 187.241 -0.0108731 1.82497 0
M  V30 1971 C 187.292 3.41788 1.17741 0
M  V30 1972 O 187.013 4.37788 0.165362 0
M  V30 1973 C 188.514 3.99216 1.92722 0
M  V30 1974 H 185.734 0.655009 0.145616 0
M  V30 1975 H 188.278 2.03494 -0.202625 0
M  V30 1976 H 186.433 3.38713 1.88021 0
M  V30 1977 H 186.847 5.20806 0.621403 0
M  V30 1978 H 188.321 5.00882 2.31995 0
M  V30 1979 H 188.798 3.3824 2.80161 0
M  V30 1980 H 189.404 4.0583 1.27209 0
M  V30 1981 N 187.719 -0.156864 1.56817 0
M  V30 1982 C 188.966 -0.871125 1.82805 0
M  V30 1983 C 189.294 -1.81611 0.696262 0
M  V30 1984 O 188.549 -1.93141 -0.315459 0
M  V30 1985 C 188.848 -1.68737 3.1506 0
M  V30 1986 C 188.514 -0.890045 4.42028 0
M  V30 1987 C 187.176 -0.670042 4.76512 0
M  V30 1988 C 189.528 -0.331769 5.20143 0
M  V30 1989 C 186.856 0.119104 5.86579 0
M  V30 1990 C 189.208 0.444365 6.31037 0
M  V30 1991 C 187.872 0.675035 6.64078 0
M  V30 1992 H 187.142 -0.318767 0.668931 0
M  V30 1993 H 189.789 -0.135274 1.91022 0
M  V30 1994 H 188.094 -2.49304 3.0225 0
M  V30 1995 H 189.791 -2.24331 3.3238 0
M  V30 1996 H 186.381 -1.07157 4.14988 0
M  V30 1997 H 190.565 -0.489043 4.93885 0
M  V30 1998 H 185.821 0.307417 6.10627 0
M  V30 1999 H 189.995 0.884139 6.90765 0
M  V30 2000 H 187.622 1.28839 7.49203 0
M  V30 2001 N 189.197 -1.51736 -0.425897 0
M  V30 2002 C 190.145 -1.74464 -1.53834 0
M  V30 2003 C 191.139 -0.611241 -1.57988 0
M  V30 2004 O 192.345 -0.792899 -1.61596 0
M  V30 2005 H 188.72 -0.551437 -0.511293 0
M  V30 2006 H 190.691 -2.67694 -1.31843 0
M  V30 2007 C 189.44 -1.8972 -2.91379 0
M  V30 2008 H 188.763 -2.76344 -2.88919 0
M  V30 2009 H 190.203 -2.09629 -3.68553 0
M  V30 2010 C 188.662 -0.65992 -3.30374 0
M  V30 2011 O 189.192 0.180083 -4.01296 0
M  V30 2012 N 187.398 -0.500677 -2.86254 0
M  V30 2013 H 186.945 -1.18532 -2.28709 0
M  V30 2014 H 186.903 0.325903 -3.12706 0
M  V30 2015 N 190.675 0.682077 -1.42076 0
M  V30 2016 C 191.921 1.44428 -1.42367 0
M  V30 2017 C 192.254 1.94164 -0.0373056 0
M  V30 2018 O 191.529 1.70429 0.937239 0
M  V30 2019 C 191.812 2.64654 -2.44194 0
M  V30 2020 C 191.665 2.20596 -3.91991 0
M  V30 2021 C 192.984 3.66865 -2.431 0
M  V30 2022 H 190.103 0.523834 -0.518428 0
M  V30 2023 H 192.745 0.77576 -1.73442 0
M  V30 2024 H 190.895 3.2169 -2.17826 0
M  V30 2025 H 192.567 1.68783 -4.29313 0
M  V30 2026 H 190.81 1.52242 -4.06208 0
M  V30 2027 H 191.481 3.06921 -4.58807 0
M  V30 2028 H 193.957 3.19531 -2.66532 0
M  V30 2029 H 192.833 4.48577 -3.16339 0
M  V30 2030 H 193.094 4.17493 -1.45437 0
M  V30 2031 N 192.153 1.28127 0.917671 0
M  V30 2032 C 193.43 1.05761 1.64542 0
M  V30 2033 C 193.81 -0.404344 2.07191 0
M  V30 2034 O 193.158 -1.38963 1.81388 0
M  V30 2035 C 193.368 2.02857 2.83989 0
M  V30 2036 C 194.716 2.32786 3.551 0
M  V30 2037 O 195.74 2.0091 2.94132 0
M  V30 2038 O 194.599 2.87169 4.64969 0
M  V30 2039 H 191.693 0.403916 0.721652 0
M  V30 2040 H 194.239 1.39431 0.967322 0
M  V30 2041 H 193.011 3.01407 2.49538 0
M  V30 2042 H 192.634 1.69809 3.59514 0
M  V30 2043 N 193.631 -1.12557 1.10312 0
M  V30 2044 C 194.541 -2.21841 0.763142 0
M  V30 2045 C 195.557 -1.72354 -0.238801 0
M  V30 2046 O 196.733 -2.01249 -0.0778746 0
M  V30 2047 C 193.798 -3.46131 0.198632 0
M  V30 2048 C 192.859 -4.10464 1.25769 0
M  V30 2049 C 192.092 -5.28821 0.72002 0
M  V30 2050 O 192.315 -5.6859 -0.453993 0
M  V30 2051 O 191.249 -5.83437 1.47935 0
M  V30 2052 H 195.075 -2.53312 1.67532 0
M  V30 2053 H 192.66 -1.20867 0.878157 0
M  V30 2054 H 194.542 -4.2125 -0.112401 0
M  V30 2055 H 193.217 -3.16338 -0.686419 0
M  V30 2056 H 192.124 -3.3713 1.62156 0
M  V30 2057 H 193.457 -4.44408 2.11571 0
M  V30 2058 N 195.109 -0.891671 -1.2995 0
M  V30 2059 C 196.334 -0.527932 -2.00568 0
M  V30 2060 C 196.759 0.877969 -1.66353 0
M  V30 2061 O 196.117 1.58301 -0.883762 0
M  V30 2062 C 196.165 -0.717745 -3.53385 0
M  V30 2063 O 195.269 0.233376 -4.11739 0
M  V30 2064 H 194.61 -0.20722 -0.630837 0
M  V30 2065 H 197.14 -1.20105 -1.65638 0
M  V30 2066 H 197.15 -0.619307 -4.03272 0
M  V30 2067 H 195.825 -1.74276 -3.77625 0
M  V30 2068 H 194.402 0.0880706 -3.72796 0
M  V30 2069 N 196.587 1.43421 -0.653314 0
M  V30 2070 C 197.833 2.02641 -0.175593 0
M  V30 2071 C 198.188 1.5062 1.19713 0
M  V30 2072 O 197.481 0.689697 1.78756 0
M  V30 2073 C 197.675 3.57176 -0.126623 0
M  V30 2074 C 197.504 4.24191 -1.49306 0
M  V30 2075 C 196.274 4.60257 -2.08547 0
M  V30 2076 C 198.472 4.53193 -2.43148 0
M  V30 2077 N 196.454 5.12345 -3.38194 0
M  V30 2078 C 197.825 5.06601 -3.57429 0
M  V30 2079 C 199.88 4.35161 -2.41949 0
M  V30 2080 C 198.583 5.43875 -4.70736 0
M  V30 2081 C 200.609 4.73498 -3.54336 0
M  V30 2082 C 199.971 5.27039 -4.67343 0
M  V30 2083 H 196.07 0.77441 -0.108686 0
M  V30 2084 H 198.654 1.74596 -0.861638 0
M  V30 2085 H 196.825 3.84784 0.528766 0
M  V30 2086 H 198.557 4.03078 0.36198 0
M  V30 2087 H 195.312 4.45302 -1.61255 0
M  V30 2088 H 195.736 5.42842 -4.04538 0
M  V30 2089 H 200.378 3.9304 -1.55818 0
M  V30 2090 H 198.096 5.8494 -5.57558 0
M  V30 2091 H 201.682 4.61241 -3.5461 0
M  V30 2092 H 200.562 5.56153 -5.52868 0
M  V30 2093 N 198.065 0.39524 1.52563 0
M  V30 2094 C 198.995 -0.428384 2.29537 0
M  V30 2095 C 199.976 -1.05831 1.33169 0
M  V30 2096 O 201.161 -1.06995 1.62067 0
M  V30 2097 C 198.291 -1.55274 3.10656 0
M  V30 2098 C 197.245 -1.04855 4.14957 0
M  V30 2099 C 196.571 -2.26543 4.84337 0
M  V30 2100 C 197.871 -0.112324 5.22179 0
M  V30 2101 H 199.565 0.213867 2.98635 0
M  V30 2102 H 197.111 0.104298 1.43622 0
M  V30 2103 H 199.064 -2.1358 3.63265 0
M  V30 2104 H 197.788 -2.22266 2.39302 0
M  V30 2105 H 196.447 -0.487985 3.63338 0
M  V30 2106 H 196.095 -2.92059 4.09525 0
M  V30 2107 H 195.795 -1.93466 5.54837 0
M  V30 2108 H 197.319 -2.85481 5.39753 0
M  V30 2109 H 198.733 -0.603752 5.70112 0
M  V30 2110 H 197.13 0.128968 5.99961 0
M  V30 2111 H 198.2 0.837052 4.77621 0
M  V30 2112 N 199.544 -1.57102 0.125237 0
M  V30 2113 C 200.476 -2.12726 -0.853237 0
M  V30 2114 C 201.489 -1.07145 -1.22571 0
M  V30 2115 O 202.678 -1.34497 -1.17358 0
M  V30 2116 C 199.778 -2.61709 -2.15317 0
M  V30 2117 C 198.951 -3.91456 -1.95143 0
M  V30 2118 C 198.01 -4.25973 -3.08923 0
M  V30 2119 O 197.036 -4.94682 -2.81564 0
M  V30 2120 N 198.238 -3.83795 -4.35524 0
M  V30 2121 H 201.003 -2.97307 -0.377964 0
M  V30 2122 H 198.564 -1.61792 -0.0590011 0
M  V30 2123 H 200.556 -2.81826 -2.90441 0
M  V30 2124 H 199.126 -1.81974 -2.54174 0
M  V30 2125 H 198.346 -3.80185 -1.04177 0
M  V30 2126 H 199.634 -4.76283 -1.78976 0
M  V30 2127 H 199.032 -3.2839 -4.60626 0
M  V30 2128 H 197.589 -4.09008 -5.07499 0
M  V30 2129 N 201.022 0.148545 -1.56898 0
M  V30 2130 C 201.932 1.20293 -2.01412 0
M  V30 2131 C 202.948 1.47107 -0.929273 0
M  V30 2132 O 204.124 1.58807 -1.23863 0
M  V30 2133 C 201.189 2.51682 -2.38447 0
M  V30 2134 C 200.25 2.32529 -3.60872 0
M  V30 2135 C 199.483 3.57653 -3.96132 0
M  V30 2136 O 199.706 4.63771 -3.32073 0
M  V30 2137 O 198.64 3.50408 -4.89385 0
M  V30 2138 H 202.466 0.855025 -2.91416 0
M  V30 2139 H 200.051 0.357151 -1.45068 0
M  V30 2140 H 201.933 3.29147 -2.63135 0
M  V30 2141 H 200.608 2.86006 -1.51599 0
M  V30 2142 H 199.515 1.53019 -3.41373 0
M  V30 2143 H 200.848 2.03121 -4.48333 0
M  V30 2144 N 202.5 1.5196 0.417844 0
M  V30 2145 C 203.748 1.65263 1.16329 0
M  V30 2146 C 204.069 0.380634 1.91249 0
M  V30 2147 O 203.339 -0.604214 1.86349 0
M  V30 2148 H 201.919 0.60912 0.432414 0
M  V30 2149 H 204.581 1.88969 0.477162 0
M  V30 2150 H 203.677 2.4896 1.88217 0
M  V30 2151 N 203.978 -0.674533 1.42435 0
M  V30 2152 C 204.91 -1.80005 1.41883 0
M  V30 2153 C 205.923 -1.59667 0.31787 0
M  V30 2154 O 207.112 -1.68781 0.580973 0
M  V30 2155 C 204.212 -3.17114 1.19549 0
M  V30 2156 C 203.385 -3.64299 2.42084 0
M  V30 2157 C 202.444 -4.80142 2.15291 0
M  V30 2158 O 201.47 -4.90673 2.88493 0
M  V30 2159 N 202.672 -5.68869 1.1562 0
M  V30 2160 H 205.437 -1.80964 2.38898 0
M  V30 2161 H 202.998 -0.857633 1.37318 0
M  V30 2162 H 204.99 -3.92267 0.995417 0
M  V30 2163 H 203.56 -3.11053 0.310569 0
M  V30 2164 H 202.78 -2.79822 2.77657 0
M  V30 2165 H 204.068 -3.92567 3.23679 0
M  V30 2166 H 203.466 -5.63012 0.550765 0
M  V30 2167 H 202.023 -6.43833 1.016 0
M  V30 2168 N 205.456 -1.28612 -0.910864 0
M  V30 2169 C 206.684 -1.18792 -1.69399 0
M  V30 2170 C 207.099 0.253039 -1.87097 0
M  V30 2171 O 206.456 1.17071 -1.40003 0
M  V30 2172 C 206.507 -1.88511 -3.08457 0
M  V30 2173 O 206.228 -3.26979 -2.91576 0
M  V30 2174 C 207.729 -1.85029 -4.02839 0
M  V30 2175 H 204.949 -0.412233 -0.529438 0
M  V30 2176 H 207.493 -1.69788 -1.13984 0
M  V30 2177 H 205.648 -1.41379 -3.60681 0
M  V30 2178 H 206.062 -3.61936 -3.79608 0
M  V30 2179 H 207.536 -2.38395 -4.97867 0
M  V30 2180 H 208.013 -0.823303 -4.31414 0
M  V30 2181 H 208.619 -2.31853 -3.56545 0
M  V30 2182 N 206.934 1.1197 -1.10907 0
M  V30 2183 C 208.35 1.35591 -0.841852 0
M  V30 2184 C 208.55 1.94233 0.536246 0
M  V30 2185 O 207.606 2.1717 1.28816 0
M  V30 2186 C 208.919 2.29284 -1.94549 0
M  V30 2187 C 210.467 2.42862 -1.97451 0
M  V30 2188 C 210.942 3.39873 -3.07002 0
M  V30 2189 N 212.433 3.47433 -3.06341 0
M  V30 2190 C 213.168 4.22421 -3.87748 0
M  V30 2191 N 212.664 5.00432 -4.79103 0
M  V30 2192 N 214.457 4.17876 -3.75946 0
M  V30 2193 H 206.608 0.722664 -1.99728 0
M  V30 2194 H 208.871 0.380635 -0.868229 0
M  V30 2195 H 208.577 1.93378 -2.93765 0
M  V30 2196 H 208.451 3.29452 -1.83688 0
M  V30 2197 H 210.838 2.78046 -0.988645 0
M  V30 2198 H 210.919 1.42566 -2.12388 0
M  V30 2199 H 210.563 3.05417 -4.05811 0
M  V30 2200 H 210.493 4.40011 -2.89306 0
M  V30 2201 H 212.984 2.91784 -2.40147 0
M  V30 2202 H 213.297 5.55002 -5.37766 0
M  V30 2203 H 211.642 4.99612 -4.83128 0
M  V30 2204 H 214.833 3.56016 -3.03924 0
M  V30 2205 H 215.006 4.76061 -4.39624 0
M  V30 2206 N 208.412 0.89855 1.29475 0
M  V30 2207 C 209.661 0.519863 1.94885 0
M  V30 2208 C 209.974 -0.9383 1.71625 0
M  V30 2209 O 211.18 -1.42445 2.31131 0
M  V30 2210 C 209.636 0.878836 3.49005 0
M  V30 2211 C 209.244 2.35569 3.81066 0
M  V30 2212 C 210.988 0.570004 4.20656 0
M  V30 2213 C 208.895 2.65558 5.28425 0
M  V30 2214 H 207.825 0.190692 0.729488 0
M  V30 2215 H 210.476 1.09539 1.47219 0
M  V30 2216 H 208.858 0.232253 3.95318 0
M  V30 2217 H 210.032 3.04773 3.45616 0
M  V30 2218 H 208.347 2.63343 3.22552 0
M  V30 2219 H 210.944 0.770925 5.29113 0
M  V30 2220 H 211.287 -0.491404 4.1339 0
M  V30 2221 H 211.82 1.17438 3.8007 0
M  V30 2222 H 208.559 3.70493 5.40754 0
M  V30 2223 H 208.079 2.00977 5.65127 0
M  V30 2224 H 209.758 2.51765 5.96006 0
M  V30 2225 N 209.89 -1.43072 0.660911 0
M  V30 2226 C 211.139 -2.00942 0.174735 0
M  V30 2227 C 211.452 -1.52797 -1.22117 0
M  V30 2228 O 212.658 -2.02991 -1.80297 0
M  V30 2229 C 211.114 -3.58948 0.261559 0
M  V30 2230 C 210.722 -4.16085 1.66064 0
M  V30 2231 C 212.466 -4.24173 -0.166617 0
M  V30 2232 C 210.373 -5.6641 1.70098 0
M  V30 2233 H 209.303 -0.751483 0.0615631 0
M  V30 2234 H 211.954 -1.63955 0.824069 0
M  V30 2235 H 210.336 -3.93372 -0.455421 0
M  V30 2236 H 211.51 -3.93147 2.40359 0
M  V30 2237 H 209.825 -3.6326 2.03546 0
M  V30 2238 H 212.422 -5.34471 -0.156433 0
M  V30 2239 H 212.765 -3.98647 -1.19943 0
M  V30 2240 H 213.298 -3.94659 0.498875 0
M  V30 2241 H 210.037 -5.96715 2.71315 0
M  V30 2242 H 209.557 -5.91382 1.00139 0
M  V30 2243 H 211.236 -6.30585 1.44816 0
M  V30 2244 N 211.368 -0.403325 -1.52352 0
M  V30 2245 C 212.615 0.174347 -2.01748 0
M  V30 2246 C 212.943 1.45636 -1.2892 0
M  V30 2247 O 212.198 1.9193 -0.382258 0
M  V30 2248 C 212.497 0.474665 -3.54234 0
M  V30 2249 C 212.163 -0.717458 -4.45155 0
M  V30 2250 C 210.825 -1.04447 -4.69728 0
M  V30 2251 C 213.177 -1.51432 -4.98716 0
M  V30 2252 C 210.505 -2.16963 -5.45109 0
M  V30 2253 C 212.857 -2.6302 -5.75329 0
M  V30 2254 C 211.521 -2.96213 -5.98175 0
M  V30 2255 H 210.791 0.0637981 -0.738248 0
M  V30 2256 H 213.438 -0.543553 -1.83624 0
M  V30 2257 H 211.743 1.27406 -3.70506 0
M  V30 2258 H 213.44 0.934496 -3.89959 0
M  V30 2259 H 210.03 -0.452596 -4.26204 0
M  V30 2260 H 214.214 -1.27491 -4.79645 0
M  V30 2261 H 209.47 -2.43034 -5.61021 0
M  V30 2262 H 213.644 -3.25158 -6.15829 0
M  V30 2263 H 211.271 -3.83516 -6.56368 0
M  V30 2264 N 212.846 1.57033 -0.133567 0
M  V30 2265 C 214.123 1.87256 0.56522 0
M  V30 2266 C 214.503 1.03726 1.83859 0
M  V30 2267 O 213.851 0.120247 2.28183 0
M  V30 2268 C 214.061 3.3865 0.843636 0
M  V30 2269 C 215.409 4.07574 1.19032 0
M  V30 2270 O 216.433 3.43752 0.933429 0
M  V30 2271 O 215.292 5.20259 1.67312 0
M  V30 2272 H 212.386 0.775678 0.286796 0
M  V30 2273 H 214.932 1.68855 -0.169168 0
M  V30 2274 H 213.704 3.91257 -0.0581149 0
M  V30 2275 H 213.327 3.62532 1.63268 0
M  V30 2276 N 214.325 -0.140222 1.56975 0
M  V30 2277 C 215.573 -0.850005 1.83356 0
M  V30 2278 C 215.894 -1.81399 0.71551 0
M  V30 2279 O 215.164 -1.94136 -0.262294 0
M  V30 2280 H 213.744 -0.316886 0.676456 0
M  V30 2281 H 216.406 -0.132608 1.94448 0
M  V30 2282 H 215.502 -1.40814 2.78528 0
M  V30 2283 N 215.803 -1.52179 -0.40978 0
M  V30 2284 C 217.049 -1.66453 -1.15851 0
M  V30 2285 C 217.382 -0.392972 -1.90182 0
M  V30 2286 O 216.657 0.608579 -1.84734 0
M  V30 2287 C 216.94 -2.88612 -2.15349 0
M  V30 2288 C 216.793 -4.25815 -1.44918 0
M  V30 2289 C 218.112 -3.06294 -3.16026 0
M  V30 2290 H 215.231 -0.60575 -0.419805 0
M  V30 2291 H 217.873 -1.84732 -0.444314 0
M  V30 2292 H 216.023 -2.73158 -2.76255 0
M  V30 2293 H 217.695 -4.52995 -0.871365 0
M  V30 2294 H 215.938 -4.27247 -0.751159 0
M  V30 2295 H 216.609 -5.07337 -2.17516 0
M  V30 2296 H 219.085 -3.20641 -2.65195 0
M  V30 2297 H 217.961 -3.93283 -3.8291 0
M  V30 2298 H 218.222 -2.19579 -3.83715 0
M  V30 2299 N 217.281 0.66697 -1.42791 0
M  V30 2300 C 218.229 1.80157 -1.47127 0
M  V30 2301 C 219.223 1.65825 -0.346199 0
M  V30 2302 O 220.429 1.72338 -0.519572 0
M  V30 2303 H 216.804 0.594158 -0.460956 0
M  V30 2304 H 218.775 1.73619 -2.42692 0
M  V30 2305 C 217.524 3.18351 -1.39813 0
M  V30 2306 H 216.847 3.3001 -2.25684 0
M  V30 2307 H 218.287 3.97736 -1.46908 0
M  V30 2308 C 216.746 3.36707 -0.11391 0
M  V30 2309 O 217.276 3.93027 0.830241 0
M  V30 2310 N 215.482 2.90586 -0.0285295 0
M  V30 2311 H 215.029 2.4494 -0.79764 0
M  V30 2312 H 214.987 3.03245 0.830063 0
M  V30 2313 N 218.759 1.29093 0.90403 0
M  V30 2314 C 219.984 1.19809 1.69294 0
M  V30 2315 C 220.409 -0.238481 1.86582 0
M  V30 2316 O 219.767 -1.1723 1.383 0
M  V30 2317 C 219.815 1.91202 3.05736 0
M  V30 2318 O 218.919 1.22611 3.93752 0
M  V30 2319 H 218.26 0.415385 0.518027 0
M  V30 2320 H 220.79 1.70586 1.12967 0
M  V30 2321 H 220.8 1.99487 3.55906 0
M  V30 2322 H 219.475 2.95692 2.92471 0
M  V30 2323 H 218.052 1.22554 3.52186 0
M  V30 2324 N 220.237 -1.11381 1.11499 0
M  V30 2325 C 221.2 -2.15622 0.777153 0
M  V30 2326 C 222.2 -1.59504 -0.203779 0
M  V30 2327 O 223.39 -1.74188 0.020782 0
M  V30 2328 C 220.522 -3.40556 0.153116 0
M  V30 2329 H 221.715 -2.47021 1.70061 0
M  V30 2330 H 219.268 -1.26577 0.916952 0
M  V30 2331 H 220.003 -3.14767 -0.780536 0
M  V30 2332 H 219.788 -3.8257 0.859238 0
M  V30 2333 H 221.278 -4.17546 -0.0671044 0
M  V30 2334 N 221.715 -0.905404 -1.28997 0
M  V30 2335 C 222.962 -0.534248 -1.95325 0
M  V30 2336 C 223.29 0.920535 -1.71337 0
M  V30 2337 O 222.545 1.66861 -1.02254 0
M  V30 2338 C 222.844 -0.779906 -3.48787 0
M  V30 2339 C 222.51 -2.21293 -3.92861 0
M  V30 2340 C 221.172 -2.60475 -4.04606 0
M  V30 2341 C 223.524 -3.14587 -4.15553 0
M  V30 2342 C 220.852 -3.9212 -4.36416 0
M  V30 2343 C 223.204 -4.45787 -4.48839 0
M  V30 2344 C 221.868 -4.84834 -4.58794 0
M  V30 2345 H 221.138 -0.195495 -0.714747 0
M  V30 2346 H 223.785 -1.14514 -1.53488 0
M  V30 2347 H 222.09 -0.0861365 -3.91705 0
M  V30 2348 H 223.787 -0.472029 -3.98212 0
M  V30 2349 H 220.377 -1.89887 -3.84241 0
M  V30 2350 H 224.561 -2.85528 -4.0594 0
M  V30 2351 H 219.817 -4.22086 -4.42327 0
M  V30 2352 H 223.991 -5.18098 -4.65346 0
M  V30 2353 H 221.618 -5.86877 -4.83197 0
M  V30 2354 N 223.193 1.4272 -0.668489 0
M  V30 2355 C 224.143 2.27971 0.0363806 0
M  V30 2356 C 225.127 1.40741 0.779794 0
M  V30 2357 O 226.319 1.64245 0.659745 0
M  V30 2358 C 223.448 3.28673 0.991398 0
M  V30 2359 C 222.534 4.23388 0.245658 0
M  V30 2360 N 222.925 5.00267 -0.746069 0
M  V30 2361 C 221.223 4.43355 0.484988 0
M  V30 2362 C 221.924 5.69396 -1.19009 0
M  V30 2363 N 220.9 5.41095 -0.521287 0
M  V30 2364 H 224.702 2.84833 -0.724394 0
M  V30 2365 H 222.216 1.54607 -0.497028 0
M  V30 2366 H 224.213 3.88543 1.51129 0
M  V30 2367 H 222.873 2.73373 1.75207 0
M  V30 2368 H 223.884 5.05525 -1.12537 0
M  V30 2369 H 220.561 3.99104 1.22565 0
M  V30 2370 H 221.951 6.41083 -2.01153 0
M  V30 2371 N 224.671 0.411399 1.52136 0
M  V30 2372 C 225.601 -0.404015 2.29978 0
M  V30 2373 C 226.582 -1.04412 1.34284 0
M  V30 2374 O 227.767 -1.0527 1.63192 0
M  V30 2375 C 224.897 -1.5197 3.12286 0
M  V30 2376 C 223.851 -1.00448 4.16046 0
M  V30 2377 C 223.177 -2.21393 4.86712 0
M  V30 2378 C 224.477 -0.0569336 5.22269 0
M  V30 2379 H 226.171 0.245529 2.98392 0
M  V30 2380 H 223.717 0.119525 1.43503 0
M  V30 2381 H 225.67 -2.09715 3.6551 0
M  V30 2382 H 224.394 -2.19716 2.41646 0
M  V30 2383 H 223.053 -0.449421 3.63835 0
M  V30 2384 H 222.701 -2.87699 4.12599 0
M  V30 2385 H 222.401 -1.87571 5.56858 0
M  V30 2386 H 223.925 -2.7974 5.4275 0
M  V30 2387 H 225.339 -0.54325 5.7072 0
M  V30 2388 H 223.736 0.192594 5.99791 0
M  V30 2389 H 224.806 0.887663 4.76706 0
M  V30 2390 N 226.149 -1.5696 0.141893 0
M  V30 2391 C 227.395 -1.97034 -0.504884 0
M  V30 2392 C 227.75 -1.02518 -1.62812 0
M  V30 2393 O 227.043 -0.0592943 -1.91508 0
M  V30 2394 C 227.237 -3.41242 -1.06249 0
M  V30 2395 C 227.066 -4.497 0.00519653 0
M  V30 2396 C 225.836 -5.03338 0.444873 0
M  V30 2397 C 228.034 -5.08122 0.794767 0
M  V30 2398 N 226.016 -5.95395 1.49593 0
M  V30 2399 C 227.387 -5.96339 1.69645 0
M  V30 2400 C 229.442 -4.9071 0.843122 0
M  V30 2401 C 228.145 -6.69009 2.64233 0
M  V30 2402 C 230.171 -5.64077 1.77681 0
M  V30 2403 C 229.533 -6.51999 2.66603 0
M  V30 2404 H 225.632 -0.766745 -0.153707 0
M  V30 2405 H 228.216 -1.93273 0.235313 0
M  V30 2406 H 226.387 -3.45606 -1.77231 0
M  V30 2407 H 228.119 -3.68389 -1.67546 0
M  V30 2408 H 224.874 -4.73576 0.0480959 0
M  V30 2409 H 225.298 -6.46128 2.02107 0
M  V30 2410 H 229.94 -4.22459 0.169732 0
M  V30 2411 H 227.658 -7.36492 3.32575 0
M  V30 2412 H 231.244 -5.52602 1.81996 0
M  V30 2413 H 230.124 -7.07775 3.37675 0
M  V30 2414 N 227.627 0.131896 -1.57047 0
M  V30 2415 C 228.867 0.847972 -1.85981 0
M  V30 2416 C 229.231 1.77655 -0.7282 0
M  V30 2417 O 230.432 2.53322 -0.898968 0
M  V30 2418 C 228.703 1.58919 -3.20124 0
M  V30 2419 S 230.262 2.34862 -3.70655 0
M  V30 2420 H 227.08 0.283273 -0.652133 0
M  V30 2421 H 229.682 0.107057 -1.95207 0
M  V30 2422 H 228.386 0.898771 -4.00438 0
M  V30 2423 H 227.917 2.37073 -3.13942 0
M  V30 2424 H 229.932 3.60344 -3.41126 0
M  V30 2425 N 229.106 1.52395 0.401703 0
M  V30 2426 C 230.054 1.7689 1.51039 0
M  V30 2427 C 231.048 0.636298 1.56996 0
M  V30 2428 O 232.254 0.818507 1.60314 0
M  V30 2429 H 228.629 0.559502 0.502456 0
M  V30 2430 H 230.6 2.69757 1.27568 0
M  V30 2431 C 229.349 1.94331 2.88324 0
M  V30 2432 H 228.672 2.80905 2.84486 0
M  V30 2433 H 230.112 2.15466 3.65172 0
M  V30 2434 C 228.571 0.712396 3.29282 0
M  V30 2435 O 229.101 -0.116218 4.01532 0
M  V30 2436 N 227.307 0.546154 2.85422 0
M  V30 2437 H 226.854 1.22156 2.26794 0
M  V30 2438 H 226.812 -0.276113 3.13185 0
M  V30 2439 N 230.584 -0.659388 1.43143 0
M  V30 2440 C 231.832 -1.41654 1.44147 0
M  V30 2441 C 232.153 -1.94893 0.0645739 0
M  V30 2442 O 231.423 -1.74044 -0.899198 0
M  V30 2443 H 230.003 -0.525708 0.530697 0
M  V30 2444 H 232.665 -0.778097 1.78694 0
M  V30 2445 H 231.761 -2.26195 2.1504 0
M  V30 2446 N 232.062 -1.29571 -0.897171 0
M  V30 2447 C 233.478 -1.07637 -1.17841 0
M  V30 2448 C 233.678 0.170713 -2.00776 0
M  V30 2449 O 232.734 0.867768 -2.3712 0
M  V30 2450 C 234.047 -2.3332 -1.8969 0
M  V30 2451 C 235.595 -2.38664 -2.02505 0
M  V30 2452 C 236.07 -3.64157 -2.77765 0
M  V30 2453 N 237.561 -3.64894 -2.85318 0
M  V30 2454 C 238.296 -4.58679 -3.44094 0
M  V30 2455 N 237.792 -5.62799 -4.04017 0
M  V30 2456 N 239.585 -4.46245 -3.41793 0
M  V30 2457 H 231.736 -2.09598 -0.343883 0
M  V30 2458 H 233.999 -0.923333 -0.214848 0
M  V30 2459 H 233.705 -3.24262 -1.36187 0
M  V30 2460 H 233.579 -2.41025 -2.9015 0
M  V30 2461 H 235.966 -1.48208 -2.55183 0
M  V30 2462 H 236.047 -2.34943 -1.01171 0
M  V30 2463 H 235.691 -4.54965 -2.25763 0
M  V30 2464 H 235.621 -3.65137 -3.7945 0
M  V30 2465 H 238.112 -2.89613 -2.42761 0
M  V30 2466 H 238.425 -6.3048 -4.46895 0
M  V30 2467 H 236.77 -5.66605 -4.02472 0
M  V30 2468 H 239.961 -3.64094 -2.94199 0
M  V30 2469 H 240.134 -5.19518 -3.87304 0
M  V30 2470 N 233.54 1.10788 -1.12088 0
M  V30 2471 C 234.786 1.8313 -0.885148 0
M  V30 2472 C 235.141 1.8336 0.582839 0
M  V30 2473 O 234.434 1.28062 1.42516 0
M  V30 2474 C 234.628 3.29294 -1.38926 0
M  V30 2475 C 234.457 3.43302 -2.90472 0
M  V30 2476 C 233.227 3.55928 -3.58669 0
M  V30 2477 C 235.425 3.37014 -3.88492 0
M  V30 2478 N 233.407 3.58475 -4.98366 0
M  V30 2479 C 234.778 3.46263 -5.14298 0
M  V30 2480 C 236.833 3.20589 -3.80955 0
M  V30 2481 C 235.536 3.4078 -6.33452 0
M  V30 2482 C 237.562 3.16427 -4.99628 0
M  V30 2483 C 236.924 3.26253 -6.2429 0
M  V30 2484 H 233.023 0.685054 -0.377128 0
M  V30 2485 H 235.607 1.3251 -1.4265 0
M  V30 2486 H 233.778 3.78416 -0.874999 0
M  V30 2487 H 235.51 3.89578 -1.09596 0
M  V30 2488 H 232.265 3.58779 -3.09151 0
M  V30 2489 H 232.689 3.6337 -5.71219 0
M  V30 2490 H 237.331 3.11873 -2.85474 0
M  V30 2491 H 235.049 3.48263 -7.29204 0
M  V30 2492 H 238.635 3.04874 -4.95523 0
M  V30 2493 H 237.515 3.2303 -7.14578 0
M  V30 2494 N 235.018 0.912232 1.28515 0
M  V30 2495 C 236.264 0.545405 1.95328 0
M  V30 2496 C 236.597 -0.908313 1.71649 0
M  V30 2497 O 235.872 -1.64575 1.03659 0
M  V30 2498 C 236.155 0.853483 3.4984 0
M  V30 2499 C 236.008 2.35982 3.82926 0
M  V30 2500 C 237.327 0.348589 4.38717 0
M  V30 2501 H 234.446 0.199626 0.709449 0
M  V30 2502 H 237.088 1.1412 1.5191 0
M  V30 2503 H 235.238 0.34643 3.86952 0
M  V30 2504 H 236.91 2.93738 3.55691 0
M  V30 2505 H 235.153 2.81543 3.30024 0
M  V30 2506 H 235.824 2.52593 4.90816 0
M  V30 2507 H 238.3 0.78294 4.08668 0
M  V30 2508 H 237.176 0.593242 5.45685 0
M  V30 2509 H 237.437 -0.751049 4.35674 0
M  V30 2510 N 236.496 -1.42363 0.676048 0
M  V30 2511 C 237.744 -2.01123 0.198437 0
M  V30 2512 C 238.065 -1.53731 -1.19966 0
M  V30 2513 O 237.335 -0.759518 -1.80577 0
M  V30 2514 H 235.915 -0.743678 0.0703721 0
M  V30 2515 H 238.577 -1.74263 0.872837 0
M  V30 2516 H 237.673 -3.11454 0.200686 0
M  V30 2517 N 237.974 -0.419461 -1.51915 0
M  V30 2518 C 239.204 0.151915 -2.06041 0
M  V30 2519 C 239.612 1.38539 -1.28855 0
M  V30 2520 O 238.955 1.80592 -0.336463 0
M  V30 2521 C 239.017 0.557119 -3.55157 0
M  V30 2522 C 238.681 -0.567054 -4.53468 0
M  V30 2523 C 239.678 -1.43379 -4.99738 0
M  V30 2524 C 237.363 -0.742693 -4.96779 0
M  V30 2525 C 239.357 -2.46102 -5.87973 0
M  V30 2526 C 237.044 -1.77322 -5.84808 0
M  V30 2527 C 238.042 -2.63078 -6.30301 0
M  V30 2528 O 237.73 -3.64364 -7.16585 0
M  V30 2529 H 237.462 0.0193293 -0.675724 0
M  V30 2530 H 240.016 -0.592073 -1.96682 0
M  V30 2531 H 238.246 1.35355 -3.62238 0
M  V30 2532 H 239.935 1.05759 -3.9188 0
M  V30 2533 H 240.701 -1.30954 -4.66986 0
M  V30 2534 H 236.58 -0.0848307 -4.60922 0
M  V30 2535 H 240.124 -3.13071 -6.23404 0
M  V30 2536 H 236.021 -1.89773 -6.16974 0
M  V30 2537 H 236.789 -3.60731 -7.34721 0
M  V30 2538 N 239.452 1.56882 -0.150215 0
M  V30 2539 C 240.7 1.9584 0.499105 0
M  V30 2540 C 241.021 1.03623 1.65188 0
M  V30 2541 O 240.291 0.0984084 1.95653 0
M  V30 2542 H 238.871 0.723119 0.187373 0
M  V30 2543 H 241.533 1.9358 -0.226466 0
M  V30 2544 H 240.629 2.99638 0.873122 0
M  V30 2545 N 240.93 -0.123565 1.57115 0
M  V30 2546 C 241.862 -1.17739 1.96648 0
M  V30 2547 C 242.875 -1.37906 0.865201 0
M  V30 2548 O 244.064 -1.37062 1.14351 0
M  V30 2549 C 241.164 -2.53821 2.24562 0
M  V30 2550 C 240.337 -2.54317 3.55867 0
M  V30 2551 C 239.396 -3.72112 3.72047 0
M  V30 2552 O 238.422 -3.55907 4.44206 0
M  V30 2553 N 239.624 -4.90498 3.10471 0
M  V30 2554 H 242.389 -0.841147 2.87654 0
M  V30 2555 H 239.95 -0.31289 1.58848 0
M  V30 2556 H 241.942 -3.31175 2.32606 0
M  V30 2557 H 240.512 -2.79645 1.39705 0
M  V30 2558 H 239.732 -1.62711 3.59053 0
M  V30 2559 H 241.02 -2.51701 4.42181 0
M  V30 2560 H 240.418 -5.06567 2.51806 0
M  V30 2561 H 238.975 -5.65544 3.24043 0
M  V30 2562 N 242.408 -1.52605 -0.393616 0
M  V30 2563 C 243.685 -1.58001 -1.15304 0
M  V30 2564 C 244.065 -0.370385 -2.07825 0
M  V30 2565 O 243.413 0.641638 -2.19306 0
M  V30 2566 C 243.623 -2.91652 -1.91677 0
M  V30 2567 C 244.971 -3.4522 -2.47201 0
M  V30 2568 O 245.995 -2.93495 -2.01839 0
M  V30 2569 O 244.854 -4.35579 -3.3005 0
M  V30 2570 H 241.948 -0.637068 -0.527327 0
M  V30 2571 H 244.494 -1.64939 -0.399141 0
M  V30 2572 H 243.266 -3.71136 -1.23992 0
M  V30 2573 H 242.889 -2.88077 -2.74039 0
M  V30 2574 N 243.887 0.651787 -1.4349 0
M  V30 2575 C 245.112 1.44434 -1.48841 0
M  V30 2576 C 245.537 1.8779 -0.107955 0
M  V30 2577 O 244.895 1.57464 0.898602 0
M  V30 2578 C 244.943 2.65458 -2.44059 0
M  V30 2579 O 244.047 3.64566 -1.92784 0
M  V30 2580 H 243.388 0.433005 -0.503391 0
M  V30 2581 H 245.918 0.797451 -1.88419 0
M  V30 2582 H 245.928 3.13255 -2.6141 0
M  V30 2583 H 244.603 2.33244 -3.4434 0
M  V30 2584 H 243.18 3.23716 -1.851 0
M  V30 2585 N 245.365 1.30045 0.890287 0
M  V30 2586 C 246.781 1.08261 1.17268 0
M  V30 2587 C 246.981 -0.160063 2.00863 0
M  V30 2588 O 246.037 -0.855181 2.37577 0
M  V30 2589 C 247.35 2.34323 1.8845 0
M  V30 2590 C 248.898 2.39735 2.01237 0
M  V30 2591 C 249.373 3.65625 2.7583 0
M  V30 2592 N 250.864 3.66402 2.83379 0
M  V30 2593 C 251.599 4.60498 3.41657 0
M  V30 2594 N 251.095 5.64933 4.01026 0
M  V30 2595 N 252.888 4.48051 3.39421 0
M  V30 2596 H 245.039 2.09777 0.332762 0
M  V30 2597 H 247.302 0.92446 0.209948 0
M  V30 2598 H 247.008 3.2498 1.34465 0
M  V30 2599 H 246.882 2.4256 2.88867 0
M  V30 2600 H 249.269 1.4956 2.54393 0
M  V30 2601 H 249.35 2.35476 0.999232 0
M  V30 2602 H 248.994 4.56156 2.23347 0
M  V30 2603 H 248.924 3.67144 3.77509 0
M  V30 2604 H 251.415 2.90896 2.41222 0
M  V30 2605 H 251.728 6.32841 4.43545 0
M  V30 2606 H 250.073 5.68732 3.99461 0
M  V30 2607 H 253.264 3.65649 2.92264 0
M  V30 2608 H 253.437 5.21565 3.84544 0
M  V30 2609 N 246.843 -1.10192 1.12674 0
M  V30 2610 C 247.773 -2.18652 0.819362 0
M  V30 2611 C 248.754 -1.68698 -0.217915 0
M  V30 2612 O 249.939 -1.94041 -0.0785581 0
M  V30 2613 C 247.069 -3.46202 0.27594 0
M  V30 2614 C 246.023 -4.09444 1.24656 0
M  V30 2615 C 245.349 -5.31725 0.563258 0
M  V30 2616 C 246.649 -4.52863 2.60217 0
M  V30 2617 H 248.343 -2.44622 1.72628 0
M  V30 2618 H 245.889 -1.17571 0.831451 0
M  V30 2619 H 247.842 -4.21372 0.0486149 0
M  V30 2620 H 246.566 -3.1973 -0.666331 0
M  V30 2621 H 245.225 -3.36284 1.45974 0
M  V30 2622 H 244.873 -5.0153 -0.384235 0
M  V30 2623 H 244.573 -5.74991 1.21075 0
M  V30 2624 H 246.097 -6.09624 0.34503 0
M  V30 2625 H 247.511 -5.19294 2.42913 0
M  V30 2626 H 245.908 -5.06986 3.21068 0
M  V30 2627 H 246.978 -3.65656 3.18471 0
M  V30 2628 N 248.321 -0.919034 -1.28029 0
M  V30 2629 C 249.732 -0.600735 -1.76771 0
M  V30 2630 C 250.083 0.884024 -1.75156 0
M  V30 2631 O 249.208 1.69163 -1.34956 0
M  V30 2632 C 249.803 -1.08372 -3.21 0
M  V30 2633 C 248.362 -0.816248 -3.67443 0
M  V30 2634 C 247.509 -1.24742 -2.47658 0
M  V30 2635 H 250.46 -1.09974 -1.14418 0
M  V30 2636 H 250.481 -0.427512 -3.78091 0
M  V30 2637 H 249.993 -2.16437 -3.22144 0
M  V30 2638 H 248.094 0.250968 -3.71754 0
M  V30 2639 H 248.207 -1.4277 -4.57333 0
M  V30 2640 H 246.571 -0.666083 -2.45836 0
M  V30 2641 H 247.354 -2.33653 -2.51518 0
M  V30 2642 N 249.799 1.42003 -0.683588 0
M  V30 2643 C 251.024 2.06265 -0.216647 0
M  V30 2644 C 251.449 1.51059 1.12083 0
M  V30 2645 O 250.807 0.632638 1.69904 0
M  V30 2646 C 250.855 3.60191 -0.171759 0
M  V30 2647 O 249.959 4.03396 0.857069 0
M  V30 2648 H 249.3 0.65502 -0.108834 0
M  V30 2649 H 251.83 1.81982 -0.935077 0
M  V30 2650 H 251.84 4.08 0.0014303 0
M  V30 2651 H 250.515 3.99743 -1.14796 0
M  V30 2652 H 249.092 3.67117 0.654208 0
M  V30 2653 N 251.277 0.427512 1.51691 0
M  V30 2654 C 252.187 -0.39527 2.31246 0
M  V30 2655 C 253.203 -1.03674 1.39742 0
M  V30 2656 O 254.379 -1.03425 1.72816 0
M  V30 2657 C 251.444 -1.48706 3.13189 0
M  V30 2658 C 250.505 -0.866743 4.20459 0
M  V30 2659 C 249.738 -1.90651 4.98486 0
M  V30 2660 O 249.961 -3.12733 4.77026 0
M  V30 2661 O 248.895 -1.5025 5.82845 0
M  V30 2662 H 252.721 0.253918 3.02637 0
M  V30 2663 H 250.306 0.190274 1.48183 0
M  V30 2664 H 252.188 -2.12047 3.64162 0
M  V30 2665 H 250.863 -2.12051 2.44573 0
M  V30 2666 H 249.77 -0.195544 3.73589 0
M  V30 2667 H 251.103 -0.276934 4.9142 0
M  V30 2668 N 252.755 -1.56801 0.158532 0
M  V30 2669 C 254.002 -1.9649 -0.489679 0
M  V30 2670 C 254.33 -1.04394 -1.6411 0
M  V30 2671 O 253.585 -0.0754401 -1.95555 0
M  V30 2672 C 253.884 -3.4235 -1.02623 0
M  V30 2673 C 253.55 -4.50899 0.00794526 0
M  V30 2674 C 252.212 -4.80312 0.292207 0
M  V30 2675 C 254.564 -5.16333 0.710584 0
M  V30 2676 C 251.892 -5.72461 1.28472 0
M  V30 2677 C 254.244 -6.09553 1.69199 0
M  V30 2678 C 252.908 -6.37339 1.98383 0
M  V30 2679 H 252.178 -0.719009 -0.179186 0
M  V30 2680 H 254.825 -1.8989 0.247798 0
M  V30 2681 H 253.13 -3.45838 -1.84128 0
M  V30 2682 H 254.827 -3.70393 -1.53656 0
M  V30 2683 H 251.417 -4.28015 -0.22379 0
M  V30 2684 H 255.601 -4.93732 0.504174 0
M  V30 2685 H 250.857 -5.92278 1.51714 0
M  V30 2686 H 255.031 -6.59327 2.24189 0
M  V30 2687 H 252.658 -7.08546 2.7544 0
M  V30 2688 N 254.233 0.115231 -1.57178 0
M  V30 2689 C 255.51 0.852873 -1.76027 0
M  V30 2690 C 255.89 1.97892 -0.73498 0
M  V30 2691 O 255.238 2.27232 0.24036 0
M  V30 2692 C 255.448 1.36608 -3.21153 0
M  V30 2693 C 256.796 1.81692 -3.83762 0
M  V30 2694 O 257.82 1.46278 -3.24779 0
M  V30 2695 O 256.679 2.47104 -4.87444 0
M  V30 2696 H 253.773 0.405296 -0.720877 0
M  V30 2697 H 256.319 0.0986785 -1.69413 0
M  V30 2698 H 255.091 0.558357 -3.87296 0
M  V30 2699 H 254.714 2.18287 -3.3232 0
M  V30 2700 N 255.711 1.52812 0.385517 0
M  V30 2701 C 256.641 1.80808 1.47752 0
M  V30 2702 C 257.622 0.660318 1.5676 0
M  V30 2703 O 258.807 0.908246 1.71652 0
M  V30 2704 C 255.937 1.98008 2.85324 0
M  V30 2705 C 254.891 3.13709 2.91154 0
M  V30 2706 C 254.217 3.16169 4.31209 0
M  V30 2707 C 255.517 4.52709 2.60483 0
M  V30 2708 H 257.211 2.72253 1.24573 0
M  V30 2709 H 254.757 1.31003 0.597839 0
M  V30 2710 H 256.71 2.16176 3.61726 0
M  V30 2711 H 255.434 1.03255 3.09848 0
M  V30 2712 H 254.093 2.95329 2.17201 0
M  V30 2713 H 253.741 2.19092 4.52778 0
M  V30 2714 H 253.441 3.93894 4.36029 0
M  V30 2715 H 254.965 3.36496 5.09512 0
M  V30 2716 H 256.379 4.71173 3.26602 0
M  V30 2717 H 254.776 5.32528 2.76648 0
M  V30 2718 H 255.846 4.59186 1.55809 0
M  V30 2719 N 257.189 -0.644168 1.43834 0
M  V30 2720 C 258.414 -1.43642 1.49605 0
M  V30 2721 C 258.839 -1.8773 0.117913 0
M  V30 2722 O 258.197 -1.57938 -0.890239 0
M  V30 2723 C 258.245 -2.6416 2.45463 0
M  V30 2724 O 257.349 -3.63538 1.94714 0
M  V30 2725 H 256.69 -0.430329 0.50568 0
M  V30 2726 H 259.22 -0.787448 1.8884 0
M  V30 2727 H 259.23 -3.11864 2.63068 0
M  V30 2728 H 257.905 -2.31414 3.45572 0
M  V30 2729 H 256.482 -3.2273 1.86814 0
M  V30 2730 N 258.668 -1.30515 -0.883378 0
M  V30 2731 C 259.631 -1.1701 -1.97082 0
M  V30 2732 C 260.631 -0.10089 -1.60483 0
M  V30 2733 O 261.821 -0.349127 -1.70666 0
M  V30 2734 C 258.953 -0.793045 -3.31547 0
M  V30 2735 H 260.146 -2.13622 -2.10489 0
M  V30 2736 H 257.699 -1.13935 -1.06998 0
M  V30 2737 H 258.434 0.172499 -3.23841 0
M  V30 2738 H 258.219 -1.56576 -3.5948 0
M  V30 2739 H 259.709 -0.722073 -4.1131 0
M  V30 2740 N 260.146 1.09593 -1.13257 0
M  V30 2741 C 261.393 1.81734 -0.893257 0
M  V30 2742 C 261.721 1.8563 0.580656 0
M  V30 2743 O 260.976 1.31906 1.44566 0
M  V30 2744 C 261.275 3.27802 -1.42411 0
M  V30 2745 C 260.941 3.44041 -2.91456 0
M  V30 2746 C 259.603 3.48181 -3.3215 0
M  V30 2747 C 261.955 3.48719 -3.87356 0
M  V30 2748 C 259.283 3.54575 -4.67433 0
M  V30 2749 C 261.635 3.56648 -5.2248 0
M  V30 2750 C 260.299 3.59055 -5.62704 0
M  V30 2751 H 259.569 0.665011 -0.326866 0
M  V30 2752 H 262.216 1.2912 -1.41422 0
M  V30 2753 H 260.521 3.83042 -0.823795 0
M  V30 2754 H 262.218 3.82149 -1.21503 0
M  V30 2755 H 258.808 3.41502 -2.58987 0
M  V30 2756 H 262.992 3.44763 -3.57004 0
M  V30 2757 H 258.248 3.54725 -4.97976 0
M  V30 2758 H 262.422 3.59212 -5.96607 0
M  V30 2759 H 260.049 3.63763 -6.67518 0
M  V30 2760 N 261.624 0.925811 1.2754 0
M  V30 2761 C 262.554 0.440748 2.29303 0
M  V30 2762 C 263.535 -0.497971 1.62648 0
M  V30 2763 O 264.72 -0.403126 1.8997 0
M  V30 2764 C 261.85 -0.309048 3.45922 0
M  V30 2765 C 260.804 0.54166 4.24559 0
M  V30 2766 C 260.13 -0.337191 5.33636 0
M  V30 2767 C 261.43 1.80516 4.90114 0
M  V30 2768 H 263.124 1.29121 2.70126 0
M  V30 2769 H 260.67 0.622323 1.29858 0
M  V30 2770 H 262.623 -0.659315 4.1621 0
M  V30 2771 H 261.347 -1.19352 3.04011 0
M  V30 2772 H 260.006 0.874609 3.56014 0
M  V30 2773 H 259.654 -1.22056 4.87966 0
M  V30 2774 H 259.354 0.228497 5.87156 0
M  V30 2775 H 260.878 -0.683072 6.06767 0
M  V30 2776 H 262.292 1.52307 5.52698 0
M  V30 2777 H 260.689 2.3142 5.53683 0
M  V30 2778 H 261.759 2.52581 4.13921 0
M  V30 2779 N 263.102 -1.41638 0.69111 0
M  V30 2780 C 264.518 -1.55435 0.362224 0
M  V30 2781 C 264.718 -1.66754 -1.13117 0
M  V30 2782 O 263.774 -1.64348 -1.91692 0
M  V30 2783 C 265.087 -2.79588 1.10684 0
M  V30 2784 C 266.635 -2.9338 1.09075 0
M  V30 2785 C 267.11 -4.20414 1.81703 0
M  V30 2786 N 268.601 -4.27362 1.7865 0
M  V30 2787 C 269.336 -5.24507 2.31689 0
M  V30 2788 N 268.832 -6.27708 2.93179 0
M  V30 2789 N 270.625 -5.16416 2.2197 0
M  V30 2790 H 262.776 -1.32536 1.65976 0
M  V30 2791 H 265.039 -0.639115 0.700168 0
M  V30 2792 H 264.745 -2.77419 2.16175 0
M  V30 2793 H 264.619 -3.70973 0.682545 0
M  V30 2794 H 267.006 -2.95067 0.0441238 0
M  V30 2795 H 267.087 -2.0318 1.55407 0
M  V30 2796 H 266.731 -4.19488 2.86343 0
M  V30 2797 H 266.661 -5.09578 1.32808 0
M  V30 2798 H 269.152 -3.53415 1.33815 0
M  V30 2799 H 269.465 -6.98217 3.31229 0
M  V30 2800 H 267.81 -6.28223 2.97255 0
M  V30 2801 H 271.001 -4.34716 1.73607 0
M  V30 2802 H 271.174 -5.91958 2.63609 0
M  V30 2803 N 264.58 -0.43555 -1.51462 0
M  V30 2804 C 265.543 0.365137 -2.26273 0
M  V30 2805 C 266.543 0.951227 -1.29647 0
M  V30 2806 O 267.733 0.825958 -1.53374 0
M  V30 2807 C 264.865 1.51645 -3.05314 0
M  V30 2808 H 266.058 -0.290474 -2.9849 0
M  V30 2809 H 263.611 -0.188676 -1.55157 0
M  V30 2810 H 264.346 2.20816 -2.3751 0
M  V30 2811 H 264.131 1.10238 -3.76284 0
M  V30 2812 H 265.621 2.08218 -3.61987 0
M  V30 2813 N 266.058 1.56714 -0.166846 0
M  V30 2814 C 267.306 1.96358 0.478305 0
M  V30 2815 C 267.627 1.0537 1.6408 0
M  V30 2816 O 266.897 0.119154 1.95537 0
M  V30 2817 H 265.477 0.725065 0.179692 0
M  V30 2818 H 268.139 1.93329 -0.246985 0
M  V30 2819 H 267.235 3.00547 0.841292 0
M  V30 2820 N 267.536 -0.106894 1.57237 0
M  V30 2821 C 268.446 -1.14911 2.0453 0
M  V30 2822 C 269.462 -1.44592 0.96795 0
M  V30 2823 O 270.638 -1.55468 1.2803 0
M  V30 2824 C 267.703 -2.45272 2.45036 0
M  V30 2825 C 266.764 -2.22879 3.66911 0
M  V30 2826 C 265.997 -3.47024 4.05475 0
M  V30 2827 O 266.22 -4.54804 3.44252 0
M  V30 2828 O 265.154 -3.3731 4.98504 0
M  V30 2829 H 268.98 -0.777461 2.9358 0
M  V30 2830 H 266.565 -0.318563 1.45964 0
M  V30 2831 H 268.447 -3.22055 2.71769 0
M  V30 2832 H 267.122 -2.81886 1.59129 0
M  V30 2833 H 266.029 -1.43915 3.45311 0
M  V30 2834 H 267.362 -1.91163 4.53561 0
M  V30 2835 N 269.014 -1.53014 -0.377408 0
M  V30 2836 C 269.962 -1.7927 -1.48206 0
M  V30 2837 C 270.956 -0.661195 -1.55963 0
M  V30 2838 O 272.162 -0.843908 -1.58991 0
M  V30 2839 H 268.537 -0.567425 -0.493491 0
M  V30 2840 H 270.508 -2.71753 -1.2326 0
M  V30 2841 C 269.257 -1.98894 -2.85196 0
M  V30 2842 H 268.58 -2.85395 -2.79981 0
M  V30 2843 H 270.02 -2.21249 -3.61698 0
M  V30 2844 C 268.479 -0.764691 -3.28107 0
M  V30 2845 O 269.009 0.0523226 -4.01666 0
M  V30 2846 N 267.215 -0.591493 -2.84517 0
M  V30 2847 H 266.762 -1.25749 -2.24822 0
M  V30 2848 H 266.72 0.226253 -3.13585 0
M  V30 2849 N 270.492 0.636531 -1.44174 0
M  V30 2850 C 271.908 0.954104 -1.27941 0
M  V30 2851 C 272.108 2.0039 -0.211248 0
M  V30 2852 O 271.164 2.49236 0.404695 0
M  V30 2853 C 272.477 1.4225 -2.64925 0
M  V30 2854 C 274.025 1.53827 -2.72592 0
M  V30 2855 C 274.5 2.04053 -4.10032 0
M  V30 2856 N 275.991 2.11331 -4.12182 0
M  V30 2857 C 276.726 2.51352 -5.15374 0
M  V30 2858 N 276.222 2.90549 -6.2893 0
M  V30 2859 N 278.015 2.51438 -5.02728 0
M  V30 2860 H 270.166 -0.0578386 -2.12321 0
M  V30 2861 H 272.429 0.0367406 -0.947288 0
M  V30 2862 H 272.135 0.725466 -3.44136 0
M  V30 2863 H 272.009 2.39451 -2.9145 0
M  V30 2864 H 274.396 2.22628 -1.93702 0
M  V30 2865 H 274.477 0.550154 -2.49814 0
M  V30 2866 H 274.121 1.35848 -4.89395 0
M  V30 2867 H 274.051 3.03726 -4.30184 0
M  V30 2868 H 276.542 1.83745 -3.30222 0
M  V30 2869 H 276.855 3.19884 -7.03487 0
M  V30 2870 H 275.2 2.88313 -6.32377 0
M  V30 2871 H 278.391 2.20203 -4.13072 0
M  V30 2872 H 278.564 2.82304 -5.83274 0
M  V30 2873 N 271.97 1.30982 0.876444 0
M  V30 2874 C 272.9 1.20668 1.99903 0
M  V30 2875 C 273.881 0.095354 1.69833 0
M  V30 2876 O 275.066 0.27885 1.92188 0
M  V30 2877 C 272.196 0.90655 3.3526 0
M  V30 2878 C 271.15 1.97675 3.79617 0
M  V30 2879 C 270.476 1.52943 5.1236 0
M  V30 2880 C 271.776 3.389 3.97422 0
M  V30 2881 H 273.47 2.14586 2.0879 0
M  V30 2882 H 271.016 1.03308 1.00317 0
M  V30 2883 H 272.969 0.821025 4.13324 0
M  V30 2884 H 271.693 -0.0682969 3.26529 0
M  V30 2885 H 270.352 2.05205 3.03787 0
M  V30 2886 H 270 0.54262 5.00065 0
M  V30 2887 H 269.7 2.24532 5.43009 0
M  V30 2888 H 271.224 1.45786 5.92941 0
M  V30 2889 H 272.638 3.34081 4.659 0
M  V30 2890 H 271.035 4.0865 4.3946 0
M  V30 2891 H 272.105 3.80163 3.01006 0
M  V30 2892 N 273.449 -1.08991 1.13837 0
M  V30 2893 C 274.412 -2.13925 0.822715 0
M  V30 2894 C 275.412 -1.599 -0.1699 0
M  V30 2895 O 276.602 -1.74104 0.0577251 0
M  V30 2896 C 273.734 -3.40155 0.225318 0
M  V30 2897 H 274.927 -2.43358 1.75262 0
M  V30 2898 H 272.48 -1.24603 0.943594 0
M  V30 2899 H 273.215 -3.16352 -0.713594 0
M  V30 2900 H 273 -3.80661 0.940193 0
M  V30 2901 H 274.49 -4.17594 0.0214784 0
M  V30 2902 N 274.927 -0.932562 -1.27047 0
M  V30 2903 C 276.173 -0.576412 -1.94436 0
M  V30 2904 C 276.506 0.880891 -1.73072 0
M  V30 2905 O 275.781 1.62905 -1.06264 0
M  V30 2906 C 276.064 -0.909031 -3.48437 0
M  V30 2907 C 275.917 -2.42044 -3.79123 0
M  V30 2908 C 277.236 -0.418341 -4.38107 0
M  V30 2909 H 274.355 -0.210888 -0.706184 0
M  V30 2910 H 276.997 -1.16522 -1.50075 0
M  V30 2911 H 275.147 -0.407947 -3.86352 0
M  V30 2912 H 276.819 -2.99359 -3.50973 0
M  V30 2913 H 275.062 -2.86758 -3.25503 0
M  V30 2914 H 275.733 -2.6037 -4.86736 0
M  V30 2915 H 278.209 -0.847856 -4.0737 0
M  V30 2916 H 277.085 -0.679981 -5.44672 0
M  V30 2917 H 277.346 0.681642 -4.36814 0
M  V30 2918 N 276.405 1.4127 -0.698611 0
M  V30 2919 C 277.338 2.28195 0.0153898 0
M  V30 2920 C 278.316 1.42402 0.784883 0
M  V30 2921 O 279.5 1.71828 0.775067 0
M  V30 2922 C 276.627 3.22685 1.02918 0
M  V30 2923 C 275.673 4.25041 0.352501 0
M  V30 2924 S 276.506 5.27757 -0.907322 0
M  V30 2925 C 277.662 6.25812 0.104796 0
M  V30 2926 H 277.895 2.88403 -0.721858 0
M  V30 2927 H 275.428 1.46452 -0.488996 0
M  V30 2928 H 277.386 3.77655 1.60893 0
M  V30 2929 H 276.047 2.61566 1.73902 0
M  V30 2930 H 275.24 4.91437 1.11828 0
M  V30 2931 H 274.842 3.73682 -0.154254 0
M  V30 2932 H 277.134 6.70705 0.957103 0
M  V30 2933 H 278.077 7.06149 -0.525323 0
M  V30 2934 H 278.485 5.62615 0.460931 0
M  V30 2935 N 277.883 0.443576 1.51229 0
M  V30 2936 C 279.129 -0.120975 2.02439 0
M  V30 2937 C 279.462 -1.41815 1.32674 0
M  V30 2938 O 278.737 -1.89373 0.443622 0
M  V30 2939 C 279.02 -0.333291 3.58554 0
M  V30 2940 C 278.873 0.982968 4.38928 0
M  V30 2941 C 280.192 -1.10028 4.26124 0
M  V30 2942 H 277.311 -0.0424923 0.735774 0
M  V30 2943 H 279.953 0.583794 1.80809 0
M  V30 2944 H 278.103 -0.933614 3.77115 0
M  V30 2945 H 279.775 1.61775 4.32003 0
M  V30 2946 H 278.018 1.58611 4.03763 0
M  V30 2947 H 278.689 0.788379 5.46341 0
M  V30 2948 H 281.165 -0.591711 4.11871 0
M  V30 2949 H 280.041 -1.21761 5.35225 0
M  V30 2950 H 280.302 -2.12996 3.87408 0
M  V30 2951 N 279.361 -1.56624 0.175154 0
M  V30 2952 C 280.291 -2.21155 -0.749195 0
M  V30 2953 C 281.272 -1.16836 -1.23626 0
M  V30 2954 O 282.457 -1.45277 -1.28873 0
M  V30 2955 C 279.587 -2.8553 -1.97711 0
M  V30 2956 C 278.541 -3.95921 -1.62575 0
M  V30 2957 C 277.867 -4.47365 -2.92864 0
M  V30 2958 C 279.167 -5.15323 -0.850838 0
M  V30 2959 H 280.861 -2.98653 -0.211295 0
M  V30 2960 H 278.407 -1.43651 -0.100188 0
M  V30 2961 H 280.36 -3.2935 -2.62881 0
M  V30 2962 H 279.084 -2.05406 -2.53921 0
M  V30 2963 H 277.743 -3.52762 -0.997719 0
M  V30 2964 H 277.391 -3.64027 -3.47122 0
M  V30 2965 H 277.091 -5.21839 -2.70106 0
M  V30 2966 H 278.615 -4.93873 -3.59056 0
M  V30 2967 H 280.029 -5.55812 -1.40521 0
M  V30 2968 H 278.426 -5.95739 -0.722154 0
M  V30 2969 H 279.496 -4.84661 0.152082 0
M  V30 2970 N 280.839 0.0985539 -1.57292 0
M  V30 2971 C 282.255 0.45267 -1.53046 0
M  V30 2972 C 282.455 1.80713 -0.891342 0
M  V30 2973 O 281.511 2.4785 -0.482375 0
M  V30 2974 C 282.824 0.418341 -2.97776 0
M  V30 2975 C 284.372 0.500443 -3.08973 0
M  V30 2976 C 284.847 0.496297 -4.55303 0
M  V30 2977 N 286.338 0.557151 -4.59837 0
M  V30 2978 C 287.073 0.575726 -5.70502 0
M  V30 2979 N 286.569 0.550714 -6.90608 0
M  V30 2980 N 288.362 0.620277 -5.58667 0
M  V30 2981 H 280.513 -0.788673 -1.97215 0
M  V30 2982 H 282.776 -0.293188 -0.901524 0
M  V30 2983 H 282.482 -0.509659 -3.47988 0
M  V30 2984 H 282.356 1.2386 -3.56284 0
M  V30 2985 H 284.743 1.41886 -2.58751 0
M  V30 2986 H 284.824 -0.347894 -2.53423 0
M  V30 2987 H 284.468 -0.418162 -5.06176 0
M  V30 2988 H 284.398 1.3618 -5.08687 0
M  V30 2989 H 286.889 0.581816 -3.73394 0
M  V30 2990 H 287.202 0.568075 -7.70709 0
M  V30 2991 H 285.547 0.517816 -6.93068 0
M  V30 2992 H 288.738 0.637322 -4.63741 0
M  V30 2993 H 288.911 0.631283 -6.44918 0
M  V30 2994 N 282.317 1.53212 0.369288 0
M  V30 2995 C 283.563 1.70413 1.11046 0
M  V30 2996 C 283.918 0.448509 1.87099 0
M  V30 2997 O 283.211 -0.558382 1.83283 0
M  V30 2998 C 283.405 2.89101 2.10132 0
M  V30 2999 C 283.234 4.26084 1.43814 0
M  V30 3000 C 282.004 4.90994 1.19384 0
M  V30 3001 C 284.202 5.06754 0.877802 0
M  V30 3002 N 282.184 6.11911 0.49377 0
M  V30 3003 C 283.555 6.1924 0.306891 0
M  V30 3004 C 285.61 4.91814 0.776129 0
M  V30 3005 C 284.313 7.1842 -0.355774 0
M  V30 3006 C 286.339 5.91263 0.127252 0
M  V30 3007 C 285.701 7.03069 -0.432801 0
M  V30 3008 H 281.8 0.676872 0.391623 0
M  V30 3009 H 284.384 1.90603 0.397334 0
M  V30 3010 H 282.555 2.70456 2.78761 0
M  V30 3011 H 284.287 2.95142 2.76899 0
M  V30 3012 H 281.042 4.50074 1.47413 0
M  V30 3013 H 281.466 6.76813 0.159207 0
M  V30 3014 H 286.108 4.05564 1.19489 0
M  V30 3015 H 283.826 8.04264 -0.786499 0
M  V30 3016 H 287.412 5.81779 0.0495613 0
M  V30 3017 H 286.292 7.78702 -0.926958 0
M  V30 3018 N 283.795 -0.628877 1.44509 0
M  V30 3019 C 285.02 -1.42048 1.5112 0
M  V30 3020 C 285.445 -1.87594 0.137818 0
M  V30 3021 O 284.803 -1.58873 -0.873437 0
M  V30 3022 C 284.851 -2.61541 2.48251 0
M  V30 3023 O 283.955 -3.61453 1.98559 0
M  V30 3024 H 283.296 -0.424942 0.510216 0
M  V30 3025 H 285.826 -0.767374 1.89664 0
M  V30 3026 H 285.836 -3.09057 2.66361 0
M  V30 3027 H 284.511 -2.27736 3.48007 0
M  V30 3028 H 283.088 -3.20731 1.90227 0
M  V30 3029 N 285.273 -1.31445 -0.869486 0
M  V30 3030 C 286.55 -1.11795 -1.60503 0
M  V30 3031 C 286.93 0.327168 -2.08549 0
M  V30 3032 O 286.278 1.32135 -1.8642 0
M  V30 3033 C 286.488 -2.13258 -2.76265 0
M  V30 3034 C 287.836 -2.45805 -3.46215 0
M  V30 3035 O 288.86 -2.11688 -2.86473 0
M  V30 3036 O 287.719 -3.04228 -4.5399 0
M  V30 3037 H 284.813 -0.430421 -0.706163 0
M  V30 3038 H 287.359 -1.42925 -0.914907 0
M  V30 3039 H 286.131 -3.10461 -2.3818 0
M  V30 3040 H 285.754 -1.83035 -3.52964 0
M  V30 3041 N 286.751 1.08385 -1.14413 0
M  V30 3042 C 287.999 1.80419 -0.910679 0
M  V30 3043 C 288.32 1.86658 0.564243 0
M  V30 3044 O 287.59 1.35985 1.41014 0
M  V30 3045 H 286.17 0.668204 -0.333934 0
M  V30 3046 H 288.832 1.31037 -1.44275 0
M  V30 3047 H 287.928 2.83238 -1.31082 0
M  V30 3048 N 288.23 0.939286 1.26551 0
M  V30 3049 C 289.455 0.602008 1.98471 0
M  V30 3050 C 289.88 -0.815624 1.69497 0
M  V30 3051 O 289.238 -1.54912 0.941905 0
M  V30 3052 C 289.286 0.848407 3.50477 0
M  V30 3053 O 288.39 -0.0804009 4.12322 0
M  V30 3054 H 287.731 0.23049 0.622712 0
M  V30 3055 H 290.261 1.2617 1.61066 0
M  V30 3056 H 290.271 0.768553 4.00696 0
M  V30 3057 H 288.946 1.88171 3.70897 0
M  V30 3058 H 287.523 0.0503508 3.72866 0
M  V30 3059 N 289.708 -1.40897 0.706093 0
M  V30 3060 C 290.938 -2.05075 0.250523 0
M  V30 3061 C 291.346 -1.53275 -1.10921 0
M  V30 3062 O 290.689 -0.680281 -1.7064 0
M  V30 3063 C 290.751 -3.59219 0.142178 0
M  V30 3064 C 290.415 -4.33864 1.43566 0
M  V30 3065 C 291.412 -4.62448 2.37566 0
M  V30 3066 C 289.097 -4.72946 1.69195 0
M  V30 3067 C 291.091 -5.29088 3.5545 0
M  V30 3068 C 288.778 -5.3932 2.87362 0
M  V30 3069 C 289.776 -5.6732 3.80312 0
M  V30 3070 O 289.464 -6.32325 4.96408 0
M  V30 3071 H 289.196 -0.666645 0.112074 0
M  V30 3072 H 291.75 -1.81467 0.962239 0
M  V30 3073 H 289.98 -3.81609 -0.6254 0
M  V30 3074 H 291.669 -4.0495 -0.277584 0
M  V30 3075 H 292.435 -4.32727 2.19027 0
M  V30 3076 H 288.314 -4.50527 0.977042 0
M  V30 3077 H 291.858 -5.50859 4.28018 0
M  V30 3078 H 287.755 -5.68461 3.05814 0
M  V30 3079 H 288.523 -6.50821 4.9636 0
M  V30 3080 N 291.186 -0.45159 -1.50991 0
M  V30 3081 C 292.116 0.342898 -2.30969 0
M  V30 3082 C 293.097 1.00815 -1.37005 0
M  V30 3083 O 294.282 1.00907 -1.65926 0
M  V30 3084 C 291.412 1.43637 -3.16205 0
M  V30 3085 C 290.366 0.893818 -4.18563 0
M  V30 3086 C 289.692 2.08411 -4.92411 0
M  V30 3087 C 290.992 -0.0815568 -5.22236 0
M  V30 3088 H 292.686 -0.324556 -2.97636 0
M  V30 3089 H 290.232 -0.157531 -1.43136 0
M  V30 3090 H 292.185 1.9995 -3.70942 0
M  V30 3091 H 290.909 2.13232 -2.47386 0
M  V30 3092 H 289.568 0.352798 -3.64898 0
M  V30 3093 H 289.216 2.76658 -4.20082 0
M  V30 3094 H 288.916 1.72741 -5.61636 0
M  V30 3095 H 290.44 2.65251 -5.49976 0
M  V30 3096 H 291.854 0.391742 -5.7196 0
M  V30 3097 H 290.251 -0.351551 -5.99069 0
M  V30 3098 H 291.321 -1.01374 -4.74185 0
M  V30 3099 N 292.664 1.56529 -0.183458 0
M  V30 3100 C 293.574 2.22144 0.754272 0
M  V30 3101 C 294.59 1.21684 1.24374 0
M  V30 3102 O 295.766 1.54385 1.29333 0
M  V30 3103 C 292.831 2.85884 1.96141 0
M  V30 3104 C 291.892 4.01579 1.51765 0
M  V30 3105 C 291.125 4.6227 2.66725 0
M  V30 3106 O 291.348 4.21865 3.83909 0
M  V30 3107 O 290.282 5.51936 2.40104 0
M  V30 3108 H 294.108 3.02861 0.225527 0
M  V30 3109 H 291.693 1.49331 0.0453032 0
M  V30 3110 H 293.575 3.26253 2.66715 0
M  V30 3111 H 292.25 2.08154 2.47899 0
M  V30 3112 H 291.157 3.65856 0.781049 0
M  V30 3113 H 292.49 4.80938 1.04686 0
M  V30 3114 N 294.142 -0.090211 1.57342 0
M  V30 3115 C 295.419 -0.824761 1.77361 0
M  V30 3116 C 295.799 -1.96698 0.76637 0
M  V30 3117 O 295.147 -2.27586 -0.204179 0
M  V30 3118 C 295.357 -1.31481 3.23286 0
M  V30 3119 C 296.705 -1.75563 3.86604 0
M  V30 3120 O 297.729 -1.41093 3.27065 0
M  V30 3121 O 296.588 -2.39317 4.91314 0
M  V30 3122 H 293.682 -0.393776 0.727234 0
M  V30 3123 H 296.228 -0.0717138 1.69548 0
M  V30 3124 H 295 -0.496671 3.88135 0
M  V30 3125 H 294.623 -2.12973 3.35751 0
M  V30 3126 N 295.62 -1.53406 -0.361157 0
M  V30 3127 C 296.552 -1.76446 -1.46286 0
M  V30 3128 C 297.565 -0.645322 -1.49464 0
M  V30 3129 O 298.754 -0.921681 -1.52864 0
M  V30 3130 C 295.854 -1.83332 -2.85031 0
M  V30 3131 C 295.027 -3.13033 -3.05498 0
M  V30 3132 C 294.086 -3.11104 -4.24383 0
M  V30 3133 O 293.112 -3.84888 -4.19344 0
M  V30 3134 N 294.314 -2.32234 -5.32022 0
M  V30 3135 H 297.079 -2.71508 -1.26899 0
M  V30 3136 H 294.64 -1.52238 -0.550915 0
M  V30 3137 H 296.632 -1.79514 -3.62708 0
M  V30 3138 H 295.202 -0.955342 -2.97644 0
M  V30 3139 H 294.422 -3.30119 -2.15442 0
M  V30 3140 H 295.71 -3.9874 -3.16044 0
M  V30 3141 H 295.108 -1.71807 -5.38979 0
M  V30 3142 H 293.665 -2.3423 -6.08259 0
M  V30 3143 N 297.098 0.621204 -1.44841 0
M  V30 3144 C 298.375 1.38 -1.38619 0
M  V30 3145 C 298.755 2.11041 -0.0498935 0
M  V30 3146 O 298.103 2.06992 0.967816 0
M  V30 3147 C 298.313 2.33817 -2.59096 0
M  V30 3148 C 299.661 2.96844 -3.03593 0
M  V30 3149 O 300.685 2.44141 -2.59371 0
M  V30 3150 O 299.544 3.92476 -3.80296 0
M  V30 3151 H 296.638 0.61811 -0.549426 0
M  V30 3152 H 299.184 0.645429 -1.56947 0
M  V30 3153 H 297.956 1.79012 -3.47952 0
M  V30 3154 H 297.579 3.14676 -2.43032 0
M  V30 3155 N 298.576 1.31904 0.862503 0
M  V30 3156 C 299.509 1.14514 1.97388 0
M  V30 3157 C 300.487 0.0466493 1.62533 0
M  V30 3158 O 301.671 0.204484 1.87388 0
M  V30 3159 C 298.798 0.751347 3.30261 0
M  V30 3160 C 297.844 1.85395 3.84098 0
M  V30 3161 S 298.677 3.46081 4.08642 0
M  V30 3162 C 299.833 3.08655 5.44502 0
M  V30 3163 H 300.066 2.08597 2.11836 0
M  V30 3164 H 297.599 1.16475 1.01356 0
M  V30 3165 H 299.557 0.530901 4.07052 0
M  V30 3166 H 298.218 -0.170493 3.13637 0
M  V30 3167 H 297.411 1.53122 4.80177 0
M  V30 3168 H 297.013 2.02984 3.14123 0
M  V30 3169 H 299.305 2.58012 6.26447 0
M  V30 3170 H 300.248 4.03726 5.81731 0
M  V30 3171 H 300.656 2.45891 5.08132 0
M  V30 3172 N 300.054 -1.07777 1.14986 0
M  V30 3173 C 301.3 -1.80719 0.93339 0
M  V30 3174 C 301.655 -1.8484 -0.534019 0
M  V30 3175 O 300.948 -1.31795 -1.3907 0
M  V30 3176 C 301.142 -3.25495 1.47608 0
M  V30 3177 C 300.971 -3.3548 2.99472 0
M  V30 3178 C 299.741 -3.46293 3.6798 0
M  V30 3179 C 301.939 -3.26596 3.97291 0
M  V30 3180 N 299.921 -3.45136 5.07695 0
M  V30 3181 C 301.292 -3.32506 5.23297 0
M  V30 3182 C 303.347 -3.10376 3.89321 0
M  V30 3183 C 302.05 -3.23866 6.42264 0
M  V30 3184 C 304.076 -3.03069 5.07842 0
M  V30 3185 C 303.438 -3.09587 6.32721 0
M  V30 3186 H 299.537 -0.674814 0.395158 0
M  V30 3187 H 302.121 -1.28681 1.46114 0
M  V30 3188 H 300.292 -3.75963 0.975022 0
M  V30 3189 H 302.024 -3.86535 1.19887 0
M  V30 3190 H 298.779 -3.50456 3.18555 0
M  V30 3191 H 299.203 -3.48097 5.80653 0
M  V30 3192 H 303.845 -3.04194 2.93642 0
M  V30 3193 H 301.563 -3.28807 7.38181 0
M  V30 3194 H 305.149 -2.91629 5.03432 0
M  V30 3195 H 304.029 -3.0397 7.22891 0
M  V30 3196 N 301.532 -0.945985 -1.26051 0
M  V30 3197 C 302.948 -0.649045 -1.45807 0
M  V30 3198 C 303.148 0.796158 -1.85104 0
M  V30 3199 O 302.204 1.57233 -1.97571 0
M  V30 3200 C 303.517 -1.61458 -2.53677 0
M  V30 3201 C 305.065 -1.62481 -2.67524 0
M  V30 3202 C 305.54 -2.57776 -3.7857 0
M  V30 3203 N 307.031 -2.5609 -3.85969 0
M  V30 3204 C 307.766 -3.26508 -4.7136 0
M  V30 3205 N 307.262 -4.0637 -5.61102 0
M  V30 3206 N 309.055 -3.15437 -4.65248 0
M  V30 3207 H 301.206 -1.88005 -0.988328 0
M  V30 3208 H 303.469 -0.808198 -0.4955 0
M  V30 3209 H 303.175 -2.64644 -2.31638 0
M  V30 3210 H 303.049 -1.37036 -3.51427 0
M  V30 3211 H 305.436 -0.600167 -2.88933 0
M  V30 3212 H 305.517 -1.90958 -1.70202 0
M  V30 3213 H 305.161 -3.60361 -3.57913 0
M  V30 3214 H 305.091 -2.26587 -4.75359 0
M  V30 3215 H 307.582 -1.98105 -3.21812 0
M  V30 3216 H 307.895 -4.57042 -6.23164 0
M  V30 3217 H 306.24 -4.10469 -5.60839 0
M  V30 3218 H 309.431 -2.52525 -3.94143 0
M  V30 3219 H 309.604 -3.70584 -5.31575 0
M  V30 3220 N 303.011 1.40521 -0.713556 0
M  V30 3221 C 303.944 2.28198 -0.00881422 0
M  V30 3222 C 304.922 1.43227 0.769735 0
M  V30 3223 O 306.106 1.72641 0.756799 0
M  V30 3224 C 303.233 3.23758 0.994899 0
M  V30 3225 C 302.279 4.25391 0.3074 0
M  V30 3226 S 303.112 5.26765 -0.963247 0
M  V30 3227 C 304.268 6.25888 0.0384143 0
M  V30 3228 H 304.501 2.87622 -0.752407 0
M  V30 3229 H 302.034 1.45925 -0.504502 0
M  V30 3230 H 303.992 3.79341 1.56879 0
M  V30 3231 H 302.653 2.63396 1.71118 0
M  V30 3232 H 301.846 4.92596 1.0661 0
M  V30 3233 H 301.448 3.73497 -0.193879 0
M  V30 3234 H 303.74 6.71683 0.885912 0
M  V30 3235 H 304.683 7.05552 -0.60019 0
M  V30 3236 H 305.091 5.63072 0.401233 0
M  V30 3237 N 304.489 0.459591 1.5075 0
M  V30 3238 C 305.714 -0.0996819 2.0716 0
M  V30 3239 C 306.139 -1.33761 1.32249 0
M  V30 3240 O 305.497 -1.77551 0.366786 0
M  V30 3241 C 305.545 -0.378226 3.58611 0
M  V30 3242 O 304.649 -1.46081 3.85661 0
M  V30 3243 H 303.99 0.00791392 0.663953 0
M  V30 3244 H 306.52 0.647329 1.9409 0
M  V30 3245 H 306.53 -0.622135 4.03229 0
M  V30 3246 H 305.205 0.526439 4.12555 0
M  V30 3247 H 303.782 -1.20511 3.5289 0
M  V30 3248 N 305.967 -1.56429 0.191757 0
M  V30 3249 C 307.215 -1.97095 -0.447006 0
M  V30 3250 C 307.536 -1.07967 -1.62383 0
M  V30 3251 O 306.806 -0.150248 -1.95323 0
M  V30 3252 H 305.386 -0.727832 -0.168135 0
M  V30 3253 H 308.048 -1.92911 0.27771 0
M  V30 3254 H 307.144 -3.01848 -0.793371 0
M  V30 3255 N 307.445 0.0818655 -1.57387 0
M  V30 3256 C 308.694 0.781681 -1.85937 0
M  V30 3257 C 309.007 1.79246 -0.782957 0
M  V30 3258 O 310.213 2.54112 -0.955987 0
M  V30 3259 C 308.669 1.44109 -3.29789 0
M  V30 3260 C 308.277 0.469396 -4.45534 0
M  V30 3261 C 310.021 2.12386 -3.67549 0
M  V30 3262 C 307.928 1.13415 -5.80423 0
M  V30 3263 H 306.858 0.295682 -0.693605 0
M  V30 3264 H 309.509 0.0348051 -1.83467 0
M  V30 3265 H 307.891 2.23588 -3.2684 0
M  V30 3266 H 309.065 -0.294856 -4.59856 0
M  V30 3267 H 307.38 -0.108383 -4.16259 0
M  V30 3268 H 309.977 2.62878 -4.65617 0
M  V30 3269 H 310.32 2.91877 -2.96839 0
M  V30 3270 H 310.853 1.39751 -3.72444 0
M  V30 3271 H 307.592 0.379771 -6.54399 0
M  V30 3272 H 307.112 1.8695 -5.69921 0
M  V30 3273 H 308.791 1.65686 -6.25426 0
M  V30 3274 N 308.923 1.53595 0.353017 0
M  V30 3275 C 310.17 1.70385 1.09431 0
M  V30 3276 C 310.498 0.462113 1.88931 0
M  V30 3277 O 309.753 -0.556074 1.87633 0
M  V30 3278 C 310.052 2.91313 2.07054 0
M  V30 3279 C 309.718 4.27308 1.43939 0
M  V30 3280 C 308.38 4.64287 1.26454 0
M  V30 3281 C 310.732 5.11829 0.983883 0
M  V30 3282 C 308.06 5.83412 0.620226 0
M  V30 3283 C 310.412 6.31611 0.353516 0
M  V30 3284 C 309.076 6.67293 0.166272 0
M  V30 3285 H 308.346 0.623484 0.400436 0
M  V30 3286 H 310.993 1.87799 0.374655 0
M  V30 3287 H 309.298 2.68463 2.85368 0
M  V30 3288 H 310.995 3.01497 2.64387 0
M  V30 3289 H 307.585 3.98198 1.58543 0
M  V30 3290 H 311.769 4.838 1.10685 0
M  V30 3291 H 307.025 6.09639 0.463681 0
M  V30 3292 H 311.199 6.964 -0.00757555 0
M  V30 3293 H 308.826 7.59461 -0.335047 0
M  V30 3294 N 310.401 -0.613514 1.45168 0
M  V30 3295 C 311.817 -0.933629 1.29443 0
M  V30 3296 C 312.017 -2.00028 0.243101 0
M  V30 3297 O 311.073 -2.49848 -0.364992 0
M  V30 3298 C 312.386 -1.38018 2.67155 0
M  V30 3299 C 313.934 -1.49471 2.75004 0
M  V30 3300 C 314.409 -1.97503 4.13227 0
M  V30 3301 N 315.9 -2.04746 4.15491 0
M  V30 3302 C 316.635 -2.43121 5.19307 0
M  V30 3303 N 316.131 -2.80506 6.33473 0
M  V30 3304 N 317.924 -2.43408 5.06664 0
M  V30 3305 H 310.075 0.0916097 2.12202 0
M  V30 3306 H 312.338 -0.0216655 0.947752 0
M  V30 3307 H 312.044 -0.670625 3.45247 0
M  V30 3308 H 311.918 -2.34784 2.95222 0
M  V30 3309 H 314.305 -2.19519 1.9722 0
M  V30 3310 H 314.386 -0.510342 2.50657 0
M  V30 3311 H 314.03 -1.28045 4.91495 0
M  V30 3312 H 313.96 -2.96843 4.34962 0
M  V30 3313 H 316.451 -1.78468 3.33103 0
M  V30 3314 H 316.764 -3.08652 7.08487 0
M  V30 3315 H 315.109 -2.78216 6.36884 0
M  V30 3316 H 318.3 -2.13604 4.16523 0
M  V30 3317 H 318.473 -2.72989 5.87691 0
M  V30 3318 N 311.879 -1.3236 -0.855495 0
M  V30 3319 C 313.156 -1.13491 -1.59309 0
M  V30 3320 C 313.536 0.30503 -2.08885 0
M  V30 3321 O 312.884 1.30151 -1.87811 0
M  V30 3322 C 313.094 -2.16176 -2.73987 0
M  V30 3323 C 314.442 -2.49463 -3.43589 0
M  V30 3324 O 315.466 -2.14715 -2.84211 0
M  V30 3325 O 314.325 -3.09027 -4.50738 0
M  V30 3326 H 311.419 -0.437887 -0.701559 0
M  V30 3327 H 313.965 -1.43887 -0.899696 0
M  V30 3328 H 312.737 -3.1297 -2.34873 0
M  V30 3329 H 312.36 -1.86769 -3.51003 0
M  V30 3330 N 313.357 1.07166 -1.15556 0
M  V30 3331 C 314.603 1.80065 -0.932984 0
M  V30 3332 C 314.936 1.86586 0.53845 0
M  V30 3333 O 314.211 1.35098 1.39924 0
M  V30 3334 C 314.494 3.25022 -1.55025 0
M  V30 3335 C 314.347 3.26634 -3.09242 0
M  V30 3336 C 315.666 4.22341 -1.2376 0
M  V30 3337 H 312.785 0.653697 -0.340366 0
M  V30 3338 H 315.427 1.25389 -1.4275 0
M  V30 3339 H 313.577 3.71712 -1.12972 0
M  V30 3340 H 315.249 2.88173 -3.60214 0
M  V30 3341 H 313.492 2.65539 -3.43033 0
M  V30 3342 H 314.163 4.28854 -3.47546 0
M  V30 3343 H 316.639 3.8405 -1.60139 0
M  V30 3344 H 315.515 5.22053 -1.69564 0
M  V30 3345 H 315.776 4.41828 -0.154938 0
M  V30 3346 N 314.835 0.952656 1.25548 0
M  V30 3347 C 316.06 0.623025 1.97821 0
M  V30 3348 C 316.485 -0.7976 1.70352 0
M  V30 3349 O 315.843 -1.53905 0.958283 0
M  V30 3350 C 315.891 0.885532 3.49558 0
M  V30 3351 O 314.995 -0.0366641 4.12384 0
M  V30 3352 H 314.336 0.237082 0.620232 0
M  V30 3353 H 316.866 1.27871 1.59719 0
M  V30 3354 H 316.876 0.811009 3.99858 0
M  V30 3355 H 315.551 1.92094 3.6888 0
M  V30 3356 H 314.128 0.0898954 3.72792 0
M  V30 3357 N 316.313 -1.40141 0.720998 0
M  V30 3358 C 317.243 -2.33339 0.0867621 0
M  V30 3359 C 318.224 -1.53178 -0.739622 0
M  V30 3360 O 319.409 -1.81625 -0.687449 0
M  V30 3361 C 316.539 -3.37194 -0.831728 0
M  V30 3362 C 315.493 -4.27857 -0.110558 0
M  V30 3363 C 314.819 -5.22294 -1.14513 0
M  V30 3364 C 316.119 -5.11872 1.0385 0
M  V30 3365 H 317.813 -2.86626 0.865219 0
M  V30 3366 H 315.359 -1.37814 0.417516 0
M  V30 3367 H 317.312 -4.01335 -1.28485 0
M  V30 3368 H 316.036 -2.82314 -1.64214 0
M  V30 3369 H 314.695 -3.65176 0.322797 0
M  V30 3370 H 314.343 -4.63717 -1.94874 0
M  V30 3371 H 314.043 -5.83797 -0.667446 0
M  V30 3372 H 315.567 -5.89312 -1.59824 0
M  V30 3373 H 316.981 -5.69436 0.664482 0
M  V30 3374 H 315.378 -5.82445 1.4449 0
M  V30 3375 H 316.448 -4.4753 1.86668 0
M  V30 3376 N 317.792 -0.46758 -1.50504 0
M  V30 3377 C 318.722 0.318381 -2.31319 0
M  V30 3378 C 319.703 0.993564 -1.38066 0
M  V30 3379 O 320.888 0.991411 -1.66987 0
M  V30 3380 C 318.018 1.40275 -3.17711 0
M  V30 3381 C 316.972 0.849373 -4.19487 0
M  V30 3382 C 316.298 2.03177 -4.94594 0
M  V30 3383 C 317.598 -0.136942 -5.2212 0
M  V30 3384 H 319.292 -0.356106 -2.97275 0
M  V30 3385 H 316.838 -0.172703 -1.42961 0
M  V30 3386 H 318.791 1.96004 -3.73042 0
M  V30 3387 H 317.515 2.10596 -2.49634 0
M  V30 3388 H 316.174 0.314076 -3.65252 0
M  V30 3389 H 315.822 2.72187 -4.22993 0
M  V30 3390 H 315.522 1.66774 -5.63436 0
M  V30 3391 H 317.046 2.59403 -5.52759 0
M  V30 3392 H 318.46 0.331056 -5.72343 0
M  V30 3393 H 316.857 -0.41507 -5.98663 0
M  V30 3394 H 317.927 -1.06398 -4.73083 0
M  V30 3395 N 319.27 1.56325 -0.20005 0
M  V30 3396 C 320.22 2.15939 0.731743 0
M  V30 3397 C 321.204 1.10154 1.17281 0
M  V30 3398 O 322.396 1.36203 1.13038 0
M  V30 3399 C 319.525 2.82614 1.94895 0
M  V30 3400 C 318.611 3.95596 1.52855 0
M  V30 3401 N 319.002 4.99118 0.819418 0
M  V30 3402 C 317.3 4.07288 1.81748 0
M  V30 3403 C 318.001 5.78513 0.608053 0
M  V30 3404 N 316.977 5.31117 1.15828 0
M  V30 3405 H 320.779 2.9334 0.181285 0
M  V30 3406 H 318.293 1.624 -0.000452172 0
M  V30 3407 H 320.29 3.23718 2.62702 0
M  V30 3408 H 318.95 2.06702 2.50408 0
M  V30 3409 H 319.961 5.15723 0.47436 0
M  V30 3410 H 316.638 3.42509 2.38734 0
M  V30 3411 H 318.028 6.71885 0.0451619 0
M  V30 3412 N 320.748 -0.0735177 1.57428 0
M  V30 3413 C 321.695 -1.08756 2.0357 0
M  V30 3414 C 322.665 -1.38559 0.916 0
M  V30 3415 O 323.85 -1.49656 1.18354 0
M  V30 3416 C 320.99 -2.39657 2.48311 0
M  V30 3417 C 320.103 -2.16399 3.73892 0
M  V30 3418 C 319.238 -3.40852 4.07423 0
M  V30 3419 C 318.277 -3.1295 5.2605 0
M  V30 3420 N 317.414 -4.29729 5.55228 0
M  V30 3421 H 322.254 -0.687104 2.8997 0
M  V30 3422 H 319.791 -0.327709 1.43403 0
M  V30 3423 H 321.749 -3.16081 2.72303 0
M  V30 3424 H 320.379 -2.77508 1.64891 0
M  V30 3425 H 319.431 -1.30676 3.57251 0
M  V30 3426 H 320.743 -1.91788 4.60455 0
M  V30 3427 H 319.897 -4.25671 4.32306 0
M  V30 3428 H 318.636 -3.68537 3.19425 0
M  V30 3429 H 317.641 -2.26526 5.00965 0
M  V30 3430 H 318.866 -2.86589 6.15665 0
M  V30 3431 H 316.812 -4.57448 4.70188 0
M  V30 3432 H 316.729 -4.08385 6.36206 0
M  V30 3433 H 317.997 -5.1555 5.84661 0
M  V30 3434 N 322.226 -1.5378 -0.344866 0
M  V30 3435 C 323.637 -1.62428 -0.920552 0
M  V30 3436 C 323.988 -0.504747 -1.89596 0
M  V30 3437 O 323.113 0.365711 -2.13287 0
M  V30 3438 C 323.708 -2.94419 -1.67639 0
M  V30 3439 C 322.267 -3.05333 -2.20111 0
M  V30 3440 C 321.414 -2.57866 -1.01982 0
M  V30 3441 H 324.365 -1.58222 -0.123042 0
M  V30 3442 H 324.386 -2.83384 -2.53917 0
M  V30 3443 H 323.898 -3.7588 -0.966224 0
M  V30 3444 H 321.999 -2.28502 -2.94308 0
M  V30 3445 H 322.112 -4.10778 -2.46573 0
M  V30 3446 H 320.476 -2.13241 -1.39285 0
M  V30 3447 H 321.259 -3.41765 -0.324308 0
M  V30 3448 N 323.704 0.605807 -1.45491 0
M  V30 3449 C 324.932 1.39136 -1.5313 0
M  V30 3450 C 325.347 1.88082 -0.164507 0
M  V30 3451 O 324.704 1.62316 0.834247 0
M  V30 3452 C 324.755 2.59463 -2.51716 0
M  V30 3453 O 324.476 2.12551 -3.83084 0
M  V30 3454 C 325.977 3.52301 -2.6907 0
M  V30 3455 H 323.197 0.425849 -0.51855 0
M  V30 3456 H 325.741 0.73865 -1.90694 0
M  V30 3457 H 323.896 3.20772 -2.17219 0
M  V30 3458 H 324.31 2.90744 -4.36541 0
M  V30 3459 H 325.784 4.33271 -3.42024 0
M  V30 3460 H 326.261 4.02757 -1.75167 0
M  V30 3461 H 326.867 2.96845 -3.04571 0
M  V30 3462 N 325.182 1.32811 0.848464 0
M  V30 3463 C 326.41 1.26739 1.63538 0
M  V30 3464 C 326.825 -0.163484 1.88091 0
M  V30 3465 O 326.182 -1.10258 1.45429 0
M  V30 3466 C 326.233 2.03013 2.99112 0
M  V30 3467 O 325.954 3.40518 2.75643 0
M  V30 3468 C 327.455 2.04038 3.93552 0
M  V30 3469 H 324.675 0.437024 0.509167 0
M  V30 3470 H 327.219 1.75033 1.05753 0
M  V30 3471 H 325.374 1.58426 3.53525 0
M  V30 3472 H 325.788 3.79635 3.61908 0
M  V30 3473 H 327.262 2.61877 4.85926 0
M  V30 3474 H 327.739 1.0282 4.26995 0
M  V30 3475 H 328.345 2.486 3.45077 0
M  V30 3476 N 326.66 -1.06551 1.16123 0
M  V30 3477 C 327.592 -2.13908 0.823171 0
M  V30 3478 C 328.605 -1.61926 -0.16843 0
M  V30 3479 O 329.794 -1.78412 0.055962 0
M  V30 3480 C 326.894 -3.38283 0.204424 0
M  V30 3481 C 326.067 -4.19589 1.23548 0
M  V30 3482 C 325.126 -5.2233 0.637011 0
M  V30 3483 O 324.152 -5.54034 1.30516 0
M  V30 3484 N 325.354 -5.77621 -0.577474 0
M  V30 3485 H 328.119 -2.43508 1.74711 0
M  V30 3486 H 325.68 -1.2253 1.05821 0
M  V30 3487 H 327.672 -4.0416 -0.208909 0
M  V30 3488 H 326.242 -3.06329 -0.623012 0
M  V30 3489 H 325.462 -3.49406 1.82507 0
M  V30 3490 H 326.75 -4.70718 1.93137 0
M  V30 3491 H 326.148 -5.54125 -1.13853 0
M  V30 3492 H 324.705 -6.45087 -0.933053 0
M  V30 3493 N 328.138 -0.959301 -1.25041 0
M  V30 3494 C 329.387 -0.612254 -1.92183 0
M  V30 3495 C 329.7 0.855347 -1.75907 0
M  V30 3496 O 330.906 1.31256 -2.37664 0
M  V30 3497 C 329.362 -1.04435 -3.44414 0
M  V30 3498 C 328.97 -2.53482 -3.69393 0
M  V30 3499 C 330.714 -0.770055 -4.17457 0
M  V30 3500 C 328.621 -2.90468 -5.15153 0
M  V30 3501 H 327.551 -0.225279 -0.719559 0
M  V30 3502 H 330.202 -1.16438 -1.41825 0
M  V30 3503 H 328.584 -0.4206 -3.9376 0
M  V30 3504 H 329.758 -3.20916 -3.30681 0
M  V30 3505 H 328.073 -2.78432 -3.0962 0
M  V30 3506 H 330.67 -1.02249 -5.24832 0
M  V30 3507 H 331.013 0.293611 -4.15263 0
M  V30 3508 H 331.546 -1.35437 -3.74034 0
M  V30 3509 H 328.285 -3.95871 -5.22462 0
M  V30 3510 H 327.805 -2.27711 -5.54894 0
M  V30 3511 H 329.484 -2.79914 -5.83315 0
M  V30 3512 N 329.616 1.39756 -0.72842 0
M  V30 3513 C 330.841 2.05472 -0.282159 0
M  V30 3514 C 331.266 1.54549 1.07221 0
M  V30 3515 O 330.624 0.686372 1.67805 0
M  V30 3516 C 330.672 3.59462 -0.286264 0
M  V30 3517 O 329.776 4.05918 0.728298 0
M  V30 3518 H 329.117 0.651226 -0.129618 0
M  V30 3519 H 331.647 1.78915 -0.992499 0
M  V30 3520 H 331.657 4.07798 -0.128373 0
M  V30 3521 H 330.332 3.95889 -1.27456 0
M  V30 3522 H 328.909 3.69012 0.537081 0
M  V30 3523 N 331.094 0.475555 1.50254 0
M  V30 3524 C 332.371 -0.139685 1.95101 0
M  V30 3525 C 332.751 -1.56555 1.41611 0
M  V30 3526 O 332.099 -2.19956 0.618993 0
M  V30 3527 C 332.309 -0.0784298 3.48912 0
M  V30 3528 C 333.657 -0.265095 4.23772 0
M  V30 3529 O 334.681 -0.154808 3.55863 0
M  V30 3530 O 333.54 -0.488327 5.44314 0
M  V30 3531 H 330.634 -0.109236 0.819754 0
M  V30 3532 H 333.18 0.536276 1.61004 0
M  V30 3533 H 331.952 0.916918 3.80405 0
M  V30 3534 H 331.575 -0.795655 3.89558 0
M  V30 3535 N 332.573 -1.56217 0.208337 0
M  V30 3536 C 333.82 -1.97949 -0.42692 0
M  V30 3537 C 334.148 -1.09562 -1.60706 0
M  V30 3538 O 333.403 -0.137616 -1.95216 0
M  V30 3539 C 333.702 -3.45441 -0.916797 0
M  V30 3540 C 333.368 -4.50646 0.151391 0
M  V30 3541 C 332.03 -4.79139 0.444867 0
M  V30 3542 C 334.382 -5.13811 0.874492 0
M  V30 3543 C 331.71 -5.68084 1.46619 0
M  V30 3544 C 334.062 -6.03861 1.88506 0
M  V30 3545 C 332.726 -6.30704 2.18559 0
M  V30 3546 H 331.996 -0.724345 -0.156221 0
M  V30 3547 H 334.643 -1.89006 0.308084 0
M  V30 3548 H 332.948 -3.51521 -1.73032 0
M  V30 3549 H 334.645 -3.75094 -1.41794 0
M  V30 3550 H 331.235 -4.28511 -0.0875068 0
M  V30 3551 H 335.419 -4.91879 0.660996 0
M  V30 3552 H 330.675 -5.87151 1.7048 0
M  V30 3553 H 334.849 -6.51861 2.45051 0
M  V30 3554 H 332.476 -6.99424 2.97843 0
M  V30 3555 N 334.051 0.0651679 -1.57465 0
M  V30 3556 C 335.001 1.0838 -2.00594 0
M  V30 3557 C 335.985 1.34106 -0.889071 0
M  V30 3558 O 337.177 1.34295 -1.15299 0
M  V30 3559 C 334.306 2.39565 -2.45894 0
M  V30 3560 C 333.392 2.17085 -3.64328 0
M  V30 3561 N 333.783 1.64553 -4.78285 0
M  V30 3562 C 332.081 2.4753 -3.71006 0
M  V30 3563 C 332.782 1.57042 -5.60101 0
M  V30 3564 N 331.758 2.03328 -5.04141 0
M  V30 3565 H 335.56 0.671062 -2.86136 0
M  V30 3566 H 333.074 0.27213 -1.60104 0
M  V30 3567 H 335.071 3.13308 -2.75034 0
M  V30 3568 H 333.731 2.81549 -1.61741 0
M  V30 3569 H 334.742 1.33323 -5.00445 0
M  V30 3570 H 331.419 2.92835 -2.9758 0
M  V30 3571 H 332.809 1.17223 -6.61595 0
M  V30 3572 N 335.529 1.53961 0.336706 0
M  V30 3573 C 336.775 1.7179 1.07777 0
M  V30 3574 C 337.108 0.483263 1.88091 0
M  V30 3575 O 336.383 -0.519747 1.87427 0
M  V30 3576 C 336.666 2.98558 2.01334 0
M  V30 3577 C 336.519 4.32245 1.24437 0
M  V30 3578 C 337.838 3.21023 3.01052 0
M  V30 3579 H 334.957 0.625089 0.390426 0
M  V30 3580 H 337.599 1.86641 0.35567 0
M  V30 3581 H 335.749 2.86028 2.62908 0
M  V30 3582 H 337.421 4.56637 0.654243 0
M  V30 3583 H 335.664 4.30344 0.546458 0
M  V30 3584 H 336.335 5.17137 1.93063 0
M  V30 3585 H 338.811 3.32929 2.49595 0
M  V30 3586 H 337.687 4.11104 3.6371 0
M  V30 3587 H 337.948 2.37637 3.72802 0
M  V30 3588 N 337.007 -0.598083 1.45811 0
M  V30 3589 C 337.97 -1.69018 1.54808 0
M  V30 3590 C 338.97 -1.55037 0.426652 0
M  V30 3591 O 340.16 -1.59932 0.690456 0
M  V30 3592 C 337.292 -3.0835 1.45371 0
M  V30 3593 H 338.485 -1.62403 2.52121 0
M  V30 3594 H 336.038 -0.814626 1.33392 0
M  V30 3595 H 336.773 -3.20534 0.492793 0
M  V30 3596 H 336.558 -3.19907 2.26721 0
M  V30 3597 H 338.048 -3.8788 1.54721 0
M  V30 3598 N 338.485 -1.33259 -0.841409 0
M  V30 3599 C 339.713 -1.27605 -1.62864 0
M  V30 3600 C 340.128 0.153507 -1.88175 0
M  V30 3601 O 339.485 1.09485 -1.46011 0
M  V30 3602 C 339.536 -2.04596 -2.98031 0
M  V30 3603 O 339.257 -3.41975 -2.73834 0
M  V30 3604 C 340.758 -2.06122 -3.92465 0
M  V30 3605 H 337.978 -0.439718 -0.506842 0
M  V30 3606 H 340.522 -1.75591 -1.04824 0
M  V30 3607 H 338.677 -1.60299 -3.5268 0
M  V30 3608 H 339.091 -3.81549 -3.59889 0
M  V30 3609 H 340.565 -2.64451 -4.84531 0
M  V30 3610 H 341.042 -1.05083 -4.26444 0
M  V30 3611 H 341.648 -2.50427 -3.43753 0
M  V30 3612 N 339.963 1.05934 -1.16686 0
M  V30 3613 C 341.379 1.30938 -0.912542 0
M  V30 3614 C 341.579 1.96803 0.432533 0
M  V30 3615 O 340.635 2.23693 1.17123 0
M  V30 3616 C 341.948 2.18649 -2.06429 0
M  V30 3617 C 343.496 2.32055 -2.10047 0
M  V30 3618 C 343.971 3.23122 -3.24586 0
M  V30 3619 N 345.462 3.30706 -3.24327 0
M  V30 3620 C 346.197 4.01273 -4.09594 0
M  V30 3621 N 345.693 4.74332 -5.04956 0
M  V30 3622 N 347.486 3.97361 -3.97569 0
M  V30 3623 H 339.637 0.615777 -2.03278 0
M  V30 3624 H 341.9 0.334077 -0.887185 0
M  V30 3625 H 341.606 1.77534 -3.03603 0
M  V30 3626 H 341.48 3.19252 -2.00894 0
M  V30 3627 H 343.867 2.72415 -1.13464 0
M  V30 3628 H 343.948 1.31107 -2.19647 0
M  V30 3629 H 343.592 2.83477 -4.2143 0
M  V30 3630 H 343.522 4.24057 -3.12223 0
M  V30 3631 H 346.013 2.78644 -2.55276 0
M  V30 3632 H 346.326 5.25716 -5.6643 0
M  V30 3633 H 344.671 4.733 -5.08933 0
M  V30 3634 H 347.862 3.39405 -3.22369 0
M  V30 3635 H 348.035 4.52089 -4.64241 0
M  V30 3636 N 341.441 0.965919 1.2453 0
M  V30 3637 C 342.688 0.626831 1.92554 0
M  V30 3638 C 343.016 -0.837739 1.75534 0
M  V30 3639 O 342.271 -1.61793 1.10098 0
M  V30 3640 C 342.57 0.945428 3.44669 0
M  V30 3641 C 342.236 2.39785 3.81856 0
M  V30 3642 C 340.898 2.79483 3.91718 0
M  V30 3643 C 343.25 3.34055 4.00071 0
M  V30 3644 C 340.578 4.12496 4.1721 0
M  V30 3645 C 342.93 4.66694 4.27059 0
M  V30 3646 C 341.594 5.06172 4.3514 0
M  V30 3647 H 340.864 0.229374 0.704605 0
M  V30 3648 H 343.511 1.21707 1.4785 0
M  V30 3649 H 341.816 0.272926 3.90848 0
M  V30 3650 H 343.513 0.661484 3.95507 0
M  V30 3651 H 340.103 2.08003 3.74743 0
M  V30 3652 H 344.287 3.04571 3.91855 0
M  V30 3653 H 339.543 4.42709 4.21685 0
M  V30 3654 H 343.717 5.3971 4.40097 0
M  V30 3655 H 341.344 6.09262 4.54646 0
M  V30 3656 N 342.919 -1.39368 0.735821 0
M  V30 3657 C 343.867 -2.32443 0.0855131 0
M  V30 3658 C 344.861 -1.53104 -0.724954 0
M  V30 3659 O 346.067 -1.68762 -0.626047 0
M  V30 3660 H 342.442 -0.751948 0.00885257 0
M  V30 3661 H 344.413 -2.84916 0.886883 0
M  V30 3662 C 343.162 -3.38206 -0.806983 0
M  V30 3663 H 342.485 -3.99335 -0.19274 0
M  V30 3664 H 343.925 -4.05779 -1.2296 0
M  V30 3665 C 342.384 -2.75321 -1.94165 0
M  V30 3666 O 342.914 -2.63231 -3.03435 0
M  V30 3667 N 341.12 -2.33396 -1.73132 0
M  V30 3668 H 340.667 -2.4343 -0.842596 0
M  V30 3669 H 340.625 -1.91661 -2.49225 0
M  V30 3670 N 344.397 -0.483516 -1.5 0
M  V30 3671 C 345.674 0.129337 -1.95172 0
M  V30 3672 C 346.054 1.55802 -1.4244 0
M  V30 3673 O 345.402 2.19625 -0.630649 0
M  V30 3674 C 345.612 0.0599251 -3.48949 0
M  V30 3675 C 346.96 0.242617 -4.23906 0
M  V30 3676 O 347.984 0.135933 -3.55941 0
M  V30 3677 O 346.843 0.459454 -5.44565 0
M  V30 3678 H 343.937 0.104887 -0.820322 0
M  V30 3679 H 346.483 -0.544807 -1.60717 0
M  V30 3680 H 345.255 -0.937079 -3.79914 0
M  V30 3681 H 344.878 0.774984 -3.89974 0
M  V30 3682 N 345.875 1.56104 -0.216619 0
M  V30 3683 C 347.152 1.89988 0.465165 0
M  V30 3684 C 347.532 1.13326 1.78102 0
M  V30 3685 O 346.88 0.241033 2.27225 0
M  V30 3686 C 347.09 3.42646 0.662939 0
M  V30 3687 C 348.438 4.13311 0.972602 0
M  V30 3688 O 349.462 3.48217 0.749901 0
M  V30 3689 O 348.321 5.28396 1.39499 0
M  V30 3690 H 345.415 0.78979 0.245276 0
M  V30 3691 H 347.961 1.67721 -0.258436 0
M  V30 3692 H 346.733 3.90399 -0.26543 0
M  V30 3693 H 346.356 3.70677 1.43821 0
M  V30 3694 N 347.353 -0.0568162 1.57498 0
M  V30 3695 C 348.6 -0.753104 1.87975 0
M  V30 3696 C 348.928 -1.76815 0.81035 0
M  V30 3697 O 348.183 -1.94756 -0.19199 0
M  V30 3698 C 348.482 -1.48359 3.25153 0
M  V30 3699 C 348.148 -0.60713 4.46794 0
M  V30 3700 C 346.81 -0.365642 4.79809 0
M  V30 3701 C 349.162 -0.000305978 5.212 0
M  V30 3702 C 346.49 0.491905 5.84634 0
M  V30 3703 C 348.842 0.844781 6.26934 0
M  V30 3704 C 347.506 1.096 6.58441 0
M  V30 3705 H 346.776 -0.27558 0.687849 0
M  V30 3706 H 349.423 -0.0135173 1.91495 0
M  V30 3707 H 347.728 -2.29577 3.17492 0
M  V30 3708 H 349.425 -2.02739 3.45974 0
M  V30 3709 H 346.015 -0.805487 4.20963 0
M  V30 3710 H 350.199 -0.173961 4.95995 0
M  V30 3711 H 345.455 0.695131 6.07436 0
M  V30 3712 H 349.629 1.32165 6.83744 0
M  V30 3713 H 347.256 1.76224 7.39492 0
M  V30 3714 N 348.832 -1.54138 -0.328536 0
M  V30 3715 C 350.057 -1.76378 -1.09112 0
M  V30 3716 C 350.482 -0.508596 -1.81094 0
M  V30 3717 O 349.84 0.539598 -1.73084 0
M  V30 3718 C 349.888 -2.95358 -2.06872 0
M  V30 3719 O 348.992 -2.66556 -3.14677 0
M  V30 3720 H 348.333 -0.584614 -0.314838 0
M  V30 3721 H 350.863 -2.01146 -0.374348 0
M  V30 3722 H 350.873 -3.22566 -2.4983 0
M  V30 3723 H 349.548 -3.86385 -1.5388 0
M  V30 3724 H 348.125 -2.50282 -2.7643 0
M  V30 3725 N 350.31 0.590341 -1.46126 0
M  V30 3726 C 351.726 0.912917 -1.30912 0
M  V30 3727 C 351.926 1.99616 -0.274893 0
M  V30 3728 O 350.982 2.50397 0.325197 0
M  V30 3729 C 352.295 1.3375 -2.69317 0
M  V30 3730 C 353.843 1.45077 -2.77348 0
M  V30 3731 C 354.318 1.90904 -4.16317 0
M  V30 3732 N 355.809 1.9811 -4.18696 0
M  V30 3733 C 356.544 2.34828 -5.23109 0
M  V30 3734 N 356.04 2.70393 -6.37856 0
M  V30 3735 N 357.833 2.35317 -5.10473 0
M  V30 3736 H 349.984 -0.125358 -2.1203 0
M  V30 3737 H 352.247 0.00658481 -0.947977 0
M  V30 3738 H 351.953 0.615614 -3.4627 0
M  V30 3739 H 351.827 2.30058 -2.9892 0
M  V30 3740 H 354.214 2.16353 -2.00687 0
M  V30 3741 H 354.295 0.4704 -2.51438 0
M  V30 3742 H 353.939 1.20209 -4.9347 0
M  V30 3743 H 353.869 2.89886 -4.39629 0
M  V30 3744 H 356.36 1.73146 -3.359 0
M  V30 3745 H 356.673 2.97341 -7.13308 0
M  V30 3746 H 355.018 2.68048 -6.41229 0
M  V30 3747 H 358.209 2.0695 -4.19868 0
M  V30 3748 H 358.382 2.63605 -5.9196 0
M  V30 3749 N 351.788 1.33704 0.83433 0
M  V30 3750 C 352.751 1.24244 1.92603 0
M  V30 3751 C 353.751 0.160383 1.59998 0
M  V30 3752 O 354.941 0.412228 1.69252 0
M  V30 3753 C 352.073 0.91555 3.28376 0
M  V30 3754 H 353.266 2.21287 2.02416 0
M  V30 3755 H 350.819 1.17827 1.02696 0
M  V30 3756 H 351.554 -0.0521886 3.24258 0
M  V30 3757 H 351.339 1.69811 3.53422 0
M  V30 3758 H 352.829 0.874231 4.08347 0
M  V30 3759 N 353.266 -1.05314 1.17247 0
M  V30 3760 C 354.512 -1.78557 0.961513 0
M  V30 3761 C 354.845 -1.87419 -0.508697 0
M  V30 3762 O 354.12 -1.37307 -1.37757 0
M  V30 3763 C 354.403 -3.22514 1.60176 0
M  V30 3764 C 354.256 -3.21673 3.14399 0
M  V30 3765 C 355.575 -4.20318 1.30463 0
M  V30 3766 H 352.694 -0.6482 0.350723 0
M  V30 3767 H 355.336 -1.23102 1.44727 0
M  V30 3768 H 353.486 -3.69867 1.18871 0
M  V30 3769 H 355.158 -2.82405 3.64753 0
M  V30 3770 H 353.401 -2.60048 3.47214 0
M  V30 3771 H 354.072 -4.23271 3.54324 0
M  V30 3772 H 356.548 -3.81454 1.66229 0
M  V30 3773 H 355.424 -5.19289 1.77848 0
M  V30 3774 H 355.685 -4.41526 0.22521 0
M  V30 3775 N 354.744 -0.972509 -1.24016 0
M  V30 3776 C 355.674 -0.525548 -2.27509 0
M  V30 3777 C 356.655 0.437262 -1.64384 0
M  V30 3778 O 357.84 0.332343 -1.91335 0
M  V30 3779 C 354.97 0.180448 -3.46831 0
M  V30 3780 C 353.924 -0.698859 -4.22256 0
M  V30 3781 C 353.25 0.138903 -5.3452 0
M  V30 3782 C 354.55 -1.98582 -4.83076 0
M  V30 3783 H 356.244 -1.39058 -2.65148 0
M  V30 3784 H 353.79 -0.67009 -1.27459 0
M  V30 3785 H 355.743 0.504387 -4.18371 0
M  V30 3786 H 354.467 1.07987 -3.08231 0
M  V30 3787 H 353.126 -1.00614 -3.52523 0
M  V30 3788 H 352.774 1.03862 -4.9216 0
M  V30 3789 H 352.474 -0.446259 -5.85903 0
M  V30 3790 H 353.998 0.457404 -6.08884 0
M  V30 3791 H 355.412 -1.72715 -5.46665 0
M  V30 3792 H 353.809 -2.5181 -5.44713 0
M  V30 3793 H 354.879 -2.67769 -4.04262 0
M  V30 3794 N 356.222 1.38976 -0.743202 0
M  V30 3795 C 357.132 2.3434 -0.110399 0
M  V30 3796 C 358.148 1.58741 0.712559 0
M  V30 3797 O 359.324 1.9099 0.639125 0
M  V30 3798 C 356.389 3.37812 0.780012 0
M  V30 3799 C 355.45 4.29263 -0.0561319 0
M  V30 3800 C 354.683 5.27793 0.791875 0
M  V30 3801 O 354.906 5.33043 2.03031 0
M  V30 3802 O 353.84 6.01512 0.216183 0
M  V30 3803 H 357.666 2.90129 -0.897714 0
M  V30 3804 H 355.251 1.40643 -0.503966 0
M  V30 3805 H 357.133 4.01194 1.28923 0
M  V30 3806 H 355.808 2.84395 1.546 0
M  V30 3807 H 354.715 3.69076 -0.611056 0
M  V30 3808 H 356.048 4.85907 -0.784531 0
M  V30 3809 N 357.7 0.491464 1.49741 0
M  V30 3810 C 358.663 -0.280906 2.27472 0
M  V30 3811 C 359.663 -0.902454 1.33088 0
M  V30 3812 O 360.853 -0.768465 1.56334 0
M  V30 3813 C 357.985 -1.40209 3.10732 0
M  V30 3814 H 359.178 0.401056 2.97206 0
M  V30 3815 H 356.731 0.246131 1.5435 0
M  V30 3816 H 357.466 -2.11849 2.45541 0
M  V30 3817 H 357.251 -0.961969 3.80117 0
M  V30 3818 H 358.741 -1.9464 3.69466 0
M  V30 3819 N 359.178 -1.55987 0.224894 0
M  V30 3820 C 360.088 -2.24066 -0.69511 0
M  V30 3821 C 361.104 -1.24939 -1.21104 0
M  V30 3822 O 362.28 -1.5776 -1.25195 0
M  V30 3823 C 359.345 -2.90983 -1.88493 0
M  V30 3824 C 358.406 -4.05462 -1.41064 0
M  V30 3825 C 357.639 -4.69179 -2.54375 0
M  V30 3826 O 357.862 -4.31895 -3.72589 0
M  V30 3827 O 356.796 -5.58108 -2.25386 0
M  V30 3828 H 360.622 -3.03353 -0.145149 0
M  V30 3829 H 358.207 -1.49399 -0.00569476 0
M  V30 3830 H 360.089 -3.33209 -2.57972 0
M  V30 3831 H 358.764 -2.14653 -2.42293 0
M  V30 3832 H 357.671 -3.67798 -0.683774 0
M  V30 3833 H 359.004 -4.83545 -0.918985 0
M  V30 3834 N 360.656 0.0484629 -1.57525 0
M  V30 3835 C 361.902 0.744226 -1.88651 0
M  V30 3836 C 362.235 1.76029 -0.820212 0
M  V30 3837 O 361.51 1.93782 0.166985 0
M  V30 3838 C 361.793 1.43128 -3.30434 0
M  V30 3839 C 361.646 0.43005 -4.47739 0
M  V30 3840 C 362.965 2.37031 -3.70816 0
M  V30 3841 H 360.084 0.269089 -0.68612 0
M  V30 3842 H 362.726 0.00713532 -1.89999 0
M  V30 3843 H 360.876 2.05956 -3.29415 0
M  V30 3844 H 362.548 -0.194816 -4.60888 0
M  V30 3845 H 360.791 -0.252522 -4.33064 0
M  V30 3846 H 361.462 0.948874 -5.43783 0
M  V30 3847 H 363.938 1.84263 -3.73077 0
M  V30 3848 H 362.814 2.82094 -4.70865 0
M  V30 3849 H 363.075 3.22864 -3.02012 0
M  V30 3850 N 362.134 1.5431 0.320358 0
M  V30 3851 C 363.066 1.80262 1.41556 0
M  V30 3852 C 364.079 0.684723 1.477 0
M  V30 3853 O 365.268 0.961886 1.50366 0
M  V30 3854 C 362.368 1.90825 2.8007 0
M  V30 3855 C 361.541 3.21023 2.97091 0
M  V30 3856 C 360.6 3.22247 4.15985 0
M  V30 3857 O 359.626 3.95871 4.08992 0
M  V30 3858 N 360.828 2.46258 5.25678 0
M  V30 3859 H 363.593 2.74778 1.19655 0
M  V30 3860 H 361.154 1.53646 0.510358 0
M  V30 3861 H 363.146 1.89067 3.57821 0
M  V30 3862 H 361.716 1.03392 2.95006 0
M  V30 3863 H 360.936 3.35715 2.06614 0
M  V30 3864 H 362.224 4.0698 3.05361 0
M  V30 3865 H 361.622 1.86037 5.34235 0
M  V30 3866 H 360.179 2.50275 6.01835 0
M  V30 3867 N 363.613 -0.582584 1.46437 0
M  V30 3868 C 364.546 -1.70633 1.51524 0
M  V30 3869 C 365.524 -1.58349 0.369351 0
M  V30 3870 O 366.708 -1.79563 0.573516 0
M  V30 3871 C 363.835 -3.08687 1.39392 0
M  V30 3872 C 362.881 -3.3949 2.58164 0
M  V30 3873 S 363.714 -3.31548 4.20519 0
M  V30 3874 C 364.87 -4.72139 4.10896 0
M  V30 3875 H 365.103 -1.66058 2.46601 0
M  V30 3876 H 362.636 -0.761337 1.34324 0
M  V30 3877 H 364.594 -3.8833 1.33079 0
M  V30 3878 H 363.255 -3.10751 0.457436 0
M  V30 3879 H 362.448 -4.40071 2.45669 0
M  V30 3880 H 362.05 -2.67415 2.61468 0
M  V30 3881 H 364.342 -5.62527 3.77584 0
M  V30 3882 H 365.285 -4.89692 5.11476 0
M  V30 3883 H 365.693 -4.48995 3.42146 0
M  V30 3884 N 365.091 -1.34144 -0.827227 0
M  V30 3885 C 366.331 -1.27603 -1.59677 0
M  V30 3886 C 366.695 0.153035 -1.91389 0
M  V30 3887 O 367.896 0.342566 -2.66608 0
M  V30 3888 C 366.167 -2.13784 -2.86411 0
M  V30 3889 S 367.726 -2.24552 -3.76991 0
M  V30 3890 H 364.544 -0.453789 -0.547354 0
M  V30 3891 H 367.146 -1.69309 -0.977479 0
M  V30 3892 H 365.85 -3.16627 -2.61104 0
M  V30 3893 H 365.381 -1.72959 -3.5334 0
M  V30 3894 H 367.396 -1.41514 -4.75593 0
M  V30 3895 N 366.569 1.04691 -1.17803 0
M  V30 3896 C 367.817 1.7743 -0.967617 0
M  V30 3897 C 368.138 1.88359 0.504574 0
M  V30 3898 O 367.408 1.40402 1.36617 0
M  V30 3899 H 365.988 0.657242 -0.355024 0
M  V30 3900 H 368.65 1.2638 -1.48371 0
M  V30 3901 H 367.746 2.78924 -1.40027 0
M  V30 3902 N 368.047 0.979072 1.23499 0
M  V30 3903 C 368.957 0.526431 2.28617 0
M  V30 3904 C 369.973 -0.418126 1.68901 0
M  V30 3905 O 371.149 -0.288372 1.99325 0
M  V30 3906 C 368.214 -0.165235 3.46306 0
M  V30 3907 C 367.275 0.82056 4.21385 0
M  V30 3908 C 366.508 0.161807 5.33455 0
M  V30 3909 O 366.731 -1.04742 5.60701 0
M  V30 3910 O 365.665 0.859708 5.95729 0
M  V30 3911 H 369.491 1.4006 2.69475 0
M  V30 3912 H 367.076 0.746643 1.29405 0
M  V30 3913 H 368.958 -0.553287 4.17752 0
M  V30 3914 H 367.633 -1.01419 3.07402 0
M  V30 3915 H 366.54 1.25929 3.52268 0
M  V30 3916 H 367.873 1.63828 4.64135 0
M  V30 3917 N 369.525 -1.3858 0.750561 0
M  V30 3918 C 370.455 -2.33102 0.136237 0
M  V30 3919 C 371.436 -1.54713 -0.706965 0
M  V30 3920 O 372.621 -1.83043 -0.648769 0
M  V30 3921 C 369.751 -3.38882 -0.760017 0
M  V30 3922 C 368.705 -4.27995 -0.0197785 0
M  V30 3923 C 368.031 -5.24605 -1.03408 0
M  V30 3924 C 369.331 -5.09554 1.14684 0
M  V30 3925 H 371.025 -2.84726 0.925822 0
M  V30 3926 H 368.571 -1.36898 0.446654 0
M  V30 3927 H 370.524 -4.0397 -1.19943 0
M  V30 3928 H 369.248 -2.85734 -1.58189 0
M  V30 3929 H 367.907 -3.64409 0.400184 0
M  V30 3930 H 367.555 -4.67746 -1.84994 0
M  V30 3931 H 367.255 -5.85081 -0.543464 0
M  V30 3932 H 368.779 -5.9257 -1.47288 0
M  V30 3933 H 370.193 -5.67899 0.785118 0
M  V30 3934 H 368.59 -5.7925 1.56812 0
M  V30 3935 H 369.66 -4.4347 1.96118 0
M  V30 3936 N 371.003 -0.499398 -1.49478 0
M  V30 3937 C 372.419 -0.155261 -1.58843 0
M  V30 3938 C 372.619 1.34008 -1.50479 0
M  V30 3939 O 371.675 2.11589 -1.37791 0
M  V30 3940 C 372.988 -0.730636 -2.91689 0
M  V30 3941 C 374.536 -0.696599 -3.0515 0
M  V30 3942 C 375.011 -1.25001 -4.40612 0
M  V30 3943 N 376.502 -1.21064 -4.47099 0
M  V30 3944 C 377.237 -1.60905 -5.50361 0
M  V30 3945 N 376.733 -2.08331 -6.60735 0
M  V30 3946 N 378.526 -1.52331 -5.41065 0
M  V30 3947 H 370.677 -1.47162 -1.53158 0
M  V30 3948 H 372.94 -0.610309 -0.725415 0
M  V30 3949 H 372.646 -1.77928 -3.03372 0
M  V30 3950 H 372.52 -0.190161 -3.7672 0
M  V30 3951 H 374.907 0.343204 -2.93097 0
M  V30 3952 H 374.988 -1.2742 -2.21806 0
M  V30 3953 H 374.632 -2.28859 -4.53416 0
M  V30 3954 H 374.562 -0.64836 -5.22593 0
M  V30 3955 H 377.053 -0.863128 -3.67911 0
M  V30 3956 H 377.366 -2.36805 -7.35624 0
M  V30 3957 H 375.711 -2.12304 -6.6178 0
M  V30 3958 H 378.902 -1.151 -4.53729 0
M  V30 3959 H 379.075 -1.83704 -6.21415 0
M  V30 3960 N 372.481 1.55866 -0.233164 0
M  V30 3961 C 373.758 1.90471 0.444988 0
M  V30 3962 C 374.138 1.15209 1.7689 0
M  V30 3963 O 373.486 0.265119 2.26957 0
M  V30 3964 C 373.696 3.4333 0.626559 0
M  V30 3965 C 375.044 4.14319 0.92871 0
M  V30 3966 O 376.068 3.48993 0.712926 0
M  V30 3967 O 374.927 5.29846 1.33887 0
M  V30 3968 H 372.021 0.792347 0.236885 0
M  V30 3969 H 374.567 1.67437 -0.276211 0
M  V30 3970 H 373.339 3.90095 -0.306822 0
M  V30 3971 H 372.962 3.72181 1.39881 0
M  V30 3972 N 373.959 -0.0401083 1.57549 0
M  V30 3973 C 375.189 -0.744115 1.92734 0
M  V30 3974 C 375.597 -1.70005 0.830348 0
M  V30 3975 O 374.94 -1.82576 -0.20286 0
M  V30 3976 C 375.002 -1.56516 3.2364 0
M  V30 3977 C 374.666 -0.7752 4.50377 0
M  V30 3978 C 375.663 -0.0803326 5.19838 0
M  V30 3979 C 373.348 -0.733002 4.96923 0
M  V30 3980 C 375.342 0.646154 6.34116 0
M  V30 3981 C 373.029 -0.00276321 6.111 0
M  V30 3982 C 374.027 0.685585 6.7955 0
M  V30 3983 O 373.715 1.40399 7.91545 0
M  V30 3984 H 373.447 -0.214861 0.640945 0
M  V30 3985 H 376.001 -0.00503675 2.05399 0
M  V30 3986 H 374.231 -2.3478 3.07271 0
M  V30 3987 H 375.92 -2.15076 3.44234 0
M  V30 3988 H 376.686 -0.104035 4.84888 0
M  V30 3989 H 372.565 -1.25827 4.43496 0
M  V30 3990 H 376.109 1.18398 6.87479 0
M  V30 3991 H 372.006 0.0229012 6.45496 0
M  V30 3992 H 372.774 1.31653 8.07843 0
M  V30 3993 N 375.437 -1.54477 -0.31217 0
M  V30 3994 C 376.367 -1.87652 -1.38957 0
M  V30 3995 C 377.348 -0.734358 -1.53431 0
M  V30 3996 O 378.533 -0.98911 -1.67123 0
M  V30 3997 C 375.663 -2.11396 -2.75552 0
M  V30 3998 C 374.617 -3.27243 -2.75855 0
M  V30 3999 C 373.943 -3.36382 -4.15633 0
M  V30 4000 C 375.243 -4.64622 -2.38587 0
M  V30 4001 H 376.937 -2.77887 -1.11442 0
M  V30 4002 H 374.483 -1.33707 -0.534655 0
M  V30 4003 H 376.436 -2.33189 -3.51 0
M  V30 4004 H 375.16 -1.17921 -3.04569 0
M  V30 4005 H 373.819 -3.05356 -2.02863 0
M  V30 4006 H 373.467 -2.40445 -4.41809 0
M  V30 4007 H 373.167 -4.14249 -4.1674 0
M  V30 4008 H 374.691 -3.60422 -4.92877 0
M  V30 4009 H 376.105 -4.86219 -3.03749 0
M  V30 4010 H 374.502 -5.45121 -2.50925 0
M  V30 4011 H 375.572 -4.66097 -1.33723 0
M  V30 4012 N 376.915 0.57481 -1.46744 0
M  V30 4013 C 378.331 0.898981 -1.31873 0
M  V30 4014 C 378.531 1.99313 -0.29605 0
M  V30 4015 O 377.587 2.50728 0.298621 0
M  V30 4016 C 378.9 1.30886 -2.7072 0
M  V30 4017 C 380.448 1.42127 -2.78871 0
M  V30 4018 C 380.923 1.86478 -4.18318 0
M  V30 4019 N 382.414 1.93658 -4.20774 0
M  V30 4020 C 383.149 2.29267 -5.2557 0
M  V30 4021 N 382.645 2.63612 -6.40688 0
M  V30 4022 N 384.438 2.29889 -5.1294 0
M  V30 4023 H 376.589 -0.147839 -2.11885 0
M  V30 4024 H 378.852 -0.00347013 -0.947994 0
M  V30 4025 H 378.558 0.578853 -3.46904 0
M  V30 4026 H 378.432 2.26874 -3.01343 0
M  V30 4027 H 380.819 2.14213 -2.0297 0
M  V30 4028 H 380.9 0.443705 -2.51922 0
M  V30 4029 H 380.544 1.14968 -4.94717 0
M  V30 4030 H 380.474 2.85207 -4.42679 0
M  V30 4031 H 382.965 1.69574 -3.37718 0
M  V30 4032 H 383.278 2.89759 -7.16421 0
M  V30 4033 H 381.623 2.61232 -6.44036 0
M  V30 4034 H 384.814 2.02485 -4.22039 0
M  V30 4035 H 384.987 2.57312 -5.94722 0
M  V30 4036 N 378.394 1.34581 0.820102 0
M  V30 4037 C 379.64 1.27285 1.57881 0
M  V30 4038 C 379.973 -0.156137 1.93571 0
M  V30 4039 O 379.248 -1.10222 1.60254 0
M  V30 4040 C 379.531 2.16639 2.87645 0
M  V30 4041 C 379.384 3.68088 2.58517 0
M  V30 4042 C 380.703 2.05378 3.8924 0
M  V30 4043 H 377.822 0.463714 0.572833 0
M  V30 4044 H 380.464 1.64859 0.944539 0
M  V30 4045 H 378.614 1.84725 3.41773 0
M  V30 4046 H 380.286 4.10382 2.10676 0
M  V30 4047 H 378.529 3.89038 1.91917 0
M  V30 4048 H 379.2 4.2598 3.51063 0
M  V30 4049 H 381.676 2.33404 3.44473 0
M  V30 4050 H 380.552 2.7012 4.77835 0
M  V30 4051 H 380.813 1.0316 4.29896 0
M  V30 4052 N 379.872 -1.04064 1.18357 0
M  V30 4053 C 381.1 -1.80916 1.00384 0
M  V30 4054 C 381.515 -1.83414 -0.447738 0
M  V30 4055 O 380.872 -1.26962 -1.31099 0
M  V30 4056 C 380.923 -3.26516 1.55144 0
M  V30 4057 O 380.644 -3.2424 2.94618 0
M  V30 4058 C 382.145 -4.20013 1.41789 0
M  V30 4059 H 379.365 -0.569728 0.354474 0
M  V30 4060 H 381.909 -1.31151 1.56906 0
M  V30 4061 H 380.064 -3.73512 1.02798 0
M  V30 4062 H 380.478 -4.15452 3.20156 0
M  V30 4063 H 381.952 -5.20111 1.84901 0
M  V30 4064 H 382.429 -4.37667 0.36661 0
M  V30 4065 H 383.035 -3.78881 1.93207 0
M  V30 4066 N 381.35 -0.985608 -1.22978 0
M  V30 4067 C 382.596 -0.65836 -1.91816 0
M  V30 4068 C 382.929 0.806692 -1.76653 0
M  V30 4069 O 382.204 1.58252 -1.13078 0
M  V30 4070 C 382.487 -1.056 -3.44268 0
M  V30 4071 C 382.34 -2.57906 -3.68516 0
M  V30 4072 C 383.659 -0.603781 -4.35939 0
M  V30 4073 H 380.778 -0.24065 -0.696604 0
M  V30 4074 H 383.42 -1.22783 -1.44998 0
M  V30 4075 H 381.57 -0.571445 -3.84274 0
M  V30 4076 H 383.242 -3.13976 -3.3796 0
M  V30 4077 H 381.485 -3.00305 -3.13048 0
M  V30 4078 H 382.156 -2.80779 -4.75255 0
M  V30 4079 H 384.632 -1.01987 -4.03408 0
M  V30 4080 H 383.508 -0.910383 -5.41298 0
M  V30 4081 H 383.769 0.495761 -4.39312 0
M  V30 4082 N 382.828 1.3818 -0.7579 0
M  V30 4083 C 384.053 2.04827 -0.325679 0
M  V30 4084 C 384.478 1.56788 1.03919 0
M  V30 4085 O 383.836 0.721811 1.66312 0
M  V30 4086 C 383.884 3.58774 -0.362447 0
M  V30 4087 O 382.988 4.07372 0.642033 0
M  V30 4088 H 382.329 0.64833 -0.143402 0
M  V30 4089 H 384.859 1.7677 -1.03023 0
M  V30 4090 H 384.869 4.07434 -0.214844 0
M  V30 4091 H 383.544 3.93096 -1.35824 0
M  V30 4092 H 382.121 3.70068 0.458688 0
M  V30 4093 N 384.306 0.507319 1.49211 0
M  V30 4094 C 385.236 -0.256939 2.32082 0
M  V30 4095 C 386.217 -0.956609 1.40652 0
M  V30 4096 O 387.402 -0.946788 1.69557 0
M  V30 4097 C 384.532 -1.31802 3.21318 0
M  V30 4098 C 383.486 -0.737855 4.21592 0
M  V30 4099 C 382.812 -1.89992 4.99807 0
M  V30 4100 C 384.112 0.275325 5.21574 0
M  V30 4101 H 385.806 0.434798 2.96226 0
M  V30 4102 H 383.352 0.210546 1.42452 0
M  V30 4103 H 385.305 -1.86045 3.78107 0
M  V30 4104 H 384.029 -2.03903 2.5513 0
M  V30 4105 H 382.688 -0.217126 3.65956 0
M  V30 4106 H 382.336 -2.60877 4.30061 0
M  V30 4107 H 382.036 -1.51777 5.6766 0
M  V30 4108 H 383.56 -2.44657 5.59442 0
M  V30 4109 H 384.974 -0.179193 5.7302 0
M  V30 4110 H 383.371 0.573649 5.97352 0
M  V30 4111 H 384.441 1.18903 4.70096 0
M  V30 4112 N 385.784 -1.5574 0.241426 0
M  V30 4113 C 387.03 -1.99846 -0.378555 0
M  V30 4114 C 387.385 -1.12665 -1.55963 0
M  V30 4115 O 386.678 -0.180966 -1.90743 0
M  V30 4116 C 386.872 -3.47308 -0.843317 0
M  V30 4117 C 386.701 -4.48756 0.291178 0
M  V30 4118 C 385.471 -4.9949 0.764077 0
M  V30 4119 C 387.669 -5.02039 1.11631 0
M  V30 4120 N 385.651 -5.84676 1.87156 0
M  V30 4121 C 387.022 -5.84343 2.07226 0
M  V30 4122 C 389.077 -4.84354 1.15349 0
M  V30 4123 C 387.78 -6.50851 3.06245 0
M  V30 4124 C 389.806 -5.51636 2.13195 0
M  V30 4125 C 389.168 -6.33724 3.07528 0
M  V30 4126 H 385.267 -0.774968 -0.104634 0
M  V30 4127 H 387.851 -1.91385 0.357751 0
M  V30 4128 H 386.022 -3.56178 -1.54893 0
M  V30 4129 H 387.754 -3.78299 -1.43779 0
M  V30 4130 H 384.509 -4.72311 0.349175 0
M  V30 4131 H 384.933 -6.31967 2.42789 0
M  V30 4132 H 389.575 -4.20525 0.438057 0
M  V30 4133 H 387.293 -7.1385 3.78739 0
M  V30 4134 H 390.879 -5.39909 2.16771 0
M  V30 4135 H 389.759 -6.84867 3.82003 0
M  V30 4136 N 387.262 0.0317525 -1.57568 0
M  V30 4137 C 388.194 1.06073 -2.03178 0
M  V30 4138 C 389.207 1.32627 -0.944132 0
M  V30 4139 O 390.396 1.30162 -1.22148 0
M  V30 4140 C 387.496 2.40297 -2.38978 0
M  V30 4141 C 386.669 2.33137 -3.70089 0
M  V30 4142 C 385.728 3.49787 -3.9311 0
M  V30 4143 O 384.754 3.29403 -4.64201 0
M  V30 4144 N 385.956 4.71562 -3.38541 0
M  V30 4145 H 388.721 0.672006 -2.92069 0
M  V30 4146 H 386.282 0.219745 -1.60402 0
M  V30 4147 H 388.274 3.1705 -2.51518 0
M  V30 4148 H 386.844 2.71024 -1.55771 0
M  V30 4149 H 386.064 1.415 -3.67928 0
M  V30 4150 H 387.352 2.25493 -4.56104 0
M  V30 4151 H 386.75 4.91024 -2.80912 0
M  V30 4152 H 385.307 5.45689 -3.56464 0
M  V30 4153 N 388.74 1.54641 0.303973 0
M  V30 4154 C 389.988 1.73437 1.0375 0
M  V30 4155 C 390.309 0.521449 1.87899 0
M  V30 4156 O 389.579 -0.46432 1.90318 0
M  V30 4157 H 388.159 0.639518 0.386039 0
M  V30 4158 H 390.821 1.91988 0.335675 0
M  V30 4159 H 389.917 2.62235 1.69231 0
M  V30 4160 N 390.218 -0.567019 1.47046 0
M  V30 4161 C 391.128 -1.70247 1.6141 0
M  V30 4162 C 392.144 -1.66746 0.497157 0
M  V30 4163 O 393.32 -1.86371 0.763389 0
M  V30 4164 C 390.385 -3.06756 1.61561 0
M  V30 4165 C 389.446 -3.21399 2.84607 0
M  V30 4166 C 388.679 -4.51396 2.84741 0
M  V30 4167 O 388.902 -5.36255 1.94388 0
M  V30 4168 O 387.836 -4.69621 3.76483 0
M  V30 4169 H 391.662 -1.61073 2.57467 0
M  V30 4170 H 389.247 -0.735894 1.30019 0
M  V30 4171 H 391.129 -3.8801 1.64396 0
M  V30 4172 H 389.804 -3.16333 0.686684 0
M  V30 4173 H 388.711 -2.39579 2.8732 0
M  V30 4174 H 390.044 -3.16721 3.76761 0
M  V30 4175 N 391.696 -1.35014 -0.812953 0
M  V30 4176 C 392.924 -1.31031 -1.6012 0
M  V30 4177 C 393.339 0.113558 -1.88458 0
M  V30 4178 O 392.696 1.06363 -1.48301 0
M  V30 4179 C 392.747 -2.10872 -2.93624 0
M  V30 4180 O 392.468 -3.47706 -2.66518 0
M  V30 4181 C 393.969 -2.14401 -3.88004 0
M  V30 4182 H 391.189 -0.45037 -0.497401 0
M  V30 4183 H 393.733 -1.77775 -1.01076 0
M  V30 4184 H 391.888 -1.67744 -3.492 0
M  V30 4185 H 392.302 -3.89097 -3.51715 0
M  V30 4186 H 393.776 -2.74669 -4.78812 0
M  V30 4187 H 394.253 -1.14105 -4.24119 0
M  V30 4188 H 394.859 -2.57662 -3.38364 0
M  V30 4189 N 393.175 1.03435 -1.18907 0
M  V30 4190 C 394.107 2.1165 -0.879595 0
M  V30 4191 C 395.12 1.62316 0.125439 0
M  V30 4192 O 396.309 1.78201 -0.103245 0
M  V30 4193 C 393.409 3.37622 -0.294042 0
M  V30 4194 C 392.582 4.16166 -1.34629 0
M  V30 4195 C 391.641 5.20457 -0.775274 0
M  V30 4196 O 390.667 5.50379 -1.4516 0
M  V30 4197 N 391.869 5.78949 0.424126 0
M  V30 4198 H 394.634 2.38791 -1.81105 0
M  V30 4199 H 392.195 1.19681 -1.09032 0
M  V30 4200 H 394.187 4.04572 0.101679 0
M  V30 4201 H 392.757 3.07873 0.541575 0
M  V30 4202 H 391.977 3.44444 -1.91707 0
M  V30 4203 H 393.265 4.65432 -2.05549 0
M  V30 4204 H 392.663 5.56948 0.991209 0
M  V30 4205 H 391.22 6.47334 0.761691 0
M  V30 4206 N 394.653 0.992116 1.22453 0
M  V30 4207 C 395.899 0.668523 1.91464 0
M  V30 4208 C 396.232 -0.797313 1.77078 0
M  V30 4209 O 395.507 -1.5765 1.13916 0
M  V30 4210 C 395.79 1.07424 3.43703 0
M  V30 4211 C 395.643 2.59857 3.67143 0
M  V30 4212 C 396.962 0.626891 4.35612 0
M  V30 4213 H 394.081 0.244341 0.695318 0
M  V30 4214 H 396.723 1.2355 1.44345 0
M  V30 4215 H 394.873 0.591816 3.83966 0
M  V30 4216 H 396.545 3.15764 3.3629 0
M  V30 4217 H 394.788 3.01961 3.11451 0
M  V30 4218 H 395.459 2.83296 4.73759 0
M  V30 4219 H 397.935 1.04125 4.02861 0
M  V30 4220 H 396.811 0.939076 5.40807 0
M  V30 4221 H 397.072 -0.472457 4.39568 0
M  V30 4222 N 396.131 -1.37776 0.765217 0
M  V30 4223 C 397.094 -2.28686 0.153416 0
M  V30 4224 C 398.094 -1.47727 -0.635081 0
M  V30 4225 O 399.284 -1.68027 -0.459632 0
M  V30 4226 C 396.416 -3.31608 -0.790495 0
M  V30 4227 H 397.609 -2.84297 0.954723 0
M  V30 4228 H 395.162 -1.46932 0.53299 0
M  V30 4229 H 395.897 -2.81109 -1.61705 0
M  V30 4230 H 395.682 -3.9144 -0.227348 0
M  V30 4231 H 397.172 -3.99559 -1.21419 0
M  V30 4232 N 397.609 -0.515225 -1.4894 0
M  V30 4233 C 398.834 0.022727 -2.07388 0
M  V30 4234 C 399.259 1.2876 -1.37122 0
M  V30 4235 O 398.617 1.76067 -0.432431 0
M  V30 4236 C 398.665 0.244869 -3.59768 0
M  V30 4237 O 397.769 1.31667 -3.90817 0
M  V30 4238 H 397.11 -0.0325506 -0.663202 0
M  V30 4239 H 399.64 -0.718918 -1.91553 0
M  V30 4240 H 399.65 0.47205 -4.0526 0
M  V30 4241 H 398.325 -0.679194 -4.10317 0
M  V30 4242 H 396.902 1.07331 -3.5712 0
M  V30 4243 N 399.087 1.5561 -0.249682 0
M  V30 4244 C 400.335 1.98618 0.373548 0
M  V30 4245 C 400.656 1.13919 1.58264 0
M  V30 4246 O 399.926 0.222637 1.94631 0
M  V30 4247 H 398.506 0.733571 0.141006 0
M  V30 4248 H 401.168 1.91748 -0.349117 0
M  V30 4249 H 400.264 3.04584 0.680796 0
M  V30 4250 N 400.565 -0.0233959 1.57583 0
M  V30 4251 C 401.793 -0.724682 1.93794 0
M  V30 4252 C 402.208 -1.68588 0.849912 0
M  V30 4253 O 401.565 -1.81676 -0.173204 0
M  V30 4254 C 401.616 -1.47684 3.29957 0
M  V30 4255 O 401.337 -0.554222 4.3458 0
M  V30 4256 C 402.838 -2.27477 3.80485 0
M  V30 4257 H 400.058 -0.203317 0.639455 0
M  V30 4258 H 402.602 0.0207653 2.04489 0
M  V30 4259 H 400.757 -2.17412 3.20641 0
M  V30 4260 H 401.171 -1.08232 5.13212 0
M  V30 4261 H 402.645 -2.7564 4.78254 0
M  V30 4262 H 403.122 -3.09144 3.11972 0
M  V30 4263 H 403.728 -1.62813 3.92902 0
M  V30 4264 N 402.043 -1.548 -0.295768 0
M  V30 4265 C 403.006 -1.85363 -1.34808 0
M  V30 4266 C 404.006 -0.726817 -1.43436 0
M  V30 4267 O 405.196 -0.995088 -1.42981 0
M  V30 4268 C 402.328 -2.03859 -2.73229 0
M  V30 4269 H 403.521 -2.7941 -1.08949 0
M  V30 4270 H 401.074 -1.46942 -0.532702 0
M  V30 4271 H 401.809 -1.12117 -3.04303 0
M  V30 4272 H 401.594 -2.8588 -2.68356 0
M  V30 4273 H 403.084 -2.28857 -3.49305 0
M  V30 4274 N 403.521 0.559213 -1.47345 0
M  V30 4275 C 404.932 1.14134 -1.47751 0
M  V30 4276 C 405.283 1.94834 -0.231103 0
M  V30 4277 O 404.408 2.05957 0.664137 0
M  V30 4278 C 405.003 2.07653 -2.67705 0
M  V30 4279 C 403.562 2.61141 -2.71076 0
M  V30 4280 C 402.709 1.3748 -2.40821 0
M  V30 4281 H 405.66 0.345917 -1.54884 0
M  V30 4282 H 405.681 2.91497 -2.44561 0
M  V30 4283 H 405.193 1.4889 -3.58404 0
M  V30 4284 H 403.294 3.23707 -1.84511 0
M  V30 4285 H 403.407 3.02272 -3.7171 0
M  V30 4286 H 401.771 1.68086 -1.91362 0
M  V30 4287 H 402.554 0.805135 -3.33725 0
M  V30 4288 N 404.999 1.35443 0.805782 0
M  V30 4289 C 406.246 1.28761 1.56291 0
M  V30 4290 C 406.574 -0.137747 1.94012 0
M  V30 4291 O 405.829 -1.1032 1.61642 0
M  V30 4292 C 406.128 2.14045 2.86216 0
M  V30 4293 C 405.794 3.62826 2.67709 0
M  V30 4294 C 404.456 4.0338 2.6237 0
M  V30 4295 C 406.808 4.57227 2.50186 0
M  V30 4296 C 404.136 5.36501 2.37451 0
M  V30 4297 C 406.488 5.90547 2.26797 0
M  V30 4298 C 405.152 6.30245 2.1988 0
M  V30 4299 H 404.422 0.471171 0.571908 0
M  V30 4300 H 407.069 1.67347 0.930974 0
M  V30 4301 H 405.374 1.68342 3.53791 0
M  V30 4302 H 407.071 2.0621 3.43917 0
M  V30 4303 H 403.661 3.30644 2.72713 0
M  V30 4304 H 407.845 4.2678 2.53323 0
M  V30 4305 H 403.101 5.66259 2.30567 0
M  V30 4306 H 407.275 6.63274 2.12228 0
M  V30 4307 H 404.902 7.33328 2.00333 0
M  V30 4308 N 406.477 -1.02803 1.19454 0
M  V30 4309 C 407.725 -1.75869 0.995722 0
M  V30 4310 C 408.046 -1.89138 -0.474543 0
M  V30 4311 O 407.316 -1.42558 -1.34366 0
M  V30 4312 H 405.896 -0.651511 0.365435 0
M  V30 4313 H 408.558 -1.24004 1.50363 0
M  V30 4314 H 407.654 -2.76661 1.44447 0
M  V30 4315 N 407.956 -0.998596 -1.21925 0
M  V30 4316 C 409.204 -0.676325 -1.90448 0
M  V30 4317 C 409.525 0.794719 -1.78071 0
M  V30 4318 O 408.795 1.5701 -1.17152 0
M  V30 4319 H 407.375 -0.247165 -0.704925 0
M  V30 4320 H 410.037 -1.26633 -1.48156 0
M  V30 4321 H 409.133 -0.943858 -2.97486 0
M  V30 4322 N 409.434 1.37368 -0.772513 0
M  V30 4323 C 410.344 2.34053 -0.160081 0
M  V30 4324 C 411.36 1.60216 0.678728 0
M  V30 4325 O 412.536 1.92303 0.59847 0
M  V30 4326 C 409.601 3.3939 0.708182 0
M  V30 4327 C 408.662 4.29048 -0.147172 0
M  V30 4328 C 407.895 5.29354 0.679744 0
M  V30 4329 O 408.118 5.3723 1.91678 0
M  V30 4330 O 407.052 6.01835 0.0885444 0
M  V30 4331 H 410.878 2.88159 -0.959053 0
M  V30 4332 H 408.463 1.39543 -0.533685 0
M  V30 4333 H 410.345 4.03839 1.20384 0
M  V30 4334 H 409.02 2.8761 1.48533 0
M  V30 4335 H 407.927 3.67697 -0.689205 0
M  V30 4336 H 409.26 4.84134 -0.887423 0
M  V30 4337 N 410.912 0.523116 1.48665 0
M  V30 4338 C 412.161 -0.01544 2.01694 0
M  V30 4339 C 412.474 -1.35975 1.40606 0
M  V30 4340 O 413.68 -1.98627 1.85093 0
M  V30 4341 C 412.136 -0.0779303 3.59816 0
M  V30 4342 C 411.744 1.26107 4.29885 0
M  V30 4343 C 413.488 -0.565678 4.20714 0
M  V30 4344 C 411.395 1.15954 5.79921 0
M  V30 4345 H 410.325 -0.00954163 0.75394 0
M  V30 4346 H 412.976 0.665865 1.70993 0
M  V30 4347 H 411.358 -0.824165 3.87329 0
M  V30 4348 H 412.532 2.02233 4.14051 0
M  V30 4349 H 410.847 1.68401 3.80828 0
M  V30 4350 H 413.444 -0.6595 5.30617 0
M  V30 4351 H 413.787 -1.56984 3.85567 0
M  V30 4352 H 414.32 0.12467 3.97605 0
M  V30 4353 H 411.059 2.13864 6.19631 0
M  V30 4354 H 410.579 0.439529 5.98187 0
M  V30 4355 H 412.258 0.847361 6.41427 0
M  V30 4356 N 412.39 -1.55475 0.257931 0
M  V30 4357 C 413.639 -1.98383 -0.364275 0
M  V30 4358 C 413.952 -1.14952 -1.58258 0
M  V30 4359 O 415.158 -1.47924 -2.27664 0
M  V30 4360 C 413.614 -3.53037 -0.699479 0
M  V30 4361 C 413.222 -4.45223 0.498046 0
M  V30 4362 C 414.966 -4.04575 -1.28526 0
M  V30 4363 C 412.873 -5.91238 0.138383 0
M  V30 4364 H 411.803 -0.740911 -0.13988 0
M  V30 4365 H 414.454 -1.79936 0.359883 0
M  V30 4366 H 412.836 -3.6722 -1.48207 0
M  V30 4367 H 414.01 -4.42803 1.27522 0
M  V30 4368 H 412.325 -4.04226 0.999503 0
M  V30 4369 H 414.922 -5.11196 -1.56788 0
M  V30 4370 H 415.265 -3.5258 -2.21344 0
M  V30 4371 H 415.798 -3.93762 -0.565337 0
M  V30 4372 H 412.537 -6.47294 1.03398 0
M  V30 4373 H 412.057 -5.96768 -0.602374 0
M  V30 4374 H 413.736 -6.46413 -0.27553 0
M  V30 4375 N 413.868 0.0150385 -1.57593 0
M  V30 4376 C 415.145 0.7392 -1.81094 0
M  V30 4377 C 415.525 1.92817 -0.859344 0
M  V30 4378 O 414.873 2.28301 0.095362 0
M  V30 4379 C 415.083 1.15907 -3.29191 0
M  V30 4380 C 416.431 1.56918 -3.9454 0
M  V30 4381 O 417.455 1.25328 -3.33424 0
M  V30 4382 O 416.314 2.15604 -5.02173 0
M  V30 4383 H 413.408 0.358631 -0.745193 0
M  V30 4384 H 415.954 -0.00926156 -1.69697 0
M  V30 4385 H 414.726 0.310921 -3.90063 0
M  V30 4386 H 414.349 1.96711 -3.45529 0
M  V30 4387 N 415.346 1.54954 0.287554 0
M  V30 4388 C 416.256 1.8991 1.37736 0
M  V30 4389 C 417.272 0.794701 1.54792 0
M  V30 4390 O 418.448 1.09243 1.69198 0
M  V30 4391 C 415.513 2.15108 2.71899 0
M  V30 4392 C 414.574 3.38752 2.63715 0
M  V30 4393 C 413.807 3.62739 3.91479 0
M  V30 4394 O 414.03 2.89492 4.91478 0
M  V30 4395 O 412.964 4.56267 3.92561 0
M  V30 4396 H 416.79 2.82652 1.11092 0
M  V30 4397 H 414.375 1.41315 0.484807 0
M  V30 4398 H 416.257 2.32806 3.51254 0
M  V30 4399 H 414.932 1.25551 2.9836 0
M  V30 4400 H 413.839 3.26405 1.82786 0
M  V30 4401 H 415.172 4.28483 2.42205 0
M  V30 4402 N 416.824 -0.551391 1.4764 0
M  V30 4403 C 418.24 -0.877887 1.33287 0
M  V30 4404 C 418.44 -1.98817 0.327721 0
M  V30 4405 O 417.496 -2.51171 -0.258695 0
M  V30 4406 C 418.809 -1.26563 2.72768 0
M  V30 4407 C 420.357 -1.37673 2.81097 0
M  V30 4408 C 420.832 -1.79799 4.21232 0
M  V30 4409 N 422.323 -1.8694 4.23802 0
M  V30 4410 C 423.058 -2.20876 5.29151 0
M  V30 4411 N 422.554 -2.53386 6.448 0
M  V30 4412 N 424.347 -2.217 5.16532 0
M  V30 4413 H 416.498 0.18153 2.11623 0
M  V30 4414 H 418.761 0.0185514 0.947818 0
M  V30 4415 H 418.467 -0.523591 3.47781 0
M  V30 4416 H 418.341 -2.22052 3.04915 0
M  V30 4417 H 420.728 -2.10956 2.06353 0
M  V30 4418 H 420.809 -0.40357 2.52596 0
M  V30 4419 H 420.453 -1.07083 4.96483 0
M  V30 4420 H 420.383 -2.78128 4.4716 0
M  V30 4421 H 422.874 -1.64179 3.40373 0
M  V30 4422 H 423.187 -2.78325 7.20941 0
M  V30 4423 H 421.532 -2.50953 6.48111 0
M  V30 4424 H 424.723 -1.95745 4.25207 0
M  V30 4425 H 424.896 -2.47818 5.98741 0
M  V30 4426 N 418.302 -1.35869 -0.798587 0
M  V30 4427 C 419.55 -1.29332 -1.55298 0
M  V30 4428 C 419.871 0.129729 -1.94568 0
M  V30 4429 O 419.141 1.06796 -1.6423 0
M  V30 4430 H 417.721 -0.475737 -0.57592 0
M  V30 4431 H 420.383 -1.70062 -0.952093 0
M  V30 4432 H 419.479 -1.91458 -2.46476 0
M  V30 4433 N 419.78 1.02168 -1.19998 0
M  V30 4434 C 421.028 1.75338 -1.00504 0
M  V30 4435 C 421.349 1.89387 0.464506 0
M  V30 4436 O 420.619 1.43268 1.33608 0
M  V30 4437 H 419.199 0.649564 -0.368885 0
M  V30 4438 H 421.861 1.23205 -1.51018 0
M  V30 4439 H 420.957 2.75892 -1.45912 0
M  V30 4440 N 421.258 1.00505 1.21394 0
M  V30 4441 C 422.488 0.705584 1.94178 0
M  V30 4442 C 422.896 -0.735846 1.74304 0
M  V30 4443 O 422.239 -1.50954 1.04683 0
M  V30 4444 C 422.301 0.94689 3.46806 0
M  V30 4445 C 421.965 2.37517 3.90429 0
M  V30 4446 C 422.962 3.35539 3.97127 0
M  V30 4447 C 420.647 2.71284 4.22742 0
M  V30 4448 C 422.641 4.65395 4.3553 0
M  V30 4449 C 420.328 4.01356 4.60822 0
M  V30 4450 C 421.326 4.98223 4.67186 0
M  V30 4451 O 421.014 6.25969 5.04399 0
M  V30 4452 H 420.746 0.259216 0.624326 0
M  V30 4453 H 423.3 1.34592 1.55159 0
M  V30 4454 H 421.53 0.249386 3.85895 0
M  V30 4455 H 423.219 0.640804 4.0081 0
M  V30 4456 H 423.985 3.10786 3.7234 0
M  V30 4457 H 419.864 1.96581 4.16985 0
M  V30 4458 H 423.408 5.41002 4.40412 0
M  V30 4459 H 419.305 4.25893 4.85063 0
M  V30 4460 H 420.073 6.30085 5.22431 0
M  V30 4461 N 422.737 -1.36956 0.779787 0
M  V30 4462 C 423.7 -2.2851 0.177662 0
M  V30 4463 C 424.7 -1.48393 -0.619377 0
M  V30 4464 O 425.89 -1.68505 -0.441785 0
M  V30 4465 C 423.022 -3.32428 -0.755279 0
M  V30 4466 H 424.215 -2.83269 0.984823 0
M  V30 4467 H 421.768 -1.46358 0.548544 0
M  V30 4468 H 422.503 -2.82808 -1.58714 0
M  V30 4469 H 422.288 -3.91659 -0.185817 0
M  V30 4470 H 423.778 -4.00824 -1.17174 0
M  V30 4471 N 424.215 -0.530993 -1.48385 0
M  V30 4472 C 425.492 0.0671788 -1.95485 0
M  V30 4473 C 425.872 1.51191 -1.47324 0
M  V30 4474 O 425.22 2.17507 -0.700202 0
M  V30 4475 C 425.43 -0.0511206 -3.48963 0
M  V30 4476 C 426.778 0.107632 -4.24464 0
M  V30 4477 O 427.802 0.0226248 -3.56193 0
M  V30 4478 O 426.661 0.285972 -5.45751 0
M  V30 4479 H 423.755 0.0787365 -0.823243 0
M  V30 4480 H 426.301 -0.595662 -1.58902 0
M  V30 4481 H 425.073 -1.05747 -3.7674 0
M  V30 4482 H 424.696 0.650525 -3.92242 0
M  V30 4483 N 425.693 1.55336 -0.266172 0
M  V30 4484 C 427.109 1.59356 0.0882065 0
M  V30 4485 C 427.309 1.2834 1.55342 0
M  V30 4486 O 426.365 1.03996 2.30089 0
M  V30 4487 C 427.678 2.99409 -0.278364 0
M  V30 4488 C 429.226 3.12196 -0.224243 0
M  V30 4489 C 429.701 4.545 -0.565123 0
M  V30 4490 N 431.192 4.60313 -0.51634 0
M  V30 4491 C 431.927 5.68434 -0.753013 0
M  V30 4492 N 431.423 6.84738 -1.05383 0
M  V30 4493 N 433.216 5.57942 -0.682414 0
M  V30 4494 H 425.367 1.73764 -1.22147 0
M  V30 4495 H 427.63 0.809822 -0.492841 0
M  V30 4496 H 427.336 3.2691 -1.29703 0
M  V30 4497 H 427.21 3.75228 0.385186 0
M  V30 4498 H 429.597 2.84464 0.78512 0
M  V30 4499 H 429.678 2.38609 -0.921922 0
M  V30 4500 H 429.322 4.82956 -1.57213 0
M  V30 4501 H 429.252 5.26374 0.154248 0
M  V30 4502 H 431.743 3.7676 -0.29335 0
M  V30 4503 H 432.056 7.63088 -1.22133 0
M  V30 4504 H 430.401 6.86375 -1.09151 0
M  V30 4505 H 433.592 4.65958 -0.44731 0
M  V30 4506 H 433.765 6.4213 -0.870248 0
M  V30 4507 N 427.171 -0.0066808 1.57599 0
M  V30 4508 C 428.417 -0.693947 1.90558 0
M  V30 4509 C 428.75 -1.73792 0.866594 0
M  V30 4510 O 428.025 -1.94156 -0.115548 0
M  V30 4511 C 428.308 -1.34317 3.34112 0
M  V30 4512 C 428.161 -0.311189 4.48722 0
M  V30 4513 C 429.48 -2.27116 3.7697 0
M  V30 4514 H 426.599 -0.250803 0.693013 0
M  V30 4515 H 429.241 0.043242 1.89951 0
M  V30 4516 H 427.391 -1.9715 3.3476 0
M  V30 4517 H 429.063 0.316944 4.6021 0
M  V30 4518 H 427.306 0.367253 4.32243 0
M  V30 4519 H 427.977 -0.804366 5.46108 0
M  V30 4520 H 430.453 -1.74306 3.77831 0
M  V30 4521 H 429.329 -2.69511 4.78179 0
M  V30 4522 H 429.59 -3.14743 3.10466 0
M  V30 4523 N 428.649 -1.55105 -0.279332 0
M  V30 4524 C 429.877 -1.7943 -1.03017 0
M  V30 4525 C 430.292 -0.564456 -1.80165 0
M  V30 4526 O 429.649 0.466326 -1.76442 0
M  V30 4527 C 429.7 -3.0155 -1.99374 0
M  V30 4528 O 429.421 -4.19784 -1.25352 0
M  V30 4529 C 430.922 -3.3843 -2.86321 0
M  V30 4530 H 428.142 -0.597882 -0.304594 0
M  V30 4531 H 430.686 -2.02105 -0.312035 0
M  V30 4532 H 428.841 -2.81019 -2.66659 0
M  V30 4533 H 429.255 -4.88781 -1.90246 0
M  V30 4534 H 430.729 -4.27066 -3.49741 0
M  V30 4535 H 431.206 -2.57549 -3.5576 0
M  V30 4536 H 431.812 -3.61197 -2.24536 0
M  V30 4537 N 430.127 0.543554 -1.4793 0
M  V30 4538 C 431.057 1.65888 -1.64327 0
M  V30 4539 C 432.038 1.62818 -0.492383 0
M  V30 4540 O 433.223 1.80226 -0.723338 0
M  V30 4541 C 430.353 3.04506 -1.67013 0
M  V30 4542 C 429.307 3.2243 -2.81466 0
M  V30 4543 C 428.633 4.61972 -2.69233 0
M  V30 4544 C 429.933 3.06496 -4.22915 0
M  V30 4545 H 431.627 1.52421 -2.57698 0
M  V30 4546 H 429.173 0.731849 -1.24016 0
M  V30 4547 H 431.126 3.82391 -1.77074 0
M  V30 4548 H 429.85 3.18964 -0.70212 0
M  V30 4549 H 428.509 2.46957 -2.70938 0
M  V30 4550 H 428.157 4.73247 -1.7043 0
M  V30 4551 H 427.857 4.74911 -3.46025 0
M  V30 4552 H 429.381 5.41974 -2.81242 0
M  V30 4553 H 430.795 3.74186 -4.34348 0
M  V30 4554 H 429.192 3.30938 -5.006 0
M  V30 4555 H 430.262 2.03077 -4.40327 0
M  V30 4556 N 431.605 1.3629 0.791371 0
M  V30 4557 C 433.021 1.16661 1.08914 0
M  V30 4558 C 433.221 -0.0106266 2.01497 0
M  V30 4559 O 432.277 -0.676596 2.43266 0
M  V30 4560 C 433.59 2.47656 1.70549 0
M  V30 4561 C 435.138 2.54002 1.82899 0
M  V30 4562 C 435.613 3.85078 2.47949 0
M  V30 4563 N 437.104 3.86413 2.5542 0
M  V30 4564 C 437.839 4.84572 3.06557 0
M  V30 4565 N 437.335 5.93124 3.58016 0
M  V30 4566 N 439.128 4.71994 3.05251 0
M  V30 4567 H 431.279 2.11668 0.176238 0
M  V30 4568 H 433.542 0.937486 0.140796 0
M  V30 4569 H 433.248 3.34059 1.09989 0
M  V30 4570 H 433.122 2.63319 2.70079 0
M  V30 4571 H 435.509 1.68018 2.42598 0
M  V30 4572 H 435.59 2.42239 0.821808 0
M  V30 4573 H 435.234 4.71467 1.88895 0
M  V30 4574 H 435.164 3.94135 3.49235 0
M  V30 4575 H 437.655 3.07988 2.18979 0
M  V30 4576 H 437.968 6.63999 3.95381 0
M  V30 4577 H 436.313 5.96796 3.56173 0
M  V30 4578 H 439.504 3.86321 2.64336 0
M  V30 4579 H 439.677 5.48653 3.44796 0
M  V30 4580 N 433.083 -1.0153 1.20538 0
M  V30 4581 C 434.013 -2.11972 0.979295 0
M  V30 4582 C 434.994 -1.6985 -0.0921787 0
M  V30 4583 O 436.179 -1.94089 0.0655932 0
M  V30 4584 C 433.309 -3.43201 0.531984 0
M  V30 4585 C 432.263 -3.9907 1.54685 0
M  V30 4586 C 431.589 -5.26082 0.956127 0
M  V30 4587 C 432.889 -4.32313 2.93092 0
M  V30 4588 H 434.583 -2.31143 1.90298 0
M  V30 4589 H 432.129 -1.11079 0.916372 0
M  V30 4590 H 434.082 -4.1985 0.361044 0
M  V30 4591 H 432.806 -3.23792 -0.427327 0
M  V30 4592 H 431.465 -3.2453 1.70517 0
M  V30 4593 H 431.113 -5.02999 -0.0111538 0
M  V30 4594 H 430.813 -5.64426 1.63393 0
M  V30 4595 H 432.337 -6.05386 0.796284 0
M  V30 4596 H 433.751 -4.99845 2.80763 0
M  V30 4597 H 432.148 -4.81774 3.57791 0
M  V30 4598 H 433.218 -3.41025 3.44717 0
M  V30 4599 N 434.561 -1.01147 -1.20859 0
M  V30 4600 C 435.509 -0.57059 -2.25493 0
M  V30 4601 C 436.503 0.388109 -1.64894 0
M  V30 4602 O 437.709 0.258592 -1.78133 0
M  V30 4603 H 434.084 -0.166191 -0.733406 0
M  V30 4604 H 436.055 -1.46411 -2.60012 0
M  V30 4605 C 434.804 0.0805241 -3.47607 0
M  V30 4606 H 434.127 -0.648156 -3.94511 0
M  V30 4607 H 435.567 0.352197 -4.22535 0
M  V30 4608 C 434.026 1.32175 -3.09889 0
M  V30 4609 O 434.556 2.41553 -3.20959 0
M  V30 4610 N 432.762 1.20392 -2.64488 0
M  V30 4611 H 432.309 0.313905 -2.5568 0
M  V30 4612 H 432.267 2.03541 -2.39621 0
M  V30 4613 N 436.039 1.36541 -0.78704 0
M  V30 4614 C 437.285 1.99599 -0.358872 0
M  V30 4615 C 437.618 1.62323 1.06606 0
M  V30 4616 O 436.893 0.876858 1.73613 0
M  V30 4617 C 437.176 3.56327 -0.519944 0
M  V30 4618 C 437.029 4.03464 -1.98839 0
M  V30 4619 C 438.348 4.4005 0.0664737 0
M  V30 4620 H 435.467 0.725107 -0.131869 0
M  V30 4621 H 438.109 1.6199 -0.992936 0
M  V30 4622 H 436.259 3.88495 0.0198321 0
M  V30 4623 H 437.931 3.81793 -2.58905 0
M  V30 4624 H 436.174 3.55092 -2.49183 0
M  V30 4625 H 436.845 5.12439 -2.05207 0
M  V30 4626 H 439.321 4.14228 -0.394267 0
M  V30 4627 H 438.197 5.48847 -0.0762682 0
M  V30 4628 H 438.458 4.26655 1.15835 0
M  V30 4629 N 437.518 0.538854 1.48102 0
M  V30 4630 C 438.428 -0.222648 2.33541 0
M  V30 4631 C 439.444 -0.930225 1.47047 0
M  V30 4632 O 440.62 -0.903211 1.80011 0
M  V30 4633 C 437.685 -1.25064 3.23357 0
M  V30 4634 C 436.746 -0.552469 4.2573 0
M  V30 4635 C 435.979 -1.53149 5.11254 0
M  V30 4636 O 436.202 -2.76487 4.9891 0
M  V30 4637 O 435.136 -1.06602 5.92385 0
M  V30 4638 H 438.962 0.477707 2.99919 0
M  V30 4639 H 436.547 0.299669 1.46364 0
M  V30 4640 H 438.429 -1.8445 3.78888 0
M  V30 4641 H 437.104 -1.93325 2.59629 0
M  V30 4642 H 436.011 0.082114 3.7401 0
M  V30 4643 H 437.344 0.0883526 4.92121 0
M  V30 4644 N 438.996 -1.55193 0.274407 0
M  V30 4645 C 439.944 -2.23924 -0.629362 0
M  V30 4646 C 440.938 -1.23602 -1.1584 0
M  V30 4647 O 442.144 -1.41535 -1.11211 0
M  V30 4648 H 438.519 -0.718637 -0.221507 0
M  V30 4649 H 440.49 -2.98388 -0.0268322 0
M  V30 4650 C 439.239 -2.97329 -1.80252 0
M  V30 4651 H 438.562 -3.74313 -1.40462 0
M  V30 4652 H 440.002 -3.48743 -2.41152 0
M  V30 4653 C 438.461 -2.0276 -2.69054 0
M  V30 4654 O 438.991 -1.57836 -3.69392 0
M  V30 4655 N 437.197 -1.69275 -2.36208 0
M  V30 4656 H 436.744 -2.06004 -1.54661 0
M  V30 4657 H 436.702 -1.06271 -2.95895 0
M  V30 4658 N 440.474 -0.00167713 -1.576 0
M  V30 4659 C 441.885 0.54091 -1.78693 0
M  V30 4660 C 442.236 1.7386 -0.909247 0
M  V30 4661 O 441.361 2.16109 -0.112176 0
M  V30 4662 C 441.956 0.98806 -3.24072 0
M  V30 4663 C 440.515 1.47594 -3.46256 0
M  V30 4664 C 439.662 0.42792 -2.73978 0
M  V30 4665 H 442.613 -0.22784 -1.57056 0
M  V30 4666 H 442.634 1.85398 -3.32277 0
M  V30 4667 H 442.146 0.116164 -3.87926 0
M  V30 4668 H 440.247 2.36868 -2.87618 0
M  V30 4669 H 440.36 1.50225 -4.54939 0
M  V30 4670 H 438.724 0.889934 -2.38647 0
M  V30 4671 H 439.507 -0.435038 -3.40532 0
M  V30 4672 N 441.952 1.55251 0.271103 0
M  V30 4673 C 442.899 1.88261 1.33516 0
M  V30 4674 C 443.869 0.734296 1.48988 0
M  V30 4675 O 445.054 0.985741 1.63364 0
M  V30 4676 C 442.194 2.16168 2.69008 0
M  V30 4677 C 441.307 3.43678 2.61743 0
M  V30 4678 C 440.442 3.61276 3.89427 0
M  V30 4679 C 439.481 4.82472 3.7668 0
M  V30 4680 N 438.618 4.96717 4.96202 0
M  V30 4681 H 443.458 2.79015 1.04665 0
M  V30 4682 H 440.995 1.38137 0.505618 0
M  V30 4683 H 442.953 2.30349 3.47844 0
M  V30 4684 H 441.583 1.28646 2.96057 0
M  V30 4685 H 440.635 3.37959 1.74607 0
M  V30 4686 H 441.947 4.3265 2.48224 0
M  V30 4687 H 441.101 3.75284 4.76704 0
M  V30 4688 H 439.84 2.70492 4.05814 0
M  V30 4689 H 438.845 4.68465 2.87786 0
M  V30 4690 H 440.07 5.74692 3.61809 0
M  V30 4691 H 438.016 4.08865 5.12997 0
M  V30 4692 H 437.933 5.79738 4.85222 0
M  V30 4693 H 439.201 5.15113 5.85046 0
M  V30 4694 N 443.43 -0.535701 1.48216 0
M  V30 4695 C 444.36 -1.65014 1.65204 0
M  V30 4696 C 445.341 -1.62554 0.501011 0
M  V30 4697 O 446.526 -1.7984 0.732886 0
M  V30 4698 C 443.656 -3.03616 1.68626 0
M  V30 4699 C 442.61 -3.20932 2.83172 0
M  V30 4700 C 441.936 -4.60537 2.71679 0
M  V30 4701 C 443.236 -3.04249 4.24535 0
M  V30 4702 H 444.93 -1.51053 2.58502 0
M  V30 4703 H 442.476 -0.725262 1.24402 0
M  V30 4704 H 444.429 -3.81446 1.79099 0
M  V30 4705 H 443.153 -3.18587 0.719026 0
M  V30 4706 H 441.812 -2.45517 2.72244 0
M  V30 4707 H 441.46 -4.72336 1.72937 0
M  V30 4708 H 441.16 -4.73069 3.48538 0
M  V30 4709 H 442.684 -5.40475 2.84112 0
M  V30 4710 H 444.098 -3.71877 4.36326 0
M  V30 4711 H 442.495 -3.28278 5.02348 0
M  V30 4712 H 443.565 -2.00739 4.41397 0
M  V30 4713 N 444.908 -1.36708 -0.784132 0
M  V30 4714 C 446.154 -1.32433 -1.54379 0
M  V30 4715 C 446.509 0.0941816 -1.92169 0
M  V30 4716 O 445.802 1.04997 -1.60269 0
M  V30 4717 C 445.996 -2.18571 -2.82774 0
M  V30 4718 C 445.825 -3.68656 -2.57533 0
M  V30 4719 C 444.595 -4.37813 -2.52286 0
M  V30 4720 C 446.793 -4.61802 -2.2637 0
M  V30 4721 N 444.775 -5.7351 -2.18997 0
M  V30 4722 C 446.146 -5.85785 -2.03115 0
M  V30 4723 C 448.201 -4.50313 -2.12421 0
M  V30 4724 C 446.904 -6.99569 -1.67321 0
M  V30 4725 C 448.93 -5.63969 -1.78026 0
M  V30 4726 C 448.292 -6.86994 -1.55622 0
M  V30 4727 H 444.391 -0.539886 -0.565727 0
M  V30 4728 H 446.975 -1.71812 -0.915908 0
M  V30 4729 H 445.146 -1.81429 -3.43421 0
M  V30 4730 H 446.878 -2.05646 -3.48557 0
M  V30 4731 H 443.633 -3.90674 -2.67714 0
M  V30 4732 H 444.057 -6.45189 -2.05084 0
M  V30 4733 H 448.699 -3.55781 -2.28429 0
M  V30 4734 H 446.417 -7.94047 -1.5005 0
M  V30 4735 H 450.003 -5.57044 -1.67909 0
M  V30 4736 H 448.883 -7.7345 -1.294 0
M  V30 4737 N 446.386 1.0089 -1.21074 0
M  V30 4738 C 447.611 1.78727 -1.05221 0
M  V30 4739 C 448.036 1.83932 0.393795 0
M  V30 4740 O 447.394 1.28004 1.28393 0
M  V30 4741 C 447.442 3.20665 -1.64944 0
M  V30 4742 O 446.546 4.02632 -0.892273 0
M  V30 4743 H 445.887 0.550973 -0.370574 0
M  V30 4744 H 448.417 1.26847 -1.60534 0
M  V30 4745 H 448.427 3.71352 -1.69002 0
M  V30 4746 H 447.102 3.16191 -2.70177 0
M  V30 4747 H 445.679 3.61207 -0.926492 0
M  V30 4748 N 447.864 1.01787 1.20321 0
M  V30 4749 C 448.827 0.593972 2.2137 0
M  V30 4750 C 449.827 -0.336553 1.57239 0
M  V30 4751 O 451.017 -0.125069 1.7375 0
M  V30 4752 C 448.149 -0.132433 3.40643 0
M  V30 4753 H 449.342 1.48791 2.60387 0
M  V30 4754 H 446.895 0.807803 1.33807 0
M  V30 4755 H 447.63 -1.04123 3.0713 0
M  V30 4756 H 447.415 0.53605 3.88418 0
M  V30 4757 H 448.905 -0.416314 4.1552 0
M  V30 4758 N 449.342 -1.36122 0.79427 0
M  V30 4759 C 450.252 -2.33769 0.197296 0
M  V30 4760 C 451.268 -1.61276 -0.653153 0
M  V30 4761 O 452.444 -1.9323 -0.5678 0
M  V30 4762 C 449.509 -3.40474 -0.654098 0
M  V30 4763 C 448.57 -4.28759 0.215411 0
M  V30 4764 C 447.803 -5.30368 -0.595443 0
M  V30 4765 O 448.026 -5.40211 -1.83107 0
M  V30 4766 O 446.96 -6.019 0.00721351 0
M  V30 4767 H 450.786 -2.86597 1.00478 0
M  V30 4768 H 448.371 -1.38676 0.555818 0
M  V30 4769 H 450.253 -4.05703 -1.13944 0
M  V30 4770 H 448.928 -2.89937 -1.43938 0
M  V30 4771 H 447.835 -3.66554 0.747615 0
M  V30 4772 H 449.168 -4.82661 0.964332 0
M  V30 4773 N 450.82 -0.546701 -1.47814 0
M  V30 4774 C 452.069 -0.0166497 -2.01693 0
M  V30 4775 C 452.382 1.33721 -1.42752 0
M  V30 4776 O 453.588 1.95658 -1.8823 0
M  V30 4777 C 452.044 0.0206769 -3.59894 0
M  V30 4778 C 451.652 -1.3293 -4.27824 0
M  V30 4779 C 453.396 0.498674 -4.21561 0
M  V30 4780 C 451.303 -1.25165 -5.78003 0
M  V30 4781 H 450.233 -0.0024541 -0.753996 0
M  V30 4782 H 452.884 -0.692984 -1.69912 0
M  V30 4783 H 451.266 0.76244 -3.88591 0
M  V30 4784 H 452.44 -2.08795 -4.10781 0
M  V30 4785 H 450.755 -1.74438 -3.78101 0
M  V30 4786 H 453.352 0.575 -5.31599 0
M  V30 4787 H 453.695 1.5083 -3.88016 0
M  V30 4788 H 454.228 -0.18791 -3.97356 0
M  V30 4789 H 450.967 -2.23695 -6.1615 0
M  V30 4790 H 450.487 -0.53464 -5.97412 0
M  V30 4791 H 452.166 -0.949299 -6.39998 0
M  V30 4792 N 452.299 1.55045 -0.282633 0
M  V30 4793 C 453.71 1.85473 0.213655 0
M  V30 4794 C 454.061 1.20465 1.54863 0
M  V30 4795 O 453.186 0.495676 2.10647 0
M  V30 4796 C 453.781 3.36496 0.394445 0
M  V30 4797 C 452.34 3.67022 0.834961 0
M  V30 4798 C 451.487 2.77218 -0.0674081 0
M  V30 4799 H 454.438 1.50478 -0.504202 0
M  V30 4800 H 454.459 3.60007 1.23186 0
M  V30 4801 H 453.971 3.83782 -0.577326 0
M  V30 4802 H 452.072 3.25241 1.81794 0
M  V30 4803 H 452.185 4.74433 0.667075 0
M  V30 4804 H 450.549 2.5069 0.450196 0
M  V30 4805 H 451.332 3.2732 -1.0352 0
M  V30 4806 N 453.777 0.010035 1.57597 0
M  V30 4807 C 454.725 -0.996272 2.10184 0
M  V30 4808 C 455.719 -1.34942 1.02406 0
M  V30 4809 O 456.925 -1.33389 1.20861 0
M  V30 4810 H 453.3 -0.338982 0.671264 0
M  V30 4811 H 455.271 -0.527272 2.93705 0
M  V30 4812 C 454.02 -2.27599 2.62857 0
M  V30 4813 H 453.343 -2.01295 3.45428 0
M  V30 4814 H 454.783 -2.96265 3.0332 0
M  V30 4815 C 453.242 -2.99269 1.54725 0
M  V30 4816 O 453.772 -3.90644 0.93597 0
M  V30 4817 N 451.978 -2.61269 1.27228 0
M  V30 4818 H 451.525 -1.87043 1.77123 0
M  V30 4819 H 451.483 -3.09534 0.550999 0
M  V30 4820 N 455.255 -1.55392 -0.262866 0
M  V30 4821 C 456.185 -1.91978 -1.32917 0
M  V30 4822 C 457.166 -0.7828 -1.51017 0
M  V30 4823 O 458.351 -1.04178 -1.63892 0
M  V30 4824 C 455.481 -2.20055 -2.68687 0
M  V30 4825 C 454.435 -3.35854 -2.65304 0
M  V30 4826 C 453.761 -3.49435 -4.04721 0
M  V30 4827 C 455.061 -4.71977 -2.23685 0
M  V30 4828 H 456.755 -2.81292 -1.02544 0
M  V30 4829 H 454.301 -1.3534 -0.491846 0
M  V30 4830 H 456.254 -2.44237 -3.43404 0
M  V30 4831 H 454.978 -1.27551 -3.00663 0
M  V30 4832 H 453.637 -3.11655 -1.93045 0
M  V30 4833 H 453.285 -2.54379 -4.33936 0
M  V30 4834 H 452.985 -4.27297 -4.0335 0
M  V30 4835 H 454.509 -3.7592 -4.81161 0
M  V30 4836 H 455.923 -4.95637 -2.88127 0
M  V30 4837 H 454.32 -5.52828 -2.33456 0
M  V30 4838 H 455.39 -4.70115 -1.18827 0
M  V30 4839 N 456.733 0.527833 -1.48498 0
M  V30 4840 C 457.963 1.30633 -1.60058 0
M  V30 4841 C 458.371 1.87394 -0.260786 0
M  V30 4842 O 457.714 1.67227 0.760317 0
M  V30 4843 C 457.776 2.49361 -2.58958 0
M  V30 4844 C 457.44 2.13671 -4.03972 0
M  V30 4845 C 458.437 1.69217 -4.91591 0
M  V30 4846 C 456.122 2.24129 -4.49524 0
M  V30 4847 C 458.116 1.35689 -6.2279 0
M  V30 4848 C 455.803 1.90212 -5.80743 0
M  V30 4849 C 456.801 1.46063 -6.67199 0
M  V30 4850 O 456.489 1.12593 -7.95976 0
M  V30 4851 H 456.221 0.403444 -0.54241 0
M  V30 4852 H 458.775 0.643233 -1.95068 0
M  V30 4853 H 457.005 3.18659 -2.19073 0
M  V30 4854 H 458.694 3.11421 -2.6033 0
M  V30 4855 H 459.46 1.60607 -4.57636 0
M  V30 4856 H 455.339 2.57447 -3.82416 0
M  V30 4857 H 458.883 1.01157 -6.90227 0
M  V30 4858 H 454.78 1.98464 -6.14233 0
M  V30 4859 H 455.548 1.25972 -8.08748 0
M  V30 4860 N 458.211 1.37122 0.776871 0
M  V30 4861 C 459.627 1.1781 1.07671 0
M  V30 4862 C 459.827 0.0107454 2.01497 0
M  V30 4863 O 458.883 -0.650756 2.4397 0
M  V30 4864 C 460.196 2.49451 1.67913 0
M  V30 4865 C 461.744 2.55927 1.80195 0
M  V30 4866 C 462.219 3.87686 2.43851 0
M  V30 4867 N 463.71 3.891 2.51307 0
M  V30 4868 C 464.445 4.87797 3.014 0
M  V30 4869 N 463.941 5.96888 3.51705 0
M  V30 4870 N 465.734 4.75205 3.00227 0
M  V30 4871 H 457.885 2.11843 0.153778 0
M  V30 4872 H 460.148 0.938927 0.130844 0
M  V30 4873 H 459.854 3.35207 1.06439 0
M  V30 4874 H 459.728 2.66169 2.67271 0
M  V30 4875 H 462.115 1.70582 2.40803 0
M  V30 4876 H 462.196 2.43097 0.796069 0
M  V30 4877 H 461.84 4.73444 1.83884 0
M  V30 4878 H 461.77 3.97817 3.45035 0
M  V30 4879 H 464.261 3.10293 2.157 0
M  V30 4880 H 464.574 6.68155 3.88316 0
M  V30 4881 H 462.919 6.0054 3.49824 0
M  V30 4882 H 466.11 3.89103 2.60224 0
M  V30 4883 H 466.283 5.52279 3.38957 0
M  V30 4884 N 459.689 -1.00246 1.21608 0
M  V30 4885 C 460.652 -2.07233 0.979133 0
M  V30 4886 C 461.652 -1.6072 -0.0508219 0
M  V30 4887 O 462.842 -1.73196 0.186712 0
M  V30 4888 C 459.974 -3.37546 0.477016 0
M  V30 4889 H 461.167 -2.29687 1.92831 0
M  V30 4890 H 458.72 -1.17261 1.03342 0
M  V30 4891 H 459.455 -3.20773 -0.476966 0
M  V30 4892 H 459.24 -3.72638 1.21997 0
M  V30 4893 H 460.73 -4.16285 0.331181 0
M  V30 4894 N 461.167 -1.02423 -1.1978 0
M  V30 4895 C 462.413 -0.719051 -1.89625 0
M  V30 4896 C 462.746 0.750083 -1.7913 0
M  V30 4897 O 462.021 1.54574 -1.18056 0
M  V30 4898 C 462.304 -1.16499 -3.40735 0
M  V30 4899 C 462.157 -2.695 -3.60125 0
M  V30 4900 C 463.476 -0.742166 -4.33797 0
M  V30 4901 H 460.595 -0.26269 -0.688595 0
M  V30 4902 H 463.237 -1.27333 -1.41018 0
M  V30 4903 H 461.387 -0.69341 -3.82262 0
M  V30 4904 H 463.059 -3.24569 -3.278 0
M  V30 4905 H 461.302 -3.10113 -3.03336 0
M  V30 4906 H 461.973 -2.95757 -4.66081 0
M  V30 4907 H 464.449 -1.1477 -3.99959 0
M  V30 4908 H 463.325 -1.08213 -5.38127 0
M  V30 4909 H 463.586 0.355747 -4.40666 0
M  V30 4910 N 462.645 1.35699 -0.801477 0
M  V30 4911 C 463.891 1.99208 -0.380022 0
M  V30 4912 C 464.224 1.63445 1.04878 0
M  V30 4913 O 463.499 0.895223 1.72673 0
M  V30 4914 C 463.782 3.55755 -0.557708 0
M  V30 4915 C 463.635 4.01332 -2.03107 0
M  V30 4916 C 464.954 4.40096 0.0197968 0
M  V30 4917 H 462.073 0.723667 -0.139552 0
M  V30 4918 H 464.715 1.60928 -1.01006 0
M  V30 4919 H 462.865 3.88494 -0.0213741 0
M  V30 4920 H 464.537 3.79026 -2.62939 0
M  V30 4921 H 462.78 3.52429 -2.52936 0
M  V30 4922 H 463.451 5.10234 -2.1063 0
M  V30 4923 H 465.927 4.13786 -0.438179 0
M  V30 4924 H 464.803 5.48735 -0.134477 0
M  V30 4925 H 465.064 4.2786 1.11303 0
M  V30 4926 N 464.123 0.554532 1.47522 0
M  V30 4927 C 465.033 -0.197865 2.33764 0
M  V30 4928 C 466.049 -0.914576 1.48025 0
M  V30 4929 O 467.225 -0.884067 1.80959 0
M  V30 4930 C 464.29 -1.21628 3.24665 0
M  V30 4931 C 463.351 -0.507283 4.26292 0
M  V30 4932 C 462.584 -1.47718 5.1285 0
M  V30 4933 O 462.807 -2.7118 5.01814 0
M  V30 4934 O 461.741 -1.00313 5.93482 0
M  V30 4935 H 465.567 0.50949 2.99396 0
M  V30 4936 H 463.152 0.315176 1.46038 0
M  V30 4937 H 465.034 -1.80421 3.80823 0
M  V30 4938 H 463.709 -1.9056 2.61665 0
M  V30 4939 H 462.616 0.121778 3.73902 0
M  V30 4940 H 463.949 0.140544 4.91999 0
M  V30 4941 N 465.601 -1.54893 0.290851 0
M  V30 4942 C 466.531 -2.26103 -0.583084 0
M  V30 4943 C 467.512 -1.25684 -1.14619 0
M  V30 4944 O 468.697 -1.54436 -1.17741 0
M  V30 4945 C 465.827 -2.99409 -1.75987 0
M  V30 4946 C 464.781 -4.0689 -1.32758 0
M  V30 4947 C 464.107 -4.67856 -2.58872 0
M  V30 4948 C 465.407 -5.20215 -0.46624 0
M  V30 4949 H 467.101 -2.99398 0.0108214 0
M  V30 4950 H 464.647 -1.43998 0.00664468 0
M  V30 4951 H 466.6 -3.47943 -2.37727 0
M  V30 4952 H 465.324 -2.23675 -2.37985 0
M  V30 4953 H 463.983 -3.59191 -0.733299 0
M  V30 4954 H 463.631 -3.88772 -3.19163 0
M  V30 4955 H 463.331 -5.40438 -2.30653 0
M  V30 4956 H 464.855 -5.19147 -3.21433 0
M  V30 4957 H 466.269 -5.64704 -0.989047 0
M  V30 4958 H 464.666 -5.99455 -0.27826 0
M  V30 4959 H 465.736 -4.82198 0.511173 0
M  V30 4960 N 467.08 -0.0183926 -1.57589 0
M  V30 4961 C 468.03 0.975944 -2.06057 0
M  V30 4962 C 469.014 1.29204 -0.958908 0
M  V30 4963 O 470.206 1.27995 -1.22255 0
M  V30 4964 C 467.335 2.26194 -2.58247 0
M  V30 4965 C 466.421 1.97467 -3.75323 0
M  V30 4966 N 466.812 1.38968 -4.86335 0
M  V30 4967 C 465.11 2.27515 -3.83605 0
M  V30 4968 C 465.811 1.27131 -5.67638 0
M  V30 4969 N 464.787 1.76319 -5.14211 0
M  V30 4970 H 468.589 0.518444 -2.89291 0
M  V30 4971 H 466.103 0.18688 -1.61321 0
M  V30 4972 H 468.1 2.98289 -2.91255 0
M  V30 4973 H 466.76 2.7258 -1.76438 0
M  V30 4974 H 467.771 1.06608 -5.06809 0
M  V30 4975 H 464.448 2.76649 -3.12684 0
M  V30 4976 H 465.838 0.819882 -6.66879 0
M  V30 4977 N 468.558 1.5553 0.254621 0
M  V30 4978 C 469.786 1.81046 1.00149 0
M  V30 4979 C 470.201 0.593047 1.79244 0
M  V30 4980 O 469.558 -0.438196 1.77161 0
M  V30 4981 C 469.609 3.04684 1.94551 0
M  V30 4982 O 469.33 4.21725 1.18658 0
M  V30 4983 C 470.831 3.42943 2.80901 0
M  V30 4984 H 468.051 0.602653 0.295044 0
M  V30 4985 H 470.595 2.02576 0.279842 0
M  V30 4986 H 468.75 2.85226 2.62154 0
M  V30 4987 H 469.164 4.91746 1.82445 0
M  V30 4988 H 470.638 4.32576 3.42902 0
M  V30 4989 H 471.115 2.63176 3.51617 0
M  V30 4990 H 471.721 3.64724 2.18762 0
M  V30 4991 N 470.036 -0.519951 1.48776 0
M  V30 4992 C 470.999 -1.60574 1.6355 0
M  V30 4993 C 471.999 -1.52557 0.508234 0
M  V30 4994 O 473.189 -1.56047 0.774262 0
M  V30 4995 C 470.321 -3.00211 1.61512 0
M  V30 4996 H 471.514 -1.4881 2.60376 0
M  V30 4997 H 469.067 -0.742772 1.37523 0
M  V30 4998 H 469.802 -3.17471 0.662009 0
M  V30 4999 H 469.587 -3.07439 2.43359 0
M  V30 5000 H 471.077 -3.79134 1.75064 0
M  V30 5001 N 471.514 -1.37532 -0.769588 0
M  V30 5002 C 472.791 -1.23392 -1.51768 0
M  V30 5003 C 473.171 0.17157 -2.10402 0
M  V30 5004 O 472.519 1.17943 -1.95708 0
M  V30 5005 C 472.729 -2.33163 -2.59685 0
M  V30 5006 C 474.077 -2.70809 -3.27028 0
M  V30 5007 O 475.101 -2.32355 -2.69981 0
M  V30 5008 O 473.96 -3.37066 -4.30173 0
M  V30 5009 H 471.054 -0.481617 -0.67229 0
M  V30 5010 H 473.6 -1.49318 -0.806368 0
M  V30 5011 H 472.372 -3.27273 -2.14494 0
M  V30 5012 H 471.995 -2.08713 -3.38415 0
M  V30 5013 N 472.992 0.995999 -1.22138 0
M  V30 5014 C 474.24 1.73167 -1.042 0
M  V30 5015 C 474.561 1.90329 0.42423 0
M  V30 5016 O 473.831 1.4607 1.30539 0
M  V30 5017 H 472.411 0.641593 -0.38258 0
M  V30 5018 H 475.073 1.19974 -1.53598 0
M  V30 5019 H 474.169 2.72734 -1.51731 0
M  V30 5020 N 474.47 1.03057 1.19235 0
M  V30 5021 C 475.698 0.747697 1.92917 0
M  V30 5022 C 476.113 -0.69372 1.75593 0
M  V30 5023 O 475.47 -1.47191 1.07894 0
M  V30 5024 C 475.521 1.09159 3.44625 0
M  V30 5025 O 475.242 2.47641 3.61394 0
M  V30 5026 C 476.743 0.831763 4.35427 0
M  V30 5027 H 473.963 0.273453 0.612751 0
M  V30 5028 H 476.507 1.37552 1.51327 0
M  V30 5029 H 474.662 0.508919 3.84043 0
M  V30 5030 H 475.076 2.60499 4.55237 0
M  V30 5031 H 476.55 1.12233 5.4047 0
M  V30 5032 H 477.027 -0.233769 4.38577 0
M  V30 5033 H 477.633 1.39725 4.01693 0
M  V30 5034 N 475.948 -1.35272 0.808662 0
M  V30 5035 C 476.878 -2.32315 0.234981 0
M  V30 5036 C 477.859 -1.57572 -0.64071 0
M  V30 5037 O 479.044 -1.8563 -0.570551 0
M  V30 5038 C 476.174 -3.41801 -0.615601 0
M  V30 5039 C 475.128 -4.27694 0.161767 0
M  V30 5040 C 474.454 -5.28519 -0.810649 0
M  V30 5041 C 475.754 -5.04231 1.36193 0
M  V30 5042 H 477.448 -2.80543 1.04575 0
M  V30 5043 H 474.994 -1.3488 0.504315 0
M  V30 5044 H 476.947 -4.08693 -1.02702 0
M  V30 5045 H 475.671 -2.92186 -1.45928 0
M  V30 5046 H 474.33 -3.62384 0.554382 0
M  V30 5047 H 473.978 -4.75171 -1.64988 0
M  V30 5048 H 473.678 -5.8686 -0.294822 0
M  V30 5049 H 475.202 -5.98283 -1.22023 0
M  V30 5050 H 476.616 -5.64058 1.02528 0
M  V30 5051 H 475.013 -5.72077 1.81239 0
M  V30 5052 H 476.083 -4.34753 2.14751 0
M  V30 5053 N 477.426 -0.562348 -1.47226 0
M  V30 5054 C 478.675 -0.038041 -2.01664 0
M  V30 5055 C 478.988 1.32199 -1.44162 0
M  V30 5056 O 480.194 1.9365 -1.90294 0
M  V30 5057 C 478.65 -0.0174958 -3.59896 0
M  V30 5058 C 478.258 -1.3746 -4.2639 0
M  V30 5059 C 480.002 0.453934 -4.22066 0
M  V30 5060 C 477.909 -1.31289 -5.76643 0
M  V30 5061 H 476.839 -0.0104511 -0.753928 0
M  V30 5062 H 479.49 -0.710966 -1.69167 0
M  V30 5063 H 477.872 0.721182 -3.89378 0
M  V30 5064 H 479.046 -2.1314 -4.08544 0
M  V30 5065 H 477.361 -1.78438 -3.7623 0
M  V30 5066 H 479.958 0.518584 -5.32179 0
M  V30 5067 H 480.301 1.46706 -3.89594 0
M  V30 5068 H 480.834 -0.230044 -3.97134 0
M  V30 5069 H 477.573 -2.30217 -6.13743 0
M  V30 5070 H 477.093 -0.597973 -5.96812 0
M  V30 5071 H 478.772 -1.01713 -6.38955 0
M  V30 5072 N 478.904 1.54736 -0.299062 0
M  V30 5073 C 479.814 2.27127 0.587413 0
M  V30 5074 C 480.83 1.30575 1.15005 0
M  V30 5075 O 482.006 1.63554 1.17525 0
M  V30 5076 C 479.071 2.99645 1.74395 0
M  V30 5077 C 478.132 4.11731 1.21559 0
M  V30 5078 C 477.365 4.80781 2.317 0
M  V30 5079 O 477.588 4.4918 3.51558 0
M  V30 5080 O 476.522 5.68226 1.98501 0
M  V30 5081 H 480.348 3.037 0.000250109 0
M  V30 5082 H 477.933 1.49256 -0.0655919 0
M  V30 5083 H 479.815 3.45138 2.4178 0
M  V30 5084 H 478.49 2.25969 2.31775 0
M  V30 5085 H 477.397 3.70641 0.507514 0
M  V30 5086 H 478.73 4.87379 0.687233 0
M  V30 5087 N 480.382 0.0267497 1.57577 0
M  V30 5088 C 481.345 -0.940916 2.08996 0
M  V30 5089 C 482.345 -1.25561 1.00455 0
M  V30 5090 O 483.535 -1.19634 1.26623 0
M  V30 5091 C 480.667 -2.25814 2.55384 0
M  V30 5092 H 481.86 -0.495628 2.95776 0
M  V30 5093 H 479.413 -0.221241 1.54726 0
M  V30 5094 H 480.148 -2.74976 1.71926 0
M  V30 5095 H 479.933 -2.04285 3.34679 0
M  V30 5096 H 481.423 -2.95178 2.95398 0
M  V30 5097 N 481.861 -1.55662 -0.24637 0
M  V30 5098 C 482.771 -1.93495 -1.32653 0
M  V30 5099 C 483.787 -0.835462 -1.5263 0
M  V30 5100 O 484.963 -1.1369 -1.66242 0
M  V30 5101 C 482.028 -2.22242 -2.66101 0
M  V30 5102 C 481.089 -3.45625 -2.54641 0
M  V30 5103 C 480.322 -3.72991 -3.81724 0
M  V30 5104 O 480.545 -3.02421 -4.8363 0
M  V30 5105 O 479.479 -4.66515 -3.80325 0
M  V30 5106 H 483.305 -2.85498 -1.03559 0
M  V30 5107 H 480.89 -1.42551 -0.44717 0
M  V30 5108 H 482.772 -2.42037 -3.44958 0
M  V30 5109 H 481.447 -1.33417 -2.94926 0
M  V30 5110 H 480.354 -3.31136 -1.74067 0
M  V30 5111 H 481.687 -4.34754 -2.3076 0
M  V30 5112 N 483.339 0.512053 -1.4905 0
M  V30 5113 C 484.302 1.59704 -1.64399 0
M  V30 5114 C 485.302 1.52285 -0.516317 0
M  V30 5115 O 486.492 1.55635 -0.782527 0
M  V30 5116 C 483.624 2.9935 -1.63102 0
M  V30 5117 H 484.817 1.47428 -2.61161 0
M  V30 5118 H 482.37 0.735469 -1.37915 0
M  V30 5119 H 483.105 3.17116 -0.678836 0
M  V30 5120 H 482.89 3.06144 -2.44986 0
M  V30 5121 H 484.38 3.782 -1.77072 0
M  V30 5122 N 484.817 1.37938 0.762283 0
M  V30 5123 C 486.057 1.35076 1.53407 0
M  V30 5124 C 486.421 -0.061546 1.91901 0
M  V30 5125 O 487.622 -0.214973 2.67939 0
M  V30 5126 C 485.893 2.27206 2.75884 0
M  V30 5127 S 487.452 2.42283 3.65848 0
M  V30 5128 H 484.27 0.479387 0.52508 0
M  V30 5129 H 486.872 1.7378 0.895586 0
M  V30 5130 H 485.576 3.28724 2.457 0
M  V30 5131 H 485.107 1.8962 3.44685 0
M  V30 5132 H 487.122 1.64044 4.68299 0
M  V30 5133 N 486.295 -0.989507 1.22664 0
M  V30 5134 C 487.572 -1.70326 0.961688 0
M  V30 5135 C 487.952 -2.04537 -0.522279 0
M  V30 5136 O 487.3 -1.73136 -1.49118 0
M  V30 5137 C 487.51 -2.95135 1.86269 0
M  V30 5138 C 488.858 -3.67842 2.12078 0
M  V30 5139 O 489.882 -3.0515 1.83745 0
M  V30 5140 O 488.741 -4.80644 2.60083 0
M  V30 5141 H 485.835 -0.743589 0.361946 0
M  V30 5142 H 488.381 -1.04555 1.33665 0
M  V30 5143 H 487.153 -2.66382 2.8663 0
M  V30 5144 H 486.776 -3.68645 1.48952 0
M  V30 5145 N 487.773 -1.03688 -1.18687 0
M  V30 5146 C 489.019 -0.739123 -1.88851 0
M  V30 5147 C 489.352 0.731042 -1.79915 0
M  V30 5148 O 488.627 1.53313 -1.19688 0
M  V30 5149 C 488.91 -1.20106 -3.3948 0
M  V30 5150 C 488.763 -2.73304 -3.57246 0
M  V30 5151 C 490.082 -0.788134 -4.32986 0
M  V30 5152 H 487.201 -0.269978 -0.68577 0
M  V30 5153 H 489.843 -1.28822 -1.3966 0
M  V30 5154 H 487.993 -0.733915 -3.81505 0
M  V30 5155 H 489.665 -3.28027 -3.24339 0
M  V30 5156 H 487.908 -3.13313 -3.00029 0
M  V30 5157 H 488.579 -3.00684 -4.62918 0
M  V30 5158 H 491.055 -1.19005 -3.98719 0
M  V30 5159 H 489.931 -1.13915 -5.36949 0
M  V30 5160 H 490.192 0.308988 -4.41019 0
M  V30 5161 N 489.251 1.34841 -0.815825 0
M  V30 5162 C 490.499 1.98107 -0.399744 0
M  V30 5163 C 490.82 1.65019 1.03894 0
M  V30 5164 O 490.09 0.937311 1.72021 0
M  V30 5165 H 488.67 0.732827 -0.144823 0
M  V30 5166 H 491.332 1.64599 -1.0437 0
M  V30 5167 H 490.428 3.07856 -0.512965 0
M  V30 5168 N 490.729 0.570148 1.46925 0
M  V30 5169 C 491.976 0.0509529 2.02436 0
M  V30 5170 C 492.304 -1.30405 1.44308 0
M  V30 5171 O 491.559 -1.86493 0.593198 0
M  V30 5172 C 491.858 -0.0780336 3.57315 0
M  V30 5173 C 491.524 1.20775 4.34424 0
M  V30 5174 C 490.186 1.56004 4.5521 0
M  V30 5175 C 492.538 2.0592 4.78797 0
M  V30 5176 C 489.866 2.76201 5.17619 0
M  V30 5177 C 492.218 3.25332 5.42533 0
M  V30 5178 C 490.882 3.60859 5.61549 0
M  V30 5179 H 490.152 0.018645 0.740765 0
M  V30 5180 H 492.799 0.744262 1.76445 0
M  V30 5181 H 491.104 -0.854394 3.82371 0
M  V30 5182 H 492.801 -0.495312 3.97929 0
M  V30 5183 H 489.391 0.923469 4.18533 0
M  V30 5184 H 493.575 1.80008 4.62505 0
M  V30 5185 H 488.831 3.0388 5.30535 0
M  V30 5186 H 493.005 3.91586 5.75876 0
M  V30 5187 H 490.632 4.54088 6.09678 0
M  V30 5188 N 492.207 -1.54576 0.307264 0
M  V30 5189 C 493.623 -1.59534 -0.0459251 0
M  V30 5190 C 493.823 -1.32414 -1.51884 0
M  V30 5191 O 492.879 -1.1006 -2.27251 0
M  V30 5192 C 494.192 -2.98566 0.357649 0
M  V30 5193 C 495.74 -3.11491 0.306937 0
M  V30 5194 C 496.215 -4.52842 0.685427 0
M  V30 5195 N 497.706 -4.58782 0.638203 0
M  V30 5196 C 498.441 -5.66238 0.903458 0
M  V30 5197 N 497.937 -6.81703 1.23501 0
M  V30 5198 N 499.73 -5.55937 0.830102 0
M  V30 5199 H 491.881 -1.70464 1.26712 0
M  V30 5200 H 494.144 -0.79647 0.514139 0
M  V30 5201 H 493.85 -3.23356 1.38325 0
M  V30 5202 H 493.724 -3.76117 -0.285565 0
M  V30 5203 H 496.111 -2.86446 -0.709424 0
M  V30 5204 H 496.192 -2.36081 0.984861 0
M  V30 5205 H 495.836 -4.78618 1.69963 0
M  V30 5206 H 495.766 -5.26598 -0.0146346 0
M  V30 5207 H 498.257 -3.75849 0.393138 0
M  V30 5208 H 498.57 -7.59582 1.42322 0
M  V30 5209 H 496.915 -6.8324 1.27311 0
M  V30 5210 H 500.106 -4.64608 0.570693 0
M  V30 5211 H 500.279 -6.39597 1.04019 0
M  V30 5212 N 493.685 -0.035106 -1.57561 0
M  V30 5213 C 494.595 0.960295 -2.14046 0
M  V30 5214 C 495.611 1.3529 -1.0942 0
M  V30 5215 O 496.787 1.43309 -1.41508 0
M  V30 5216 C 493.852 2.22214 -2.66124 0
M  V30 5217 C 492.913 1.8894 -3.85487 0
M  V30 5218 C 492.146 3.09109 -4.35072 0
M  V30 5219 O 492.369 4.21963 -3.83802 0
M  V30 5220 O 491.303 2.91058 -5.26848 0
M  V30 5221 H 495.129 0.509983 -2.99387 0
M  V30 5222 H 492.714 0.185853 -1.48239 0
M  V30 5223 H 494.596 2.96279 -2.99661 0
M  V30 5224 H 493.271 2.66414 -1.83862 0
M  V30 5225 H 492.178 1.12241 -3.56865 0
M  V30 5226 H 493.511 1.49551 -4.6893 0
M  V30 5227 N 495.163 1.55791 0.238111 0
M  V30 5228 C 496.409 1.78297 0.966337 0
M  V30 5229 C 496.742 0.601903 1.84637 0
M  V30 5230 O 496.017 -0.399499 1.90353 0
M  V30 5231 C 496.3 3.10758 1.81939 0
M  V30 5232 C 496.153 4.39283 0.966958 0
M  V30 5233 C 497.472 3.39519 2.80027 0
M  V30 5234 H 494.591 0.648654 0.349882 0
M  V30 5235 H 497.233 1.88525 0.236253 0
M  V30 5236 H 495.383 3.02168 2.44185 0
M  V30 5237 H 497.055 4.59873 0.362514 0
M  V30 5238 H 495.298 4.32948 0.271669 0
M  V30 5239 H 495.969 5.28368 1.59784 0
M  V30 5240 H 498.445 3.48128 2.27917 0
M  V30 5241 H 497.321 4.33402 3.36829 0
M  V30 5242 H 497.582 2.60864 3.56934 0
M  V30 5243 N 496.642 -0.504142 1.49319 0
M  V30 5244 C 498.058 -0.835039 1.36012 0
M  V30 5245 C 498.258 -1.97674 0.390808 0
M  V30 5246 O 497.314 -2.51867 -0.178655 0
M  V30 5247 C 498.627 -1.17821 2.76656 0
M  V30 5248 C 500.175 -1.2866 2.85334 0
M  V30 5249 C 500.65 -1.66307 4.26739 0
M  V30 5250 N 502.141 -1.73362 4.29534 0
M  V30 5251 C 502.876 -2.0393 5.35911 0
M  V30 5252 N 502.372 -2.32744 6.52535 0
M  V30 5253 N 504.165 -2.05155 5.23324 0
M  V30 5254 H 496.316 0.248764 2.10938 0
M  V30 5255 H 498.579 0.0486962 0.946748 0
M  V30 5256 H 498.285 -0.412682 3.4927 0
M  V30 5257 H 498.159 -2.12239 3.11825 0
M  V30 5258 H 500.546 -2.04285 2.1296 0
M  V30 5259 H 500.627 -0.323004 2.53752 0
M  V30 5260 H 500.271 -0.91234 4.99639 0
M  V30 5261 H 500.201 -2.63761 4.55782 0
M  V30 5262 H 502.692 -1.53268 3.45424 0
M  V30 5263 H 503.005 -2.55248 7.2943 0
M  V30 5264 H 501.35 -2.30207 6.55767 0
M  V30 5265 H 504.541 -1.82119 4.3122 0
M  V30 5266 H 504.714 -2.28644 6.06322 0
M  V30 5267 N 498.12 -1.38341 -0.754957 0
M  V30 5268 C 499.369 -1.33791 -1.5094 0
M  V30 5269 C 499.682 0.0699267 -1.95475 0
M  V30 5270 O 500.888 0.237956 -2.70455 0
M  V30 5271 C 499.344 -2.34934 -2.72643 0
M  V30 5272 C 498.952 -3.81332 -2.35138 0
M  V30 5273 C 500.696 -2.39425 -3.50536 0
M  V30 5274 C 498.603 -4.74164 -3.53444 0
M  V30 5275 H 497.533 -0.497314 -0.566741 0
M  V30 5276 H 500.184 -1.63888 -0.825403 0
M  V30 5277 H 498.566 -1.97878 -3.43017 0
M  V30 5278 H 499.74 -4.27319 -1.7244 0
M  V30 5279 H 498.055 -3.79946 -1.70382 0
M  V30 5280 H 500.652 -3.0598 -4.38498 0
M  V30 5281 H 500.995 -1.41278 -3.91594 0
M  V30 5282 H 501.528 -2.75274 -2.87174 0
M  V30 5283 H 498.267 -5.73501 -3.17453 0
M  V30 5284 H 497.787 -4.3287 -4.15191 0
M  V30 5285 H 499.466 -4.92111 -4.20043 0
M  V30 5286 N 499.598 0.982988 -1.23187 0
M  V30 5287 C 500.508 2.10907 -1.02739 0
M  V30 5288 C 501.524 1.73979 0.0273188 0
M  V30 5289 O 502.7 2.00702 -0.16757 0
M  V30 5290 C 499.765 3.41142 -0.618304 0
M  V30 5291 C 498.826 3.92112 -1.74777 0
M  V30 5292 C 498.059 5.16131 -1.3581 0
M  V30 5293 O 498.282 5.6989 -0.241201 0
M  V30 5294 O 497.216 5.61103 -2.17824 0
M  V30 5295 H 501.042 2.31046 -1.97108 0
M  V30 5296 H 498.627 1.09284 -1.01869 0
M  V30 5297 H 500.509 4.19488 -0.400982 0
M  V30 5298 H 499.184 3.2234 0.296421 0
M  V30 5299 H 498.091 3.14895 -2.0197 0
M  V30 5300 H 499.424 4.15364 -2.64071 0
M  V30 5301 N 501.076 1.04316 1.18135 0
M  V30 5302 C 502.024 0.630175 2.23901 0
M  V30 5303 C 503.018 -0.344254 1.65865 0
M  V30 5304 O 504.224 -0.211273 1.78756 0
M  V30 5305 H 500.599 0.185578 0.728742 0
M  V30 5306 H 502.57 1.53253 2.56039 0
M  V30 5307 C 501.319 0.011666 3.47698 0
M  V30 5308 H 500.642 0.752526 3.92654 0
M  V30 5309 H 502.082 -0.240046 4.2332 0
M  V30 5310 C 500.541 -1.23913 3.13285 0
M  V30 5311 O 501.071 -2.32959 3.27251 0
M  V30 5312 N 499.277 -1.13338 2.67587 0
M  V30 5313 H 498.824 -0.246006 2.56423 0
M  V30 5314 H 498.782 -1.97116 2.44934 0
M  V30 5315 N 502.554 -1.34406 0.822964 0
M  V30 5316 C 503.802 -1.97892 0.410245 0
M  V30 5317 C 504.123 -1.65567 -1.03017 0
M  V30 5318 O 503.393 -0.94642 -1.71522 0
M  V30 5319 H 501.973 -0.732049 0.148707 0
M  V30 5320 H 504.635 -1.64043 1.05242 0
M  V30 5321 H 503.731 -3.07579 0.529284 0
M  V30 5322 N 504.032 -0.577932 -1.46621 0
M  V30 5323 C 504.962 0.145917 -2.33044 0
M  V30 5324 C 505.943 0.888412 -1.45056 0
M  V30 5325 O 507.128 0.864812 -1.73881 0
M  V30 5326 C 504.258 1.16322 -3.27241 0
M  V30 5327 C 503.212 0.535868 -4.24632 0
M  V30 5328 C 502.538 1.65929 -5.08303 0
M  V30 5329 C 503.838 -0.523861 -5.19666 0
M  V30 5330 H 505.532 -0.575636 -2.93814 0
M  V30 5331 H 503.078 -0.278272 -1.41286 0
M  V30 5332 H 505.031 1.67793 -3.86553 0
M  V30 5333 H 503.755 1.91498 -2.64567 0
M  V30 5334 H 502.414 0.0422759 -3.66576 0
M  V30 5335 H 502.062 2.40061 -4.42018 0
M  V30 5336 H 501.762 1.2452 -5.74255 0
M  V30 5337 H 503.286 2.17686 -5.70478 0
M  V30 5338 H 504.7 -0.0944059 -5.73222 0
M  V30 5339 H 503.097 -0.858 -5.93935 0
M  V30 5340 H 504.167 -1.41197 -4.63887 0
M  V30 5341 N 505.51 1.54411 -0.315457 0
M  V30 5342 C 506.44 2.27002 0.547039 0
M  V30 5343 C 507.421 1.27492 1.12605 0
M  V30 5344 O 508.606 1.5629 1.15269 0
M  V30 5345 C 505.736 3.02171 1.71201 0
M  V30 5346 C 504.69 4.0895 1.26268 0
M  V30 5347 C 504.016 4.71915 2.51396 0
M  V30 5348 C 505.316 5.20891 0.383419 0
M  V30 5349 H 507.01 2.99343 -0.0584517 0
M  V30 5350 H 504.556 1.4397 -0.0295527 0
M  V30 5351 H 506.509 3.51681 2.32161 0
M  V30 5352 H 505.233 2.27433 2.34397 0
M  V30 5353 H 503.892 3.60312 0.676062 0
M  V30 5354 H 503.54 3.93801 3.12937 0
M  V30 5355 H 503.24 5.44039 2.22026 0
M  V30 5356 H 504.764 5.24195 3.13133 0
M  V30 5357 H 506.178 5.66206 0.899082 0
M  V30 5358 H 504.575 5.99821 0.182857 0
M  V30 5359 H 505.645 4.81324 -0.587821 0
M  V30 5360 N 506.988 0.0434614 1.5754 0
M  V30 5361 C 507.918 -0.931651 2.14109 0
M  V30 5362 C 508.899 -1.32971 1.06079 0
M  V30 5363 O 510.084 -1.40579 1.33982 0
M  V30 5364 C 507.214 -2.20914 2.67982 0
M  V30 5365 C 506.168 -1.95139 3.80926 0
M  V30 5366 C 505.494 -3.29276 4.21285 0
M  V30 5367 C 506.794 -1.27913 5.06395 0
M  V30 5368 H 508.488 -0.460497 2.95837 0
M  V30 5369 H 506.034 -0.220058 1.42309 0
M  V30 5370 H 507.987 -2.89522 3.06194 0
M  V30 5371 H 506.711 -2.70221 1.83434 0
M  V30 5372 H 505.37 -1.28945 3.43175 0
M  V30 5373 H 505.018 -3.76369 3.33699 0
M  V30 5374 H 504.718 -3.12831 4.97404 0
M  V30 5375 H 506.242 -3.99129 4.62091 0
M  V30 5376 H 507.656 -1.86544 5.42102 0
M  V30 5377 H 506.053 -1.2182 5.87605 0
M  V30 5378 H 507.123 -0.254066 4.84234 0
M  V30 5379 N 508.466 -1.55915 -0.229846 0
M  V30 5380 C 509.396 -1.94754 -1.28815 0
M  V30 5381 C 510.377 -0.814657 -1.49323 0
M  V30 5382 O 511.562 -1.07631 -1.61645 0
M  V30 5383 C 508.692 -2.25705 -2.63959 0
M  V30 5384 C 507.646 -3.41406 -2.5812 0
M  V30 5385 C 506.972 -3.57941 -3.97218 0
M  V30 5386 C 508.272 -4.76616 -2.13623 0
M  V30 5387 H 509.966 -2.83404 -0.965547 0
M  V30 5388 H 507.512 -1.36353 -0.463028 0
M  V30 5389 H 509.465 -2.51467 -3.38146 0
M  V30 5390 H 508.189 -1.339 -2.9789 0
M  V30 5391 H 506.848 -3.1568 -1.86391 0
M  V30 5392 H 506.496 -2.63526 -4.28443 0
M  V30 5393 H 506.196 -4.35757 -3.94195 0
M  V30 5394 H 507.72 -3.86042 -4.73079 0
M  V30 5395 H 509.134 -5.01637 -2.77549 0
M  V30 5396 H 507.531 -5.57655 -2.21677 0
M  V30 5397 H 508.601 -4.7253 -1.08829 0
M  V30 5398 N 509.944 0.496216 -1.49584 0
M  V30 5399 C 510.892 1.61805 -1.67098 0
M  V30 5400 C 511.886 1.60667 -0.536877 0
M  V30 5401 O 513.092 1.65118 -0.716654 0
M  V30 5402 H 509.467 0.53646 -0.526986 0
M  V30 5403 H 511.438 1.44187 -2.61252 0
M  V30 5404 C 510.187 2.99912 -1.75921 0
M  V30 5405 H 509.51 3.01496 -2.62565 0
M  V30 5406 H 510.95 3.77931 -1.92209 0
M  V30 5407 C 509.409 3.33092 -0.505088 0
M  V30 5408 O 509.939 4.00019 0.367085 0
M  V30 5409 N 508.145 2.88278 -0.366599 0
M  V30 5410 H 507.692 2.33989 -1.07735 0
M  V30 5411 H 507.65 3.10846 0.47142 0
M  V30 5412 N 511.423 1.38739 0.74761 0
M  V30 5413 C 512.671 1.35007 1.50391 0
M  V30 5414 C 512.992 -0.0574274 1.94915 0
M  V30 5415 O 512.262 -1.00628 1.6808 0
M  V30 5416 H 510.842 0.496784 0.557866 0
M  V30 5417 H 513.504 1.73479 0.888319 0
M  V30 5418 H 512.6 2.00474 2.392 0
M  V30 5419 N 512.901 -0.976442 1.23707 0
M  V30 5420 C 513.848 -2.06952 1.02174 0
M  V30 5421 C 514.818 -1.65984 -0.0621034 0
M  V30 5422 O 516.003 -1.90584 0.0907906 0
M  V30 5423 C 513.143 -3.39425 0.62327 0
M  V30 5424 C 512.256 -3.9364 1.77966 0
M  V30 5425 C 511.391 -5.14343 1.3276 0
M  V30 5426 C 510.43 -5.60733 2.45449 0
M  V30 5427 N 509.567 -6.72662 2.01172 0
M  V30 5428 H 514.407 -2.24704 1.95734 0
M  V30 5429 H 511.944 -1.10143 0.975034 0
M  V30 5430 H 513.902 -4.15526 0.37332 0
M  V30 5431 H 512.532 -3.21624 -0.275329 0
M  V30 5432 H 511.584 -3.14258 2.14351 0
M  V30 5433 H 512.896 -4.24035 2.62671 0
M  V30 5434 H 512.05 -5.97789 1.03601 0
M  V30 5435 H 510.789 -4.8561 0.450975 0
M  V30 5436 H 509.794 -4.75865 2.75378 0
M  V30 5437 H 511.019 -5.91483 3.33654 0
M  V30 5438 H 508.965 -6.45681 1.15895 0
M  V30 5439 H 508.882 -7.02462 2.79434 0
M  V30 5440 H 510.15 -7.59572 1.75129 0
M  V30 5441 N 514.379 -1.04941 -1.1758 0
M  V30 5442 C 515.79 -0.784501 -1.69418 0
M  V30 5443 C 516.141 0.693625 -1.8353 0
M  V30 5444 O 515.266 1.53925 -1.52106 0
M  V30 5445 C 515.861 -1.41746 -3.07723 0
M  V30 5446 C 514.42 -1.20066 -3.56737 0
M  V30 5447 C 513.567 -1.5026 -2.33061 0
M  V30 5448 H 516.518 -1.21469 -1.02133 0
M  V30 5449 H 516.539 -0.825381 -3.7144 0
M  V30 5450 H 516.051 -2.49325 -2.9742 0
M  V30 5451 H 514.152 -0.144006 -3.72322 0
M  V30 5452 H 514.265 -1.90384 -4.39648 0
M  V30 5453 H 512.629 -0.922598 -2.37403 0
M  V30 5454 H 513.412 -2.58967 -2.25368 0
M  V30 5455 N 515.857 1.33968 -0.830081 0
M  V30 5456 C 516.787 2.31911 -0.271911 0
M  V30 5457 C 517.768 1.58571 0.61556 0
M  V30 5458 O 518.953 1.86514 0.540946 0
M  V30 5459 C 516.083 3.42737 0.561146 0
M  V30 5460 C 515.037 4.27383 -0.229789 0
M  V30 5461 C 514.363 5.29742 0.726463 0
M  V30 5462 C 515.663 5.02 -1.44197 0
M  V30 5463 H 517.357 2.78844 -1.09025 0
M  V30 5464 H 514.903 1.34061 -0.52571 0
M  V30 5465 H 516.856 4.10276 0.961867 0
M  V30 5466 H 515.58 2.94471 1.41261 0
M  V30 5467 H 514.239 3.61456 -0.611964 0
M  V30 5468 H 513.887 4.77736 1.57408 0
M  V30 5469 H 513.587 5.87255 0.20142 0
M  V30 5470 H 515.111 6.00149 1.12489 0
M  V30 5471 H 516.525 5.62355 -1.11488 0
M  V30 5472 H 514.922 5.69122 -1.90317 0
M  V30 5473 H 515.992 4.31281 -2.2164 0
M  V30 5474 N 517.335 0.585699 1.46312 0
M  V30 5475 C 518.265 -0.133556 2.33118 0
M  V30 5476 C 519.246 -0.880707 1.45525 0
M  V30 5477 O 520.431 -0.855579 1.74337 0
M  V30 5478 C 517.561 -1.14585 3.27853 0
M  V30 5479 C 516.515 -0.513341 4.2491 0
M  V30 5480 C 515.841 -1.63231 5.09175 0
M  V30 5481 C 517.141 0.551413 5.19381 0
M  V30 5482 H 518.835 0.59121 2.93505 0
M  V30 5483 H 516.381 0.285761 1.41136 0
M  V30 5484 H 518.334 -1.65741 3.87438 0
M  V30 5485 H 517.058 -1.90093 2.65579 0
M  V30 5486 H 515.717 -0.0228349 3.66593 0
M  V30 5487 H 515.365 -2.37713 4.43285 0
M  V30 5488 H 515.065 -1.21473 5.74907 0
M  V30 5489 H 516.589 -2.14658 5.71624 0
M  V30 5490 H 518.003 0.124804 5.73164 0
M  V30 5491 H 516.4 0.889486 5.93471 0
M  V30 5492 H 517.47 1.43655 4.63132 0
M  V30 5493 N 518.813 -1.54241 0.323641 0
M  V30 5494 C 520.062 -1.9975 -0.279806 0
M  V30 5495 C 520.375 -1.2156 -1.5324 0
M  V30 5496 O 521.581 -1.57447 -2.21185 0
M  V30 5497 C 520.037 -3.55686 -0.549115 0
M  V30 5498 C 519.645 -4.4271 0.686432 0
M  V30 5499 C 521.389 -4.09663 -1.11251 0
M  V30 5500 C 519.296 -5.90119 0.389022 0
M  V30 5501 H 518.226 -0.746177 -0.10833 0
M  V30 5502 H 520.877 -1.78248 0.435877 0
M  V30 5503 H 519.259 -3.73176 -1.32499 0
M  V30 5504 H 520.433 -4.36996 1.46188 0
M  V30 5505 H 518.748 -3.99623 1.17005 0
M  V30 5506 H 521.345 -5.17386 -1.34965 0
M  V30 5507 H 521.688 -3.61651 -2.06191 0
M  V30 5508 H 522.221 -3.95806 -0.39782 0
M  V30 5509 H 518.96 -6.42326 1.30759 0
M  V30 5510 H 518.48 -5.98785 -0.348722 0
M  V30 5511 H 520.159 -6.47 -0.0011164 0
M  V30 5512 N 520.291 -0.0518155 -1.57515 0
M  V30 5513 C 521.707 0.304735 -1.56664 0
M  V30 5514 C 521.907 1.71395 -1.05953 0
M  V30 5515 O 520.963 2.42123 -0.716414 0
M  V30 5516 C 522.276 0.132614 -3.00407 0
M  V30 5517 C 523.824 0.20367 -3.12337 0
M  V30 5518 C 524.299 0.0600706 -4.57961 0
M  V30 5519 N 525.79 0.116326 -4.63054 0
M  V30 5520 C 526.525 0.0293363 -5.73392 0
M  V30 5521 N 526.021 -0.110038 -6.92713 0
M  V30 5522 N 527.814 0.0849651 -5.62036 0
M  V30 5523 H 519.965 -0.973056 -1.888 0
M  V30 5524 H 522.228 -0.377781 -0.869474 0
M  V30 5525 H 521.934 -0.839019 -3.41546 0
M  V30 5526 H 521.808 0.893376 -3.66468 0
M  V30 5527 H 524.195 1.16578 -2.71097 0
M  V30 5528 H 524.276 -0.587857 -2.48954 0
M  V30 5529 H 523.92 -0.898715 -4.99886 0
M  V30 5530 H 523.85 0.87075 -5.19351 0
M  V30 5531 H 526.341 0.22327 -3.7724 0
M  V30 5532 H 526.654 -0.169104 -7.72615 0
M  V30 5533 H 524.999 -0.145132 -6.94848 0
M  V30 5534 H 528.19 0.192411 -4.67704 0
M  V30 5535 H 528.363 0.0137131 -6.47999 0
M  V30 5536 N 521.769 1.56035 0.221574 0
M  V30 5537 C 523.017 1.78693 0.944102 0
M  V30 5538 C 523.338 0.620317 1.8487 0
M  V30 5539 O 522.608 -0.362784 1.92512 0
M  V30 5540 H 521.188 0.659082 0.351597 0
M  V30 5541 H 523.85 1.93497 0.233435 0
M  V30 5542 H 522.946 2.70837 1.55093 0
M  V30 5543 N 523.247 -0.488276 1.49845 0
M  V30 5544 C 524.493 -1.24341 1.6021 0
M  V30 5545 C 524.826 -1.91967 0.293651 0
M  V30 5546 O 524.101 -1.81323 -0.703718 0
M  V30 5547 C 524.384 -2.3005 2.77036 0
M  V30 5548 C 524.237 -1.66842 4.17713 0
M  V30 5549 C 525.556 -3.31509 2.89464 0
M  V30 5550 H 522.675 -0.450704 0.583125 0
M  V30 5551 H 525.317 -0.539673 1.82174 0
M  V30 5552 H 523.467 -2.90071 2.58439 0
M  V30 5553 H 525.139 -1.1055 4.47858 0
M  V30 5554 H 523.382 -0.972079 4.22768 0
M  V30 5555 H 524.053 -2.43576 4.95353 0
M  V30 5556 H 526.529 -2.81493 3.06433 0
M  V30 5557 H 525.405 -4.02822 3.72861 0
M  V30 5558 H 525.666 -3.94603 1.99351 0
M  V30 5559 N 524.725 -1.39134 -0.740242 0
M  V30 5560 C 525.673 -1.3757 -1.87556 0
M  V30 5561 C 526.667 -0.259593 -1.67399 0
M  V30 5562 O 527.873 -0.429349 -1.74804 0
M  V30 5563 H 524.248 -0.42947 -0.6173 0
M  V30 5564 H 526.219 -2.33345 -1.85991 0
M  V30 5565 C 524.968 -1.23087 -3.25184 0
M  V30 5566 H 524.291 -2.08237 -3.41288 0
M  V30 5567 H 525.731 -1.26049 -4.0483 0
M  V30 5568 C 524.19 0.0611471 -3.36845 0
M  V30 5569 O 524.72 1.03328 -3.88183 0
M  V30 5570 N 522.926 0.122454 -2.90342 0
M  V30 5571 H 522.473 -0.669329 -2.48752 0
M  V30 5572 H 522.431 0.986463 -2.98523 0
M  V30 5573 N 526.204 0.969867 -1.24223 0
M  V30 5574 C 527.62 1.23809 -1.00716 0
M  V30 5575 C 527.82 1.99469 0.285358 0
M  V30 5576 O 526.876 2.31764 1.00207 0
M  V30 5577 C 528.189 2.02734 -2.2208 0
M  V30 5578 C 529.737 2.15834 -2.26681 0
M  V30 5579 C 530.212 2.98154 -3.47661 0
M  V30 5580 N 531.703 3.05737 -3.47964 0
M  V30 5581 C 532.438 3.69785 -4.38231 0
M  V30 5582 N 531.934 4.35569 -5.3875 0
M  V30 5583 N 533.727 3.66775 -4.25949 0
M  V30 5584 H 525.878 0.463294 -2.07286 0
M  V30 5585 H 528.141 0.267348 -0.909521 0
M  V30 5586 H 527.847 1.54524 -3.15935 0
M  V30 5587 H 527.721 3.0347 -2.24021 0
M  V30 5588 H 530.108 2.63248 -1.33359 0
M  V30 5589 H 530.189 1.14453 -2.28767 0
M  V30 5590 H 529.833 2.51435 -4.41297 0
M  V30 5591 H 529.763 3.99729 -3.42818 0
M  V30 5592 H 532.254 2.58941 -2.75242 0
M  V30 5593 H 532.567 4.82251 -6.03866 0
M  V30 5594 H 530.912 4.34244 -5.42639 0
M  V30 5595 H 534.103 3.14558 -3.46657 0
M  V30 5596 H 534.276 4.16407 -4.96497 0
M  V30 5597 N 527.682 1.05563 1.17022 0
M  V30 5598 C 528.632 0.630007 2.19123 0
M  V30 5599 C 529.616 -0.335472 1.57364 0
M  V30 5600 O 530.808 -0.1521 1.76345 0
M  V30 5601 C 527.937 0.0101676 3.43298 0
M  V30 5602 C 527.023 0.999698 4.12149 0
M  V30 5603 N 527.414 2.17251 4.56766 0
M  V30 5604 C 525.712 0.829 4.38228 0
M  V30 5605 C 526.413 2.79883 5.09942 0
M  V30 5606 N 525.389 2.07656 5.02374 0
M  V30 5607 H 529.191 1.52353 2.51328 0
M  V30 5608 H 526.705 0.926288 1.33393 0
M  V30 5609 H 528.702 -0.312541 4.15727 0
M  V30 5610 H 527.362 -0.878707 3.12584 0
M  V30 5611 H 528.373 2.55067 4.50734 0
M  V30 5612 H 525.05 -0.00850974 4.17499 0
M  V30 5613 H 526.44 3.79362 5.54558 0
M  V30 5614 N 529.16 -1.33526 0.837174 0
M  V30 5615 C 530.07 -2.33023 0.271568 0
M  V30 5616 C 531.086 -1.63272 -0.601514 0
M  V30 5617 O 532.262 -1.94939 -0.506038 0
M  V30 5618 C 529.327 -3.42382 -0.545448 0
M  V30 5619 C 528.388 -4.27857 0.351709 0
M  V30 5620 C 527.621 -5.31994 -0.426409 0
M  V30 5621 O 527.844 -5.45763 -1.65828 0
M  V30 5622 O 526.778 -6.01572 0.1987 0
M  V30 5623 H 530.604 -2.83256 1.09545 0
M  V30 5624 H 528.189 -1.36837 0.599655 0
M  V30 5625 H 530.071 -4.09122 -1.00979 0
M  V30 5626 H 528.746 -2.94369 -1.34641 0
M  V30 5627 H 527.653 -3.6399 0.863853 0
M  V30 5628 H 528.986 -4.79349 1.1174 0
M  V30 5629 N 530.638 -0.59345 -1.46 0
M  V30 5630 C 531.588 0.154751 -2.27474 0
M  V30 5631 C 532.572 0.851849 -1.365 0
M  V30 5632 O 533.764 0.744171 -1.60596 0
M  V30 5633 C 530.893 1.16079 -3.2308 0
M  V30 5634 C 529.979 0.465256 -4.2154 0
M  V30 5635 N 530.37 -0.485197 -5.03467 0
M  V30 5636 C 528.668 0.714634 -4.40237 0
M  V30 5637 C 529.369 -0.892709 -5.74809 0
M  V30 5638 N 528.345 -0.239511 -5.43072 0
M  V30 5639 H 532.147 -0.57546 -2.88211 0
M  V30 5640 H 529.661 -0.416046 -1.5698 0
M  V30 5641 H 531.658 1.71108 -3.80168 0
M  V30 5642 H 530.318 1.89171 -2.63903 0
M  V30 5643 H 531.329 -0.861258 -5.10689 0
M  V30 5644 H 528.006 1.43131 -3.92199 0
M  V30 5645 H 529.396 -1.67581 -6.50666 0
M  V30 5646 N 532.116 1.54067 -0.331816 0
M  V30 5647 C 533.066 2.21363 0.546101 0
M  V30 5648 C 534.05 1.19698 1.07523 0
M  V30 5649 O 535.242 1.45293 1.01088 0
M  V30 5650 C 532.371 2.98115 1.70242 0
M  V30 5651 C 531.457 4.07127 1.18779 0
M  V30 5652 N 531.848 5.04267 0.393465 0
M  V30 5653 C 530.146 4.21226 1.46576 0
M  V30 5654 C 530.847 5.81585 0.115572 0
M  V30 5655 N 529.823 5.39022 0.703987 0
M  V30 5656 H 533.625 2.93821 -0.0679751 0
M  V30 5657 H 531.139 1.61812 -0.138085 0
M  V30 5658 H 533.136 3.44818 2.34321 0
M  V30 5659 H 531.796 2.27181 2.31989 0
M  V30 5660 H 532.807 5.17888 0.0355757 0
M  V30 5661 H 529.484 3.61509 2.08848 0
M  V30 5662 H 530.874 6.6985 -0.524426 0
M  V30 5663 N 533.594 0.0601682 1.57485 0
M  V30 5664 C 535.005 -0.474217 1.80577 0
M  V30 5665 C 535.356 -1.70365 0.973147 0
M  V30 5666 O 534.481 -2.15544 0.192306 0
M  V30 5667 C 535.076 -0.867102 3.27516 0
M  V30 5668 C 533.635 -1.34642 3.51495 0
M  V30 5669 C 532.782 -0.32594 2.75378 0
M  V30 5670 H 535.733 0.285973 1.56102 0
M  V30 5671 H 535.754 -1.72938 3.38929 0
M  V30 5672 H 535.266 0.0278927 3.8809 0
M  V30 5673 H 533.367 -2.2603 2.96212 0
M  V30 5674 H 533.48 -1.33237 4.60201 0
M  V30 5675 H 531.844 -0.800749 2.41785 0
M  V30 5676 H 532.627 0.561125 3.38683 0
M  V30 5677 N 535.072 -1.5615 -0.213296 0
M  V30 5678 C 536.002 -1.96109 -1.26742 0
M  V30 5679 C 536.983 -0.830448 -1.48451 0
M  V30 5680 O 538.168 -1.09339 -1.60495 0
M  V30 5681 C 535.298 -2.28492 -2.61551 0
M  V30 5682 C 534.252 -3.44124 -2.54485 0
M  V30 5683 C 533.578 -3.62134 -3.93399 0
M  V30 5684 C 534.878 -4.78855 -2.08556 0
M  V30 5685 H 536.572 -2.84412 -0.935434 0
M  V30 5686 H 534.118 -1.36836 -0.44854 0
M  V30 5687 H 536.071 -2.55039 -3.3546 0
M  V30 5688 H 534.795 -1.37052 -2.96453 0
M  V30 5689 H 533.454 -3.17639 -1.83033 0
M  V30 5690 H 533.102 -2.68055 -4.25623 0
M  V30 5691 H 532.802 -4.39913 -3.89551 0
M  V30 5692 H 534.326 -3.91038 -4.68958 0
M  V30 5693 H 535.74 -5.04552 -2.72213 0
M  V30 5694 H 534.137 -5.59975 -2.1575 0
M  V30 5695 H 535.207 -4.73657 -1.03811 0
M  V30 5696 N 536.55 0.480323 -1.50102 0
M  V30 5697 C 537.5 1.57685 -1.6468 0
M  V30 5698 C 538.484 1.52878 -0.5017 0
M  V30 5699 O 539.676 1.60058 -0.755668 0
M  V30 5700 C 536.805 2.96185 -1.73578 0
M  V30 5701 C 535.891 3.0591 -2.93734 0
M  V30 5702 N 536.282 2.85471 -4.1754 0
M  V30 5703 C 534.58 3.37036 -2.92101 0
M  V30 5704 C 535.281 2.99921 -4.9842 0
M  V30 5705 N 534.257 3.29715 -4.32191 0
M  V30 5706 H 538.059 1.40568 -2.58104 0
M  V30 5707 H 535.573 0.686874 -1.47159 0
M  V30 5708 H 537.57 3.75015 -1.82124 0
M  V30 5709 H 536.23 3.14356 -0.813057 0
M  V30 5710 H 537.241 2.61235 -4.47188 0
M  V30 5711 H 533.918 3.61253 -2.09291 0
M  V30 5712 H 535.308 2.88436 -6.06839 0
M  V30 5713 N 538.028 1.39524 0.732853 0
M  V30 5714 C 539.276 1.36594 1.48951 0
M  V30 5715 C 539.597 -0.0367507 1.94965 0
M  V30 5716 O 538.867 -0.988391 1.69138 0
M  V30 5717 H 537.447 0.502673 0.552566 0
M  V30 5718 H 540.109 1.74411 0.869869 0
M  V30 5719 H 539.205 2.03 2.3706 0
M  V30 5720 N 539.506 -0.963266 1.24736 0
M  V30 5721 C 540.438 -2.06162 1.0015 0
M  V30 5722 C 541.451 -1.62771 -0.0305905 0
M  V30 5723 O 542.64 -1.77296 0.206966 0
M  V30 5724 C 539.74 -3.35333 0.490385 0
M  V30 5725 C 538.913 -4.07609 1.58663 0
M  V30 5726 C 537.972 -5.15052 1.0774 0
M  V30 5727 O 536.998 -5.4098 1.77002 0
M  V30 5728 N 538.2 -5.80436 -0.0858605 0
M  V30 5729 H 540.965 -2.27825 1.94719 0
M  V30 5730 H 538.526 -1.13121 1.15825 0
M  V30 5731 H 540.518 -4.04477 0.134371 0
M  V30 5732 H 539.088 -3.10507 -0.361155 0
M  V30 5733 H 538.308 -3.32681 2.11463 0
M  V30 5734 H 539.596 -4.52656 2.32336 0
M  V30 5735 H 538.994 -5.6178 -0.664806 0
M  V30 5736 H 537.551 -6.50674 -0.382981 0
M  V30 5737 N 540.985 -1.06182 -1.16461 0
M  V30 5738 C 542.231 -0.779015 -1.87241 0
M  V30 5739 C 542.564 0.692715 -1.81425 0
M  V30 5740 O 541.839 1.5074 -1.22913 0
M  V30 5741 C 542.122 -1.2728 -3.36856 0
M  V30 5742 C 541.975 -2.80821 -3.51368 0
M  V30 5743 C 543.294 -0.879799 -4.31216 0
M  V30 5744 H 540.413 -0.284464 -0.679889 0
M  V30 5745 H 543.055 -1.31755 -1.36896 0
M  V30 5746 H 541.205 -0.814673 -3.79862 0
M  V30 5747 H 542.877 -3.34833 -3.17308 0
M  V30 5748 H 541.12 -3.19606 -2.93316 0
M  V30 5749 H 541.791 -3.10435 -4.56436 0
M  V30 5750 H 544.267 -1.27436 -3.96105 0
M  V30 5751 H 543.143 -1.25278 -5.34412 0
M  V30 5752 H 543.404 0.215372 -4.41575 0
M  V30 5753 N 542.463 1.3308 -0.844243 0
M  V30 5754 C 543.396 2.27075 -0.226279 0
M  V30 5755 C 544.374 1.49911 0.629716 0
M  V30 5756 O 545.558 1.79068 0.588803 0
M  V30 5757 C 542.685 3.31767 0.681782 0
M  V30 5758 C 541.731 4.26384 -0.0994565 0
M  V30 5759 S 542.564 5.15186 -1.46094 0
M  V30 5760 C 543.72 6.23405 -0.558319 0
M  V30 5761 H 543.953 2.79141 -1.02312 0
M  V30 5762 H 541.486 1.40452 -0.641292 0
M  V30 5763 H 543.444 3.92566 1.20008 0
M  V30 5764 H 542.105 2.78507 1.45234 0
M  V30 5765 H 541.298 5.00514 0.591733 0
M  V30 5766 H 540.9 3.69949 -0.548991 0
M  V30 5767 H 543.192 6.77069 0.241672 0
M  V30 5768 H 544.135 6.96619 -1.26995 0
M  V30 5769 H 544.543 5.64333 -0.13728 0
M  V30 5770 N 543.941 0.601185 1.45683 0
M  V30 5771 C 545.218 0.0261659 1.95582 0
M  V30 5772 C 545.598 -1.4399 1.5437 0
M  V30 5773 O 544.946 -2.13919 0.80318 0
M  V30 5774 C 545.156 0.217557 3.48321 0
M  V30 5775 C 546.504 0.0950076 4.24494 0
M  V30 5776 O 547.528 0.147345 3.55895 0
M  V30 5777 O 546.387 -0.025261 5.46494 0
M  V30 5778 H 543.481 -0.0393688 0.826062 0
M  V30 5779 H 546.027 0.670798 1.55879 0
M  V30 5780 H 544.799 1.23601 3.71266 0
M  V30 5781 H 544.422 -0.46264 3.94899 0
M  V30 5782 N 545.419 -1.53889 0.339982 0
M  V30 5783 C 546.329 -2.28604 -0.526988 0
M  V30 5784 C 547.345 -1.33578 -1.11503 0
M  V30 5785 O 548.521 -1.66612 -1.13148 0
M  V30 5786 C 545.586 -3.04164 -1.66389 0
M  V30 5787 C 544.647 -4.14809 -1.10599 0
M  V30 5788 C 543.88 -4.86756 -2.18871 0
M  V30 5789 O 544.103 -4.58343 -3.39526 0
M  V30 5790 O 543.037 -5.73289 -1.83366 0
M  V30 5791 H 546.863 -3.03594 0.0802707 0
M  V30 5792 H 544.448 -1.4903 0.105141 0
M  V30 5793 H 546.33 -3.51427 -2.32544 0
M  V30 5794 H 545.005 -2.32035 -2.25703 0
M  V30 5795 H 543.912 -3.71857 -0.409067 0
M  V30 5796 H 545.245 -4.89029 -0.557771 0
M  V30 5797 N 546.897 -0.0685191 -1.57451 0
M  V30 5798 C 547.829 0.929372 -2.09512 0
M  V30 5799 C 548.842 1.26354 -1.02657 0
M  V30 5800 O 550.031 1.2213 -1.30179 0
M  V30 5801 C 547.131 2.24612 -2.53777 0
M  V30 5802 C 546.304 2.09128 -3.84167 0
M  V30 5803 C 545.363 3.24079 -4.14559 0
M  V30 5804 O 544.389 2.99215 -4.8421 0
M  V30 5805 N 545.591 4.49077 -3.67845 0
M  V30 5806 H 548.356 0.484901 -2.95751 0
M  V30 5807 H 545.917 0.11729 -1.61475 0
M  V30 5808 H 547.909 3.00412 -2.71172 0
M  V30 5809 H 546.479 2.60569 -1.72692 0
M  V30 5810 H 545.699 1.17815 -3.76182 0
M  V30 5811 H 546.987 1.9603 -4.69521 0
M  V30 5812 H 546.385 4.72165 -3.11571 0
M  V30 5813 H 544.942 5.21915 -3.90446 0
M  V30 5814 N 548.375 1.56261 0.205012 0
M  V30 5815 C 549.603 1.84141 0.943386 0
M  V30 5816 C 550.018 0.649772 1.77266 0
M  V30 5817 O 549.375 -0.381612 1.78466 0
M  V30 5818 C 549.426 3.10719 1.84759 0
M  V30 5819 O 549.147 4.25286 1.05181 0
M  V30 5820 C 550.648 3.51706 2.69848 0
M  V30 5821 H 547.868 0.611734 0.275721 0
M  V30 5822 H 550.412 2.03364 0.215253 0
M  V30 5823 H 548.567 2.93422 2.52947 0
M  V30 5824 H 548.981 4.97301 1.66709 0
M  V30 5825 H 550.455 4.43266 3.28967 0
M  V30 5826 H 550.932 2.7423 3.43067 0
M  V30 5827 H 551.538 3.71499 2.07047 0
M  V30 5828 N 549.853 -0.472356 1.50355 0
M  V30 5829 C 550.786 -1.58923 1.63764 0
M  V30 5830 C 551.764 -1.55173 0.485793 0
M  V30 5831 O 552.948 -1.74815 0.705132 0
M  V30 5832 C 550.075 -2.97497 1.61905 0
M  V30 5833 C 549.121 -3.19405 2.82635 0
M  V30 5834 S 549.954 -2.99441 4.43954 0
M  V30 5835 C 551.11 -4.40359 4.44786 0
M  V30 5836 H 551.343 -1.47309 2.58239 0
M  V30 5837 H 548.876 -0.659601 1.39602 0
M  V30 5838 H 550.834 -3.77389 1.61518 0
M  V30 5839 H 549.495 -3.06502 0.686683 0
M  V30 5840 H 548.688 -4.20636 2.77636 0
M  V30 5841 H 548.29 -2.47283 2.80583 0
M  V30 5842 H 550.582 -5.32969 4.1827 0
M  V30 5843 H 551.525 -4.50403 5.46391 0
M  V30 5844 H 551.933 -4.22378 3.74509 0
M  V30 5845 N 551.331 -1.39911 -0.725443 0
M  V30 5846 C 552.577 -1.37858 -1.48738 0
M  V30 5847 C 552.91 0.0224187 -1.94187 0
M  V30 5848 O 552.185 0.989204 -1.67466 0
M  V30 5849 C 552.468 -2.3594 -2.72038 0
M  V30 5850 C 552.321 -3.85023 -2.32546 0
M  V30 5851 C 553.64 -2.31704 -3.74167 0
M  V30 5852 H 550.759 -0.502074 -0.539528 0
M  V30 5853 H 553.401 -1.70974 -0.828728 0
M  V30 5854 H 551.551 -2.0783 -3.28236 0
M  V30 5855 H 553.223 -4.2392 -1.81905 0
M  V30 5856 H 551.466 -4.01334 -1.64661 0
M  V30 5857 H 552.137 -4.49152 -3.20884 0
M  V30 5858 H 554.613 -2.5658 -3.27576 0
M  V30 5859 H 553.489 -3.02395 -4.58092 0
M  V30 5860 H 553.75 -1.3253 -4.21768 0
M  V30 5861 N 552.809 0.956637 -1.25245 0
M  V30 5862 C 553.741 2.05628 -1.01242 0
M  V30 5863 C 554.754 1.62785 0.0219579 0
M  V30 5864 O 555.943 1.77184 -0.216365 0
M  V30 5865 C 553.043 3.35069 -0.508161 0
M  V30 5866 C 552.216 4.06761 -1.60823 0
M  V30 5867 C 551.275 5.14473 -1.1047 0
M  V30 5868 O 550.301 5.40033 -1.79868 0
M  V30 5869 N 551.503 5.80474 0.0550773 0
M  V30 5870 H 554.268 2.2679 -1.95925 0
M  V30 5871 H 551.829 1.12505 -1.16423 0
M  V30 5872 H 553.821 4.044 -0.155819 0
M  V30 5873 H 552.391 3.10694 0.344683 0
M  V30 5874 H 551.611 3.31555 -2.13224 0
M  V30 5875 H 552.899 4.51418 -2.34733 0
M  V30 5876 H 552.297 5.62125 0.635004 0
M  V30 5877 H 550.854 6.50868 0.348469 0
M  V30 5878 N 554.287 1.06798 1.15896 0
M  V30 5879 C 555.564 0.701057 1.82605 0
M  V30 5880 C 555.944 -0.817066 1.94646 0
M  V30 5881 O 555.292 -1.72933 1.49353 0
M  V30 5882 C 555.502 1.40895 3.19296 0
M  V30 5883 C 556.85 1.55744 3.95005 0
M  V30 5884 O 557.874 1.36927 3.28831 0
M  V30 5885 O 556.733 1.86658 5.13635 0
M  V30 5886 H 553.827 0.248791 0.78869 0
M  V30 5887 H 556.373 1.16857 1.23055 0
M  V30 5888 H 555.145 2.4439 3.05596 0
M  V30 5889 H 554.768 0.931847 3.86526 0
M  V30 5890 N 555.766 -1.3263 0.851289 0
M  V30 5891 C 557.015 -1.96633 0.449267 0
M  V30 5892 C 557.328 -1.68131 -0.999562 0
M  V30 5893 O 558.534 -2.25845 -1.50685 0
M  V30 5894 C 556.99 -3.51946 0.752446 0
M  V30 5895 C 556.598 -3.89311 2.21678 0
M  V30 5896 C 558.342 -4.22437 0.417983 0
M  V30 5897 C 556.249 -5.37655 2.46336 0
M  V30 5898 H 555.179 -0.735888 0.164269 0
M  V30 5899 H 557.83 -1.51073 1.0416 0
M  V30 5900 H 556.212 -3.95899 0.0895858 0
M  V30 5901 H 557.386 -3.56378 2.92115 0
M  V30 5902 H 555.701 -3.31836 2.51543 0
M  V30 5903 H 558.298 -5.31549 0.579674 0
M  V30 5904 H 558.641 -4.11349 -0.640115 0
M  V30 5905 H 559.174 -3.84057 1.03659 0
M  V30 5906 H 555.913 -5.5376 3.50757 0
M  V30 5907 H 555.433 -5.72005 1.80473 0
M  V30 5908 H 557.112 -6.04695 2.30115 0
M  V30 5909 N 557.244 -0.608902 -1.45362 0
M  V30 5910 C 558.174 0.0964526 -2.33301 0
M  V30 5911 C 559.155 0.857444 -1.46908 0
M  V30 5912 O 560.34 0.827735 -1.75676 0
M  V30 5913 C 557.47 1.09354 -3.29635 0
M  V30 5914 C 556.424 0.445676 -4.25673 0
M  V30 5915 C 555.75 1.5511 -5.11708 0
M  V30 5916 C 557.05 -0.633972 -5.18438 0
M  V30 5917 H 558.744 -0.637829 -2.92527 0
M  V30 5918 H 556.29 -0.308178 -1.40664 0
M  V30 5919 H 558.243 1.59556 -3.90025 0
M  V30 5920 H 556.967 1.85843 -2.6857 0
M  V30 5921 H 555.626 -0.0354897 -3.66583 0
M  V30 5922 H 555.274 2.30631 -4.4701 0
M  V30 5923 H 554.974 1.12311 -5.76767 0
M  V30 5924 H 556.498 2.05537 -5.74967 0
M  V30 5925 H 557.912 -0.215974 -5.72893 0
M  V30 5926 H 556.309 -0.983789 -5.91981 0
M  V30 5927 H 557.379 -1.51005 -4.60788 0
M  V30 5928 N 558.722 1.53707 -0.348139 0
M  V30 5929 C 559.652 2.28111 0.498766 0
M  V30 5930 C 560.633 1.29851 1.09876 0
M  V30 5931 O 561.818 1.587 1.11928 0
M  V30 5932 C 558.948 3.05735 1.64753 0
M  V30 5933 C 557.902 4.11537 1.17565 0
M  V30 5934 C 557.228 4.77142 2.4133 0
M  V30 5935 C 558.528 5.21587 0.272844 0
M  V30 5936 H 560.222 2.99152 -0.121934 0
M  V30 5937 H 557.768 1.43875 -0.0600842 0
M  V30 5938 H 559.721 3.56526 2.24649 0
M  V30 5939 H 558.445 2.32354 2.2952 0
M  V30 5940 H 557.104 3.61665 0.599483 0
M  V30 5941 H 556.752 4.0035 3.04514 0
M  V30 5942 H 556.452 5.48626 2.10436 0
M  V30 5943 H 557.976 5.30719 3.01943 0
M  V30 5944 H 559.39 5.67986 0.778779 0
M  V30 5945 H 557.787 6.00074 0.0555849 0
M  V30 5946 H 558.857 4.79969 -0.689785 0
M  V30 5947 N 560.2 0.0768682 1.57412 0
M  V30 5948 C 561.133 -0.924685 2.08626 0
M  V30 5949 C 562.111 -1.28792 0.992542 0
M  V30 5950 O 563.295 -1.39634 1.26628 0
M  V30 5951 C 560.422 -2.23131 2.54814 0
M  V30 5952 C 559.468 -2.01928 3.75669 0
M  V30 5953 S 560.301 -1.27397 5.20125 0
M  V30 5954 C 561.457 -2.59329 5.69648 0
M  V30 5955 H 561.69 -0.488928 2.93252 0
M  V30 5956 H 559.223 -0.136014 1.538 0
M  V30 5957 H 561.181 -2.98226 2.82084 0
M  V30 5958 H 559.842 -2.63831 1.70447 0
M  V30 5959 H 559.035 -2.98639 4.05993 0
M  V30 5960 H 558.637 -1.34967 3.48798 0
M  V30 5961 H 560.929 -3.55394 5.76803 0
M  V30 5962 H 561.872 -2.33608 6.68456 0
M  V30 5963 H 562.28 -2.66767 4.9749 0
M  V30 5964 N 561.678 -1.56367 -0.196722 0
M  V30 5965 C 562.625 -1.94417 -1.24382 0
M  V30 5966 C 563.595 -0.804543 -1.45315 0
M  V30 5967 O 564.78 -1.06256 -1.58475 0
M  V30 5968 C 561.92 -2.28757 -2.58388 0
M  V30 5969 C 561.033 -3.55775 -2.45047 0
M  V30 5970 C 560.168 -3.79445 -3.71746 0
M  V30 5971 C 559.207 -4.99894 -3.53231 0
M  V30 5972 N 558.344 -5.19826 -4.71938 0
M  V30 5973 H 563.184 -2.83691 -0.912338 0
M  V30 5974 H 560.721 -1.40392 -0.439135 0
M  V30 5975 H 562.679 -2.46682 -3.36457 0
M  V30 5976 H 561.309 -1.42625 -2.89582 0
M  V30 5977 H 560.361 -3.45905 -1.58284 0
M  V30 5978 H 561.673 -4.44 -2.27299 0
M  V30 5979 H 560.827 -3.97601 -4.58256 0
M  V30 5980 H 559.566 -2.89546 -3.92446 0
M  V30 5981 H 558.571 -4.81662 -2.65107 0
M  V30 5982 H 559.796 -5.913 -3.33978 0
M  V30 5983 H 557.742 -4.32875 -4.92905 0
M  V30 5984 H 557.659 -6.02228 -4.57009 0
M  V30 5985 H 558.927 -5.42439 -5.59803 0
M  V30 5986 N 563.156 0.464375 -1.50603 0
M  V30 5987 C 564.088 1.57916 -1.66118 0
M  V30 5988 C 565.101 1.53497 -0.54246 0
M  V30 5989 O 566.29 1.58763 -0.815877 0
M  V30 5990 C 563.39 2.96809 -1.63577 0
M  V30 5991 C 562.563 3.26026 -2.91592 0
M  V30 5992 C 561.622 4.44506 -2.81604 0
M  V30 5993 O 560.648 4.44484 -3.55559 0
M  V30 5994 N 561.85 5.46549 -1.95614 0
M  V30 5995 H 564.615 1.45022 -2.62276 0
M  V30 5996 H 562.176 0.652903 -1.48151 0
M  V30 5997 H 564.168 3.74048 -1.54499 0
M  V30 5998 H 562.738 3.03438 -0.751262 0
M  V30 5999 H 561.958 2.37337 -3.14746 0
M  V30 6000 H 563.246 3.42361 -3.76386 0
M  V30 6001 H 562.644 5.49391 -1.34854 0
M  V30 6002 H 561.201 6.22746 -1.92435 0
M  V30 6003 N 564.634 1.40294 0.718013 0
M  V30 6004 C 565.582 1.40536 1.85344 0
M  V30 6005 C 566.576 0.286192 1.66965 0
M  V30 6006 O 567.782 0.457105 1.74099 0
M  V30 6007 H 564.157 0.439236 0.61039 0
M  V30 6008 H 566.128 2.36275 1.82255 0
M  V30 6009 C 564.877 1.28245 3.23185 0
M  V30 6010 H 564.2 2.1364 3.37932 0
M  V30 6011 H 565.64 1.32474 4.02774 0
M  V30 6012 C 564.099 -0.0075503 3.36899 0
M  V30 6013 O 564.629 -0.971391 3.89778 0
M  V30 6014 N 562.835 -0.0762479 2.905 0
M  V30 6015 H 562.382 0.708819 2.47656 0
M  V30 6016 H 562.34 -0.938846 3.00055 0
M  V30 6017 N 566.112 -0.949982 1.2575 0
M  V30 6018 C 567.06 -2.06869 1.06339 0
M  V30 6019 C 568.054 -1.69399 -0.00708901 0
M  V30 6020 O 569.26 -1.79383 0.148897 0
M  V30 6021 H 565.635 -0.677197 0.326969 0
M  V30 6022 H 567.606 -2.20396 2.01167 0
M  V30 6023 C 566.355 -3.40503 0.703769 0
M  V30 6024 H 565.678 -3.69807 1.51931 0
M  V30 6025 H 567.118 -4.19623 0.607677 0
M  V30 6026 C 565.577 -3.31685 -0.5905 0
M  V30 6027 O 566.107 -3.67085 -1.63131 0
M  V30 6028 N 564.313 -2.84797 -0.577859 0
M  V30 6029 H 563.86 -2.56186 0.26951 0
M  V30 6030 H 563.818 -2.79279 -1.44398 0
M  V30 6031 N 567.59 -1.07411 -1.15328 0
M  V30 6032 C 568.837 -0.797649 -1.86128 0
M  V30 6033 C 569.165 0.676298 -1.82364 0
M  V30 6034 O 568.42 1.51223 -1.24218 0
M  V30 6035 C 568.719 -1.25191 -3.34757 0
M  V30 6036 C 568.385 -2.73191 -3.58716 0
M  V30 6037 C 567.047 -3.13616 -3.64964 0
M  V30 6038 C 569.399 -3.68718 -3.6837 0
M  V30 6039 C 566.727 -4.48383 -3.78377 0
M  V30 6040 C 569.079 -5.03248 -3.83306 0
M  V30 6041 C 567.743 -5.43293 -3.878 0
M  V30 6042 H 567.013 -0.29188 -0.681092 0
M  V30 6043 H 569.66 -1.34524 -1.36292 0
M  V30 6044 H 567.965 -0.623712 -3.86804 0
M  V30 6045 H 569.662 -1.01489 -3.87945 0
M  V30 6046 H 566.252 -2.40898 -3.54494 0
M  V30 6047 H 570.436 -3.38614 -3.62842 0
M  V30 6048 H 565.692 -4.78877 -3.80114 0
M  V30 6049 H 569.866 -5.77142 -3.89718 0
M  V30 6050 H 567.493 -6.47721 -3.97946 0
M  V30 6051 N 569.068 1.32177 -0.85831 0
M  V30 6052 C 570.016 2.30729 -0.294442 0
M  V30 6053 C 571.01 1.59009 0.584165 0
M  V30 6054 O 572.216 1.73713 0.471562 0
M  V30 6055 H 568.591 0.748097 -0.0765171 0
M  V30 6056 H 570.562 2.75774 -1.1398 0
M  V30 6057 C 569.311 3.44098 0.499208 0
M  V30 6058 H 568.634 3.99449 -0.167579 0
M  V30 6059 H 570.074 4.15202 0.859273 0
M  V30 6060 C 568.533 2.91684 1.68588 0
M  V30 6061 O 569.063 2.89481 2.78503 0
M  V30 6062 N 567.269 2.48036 1.51415 0
M  V30 6063 H 566.816 2.50027 0.620006 0
M  V30 6064 H 566.774 2.13322 2.30957 0
M  V30 6065 N 570.547 0.616602 1.45037 0
M  V30 6066 C 571.51 -0.0871112 2.29034 0
M  V30 6067 C 572.51 -0.786414 1.40258 0
M  V30 6068 O 573.7 -0.633207 1.62284 0
M  V30 6069 C 570.832 -1.13369 3.21497 0
M  V30 6070 H 572.025 0.651497 2.92738 0
M  V30 6071 H 569.578 0.376058 1.51709 0
M  V30 6072 H 570.313 -1.90277 2.62612 0
M  V30 6073 H 570.098 -0.636358 3.86902 0
M  V30 6074 H 571.588 -1.62627 3.84633 0
M  V30 6075 N 572.025 -1.5352 0.356285 0
M  V30 6076 C 573.271 -2.01414 -0.236653 0
M  V30 6077 C 573.604 -1.24339 -1.49176 0
M  V30 6078 O 572.879 -0.334496 -1.91602 0
M  V30 6079 C 573.162 -3.56059 -0.537982 0
M  V30 6080 C 573.015 -4.43835 0.730112 0
M  V30 6081 C 574.334 -4.19127 -1.34239 0
M  V30 6082 H 571.453 -0.732135 -0.0845386 0
M  V30 6083 H 574.095 -1.83854 0.479341 0
M  V30 6084 H 572.245 -3.71153 -1.14795 0
M  V30 6085 H 573.917 -4.40555 1.36782 0
M  V30 6086 H 572.16 -4.1218 1.3524 0
M  V30 6087 H 572.831 -5.49958 0.474358 0
M  V30 6088 H 575.307 -4.07809 -0.826498 0
M  V30 6089 H 574.183 -5.27378 -1.52198 0
M  V30 6090 H 574.444 -3.74581 -2.34822 0
M  V30 6091 N 573.503 -0.0852151 -1.57369 0
M  V30 6092 C 574.919 0.271436 -1.57275 0
M  V30 6093 C 575.119 1.69109 -1.09565 0
M  V30 6094 O 574.175 2.40549 -0.767611 0
M  V30 6095 C 575.488 0.0688638 -3.00621 0
M  V30 6096 C 577.036 0.137373 -3.12698 0
M  V30 6097 C 577.511 -0.0370832 -4.57985 0
M  V30 6098 N 579.002 0.0180794 -4.63196 0
M  V30 6099 C 579.737 -0.0922953 -5.73326 0
M  V30 6100 N 579.233 -0.256948 -6.92323 0
M  V30 6101 N 581.026 -0.0342702 -5.6209 0
M  V30 6102 H 573.177 -1.01288 -1.86693 0
M  V30 6103 H 575.44 -0.396138 -0.861266 0
M  V30 6104 H 575.146 -0.911277 -3.39689 0
M  V30 6105 H 575.02 0.815442 -3.6828 0
M  V30 6106 H 577.407 1.10801 -2.73509 0
M  V30 6107 H 577.488 -0.640532 -2.47651 0
M  V30 6108 H 577.132 -1.00455 -4.97867 0
M  V30 6109 H 577.062 0.760392 -5.21081 0
M  V30 6110 H 579.553 0.143202 -3.77629 0
M  V30 6111 H 579.866 -0.332949 -7.72082 0
M  V30 6112 H 578.211 -0.292487 -6.94384 0
M  V30 6113 H 581.402 0.0931605 -4.68007 0
M  V30 6114 H 581.575 -0.12374 -6.47882 0
M  V30 6115 N 574.981 1.5647 0.188427 0
M  V30 6116 C 576.221 1.82803 0.914469 0
M  V30 6117 C 576.585 0.663681 1.80165 0
M  V30 6118 O 577.786 0.807059 2.56398 0
M  V30 6119 C 576.057 3.14187 1.70357 0
M  V30 6120 S 577.616 3.61947 2.48072 0
M  V30 6121 H 574.434 0.641497 0.306599 0
M  V30 6122 H 577.036 1.94694 0.177361 0
M  V30 6123 H 575.74 3.96937 1.04255 0
M  V30 6124 H 575.271 3.05192 2.48237 0
M  V30 6125 H 577.286 3.27913 3.72407 0
M  V30 6126 N 576.459 -0.456382 1.50847 0
M  V30 6127 C 577.684 -1.2349 1.66628 0
M  V30 6128 C 578.109 -1.84715 0.355254 0
M  V30 6129 O 577.467 -1.67961 -0.682559 0
M  V30 6130 C 577.515 -2.30865 2.77009 0
M  V30 6131 O 576.619 -3.35882 2.39285 0
M  V30 6132 H 575.96 -0.36266 0.556214 0
M  V30 6133 H 578.49 -0.541374 1.97308 0
M  V30 6134 H 578.5 -2.75949 3.00526 0
M  V30 6135 H 577.175 -1.85677 3.72152 0
M  V30 6136 H 575.752 -2.96406 2.26269 0
M  V30 6137 N 577.937 -1.40673 -0.710563 0
M  V30 6138 C 578.887 -1.37812 -1.81636 0
M  V30 6139 C 579.871 -0.254853 -1.58869 0
M  V30 6140 O 581.063 -0.494356 -1.69956 0
M  V30 6141 C 578.192 -1.24802 -3.19811 0
M  V30 6142 C 577.278 -2.41931 -3.48325 0
M  V30 6143 N 577.669 -3.67411 -3.47625 0
M  V30 6144 C 575.967 -2.35419 -3.78806 0
M  V30 6145 C 576.668 -4.45008 -3.74623 0
M  V30 6146 N 575.644 -3.74916 -3.93623 0
M  V30 6147 H 579.446 -2.32766 -1.79436 0
M  V30 6148 H 576.96 -1.34516 -0.909909 0
M  V30 6149 H 578.957 -1.20835 -3.99004 0
M  V30 6150 H 577.617 -0.308202 -3.23234 0
M  V30 6151 H 578.628 -4.00503 -3.28356 0
M  V30 6152 H 575.305 -1.4983 -3.89689 0
M  V30 6153 H 576.695 -5.53884 -3.80344 0
M  V30 6154 N 579.415 0.9433 -1.26252 0
M  V30 6155 C 580.645 1.72117 -1.14277 0
M  V30 6156 C 581.053 1.86726 0.304944 0
M  V30 6157 O 580.396 1.3727 1.22076 0
M  V30 6158 C 580.458 3.14778 -1.73651 0
M  V30 6159 C 580.122 3.23561 -3.22734 0
M  V30 6160 C 581.119 3.07001 -4.19579 0
M  V30 6161 C 578.804 3.47019 -3.63157 0
M  V30 6162 C 580.798 3.13763 -5.54826 0
M  V30 6163 C 578.485 3.53416 -4.98538 0
M  V30 6164 C 579.483 3.36804 -5.94182 0
M  V30 6165 O 579.171 3.42906 -7.27098 0
M  V30 6166 H 578.903 0.545781 -0.398873 0
M  V30 6167 H 581.457 1.19123 -1.67328 0
M  V30 6168 H 579.687 3.69186 -1.1506 0
M  V30 6169 H 581.376 3.74469 -1.56613 0
M  V30 6170 H 582.142 2.88736 -3.89688 0
M  V30 6171 H 578.021 3.59006 -2.89199 0
M  V30 6172 H 581.565 3.00714 -6.29458 0
M  V30 6173 H 577.462 3.71201 -5.28091 0
M  V30 6174 H 578.23 3.59463 -7.35342 0
M  V30 6175 N 580.893 1.08022 1.14757 0
M  V30 6176 C 582.304 0.829144 1.67279 0
M  V30 6177 C 582.655 -0.644721 1.85305 0
M  V30 6178 O 581.78 -1.49838 1.56133 0
M  V30 6179 C 582.375 1.49855 3.03857 0
M  V30 6180 C 580.934 1.29482 3.53428 0
M  V30 6181 C 580.081 1.56386 2.28995 0
M  V30 6182 H 583.032 1.24134 0.988762 0
M  V30 6183 H 583.053 0.923572 3.69121 0
M  V30 6184 H 582.565 2.57123 2.90705 0
M  V30 6185 H 580.666 0.242669 3.71809 0
M  V30 6186 H 580.779 2.01974 4.34446 0
M  V30 6187 H 579.143 0.985217 2.34874 0
M  V30 6188 H 579.926 2.64851 2.18423 0
M  V30 6189 N 582.371 -1.3172 0.865308 0
M  V30 6190 C 583.319 -2.30569 0.306674 0
M  V30 6191 C 584.313 -1.59317 -0.575724 0
M  V30 6192 O 585.519 -1.73961 -0.462343 0
M  V30 6193 H 581.894 -0.747681 0.0804834 0
M  V30 6194 H 583.865 -2.75165 1.15441 0
M  V30 6195 C 582.614 -3.44358 -0.480952 0
M  V30 6196 H 581.937 -3.99354 0.18876 0
M  V30 6197 H 583.377 -4.15652 -0.837241 0
M  V30 6198 C 581.836 -2.92574 -1.67039 0
M  V30 6199 O 582.366 -2.90954 -2.76964 0
M  V30 6200 N 580.572 -2.48835 -1.50097 0
M  V30 6201 H 580.119 -2.50353 -0.606738 0
M  V30 6202 H 580.077 -2.14543 -2.29823 0
M  V30 6203 N 583.85 -0.624285 -1.44708 0
M  V30 6204 C 584.8 0.106466 -2.27751 0
M  V30 6205 C 585.784 0.822703 -1.38277 0
M  V30 6206 O 586.976 0.709939 -1.62138 0
M  V30 6207 C 584.105 1.092 -3.25469 0
M  V30 6208 C 583.191 0.375737 -4.22432 0
M  V30 6209 N 583.582 -0.591881 -5.02325 0
M  V30 6210 C 581.88 0.621093 -4.41654 0
M  V30 6211 C 582.581 -1.01443 -5.72786 0
M  V30 6212 N 581.557 -0.354651 -5.42442 0
M  V30 6213 H 585.359 -0.636464 -2.86926 0
M  V30 6214 H 582.873 -0.44925 -1.56062 0
M  V30 6215 H 584.87 1.63006 -3.83712 0
M  V30 6216 H 583.529 1.8353 -2.67856 0
M  V30 6217 H 584.541 -0.969389 -5.08747 0
M  V30 6218 H 581.218 1.34779 -3.95147 0
M  V30 6219 H 582.608 -1.81345 -6.46965 0
M  V30 6220 N 585.328 1.53329 -0.364422 0
M  V30 6221 C 586.739 1.86345 0.115039 0
M  V30 6222 C 587.09 1.28505 1.4826 0
M  V30 6223 O 586.215 0.606639 2.07723 0
M  V30 6224 C 586.81 3.38114 0.215522 0
M  V30 6225 C 585.369 3.70932 0.639237 0
M  V30 6226 C 584.516 2.76471 -0.214261 0
M  V30 6227 H 587.467 1.47593 -0.583258 0
M  V30 6228 H 587.488 3.66031 1.0393 0
M  V30 6229 H 587 3.80182 -0.779948 0
M  V30 6230 H 585.101 3.3442 1.64298 0
M  V30 6231 H 585.214 4.77302 0.41465 0
M  V30 6232 H 583.578 2.52724 0.316678 0
M  V30 6233 H 584.361 3.21373 -1.20725 0
M  V30 6234 N 586.806 0.0935595 1.57322 0
M  V30 6235 C 587.736 -0.863062 2.16964 0
M  V30 6236 C 588.717 -1.29528 1.10256 0
M  V30 6237 O 589.902 -1.36245 1.38387 0
M  V30 6238 C 587.032 -2.12276 2.74875 0
M  V30 6239 C 585.986 -1.82921 3.86942 0
M  V30 6240 C 585.312 -3.15707 4.31548 0
M  V30 6241 C 586.612 -1.11737 5.10208 0
M  V30 6242 H 588.306 -0.366145 2.97153 0
M  V30 6243 H 585.852 -0.174673 1.42937 0
M  V30 6244 H 587.805 -2.79634 3.1525 0
M  V30 6245 H 586.529 -2.64248 1.91938 0
M  V30 6246 H 585.188 -1.17961 3.47103 0
M  V30 6247 H 584.836 -3.65563 3.45504 0
M  V30 6248 H 584.536 -2.96849 5.07104 0
M  V30 6249 H 586.06 -3.84226 4.74555 0
M  V30 6250 H 587.474 -1.69203 5.47762 0
M  V30 6251 H 585.871 -1.03064 5.91183 0
M  V30 6252 H 586.941 -0.0998818 4.84797 0
M  V30 6253 N 588.284 -1.56567 -0.180126 0
M  V30 6254 C 589.53 -1.82658 -0.894859 0
M  V30 6255 C 589.885 -0.672826 -1.80252 0
M  V30 6256 O 589.178 0.331227 -1.88715 0
M  V30 6257 C 589.372 -3.1252 -1.73395 0
M  V30 6258 C 589.201 -4.40417 -0.909028 0
M  V30 6259 C 587.971 -5.01872 -0.587562 0
M  V30 6260 C 590.169 -5.13669 -0.254698 0
M  V30 6261 N 588.151 -6.13373 0.254428 0
M  V30 6262 C 589.522 -6.18373 0.448837 0
M  V30 6263 C 591.577 -4.97603 -0.171958 0
M  V30 6264 C 590.28 -7.08753 1.22725 0
M  V30 6265 C 592.306 -5.88418 0.593101 0
M  V30 6266 C 591.668 -6.92579 1.28503 0
M  V30 6267 H 587.767 -0.719493 -0.306356 0
M  V30 6268 H 590.351 -1.94021 -0.16247 0
M  V30 6269 H 588.522 -3.02365 -2.43783 0
M  V30 6270 H 590.254 -3.2664 -2.38931 0
M  V30 6271 H 587.009 -4.64666 -0.915557 0
M  V30 6272 H 587.433 -6.73721 0.665474 0
M  V30 6273 H 592.075 -4.17089 -0.692555 0
M  V30 6274 H 589.793 -7.88718 1.75923 0
M  V30 6275 H 593.379 -5.78059 0.658674 0
M  V30 6276 H 592.259 -7.61638 1.86754 0
M  V30 6277 N 589.762 0.448376 -1.51087 0
M  V30 6278 C 590.992 1.21965 -1.66757 0
M  V30 6279 C 591.4 1.85748 -0.359753 0
M  V30 6280 O 590.743 1.71022 0.670604 0
M  V30 6281 C 590.805 2.35284 -2.71812 0
M  V30 6282 C 590.469 1.91957 -4.1473 0
M  V30 6283 C 591.466 1.42921 -4.9987 0
M  V30 6284 C 589.151 1.99985 -4.60772 0
M  V30 6285 C 591.145 1.02485 -6.29107 0
M  V30 6286 C 588.832 1.5916 -5.90009 0
M  V30 6287 C 589.83 1.10491 -6.74004 0
M  V30 6288 O 589.518 0.702413 -8.00825 0
M  V30 6289 H 589.25 0.374125 -0.563034 0
M  V30 6290 H 591.804 0.538927 -1.98204 0
M  V30 6291 H 590.034 3.06599 -2.35657 0
M  V30 6292 H 591.723 2.97184 -2.76472 0
M  V30 6293 H 592.489 1.36123 -4.65506 0
M  V30 6294 H 588.368 2.36814 -3.95525 0
M  V30 6295 H 591.912 0.644271 -6.94619 0
M  V30 6296 H 587.809 1.65626 -6.2389 0
M  V30 6297 H 588.577 0.829248 -8.14288 0
M  V30 6298 N 591.24 1.41047 0.703093 0
M  V30 6299 C 592.468 1.4334 1.49202 0
M  V30 6300 C 592.883 0.0365596 1.88765 0
M  V30 6301 O 592.24 -0.942419 1.56284 0
M  V30 6302 C 592.291 2.33538 2.75939 0
M  V30 6303 O 592.012 3.67786 2.38045 0
M  V30 6304 C 593.513 2.44555 3.6974 0
M  V30 6305 H 590.733 0.488472 0.460039 0
M  V30 6306 H 593.277 1.85245 0.86629 0
M  V30 6307 H 591.432 1.94962 3.34766 0
M  V30 6308 H 591.846 4.15816 3.19683 0
M  V30 6309 H 593.32 3.11849 4.55471 0
M  V30 6310 H 593.797 1.47447 4.1371 0
M  V30 6311 H 594.403 2.83735 3.16819 0
M  V30 6312 N 592.718 -0.936591 1.26751 0
M  V30 6313 C 593.648 -2.05315 1.11212 0
M  V30 6314 C 594.629 -1.70092 0.0160262 0
M  V30 6315 O 595.814 -1.93279 0.188894 0
M  V30 6316 C 592.944 -3.39123 0.749171 0
M  V30 6317 C 591.898 -3.88425 1.79751 0
M  V30 6318 C 591.224 -5.18936 1.28876 0
M  V30 6319 C 592.524 -4.12798 3.19992 0
M  V30 6320 H 594.218 -2.18573 2.04613 0
M  V30 6321 H 591.764 -1.05027 0.985159 0
M  V30 6322 H 593.717 -4.16704 0.627323 0
M  V30 6323 H 592.441 -3.25855 -0.220543 0
M  V30 6324 H 591.1 -3.13028 1.90811 0
M  V30 6325 H 590.748 -5.02051 0.308757 0
M  V30 6326 H 590.448 -5.52892 1.98958 0
M  V30 6327 H 591.972 -5.99096 1.17967 0
M  V30 6328 H 593.386 -4.80977 3.11983 0
M  V30 6329 H 591.783 -4.58044 3.87705 0
M  V30 6330 H 592.853 -3.18412 3.65707 0
M  V30 6331 N 594.196 -1.08629 -1.14182 0
M  V30 6332 C 595.436 -0.826884 -1.86928 0
M  V30 6333 C 595.8 0.635808 -1.81167 0
M  V30 6334 O 597.001 1.0108 -2.49071 0
M  V30 6335 C 595.272 -1.33721 -3.31442 0
M  V30 6336 S 596.831 -1.21045 -4.21774 0
M  V30 6337 H 593.649 -0.299286 -0.644941 0
M  V30 6338 H 596.251 -1.38802 -1.37674 0
M  V30 6339 H 594.955 -2.39617 -3.33184 0
M  V30 6340 H 594.486 -0.771839 -3.85754 0
M  V30 6341 H 596.501 -0.156168 -4.95954 0
M  V30 6342 N 595.674 1.31259 -0.872281 0
M  V30 6343 C 596.951 1.91362 -0.404943 0
M  V30 6344 C 597.331 1.79362 1.11321 0
M  V30 6345 O 596.679 1.20277 1.94283 0
M  V30 6346 C 596.889 3.3749 -0.888893 0
M  V30 6347 C 598.237 4.14593 -0.916384 0
M  V30 6348 O 599.261 3.46282 -0.834701 0
M  V30 6349 O 598.12 5.3661 -1.03498 0
M  V30 6350 H 595.214 0.818016 -0.121569 0
M  V30 6351 H 597.76 1.39912 -0.960346 0
M  V30 6352 H 596.532 3.40249 -1.93251 0
M  V30 6353 H 596.155 3.96375 -0.311932 0
M  V30 6354 N 597.152 0.631951 1.44375 0
M  V30 6355 C 598.568 0.297642 1.568 0
M  V30 6356 C 598.768 -1.19916 1.61934 0
M  V30 6357 O 597.824 -1.98324 1.56281 0
M  V30 6358 C 599.137 0.990286 2.83926 0
M  V30 6359 C 600.685 0.968507 2.97639 0
M  V30 6360 C 601.16 1.64163 4.27568 0
M  V30 6361 N 602.651 1.60826 4.34384 0
M  V30 6362 C 603.386 2.09802 5.33639 0
M  V30 6363 N 602.882 2.66973 6.39294 0
M  V30 6364 N 604.675 2.00426 5.25153 0
M  V30 6365 H 596.826 1.60353 1.39286 0
M  V30 6366 H 599.089 0.673142 0.667521 0
M  V30 6367 H 598.795 2.04519 2.8612 0
M  V30 6368 H 598.669 0.528563 3.73478 0
M  V30 6369 H 601.056 -0.0779247 2.94997 0
M  V30 6370 H 601.137 1.46873 2.09433 0
M  V30 6371 H 600.781 2.68752 4.3097 0
M  V30 6372 H 600.711 1.11624 5.14634 0
M  V30 6373 H 603.202 1.19087 3.58646 0
M  V30 6374 H 603.515 3.02074 7.11316 0
M  V30 6375 H 601.86 2.71024 6.39977 0
M  V30 6376 H 605.051 1.55483 4.41523 0
M  V30 6377 H 605.224 2.38906 6.02352 0
M  V30 6378 N 598.631 -1.53133 0.372548 0
M  V30 6379 C 599.861 -2.05476 -0.215202 0
M  V30 6380 C 600.269 -1.24534 -1.42436 0
M  V30 6381 O 599.612 -0.280771 -1.81542 0
M  V30 6382 C 599.674 -3.53276 -0.666068 0
M  V30 6383 C 599.338 -4.54998 0.427342 0
M  V30 6384 C 600.335 -5.03911 1.27944 0
M  V30 6385 C 598.02 -4.98828 0.589579 0
M  V30 6386 C 600.014 -5.95263 2.27905 0
M  V30 6387 C 597.701 -5.89984 1.59255 0
M  V30 6388 C 598.699 -6.38093 2.43571 0
M  V30 6389 O 598.387 -7.27451 3.42156 0
M  V30 6390 H 598.119 -0.67481 -0.040099 0
M  V30 6391 H 600.673 -1.98409 0.531312 0
M  V30 6392 H 598.903 -3.57904 -1.4643 0
M  V30 6393 H 600.592 -3.88442 -1.1776 0
M  V30 6394 H 601.358 -4.70792 1.16532 0
M  V30 6395 H 597.237 -4.60965 -0.0569456 0
M  V30 6396 H 600.781 -6.32736 2.93753 0
M  V30 6397 H 596.678 -6.22518 1.70711 0
M  V30 6398 H 597.446 -7.45467 3.37967 0
M  V30 6399 N 600.109 -0.101901 -1.5727 0
M  V30 6400 C 601.357 0.559091 -1.94213 0
M  V30 6401 C 601.678 1.68297 -0.984948 0
M  V30 6402 O 600.948 1.95863 -0.0381975 0
M  V30 6403 H 599.528 0.20952 -0.717015 0
M  V30 6404 H 602.19 -0.166831 -1.94185 0
M  V30 6405 H 601.286 0.96485 -2.96811 0
M  V30 6406 N 601.587 1.56661 0.17182 0
M  V30 6407 C 602.517 1.99401 1.21498 0
M  V30 6408 C 603.498 0.869516 1.46197 0
M  V30 6409 O 604.683 1.13556 1.57539 0
M  V30 6410 C 601.813 2.35346 2.55401 0
M  V30 6411 C 600.767 3.5075 2.45272 0
M  V30 6412 C 600.093 3.72437 3.8366 0
M  V30 6413 C 601.393 4.84216 1.95787 0
M  V30 6414 H 603.087 2.86792 0.859699 0
M  V30 6415 H 600.633 1.37977 0.412103 0
M  V30 6416 H 602.586 2.63843 3.2858 0
M  V30 6417 H 601.31 1.44864 2.92715 0
M  V30 6418 H 599.969 3.2238 1.74547 0
M  V30 6419 H 599.617 2.79246 4.18367 0
M  V30 6420 H 599.317 4.50087 3.77751 0
M  V30 6421 H 600.841 4.03334 4.58426 0
M  V30 6422 H 602.255 5.11592 2.5874 0
M  V30 6423 H 600.652 5.65498 2.00827 0
M  V30 6424 H 601.722 4.76243 0.912159 0
M  V30 6425 N 603.065 -0.440357 1.51323 0
M  V30 6426 C 604.295 -1.21079 1.67402 0
M  V30 6427 C 604.703 -1.85555 0.369599 0
M  V30 6428 O 604.046 -1.71375 -0.661525 0
M  V30 6429 C 604.108 -2.33839 2.73056 0
M  V30 6430 C 603.772 -1.89755 4.15743 0
M  V30 6431 C 604.769 -1.40268 5.0062 0
M  V30 6432 C 602.454 -1.97539 4.61826 0
M  V30 6433 C 604.448 -0.991474 6.29642 0
M  V30 6434 C 602.135 -1.56029 5.90845 0
M  V30 6435 C 603.133 -1.06915 6.7458 0
M  V30 6436 O 602.821 -0.659933 8.01187 0
M  V30 6437 H 602.553 -0.371133 0.56501 0
M  V30 6438 H 605.107 -0.528409 1.98487 0
M  V30 6439 H 603.337 -3.05345 2.37279 0
M  V30 6440 H 605.026 -2.95713 2.78044 0
M  V30 6441 H 605.792 -1.33652 4.66221 0
M  V30 6442 H 601.671 -2.34713 3.96776 0
M  V30 6443 H 605.215 -0.607425 6.9495 0
M  V30 6444 H 601.112 -1.62315 6.24759 0
M  V30 6445 H 601.88 -0.786052 8.14717 0
M  V30 6446 N 604.543 -1.41418 -0.695603 0
M  V30 6447 C 605.789 -1.40982 -1.4578 0
M  V30 6448 C 606.122 -0.0187763 -1.94191 0
M  V30 6449 O 605.397 0.95346 -1.69527 0
M  V30 6450 C 605.68 -2.41657 -2.66972 0
M  V30 6451 C 605.533 -3.89869 -2.24327 0
M  V30 6452 C 606.852 -2.39589 -3.69168 0
M  V30 6453 H 603.971 -0.513405 -0.528757 0
M  V30 6454 H 606.613 -1.72693 -0.792275 0
M  V30 6455 H 604.763 -2.14746 -3.23754 0
M  V30 6456 H 606.435 -4.27683 -1.72872 0
M  V30 6457 H 604.678 -4.04737 -1.56111 0
M  V30 6458 H 605.349 -4.55857 -3.11285 0
M  V30 6459 H 607.825 -2.63471 -3.2206 0
M  V30 6460 H 606.701 -3.12044 -4.51575 0
M  V30 6461 H 606.962 -1.41447 -4.18862 0
M  V30 6462 N 606.021 0.929856 -1.27246 0
M  V30 6463 C 607.267 1.6798 -1.13625 0
M  V30 6464 C 607.6 1.91586 0.317589 0
M  V30 6465 O 606.875 1.50467 1.23247 0
M  V30 6466 C 607.158 3.04766 -1.91806 0
M  V30 6467 C 607.011 2.88415 -3.45162 0
M  V30 6468 C 608.33 4.05063 -1.72082 0
M  V30 6469 H 605.449 0.609632 -0.414147 0
M  V30 6470 H 608.091 1.0792 -1.56376 0
M  V30 6471 H 606.241 3.56034 -1.55474 0
M  V30 6472 H 607.913 2.44282 -3.91311 0
M  V30 6473 H 606.156 2.23802 -3.71611 0
M  V30 6474 H 606.827 3.85482 -3.95105 0
M  V30 6475 H 609.303 3.62798 -2.03757 0
M  V30 6476 H 608.179 4.98765 -2.29182 0
M  V30 6477 H 608.44 4.37021 -0.668206 0
M  V30 6478 N 607.499 1.09233 1.13605 0
M  V30 6479 C 608.776 0.739633 1.81077 0
M  V30 6480 C 609.156 -0.775595 1.96336 0
M  V30 6481 O 608.504 -1.69726 1.52988 0
M  V30 6482 C 608.714 1.47636 3.16235 0
M  V30 6483 C 610.062 1.64087 3.91613 0
M  V30 6484 O 611.086 1.43871 3.25852 0
M  V30 6485 O 609.945 1.97511 5.0956 0
M  V30 6486 H 607.039 0.265464 0.783236 0
M  V30 6487 H 609.585 1.19441 1.20549 0
M  V30 6488 H 608.357 2.50818 3.00344 0
M  V30 6489 H 607.98 1.01362 3.84462 0
M  V30 6490 N 608.977 -1.30795 0.87923 0
M  V30 6491 C 609.887 -2.32041 0.345565 0
M  V30 6492 C 610.903 -1.65103 -0.549265 0
M  V30 6493 O 612.079 -1.9645 -0.443763 0
M  V30 6494 C 609.144 -3.43944 -0.436245 0
M  V30 6495 C 608.205 -4.26521 0.48765 0
M  V30 6496 C 607.438 -5.33081 -0.256943 0
M  V30 6497 O 607.661 -5.50762 -1.48381 0
M  V30 6498 O 606.595 -6.00635 0.389985 0
M  V30 6499 H 610.421 -2.79627 1.18501 0
M  V30 6500 H 608.006 -1.3486 0.642885 0
M  V30 6501 H 609.888 -4.12128 -0.879119 0
M  V30 6502 H 608.563 -2.98504 -1.25208 0
M  V30 6503 H 607.47 -3.61057 0.979216 0
M  V30 6504 H 608.803 -4.75551 1.26933 0
M  V30 6505 N 610.455 -0.639598 -1.44038 0
M  V30 6506 C 611.418 0.0506628 -2.29144 0
M  V30 6507 C 612.418 0.764001 -1.41491 0
M  V30 6508 O 613.608 0.607309 -1.63271 0
M  V30 6509 C 610.74 1.0824 -3.2326 0
M  V30 6510 H 611.933 -0.697987 -2.91664 0
M  V30 6511 H 609.486 -0.400146 -1.51091 0
M  V30 6512 H 610.221 1.86075 -2.65606 0
M  V30 6513 H 610.006 0.574725 -3.87865 0
M  V30 6514 H 611.496 1.56487 -3.87171 0
M  V30 6515 N 611.933 1.52934 -0.380664 0
M  V30 6516 C 612.881 2.27727 0.47361 0
M  V30 6517 C 613.875 1.31288 1.0705 0
M  V30 6518 O 615.081 1.4886 1.01197 0
M  V30 6519 H 611.456 0.732189 0.171475 0
M  V30 6520 H 613.427 2.97864 -0.178785 0
M  V30 6521 C 612.176 3.0904 1.59341 0
M  V30 6522 H 611.499 3.831 1.14343 0
M  V30 6523 H 612.939 3.64527 2.16555 0
M  V30 6524 C 611.398 2.20813 2.54447 0
M  V30 6525 O 611.928 1.82907 3.57642 0
M  V30 6526 N 610.134 1.85145 2.23986 0
M  V30 6527 H 609.681 2.16169 1.40103 0
M  V30 6528 H 609.639 1.26402 2.87871 0
M  V30 6529 N 613.412 0.11024 1.57214 0
M  V30 6530 C 614.661 -0.549638 1.94067 0
M  V30 6531 C 614.974 -1.68388 0.995234 0
M  V30 6532 O 616.18 -2.40593 1.25807 0
M  V30 6533 C 614.636 -1.02912 3.44873 0
M  V30 6534 C 614.244 0.0761861 4.47935 0
M  V30 6535 C 615.988 -1.66087 3.9066 0
M  V30 6536 C 613.895 -0.419502 5.8991 0
M  V30 6537 H 612.825 -0.209092 0.724428 0
M  V30 6538 H 615.476 0.188683 1.82527 0
M  V30 6539 H 613.858 -1.82159 3.51616 0
M  V30 6540 H 615.032 0.852185 4.52851 0
M  V30 6541 H 613.347 0.614052 4.11847 0
M  V30 6542 H 615.944 -2.04272 4.94143 0
M  V30 6543 H 616.287 -2.53591 3.30148 0
M  V30 6544 H 616.82 -0.933959 3.86681 0
M  V30 6545 H 613.559 0.419277 6.54158 0
M  V30 6546 H 613.079 -1.16217 5.88433 0
M  V30 6547 H 614.758 -0.883577 6.40938 0
M  V30 6548 N 614.89 -1.56749 -0.16351 0
M  V30 6549 C 615.8 -2.00255 -1.2221 0
M  V30 6550 C 616.816 -0.915194 -1.47987 0
M  V30 6551 O 617.992 -1.22342 -1.59982 0
M  V30 6552 C 615.057 -2.36035 -2.53946 0
M  V30 6553 C 614.118 -3.58637 -2.35962 0
M  V30 6554 C 613.351 -3.92701 -3.61416 0
M  V30 6555 O 613.574 -3.27632 -4.66919 0
M  V30 6556 O 612.508 -4.86019 -3.55062 0
M  V30 6557 H 616.334 -2.90586 -0.882794 0
M  V30 6558 H 613.919 -1.44721 -0.370978 0
M  V30 6559 H 615.801 -2.59982 -3.31643 0
M  V30 6560 H 614.476 -1.48863 -2.8744 0
M  V30 6561 H 613.383 -3.39898 -1.5627 0
M  V30 6562 H 614.716 -4.46374 -2.0739 0
M  V30 6563 N 616.368 0.432326 -1.51554 0
M  V30 6564 C 617.596 1.20364 -1.68286 0
M  V30 6565 C 618.011 1.84888 -0.38233 0
M  V30 6566 O 617.368 1.70924 0.639627 0
M  V30 6567 C 617.419 2.28398 -2.80208 0
M  V30 6568 O 617.14 1.66512 -4.05223 0
M  V30 6569 C 618.641 3.18584 -3.08251 0
M  V30 6570 H 615.861 0.36259 -0.564596 0
M  V30 6571 H 618.405 0.511647 -1.97996 0
M  V30 6572 H 616.56 2.93305 -2.53083 0
M  V30 6573 H 616.974 2.37951 -4.67418 0
M  V30 6574 H 618.448 3.90511 -3.90135 0
M  V30 6575 H 618.925 3.79628 -2.2086 0
M  V30 6576 H 619.531 2.59372 -3.37055 0
M  V30 6577 N 617.846 1.41785 0.688094 0
M  V30 6578 C 618.796 1.40684 1.79421 0
M  V30 6579 C 619.78 0.280096 1.58443 0
M  V30 6580 O 620.972 0.521332 1.69148 0
M  V30 6581 C 618.101 1.29874 3.17785 0
M  V30 6582 C 617.187 2.47442 3.44432 0
M  V30 6583 N 617.578 3.72895 3.41736 0
M  V30 6584 C 615.876 2.41416 3.75013 0
M  V30 6585 C 616.577 4.50912 3.67496 0
M  V30 6586 N 615.553 3.81131 3.87608 0
M  V30 6587 H 619.355 2.35591 1.7571 0
M  V30 6588 H 616.869 1.35946 0.888393 0
M  V30 6589 H 618.866 1.27168 3.97031 0
M  V30 6590 H 617.526 0.359587 3.22703 0
M  V30 6591 H 618.537 4.05676 3.21943 0
M  V30 6592 H 615.214 1.56011 3.87256 0
M  V30 6593 H 616.604 5.59865 3.71484 0
M  V30 6594 N 619.324 -0.923095 1.27737 0
M  V30 6595 C 620.572 -1.66797 1.14119 0
M  V30 6596 C 620.893 -1.92479 -0.312541 0
M  V30 6597 O 620.163 -1.53432 -1.218 0
M  V30 6598 H 618.743 -0.618196 0.419336 0
M  V30 6599 H 621.405 -1.10815 1.60331 0
M  V30 6600 H 620.501 -2.63424 1.67374 0
M  V30 6601 N 620.802 -1.09834 -1.13024 0
M  V30 6602 C 621.735 -0.685453 -2.17662 0
M  V30 6603 C 622.713 0.310142 -1.59615 0
M  V30 6604 O 623.897 0.21052 -1.87321 0
M  V30 6605 C 621.024 -0.0104476 -3.38698 0
M  V30 6606 C 620.07 -0.968522 -4.15358 0
M  V30 6607 S 620.903 -2.48272 -4.74469 0
M  V30 6608 C 622.059 -1.82025 -5.98847 0
M  V30 6609 H 622.292 -1.57187 -2.52348 0
M  V30 6610 H 619.825 -0.914728 -1.24387 0
M  V30 6611 H 621.783 0.372694 -4.08805 0
M  V30 6612 H 620.444 0.852673 -3.02305 0
M  V30 6613 H 619.637 -0.443373 -5.02046 0
M  V30 6614 H 619.239 -1.29327 -3.50928 0
M  V30 6615 H 621.531 -1.14678 -6.67724 0
M  V30 6616 H 622.474 -2.66645 -6.55977 0
M  V30 6617 H 622.882 -1.2874 -5.49624 0
M  V30 6618 N 622.28 1.30327 -0.886154 0
M  V30 6619 C 623.526 1.96388 -0.505941 0
M  V30 6620 C 623.859 1.69784 0.942712 0
M  V30 6621 O 623.134 1.00322 1.6663 0
M  V30 6622 C 623.417 3.51488 -0.782826 0
M  V30 6623 C 623.27 3.87603 -2.28219 0
M  V30 6624 C 624.589 4.39331 -0.260128 0
M  V30 6625 H 621.708 0.713327 -0.185292 0
M  V30 6626 H 624.35 1.54178 -1.11036 0
M  V30 6627 H 622.5 3.87572 -0.268399 0
M  V30 6628 H 624.172 3.61537 -2.86512 0
M  V30 6629 H 622.415 3.3563 -2.74837 0
M  V30 6630 H 623.086 4.95806 -2.42653 0
M  V30 6631 H 625.562 4.10162 -0.700444 0
M  V30 6632 H 624.438 5.46769 -0.483179 0
M  V30 6633 H 624.699 4.34072 0.838674 0
M  V30 6634 N 623.758 0.647228 1.43697 0
M  V30 6635 C 625.169 0.238689 1.85168 0
M  V30 6636 C 625.52 -1.21345 1.54175 0
M  V30 6637 O 624.645 -1.92542 0.987743 0
M  V30 6638 C 625.24 0.426422 3.36106 0
M  V30 6639 C 623.799 0.0722541 3.76331 0
M  V30 6640 C 622.946 0.732153 2.6746 0
M  V30 6641 H 625.897 0.851309 1.33934 0
M  V30 6642 H 625.918 -0.32987 3.79067 0
M  V30 6643 H 625.43 1.48339 3.58632 0
M  V30 6644 H 623.531 -0.982355 3.59417 0
M  V30 6645 H 623.644 0.493541 4.76551 0
M  V30 6646 H 622.008 0.16594 2.54159 0
M  V30 6647 H 622.791 1.79204 2.92816 0
M  V30 6648 N 625.236 -1.5273 0.388769 0
M  V30 6649 C 626.169 -2.22861 -0.490752 0
M  V30 6650 C 627.147 -1.22912 -1.06449 0
M  V30 6651 O 628.331 -1.51896 -1.11624 0
M  V30 6652 C 625.458 -2.94141 -1.67925 0
M  V30 6653 C 624.504 -4.08355 -1.23081 0
M  V30 6654 S 625.337 -5.35077 -0.212786 0
M  V30 6655 C 626.493 -6.09879 -1.40708 0
M  V30 6656 H 626.726 -2.97115 0.104787 0
M  V30 6657 H 624.259 -1.53428 0.172956 0
M  V30 6658 H 626.217 -3.35818 -2.36085 0
M  V30 6659 H 624.878 -2.19568 -2.24608 0
M  V30 6660 H 624.071 -4.57328 -2.11818 0
M  V30 6661 H 623.673 -3.68688 -0.628121 0
M  V30 6662 H 625.965 -6.36018 -2.33424 0
M  V30 6663 H 626.908 -7.01586 -0.958271 0
M  V30 6664 H 627.316 -5.40646 -1.62364 0
M  V30 6665 N 626.714 -0.118576 -1.57153 0
M  V30 6666 C 627.662 0.849114 -2.16547 0
M  V30 6667 C 628.656 1.27567 -1.11458 0
M  V30 6668 O 629.862 1.24746 -1.29763 0
M  V30 6669 H 626.237 0.291935 -0.693021 0
M  V30 6670 H 628.208 0.323693 -2.96639 0
M  V30 6671 C 626.957 2.08951 -2.77912 0
M  V30 6672 H 626.28 1.77021 -3.58474 0
M  V30 6673 H 627.72 2.74666 -3.23008 0
M  V30 6674 C 626.179 2.87899 -1.74974 0
M  V30 6675 O 626.709 3.83268 -1.20285 0
M  V30 6676 N 624.915 2.51884 -1.44924 0
M  V30 6677 H 624.462 1.74397 -1.89587 0
M  V30 6678 H 624.42 3.05003 -0.762921 0
M  V30 6679 N 628.193 1.56834 0.155195 0
M  V30 6680 C 629.609 1.51315 0.50755 0
M  V30 6681 C 629.809 0.825614 1.83809 0
M  V30 6682 O 628.865 0.39271 2.49427 0
M  V30 6683 C 630.178 2.96074 0.52542 0
M  V30 6684 C 631.726 3.06968 0.611505 0
M  V30 6685 C 632.201 4.53218 0.660115 0
M  V30 6686 N 633.692 4.5753 0.722564 0
M  V30 6687 C 634.427 5.68056 0.781023 0
M  V30 6688 N 633.923 6.88173 0.799327 0
M  V30 6689 N 635.716 5.56068 0.821278 0
M  V30 6690 H 627.867 1.9993 -0.717063 0
M  V30 6691 H 630.13 0.911507 -0.260496 0
M  V30 6692 H 629.836 3.49599 -0.383875 0
M  V30 6693 H 629.71 3.51587 1.36624 0
M  V30 6694 H 632.097 2.53468 1.51122 0
M  V30 6695 H 632.178 2.54513 -0.256306 0
M  V30 6696 H 631.822 5.07354 -0.23541 0
M  V30 6697 H 631.752 5.03447 1.5443 0
M  V30 6698 H 634.243 3.71054 0.716049 0
M  V30 6699 H 634.556 7.6816 0.845553 0
M  V30 6700 H 632.901 6.90751 0.767337 0
M  V30 6701 H 636.092 4.61142 0.804091 0
M  V30 6702 H 636.265 6.42223 0.863372 0
M  V30 6703 N 629.671 -0.424282 1.51781 0
M  V30 6704 C 630.601 -1.52305 1.7699 0
M  V30 6705 C 631.582 -1.5839 0.620209 0
M  V30 6706 O 632.767 -1.73908 0.864268 0
M  V30 6707 C 629.897 -2.90271 1.90683 0
M  V30 6708 C 628.851 -2.99043 3.06198 0
M  V30 6709 C 628.177 -4.39116 3.05092 0
M  V30 6710 C 629.477 -2.7192 4.45934 0
M  V30 6711 H 631.171 -1.31461 2.68995 0
M  V30 6712 H 628.717 -0.630985 1.29439 0
M  V30 6713 H 630.67 -3.6711 2.06901 0
M  V30 6714 H 629.394 -3.12376 0.953365 0
M  V30 6715 H 628.053 -2.24646 2.89706 0
M  V30 6716 H 627.701 -4.58207 2.07498 0
M  V30 6717 H 627.401 -4.45912 3.82669 0
M  V30 6718 H 628.925 -5.17911 3.2342 0
M  V30 6719 H 630.339 -3.38487 4.62709 0
M  V30 6720 H 628.736 -2.90111 5.25315 0
M  V30 6721 H 629.806 -1.67445 4.55072 0
M  V30 6722 N 631.149 -1.42148 -0.680565 0
M  V30 6723 C 632.377 -1.45696 -1.46902 0
M  V30 6724 C 632.792 -0.0665858 -1.88683 0
M  V30 6725 O 632.149 0.917436 -1.57764 0
M  V30 6726 C 632.2 -2.37898 -2.72188 0
M  V30 6727 O 631.921 -3.71526 -2.32163 0
M  V30 6728 C 633.422 -2.50407 -3.65802 0
M  V30 6729 H 630.642 -0.495729 -0.45221 0
M  V30 6730 H 633.186 -1.866 -0.836709 0
M  V30 6731 H 631.341 -2.00263 -3.31622 0
M  V30 6732 H 631.755 -4.20849 -3.13027 0
M  V30 6733 H 633.229 -3.19056 -4.50452 0
M  V30 6734 H 633.706 -1.5401 -4.11312 0
M  V30 6735 H 634.312 -2.8874 -3.12265 0
M  V30 6736 N 632.627 0.916307 -1.28225 0
M  V30 6737 C 633.904 1.64429 -1.05936 0
M  V30 6738 C 634.284 2.07234 0.402139 0
M  V30 6739 O 633.632 1.81535 1.3877 0
M  V30 6740 C 633.842 2.83773 -2.03159 0
M  V30 6741 C 635.19 3.54852 -2.33164 0
M  V30 6742 O 636.214 2.93918 -2.01223 0
M  V30 6743 O 635.073 4.64663 -2.87664 0
M  V30 6744 H 632.167 0.721221 -0.404683 0
M  V30 6745 H 634.713 0.965838 -1.39534 0
M  V30 6746 H 633.485 2.49217 -3.01673 0
M  V30 6747 H 633.108 3.59333 -1.70192 0
M  V30 6748 N 634.105 1.10431 1.1244 0
M  V30 6749 C 635.382 0.758797 1.80282 0
M  V30 6750 C 635.762 -0.754727 1.97147 0
M  V30 6751 O 635.11 -1.68094 1.54779 0
M  V30 6752 C 635.32 1.50982 3.14651 0
M  V30 6753 C 636.668 1.68232 3.8985 0
M  V30 6754 O 637.692 1.47319 3.24308 0
M  V30 6755 O 636.551 2.02905 5.07437 0
M  V30 6756 H 633.645 0.273756 0.780376 0
M  V30 6757 H 636.191 1.20713 1.19275 0
M  V30 6758 H 634.963 2.53989 2.97666 0
M  V30 6759 H 634.586 1.05435 3.83366 0
M  V30 6760 N 635.583 -1.29855 0.893053 0
M  V30 6761 C 636.994 -1.77946 0.564998 0
M  V30 6762 C 637.345 -1.73339 -0.919134 0
M  V30 6763 O 636.47 -1.3152 -1.71847 0
M  V30 6764 C 637.065 -3.23118 1.01883 0
M  V30 6765 C 635.624 -3.69013 0.742051 0
M  V30 6766 C 634.771 -2.50121 1.19727 0
M  V30 6767 H 637.722 -1.16611 1.07646 0
M  V30 6768 H 637.743 -3.78875 0.351249 0
M  V30 6769 H 637.255 -3.26439 2.09903 0
M  V30 6770 H 635.356 -3.71173 -0.325816 0
M  V30 6771 H 635.469 -4.60117 1.33527 0
M  V30 6772 H 633.833 -2.47128 0.616418 0
M  V30 6773 H 634.616 -2.56174 2.28538 0
M  V30 6774 N 637.061 -0.65484 -1.43351 0
M  V30 6775 C 638.477 -0.32255 -1.56307 0
M  V30 6776 C 638.677 1.17324 -1.63821 0
M  V30 6777 O 637.733 1.95813 -1.59417 0
M  V30 6778 C 639.046 -1.03533 -2.82314 0
M  V30 6779 C 640.594 -1.01574 -2.9606 0
M  V30 6780 C 641.069 -1.70945 -4.24902 0
M  V30 6781 N 642.56 -1.67716 -4.3177 0
M  V30 6782 C 643.295 -2.18265 -5.30234 0
M  V30 6783 N 642.791 -2.7711 -6.34966 0
M  V30 6784 N 644.584 -2.08756 -5.21898 0
M  V30 6785 H 636.735 -1.62549 -1.36717 0
M  V30 6786 H 638.998 -0.683676 -0.656727 0
M  V30 6787 H 638.704 -2.09045 -2.8283 0
M  V30 6788 H 638.578 -0.587913 -3.7259 0
M  V30 6789 H 640.965 0.0309834 -2.95084 0
M  V30 6790 H 641.046 -1.50186 -2.07069 0
M  V30 6791 H 640.69 -2.75574 -4.26639 0
M  V30 6792 H 640.62 -1.19797 -5.12793 0
M  V30 6793 H 643.111 -1.24777 -3.56706 0
M  V30 6794 H 643.424 -3.13353 -7.06421 0
M  V30 6795 H 641.769 -2.81171 -6.35585 0
M  V30 6796 H 644.96 -1.62488 -4.38994 0
M  V30 6797 H 645.133 -2.48459 -5.98475 0
M  V30 6798 N 638.539 1.52521 -0.396863 0
M  V30 6799 C 639.785 2.02641 0.175606 0
M  V30 6800 C 640.14 1.27782 1.43839 0
M  V30 6801 O 639.433 0.371921 1.87956 0
M  V30 6802 C 639.627 3.5403 0.489677 0
M  V30 6803 C 639.456 4.43551 -0.741113 0
M  V30 6804 C 638.226 4.8927 -1.26265 0
M  V30 6805 C 640.424 4.88263 -1.61565 0
M  V30 6806 N 638.406 5.62884 -2.4502 0
M  V30 6807 C 639.777 5.60534 -2.64955 0
M  V30 6808 C 641.832 4.70294 -1.63486 0
M  V30 6809 C 640.535 6.16744 -3.70162 0
M  V30 6810 C 642.561 5.27392 -2.67603 0
M  V30 6811 C 641.923 5.99575 -3.69715 0
M  V30 6812 H 638.022 0.781563 0.0261477 0
M  V30 6813 H 640.606 1.86816 -0.548454 0
M  V30 6814 H 638.777 3.69952 1.18279 0
M  V30 6815 H 640.509 3.90843 1.04996 0
M  V30 6816 H 637.264 4.66403 -0.822509 0
M  V30 6817 H 637.688 6.04339 -3.05128 0
M  V30 6818 H 642.33 4.13985 -0.858848 0
M  V30 6819 H 640.048 6.72131 -4.48626 0
M  V30 6820 H 643.634 5.15365 -2.69982 0
M  V30 6821 H 642.514 6.42967 -4.48958 0
M  V30 6822 N 640.017 0.126909 1.57088 0
M  V30 6823 C 640.947 -0.816847 2.18746 0
M  V30 6824 C 641.928 -1.27161 1.12979 0
M  V30 6825 O 643.113 -1.33279 1.41246 0
M  V30 6826 C 640.243 -2.06398 2.79315 0
M  V30 6827 C 639.197 -1.74673 3.90735 0
M  V30 6828 C 638.523 -3.06482 4.38147 0
M  V30 6829 C 639.823 -1.0089 5.12463 0
M  V30 6830 H 641.517 -0.303032 2.97863 0
M  V30 6831 H 639.063 -0.144314 1.43275 0
M  V30 6832 H 641.016 -2.72885 3.2111 0
M  V30 6833 H 639.74 -2.60118 1.975 0
M  V30 6834 H 638.399 -1.10572 3.49527 0
M  V30 6835 H 638.047 -3.58152 3.5318 0
M  V30 6836 H 637.747 -2.86025 5.13287 0
M  V30 6837 H 639.271 -3.74073 4.82599 0
M  V30 6838 H 640.685 -1.57546 5.51228 0
M  V30 6839 H 639.082 -0.905006 5.93237 0
M  V30 6840 H 640.152 0.00297335 4.849 0
M  V30 6841 N 641.495 -1.56914 -0.146875 0
M  V30 6842 C 642.906 -1.72799 -0.706928 0
M  V30 6843 C 643.257 -0.741329 -1.81656 0
M  V30 6844 O 642.382 0.0920162 -2.16204 0
M  V30 6845 C 642.977 -3.13317 -1.28911 0
M  V30 6846 C 641.536 -3.30803 -1.79573 0
M  V30 6847 C 640.683 -2.68725 -0.684252 0
M  V30 6848 H 643.634 -1.58504 0.0787931 0
M  V30 6849 H 643.655 -3.13323 -2.15891 0
M  V30 6850 H 643.167 -3.85104 -0.481284 0
M  V30 6851 H 641.268 -2.64012 -2.62923 0
M  V30 6852 H 641.381 -4.38754 -1.92436 0
M  V30 6853 H 639.745 -2.29196 -1.11091 0
M  V30 6854 H 640.528 -3.43117 0.112134 0
M  V30 6855 N 642.974 0.416227 -1.52004 0
M  V30 6856 C 643.937 1.48926 -1.74223 0
M  V30 6857 C 644.937 1.48693 -0.612119 0
M  V30 6858 O 646.127 1.50343 -0.879921 0
M  V30 6859 C 643.259 2.88372 -1.81809 0
M  V30 6860 H 644.452 1.3052 -2.70008 0
M  V30 6861 H 642.005 0.646271 -1.42313 0
M  V30 6862 H 642.74 3.12157 -0.879135 0
M  V30 6863 H 642.525 2.89944 -2.6396 0
M  V30 6864 H 644.015 3.66173 -2.00766 0
M  V30 6865 N 644.452 1.42507 0.673017 0
M  V30 6866 C 645.385 1.40557 1.79774 0
M  V30 6867 C 646.363 0.269606 1.60349 0
M  V30 6868 O 647.547 0.460105 1.82798 0
M  V30 6869 C 644.674 1.19815 3.168 0
M  V30 6870 C 643.72 2.36429 3.5497 0
M  V30 6871 S 644.553 3.98963 3.57196 0
M  V30 6872 C 645.709 3.80567 4.9691 0
M  V30 6873 H 645.942 2.35734 1.81154 0
M  V30 6874 H 643.475 1.293 0.843846 0
M  V30 6875 H 645.433 1.08535 3.95892 0
M  V30 6876 H 644.094 0.262215 3.13004 0
M  V30 6877 H 643.287 2.17669 4.54573 0
M  V30 6878 H 642.889 2.44233 2.83242 0
M  V30 6879 H 645.181 3.41668 5.85038 0
M  V30 6880 H 646.124 4.79852 5.20718 0
M  V30 6881 H 646.532 3.13399 4.69512 0
M  V30 6882 N 645.93 -0.909495 1.28709 0
M  V30 6883 C 647.155 -1.69801 1.1909 0
M  V30 6884 C 647.58 -1.86479 -0.246388 0
M  V30 6885 O 646.938 -1.37802 -1.17815 0
M  V30 6886 C 646.986 -3.06543 1.89904 0
M  V30 6887 O 646.09 -3.94268 1.2094 0
M  V30 6888 H 645.431 -0.519783 0.413185 0
M  V30 6889 H 647.961 -1.13689 1.70106 0
M  V30 6890 H 647.971 -3.56748 1.97977 0
M  V30 6891 H 646.646 -2.93722 2.94449 0
M  V30 6892 H 645.223 -3.52702 1.2106 0
M  V30 6893 N 647.408 -1.11026 -1.11852 0
M  V30 6894 C 648.318 -0.777252 -2.2135 0
M  V30 6895 C 649.334 0.227821 -1.72502 0
M  V30 6896 O 650.51 0.0650587 -2.01295 0
M  V30 6897 C 647.575 -0.220668 -3.45997 0
M  V30 6898 C 646.636 -1.2838 -4.09655 0
M  V30 6899 C 645.869 -0.753678 -5.28352 0
M  V30 6900 O 646.092 0.417779 -5.68868 0
M  V30 6901 O 645.026 -1.51647 -5.82483 0
M  V30 6902 H 648.852 -1.69141 -2.5224 0
M  V30 6903 H 646.437 -0.885836 -1.20305 0
M  V30 6904 H 648.319 0.0855756 -4.21313 0
M  V30 6905 H 646.994 0.666262 -3.16769 0
M  V30 6906 H 645.901 -1.64299 -3.3609 0
M  V30 6907 H 647.234 -2.14396 -4.43052 0
M  V30 6908 N 648.886 1.2938 -0.899927 0
M  V30 6909 C 650.302 1.48052 -0.596059 0
M  V30 6910 C 650.502 1.82114 0.862372 0
M  V30 6911 O 649.558 1.91774 1.64253 0
M  V30 6912 C 650.871 2.59332 -1.52208 0
M  V30 6913 C 652.419 2.73208 -1.5273 0
M  V30 6914 C 652.894 3.87617 -2.43961 0
M  V30 6915 N 654.385 3.9495 -2.42009 0
M  V30 6916 C 655.12 4.82824 -3.09303 0
M  V30 6917 N 654.616 5.75387 -3.85877 0
M  V30 6918 N 656.409 4.76317 -2.98459 0
M  V30 6919 H 648.56 1.05546 -1.8432 0
M  V30 6920 H 650.823 0.524314 -0.78981 0
M  V30 6921 H 650.529 2.41029 -2.56121 0
M  V30 6922 H 650.403 3.56139 -1.24278 0
M  V30 6923 H 652.79 2.90908 -0.495614 0
M  V30 6924 H 652.871 1.76975 -1.84698 0
M  V30 6925 H 652.515 3.70672 -3.47224 0
M  V30 6926 H 652.445 4.83218 -2.09303 0
M  V30 6927 H 654.936 3.28744 -1.86375 0
M  V30 6928 H 655.249 6.39235 -4.34279 0
M  V30 6929 H 653.594 5.75272 -3.89984 0
M  V30 6930 H 656.785 4.0299 -2.38152 0
M  V30 6931 H 656.958 5.44589 -3.51179 0
M  V30 6932 N 650.364 0.662433 1.43002 0
M  V30 6933 C 651.61 0.179857 2.02001 0
M  V30 6934 C 651.943 -1.20625 1.52195 0
M  V30 6935 O 651.218 -1.80726 0.718911 0
M  V30 6936 C 651.501 0.200845 3.59539 0
M  V30 6937 C 651.354 1.62153 4.19555 0
M  V30 6938 C 652.673 -0.457738 4.37713 0
M  V30 6939 H 649.792 0.0668305 0.733964 0
M  V30 6940 H 652.434 0.84487 1.70182 0
M  V30 6941 H 650.584 -0.365411 3.86778 0
M  V30 6942 H 652.256 2.23908 4.03315 0
M  V30 6943 H 650.499 2.16601 3.75854 0
M  V30 6944 H 651.17 1.58799 5.28665 0
M  V30 6945 H 653.646 0.0241495 4.16093 0
M  V30 6946 H 652.522 -0.412363 5.47349 0
M  V30 6947 H 652.783 -1.53336 4.14657 0
M  V30 6948 N 651.842 -1.52309 0.404946 0
M  V30 6949 C 653.07 -2.06185 -0.171818 0
M  V30 6950 C 653.485 -1.27536 -1.39212 0
M  V30 6951 O 652.842 -0.326112 -1.79563 0
M  V30 6952 C 652.893 -3.57647 -0.526417 0
M  V30 6953 O 652.614 -4.3332 0.645417 0
M  V30 6954 C 654.115 -4.27925 -1.15736 0
M  V30 6955 H 651.335 -0.670632 -0.0222328 0
M  V30 6956 H 653.879 -1.96259 0.574692 0
M  V30 6957 H 652.034 -3.67595 -1.22282 0
M  V30 6958 H 652.448 -5.23328 0.35042 0
M  V30 6959 H 653.922 -5.35093 -1.35572 0
M  V30 6960 H 654.399 -3.84134 -2.12926 0
M  V30 6961 H 655.005 -4.22335 -0.501281 0
M  V30 6962 N 653.32 -0.135238 -1.57019 0
M  V30 6963 C 654.736 0.221262 -1.58059 0
M  V30 6964 C 654.936 1.65538 -1.14889 0
M  V30 6965 O 653.992 2.37985 -0.843751 0
M  V30 6966 C 655.305 -0.0268114 -3.00688 0
M  V30 6967 C 656.853 0.0378206 -3.12977 0
M  V30 6968 C 657.328 -0.182769 -4.57635 0
M  V30 6969 N 658.819 -0.129292 -4.6302 0
M  V30 6970 C 659.554 -0.274648 -5.72742 0
M  V30 6971 N 659.05 -0.477075 -6.91155 0
M  V30 6972 N 660.843 -0.213077 -5.61696 0
M  V30 6973 H 652.994 -1.07177 -1.83376 0
M  V30 6974 H 655.257 -0.423338 -0.848227 0
M  V30 6975 H 654.963 -1.01889 -3.36618 0
M  V30 6976 H 654.837 0.697863 -3.70688 0
M  V30 6977 H 657.224 1.02043 -2.76896 0
M  V30 6978 H 657.305 -0.718996 -2.45487 0
M  V30 6979 H 656.949 -1.16243 -4.94419 0
M  V30 6980 H 656.879 0.59423 -5.23237 0
M  V30 6981 H 659.37 0.0229896 -3.77893 0
M  V30 6982 H 659.683 -0.578413 -7.70632 0
M  V30 6983 H 658.028 -0.513252 -6.93102 0
M  V30 6984 H 661.219 -0.0557796 -4.68067 0
M  V30 6985 H 661.392 -0.329796 -6.4716 0
M  V30 6986 N 654.798 1.5699 0.138552 0
M  V30 6987 C 655.731 1.94064 1.2006 0
M  V30 6988 C 656.709 0.807601 1.41126 0
M  V30 6989 O 657.893 1.06399 1.556 0
M  V30 6990 C 655.02 2.21999 2.55801 0
M  V30 6991 C 654.066 3.44617 2.5128 0
M  V30 6992 S 654.899 4.97888 1.97149 0
M  V30 6993 C 656.055 5.28954 3.34602 0
M  V30 6994 H 656.288 2.83843 0.884337 0
M  V30 6995 H 653.821 1.50507 0.344517 0
M  V30 6996 H 655.779 2.38772 3.33914 0
M  V30 6997 H 654.44 1.32869 2.84613 0
M  V30 6998 H 653.633 3.61466 3.51224 0
M  V30 6999 H 653.235 3.27129 1.8128 0
M  V30 7000 H 655.527 5.22938 4.30745 0
M  V30 7001 H 656.47 6.30346 3.22598 0
M  V30 7002 H 656.878 4.56455 3.32128 0
M  V30 7003 N 656.276 -0.40816 1.52223 0
M  V30 7004 C 657.522 -1.15673 1.66576 0
M  V30 7005 C 657.855 -1.90141 0.394996 0
M  V30 7006 O 657.13 -1.84798 -0.606613 0
M  V30 7007 C 657.413 -2.15042 2.88841 0
M  V30 7008 C 657.266 -1.44465 4.25969 0
M  V30 7009 C 658.585 -3.15699 3.0663 0
M  V30 7010 H 655.704 -0.41916 0.606196 0
M  V30 7011 H 658.346 -0.442348 1.84779 0
M  V30 7012 H 656.496 -2.75964 2.73452 0
M  V30 7013 H 658.168 -0.866544 4.53088 0
M  V30 7014 H 656.411 -0.746612 4.27327 0
M  V30 7015 H 657.082 -2.16976 5.07568 0
M  V30 7016 H 659.558 -2.64854 3.20923 0
M  V30 7017 H 658.434 -3.82491 3.9369 0
M  V30 7018 H 658.695 -3.83481 2.19987 0
M  V30 7019 N 657.755 -1.42862 -0.66545 0
M  V30 7020 C 658.687 -1.43026 -1.79098 0
M  V30 7021 C 659.7 -0.32803 -1.59461 0
M  V30 7022 O 660.889 -0.591709 -1.68407 0
M  V30 7023 C 657.989 -1.21566 -3.16346 0
M  V30 7024 C 657.162 -2.44399 -3.62751 0
M  V30 7025 C 656.221 -2.18344 -4.78761 0
M  V30 7026 O 655.247 -2.91611 -4.88827 0
M  V30 7027 N 656.449 -1.1924 -5.68122 0
M  V30 7028 H 659.214 -2.40045 -1.79439 0
M  V30 7029 H 656.775 -1.37861 -0.848872 0
M  V30 7030 H 658.767 -1.02037 -3.91625 0
M  V30 7031 H 657.337 -0.330368 -3.10849 0
M  V30 7032 H 656.557 -2.79433 -2.78048 0
M  V30 7033 H 657.845 -3.26173 -3.90498 0
M  V30 7034 H 657.243 -0.586603 -5.6265 0
M  V30 7035 H 655.8 -1.05698 -6.43173 0
M  V30 7036 N 659.233 0.902656 -1.29189 0
M  V30 7037 C 660.649 1.18296 -1.07137 0
M  V30 7038 C 660.849 2.00701 0.179223 0
M  V30 7039 O 659.905 2.3675 0.877812 0
M  V30 7040 C 661.218 1.90677 -2.32514 0
M  V30 7041 C 662.766 2.03515 -2.37804 0
M  V30 7042 C 663.241 2.79307 -3.62976 0
M  V30 7043 N 664.732 2.86862 -3.63681 0
M  V30 7044 C 665.467 3.46035 -4.57217 0
M  V30 7045 N 664.963 4.06399 -5.61081 0
M  V30 7046 N 666.756 3.43681 -4.44792 0
M  V30 7047 H 658.907 0.352765 -2.0945 0
M  V30 7048 H 661.17 0.21876 -0.922414 0
M  V30 7049 H 660.876 1.3756 -3.23682 0
M  V30 7050 H 660.75 2.91169 -2.39793 0
M  V30 7051 H 663.137 2.55809 -1.47125 0
M  V30 7052 H 663.218 1.02166 -2.34512 0
M  V30 7053 H 662.862 2.2769 -4.54004 0
M  V30 7054 H 662.792 3.80995 -3.63525 0
M  V30 7055 H 665.283 2.43987 -2.88581 0
M  V30 7056 H 665.596 4.49564 -6.2858 0
M  V30 7057 H 663.941 4.0487 -5.64894 0
M  V30 7058 H 667.132 2.9574 -3.62843 0
M  V30 7059 H 667.305 3.89503 -5.17872 0
M  V30 7060 N 660.711 1.11618 1.11262 0
M  V30 7061 C 661.988 0.777876 1.79467 0
M  V30 7062 C 662.368 -0.733774 1.97937 0
M  V30 7063 O 661.716 -1.66443 1.56554 0
M  V30 7064 C 661.926 1.5431 3.13032 0
M  V30 7065 C 663.274 1.72357 3.88044 0
M  V30 7066 O 664.298 1.5075 3.22727 0
M  V30 7067 O 663.157 2.08276 5.05256 0
M  V30 7068 H 660.251 0.282018 0.777428 0
M  V30 7069 H 662.797 1.21971 1.17988 0
M  V30 7070 H 661.569 2.57132 2.94956 0
M  V30 7071 H 661.192 1.09495 3.82226 0
M  V30 7072 N 662.189 -1.289 0.906776 0
M  V30 7073 C 663.605 -1.47733 0.603902 0
M  V30 7074 C 663.805 -1.82568 -0.852702 0
M  V30 7075 O 662.861 -1.92642 -1.63234 0
M  V30 7076 C 664.174 -2.58522 1.53581 0
M  V30 7077 C 665.722 -2.72394 1.54177 0
M  V30 7078 C 666.197 -3.86318 2.46013 0
M  V30 7079 N 667.688 -3.93661 2.441 0
M  V30 7080 C 668.423 -4.81177 3.11859 0
M  V30 7081 N 667.919 -5.73333 3.88923 0
M  V30 7082 N 669.712 -4.74728 3.00981 0
M  V30 7083 H 661.863 -1.04567 1.84877 0
M  V30 7084 H 664.126 -0.520118 0.792579 0
M  V30 7085 H 663.832 -2.39667 2.57396 0
M  V30 7086 H 663.706 -3.55475 1.26165 0
M  V30 7087 H 666.093 -2.90641 0.511034 0
M  V30 7088 H 666.174 -1.75993 1.85634 0
M  V30 7089 H 665.818 -3.68826 3.49185 0
M  V30 7090 H 665.748 -4.82102 2.11862 0
M  V30 7091 H 668.239 -3.27751 1.88115 0
M  V30 7092 H 668.552 -6.36923 4.37663 0
M  V30 7093 H 666.897 -5.73196 3.93029 0
M  V30 7094 H 670.088 -4.01722 2.40286 0
M  V30 7095 H 670.261 -5.42719 3.54062 0
M  V30 7096 N 663.667 -0.670007 -1.42649 0
M  V30 7097 C 664.615 0.0230106 -2.32589 0
M  V30 7098 C 665.609 0.795585 -1.49555 0
M  V30 7099 O 666.815 0.70409 -1.65658 0
M  V30 7100 H 663.19 0.0262342 -0.751542 0
M  V30 7101 H 665.161 -0.753009 -2.88743 0
M  V30 7102 C 663.91 0.963872 -3.34073 0
M  V30 7103 H 663.233 0.378813 -3.98001 0
M  V30 7104 H 664.673 1.41755 -3.99602 0
M  V30 7105 C 663.132 2.06797 -2.65964 0
M  V30 7106 O 663.662 3.15383 -2.48789 0
M  V30 7107 N 661.868 1.83831 -2.25066 0
M  V30 7108 H 661.415 0.955235 -2.39234 0
M  V30 7109 H 661.373 2.57895 -1.79827 0
M  V30 7110 N 665.145 1.52092 -0.413018 0
M  V30 7111 C 666.095 2.23947 0.427993 0
M  V30 7112 C 667.079 1.25229 1.01027 0
M  V30 7113 O 668.271 1.50448 0.932444 0
M  V30 7114 C 665.4 3.0672 1.542 0
M  V30 7115 C 664.486 4.12851 0.970307 0
M  V30 7116 N 664.877 5.05644 0.125611 0
M  V30 7117 C 663.175 4.28404 1.24042 0
M  V30 7118 C 663.876 5.8138 -0.192876 0
M  V30 7119 N 662.852 5.41996 0.417273 0
M  V30 7120 H 666.654 2.93048 -0.223628 0
M  V30 7121 H 664.168 1.60852 -0.223664 0
M  V30 7122 H 666.165 3.56754 2.15714 0
M  V30 7123 H 664.825 2.39159 2.19621 0
M  V30 7124 H 665.836 5.17348 -0.238995 0
M  V30 7125 H 662.513 3.72071 1.89391 0
M  V30 7126 H 663.903 6.66129 -0.878762 0
M  V30 7127 N 666.623 0.143563 1.56945 0
M  V30 7128 C 668.034 -0.37783 1.82837 0
M  V30 7129 C 668.385 -1.64967 1.06209 0
M  V30 7130 O 667.51 -2.14221 0.306291 0
M  V30 7131 C 668.105 -0.692274 3.31652 0
M  V30 7132 C 666.664 -1.1582 3.58138 0
M  V30 7133 C 665.811 -0.17951 2.76718 0
M  V30 7134 H 668.762 0.368317 1.54367 0
M  V30 7135 H 668.783 -1.54729 3.47619 0
M  V30 7136 H 668.295 0.233572 3.87397 0
M  V30 7137 H 666.396 -2.10011 3.07776 0
M  V30 7138 H 666.509 -1.08655 4.66616 0
M  V30 7139 H 664.873 -0.671458 2.4569 0
M  V30 7140 H 665.656 0.739865 3.35233 0
M  V30 7141 N 668.101 -1.57061 -0.130224 0
M  V30 7142 C 669.326 -1.88802 -0.858409 0
M  V30 7143 C 669.751 -0.734353 -1.73173 0
M  V30 7144 O 669.109 0.315529 -1.78533 0
M  V30 7145 C 669.157 -3.19228 -1.67708 0
M  V30 7146 O 668.261 -3.04343 -2.78297 0
M  V30 7147 H 667.602 -0.619849 -0.238083 0
M  V30 7148 H 670.132 -2.04271 -0.115995 0
M  V30 7149 H 670.142 -3.51669 -2.06864 0
M  V30 7150 H 668.817 -4.02793 -1.0359 0
M  V30 7151 H 667.394 -2.83346 -2.42425 0
M  V30 7152 N 669.579 0.400081 -1.52437 0
M  V30 7153 C 670.825 1.14788 -1.67187 0
M  V30 7154 C 671.158 1.89928 -0.405074 0
M  V30 7155 O 670.433 1.85118 0.596804 0
M  V30 7156 C 670.716 2.13507 -2.89977 0
M  V30 7157 C 670.569 1.42204 -4.2673 0
M  V30 7158 C 671.888 3.14069 -3.083 0
M  V30 7159 H 669.007 0.415939 -0.608411 0
M  V30 7160 H 671.649 0.432542 -1.85011 0
M  V30 7161 H 669.799 2.7451 -2.74912 0
M  V30 7162 H 671.471 0.842503 -4.53541 0
M  V30 7163 H 669.714 0.723939 -4.27717 0
M  V30 7164 H 670.385 2.14281 -5.08712 0
M  V30 7165 H 672.861 2.63148 -3.22323 0
M  V30 7166 H 671.737 3.80398 -3.95713 0
M  V30 7167 H 671.998 3.82309 -2.22018 0
M  V30 7168 N 671.057 1.43213 0.657864 0
M  V30 7169 C 672.306 1.43871 1.41365 0
M  V30 7170 C 672.619 0.064898 1.95492 0
M  V30 7171 O 673.825 -0.0510796 2.71452 0
M  V30 7172 C 672.281 2.53158 2.55811 0
M  V30 7173 C 671.889 3.96624 2.08311 0
M  V30 7174 C 673.633 2.63004 3.3321 0
M  V30 7175 C 671.54 4.97385 3.1994 0
M  V30 7176 H 670.47 0.535174 0.531136 0
M  V30 7177 H 673.121 1.69185 0.710543 0
M  V30 7178 H 671.503 2.21037 3.2857 0
M  V30 7179 H 672.677 4.38182 1.42593 0
M  V30 7180 H 670.992 3.90781 1.43804 0
M  V30 7181 H 673.589 3.3546 4.16378 0
M  V30 7182 H 673.932 1.67918 3.80932 0
M  V30 7183 H 674.465 2.94403 2.67529 0
M  V30 7184 H 671.204 5.94007 2.77192 0
M  V30 7185 H 670.724 4.60444 3.84385 0
M  V30 7186 H 672.403 5.19877 3.85145 0
M  V30 7187 N 672.536 -0.895792 1.29666 0
M  V30 7188 C 673.785 -1.64131 1.17234 0
M  V30 7189 C 674.098 -1.93665 -0.274416 0
M  V30 7190 O 675.304 -2.66472 -0.520105 0
M  V30 7191 C 673.76 -2.95764 2.05065 0
M  V30 7192 C 673.368 -2.7381 3.54587 0
M  V30 7193 C 675.112 -3.737 2.01367 0
M  V30 7194 C 673.019 -4.01194 4.34508 0
M  V30 7195 H 671.949 -0.615742 0.435175 0
M  V30 7196 H 674.6 -0.992626 1.54335 0
M  V30 7197 H 672.982 -3.61867 1.60837 0
M  V30 7198 H 674.156 -2.16277 4.06892 0
M  V30 7199 H 672.471 -2.09265 3.59996 0
M  V30 7200 H 675.068 -4.68152 2.58337 0
M  V30 7201 H 675.411 -4.04245 0.994575 0
M  V30 7202 H 675.944 -3.14444 2.43659 0
M  V30 7203 H 672.683 -3.75813 5.37071 0
M  V30 7204 H 672.203 -4.58272 3.86971 0
M  V30 7205 H 673.882 -4.69307 4.45376 0
M  V30 7206 N 674.014 -1.12206 -1.10668 0
M  V30 7207 C 675.26 -0.887096 -1.83036 0
M  V30 7208 C 675.615 0.580887 -1.83422 0
M  V30 7209 O 674.908 1.42379 -1.28213 0
M  V30 7210 C 675.102 -1.39276 -3.29146 0
M  V30 7211 C 674.931 -2.90837 -3.42992 0
M  V30 7212 C 673.701 -3.59047 -3.55546 0
M  V30 7213 C 675.899 -3.8885 -3.36601 0
M  V30 7214 N 673.881 -4.98747 -3.57945 0
M  V30 7215 C 675.252 -5.14666 -3.45716 0
M  V30 7216 C 677.307 -3.81296 -3.20184 0
M  V30 7217 C 676.01 -6.33814 -3.40106 0
M  V30 7218 C 678.036 -4.99965 -3.15895 0
M  V30 7219 C 677.398 -6.24637 -3.25589 0
M  V30 7220 H 673.497 -0.377857 -0.684652 0
M  V30 7221 H 676.081 -1.42791 -1.32358 0
M  V30 7222 H 674.252 -0.879026 -3.78322 0
M  V30 7223 H 675.984 -1.10011 -3.89461 0
M  V30 7224 H 672.739 -3.09533 -3.5845 0
M  V30 7225 H 673.163 -5.71606 -3.62762 0
M  V30 7226 H 677.805 -2.85806 -3.11569 0
M  V30 7227 H 675.523 -7.29574 -3.47487 0
M  V30 7228 H 679.109 -4.95847 -3.04347 0
M  V30 7229 H 677.989 -7.14921 -3.22269 0
M  V30 7230 N 675.492 1.28418 -0.913599 0
M  V30 7231 C 676.717 1.99643 -0.561899 0
M  V30 7232 C 677.142 1.67819 0.849608 0
M  V30 7233 O 676.5 0.910503 1.56779 0
M  V30 7234 C 676.548 3.52116 -0.777622 0
M  V30 7235 O 675.652 4.12076 0.163457 0
M  V30 7236 H 674.993 0.627229 -0.217898 0
M  V30 7237 H 677.523 1.63575 -1.229 0
M  V30 7238 H 677.533 4.02163 -0.687666 0
M  V30 7239 H 676.208 3.74613 -1.8066 0
M  V30 7240 H 674.785 3.72892 0.0247827 0
M  V30 7241 N 676.97 0.677563 1.42291 0
M  V30 7242 C 677.9 0.014968 2.33495 0
M  V30 7243 C 678.881 -0.786376 1.50831 0
M  V30 7244 O 680.066 -0.742975 1.79426 0
M  V30 7245 C 677.196 -0.935023 3.34477 0
M  V30 7246 C 676.15 -0.242074 4.27315 0
M  V30 7247 C 675.476 -1.30519 5.18526 0
M  V30 7248 C 676.776 0.880604 5.14823 0
M  V30 7249 H 678.47 0.776671 2.89151 0
M  V30 7250 H 676.016 0.37494 1.39033 0
M  V30 7251 H 677.969 -1.40766 3.97194 0
M  V30 7252 H 676.693 -1.72818 2.77131 0
M  V30 7253 H 675.352 0.210351 3.65996 0
M  V30 7254 H 675 -2.09041 4.57505 0
M  V30 7255 H 674.7 -0.846652 5.81468 0
M  V30 7256 H 676.224 -1.7787 5.84119 0
M  V30 7257 H 677.638 0.489062 5.7121 0
M  V30 7258 H 676.035 1.26511 5.86613 0
M  V30 7259 H 677.105 1.72818 4.53059 0
M  V30 7260 N 678.448 -1.51871 0.421078 0
M  V30 7261 C 679.696 -2.01539 -0.150492 0
M  V30 7262 C 680.017 -1.30803 -1.44623 0
M  V30 7263 O 679.287 -0.437568 -1.90951 0
M  V30 7264 H 677.867 -0.744698 -0.0586041 0
M  V30 7265 H 680.529 -1.8668 0.560059 0
M  V30 7266 H 679.625 -3.10264 -0.338068 0
M  V30 7267 N 679.926 -0.151884 -1.56866 0
M  V30 7268 C 680.874 0.80299 -2.183 0
M  V30 7269 C 681.868 1.25174 -1.14139 0
M  V30 7270 O 683.074 1.21966 -1.3238 0
M  V30 7271 H 679.449 0.277169 -0.699057 0
M  V30 7272 H 681.42 0.260699 -2.97259 0
M  V30 7273 C 680.169 2.03009 -2.82281 0
M  V30 7274 H 679.492 1.69377 -3.62148 0
M  V30 7275 H 680.932 2.67753 -3.28762 0
M  V30 7276 C 679.391 2.84123 -1.81041 0
M  V30 7277 O 679.921 3.8063 -1.28388 0
M  V30 7278 N 678.127 2.48753 -1.50234 0
M  V30 7279 H 677.674 1.70337 -1.93244 0
M  V30 7280 H 677.632 3.03316 -0.827445 0
M  V30 7281 N 681.404 1.57128 0.121893 0
M  V30 7282 C 682.314 2.03425 1.16857 0
M  V30 7283 C 683.33 0.954108 1.45509 0
M  V30 7284 O 684.506 1.26541 1.56682 0
M  V30 7285 C 681.571 2.42685 2.47599 0
M  V30 7286 C 680.632 3.64767 2.2637 0
M  V30 7287 C 679.865 4.02145 3.50878 0
M  V30 7288 O 680.088 3.39897 4.58068 0
M  V30 7289 O 679.022 4.95262 3.42051 0
M  V30 7290 H 682.848 2.92825 0.80544 0
M  V30 7291 H 680.433 1.45654 0.332477 0
M  V30 7292 H 682.315 2.68684 3.24634 0
M  V30 7293 H 680.99 1.56432 2.83392 0
M  V30 7294 H 679.897 3.43922 1.47203 0
M  V30 7295 H 681.23 4.51716 1.95482 0
M  V30 7296 N 682.882 -0.391992 1.52647 0
M  V30 7297 C 684.107 -1.16312 1.71716 0
M  V30 7298 C 684.532 -1.83042 0.433279 0
M  V30 7299 O 683.89 -1.70705 -0.610707 0
M  V30 7300 C 683.938 -2.18908 2.86551 0
M  V30 7301 O 683.042 -3.2543 2.53316 0
M  V30 7302 H 682.383 -0.338743 0.571095 0
M  V30 7303 H 684.913 -0.457202 1.99426 0
M  V30 7304 H 684.923 -2.62954 3.1196 0
M  V30 7305 H 683.598 -1.69726 3.79692 0
M  V30 7306 H 682.175 -2.86543 2.38637 0
M  V30 7307 N 684.36 -1.4356 -0.65026 0
M  V30 7308 C 685.608 -1.45046 -1.40734 0
M  V30 7309 C 685.929 -0.0769822 -1.94848 0
M  V30 7310 O 685.199 0.888098 -1.74613 0
M  V30 7311 H 683.779 -0.534034 -0.522318 0
M  V30 7312 H 686.441 -1.79186 -0.766703 0
M  V30 7313 H 685.537 -2.16476 -2.24822 0
M  V30 7314 N 685.838 0.888903 -1.30139 0
M  V30 7315 C 686.788 1.9814 -1.12803 0
M  V30 7316 C 687.772 1.60839 -0.0443137 0
M  V30 7317 O 688.964 1.74971 -0.267208 0
M  V30 7318 C 686.093 3.33416 -0.817849 0
M  V30 7319 C 685.179 3.77043 -1.94163 0
M  V30 7320 N 685.57 3.92805 -3.18651 0
M  V30 7321 C 683.868 4.06407 -1.8371 0
M  V30 7322 C 684.569 4.29746 -3.92038 0
M  V30 7323 N 683.545 4.3939 -3.20059 0
M  V30 7324 H 687.347 2.08411 -2.07225 0
M  V30 7325 H 684.861 1.07845 -1.21421 0
M  V30 7326 H 686.858 4.11405 -0.674668 0
M  V30 7327 H 685.518 3.24484 0.118344 0
M  V30 7328 H 686.529 3.78042 -3.53984 0
M  V30 7329 H 683.206 4.05972 -0.974331 0
M  V30 7330 H 684.596 4.49695 -4.99223 0
M  V30 7331 N 687.317 1.12792 1.10072 0
M  V30 7332 C 688.565 0.883796 1.81751 0
M  V30 7333 C 688.886 -0.591891 1.858 0
M  V30 7334 O 688.156 -1.43017 1.33876 0
M  V30 7335 H 686.736 0.323978 0.673088 0
M  V30 7336 H 689.398 1.42314 1.33164 0
M  V30 7337 H 688.494 1.26863 2.85153 0
M  V30 7338 N 688.795 -1.27931 0.920396 0
M  V30 7339 C 689.758 -2.25345 0.41858 0
M  V30 7340 C 690.758 -1.54116 -0.458798 0
M  V30 7341 O 691.948 -1.72235 -0.260912 0
M  V30 7342 C 689.08 -3.38556 -0.399104 0
M  V30 7343 H 690.273 -2.71251 1.27918 0
M  V30 7344 H 687.826 -1.39728 0.700406 0
M  V30 7345 H 688.561 -2.98021 -1.27882 0
M  V30 7346 H 688.346 -3.91426 0.229863 0
M  V30 7347 H 689.836 -4.10976 -0.740817 0
M  V30 7348 N 690.273 -0.685099 -1.4193 0
M  V30 7349 C 691.221 -0.00165985 -2.326 0
M  V30 7350 C 692.215 0.779678 -1.50391 0
M  V30 7351 O 693.421 0.68648 -1.66395 0
M  V30 7352 H 689.796 0.0182616 -0.751778 0
M  V30 7353 H 691.767 -0.783592 -2.87928 0
M  V30 7354 C 690.516 0.928385 -3.35077 0
M  V30 7355 H 689.839 0.336578 -3.98381 0
M  V30 7356 H 691.279 1.37509 -4.01083 0
M  V30 7357 C 689.738 2.03964 -2.68142 0
M  V30 7358 O 690.268 3.12727 -2.5212 0
M  V30 7359 N 688.474 1.81433 -2.27003 0
M  V30 7360 H 688.021 0.929807 -2.40234 0
M  V30 7361 H 687.979 2.55973 -1.82552 0
M  V30 7362 N 691.751 1.51645 -0.429126 0
M  V30 7363 C 692.701 2.24388 0.404217 0
M  V30 7364 C 693.685 1.26294 0.996933 0
M  V30 7365 O 694.877 1.51428 0.916434 0
M  V30 7366 C 692.006 3.08338 1.50938 0
M  V30 7367 C 691.092 4.13857 0.926464 0
M  V30 7368 N 691.483 5.05749 0.0719732 0
M  V30 7369 C 689.781 4.29695 1.19491 0
M  V30 7370 C 690.482 5.81143 -0.254528 0
M  V30 7371 N 689.458 5.42408 0.359763 0
M  V30 7372 H 693.26 2.92794 -0.254697 0
M  V30 7373 H 690.774 1.60606 -0.240712 0
M  V30 7374 H 692.771 3.59022 2.11918 0
M  V30 7375 H 691.431 2.41475 2.17072 0
M  V30 7376 H 692.442 5.17066 -0.293854 0
M  V30 7377 H 689.119 3.74059 1.85434 0
M  V30 7378 H 690.509 6.65159 -0.949365 0
M  V30 7379 N 693.229 0.160201 1.56784 0
M  V30 7380 C 694.506 -0.533355 1.88188 0
M  V30 7381 C 694.886 -1.82072 1.06831 0
M  V30 7382 O 694.234 -2.27946 0.158959 0
M  V30 7383 C 694.444 -0.786034 3.40033 0
M  V30 7384 C 695.792 -1.12097 4.09536 0
M  V30 7385 O 696.816 -0.874949 3.45287 0
M  V30 7386 O 695.675 -1.58457 5.23023 0
M  V30 7387 H 692.769 -0.273589 0.780434 0
M  V30 7388 H 695.315 0.197803 1.68543 0
M  V30 7389 H 694.087 0.124515 3.91102 0
M  V30 7390 H 693.71 -1.57091 3.65251 0
M  V30 7391 N 694.707 -1.5719 -0.113559 0
M  V30 7392 C 695.67 -1.99796 -1.12314 0
M  V30 7393 C 696.67 -0.888847 -1.34001 0
M  V30 7394 O 697.86 -1.15476 -1.30426 0
M  V30 7395 C 694.992 -2.34279 -2.47641 0
M  V30 7396 H 696.185 -2.90193 -0.756825 0
M  V30 7397 H 693.738 -1.52144 -0.358029 0
M  V30 7398 H 694.473 -1.46778 -2.89183 0
M  V30 7399 H 694.258 -3.15175 -2.33253 0
M  V30 7400 H 695.748 -2.67963 -3.2029 0
M  V30 7401 N 696.185 0.383891 -1.52853 0
M  V30 7402 C 697.115 1.47559 -1.80965 0
M  V30 7403 C 698.096 1.5669 -0.661986 0
M  V30 7404 O 699.281 1.71556 -0.910072 0
M  V30 7405 C 696.411 2.85114 -1.98312 0
M  V30 7406 C 695.365 2.9082 -3.14019 0
M  V30 7407 C 694.691 4.30873 -3.16627 0
M  V30 7408 C 695.991 2.60001 -4.52986 0
M  V30 7409 H 697.685 1.24283 -2.72386 0
M  V30 7410 H 695.231 0.596445 -1.31067 0
M  V30 7411 H 697.184 3.61496 -2.16561 0
M  V30 7412 H 695.908 3.09738 -1.03585 0
M  V30 7413 H 694.567 2.16886 -2.9556 0
M  V30 7414 H 694.215 4.52545 -2.19573 0
M  V30 7415 H 693.915 4.3561 -3.94357 0
M  V30 7416 H 695.439 5.09154 -3.37038 0
M  V30 7417 H 696.853 3.261 -4.71521 0
M  V30 7418 H 695.25 2.76081 -5.32822 0
M  V30 7419 H 696.32 1.5532 -4.59351 0
M  V30 7420 N 697.663 1.43903 0.642637 0
M  V30 7421 C 698.893 1.49323 1.4278 0
M  V30 7422 C 699.301 0.113058 1.88862 0
M  V30 7423 O 698.644 -0.889089 1.60751 0
M  V30 7424 C 698.706 2.3861 2.68897 0
M  V30 7425 C 698.37 3.85976 2.44687 0
M  V30 7426 C 699.367 4.7681 2.07239 0
M  V30 7427 C 697.052 4.30567 2.58683 0
M  V30 7428 C 699.046 6.10234 1.841 0
M  V30 7429 C 696.733 5.64042 2.35159 0
M  V30 7430 C 697.731 6.53693 1.97925 0
M  V30 7431 O 697.419 7.84698 1.74654 0
M  V30 7432 H 697.151 0.509109 0.444729 0
M  V30 7433 H 699.705 1.89425 0.794195 0
M  V30 7434 H 697.935 1.93415 3.34855 0
M  V30 7435 H 699.624 2.35112 3.30873 0
M  V30 7436 H 700.39 4.43635 1.95993 0
M  V30 7437 H 696.269 3.61054 2.86637 0
M  V30 7438 H 699.813 6.80171 1.54962 0
M  V30 7439 H 695.71 5.96782 2.46011 0
M  V30 7440 H 696.478 7.96382 1.88993 0
M  V30 7441 N 699.141 -0.881989 1.30609 0
M  V30 7442 C 700.557 -1.16576 1.09005 0
M  V30 7443 C 700.757 -2.00961 -0.14727 0
M  V30 7444 O 699.813 -2.38117 -0.840036 0
M  V30 7445 C 701.126 -1.86954 2.35518 0
M  V30 7446 C 702.674 -1.99706 2.41011 0
M  V30 7447 C 703.149 -2.73497 3.67374 0
M  V30 7448 N 704.64 -2.8104 3.68199 0
M  V30 7449 C 705.375 -3.38718 4.62664 0
M  V30 7450 N 704.871 -3.97421 5.67475 0
M  V30 7451 N 706.664 -3.36561 4.50203 0
M  V30 7452 H 698.815 -0.319398 2.09985 0
M  V30 7453 H 701.078 -0.204058 0.925778 0
M  V30 7454 H 700.784 -1.32393 3.2583 0
M  V30 7455 H 700.658 -2.87317 2.44395 0
M  V30 7456 H 703.045 -2.53436 1.51176 0
M  V30 7457 H 703.126 -0.984218 2.36108 0
M  V30 7458 H 702.77 -2.20438 4.57569 0
M  V30 7459 H 702.7 -3.75163 3.6954 0
M  V30 7460 H 705.191 -2.39365 2.92426 0
M  V30 7461 H 705.504 -4.39507 6.35652 0
M  V30 7462 H 703.849 -3.95832 5.71264 0
M  V30 7463 H 707.04 -2.8993 3.67503 0
M  V30 7464 H 707.213 -3.81215 5.24003 0
M  V30 7465 N 700.619 -1.13374 -1.09472 0
M  V30 7466 C 701.865 -0.906459 -1.82085 0
M  V30 7467 C 702.22 0.5614 -1.84027 0
M  V30 7468 O 701.513 1.41012 -1.29716 0
M  V30 7469 C 701.707 -1.42759 -3.2765 0
M  V30 7470 C 701.536 -2.94459 -3.39888 0
M  V30 7471 C 700.306 -3.62798 -3.51718 0
M  V30 7472 C 702.504 -3.92398 -3.32457 0
M  V30 7473 N 700.486 -5.02516 -3.52635 0
M  V30 7474 C 701.857 -5.18304 -3.40237 0
M  V30 7475 C 703.912 -3.84671 -3.16122 0
M  V30 7476 C 702.615 -6.37386 -3.33364 0
M  V30 7477 C 704.641 -5.03287 -3.10574 0
M  V30 7478 C 704.003 -6.28055 -3.18945 0
M  V30 7479 H 700.102 -0.385097 -0.680606 0
M  V30 7480 H 702.686 -1.44187 -1.30836 0
M  V30 7481 H 700.857 -0.919102 -3.77369 0
M  V30 7482 H 702.589 -1.14136 -3.88272 0
M  V30 7483 H 699.344 -3.13317 -3.55147 0
M  V30 7484 H 699.768 -5.75421 -3.56679 0
M  V30 7485 H 704.41 -2.89094 -3.0852 0
M  V30 7486 H 702.128 -7.33219 -3.3973 0
M  V30 7487 H 705.714 -4.99047 -2.9907 0
M  V30 7488 H 704.594 -7.18299 -3.14668 0
M  V30 7489 N 702.098 1.27442 -0.927168 0
M  V30 7490 C 703.347 1.93679 -0.563146 0
M  V30 7491 C 703.66 1.73673 0.899837 0
M  V30 7492 O 704.866 2.34247 1.37262 0
M  V30 7493 C 703.322 3.46961 -0.95636 0
M  V30 7494 C 702.93 3.75724 -2.43999 0
M  V30 7495 C 704.674 4.19282 -0.663565 0
M  V30 7496 C 702.581 5.22378 -2.77263 0
M  V30 7497 H 701.511 0.725059 -0.206894 0
M  V30 7498 H 704.162 1.44743 -1.12791 0
M  V30 7499 H 702.544 3.94703 -0.320254 0
M  V30 7500 H 703.718 3.38741 -3.12396 0
M  V30 7501 H 702.033 3.16605 -2.70463 0
M  V30 7502 H 704.63 5.27265 -0.888596 0
M  V30 7503 H 704.973 4.14382 0.399198 0
M  V30 7504 H 705.506 3.7736 -1.25875 0
M  V30 7505 H 702.245 5.32367 -3.82446 0
M  V30 7506 H 701.765 5.6051 -2.13516 0
M  V30 7507 H 703.444 5.9025 -2.64979 0
M  V30 7508 N 703.576 0.692616 1.41565 0
M  V30 7509 C 704.523 0.0254264 2.30786 0
M  V30 7510 C 705.493 -0.774347 1.46946 0
M  V30 7511 O 706.678 -0.742981 1.7574 0
M  V30 7512 C 703.818 -0.907123 3.32964 0
M  V30 7513 C 702.931 -0.0992784 4.31886 0
M  V30 7514 C 702.066 -1.0292 5.21134 0
M  V30 7515 C 701.105 -0.214088 6.11725 0
M  V30 7516 N 700.242 -1.09766 6.93467 0
M  V30 7517 H 705.082 0.792036 2.87282 0
M  V30 7518 H 702.619 0.4023 1.41492 0
M  V30 7519 H 704.577 -1.46181 3.90752 0
M  V30 7520 H 703.207 -1.64016 2.78026 0
M  V30 7521 H 702.259 0.572287 3.76071 0
M  V30 7522 H 703.571 0.532782 4.95946 0
M  V30 7523 H 702.725 -1.65321 5.83741 0
M  V30 7524 H 701.464 -1.69512 4.57293 0
M  V30 7525 H 700.469 0.42302 5.4817 0
M  V30 7526 H 701.694 0.447995 6.77621 0
M  V30 7527 H 699.64 -1.74965 6.32237 0
M  V30 7528 H 699.557 -0.521099 7.54202 0
M  V30 7529 H 700.825 -1.70858 7.60544 0
M  V30 7530 N 705.054 -1.51416 0.437162 0
M  V30 7531 C 706.279 -2.0699 -0.130424 0
M  V30 7532 C 706.704 -1.30249 -1.35709 0
M  V30 7533 O 706.062 -0.340388 -1.78076 0
M  V30 7534 C 706.11 -3.5801 -0.43142 0
M  V30 7535 O 705.214 -3.8345 -1.5179 0
M  V30 7536 H 704.555 -0.663997 -0.00194339 0
M  V30 7537 H 707.085 -1.95029 0.618445 0
M  V30 7538 H 707.095 -4.02261 -0.681926 0
M  V30 7539 H 705.77 -4.13291 0.465137 0
M  V30 7540 H 704.347 -3.51062 -1.25737 0
M  V30 7541 N 706.532 -0.168513 -1.56696 0
M  V30 7542 C 707.778 0.477865 -1.9709 0
M  V30 7543 C 708.111 1.63084 -1.05438 0
M  V30 7544 O 707.386 1.94238 -0.10095 0
M  V30 7545 C 707.669 0.963521 -3.4697 0
M  V30 7546 C 707.522 -0.189443 -4.49401 0
M  V30 7547 C 708.841 1.83813 -3.99876 0
M  V30 7548 H 705.96 0.172229 -0.716593 0
M  V30 7549 H 708.602 -0.254083 -1.88293 0
M  V30 7550 H 706.752 1.58724 -3.54597 0
M  V30 7551 H 708.424 -0.826451 -4.53836 0
M  V30 7552 H 706.667 -0.845366 -4.25483 0
M  V30 7553 H 707.338 0.192446 -5.51664 0
M  V30 7554 H 709.814 1.31235 -3.94863 0
M  V30 7555 H 708.69 2.14697 -5.0517 0
M  V30 7556 H 708.951 2.78289 -3.43523 0
M  V30 7557 N 708.01 1.57248 0.105221 0
M  V30 7558 C 709.287 1.76566 0.841647 0
M  V30 7559 C 709.667 0.747566 1.9742 0
M  V30 7560 O 709.015 -0.225886 2.27381 0
M  V30 7561 C 709.225 3.22016 1.3456 0
M  V30 7562 C 710.573 3.84911 1.79244 0
M  V30 7563 O 711.597 3.25703 1.44207 0
M  V30 7564 O 710.456 4.89008 2.43995 0
M  V30 7565 H 707.55 0.723443 0.400698 0
M  V30 7566 H 710.096 1.69472 0.0878893 0
M  V30 7567 H 708.868 3.87644 0.533685 0
M  V30 7568 H 708.491 3.33703 2.16167 0
M  V30 7569 N 709.488 -0.375779 1.53054 0
M  V30 7570 C 710.899 -0.95309 1.6054 0
M  V30 7571 C 711.25 -1.90575 0.466446 0
M  V30 7572 O 710.375 -2.12507 -0.408609 0
M  V30 7573 C 710.97 -1.73537 2.90982 0
M  V30 7574 C 709.529 -2.26218 3.00836 0
M  V30 7575 C 708.676 -1.07157 2.55759 0
M  V30 7576 H 711.627 -0.154895 1.57942 0
M  V30 7577 H 711.648 -2.59574 2.78211 0
M  V30 7578 H 711.16 -1.04176 3.73857 0
M  V30 7579 H 709.261 -2.98852 2.22527 0
M  V30 7580 H 709.374 -2.54799 4.05727 0
M  V30 7581 H 707.738 -1.43553 2.10391 0
M  V30 7582 H 708.521 -0.393099 3.41042 0
M  V30 7583 N 710.966 -1.44241 -0.634997 0
M  V30 7584 C 712.191 -1.50516 -1.42687 0
M  V30 7585 C 712.616 -0.129864 -1.87651 0
M  V30 7586 O 711.974 0.880164 -1.58502 0
M  V30 7587 C 712.022 -2.4714 -2.62591 0
M  V30 7588 O 711.126 -1.97025 -3.62291 0
M  V30 7589 H 710.467 -0.50841 -0.427101 0
M  V30 7590 H 712.997 -1.89337 -0.775408 0
M  V30 7591 H 713.007 -2.65048 -3.10183 0
M  V30 7592 H 711.682 -3.47039 -2.29209 0
M  V30 7593 H 710.259 -1.88866 -3.21534 0
M  V30 7594 N 712.444 0.87505 -1.31075 0
M  V30 7595 C 713.86 1.15997 -1.09622 0
M  V30 7596 C 714.06 2.01036 0.136611 0
M  V30 7597 O 713.116 2.38559 0.827397 0
M  V30 7598 C 714.429 1.85702 -2.36506 0
M  V30 7599 C 715.977 1.98425 -2.42067 0
M  V30 7600 C 716.452 2.71544 -3.68819 0
M  V30 7601 N 717.943 2.79084 -3.69684 0
M  V30 7602 C 718.678 3.36259 -4.64454 0
M  V30 7603 N 718.174 3.94406 -5.69575 0
M  V30 7604 N 719.967 3.34169 -4.51982 0
M  V30 7605 H 712.118 0.308258 -2.10151 0
M  V30 7606 H 714.381 0.199145 -0.926847 0
M  V30 7607 H 714.087 1.30663 -3.26527 0
M  V30 7608 H 713.961 2.86017 -2.45915 0
M  V30 7609 H 716.348 2.5263 -1.52518 0
M  V30 7610 H 716.429 0.971682 -2.36626 0
M  V30 7611 H 716.073 2.18008 -4.58732 0
M  V30 7612 H 716.003 3.73198 -3.71525 0
M  V30 7613 H 718.494 2.3781 -2.93691 0
M  V30 7614 H 718.807 4.36129 -6.37974 0
M  V30 7615 H 717.152 3.92797 -5.73355 0
M  V30 7616 H 720.343 2.87977 -3.69035 0
M  V30 7617 H 720.516 3.78431 -5.26017 0
M  V30 7618 N 713.922 1.13953 1.08869 0
M  V30 7619 C 715.333 0.916649 1.62648 0
M  V30 7620 C 715.684 -0.545589 1.88462 0
M  V30 7621 O 714.809 -1.41351 1.63856 0
M  V30 7622 C 715.404 1.65751 2.95486 0
M  V30 7623 C 713.963 1.48034 3.46068 0
M  V30 7624 C 713.11 1.68305 2.20383 0
M  V30 7625 H 716.061 1.292 0.921572 0
M  V30 7626 H 716.082 1.11794 3.63707 0
M  V30 7627 H 715.594 2.72171 2.76667 0
M  V30 7628 H 713.695 0.439416 3.7 0
M  V30 7629 H 713.808 2.24719 4.23129 0
M  V30 7630 H 712.172 1.10833 2.29321 0
M  V30 7631 H 712.955 2.76057 2.04077 0
M  V30 7632 N 715.4 -1.26948 0.933913 0
M  V30 7633 C 716.646 -1.94374 0.57848 0
M  V30 7634 C 716.979 -1.73166 -0.879048 0
M  V30 7635 O 716.254 -1.06438 -1.62792 0
M  V30 7636 C 716.537 -3.4834 0.912739 0
M  V30 7637 C 716.39 -3.78866 2.42448 0
M  V30 7638 C 717.709 -4.38062 0.423003 0
M  V30 7639 H 714.828 -0.705959 0.211639 0
M  V30 7640 H 717.47 -1.49951 1.16682 0
M  V30 7641 H 715.62 -3.86309 0.412058 0
M  V30 7642 H 717.292 -3.50654 2.99733 0
M  V30 7643 H 715.535 -3.25198 2.87104 0
M  V30 7644 H 716.206 -4.86458 2.60887 0
M  V30 7645 H 718.682 -4.0728 0.852191 0
M  V30 7646 H 717.558 -5.44599 0.685776 0
M  V30 7647 H 717.819 -4.36886 -0.676994 0
M  V30 7648 N 716.879 -0.700114 -1.41195 0
M  V30 7649 C 717.811 0.00155823 -2.292 0
M  V30 7650 C 718.824 0.739736 -1.45023 0
M  V30 7651 O 720.013 0.589684 -1.68478 0
M  V30 7652 C 717.113 1.02635 -3.22985 0
M  V30 7653 C 716.286 0.356871 -4.35942 0
M  V30 7654 C 715.345 1.28491 -5.10271 0
M  V30 7655 O 714.371 0.775562 -5.63892 0
M  V30 7656 N 715.573 2.61699 -5.18164 0
M  V30 7657 H 718.338 -0.754008 -2.9006 0
M  V30 7658 H 715.899 -0.546504 -1.52397 0
M  V30 7659 H 717.891 1.64902 -3.6958 0
M  V30 7660 H 716.461 1.68341 -2.63401 0
M  V30 7661 H 715.681 -0.445753 -3.91672 0
M  V30 7662 H 716.969 -0.108469 -5.08684 0
M  V30 7663 H 716.367 3.05594 -4.76056 0
M  V30 7664 H 714.924 3.19149 -5.6832 0
M  V30 7665 N 718.357 1.51182 -0.445186 0
M  V30 7666 C 719.587 2.06269 0.116922 0
M  V30 7667 C 719.995 1.31188 1.36332 0
M  V30 7668 O 719.338 0.367067 1.79995 0
M  V30 7669 C 719.4 3.56051 0.496757 0
M  V30 7670 C 719.064 4.52441 -0.64394 0
M  V30 7671 C 720.061 4.97233 -1.5184 0
M  V30 7672 C 717.746 4.95447 -0.826905 0
M  V30 7673 C 719.74 5.83712 -2.56046 0
M  V30 7674 C 717.427 5.81714 -1.87222 0
M  V30 7675 C 718.425 6.25745 -2.73738 0
M  V30 7676 O 718.113 7.10298 -3.76474 0
M  V30 7677 H 717.845 0.675954 0.00785733 0
M  V30 7678 H 720.399 1.95648 -0.625371 0
M  V30 7679 H 718.629 3.64483 1.29187 0
M  V30 7680 H 720.318 3.93618 0.990928 0
M  V30 7681 H 721.084 4.64696 -1.38862 0
M  V30 7682 H 716.963 4.60712 -0.163052 0
M  V30 7683 H 720.507 6.18 -3.23607 0
M  V30 7684 H 716.404 6.13664 -2.00218 0
M  V30 7685 H 717.172 7.28493 -3.73149 0
M  V30 7686 N 719.835 0.176821 1.56605 0
M  V30 7687 C 720.745 -0.763682 2.21822 0
M  V30 7688 C 721.761 -1.24889 1.21156 0
M  V30 7689 O 722.937 -1.29987 1.53836 0
M  V30 7690 C 720.002 -1.97352 2.8505 0
M  V30 7691 C 719.063 -1.53466 4.00932 0
M  V30 7692 C 718.296 -2.68682 4.61135 0
M  V30 7693 O 718.519 -3.85694 4.20234 0
M  V30 7694 O 717.453 -2.42442 5.50913 0
M  V30 7695 H 721.279 -0.238363 3.02763 0
M  V30 7696 H 718.864 -0.0516331 1.49311 0
M  V30 7697 H 720.746 -2.68096 3.25119 0
M  V30 7698 H 719.421 -2.48779 2.07101 0
M  V30 7699 H 718.328 -0.796551 3.65521 0
M  V30 7700 H 719.661 -1.06724 4.8049 0
M  V30 7701 N 721.313 -1.57302 -0.09688 0
M  V30 7702 C 722.561 -1.8563 -0.799117 0
M  V30 7703 C 722.882 -0.765263 -1.79356 0
M  V30 7704 O 722.152 0.208657 -1.94786 0
M  V30 7705 H 720.732 -0.684937 -0.298111 0
M  V30 7706 H 723.394 -1.9474 -0.0789341 0
M  V30 7707 H 722.49 -2.82305 -1.3308 0
M  V30 7708 N 722.791 0.367657 -1.53252 0
M  V30 7709 C 724.039 1.10832 -1.68999 0
M  V30 7710 C 724.36 1.89894 -0.443306 0
M  V30 7711 O 723.63 1.88235 0.54262 0
M  V30 7712 H 722.21 0.412153 -0.623008 0
M  V30 7713 H 724.872 0.414775 -1.90435 0
M  V30 7714 H 723.968 1.7993 -2.55013 0
M  V30 7715 N 724.269 1.44576 0.627338 0
M  V30 7716 C 725.517 1.47267 1.38408 0
M  V30 7717 C 725.838 0.107971 1.94701 0
M  V30 7718 O 725.108 -0.860206 1.76004 0
M  V30 7719 H 723.688 0.542276 0.513756 0
M  V30 7720 H 726.35 1.80383 0.738099 0
M  V30 7721 H 725.446 2.20025 2.21349 0
M  V30 7722 N 725.747 -0.868086 1.31537 0
M  V30 7723 C 726.71 -1.95703 1.19302 0
M  V30 7724 C 727.71 -1.60355 0.119612 0
M  V30 7725 O 728.9 -1.70247 0.36902 0
M  V30 7726 C 726.032 -3.30599 0.831684 0
M  V30 7727 H 727.225 -2.07982 2.16064 0
M  V30 7728 H 724.778 -1.05661 1.15176 0
M  V30 7729 H 725.513 -3.2402 -0.134694 0
M  V30 7730 H 725.298 -3.57629 1.60761 0
M  V30 7731 H 726.788 -4.10439 0.770026 0
M  V30 7732 N 727.225 -1.14528 -1.08264 0
M  V30 7733 C 728.502 -0.825185 -1.77342 0
M  V30 7734 C 728.882 0.681037 -1.99813 0
M  V30 7735 O 728.23 1.62234 -1.60912 0
M  V30 7736 C 728.44 -1.62556 -3.08831 0
M  V30 7737 C 729.788 -1.82585 -3.83338 0
M  V30 7738 O 730.812 -1.59254 -3.18617 0
M  V30 7739 O 729.671 -2.21598 -4.99556 0
M  V30 7740 H 726.765 -0.302531 -0.769678 0
M  V30 7741 H 729.311 -1.25056 -1.14713 0
M  V30 7742 H 728.083 -2.64862 -2.88035 0
M  V30 7743 H 727.706 -1.1959 -3.79189 0
M  V30 7744 N 728.703 1.26451 -0.940633 0
M  V30 7745 C 729.931 1.97868 -0.604642 0
M  V30 7746 C 730.346 1.70051 0.820251 0
M  V30 7747 O 729.703 0.96843 1.54686 0
M  V30 7748 C 729.754 3.51684 -0.836689 0
M  V30 7749 O 729.475 3.78533 -2.20554 0
M  V30 7750 C 730.976 4.40343 -0.511169 0
M  V30 7751 H 728.196 0.631105 -0.227919 0
M  V30 7752 H 730.74 1.60979 -1.26119 0
M  V30 7753 H 728.895 3.86736 -0.226759 0
M  V30 7754 H 729.309 4.73065 -2.26517 0
M  V30 7755 H 730.783 5.47229 -0.724157 0
M  V30 7756 H 731.26 4.35694 0.553815 0
M  V30 7757 H 731.866 4.10834 -1.0998 0
M  V30 7758 N 730.181 0.707592 1.40822 0
M  V30 7759 C 731.409 0.253073 2.05346 0
M  V30 7760 C 731.824 -1.10218 1.53289 0
M  V30 7761 O 731.181 -1.69112 0.686105 0
M  V30 7762 C 731.232 0.215411 3.60858 0
M  V30 7763 O 730.953 1.51714 4.10992 0
M  V30 7764 C 732.454 -0.258636 4.42545 0
M  V30 7765 H 729.674 0.115256 0.661027 0
M  V30 7766 H 732.218 0.963555 1.80377 0
M  V30 7767 H 730.373 -0.445978 3.84824 0
M  V30 7768 H 730.787 1.41226 5.05129 0
M  V30 7769 H 732.261 -0.233849 5.51504 0
M  V30 7770 H 732.738 -1.2995 4.19535 0
M  V30 7771 H 733.344 0.372186 4.23668 0
M  V30 7772 N 731.66 -1.50943 0.453197 0
M  V30 7773 C 732.623 -2.26684 -0.338705 0
M  V30 7774 C 733.623 -1.30748 -0.936032 0
M  V30 7775 O 734.813 -1.54327 -0.808002 0
M  V30 7776 C 731.945 -3.07063 -1.48071 0
M  V30 7777 H 733.138 -2.98131 0.325289 0
M  V30 7778 H 730.691 -1.54926 0.206771 0
M  V30 7779 H 731.426 -2.4007 -2.18029 0
M  V30 7780 H 731.211 -3.77545 -1.0584 0
M  V30 7781 H 732.701 -3.64393 -2.0398 0
M  V30 7782 N 733.138 -0.185124 -1.56509 0
M  V30 7783 C 734.366 0.462139 -2.01673 0
M  V30 7784 C 734.781 1.55873 -1.06532 0
M  V30 7785 O 734.138 1.82371 -0.0684805 0
M  V30 7786 C 734.189 1.0277 -3.46584 0
M  V30 7787 O 733.91 -0.0251296 -4.38093 0
M  V30 7788 C 735.411 1.75183 -4.07217 0
M  V30 7789 H 732.631 0.117001 -0.660721 0
M  V30 7790 H 735.175 -0.290905 -2.0242 0
M  V30 7791 H 733.33 1.73118 -3.46568 0
M  V30 7792 H 733.744 0.394387 -5.23015 0
M  V30 7793 H 735.218 2.09999 -5.10494 0
M  V30 7794 H 735.695 2.6519 -3.50101 0
M  V30 7795 H 736.301 1.09445 -4.10977 0
M  V30 7796 N 734.616 1.57351 0.0885366 0
M  V30 7797 C 735.893 1.77449 0.822873 0
M  V30 7798 C 736.273 0.768463 1.96616 0
M  V30 7799 O 735.621 -0.201757 2.27608 0
M  V30 7800 C 735.831 3.23425 1.31137 0
M  V30 7801 C 737.179 3.86791 1.75152 0
M  V30 7802 O 738.203 3.27215 1.40745 0
M  V30 7803 O 737.062 4.91568 2.38794 0
M  V30 7804 H 734.156 0.727653 0.393002 0
M  V30 7805 H 736.702 1.69556 0.0699095 0
M  V30 7806 H 735.474 3.88188 0.49254 0
M  V30 7807 H 735.097 3.35977 2.12615 0
M  V30 7808 N 736.094 -0.359525 1.53444 0
M  V30 7809 C 737.343 -1.09886 1.69139 0
M  V30 7810 C 737.656 -1.90285 0.452863 0
M  V30 7811 O 738.862 -2.67033 0.490459 0
M  V30 7812 C 737.318 -2.0028 2.99025 0
M  V30 7813 C 736.926 -1.25164 4.30161 0
M  V30 7814 C 738.67 -2.74168 3.24086 0
M  V30 7815 C 736.577 -2.14494 5.51132 0
M  V30 7816 H 735.507 -0.413936 0.630217 0
M  V30 7817 H 738.158 -0.359434 1.79945 0
M  V30 7818 H 736.54 -2.77978 2.82036 0
M  V30 7819 H 737.714 -0.524867 4.57801 0
M  V30 7820 H 736.029 -0.631116 4.11589 0
M  V30 7821 H 738.626 -3.41243 4.11652 0
M  V30 7822 H 738.969 -3.39868 2.40407 0
M  V30 7823 H 739.502 -2.0355 3.41778 0
M  V30 7824 H 736.241 -1.53362 6.37307 0
M  V30 7825 H 735.761 -2.85004 5.27762 0
M  V30 7826 H 737.44 -2.73914 5.86157 0
M  V30 7827 N 737.572 -1.44907 -0.619662 0
M  V30 7828 C 738.821 -1.47569 -1.37501 0
M  V30 7829 C 739.134 -0.116707 -1.95252 0
M  V30 7830 O 740.34 -0.020909 -2.71492 0
M  V30 7831 C 738.796 -2.59851 -2.49009 0
M  V30 7832 C 738.404 -4.02008 -1.97722 0
M  V30 7833 C 740.148 -2.71746 -3.2612 0
M  V30 7834 C 738.055 -5.05693 -3.0664 0
M  V30 7835 H 736.985 -0.549068 -0.51676 0
M  V30 7836 H 739.636 -1.71009 -0.665437 0
M  V30 7837 H 738.018 -2.29671 -3.22594 0
M  V30 7838 H 739.192 -4.41809 -1.30925 0
M  V30 7839 H 737.507 -3.94456 -1.33392 0
M  V30 7840 H 740.104 -3.46382 -4.07337 0
M  V30 7841 H 740.447 -1.77959 -3.76346 0
M  V30 7842 H 740.98 -3.01392 -2.5963 0
M  V30 7843 H 737.719 -6.01148 -2.61345 0
M  V30 7844 H 737.239 -4.70473 -3.72042 0
M  V30 7845 H 738.918 -5.29906 -3.71226 0
M  V30 7846 N 739.05 0.861098 -1.31996 0
M  V30 7847 C 740.29 1.62873 -1.23498 0
M  V30 7848 C 740.654 1.90938 0.201692 0
M  V30 7849 O 741.855 2.6565 0.410305 0
M  V30 7850 C 740.126 2.91759 -2.06426 0
M  V30 7851 S 741.685 3.82583 -2.14885 0
M  V30 7852 H 738.503 0.558726 -0.439712 0
M  V30 7853 H 741.105 1.02025 -1.66767 0
M  V30 7854 H 739.809 2.69077 -3.0988 0
M  V30 7855 H 739.34 3.57627 -1.6391 0
M  V30 7856 H 741.355 4.7904 -1.29364 0
M  V30 7857 N 740.528 1.15101 1.07655 0
M  V30 7858 C 741.939 0.933848 1.61667 0
M  V30 7859 C 742.29 -0.525569 1.8903 0
M  V30 7860 O 741.415 -1.39605 1.65346 0
M  V30 7861 C 742.01 1.68876 2.93711 0
M  V30 7862 C 740.569 1.51697 3.44478 0
M  V30 7863 C 739.716 1.70633 2.18586 0
M  V30 7864 H 742.667 1.30171 0.907816 0
M  V30 7865 H 742.688 1.15645 3.625 0
M  V30 7866 H 742.2 2.7509 2.73764 0
M  V30 7867 H 740.301 0.478635 3.69513 0
M  V30 7868 H 740.414 2.29194 4.20722 0
M  V30 7869 H 738.778 1.13259 2.28132 0
M  V30 7870 H 739.561 2.78206 2.01137 0
M  V30 7871 N 742.006 -1.2595 0.947325 0
M  V30 7872 C 742.939 -2.24559 0.406009 0
M  V30 7873 C 743.917 -1.54441 -0.508598 0
M  V30 7874 O 745.101 -1.83181 -0.444644 0
M  V30 7875 C 742.228 -3.36136 -0.415987 0
M  V30 7876 C 741.274 -4.24245 0.437969 0
M  V30 7877 S 742.107 -5.01948 1.86572 0
M  V30 7878 C 743.263 -6.16997 1.05194 0
M  V30 7879 H 743.496 -2.70128 1.24171 0
M  V30 7880 H 741.029 -1.34912 0.750874 0
M  V30 7881 H 742.987 -4.00861 -0.88433 0
M  V30 7882 H 741.648 -2.89167 -1.22643 0
M  V30 7883 H 740.841 -5.03634 -0.192127 0
M  V30 7884 H 740.443 -3.64416 0.841235 0
M  V30 7885 H 742.735 -6.76848 0.297126 0
M  V30 7886 H 743.678 -6.84324 1.8195 0
M  V30 7887 H 744.086 -5.61458 0.585294 0
M  V30 7888 N 743.484 -0.715051 -1.40445 0
M  V30 7889 C 744.714 -0.263576 -2.04912 0
M  V30 7890 C 745.122 1.09943 -1.53978 0
M  V30 7891 O 744.465 1.70203 -0.691133 0
M  V30 7892 C 744.527 -0.165048 -3.59121 0
M  V30 7893 C 744.191 -1.46325 -4.32941 0
M  V30 7894 C 745.188 -2.40506 -4.60926 0
M  V30 7895 C 742.873 -1.72203 -4.7186 0
M  V30 7896 C 744.867 -3.58812 -5.26814 0
M  V30 7897 C 742.554 -2.9079 -5.3748 0
M  V30 7898 C 743.552 -3.83917 -5.64887 0
M  V30 7899 O 743.24 -5.00424 -6.29151 0
M  V30 7900 H 742.972 -0.116317 -0.665918 0
M  V30 7901 H 745.526 -0.973774 -1.8085 0
M  V30 7902 H 743.756 0.601088 -3.82 0
M  V30 7903 H 745.445 0.251794 -4.05118 0
M  V30 7904 H 746.211 -2.21778 -4.31323 0
M  V30 7905 H 742.09 -1.00571 -4.49896 0
M  V30 7906 H 745.634 -4.31517 -5.48123 0
M  V30 7907 H 741.531 -3.09428 -5.66502 0
M  V30 7908 H 742.299 -5.00494 -6.47648 0
M  V30 7909 N 744.962 1.50701 -0.461195 0
M  V30 7910 C 745.925 2.2686 0.326679 0
M  V30 7911 C 746.925 1.31243 0.929085 0
M  V30 7912 O 748.115 1.54754 0.799807 0
M  V30 7913 C 745.247 3.07844 1.46441 0
M  V30 7914 H 746.44 2.97954 -0.341095 0
M  V30 7915 H 743.993 1.54814 -0.214984 0
M  V30 7916 H 744.728 2.41223 2.16753 0
M  V30 7917 H 744.513 3.78101 1.03836 0
M  V30 7918 H 746.003 3.65469 2.02044 0
M  V30 7919 N 746.441 0.193421 1.56409 0
M  V30 7920 C 747.857 -0.162447 1.58771 0
M  V30 7921 C 748.057 -1.6116 1.20954 0
M  V30 7922 O 747.113 -2.3469 0.931497 0
M  V30 7923 C 748.426 0.138391 3.00381 0
M  V30 7924 C 749.974 0.0783649 3.12902 0
M  V30 7925 C 750.449 0.352491 4.56642 0
M  V30 7926 N 751.94 0.30105 4.62221 0
M  V30 7927 C 752.675 0.487028 5.71328 0
M  V30 7928 N 752.171 0.733265 6.88909 0
M  V30 7929 N 753.964 0.4214 5.60518 0
M  V30 7930 H 746.115 1.13909 1.79272 0
M  V30 7931 H 748.378 0.454528 0.83193 0
M  V30 7932 H 748.084 1.14312 3.32604 0
M  V30 7933 H 747.958 -0.559804 3.73023 0
M  V30 7934 H 750.345 -0.916963 2.80492 0
M  V30 7935 H 750.426 0.809611 2.4265 0
M  V30 7936 H 750.07 1.34513 4.89764 0
M  V30 7937 H 750 -0.399624 5.25081 0
M  V30 7938 H 752.491 0.117279 3.77718 0
M  V30 7939 H 752.804 0.86403 7.67955 0
M  V30 7940 H 751.149 0.770138 6.9072 0
M  V30 7941 H 754.34 0.229461 4.67537 0
M  V30 7942 H 754.513 0.569758 6.4549 0
M  V30 7943 N 747.919 -1.57396 -0.0801906 0
M  V30 7944 C 749.165 -1.87113 -0.782083 0
M  V30 7945 C 749.498 -0.78458 -1.77646 0
M  V30 7946 O 748.773 0.205993 -1.93406 0
M  V30 7947 C 749.056 -3.27483 -1.49756 0
M  V30 7948 C 748.909 -4.46782 -0.520171 0
M  V30 7949 C 750.228 -3.65965 -2.44454 0
M  V30 7950 H 747.347 -0.680559 -0.282858 0
M  V30 7951 H 749.989 -1.89946 -0.0454139 0
M  V30 7952 H 748.139 -3.25199 -2.12551 0
M  V30 7953 H 749.811 -4.61187 0.101919 0
M  V30 7954 H 748.054 -4.33485 0.165219 0
M  V30 7955 H 748.725 -5.41761 -1.05824 0
M  V30 7956 H 751.201 -3.69289 -1.91742 0
M  V30 7957 H 750.077 -4.65086 -2.91524 0
M  V30 7958 H 750.338 -2.95446 -3.28883 0
M  V30 7959 N 749.397 0.351382 -1.53633 0
M  V30 7960 C 750.674 1.10903 -1.6112 0
M  V30 7961 C 751.054 2.06725 -0.427556 0
M  V30 7962 O 750.402 2.20992 0.580916 0
M  V30 7963 C 750.612 1.83561 -2.96827 0
M  V30 7964 C 751.96 2.37587 -3.51906 0
M  V30 7965 O 752.984 1.93669 -2.9895 0
M  V30 7966 O 751.843 3.17913 -4.44515 0
M  V30 7967 H 748.937 0.509558 -0.651368 0
M  V30 7968 H 751.483 0.353504 -1.65977 0
M  V30 7969 H 750.255 1.1371 -3.74414 0
M  V30 7970 H 749.878 2.6599 -2.95525 0
M  V30 7971 N 750.875 1.45233 0.611969 0
M  V30 7972 C 751.785 1.56098 1.7513 0
M  V30 7973 C 752.801 0.445646 1.68196 0
M  V30 7974 O 753.977 0.705718 1.88631 0
M  V30 7975 C 751.042 1.52052 3.11579 0
M  V30 7976 C 750.103 2.74589 3.29999 0
M  V30 7977 C 749.336 2.70726 4.59938 0
M  V30 7978 O 749.559 1.77806 5.41979 0
M  V30 7979 O 748.493 3.61864 4.80976 0
M  V30 7980 H 752.319 2.52392 1.68914 0
M  V30 7981 H 749.904 1.27695 0.775528 0
M  V30 7982 H 751.786 1.52387 3.92882 0
M  V30 7983 H 750.461 0.589085 3.18295 0
M  V30 7984 H 749.368 2.79817 2.48301 0
M  V30 7985 H 750.701 3.66843 3.28157 0
M  V30 7986 N 752.353 -0.854086 1.3245 0
M  V30 7987 C 753.63 -1.59188 1.1366 0
M  V30 7988 C 754.01 -2.08917 -0.302807 0
M  V30 7989 O 753.358 -1.8795 -1.29951 0
M  V30 7990 C 753.568 -2.73757 2.16467 0
M  V30 7991 C 754.916 -3.43323 2.49829 0
M  V30 7992 O 755.94 -2.83983 2.15017 0
M  V30 7993 O 754.799 -4.50409 3.09506 0
M  V30 7994 H 751.893 -0.701092 0.438633 0
M  V30 7995 H 754.439 -0.898165 1.43983 0
M  V30 7996 H 753.211 -2.3454 3.1322 0
M  V30 7997 H 752.834 -3.50804 1.87142 0
M  V30 7998 N 753.831 -1.1567 -1.07043 0
M  V30 7999 C 754.763 -0.814095 -2.14255 0
M  V30 8000 C 755.776 0.175293 -1.61854 0
M  V30 8001 O 756.965 -0.0483984 -1.78434 0
M  V30 8002 C 754.065 -0.190082 -3.38367 0
M  V30 8003 C 753.238 -1.21768 -4.20109 0
M  V30 8004 C 752.297 -0.614863 -5.22595 0
M  V30 8005 O 751.323 -1.28167 -5.54583 0
M  V30 8006 N 752.525 0.601955 -5.77371 0
M  V30 8007 H 755.29 -1.73677 -2.44247 0
M  V30 8008 H 752.851 -1.05301 -1.22977 0
M  V30 8009 H 754.843 0.22604 -4.04068 0
M  V30 8010 H 753.413 0.635992 -3.06062 0
M  V30 8011 H 752.633 -1.81025 -3.50177 0
M  V30 8012 H 753.921 -1.9114 -4.71533 0
M  V30 8013 H 753.319 1.162 -5.53637 0
M  V30 8014 H 751.876 0.96039 -6.44686 0
M  V30 8015 N 755.309 1.25446 -0.953992 0
M  V30 8016 C 756.72 1.75047 -0.649255 0
M  V30 8017 C 757.071 1.77527 0.835385 0
M  V30 8018 O 756.196 1.39569 1.65377 0
M  V30 8019 C 756.791 3.17889 -1.17183 0
M  V30 8020 C 755.35 3.65052 -0.917267 0
M  V30 8021 C 754.497 2.44124 -1.31525 0
M  V30 8022 H 757.448 1.11342 -1.13087 0
M  V30 8023 H 757.469 3.76768 -0.531616 0
M  V30 8024 H 756.981 3.16052 -2.25239 0
M  V30 8025 H 755.082 3.72305 0.148354 0
M  V30 8026 H 755.195 4.53222 -1.55328 0
M  V30 8027 H 753.559 2.43906 -0.733624 0
M  V30 8028 H 754.342 2.44979 -2.405 0
M  V30 8029 N 756.787 0.722489 1.40064 0
M  V30 8030 C 758.034 0.264979 2.00759 0
M  V30 8031 C 758.362 -1.14395 1.57302 0
M  V30 8032 O 757.617 -1.79165 0.787298 0
M  V30 8033 C 757.916 0.300682 3.56133 0
M  V30 8034 C 757.582 1.66087 4.19197 0
M  V30 8035 C 756.244 2.03319 4.36136 0
M  V30 8036 C 758.596 2.55452 4.54306 0
M  V30 8037 C 755.924 3.29448 4.8547 0
M  V30 8038 C 758.276 3.8094 5.05042 0
M  V30 8039 C 756.94 4.1828 5.2019 0
M  V30 8040 H 756.21 0.0969625 0.734629 0
M  V30 8041 H 758.857 0.926877 1.67575 0
M  V30 8042 H 757.162 -0.44479 3.89267 0
M  V30 8043 H 758.859 -0.0712542 4.00937 0
M  V30 8044 H 755.449 1.36137 4.06405 0
M  V30 8045 H 759.633 2.27961 4.40849 0
M  V30 8046 H 754.889 3.58338 4.95382 0
M  V30 8047 H 759.063 4.50351 5.31184 0
M  V30 8048 H 756.69 5.16081 5.58179 0
M  V30 8049 N 758.265 -1.50454 0.469181 0
M  V30 8050 C 759.676 -1.86695 0.0136034 0
M  V30 8051 C 760.027 -1.38413 -1.39055 0
M  V30 8052 O 759.152 -0.748294 -2.03051 0
M  V30 8053 C 759.747 -3.38795 0.0179098 0
M  V30 8054 C 758.306 -3.74455 -0.382191 0
M  V30 8055 C 757.453 -2.74338 0.404207 0
M  V30 8056 H 760.404 -1.43225 0.683547 0
M  V30 8057 H 760.425 -3.72321 -0.78468 0
M  V30 8058 H 759.937 -3.73906 1.04 0
M  V30 8059 H 758.038 -3.44944 -1.4087 0
M  V30 8060 H 758.151 -4.79025 -0.084862 0
M  V30 8061 H 756.515 -2.54305 -0.141829 0
M  V30 8062 H 757.298 -3.12293 1.42577 0
M  V30 8063 N 759.743 -0.201713 -1.56304 0
M  V30 8064 C 760.706 0.702811 -2.18159 0
M  V30 8065 C 761.706 1.13619 -1.13787 0
M  V30 8066 O 762.896 1.0482 -1.39134 0
M  V30 8067 C 760.028 1.96032 -2.78898 0
M  V30 8068 H 761.221 0.163836 -2.99452 0
M  V30 8069 H 758.774 0.04791 -1.56227 0
M  V30 8070 H 759.509 2.54165 -2.01421 0
M  V30 8071 H 759.294 1.65824 -3.55309 0
M  V30 8072 H 760.784 2.60519 -3.26373 0
M  V30 8073 N 761.222 1.57436 0.0718424 0
M  V30 8074 C 762.468 1.87525 0.772149 0
M  V30 8075 C 762.801 0.79399 1.77227 0
M  V30 8076 O 762.076 -0.195733 1.93513 0
M  V30 8077 C 762.359 3.28272 1.48018 0
M  V30 8078 C 762.212 4.47052 0.49647 0
M  V30 8079 C 763.531 3.67256 2.42509 0
M  V30 8080 H 760.65 0.682049 0.279245 0
M  V30 8081 H 763.292 1.89967 0.03534 0
M  V30 8082 H 761.442 3.26321 2.10824 0
M  V30 8083 H 763.114 4.61127 -0.126375 0
M  V30 8084 H 761.357 4.33392 -0.188205 0
M  V30 8085 H 762.028 5.42315 1.02949 0
M  V30 8086 H 764.504 3.70301 1.89781 0
M  V30 8087 H 763.38 4.66626 2.89053 0
M  V30 8088 H 763.641 2.97186 3.27312 0
M  V30 8089 N 762.7 -0.34323 1.53817 0
M  V30 8090 C 764.111 -0.918823 1.62525 0
M  V30 8091 C 764.462 -1.89542 0.506765 0
M  V30 8092 O 763.587 -2.13326 -0.363441 0
M  V30 8093 C 764.182 -1.67326 2.94597 0
M  V30 8094 C 762.741 -2.19786 3.05567 0
M  V30 8095 C 761.888 -1.01708 2.57974 0
M  V30 8096 H 764.839 -0.121358 1.58235 0
M  V30 8097 H 764.86 -2.53615 2.83654 0
M  V30 8098 H 764.372 -0.962223 3.75983 0
M  V30 8099 H 762.473 -2.94065 2.28816 0
M  V30 8100 H 762.586 -2.46135 4.1104 0
M  V30 8101 H 760.95 -1.39058 2.13389 0
M  V30 8102 H 761.733 -0.320671 3.41799 0
M  V30 8103 N 764.178 -1.45556 -0.604258 0
M  V30 8104 C 765.125 -1.54482 -1.71476 0
M  V30 8105 C 766.095 -0.390479 -1.61445 0
M  V30 8106 O 767.28 -0.604371 -1.80975 0
M  V30 8107 C 764.42 -1.52064 -3.09791 0
M  V30 8108 C 763.533 -2.78073 -3.30604 0
M  V30 8109 C 762.668 -2.67304 -4.59044 0
M  V30 8110 C 761.707 -3.88352 -4.73127 0
M  V30 8111 N 760.844 -3.76098 -5.9287 0
M  V30 8112 H 765.684 -2.49349 -1.63184 0
M  V30 8113 H 763.221 -1.23725 -0.795641 0
M  V30 8114 H 765.179 -1.48649 -3.89819 0
M  V30 8115 H 763.809 -0.607442 -3.17033 0
M  V30 8116 H 762.861 -2.91561 -2.44329 0
M  V30 8117 H 764.173 -3.67847 -3.36883 0
M  V30 8118 H 763.327 -2.61875 -5.47272 0
M  V30 8119 H 762.066 -1.75135 -4.55169 0
M  V30 8120 H 761.071 -3.94137 -3.83322 0
M  V30 8121 H 762.296 -4.81591 -4.78797 0
M  V30 8122 H 760.242 -2.867 -5.90033 0
M  V30 8123 H 760.159 -4.59509 -6.00323 0
M  V30 8124 H 761.427 -3.74607 -6.83586 0
M  V30 8125 N 765.656 0.84705 -1.32902 0
M  V30 8126 C 766.902 1.60389 -1.25088 0
M  V30 8127 C 767.257 1.91521 0.183723 0
M  V30 8128 O 766.55 1.55197 1.12359 0
M  V30 8129 C 766.744 2.92663 -2.05142 0
M  V30 8130 C 766.573 2.74449 -3.56241 0
M  V30 8131 C 765.343 2.72434 -4.25567 0
M  V30 8132 C 767.541 2.47666 -4.5074 0
M  V30 8133 N 765.523 2.45512 -5.62669 0
M  V30 8134 C 766.894 2.30219 -5.75673 0
M  V30 8135 C 768.949 2.33196 -4.39914 0
M  V30 8136 C 767.652 1.99772 -6.91002 0
M  V30 8137 C 769.678 2.0414 -5.5505 0
M  V30 8138 C 769.04 1.875 -6.78987 0
M  V30 8139 H 765.139 0.590296 -0.512908 0
M  V30 8140 H 767.723 0.995058 -1.67352 0
M  V30 8141 H 765.894 3.51511 -1.65211 0
M  V30 8142 H 767.626 3.5777 -1.89163 0
M  V30 8143 H 764.381 2.85647 -3.7776 0
M  V30 8144 H 764.805 2.34958 -6.3492 0
M  V30 8145 H 769.447 2.44777 -3.44738 0
M  V30 8146 H 767.165 1.86928 -7.86183 0
M  V30 8147 H 770.751 1.93711 -5.48605 0
M  V30 8148 H 769.631 1.65339 -7.66572 0
M  V30 8149 N 767.134 1.16236 1.06428 0
M  V30 8150 C 768.359 0.967688 1.83441 0
M  V30 8151 C 768.784 -0.479167 1.81894 0
M  V30 8152 O 768.142 -1.34224 1.21875 0
M  V30 8153 C 768.19 1.49806 3.2801 0
M  V30 8154 O 767.294 0.703481 4.06356 0
M  V30 8155 H 766.635 0.344468 0.56766 0
M  V30 8156 H 769.165 1.54442 1.34197 0
M  V30 8157 H 769.175 1.51495 3.78831 0
M  V30 8158 H 767.85 2.55133 3.2845 0
M  V30 8159 H 766.427 0.756986 3.65136 0
M  V30 8160 N 768.612 -1.24939 0.960631 0
M  V30 8161 C 769.861 -1.92118 0.614298 0
M  V30 8162 C 770.174 -1.75998 -0.853474 0
M  V30 8163 O 771.38 -2.37804 -1.31003 0
M  V30 8164 C 769.836 -3.44303 1.04801 0
M  V30 8165 C 769.444 -3.69123 2.53875 0
M  V30 8166 C 771.188 -4.17375 0.774497 0
M  V30 8167 C 769.095 -5.14843 2.91016 0
M  V30 8168 H 768.025 -0.719319 0.226045 0
M  V30 8169 H 770.676 -1.41701 1.16589 0
M  V30 8170 H 769.058 -3.93715 0.42479 0
M  V30 8171 H 770.232 -3.30339 3.21267 0
M  V30 8172 H 768.547 -3.09323 2.78762 0
M  V30 8173 H 771.144 -5.24723 1.02808 0
M  V30 8174 H 771.487 -4.15294 -0.289192 0
M  V30 8175 H 772.02 -3.7389 1.35835 0
M  V30 8176 H 768.759 -5.2204 3.96427 0
M  V30 8177 H 768.279 -5.54652 2.28302 0
M  V30 8178 H 769.958 -5.83017 2.80535 0
M  V30 8179 N 770.09 -0.729906 -1.39679 0
M  V30 8180 C 771.037 -0.0866063 -2.30637 0
M  V30 8181 C 772.007 0.735115 -1.48947 0
M  V30 8182 O 773.192 0.696125 -1.77648 0
M  V30 8183 C 770.332 0.818524 -3.35252 0
M  V30 8184 C 769.445 -0.0152635 -4.31997 0
M  V30 8185 C 768.58 0.890669 -5.2368 0
M  V30 8186 C 767.619 0.0518246 -6.12078 0
M  V30 8187 N 766.756 0.913411 -6.96133 0
M  V30 8188 H 771.596 -0.867925 -2.85081 0
M  V30 8189 H 769.133 -0.439673 -1.40376 0
M  V30 8190 H 771.091 1.3577 -3.9449 0
M  V30 8191 H 769.721 1.56587 -2.82277 0
M  V30 8192 H 768.773 -0.671794 -3.74421 0
M  V30 8193 H 770.085 -0.664086 -4.9436 0
M  V30 8194 H 769.239 1.49787 -5.87919 0
M  V30 8195 H 767.978 1.57328 -4.61627 0
M  V30 8196 H 766.983 -0.568209 -5.46856 0
M  V30 8197 H 768.208 -0.627497 -6.76195 0
M  V30 8198 H 766.154 1.58141 -6.36653 0
M  V30 8199 H 766.071 0.320952 -7.55318 0
M  V30 8200 H 767.339 1.50633 -7.64807 0
M  V30 8201 N 771.568 1.50203 -0.477153 0
M  V30 8202 C 772.515 2.28656 0.31386 0
M  V30 8203 C 773.485 1.33977 0.981802 0
M  V30 8204 O 774.67 1.62919 0.993072 0
M  V30 8205 C 771.81 3.16027 1.38639 0
M  V30 8206 C 770.923 4.25743 0.732615 0
M  V30 8207 C 770.058 5.00363 1.78355 0
M  V30 8208 C 769.097 6.01945 1.11035 0
M  V30 8209 N 768.234 6.6982 2.10441 0
M  V30 8210 H 773.074 2.958 -0.361445 0
M  V30 8211 H 770.611 1.45867 -0.190093 0
M  V30 8212 H 772.569 3.6504 2.01994 0
M  V30 8213 H 771.199 2.50917 2.03077 0
M  V30 8214 H 770.251 3.80398 -0.0136546 0
M  V30 8215 H 771.563 4.98393 0.201513 0
M  V30 8216 H 770.717 5.53124 2.49276 0
M  V30 8217 H 769.456 4.27432 2.34847 0
M  V30 8218 H 768.461 5.48438 0.386797 0
M  V30 8219 H 769.686 6.76851 0.552248 0
M  V30 8220 H 767.632 5.99677 2.65939 0
M  V30 8221 H 767.549 7.38366 1.62332 0
M  V30 8222 H 768.817 7.27196 2.80724 0
M  V30 8223 N 773.046 0.209999 1.56195 0
M  V30 8224 C 774.292 -0.418742 1.99043 0
M  V30 8225 C 774.647 -1.58201 1.095 0
M  V30 8226 O 773.94 -1.91069 0.1425 0
M  V30 8227 C 774.134 -0.91312 3.45539 0
M  V30 8228 C 773.963 0.200706 4.49252 0
M  V30 8229 C 772.733 0.663287 5.00928 0
M  V30 8230 C 774.931 1.01493 5.04186 0
M  V30 8231 N 772.913 1.75338 5.88328 0
M  V30 8232 C 774.284 1.95411 5.884 0
M  V30 8233 C 776.339 1.05567 4.8658 0
M  V30 8234 C 775.042 2.93069 6.56889 0
M  V30 8235 C 777.068 2.02037 5.55819 0
M  V30 8236 C 776.43 2.94697 6.39791 0
M  V30 8237 H 772.529 -0.120226 0.772703 0
M  V30 8238 H 775.113 0.319119 1.92067 0
M  V30 8239 H 773.284 -1.62038 3.52985 0
M  V30 8240 H 775.016 -1.51371 3.75325 0
M  V30 8241 H 771.771 0.253945 4.72919 0
M  V30 8242 H 772.195 2.30007 6.3673 0
M  V30 8243 H 776.837 0.353242 4.21322 0
M  V30 8244 H 774.555 3.6428 7.21336 0
M  V30 8245 H 778.141 2.05849 5.44167 0
M  V30 8246 H 777.021 3.68128 6.92425 0
M  V30 8247 N 774.524 -1.57472 -0.0634922 0
M  V30 8248 C 775.454 -2.07297 -1.07473 0
M  V30 8249 C 776.435 -0.968162 -1.39859 0
M  V30 8250 O 777.62 -1.24139 -1.49343 0
M  V30 8251 C 774.75 -2.52381 -2.38581 0
M  V30 8252 C 773.704 -3.66813 -2.20526 0
M  V30 8253 C 773.03 -3.97982 -3.57092 0
M  V30 8254 C 774.33 -4.96553 -1.61965 0
M  V30 8255 H 776.024 -2.92033 -0.660092 0
M  V30 8256 H 773.57 -1.40488 -0.316074 0
M  V30 8257 H 775.523 -2.85852 -3.09624 0
M  V30 8258 H 774.247 -1.64684 -2.8204 0
M  V30 8259 H 772.906 -3.33639 -1.51924 0
M  V30 8260 H 772.554 -3.07403 -3.98136 0
M  V30 8261 H 772.254 -4.7504 -3.45848 0
M  V30 8262 H 773.778 -4.33956 -4.29552 0
M  V30 8263 H 775.192 -5.28201 -2.22883 0
M  V30 8264 H 773.589 -5.7799 -1.61394 0
M  V30 8265 H 774.659 -4.81396 -0.581918 0
M  V30 8266 N 776.003 0.335068 -1.53997 0
M  V30 8267 C 777.228 1.09859 -1.75914 0
M  V30 8268 C 777.653 1.81308 -0.500915 0
M  V30 8269 O 777.011 1.72854 0.54693 0
M  V30 8270 C 777.059 2.08122 -2.94478 0
M  V30 8271 O 776.163 3.15805 -2.65219 0
M  V30 8272 H 775.504 0.317313 -0.583274 0
M  V30 8273 H 778.034 0.382872 -2.00986 0
M  V30 8274 H 778.044 2.51195 -3.21504 0
M  V30 8275 H 776.719 1.55517 -3.8573 0
M  V30 8276 H 775.296 2.77489 -2.49107 0
M  V30 8277 N 777.481 1.45874 0.596531 0
M  V30 8278 C 778.411 1.5824 1.71705 0
M  V30 8279 C 779.392 0.433366 1.64487 0
M  V30 8280 O 780.577 0.657895 1.82717 0
M  V30 8281 C 777.707 1.55927 3.10329 0
M  V30 8282 C 776.661 2.69659 3.32367 0
M  V30 8283 C 775.987 2.52403 4.71377 0
M  V30 8284 C 777.287 4.11591 3.21544 0
M  V30 8285 H 778.981 2.52035 1.61613 0
M  V30 8286 H 776.527 1.21297 0.776082 0
M  V30 8287 H 778.48 1.63173 3.88526 0
M  V30 8288 H 777.204 0.586674 3.21288 0
M  V30 8289 H 775.863 2.61859 2.56564 0
M  V30 8290 H 775.511 1.53258 4.79083 0
M  V30 8291 H 775.211 3.28679 4.87077 0
M  V30 8292 H 776.735 2.6152 5.5176 0
M  V30 8293 H 778.149 4.20576 3.89601 0
M  V30 8294 H 776.546 4.88344 3.4877 0
M  V30 8295 H 777.616 4.32719 2.1882 0
M  V30 8296 N 778.959 -0.83999 1.33349 0
M  V30 8297 C 780.37 -1.41139 1.22216 0
M  V30 8298 C 780.721 -1.95551 -0.159398 0
M  V30 8299 O 779.846 -1.88721 -1.05893 0
M  V30 8300 C 780.441 -2.56564 2.21269 0
M  V30 8301 C 779 -3.09661 2.13979 0
M  V30 8302 C 778.147 -1.82457 2.08818 0
M  V30 8303 H 781.098 -0.645853 1.44964 0
M  V30 8304 H 781.119 -3.34163 1.81976 0
M  V30 8305 H 780.631 -2.16932 3.21811 0
M  V30 8306 H 778.732 -3.53841 1.16736 0
M  V30 8307 H 778.845 -3.6991 3.04472 0
M  V30 8308 H 777.209 -2.0266 1.54276 0
M  V30 8309 H 777.992 -1.45022 3.11165 0
M  V30 8310 N 780.437 -1.16799 -1.0581 0
M  V30 8311 C 781.685 -0.950642 -1.78346 0
M  V30 8312 C 782.006 0.522524 -1.87869 0
M  V30 8313 O 781.276 1.3795 -1.39092 0
M  V30 8314 H 779.856 -0.348736 -0.6606 0
M  V30 8315 H 782.518 -1.47158 -1.27791 0
M  V30 8316 H 781.614 -1.37359 -2.80248 0
M  V30 8317 N 781.915 1.24427 -0.967243 0
M  V30 8318 C 782.825 2.29109 -0.504592 0
M  V30 8319 C 783.841 1.68495 0.434224 0
M  V30 8320 O 785.017 1.99041 0.307379 0
M  V30 8321 C 782.082 3.46133 0.198273 0
M  V30 8322 C 781.143 4.22149 -0.780313 0
M  V30 8323 C 780.376 5.33585 -0.110896 0
M  V30 8324 O 780.599 5.59676 1.10088 0
M  V30 8325 O 779.533 5.96522 -0.802823 0
M  V30 8326 H 783.359 2.708 -1.37482 0
M  V30 8327 H 780.944 1.30111 -0.73426 0
M  V30 8328 H 782.826 4.17205 0.593124 0
M  V30 8329 H 781.501 3.0642 1.04347 0
M  V30 8330 H 780.408 3.53454 -1.22561 0
M  V30 8331 H 781.741 4.65677 -1.59392 0
M  V30 8332 N 783.393 0.737304 1.3929 0
M  V30 8333 C 784.621 0.296573 2.04763 0
M  V30 8334 C 785.036 -1.06941 1.55592 0
M  V30 8335 O 784.393 -1.67619 0.721822 0
M  V30 8336 C 784.444 0.291906 3.6032 0
M  V30 8337 O 784.165 1.60397 4.07682 0
M  V30 8338 C 785.666 -0.164708 4.42994 0
M  V30 8339 H 782.886 0.129251 0.658434 0
M  V30 8340 H 785.43 1.0016 1.78293 0
M  V30 8341 H 783.585 -0.364251 3.85684 0
M  V30 8342 H 783.999 1.51909 5.0202 0
M  V30 8343 H 785.473 -0.116814 5.51876 0
M  V30 8344 H 785.95 -1.21022 4.22197 0
M  V30 8345 H 786.556 0.461968 4.22784 0
M  V30 8346 N 784.871 -1.49948 0.485112 0
M  V30 8347 C 786.287 -1.58984 0.140096 0
M  V30 8348 C 786.487 -1.49194 -1.35438 0
M  V30 8349 O 785.543 -1.35765 -2.12894 0
M  V30 8350 C 786.856 -2.92372 0.702769 0
M  V30 8351 C 788.404 -3.05801 0.66745 0
M  V30 8352 C 788.879 -4.41785 1.20791 0
M  V30 8353 N 790.37 -4.48234 1.16792 0
M  V30 8354 C 791.105 -5.51871 1.55646 0
M  V30 8355 N 790.601 -6.62692 2.02016 0
M  V30 8356 N 792.394 -5.42494 1.47161 0
M  V30 8357 H 784.545 -1.54555 1.45693 0
M  V30 8358 H 786.808 -0.731206 0.603359 0
M  V30 8359 H 786.514 -3.05056 1.75025 0
M  V30 8360 H 786.388 -3.76885 0.154205 0
M  V30 8361 H 788.775 -2.92757 -0.371157 0
M  V30 8362 H 788.856 -2.23011 1.25298 0
M  V30 8363 H 788.5 -4.55579 2.24522 0
M  V30 8364 H 788.43 -5.23188 0.598464 0
M  V30 8365 H 790.921 -3.68718 0.827982 0
M  V30 8366 H 791.234 -7.3785 2.29775 0
M  V30 8367 H 789.579 -6.63775 2.05979 0
M  V30 8368 H 792.77 -4.54806 1.10765 0
M  V30 8369 H 792.943 -6.2314 1.77766 0
M  V30 8370 N 786.349 -0.21828 -1.56081 0
M  V30 8371 C 787.76 0.290166 -1.84431 0
M  V30 8372 C 788.111 1.59712 -1.13958 0
M  V30 8373 O 787.236 2.12516 -0.40815 0
M  V30 8374 C 787.831 0.53325 -3.34577 0
M  V30 8375 C 786.39 0.986011 -3.63256 0
M  V30 8376 C 785.537 0.0472798 -2.7726 0
M  V30 8377 H 788.488 -0.441548 -1.52434 0
M  V30 8378 H 788.509 1.37967 -3.54606 0
M  V30 8379 H 788.021 -0.418137 -3.85841 0
M  V30 8380 H 786.122 1.95087 -3.17446 0
M  V30 8381 H 786.235 0.862684 -4.71269 0
M  V30 8382 H 784.599 0.553471 -2.48614 0
M  V30 8383 H 785.382 -0.898966 -3.31321 0
M  V30 8384 N 787.827 1.57504 0.0551401 0
M  V30 8385 C 788.757 2.07864 1.06372 0
M  V30 8386 C 789.738 0.975565 1.39344 0
M  V30 8387 O 790.923 1.24929 1.48682 0
M  V30 8388 C 788.053 2.53643 2.3724 0
M  V30 8389 C 787.007 3.67978 2.18578 0
M  V30 8390 C 786.333 3.9987 3.54976 0
M  V30 8391 C 787.633 4.97405 1.59329 0
M  V30 8392 H 789.327 2.92379 0.644595 0
M  V30 8393 H 786.873 1.40654 0.308619 0
M  V30 8394 H 788.826 2.8749 3.08103 0
M  V30 8395 H 787.55 1.66177 2.81163 0
M  V30 8396 H 786.209 3.3444 1.50152 0
M  V30 8397 H 785.857 3.0951 3.965 0
M  V30 8398 H 785.557 4.76867 3.43324 0
M  V30 8399 H 787.081 4.36228 4.27244 0
M  V30 8400 H 788.495 5.29375 2.20078 0
M  V30 8401 H 786.892 5.78837 1.58327 0
M  V30 8402 H 787.962 4.81697 0.55638 0
M  V30 8403 N 789.305 -0.326896 1.54172 0
M  V30 8404 C 790.554 -1.06274 1.71431 0
M  V30 8405 C 790.867 -1.89282 0.493123 0
M  V30 8406 O 792.073 -2.65933 0.54699 0
M  V30 8407 C 790.529 -1.93892 3.03206 0
M  V30 8408 C 790.137 -1.16011 4.32719 0
M  V30 8409 C 791.881 -2.67232 3.29829 0
M  V30 8410 C 789.788 -2.02755 5.55558 0
M  V30 8411 H 788.718 -0.400475 0.638855 0
M  V30 8412 H 791.369 -0.321184 1.80667 0
M  V30 8413 H 789.751 -2.71933 2.87869 0
M  V30 8414 H 790.925 -0.427643 4.58811 0
M  V30 8415 H 789.24 -0.54367 4.12836 0
M  V30 8416 H 791.837 -3.32434 4.18798 0
M  V30 8417 H 792.18 -3.34692 2.47562 0
M  V30 8418 H 792.713 -1.96255 3.46018 0
M  V30 8419 H 789.452 -1.3981 6.40417 0
M  V30 8420 H 788.972 -2.73745 5.33689 0
M  V30 8421 H 790.651 -2.61419 5.91835 0
M  V30 8422 N 790.784 -1.46188 -0.588786 0
M  V30 8423 C 791.714 -1.59148 -1.70863 0
M  V30 8424 C 792.695 -0.442083 -1.64255 0
M  V30 8425 O 793.88 -0.667575 -1.82365 0
M  V30 8426 C 791.01 -1.5757 -3.09498 0
M  V30 8427 C 789.964 -2.71418 -3.30932 0
M  V30 8428 C 789.29 -2.549 -4.70032 0
M  V30 8429 C 790.59 -4.1329 -3.19356 0
M  V30 8430 H 792.284 -2.52889 -1.60274 0
M  V30 8431 H 789.83 -1.21707 -0.769638 0
M  V30 8432 H 791.783 -1.65231 -3.87655 0
M  V30 8433 H 790.507 -0.603705 -3.20972 0
M  V30 8434 H 789.166 -2.63216 -2.55172 0
M  V30 8435 H 788.814 -1.55797 -4.78264 0
M  V30 8436 H 788.514 -3.31257 -4.85327 0
M  V30 8437 H 790.038 -2.64443 -5.50366 0
M  V30 8438 H 791.452 -4.22636 -3.87365 0
M  V30 8439 H 789.849 -4.90187 -3.46175 0
M  V30 8440 H 790.919 -4.33874 -2.16522 0
M  V30 8441 N 792.262 0.832906 -1.33792 0
M  V30 8442 C 793.502 1.60217 -1.26925 0
M  V30 8443 C 793.866 1.91323 0.161146 0
M  V30 8444 O 795.067 2.66461 0.353864 0
M  V30 8445 C 793.338 2.87314 -2.12568 0
M  V30 8446 S 794.897 3.77939 -2.22952 0
M  V30 8447 H 791.715 0.549273 -0.451464 0
M  V30 8448 H 794.317 0.984648 -1.68893 0
M  V30 8449 H 793.021 2.62444 -3.15518 0
M  V30 8450 H 792.552 3.5407 -1.71459 0
M  V30 8451 H 794.567 4.76188 -1.39496 0
M  V30 8452 N 793.74 1.17359 1.05189 0
M  V30 8453 C 794.65 0.904984 2.16442 0
M  V30 8454 C 795.666 -0.12686 1.73537 0
M  V30 8455 O 796.842 0.0524127 2.01332 0
M  V30 8456 C 793.907 0.422019 3.44122 0
M  V30 8457 C 792.968 1.52045 4.01473 0
M  V30 8458 C 792.201 1.06044 5.23059 0
M  V30 8459 O 792.424 -0.0854023 5.70336 0
M  V30 8460 O 791.358 1.85349 5.72651 0
M  V30 8461 H 795.184 1.8356 2.41949 0
M  V30 8462 H 792.769 0.95447 1.14936 0
M  V30 8463 H 794.651 0.160208 4.21095 0
M  V30 8464 H 793.326 -0.480444 3.20115 0
M  V30 8465 H 792.233 1.83615 3.25939 0
M  V30 8466 H 793.566 2.39863 4.29798 0
M  V30 8467 N 795.218 -1.23913 0.973828 0
M  V30 8468 C 796.448 -1.95911 0.655938 0
M  V30 8469 C 796.856 -1.72375 -0.779967 0
M  V30 8470 O 796.199 -1.00807 -1.5357 0
M  V30 8471 C 796.261 -3.49103 0.858324 0
M  V30 8472 C 795.925 -3.96347 2.27504 0
M  V30 8473 C 796.922 -4.05537 3.25324 0
M  V30 8474 C 794.607 -4.29509 2.60437 0
M  V30 8475 C 796.601 -4.47233 4.5416 0
M  V30 8476 C 794.288 -4.70887 3.89498 0
M  V30 8477 C 795.286 -4.79714 4.86172 0
M  V30 8478 O 794.974 -5.20166 6.1293 0
M  V30 8479 H 794.706 -0.630721 0.243244 0
M  V30 8480 H 797.26 -1.58534 1.30599 0
M  V30 8481 H 795.49 -3.86405 0.151097 0
M  V30 8482 H 797.179 -4.02311 0.538592 0
M  V30 8483 H 797.945 -3.80128 3.0121 0
M  V30 8484 H 793.824 -4.21853 1.85906 0
M  V30 8485 H 797.368 -4.54038 5.29618 0
M  V30 8486 H 793.265 -4.95744 4.1341 0
M  V30 8487 H 794.033 -5.38298 6.16586 0
M  V30 8488 N 796.696 -0.74468 -1.38897 0
M  V30 8489 C 797.659 -0.11945 -2.28889 0
M  V30 8490 C 798.659 0.656942 -1.46768 0
M  V30 8491 O 799.849 0.484525 -1.67326 0
M  V30 8492 C 796.981 0.839635 -3.30398 0
M  V30 8493 H 798.174 -0.912414 -2.85683 0
M  V30 8494 H 795.727 -0.511119 -1.47707 0
M  V30 8495 H 796.462 1.6586 -2.78677 0
M  V30 8496 H 796.247 0.285432 -3.9106 0
M  V30 8497 H 797.737 1.27337 -3.97712 0
M  V30 8498 N 798.174 1.49689 -0.493057 0
M  V30 8499 C 799.124 2.25901 0.308682 0
M  V30 8500 C 800.108 1.30408 0.94247 0
M  V30 8501 O 801.3 1.55179 0.851384 0
M  V30 8502 C 798.429 3.14463 1.37725 0
M  V30 8503 C 797.515 4.17414 0.7501 0
M  V30 8504 N 797.906 5.05599 -0.142597 0
M  V30 8505 C 796.204 4.34377 1.01159 0
M  V30 8506 C 796.905 5.7954 -0.500782 0
M  V30 8507 N 795.881 5.43446 0.129386 0
M  V30 8508 H 799.683 2.91451 -0.378652 0
M  V30 8509 H 797.197 1.59441 -0.308614 0
M  V30 8510 H 799.194 3.67687 1.965 0
M  V30 8511 H 797.854 2.50464 2.06635 0
M  V30 8512 H 798.865 5.15354 -0.512894 0
M  V30 8513 H 795.542 3.81588 1.69402 0
M  V30 8514 H 796.932 6.60534 -1.23063 0
M  V30 8515 N 799.652 0.226554 1.55963 0
M  V30 8516 C 800.615 -0.668015 2.19249 0
M  V30 8517 C 801.615 -1.11794 1.1558 0
M  V30 8518 O 802.805 -1.02593 1.40784 0
M  V30 8519 C 799.937 -1.91571 2.81981 0
M  V30 8520 H 801.13 -0.116175 2.99675 0
M  V30 8521 H 798.683 -0.0230497 1.56283 0
M  V30 8522 H 799.418 -2.50929 2.05439 0
M  V30 8523 H 799.203 -1.6015 3.57903 0
M  V30 8524 H 800.693 -2.55294 3.30477 0
M  V30 8525 N 801.13 -1.57531 -0.0467866 0
M  V30 8526 C 802.063 -2.00734 -1.08541 0
M  V30 8527 C 803.041 -0.888508 -1.36177 0
M  V30 8528 O 804.225 -1.1529 -1.49132 0
M  V30 8529 C 801.352 -2.36535 -2.42423 0
M  V30 8530 C 800.398 -3.58681 -2.3076 0
M  V30 8531 S 801.231 -5.08536 -1.67785 0
M  V30 8532 C 802.387 -5.47562 -3.03194 0
M  V30 8533 H 802.62 -2.88516 -0.717345 0
M  V30 8534 H 800.153 -1.5226 -0.256181 0
M  V30 8535 H 802.111 -2.57834 -3.19424 0
M  V30 8536 H 800.772 -1.49236 -2.76382 0
M  V30 8537 H 799.965 -3.81329 -3.29552 0
M  V30 8538 H 799.567 -3.37142 -1.61899 0
M  V30 8539 H 801.859 -5.47163 -3.99524 0
M  V30 8540 H 802.802 -6.48082 -2.85299 0
M  V30 8541 H 803.21 -4.75042 -3.04951 0
M  V30 8542 N 802.608 0.318715 -1.54344 0
M  V30 8543 C 803.856 1.054 -1.72439 0
M  V30 8544 C 804.177 1.88388 -0.503495 0
M  V30 8545 O 803.447 1.89866 0.48246 0
M  V30 8546 H 802.027 0.392124 -0.635805 0
M  V30 8547 H 804.689 0.35398 -1.91659 0
M  V30 8548 H 803.785 1.71726 -2.60608 0
M  V30 8549 N 804.086 1.46499 0.581025 0
M  V30 8550 C 805.034 1.57562 1.71105 0
M  V30 8551 C 806.028 0.44403 1.63477 0
M  V30 8552 O 807.234 0.620964 1.6895 0
M  V30 8553 H 803.609 0.495415 0.565746 0
M  V30 8554 H 805.58 2.5257 1.58905 0
M  V30 8555 C 804.329 1.58465 3.0949 0
M  V30 8556 H 803.652 2.44877 3.16031 0
M  V30 8557 H 805.092 1.70261 3.88313 0
M  V30 8558 C 803.551 0.313596 3.35437 0
M  V30 8559 O 804.081 -0.595456 3.97262 0
M  V30 8560 N 802.287 0.200986 2.89904 0
M  V30 8561 H 801.834 0.941643 2.39773 0
M  V30 8562 H 801.792 -0.648577 3.07638 0
M  V30 8563 N 805.565 -0.825799 1.34232 0
M  V30 8564 C 806.79 -1.61883 1.29648 0
M  V30 8565 C 807.215 -1.87669 -0.127295 0
M  V30 8566 O 806.573 -1.45016 -1.08813 0
M  V30 8567 C 806.621 -2.93846 2.09014 0
M  V30 8568 O 805.725 -3.85778 1.4577 0
M  V30 8569 H 805.066 -0.492454 0.445405 0
M  V30 8570 H 807.596 -1.02641 1.76992 0
M  V30 8571 H 807.606 -3.43435 2.20264 0
M  V30 8572 H 806.281 -2.74401 3.12533 0
M  V30 8573 H 804.858 -3.4429 1.43245 0
M  V30 8574 N 807.043 -1.17915 -1.04565 0
M  V30 8575 C 807.973 -0.925033 -2.14395 0
M  V30 8576 C 808.954 0.135375 -1.6956 0
M  V30 8577 O 810.139 -0.0161774 -1.94193 0
M  V30 8578 C 807.269 -0.444469 -3.44444 0
M  V30 8579 C 806.223 -1.44478 -4.02877 0
M  V30 8580 C 805.549 -0.821933 -5.28345 0
M  V30 8581 C 806.849 -2.81995 -4.39632 0
M  V30 8582 H 808.543 -1.84354 -2.35911 0
M  V30 8583 H 806.089 -0.887806 -1.13375 0
M  V30 8584 H 808.042 -0.254078 -4.20633 0
M  V30 8585 H 806.766 0.509592 -3.226 0
M  V30 8586 H 805.425 -1.62203 -3.28764 0
M  V30 8587 H 805.073 0.139161 -5.02807 0
M  V30 8588 H 804.773 -1.48976 -5.68401 0
M  V30 8589 H 806.297 -0.641959 -6.07216 0
M  V30 8590 H 807.711 -2.67952 -5.06828 0
M  V30 8591 H 806.108 -3.45414 -4.90723 0
M  V30 8592 H 807.178 -3.35927 -3.49687 0
M  V30 8593 N 808.521 1.23394 -0.980386 0
M  V30 8594 C 809.769 1.91431 -0.647978 0
M  V30 8595 C 810.09 1.76871 0.821066 0
M  V30 8596 O 809.36 1.14808 1.58732 0
M  V30 8597 H 807.94 0.708516 -0.236673 0
M  V30 8598 H 810.602 1.50019 -1.2442 0
M  V30 8599 H 809.698 2.98854 -0.899592 0
M  V30 8600 N 809.999 0.752036 1.385 0
M  V30 8601 C 811.247 0.306895 1.99756 0
M  V30 8602 C 811.568 -1.11478 1.59992 0
M  V30 8603 O 810.838 -1.76206 0.856045 0
M  V30 8604 H 809.418 0.11048 0.738785 0
M  V30 8605 H 812.08 0.965785 1.69289 0
M  V30 8606 H 811.176 0.368797 3.09913 0
M  V30 8607 N 811.477 -1.49425 0.500989 0
M  V30 8608 C 812.724 -2.02453 -0.0435355 0
M  V30 8609 C 813.052 -1.38067 -1.36995 0
M  V30 8610 O 812.307 -0.505557 -1.89057 0
M  V30 8611 C 812.606 -3.56562 -0.24463 0
M  V30 8612 C 812.272 -4.39585 1.00379 0
M  V30 8613 C 810.934 -4.61992 1.346 0
M  V30 8614 C 813.286 -4.87881 1.83361 0
M  V30 8615 C 810.614 -5.2994 2.51755 0
M  V30 8616 C 812.966 -5.57119 2.99669 0
M  V30 8617 C 811.63 -5.77771 3.3427 0
M  V30 8618 H 810.9 -0.740829 -0.0159308 0
M  V30 8619 H 813.547 -1.79725 0.661143 0
M  V30 8620 H 811.852 -3.77969 -1.03183 0
M  V30 8621 H 813.549 -3.95185 -0.6804 0
M  V30 8622 H 810.139 -4.22385 0.727225 0
M  V30 8623 H 814.323 -4.70398 1.58237 0
M  V30 8624 H 809.579 -5.44133 2.788 0
M  V30 8625 H 813.753 -5.93516 3.64296 0
M  V30 8626 H 811.38 -6.30197 4.25154 0
M  V30 8627 N 812.955 -0.234822 -1.55841 0
M  V30 8628 C 813.918 0.656378 -2.196 0
M  V30 8629 C 814.918 1.11179 -1.16171 0
M  V30 8630 O 816.108 1.01845 -1.41326 0
M  V30 8631 C 813.24 1.90072 -2.82993 0
M  V30 8632 H 814.433 0.100281 -2.99732 0
M  V30 8633 H 811.986 0.0147613 -1.56293 0
M  V30 8634 H 812.721 2.49836 -2.06767 0
M  V30 8635 H 812.506 1.5825 -3.58747 0
M  V30 8636 H 813.996 2.53538 -3.31826 0
M  V30 8637 N 814.433 1.57553 0.0384317 0
M  V30 8638 C 815.38 2.05942 1.04194 0
M  V30 8639 C 816.35 0.946637 1.36484 0
M  V30 8640 O 817.535 1.21658 1.46983 0
M  V30 8641 C 814.675 2.53588 2.34066 0
M  V30 8642 C 813.788 3.7862 2.08017 0
M  V30 8643 C 812.923 4.14915 3.31692 0
M  V30 8644 C 811.962 5.32891 3.01155 0
M  V30 8645 N 811.099 5.64662 4.17254 0
M  V30 8646 H 815.939 2.91429 0.622341 0
M  V30 8647 H 813.476 1.44098 0.295684 0
M  V30 8648 H 815.434 2.79276 3.09937 0
M  V30 8649 H 814.064 1.71031 2.73767 0
M  V30 8650 H 813.116 3.60073 1.22686 0
M  V30 8651 H 814.428 4.64613 1.81484 0
M  V30 8652 H 813.582 4.41681 4.15936 0
M  V30 8653 H 812.321 3.27555 3.6133 0
M  V30 8654 H 811.326 5.05887 2.15311 0
M  V30 8655 H 812.551 6.21896 2.72804 0
M  V30 8656 H 810.497 4.80261 4.46861 0
M  V30 8657 H 810.414 6.45145 3.94112 0
M  V30 8658 H 811.682 5.96 5.02399 0
M  V30 8659 N 815.911 -0.310526 1.54511 0
M  V30 8660 C 817.141 -1.06456 1.77061 0
M  V30 8661 C 817.549 -1.81755 0.525528 0
M  V30 8662 O 816.892 -1.76365 -0.513904 0
M  V30 8663 C 816.954 -2.09856 2.91892 0
M  V30 8664 C 816.618 -1.53838 4.30329 0
M  V30 8665 C 817.615 -0.973358 5.10707 0
M  V30 8666 C 815.3 -1.57688 4.76906 0
M  V30 8667 C 817.294 -0.454283 6.35779 0
M  V30 8668 C 814.981 -1.05393 6.01943 0
M  V30 8669 C 815.979 -0.493595 6.81214 0
M  V30 8670 O 815.667 0.0214506 8.03897 0
M  V30 8671 H 815.399 -0.321913 0.594431 0
M  V30 8672 H 817.953 -0.358289 2.02251 0
M  V30 8673 H 816.183 -2.84137 2.62304 0
M  V30 8674 H 817.872 -2.71085 3.02106 0
M  V30 8675 H 818.638 -0.936588 4.75871 0
M  V30 8676 H 814.517 -2.00242 4.1524 0
M  V30 8677 H 818.061 -0.0162657 6.97598 0
M  V30 8678 H 813.958 -1.08782 6.36268 0
M  V30 8679 H 814.726 -0.0927478 8.18447 0
M  V30 8680 N 817.389 -1.46805 -0.573248 0
M  V30 8681 C 818.635 -1.53816 -1.33088 0
M  V30 8682 C 818.99 -0.191162 -1.91448 0
M  V30 8683 O 818.283 0.801299 -1.7404 0
M  V30 8684 C 818.477 -2.58001 -2.47326 0
M  V30 8685 C 818.306 -4.027 -2.00157 0
M  V30 8686 C 817.076 -4.70319 -1.84737 0
M  V30 8687 C 819.274 -4.90211 -1.55557 0
M  V30 8688 N 817.256 -5.99598 -1.31739 0
M  V30 8689 C 818.627 -6.09389 -1.14215 0
M  V30 8690 C 820.682 -4.76784 -1.43461 0
M  V30 8691 C 819.385 -7.16625 -0.619809 0
M  V30 8692 C 821.411 -5.84101 -0.926297 0
M  V30 8693 C 820.773 -7.02458 -0.522715 0
M  V30 8694 H 816.872 -0.617642 -0.479627 0
M  V30 8695 H 819.456 -1.83471 -0.65164 0
M  V30 8696 H 817.627 -2.3024 -3.128 0
M  V30 8697 H 819.359 -2.54951 -3.14296 0
M  V30 8698 H 816.114 -4.25982 -2.06969 0
M  V30 8699 H 816.538 -6.68431 -1.07374 0
M  V30 8700 H 821.18 -3.85661 -1.73279 0
M  V30 8701 H 818.898 -8.07508 -0.309228 0
M  V30 8702 H 822.484 -5.75755 -0.836485 0
M  V30 8703 H 821.364 -7.84083 -0.135467 0
M  V30 8704 N 818.867 0.818669 -1.34668 0
M  V30 8705 C 819.799 1.93754 -1.22442 0
M  V30 8706 C 820.812 1.62103 -0.150501 0
M  V30 8707 O 822.001 1.73898 -0.402728 0
M  V30 8708 C 819.101 3.27806 -0.860031 0
M  V30 8709 C 818.274 3.8745 -2.02981 0
M  V30 8710 C 817.333 4.99887 -1.64314 0
M  V30 8711 O 816.359 5.17957 -2.36029 0
M  V30 8712 N 817.561 5.77795 -0.55976 0
M  V30 8713 H 820.326 2.04773 -2.18833 0
M  V30 8714 H 817.887 0.995472 -1.27679 0
M  V30 8715 H 819.879 4.00478 -0.583068 0
M  V30 8716 H 818.449 3.12597 0.0138253 0
M  V30 8717 H 817.669 3.07119 -2.47127 0
M  V30 8718 H 818.957 4.2403 -2.81204 0
M  V30 8719 H 818.355 5.65688 0.0363329 0
M  V30 8720 H 816.912 6.50899 -0.342541 0
M  V30 8721 N 820.346 1.18468 1.03938 0
M  V30 8722 C 821.309 0.914944 2.10146 0
M  V30 8723 C 822.309 -0.10022 1.60487 0
M  V30 8724 O 823.499 0.133365 1.73689 0
M  V30 8725 C 820.631 0.372993 3.38853 0
M  V30 8726 H 821.824 1.85677 2.35508 0
M  V30 8727 H 819.377 0.996876 1.20383 0
M  V30 8728 H 820.112 -0.57538 3.19155 0
M  V30 8729 H 819.897 1.1048 3.76213 0
M  V30 8730 H 821.387 0.203014 4.17106 0
M  V30 8731 N 821.824 -1.22873 0.986916 0
M  V30 8732 C 823.071 -1.91462 0.659424 0
M  V30 8733 C 823.399 -1.76931 -0.807825 0
M  V30 8734 O 822.654 -1.12829 -1.59901 0
M  V30 8735 C 822.953 -3.43014 1.00379 0
M  V30 8736 C 822.619 -3.77731 2.46232 0
M  V30 8737 C 821.281 -3.86918 2.86091 0
M  V30 8738 C 823.633 -3.94343 3.40798 0
M  V30 8739 C 820.961 -4.10149 4.19518 0
M  V30 8740 C 823.313 -4.19076 4.73875 0
M  V30 8741 C 821.977 -4.26486 5.13484 0
M  V30 8742 H 821.247 -0.700611 0.2413 0
M  V30 8743 H 823.894 -1.45763 1.24199 0
M  V30 8744 H 822.199 -3.90329 0.339226 0
M  V30 8745 H 823.896 -3.94327 0.728518 0
M  V30 8746 H 820.486 -3.71159 2.14334 0
M  V30 8747 H 824.67 -3.86629 3.11178 0
M  V30 8748 H 819.926 -4.1411 4.49803 0
M  V30 8749 H 824.1 -4.30873 5.47102 0
M  V30 8750 H 821.727 -4.4424 6.16891 0
M  V30 8751 N 823.302 -0.75937 -1.38099 0
M  V30 8752 C 824.718 -0.437606 -1.53483 0
M  V30 8753 C 824.918 1.04849 -1.72072 0
M  V30 8754 O 823.974 1.83448 -1.73502 0
M  V30 8755 C 825.287 -1.24189 -2.73857 0
M  V30 8756 C 826.835 -1.23255 -2.8771 0
M  V30 8757 C 827.31 -2.01992 -4.11051 0
M  V30 8758 N 828.801 -1.99282 -4.1814 0
M  V30 8759 C 829.536 -2.56996 -5.12583 0
M  V30 8760 N 829.032 -3.23446 -6.12662 0
M  V30 8761 N 830.825 -2.46894 -5.04975 0
M  V30 8762 H 822.976 -1.72242 -1.24283 0
M  V30 8763 H 825.239 -0.730507 -0.604205 0
M  V30 8764 H 824.945 -2.29449 -2.66545 0
M  V30 8765 H 824.819 -0.862672 -3.67203 0
M  V30 8766 H 827.206 -0.187988 -2.94501 0
M  V30 8767 H 827.287 -1.65132 -1.95359 0
M  V30 8768 H 826.931 -3.06462 -4.05023 0
M  V30 8769 H 826.861 -1.57505 -5.02494 0
M  V30 8770 H 829.352 -1.50893 -3.46467 0
M  V30 8771 H 829.665 -3.6489 -6.81231 0
M  V30 8772 H 828.01 -3.27543 -6.12977 0
M  V30 8773 H 831.201 -1.94604 -4.25731 0
M  V30 8774 H 831.374 -2.92168 -5.78396 0
M  V30 8775 N 824.78 1.49157 -0.508906 0
M  V30 8776 C 825.712 2.272 0.302115 0
M  V30 8777 C 826.725 1.3407 0.923529 0
M  V30 8778 O 827.914 1.5929 0.805532 0
M  V30 8779 C 825.014 3.06736 1.44105 0
M  V30 8780 C 824.187 4.27497 0.925477 0
M  V30 8781 C 823.246 4.89014 1.94297 0
M  V30 8782 O 822.272 5.48851 1.50834 0
M  V30 8783 N 823.474 4.7937 3.2739 0
M  V30 8784 H 826.239 2.97443 -0.367115 0
M  V30 8785 H 823.8 1.58248 -0.341933 0
M  V30 8786 H 825.792 3.44763 2.11944 0
M  V30 8787 H 824.362 2.3905 2.0143 0
M  V30 8788 H 823.582 3.94135 0.0717301 0
M  V30 8789 H 824.87 5.05714 0.55955 0
M  V30 8790 H 824.268 4.31869 3.65384 0
M  V30 8791 H 822.825 5.21559 3.90922 0
M  V30 8792 N 826.258 0.243083 1.55714 0
M  V30 8793 C 827.488 -0.38641 2.02954 0
M  V30 8794 C 827.896 -1.52358 1.12177 0
M  V30 8795 O 827.239 -1.83255 0.127853 0
M  V30 8796 C 827.301 -0.959388 3.46462 0
M  V30 8797 C 826.965 0.0450546 4.56978 0
M  V30 8798 C 827.962 0.853224 5.12851 0
M  V30 8799 C 825.647 0.170041 5.02012 0
M  V30 8800 C 827.641 1.77288 6.12248 0
M  V30 8801 C 825.328 1.0932 6.01242 0
M  V30 8802 C 826.326 1.89315 6.56238 0
M  V30 8803 O 826.014 2.80075 7.53534 0
M  V30 8804 H 825.746 -0.0964333 0.669086 0
M  V30 8805 H 828.3 0.363399 2.0216 0
M  V30 8806 H 826.53 -1.75869 3.44394 0
M  V30 8807 H 828.219 -1.49856 3.77224 0
M  V30 8808 H 828.985 0.767229 4.78893 0
M  V30 8809 H 824.864 -0.442528 4.58871 0
M  V30 8810 H 828.408 2.39768 6.55101 0
M  V30 8811 H 824.305 1.18013 6.3462 0
M  V30 8812 H 825.073 2.74393 7.71136 0
M  V30 8813 N 827.736 -1.57571 -0.0300757 0
M  V30 8814 C 829.147 -1.77567 -0.576802 0
M  V30 8815 C 829.498 -0.874034 -1.75656 0
M  V30 8816 O 828.623 -0.0686124 -2.16291 0
M  V30 8817 C 829.218 -3.22016 -1.05315 0
M  V30 8818 C 827.777 -3.43212 -1.5454 0
M  V30 8819 C 826.924 -2.73061 -0.483033 0
M  V30 8820 H 829.875 -1.57483 0.196151 0
M  V30 8821 H 829.896 -3.28474 -1.92055 0
M  V30 8822 H 829.408 -3.87613 -0.194298 0
M  V30 8823 H 827.509 -2.82788 -2.42615 0
M  V30 8824 H 827.622 -4.5182 -1.5936 0
M  V30 8825 H 825.986 -2.36805 -0.937835 0
M  V30 8826 H 826.769 -3.4134 0.366341 0
M  V30 8827 N 829.214 0.302327 -1.54673 0
M  V30 8828 C 830.63 0.647911 -1.45857 0
M  V30 8829 C 830.83 1.90773 -0.64869 0
M  V30 8830 O 829.886 2.52018 -0.155865 0
M  V30 8831 C 831.199 0.802144 -2.89804 0
M  V30 8832 C 832.747 0.898114 -2.99838 0
M  V30 8833 C 833.222 1.08436 -4.44978 0
M  V30 8834 N 834.713 1.15059 -4.48682 0
M  V30 8835 C 835.448 1.31296 -5.58166 0
M  V30 8836 N 834.944 1.4444 -6.77576 0
M  V30 8837 N 836.737 1.34174 -5.45851 0
M  V30 8838 H 828.888 -0.525428 -2.05798 0
M  V30 8839 H 831.151 -0.173423 -0.932002 0
M  V30 8840 H 830.857 -0.0526531 -3.51661 0
M  V30 8841 H 830.731 1.69155 -3.37145 0
M  V30 8842 H 833.118 1.7434 -2.38096 0
M  V30 8843 H 833.199 -0.0152752 -2.55795 0
M  V30 8844 H 832.843 0.243843 -5.07314 0
M  V30 8845 H 832.773 2.01195 -4.8665 0
M  V30 8846 H 835.264 1.0626 -3.62653 0
M  V30 8847 H 835.577 1.56582 -7.56771 0
M  V30 8848 H 833.922 1.41499 -6.80443 0
M  V30 8849 H 837.113 1.23516 -4.5151 0
M  V30 8850 H 837.286 1.46485 -6.31226 0
M  V30 8851 N 830.692 1.47107 0.565454 0
M  V30 8852 C 831.622 1.61846 1.68309 0
M  V30 8853 C 832.603 0.468159 1.63531 0
M  V30 8854 O 833.788 0.696504 1.8128 0
M  V30 8855 C 830.918 1.62474 3.06952 0
M  V30 8856 C 829.872 2.76649 3.26572 0
M  V30 8857 C 829.198 2.62345 4.65917 0
M  V30 8858 C 830.498 4.18319 3.12741 0
M  V30 8859 H 832.192 2.55407 1.5623 0
M  V30 8860 H 829.738 1.22916 0.750179 0
M  V30 8861 H 831.691 1.71378 3.84977 0
M  V30 8862 H 830.415 0.654692 3.19971 0
M  V30 8863 H 829.074 2.67242 2.50952 0
M  V30 8864 H 828.722 1.63386 4.75725 0
M  V30 8865 H 828.422 3.38936 4.79996 0
M  V30 8866 H 829.946 2.73165 5.46089 0
M  V30 8867 H 831.36 4.28745 3.80593 0
M  V30 8868 H 829.757 4.95632 3.38333 0
M  V30 8869 H 830.827 4.37263 2.09592 0
M  V30 8870 N 832.17 -0.811516 1.35101 0
M  V30 8871 C 833.102 -1.93102 1.23468 0
M  V30 8872 C 834.115 -1.62021 0.159095 0
M  V30 8873 O 835.304 -1.73682 0.411945 0
M  V30 8874 C 832.404 -3.27345 0.877404 0
M  V30 8875 C 831.577 -3.86368 2.05033 0
M  V30 8876 C 830.636 -4.99009 1.66963 0
M  V30 8877 O 829.662 -5.16698 2.38772 0
M  V30 8878 N 830.864 -5.7749 0.590394 0
M  V30 8879 H 833.629 -2.0361 2.19916 0
M  V30 8880 H 831.19 -0.988687 1.28205 0
M  V30 8881 H 833.182 -4.00163 0.604298 0
M  V30 8882 H 831.752 -3.126 0.00275267 0
M  V30 8883 H 830.972 -3.05804 2.48752 0
M  V30 8884 H 832.26 -4.22533 2.83449 0
M  V30 8885 H 831.658 -5.657 -0.00633259 0
M  V30 8886 H 830.215 -6.50708 0.377055 0
M  V30 8887 N 833.648 -1.19017 -1.03309 0
M  V30 8888 C 834.896 -0.988258 -1.76289 0
M  V30 8889 C 835.217 0.482557 -1.88935 0
M  V30 8890 O 834.487 1.34969 -1.41987 0
M  V30 8891 H 833.067 -0.36267 -0.653054 0
M  V30 8892 H 835.729 -1.49836 -1.2464 0
M  V30 8893 H 834.825 -1.43273 -2.77271 0
M  V30 8894 N 835.127 1.22348 -0.993418 0
M  V30 8895 C 836.375 1.90733 -0.668246 0
M  V30 8896 C 836.696 1.77732 0.802261 0
M  V30 8897 O 835.966 1.16486 1.57505 0
M  V30 8898 H 834.546 0.705966 -0.244174 0
M  V30 8899 H 837.208 1.48691 -1.26004 0
M  V30 8900 H 836.304 2.97883 -0.931239 0
M  V30 8901 N 836.605 0.766683 1.37694 0
M  V30 8902 C 837.852 0.328714 1.99814 0
M  V30 8903 C 838.18 -1.09333 1.60862 0
M  V30 8904 O 837.435 -1.7657 0.8439 0
M  V30 8905 C 837.734 0.413831 3.54996 0
M  V30 8906 C 837.4 1.7934 4.137 0
M  V30 8907 C 836.062 2.17092 4.29447 0
M  V30 8908 C 838.414 2.69776 4.45949 0
M  V30 8909 C 835.742 3.44726 4.74743 0
M  V30 8910 C 838.094 3.96814 4.92667 0
M  V30 8911 C 836.758 4.34618 5.0662 0
M  V30 8912 H 836.028 0.120285 0.731172 0
M  V30 8913 H 838.675 0.97972 1.64541 0
M  V30 8914 H 836.98 -0.320723 3.90485 0
M  V30 8915 H 838.677 0.0563369 4.0096 0
M  V30 8916 H 835.267 1.48997 4.01868 0
M  V30 8917 H 839.451 2.41871 4.33373 0
M  V30 8918 H 834.707 3.73917 4.83731 0
M  V30 8919 H 838.881 4.67022 5.16588 0
M  V30 8920 H 836.508 5.33578 5.41478 0
M  V30 8921 N 838.083 -1.48885 0.516809 0
M  V30 8922 C 839.329 -2.02788 -0.0220928 0
M  V30 8923 C 839.662 -1.39433 -1.35175 0
M  V30 8924 O 838.937 -0.535459 -1.86984 0
M  V30 8925 C 839.22 -3.59753 -0.158012 0
M  V30 8926 C 839.073 -4.33611 1.19588 0
M  V30 8927 C 840.392 -4.30984 -0.891133 0
M  V30 8928 H 837.511 -0.736971 -0.00655488 0
M  V30 8929 H 840.153 -1.77746 0.671287 0
M  V30 8930 H 838.303 -3.8122 -0.748568 0
M  V30 8931 H 839.975 -4.23598 1.82653 0
M  V30 8932 H 838.218 -3.95547 1.78116 0
M  V30 8933 H 838.889 -5.41846 1.05391 0
M  V30 8934 H 841.365 -4.14267 -0.39012 0
M  V30 8935 H 840.241 -5.40527 -0.955107 0
M  V30 8936 H 840.502 -3.97336 -1.93847 0
M  V30 8937 N 839.561 -0.251338 -1.55583 0
M  V30 8938 C 840.807 0.365823 -2.00083 0
M  V30 8939 C 841.162 1.55242 -1.13656 0
M  V30 8940 O 840.455 1.90624 -0.193108 0
M  V30 8941 C 840.649 0.821186 -3.47838 0
M  V30 8942 C 840.478 -0.319746 -4.48562 0
M  V30 8943 C 839.248 -0.795866 -4.98993 0
M  V30 8944 C 841.446 -1.14825 -5.01318 0
M  V30 8945 N 839.428 -1.90875 -5.83472 0
M  V30 8946 C 840.799 -2.10943 -5.83012 0
M  V30 8947 C 842.854 -1.18431 -4.8361 0
M  V30 8948 C 841.557 -3.10383 -6.48888 0
M  V30 8949 C 843.583 -2.16703 -5.50267 0
M  V30 8950 C 842.945 -3.11557 -6.31753 0
M  V30 8951 H 839.044 0.0996971 -0.775619 0
M  V30 8952 H 841.628 -0.36993 -1.91153 0
M  V30 8953 H 839.799 1.52622 -3.57157 0
M  V30 8954 H 841.531 1.41367 -3.79206 0
M  V30 8955 H 838.286 -0.379242 -4.72079 0
M  V30 8956 H 838.71 -2.46808 -6.30408 0
M  V30 8957 H 843.352 -0.464824 -4.20237 0
M  V30 8958 H 841.07 -3.83277 -7.11424 0
M  V30 8959 H 844.656 -2.20204 -5.38518 0
M  V30 8960 H 843.536 -3.86357 -6.82421 0
M  V30 8961 N 841.039 1.57585 0.0217189 0
M  V30 8962 C 842.316 1.80779 0.74687 0
M  V30 8963 C 842.696 0.851163 1.9318 0
M  V30 8964 O 842.044 -0.105039 2.28258 0
M  V30 8965 C 842.254 3.28696 1.17302 0
M  V30 8966 C 843.602 3.93871 1.58589 0
M  V30 8967 O 844.626 3.3289 1.2674 0
M  V30 8968 O 843.485 5.01254 2.1773 0
M  V30 8969 H 840.579 0.743666 0.361786 0
M  V30 8970 H 843.125 1.697 -0.00206785 0
M  V30 8971 H 841.897 3.89927 0.327453 0
M  V30 8972 H 841.52 3.44692 1.98174 0
M  V30 8973 N 842.517 -0.29412 1.54831 0
M  V30 8974 C 843.763 -1.02602 1.75626 0
M  V30 8975 C 844.118 -1.84689 0.539232 0
M  V30 8976 O 843.411 -1.85788 -0.468322 0
M  V30 8977 C 843.605 -1.95782 2.99006 0
M  V30 8978 C 843.434 -1.22861 4.32591 0
M  V30 8979 C 842.204 -0.95294 4.96233 0
M  V30 8980 C 844.402 -0.629592 5.10432 0
M  V30 8981 N 842.384 -0.194728 6.13591 0
M  V30 8982 C 843.755 -0.00449586 6.2 0
M  V30 8983 C 845.81 -0.535327 4.95014 0
M  V30 8984 C 844.513 0.705754 7.15829 0
M  V30 8985 C 846.539 0.161284 5.9118 0
M  V30 8986 C 845.901 0.775203 7.00121 0
M  V30 8987 H 842 -0.358143 0.695167 0
M  V30 8988 H 844.584 -0.303896 1.92314 0
M  V30 8989 H 842.755 -2.65238 2.83731 0
M  V30 8990 H 844.487 -2.62175 3.08296 0
M  V30 8991 H 841.242 -1.25285 4.56728 0
M  V30 8992 H 841.666 0.171093 6.76784 0
M  V30 8993 H 846.308 -0.995662 4.10909 0
M  V30 8994 H 844.026 1.17784 7.9947 0
M  V30 8995 H 847.612 0.234256 5.81328 0
M  V30 8996 H 846.492 1.30566 7.73254 0
M  V30 8997 N 843.995 -1.47404 -0.557645 0
M  V30 8998 C 845.241 -1.54235 -1.31679 0
M  V30 8999 C 845.574 -0.203782 -1.93128 0
M  V30 9000 O 844.849 0.787536 -1.77843 0
M  V30 9001 C 845.132 -2.66003 -2.42723 0
M  V30 9002 C 844.985 -4.09475 -1.86145 0
M  V30 9003 C 846.304 -2.73685 -3.44652 0
M  V30 9004 H 843.423 -0.561466 -0.477415 0
M  V30 9005 H 846.065 -1.79459 -0.624067 0
M  V30 9006 H 844.215 -2.44627 -3.01811 0
M  V30 9007 H 845.887 -4.42213 -1.31321 0
M  V30 9008 H 844.13 -4.17774 -1.16823 0
M  V30 9009 H 844.801 -4.83451 -2.66418 0
M  V30 9010 H 847.277 -2.92968 -2.95481 0
M  V30 9011 H 846.153 -3.53665 -4.19777 0
M  V30 9012 H 846.414 -1.80726 -4.03473 0
M  V30 9013 N 845.473 0.80434 -1.35529 0
M  V30 9014 C 846.75 1.5486 -1.1949 0
M  V30 9015 C 847.13 2.09897 0.22506 0
M  V30 9016 O 846.478 1.92643 1.22886 0
M  V30 9017 C 846.688 2.65535 -2.26478 0
M  V30 9018 C 848.036 3.33814 -2.62399 0
M  V30 9019 O 849.06 2.75807 -2.25409 0
M  V30 9020 O 847.919 4.38612 -3.26009 0
M  V30 9021 H 845.013 0.68433 -0.464351 0
M  V30 9022 H 847.559 0.844107 -1.47217 0
M  V30 9023 H 846.331 2.22754 -3.21709 0
M  V30 9024 H 845.954 3.43617 -2.00033 0
M  V30 9025 N 846.951 1.19563 1.02676 0
M  V30 9026 C 847.883 0.893054 2.11086 0
M  V30 9027 C 848.896 -0.115101 1.62393 0
M  V30 9028 O 850.085 0.11459 1.78132 0
M  V30 9029 C 847.185 0.315533 3.37428 0
M  V30 9030 C 846.358 1.37276 4.153 0
M  V30 9031 C 845.417 0.808398 5.19953 0
M  V30 9032 O 844.443 1.48661 5.49444 0
M  V30 9033 N 845.645 -0.387253 5.79207 0
M  V30 9034 H 848.41 1.82622 2.37633 0
M  V30 9035 H 845.971 1.09792 1.18984 0
M  V30 9036 H 847.963 -0.0759166 4.04629 0
M  V30 9037 H 846.533 -0.521961 3.08211 0
M  V30 9038 H 845.753 1.93897 3.43217 0
M  V30 9039 H 847.041 2.08509 4.64114 0
M  V30 9040 H 846.439 -0.955725 5.57568 0
M  V30 9041 H 844.996 -0.720457 6.47806 0
M  V30 9042 N 848.429 -1.21819 0.999893 0
M  V30 9043 C 849.654 -1.95298 0.698094 0
M  V30 9044 C 850.079 -1.73273 -0.731982 0
M  V30 9045 O 849.437 -1.01634 -1.50134 0
M  V30 9046 C 849.485 -3.45922 1.01834 0
M  V30 9047 O 848.589 -4.12223 0.120801 0
M  V30 9048 H 847.93 -0.610729 0.260588 0
M  V30 9049 H 850.46 -1.5472 1.33876 0
M  V30 9050 H 850.47 -3.96471 0.963074 0
M  V30 9051 H 849.145 -3.61278 2.06037 0
M  V30 9052 H 847.722 -3.72177 0.232153 0
M  V30 9053 N 849.908 -0.773975 -1.37286 0
M  V30 9054 C 850.838 -0.175782 -2.32837 0
M  V30 9055 C 851.819 0.680603 -1.5589 0
M  V30 9056 O 853.004 0.617607 -1.84117 0
M  V30 9057 C 850.134 0.702388 -3.40123 0
M  V30 9058 C 849.088 -0.0528687 -4.27967 0
M  V30 9059 C 848.414 0.944891 -5.26285 0
M  V30 9060 C 849.714 -1.23316 -5.07534 0
M  V30 9061 H 851.408 -0.974016 -2.83114 0
M  V30 9062 H 848.954 -0.469826 -1.3612 0
M  V30 9063 H 850.907 1.13069 -4.05947 0
M  V30 9064 H 849.631 1.53316 -2.88378 0
M  V30 9065 H 848.29 -0.461978 -3.63678 0
M  V30 9066 H 847.938 1.77028 -4.70819 0
M  V30 9067 H 847.638 0.444079 -5.8592 0
M  V30 9068 H 849.162 1.37209 -5.94984 0
M  V30 9069 H 850.576 -0.881395 -5.66484 0
M  V30 9070 H 848.973 -1.66621 -5.76504 0
M  V30 9071 H 850.043 -2.03617 -4.40077 0
M  V30 9072 N 851.386 1.48609 -0.524698 0
M  V30 9073 C 852.635 2.01696 0.0132937 0
M  V30 9074 C 852.948 1.40751 1.35825 0
M  V30 9075 O 854.154 1.85304 1.9843 0
M  V30 9076 C 852.61 3.59824 0.0741012 0
M  V30 9077 C 852.218 4.2975 -1.26564 0
M  V30 9078 C 853.962 4.20774 0.5612 0
M  V30 9079 C 851.869 5.79798 -1.16571 0
M  V30 9080 H 850.799 0.753949 0.00873931 0
M  V30 9081 H 853.45 1.70922 -0.667684 0
M  V30 9082 H 851.832 3.87416 0.820043 0
M  V30 9083 H 853.006 4.13836 -2.02674 0
M  V30 9084 H 851.321 3.80649 -1.68806 0
M  V30 9085 H 853.918 5.30687 0.653853 0
M  V30 9086 H 854.261 3.85734 1.56573 0
M  V30 9087 H 854.794 3.97591 -0.128901 0
M  V30 9088 H 851.533 6.19403 -2.14523 0
M  V30 9089 H 851.053 5.9814 -0.445894 0
M  V30 9090 H 852.732 6.41337 -0.854186 0
M  V30 9091 N 852.864 0.259585 1.55447 0
M  V30 9092 C 853.811 -0.634578 2.21905 0
M  V30 9093 C 854.781 -1.16168 1.18719 0
M  V30 9094 O 855.966 -1.21383 1.4721 0
M  V30 9095 C 853.106 -1.82005 2.93203 0
M  V30 9096 C 852.219 -1.32828 4.11073 0
M  V30 9097 C 851.354 -2.47431 4.70055 0
M  V30 9098 C 850.393 -1.95179 5.80148 0
M  V30 9099 N 849.53 -3.03197 6.33258 0
M  V30 9100 H 854.37 -0.0611886 2.97937 0
M  V30 9101 H 851.907 -0.0184378 1.47088 0
M  V30 9102 H 853.865 -2.51664 3.32748 0
M  V30 9103 H 852.495 -2.36571 2.19622 0
M  V30 9104 H 851.547 -0.525301 3.76756 0
M  V30 9105 H 852.859 -0.905435 4.90513 0
M  V30 9106 H 852.013 -3.25111 5.12238 0
M  V30 9107 H 850.752 -2.93023 3.89857 0
M  V30 9108 H 849.757 -1.15974 5.37429 0
M  V30 9109 H 850.982 -1.50541 6.62204 0
M  V30 9110 H 848.928 -3.48199 5.55961 0
M  V30 9111 H 848.845 -2.65282 7.07928 0
M  V30 9112 H 850.113 -3.80898 6.80101 0
M  V30 9113 N 854.342 -1.57594 -0.0133615 0
M  V30 9114 C 855.572 -1.93969 -0.711295 0
M  V30 9115 C 855.98 -0.859084 -1.68572 0
M  V30 9116 O 855.323 0.171842 -1.82894 0
M  V30 9117 C 855.385 -3.2625 -1.51001 0
M  V30 9118 C 855.049 -4.51628 -0.698645 0
M  V30 9119 C 856.046 -5.19899 0.00791185 0
M  V30 9120 C 853.731 -4.98095 -0.648553 0
M  V30 9121 C 855.725 -6.32928 0.753691 0
M  V30 9122 C 853.412 -6.11017 0.10096 0
M  V30 9123 C 854.41 -6.78289 0.800828 0
M  V30 9124 O 854.098 -7.89048 1.53814 0
M  V30 9125 H 853.83 -0.6445 -0.203951 0
M  V30 9126 H 856.384 -2.05378 0.0298267 0
M  V30 9127 H 854.614 -3.11211 -2.29531 0
M  V30 9128 H 856.303 -3.47835 -2.09202 0
M  V30 9129 H 857.069 -4.84995 -0.0217192 0
M  V30 9130 H 852.948 -4.45568 -1.18282 0
M  V30 9131 H 856.492 -6.85371 1.3005 0
M  V30 9132 H 852.389 -6.45364 0.132459 0
M  V30 9133 H 853.157 -8.05492 1.45345 0
M  V30 9134 N 855.82 0.285905 -1.54985 0
M  V30 9135 C 857.097 1.0397 -1.65679 0
M  V30 9136 C 857.477 2.04725 -0.514851 0
M  V30 9137 O 856.825 2.23257 0.486663 0
M  V30 9138 C 857.035 1.70807 -3.04345 0
M  V30 9139 C 858.383 2.22447 -3.61666 0
M  V30 9140 O 859.407 1.80815 -3.06895 0
M  V30 9141 O 858.266 2.98773 -4.57599 0
M  V30 9142 H 855.36 0.481473 -0.672394 0
M  V30 9143 H 857.906 0.282789 -1.67327 0
M  V30 9144 H 856.678 0.977271 -3.789 0
M  V30 9145 H 856.301 2.53217 -3.06541 0
M  V30 9146 N 857.298 1.47698 0.54982 0
M  V30 9147 C 858.208 1.63386 1.68351 0
M  V30 9148 C 859.224 0.516583 1.66155 0
M  V30 9149 O 860.4 0.785088 1.85468 0
M  V30 9150 C 857.465 1.6513 3.04849 0
M  V30 9151 C 856.526 2.88338 3.18056 0
M  V30 9152 C 855.759 2.8999 4.48042 0
M  V30 9153 O 855.982 2.00633 5.3395 0
M  V30 9154 O 854.916 3.81938 4.65196 0
M  V30 9155 H 858.742 2.59329 1.58057 0
M  V30 9156 H 856.327 1.30869 0.72067 0
M  V30 9157 H 858.209 1.68913 3.86065 0
M  V30 9158 H 856.884 0.723555 3.1551 0
M  V30 9159 H 855.791 2.90097 2.36209 0
M  V30 9160 H 857.124 3.80431 3.12302 0
M  V30 9161 N 858.776 -0.797141 1.35954 0
M  V30 9162 C 859.724 -1.93084 1.29697 0
M  V30 9163 C 860.718 -1.68329 0.190152 0
M  V30 9164 O 861.924 -1.7643 0.3567 0
M  V30 9165 H 858.299 -0.634531 0.403577 0
M  V30 9166 H 860.27 -1.95481 2.25455 0
M  V30 9167 C 859.019 -3.29996 1.09536 0
M  V30 9168 H 858.342 -3.49607 1.93946 0
M  V30 9169 H 859.782 -4.09696 1.09202 0
M  V30 9170 C 858.241 -3.36304 -0.200381 0
M  V30 9171 O 858.771 -3.83579 -1.19291 0
M  V30 9172 N 856.977 -2.89587 -0.242406 0
M  V30 9173 H 856.524 -2.51307 0.565897 0
M  V30 9174 H 856.482 -2.94189 -1.10906 0
M  V30 9175 N 860.254 -1.20106 -1.0204 0
M  V30 9176 C 861.502 -1.0069 -1.75231 0
M  V30 9177 C 861.823 0.462491 -1.89436 0
M  V30 9178 O 861.093 1.33455 -1.4341 0
M  V30 9179 H 859.673 -0.369576 -0.649171 0
M  V30 9180 H 862.335 -1.51149 -1.23044 0
M  V30 9181 H 861.431 -1.46205 -2.75736 0
M  V30 9182 N 861.732 1.21287 -1.00634 0
M  V30 9183 C 862.68 2.25733 -0.561026 0
M  V30 9184 C 863.674 1.64728 0.395095 0
M  V30 9185 O 864.88 1.78022 0.266141 0
M  V30 9186 H 861.255 0.734104 -0.163081 0
M  V30 9187 H 863.226 2.60631 -1.45307 0
M  V30 9188 C 861.975 3.47569 0.0952587 0
M  V30 9189 H 861.298 3.94782 -0.631427 0
M  V30 9190 H 862.738 4.22382 0.370105 0
M  V30 9191 C 861.197 3.09326 1.33488 0
M  V30 9192 O 861.727 3.19933 2.42912 0
M  V30 9193 N 859.933 2.63976 1.21512 0
M  V30 9194 H 859.48 2.55545 0.324741 0
M  V30 9195 H 859.438 2.38757 2.04555 0
M  V30 9196 N 863.21 0.781244 1.36873 0
M  V30 9197 C 864.621 0.414093 1.8205 0
M  V30 9198 C 864.972 -1.06098 1.65039 0
M  V30 9199 O 864.097 -1.82251 1.16677 0
M  V30 9200 C 864.692 0.744837 3.30511 0
M  V30 9201 C 863.251 0.430621 3.73929 0
M  V30 9202 C 862.398 0.983746 2.59264 0
M  V30 9203 H 865.349 0.975091 1.2521 0
M  V30 9204 H 865.37 0.032936 3.80486 0
M  V30 9205 H 864.882 1.81847 3.42861 0
M  V30 9206 H 862.983 -0.635308 3.67144 0
M  V30 9207 H 863.096 0.945514 4.69677 0
M  V30 9208 H 861.46 0.407433 2.5142 0
M  V30 9209 H 862.243 2.06297 2.74402 0
M  V30 9210 N 864.689 -1.48329 0.532571 0
M  V30 9211 C 865.935 -2.03399 0.00755104 0
M  V30 9212 C 866.29 -1.40213 -1.3175 0
M  V30 9213 O 865.583 -0.539633 -1.83844 0
M  V30 9214 C 865.777 -3.57 -0.168943 0
M  V30 9215 C 865.606 -4.35077 1.13745 0
M  V30 9216 C 864.376 -4.75915 1.69803 0
M  V30 9217 C 866.574 -4.71734 2.04869 0
M  V30 9218 N 864.556 -5.38538 2.94703 0
M  V30 9219 C 865.927 -5.34403 3.14346 0
M  V30 9220 C 867.982 -4.53665 2.05164 0
M  V30 9221 C 866.685 -5.80912 4.24186 0
M  V30 9222 C 868.711 -5.01157 3.13999 0
M  V30 9223 C 868.073 -5.63853 4.22195 0
M  V30 9224 H 864.172 -0.780743 0.0443253 0
M  V30 9225 H 866.756 -1.81119 0.714423 0
M  V30 9226 H 864.927 -3.79099 -0.844903 0
M  V30 9227 H 866.659 -3.98708 -0.693804 0
M  V30 9228 H 863.414 -4.57103 1.23909 0
M  V30 9229 H 863.838 -5.74413 3.583 0
M  V30 9230 H 868.48 -4.04571 1.22808 0
M  V30 9231 H 866.198 -6.2901 5.07318 0
M  V30 9232 H 869.784 -4.88965 3.15285 0
M  V30 9233 H 868.664 -5.99935 5.05023 0
M  V30 9234 N 866.167 -0.267825 -1.55308 0
M  V30 9235 C 867.392 0.357487 -2.04296 0
M  V30 9236 C 867.817 1.49222 -1.14518 0
M  V30 9237 O 867.175 1.80741 -0.142292 0
M  V30 9238 C 867.223 0.822899 -3.51085 0
M  V30 9239 O 866.327 1.93078 -3.6441 0
M  V30 9240 H 865.668 0.075025 -0.659748 0
M  V30 9241 H 868.198 -0.399996 -2.00652 0
M  V30 9242 H 868.208 1.12059 -3.92309 0
M  V30 9243 H 866.883 -0.0073562 -4.15899 0
M  V30 9244 H 865.46 1.63618 -3.35087 0
M  V30 9245 N 867.645 1.57599 0.00500368 0
M  V30 9246 C 868.608 2.07058 0.982832 0
M  V30 9247 C 869.608 0.979045 1.27559 0
M  V30 9248 O 870.798 1.24187 1.22161 0
M  V30 9249 C 867.93 2.50782 2.30914 0
M  V30 9250 H 869.123 2.94718 0.555119 0
M  V30 9251 H 866.676 1.54249 0.25237 0
M  V30 9252 H 867.411 1.66351 2.78385 0
M  V30 9253 H 867.196 3.30495 2.10987 0
M  V30 9254 H 868.686 2.89391 3.0107 0
M  V30 9255 N 869.123 -0.277682 1.55134 0
M  V30 9256 C 870.353 -1.02677 1.79279 0
M  V30 9257 C 870.761 -1.80599 0.563962 0
M  V30 9258 O 870.104 -1.77416 -0.476378 0
M  V30 9259 C 870.166 -2.03617 2.96277 0
M  V30 9260 C 869.83 -1.44676 4.33495 0
M  V30 9261 C 870.827 -0.864811 5.12657 0
M  V30 9262 C 868.512 -1.47537 4.80144 0
M  V30 9263 C 870.506 -0.319322 6.366 0
M  V30 9264 C 868.193 -0.926016 6.04043 0
M  V30 9265 C 869.191 -0.348988 6.82108 0
M  V30 9266 O 868.879 0.191964 8.03671 0
M  V30 9267 H 868.611 -0.309232 0.601125 0
M  V30 9268 H 871.165 -0.315308 2.02965 0
M  V30 9269 H 869.395 -2.78509 2.68272 0
M  V30 9270 H 871.084 -2.64616 3.07788 0
M  V30 9271 H 871.85 -0.835438 4.7775 0
M  V30 9272 H 867.729 -1.91389 4.19394 0
M  V30 9273 H 871.273 0.131709 6.97476 0
M  V30 9274 H 867.17 -0.952613 6.38432 0
M  V30 9275 H 867.938 0.0808779 8.1846 0
M  V30 9276 N 870.601 -1.47988 -0.541979 0
M  V30 9277 C 871.849 -1.55086 -1.29587 0
M  V30 9278 C 872.17 -0.221304 -1.9374 0
M  V30 9279 O 871.44 0.756128 -1.80719 0
M  V30 9280 H 870.02 -0.571307 -0.481266 0
M  V30 9281 H 872.682 -1.8438 -0.631675 0
M  V30 9282 H 871.778 -2.32556 -2.08144 0
M  V30 9283 N 872.079 0.78992 -1.36375 0
M  V30 9284 C 873.327 1.54472 -1.30319 0
M  V30 9285 C 873.648 1.94647 0.117338 0
M  V30 9286 O 872.918 1.64906 1.05748 0
M  V30 9287 H 871.498 0.572879 -0.479394 0
M  V30 9288 H 874.16 0.941245 -1.70665 0
M  V30 9289 H 873.256 2.45252 -1.93024 0
M  V30 9290 N 873.557 1.20646 1.01402 0
M  V30 9291 C 874.834 0.927176 1.72229 0
M  V30 9292 C 875.214 -0.563382 2.03443 0
M  V30 9293 O 874.562 -1.52576 1.70096 0
M  V30 9294 C 874.772 1.80285 2.98828 0
M  V30 9295 C 876.12 2.04624 3.72041 0
M  V30 9296 O 877.144 1.77559 3.0879 0
M  V30 9297 O 876.003 2.50347 4.85787 0
M  V30 9298 H 873.097 0.346891 0.75073 0
M  V30 9299 H 875.643 1.31532 1.07227 0
M  V30 9300 H 874.415 2.81204 2.72102 0
M  V30 9301 H 874.038 1.41495 3.71571 0
M  V30 9302 N 875.035 -1.20752 1.01276 0
M  V30 9303 C 876.282 -1.90021 0.699887 0
M  V30 9304 C 876.61 -1.78604 -0.770113 0
M  V30 9305 O 875.865 -1.16195 -1.57471 0
M  V30 9306 C 876.164 -3.40808 1.07633 0
M  V30 9307 C 875.83 -3.72423 2.54189 0
M  V30 9308 C 874.492 -3.80762 2.94234 0
M  V30 9309 C 876.844 -3.87025 3.49086 0
M  V30 9310 C 874.172 -4.01158 4.28123 0
M  V30 9311 C 876.524 -4.0893 4.82658 0
M  V30 9312 C 875.188 -4.15498 5.22415 0
M  V30 9313 H 874.458 -0.695335 0.256107 0
M  V30 9314 H 877.105 -1.43096 1.27263 0
M  V30 9315 H 875.41 -3.89521 0.421944 0
M  V30 9316 H 877.107 -3.92693 0.811997 0
M  V30 9317 H 873.697 -3.66529 2.22158 0
M  V30 9318 H 877.881 -3.79942 3.19309 0
M  V30 9319 H 873.137 -4.04476 4.58486 0
M  V30 9320 H 877.311 -4.19172 5.56119 0
M  V30 9321 H 874.938 -4.31055 6.26176 0
M  V30 9322 N 876.513 -0.788492 -1.36457 0
M  V30 9323 C 877.761 -0.359749 -1.98872 0
M  V30 9324 C 878.082 1.07197 -1.62892 0
M  V30 9325 O 877.352 1.73875 -0.902463 0
M  V30 9326 H 875.932 -0.130029 -0.735596 0
M  V30 9327 H 878.594 -1.01033 -1.66668 0
M  V30 9328 H 877.69 -0.450835 -3.08827 0
M  V30 9329 N 877.991 1.48044 -0.54043 0
M  V30 9330 C 879.268 1.95523 0.0547302 0
M  V30 9331 C 879.648 1.48284 1.5025 0
M  V30 9332 O 878.996 0.714037 2.17057 0
M  V30 9333 C 879.206 3.48923 -0.0733393 0
M  V30 9334 C 880.554 4.24523 0.0806026 0
M  V30 9335 O 881.578 3.562 -5.58687e-05 0
M  V30 9336 O 880.437 5.45922 0.251216 0
M  V30 9337 H 877.531 0.823728 0.073493 0
M  V30 9338 H 880.077 1.5852 -0.605768 0
M  V30 9339 H 878.849 3.76059 -1.08144 0
M  V30 9340 H 878.472 3.92648 0.625536 0
M  V30 9341 N 879.47 0.276058 1.55163 0
M  V30 9342 C 880.698 -0.343772 2.04024 0
M  V30 9343 C 881.113 -1.49397 1.15438 0
M  V30 9344 O 880.47 -1.81662 0.174692 0
M  V30 9345 C 880.521 -0.823885 3.51986 0
M  V30 9346 O 880.242 0.280507 4.37201 0
M  V30 9347 C 881.743 -1.51143 4.16738 0
M  V30 9348 H 878.963 -0.07828 0.666418 0
M  V30 9349 H 881.507 0.408427 2.0038 0
M  V30 9350 H 879.662 -1.52617 3.56071 0
M  V30 9351 H 880.076 -0.0887831 5.24425 0
M  V30 9352 H 881.55 -1.79878 5.2187 0
M  V30 9353 H 882.027 -2.44327 3.64967 0
M  V30 9354 H 882.633 -0.852975 4.16659 0
M  V30 9355 N 880.948 -1.576 0.00335426 0
M  V30 9356 C 882.359 -1.7875 -0.539008 0
M  V30 9357 C 882.71 -0.911097 -1.73763 0
M  V30 9358 O 881.835 -0.114476 -2.16097 0
M  V30 9359 C 882.43 -3.24177 -0.984611 0
M  V30 9360 C 880.989 -3.46412 -1.47226 0
M  V30 9361 C 880.136 -2.74024 -0.425004 0
M  V30 9362 H 883.087 -1.57032 0.229511 0
M  V30 9363 H 883.108 -3.32474 -1.85044 0
M  V30 9364 H 882.62 -3.87938 -0.112035 0
M  V30 9365 H 880.721 -2.8787 -2.36562 0
M  V30 9366 H 880.834 -4.55098 -1.49741 0
M  V30 9367 H 879.198 -2.38741 -0.887394 0
M  V30 9368 H 879.981 -3.40486 0.438662 0
M  V30 9369 N 882.426 0.269451 -1.5528 0
M  V30 9370 C 883.374 1.35303 -1.89198 0
M  V30 9371 C 884.368 1.50956 -0.768671 0
M  V30 9372 O 885.574 1.52699 -0.953054 0
M  V30 9373 H 881.949 0.452591 -0.600554 0
M  V30 9374 H 883.92 1.03949 -2.79709 0
M  V30 9375 C 882.669 2.70585 -2.18356 0
M  V30 9376 H 881.992 2.59332 -3.04281 0
M  V30 9377 H 883.432 3.45335 -2.46007 0
M  V30 9378 C 881.891 3.21954 -0.992327 0
M  V30 9379 O 882.421 4.01048 -0.228769 0
M  V30 9380 N 880.627 2.79682 -0.789062 0
M  V30 9381 H 880.174 2.15475 -1.41167 0
M  V30 9382 H 880.132 3.14399 0.00634776 0
M  V30 9383 N 883.904 1.48273 0.534124 0
M  V30 9384 C 885.181 1.46567 1.29528 0
M  V30 9385 C 885.561 0.17509 2.10373 0
M  V30 9386 O 884.909 -0.843228 2.12372 0
M  V30 9387 C 885.119 2.72519 2.18023 0
M  V30 9388 C 886.467 3.2068 2.78298 0
M  V30 9389 O 887.491 2.73408 2.28313 0
M  V30 9390 O 886.35 4.02924 3.69208 0
M  V30 9391 H 883.444 0.585151 0.584403 0
M  V30 9392 H 885.99 1.60502 0.551119 0
M  V30 9393 H 884.762 3.57965 1.5804 0
M  V30 9394 H 884.385 2.61285 2.99693 0
M  V30 9395 N 885.382 -0.782676 1.36792 0
M  V30 9396 C 886.798 -1.08169 1.17352 0
M  V30 9397 C 886.998 -2.015 0.0022037 0
M  V30 9398 O 886.054 -2.43692 -0.661093 0
M  V30 9399 C 887.367 -1.68969 2.48737 0
M  V30 9400 C 888.915 -1.81278 2.55161 0
M  V30 9401 C 889.39 -2.45492 3.86649 0
M  V30 9402 N 890.881 -2.52954 3.88032 0
M  V30 9403 C 891.616 -3.03465 4.86515 0
M  V30 9404 N 891.112 -3.54232 5.95392 0
M  V30 9405 N 892.905 -3.02239 4.73928 0
M  V30 9406 H 885.056 -0.162757 2.11775 0
M  V30 9407 H 887.319 -0.134823 0.938364 0
M  V30 9408 H 887.025 -1.07859 3.34753 0
M  V30 9409 H 886.899 -2.68397 2.65034 0
M  V30 9410 H 889.286 -2.41524 1.69559 0
M  V30 9411 H 889.367 -0.806367 2.42758 0
M  V30 9412 H 889.011 -1.85889 4.7266 0
M  V30 9413 H 888.941 -3.46718 3.96351 0
M  V30 9414 H 891.432 -2.17014 3.09376 0
M  V30 9415 H 891.745 -3.91145 6.66503 0
M  V30 9416 H 890.09 -3.52366 5.99052 0
M  V30 9417 H 893.281 -2.61871 3.87996 0
M  V30 9418 H 893.454 -3.41295 5.50837 0
M  V30 9419 N 886.86 -1.21182 -1.00761 0
M  V30 9420 C 887.792 -0.926523 -2.09638 0
M  V30 9421 C 888.805 0.0892511 -1.62555 0
M  V30 9422 O 889.994 -0.142915 -1.77927 0
M  V30 9423 C 887.094 -0.369175 -3.36883 0
M  V30 9424 C 886.267 -1.43866 -4.13063 0
M  V30 9425 C 885.326 -0.891015 -5.18601 0
M  V30 9426 O 884.352 -1.57384 -5.47009 0
M  V30 9427 N 885.554 0.295057 -5.7975 0
M  V30 9428 H 888.319 -1.8638 -2.34697 0
M  V30 9429 H 885.88 -1.11671 -1.17223 0
M  V30 9430 H 887.872 0.011534 -4.04698 0
M  V30 9431 H 886.442 0.472861 -3.09003 0
M  V30 9432 H 885.662 -1.99332 -3.40089 0
M  V30 9433 H 886.95 -2.15866 -4.60738 0
M  V30 9434 H 886.348 0.8669 -5.59018 0
M  V30 9435 H 884.905 0.617306 -6.4887 0
M  V30 9436 N 888.338 1.20213 -1.01915 0
M  V30 9437 C 889.585 1.89647 -0.709955 0
M  V30 9438 C 889.913 1.7901 0.760631 0
M  V30 9439 O 889.168 1.17028 1.56853 0
M  V30 9440 C 889.467 3.40232 -1.09438 0
M  V30 9441 C 889.133 3.7107 -2.5616 0
M  V30 9442 C 887.795 3.79196 -2.96249 0
M  V30 9443 C 890.147 3.85169 -3.51133 0
M  V30 9444 C 887.475 3.98882 -4.30244 0
M  V30 9445 C 889.827 4.06365 -4.8482 0
M  V30 9446 C 888.491 4.12722 -5.24611 0
M  V30 9447 H 887.761 0.693967 -0.259791 0
M  V30 9448 H 890.408 1.42419 -1.2802 0
M  V30 9449 H 888.713 3.89292 -0.442596 0
M  V30 9450 H 890.41 3.92257 -0.832811 0
M  V30 9451 H 887 3.65346 -2.24099 0
M  V30 9452 H 891.184 3.78243 -3.21319 0
M  V30 9453 H 886.44 4.02039 -4.60624 0
M  V30 9454 H 890.614 4.16216 -5.58334 0
M  V30 9455 H 888.241 4.27728 -6.28453 0
M  V30 9456 N 889.816 0.795718 1.36037 0
M  V30 9457 C 891.056 0.376514 2.00902 0
M  V30 9458 C 891.42 -1.03405 1.61776 0
M  V30 9459 O 892.621 -1.55468 2.19279 0
M  V30 9460 C 890.892 0.542086 3.53265 0
M  V30 9461 S 892.451 0.211694 4.38289 0
M  V30 9462 H 889.269 0.143527 0.696363 0
M  V30 9463 H 891.871 1.03559 1.65819 0
M  V30 9464 H 890.575 1.56888 3.79229 0
M  V30 9465 H 890.106 -0.132698 3.93176 0
M  V30 9466 H 892.121 -0.98452 4.86335 0
M  V30 9467 N 891.294 -1.47756 0.548274 0
M  V30 9468 C 892.227 -2.26804 -0.252059 0
M  V30 9469 C 893.205 -1.3349 -0.928389 0
M  V30 9470 O 894.389 -1.6286 -0.949156 0
M  V30 9471 C 891.516 -3.10266 -1.35841 0
M  V30 9472 C 890.562 -4.1909 -0.791578 0
M  V30 9473 S 891.395 -5.34323 0.354878 0
M  V30 9474 C 892.551 -6.21348 -0.753511 0
M  V30 9475 H 892.784 -2.94336 0.418744 0
M  V30 9476 H 890.317 -1.50735 0.334413 0
M  V30 9477 H 892.275 -3.58925 -1.99207 0
M  V30 9478 H 890.936 -2.42112 -2.00101 0
M  V30 9479 H 890.129 -4.77183 -1.62212 0
M  V30 9480 H 889.731 -3.73266 -0.234274 0
M  V30 9481 H 892.023 -6.57156 -1.6478 0
M  V30 9482 H 892.966 -7.07788 -0.210141 0
M  V30 9483 H 893.374 -5.54797 -1.04216 0
M  V30 9484 N 892.772 -0.284283 -1.55015 0
M  V30 9485 C 893.72 0.615091 -2.2432 0
M  V30 9486 C 894.714 1.15051 -1.24337 0
M  V30 9487 O 895.92 1.10308 -1.4224 0
M  V30 9488 H 892.295 0.216927 -0.720033 0
M  V30 9489 H 894.266 0.00783216 -2.98399 0
M  V30 9490 C 893.015 1.78355 -2.98471 0
M  V30 9491 H 892.338 1.38076 -3.752 0
M  V30 9492 H 893.778 2.38927 -3.50271 0
M  V30 9493 C 892.237 2.67757 -2.04469 0
M  V30 9494 O 892.767 3.6838 -1.60185 0
M  V30 9495 N 890.973 2.35125 -1.70776 0
M  V30 9496 H 890.52 1.53346 -2.06985 0
M  V30 9497 H 890.478 2.95212 -1.08153 0
M  V30 9498 N 894.251 1.57596 -0.0117121 0
M  V30 9499 C 895.499 1.90694 0.669342 0
M  V30 9500 C 895.82 0.886999 1.73659 0
M  V30 9501 O 895.09 -0.0739779 1.9576 0
M  V30 9502 H 893.67 0.703846 0.250219 0
M  V30 9503 H 896.332 1.94821 -0.0554057 0
M  V30 9504 H 895.428 2.90802 1.13316 0
M  V30 9505 N 895.729 -0.261212 1.5542 0
M  V30 9506 C 896.659 -1.32712 1.92119 0
M  V30 9507 C 897.64 -1.50934 0.784406 0
M  V30 9508 O 898.825 -1.63781 1.04352 0
M  V30 9509 C 895.955 -2.68453 2.20341 0
M  V30 9510 C 894.909 -2.64947 3.36136 0
M  V30 9511 C 894.235 -4.04349 3.49865 0
M  V30 9512 C 895.535 -2.23182 4.72215 0
M  V30 9513 H 897.229 -1.02245 2.81401 0
M  V30 9514 H 894.775 -0.490406 1.35392 0
M  V30 9515 H 896.728 -3.43144 2.44603 0
M  V30 9516 H 895.452 -3.00527 1.27871 0
M  V30 9517 H 894.111 -1.92714 3.11861 0
M  V30 9518 H 893.759 -4.33665 2.5484 0
M  V30 9519 H 893.459 -4.02895 4.27726 0
M  V30 9520 H 894.983 -4.80761 3.76432 0
M  V30 9521 H 896.397 -2.87599 4.95943 0
M  V30 9522 H 894.794 -2.32867 5.53076 0
M  V30 9523 H 895.864 -1.18327 4.70241 0
M  V30 9524 N 897.207 -1.48554 -0.526253 0
M  V30 9525 C 898.453 -1.56994 -1.28378 0
M  V30 9526 C 898.786 -0.244701 -1.92652 0
M  V30 9527 O 898.061 0.749636 -1.79473 0
M  V30 9528 C 898.344 -2.71092 -2.37026 0
M  V30 9529 C 898.197 -4.13331 -1.77418 0
M  V30 9530 C 899.516 -2.80934 -3.38769 0
M  V30 9531 H 896.635 -0.571466 -0.465398 0
M  V30 9532 H 899.277 -1.80742 -0.585861 0
M  V30 9533 H 897.427 -2.50973 -2.96555 0
M  V30 9534 H 899.099 -4.44899 -1.21912 0
M  V30 9535 H 897.342 -4.20158 -1.07936 0
M  V30 9536 H 898.013 -4.88994 -2.56104 0
M  V30 9537 H 900.489 -2.9917 -2.892 0
M  V30 9538 H 899.365 -3.62489 -4.12181 0
M  V30 9539 H 899.626 -1.89244 -3.99549 0
M  V30 9540 N 898.685 0.775411 -1.37205 0
M  V30 9541 C 899.932 1.53384 -1.32211 0
M  V30 9542 C 900.26 1.9427 0.0944958 0
M  V30 9543 O 899.515 1.64059 1.06692 0
M  V30 9544 C 899.814 2.81377 -2.20367 0
M  V30 9545 C 899.48 2.59561 -3.68699 0
M  V30 9546 C 898.142 2.53319 -4.09124 0
M  V30 9547 C 900.494 2.39939 -4.62686 0
M  V30 9548 C 897.822 2.25442 -5.41658 0
M  V30 9549 C 900.174 2.13586 -5.95453 0
M  V30 9550 C 898.838 2.05786 -6.34987 0
M  V30 9551 H 898.108 0.561271 -0.483793 0
M  V30 9552 H 900.755 0.893466 -1.6938 0
M  V30 9553 H 899.06 3.49954 -1.76181 0
M  V30 9554 H 900.757 3.39238 -2.13819 0
M  V30 9555 H 897.347 2.6528 -3.36637 0
M  V30 9556 H 901.531 2.43753 -4.32317 0
M  V30 9557 H 896.787 2.17896 -5.71254 0
M  V30 9558 H 900.961 1.97401 -6.67837 0
M  V30 9559 H 898.588 1.83948 -7.37609 0
M  V30 9560 N 900.163 1.21714 1.00117 0
M  V30 9561 C 901.126 0.981338 2.07129 0
M  V30 9562 C 902.126 -0.0491116 1.60725 0
M  V30 9563 O 903.316 0.188555 1.73177 0
M  V30 9564 C 900.448 0.480608 3.37495 0
M  V30 9565 H 901.641 1.93075 2.29482 0
M  V30 9566 H 899.194 1.03467 1.17151 0
M  V30 9567 H 899.929 -0.473552 3.20824 0
M  V30 9568 H 899.714 1.22393 3.72508 0
M  V30 9569 H 901.204 0.33561 4.16249 0
M  V30 9570 N 901.641 -1.19671 1.02551 0
M  V30 9571 C 902.918 -1.85014 0.634771 0
M  V30 9572 C 903.298 -1.91574 -0.886706 0
M  V30 9573 O 902.646 -1.43022 -1.78205 0
M  V30 9574 C 902.856 -3.24167 1.29292 0
M  V30 9575 C 904.204 -4.00363 1.41402 0
M  V30 9576 O 905.228 -3.33553 1.24983 0
M  V30 9577 O 904.087 -5.2003 1.6802 0
M  V30 9578 H 901.181 -0.797147 0.220196 0
M  V30 9579 H 903.727 -1.27188 1.12345 0
M  V30 9580 H 902.499 -3.14208 2.33215 0
M  V30 9581 H 902.122 -3.89634 0.791895 0
M  V30 9582 N 903.119 -0.802921 -1.35613 0
M  V30 9583 C 904.535 -0.486214 -1.52014 0
M  V30 9584 C 904.735 0.993219 -1.75321 0
M  V30 9585 O 903.791 1.77835 -1.79251 0
M  V30 9586 C 905.104 -1.32839 -2.69767 0
M  V30 9587 C 906.652 -1.32346 -2.83643 0
M  V30 9588 C 907.127 -2.14967 -4.04417 0
M  V30 9589 N 908.618 -2.12484 -4.11588 0
M  V30 9590 C 909.353 -2.73173 -5.04147 0
M  V30 9591 N 908.849 -3.42774 -6.02061 0
M  V30 9592 N 910.642 -2.62834 -4.96865 0
M  V30 9593 H 902.793 -1.76109 -1.18741 0
M  V30 9594 H 905.056 -0.74936 -0.580658 0
M  V30 9595 H 904.762 -2.37813 -2.5911 0
M  V30 9596 H 904.636 -0.979058 -3.64272 0
M  V30 9597 H 907.023 -0.281586 -2.93753 0
M  V30 9598 H 907.104 -1.71264 -1.90006 0
M  V30 9599 H 906.748 -3.19193 -3.95068 0
M  V30 9600 H 906.678 -1.73411 -4.97228 0
M  V30 9601 H 909.169 -1.61839 -3.41492 0
M  V30 9602 H 909.482 -3.86378 -6.69277 0
M  V30 9603 H 907.827 -3.46878 -6.02246 0
M  V30 9604 H 911.018 -2.08049 -4.19325 0
M  V30 9605 H 911.191 -3.10421 -5.68808 0
M  V30 9606 N 904.597 1.47463 -0.556102 0
M  V30 9607 C 905.825 2.06868 -0.0364585 0
M  V30 9608 C 906.24 1.40893 1.25677 0
M  V30 9609 O 905.597 0.505083 1.75371 0
M  V30 9610 C 905.648 3.61128 0.163984 0
M  V30 9611 O 905.369 4.24629 -1.07803 0
M  V30 9612 C 906.87 4.37397 0.721036 0
M  V30 9613 H 904.09 0.669466 -0.0453399 0
M  V30 9614 H 906.634 1.89482 -0.769198 0
M  V30 9615 H 904.789 3.78031 0.84685 0
M  V30 9616 H 905.203 5.17149 -0.875067 0
M  V30 9617 H 906.677 5.46016 0.810584 0
M  V30 9618 H 907.154 4.03604 1.73206 0
M  V30 9619 H 907.76 4.25236 0.073904 0
M  V30 9620 N 906.075 0.2925 1.54862 0
M  V30 9621 C 907.486 -0.201841 1.85606 0
M  V30 9622 C 907.837 -1.54093 1.21449 0
M  V30 9623 O 906.962 -2.10327 0.509079 0
M  V30 9624 C 907.557 -0.373011 3.3674 0
M  V30 9625 C 906.116 -0.811574 3.67547 0
M  V30 9626 C 905.263 0.0850583 2.7717 0
M  V30 9627 H 908.214 0.513774 1.50153 0
M  V30 9628 H 908.235 -1.20892 3.60785 0
M  V30 9629 H 907.747 0.601751 3.83407 0
M  V30 9630 H 905.848 -1.79719 3.26392 0
M  V30 9631 H 905.961 -0.636853 4.74848 0
M  V30 9632 H 904.325 -0.434224 2.50971 0
M  V30 9633 H 905.108 1.05602 3.26654 0
M  V30 9634 N 907.553 -1.57587 0.0200696 0
M  V30 9635 C 908.503 -2.0616 -0.973751 0
M  V30 9636 C 909.487 -0.960282 -1.29102 0
M  V30 9637 O 910.679 -1.22391 -1.27865 0
M  V30 9638 C 907.808 -2.58487 -2.25919 0
M  V30 9639 C 906.894 -3.75533 -1.97068 0
M  V30 9640 N 907.285 -4.86482 -1.38451 0
M  V30 9641 C 905.583 -3.83847 -2.27107 0
M  V30 9642 C 906.284 -5.67773 -1.26527 0
M  V30 9643 N 905.26 -5.14398 -1.75772 0
M  V30 9644 H 909.062 -2.89346 -0.515365 0
M  V30 9645 H 906.576 -1.61341 -0.185163 0
M  V30 9646 H 908.573 -2.91572 -2.97979 0
M  V30 9647 H 907.233 -1.76728 -2.72392 0
M  V30 9648 H 908.244 -5.06922 -1.06069 0
M  V30 9649 H 904.921 -3.12978 -2.76316 0
M  V30 9650 H 906.311 -6.66966 -0.812785 0
M  V30 9651 N 909.032 0.252966 -1.55557 0
M  V30 9652 C 910.443 0.822503 -1.67606 0
M  V30 9653 C 910.794 1.86265 -0.616411 0
M  V30 9654 O 909.919 2.15082 0.238447 0
M  V30 9655 C 910.514 1.49866 -3.03852 0
M  V30 9656 C 909.073 2.01597 -3.17861 0
M  V30 9657 C 908.22 0.864943 -2.63465 0
M  V30 9658 H 911.171 0.0288958 -1.58674 0
M  V30 9659 H 911.192 2.36646 -2.97958 0
M  V30 9660 H 910.704 0.741378 -3.80953 0
M  V30 9661 H 908.805 2.80224 -2.45571 0
M  V30 9662 H 908.918 2.21752 -4.24692 0
M  V30 9663 H 907.282 1.2638 -2.21134 0
M  V30 9664 H 908.065 0.120847 -3.43087 0
M  V30 9665 N 910.51 1.48831 0.518367 0
M  V30 9666 C 911.473 1.63721 1.604 0
M  V30 9667 C 912.473 0.509857 1.52503 0
M  V30 9668 O 913.663 0.775922 1.55965 0
M  V30 9669 C 910.795 1.61831 3.00039 0
M  V30 9670 H 911.988 2.60534 1.48533 0
M  V30 9671 H 909.541 1.37602 0.741309 0
M  V30 9672 H 910.276 0.665387 3.17401 0
M  V30 9673 H 910.061 2.43686 3.0718 0
M  V30 9674 H 911.551 1.75467 3.78947 0
M  V30 9675 N 911.988 -0.768124 1.37614 0
M  V30 9676 C 912.918 -1.89537 1.36374 0
M  V30 9677 C 913.899 -1.68513 0.231803 0
M  V30 9678 O 915.084 -1.89318 0.432705 0
M  V30 9679 C 912.214 -3.26871 1.17358 0
M  V30 9680 C 911.168 -3.62466 2.27602 0
M  V30 9681 C 910.494 -4.9838 1.93705 0
M  V30 9682 C 911.794 -3.68841 3.69802 0
M  V30 9683 H 913.488 -1.90832 2.30702 0
M  V30 9684 H 911.034 -0.91672 1.11051 0
M  V30 9685 H 912.987 -4.05371 1.15119 0
M  V30 9686 H 911.711 -3.26018 0.194865 0
M  V30 9687 H 910.37 -2.86276 2.29002 0
M  V30 9688 H 910.018 -4.94071 0.943539 0
M  V30 9689 H 909.718 -5.23165 2.6753 0
M  V30 9690 H 911.242 -5.79276 1.93059 0
M  V30 9691 H 912.656 -4.37485 3.70513 0
M  V30 9692 H 911.053 -4.05126 4.42711 0
M  V30 9693 H 912.123 -2.69415 4.03167 0
M  V30 9694 N 913.466 -1.22244 -0.994698 0
M  V30 9695 C 914.694 -1.07218 -1.76952 0
M  V30 9696 C 915.109 0.377388 -1.8499 0
M  V30 9697 O 914.466 1.26157 -1.31874 0
M  V30 9698 C 914.517 -1.67496 -3.20355 0
M  V30 9699 O 914.238 -3.06782 -3.12756 0
M  V30 9700 C 915.739 -1.57721 -4.14294 0
M  V30 9701 H 912.959 -0.375966 -0.555779 0
M  V30 9702 H 915.503 -1.61799 -1.25065 0
M  V30 9703 H 913.658 -1.16982 -3.69315 0
M  V30 9704 H 914.072 -3.35784 -4.02926 0
M  V30 9705 H 915.546 -2.04623 -5.12673 0
M  V30 9706 H 916.023 -0.533434 -4.35949 0
M  V30 9707 H 916.629 -2.07531 -3.71229 0
M  V30 9708 N 914.944 1.19125 -1.03184 0
M  V30 9709 C 915.854 2.26112 -0.625329 0
M  V30 9710 C 916.87 1.7056 0.344298 0
M  V30 9711 O 918.046 2.0039 0.20144 0
M  V30 9712 C 915.111 3.46697 0.0145169 0
M  V30 9713 C 914.172 4.17419 -1.00299 0
M  V30 9714 C 913.405 5.32247 -0.393581 0
M  V30 9715 O 913.628 5.64724 0.802659 0
M  V30 9716 O 912.562 5.91428 -1.1179 0
M  V30 9717 H 916.388 2.63131 -1.51643 0
M  V30 9718 H 913.973 1.26036 -0.802197 0
M  V30 9719 H 915.855 4.19762 0.371139 0
M  V30 9720 H 914.53 3.11521 0.879581 0
M  V30 9721 H 913.437 3.4646 -1.41125 0
M  V30 9722 H 914.77 4.56573 -1.83852 0
M  V30 9723 N 916.422 0.810101 1.35185 0
M  V30 9724 C 917.385 0.22852 2.28058 0
M  V30 9725 C 918.385 -0.586168 1.49735 0
M  V30 9726 O 919.575 -0.40414 1.69447 0
M  V30 9727 C 916.707 -0.681041 3.34028 0
M  V30 9728 H 917.9 1.04768 2.81005 0
M  V30 9729 H 915.453 0.58101 1.451 0
M  V30 9730 H 916.188 -1.52375 2.86273 0
M  V30 9731 H 915.973 -0.0985276 3.91976 0
M  V30 9732 H 917.463 -1.08217 4.03335 0
M  V30 9733 N 917.9 -1.47166 0.563914 0
M  V30 9734 C 918.847 -2.30097 -0.180013 0
M  V30 9735 C 919.817 -1.39473 -0.902019 0
M  V30 9736 O 921.002 -1.68432 -0.896396 0
M  V30 9737 C 918.142 -3.23573 -1.19978 0
M  V30 9738 C 917.255 -4.2929 -0.483149 0
M  V30 9739 C 916.39 -5.0991 -1.48879 0
M  V30 9740 C 915.429 -6.07395 -0.757513 0
M  V30 9741 N 914.566 -6.8095 -1.71031 0
M  V30 9742 H 919.406 -2.93189 0.53329 0
M  V30 9743 H 916.943 -1.4451 0.274814 0
M  V30 9744 H 918.901 -3.76196 -1.80368 0
M  V30 9745 H 917.531 -2.6233 -1.88103 0
M  V30 9746 H 916.583 -3.79671 0.235414 0
M  V30 9747 H 917.895 -4.9872 0.0894075 0
M  V30 9748 H 917.049 -5.66717 -2.16603 0
M  V30 9749 H 915.788 -4.40397 -2.09527 0
M  V30 9750 H 914.793 -5.4976 -0.0663841 0
M  V30 9751 H 916.018 -6.78919 -0.156685 0
M  V30 9752 H 913.964 -6.14162 -2.30524 0
M  V30 9753 H 913.881 -7.46574 -1.19007 0
M  V30 9754 H 915.149 -7.42326 -2.37849 0
M  V30 9755 N 919.378 -0.300708 -1.54705 0
M  V30 9756 C 920.328 0.590589 -2.20218 0
M  V30 9757 C 921.312 1.09913 -1.17507 0
M  V30 9758 O 922.504 1.03995 -1.43227 0
M  V30 9759 C 919.633 1.76214 -2.94625 0
M  V30 9760 C 918.719 1.26957 -4.04651 0
M  V30 9761 N 919.11 0.494982 -5.03372 0
M  V30 9762 C 917.408 1.55033 -4.18188 0
M  V30 9763 C 918.109 0.232724 -5.81234 0
M  V30 9764 N 917.085 0.812443 -5.37494 0
M  V30 9765 H 920.887 -0.00876354 -2.93899 0
M  V30 9766 H 918.401 -0.105456 -1.62057 0
M  V30 9767 H 920.398 2.41221 -3.40027 0
M  V30 9768 H 919.058 2.36519 -2.22461 0
M  V30 9769 H 920.069 0.13991 -5.17711 0
M  V30 9770 H 916.746 2.16089 -3.57228 0
M  V30 9771 H 918.136 -0.389362 -6.70771 0
M  V30 9772 N 920.856 1.57574 -0.0284266 0
M  V30 9773 C 921.788 2.07079 0.982391 0
M  V30 9774 C 922.801 0.994078 1.28926 0
M  V30 9775 O 923.99 1.27028 1.25404 0
M  V30 9776 C 921.09 2.47978 2.30998 0
M  V30 9777 C 920.263 3.7872 2.18838 0
M  V30 9778 C 919.322 4.06177 3.34524 0
M  V30 9779 O 918.348 4.76438 3.11441 0
M  V30 9780 N 919.55 3.56297 4.58293 0
M  V30 9781 H 922.315 2.94421 0.560011 0
M  V30 9782 H 919.876 1.61124 0.158347 0
M  V30 9783 H 921.868 2.63439 3.07216 0
M  V30 9784 H 920.438 1.66005 2.64879 0
M  V30 9785 H 919.658 3.73062 1.27351 0
M  V30 9786 H 920.946 4.6438 2.07915 0
M  V30 9787 H 920.344 2.99453 4.79942 0
M  V30 9788 H 918.901 3.77038 5.31682 0
M  V30 9789 N 922.334 -0.244713 1.55689 0
M  V30 9790 C 923.266 -1.32595 1.86952 0
M  V30 9791 C 924.279 -1.44185 0.755948 0
M  V30 9792 O 925.468 -1.45496 1.03408 0
M  V30 9793 C 922.568 -2.70429 2.04258 0
M  V30 9794 C 921.741 -2.8108 3.35131 0
M  V30 9795 C 920.8 -3.99773 3.42152 0
M  V30 9796 O 919.826 -3.89197 4.15348 0
M  V30 9797 N 921.028 -5.13041 2.71604 0
M  V30 9798 H 923.793 -1.06111 2.80287 0
M  V30 9799 H 921.354 -0.434811 1.55952 0
M  V30 9800 H 923.346 -3.48173 2.06295 0
M  V30 9801 H 921.916 -2.89612 1.17658 0
M  V30 9802 H 921.136 -1.89994 3.45392 0
M  V30 9803 H 922.424 -2.85147 4.21389 0
M  V30 9804 H 921.822 -5.24525 2.11872 0
M  V30 9805 H 920.379 -5.88912 2.79331 0
M  V30 9806 N 923.813 -1.49104 -0.510467 0
M  V30 9807 C 924.745 -1.61183 -1.6295 0
M  V30 9808 C 925.758 -0.495003 -1.55092 0
M  V30 9809 O 926.947 -0.766671 -1.61197 0
M  V30 9810 C 924.047 -1.54373 -3.01699 0
M  V30 9811 C 923.22 -2.81428 -3.34838 0
M  V30 9812 C 922.279 -2.67802 -4.52956 0
M  V30 9813 O 921.305 -3.41723 -4.55208 0
M  V30 9814 N 922.507 -1.78715 -5.52305 0
M  V30 9815 H 925.272 -2.57693 -1.53018 0
M  V30 9816 H 922.833 -1.46073 -0.698152 0
M  V30 9817 H 924.825 -1.42924 -3.78622 0
M  V30 9818 H 923.395 -0.657597 -3.05605 0
M  V30 9819 H 922.615 -3.07299 -2.46903 0
M  V30 9820 H 923.903 -3.6568 -3.53773 0
M  V30 9821 H 923.301 -1.17897 -5.53278 0
M  V30 9822 H 921.858 -1.73194 -6.28369 0
M  V30 9823 N 925.291 0.760815 -1.38019 0
M  V30 9824 C 926.538 1.51973 -1.3383 0
M  V30 9825 C 926.866 1.9436 0.0738855 0
M  V30 9826 O 926.121 1.65181 1.04946 0
M  V30 9827 C 926.42 2.79024 -2.23339 0
M  V30 9828 C 926.086 2.55636 -3.71431 0
M  V30 9829 C 924.748 2.48966 -4.11788 0
M  V30 9830 C 927.1 2.35018 -4.65205 0
M  V30 9831 C 924.428 2.19684 -5.44018 0
M  V30 9832 C 926.78 2.07258 -5.97685 0
M  V30 9833 C 925.444 1.9904 -6.37134 0
M  V30 9834 H 924.714 0.556108 -0.489719 0
M  V30 9835 H 927.361 0.87545 -1.70318 0
M  V30 9836 H 925.666 3.48065 -1.79883 0
M  V30 9837 H 927.363 3.36951 -2.17405 0
M  V30 9838 H 923.953 2.61695 -3.39432 0
M  V30 9839 H 928.137 2.39154 -4.34878 0
M  V30 9840 H 923.393 2.11825 -5.73533 0
M  V30 9841 H 927.567 1.90307 -6.69893 0
M  V30 9842 H 925.194 1.76115 -7.39519 0
M  V30 9843 N 926.769 1.22769 0.988202 0
M  V30 9844 C 928.016 1.05509 1.72841 0
M  V30 9845 C 928.344 -0.409145 1.90148 0
M  V30 9846 O 927.599 -1.3195 1.44526 0
M  V30 9847 C 927.898 1.71679 3.13466 0
M  V30 9848 C 927.564 3.21584 3.16061 0
M  V30 9849 C 926.226 3.62486 3.16476 0
M  V30 9850 C 928.578 4.17511 3.11984 0
M  V30 9851 C 925.906 4.97789 3.10521 0
M  V30 9852 C 928.258 5.52796 3.0757 0
M  V30 9853 C 926.922 5.93072 3.06304 0
M  V30 9854 H 926.192 0.386085 0.632471 0
M  V30 9855 H 928.839 1.52596 1.157 0
M  V30 9856 H 927.144 1.1693 3.73945 0
M  V30 9857 H 928.841 1.55809 3.69492 0
M  V30 9858 H 925.431 2.89019 3.1649 0
M  V30 9859 H 929.615 3.86926 3.10809 0
M  V30 9860 H 924.871 5.28218 3.07888 0
M  V30 9861 H 929.045 6.26848 3.03372 0
M  V30 9862 H 926.672 6.97879 3.01444 0
M  V30 9863 N 928.247 -1.18576 1.03814 0
M  V30 9864 C 929.179 -2.21607 0.585055 0
M  V30 9865 C 930.192 -1.59125 -0.343963 0
M  V30 9866 O 931.381 -1.77959 -0.138882 0
M  V30 9867 C 928.481 -3.38495 -0.165602 0
M  V30 9868 C 927.654 -4.30557 0.770662 0
M  V30 9869 C 926.713 -5.26161 0.0637534 0
M  V30 9870 O 925.739 -5.64961 0.693359 0
M  V30 9871 N 926.941 -5.67882 -1.20377 0
M  V30 9872 H 929.706 -2.61104 1.47121 0
M  V30 9873 H 927.267 -1.33336 0.918316 0
M  V30 9874 H 929.259 -3.99474 -0.648292 0
M  V30 9875 H 927.829 -2.97711 -0.953268 0
M  V30 9876 H 927.049 -3.67221 1.43326 0
M  V30 9877 H 928.337 -4.88969 1.40667 0
M  V30 9878 H 927.735 -5.38409 -1.73586 0
M  V30 9879 H 926.292 -6.31069 -1.63079 0
M  V30 9880 N 929.725 -0.817259 -1.34754 0
M  V30 9881 C 930.972 -0.402648 -1.98457 0
M  V30 9882 C 931.3 1.03287 -1.64809 0
M  V30 9883 O 930.555 1.73316 -0.908851 0
M  V30 9884 C 930.854 -0.5453 -3.53216 0
M  V30 9885 C 930.52 -1.9457 -4.06759 0
M  V30 9886 C 929.182 -2.32881 -4.21094 0
M  V30 9887 C 931.534 -2.86141 -4.35629 0
M  V30 9888 C 928.862 -3.62108 -4.61622 0
M  V30 9889 C 931.214 -4.14826 -4.776 0
M  V30 9890 C 929.878 -4.53121 -4.9014 0
M  V30 9891 H 929.148 -0.147339 -0.726204 0
M  V30 9892 H 931.795 -1.04011 -1.60791 0
M  V30 9893 H 930.1 0.175576 -3.91406 0
M  V30 9894 H 931.797 -0.205112 -4.00475 0
M  V30 9895 H 928.387 -1.6381 -3.96061 0
M  V30 9896 H 932.571 -2.57788 -4.24098 0
M  V30 9897 H 927.827 -3.91613 -4.69521 0
M  V30 9898 H 932.001 -4.85874 -4.98899 0
M  V30 9899 H 929.628 -5.53307 -5.21302 0
M  V30 9900 N 931.203 1.46865 -0.571711 0
M  V30 9901 C 932.619 1.57897 -0.23255 0
M  V30 9902 C 932.819 1.56836 1.26509 0
M  V30 9903 O 931.875 1.47947 2.04617 0
M  V30 9904 C 933.188 2.87778 -0.872036 0
M  V30 9905 C 934.736 3.01389 -0.844605 0
M  V30 9906 C 935.211 4.33991 -1.46343 0
M  V30 9907 N 936.702 4.40662 -1.42727 0
M  V30 9908 C 937.437 5.41858 -1.87557 0
M  V30 9909 N 936.933 6.49787 -2.4031 0
M  V30 9910 N 938.726 5.32992 -1.7854 0
M  V30 9911 H 930.877 1.45798 -1.54457 0
M  V30 9912 H 933.14 0.694785 -0.644964 0
M  V30 9913 H 932.846 2.94332 -1.92513 0
M  V30 9914 H 932.72 3.75345 -0.373677 0
M  V30 9915 H 935.107 2.94423 0.19984 0
M  V30 9916 H 935.188 2.15327 -1.38087 0
M  V30 9917 H 934.832 4.41714 -2.50701 0
M  V30 9918 H 934.762 5.18809 -0.902479 0
M  V30 9919 H 937.253 3.63263 -1.04155 0
M  V30 9920 H 937.566 7.23199 -2.72403 0
M  V30 9921 H 935.911 6.50637 -2.44329 0
M  V30 9922 H 939.102 4.47575 -1.37093 0
M  V30 9923 H 939.275 6.11716 -2.13794 0
M  V30 9924 N 932.681 0.308908 1.54543 0
M  V30 9925 C 933.611 -0.556657 2.26768 0
M  V30 9926 C 934.592 -1.13145 1.27013 0
M  V30 9927 O 935.777 -1.15931 1.558 0
M  V30 9928 C 932.907 -1.72481 3.01443 0
M  V30 9929 C 931.861 -1.28001 4.08411 0
M  V30 9930 C 931.187 -2.53395 4.70845 0
M  V30 9931 C 932.487 -0.405497 5.20724 0
M  V30 9932 H 934.181 0.0457618 2.99365 0
M  V30 9933 H 931.727 0.0234495 1.43981 0
M  V30 9934 H 933.68 -2.3365 3.50693 0
M  V30 9935 H 932.404 -2.35359 2.26437 0
M  V30 9936 H 931.063 -0.69133 3.60022 0
M  V30 9937 H 930.711 -3.14604 3.92471 0
M  V30 9938 H 930.411 -2.2433 5.43093 0
M  V30 9939 H 931.935 -3.15352 5.22863 0
M  V30 9940 H 933.349 -0.923076 5.6582 0
M  V30 9941 H 931.746 -0.208282 5.99738 0
M  V30 9942 H 932.816 0.567412 4.81569 0
M  V30 9943 N 934.159 -1.57557 0.0367827 0
M  V30 9944 C 935.384 -1.96828 -0.653707 0
M  V30 9945 C 935.809 -0.913559 -1.64425 0
M  V30 9946 O 935.167 0.124749 -1.8087 0
M  V30 9947 C 935.215 -3.35189 -1.32969 0
M  V30 9948 O 934.319 -3.32095 -2.44513 0
M  V30 9949 H 933.66 -0.64157 -0.171124 0
M  V30 9950 H 936.19 -2.04351 0.100912 0
M  V30 9951 H 936.2 -3.71593 -1.68472 0
M  V30 9952 H 934.875 -4.11496 -0.603654 0
M  V30 9953 H 933.452 -3.07418 -2.11065 0
M  V30 9954 N 935.637 0.236453 -1.55816 0
M  V30 9955 C 936.885 0.96111 -1.77784 0
M  V30 9956 C 937.206 1.85454 -0.602648 0
M  V30 9957 O 936.476 1.92157 0.381137 0
M  V30 9958 H 935.056 0.35787 -0.655697 0
M  V30 9959 H 937.718 0.251888 -1.93265 0
M  V30 9960 H 936.814 1.5767 -2.69345 0
M  V30 9961 N 937.115 1.49373 0.502552 0
M  V30 9962 C 938.047 1.62045 1.62093 0
M  V30 9963 C 939.06 0.503221 1.54827 0
M  V30 9964 O 940.249 0.775208 1.60788 0
M  V30 9965 C 937.349 1.55971 3.00876 0
M  V30 9966 C 936.522 2.832 3.33341 0
M  V30 9967 C 935.581 2.702 4.51529 0
M  V30 9968 O 934.607 3.44132 4.53389 0
M  V30 9969 N 935.809 1.81642 5.5135 0
M  V30 9970 H 938.574 2.58501 1.51649 0
M  V30 9971 H 936.135 1.46442 0.690396 0
M  V30 9972 H 938.127 1.4493 3.77859 0
M  V30 9973 H 936.697 0.673795 3.05252 0
M  V30 9974 H 935.917 3.08604 2.4527 0
M  V30 9975 H 937.205 3.67551 3.51829 0
M  V30 9976 H 936.603 1.20829 5.52645 0
M  V30 9977 H 935.16 1.76524 6.27441 0
M  V30 9978 N 938.594 -0.753485 1.38421 0
M  V30 9979 C 939.822 -1.54272 1.37868 0
M  V30 9980 C 940.237 -1.88774 -0.0315155 0
M  V30 9981 O 939.594 -1.52785 -0.998148 0
M  V30 9982 C 939.645 -2.84179 2.23438 0
M  V30 9983 O 939.366 -2.51149 3.58965 0
M  V30 9984 C 940.867 -3.78316 2.31067 0
M  V30 9985 H 938.087 -0.47735 0.47157 0
M  V30 9986 H 940.631 -0.932509 1.82001 0
M  V30 9987 H 938.786 -3.41577 1.82767 0
M  V30 9988 H 939.2 -3.34466 4.04021 0
M  V30 9989 H 940.674 -4.66418 2.95226 0
M  V30 9990 H 941.151 -4.18757 1.32436 0
M  V30 9991 H 941.757 -3.26842 2.72129 0
M  V30 9992 N 940.072 -1.23292 -0.981677 0
M  V30 9993 C 941.321 -1.05832 -1.71705 0
M  V30 9994 C 941.634 0.40514 -1.91358 0
M  V30 9995 O 942.84 0.699645 -2.6233 0
M  V30 9996 C 941.296 -1.84532 -3.08992 0
M  V30 9997 C 940.904 -3.35199 -2.9723 0
M  V30 9998 C 942.648 -1.75557 -3.86497 0
M  V30 9999 C 940.555 -4.06296 -4.29741 0
M  V30 10000 H 939.485 -0.39241 -0.64384 0
M  V30 10001 H 942.136 -1.47247 -1.09502 0
M  V30 10002 H 940.518 -1.35923 -3.71942 0
M  V30 10003 H 941.692 -3.91286 -2.43377 0
M  V30 10004 H 940.007 -3.44973 -2.332 0
M  V30 10005 H 942.604 -2.25989 -4.84596 0
M  V30 10006 H 942.947 -0.718101 -4.1006 0
M  V30 10007 H 943.48 -2.21771 -3.30246 0
M  V30 10008 H 940.219 -5.10344 -4.11375 0
M  V30 10009 H 939.739 -3.54997 -4.83464 0
M  V30 10010 H 941.418 -4.12519 -4.98434 0
M  V30 10011 N 941.55 1.18024 -1.04442 0
M  V30 10012 C 942.46 2.25436 -0.649276 0
M  V30 10013 C 943.476 1.70915 0.326189 0
M  V30 10014 O 944.652 2.00592 0.180174 0
M  V30 10015 C 941.717 3.46693 -0.0222558 0
M  V30 10016 C 940.778 4.16332 -1.0472 0
M  V30 10017 C 940.011 5.31799 -0.450011 0
M  V30 10018 O 940.234 5.65544 0.742717 0
M  V30 10019 O 939.168 5.90209 -1.18056 0
M  V30 10020 H 942.994 2.61508 -1.54426 0
M  V30 10021 H 940.579 1.25178 -0.81552 0
M  V30 10022 H 942.461 4.20132 0.326597 0
M  V30 10023 H 941.136 3.12436 0.84649 0
M  V30 10024 H 940.043 3.44944 -1.44792 0
M  V30 10025 H 941.376 4.54598 -1.88684 0
M  V30 10026 N 943.028 0.824394 1.34319 0
M  V30 10027 C 944.274 0.413779 1.98534 0
M  V30 10028 C 944.607 -1.02089 1.65201 0
M  V30 10029 O 943.882 -1.71129 0.924402 0
M  V30 10030 C 944.165 0.61801 3.54757 0
M  V30 10031 C 944.018 2.0989 3.97827 0
M  V30 10032 C 945.337 0.0549041 4.40066 0
M  V30 10033 H 942.456 0.151815 0.721194 0
M  V30 10034 H 945.098 1.03723 1.5919 0
M  V30 10035 H 943.248 0.0873107 3.88402 0
M  V30 10036 H 944.92 2.69335 3.74508 0
M  V30 10037 H 943.163 2.58881 3.48085 0
M  V30 10038 H 943.834 2.1926 5.06586 0
M  V30 10039 H 946.31 0.508348 4.12983 0
M  V30 10040 H 945.186 0.227595 5.48428 0
M  V30 10041 H 945.447 -1.04025 4.29687 0
M  V30 10042 N 944.506 -1.46559 0.579492 0
M  V30 10043 C 945.734 -2.06784 0.0693648 0
M  V30 10044 C 946.149 -1.42875 -1.23419 0
M  V30 10045 O 945.506 -0.532919 -1.74546 0
M  V30 10046 C 945.557 -3.61343 -0.106511 0
M  V30 10047 O 945.278 -4.22861 1.14545 0
M  V30 10048 C 946.779 -4.38489 -0.651359 0
M  V30 10049 H 943.999 -0.66866 0.0559848 0
M  V30 10050 H 946.543 -1.88235 0.799245 0
M  V30 10051 H 944.698 -3.7933 -0.786601 0
M  V30 10052 H 945.112 -5.15691 0.95723 0
M  V30 10053 H 946.586 -5.47237 -0.723615 0
M  V30 10054 H 947.063 -4.06309 -1.66763 0
M  V30 10055 H 947.669 -4.253 -0.0062433 0
M  V30 10056 N 945.984 -0.3171 -1.54377 0
M  V30 10057 C 947.209 0.292311 -2.0533 0
M  V30 10058 C 947.634 1.45503 -1.19207 0
M  V30 10059 O 946.992 1.80197 -0.199721 0
M  V30 10060 C 947.04 0.710787 -3.53525 0
M  V30 10061 O 946.144 1.81387 -3.70368 0
M  V30 10062 H 945.485 0.0539976 -0.661801 0
M  V30 10063 H 948.015 -0.463629 -1.99278 0
M  V30 10064 H 948.025 0.995216 -3.95676 0
M  V30 10065 H 946.7 -0.139668 -4.15665 0
M  V30 10066 H 945.277 1.52875 -3.40123 0
M  V30 10067 N 947.462 1.57535 -0.0451378 0
M  V30 10068 C 948.372 2.14653 0.946646 0
M  V30 10069 C 949.388 1.10279 1.3459 0
M  V30 10070 O 950.564 1.42417 1.42405 0
M  V30 10071 C 947.629 2.67533 2.20515 0
M  V30 10072 C 946.69 3.86682 1.86481 0
M  V30 10073 C 945.923 4.37031 3.06332 0
M  V30 10074 O 946.146 3.86481 4.1951 0
M  V30 10075 O 945.08 5.28691 2.87697 0
M  V30 10076 H 948.906 2.99706 0.49091 0
M  V30 10077 H 946.491 1.48355 0.17641 0
M  V30 10078 H 948.373 3.01542 2.94365 0
M  V30 10079 H 947.048 1.85554 2.65238 0
M  V30 10080 H 945.955 3.57573 1.09966 0
M  V30 10081 H 947.288 4.69873 1.46562 0
M  V30 10082 N 948.94 -0.228186 1.55939 0
M  V30 10083 C 950.17 -0.969211 1.82455 0
M  V30 10084 C 950.578 -1.78714 0.621133 0
M  V30 10085 O 949.921 -1.78841 -0.419694 0
M  V30 10086 C 949.983 -1.94088 3.02605 0
M  V30 10087 C 949.647 -1.30811 4.37878 0
M  V30 10088 C 950.644 -0.701275 5.15149 0
M  V30 10089 C 948.329 -1.32187 4.84595 0
M  V30 10090 C 950.323 -0.116631 6.37293 0
M  V30 10091 C 948.01 -0.733375 6.06683 0
M  V30 10092 C 949.008 -0.131804 6.82873 0
M  V30 10093 O 948.696 0.447549 8.02653 0
M  V30 10094 H 948.428 -0.289951 0.610659 0
M  V30 10095 H 950.982 -0.250576 2.03866 0
M  V30 10096 H 949.212 -2.69833 2.76996 0
M  V30 10097 H 950.901 -2.5469 3.1605 0
M  V30 10098 H 951.667 -0.683022 4.80166 0
M  V30 10099 H 947.546 -1.77949 4.25271 0
M  V30 10100 H 951.09 0.353539 6.96704 0
M  V30 10101 H 946.987 -0.749019 6.4114 0
M  V30 10102 H 947.755 0.341224 8.17788 0
M  V30 10103 N 950.418 -1.49637 -0.494624 0
M  V30 10104 C 951.348 -1.69692 -1.60396 0
M  V30 10105 C 952.329 -0.545648 -1.61111 0
M  V30 10106 O 953.514 -0.782202 -1.77751 0
M  V30 10107 C 950.644 -1.76934 -2.9885 0
M  V30 10108 C 949.598 -2.91915 -3.13001 0
M  V30 10109 C 948.924 -2.84276 -4.5287 0
M  V30 10110 C 950.224 -4.32764 -2.92426 0
M  V30 10111 H 951.918 -2.6257 -1.43866 0
M  V30 10112 H 949.464 -1.26355 -0.690679 0
M  V30 10113 H 951.417 -1.8955 -3.76362 0
M  V30 10114 H 950.141 -0.806609 -3.16483 0
M  V30 10115 H 948.8 -2.78911 -2.37916 0
M  V30 10116 H 948.448 -1.85897 -4.67388 0
M  V30 10117 H 948.148 -3.61452 -4.63278 0
M  V30 10118 H 949.672 -2.98909 -5.32434 0
M  V30 10119 H 951.086 -4.46415 -3.59703 0
M  V30 10120 H 949.483 -5.1121 -3.143 0
M  V30 10121 H 950.553 -4.46765 -1.88491 0
M  V30 10122 N 951.896 0.746133 -1.38819 0
M  V30 10123 C 953.143 1.50545 -1.35434 0
M  V30 10124 C 953.471 1.94427 0.0532669 0
M  V30 10125 O 952.726 1.66285 1.03188 0
M  V30 10126 C 953.025 2.76639 -2.26286 0
M  V30 10127 C 952.691 2.51682 -3.74122 0
M  V30 10128 C 951.353 2.44584 -4.14406 0
M  V30 10129 C 953.705 2.30071 -4.67672 0
M  V30 10130 C 951.033 2.13902 -5.46318 0
M  V30 10131 C 953.385 2.00907 -5.99849 0
M  V30 10132 C 952.049 1.92271 -6.39209 0
M  V30 10133 H 951.319 0.550883 -0.49559 0
M  V30 10134 H 953.966 0.857337 -1.71237 0
M  V30 10135 H 952.271 3.46138 -1.83564 0
M  V30 10136 H 953.968 3.34626 -2.20967 0
M  V30 10137 H 950.558 2.5808 -3.42188 0
M  V30 10138 H 954.742 2.34528 -4.3739 0
M  V30 10139 H 949.998 2.0573 -5.75748 0
M  V30 10140 H 954.172 1.83191 -6.71874 0
M  V30 10141 H 951.799 1.68261 -7.41345 0
M  V30 10142 N 953.375 1.23811 0.975125 0
M  V30 10143 C 954.791 1.0019 1.24234 0
M  V30 10144 C 954.991 -0.293811 1.99346 0
M  V30 10145 O 954.047 -1.01189 2.31337 0
M  V30 10146 C 955.36 2.21218 2.03674 0
M  V30 10147 C 956.908 2.25764 2.16793 0
M  V30 10148 C 957.383 3.46394 2.99626 0
M  V30 10149 N 958.874 3.46665 3.07209 0
M  V30 10150 C 959.609 4.3666 3.71639 0
M  V30 10151 N 959.105 5.36899 4.37849 0
M  V30 10152 N 960.898 4.2439 3.68578 0
M  V30 10153 H 953.049 2.07087 0.472076 0
M  V30 10154 H 955.312 0.90838 0.271201 0
M  V30 10155 H 955.018 3.15277 1.55862 0
M  V30 10156 H 954.892 2.22733 3.04417 0
M  V30 10157 H 957.279 1.32242 2.63811 0
M  V30 10158 H 957.36 2.28279 1.15422 0
M  V30 10159 H 957.004 4.40227 2.53304 0
M  V30 10160 H 956.934 3.41121 4.01178 0
M  V30 10161 H 959.425 2.74142 2.60105 0
M  V30 10162 H 959.738 6.01816 4.84807 0
M  V30 10163 H 958.083 5.40793 4.36541 0
M  V30 10164 H 961.274 3.4532 3.16025 0
M  V30 10165 H 961.447 4.94727 4.18508 0
M  V30 10166 N 954.853 -1.17469 1.05066 0
M  V30 10167 C 955.803 -2.19388 0.620713 0
M  V30 10168 C 956.787 -1.5722 -0.34214 0
M  V30 10169 O 957.979 -1.76279 -0.159574 0
M  V30 10170 C 955.108 -3.433 -0.00438518 0
M  V30 10171 C 954.194 -4.12569 0.982218 0
M  V30 10172 N 954.585 -4.57683 2.15313 0
M  V30 10173 C 952.883 -4.38575 0.810416 0
M  V30 10174 C 953.584 -5.11124 2.77719 0
M  V30 10175 N 952.56 -5.0325 2.05525 0
M  V30 10176 H 956.362 -2.51971 1.51287 0
M  V30 10177 H 953.876 -1.33784 0.920625 0
M  V30 10178 H 955.873 -4.15591 -0.330161 0
M  V30 10179 H 954.533 -3.12209 -0.89195 0
M  V30 10180 H 955.544 -4.51812 2.53154 0
M  V30 10181 H 952.221 -4.17492 -0.0262078 0
M  V30 10182 H 953.611 -5.56161 3.77008 0
M  V30 10183 N 956.331 -0.831506 -1.3388 0
M  V30 10184 C 957.556 -0.435954 -2.02766 0
M  V30 10185 C 957.981 0.952889 -1.62178 0
M  V30 10186 O 957.339 1.62166 -0.810681 0
M  V30 10187 C 957.387 -0.555907 -3.56289 0
M  V30 10188 O 956.491 0.420826 -4.10247 0
M  V30 10189 H 955.832 -0.178248 -0.639628 0
M  V30 10190 H 958.362 -1.1243 -1.70941 0
M  V30 10191 H 958.372 -0.434831 -4.05676 0
M  V30 10192 H 957.047 -1.56881 -3.85177 0
M  V30 10193 H 955.624 0.257919 -3.72007 0
M  V30 10194 N 957.809 1.4625 -0.587256 0
M  V30 10195 C 959.086 1.95599 -0.00750181 0
M  V30 10196 C 959.466 1.52989 1.45457 0
M  V30 10197 O 958.814 0.782731 2.14676 0
M  V30 10198 C 959.024 3.48513 -0.184309 0
M  V30 10199 C 960.372 4.24565 -0.0544972 0
M  V30 10200 O 961.396 3.5602 -0.113378 0
M  V30 10201 O 960.255 5.46445 0.0774075 0
M  V30 10202 H 957.349 0.825649 0.0472495 0
M  V30 10203 H 959.895 1.56512 -0.655893 0
M  V30 10204 H 958.667 3.72428 -1.20053 0
M  V30 10205 H 958.29 3.9444 0.500301 0
M  V30 10206 N 959.287 0.325282 1.54207 0
M  V30 10207 C 960.235 -0.5554 2.25872 0
M  V30 10208 C 961.229 -1.11714 1.27344 0
M  V30 10209 O 962.435 -1.06498 1.45115 0
M  V30 10210 H 958.81 -0.19776 0.725531 0
M  V30 10211 H 960.781 0.0712858 2.98315 0
M  V30 10212 C 959.53 -1.70379 3.03095 0
M  V30 10213 H 958.853 -1.2808 3.78729 0
M  V30 10214 H 960.293 -2.29556 3.56483 0
M  V30 10215 C 958.752 -2.62242 2.11496 0
M  V30 10216 O 959.282 -3.64003 1.69895 0
M  V30 10217 N 957.488 -2.30515 1.7695 0
M  V30 10218 H 957.035 -1.47805 2.10978 0
M  V30 10219 H 956.993 -2.92241 1.15942 0
M  V30 10220 N 960.765 -1.57509 0.0534917 0
M  V30 10221 C 961.675 -2.15152 -0.935249 0
M  V30 10222 C 962.691 -1.10991 -1.34003 0
M  V30 10223 O 963.867 -1.43171 -1.41648 0
M  V30 10224 C 960.932 -2.68699 -2.19093 0
M  V30 10225 C 959.993 -3.87666 -1.84428 0
M  V30 10226 C 959.226 -4.3865 -3.0401 0
M  V30 10227 O 959.449 -3.887 -4.17455 0
M  V30 10228 O 958.383 -5.30209 -2.84889 0
M  V30 10229 H 962.209 -2.99962 -0.475009 0
M  V30 10230 H 959.794 -1.48446 -0.16854 0
M  V30 10231 H 961.676 -3.03098 -2.92762 0
M  V30 10232 H 960.351 -1.86958 -2.6425 0
M  V30 10233 H 959.258 -3.58151 -1.08068 0
M  V30 10234 H 960.591 -4.70643 -1.44068 0
M  V30 10235 N 962.243 0.219913 -1.56058 0
M  V30 10236 C 963.173 1.27572 -1.9557 0
M  V30 10237 C 964.154 1.48801 -0.824148 0
M  V30 10238 O 965.339 1.60957 -1.08658 0
M  V30 10239 C 962.469 2.62517 -2.27381 0
M  V30 10240 C 961.423 2.55941 -3.43042 0
M  V30 10241 C 960.749 3.94931 -3.60463 0
M  V30 10242 C 962.049 2.10584 -4.77966 0
M  V30 10243 H 963.743 0.947482 -2.84013 0
M  V30 10244 H 961.289 0.454337 -1.36645 0
M  V30 10245 H 963.242 3.36538 -2.53615 0
M  V30 10246 H 961.966 2.97031 -1.35794 0
M  V30 10247 H 960.625 1.84377 -3.1686 0
M  V30 10248 H 960.273 4.26756 -2.66249 0
M  V30 10249 H 959.973 3.91413 -4.38258 0
M  V30 10250 H 961.497 4.70611 -3.89046 0
M  V30 10251 H 962.911 2.74349 -5.03394 0
M  V30 10252 H 961.308 2.18122 -5.59055 0
M  V30 10253 H 962.378 1.05818 -4.73213 0
M  V30 10254 N 963.721 1.49897 0.486681 0
M  V30 10255 C 964.651 1.7054 1.59494 0
M  V30 10256 C 965.632 0.554184 1.60819 0
M  V30 10257 O 966.817 0.791617 1.77333 0
M  V30 10258 C 963.947 1.78517 2.97908 0
M  V30 10259 C 962.901 2.93571 3.11449 0
M  V30 10260 C 962.227 2.86674 4.51356 0
M  V30 10261 C 963.527 4.34308 2.90127 0
M  V30 10262 H 965.221 2.63329 1.42472 0
M  V30 10263 H 962.767 1.2672 0.683969 0
M  V30 10264 H 964.72 1.91544 3.75352 0
M  V30 10265 H 963.444 0.823381 3.16051 0
M  V30 10266 H 962.103 2.80169 2.36433 0
M  V30 10267 H 961.751 1.88373 4.66395 0
M  V30 10268 H 961.451 3.63903 4.61355 0
M  V30 10269 H 962.975 3.01728 5.30841 0
M  V30 10270 H 964.389 4.48317 3.57331 0
M  V30 10271 H 962.786 5.12869 3.11585 0
M  V30 10272 H 963.856 4.47759 1.86119 0
M  V30 10273 N 965.199 -0.738761 1.39212 0
M  V30 10274 C 966.149 -1.84376 1.34125 0
M  V30 10275 C 967.133 -1.5935 0.222793 0
M  V30 10276 O 968.325 -1.70918 0.460014 0
M  V30 10277 C 965.454 -3.22261 1.18334 0
M  V30 10278 C 964.54 -3.53129 2.34864 0
M  V30 10279 N 964.931 -3.54957 3.60332 0
M  V30 10280 C 963.229 -3.83472 2.27739 0
M  V30 10281 C 963.93 -3.83513 4.3737 0
M  V30 10282 N 962.906 -4.01097 3.66909 0
M  V30 10283 H 966.708 -1.84089 2.29104 0
M  V30 10284 H 964.222 -0.936826 1.32655 0
M  V30 10285 H 966.219 -4.01358 1.12772 0
M  V30 10286 H 964.879 -3.23789 0.243016 0
M  V30 10287 H 965.89 -3.36359 3.93806 0
M  V30 10288 H 962.567 -3.92628 1.41949 0
M  V30 10289 H 963.957 -3.91427 5.46109 0
M  V30 10290 N 966.677 -1.24326 -0.968545 0
M  V30 10291 C 967.923 -1.09413 -1.71465 0
M  V30 10292 C 968.278 0.363422 -1.88937 0
M  V30 10293 O 967.571 1.26486 -1.43916 0
M  V30 10294 C 967.765 -1.76644 -3.10695 0
M  V30 10295 C 967.594 -3.28787 -3.06805 0
M  V30 10296 C 966.364 -3.97995 -3.11333 0
M  V30 10297 C 968.562 -4.25389 -2.89047 0
M  V30 10298 N 966.544 -5.37024 -2.97453 0
M  V30 10299 C 967.915 -5.51411 -2.83454 0
M  V30 10300 C 969.97 -4.15976 -2.73621 0
M  V30 10301 C 968.673 -6.69096 -2.64013 0
M  V30 10302 C 970.699 -5.33338 -2.55547 0
M  V30 10303 C 970.061 -6.58291 -2.50663 0
M  V30 10304 H 966.16 -0.454986 -0.636012 0
M  V30 10305 H 968.744 -1.57228 -1.14837 0
M  V30 10306 H 966.915 -1.31344 -3.65518 0
M  V30 10307 H 968.647 -1.54599 -3.74007 0
M  V30 10308 H 965.402 -3.49155 -3.19981 0
M  V30 10309 H 965.826 -6.09948 -2.93756 0
M  V30 10310 H 970.468 -3.20131 -2.76181 0
M  V30 10311 H 968.186 -7.65064 -2.60197 0
M  V30 10312 H 971.772 -5.27904 -2.44557 0
M  V30 10313 H 970.652 -7.47575 -2.36856 0
M  V30 10314 N 968.156 1.1691 -1.05688 0
M  V30 10315 C 969.089 2.19992 -0.606539 0
M  V30 10316 C 970.067 1.58393 0.367483 0
M  V30 10317 O 971.251 1.8644 0.277914 0
M  V30 10318 C 968.378 3.38516 0.111663 0
M  V30 10319 C 967.424 4.18579 -0.818153 0
M  V30 10320 S 968.257 4.83111 -2.31006 0
M  V30 10321 C 969.413 6.0502 -1.60317 0
M  V30 10322 H 969.646 2.57851 -1.47987 0
M  V30 10323 H 967.179 1.27604 -0.869291 0
M  V30 10324 H 969.137 4.07195 0.519829 0
M  V30 10325 H 967.798 2.99034 0.961103 0
M  V30 10326 H 966.991 5.03318 -0.262092 0
M  V30 10327 H 966.593 3.55362 -1.16592 0
M  V30 10328 H 968.885 6.71424 -0.905309 0
M  V30 10329 H 969.828 6.65164 -2.42823 0
M  V30 10330 H 970.236 5.53908 -1.08842 0
M  V30 10331 N 969.634 0.838594 1.33437 0
M  V30 10332 C 970.88 0.434813 1.98084 0
M  V30 10333 C 971.213 -1.00331 1.66275 0
M  V30 10334 O 970.488 -1.70139 0.942501 0
M  V30 10335 C 970.771 0.655602 3.54082 0
M  V30 10336 C 970.624 2.14097 3.95578 0
M  V30 10337 C 971.943 0.101576 4.39983 0
M  V30 10338 H 969.062 0.159456 0.719544 0
M  V30 10339 H 971.704 1.05406 1.58081 0
M  V30 10340 H 969.854 0.128501 3.88287 0
M  V30 10341 H 971.526 2.73292 3.71631 0
M  V30 10342 H 969.769 2.62558 3.4532 0
M  V30 10343 H 970.44 2.24621 5.04231 0
M  V30 10344 H 972.916 0.552122 4.12421 0
M  V30 10345 H 971.792 0.28575 5.48156 0
M  V30 10346 H 972.053 -0.994616 4.30767 0
M  V30 10347 N 971.112 -1.45937 0.595003 0
M  V30 10348 C 972.075 -2.2888 -0.121102 0
M  V30 10349 C 973.075 -1.39075 -0.807149 0
M  V30 10350 O 974.265 -1.61326 -0.657228 0
M  V30 10351 C 971.397 -3.19778 -1.1813 0
M  V30 10352 H 972.59 -2.93673 0.607968 0
M  V30 10353 H 970.143 -1.5225 0.353495 0
M  V30 10354 H 970.878 -2.59759 -1.94154 0
M  V30 10355 H 970.663 -3.85914 -0.693724 0
M  V30 10356 H 972.153 -3.82176 -1.68319 0
M  V30 10357 N 972.59 -0.333456 -1.54032 0
M  V30 10358 C 973.52 0.52051 -2.27625 0
M  V30 10359 C 974.501 1.1111 -1.28797 0
M  V30 10360 O 975.686 1.13438 -1.57625 0
M  V30 10361 C 972.816 1.67663 -3.04149 0
M  V30 10362 C 971.77 1.21487 -4.10396 0
M  V30 10363 C 971.096 2.45872 -4.74817 0
M  V30 10364 C 972.396 0.322603 -5.21303 0
M  V30 10365 H 974.09 -0.0933823 -2.99254 0
M  V30 10366 H 971.636 -0.0463526 -1.43925 0
M  V30 10367 H 973.589 2.28041 -3.54366 0
M  V30 10368 H 972.313 2.31727 -2.30153 0
M  V30 10369 H 970.972 0.633966 -3.61077 0
M  V30 10370 H 970.62 3.0832 -3.97426 0
M  V30 10371 H 970.32 2.15662 -5.46593 0
M  V30 10372 H 971.844 3.06994 -5.27814 0
M  V30 10373 H 973.258 0.832942 -5.67217 0
M  V30 10374 H 971.655 0.112843 -5.99994 0
M  V30 10375 H 972.725 -0.643954 -4.80605 0
M  V30 10376 N 974.068 1.57479 -0.061844 0
M  V30 10377 C 975.345 1.84484 0.649993 0
M  V30 10378 C 975.725 0.952366 1.88396 0
M  V30 10379 O 975.073 0.0161035 2.28494 0
M  V30 10380 C 975.283 3.34452 0.997133 0
M  V30 10381 C 976.631 4.01724 1.37488 0
M  V30 10382 O 977.655 3.3914 1.08916 0
M  V30 10383 O 976.514 5.12091 1.90854 0
M  V30 10384 H 973.608 0.761798 0.321858 0
M  V30 10385 H 976.154 1.6945 -0.0920192 0
M  V30 10386 H 974.926 3.91115 0.120301 0
M  V30 10387 H 974.549 3.54713 1.79624 0
M  V30 10388 N 975.546 -0.211634 1.56173 0
M  V30 10389 C 976.794 -0.932704 1.7929 0
M  V30 10390 C 977.115 -1.84472 0.632076 0
M  V30 10391 O 976.385 -1.92739 -0.350519 0
M  V30 10392 H 974.965 -0.347393 0.661307 0
M  V30 10393 H 977.627 -0.22111 1.93642 0
M  V30 10394 H 976.723 -1.53365 2.71819 0
M  V30 10395 N 977.024 -1.50153 -0.478725 0
M  V30 10396 C 977.971 -1.68458 -1.57767 0
M  V30 10397 C 978.941 -0.5259 -1.57555 0
M  V30 10398 O 980.126 -0.755574 -1.75202 0
M  V30 10399 C 977.266 -1.77772 -2.95789 0
M  V30 10400 C 976.379 -3.05092 -3.05848 0
M  V30 10401 C 975.514 -3.05247 -4.34739 0
M  V30 10402 C 974.553 -4.27053 -4.38512 0
M  V30 10403 N 973.69 -4.24991 -5.58862 0
M  V30 10404 H 978.53 -2.62282 -1.41464 0
M  V30 10405 H 976.067 -1.30023 -0.687921 0
M  V30 10406 H 978.025 -1.81152 -3.75819 0
M  V30 10407 H 976.655 -0.873944 -3.10744 0
M  V30 10408 H 975.707 -3.11219 -2.1874 0
M  V30 10409 H 977.019 -3.95075 -3.04495 0
M  V30 10410 H 976.173 -3.07314 -5.23109 0
M  V30 10411 H 974.912 -2.13081 -4.38689 0
M  V30 10412 H 973.917 -4.25206 -3.4854 0
M  V30 10413 H 975.142 -5.20437 -4.36259 0
M  V30 10414 H 973.088 -3.35674 -5.63612 0
M  V30 10415 H 973.005 -5.08734 -5.59219 0
M  V30 10416 H 974.273 -4.31193 -6.49379 0
M  V30 10417 N 978.502 0.731368 -1.39602 0
M  V30 10418 C 979.913 1.30981 -1.33045 0
M  V30 10419 C 980.264 1.962 0.00349918 0
M  V30 10420 O 979.389 1.96539 0.905615 0
M  V30 10421 C 979.984 2.3817 -2.40958 0
M  V30 10422 C 978.543 2.91678 -2.3791 0
M  V30 10423 C 977.69 1.65286 -2.22656 0
M  V30 10424 H 980.641 0.528615 -1.49637 0
M  V30 10425 H 980.662 3.18645 -2.07955 0
M  V30 10426 H 980.174 1.90673 -3.38032 0
M  V30 10427 H 978.275 3.43446 -1.44485 0
M  V30 10428 H 978.388 3.44545 -3.32904 0
M  V30 10429 H 976.752 1.89759 -1.69893 0
M  V30 10430 H 977.535 1.19836 -3.21705 0
M  V30 10431 N 979.98 1.24838 0.961938 0
M  V30 10432 C 980.91 1.07053 2.07514 0
M  V30 10433 C 981.891 -0.0182465 1.7009 0
M  V30 10434 O 983.076 0.149915 1.9362 0
M  V30 10435 C 980.206 0.680693 3.40564 0
M  V30 10436 C 979.16 1.71889 3.91967 0
M  V30 10437 C 978.486 1.18395 5.21428 0
M  V30 10438 C 979.786 3.1161 4.19161 0
M  V30 10439 H 981.48 2.00167 2.22651 0
M  V30 10440 H 979.026 0.963799 1.0699 0
M  V30 10441 H 980.979 0.54324 4.17884 0
M  V30 10442 H 979.703 -0.28615 3.25344 0
M  V30 10443 H 978.362 1.84465 3.16809 0
M  V30 10444 H 978.01 0.207543 5.02572 0
M  V30 10445 H 977.71 1.87778 5.56788 0
M  V30 10446 H 979.234 1.05873 6.01351 0
M  V30 10447 H 980.648 3.0223 4.87165 0
M  V30 10448 H 979.045 3.78398 4.65763 0
M  V30 10449 H 980.115 3.59218 3.25715 0
M  V30 10450 N 981.458 -1.16348 1.06306 0
M  V30 10451 C 982.421 -2.18941 0.678053 0
M  V30 10452 C 983.421 -1.58409 -0.276277 0
M  V30 10453 O 984.611 -1.74101 -0.0586435 0
M  V30 10454 C 981.743 -3.409 -0.00228684 0
M  V30 10455 H 982.936 -2.54516 1.58624 0
M  V30 10456 H 980.489 -1.30625 0.858298 0
M  V30 10457 H 981.224 -3.10881 -0.923212 0
M  V30 10458 H 981.009 -3.86089 0.683949 0
M  V30 10459 H 982.499 -4.16806 -0.257374 0
M  V30 10460 N 982.937 -0.845659 -1.3299 0
M  V30 10461 C 984.162 -0.457435 -2.02293 0
M  V30 10462 C 984.587 0.935634 -1.63179 0
M  V30 10463 O 983.945 1.61297 -0.827835 0
M  V30 10464 C 983.993 -0.593665 -3.5568 0
M  V30 10465 O 983.097 0.37729 -4.10671 0
M  V30 10466 H 982.438 -0.185022 -0.637701 0
M  V30 10467 H 984.968 -1.14237 -1.69738 0
M  V30 10468 H 984.978 -0.477834 -4.05192 0
M  V30 10469 H 983.653 -1.60957 -3.83491 0
M  V30 10470 H 982.23 0.218448 -3.7226 0
M  V30 10471 N 984.415 1.45619 -0.602734 0
M  V30 10472 C 985.663 2.01873 -0.095844 0
M  V30 10473 C 985.984 1.47427 1.27633 0
M  V30 10474 O 985.254 0.666652 1.84208 0
M  V30 10475 H 983.834 0.746295 -0.0324408 0
M  V30 10476 H 986.496 1.78478 -0.783037 0
M  V30 10477 H 985.592 3.12072 -0.0419507 0
M  V30 10478 N 985.893 0.34162 1.53853 0
M  V30 10479 C 986.803 -0.524555 2.2866 0
M  V30 10480 C 987.819 -1.1136 1.33697 0
M  V30 10481 O 988.995 -1.1297 1.66732 0
M  V30 10482 C 986.06 -1.66065 3.04341 0
M  V30 10483 C 985.121 -1.10158 4.14926 0
M  V30 10484 C 984.354 -2.18353 4.86988 0
M  V30 10485 O 984.577 -3.39038 4.58704 0
M  V30 10486 O 983.511 -1.82756 5.73484 0
M  V30 10487 H 987.337 0.0835014 3.03585 0
M  V30 10488 H 984.922 0.106727 1.49018 0
M  V30 10489 H 986.804 -2.3217 3.51674 0
M  V30 10490 H 985.479 -2.25456 2.32275 0
M  V30 10491 H 984.386 -0.405109 3.719 0
M  V30 10492 H 985.719 -0.552567 4.89088 0
M  V30 10493 N 987.371 -1.57444 0.0701946 0
M  V30 10494 C 988.617 -1.93716 -0.600178 0
M  V30 10495 C 988.95 -0.950329 -1.69359 0
M  V30 10496 O 988.225 0.0207123 -1.94489 0
M  V30 10497 C 988.508 -3.40266 -1.17861 0
M  V30 10498 C 988.361 -4.49706 -0.0919575 0
M  V30 10499 C 989.68 -3.87599 -2.08459 0
M  V30 10500 H 986.799 -0.704421 -0.216704 0
M  V30 10501 H 989.441 -1.89514 0.135838 0
M  V30 10502 H 987.591 -3.43977 -1.80587 0
M  V30 10503 H 989.263 -4.58116 0.541031 0
M  V30 10504 H 987.506 -4.29937 0.577639 0
M  V30 10505 H 988.177 -5.49381 -0.537048 0
M  V30 10506 H 990.653 -3.85883 -1.5567 0
M  V30 10507 H 989.529 -4.90755 -2.45867 0
M  V30 10508 H 989.79 -3.25448 -2.99226 0
M  V30 10509 N 988.849 0.203349 -1.56283 0
M  V30 10510 C 990.26 0.768764 -1.70138 0
M  V30 10511 C 990.611 1.8421 -0.675358 0
M  V30 10512 O 989.736 2.15732 0.1699 0
M  V30 10513 C 990.331 1.40123 -3.08466 0
M  V30 10514 C 988.89 1.91382 -3.24114 0
M  V30 10515 C 988.037 0.780685 -2.66084 0
M  V30 10516 H 990.988 -0.0215997 -1.58685 0
M  V30 10517 H 991.009 2.27046 -3.05336 0
M  V30 10518 H 990.521 0.619805 -3.83119 0
M  V30 10519 H 988.622 2.7227 -2.54362 0
M  V30 10520 H 988.735 2.08128 -4.31531 0
M  V30 10521 H 987.099 1.19281 -2.25042 0
M  V30 10522 H 987.882 0.0116351 -3.43298 0
M  V30 10523 N 990.327 1.50405 0.470755 0
M  V30 10524 C 991.257 1.72222 1.57676 0
M  V30 10525 C 992.238 0.57121 1.60222 0
M  V30 10526 O 993.423 0.810381 1.76484 0
M  V30 10527 C 990.553 1.81666 2.95998 0
M  V30 10528 C 989.507 2.96857 3.08318 0
M  V30 10529 C 988.833 2.91445 4.4829 0
M  V30 10530 C 990.133 4.37361 2.85504 0
M  V30 10531 H 991.827 2.64825 1.39671 0
M  V30 10532 H 989.373 1.27438 0.67049 0
M  V30 10533 H 991.326 1.95514 3.73299 0
M  V30 10534 H 990.05 0.856856 3.1516 0
M  V30 10535 H 988.709 2.82661 2.33449 0
M  V30 10536 H 988.357 1.93309 4.64371 0
M  V30 10537 H 988.057 3.68776 4.57469 0
M  V30 10538 H 989.581 3.07341 5.27611 0
M  V30 10539 H 990.995 4.52081 3.52555 0
M  V30 10540 H 989.392 5.16145 3.06127 0
M  V30 10541 H 990.462 4.49708 1.81359 0
M  V30 10542 N 991.805 -0.723954 1.39988 0
M  V30 10543 C 993.082 -1.4763 1.28316 0
M  V30 10544 C 993.462 -2.10852 -0.102302 0
M  V30 10545 O 992.81 -1.9948 -1.11445 0
M  V30 10546 C 993.02 -2.51878 2.41574 0
M  V30 10547 C 994.368 -3.17948 2.81415 0
M  V30 10548 O 995.392 -2.62195 2.41106 0
M  V30 10549 O 994.251 -4.18858 3.51027 0
M  V30 10550 H 991.345 -0.656092 0.50346 0
M  V30 10551 H 993.891 -0.75684 1.51888 0
M  V30 10552 H 992.663 -2.03618 3.34149 0
M  V30 10553 H 992.286 -3.3137 2.19727 0
M  V30 10554 N 993.283 -1.25346 -0.955304 0
M  V30 10555 C 994.529 -1.10218 -1.70235 0
M  V30 10556 C 994.862 0.356124 -1.90907 0
M  V30 10557 O 994.137 1.26253 -1.47954 0
M  V30 10558 C 994.42 -1.85627 -3.08569 0
M  V30 10559 C 994.273 -3.39281 -2.95311 0
M  V30 10560 C 995.592 -1.63886 -4.08448 0
M  V30 10561 H 992.711 -0.401781 -0.617852 0
M  V30 10562 H 995.353 -1.5417 -1.11048 0
M  V30 10563 H 993.503 -1.48269 -3.59094 0
M  V30 10564 H 995.175 -3.8631 -2.52116 0
M  V30 10565 H 993.418 -3.67027 -2.31244 0
M  V30 10566 H 994.089 -3.87258 -3.93364 0
M  V30 10567 H 996.565 -1.96406 -3.6683 0
M  V30 10568 H 995.441 -2.19087 -5.03281 0
M  V30 10569 H 995.702 -0.580021 -4.38279 0
M  V30 10570 N 994.761 1.15782 -1.06922 0
M  V30 10571 C 995.724 2.18578 -0.689654 0
M  V30 10572 C 996.724 1.58553 0.267872 0
M  V30 10573 O 997.914 1.7413 0.0494097 0
M  V30 10574 C 995.046 3.40896 -0.0157919 0
M  V30 10575 H 996.239 2.53672 -1.59971 0
M  V30 10576 H 993.792 1.30168 -0.865214 0
M  V30 10577 H 994.527 3.11367 0.906712 0
M  V30 10578 H 994.312 3.85721 -0.704415 0
M  V30 10579 H 995.802 4.16937 0.235266 0
M  V30 10580 N 996.239 0.8527 1.3254 0
M  V30 10581 C 997.65 0.510012 1.79599 0
M  V30 10582 C 998.001 -0.972002 1.70431 0
M  V30 10583 O 997.126 -1.7581 1.26173 0
M  V30 10584 C 997.721 0.918986 3.26098 0
M  V30 10585 C 996.28 0.628227 3.7112 0
M  V30 10586 C 995.427 1.11979 2.53685 0
M  V30 10587 H 998.378 1.04009 1.19866 0
M  V30 10588 H 998.399 0.234577 3.79776 0
M  V30 10589 H 997.911 1.99765 3.32739 0
M  V30 10590 H 996.012 -0.4398 3.69995 0
M  V30 10591 H 996.125 1.19315 4.64005 0
M  V30 10592 H 994.489 0.540133 2.48907 0
M  V30 10593 H 995.272 2.20552 2.63081 0
M  V30 10594 N 997.718 -1.45297 0.610449 0
M  V30 10595 C 998.65 -2.28742 -0.144884 0
M  V30 10596 C 999.663 -1.40114 -0.828977 0
M  V30 10597 O 1000.85 -1.64461 -0.693887 0
M  V30 10598 C 997.952 -3.15934 -1.22632 0
M  V30 10599 C 997.125 -4.32857 -0.628785 0
M  V30 10600 C 996.184 -5.01237 -1.60148 0
M  V30 10601 O 995.21 -5.57938 -1.12667 0
M  V30 10602 N 996.412 -5.00785 -2.9359 0
M  V30 10603 H 999.177 -2.94207 0.571145 0
M  V30 10604 H 996.738 -1.55517 0.450134 0
M  V30 10605 H 998.73 -3.58545 -1.87691 0
M  V30 10606 H 997.3 -2.52358 -1.84483 0
M  V30 10607 H 996.52 -3.93693 0.199951 0
M  V30 10608 H 997.808 -5.08367 -0.209845 0
M  V30 10609 H 997.206 -4.56014 -3.34765 0
M  V30 10610 H 995.763 -5.4725 -3.54064 0
M  V30 10611 N 999.196 -0.349774 -1.5367 0
M  V30 10612 C 1000.44 0.244343 -2.00617 0
M  V30 10613 C 1000.76 1.50567 -1.23914 0
M  V30 10614 O 1000.03 1.92784 -0.348016 0
M  V30 10615 H 998.615 0.0932792 -0.741153 0
M  V30 10616 H 1001.28 -0.472367 -1.89089 0
M  V30 10617 H 1000.37 0.482433 -3.08349 0
M  V30 10618 N 1000.67 1.57404 -0.0785433 0
M  V30 10619 C 1001.62 2.13104 0.88631 0
M  V30 10620 C 1002.59 1.04527 1.29086 0
M  V30 10621 O 1003.78 1.32226 1.37553 0
M  V30 10622 C 1000.92 2.70252 2.14611 0
M  V30 10623 C 1000.03 3.93007 1.79358 0
M  V30 10624 C 999.164 4.38376 3 0
M  V30 10625 C 998.203 5.53761 2.60796 0
M  V30 10626 N 997.34 5.94058 3.74219 0
M  V30 10627 H 1002.18 2.95243 0.404452 0
M  V30 10628 H 999.717 1.45894 0.187982 0
M  V30 10629 H 1001.67 3.01497 2.88367 0
M  V30 10630 H 1000.3 1.90868 2.60326 0
M  V30 10631 H 999.357 3.68181 0.956384 0
M  V30 10632 H 1000.67 4.76795 1.4652 0
M  V30 10633 H 999.823 4.71317 3.82027 0
M  V30 10634 H 998.562 3.53455 3.36037 0
M  V30 10635 H 997.567 5.20464 1.77192 0
M  V30 10636 H 998.792 6.40419 2.25922 0
M  V30 10637 H 996.738 5.12085 4.10005 0
M  V30 10638 H 996.655 6.72602 3.45171 0
M  V30 10639 H 997.923 6.31624 4.56805 0
M  V30 10640 N 1002.15 -0.195058 1.56388 0
M  V30 10641 C 1003.08 -1.26581 1.91076 0
M  V30 10642 C 1004.1 -1.41707 0.801436 0
M  V30 10643 O 1005.29 -1.42132 1.07985 0
M  V30 10644 C 1002.39 -2.63794 2.12758 0
M  V30 10645 C 1001.56 -2.70275 3.43904 0
M  V30 10646 C 1000.62 -3.88685 3.54698 0
M  V30 10647 O 999.644 -3.75786 4.2752 0
M  V30 10648 N 1000.85 -5.04141 2.87789 0
M  V30 10649 H 1003.61 -0.971401 2.83521 0
M  V30 10650 H 1001.17 -0.384976 1.57256 0
M  V30 10651 H 1003.16 -3.41434 2.17267 0
M  V30 10652 H 1001.73 -2.85723 1.26812 0
M  V30 10653 H 1000.95 -1.78909 3.51262 0
M  V30 10654 H 1002.24 -2.71597 4.30247 0
M  V30 10655 H 1001.64 -5.17519 2.28452 0
M  V30 10656 H 1000.2 -5.79727 2.97925 0
M  V30 10657 N 1003.63 -1.50653 -0.462772 0
M  V30 10658 C 1004.56 -1.73056 -1.5676 0
M  V30 10659 C 1005.54 -0.579699 -1.59917 0
M  V30 10660 O 1006.73 -0.819729 -1.76051 0
M  V30 10661 C 1003.86 -1.83234 -2.9503 0
M  V30 10662 C 1002.81 -2.98488 -3.06739 0
M  V30 10663 C 1002.14 -2.93818 -4.46738 0
M  V30 10664 C 1003.44 -4.38869 -2.83181 0
M  V30 10665 H 1005.13 -2.65562 -1.38265 0
M  V30 10666 H 1002.68 -1.27792 -0.663722 0
M  V30 10667 H 1004.63 -1.97491 -3.72257 0
M  V30 10668 H 1003.35 -0.873558 -3.14701 0
M  V30 10669 H 1002.01 -2.83895 -2.31946 0
M  V30 10670 H 1001.66 -1.95769 -4.63339 0
M  V30 10671 H 1001.36 -3.71197 -4.55507 0
M  V30 10672 H 1002.88 -3.10135 -5.25974 0
M  V30 10673 H 1004.3 -4.53945 -3.50153 0
M  V30 10674 H 1002.69 -5.17762 -3.03386 0
M  V30 10675 H 1003.76 -4.50663 -1.78972 0
M  V30 10676 N 1005.11 0.71652 -1.4037 0
M  V30 10677 C 1006.36 1.47193 -1.37903 0
M  V30 10678 C 1006.67 1.95593 0.0159939 0
M  V30 10679 O 1007.88 2.71009 0.163282 0
M  V30 10680 C 1006.33 2.6606 -2.42363 0
M  V30 10681 C 1005.94 2.24533 -3.87671 0
M  V30 10682 C 1007.68 3.438 -2.49001 0
M  V30 10683 C 1005.59 3.40234 -4.8373 0
M  V30 10684 H 1004.52 0.552811 -0.512753 0
M  V30 10685 H 1007.17 0.779894 -1.66102 0
M  V30 10686 H 1005.55 3.37429 -2.07262 0
M  V30 10687 H 1006.73 1.6059 -4.31911 0
M  V30 10688 H 1005.04 1.59839 -3.845 0
M  V30 10689 H 1007.64 4.29893 -3.17956 0
M  V30 10690 H 1007.98 3.8755 -1.52023 0
M  V30 10691 H 1008.52 2.79474 -2.83088 0
M  V30 10692 H 1005.26 3.01517 -5.82037 0
M  V30 10693 H 1004.78 4.03095 -4.44156 0
M  V30 10694 H 1006.45 4.06312 -5.03507 0
M  V30 10695 N 1006.59 1.25851 0.948643 0
M  V30 10696 C 1007.5 1.08516 2.07994 0
M  V30 10697 C 1008.51 0.0206696 1.73988 0
M  V30 10698 O 1009.69 0.222854 2.00163 0
M  V30 10699 C 1006.75 0.712145 3.39307 0
M  V30 10700 C 1005.81 1.85523 3.87143 0
M  V30 10701 C 1005.05 1.49992 5.1219 0
M  V30 10702 O 1005.27 0.398268 5.69008 0
M  V30 10703 O 1004.2 2.33215 5.54882 0
M  V30 10704 H 1008.03 2.03405 2.25522 0
M  V30 10705 H 1005.62 1.04844 1.06433 0
M  V30 10706 H 1007.5 0.516512 4.18223 0
M  V30 10707 H 1006.17 -0.207416 3.23035 0
M  V30 10708 H 1005.08 2.10578 3.09205 0
M  V30 10709 H 1006.41 2.75425 4.07924 0
M  V30 10710 N 1008.06 -1.15214 1.07534 0
M  V30 10711 C 1008.99 -2.2216 0.718837 0
M  V30 10712 C 1009.98 -1.6753 -0.29459 0
M  V30 10713 O 1011.16 -1.93481 -0.166931 0
M  V30 10714 C 1008.29 -3.471 0.117836 0
M  V30 10715 C 1007.24 -4.14701 1.05862 0
M  V30 10716 C 1006.57 -5.3374 0.320284 0
M  V30 10717 C 1007.87 -4.64254 2.39302 0
M  V30 10718 H 1009.56 -2.52237 1.61297 0
M  V30 10719 H 1007.11 -1.21239 0.776992 0
M  V30 10720 H 1009.06 -4.21156 -0.143519 0
M  V30 10721 H 1007.79 -3.16361 -0.811389 0
M  V30 10722 H 1006.45 -3.42589 1.30493 0
M  V30 10723 H 1006.09 -4.99257 -0.61246 0
M  V30 10724 H 1005.79 -5.79912 0.947381 0
M  V30 10725 H 1007.32 -6.10563 0.0667721 0
M  V30 10726 H 1008.73 -5.29827 2.18988 0
M  V30 10727 H 1007.13 -5.21095 2.97623 0
M  V30 10728 H 1008.2 -3.79793 3.01472 0
M  V30 10729 N 1009.54 -0.859717 -1.32086 0
M  V30 10730 C 1010.95 -0.519529 -1.79326 0
M  V30 10731 C 1011.3 0.96295 -1.70944 0
M  V30 10732 O 1010.43 1.75139 -1.27104 0
M  V30 10733 C 1011.02 -0.936267 -3.25606 0
M  V30 10734 C 1009.58 -0.647899 -3.70782 0
M  V30 10735 C 1008.73 -1.13323 -2.53087 0
M  V30 10736 H 1011.68 -1.04643 -1.19312 0
M  V30 10737 H 1011.7 -0.254714 -3.79646 0
M  V30 10738 H 1011.21 -2.01527 -3.31675 0
M  V30 10739 H 1009.32 0.420172 -3.70223 0
M  V30 10740 H 1009.43 -1.21774 -4.63366 0
M  V30 10741 H 1007.79 -0.553325 -2.48617 0
M  V30 10742 H 1008.58 -2.21945 -2.61907 0
M  V30 10743 N 1011.02 1.44971 -0.618145 0
M  V30 10744 C 1011.93 2.34403 0.0960457 0
M  V30 10745 C 1012.95 1.51862 0.849355 0
M  V30 10746 O 1014.12 1.84632 0.804557 0
M  V30 10747 C 1011.19 3.29646 1.07397 0
M  V30 10748 C 1010.25 4.28095 0.321466 0
M  V30 10749 C 1009.48 5.18787 1.25281 0
M  V30 10750 O 1009.7 5.1313 2.49106 0
M  V30 10751 O 1008.64 5.97282 0.744156 0
M  V30 10752 H 1012.46 2.96898 -0.639176 0
M  V30 10753 H 1010.05 1.44529 -0.37837 0
M  V30 10754 H 1011.93 3.88307 1.63694 0
M  V30 10755 H 1010.61 2.69702 1.79004 0
M  V30 10756 H 1009.51 3.73019 -0.284223 0
M  V30 10757 H 1010.85 4.90923 -0.354315 0
M  V30 10758 N 1012.5 0.357919 1.53482 0
M  V30 10759 C 1013.43 -0.484231 2.28424 0
M  V30 10760 C 1014.41 -1.09046 1.30548 0
M  V30 10761 O 1015.59 -1.10916 1.59409 0
M  V30 10762 C 1012.72 -1.62803 3.06778 0
M  V30 10763 C 1011.68 -1.14943 4.12277 0
M  V30 10764 C 1011 -2.38287 4.78669 0
M  V30 10765 C 1012.3 -0.239627 5.2175 0
M  V30 10766 H 1014 0.140979 2.99068 0
M  V30 10767 H 1011.54 0.069244 1.43833 0
M  V30 10768 H 1013.5 -2.22374 3.57949 0
M  V30 10769 H 1012.22 -2.28036 2.3381 0
M  V30 10770 H 1010.88 -0.576442 3.6204 0
M  V30 10771 H 1010.53 -3.01959 4.02281 0
M  V30 10772 H 1010.23 -2.06939 5.49955 0
M  V30 10773 H 1011.75 -2.98558 5.32631 0
M  V30 10774 H 1013.17 -0.742597 5.6847 0
M  V30 10775 H 1011.56 -0.0173747 6.00097 0
M  V30 10776 H 1012.63 0.720333 4.7952 0
M  V30 10777 N 1013.98 -1.5736 0.0868897 0
M  V30 10778 C 1015.39 -1.81356 -0.443499 0
M  V30 10779 C 1015.74 -1.00192 -1.68689 0
M  V30 10780 O 1014.86 -0.228863 -2.15186 0
M  V30 10781 C 1015.46 -3.28941 -0.811387 0
M  V30 10782 C 1014.02 -3.53729 -1.28656 0
M  V30 10783 C 1013.16 -2.75891 -0.279153 0
M  V30 10784 H 1016.12 -1.55594 0.312427 0
M  V30 10785 H 1016.14 -3.41815 -1.6716 0
M  V30 10786 H 1015.65 -3.87987 0.0937598 0
M  V30 10787 H 1013.75 -3.00005 -2.2097 0
M  V30 10788 H 1013.86 -4.62396 -1.25406 0
M  V30 10789 H 1012.23 -2.4311 -0.759595 0
M  V30 10790 H 1013.01 -3.37682 0.618529 0
M  V30 10791 N 1015.45 0.186762 -1.56489 0
M  V30 10792 C 1016.39 1.25565 -1.91745 0
M  V30 10793 C 1017.4 1.4128 -0.80894 0
M  V30 10794 O 1018.59 1.41558 -1.08737 0
M  V30 10795 C 1015.69 2.62662 -2.14154 0
M  V30 10796 C 1014.86 2.68448 -3.45333 0
M  V30 10797 C 1013.92 3.86798 -3.56754 0
M  V30 10798 O 1012.95 3.73514 -4.29507 0
M  V30 10799 N 1014.15 5.02607 -2.90459 0
M  V30 10800 H 1016.91 0.956351 -2.84032 0
M  V30 10801 H 1014.47 0.376631 -1.57458 0
M  V30 10802 H 1016.47 3.40277 -2.19075 0
M  V30 10803 H 1015.04 2.85046 -1.28326 0
M  V30 10804 H 1014.26 1.77044 -3.52206 0
M  V30 10805 H 1015.54 2.69311 -4.31682 0
M  V30 10806 H 1014.94 5.163 -2.31194 0
M  V30 10807 H 1013.5 5.78139 -3.00996 0
M  V30 10808 N 1016.93 1.50896 0.454776 0
M  V30 10809 C 1018.34 1.55372 1.0352 0
M  V30 10810 C 1018.69 0.366822 1.9274 0
M  V30 10811 O 1017.82 -0.518444 2.10098 0
M  V30 10812 C 1018.41 2.81574 1.88418 0
M  V30 10813 C 1016.97 2.88679 2.4154 0
M  V30 10814 C 1016.12 2.49847 1.20298 0
M  V30 10815 H 1019.07 1.56924 0.236729 0
M  V30 10816 H 1019.09 2.64352 2.73676 0
M  V30 10817 H 1018.6 3.67941 1.23455 0
M  V30 10818 H 1016.71 2.06702 3.10008 0
M  V30 10819 H 1016.82 3.91944 2.7553 0
M  V30 10820 H 1015.18 2.02651 1.54288 0
M  V30 10821 H 1015.97 3.3854 0.569723 0
M  V30 10822 N 1018.41 -0.709066 1.40748 0
M  V30 10823 C 1019.32 -1.85314 1.43861 0
M  V30 10824 C 1020.34 -1.70832 0.330539 0
M  V30 10825 O 1021.51 -1.92983 0.576152 0
M  V30 10826 C 1018.58 -3.21174 1.30568 0
M  V30 10827 C 1017.64 -3.47863 2.51574 0
M  V30 10828 C 1016.87 -4.77241 2.38906 0
M  V30 10829 O 1017.09 -5.52791 1.40636 0
M  V30 10830 O 1016.03 -5.04413 3.28407 0
M  V30 10831 H 1019.85 -1.85644 2.40354 0
M  V30 10832 H 1017.44 -0.860352 1.2214 0
M  V30 10833 H 1019.32 -4.02313 1.25388 0
M  V30 10834 H 1018 -3.21557 0.371841 0
M  V30 10835 H 1016.9 -2.66708 2.62331 0
M  V30 10836 H 1018.24 -3.52283 3.43741 0
M  V30 10837 N 1019.89 -1.26353 -0.941956 0
M  V30 10838 C 1021.11 -1.14731 -1.72776 0
M  V30 10839 C 1021.54 0.293766 -1.85792 0
M  V30 10840 O 1020.9 1.21284 -1.34759 0
M  V30 10841 C 1020.95 -1.82041 -3.11277 0
M  V30 10842 O 1020.05 -1.10867 -3.97218 0
M  V30 10843 H 1019.39 -0.399823 -0.53013 0
M  V30 10844 H 1021.92 -1.67157 -1.17981 0
M  V30 10845 H 1021.93 -1.88834 -3.61671 0
M  V30 10846 H 1020.61 -2.86879 -3.0112 0
M  V30 10847 H 1019.18 -1.12044 -3.55669 0
M  V30 10848 N 1021.37 1.14642 -1.08144 0
M  V30 10849 C 1022.33 2.17834 -0.712799 0
M  V30 10850 C 1023.33 1.58828 0.251041 0
M  V30 10851 O 1024.52 1.74173 0.0309381 0
M  V30 10852 C 1021.65 3.4086 -0.0519477 0
M  V30 10853 H 1022.85 2.51961 -1.62653 0
M  V30 10854 H 1020.4 1.29243 -0.878971 0
M  V30 10855 H 1021.13 3.12311 0.873636 0
M  V30 10856 H 1020.92 3.84952 -0.745286 0
M  V30 10857 H 1022.41 4.17163 0.191031 0
M  V30 10858 N 1022.85 0.866709 1.31628 0
M  V30 10859 C 1024.09 0.475086 1.96437 0
M  V30 10860 C 1024.41 -0.975179 1.68865 0
M  V30 10861 O 1023.68 -1.68317 1.0023 0
M  V30 10862 H 1022.26 0.172695 0.726764 0
M  V30 10863 H 1024.93 1.10578 1.60494 0
M  V30 10864 H 1024.02 0.630123 3.05673 0
M  V30 10865 N 1024.32 -1.44642 0.625825 0
M  V30 10866 C 1025.26 -2.28882 -0.120614 0
M  V30 10867 C 1026.27 -1.40985 -0.81407 0
M  V30 10868 O 1027.46 -1.65188 -0.676404 0
M  V30 10869 C 1024.56 -3.17217 -1.19274 0
M  V30 10870 C 1023.73 -4.33499 -0.582839 0
M  V30 10871 C 1022.79 -5.02908 -1.54823 0
M  V30 10872 O 1021.82 -5.59102 -1.06743 0
M  V30 10873 N 1023.02 -5.0387 -2.88262 0
M  V30 10874 H 1025.78 -2.93585 0.602318 0
M  V30 10875 H 1023.34 -1.5503 0.466604 0
M  V30 10876 H 1025.34 -3.60515 -1.83878 0
M  V30 10877 H 1023.91 -2.54301 -1.81797 0
M  V30 10878 H 1023.13 -3.93458 0.241696 0
M  V30 10879 H 1024.41 -5.08561 -0.155914 0
M  V30 10880 H 1023.81 -4.59539 -3.2991 0
M  V30 10881 H 1022.37 -5.50974 -3.4824 0
M  V30 10882 N 1025.8 -0.366053 -1.5329 0
M  V30 10883 C 1026.73 0.47211 -2.28677 0
M  V30 10884 C 1027.71 1.08353 -1.31125 0
M  V30 10885 O 1028.9 1.10069 -1.59995 0
M  V30 10886 C 1026.03 1.61174 -3.07637 0
M  V30 10887 C 1024.98 1.12755 -4.12881 0
M  V30 10888 C 1024.31 2.35745 -4.79925 0
M  V30 10889 C 1025.61 0.211954 -5.2187 0
M  V30 10890 H 1027.3 -0.156838 -2.98989 0
M  V30 10891 H 1024.85 -0.0768709 -1.43795 0
M  V30 10892 H 1026.8 2.20473 -3.59123 0
M  V30 10893 H 1025.52 2.26793 -2.35016 0
M  V30 10894 H 1024.18 0.557234 -3.6234 0
M  V30 10895 H 1023.83 2.99821 -4.03877 0
M  V30 10896 H 1023.53 2.04019 -5.51044 0
M  V30 10897 H 1025.06 2.95729 -5.34207 0
M  V30 10898 H 1026.47 0.71244 -5.68856 0
M  V30 10899 H 1024.87 -0.0144501 -6.00098 0
M  V30 10900 H 1025.94 -0.745753 -4.79131 0
M  V30 10901 N 1027.28 1.57312 -0.0952337 0
M  V30 10902 C 1028.53 1.95449 0.563155 0
M  V30 10903 C 1028.88 0.976396 1.65784 0
M  V30 10904 O 1028.17 0.00241533 1.916 0
M  V30 10905 C 1028.37 3.37937 1.16332 0
M  V30 10906 C 1028.2 4.49517 0.128308 0
M  V30 10907 C 1026.97 5.04437 -0.295252 0
M  V30 10908 C 1029.16 5.10257 -0.643571 0
M  V30 10909 N 1027.15 5.99573 -1.31852 0
M  V30 10910 C 1028.52 6.01113 -1.51867 0
M  V30 10911 C 1030.57 4.92996 -0.697074 0
M  V30 10912 C 1029.28 6.76559 -2.44256 0
M  V30 10913 C 1031.3 5.69104 -1.60857 0
M  V30 10914 C 1030.66 6.59626 -2.47129 0
M  V30 10915 H 1026.76 0.761844 0.176402 0
M  V30 10916 H 1029.35 1.93886 -0.177833 0
M  V30 10917 H 1027.52 3.40193 1.87413 0
M  V30 10918 H 1029.25 3.63253 1.78408 0
M  V30 10919 H 1026 4.7351 0.0925153 0
M  V30 10920 H 1026.43 6.51843 -1.82836 0
M  V30 10921 H 1031.07 4.22777 -0.0442422 0
M  V30 10922 H 1028.79 7.4604 -3.10564 0
M  V30 10923 H 1032.37 5.57761 -1.65511 0
M  V30 10924 H 1031.25 7.17487 -3.16515 0
M  V30 10925 N 1028.76 -0.17846 1.56586 0
M  V30 10926 C 1029.69 -1.22342 1.98884 0
M  V30 10927 C 1030.67 -1.46564 0.86331 0
M  V30 10928 O 1031.85 -1.58019 1.12887 0
M  V30 10929 C 1028.98 -2.56396 2.34261 0
M  V30 10930 C 1027.94 -2.46756 3.49708 0
M  V30 10931 C 1027.26 -3.85235 3.70807 0
M  V30 10932 C 1028.56 -1.97838 4.83381 0
M  V30 10933 H 1030.26 -0.871848 2.86425 0
M  V30 10934 H 1027.8 -0.417948 1.37801 0
M  V30 10935 H 1029.76 -3.29695 2.62448 0
M  V30 10936 H 1028.48 -2.93327 1.43621 0
M  V30 10937 H 1027.14 -1.75912 3.21637 0
M  V30 10938 H 1026.79 -4.19547 2.7747 0
M  V30 10939 H 1026.49 -3.79655 4.48481 0
M  V30 10940 H 1028.01 -4.60131 4.01387 0
M  V30 10941 H 1029.43 -2.60906 5.10491 0
M  V30 10942 H 1027.82 -2.03223 5.64642 0
M  V30 10943 H 1028.89 -0.932339 4.75852 0
M  V30 10944 N 1030.24 -1.51135 -0.446768 0
M  V30 10945 C 1031.46 -1.67129 -1.21965 0
M  V30 10946 C 1031.88 -0.36467 -1.85245 0
M  V30 10947 O 1031.24 0.655908 -1.70306 0
M  V30 10948 C 1031.29 -2.78016 -2.31061 0
M  V30 10949 O 1031.01 -4.03615 -1.70371 0
M  V30 10950 C 1032.51 -3.05197 -3.21511 0
M  V30 10951 H 1029.73 -0.561111 -0.367961 0
M  V30 10952 H 1032.27 -1.97499 -0.530517 0
M  V30 10953 H 1030.43 -2.50272 -2.95707 0
M  V30 10954 H 1030.84 -4.65126 -2.424 0
M  V30 10955 H 1032.32 -3.8639 -3.94216 0
M  V30 10956 H 1032.79 -2.17228 -3.81718 0
M  V30 10957 H 1033.4 -3.34565 -2.62577 0
M  V30 10958 N 1031.71 0.701592 -1.41122 0
M  V30 10959 C 1032.96 1.46376 -1.40363 0
M  V30 10960 C 1033.29 1.94197 -0.0105442 0
M  V30 10961 O 1032.57 1.69121 0.960637 0
M  V30 10962 C 1032.85 2.67994 -2.40523 0
M  V30 10963 C 1032.7 2.25977 -3.88914 0
M  V30 10964 C 1034.02 3.70181 -2.38022 0
M  V30 10965 H 1031.14 0.530929 -0.511159 0
M  V30 10966 H 1033.78 0.799588 -1.72356 0
M  V30 10967 H 1031.93 3.24661 -2.13372 0
M  V30 10968 H 1033.61 1.74684 -4.26946 0
M  V30 10969 H 1031.85 1.57826 -4.04071 0
M  V30 10970 H 1032.52 3.13215 -4.54533 0
M  V30 10971 H 1035 3.23174 -2.62103 0
M  V30 10972 H 1033.87 4.52894 -3.10127 0
M  V30 10973 H 1034.13 4.19458 -1.3967 0
M  V30 10974 N 1033.19 1.2685 0.935242 0
M  V30 10975 C 1034.61 1.04091 1.20984 0
M  V30 10976 C 1034.81 -0.230242 2.0018 0
M  V30 10977 O 1033.86 -0.93778 2.3444 0
M  V30 10978 C 1035.18 2.27586 1.96533 0
M  V30 10979 C 1036.72 2.32547 2.09501 0
M  V30 10980 C 1037.2 3.55751 2.88454 0
M  V30 10981 N 1038.69 3.56263 2.96025 0
M  V30 10982 C 1039.43 4.48262 3.57559 0
M  V30 10983 N 1038.92 5.50557 4.20546 0
M  V30 10984 N 1040.71 4.35901 3.5489 0
M  V30 10985 H 1032.87 2.08484 0.405954 0
M  V30 10986 H 1035.13 0.916548 0.242164 0
M  V30 10987 H 1034.83 3.20076 1.45753 0
M  V30 10988 H 1034.71 2.32305 2.97177 0
M  V30 10989 H 1037.1 1.40568 2.5947 0
M  V30 10990 H 1037.18 2.31836 1.08101 0
M  V30 10991 H 1036.82 4.48063 2.3917 0
M  V30 10992 H 1036.75 3.53711 3.90123 0
M  V30 10993 H 1039.24 2.82278 2.51252 0
M  V30 10994 H 1039.55 6.16935 4.65415 0
M  V30 10995 H 1037.9 5.54407 4.19115 0
M  V30 10996 H 1041.09 3.552 3.04879 0
M  V30 10997 H 1041.26 5.07792 4.02557 0
M  V30 10998 N 1034.67 -1.14067 1.0875 0
M  V30 10999 C 1035.92 -1.85459 0.82053 0
M  V30 11000 C 1036.25 -1.82923 -0.65213 0
M  V30 11001 O 1035.52 -1.26241 -1.47965 0
M  V30 11002 C 1035.81 -3.33937 1.34752 0
M  V30 11003 C 1035.66 -3.45026 2.88578 0
M  V30 11004 C 1036.98 -4.2915 0.975636 0
M  V30 11005 H 1034.1 -0.673384 0.299538 0
M  V30 11006 H 1036.74 -1.33927 1.34772 0
M  V30 11007 H 1034.89 -3.77953 0.899086 0
M  V30 11008 H 1036.56 -3.09771 3.41818 0
M  V30 11009 H 1034.81 -2.86124 3.26061 0
M  V30 11010 H 1035.48 -4.49408 3.20526 0
M  V30 11011 H 1037.95 -3.93168 1.36228 0
M  V30 11012 H 1036.83 -5.31489 1.37152 0
M  V30 11013 H 1037.09 -4.41945 -0.116956 0
M  V30 11014 N 1036.15 -0.873678 -1.31166 0
M  V30 11015 C 1037.39 -0.487178 -1.96861 0
M  V30 11016 C 1037.73 0.95887 -1.68877 0
M  V30 11017 O 1037 1.6758 -0.987279 0
M  V30 11018 C 1037.29 -0.74925 -3.52219 0
M  V30 11019 C 1037.14 -2.2451 -3.89763 0
M  V30 11020 C 1038.46 -0.218194 -4.39559 0
M  V30 11021 H 1035.58 -0.178477 -0.715063 0
M  V30 11022 H 1038.22 -1.0956 -1.55231 0
M  V30 11023 H 1036.37 -0.231403 -3.8781 0
M  V30 11024 H 1038.04 -2.83049 -3.64254 0
M  V30 11025 H 1036.28 -2.71621 -3.38237 0
M  V30 11026 H 1036.95 -2.37911 -4.98099 0
M  V30 11027 H 1039.43 -0.661274 -4.10812 0
M  V30 11028 H 1038.31 -0.430983 -5.47205 0
M  V30 11029 H 1038.57 0.880056 -4.33252 0
M  V30 11030 N 1037.63 1.44308 -0.633487 0
M  V30 11031 C 1038.56 2.28943 0.108474 0
M  V30 11032 C 1039.57 1.41415 0.806582 0
M  V30 11033 O 1040.76 1.65544 0.667634 0
M  V30 11034 C 1037.86 3.17845 1.1759 0
M  V30 11035 C 1037.03 4.33802 0.559842 0
M  V30 11036 C 1036.09 5.03722 1.52154 0
M  V30 11037 O 1035.12 5.5966 1.03776 0
M  V30 11038 N 1036.32 5.05392 2.85586 0
M  V30 11039 H 1039.09 2.93262 -0.617879 0
M  V30 11040 H 1036.65 1.54781 -0.474819 0
M  V30 11041 H 1038.64 3.61485 1.81963 0
M  V30 11042 H 1037.21 2.55261 1.80445 0
M  V30 11043 H 1036.43 3.93325 -0.262559 0
M  V30 11044 H 1037.72 5.08637 0.128942 0
M  V30 11045 H 1037.11 4.61282 3.27468 0
M  V30 11046 H 1035.67 5.52813 3.45313 0
M  V30 11047 N 1039.1 0.374177 1.53094 0
M  V30 11048 C 1040.52 -0.103172 1.86415 0
M  V30 11049 C 1040.87 -1.47439 1.29446 0
M  V30 11050 O 1039.99 -2.07333 0.619853 0
M  V30 11051 C 1040.59 -0.193988 3.38244 0
M  V30 11052 C 1039.15 -0.615605 3.71332 0
M  V30 11053 C 1038.29 0.23186 2.76329 0
M  V30 11054 H 1041.24 0.592644 1.47219 0
M  V30 11055 H 1041.26 -1.01597 3.66686 0
M  V30 11056 H 1040.78 0.80414 3.79678 0
M  V30 11057 H 1038.88 -1.62165 3.3546 0
M  V30 11058 H 1038.99 -0.38425 4.77557 0
M  V30 11059 H 1037.35 -0.300579 2.5292 0
M  V30 11060 H 1038.14 1.22769 3.20597 0
M  V30 11061 N 1040.58 -1.57259 0.103575 0
M  V30 11062 C 1041.53 -2.15727 -0.869739 0
M  V30 11063 C 1042.52 -1.10236 -1.28625 0
M  V30 11064 O 1043.73 -1.28567 -1.25979 0
M  V30 11065 H 1040.11 -0.690204 -0.298535 0
M  V30 11066 H 1042.08 -2.96317 -0.351984 0
M  V30 11067 C 1040.83 -2.75905 -2.11593 0
M  V30 11068 H 1040.15 -3.56768 -1.80434 0
M  V30 11069 H 1041.59 -3.20373 -2.77736 0
M  V30 11070 C 1040.05 -1.72218 -2.89556 0
M  V30 11071 O 1040.58 -1.16623 -3.84398 0
M  V30 11072 N 1038.78 -1.42514 -2.53255 0
M  V30 11073 H 1038.33 -1.87914 -1.76198 0
M  V30 11074 H 1038.29 -0.733782 -3.05717 0
M  V30 11075 N 1042.06 0.170153 -1.56679 0
M  V30 11076 C 1043.02 1.19443 -1.95617 0
M  V30 11077 C 1044.02 1.37118 -0.83996 0
M  V30 11078 O 1045.21 1.34504 -1.10699 0
M  V30 11079 C 1042.35 2.55926 -2.25199 0
M  V30 11080 H 1043.54 0.86095 -2.87276 0
M  V30 11081 H 1041.09 0.412646 -1.50755 0
M  V30 11082 H 1041.83 2.94286 -1.36257 0
M  V30 11083 H 1041.61 2.44464 -3.06562 0
M  V30 11084 H 1043.1 3.29742 -2.56242 0
M  V30 11085 N 1043.54 1.5137 0.438746 0
M  V30 11086 C 1044.77 1.67774 1.21077 0
M  V30 11087 C 1045.18 0.374489 1.85049 0
M  V30 11088 O 1044.54 -0.646867 1.70651 0
M  V30 11089 C 1044.59 2.79238 2.29584 0
M  V30 11090 O 1044.31 4.04513 1.68228 0
M  V30 11091 C 1045.81 3.06898 3.19888 0
M  V30 11092 H 1043.03 0.563054 0.364981 0
M  V30 11093 H 1045.58 1.97777 0.520035 0
M  V30 11094 H 1043.73 2.51837 2.94375 0
M  V30 11095 H 1044.14 4.66405 2.3993 0
M  V30 11096 H 1045.62 3.88476 3.92162 0
M  V30 11097 H 1046.1 2.19249 3.80561 0
M  V30 11098 H 1046.7 3.35952 2.60799 0
M  V30 11099 N 1045.02 -0.694098 1.41492 0
M  V30 11100 C 1045.98 -1.78976 1.43179 0
M  V30 11101 C 1046.98 -1.57539 0.322191 0
M  V30 11102 O 1048.17 -1.64185 0.582138 0
M  V30 11103 C 1045.3 -3.17368 1.2446 0
M  V30 11104 H 1046.49 -1.78874 2.40716 0
M  V30 11105 H 1044.05 -0.901867 1.27656 0
M  V30 11106 H 1044.78 -3.23109 0.277691 0
M  V30 11107 H 1044.57 -3.3433 2.04856 0
M  V30 11108 H 1046.06 -3.97345 1.28479 0
M  V30 11109 N 1046.49 -1.27344 -0.928501 0
M  V30 11110 C 1047.74 -1.14813 -1.67897 0
M  V30 11111 C 1048.1 0.303129 -1.89997 0
M  V30 11112 O 1047.39 1.21844 -1.47867 0
M  V30 11113 C 1047.58 -1.86439 -3.04918 0
M  V30 11114 C 1047.41 -3.38381 -2.96189 0
M  V30 11115 C 1046.18 -4.07698 -2.98514 0
M  V30 11116 C 1048.38 -4.3437 -2.75367 0
M  V30 11117 N 1046.36 -5.46215 -2.80218 0
M  V30 11118 C 1047.73 -5.60149 -2.65768 0
M  V30 11119 C 1049.79 -4.2447 -2.60249 0
M  V30 11120 C 1048.49 -6.77157 -2.42593 0
M  V30 11121 C 1050.52 -5.41198 -2.3845 0
M  V30 11122 C 1049.88 -6.65933 -2.29593 0
M  V30 11123 H 1045.98 -0.47499 -0.621215 0
M  V30 11124 H 1048.56 -1.60802 -1.09776 0
M  V30 11125 H 1046.73 -1.42907 -3.61154 0
M  V30 11126 H 1048.46 -1.6642 -3.68899 0
M  V30 11127 H 1045.22 -3.59158 -3.08711 0
M  V30 11128 H 1045.64 -6.18985 -2.74203 0
M  V30 11129 H 1050.29 -3.28756 -2.65856 0
M  V30 11130 H 1048 -7.72955 -2.35725 0
M  V30 11131 H 1051.59 -5.35417 -2.27639 0
M  V30 11132 H 1050.47 -7.54732 -2.12952 0
M  V30 11133 N 1047.97 1.13488 -1.09353 0
M  V30 11134 C 1049.2 1.89133 -0.85108 0
M  V30 11135 C 1049.62 1.78542 0.591976 0
M  V30 11136 O 1048.98 1.13243 1.41583 0
M  V30 11137 C 1049.03 3.36736 -1.29001 0
M  V30 11138 O 1048.13 4.09959 -0.447993 0
M  V30 11139 H 1047.47 0.58809 -0.308296 0
M  V30 11140 H 1050 1.43593 -1.45747 0
M  V30 11141 H 1050.01 3.87564 -1.27508 0
M  V30 11142 H 1048.69 3.43762 -2.34095 0
M  V30 11143 H 1047.27 3.69155 -0.52717 0
M  V30 11144 N 1049.45 0.880621 1.30701 0
M  V30 11145 C 1050.36 0.348034 2.32004 0
M  V30 11146 C 1051.38 -0.547508 1.65162 0
M  V30 11147 O 1052.55 -0.441673 1.96497 0
M  V30 11148 C 1049.62 -0.432585 3.43991 0
M  V30 11149 C 1048.68 0.492189 4.26469 0
M  V30 11150 C 1047.91 -0.25127 5.33108 0
M  V30 11151 O 1048.14 -1.47795 5.5092 0
M  V30 11152 O 1047.07 0.396376 6.00593 0
M  V30 11153 H 1050.9 1.18798 2.79501 0
M  V30 11154 H 1048.48 0.64432 1.34792 0
M  V30 11155 H 1050.36 -0.874733 4.12221 0
M  V30 11156 H 1049.04 -1.2489 2.98637 0
M  V30 11157 H 1047.94 0.983058 3.60953 0
M  V30 11158 H 1049.28 1.27439 4.75416 0
M  V30 11159 N 1050.93 -1.4397 0.641131 0
M  V30 11160 C 1051.89 -2.29149 -0.0482243 0
M  V30 11161 C 1052.89 -1.41572 -0.762495 0
M  V30 11162 O 1054.08 -1.63335 -0.605571 0
M  V30 11163 C 1051.21 -3.23375 -1.07896 0
M  V30 11164 H 1052.41 -2.9159 0.70109 0
M  V30 11165 H 1049.96 -1.51048 0.401754 0
M  V30 11166 H 1050.7 -2.65804 -1.85792 0
M  V30 11167 H 1050.48 -3.87926 -0.570597 0
M  V30 11168 H 1051.97 -3.87337 -1.56075 0
M  V30 11169 N 1052.41 -0.382291 -1.52893 0
M  V30 11170 C 1053.66 0.201734 -2.01091 0
M  V30 11171 C 1053.98 1.47905 -1.2708 0
M  V30 11172 O 1053.25 1.92002 -0.38883 0
M  V30 11173 H 1051.83 0.0775373 -0.742965 0
M  V30 11174 H 1054.49 -0.512369 -1.88045 0
M  V30 11175 H 1053.58 0.416919 -3.09303 0
M  V30 11176 N 1053.89 1.57202 -0.111913 0
M  V30 11177 C 1054.84 2.11487 0.851897 0
M  V30 11178 C 1055.82 1.03392 1.23284 0
M  V30 11179 O 1057.01 1.29638 1.20511 0
M  V30 11180 C 1054.14 2.71219 2.10464 0
M  V30 11181 C 1053.23 3.86384 1.74838 0
M  V30 11182 N 1053.62 4.93727 1.09852 0
M  V30 11183 C 1051.92 3.96435 2.04341 0
M  V30 11184 C 1052.62 5.74184 0.93209 0
M  V30 11185 N 1051.59 5.23771 1.45482 0
M  V30 11186 H 1055.39 2.91859 0.345791 0
M  V30 11187 H 1052.91 1.62146 0.0907816 0
M  V30 11188 H 1054.91 3.08449 2.80472 0
M  V30 11189 H 1053.57 1.92308 2.61625 0
M  V30 11190 H 1054.58 5.12244 0.763334 0
M  V30 11191 H 1051.25 3.28556 2.57599 0
M  V30 11192 H 1052.64 6.7057 0.422542 0
M  V30 11193 N 1055.36 -0.161842 1.56767 0
M  V30 11194 C 1056.61 -0.875278 1.81719 0
M  V30 11195 C 1056.93 -1.82998 0.690739 0
M  V30 11196 O 1058.13 -2.58648 0.82545 0
M  V30 11197 C 1056.59 -1.60703 3.22029 0
M  V30 11198 C 1056.2 -0.695486 4.42569 0
M  V30 11199 C 1057.94 -2.30813 3.56266 0
M  V30 11200 C 1055.85 -1.42801 5.73901 0
M  V30 11201 H 1054.78 -0.330591 0.677662 0
M  V30 11202 H 1057.43 -0.128112 1.83052 0
M  V30 11203 H 1055.81 -2.39929 3.1504 0
M  V30 11204 H 1056.98 0.0604882 4.6076 0
M  V30 11205 H 1055.3 -0.10356 4.16271 0
M  V30 11206 H 1057.9 -2.86229 4.51638 0
M  V30 11207 H 1058.24 -3.06603 2.81604 0
M  V30 11208 H 1058.77 -1.5852 3.64851 0
M  V30 11209 H 1055.51 -0.712253 6.51619 0
M  V30 11210 H 1055.03 -2.15707 5.5967 0
M  V30 11211 H 1056.71 -1.97295 6.16185 0
M  V30 11212 N 1056.84 -1.516 -0.430713 0
M  V30 11213 C 1058.07 -1.687 -1.20644 0
M  V30 11214 C 1058.49 -0.386555 -1.84085 0
M  V30 11215 O 1057.85 0.653952 -1.69095 0
M  V30 11216 C 1057.9 -2.80887 -2.2613 0
M  V30 11217 O 1057 -2.44952 -3.31772 0
M  V30 11218 H 1056.34 -0.562289 -0.353167 0
M  V30 11219 H 1058.87 -1.98198 -0.507807 0
M  V30 11220 H 1058.88 -3.05167 -2.70809 0
M  V30 11221 H 1057.56 -3.75249 -1.79334 0
M  V30 11222 H 1056.13 -2.31267 -2.92523 0
M  V30 11223 N 1058.32 0.686584 -1.41858 0
M  V30 11224 C 1059.28 1.78214 -1.44126 0
M  V30 11225 C 1060.28 1.57366 -0.330541 0
M  V30 11226 O 1061.47 1.63874 -0.590837 0
M  V30 11227 C 1058.6 3.16704 -1.26142 0
M  V30 11228 H 1059.8 1.77594 -2.41661 0
M  V30 11229 H 1057.35 0.895085 -1.28132 0
M  V30 11230 H 1058.09 3.22957 -0.294823 0
M  V30 11231 H 1057.87 3.33238 -2.06627 0
M  V30 11232 H 1059.36 3.96658 -1.30584 0
M  V30 11233 N 1059.8 1.27835 0.921735 0
M  V30 11234 C 1061.04 1.15702 1.67286 0
M  V30 11235 C 1061.4 -0.293049 1.90155 0
M  V30 11236 O 1060.69 -1.21058 1.48511 0
M  V30 11237 C 1060.89 1.88054 3.03925 0
M  V30 11238 C 1060.71 3.39947 2.94391 0
M  V30 11239 C 1059.48 4.09275 2.96347 0
M  V30 11240 C 1061.68 4.35824 2.7306 0
M  V30 11241 N 1059.66 5.47694 2.77317 0
M  V30 11242 C 1061.04 5.61551 2.62794 0
M  V30 11243 C 1063.09 4.25844 2.57994 0
M  V30 11244 C 1061.79 6.78434 2.38998 0
M  V30 11245 C 1063.82 5.42455 2.35577 0
M  V30 11246 C 1063.18 6.67141 2.26058 0
M  V30 11247 H 1059.28 0.478278 0.618687 0
M  V30 11248 H 1061.86 1.61382 1.08922 0
M  V30 11249 H 1060.04 1.4482 3.60391 0
M  V30 11250 H 1061.77 1.68374 3.68011 0
M  V30 11251 H 1058.52 3.6079 3.06802 0
M  V30 11252 H 1058.95 6.2043 2.70916 0
M  V30 11253 H 1063.59 3.30161 2.64109 0
M  V30 11254 H 1061.31 7.74194 2.31623 0
M  V30 11255 H 1064.89 5.36617 2.24796 0
M  V30 11256 H 1063.77 7.55851 2.08947 0
M  V30 11257 N 1061.28 -1.12907 1.09954 0
M  V30 11258 C 1062.21 -2.18194 0.701701 0
M  V30 11259 C 1063.22 -1.60724 -0.259131 0
M  V30 11260 O 1064.41 -1.78445 -0.0443549 0
M  V30 11261 C 1061.51 -3.38897 0.0140602 0
M  V30 11262 C 1060.68 -4.25867 0.997807 0
M  V30 11263 C 1059.74 -5.25084 0.34257 0
M  V30 11264 O 1058.77 -5.60492 0.991857 0
M  V30 11265 N 1059.97 -5.73464 -0.901058 0
M  V30 11266 H 1062.73 -2.52939 1.60755 0
M  V30 11267 H 1060.3 -1.28281 0.987703 0
M  V30 11268 H 1062.29 -4.02349 -0.435628 0
M  V30 11269 H 1060.86 -3.02345 -0.794118 0
M  V30 11270 H 1060.08 -3.59107 1.6259 0
M  V30 11271 H 1061.37 -4.80825 1.66388 0
M  V30 11272 H 1060.76 -5.46854 -1.44802 0
M  V30 11273 H 1059.32 -6.38827 -1.29398 0
M  V30 11274 N 1062.75 -0.88754 -1.30232 0
M  V30 11275 C 1063.69 -0.313488 -2.27046 0
M  V30 11276 C 1064.7 0.533383 -1.53814 0
M  V30 11277 O 1065.89 0.352516 -1.74984 0
M  V30 11278 C 1062.99 0.572674 -3.34026 0
M  V30 11279 C 1062.16 -0.245712 -4.36709 0
M  V30 11280 C 1061.22 0.57135 -5.23089 0
M  V30 11281 O 1060.25 -0.00685948 -5.692 0
M  V30 11282 N 1061.45 1.87994 -5.49216 0
M  V30 11283 H 1064.21 -1.14553 -2.76943 0
M  V30 11284 H 1061.77 -0.750785 -1.43439 0
M  V30 11285 H 1063.77 1.12539 -3.88738 0
M  V30 11286 H 1062.34 1.3054 -2.84039 0
M  V30 11287 H 1061.56 -0.979869 -3.81827 0
M  V30 11288 H 1062.84 -0.806618 -5.02366 0
M  V30 11289 H 1062.24 2.3726 -5.13541 0
M  V30 11290 H 1060.8 2.38005 -6.06792 0
M  V30 11291 N 1064.23 1.43628 -0.648757 0
M  V30 11292 C 1065.48 2.02695 -0.169158 0
M  V30 11293 C 1065.83 1.50239 1.20191 0
M  V30 11294 O 1065.13 0.684018 1.78974 0
M  V30 11295 C 1065.32 3.57214 -0.115282 0
M  V30 11296 C 1065.15 4.24663 -1.47959 0
M  V30 11297 C 1063.92 4.60917 -2.07084 0
M  V30 11298 C 1066.12 4.53962 -2.41708 0
M  V30 11299 N 1064.1 5.13416 -3.36566 0
M  V30 11300 C 1065.47 5.07733 -3.55819 0
M  V30 11301 C 1067.53 4.35927 -2.40566 0
M  V30 11302 C 1066.23 5.45367 -4.69007 0
M  V30 11303 C 1068.25 4.7462 -3.52831 0
M  V30 11304 C 1067.62 5.2852 -4.65667 0
M  V30 11305 H 1063.72 0.774751 -0.106227 0
M  V30 11306 H 1066.3 1.74869 -0.85609 0
M  V30 11307 H 1064.47 3.84614 0.54098 0
M  V30 11308 H 1066.2 4.02961 0.374775 0
M  V30 11309 H 1062.96 4.45812 -1.59841 0
M  V30 11310 H 1063.38 5.44124 -4.02813 0
M  V30 11311 H 1068.02 3.93533 -1.54569 0
M  V30 11312 H 1065.74 5.86707 -5.55698 0
M  V30 11313 H 1069.33 4.62364 -3.53144 0
M  V30 11314 H 1068.21 5.57906 -5.511 0
M  V30 11315 N 1065.71 0.390394 1.52688 0
M  V30 11316 C 1067.13 0.0404028 1.59549 0
M  V30 11317 C 1067.33 -1.44503 1.40432 0
M  V30 11318 O 1066.38 -2.20968 1.22187 0
M  V30 11319 C 1067.7 0.518561 2.96195 0
M  V30 11320 C 1069.24 0.474913 3.09376 0
M  V30 11321 C 1069.72 0.929278 4.48473 0
M  V30 11322 N 1071.21 0.885335 4.5466 0
M  V30 11323 C 1071.94 1.2083 5.60524 0
M  V30 11324 N 1071.44 1.6018 6.74028 0
M  V30 11325 N 1073.23 1.12949 5.50635 0
M  V30 11326 H 1065.38 1.35743 1.63363 0
M  V30 11327 H 1067.65 0.556453 0.767505 0
M  V30 11328 H 1067.35 1.55606 3.15404 0
M  V30 11329 H 1067.23 -0.081779 3.77111 0
M  V30 11330 H 1069.61 -0.553503 2.89863 0
M  V30 11331 H 1069.7 1.11107 2.3041 0
M  V30 11332 H 1069.34 1.95593 4.68728 0
M  V30 11333 H 1069.27 0.270121 5.25907 0
M  V30 11334 H 1071.76 0.595787 3.73174 0
M  V30 11335 H 1072.07 1.83184 7.50775 0
M  V30 11336 H 1070.42 1.64067 6.75357 0
M  V30 11337 H 1073.61 0.821074 4.60843 0
M  V30 11338 H 1073.78 1.3845 6.33037 0
M  V30 11339 N 1067.19 -1.57141 0.120249 0
M  V30 11340 C 1068.12 -2.18398 -0.826112 0
M  V30 11341 C 1069.1 -1.12439 -1.27638 0
M  V30 11342 O 1070.28 -1.40679 -1.33877 0
M  V30 11343 C 1067.41 -2.78438 -2.0758 0
M  V30 11344 C 1066.37 -3.89991 -1.76327 0
M  V30 11345 C 1065.69 -4.36844 -3.08336 0
M  V30 11346 C 1066.99 -5.12031 -1.03062 0
M  V30 11347 H 1068.69 -2.97731 -0.315656 0
M  V30 11348 H 1066.23 -1.43213 -0.150387 0
M  V30 11349 H 1068.19 -3.19951 -2.74243 0
M  V30 11350 H 1066.91 -1.96396 -2.60953 0
M  V30 11351 H 1065.57 -3.49055 -1.12053 0
M  V30 11352 H 1065.22 -3.51659 -3.59646 0
M  V30 11353 H 1064.92 -5.1207 -2.88199 0
M  V30 11354 H 1066.44 -4.81009 -3.76116 0
M  V30 11355 H 1067.86 -5.50555 -1.59881 0
M  V30 11356 H 1066.25 -5.92848 -0.930146 0
M  V30 11357 H 1067.32 -4.84897 -0.017582 0
M  V30 11358 N 1068.67 0.153526 -1.5685 0
M  V30 11359 C 1069.63 1.17362 -1.96873 0
M  V30 11360 C 1070.63 1.36219 -0.854456 0
M  V30 11361 O 1071.82 1.33322 -1.1212 0
M  V30 11362 C 1068.95 2.53523 -2.27901 0
M  V30 11363 H 1070.14 0.830432 -2.88173 0
M  V30 11364 H 1067.7 0.396633 -1.51184 0
M  V30 11365 H 1068.43 2.92824 -1.39371 0
M  V30 11366 H 1068.22 2.41198 -3.09137 0
M  V30 11367 H 1069.71 3.27006 -2.59725 0
M  V30 11368 N 1070.14 1.51827 0.422667 0
M  V30 11369 C 1071.05 1.77066 1.53899 0
M  V30 11370 C 1072.07 0.655541 1.61179 0
M  V30 11371 O 1073.25 0.939448 1.78147 0
M  V30 11372 C 1070.31 1.90372 2.89758 0
M  V30 11373 C 1069.37 3.14256 2.92475 0
M  V30 11374 C 1068.61 3.26918 4.21853 0
M  V30 11375 O 1068.83 2.45164 5.15025 0
M  V30 11376 O 1067.76 4.19989 4.31153 0
M  V30 11377 H 1071.59 2.71791 1.35511 0
M  V30 11378 H 1069.17 1.36506 0.607165 0
M  V30 11379 H 1071.06 2.01024 3.70361 0
M  V30 11380 H 1069.73 0.988347 3.08242 0
M  V30 11381 H 1068.64 3.09072 2.10773 0
M  V30 11382 H 1069.97 4.0553 2.78937 0
M  V30 11383 N 1071.62 -0.679052 1.4222 0
M  V30 11384 C 1072.57 -1.81398 1.45594 0
M  V30 11385 C 1073.56 -1.66112 0.332127 0
M  V30 11386 O 1074.77 -1.72772 0.504942 0
M  V30 11387 H 1071.15 -0.598045 0.455902 0
M  V30 11388 H 1073.12 -1.7567 2.41211 0
M  V30 11389 C 1071.87 -3.19525 1.37109 0
M  V30 11390 H 1071.19 -3.31912 2.22878 0
M  V30 11391 H 1072.63 -3.98967 1.43531 0
M  V30 11392 C 1071.09 -3.36792 0.0853593 0
M  V30 11393 O 1071.62 -3.92309 -0.863532 0
M  V30 11394 N 1069.82 -2.906 0.00389229 0
M  V30 11395 H 1069.37 -2.45607 0.776846 0
M  V30 11396 H 1069.33 -3.0253 -0.855742 0
M  V30 11397 N 1073.1 -1.28322 -0.914942 0
M  V30 11398 C 1074.03 -1.14681 -2.03398 0
M  V30 11399 C 1075.01 -0.0448939 -1.70041 0
M  V30 11400 O 1076.2 -0.221672 -1.92931 0
M  V30 11401 C 1073.33 -0.806623 -3.37803 0
M  V30 11402 C 1072.28 -1.86318 -3.85318 0
M  V30 11403 C 1071.61 -1.37665 -5.16674 0
M  V30 11404 C 1072.91 -3.26953 -4.07307 0
M  V30 11405 H 1074.6 -2.08293 -2.15068 0
M  V30 11406 H 1072.15 -1.00284 -1.03339 0
M  V30 11407 H 1074.1 -0.69796 -4.1558 0
M  V30 11408 H 1072.82 0.165203 -3.26182 0
M  V30 11409 H 1071.48 -1.96096 -3.09745 0
M  V30 11410 H 1071.13 -0.393927 -5.01455 0
M  V30 11411 H 1070.83 -2.08313 -5.49435 0
M  V30 11412 H 1072.35 -1.28119 -5.97007 0
M  V30 11413 H 1073.77 -3.20102 -4.75613 0
M  V30 11414 H 1072.17 -3.95424 -4.51398 0
M  V30 11415 H 1073.24 -3.71059 -3.12159 0
M  V30 11416 N 1074.58 1.12322 -1.10551 0
M  V30 11417 C 1075.8 1.8822 -0.871093 0
M  V30 11418 C 1076.23 1.7916 0.573005 0
M  V30 11419 O 1075.59 1.14738 1.40374 0
M  V30 11420 C 1075.63 3.35349 -1.32565 0
M  V30 11421 O 1074.74 4.09461 -0.49145 0
M  V30 11422 H 1074.08 0.584787 -0.314516 0
M  V30 11423 H 1076.61 1.42039 -1.47262 0
M  V30 11424 H 1076.62 3.86189 -1.31612 0
M  V30 11425 H 1075.29 3.4126 -2.37728 0
M  V30 11426 H 1073.87 3.68575 -0.566294 0
M  V30 11427 N 1076.06 0.894434 1.2976 0
M  V30 11428 C 1077.3 0.518435 1.96061 0
M  V30 11429 C 1077.64 -0.931882 1.70381 0
M  V30 11430 O 1076.91 -1.65988 1.01381 0
M  V30 11431 C 1077.19 0.80519 3.50982 0
M  V30 11432 C 1077.05 2.30683 3.86142 0
M  V30 11433 C 1078.37 0.288096 4.39156 0
M  V30 11434 H 1075.48 0.18983 0.712133 0
M  V30 11435 H 1078.13 1.12016 1.53468 0
M  V30 11436 H 1076.28 0.293071 3.87393 0
M  V30 11437 H 1077.95 2.88808 3.59705 0
M  V30 11438 H 1076.19 2.76968 3.33873 0
M  V30 11439 H 1076.86 2.45805 4.94251 0
M  V30 11440 H 1079.34 0.726547 4.09708 0
M  V30 11441 H 1078.21 0.517985 5.4645 0
M  V30 11442 H 1078.48 -0.811018 4.34597 0
M  V30 11443 N 1077.53 -1.43282 0.656365 0
M  V30 11444 C 1078.76 -2.06125 0.178879 0
M  V30 11445 C 1079.18 -1.49216 -1.15672 0
M  V30 11446 O 1078.53 -0.624693 -1.71475 0
M  V30 11447 C 1078.59 -3.614 0.0851785 0
M  V30 11448 O 1078.31 -4.16194 1.36798 0
M  V30 11449 C 1079.81 -4.41325 -0.41801 0
M  V30 11450 H 1077.03 -0.664753 0.0913504 0
M  V30 11451 H 1079.57 -1.83733 0.897901 0
M  V30 11452 H 1077.73 -3.82966 -0.584421 0
M  V30 11453 H 1078.14 -5.09892 1.22924 0
M  V30 11454 H 1079.61 -5.50303 -0.432519 0
M  V30 11455 H 1080.09 -4.14577 -1.44991 0
M  V30 11456 H 1080.7 -4.24735 0.219208 0
M  V30 11457 N 1079.01 -0.398486 -1.52479 0
M  V30 11458 C 1079.94 0.423498 -2.29627 0
M  V30 11459 C 1080.92 1.05547 -1.33394 0
M  V30 11460 O 1082.11 1.0665 -1.62294 0
M  V30 11461 C 1079.24 1.54612 -3.10986 0
M  V30 11462 C 1078.19 1.03971 -4.15179 0
M  V30 11463 C 1077.52 2.25512 -4.84818 0
M  V30 11464 C 1078.82 0.10121 -5.22202 0
M  V30 11465 H 1080.51 -0.220222 -2.98589 0
M  V30 11466 H 1078.06 -0.107355 -1.43599 0
M  V30 11467 H 1080.01 2.12806 -3.63719 0
M  V30 11468 H 1078.74 2.21756 -2.39774 0
M  V30 11469 H 1077.4 0.480251 -3.63441 0
M  V30 11470 H 1077.04 2.91187 -4.10145 0
M  V30 11471 H 1076.74 1.92285 -5.55248 0
M  V30 11472 H 1078.27 2.84331 -5.40359 0
M  V30 11473 H 1079.68 0.591617 -5.70239 0
M  V30 11474 H 1078.08 -0.141737 -5.99933 0
M  V30 11475 H 1079.15 -0.847216 -4.77441 0
M  V30 11476 N 1080.49 1.57075 -0.12858 0
M  V30 11477 C 1081.9 1.82468 0.39526 0
M  V30 11478 C 1082.25 1.0463 1.65973 0
M  V30 11479 O 1081.38 0.285835 2.14504 0
M  V30 11480 C 1081.97 3.30976 0.723889 0
M  V30 11481 C 1080.53 3.57016 1.19232 0
M  V30 11482 C 1079.68 2.76534 0.205907 0
M  V30 11483 H 1082.63 1.54711 -0.353571 0
M  V30 11484 H 1082.65 3.46127 1.58039 0
M  V30 11485 H 1082.16 3.87602 -0.196595 0
M  V30 11486 H 1080.26 3.05758 2.12938 0
M  V30 11487 H 1080.38 4.65558 1.13103 0
M  V30 11488 H 1078.74 2.45038 0.694872 0
M  V30 11489 H 1079.52 3.35923 -0.707842 0
M  V30 11490 N 1081.97 -0.145205 1.5693 0
M  V30 11491 C 1082.93 -1.16316 1.97492 0
M  V30 11492 C 1083.93 -1.35764 0.861668 0
M  V30 11493 O 1085.12 -1.32726 1.12825 0
M  V30 11494 C 1082.25 -2.52311 2.29242 0
M  V30 11495 H 1083.45 -0.815138 2.8861 0
M  V30 11496 H 1081 -0.38861 1.51392 0
M  V30 11497 H 1081.74 -2.92081 1.40922 0
M  V30 11498 H 1081.52 -2.39555 3.10412 0
M  V30 11499 H 1083.01 -3.25624 2.61456 0
M  V30 11500 N 1083.45 -1.52049 -0.414609 0
M  V30 11501 C 1084.41 -1.74382 -1.4874 0
M  V30 11502 C 1085.41 -0.613701 -1.48628 0
M  V30 11503 O 1086.6 -0.88152 -1.50249 0
M  V30 11504 C 1083.73 -1.82116 -2.88178 0
M  V30 11505 H 1084.93 -2.70147 -1.30233 0
M  V30 11506 H 1082.48 -1.42382 -0.644756 0
M  V30 11507 H 1083.21 -0.882457 -3.12063 0
M  V30 11508 H 1083 -2.64268 -2.89663 0
M  V30 11509 H 1084.49 -2.01155 -3.65959 0
M  V30 11510 N 1084.93 0.6715 -1.42579 0
M  V30 11511 C 1086.15 1.46471 -1.46836 0
M  V30 11512 C 1086.58 1.87921 -0.0820658 0
M  V30 11513 O 1085.93 1.5621 0.920217 0
M  V30 11514 C 1085.98 2.68796 -2.40377 0
M  V30 11515 O 1085.09 3.67188 -1.87741 0
M  V30 11516 H 1084.43 0.439901 -0.497376 0
M  V30 11517 H 1086.96 0.823342 -1.87303 0
M  V30 11518 H 1086.97 3.16828 -2.57068 0
M  V30 11519 H 1085.64 2.37967 -3.41093 0
M  V30 11520 H 1084.22 3.26237 -1.80621 0
M  V30 11521 N 1086.4 1.28806 0.908124 0
M  V30 11522 C 1087.35 1.09849 1.99793 0
M  V30 11523 C 1088.34 0.0204321 1.60887 0
M  V30 11524 O 1089.53 0.241204 1.75349 0
M  V30 11525 C 1086.66 0.768263 3.34593 0
M  V30 11526 C 1085.74 1.88544 3.79884 0
M  V30 11527 N 1086.14 3.12784 3.97492 0
M  V30 11528 C 1084.43 1.77657 4.09089 0
M  V30 11529 C 1085.13 3.85615 4.35518 0
M  V30 11530 N 1084.11 3.13501 4.44092 0
M  V30 11531 H 1087.91 2.04108 2.11464 0
M  V30 11532 H 1085.43 1.19807 1.09636 0
M  V30 11533 H 1087.42 0.613521 4.12361 0
M  V30 11534 H 1086.08 -0.166501 3.24273 0
M  V30 11535 H 1087.09 3.48333 3.83255 0
M  V30 11536 H 1083.77 0.913956 4.07373 0
M  V30 11537 H 1085.16 4.92492 4.57057 0
M  V30 11538 N 1087.88 -1.11734 1.11145 0
M  V30 11539 C 1088.84 -2.15868 0.770303 0
M  V30 11540 C 1089.84 -1.59438 -0.208842 0
M  V30 11541 O 1091.03 -1.74193 0.0152516 0
M  V30 11542 C 1088.17 -3.40603 0.142303 0
M  V30 11543 H 1089.36 -2.4756 1.69276 0
M  V30 11544 H 1086.91 -1.26867 0.912929 0
M  V30 11545 H 1087.65 -3.14517 -0.790526 0
M  V30 11546 H 1087.43 -3.8284 0.847087 0
M  V30 11547 H 1088.92 -4.17523 -0.0803608 0
M  V30 11548 N 1089.36 -0.901303 -1.29284 0
M  V30 11549 C 1090.61 -0.52401 -1.94774 0
M  V30 11550 C 1090.92 0.934645 -1.71825 0
M  V30 11551 O 1092.13 1.41953 -2.31434 0
M  V30 11552 C 1090.58 -0.886262 -3.48817 0
M  V30 11553 C 1090.19 -2.3638 -3.80564 0
M  V30 11554 C 1091.94 -0.578955 -4.20533 0
M  V30 11555 C 1089.84 -2.66682 -5.27858 0
M  V30 11556 H 1088.77 -0.192244 -0.72908 0
M  V30 11557 H 1091.42 -1.09852 -1.46986 0
M  V30 11558 H 1089.81 -0.240666 -3.95268 0
M  V30 11559 H 1090.98 -3.05508 -3.44966 0
M  V30 11560 H 1089.29 -2.64029 -3.2199 0
M  V30 11561 H 1091.89 -0.782185 -5.28948 0
M  V30 11562 H 1092.23 0.482605 -4.13493 0
M  V30 11563 H 1092.77 -1.18246 -3.79819 0
M  V30 11564 H 1089.51 -3.71643 -5.39965 0
M  V30 11565 H 1089.03 -2.02179 -5.64698 0
M  V30 11566 H 1090.71 -2.53033 -5.95469 0
M  V30 11567 N 1090.84 1.42931 -0.663954 0
M  V30 11568 C 1092.25 1.84877 -0.260283 0
M  V30 11569 C 1092.6 1.5558 1.19538 0
M  V30 11570 O 1091.72 1.01015 1.91377 0
M  V30 11571 C 1092.32 3.35585 -0.465618 0
M  V30 11572 C 1090.88 3.76221 -0.116169 0
M  V30 11573 C 1090.03 2.66587 -0.763317 0
M  V30 11574 H 1092.98 1.32932 -0.866882 0
M  V30 11575 H 1093 3.79427 0.285608 0
M  V30 11576 H 1092.51 3.56877 -1.52515 0
M  V30 11577 H 1090.61 3.60539 0.940342 0
M  V30 11578 H 1090.72 4.75943 -0.549123 0
M  V30 11579 H 1089.09 2.53948 -0.19559 0
M  V30 11580 H 1089.87 2.90704 -1.82609 0
M  V30 11581 N 1092.32 0.406567 1.52266 0
M  V30 11582 C 1093.27 -0.437483 2.23763 0
M  V30 11583 C 1094.25 -1.01557 1.248 0
M  V30 11584 O 1095.44 -0.938813 1.50051 0
M  V30 11585 C 1092.57 -1.55499 3.06064 0
M  V30 11586 C 1091.66 -0.987799 4.12436 0
M  V30 11587 N 1092.05 -0.147044 5.05586 0
M  V30 11588 C 1090.35 -1.25857 4.27874 0
M  V30 11589 C 1091.05 0.168229 5.81457 0
M  V30 11590 N 1090.02 -0.440245 5.41814 0
M  V30 11591 H 1093.82 0.211203 2.9314 0
M  V30 11592 H 1091.34 0.216843 1.60946 0
M  V30 11593 H 1093.34 -2.17224 3.55836 0
M  V30 11594 H 1092 -2.20632 2.38226 0
M  V30 11595 H 1093.01 0.217062 5.17445 0
M  V30 11596 H 1089.68 -1.90967 3.71265 0
M  V30 11597 H 1091.07 0.850516 6.66495 0
M  V30 11598 N 1093.79 -1.57004 0.136909 0
M  V30 11599 C 1094.72 -2.19262 -0.802902 0
M  V30 11600 C 1095.71 -1.13786 -1.26439 0
M  V30 11601 O 1096.89 -1.42091 -1.32377 0
M  V30 11602 C 1094.02 -2.80624 -2.04615 0
M  V30 11603 C 1092.97 -3.91839 -1.72181 0
M  V30 11604 C 1092.3 -4.4009 -3.03686 0
M  V30 11605 C 1093.6 -5.13095 -0.976249 0
M  V30 11606 H 1095.29 -2.98049 -0.28406 0
M  V30 11607 H 1092.84 -1.43364 -0.135189 0
M  V30 11608 H 1094.79 -3.22842 -2.70834 0
M  V30 11609 H 1093.52 -1.99153 -2.58855 0
M  V30 11610 H 1092.18 -3.50224 -1.08344 0
M  V30 11611 H 1091.82 -3.55454 -3.55896 0
M  V30 11612 H 1091.52 -5.15098 -2.82751 0
M  V30 11613 H 1093.05 -4.84971 -3.70993 0
M  V30 11614 H 1094.46 -5.5222 -1.54033 0
M  V30 11615 H 1092.86 -5.93801 -0.867214 0
M  V30 11616 H 1093.93 -4.84888 0.0338488 0
M  V30 11617 N 1095.27 0.136881 -1.57004 0
M  V30 11618 C 1096.5 0.862436 -1.88068 0
M  V30 11619 C 1096.92 1.74274 -0.726227 0
M  V30 11620 O 1096.27 1.79956 0.30366 0
M  V30 11621 C 1096.32 1.71076 -3.18458 0
M  V30 11622 O 1096.04 0.865918 -4.29457 0
M  V30 11623 C 1097.55 2.54302 -3.63105 0
M  V30 11624 H 1094.77 0.248865 -0.623143 0
M  V30 11625 H 1097.31 0.126633 -2.04108 0
M  V30 11626 H 1095.46 2.39951 -3.04142 0
M  V30 11627 H 1095.88 1.4493 -5.04079 0
M  V30 11628 H 1097.35 3.09384 -4.57149 0
M  V30 11629 H 1097.83 3.3082 -2.88886 0
M  V30 11630 H 1098.44 1.907 -3.80149 0
M  V30 11631 N 1096.75 1.52266 0.40654 0
M  V30 11632 C 1097.98 1.70304 1.17491 0
M  V30 11633 C 1098.39 0.413656 1.84213 0
M  V30 11634 O 1097.75 -0.610524 1.71985 0
M  V30 11635 C 1097.8 2.84045 2.23609 0
M  V30 11636 O 1097.52 4.0799 1.5961 0
M  V30 11637 C 1099.02 3.13614 3.13306 0
M  V30 11638 H 1096.24 0.570669 0.352955 0
M  V30 11639 H 1098.79 1.98836 0.477967 0
M  V30 11640 H 1096.94 2.58025 2.88967 0
M  V30 11641 H 1097.36 4.7139 2.29983 0
M  V30 11642 H 1098.83 3.96707 3.83833 0
M  V30 11643 H 1099.31 2.27272 3.75824 0
M  V30 11644 H 1099.91 3.41409 2.53614 0
M  V30 11645 N 1098.23 -0.663929 1.42933 0
M  V30 11646 C 1099.45 -1.45691 1.47611 0
M  V30 11647 C 1099.88 -1.87875 0.0920305 0
M  V30 11648 O 1099.24 -1.56696 -0.91192 0
M  V30 11649 C 1099.28 -2.67517 2.41799 0
M  V30 11650 O 1098.39 -3.66187 1.89686 0
M  V30 11651 H 1097.73 -0.437257 0.499702 0
M  V30 11652 H 1100.26 -0.813397 1.87737 0
M  V30 11653 H 1100.27 -3.1546 2.58745 0
M  V30 11654 H 1098.94 -2.36155 3.4235 0
M  V30 11655 H 1097.52 -3.25274 1.82349 0
M  V30 11656 N 1099.71 -1.29285 -0.901281 0
M  V30 11657 C 1100.62 -1.16161 -2.03823 0
M  V30 11658 C 1101.63 -0.0852298 -1.73791 0
M  V30 11659 O 1102.81 -0.29699 -1.99198 0
M  V30 11660 C 1099.87 -0.837586 -3.3643 0
M  V30 11661 C 1098.93 -1.99764 -3.7999 0
M  V30 11662 C 1098.17 -1.68898 -5.0627 0
M  V30 11663 O 1098.39 -0.609177 -5.67138 0
M  V30 11664 O 1097.32 -2.53648 -5.45845 0
M  V30 11665 H 1101.15 -2.11635 -2.17817 0
M  V30 11666 H 1098.74 -1.08722 -1.02468 0
M  V30 11667 H 1100.62 -0.671376 -4.16017 0
M  V30 11668 H 1099.29 0.0873811 -3.23582 0
M  V30 11669 H 1098.2 -2.21908 -3.01177 0
M  V30 11670 H 1099.53 -2.90376 -3.9742 0
M  V30 11671 N 1101.18 1.11143 -1.11736 0
M  V30 11672 C 1102.12 2.16467 -0.722299 0
M  V30 11673 C 1103.1 1.60118 0.283006 0
M  V30 11674 O 1104.28 1.87651 0.178696 0
M  V30 11675 C 1101.41 3.38632 -0.0679339 0
M  V30 11676 C 1100.45 4.13654 -1.03888 0
M  V30 11677 S 1101.29 4.70187 -2.5629 0
M  V30 11678 C 1102.44 5.95671 -1.92163 0
M  V30 11679 H 1102.67 2.49644 -1.61447 0
M  V30 11680 H 1100.21 1.22816 -0.935708 0
M  V30 11681 H 1102.17 4.09378 0.303253 0
M  V30 11682 H 1100.83 3.03709 0.80124 0
M  V30 11683 H 1100.02 5.01221 -0.528522 0
M  V30 11684 H 1099.62 3.48683 -1.35265 0
M  V30 11685 H 1101.91 6.65681 -1.25994 0
M  V30 11686 H 1102.86 6.51357 -2.77741 0
M  V30 11687 H 1103.26 5.47359 -1.3805 0
M  V30 11688 N 1102.66 0.908147 1.28804 0
M  V30 11689 C 1103.94 0.457561 1.90173 0
M  V30 11690 C 1104.32 -1.06333 1.82364 0
M  V30 11691 O 1103.67 -1.90892 1.25589 0
M  V30 11692 C 1103.88 0.981624 3.34911 0
M  V30 11693 C 1105.23 1.03037 4.11908 0
M  V30 11694 O 1106.25 0.929878 3.43848 0
M  V30 11695 O 1105.11 1.18257 5.33552 0
M  V30 11696 H 1102.2 0.144081 0.814352 0
M  V30 11697 H 1104.75 0.998565 1.37211 0
M  V30 11698 H 1103.52 2.02561 3.34791 0
M  V30 11699 H 1103.14 0.421122 3.95364 0
M  V30 11700 N 1104.14 -1.42577 0.671525 0
M  V30 11701 C 1105.39 -2.01584 0.192431 0
M  V30 11702 C 1105.72 -1.53076 -1.19992 0
M  V30 11703 O 1104.97 -0.722196 -1.81887 0
M  V30 11704 C 1105.27 -3.56985 0.172097 0
M  V30 11705 C 1104.94 -4.24912 1.50867 0
M  V30 11706 C 1103.6 -4.43182 1.87464 0
M  V30 11707 C 1105.95 -4.6322 2.38908 0
M  V30 11708 C 1103.28 -4.97031 3.11732 0
M  V30 11709 C 1105.63 -5.18447 3.62485 0
M  V30 11710 C 1104.29 -5.34932 3.99255 0
M  V30 11711 H 1103.56 -0.737647 0.0704155 0
M  V30 11712 H 1106.21 -1.70807 0.865862 0
M  V30 11713 H 1104.52 -3.87411 -0.584835 0
M  V30 11714 H 1106.21 -4.00419 -0.215749 0
M  V30 11715 H 1102.8 -4.11048 1.21397 0
M  V30 11716 H 1106.99 -4.4878 2.1192 0
M  V30 11717 H 1102.24 -5.07979 3.40246 0
M  V30 11718 H 1106.42 -5.47075 4.30909 0
M  V30 11719 H 1104.04 -5.76422 4.95623 0
M  V30 11720 N 1105.62 -0.414636 -1.52048 0
M  V30 11721 C 1106.86 0.158807 -2.03782 0
M  V30 11722 C 1107.22 1.41912 -1.29325 0
M  V30 11723 O 1108.42 2.07136 -1.71313 0
M  V30 11724 C 1106.69 0.395092 -3.55209 0
M  V30 11725 S 1108.25 0.935193 -4.28719 0
M  V30 11726 H 1105.07 0.0424729 -0.70973 0
M  V30 11727 H 1107.67 -0.568822 -1.87042 0
M  V30 11728 H 1106.38 -0.528875 -4.06978 0
M  V30 11729 H 1105.91 1.15044 -3.76203 0
M  V30 11730 H 1107.92 2.21519 -4.44009 0
M  V30 11731 N 1107.1 1.56929 -0.145233 0
M  V30 11732 C 1108.35 1.95243 0.506273 0
M  V30 11733 C 1108.66 1.0325 1.66129 0
M  V30 11734 O 1109.86 1.31135 2.37731 0
M  V30 11735 C 1108.32 3.47079 0.952042 0
M  V30 11736 C 1107.93 4.47654 -0.175947 0
M  V30 11737 C 1109.67 3.94263 1.57344 0
M  V30 11738 C 1107.58 5.90698 0.287993 0
M  V30 11739 H 1106.51 0.728906 0.192903 0
M  V30 11740 H 1109.16 1.82062 -0.229295 0
M  V30 11741 H 1107.54 3.55587 1.74282 0
M  V30 11742 H 1108.72 4.50841 -0.952848 0
M  V30 11743 H 1107.03 4.10377 -0.70564 0
M  V30 11744 H 1109.63 4.9857 1.93214 0
M  V30 11745 H 1109.97 3.35714 2.46174 0
M  V30 11746 H 1110.5 3.88665 0.847593 0
M  V30 11747 H 1107.24 6.53061 -0.564889 0
M  V30 11748 H 1106.76 5.90876 1.03081 0
M  V30 11749 H 1108.44 6.42747 0.740586 0
M  V30 11750 N 1108.58 -0.128553 1.57075 0
M  V30 11751 C 1109.49 -1.17718 2.02927 0
M  V30 11752 C 1110.5 -1.45912 0.947932 0
M  V30 11753 O 1111.68 -1.57217 1.25876 0
M  V30 11754 C 1108.74 -2.48625 2.41633 0
M  V30 11755 C 1107.8 -2.27914 3.63804 0
M  V30 11756 C 1107.04 -3.52579 4.00654 0
M  V30 11757 O 1107.26 -4.59505 3.37952 0
M  V30 11758 O 1106.19 -3.44147 4.93808 0
M  V30 11759 H 1110.02 -0.817846 2.92481 0
M  V30 11760 H 1107.6 -0.338649 1.45511 0
M  V30 11761 H 1109.49 -3.2577 2.67305 0
M  V30 11762 H 1108.16 -2.84052 1.55229 0
M  V30 11763 H 1107.07 -1.4866 3.43294 0
M  V30 11764 H 1108.4 -1.97395 4.50883 0
M  V30 11765 N 1110.05 -1.5248 -0.398459 0
M  V30 11766 C 1110.98 -1.79549 -1.49279 0
M  V30 11767 C 1111.96 -0.647004 -1.57315 0
M  V30 11768 O 1113.15 -0.893661 -1.72416 0
M  V30 11769 C 1110.28 -1.95582 -2.86993 0
M  V30 11770 C 1109.23 -3.1123 -2.93803 0
M  V30 11771 C 1108.56 -3.12501 -4.33874 0
M  V30 11772 C 1109.86 -4.50485 -2.64312 0
M  V30 11773 H 1111.55 -2.71187 -1.26877 0
M  V30 11774 H 1109.1 -1.30492 -0.608924 0
M  V30 11775 H 1111.05 -2.13102 -3.63546 0
M  V30 11776 H 1109.78 -1.00625 -3.10712 0
M  V30 11777 H 1108.44 -2.93477 -2.19697 0
M  V30 11778 H 1108.08 -2.15245 -4.54619 0
M  V30 11779 H 1107.78 -3.90183 -4.39353 0
M  V30 11780 H 1109.31 -3.32164 -5.12347 0
M  V30 11781 H 1110.72 -4.68387 -3.30585 0
M  V30 11782 H 1109.12 -5.30163 -2.81153 0
M  V30 11783 H 1110.19 -4.57848 -1.59696 0
M  V30 11784 N 1111.53 0.65634 -1.43283 0
M  V30 11785 C 1112.78 1.41347 -1.44449 0
M  V30 11786 C 1113.1 1.94879 -0.0687217 0
M  V30 11787 O 1112.37 1.74235 0.895492 0
M  V30 11788 H 1110.95 0.524578 -0.531815 0
M  V30 11789 H 1113.61 0.774292 -1.7886 0
M  V30 11790 H 1112.71 2.25737 -2.15521 0
M  V30 11791 N 1113.01 1.29761 0.894412 0
M  V30 11792 C 1113.96 1.15232 2.0205 0
M  V30 11793 C 1114.95 0.0665664 1.69269 0
M  V30 11794 O 1116.16 0.226746 1.78566 0
M  V30 11795 H 1112.53 0.356102 0.662341 0
M  V30 11796 H 1114.5 2.10559 2.11442 0
M  V30 11797 C 1113.25 0.851143 3.37121 0
M  V30 11798 H 1112.58 1.67865 3.62852 0
M  V30 11799 H 1114.02 0.78954 4.16584 0
M  V30 11800 C 1112.47 -0.445737 3.33938 0
M  V30 11801 O 1113 -1.47017 3.7383 0
M  V30 11802 N 1111.21 -0.453493 2.8704 0
M  V30 11803 H 1110.76 0.380636 2.54772 0
M  V30 11804 H 1110.72 -1.32119 2.85293 0
M  V30 11805 N 1114.49 -1.10549 1.12324 0
M  V30 11806 C 1115.43 -2.16858 0.790024 0
M  V30 11807 C 1116.4 -1.64317 -0.242694 0
M  V30 11808 O 1117.59 -1.90438 -0.117531 0
M  V30 11809 C 1114.73 -3.44197 0.249503 0
M  V30 11810 C 1113.84 -4.10696 1.33989 0
M  V30 11811 C 1112.98 -5.25751 0.758932 0
M  V30 11812 C 1112.02 -5.8415 1.82853 0
M  V30 11813 N 1111.15 -6.90585 1.26637 0
M  V30 11814 H 1115.99 -2.44705 1.7007 0
M  V30 11815 H 1113.53 -1.20117 0.849141 0
M  V30 11816 H 1115.49 -4.1712 -0.0819251 0
M  V30 11817 H 1114.12 -3.16705 -0.624332 0
M  V30 11818 H 1113.17 -3.35754 1.78812 0
M  V30 11819 H 1114.48 -4.50144 2.14875 0
M  V30 11820 H 1113.64 -6.05521 0.378104 0
M  V30 11821 H 1112.38 -4.87632 -0.0811405 0
M  V30 11822 H 1111.38 -5.03051 2.21856 0
M  V30 11823 H 1112.61 -6.24333 2.6718 0
M  V30 11824 H 1110.55 -6.54468 0.448105 0
M  V30 11825 H 1110.47 -7.28739 2.01184 0
M  V30 11826 H 1111.74 -7.74138 0.912737 0
M  V30 11827 N 1115.97 -0.914965 -1.28321 0
M  V30 11828 C 1117.38 -0.613297 -1.47346 0
M  V30 11829 C 1117.58 0.84106 -1.83108 0
M  V30 11830 O 1116.64 1.62004 -1.93678 0
M  V30 11831 C 1117.95 -1.55224 -2.57538 0
M  V30 11832 C 1119.5 -1.55909 -2.71407 0
M  V30 11833 C 1119.97 -2.48468 -3.84744 0
M  V30 11834 N 1121.46 -2.46602 -3.92099 0
M  V30 11835 C 1122.2 -3.14917 -4.79182 0
M  V30 11836 N 1121.7 -3.92566 -5.70845 0
M  V30 11837 N 1123.49 -3.03998 -4.72802 0
M  V30 11838 H 1115.64 -1.85539 -1.03388 0
M  V30 11839 H 1117.9 -0.795875 -0.515061 0
M  V30 11840 H 1117.61 -2.58917 -2.38023 0
M  V30 11841 H 1117.48 -1.28426 -3.54664 0
M  V30 11842 H 1119.87 -0.52953 -2.9031 0
M  V30 11843 H 1119.95 -1.86751 -1.74808 0
M  V30 11844 H 1119.59 -3.51526 -3.66595 0
M  V30 11845 H 1119.52 -2.14928 -4.80743 0
M  V30 11846 H 1122.02 -1.90199 -3.26547 0
M  V30 11847 H 1122.33 -4.41709 -6.34123 0
M  V30 11848 H 1120.67 -3.96671 -5.70681 0
M  V30 11849 H 1123.86 -2.42839 -4.00184 0
M  V30 11850 H 1124.04 -3.57511 -5.40454 0
M  V30 11851 N 1117.44 1.42219 -0.679077 0
M  V30 11852 C 1118.69 2.02291 -0.212115 0
M  V30 11853 C 1119.04 1.52755 1.16977 0
M  V30 11854 O 1118.34 0.721827 1.77483 0
M  V30 11855 C 1118.53 3.56889 -0.191027 0
M  V30 11856 C 1118.36 4.21429 -1.56933 0
M  V30 11857 C 1117.13 4.5642 -2.16814 0
M  V30 11858 C 1119.33 4.48733 -2.51283 0
M  V30 11859 N 1117.31 5.06162 -3.47381 0
M  V30 11860 C 1118.68 5.00072 -3.66508 0
M  V30 11861 C 1120.74 4.30726 -2.49758 0
M  V30 11862 C 1119.44 5.35296 -4.80469 0
M  V30 11863 C 1121.47 4.67029 -3.62819 0
M  V30 11864 C 1120.83 5.18524 -4.76773 0
M  V30 11865 H 1116.93 0.772324 -0.122637 0
M  V30 11866 H 1119.51 1.73014 -0.89299 0
M  V30 11867 H 1117.68 3.85675 0.459276 0
M  V30 11868 H 1119.41 4.03665 0.289217 0
M  V30 11869 H 1116.17 4.42321 -1.69261 0
M  V30 11870 H 1116.59 5.35457 -4.14264 0
M  V30 11871 H 1121.23 3.90166 -1.62882 0
M  V30 11872 H 1118.95 5.74788 -5.68018 0
M  V30 11873 H 1122.54 4.54769 -3.62872 0
M  V30 11874 H 1121.42 5.4609 -5.6281 0
M  V30 11875 N 1118.92 0.422693 1.51826 0
M  V30 11876 C 1119.85 -0.43167 2.25098 0
M  V30 11877 C 1120.87 -0.998758 1.28564 0
M  V30 11878 O 1122.06 -0.89539 1.54418 0
M  V30 11879 C 1119.16 -1.61426 2.97985 0
M  V30 11880 C 1118.33 -1.16866 4.21499 0
M  V30 11881 C 1117.39 -2.2197 4.77091 0
M  V30 11882 O 1116.41 -1.82004 5.39317 0
M  V30 11883 N 1117.62 -3.54293 4.59844 0
M  V30 11884 H 1120.38 0.196255 2.99057 0
M  V30 11885 H 1117.94 0.25079 1.59946 0
M  V30 11886 H 1119.93 -2.31331 3.32066 0
M  V30 11887 H 1118.5 -2.14783 2.27128 0
M  V30 11888 H 1117.72 -0.297217 3.93078 0
M  V30 11889 H 1119.01 -0.848106 5.01682 0
M  V30 11890 H 1118.41 -3.89505 4.10247 0
M  V30 11891 H 1116.97 -4.20135 4.98327 0
M  V30 11892 N 1120.4 -1.5685 0.153553 0
M  V30 11893 C 1121.65 -1.96334 -0.495915 0
M  V30 11894 C 1121.97 -1.03873 -1.64441 0
M  V30 11895 O 1121.23 -0.069231 -1.95578 0
M  V30 11896 C 1121.53 -3.42022 -1.0371 0
M  V30 11897 C 1121.19 -4.509 -0.00637049 0
M  V30 11898 C 1119.86 -4.80402 0.276956 0
M  V30 11899 C 1122.21 -5.16556 0.694187 0
M  V30 11900 C 1119.54 -5.72866 1.26653 0
M  V30 11901 C 1121.89 -6.10087 1.67263 0
M  V30 11902 C 1120.55 -6.37965 1.96359 0
M  V30 11903 H 1119.82 -0.718436 -0.181468 0
M  V30 11904 H 1122.47 -1.89968 0.241768 0
M  V30 11905 H 1120.77 -3.45252 -1.85225 0
M  V30 11906 H 1122.47 -3.69903 -1.54831 0
M  V30 11907 H 1119.06 -4.27942 -0.237378 0
M  V30 11908 H 1123.25 -4.9389 0.488496 0
M  V30 11909 H 1118.5 -5.92756 1.49833 0
M  V30 11910 H 1122.68 -6.60036 2.22094 0
M  V30 11911 H 1120.3 -7.09416 2.73189 0
M  V30 11912 N 1121.88 0.120221 -1.57141 0
M  V30 11913 C 1122.83 1.16654 -2.01233 0
M  V30 11914 C 1123.82 1.42943 -0.909053 0
M  V30 11915 O 1125.03 1.4292 -1.09426 0
M  V30 11916 H 1121.4 0.393289 -0.640958 0
M  V30 11917 H 1123.37 0.768156 -2.88343 0
M  V30 11918 C 1122.12 2.4854 -2.43152 0
M  V30 11919 H 1121.44 2.29149 -3.27614 0
M  V30 11920 H 1122.88 3.20315 -2.77802 0
M  V30 11921 C 1121.34 3.1103 -1.29468 0
M  V30 11922 O 1121.87 3.97042 -0.609982 0
M  V30 11923 N 1120.08 2.70888 -1.05205 0
M  V30 11924 H 1119.63 2.01039 -1.61062 0
M  V30 11925 H 1119.58 3.13028 -0.293347 0
M  V30 11926 N 1123.36 1.52689 0.390367 0
M  V30 11927 C 1124.77 1.41909 0.730338 0
M  V30 11928 C 1124.97 0.538427 1.94173 0
M  V30 11929 O 1124.03 0.0113527 2.52497 0
M  V30 11930 C 1125.34 2.84737 0.966714 0
M  V30 11931 C 1126.89 2.94206 1.06827 0
M  V30 11932 C 1127.36 4.38042 1.33728 0
M  V30 11933 N 1128.86 4.4136 1.40553 0
M  V30 11934 C 1129.59 5.49735 1.63031 0
M  V30 11935 N 1129.09 6.68197 1.82988 0
M  V30 11936 N 1130.88 5.37276 1.65199 0
M  V30 11937 H 1123.03 2.08469 -0.406766 0
M  V30 11938 H 1125.29 0.940401 -0.11979 0
M  V30 11939 H 1125 3.51385 0.148725 0
M  V30 11940 H 1124.87 3.26909 1.88176 0
M  V30 11941 H 1127.26 2.27726 1.87683 0
M  V30 11942 H 1127.34 2.55463 0.131168 0
M  V30 11943 H 1126.99 5.05087 0.533832 0
M  V30 11944 H 1126.92 4.74336 2.28721 0
M  V30 11945 H 1129.41 3.55976 1.26844 0
M  V30 11946 H 1129.72 7.46567 1.99643 0
M  V30 11947 H 1128.06 6.71228 1.80215 0
M  V30 11948 H 1131.26 4.437 1.49158 0
M  V30 11949 H 1131.43 6.21806 1.82377 0
M  V30 11950 N 1124.83 -0.648732 1.43629 0
M  V30 11951 C 1125.77 -1.77417 1.45107 0
M  V30 11952 C 1126.78 -1.59067 0.346618 0
M  V30 11953 O 1127.97 -1.67705 0.611322 0
M  V30 11954 C 1125.07 -3.14906 1.25249 0
M  V30 11955 C 1124.24 -3.59874 2.48616 0
M  V30 11956 C 1123.3 -4.76181 2.23916 0
M  V30 11957 O 1122.33 -4.8539 2.97296 0
M  V30 11958 N 1123.53 -5.66691 1.25862 0
M  V30 11959 H 1126.29 -1.76626 2.42123 0
M  V30 11960 H 1123.85 -0.832725 1.38843 0
M  V30 11961 H 1125.85 -3.90408 1.06601 0
M  V30 11962 H 1124.42 -3.10443 0.366623 0
M  V30 11963 H 1123.64 -2.74768 2.82659 0
M  V30 11964 H 1124.92 -3.86665 3.30708 0
M  V30 11965 H 1124.32 -5.61927 0.652227 0
M  V30 11966 H 1122.88 -6.41895 1.13196 0
M  V30 11967 N 1126.31 -1.30234 -0.887518 0
M  V30 11968 C 1127.54 -1.21955 -1.67755 0
M  V30 11969 C 1127.96 0.214701 -1.86871 0
M  V30 11970 O 1127.32 1.15459 -1.39782 0
M  V30 11971 C 1127.37 -1.95079 -3.03276 0
M  V30 11972 O 1126.47 -1.27615 -3.92158 0
M  V30 11973 H 1125.81 -0.421948 -0.512695 0
M  V30 11974 H 1128.34 -1.72011 -1.10785 0
M  V30 11975 H 1128.35 -2.04004 -3.53336 0
M  V30 11976 H 1127.03 -2.99392 -2.88682 0
M  V30 11977 H 1125.61 -1.27029 -3.50597 0
M  V30 11978 N 1127.79 1.09952 -1.12909 0
M  V30 11979 C 1129.04 1.81657 -0.885729 0
M  V30 11980 C 1129.36 1.85863 0.589913 0
M  V30 11981 O 1128.63 1.34028 1.42875 0
M  V30 11982 H 1127.21 0.672743 -0.324694 0
M  V30 11983 H 1129.87 1.33013 -1.42456 0
M  V30 11984 H 1128.97 2.85018 -1.27167 0
M  V30 11985 N 1129.27 0.921757 1.27833 0
M  V30 11986 C 1130.52 0.559078 1.94629 0
M  V30 11987 C 1130.84 -0.898641 1.72495 0
M  V30 11988 O 1130.1 -1.65546 1.0437 0
M  V30 11989 C 1130.4 0.824259 3.47765 0
M  V30 11990 C 1130.06 2.26278 3.90011 0
M  V30 11991 C 1128.73 2.65607 4.01256 0
M  V30 11992 C 1131.08 3.19853 4.11513 0
M  V30 11993 C 1128.41 3.97646 4.31387 0
M  V30 11994 C 1130.76 4.51467 4.43126 0
M  V30 11995 C 1129.42 4.90637 4.52583 0
M  V30 11996 H 1128.69 0.204581 0.712199 0
M  V30 11997 H 1131.34 1.1646 1.52018 0
M  V30 11998 H 1129.64 0.136011 3.91564 0
M  V30 11999 H 1131.34 0.522701 3.97579 0
M  V30 12000 H 1127.93 1.94765 3.81791 0
M  V30 12001 H 1132.11 2.90674 4.02271 0
M  V30 12002 H 1127.37 4.27685 4.36916 0
M  V30 12003 H 1131.54 5.23982 4.58711 0
M  V30 12004 H 1129.17 5.92982 4.75685 0
M  V30 12005 N 1130.75 -1.41857 0.686609 0
M  V30 12006 C 1131.68 -2.33481 0.0298353 0
M  V30 12007 C 1132.66 -1.51329 -0.776756 0
M  V30 12008 O 1133.84 -1.79895 -0.731535 0
M  V30 12009 C 1130.97 -3.35065 -0.913707 0
M  V30 12010 C 1129.93 -4.2746 -0.214861 0
M  V30 12011 C 1129.25 -5.19346 -1.27215 0
M  V30 12012 C 1130.55 -5.14252 0.913367 0
M  V30 12013 H 1132.25 -2.8865 0.795067 0
M  V30 12014 H 1129.79 -1.38792 0.383785 0
M  V30 12015 H 1131.75 -3.98082 -1.38234 0
M  V30 12016 H 1130.47 -2.78226 -1.7105 0
M  V30 12017 H 1129.13 -3.65855 0.233651 0
M  V30 12018 H 1128.78 -4.58827 -2.06124 0
M  V30 12019 H 1128.48 -5.81996 -0.80961 0
M  V30 12020 H 1130 -5.85239 -1.74147 0
M  V30 12021 H 1131.41 -5.70887 0.525424 0
M  V30 12022 H 1129.81 -5.85796 1.30244 0
M  V30 12023 H 1130.88 -4.51949 1.75699 0
M  V30 12024 N 1132.22 -0.430739 -1.51599 0
M  V30 12025 C 1133.45 0.139197 -2.06932 0
M  V30 12026 C 1133.87 1.3626 -1.29672 0
M  V30 12027 O 1133.23 1.78219 -0.332836 0
M  V30 12028 C 1133.28 0.446593 -3.57824 0
M  V30 12029 O 1132.38 1.53414 -3.82803 0
M  V30 12030 H 1131.73 0.00475812 -0.663983 0
M  V30 12031 H 1134.26 -0.610171 -1.9529 0
M  V30 12032 H 1134.27 0.698972 -4.01968 0
M  V30 12033 H 1132.94 -0.447613 -4.13484 0
M  V30 12034 H 1131.52 1.27224 -3.50526 0
M  V30 12035 N 1133.7 1.56767 -0.161869 0
M  V30 12036 C 1134.63 2.1466 0.803356 0
M  V30 12037 C 1135.65 1.09977 1.20037 0
M  V30 12038 O 1136.84 1.37199 1.14187 0
M  V30 12039 C 1133.94 2.66663 2.09151 0
M  V30 12040 C 1133.11 3.95904 1.85953 0
M  V30 12041 C 1132.17 4.33067 2.98897 0
M  V30 12042 O 1131.19 5.01119 2.69942 0
M  V30 12043 N 1132.4 3.93856 4.26448 0
M  V30 12044 H 1135.16 2.98108 0.308472 0
M  V30 12045 H 1132.72 1.61886 0.0212238 0
M  V30 12046 H 1134.71 2.88528 2.83784 0
M  V30 12047 H 1133.28 1.87856 2.49857 0
M  V30 12048 H 1132.5 3.82513 0.952751 0
M  V30 12049 H 1133.79 4.8033 1.67811 0
M  V30 12050 H 1133.19 3.39051 4.52836 0
M  V30 12051 H 1131.75 4.20741 4.97815 0
M  V30 12052 N 1135.18 -0.111886 1.57202 0
M  V30 12053 C 1136.11 -1.16749 1.96074 0
M  V30 12054 C 1137.09 -1.39735 0.831438 0
M  V30 12055 O 1138.28 -1.53772 1.09025 0
M  V30 12056 C 1135.4 -2.51996 2.26308 0
M  V30 12057 C 1134.45 -2.45394 3.48832 0
M  V30 12058 S 1135.28 -1.8867 5.01163 0
M  V30 12059 C 1136.44 -3.25576 5.34557 0
M  V30 12060 H 1136.67 -0.836033 2.85303 0
M  V30 12061 H 1134.2 -0.318922 1.5107 0
M  V30 12062 H 1136.16 -3.29813 2.44405 0
M  V30 12063 H 1134.82 -2.82317 1.3768 0
M  V30 12064 H 1134.02 -3.45038 3.67376 0
M  V30 12065 H 1133.62 -1.75702 3.30159 0
M  V30 12066 H 1135.91 -4.21807 5.30174 0
M  V30 12067 H 1136.85 -3.11853 6.35731 0
M  V30 12068 H 1137.26 -3.24333 4.62026 0
M  V30 12069 N 1136.66 -1.52894 -0.382264 0
M  V30 12070 C 1137.9 -1.69465 -1.12486 0
M  V30 12071 C 1138.26 -0.432631 -1.87473 0
M  V30 12072 O 1137.55 0.573901 -1.82803 0
M  V30 12073 C 1137.75 -2.87309 -2.12576 0
M  V30 12074 C 1137.58 -4.24849 -1.47421 0
M  V30 12075 C 1136.35 -4.89965 -1.23542 0
M  V30 12076 C 1138.54 -5.05991 -0.920733 0
M  V30 12077 N 1136.53 -6.1147 -0.545631 0
M  V30 12078 C 1137.9 -6.18958 -0.359379 0
M  V30 12079 C 1139.95 -4.91138 -0.817797 0
M  V30 12080 C 1138.65 -7.18695 0.294853 0
M  V30 12081 C 1140.68 -5.91134 -0.177375 0
M  V30 12082 C 1140.04 -7.03411 0.373179 0
M  V30 12083 H 1136.14 -0.673527 -0.397347 0
M  V30 12084 H 1138.73 -1.90259 -0.413479 0
M  V30 12085 H 1136.9 -2.68083 -2.81044 0
M  V30 12086 H 1138.63 -2.92784 -2.79392 0
M  V30 12087 H 1135.38 -4.48808 -1.51223 0
M  V30 12088 H 1135.81 -6.76653 -0.216582 0
M  V30 12089 H 1140.45 -4.04536 -1.22924 0
M  V30 12090 H 1138.17 -8.04901 0.718285 0
M  V30 12091 H 1141.75 -5.81716 -0.0988833 0
M  V30 12092 H 1140.63 -7.7946 0.860905 0
M  V30 12093 N 1138.14 0.641106 -1.43971 0
M  V30 12094 C 1139.39 1.39676 -1.45511 0
M  V30 12095 C 1139.7 1.95403 -0.0877084 0
M  V30 12096 O 1140.91 2.71493 0.0193965 0
M  V30 12097 C 1139.36 2.52839 -2.56126 0
M  V30 12098 C 1138.97 2.03668 -3.99028 0
M  V30 12099 C 1140.71 3.30118 -2.66875 0
M  V30 12100 C 1138.62 3.14114 -5.01085 0
M  V30 12101 H 1137.55 0.524854 -0.541336 0
M  V30 12102 H 1140.2 0.69075 -1.70003 0
M  V30 12103 H 1138.58 3.25968 -2.24857 0
M  V30 12104 H 1139.76 1.3747 -4.39817 0
M  V30 12105 H 1138.07 1.39233 -3.92432 0
M  V30 12106 H 1140.67 4.12434 -3.40297 0
M  V30 12107 H 1141.01 3.78946 -1.72353 0
M  V30 12108 H 1141.55 2.64075 -2.97505 0
M  V30 12109 H 1138.28 2.70241 -5.97202 0
M  V30 12110 H 1137.8 3.78985 -4.64898 0
M  V30 12111 H 1139.48 3.79051 -5.24337 0
M  V30 12112 N 1139.62 1.30703 0.880598 0
M  V30 12113 C 1140.86 1.19541 1.62955 0
M  V30 12114 C 1141.18 -0.249089 1.93403 0
M  V30 12115 O 1140.45 -1.1669 1.57354 0
M  V30 12116 H 1139.03 0.439434 0.604075 0
M  V30 12117 H 1141.7 1.63888 1.05483 0
M  V30 12118 H 1140.79 1.75945 2.57779 0
M  V30 12119 N 1141.09 -1.09351 1.1349 0
M  V30 12120 C 1142.37 -1.78121 0.808225 0
M  V30 12121 C 1142.75 -1.99154 -0.700072 0
M  V30 12122 O 1142.1 -1.59356 -1.63762 0
M  V30 12123 C 1142.31 -3.10368 1.59601 0
M  V30 12124 C 1143.66 -3.85063 1.78919 0
M  V30 12125 O 1144.68 -3.20122 1.56206 0
M  V30 12126 O 1143.54 -5.01648 2.16821 0
M  V30 12127 H 1140.63 -0.77253 0.295173 0
M  V30 12128 H 1143.18 -1.15901 1.23956 0
M  V30 12129 H 1141.95 -2.90549 2.62101 0
M  V30 12130 H 1141.57 -3.80312 1.15967 0
M  V30 12131 N 1142.57 -0.928524 -1.27343 0
M  V30 12132 C 1143.52 -0.426873 -2.26818 0
M  V30 12133 C 1144.49 0.506663 -1.58184 0
M  V30 12134 O 1145.67 0.425641 -1.85992 0
M  V30 12135 C 1142.81 0.313523 -3.43673 0
M  V30 12136 C 1141.93 -0.65422 -4.27018 0
M  V30 12137 C 1141.06 0.106102 -5.31094 0
M  V30 12138 C 1140.1 -0.854293 -6.06109 0
M  V30 12139 N 1139.24 -0.126545 -7.01986 0
M  V30 12140 H 1144.08 -1.28014 -2.69103 0
M  V30 12141 H 1141.61 -0.642515 -1.32326 0
M  V30 12142 H 1143.57 0.75912 -4.10236 0
M  V30 12143 H 1142.2 1.13102 -3.02337 0
M  V30 12144 H 1141.25 -1.21834 -3.60362 0
M  V30 12145 H 1142.57 -1.38817 -4.79094 0
M  V30 12146 H 1141.72 0.611577 -6.0361 0
M  V30 12147 H 1140.46 0.873009 -4.79823 0
M  V30 12148 H 1139.46 -1.37101 -5.32432 0
M  V30 12149 H 1140.69 -1.621 -6.5947 0
M  V30 12150 H 1138.64 0.622102 -6.53044 0
M  V30 12151 H 1138.55 -0.800046 -7.51755 0
M  V30 12152 H 1139.82 0.358251 -7.78676 0
M  V30 12153 N 1144.05 1.41491 -0.694123 0
M  V30 12154 C 1145 2.30783 -0.0278824 0
M  V30 12155 C 1145.97 1.47028 0.772783 0
M  V30 12156 O 1147.15 1.75819 0.74111 0
M  V30 12157 C 1144.29 3.33061 0.903579 0
M  V30 12158 C 1143.4 4.31896 0.0946823 0
M  V30 12159 C 1142.54 5.21243 1.02365 0
M  V30 12160 C 1141.58 6.11748 0.207578 0
M  V30 12161 N 1140.72 6.93583 1.09028 0
M  V30 12162 H 1145.56 2.87197 -0.795092 0
M  V30 12163 H 1143.09 1.41449 -0.403806 0
M  V30 12164 H 1145.05 3.90907 1.45765 0
M  V30 12165 H 1143.68 2.782 1.6372 0
M  V30 12166 H 1142.73 3.76009 -0.576289 0
M  V30 12167 H 1144.04 4.95889 -0.538059 0
M  V30 12168 H 1143.2 5.83917 1.647 0
M  V30 12169 H 1141.94 4.57473 1.69025 0
M  V30 12170 H 1140.94 5.48125 -0.428854 0
M  V30 12171 H 1142.17 6.77573 -0.455206 0
M  V30 12172 H 1140.11 6.32422 1.74292 0
M  V30 12173 H 1140.03 7.54257 0.513073 0
M  V30 12174 H 1141.3 7.60726 1.70048 0
M  V30 12175 N 1145.53 0.438773 1.51369 0
M  V30 12176 C 1146.46 -0.407771 2.25543 0
M  V30 12177 C 1147.47 -0.985065 1.29616 0
M  V30 12178 O 1148.66 -0.878961 1.55359 0
M  V30 12179 C 1145.76 -1.58257 2.9968 0
M  V30 12180 C 1144.93 -1.12389 4.22714 0
M  V30 12181 C 1143.99 -2.16897 4.79418 0
M  V30 12182 O 1143.02 -1.76273 5.41218 0
M  V30 12183 N 1144.22 -3.49396 4.63576 0
M  V30 12184 H 1146.99 0.227963 2.98832 0
M  V30 12185 H 1144.55 0.267741 1.59671 0
M  V30 12186 H 1146.54 -2.27796 3.34501 0
M  V30 12187 H 1145.11 -2.12362 2.29393 0
M  V30 12188 H 1144.33 -0.255509 3.93371 0
M  V30 12189 H 1145.62 -0.794848 5.02553 0
M  V30 12190 H 1145.02 -3.85132 4.14355 0
M  V30 12191 H 1143.57 -4.14826 5.02755 0
M  V30 12192 N 1147.01 -1.56678 0.170181 0
M  V30 12193 C 1147.94 -2.20916 -0.756213 0
M  V30 12194 C 1148.92 -1.16442 -1.23997 0
M  V30 12195 O 1150.1 -1.44867 -1.29333 0
M  V30 12196 C 1147.23 -2.84901 -1.98617 0
M  V30 12197 C 1146.19 -3.95403 -1.63831 0
M  V30 12198 C 1145.51 -4.46432 -2.94282 0
M  V30 12199 C 1146.81 -5.15051 -0.867195 0
M  V30 12200 H 1148.51 -2.98585 -0.220776 0
M  V30 12201 H 1146.05 -1.43619 -0.104748 0
M  V30 12202 H 1148 -3.28514 -2.63926 0
M  V30 12203 H 1146.73 -2.04598 -2.54572 0
M  V30 12204 H 1145.39 -3.52444 -1.00891 0
M  V30 12205 H 1145.04 -3.62923 -3.48276 0
M  V30 12206 H 1144.74 -5.20979 -2.71762 0
M  V30 12207 H 1146.26 -4.92731 -3.60622 0
M  V30 12208 H 1147.67 -5.55363 -1.42285 0
M  V30 12209 H 1146.07 -5.95507 -0.741065 0
M  V30 12210 H 1147.14 -4.84707 0.136693 0
M  V30 12211 N 1148.48 0.103547 -1.57259 0
M  V30 12212 C 1149.41 1.12714 -2.04494 0
M  V30 12213 C 1150.39 1.42278 -0.932255 0
M  V30 12214 O 1151.58 1.52453 -1.20298 0
M  V30 12215 C 1148.71 2.44927 -2.46228 0
M  V30 12216 C 1147.66 2.2979 -3.61082 0
M  V30 12217 C 1146.99 3.67105 -3.88765 0
M  V30 12218 C 1148.29 1.7455 -4.9227 0
M  V30 12219 H 1149.98 0.734198 -2.90258 0
M  V30 12220 H 1147.53 0.351725 -1.39638 0
M  V30 12221 H 1149.48 3.16798 -2.77879 0
M  V30 12222 H 1148.21 2.8614 -1.57453 0
M  V30 12223 H 1146.87 1.60366 -3.29664 0
M  V30 12224 H 1146.51 4.05831 -2.97171 0
M  V30 12225 H 1146.21 3.57825 -4.66084 0
M  V30 12226 H 1147.74 4.40456 -4.22884 0
M  V30 12227 H 1149.15 2.36253 -5.22358 0
M  V30 12228 H 1147.55 1.76051 -5.73695 0
M  V30 12229 H 1148.62 0.704242 -4.79759 0
M  V30 12230 N 1149.96 1.53094 0.37415 0
M  V30 12231 C 1151.19 1.72758 1.13852 0
M  V30 12232 C 1151.6 0.452638 1.83294 0
M  V30 12233 O 1150.96 -0.573906 1.73241 0
M  V30 12234 C 1151.01 2.88724 2.17534 0
M  V30 12235 O 1150.73 4.11284 1.5092 0
M  V30 12236 C 1152.23 3.2019 3.06584 0
M  V30 12237 H 1149.45 0.578028 0.340771 0
M  V30 12238 H 1152 1.99805 0.435683 0
M  V30 12239 H 1150.15 2.64096 2.83429 0
M  V30 12240 H 1150.57 4.76162 2.19932 0
M  V30 12241 H 1152.04 4.04759 3.75332 0
M  V30 12242 H 1152.52 2.35193 3.70919 0
M  V30 12243 H 1153.12 3.46712 2.46315 0
M  V30 12244 N 1151.44 -0.633461 1.44309 0
M  V30 12245 C 1152.85 -1.21504 1.41752 0
M  V30 12246 C 1153.2 -1.95758 0.131667 0
M  V30 12247 O 1152.33 -2.02311 -0.768072 0
M  V30 12248 C 1152.92 -2.21005 2.56792 0
M  V30 12249 C 1151.48 -2.74596 2.57438 0
M  V30 12250 C 1150.63 -1.49555 2.33513 0
M  V30 12251 H 1153.58 -0.424277 1.52923 0
M  V30 12252 H 1153.6 -3.03563 2.29412 0
M  V30 12253 H 1153.11 -1.66934 3.50364 0
M  V30 12254 H 1151.21 -3.32676 1.67801 0
M  V30 12255 H 1151.33 -3.20794 3.55849 0
M  V30 12256 H 1149.69 -1.77605 1.82561 0
M  V30 12257 H 1150.47 -0.973899 3.29196 0
M  V30 12258 N 1152.92 -1.31168 -0.873655 0
M  V30 12259 C 1153.85 -1.21094 -1.99646 0
M  V30 12260 C 1154.83 -0.0989684 -1.69812 0
M  V30 12261 O 1156.01 -0.282939 -1.92128 0
M  V30 12262 C 1153.14 -0.913684 -3.35066 0
M  V30 12263 C 1152.1 -1.98482 -3.79195 0
M  V30 12264 C 1151.42 -1.54033 -5.12033 0
M  V30 12265 C 1152.72 -3.39745 -3.96699 0
M  V30 12266 H 1154.42 -2.1503 -2.08333 0
M  V30 12267 H 1151.96 -1.03521 -1.00097 0
M  V30 12268 H 1153.92 -0.829821 -4.13149 0
M  V30 12269 H 1152.64 0.0613471 -3.26542 0
M  V30 12270 H 1151.3 -2.05851 -3.03349 0
M  V30 12271 H 1150.95 -0.553261 -4.99948 0
M  V30 12272 H 1150.65 -2.25688 -5.4253 0
M  V30 12273 H 1152.17 -1.47047 -5.92629 0
M  V30 12274 H 1153.59 -3.35071 -4.65188 0
M  V30 12275 H 1151.98 -4.09585 -4.38589 0
M  V30 12276 H 1153.05 -3.80802 -3.00196 0
M  V30 12277 N 1154.4 1.08748 -1.14068 0
M  V30 12278 C 1155.81 1.33125 -0.880341 0
M  V30 12279 C 1156.01 1.9569 0.480396 0
M  V30 12280 O 1155.07 2.2077 1.22543 0
M  V30 12281 C 1156.38 2.23618 -2.01036 0
M  V30 12282 C 1157.93 2.37108 -2.04326 0
M  V30 12283 C 1158.4 3.30941 -3.1661 0
M  V30 12284 N 1159.9 3.38517 -3.16166 0
M  V30 12285 C 1160.63 4.11142 -3.99687 0
M  V30 12286 N 1160.13 4.86505 -4.93239 0
M  V30 12287 N 1161.92 4.06938 -3.87761 0
M  V30 12288 H 1154.07 0.665164 -2.01716 0
M  V30 12289 H 1156.33 0.355612 -0.878774 0
M  V30 12290 H 1156.04 1.84885 -2.99183 0
M  V30 12291 H 1155.91 3.24056 -1.93049 0
M  V30 12292 H 1158.3 2.75101 -1.06787 0
M  V30 12293 H 1158.38 1.36424 -2.16384 0
M  V30 12294 H 1158.03 2.93669 -4.14392 0
M  V30 12295 H 1157.96 4.31545 -3.01789 0
M  V30 12296 H 1160.45 2.84786 -2.48405 0
M  V30 12297 H 1160.76 5.39372 -5.53441 0
M  V30 12298 H 1159.1 4.8557 -4.9724 0
M  V30 12299 H 1162.3 3.47166 -3.13996 0
M  V30 12300 H 1162.47 4.63275 -4.53079 0
M  V30 12301 N 1155.87 0.935264 1.26849 0
M  V30 12302 C 1157.15 0.497797 1.8916 0
M  V30 12303 C 1157.53 -1.02441 1.84578 0
M  V30 12304 O 1156.88 -1.88185 1.29609 0
M  V30 12305 C 1157.09 1.05244 3.32753 0
M  V30 12306 C 1158.44 1.11751 4.0963 0
M  V30 12307 O 1159.46 1.0026 3.41799 0
M  V30 12308 O 1158.32 1.29548 5.30923 0
M  V30 12309 H 1155.41 0.161322 0.811113 0
M  V30 12310 H 1157.96 1.02744 1.35062 0
M  V30 12311 H 1156.73 2.09617 3.30419 0
M  V30 12312 H 1156.36 0.504889 3.94381 0
M  V30 12313 N 1157.35 -1.41121 0.701616 0
M  V30 12314 C 1158.28 -2.292 0.000880842 0
M  V30 12315 C 1159.3 -1.45102 -0.738192 0
M  V30 12316 O 1160.49 -1.68541 -0.587891 0
M  V30 12317 C 1157.59 -3.23094 -1.02292 0
M  V30 12318 C 1156.76 -4.35979 -0.352231 0
M  V30 12319 C 1155.82 -5.10408 -1.27947 0
M  V30 12320 O 1154.84 -5.63974 -0.769561 0
M  V30 12321 N 1156.05 -5.18442 -2.61147 0
M  V30 12322 H 1158.81 -2.8998 0.757094 0
M  V30 12323 H 1156.37 -1.52339 0.548126 0
M  V30 12324 H 1158.36 -3.69755 -1.64509 0
M  V30 12325 H 1156.93 -2.6358 -1.68061 0
M  V30 12326 H 1156.15 -3.91624 0.44992 0
M  V30 12327 H 1157.44 -5.08673 0.113882 0
M  V30 12328 H 1156.84 -4.76381 -3.05087 0
M  V30 12329 H 1155.4 -5.68659 -3.18544 0
M  V30 12330 N 1158.83 -0.446794 -1.51134 0
M  V30 12331 C 1160.08 0.116493 -2.02165 0
M  V30 12332 C 1160.41 1.41884 -1.33039 0
M  V30 12333 O 1159.66 1.90757 -0.437071 0
M  V30 12334 C 1159.96 0.373015 -3.55448 0
M  V30 12335 C 1159.63 -0.844659 -4.42918 0
M  V30 12336 C 1158.29 -1.17857 -4.66544 0
M  V30 12337 C 1160.64 -1.65653 -4.94174 0
M  V30 12338 C 1157.97 -2.32486 -5.38672 0
M  V30 12339 C 1160.32 -2.7939 -5.6756 0
M  V30 12340 C 1158.98 -3.13224 -5.89446 0
M  V30 12341 H 1158.25 0.0426279 -0.739773 0
M  V30 12342 H 1160.9 -0.595921 -1.81992 0
M  V30 12343 H 1159.21 1.16742 -3.74003 0
M  V30 12344 H 1160.9 0.822425 -3.92476 0
M  V30 12345 H 1157.49 -0.574478 -4.24733 0
M  V30 12346 H 1161.68 -1.41176 -4.75797 0
M  V30 12347 H 1156.93 -2.59003 -5.5383 0
M  V30 12348 H 1161.11 -3.42662 -6.06264 0
M  V30 12349 H 1158.73 -4.02158 -6.45115 0
M  V30 12350 N 1160.31 1.56586 -0.178487 0
M  V30 12351 C 1161.54 2.01475 0.470684 0
M  V30 12352 C 1161.95 1.0587 1.56323 0
M  V30 12353 O 1161.31 0.060749 1.82399 0
M  V30 12354 C 1161.36 3.46145 1.04238 0
M  V30 12355 O 1161.08 4.381 -0.0065582 0
M  V30 12356 C 1162.58 4.06471 1.76908 0
M  V30 12357 H 1159.8 0.660219 0.119801 0
M  V30 12358 H 1162.35 2.02542 -0.282322 0
M  V30 12359 H 1160.5 3.45831 1.74585 0
M  V30 12360 H 1160.91 5.22843 0.416554 0
M  V30 12361 H 1162.39 5.096 2.12161 0
M  V30 12362 H 1162.87 3.48974 2.66672 0
M  V30 12363 H 1163.47 4.10509 1.11186 0
M  V30 12364 N 1161.79 -0.095206 1.57312 0
M  V30 12365 C 1163.2 -0.449411 1.53142 0
M  V30 12366 C 1163.4 -1.80523 0.895187 0
M  V30 12367 O 1162.46 -2.47746 0.487649 0
M  V30 12368 C 1163.77 -0.412002 2.97864 0
M  V30 12369 C 1165.32 -0.493866 3.09079 0
M  V30 12370 C 1165.79 -0.486606 4.55408 0
M  V30 12371 N 1167.29 -0.547363 4.59955 0
M  V30 12372 C 1168.02 -0.563582 5.70624 0
M  V30 12373 N 1167.52 -0.536015 6.90723 0
M  V30 12374 N 1169.31 -0.608385 5.58798 0
M  V30 12375 H 1161.46 0.792869 1.97047 0
M  V30 12376 H 1163.72 0.295106 0.900898 0
M  V30 12377 H 1163.43 0.517064 3.47878 0
M  V30 12378 H 1163.3 -1.23102 3.56547 0
M  V30 12379 H 1165.69 -1.41335 2.59053 0
M  V30 12380 H 1165.77 0.353286 2.53349 0
M  V30 12381 H 1165.42 0.428935 5.06086 0
M  V30 12382 H 1165.35 -1.35097 5.08976 0
M  V30 12383 H 1167.84 -0.573867 3.73517 0
M  V30 12384 H 1168.15 -0.551671 7.70828 0
M  V30 12385 H 1166.49 -0.503064 6.93177 0
M  V30 12386 H 1169.69 -0.627451 4.63876 0
M  V30 12387 H 1169.86 -0.617556 6.45051 0
M  V30 12388 N 1163.26 -1.53291 -0.366026 0
M  V30 12389 C 1164.23 -1.79025 -1.43117 0
M  V30 12390 C 1165.23 -0.660676 -1.46601 0
M  V30 12391 O 1166.42 -0.928875 -1.47369 0
M  V30 12392 C 1163.55 -1.91192 -2.82238 0
M  V30 12393 H 1164.74 -2.74154 -1.21572 0
M  V30 12394 H 1162.3 -1.44361 -0.599132 0
M  V30 12395 H 1163.03 -0.98129 -3.09097 0
M  V30 12396 H 1162.82 -2.7335 -2.81109 0
M  V30 12397 H 1164.31 -2.12696 -3.59375 0
M  V30 12398 N 1164.74 0.6258 -1.44643 0
M  V30 12399 C 1166.15 1.20751 -1.42394 0
M  V30 12400 C 1166.5 1.95685 -0.142047 0
M  V30 12401 O 1165.63 2.02715 0.757332 0
M  V30 12402 C 1166.22 2.1964 -2.57961 0
M  V30 12403 C 1164.78 2.73227 -2.5889 0
M  V30 12404 C 1163.93 1.48315 -2.34303 0
M  V30 12405 H 1166.88 0.416162 -1.53146 0
M  V30 12406 H 1166.9 3.02342 -2.31019 0
M  V30 12407 H 1166.41 1.65073 -3.51244 0
M  V30 12408 H 1164.52 3.31782 -1.69563 0
M  V30 12409 H 1164.63 3.18902 -3.57545 0
M  V30 12410 H 1162.99 1.76634 -1.83501 0
M  V30 12411 H 1163.78 0.956427 -3.29708 0
M  V30 12412 N 1166.22 1.31629 0.866686 0
M  V30 12413 C 1167.15 1.22151 1.99001 0
M  V30 12414 C 1168.13 0.107972 1.69757 0
M  V30 12415 O 1169.32 0.293125 1.91975 0
M  V30 12416 C 1166.45 0.93144 3.34577 0
M  V30 12417 C 1165.4 2.0049 3.78137 0
M  V30 12418 C 1164.73 1.56747 5.11209 0
M  V30 12419 C 1166.03 3.41844 3.94892 0
M  V30 12420 H 1167.72 2.16132 2.0719 0
M  V30 12421 H 1165.27 1.04051 0.995463 0
M  V30 12422 H 1167.22 0.851719 4.12703 0
M  V30 12423 H 1165.94 -0.0440289 3.2657 0
M  V30 12424 H 1164.6 2.07457 3.02253 0
M  V30 12425 H 1164.25 0.579767 4.99648 0
M  V30 12426 H 1163.95 2.28562 5.41326 0
M  V30 12427 H 1165.47 1.50188 5.91841 0
M  V30 12428 H 1166.89 3.37534 4.63405 0
M  V30 12429 H 1165.29 4.11905 4.36411 0
M  V30 12430 H 1166.36 3.82389 2.98172 0
M  V30 12431 N 1167.7 -1.08142 1.14644 0
M  V30 12432 C 1168.98 -1.77254 0.827071 0
M  V30 12433 C 1169.36 -1.99885 -0.67891 0
M  V30 12434 O 1168.7 -1.61084 -1.62062 0
M  V30 12435 C 1168.91 -3.08658 1.62884 0
M  V30 12436 C 1170.26 -3.83143 1.82993 0
M  V30 12437 O 1171.29 -3.18447 1.59593 0
M  V30 12438 O 1170.15 -4.9932 2.2213 0
M  V30 12439 H 1167.24 -0.769356 0.30335 0
M  V30 12440 H 1169.79 -1.1458 1.25178 0
M  V30 12441 H 1168.56 -2.87753 2.65168 0
M  V30 12442 H 1168.18 -3.79061 1.19994 0
M  V30 12443 N 1169.18 -0.941978 -1.26351 0
M  V30 12444 C 1170.13 -0.443011 -2.28342 0
M  V30 12445 C 1171.12 0.48013 -1.62453 0
M  V30 12446 O 1172.33 0.358255 -1.76399 0
M  V30 12447 H 1168.7 -0.124728 -0.741584 0
M  V30 12448 H 1170.67 -1.31573 -2.67827 0
M  V30 12449 C 1169.42 0.275675 -3.46605 0
M  V30 12450 H 1168.74 -0.425504 -3.97529 0
M  V30 12451 H 1170.18 0.589012 -4.19889 0
M  V30 12452 C 1168.64 1.49376 -3.01974 0
M  V30 12453 O 1169.17 2.59203 -3.06883 0
M  V30 12454 N 1167.38 1.35061 -2.57307 0
M  V30 12455 H 1166.93 0.457045 -2.53513 0
M  V30 12456 H 1166.88 2.16681 -2.27809 0
M  V30 12457 N 1170.66 1.40747 -0.709091 0
M  V30 12458 C 1171.93 1.94831 -0.173246 0
M  V30 12459 C 1172.31 1.64766 1.31967 0
M  V30 12460 O 1171.66 0.961853 2.07269 0
M  V30 12461 C 1171.87 3.45697 -0.479013 0
M  V30 12462 C 1173.22 4.22576 -0.414122 0
M  V30 12463 O 1174.24 3.53778 -0.414699 0
M  V30 12464 O 1173.1 5.45135 -0.385986 0
M  V30 12465 H 1170.2 0.826683 -0.0228947 0
M  V30 12466 H 1172.74 1.50391 -0.786178 0
M  V30 12467 H 1171.51 3.60914 -1.51185 0
M  V30 12468 H 1171.14 3.97261 0.164211 0
M  V30 12469 N 1172.13 0.454803 1.50895 0
M  V30 12470 C 1173.38 -0.107367 2.01414 0
M  V30 12471 C 1173.7 -1.42243 1.34262 0
M  V30 12472 O 1174.9 -2.06858 1.75846 0
M  V30 12473 C 1173.36 -0.241872 3.59086 0
M  V30 12474 C 1172.97 1.06379 4.35187 0
M  V30 12475 C 1174.71 -0.756873 4.17698 0
M  V30 12476 C 1172.62 0.893973 5.84604 0
M  V30 12477 H 1171.55 -0.0439003 0.752721 0
M  V30 12478 H 1174.2 0.587225 1.7385 0
M  V30 12479 H 1172.58 -0.999873 3.83169 0
M  V30 12480 H 1173.75 1.83148 4.2284 0
M  V30 12481 H 1172.07 1.50865 3.88109 0
M  V30 12482 H 1174.67 -0.900697 5.27059 0
M  V30 12483 H 1175.01 -1.74397 3.7801 0
M  V30 12484 H 1175.54 -0.0567088 3.9776 0
M  V30 12485 H 1172.28 1.85395 6.28736 0
M  V30 12486 H 1171.8 0.166387 5.99569 0
M  V30 12487 H 1173.48 0.554084 6.44623 0
M  V30 12488 N 1173.61 -1.56489 0.186789 0
M  V30 12489 C 1174.86 -1.96952 -0.453261 0
M  V30 12490 C 1175.18 -1.07451 -1.62725 0
M  V30 12491 O 1174.45 -0.144046 -1.9537 0
M  V30 12492 H 1173.03 -0.727295 -0.170445 0
M  V30 12493 H 1175.69 -1.92999 0.271584 0
M  V30 12494 H 1174.79 -3.01594 -0.802951 0
M  V30 12495 N 1175.09 0.086862 -1.5736 0
M  V30 12496 C 1176.34 0.790008 -1.8678 0
M  V30 12497 C 1176.67 1.77977 -0.777042 0
M  V30 12498 O 1175.94 1.93317 0.21419 0
M  V30 12499 C 1176.23 1.51143 -3.26845 0
M  V30 12500 C 1176.08 0.539106 -4.46558 0
M  V30 12501 C 1177.4 2.46003 -3.64926 0
M  V30 12502 H 1174.52 0.285741 -0.679354 0
M  V30 12503 H 1177.16 0.0534655 -1.89925 0
M  V30 12504 H 1175.31 2.13928 -3.24295 0
M  V30 12505 H 1176.98 -0.0823679 -4.61226 0
M  V30 12506 H 1175.22 -0.146842 -4.33551 0
M  V30 12507 H 1175.9 1.0812 -5.41308 0
M  V30 12508 H 1178.37 1.93306 -3.68473 0
M  V30 12509 H 1177.25 2.93493 -4.63846 0
M  V30 12510 H 1177.51 3.30133 -2.94049 0
M  V30 12511 N 1176.57 1.53483 0.357892 0
M  V30 12512 C 1177.79 1.74264 1.12458 0
M  V30 12513 C 1178.22 0.473944 1.82031 0
M  V30 12514 O 1177.58 -0.57253 1.72023 0
M  V30 12515 C 1177.62 2.91356 2.12471 0
M  V30 12516 O 1176.73 2.60502 3.19707 0
M  V30 12517 H 1176.07 0.578499 0.325937 0
M  V30 12518 H 1178.6 2.00395 0.412666 0
M  V30 12519 H 1178.61 3.1774 2.5594 0
M  V30 12520 H 1177.28 3.83378 1.61226 0
M  V30 12521 H 1175.86 2.44961 2.81156 0
M  V30 12522 N 1178.05 -0.61812 1.44973 0
M  V30 12523 C 1178.96 -1.7579 1.55355 0
M  V30 12524 C 1179.97 -1.68384 0.438512 0
M  V30 12525 O 1181.15 -1.88928 0.697715 0
M  V30 12526 C 1178.21 -3.1222 1.50729 0
M  V30 12527 C 1177.27 -3.3116 2.73188 0
M  V30 12528 C 1176.51 -4.61082 2.68774 0
M  V30 12529 O 1176.73 -5.42728 1.75507 0
M  V30 12530 O 1175.66 -4.82506 3.59821 0
M  V30 12531 H 1179.49 -1.69983 2.51674 0
M  V30 12532 H 1177.07 -0.780934 1.27365 0
M  V30 12533 H 1178.96 -3.93524 1.5072 0
M  V30 12534 H 1177.63 -3.18541 0.575587 0
M  V30 12535 H 1176.54 -2.49485 2.78762 0
M  V30 12536 H 1177.87 -3.29709 3.65449 0
M  V30 12537 N 1179.52 -1.32087 -0.859693 0
M  V30 12538 C 1180.49 -1.20546 -1.94939 0
M  V30 12539 C 1181.49 -0.12982 -1.60275 0
M  V30 12540 O 1182.68 -0.379853 -1.70008 0
M  V30 12541 C 1179.81 -0.852717 -3.30063 0
M  V30 12542 H 1181 -2.17384 -2.06602 0
M  V30 12543 H 1178.55 -1.15846 -1.04926 0
M  V30 12544 H 1179.29 0.114059 -3.24099 0
M  V30 12545 H 1179.07 -1.63035 -3.56598 0
M  V30 12546 H 1180.56 -0.796145 -4.09941 0
M  V30 12547 N 1181 1.07532 -1.15215 0
M  V30 12548 C 1182.23 1.83817 -0.949687 0
M  V30 12549 C 1182.64 1.82004 0.501991 0
M  V30 12550 O 1182 1.23014 1.34811 0
M  V30 12551 C 1182.05 3.30978 -1.45382 0
M  V30 12552 O 1181.77 3.32844 -2.84863 0
M  V30 12553 C 1183.27 4.24037 -1.29257 0
M  V30 12554 H 1180.49 0.58 -0.337404 0
M  V30 12555 H 1183.04 1.35752 -1.52944 0
M  V30 12556 H 1181.19 3.76399 -0.916638 0
M  V30 12557 H 1181.61 4.24773 -3.07682 0
M  V30 12558 H 1183.08 5.25371 -1.69379 0
M  V30 12559 H 1183.56 4.38563 -0.236519 0
M  V30 12560 H 1184.16 3.8445 -1.81874 0
M  V30 12561 N 1182.48 0.948665 1.2585 0
M  V30 12562 C 1183.9 0.652147 1.45668 0
M  V30 12563 C 1184.1 -0.792217 1.85273 0
M  V30 12564 O 1183.15 -1.56812 1.97905 0
M  V30 12565 C 1184.47 1.61998 2.53332 0
M  V30 12566 C 1186.01 1.6305 2.67178 0
M  V30 12567 C 1186.49 2.58582 3.78021 0
M  V30 12568 N 1187.98 2.56911 3.85423 0
M  V30 12569 C 1188.71 3.27511 4.70664 0
M  V30 12570 N 1188.21 4.07563 5.60236 0
M  V30 12571 N 1190 3.16427 4.64576 0
M  V30 12572 H 1182.15 1.88215 0.984325 0
M  V30 12573 H 1184.42 0.809251 0.493778 0
M  V30 12574 H 1184.12 2.65137 2.31075 0
M  V30 12575 H 1184 1.37784 3.51134 0
M  V30 12576 H 1186.38 0.606315 2.88804 0
M  V30 12577 H 1186.47 1.9132 1.69795 0
M  V30 12578 H 1186.11 3.61122 3.57146 0
M  V30 12579 H 1186.04 2.27598 4.74875 0
M  V30 12580 H 1188.53 1.9879 3.21389 0
M  V30 12581 H 1188.84 4.58367 6.22189 0
M  V30 12582 H 1187.19 4.11662 5.59964 0
M  V30 12583 H 1190.38 2.53364 3.93604 0
M  V30 12584 H 1190.55 3.71714 5.30785 0
M  V30 12585 N 1183.96 -1.40369 0.716545 0
M  V30 12586 C 1185.21 -2.00101 0.253452 0
M  V30 12587 C 1185.52 -1.57471 -1.16027 0
M  V30 12588 O 1186.73 -2.09909 -1.72193 0
M  V30 12589 C 1185.18 -3.57645 0.402213 0
M  V30 12590 C 1184.79 -4.09248 1.82264 0
M  V30 12591 C 1186.53 -4.245 -3.88526e-05 0
M  V30 12592 C 1184.44 -5.59299 1.92193 0
M  V30 12593 H 1183.37 -0.748488 0.0910047 0
M  V30 12594 H 1186.02 -1.60595 0.887772 0
M  V30 12595 H 1184.4 -3.94857 -0.300706 0
M  V30 12596 H 1185.58 -3.83412 2.55601 0
M  V30 12597 H 1183.89 -3.54993 2.17644 0
M  V30 12598 H 1186.49 -5.34673 0.0534202 0
M  V30 12599 H 1186.83 -4.03046 -1.04208 0
M  V30 12600 H 1187.37 -3.92398 0.65336 0
M  V30 12601 H 1184.11 -5.85608 2.94522 0
M  V30 12602 H 1183.63 -5.86997 1.23268 0
M  V30 12603 H 1185.3 -6.24416 1.6945 0
M  V30 12604 N 1185.44 -0.462799 -1.50652 0
M  V30 12605 C 1186.71 0.156221 -1.94975 0
M  V30 12606 C 1187.09 1.5775 -1.40279 0
M  V30 12607 O 1186.44 2.20473 -0.600323 0
M  V30 12608 C 1186.65 0.108008 -3.48833 0
M  V30 12609 C 1188 0.301013 -4.23532 0
M  V30 12610 O 1189.02 0.184973 -3.55719 0
M  V30 12611 O 1187.88 0.534457 -5.4388 0
M  V30 12612 H 1184.98 0.116182 -0.818798 0
M  V30 12613 H 1187.52 -0.522607 -1.61453 0
M  V30 12614 H 1186.29 -0.884634 -3.81169 0
M  V30 12615 H 1185.92 0.828653 -3.88869 0
M  V30 12616 N 1186.91 1.56388 -0.195085 0
M  V30 12617 C 1188.33 1.8398 0.317513 0
M  V30 12618 C 1188.68 1.11575 1.61386 0
M  V30 12619 O 1187.8 0.376557 2.13099 0
M  V30 12620 C 1188.4 3.33749 0.582859 0
M  V30 12621 C 1186.96 3.61752 1.03983 0
M  V30 12622 C 1186.1 2.77159 0.088434 0
M  V30 12623 H 1189.05 1.53072 -0.418871 0
M  V30 12624 H 1189.07 3.52519 1.43216 0
M  V30 12625 H 1188.59 3.86419 -0.360813 0
M  V30 12626 H 1186.69 3.14515 1.99778 0
M  V30 12627 H 1186.8 4.69937 0.932549 0
M  V30 12628 H 1185.16 2.47765 0.590317 0
M  V30 12629 H 1185.95 3.32619 -0.849682 0
M  V30 12630 N 1188.39 -0.0785156 1.57404 0
M  V30 12631 C 1189.34 -1.11278 2.04255 0
M  V30 12632 C 1190.33 -1.40482 0.946633 0
M  V30 12633 O 1191.54 -1.39968 1.13177 0
M  V30 12634 H 1187.92 -0.376157 0.65116 0
M  V30 12635 H 1189.89 -0.691437 2.90279 0
M  V30 12636 C 1188.64 -2.42006 2.49656 0
M  V30 12637 H 1187.96 -2.20383 3.33574 0
M  V30 12638 H 1189.4 -3.12837 2.86197 0
M  V30 12639 C 1187.86 -3.07488 1.37669 0
M  V30 12640 O 1188.39 -3.95285 0.715036 0
M  V30 12641 N 1186.59 -2.68004 1.1235 0
M  V30 12642 H 1186.14 -1.96698 1.66336 0
M  V30 12643 H 1186.1 -3.12141 0.376238 0
M  V30 12644 N 1189.87 -1.5367 -0.349747 0
M  V30 12645 C 1190.83 -1.80533 -1.41211 0
M  V30 12646 C 1191.83 -0.676188 -1.45892 0
M  V30 12647 O 1193.02 -0.944453 -1.46375 0
M  V30 12648 C 1190.16 -1.94175 -2.80195 0
M  V30 12649 H 1191.35 -2.75428 -1.18658 0
M  V30 12650 H 1188.9 -1.44988 -0.583787 0
M  V30 12651 H 1189.64 -1.01402 -3.08039 0
M  V30 12652 H 1189.42 -2.76316 -2.78194 0
M  V30 12653 H 1190.91 -2.16496 -3.57098 0
M  V30 12654 N 1191.35 0.610423 -1.45298 0
M  V30 12655 C 1192.59 1.36959 -1.50379 0
M  V30 12656 C 1192.95 1.91872 -0.142378 0
M  V30 12657 O 1192.24 1.71944 0.845332 0
M  V30 12658 C 1192.44 2.53812 -2.51623 0
M  V30 12659 C 1192.27 2.10341 -3.97476 0
M  V30 12660 C 1191.04 1.96646 -4.65466 0
M  V30 12661 C 1193.23 1.67982 -4.86093 0
M  V30 12662 N 1191.22 1.46956 -5.96051 0
M  V30 12663 C 1192.59 1.29686 -6.06285 0
M  V30 12664 C 1194.64 1.55548 -4.72979 0
M  V30 12665 C 1193.34 0.801985 -7.14815 0
M  V30 12666 C 1195.37 1.07465 -5.81554 0
M  V30 12667 C 1194.73 0.701317 -7.009 0
M  V30 12668 H 1190.83 0.495191 -0.605236 0
M  V30 12669 H 1193.42 0.698121 -1.81754 0
M  V30 12670 H 1191.59 3.18558 -2.22205 0
M  V30 12671 H 1193.32 3.20683 -2.4687 0
M  V30 12672 H 1190.07 2.17743 -4.20577 0
M  V30 12673 H 1190.5 1.2435 -6.65482 0
M  V30 12674 H 1195.14 1.83038 -3.81126 0
M  V30 12675 H 1192.86 0.514634 -8.0646 0
M  V30 12676 H 1196.44 0.98274 -5.7344 0
M  V30 12677 H 1195.32 0.334967 -7.83484 0
M  V30 12678 N 1192.83 1.32541 0.852676 0
M  V30 12679 C 1194.07 1.23397 1.60938 0
M  V30 12680 C 1194.41 -0.203294 1.93133 0
M  V30 12681 O 1193.68 -1.14097 1.57519 0
M  V30 12682 C 1193.96 2.0956 2.92842 0
M  V30 12683 C 1193.82 3.61675 2.67416 0
M  V30 12684 C 1195.14 1.95825 3.94133 0
M  V30 12685 H 1192.25 0.449608 0.583971 0
M  V30 12686 H 1194.9 1.62507 0.98446 0
M  V30 12687 H 1193.05 1.76336 3.46176 0
M  V30 12688 H 1194.72 4.05122 2.20621 0
M  V30 12689 H 1192.96 3.84242 2.01347 0
M  V30 12690 H 1193.63 4.17292 3.61347 0
M  V30 12691 H 1196.11 2.24935 3.50062 0
M  V30 12692 H 1194.98 2.58387 4.8428 0
M  V30 12693 H 1195.25 0.926466 4.32284 0
M  V30 12694 N 1194.3 -1.0692 1.15784 0
M  V30 12695 C 1195.21 -2.17762 0.872753 0
M  V30 12696 C 1196.23 -1.73329 -0.152608 0
M  V30 12697 O 1197.41 -2.01387 0.022519 0
M  V30 12698 C 1194.47 -3.4471 0.370887 0
M  V30 12699 C 1193.53 -4.03686 1.46069 0
M  V30 12700 C 1192.77 -5.24575 0.982675 0
M  V30 12701 O 1192.99 -5.70146 -0.17006 0
M  V30 12702 O 1191.92 -5.7534 1.76828 0
M  V30 12703 H 1195.75 -2.44648 1.79948 0
M  V30 12704 H 1193.33 -1.1634 0.937303 0
M  V30 12705 H 1195.22 -4.21287 0.0976779 0
M  V30 12706 H 1193.89 -3.19366 -0.527912 0
M  V30 12707 H 1192.8 -3.28629 1.78756 0
M  V30 12708 H 1194.13 -4.33312 2.33456 0
M  V30 12709 N 1195.78 -0.955326 -1.25345 0
M  V30 12710 C 1197.2 -0.659863 -1.4532 0
M  V30 12711 C 1197.4 0.78238 -1.85691 0
M  V30 12712 O 1196.45 1.5576 -1.98734 0
M  V30 12713 C 1197.77 -1.63339 -2.5247 0
M  V30 12714 C 1199.32 -1.64464 -2.66309 0
M  V30 12715 C 1199.79 -2.60583 -3.76644 0
M  V30 12716 N 1201.28 -2.58951 -3.84055 0
M  V30 12717 C 1202.02 -3.30002 -4.6892 0
M  V30 12718 N 1201.51 -4.10528 -5.58067 0
M  V30 12719 N 1203.31 -3.18886 -4.62891 0
M  V30 12720 H 1195.46 -1.88734 -0.97433 0
M  V30 12721 H 1197.72 -0.811858 -0.48948 0
M  V30 12722 H 1197.43 -2.66358 -2.29665 0
M  V30 12723 H 1197.3 -1.39644 -3.50399 0
M  V30 12724 H 1199.69 -0.621622 -2.88479 0
M  V30 12725 H 1199.77 -1.92218 -1.68778 0
M  V30 12726 H 1199.41 -3.63011 -3.55226 0
M  V30 12727 H 1199.34 -2.30113 -4.73662 0
M  V30 12728 H 1201.83 -2.00491 -3.20331 0
M  V30 12729 H 1202.15 -4.6166 -6.1975 0
M  V30 12730 H 1200.49 -4.14626 -5.57773 0
M  V30 12731 H 1203.68 -2.55447 -3.92255 0
M  V30 12732 H 1203.85 -3.74524 -5.28806 0
M  V30 12733 N 1197.26 1.39987 -0.723979 0
M  V30 12734 C 1198.51 2.01514 -0.276365 0
M  V30 12735 C 1198.86 1.56399 1.12058 0
M  V30 12736 O 1198.16 0.777927 1.75097 0
M  V30 12737 C 1198.35 3.56101 -0.304472 0
M  V30 12738 C 1198.18 4.16223 -1.70261 0
M  V30 12739 C 1196.95 4.49292 -2.31225 0
M  V30 12740 C 1199.15 4.40512 -2.65431 0
M  V30 12741 N 1197.13 4.94854 -3.63308 0
M  V30 12742 C 1198.5 4.88158 -3.82232 0
M  V30 12743 C 1200.55 4.22562 -2.63335 0
M  V30 12744 C 1199.26 5.19739 -4.97256 0
M  V30 12745 C 1201.28 4.5525 -3.77493 0
M  V30 12746 C 1200.65 5.03093 -4.93028 0
M  V30 12747 H 1196.74 0.768031 -0.147146 0
M  V30 12748 H 1199.33 1.70085 -0.947581 0
M  V30 12749 H 1197.5 3.86941 0.336344 0
M  V30 12750 H 1199.23 4.04381 0.160647 0
M  V30 12751 H 1195.99 4.36712 -1.83248 0
M  V30 12752 H 1196.41 5.22007 -4.31089 0
M  V30 12753 H 1201.05 3.84786 -1.75212 0
M  V30 12754 H 1198.77 5.56426 -5.86017 0
M  V30 12755 H 1202.36 4.42995 -3.77156 0
M  V30 12756 H 1201.24 5.27909 -5.79898 0
M  V30 12757 N 1198.74 0.470782 1.50404 0
M  V30 12758 C 1199.69 -0.32355 2.28521 0
M  V30 12759 C 1200.66 -0.987472 1.3356 0
M  V30 12760 O 1201.84 -0.999969 1.62497 0
M  V30 12761 C 1198.98 -1.39977 3.15437 0
M  V30 12762 C 1198.09 -0.750656 4.25428 0
M  V30 12763 C 1197.23 -1.80474 4.99602 0
M  V30 12764 C 1196.27 -1.13586 6.01469 0
M  V30 12765 N 1195.41 -2.13279 6.68922 0
M  V30 12766 H 1200.25 0.348902 2.9595 0
M  V30 12767 H 1197.78 0.183908 1.45946 0
M  V30 12768 H 1199.74 -2.0354 3.6418 0
M  V30 12769 H 1198.37 -2.04139 2.50054 0
M  V30 12770 H 1197.42 -0.00247092 3.804 0
M  V30 12771 H 1198.73 -0.222638 4.98303 0
M  V30 12772 H 1197.89 -2.51619 5.52062 0
M  V30 12773 H 1196.63 -2.36657 4.26433 0
M  V30 12774 H 1195.63 -0.410042 5.48269 0
M  V30 12775 H 1196.86 -0.580935 6.76611 0
M  V30 12776 H 1194.8 -2.68479 5.98544 0
M  V30 12777 H 1194.72 -1.65461 7.37671 0
M  V30 12778 H 1195.99 -2.83804 7.26 0
M  V30 12779 N 1200.22 -1.56282 0.203376 0
M  V30 12780 C 1201.18 -2.18233 -0.700489 0
M  V30 12781 C 1202.18 -1.13908 -1.13497 0
M  V30 12782 O 1203.37 -1.39246 -1.04672 0
M  V30 12783 C 1200.5 -2.79107 -1.95735 0
M  V30 12784 H 1201.7 -2.99469 -0.160649 0
M  V30 12785 H 1199.25 -1.56232 -0.0462475 0
M  V30 12786 H 1199.98 -2.01691 -2.53951 0
M  V30 12787 H 1199.77 -3.55486 -1.65446 0
M  V30 12788 H 1201.26 -3.2665 -2.60172 0
M  V30 12789 N 1201.7 0.070167 -1.57444 0
M  V30 12790 C 1202.66 1.06761 -2.02817 0
M  V30 12791 C 1203.66 1.31498 -0.925462 0
M  V30 12792 O 1204.85 1.27192 -1.19029 0
M  V30 12793 C 1201.98 2.41086 -2.41019 0
M  V30 12794 H 1203.17 0.67651 -2.9217 0
M  V30 12795 H 1200.73 0.315936 -1.53074 0
M  V30 12796 H 1201.46 2.85025 -1.54697 0
M  V30 12797 H 1201.25 2.24472 -3.21488 0
M  V30 12798 H 1202.74 3.12778 -2.76694 0
M  V30 12799 N 1203.17 1.53854 0.341593 0
M  V30 12800 C 1204.42 1.70856 1.07948 0
M  V30 12801 C 1204.74 0.475474 1.89114 0
M  V30 12802 O 1204.01 -0.510592 1.89129 0
M  V30 12803 H 1202.59 0.629914 0.401519 0
M  V30 12804 H 1205.25 1.91112 0.382393 0
M  V30 12805 H 1204.35 2.5803 1.75575 0
M  V30 12806 N 1204.65 -0.602709 1.4562 0
M  V30 12807 C 1205.6 -1.70753 1.51088 0
M  V30 12808 C 1206.59 -1.56501 0.373662 0
M  V30 12809 O 1207.78 -1.65755 0.620828 0
M  V30 12810 C 1204.91 -3.09515 1.48511 0
M  V30 12811 C 1203.99 -3.29135 2.67453 0
M  V30 12812 N 1204.38 -3.18996 3.92524 0
M  V30 12813 C 1202.68 -3.60019 2.63253 0
M  V30 12814 C 1203.38 -3.40079 4.71933 0
M  V30 12815 N 1202.36 -3.64299 4.03469 0
M  V30 12816 H 1206.16 -1.61414 2.45607 0
M  V30 12817 H 1203.67 -0.806122 1.4098 0
M  V30 12818 H 1205.67 -3.88782 1.50513 0
M  V30 12819 H 1204.33 -3.19999 0.550526 0
M  V30 12820 H 1205.34 -2.97292 4.24073 0
M  V30 12821 H 1202.02 -3.77311 1.78725 0
M  V30 12822 H 1203.41 -3.37593 5.80931 0
M  V30 12823 N 1206.13 -1.32992 -0.845635 0
M  V30 12824 C 1207.36 -1.26903 -1.63031 0
M  V30 12825 C 1207.77 0.163589 -1.88491 0
M  V30 12826 O 1207.11 1.11402 -1.46066 0
M  V30 12827 C 1207.17 -1.96843 -3.00821 0
M  V30 12828 C 1206.84 -3.46164 -2.98362 0
M  V30 12829 C 1207.83 -4.41488 -2.74562 0
M  V30 12830 C 1205.52 -3.88237 -3.18712 0
M  V30 12831 C 1207.51 -5.7686 -2.71129 0
M  V30 12832 C 1205.2 -5.23715 -3.14905 0
M  V30 12833 C 1206.2 -6.17838 -2.91144 0
M  V30 12834 O 1205.89 -7.50836 -2.87228 0
M  V30 12835 H 1205.62 -0.438806 -0.514223 0
M  V30 12836 H 1208.17 -1.75817 -1.06196 0
M  V30 12837 H 1206.4 -1.42511 -3.59482 0
M  V30 12838 H 1208.09 -1.84343 -3.61625 0
M  V30 12839 H 1208.86 -4.10308 -2.58598 0
M  V30 12840 H 1204.74 -3.1539 -3.36229 0
M  V30 12841 H 1208.28 -6.50299 -2.52502 0
M  V30 12842 H 1204.18 -5.54523 -3.30416 0
M  V30 12843 H 1204.94 -7.60304 -3.03118 0
M  V30 12844 N 1207.61 1.06304 -1.1635 0
M  V30 12845 C 1208.54 2.13732 -0.827721 0
M  V30 12846 C 1209.55 1.61962 0.164983 0
M  V30 12847 O 1210.74 1.784 -0.0597591 0
M  V30 12848 C 1207.84 3.38239 -0.211623 0
M  V30 12849 C 1207.01 4.19325 -1.2444 0
M  V30 12850 C 1206.07 5.22193 -0.648127 0
M  V30 12851 O 1205.1 5.53755 -1.31695 0
M  V30 12852 N 1206.3 5.77742 0.565179 0
M  V30 12853 H 1209.07 2.43136 -1.75228 0
M  V30 12854 H 1206.63 1.22304 -1.06081 0
M  V30 12855 H 1208.62 4.04204 0.200306 0
M  V30 12856 H 1207.19 3.06461 0.616491 0
M  V30 12857 H 1206.41 3.49017 -1.83251 0
M  V30 12858 H 1207.7 4.70306 -1.94138 0
M  V30 12859 H 1207.1 5.54366 1.12673 0
M  V30 12860 H 1205.65 6.45284 0.919321 0
M  V30 12861 N 1209.09 0.96196 1.24836 0
M  V30 12862 C 1210.05 0.492443 2.23847 0
M  V30 12863 C 1211.05 -0.40788 1.55541 0
M  V30 12864 O 1212.24 -0.204143 1.73 0
M  V30 12865 C 1209.37 -0.287578 3.39685 0
M  V30 12866 H 1210.56 1.36767 2.66899 0
M  V30 12867 H 1208.12 0.745967 1.3735 0
M  V30 12868 H 1208.85 -1.18015 3.02064 0
M  V30 12869 H 1208.64 0.358431 3.90458 0
M  V30 12870 H 1210.13 -0.605297 4.1319 0
M  V30 12871 N 1210.56 -1.39601 0.731392 0
M  V30 12872 C 1211.47 -2.34425 0.090527 0
M  V30 12873 C 1212.49 -1.58131 -0.725992 0
M  V30 12874 O 1213.67 -1.90441 -0.655294 0
M  V30 12875 C 1210.73 -3.37138 -0.808624 0
M  V30 12876 C 1209.79 -4.29295 0.0197365 0
M  V30 12877 C 1209.02 -5.27102 -0.836593 0
M  V30 12878 O 1209.25 -5.31302 -2.07543 0
M  V30 12879 O 1208.18 -6.01307 -0.267172 0
M  V30 12880 H 1212.01 -2.9088 0.873084 0
M  V30 12881 H 1209.59 -1.41066 0.492024 0
M  V30 12882 H 1211.47 -4.00087 -1.32319 0
M  V30 12883 H 1210.15 -2.83074 -1.57006 0
M  V30 12884 H 1209.06 -3.69581 0.579744 0
M  V30 12885 H 1210.39 -4.86555 0.743308 0
M  V30 12886 N 1212.04 -0.478751 -1.50152 0
M  V30 12887 C 1213.01 0.300181 -2.27226 0
M  V30 12888 C 1214.01 0.913705 -1.32318 0
M  V30 12889 O 1215.2 0.781692 -1.55677 0
M  V30 12890 C 1212.33 1.42838 -3.09532 0
M  V30 12891 H 1213.52 -0.375845 -2.97536 0
M  V30 12892 H 1211.07 -0.233037 -1.54553 0
M  V30 12893 H 1211.81 2.13923 -2.43737 0
M  V30 12894 H 1211.59 0.994161 -3.79287 0
M  V30 12895 H 1213.08 1.97765 -3.67802 0
M  V30 12896 N 1213.52 1.56172 -0.211661 0
M  V30 12897 C 1214.48 2.18602 0.688906 0
M  V30 12898 C 1215.48 1.14508 1.12892 0
M  V30 12899 O 1216.67 1.39799 1.03932 0
M  V30 12900 C 1213.81 2.80141 1.94253 0
M  V30 12901 H 1215 2.9955 0.144765 0
M  V30 12902 H 1212.55 1.56254 0.0379615 0
M  V30 12903 H 1213.29 2.03035 2.52878 0
M  V30 12904 H 1213.07 3.56358 1.63558 0
M  V30 12905 H 1214.56 3.28026 2.58436 0
M  V30 12906 N 1215 -0.0618163 1.57479 0
M  V30 12907 C 1215.93 -1.07252 2.07411 0
M  V30 12908 C 1216.91 -1.39756 0.969649 0
M  V30 12909 O 1218.09 -1.4921 1.24298 0
M  V30 12910 C 1215.22 -2.38313 2.52635 0
M  V30 12911 C 1214.18 -2.20136 3.67048 0
M  V30 12912 C 1213.5 -3.56668 3.98361 0
M  V30 12913 C 1214.8 -1.61437 4.96725 0
M  V30 12914 H 1216.5 -0.656983 2.92103 0
M  V30 12915 H 1214.04 -0.314579 1.40522 0
M  V30 12916 H 1216 -3.09319 2.86181 0
M  V30 12917 H 1214.72 -2.81865 1.64984 0
M  V30 12918 H 1213.38 -1.51569 3.338 0
M  V30 12919 H 1213.03 -3.97809 3.07826 0
M  V30 12920 H 1212.73 -3.45342 4.75408 0
M  V30 12921 H 1214.25 -4.2909 4.34413 0
M  V30 12922 H 1215.67 -2.2232 5.28438 0
M  V30 12923 H 1214.06 -1.60779 5.78161 0
M  V30 12924 H 1215.13 -0.576795 4.81457 0
M  V30 12925 N 1216.48 -1.54033 -0.333429 0
M  V30 12926 C 1217.41 -1.85719 -1.4153 0
M  V30 12927 C 1218.39 -0.713144 -1.54429 0
M  V30 12928 O 1219.57 -0.965984 -1.68471 0
M  V30 12929 C 1216.7 -2.07578 -2.78439 0
M  V30 12930 C 1215.66 -3.23411 -2.80338 0
M  V30 12931 C 1214.98 -3.30622 -4.2023 0
M  V30 12932 C 1216.28 -4.6129 -2.44968 0
M  V30 12933 H 1217.98 -2.76325 -1.15261 0
M  V30 12934 H 1215.52 -1.32957 -0.55303 0
M  V30 12935 H 1217.48 -2.28329 -3.5418 0
M  V30 12936 H 1216.2 -1.13713 -3.06165 0
M  V30 12937 H 1214.86 -3.02531 -2.07052 0
M  V30 12938 H 1214.51 -2.34333 -4.45081 0
M  V30 12939 H 1214.21 -4.08466 -4.22409 0
M  V30 12940 H 1215.73 -3.53596 -4.97798 0
M  V30 12941 H 1217.14 -4.81987 -3.10421 0
M  V30 12942 H 1215.54 -5.41611 -2.58414 0
M  V30 12943 H 1216.61 -4.6421 -1.40134 0
M  V30 12944 N 1217.95 0.594978 -1.45938 0
M  V30 12945 C 1218.89 1.71909 -1.51591 0
M  V30 12946 C 1219.9 1.57671 -0.405416 0
M  V30 12947 O 1221.09 1.65321 -0.673144 0
M  V30 12948 C 1218.19 3.10041 -1.3685 0
M  V30 12949 C 1217.36 3.50399 -2.61801 0
M  V30 12950 C 1216.42 4.67542 -2.41435 0
M  V30 12951 O 1215.45 4.74022 -3.15106 0
M  V30 12952 N 1216.65 5.6163 -1.46808 0
M  V30 12953 H 1219.41 1.67518 -2.48511 0
M  V30 12954 H 1216.97 0.78062 -1.41838 0
M  V30 12955 H 1218.97 3.86183 -1.21017 0
M  V30 12956 H 1217.54 3.08868 -0.481589 0
M  V30 12957 H 1216.76 2.64088 -2.92662 0
M  V30 12958 H 1218.04 3.74125 -3.44831 0
M  V30 12959 H 1217.44 5.5912 -0.860333 0
M  V30 12960 H 1216 6.37252 -1.36942 0
M  V30 12961 N 1219.43 1.33438 0.838571 0
M  V30 12962 C 1220.67 1.26245 1.60753 0
M  V30 12963 C 1221.04 -0.169255 1.91253 0
M  V30 12964 O 1222.24 -0.365157 2.66308 0
M  V30 12965 C 1220.51 2.11348 2.88213 0
M  V30 12966 S 1222.07 2.21348 3.78881 0
M  V30 12967 H 1218.89 0.449132 0.551182 0
M  V30 12968 H 1221.49 1.68474 0.991798 0
M  V30 12969 H 1220.19 3.14402 2.63779 0
M  V30 12970 H 1219.72 1.69957 3.54793 0
M  V30 12971 H 1221.74 1.37477 4.76775 0
M  V30 12972 N 1220.91 -1.05686 1.16912 0
M  V30 12973 C 1222.14 -1.82282 0.978811 0
M  V30 12974 C 1222.55 -1.8278 -0.472972 0
M  V30 12975 O 1221.91 -1.25143 -1.32836 0
M  V30 12976 C 1221.96 -3.28623 1.50629 0
M  V30 12977 O 1221.68 -3.28269 2.90122 0
M  V30 12978 C 1223.18 -4.21927 1.35987 0
M  V30 12979 H 1220.4 -0.574558 0.346588 0
M  V30 12980 H 1222.95 -1.33301 1.55084 0
M  V30 12981 H 1221.1 -3.74893 0.976404 0
M  V30 12982 H 1221.52 -4.19824 3.14401 0
M  V30 12983 H 1222.99 -5.2261 1.77716 0
M  V30 12984 H 1223.47 -4.38131 0.30626 0
M  V30 12985 H 1224.07 -3.81508 1.87968 0
M  V30 12986 N 1222.39 -0.968567 -1.24324 0
M  V30 12987 C 1223.35 -0.504307 -2.23583 0
M  V30 12988 C 1224.35 0.399626 -1.55755 0
M  V30 12989 O 1225.54 0.194966 -1.73106 0
M  V30 12990 C 1222.67 0.26956 -3.39833 0
M  V30 12991 H 1223.87 -1.3818 -2.6617 0
M  V30 12992 H 1221.42 -0.753241 -1.36952 0
M  V30 12993 H 1222.15 1.16411 -3.02686 0
M  V30 12994 H 1221.94 -0.379133 -3.90263 0
M  V30 12995 H 1223.43 0.583376 -4.13505 0
M  V30 12996 N 1223.87 1.39211 -0.738786 0
M  V30 12997 C 1225.14 1.9442 -0.214533 0
M  V30 12998 C 1225.52 1.67528 1.28443 0
M  V30 12999 O 1224.87 1.0056 2.05183 0
M  V30 13000 C 1225.08 3.44603 -0.552232 0
M  V30 13001 C 1226.43 4.21602 -0.503663 0
M  V30 13002 O 1227.45 3.52819 -0.489647 0
M  V30 13003 O 1226.31 5.44194 -0.50153 0
M  V30 13004 H 1223.41 0.826011 -0.0404247 0
M  V30 13005 H 1225.95 1.48689 -0.817902 0
M  V30 13006 H 1224.72 3.57626 -1.58806 0
M  V30 13007 H 1224.35 3.9752 0.0799096 0
M  V30 13008 N 1225.34 0.486708 1.49896 0
M  V30 13009 C 1226.57 -0.0600816 2.06813 0
M  V30 13010 C 1226.99 -1.32112 1.34877 0
M  V30 13011 O 1226.34 -1.77537 0.422725 0
M  V30 13012 C 1226.4 -0.332266 3.5997 0
M  V30 13013 O 1226.12 0.878771 4.29196 0
M  V30 13014 C 1227.62 -0.924289 4.33557 0
M  V30 13015 H 1224.84 0.0140611 0.670853 0
M  V30 13016 H 1227.38 0.67997 1.92864 0
M  V30 13017 H 1225.54 -1.02227 3.73669 0
M  V30 13018 H 1225.95 0.632873 5.20668 0
M  V30 13019 H 1227.42 -1.06441 5.4164 0
M  V30 13020 H 1227.9 -1.91844 3.95085 0
M  V30 13021 H 1228.51 -0.272189 4.24428 0
M  V30 13022 N 1226.82 -1.56058 0.219941 0
M  V30 13023 C 1227.75 -2.2321 -0.685547 0
M  V30 13024 C 1228.73 -1.20328 -1.20229 0
M  V30 13025 O 1229.92 -1.48909 -1.24659 0
M  V30 13026 C 1227.05 -2.91076 -1.89452 0
M  V30 13027 C 1226 -4.00415 -1.51169 0
M  V30 13028 C 1225.33 -4.55569 -2.79931 0
M  V30 13029 C 1226.63 -5.17549 -0.702896 0
M  V30 13030 H 1228.32 -2.99136 -0.125671 0
M  V30 13031 H 1225.87 -1.43879 -0.0590043 0
M  V30 13032 H 1227.82 -3.36744 -2.53341 0
M  V30 13033 H 1226.55 -2.12594 -2.47934 0
M  V30 13034 H 1225.21 -3.55475 -0.896275 0
M  V30 13035 H 1224.85 -3.73819 -3.36553 0
M  V30 13036 H 1224.55 -5.29361 -2.55049 0
M  V30 13037 H 1226.08 -5.03955 -3.44764 0
M  V30 13038 H 1227.49 -5.59608 -1.24544 0
M  V30 13039 H 1225.89 -5.97563 -0.551234 0
M  V30 13040 H 1226.96 -4.84027 0.29083 0
M  V30 13041 N 1228.3 0.053464 -1.57509 0
M  V30 13042 C 1229.26 1.04604 -2.03938 0
M  V30 13043 C 1230.26 1.30509 -0.939357 0
M  V30 13044 O 1231.45 1.25922 -1.20371 0
M  V30 13045 C 1228.59 2.38516 -2.43563 0
M  V30 13046 H 1229.78 0.645484 -2.92871 0
M  V30 13047 H 1227.33 0.299683 -1.534 0
M  V30 13048 H 1228.07 2.83368 -1.57712 0
M  V30 13049 H 1227.85 2.2105 -3.23851 0
M  V30 13050 H 1229.34 3.09826 -2.79996 0
M  V30 13051 N 1229.78 1.54207 0.325255 0
M  V30 13052 C 1231.06 1.6298 1.08153 0
M  V30 13053 C 1231.44 0.462583 2.05969 0
M  V30 13054 O 1230.78 -0.543323 2.21947 0
M  V30 13055 C 1230.99 2.999 1.78497 0
M  V30 13056 C 1232.34 3.55888 2.3158 0
M  V30 13057 O 1233.37 3.02194 1.88566 0
M  V30 13058 O 1232.23 4.49847 3.10322 0
M  V30 13059 H 1229.32 0.659923 0.498429 0
M  V30 13060 H 1231.87 1.66553 0.325282 0
M  V30 13061 H 1230.64 3.7629 1.07338 0
M  V30 13062 H 1230.26 2.99997 2.60936 0
M  V30 13063 N 1231.26 -0.58723 1.46251 0
M  V30 13064 C 1232.22 -1.67863 1.5606 0
M  V30 13065 C 1233.22 -1.54715 0.438162 0
M  V30 13066 O 1234.41 -1.59415 0.702323 0
M  V30 13067 C 1231.54 -3.07262 1.47659 0
M  V30 13068 H 1232.74 -1.60525 2.53321 0
M  V30 13069 H 1230.29 -0.804691 1.33994 0
M  V30 13070 H 1231.02 -3.20159 0.5166 0
M  V30 13071 H 1230.81 -3.18213 2.29092 0
M  V30 13072 H 1232.3 -3.8672 1.57599 0
M  V30 13073 N 1232.74 -1.33881 -0.831482 0
M  V30 13074 C 1233.98 -1.25942 -1.58955 0
M  V30 13075 C 1234.31 0.172542 -1.93432 0
M  V30 13076 O 1233.59 1.11577 -1.59314 0
M  V30 13077 C 1233.87 -2.14193 -2.89471 0
M  V30 13078 C 1233.73 -3.65883 -2.61628 0
M  V30 13079 C 1235.04 -2.02071 -3.90967 0
M  V30 13080 H 1232.16 -0.458841 -0.576744 0
M  V30 13081 H 1234.81 -1.64052 -0.958482 0
M  V30 13082 H 1232.96 -1.81821 -3.43327 0
M  V30 13083 H 1234.63 -4.08581 -2.14148 0
M  V30 13084 H 1232.87 -3.87397 -1.95208 0
M  V30 13085 H 1233.54 -4.22988 -3.54662 0
M  V30 13086 H 1236.02 -2.30476 -3.46439 0
M  V30 13087 H 1234.89 -2.66059 -4.80108 0
M  V30 13088 H 1235.15 -0.995121 -4.30755 0
M  V30 13089 N 1234.21 1.05064 -1.1747 0
M  V30 13090 C 1235.14 2.14786 -0.915936 0
M  V30 13091 C 1236.12 1.69502 0.142561 0
M  V30 13092 O 1237.31 1.94198 -0.00794522 0
M  V30 13093 C 1234.44 3.44629 -0.429864 0
M  V30 13094 C 1233.39 4.03486 -1.42769 0
M  V30 13095 C 1232.72 5.28689 -0.799528 0
M  V30 13096 C 1234.02 4.40823 -2.80129 0
M  V30 13097 H 1235.71 2.3669 -1.83352 0
M  V30 13098 H 1233.26 1.13751 -0.882992 0
M  V30 13099 H 1235.21 4.20737 -0.236245 0
M  V30 13100 H 1233.94 3.22381 0.523263 0
M  V30 13101 H 1232.6 3.29449 -1.60808 0
M  V30 13102 H 1232.24 5.02744 0.160474 0
M  V30 13103 H 1231.94 5.69028 -1.46565 0
M  V30 13104 H 1233.47 6.07483 -0.616212 0
M  V30 13105 H 1234.88 5.07959 -2.65801 0
M  V30 13106 H 1233.28 4.92183 -3.43331 0
M  V30 13107 H 1234.35 3.51108 -3.34441 0
M  V30 13108 N 1235.69 0.975146 1.23809 0
M  V30 13109 C 1236.94 0.636678 1.91388 0
M  V30 13110 C 1237.25 -0.832876 1.76982 0
M  V30 13111 O 1238.46 -1.28218 2.39316 0
M  V30 13112 C 1236.92 1.08813 3.43057 0
M  V30 13113 C 1236.52 2.58165 3.66135 0
M  V30 13114 C 1238.27 0.823154 4.16443 0
M  V30 13115 C 1236.17 2.97004 5.11412 0
M  V30 13116 H 1235.1 0.234424 0.716632 0
M  V30 13117 H 1237.76 1.18235 1.40331 0
M  V30 13118 H 1236.14 0.470709 3.93192 0
M  V30 13119 H 1237.31 3.25101 3.26567 0
M  V30 13120 H 1235.63 2.82353 3.06049 0
M  V30 13121 H 1238.22 1.08925 5.23488 0
M  V30 13122 H 1238.57 -0.240705 4.15604 0
M  V30 13123 H 1239.1 1.4019 3.72279 0
M  V30 13124 H 1235.84 4.02492 5.17378 0
M  V30 13125 H 1235.36 2.34759 5.51949 0
M  V30 13126 H 1237.04 2.8732 5.79704 0
M  V30 13127 N 1237.17 -1.38817 0.746158 0
M  V30 13128 C 1238.4 -2.0457 0.309605 0
M  V30 13129 C 1238.81 -1.5627 -1.05948 0
M  V30 13130 O 1238.17 -0.73248 -1.67156 0
M  V30 13131 C 1238.22 -3.60126 0.314843 0
M  V30 13132 O 1237.94 -4.06652 1.6299 0
M  V30 13133 C 1239.44 -4.4309 -0.136497 0
M  V30 13134 H 1236.66 -0.657597 0.133441 0
M  V30 13135 H 1239.21 -1.77651 1.01293 0
M  V30 13136 H 1237.36 -3.85908 -0.339685 0
M  V30 13137 H 1237.78 -5.01042 1.55103 0
M  V30 13138 H 1239.25 -5.5194 -0.0816714 0
M  V30 13139 H 1239.73 -4.22959 -1.18332 0
M  V30 13140 H 1240.33 -4.22481 0.488879 0
M  V30 13141 N 1238.65 -0.49465 -1.49636 0
M  V30 13142 C 1239.88 0.0491129 -2.06842 0
M  V30 13143 C 1240.29 1.31395 -1.35576 0
M  V30 13144 O 1239.65 1.7731 -0.432135 0
M  V30 13145 C 1239.7 0.313171 -3.60141 0
M  V30 13146 O 1239.42 -0.90152 -4.28724 0
M  V30 13147 C 1240.92 0.901284 -4.34041 0
M  V30 13148 H 1238.14 -0.0176186 -0.670769 0
M  V30 13149 H 1240.68 -0.690188 -1.92501 0
M  V30 13150 H 1238.84 1.00244 -3.74206 0
M  V30 13151 H 1239.25 -0.660477 -5.20325 0
M  V30 13152 H 1240.73 1.03567 -5.42197 0
M  V30 13153 H 1241.2 1.89746 -3.96097 0
M  V30 13154 H 1241.81 0.249677 -4.24566 0
M  V30 13155 N 1240.13 1.55939 -0.228214 0
M  V30 13156 C 1241.09 2.1932 0.665681 0
M  V30 13157 C 1242.09 1.15699 1.11671 0
M  V30 13158 O 1243.28 1.40893 1.02444 0
M  V30 13159 C 1240.41 2.82185 1.9127 0
M  V30 13160 H 1241.6 2.99687 0.112986 0
M  V30 13161 H 1239.16 1.56285 0.0213865 0
M  V30 13162 H 1239.89 2.05706 2.5071 0
M  V30 13163 H 1239.68 3.58073 1.5977 0
M  V30 13164 H 1241.17 3.30748 2.54942 0
M  V30 13165 N 1241.6 -0.0451101 1.57535 0
M  V30 13166 C 1242.55 -1.05817 2.01958 0
M  V30 13167 C 1243.54 -1.32963 0.906077 0
M  V30 13168 O 1244.73 -1.32816 1.16999 0
M  V30 13169 C 1241.86 -2.36414 2.48924 0
M  V30 13170 C 1240.95 -2.12428 3.67063 0
M  V30 13171 N 1241.34 -1.58448 4.80341 0
M  V30 13172 C 1239.63 -2.42785 3.74128 0
M  V30 13173 C 1240.34 -1.49896 5.62055 0
M  V30 13174 N 1239.31 -1.96892 5.0669 0
M  V30 13175 H 1243.11 -0.634569 2.86968 0
M  V30 13176 H 1240.63 -0.251719 1.60437 0
M  V30 13177 H 1242.62 -3.09781 2.79001 0
M  V30 13178 H 1241.28 -2.79467 1.65313 0
M  V30 13179 H 1242.3 -1.26939 5.02102 0
M  V30 13180 H 1238.97 -2.89022 3.01285 0
M  V30 13181 H 1240.36 -1.08788 6.63035 0
M  V30 13182 N 1243.08 -1.54377 -0.317073 0
M  V30 13183 C 1244.05 -1.83488 -1.37349 0
M  V30 13184 C 1245.05 -0.706981 -1.44424 0
M  V30 13185 O 1246.24 -0.975289 -1.44339 0
M  V30 13186 C 1243.37 -2.00074 -2.76013 0
M  V30 13187 H 1244.56 -2.77883 -1.12789 0
M  V30 13188 H 1242.11 -1.46194 -0.552902 0
M  V30 13189 H 1242.85 -1.07913 -3.05819 0
M  V30 13190 H 1242.63 -2.82155 -2.7227 0
M  V30 13191 H 1244.12 -2.24022 -3.52426 0
M  V30 13192 N 1244.56 0.579466 -1.4656 0
M  V30 13193 C 1245.81 1.33738 -1.5325 0
M  V30 13194 C 1246.16 1.91527 -0.183045 0
M  V30 13195 O 1245.45 1.73698 0.80867 0
M  V30 13196 C 1245.65 2.48417 -2.56951 0
M  V30 13197 C 1245.48 2.01862 -4.01848 0
M  V30 13198 C 1244.25 1.86729 -4.69532 0
M  V30 13199 C 1246.45 1.57633 -4.89547 0
M  V30 13200 N 1244.43 1.34279 -5.99034 0
M  V30 13201 C 1245.8 1.16797 -6.08899 0
M  V30 13202 C 1247.85 1.45481 -4.76172 0
M  V30 13203 C 1246.56 0.650182 -7.16355 0
M  V30 13204 C 1248.58 0.951049 -5.83703 0
M  V30 13205 C 1247.94 0.552488 -7.0223 0
M  V30 13206 H 1244.04 0.482241 -0.615603 0
M  V30 13207 H 1246.63 0.659411 -1.83193 0
M  V30 13208 H 1244.8 3.13773 -2.28912 0
M  V30 13209 H 1246.53 3.15374 -2.53616 0
M  V30 13210 H 1243.29 2.08773 -4.25101 0
M  V30 13211 H 1243.71 1.10207 -6.6797 0
M  V30 13212 H 1248.35 1.74912 -3.84923 0
M  V30 13213 H 1246.07 0.343456 -8.0737 0
M  V30 13214 H 1249.66 0.860884 -5.75396 0
M  V30 13215 H 1248.54 0.168703 -7.84019 0
M  V30 13216 N 1246.04 1.3432 0.824371 0
M  V30 13217 C 1246.97 1.21619 1.94271 0
M  V30 13218 C 1247.98 0.143628 1.62165 0
M  V30 13219 O 1249.17 0.395353 1.74067 0
M  V30 13220 C 1246.27 0.846128 3.28167 0
M  V30 13221 C 1245.45 2.01337 3.88307 0
M  V30 13222 C 1244.5 1.62194 5.00579 0
M  V30 13223 O 1243.53 2.33831 5.18953 0
M  V30 13224 N 1244.73 0.535262 5.78027 0
M  V30 13225 H 1247.5 2.17963 2.05699 0
M  V30 13226 H 1245.06 1.27256 1.00088 0
M  V30 13227 H 1247.05 0.566086 4.00721 0
M  V30 13228 H 1245.62 -0.0270764 3.12588 0
M  V30 13229 H 1244.84 2.45823 3.08164 0
M  V30 13230 H 1246.13 2.79404 4.25219 0
M  V30 13231 H 1245.53 -0.0603126 5.65668 0
M  V30 13232 H 1244.08 0.314946 6.51039 0
M  V30 13233 N 1247.52 -1.0444 1.18026 0
M  V30 13234 C 1248.47 -2.10671 0.871877 0
M  V30 13235 C 1249.45 -1.60134 -0.156798 0
M  V30 13236 O 1250.64 -1.76938 0.0467129 0
M  V30 13237 C 1247.77 -3.41017 0.395271 0
M  V30 13238 C 1246.86 -3.98331 1.4558 0
M  V30 13239 N 1247.25 -4.29508 2.67127 0
M  V30 13240 C 1245.55 -4.2616 1.31544 0
M  V30 13241 C 1246.25 -4.7532 3.35329 0
M  V30 13242 N 1245.22 -4.75904 2.6271 0
M  V30 13243 H 1249.03 -2.32647 1.79589 0
M  V30 13244 H 1246.54 -1.22158 1.0701 0
M  V30 13245 H 1248.54 -4.16609 0.155861 0
M  V30 13246 H 1247.2 -3.20469 -0.522452 0
M  V30 13247 H 1248.21 -4.19271 3.04027 0
M  V30 13248 H 1244.88 -4.14959 0.459962 0
M  V30 13249 H 1246.27 -5.08493 4.39186 0
M  V30 13250 N 1248.99 -0.981699 -1.2329 0
M  V30 13251 C 1249.93 -0.481042 -2.24095 0
M  V30 13252 C 1250.94 0.417818 -1.57347 0
M  V30 13253 O 1252.13 0.221746 -1.77117 0
M  V30 13254 C 1249.23 0.323324 -3.37354 0
M  V30 13255 C 1248.4 -0.568975 -4.33684 0
M  V30 13256 C 1247.46 0.181761 -5.25886 0
M  V30 13257 O 1246.49 -0.429059 -5.67581 0
M  V30 13258 N 1247.69 1.46737 -5.61648 0
M  V30 13259 H 1250.45 -1.34781 -2.67683 0
M  V30 13260 H 1248.01 -0.855117 -1.37475 0
M  V30 13261 H 1250.01 0.833934 -3.96015 0
M  V30 13262 H 1248.58 1.09111 -2.9294 0
M  V30 13263 H 1247.8 -1.2604 -3.73507 0
M  V30 13264 H 1249.08 -1.17704 -4.94998 0
M  V30 13265 H 1248.48 1.98513 -5.29725 0
M  V30 13266 H 1247.04 1.92339 -6.22775 0
M  V30 13267 N 1250.47 1.3842 -0.753509 0
M  V30 13268 C 1251.72 1.99723 -0.309021 0
M  V30 13269 C 1252.04 1.60111 1.11308 0
M  V30 13270 O 1251.31 0.85792 1.76115 0
M  V30 13271 H 1249.89 0.738667 -0.111266 0
M  V30 13272 H 1252.55 1.69186 -0.967586 0
M  V30 13273 H 1251.65 3.09874 -0.372095 0
M  V30 13274 N 1251.95 0.502579 1.49372 0
M  V30 13275 C 1252.9 -0.275004 2.29156 0
M  V30 13276 C 1253.87 -0.95892 1.35624 0
M  V30 13277 O 1255.05 -0.965276 1.64581 0
M  V30 13278 C 1252.19 -1.33255 3.18335 0
M  V30 13279 C 1251.31 -0.660248 4.26925 0
M  V30 13280 C 1250.44 -1.69837 5.03318 0
M  V30 13281 C 1249.48 -1.00802 6.03743 0
M  V30 13282 N 1248.62 -1.99042 6.73295 0
M  V30 13283 H 1253.46 0.411599 2.95144 0
M  V30 13284 H 1250.99 0.214824 1.45523 0
M  V30 13285 H 1252.95 -1.95769 3.68416 0
M  V30 13286 H 1251.58 -1.98789 2.54328 0
M  V30 13287 H 1250.63 0.0782181 3.8032 0
M  V30 13288 H 1251.95 -0.11689 4.98663 0
M  V30 13289 H 1251.1 -2.39852 5.57275 0
M  V30 13290 H 1249.84 -2.27558 4.31357 0
M  V30 13291 H 1248.84 -0.293654 5.49015 0
M  V30 13292 H 1250.07 -0.437285 6.77691 0
M  V30 13293 H 1248.01 -2.55722 6.04104 0
M  V30 13294 H 1247.93 -1.49776 7.41015 0
M  V30 13295 H 1249.2 -2.6834 7.31856 0
M  V30 13296 N 1253.43 -1.55816 0.23648 0
M  V30 13297 C 1254.66 -2.03083 -0.395584 0
M  V30 13298 C 1255.07 -1.11599 -1.52286 0
M  V30 13299 O 1254.43 -0.128403 -1.82048 0
M  V30 13300 C 1254.48 -3.49776 -0.913197 0
M  V30 13301 O 1254.2 -4.37773 0.169151 0
M  V30 13302 C 1255.7 -4.12756 -1.617 0
M  V30 13303 H 1252.92 -0.66421 -0.0952146 0
M  V30 13304 H 1255.47 -2.01354 0.357299 0
M  V30 13305 H 1253.62 -3.52072 -1.6163 0
M  V30 13306 H 1254.03 -5.24029 -0.222217 0
M  V30 13307 H 1255.51 -5.17123 -1.93101 0
M  V30 13308 H 1255.99 -3.58631 -2.53537 0
M  V30 13309 H 1256.59 -4.14353 -0.958736 0
M  V30 13310 N 1254.91 0.036755 -1.57557 0
M  V30 13311 C 1255.84 1.03939 -2.09091 0
M  V30 13312 C 1256.82 1.38196 -0.991761 0
M  V30 13313 O 1258 1.47214 -1.26656 0
M  V30 13314 C 1255.13 2.34263 -2.56394 0
M  V30 13315 C 1254.09 2.14269 -3.70504 0
M  V30 13316 C 1253.41 3.50286 -4.03985 0
M  V30 13317 C 1254.71 1.53514 -4.9923 0
M  V30 13318 H 1256.41 0.610429 -2.93111 0
M  V30 13319 H 1253.95 0.292183 -1.41005 0
M  V30 13320 H 1255.91 3.04727 -2.91066 0
M  V30 13321 H 1254.63 2.79205 -1.69447 0
M  V30 13322 H 1253.29 1.46239 -3.36169 0
M  V30 13323 H 1252.94 3.92861 -3.14116 0
M  V30 13324 H 1252.64 3.37735 -4.80842 0
M  V30 13325 H 1254.16 4.22124 -4.41184 0
M  V30 13326 H 1255.57 2.13885 -5.31908 0
M  V30 13327 H 1253.97 1.51561 -5.80646 0
M  V30 13328 H 1255.04 0.500126 -4.82314 0
M  V30 13329 N 1256.39 1.54543 0.308881 0
M  V30 13330 C 1257.63 1.73449 1.04506 0
M  V30 13331 C 1257.96 0.516034 1.8753 0
M  V30 13332 O 1257.22 -0.502106 1.89149 0
M  V30 13333 C 1257.51 2.97124 1.98626 0
M  V30 13334 C 1257.18 4.31256 1.31641 0
M  V30 13335 C 1255.84 4.67719 1.13105 0
M  V30 13336 C 1258.19 5.14437 0.836888 0
M  V30 13337 C 1255.52 5.84949 0.452878 0
M  V30 13338 C 1257.87 6.32365 0.172473 0
M  V30 13339 C 1256.54 6.67495 -0.0249143 0
M  V30 13340 H 1255.81 0.634697 0.382415 0
M  V30 13341 H 1258.46 1.88795 0.320714 0
M  V30 13342 H 1256.76 2.76526 2.77562 0
M  V30 13343 H 1258.46 3.08946 2.55643 0
M  V30 13344 H 1255.05 4.02576 1.47074 0
M  V30 13345 H 1259.23 4.86772 0.967834 0
M  V30 13346 H 1254.49 6.10717 0.288886 0
M  V30 13347 H 1258.66 6.96092 -0.207027 0
M  V30 13348 H 1256.29 7.5819 -0.552425 0
M  V30 13349 N 1257.86 -0.571685 1.46866 0
M  V30 13350 C 1259.11 -1.32574 1.5201 0
M  V30 13351 C 1259.43 -1.94762 0.180838 0
M  V30 13352 O 1260.63 -2.71276 0.110158 0
M  V30 13353 C 1259.09 -2.40331 2.67897 0
M  V30 13354 C 1258.7 -1.84398 4.08291 0
M  V30 13355 C 1260.44 -3.17009 2.82321 0
M  V30 13356 C 1258.35 -2.89849 5.15501 0
M  V30 13357 H 1257.28 -0.498428 0.565761 0
M  V30 13358 H 1259.93 -0.608853 1.73105 0
M  V30 13359 H 1258.31 -3.14869 2.40153 0
M  V30 13360 H 1259.48 -1.16329 4.45875 0
M  V30 13361 H 1257.8 -1.20351 3.98628 0
M  V30 13362 H 1260.4 -3.95729 3.59587 0
M  V30 13363 H 1260.74 -3.70292 1.90236 0
M  V30 13364 H 1261.27 -2.4958 3.09765 0
M  V30 13365 H 1258.01 -2.4144 6.09415 0
M  V30 13366 H 1257.53 -3.56372 4.82451 0
M  V30 13367 H 1259.21 -3.53603 5.41825 0
M  V30 13368 N 1259.34 -1.34755 -0.817236 0
M  V30 13369 C 1260.57 -1.30676 -1.61054 0
M  V30 13370 C 1260.99 0.115343 -1.87746 0
M  V30 13371 O 1260.35 1.07887 -1.45705 0
M  V30 13372 C 1260.4 -2.10881 -2.92509 0
M  V30 13373 O 1259.5 -1.48223 -3.84842 0
M  V30 13374 H 1258.84 -0.448531 -0.489608 0
M  V30 13375 H 1261.37 -1.77642 -1.01512 0
M  V30 13376 H 1261.38 -2.22446 -3.42026 0
M  V30 13377 H 1260.06 -3.14274 -2.72406 0
M  V30 13378 H 1258.63 -1.45434 -3.4337 0
M  V30 13379 N 1260.82 1.03812 -1.18578 0
M  V30 13380 C 1262.24 1.29271 -0.936011 0
M  V30 13381 C 1262.44 1.97551 0.396965 0
M  V30 13382 O 1261.49 2.25769 1.13069 0
M  V30 13383 C 1262.8 2.1489 -2.1034 0
M  V30 13384 C 1264.35 2.28228 -2.14198 0
M  V30 13385 C 1264.83 3.17214 -3.30362 0
M  V30 13386 N 1266.32 3.24802 -3.30239 0
M  V30 13387 C 1267.05 3.9382 -4.16765 0
M  V30 13388 N 1266.55 4.65147 -5.1343 0
M  V30 13389 N 1268.34 3.90125 -4.04671 0
M  V30 13390 H 1260.49 0.579011 -2.04356 0
M  V30 13391 H 1262.76 0.318021 -0.893066 0
M  V30 13392 H 1262.46 1.72029 -3.06755 0
M  V30 13393 H 1262.34 3.15576 -2.06619 0
M  V30 13394 H 1264.72 2.70324 -1.18359 0
M  V30 13395 H 1264.8 1.27124 -2.21976 0
M  V30 13396 H 1264.45 2.75829 -4.26475 0
M  V30 13397 H 1264.38 4.18356 -3.19821 0
M  V30 13398 H 1266.87 2.73994 -2.60261 0
M  V30 13399 H 1267.18 5.15414 -5.7582 0
M  V30 13400 H 1265.53 4.64043 -5.17387 0
M  V30 13401 H 1268.72 3.33536 -3.28438 0
M  V30 13402 H 1268.89 4.43641 -4.7232 0
M  V30 13403 N 1262.3 0.988223 1.22768 0
M  V30 13404 C 1263.24 0.534605 2.24523 0
M  V30 13405 C 1264.21 -0.430615 1.60421 0
M  V30 13406 O 1265.4 -0.336417 1.87811 0
M  V30 13407 C 1262.54 -0.149195 3.44777 0
M  V30 13408 C 1261.65 0.85721 4.2341 0
M  V30 13409 C 1260.79 0.147411 5.30995 0
M  V30 13410 C 1259.83 1.1425 6.01343 0
M  V30 13411 N 1258.96 0.461327 7.00583 0
M  V30 13412 H 1263.8 1.40708 2.62689 0
M  V30 13413 H 1261.34 0.704918 1.2911 0
M  V30 13414 H 1263.3 -0.562527 4.1339 0
M  V30 13415 H 1261.93 -0.985485 3.07389 0
M  V30 13416 H 1260.98 1.38889 3.54138 0
M  V30 13417 H 1262.29 1.61517 4.71926 0
M  V30 13418 H 1261.45 -0.32289 6.0584 0
M  V30 13419 H 1260.19 -0.643085 4.83442 0
M  V30 13420 H 1259.19 1.62348 5.25284 0
M  V30 13421 H 1260.42 1.93379 6.50985 0
M  V30 13422 H 1258.36 -0.309818 6.55268 0
M  V30 13423 H 1258.28 1.15781 7.47082 0
M  V30 13424 H 1259.55 0.0136734 7.79499 0
M  V30 13425 N 1263.78 -1.38018 0.760839 0
M  V30 13426 C 1265 -2.04231 0.331285 0
M  V30 13427 C 1265.42 -1.57385 -1.04285 0
M  V30 13428 O 1264.78 -0.750168 -1.66369 0
M  V30 13429 C 1264.83 -3.59772 0.353021 0
M  V30 13430 O 1264.55 -4.049 1.67294 0
M  V30 13431 C 1266.05 -4.4321 -0.0894942 0
M  V30 13432 H 1263.27 -0.656145 0.140408 0
M  V30 13433 H 1265.81 -1.76567 1.03172 0
M  V30 13434 H 1263.97 -3.86246 -0.298735 0
M  V30 13435 H 1264.38 -4.99369 1.60408 0
M  V30 13436 H 1265.86 -5.51995 -0.0231262 0
M  V30 13437 H 1266.33 -4.2419 -1.13839 0
M  V30 13438 H 1266.94 -4.21939 0.533661 0
M  V30 13439 N 1265.25 -0.510493 -1.49103 0
M  V30 13440 C 1266.48 0.0271324 -2.06582 0
M  V30 13441 C 1266.89 1.30499 -1.36991 0
M  V30 13442 O 1266.23 1.78229 -0.444976 0
M  V30 13443 C 1266.3 0.341488 -3.57874 0
M  V30 13444 C 1265.96 -0.840037 -4.49213 0
M  V30 13445 C 1266.96 -1.73315 -4.90161 0
M  V30 13446 C 1264.64 -1.04153 -4.91383 0
M  V30 13447 C 1266.64 -2.81182 -5.72028 0
M  V30 13448 C 1264.32 -2.12336 -5.73024 0
M  V30 13449 C 1265.32 -3.00684 -6.13252 0
M  V30 13450 O 1265.01 -4.06999 -6.93258 0
M  V30 13451 H 1264.74 -0.0215383 -0.675657 0
M  V30 13452 H 1267.3 -0.709841 -1.92744 0
M  V30 13453 H 1265.53 1.13218 -3.69755 0
M  V30 13454 H 1267.21 0.818859 -3.97554 0
M  V30 13455 H 1267.98 -1.58934 -4.58219 0
M  V30 13456 H 1263.86 -0.363199 -4.59567 0
M  V30 13457 H 1267.4 -3.50169 -6.03347 0
M  V30 13458 H 1263.3 -2.26708 -6.04379 0
M  V30 13459 H 1264.07 -4.04469 -7.11581 0
M  V30 13460 N 1266.73 1.55688 -0.24474 0
M  V30 13461 C 1268.15 1.59219 0.110159 0
M  V30 13462 C 1268.35 1.26187 1.57096 0
M  V30 13463 O 1267.4 1.00815 2.31501 0
M  V30 13464 C 1268.72 2.99764 -0.237075 0
M  V30 13465 C 1270.26 3.12475 -0.181198 0
M  V30 13466 C 1270.74 4.55236 -0.502435 0
M  V30 13467 N 1272.23 4.60981 -0.452855 0
M  V30 13468 C 1272.97 5.69418 -0.674605 0
M  V30 13469 N 1272.46 6.86125 -0.959366 0
M  V30 13470 N 1274.25 5.5883 -0.605459 0
M  V30 13471 H 1266.41 1.7543 -1.19741 0
M  V30 13472 H 1268.67 0.816537 -0.481634 0
M  V30 13473 H 1268.37 3.28666 -1.25185 0
M  V30 13474 H 1268.25 3.74662 0.436859 0
M  V30 13475 H 1270.64 2.83355 0.824248 0
M  V30 13476 H 1270.72 2.39857 -0.888952 0
M  V30 13477 H 1270.36 4.85077 -1.50543 0
M  V30 13478 H 1270.29 5.26111 0.226773 0
M  V30 13479 H 1272.78 3.77128 -0.241401 0
M  V30 13480 H 1273.09 7.64699 -1.11605 0
M  V30 13481 H 1271.44 6.87814 -0.996816 0
M  V30 13482 H 1274.63 4.6653 -0.383053 0
M  V30 13483 H 1274.8 6.43268 -0.781673 0
M  V30 13484 N 1268.21 -0.0283989 1.57574 0
M  V30 13485 C 1269.46 -0.718121 1.88483 0
M  V30 13486 C 1269.77 -1.76485 0.843345 0
M  V30 13487 O 1270.98 -2.50721 1.04169 0
M  V30 13488 C 1269.43 -1.32832 3.3449 0
M  V30 13489 C 1269.04 -0.317905 4.46871 0
M  V30 13490 C 1270.79 -1.99788 3.74546 0
M  V30 13491 C 1268.69 -0.936489 5.83938 0
M  V30 13492 H 1267.62 -0.271969 0.703242 0
M  V30 13493 H 1270.27 0.0274862 1.83479 0
M  V30 13494 H 1268.66 -2.12366 3.34241 0
M  V30 13495 H 1269.83 0.450767 4.5859 0
M  V30 13496 H 1268.14 0.249605 4.15651 0
M  V30 13497 H 1270.74 -2.46923 4.74271 0
M  V30 13498 H 1271.08 -2.81633 3.06575 0
M  V30 13499 H 1271.62 -1.27029 3.76973 0
M  V30 13500 H 1268.36 -0.15744 6.55311 0
M  V30 13501 H 1267.88 -1.67499 5.75938 0
M  V30 13502 H 1269.56 -1.44363 6.30689 0
M  V30 13503 N 1269.69 -1.54705 -0.300681 0
M  V30 13504 C 1270.96 -1.6468 -1.05546 0
M  V30 13505 C 1271.34 -0.495292 -2.05207 0
M  V30 13506 O 1270.69 0.507944 -2.22783 0
M  V30 13507 C 1270.9 -3.02702 -1.73703 0
M  V30 13508 C 1272.25 -3.59527 -2.25888 0
M  V30 13509 O 1273.27 -3.05156 -1.83735 0
M  V30 13510 O 1272.13 -4.54727 -3.03126 0
M  V30 13511 H 1269.23 -0.667769 -0.487867 0
M  V30 13512 H 1271.77 -1.6705 -0.298743 0
M  V30 13513 H 1270.55 -3.7795 -1.01338 0
M  V30 13514 H 1270.17 -3.0411 -2.5613 0
M  V30 13515 N 1271.17 0.563888 -1.47167 0
M  V30 13516 C 1272.41 1.31875 -1.53145 0
M  V30 13517 C 1272.74 1.94047 -0.192518 0
M  V30 13518 O 1272.01 1.79577 0.782872 0
M  V30 13519 H 1270.59 0.489694 -0.5641 0
M  V30 13520 H 1273.25 0.658976 -1.83422 0
M  V30 13521 H 1272.34 2.11574 -2.2944 0
M  V30 13522 N 1272.64 1.35187 0.810078 0
M  V30 13523 C 1273.87 1.31528 1.60359 0
M  V30 13524 C 1274.29 -0.105385 1.87805 0
M  V30 13525 O 1273.65 -1.07113 1.46276 0
M  V30 13526 C 1273.7 2.12429 2.91386 0
M  V30 13527 O 1272.8 1.50262 3.84051 0
M  V30 13528 H 1272.15 0.451122 0.487222 0
M  V30 13529 H 1274.68 1.78178 1.00568 0
M  V30 13530 H 1274.69 2.24257 3.40841 0
M  V30 13531 H 1273.36 3.15714 2.70735 0
M  V30 13532 H 1271.94 1.47253 3.42594 0
M  V30 13533 N 1274.12 -1.03182 1.19127 0
M  V30 13534 C 1275.37 -1.76184 0.990134 0
M  V30 13535 C 1275.69 -1.88986 -0.480546 0
M  V30 13536 O 1274.96 -1.4213 -1.34817 0
M  V30 13537 H 1273.54 -0.652668 0.363364 0
M  V30 13538 H 1276.2 -1.24481 1.49968 0
M  V30 13539 H 1275.3 -2.77119 1.43568 0
M  V30 13540 N 1275.6 -0.99472 -1.22242 0
M  V30 13541 C 1276.53 -0.504783 -2.23572 0
M  V30 13542 C 1277.55 0.401105 -1.57781 0
M  V30 13543 O 1278.73 0.202948 -1.77343 0
M  V30 13544 C 1275.83 0.287524 -3.37678 0
M  V30 13545 C 1275.01 -0.614941 -4.33056 0
M  V30 13546 C 1274.07 0.125974 -5.26049 0
M  V30 13547 O 1273.09 -0.489234 -5.67094 0
M  V30 13548 N 1274.29 1.40772 -5.63173 0
M  V30 13549 H 1277.06 -1.37612 -2.66238 0
M  V30 13550 H 1274.62 -0.86965 -1.3656 0
M  V30 13551 H 1276.61 0.791884 -3.96877 0
M  V30 13552 H 1275.18 1.05998 -2.9408 0
M  V30 13553 H 1274.4 -1.29994 -3.72149 0
M  V30 13554 H 1275.69 -1.22947 -4.93722 0
M  V30 13555 H 1275.09 1.92884 -5.31801 0
M  V30 13556 H 1273.65 1.85723 -6.2478 0
M  V30 13557 N 1277.08 1.37613 -0.768148 0
M  V30 13558 C 1278.01 2.27988 -0.098355 0
M  V30 13559 C 1278.99 1.46137 0.712939 0
M  V30 13560 O 1280.17 1.75477 0.68847 0
M  V30 13561 C 1277.3 3.27413 0.867086 0
M  V30 13562 C 1276.35 4.26269 0.140235 0
M  V30 13563 S 1277.18 5.2258 -1.16921 0
M  V30 13564 C 1278.34 6.25557 -0.207221 0
M  V30 13565 H 1278.57 2.84447 -0.864693 0
M  V30 13566 H 1276.1 1.43833 -0.561376 0
M  V30 13567 H 1278.06 3.85205 1.41872 0
M  V30 13568 H 1276.72 2.69908 1.6065 0
M  V30 13569 H 1275.91 4.964 0.871977 0
M  V30 13570 H 1275.52 3.72449 -0.340294 0
M  V30 13571 H 1277.81 6.74642 0.621654 0
M  V30 13572 H 1278.75 7.02653 -0.876595 0
M  V30 13573 H 1279.16 5.64213 0.179968 0
M  V30 13574 N 1278.56 0.518393 1.4883 0
M  V30 13575 C 1279.52 -0.23983 2.27942 0
M  V30 13576 C 1280.52 -0.878302 1.34694 0
M  V30 13577 O 1281.71 -0.740142 1.57694 0
M  V30 13578 C 1278.84 -1.34581 3.1321 0
M  V30 13579 H 1280.03 0.454599 2.96434 0
M  V30 13580 H 1277.59 0.273932 1.53881 0
M  V30 13581 H 1278.32 -2.07385 2.49323 0
M  V30 13582 H 1278.11 -0.893251 3.8179 0
M  V30 13583 H 1279.6 -1.87944 3.72917 0
M  V30 13584 N 1280.03 -1.55556 0.252993 0
M  V30 13585 C 1281.28 -1.98267 -0.370571 0
M  V30 13586 C 1281.6 -1.14449 -1.58622 0
M  V30 13587 O 1282.8 -1.472 -2.28132 0
M  V30 13588 C 1281.26 -3.52813 -0.710685 0
M  V30 13589 C 1280.87 -4.45379 0.483908 0
M  V30 13590 C 1282.61 -4.04165 -1.2981 0
M  V30 13591 C 1280.52 -5.91279 0.119611 0
M  V30 13592 H 1279.45 -0.740463 -0.142232 0
M  V30 13593 H 1282.1 -1.8005 0.354169 0
M  V30 13594 H 1280.48 -3.66748 -1.49372 0
M  V30 13595 H 1281.65 -4.43206 1.26116 0
M  V30 13596 H 1279.97 -4.04542 0.986664 0
M  V30 13597 H 1282.57 -5.10696 -1.5841 0
M  V30 13598 H 1282.91 -3.51875 -2.22462 0
M  V30 13599 H 1283.44 -3.93581 -0.577836 0
M  V30 13600 H 1280.18 -6.47619 1.01343 0
M  V30 13601 H 1279.7 -5.96573 -0.621318 0
M  V30 13602 H 1281.38 -6.46322 -0.296052 0
M  V30 13603 N 1281.51 0.0200419 -1.57587 0
M  V30 13604 C 1282.74 0.720556 -1.93947 0
M  V30 13605 C 1283.16 1.68407 -0.853499 0
M  V30 13606 O 1282.51 1.81713 0.169337 0
M  V30 13607 C 1282.56 1.46982 -3.3027 0
M  V30 13608 O 1282.28 0.544971 -4.34697 0
M  V30 13609 C 1283.79 2.26667 -3.80968 0
M  V30 13610 H 1281.01 0.201956 -0.639887 0
M  V30 13611 H 1283.55 -0.0251175 -2.04485 0
M  V30 13612 H 1281.7 2.16729 -3.21103 0
M  V30 13613 H 1282.12 1.07139 -5.13441 0
M  V30 13614 H 1283.59 2.74621 -4.78839 0
M  V30 13615 H 1284.07 3.0848 -3.12629 0
M  V30 13616 H 1284.68 1.61976 -3.93248 0
M  V30 13617 N 1282.99 1.54862 0.292472 0
M  V30 13618 C 1284.24 1.74807 1.02813 0
M  V30 13619 C 1284.57 0.536935 1.8663 0
M  V30 13620 O 1283.84 -0.465854 1.88839 0
M  V30 13621 C 1284.13 3.04202 1.927 0
M  V30 13622 C 1283.98 4.35631 1.12006 0
M  V30 13623 C 1285.3 3.29514 2.91734 0
M  V30 13624 H 1282.42 0.636015 0.372362 0
M  V30 13625 H 1285.06 1.87583 0.302069 0
M  V30 13626 H 1283.21 2.9344 2.54608 0
M  V30 13627 H 1284.88 4.58323 0.52319 0
M  V30 13628 H 1283.13 4.31733 0.42298 0
M  V30 13629 H 1283.8 5.22454 1.78172 0
M  V30 13630 H 1286.27 3.39941 2.39957 0
M  V30 13631 H 1285.15 4.21352 3.51786 0
M  V30 13632 H 1285.41 2.48216 3.65843 0
M  V30 13633 N 1284.47 -0.556076 1.47464 0
M  V30 13634 C 1285.75 -1.31689 1.44628 0
M  V30 13635 C 1286.13 -2.10609 0.143841 0
M  V30 13636 O 1285.47 -2.11097 -0.874662 0
M  V30 13637 C 1285.68 -2.22045 2.69253 0
M  V30 13638 C 1287.03 -2.83028 3.16513 0
M  V30 13639 O 1288.06 -2.32346 2.69988 0
M  V30 13640 O 1286.91 -3.75148 3.97399 0
M  V30 13641 H 1284.01 -0.593026 0.576411 0
M  V30 13642 H 1286.55 -0.574885 1.59666 0
M  V30 13643 H 1285.33 -1.63337 3.5558 0
M  V30 13644 H 1284.95 -3.03539 2.56807 0
M  V30 13645 N 1285.95 -1.35615 -0.802897 0
M  V30 13646 C 1287.19 -1.29285 -1.56247 0
M  V30 13647 C 1287.53 0.131474 -1.93754 0
M  V30 13648 O 1286.8 1.08172 -1.61645 0
M  V30 13649 C 1287.08 -2.20285 -2.84863 0
M  V30 13650 C 1286.94 -3.71351 -2.53808 0
M  V30 13651 C 1288.26 -2.10318 -3.86593 0
M  V30 13652 H 1285.38 -0.470972 -0.566882 0
M  V30 13653 H 1288.02 -1.66048 -0.923469 0
M  V30 13654 H 1286.17 -1.89063 -3.39393 0
M  V30 13655 H 1287.84 -4.13031 -2.05433 0
M  V30 13656 H 1286.08 -3.9145 -1.86947 0
M  V30 13657 H 1286.75 -4.30416 -3.4561 0
M  V30 13658 H 1289.23 -2.37772 -3.41473 0
M  V30 13659 H 1288.11 -2.76183 -4.74357 0
M  V30 13660 H 1288.37 -1.08627 -4.28547 0
M  V30 13661 N 1287.43 1.02549 -1.19673 0
M  V30 13662 C 1288.34 2.14373 -0.952972 0
M  V30 13663 C 1289.35 1.73776 0.0881727 0
M  V30 13664 O 1290.53 2.01165 -0.0972471 0
M  V30 13665 C 1287.59 3.43096 -0.498569 0
M  V30 13666 C 1286.65 3.97987 -1.60951 0
M  V30 13667 C 1285.89 5.20567 -1.17669 0
M  V30 13668 O 1286.11 5.70385 -0.0416636 0
M  V30 13669 O 1285.04 5.6838 -1.98059 0
M  V30 13670 H 1288.87 2.378 -1.88904 0
M  V30 13671 H 1286.45 1.12781 -0.979836 0
M  V30 13672 H 1288.34 4.20634 -0.253968 0
M  V30 13673 H 1287.01 3.21105 0.409018 0
M  V30 13674 H 1285.92 3.21768 -1.90829 0
M  V30 13675 H 1287.25 4.24349 -2.49377 0
M  V30 13676 N 1288.9 1.00119 1.21713 0
M  V30 13677 C 1290.15 0.682733 1.90962 0
M  V30 13678 C 1290.48 -0.784131 1.77665 0
M  V30 13679 O 1289.76 -1.56799 1.15084 0
M  V30 13680 C 1290.04 1.09975 3.42896 0
M  V30 13681 C 1289.89 2.62578 3.65202 0
M  V30 13682 C 1291.21 0.659247 4.35134 0
M  V30 13683 H 1288.33 0.249501 0.693483 0
M  V30 13684 H 1290.97 1.24619 1.43423 0
M  V30 13685 H 1289.12 0.620334 3.83515 0
M  V30 13686 H 1290.8 3.18254 3.33934 0
M  V30 13687 H 1289.04 3.04268 3.09198 0
M  V30 13688 H 1289.71 2.86809 4.7164 0
M  V30 13689 H 1292.19 1.07116 4.02076 0
M  V30 13690 H 1291.06 0.979241 5.40095 0
M  V30 13691 H 1291.32 -0.439777 4.39907 0
M  V30 13692 N 1290.38 -1.37203 0.775435 0
M  V30 13693 C 1291.34 -2.28566 0.170406 0
M  V30 13694 C 1292.34 -1.48195 -0.624085 0
M  V30 13695 O 1293.53 -1.68364 -0.447132 0
M  V30 13696 C 1290.67 -3.32186 -0.765829 0
M  V30 13697 H 1291.86 -2.8358 0.975824 0
M  V30 13698 H 1289.41 -1.46531 0.543895 0
M  V30 13699 H 1290.15 -2.82303 -1.59611 0
M  V30 13700 H 1289.93 -3.91598 -0.198251 0
M  V30 13701 H 1291.42 -4.0045 -1.18446 0
M  V30 13702 N 1291.86 -0.526279 -1.48553 0
M  V30 13703 C 1293.08 0.00731432 -2.07399 0
M  V30 13704 C 1293.51 1.27737 -1.38075 0
M  V30 13705 O 1292.87 1.75741 -0.445503 0
M  V30 13706 C 1292.92 0.218126 -3.5994 0
M  V30 13707 O 1292.02 1.28759 -3.91784 0
M  V30 13708 H 1291.36 -0.0374784 -0.662941 0
M  V30 13709 H 1293.89 -0.733133 -1.91014 0
M  V30 13710 H 1293.9 0.44192 -4.056 0
M  V30 13711 H 1292.58 -0.709668 -4.09801 0
M  V30 13712 H 1291.15 1.04674 -3.57907 0
M  V30 13713 N 1293.34 1.5542 -0.261239 0
M  V30 13714 C 1294.61 1.91243 0.41056 0
M  V30 13715 C 1294.99 1.1838 1.74784 0
M  V30 13716 O 1294.34 0.306013 2.26442 0
M  V30 13717 C 1294.55 3.44404 0.56453 0
M  V30 13718 C 1295.9 4.15927 0.853827 0
M  V30 13719 O 1296.92 3.50222 0.649861 0
M  V30 13720 O 1295.78 5.32175 1.24308 0
M  V30 13721 H 1292.88 0.796491 0.222555 0
M  V30 13722 H 1295.42 1.66912 -0.306367 0
M  V30 13723 H 1294.2 3.89478 -0.377134 0
M  V30 13724 H 1293.82 3.74644 1.33145 0
M  V30 13725 N 1294.82 -0.0116844 1.57596 0
M  V30 13726 C 1296.04 -0.71026 1.94327 0
M  V30 13727 C 1296.46 -1.67952 0.862418 0
M  V30 13728 O 1295.82 -1.818 -0.159698 0
M  V30 13729 C 1295.87 -1.45228 3.31045 0
M  V30 13730 O 1295.59 -0.52191 4.3498 0
M  V30 13731 C 1297.09 -2.24644 3.82165 0
M  V30 13732 H 1294.31 -0.198559 0.640949 0
M  V30 13733 H 1296.85 0.0359615 2.04468 0
M  V30 13734 H 1295.01 -2.15023 3.22248 0
M  V30 13735 H 1295.42 -1.04415 5.14002 0
M  V30 13736 H 1296.9 -2.72078 4.80289 0
M  V30 13737 H 1297.37 -3.06817 3.14261 0
M  V30 13738 H 1297.98 -1.59888 3.94101 0
M  V30 13739 N 1296.29 -1.55015 -0.284256 0
M  V30 13740 C 1297.7 -1.65915 -0.856104 0
M  V30 13741 C 1298.06 -0.578758 -1.8747 0
M  V30 13742 O 1297.18 0.281733 -2.14558 0
M  V30 13743 C 1297.78 -3.0077 -1.55957 0
M  V30 13744 C 1296.33 -3.13735 -2.0796 0
M  V30 13745 C 1295.48 -2.61669 -0.917849 0
M  V30 13746 H 1298.43 -1.58583 -0.0608587 0
M  V30 13747 H 1298.45 -2.9313 -2.42601 0
M  V30 13748 H 1297.97 -3.79382 -0.81798 0
M  V30 13749 H 1296.07 -2.39875 -2.85115 0
M  V30 13750 H 1296.18 -4.20138 -2.30263 0
M  V30 13751 H 1294.54 -2.18542 -1.3081 0
M  V30 13752 H 1295.33 -3.42774 -0.189946 0
M  V30 13753 N 1297.77 0.548248 -1.47757 0
M  V30 13754 C 1298.72 1.65028 -1.57321 0
M  V30 13755 C 1299.71 1.55006 -0.431489 0
M  V30 13756 O 1300.9 1.63337 -0.681919 0
M  V30 13757 C 1298.03 3.0379 -1.59896 0
M  V30 13758 C 1297.11 3.18982 -2.79484 0
M  V30 13759 N 1297.5 3.04208 -4.04093 0
M  V30 13760 C 1295.8 3.50001 -2.76433 0
M  V30 13761 C 1296.5 3.2233 -4.8423 0
M  V30 13762 N 1295.48 3.49073 -4.16712 0
M  V30 13763 H 1299.28 1.52187 -2.51428 0
M  V30 13764 H 1296.79 0.753242 -1.43875 0
M  V30 13765 H 1298.79 3.82928 -1.64839 0
M  V30 13766 H 1297.45 3.17735 -0.668912 0
M  V30 13767 H 1298.46 2.81348 -4.34814 0
M  V30 13768 H 1295.14 3.70418 -1.92606 0
M  V30 13769 H 1296.53 3.15799 -5.9306 0
M  V30 13770 N 1299.25 1.36039 0.795694 0
M  V30 13771 C 1300.66 1.2679 1.37044 0
M  V30 13772 C 1301.01 -0.0950192 1.9597 0
M  V30 13773 O 1300.14 -0.996311 1.921 0
M  V30 13774 C 1300.73 2.29585 2.49151 0
M  V30 13775 C 1299.29 2.24044 3.02458 0
M  V30 13776 C 1298.44 2.14703 1.75493 0
M  V30 13777 H 1301.39 1.47009 0.597843 0
M  V30 13778 H 1301.41 1.92864 3.27999 0
M  V30 13779 H 1300.92 3.28769 2.06234 0
M  V30 13780 H 1299.02 1.28307 3.49812 0
M  V30 13781 H 1299.14 3.1647 3.597 0
M  V30 13782 H 1297.5 1.60856 1.97478 0
M  V30 13783 H 1298.28 3.15765 1.34713 0
M  V30 13784 N 1300.73 -1.01913 1.20215 0
M  V30 13785 C 1301.69 -2.08563 0.950481 0
M  V30 13786 C 1302.69 -1.60634 -0.0729659 0
M  V30 13787 O 1303.88 -1.73437 0.162826 0
M  V30 13788 C 1301.01 -3.38171 0.430453 0
M  V30 13789 H 1302.21 -2.32323 1.89647 0
M  V30 13790 H 1299.76 -1.18674 1.01716 0
M  V30 13791 H 1300.49 -3.20086 -0.521126 0
M  V30 13792 H 1300.28 -3.74284 1.1685 0
M  V30 13793 H 1301.77 -4.16702 0.273781 0
M  V30 13794 N 1302.21 -1.00763 -1.2118 0
M  V30 13795 C 1303.62 -0.720905 -1.42391 0
M  V30 13796 C 1303.82 0.702918 -1.88842 0
M  V30 13797 O 1302.88 1.47191 -2.05161 0
M  V30 13798 C 1304.19 -1.739 -2.45315 0
M  V30 13799 C 1305.74 -1.75611 -2.59094 0
M  V30 13800 C 1306.21 -2.76323 -3.65253 0
M  V30 13801 N 1307.71 -2.75007 -3.72727 0
M  V30 13802 C 1308.44 -3.49594 -4.54502 0
M  V30 13803 N 1307.94 -4.33828 -5.40153 0
M  V30 13804 N 1309.73 -3.38232 -4.4895 0
M  V30 13805 H 1301.88 -1.92697 -0.893404 0
M  V30 13806 H 1304.14 -0.831888 -0.454606 0
M  V30 13807 H 1303.85 -2.75859 -2.18162 0
M  V30 13808 H 1303.72 -1.5438 -3.44161 0
M  V30 13809 H 1306.11 -0.743416 -2.85582 0
M  V30 13810 H 1306.19 -1.99203 -1.60474 0
M  V30 13811 H 1305.84 -3.77751 -3.39509 0
M  V30 13812 H 1305.77 -2.49996 -4.63476 0
M  V30 13813 H 1308.26 -2.13897 -3.11539 0
M  V30 13814 H 1308.57 -4.8753 -5.99612 0
M  V30 13815 H 1306.91 -4.3791 -5.39685 0
M  V30 13816 H 1310.11 -2.71855 -3.81068 0
M  V30 13817 H 1310.28 -3.96615 -5.12445 0
M  V30 13818 N 1303.68 1.3679 -0.7827 0
M  V30 13819 C 1304.93 1.98664 -0.348634 0
M  V30 13820 C 1305.25 1.62827 1.08382 0
M  V30 13821 O 1306.45 2.17886 1.61982 0
M  V30 13822 C 1304.91 3.55319 -0.572392 0
M  V30 13823 C 1304.52 4.00086 -2.01582 0
M  V30 13824 C 1306.26 4.24017 -0.202496 0
M  V30 13825 C 1304.17 5.49493 -2.18659 0
M  V30 13826 H 1303.1 0.743294 -0.126612 0
M  V30 13827 H 1305.75 1.56177 -0.963383 0
M  V30 13828 H 1304.13 3.95842 0.111973 0
M  V30 13829 H 1305.3 3.7078 -2.73603 0
M  V30 13830 H 1303.62 3.44205 -2.34333 0
M  V30 13831 H 1306.22 5.3381 -0.308459 0
M  V30 13832 H 1306.56 4.07559 0.84859 0
M  V30 13833 H 1307.09 3.88834 -0.839834 0
M  V30 13834 H 1303.83 5.7089 -3.22126 0
M  V30 13835 H 1303.35 5.80447 -1.51134 0
M  V30 13836 H 1305.03 6.15621 -1.99048 0
M  V30 13837 N 1305.16 0.53415 1.48272 0
M  V30 13838 C 1306.41 0.00156948 2.021 0
M  V30 13839 C 1306.73 -1.34371 1.41313 0
M  V30 13840 O 1306 -1.87117 0.579996 0
M  V30 13841 H 1304.58 -0.00240789 0.746996 0
M  V30 13842 H 1307.24 0.698928 1.81937 0
M  V30 13843 H 1306.34 -0.103671 3.11928 0
M  V30 13844 N 1306.64 -1.55279 0.269478 0
M  V30 13845 C 1307.57 -2.25278 -0.614188 0
M  V30 13846 C 1308.55 -1.24092 -1.1634 0
M  V30 13847 O 1309.74 -1.52799 -1.19858 0
M  V30 13848 C 1306.87 -2.96956 -1.80096 0
M  V30 13849 C 1305.82 -4.05021 -1.38353 0
M  V30 13850 C 1305.15 -4.64244 -2.65295 0
M  V30 13851 C 1306.45 -5.19523 -0.537886 0
M  V30 13852 H 1308.14 -2.99385 -0.0304397 0
M  V30 13853 H 1305.69 -1.43994 -0.0132004 0
M  V30 13854 H 1307.64 -3.44633 -2.42499 0
M  V30 13855 H 1306.36 -2.20374 -2.41045 0
M  V30 13856 H 1305.02 -3.58146 -0.78273 0
M  V30 13857 H 1304.67 -3.84337 -3.2449 0
M  V30 13858 H 1304.37 -5.37208 -2.38079 0
M  V30 13859 H 1305.89 -5.14668 -3.28557 0
M  V30 13860 H 1307.31 -5.63287 -1.06677 0
M  V30 13861 H 1305.71 -5.99014 -0.360845 0
M  V30 13862 H 1306.78 -4.82857 0.444672 0
M  V30 13863 N 1308.12 0.00332656 -1.576 0
M  V30 13864 C 1309.07 1.01406 -2.09331 0
M  V30 13865 C 1310.06 1.35806 -1.01258 0
M  V30 13866 O 1311.27 1.34409 -1.19726 0
M  V30 13867 H 1307.64 0.344661 -0.668366 0
M  V30 13868 H 1309.61 0.552154 -2.93247 0
M  V30 13869 C 1308.36 2.29819 -2.60918 0
M  V30 13870 H 1307.68 2.04216 -3.43709 0
M  V30 13871 H 1309.12 2.98826 -3.00797 0
M  V30 13872 C 1307.58 3.0057 -1.52182 0
M  V30 13873 O 1308.11 3.91423 -0.902817 0
M  V30 13874 N 1306.32 2.62338 -1.25009 0
M  V30 13875 H 1305.87 1.88538 -1.75531 0
M  V30 13876 H 1305.82 3.0999 -0.524736 0
M  V30 13877 N 1309.6 1.55164 0.276031 0
M  V30 13878 C 1310.84 1.77377 1.01572 0
M  V30 13879 C 1311.2 0.56142 1.83608 0
M  V30 13880 O 1312.4 0.661745 2.60527 0
M  V30 13881 C 1310.67 3.0412 1.87738 0
M  V30 13882 S 1312.23 3.4744 2.68013 0
M  V30 13883 H 1309.05 0.62326 0.342153 0
M  V30 13884 H 1311.65 1.9339 0.286456 0
M  V30 13885 H 1310.36 3.90453 1.26389 0
M  V30 13886 H 1309.89 2.90764 2.6499 0
M  V30 13887 H 1311.9 3.06474 3.90241 0
M  V30 13888 N 1311.07 -0.540404 1.48045 0
M  V30 13889 C 1312.01 -1.66164 1.57867 0
M  V30 13890 C 1313.02 -1.56058 0.463655 0
M  V30 13891 O 1314.21 -1.62709 0.734038 0
M  V30 13892 C 1311.31 -3.04748 1.48263 0
M  V30 13893 C 1310.48 -3.40441 2.74625 0
M  V30 13894 C 1309.54 -4.58259 2.58621 0
M  V30 13895 O 1308.57 -4.62 3.32482 0
M  V30 13896 N 1309.77 -5.55794 1.67551 0
M  V30 13897 H 1312.53 -1.58179 2.54557 0
M  V30 13898 H 1310.09 -0.727441 1.44637 0
M  V30 13899 H 1312.09 -3.81425 1.35267 0
M  V30 13900 H 1310.66 -3.06868 0.595892 0
M  V30 13901 H 1309.88 -2.53044 3.02262 0
M  V30 13902 H 1311.16 -3.61069 3.58478 0
M  V30 13903 H 1310.56 -5.55541 1.06725 0
M  V30 13904 H 1309.12 -6.3173 1.60499 0
M  V30 13905 N 1312.55 -1.36459 -0.788468 0
M  V30 13906 C 1313.48 -1.33545 -1.91541 0
M  V30 13907 C 1314.46 -0.206762 -1.68839 0
M  V30 13908 O 1315.65 -0.404553 -1.89939 0
M  V30 13909 C 1312.78 -1.12492 -3.28577 0
M  V30 13910 C 1311.73 -2.22196 -3.65805 0
M  V30 13911 C 1311.06 -1.86285 -5.01201 0
M  V30 13912 C 1312.36 -3.64286 -3.7429 0
M  V30 13913 H 1314.05 -2.27844 -1.94236 0
M  V30 13914 H 1311.6 -1.09677 -0.933105 0
M  V30 13915 H 1313.55 -1.09089 -4.07035 0
M  V30 13916 H 1312.28 -0.146446 -3.26272 0
M  V30 13917 H 1310.93 -2.24727 -2.89644 0
M  V30 13918 H 1310.58 -0.87009 -4.95417 0
M  V30 13919 H 1310.28 -2.59734 -5.27079 0
M  V30 13920 H 1311.81 -1.84439 -5.82078 0
M  V30 13921 H 1313.22 -3.63977 -4.42937 0
M  V30 13922 H 1311.62 -4.36648 -4.11653 0
M  V30 13923 H 1312.69 -3.99123 -2.75371 0
M  V30 13924 N 1314.03 1.01274 -1.20754 0
M  V30 13925 C 1314.99 2.08056 -0.961528 0
M  V30 13926 C 1315.99 1.60671 0.0644461 0
M  V30 13927 O 1317.18 1.73349 -0.172022 0
M  V30 13928 C 1314.32 3.37938 -0.448381 0
M  V30 13929 H 1315.51 2.31314 -1.90877 0
M  V30 13930 H 1313.06 1.18133 -1.02344 0
M  V30 13931 H 1313.8 3.20357 0.504144 0
M  V30 13932 H 1313.58 3.73659 -1.18833 0
M  V30 13933 H 1315.07 4.16551 -0.295876 0
M  V30 13934 N 1315.51 1.01404 1.20644 0
M  V30 13935 C 1316.44 0.540288 2.22741 0
M  V30 13936 C 1317.45 -0.375953 1.584 0
M  V30 13937 O 1318.64 -0.174708 1.77643 0
M  V30 13938 C 1315.74 -0.233766 3.38093 0
M  V30 13939 C 1314.92 0.683759 4.32023 0
M  V30 13940 C 1313.98 -0.0422681 5.26183 0
M  V30 13941 O 1313 0.579392 5.66243 0
M  V30 13942 N 1314.2 -1.31794 5.65341 0
M  V30 13943 H 1316.97 1.41831 2.64015 0
M  V30 13944 H 1314.53 0.891265 1.35159 0
M  V30 13945 H 1316.52 -0.728645 3.98087 0
M  V30 13946 H 1315.09 -1.01306 2.9573 0
M  V30 13947 H 1314.31 1.35899 3.70034 0
M  V30 13948 H 1315.6 1.30786 4.91704 0
M  V30 13949 H 1315 -1.84399 5.34802 0
M  V30 13950 H 1313.55 -1.7576 6.27656 0
M  V30 13951 N 1316.99 -1.36373 0.789944 0
M  V30 13952 C 1318.23 -1.99523 0.363119 0
M  V30 13953 C 1318.57 -1.6255 -1.0626 0
M  V30 13954 O 1317.84 -0.880551 -1.73426 0
M  V30 13955 C 1318.12 -3.56215 0.527526 0
M  V30 13956 C 1317.98 -4.0304 1.99697 0
M  V30 13957 C 1319.3 -4.40063 -0.0571079 0
M  V30 13958 H 1316.42 -0.724824 0.133412 0
M  V30 13959 H 1319.06 -1.61778 0.996381 0
M  V30 13960 H 1317.21 -3.88498 -0.0115636 0
M  V30 13961 H 1318.88 -3.81241 2.59717 0
M  V30 13962 H 1317.12 -3.54561 2.49939 0
M  V30 13963 H 1317.79 -5.12001 2.06297 0
M  V30 13964 H 1320.27 -4.14143 0.403082 0
M  V30 13965 H 1319.15 -5.4883 0.0879494 0
M  V30 13966 H 1319.41 -4.26901 -1.14926 0
M  V30 13967 N 1318.47 -0.542005 -1.47987 0
M  V30 13968 C 1319.43 0.203537 -2.28294 0
M  V30 13969 C 1320.43 0.856762 -1.36074 0
M  V30 13970 O 1321.62 0.71496 -1.58852 0
M  V30 13971 C 1318.75 1.29581 -3.15312 0
M  V30 13972 H 1319.94 -0.501701 -2.95674 0
M  V30 13973 H 1317.5 -0.298378 -1.53426 0
M  V30 13974 H 1318.23 2.03393 -2.5259 0
M  V30 13975 H 1318.02 0.832398 -3.83163 0
M  V30 13976 H 1319.51 1.81988 -3.75859 0
M  V30 13977 N 1319.94 1.55134 -0.277709 0
M  V30 13978 C 1320.85 2.26296 0.618658 0
M  V30 13979 C 1321.87 1.28978 1.16794 0
M  V30 13980 O 1323.05 1.61918 1.19768 0
M  V30 13981 C 1320.11 2.97214 1.78508 0
M  V30 13982 C 1319.17 4.10016 1.27221 0
M  V30 13983 C 1318.4 4.77543 2.38304 0
M  V30 13984 O 1318.63 4.44293 3.57715 0
M  V30 13985 O 1317.56 5.65437 2.06313 0
M  V30 13986 H 1321.39 3.03671 0.0421031 0
M  V30 13987 H 1318.97 1.49332 -0.0450166 0
M  V30 13988 H 1320.85 3.41773 2.46513 0
M  V30 13989 H 1319.53 2.22753 2.34867 0
M  V30 13990 H 1318.44 3.69907 0.558544 0
M  V30 13991 H 1319.77 4.86385 0.754333 0
M  V30 13992 N 1321.42 0.00503138 1.57599 0
M  V30 13993 C 1322.84 -0.351109 1.5569 0
M  V30 13994 C 1323.04 -1.74465 1.00818 0
M  V30 13995 O 1322.09 -2.44144 0.64422 0
M  V30 13996 C 1323.41 -0.221738 2.99881 0
M  V30 13997 C 1324.95 -0.296303 3.11594 0
M  V30 13998 C 1325.43 -0.195998 4.5758 0
M  V30 13999 N 1326.92 -0.253741 4.62504 0
M  V30 14000 C 1327.66 -0.199546 5.73053 0
M  V30 14001 N 1327.15 -0.0956553 6.92734 0
M  V30 14002 N 1328.94 -0.251779 5.61536 0
M  V30 14003 H 1321.1 0.916578 1.91605 0
M  V30 14004 H 1323.36 0.351802 0.880306 0
M  V30 14005 H 1323.06 0.737255 3.43886 0
M  V30 14006 H 1322.94 -1.00178 3.63654 0
M  V30 14007 H 1325.33 -1.24574 2.67517 0
M  V30 14008 H 1325.41 0.513692 2.50589 0
M  V30 14009 H 1325.05 0.749918 5.02333 0
M  V30 14010 H 1324.98 -1.02455 5.16537 0
M  V30 14011 H 1327.47 -0.335163 3.76411 0
M  V30 14012 H 1327.78 -0.0603357 7.72776 0
M  V30 14013 H 1326.13 -0.0612113 6.94973 0
M  V30 14014 H 1329.32 -0.331173 4.66927 0
M  V30 14015 H 1329.49 -0.206078 6.47672 0
M  V30 14016 N 1322.9 -1.55308 -0.267798 0
M  V30 14017 C 1324.15 -1.7642 -1.00019 0
M  V30 14018 C 1324.48 -0.566559 -1.85752 0
M  V30 14019 O 1323.75 0.435752 -1.89556 0
M  V30 14020 C 1324.04 -3.07229 -1.87836 0
M  V30 14021 C 1323.89 -4.37358 -1.05061 0
M  V30 14022 C 1325.21 -3.34113 -2.86455 0
M  V30 14023 H 1322.33 -0.641859 -0.362197 0
M  V30 14024 H 1324.97 -1.8804 -0.272188 0
M  V30 14025 H 1323.12 -2.97454 -2.49907 0
M  V30 14026 H 1324.79 -4.59098 -0.450208 0
M  V30 14027 H 1323.03 -4.32351 -0.354242 0
M  V30 14028 H 1323.71 -5.25223 -1.69838 0
M  V30 14029 H 1326.18 -3.43715 -2.34519 0
M  V30 14030 H 1325.06 -4.26896 -3.45038 0
M  V30 14031 H 1325.32 -2.54005 -3.61848 0
M  V30 14032 N 1324.38 0.532545 -1.4833 0
M  V30 14033 C 1325.33 1.65832 -1.63103 0
M  V30 14034 C 1326.32 1.61929 -0.497538 0
M  V30 14035 O 1327.53 1.66817 -0.676176 0
M  V30 14036 H 1323.9 0.549152 -0.513748 0
M  V30 14037 H 1325.87 1.50515 -2.57658 0
M  V30 14038 C 1324.62 3.04113 -1.68555 0
M  V30 14039 H 1323.94 3.07809 -2.55135 0
M  V30 14040 H 1325.38 3.82506 -1.82936 0
M  V30 14041 C 1323.84 3.34225 -0.423711 0
M  V30 14042 O 1324.37 3.99005 0.464523 0
M  V30 14043 N 1322.58 2.89087 -0.296192 0
M  V30 14044 H 1322.13 2.36547 -1.01997 0
M  V30 14045 H 1322.08 3.09604 0.547082 0
M  V30 14046 N 1325.86 1.36875 0.78122 0
M  V30 14047 C 1327.1 1.32761 1.54097 0
M  V30 14048 C 1327.46 -0.0900914 1.92189 0
M  V30 14049 O 1326.75 -1.04655 1.60492 0
M  V30 14050 C 1326.94 2.19173 2.82309 0
M  V30 14051 C 1326.77 3.69203 2.56747 0
M  V30 14052 C 1325.54 4.38349 2.51353 0
M  V30 14053 C 1327.74 4.62283 2.25386 0
M  V30 14054 N 1325.72 5.73974 2.17776 0
M  V30 14055 C 1327.09 5.86216 2.01867 0
M  V30 14056 C 1329.15 4.50764 2.11462 0
M  V30 14057 C 1327.85 6.99923 1.65832 0
M  V30 14058 C 1329.88 5.64346 1.76825 0
M  V30 14059 C 1329.24 6.87324 1.5416 0
M  V30 14060 H 1325.34 0.541089 0.564577 0
M  V30 14061 H 1327.92 1.72006 0.912249 0
M  V30 14062 H 1326.09 1.82159 3.43034 0
M  V30 14063 H 1327.83 2.06388 3.48118 0
M  V30 14064 H 1324.58 3.91243 2.66882 0
M  V30 14065 H 1325 6.45624 2.03711 0
M  V30 14066 H 1329.65 3.56266 2.27672 0
M  V30 14067 H 1327.36 7.94364 1.4836 0
M  V30 14068 H 1330.95 5.574 1.66723 0
M  V30 14069 H 1329.83 7.73724 1.27753 0
M  V30 14070 N 1327.33 -1.00632 1.21289 0
M  V30 14071 C 1328.26 -2.11238 0.995021 0
M  V30 14072 C 1329.24 -1.69914 -0.0795537 0
M  V30 14073 O 1330.43 -1.94035 0.0800152 0
M  V30 14074 C 1327.56 -3.42797 0.557475 0
M  V30 14075 C 1326.51 -3.97909 1.57646 0
M  V30 14076 C 1325.84 -5.25357 0.995197 0
M  V30 14077 C 1327.14 -4.30123 2.96297 0
M  V30 14078 H 1328.83 -2.29722 1.9201 0
M  V30 14079 H 1326.38 -1.10395 0.924602 0
M  V30 14080 H 1328.33 -4.19571 0.392236 0
M  V30 14081 H 1327.06 -3.24101 -0.403253 0
M  V30 14082 H 1325.72 -3.23254 1.72924 0
M  V30 14083 H 1325.36 -5.02993 0.026227 0
M  V30 14084 H 1325.06 -5.63196 1.67583 0
M  V30 14085 H 1326.59 -6.04777 0.841251 0
M  V30 14086 H 1328 -4.97744 2.8447 0
M  V30 14087 H 1326.4 -4.79101 3.61361 0
M  V30 14088 H 1327.47 -3.38454 3.47242 0
M  V30 14089 N 1328.81 -1.02043 -1.20104 0
M  V30 14090 C 1330.06 -0.710566 -1.89197 0
M  V30 14091 C 1330.38 0.762471 -1.79475 0
M  V30 14092 O 1329.65 1.54871 -1.19965 0
M  V30 14093 H 1328.23 -0.259839 -0.700352 0
M  V30 14094 H 1330.89 -1.29285 -1.45848 0
M  V30 14095 H 1329.99 -0.997363 -2.95735 0
M  V30 14096 N 1330.29 1.35952 -0.797165 0
M  V30 14097 C 1331.22 2.32506 -0.215277 0
M  V30 14098 C 1332.2 1.57023 0.654046 0
M  V30 14099 O 1333.39 1.85139 0.586268 0
M  V30 14100 C 1330.52 3.41266 0.644557 0
M  V30 14101 C 1329.47 4.27816 -0.125501 0
M  V30 14102 C 1328.8 5.27813 0.855428 0
M  V30 14103 C 1330.1 5.05367 -1.31913 0
M  V30 14104 H 1331.79 2.8142 -1.02193 0
M  V30 14105 H 1329.34 1.35303 -0.492862 0
M  V30 14106 H 1331.29 4.07808 1.06163 0
M  V30 14107 H 1330.01 2.90938 1.484 0
M  V30 14108 H 1328.67 3.62841 -0.523639 0
M  V30 14109 H 1328.32 4.73755 1.69011 0
M  V30 14110 H 1328.02 5.86589 0.344566 0
M  V30 14111 H 1329.54 5.97227 1.2709 0
M  V30 14112 H 1330.96 5.64907 -0.977418 0
M  V30 14113 H 1329.36 5.73593 -1.76382 0
M  V30 14114 H 1330.43 4.36558 -2.11057 0
M  V30 14115 N 1331.77 0.549846 1.47697 0
M  V30 14116 C 1333.02 0.0230048 2.02087 0
M  V30 14117 C 1333.34 -1.32865 1.4273 0
M  V30 14118 O 1332.61 -1.86492 0.59981 0
M  V30 14119 H 1331.19 0.00551514 0.74698 0
M  V30 14120 H 1333.85 0.718185 1.81185 0
M  V30 14121 H 1332.95 -0.0705813 3.1202 0
M  V30 14122 N 1333.25 -1.54984 0.285932 0
M  V30 14123 C 1334.66 -1.85519 -0.209707 0
M  V30 14124 C 1335.01 -1.20794 -1.54606 0
M  V30 14125 O 1334.13 -0.500159 -2.10541 0
M  V30 14126 C 1334.73 -3.36579 -0.387283 0
M  V30 14127 C 1333.29 -3.67199 -0.827148 0
M  V30 14128 C 1332.43 -2.77203 0.073308 0
M  V30 14129 H 1335.39 -1.5037 0.507404 0
M  V30 14130 H 1335.41 -3.60269 -1.2242 0
M  V30 14131 H 1334.92 -3.83658 0.585493 0
M  V30 14132 H 1333.02 -3.25627 -1.81101 0
M  V30 14133 H 1333.13 -4.74574 -0.656976 0
M  V30 14134 H 1331.5 -2.50785 -0.444859 0
M  V30 14135 H 1332.28 -3.27099 1.04216 0
M  V30 14136 N 1334.72 -0.0133892 -1.57594 0
M  V30 14137 C 1335.66 1.00211 -2.06132 0
M  V30 14138 C 1336.67 1.29869 -0.98173 0
M  V30 14139 O 1337.86 1.2661 -1.25826 0
M  V30 14140 C 1334.96 2.33354 -2.45763 0
M  V30 14141 C 1334.13 2.22441 -3.76615 0
M  V30 14142 C 1333.19 3.38385 -4.02967 0
M  V30 14143 O 1332.22 3.15973 -4.73445 0
M  V30 14144 N 1333.42 4.61672 -3.51908 0
M  V30 14145 H 1336.18 0.588079 -2.93874 0
M  V30 14146 H 1333.74 0.173714 -1.60965 0
M  V30 14147 H 1335.74 3.09716 -2.60496 0
M  V30 14148 H 1334.31 2.66451 -1.6347 0
M  V30 14149 H 1333.53 1.30905 -3.7183 0
M  V30 14150 H 1334.81 2.12337 -4.62375 0
M  V30 14151 H 1334.21 4.82777 -2.9486 0
M  V30 14152 H 1332.77 5.35256 -3.71947 0
M  V30 14153 N 1336.2 1.55448 0.259558 0
M  V30 14154 C 1337.11 1.92364 1.34289 0
M  V30 14155 C 1338.13 0.822492 1.53333 0
M  V30 14156 O 1339.3 1.12277 1.672 0
M  V30 14157 C 1336.37 2.19978 2.67975 0
M  V30 14158 C 1335.43 3.43454 2.57562 0
M  V30 14159 C 1334.66 3.69741 3.84873 0
M  V30 14160 O 1334.89 2.9831 4.86176 0
M  V30 14161 O 1333.82 4.63274 3.84267 0
M  V30 14162 H 1337.65 2.8461 1.05975 0
M  V30 14163 H 1335.23 1.42167 0.459239 0
M  V30 14164 H 1337.11 2.39104 3.46998 0
M  V30 14165 H 1335.79 1.30912 2.96047 0
M  V30 14166 H 1334.7 3.29649 1.76869 0
M  V30 14167 H 1336.03 4.32782 2.34437 0
M  V30 14168 N 1337.68 -0.524672 1.4861 0
M  V30 14169 C 1338.63 -1.64965 1.6398 0
M  V30 14170 C 1339.62 -1.61663 0.506118 0
M  V30 14171 O 1340.83 -1.66456 0.685013 0
M  V30 14172 H 1337.2 -0.546419 0.516653 0
M  V30 14173 H 1339.17 -1.49146 2.58453 0
M  V30 14174 C 1337.92 -3.03215 1.70165 0
M  V30 14175 H 1337.25 -3.06451 2.56764 0
M  V30 14176 H 1338.69 -3.8153 1.84962 0
M  V30 14177 C 1337.15 -3.33996 0.44143 0
M  V30 14178 O 1337.68 -3.99246 -0.443356 0
M  V30 14179 N 1335.88 -2.88925 0.311518 0
M  V30 14180 H 1335.43 -2.36003 1.0325 0
M  V30 14181 H 1335.39 -3.09889 -0.530655 0
M  V30 14182 N 1339.16 -1.37287 -0.77395 0
M  V30 14183 C 1340.39 -1.35366 -1.56075 0
M  V30 14184 C 1340.8 0.0634437 -1.89094 0
M  V30 14185 O 1340.14 1.03503 -1.51766 0
M  V30 14186 C 1340.2 -2.12512 -2.89964 0
M  V30 14187 C 1339.87 -3.61492 -2.79593 0
M  V30 14188 C 1340.86 -4.55421 -2.50774 0
M  V30 14189 C 1338.55 -4.04585 -2.97684 0
M  V30 14190 C 1340.54 -5.90421 -2.4017 0
M  V30 14191 C 1338.23 -5.39672 -2.86701 0
M  V30 14192 C 1339.23 -6.32403 -2.57984 0
M  V30 14193 O 1338.91 -7.65006 -2.47024 0
M  V30 14194 H 1338.65 -0.465447 -0.49024 0
M  V30 14195 H 1341.2 -1.81199 -0.967273 0
M  V30 14196 H 1339.43 -1.61366 -3.51423 0
M  V30 14197 H 1341.12 -2.03253 -3.51345 0
M  V30 14198 H 1341.89 -4.23438 -2.36485 0
M  V30 14199 H 1337.76 -3.32769 -3.19038 0
M  V30 14200 H 1341.31 -6.62769 -2.17676 0
M  V30 14201 H 1337.21 -5.71258 -3.00558 0
M  V30 14202 H 1337.97 -7.75302 -2.6239 0
M  V30 14203 N 1340.64 0.999871 -1.21821 0
M  V30 14204 C 1342.05 1.5529 -1.03642 0
M  V30 14205 C 1342.4 1.92032 0.402246 0
M  V30 14206 O 1341.52 1.74027 1.28622 0
M  V30 14207 C 1342.12 2.82177 -1.87514 0
M  V30 14208 C 1340.68 3.33949 -1.73653 0
M  V30 14209 C 1339.82 2.07095 -1.84409 0
M  V30 14210 H 1342.78 0.821751 -1.35768 0
M  V30 14211 H 1342.8 3.54264 -1.38842 0
M  V30 14212 H 1342.31 2.55405 -2.92216 0
M  V30 14213 H 1340.41 3.65645 -0.716554 0
M  V30 14214 H 1340.52 4.05022 -2.55918 0
M  V30 14215 H 1338.89 2.20332 -1.27773 0
M  V30 14216 H 1339.67 1.82728 -2.90629 0
M  V30 14217 N 1342.11 1.02678 1.19562 0
M  V30 14218 C 1343.39 0.63674 1.84946 0
M  V30 14219 C 1343.77 -0.884667 1.91669 0
M  V30 14220 O 1343.12 -1.78053 1.43211 0
M  V30 14221 C 1343.33 1.29637 3.2403 0
M  V30 14222 C 1344.68 1.41828 4.00212 0
M  V30 14223 O 1345.7 1.25338 3.3342 0
M  V30 14224 O 1344.56 1.68573 5.19851 0
M  V30 14225 H 1341.65 0.221044 0.796912 0
M  V30 14226 H 1344.2 1.1248 1.27068 0
M  V30 14227 H 1342.97 2.33549 3.1396 0
M  V30 14228 H 1342.6 0.796041 3.8955 0
M  V30 14229 N 1343.59 -1.35528 0.804364 0
M  V30 14230 C 1345.01 -1.51962 0.487831 0
M  V30 14231 C 1345.21 -1.75426 -0.991353 0
M  V30 14232 O 1344.26 -1.7944 -1.77644 0
M  V30 14233 C 1345.58 -2.69626 1.33126 0
M  V30 14234 C 1347.13 -2.83502 1.32648 0
M  V30 14235 C 1347.6 -4.04188 2.15397 0
M  V30 14236 N 1349.09 -4.11362 2.12922 0
M  V30 14237 C 1349.83 -5.03856 2.73709 0
M  V30 14238 N 1349.32 -6.01696 3.43415 0
M  V30 14239 N 1351.12 -4.96585 2.63363 0
M  V30 14240 H 1343.27 -1.18553 1.76235 0
M  V30 14241 H 1345.53 -0.57986 0.749977 0
M  V30 14242 H 1345.24 -2.58857 2.38088 0
M  V30 14243 H 1345.11 -3.64168 0.982934 0
M  V30 14244 H 1347.5 -2.93723 0.284712 0
M  V30 14245 H 1347.58 -1.89824 1.71466 0
M  V30 14246 H 1347.22 -3.94728 3.19613 0
M  V30 14247 H 1347.15 -4.97044 1.7394 0
M  V30 14248 H 1349.64 -3.41319 1.62203 0
M  V30 14249 H 1349.96 -6.68866 3.8709 0
M  V30 14250 H 1348.3 -6.01877 3.47519 0
M  V30 14251 H 1351.49 -4.19103 2.08496 0
M  V30 14252 H 1351.66 -5.68478 3.11026 0
M  V30 14253 N 1345.07 -0.557671 -1.47404 0
M  V30 14254 C 1346 0.178019 -2.3282 0
M  V30 14255 C 1346.98 0.908318 -1.43818 0
M  V30 14256 O 1348.17 0.888693 -1.72673 0
M  V30 14257 C 1345.3 1.2082 -3.25607 0
M  V30 14258 C 1344.25 0.594335 -4.23853 0
M  V30 14259 C 1343.58 1.72919 -5.05968 0
M  V30 14260 C 1344.88 -0.452196 -5.20339 0
M  V30 14261 H 1346.57 -0.535091 -2.9458 0
M  V30 14262 H 1344.12 -0.258775 -1.41656 0
M  V30 14263 H 1346.07 1.73104 -3.84204 0
M  V30 14264 H 1344.79 1.95126 -2.61903 0
M  V30 14265 H 1343.45 0.0927898 -3.66483 0
M  V30 14266 H 1343.1 2.4613 -4.38668 0
M  V30 14267 H 1342.8 1.32422 -5.72484 0
M  V30 14268 H 1344.33 2.25527 -5.67424 0
M  V30 14269 H 1345.74 -0.0154011 -5.73298 0
M  V30 14270 H 1344.14 -0.776068 -5.95061 0
M  V30 14271 H 1345.21 -1.34791 -4.65789 0
M  V30 14272 N 1346.55 1.54831 -0.294147 0
M  V30 14273 C 1347.78 2.04411 0.319938 0
M  V30 14274 C 1348.19 1.17174 1.4804 0
M  V30 14275 O 1347.55 0.195881 1.81446 0
M  V30 14276 C 1347.6 3.52924 0.782751 0
M  V30 14277 O 1347.32 4.36844 -0.331512 0
M  V30 14278 C 1348.82 4.18474 1.4627 0
M  V30 14279 H 1346.04 0.667286 0.0704973 0
M  V30 14280 H 1348.59 1.9989 -0.431785 0
M  V30 14281 H 1346.74 3.57828 1.48451 0
M  V30 14282 H 1347.16 5.24493 0.0275743 0
M  V30 14283 H 1348.63 5.23933 1.73776 0
M  V30 14284 H 1349.11 3.67793 2.40052 0
M  V30 14285 H 1349.71 4.17626 0.804291 0
M  V30 14286 N 1348.03 0.0217466 1.57585 0
M  V30 14287 C 1348.99 -0.947546 2.08696 0
M  V30 14288 C 1349.99 -1.25879 1.00055 0
M  V30 14289 O 1351.18 -1.20035 1.26242 0
M  V30 14290 C 1348.31 -2.26624 2.54665 0
M  V30 14291 H 1349.51 -0.505016 2.95617 0
M  V30 14292 H 1347.06 -0.226152 1.54655 0
M  V30 14293 H 1347.79 -2.75521 1.71052 0
M  V30 14294 H 1347.58 -2.05347 3.34028 0
M  V30 14295 H 1349.07 -2.96114 2.94459 0
M  V30 14296 N 1349.51 -1.55583 -0.251311 0
M  V30 14297 C 1350.47 -1.89148 -1.29443 0
M  V30 14298 C 1351.47 -0.7676 -1.41296 0
M  V30 14299 O 1352.66 -1.03563 -1.40073 0
M  V30 14300 C 1349.79 -2.11601 -2.67279 0
M  V30 14301 H 1350.98 -2.82416 -1.00901 0
M  V30 14302 H 1348.54 -1.48407 -0.490398 0
M  V30 14303 H 1349.27 -1.20787 -3.00967 0
M  V30 14304 H 1349.06 -2.93449 -2.60058 0
M  V30 14305 H 1350.55 -2.38768 -3.42607 0
M  V30 14306 N 1350.98 0.516783 -1.48886 0
M  V30 14307 C 1352.22 1.28221 -1.59181 0
M  V30 14308 C 1352.59 1.90156 -0.265466 0
M  V30 14309 O 1353.79 2.67695 -0.243489 0
M  V30 14310 C 1352.06 2.3326 -2.70785 0
M  V30 14311 S 1353.62 3.19353 -3.00931 0
M  V30 14312 H 1350.44 0.435976 -0.561646 0
M  V30 14313 H 1353.04 0.587238 -1.86472 0
M  V30 14314 H 1351.74 1.86263 -3.65697 0
M  V30 14315 H 1351.27 3.07447 -2.45438 0
M  V30 14316 H 1353.29 4.3361 -2.4124 0
M  V30 14317 N 1352.46 1.37696 0.766659 0
M  V30 14318 C 1353.71 1.33185 1.52539 0
M  V30 14319 C 1354.04 -0.0821239 1.94327 0
M  V30 14320 O 1353.29 -1.05645 1.64735 0
M  V30 14321 C 1353.59 2.22154 2.79968 0
M  V30 14322 C 1353.26 3.70344 2.57208 0
M  V30 14323 C 1351.92 4.10729 2.50709 0
M  V30 14324 C 1354.27 4.64205 2.36988 0
M  V30 14325 C 1351.6 5.43082 2.21988 0
M  V30 14326 C 1353.95 5.96801 2.0979 0
M  V30 14327 C 1352.61 6.36284 2.01739 0
M  V30 14328 H 1351.88 0.487357 0.558179 0
M  V30 14329 H 1354.53 1.69945 0.882662 0
M  V30 14330 H 1352.84 1.78406 3.48825 0
M  V30 14331 H 1354.53 2.15975 3.37869 0
M  V30 14332 H 1351.12 3.38319 2.63131 0
M  V30 14333 H 1355.31 4.3386 2.40996 0
M  V30 14334 H 1350.56 5.7263 2.14254 0
M  V30 14335 H 1354.74 6.6908 1.93145 0
M  V30 14336 H 1352.36 7.38765 1.79248 0
M  V30 14337 N 1353.94 -0.993397 1.22349 0
M  V30 14338 C 1355.22 -1.7063 0.956275 0
M  V30 14339 C 1355.6 -2.0437 -0.52877 0
M  V30 14340 O 1354.94 -1.72662 -1.49667 0
M  V30 14341 C 1355.15 -2.95725 1.85331 0
M  V30 14342 C 1356.5 -3.68514 2.10909 0
M  V30 14343 O 1357.53 -3.05732 1.82775 0
M  V30 14344 O 1356.39 -4.81468 2.58556 0
M  V30 14345 H 1353.48 -0.744734 0.359583 0
M  V30 14346 H 1356.03 -1.04979 1.33333 0
M  V30 14347 H 1354.8 -2.6729 2.85782 0
M  V30 14348 H 1354.42 -3.69116 1.47781 0
M  V30 14349 N 1355.42 -1.03311 -1.19015 0
M  V30 14350 C 1356.83 -0.750946 -1.4083 0
M  V30 14351 C 1357.03 0.662704 -1.90291 0
M  V30 14352 O 1356.09 1.42806 -2.08237 0
M  V30 14353 C 1357.4 -1.79064 -2.41571 0
M  V30 14354 C 1358.95 -1.81068 -2.55311 0
M  V30 14355 C 1359.43 -2.84008 -3.59309 0
M  V30 14356 N 1360.92 -2.82852 -3.6681 0
M  V30 14357 C 1361.65 -3.59156 -4.46984 0
M  V30 14358 N 1361.15 -4.45188 -5.30829 0
M  V30 14359 N 1362.94 -3.47679 -4.41674 0
M  V30 14360 H 1355.09 -1.94548 -0.852329 0
M  V30 14361 H 1357.35 -0.841344 -0.436858 0
M  V30 14362 H 1357.06 -2.80425 -2.12261 0
M  V30 14363 H 1356.93 -1.61646 -3.40809 0
M  V30 14364 H 1359.32 -0.803825 -2.83941 0
M  V30 14365 H 1359.4 -2.02562 -1.56212 0
M  V30 14366 H 1359.05 -3.84867 -3.3142 0
M  V30 14367 H 1358.98 -2.59771 -4.58069 0
M  V30 14368 H 1361.47 -2.20457 -3.06932 0
M  V30 14369 H 1361.78 -5.00139 -5.89135 0
M  V30 14370 H 1360.13 -4.49259 -5.30275 0
M  V30 14371 H 1363.32 -2.79876 -3.75216 0
M  V30 14372 H 1363.49 -4.07396 -5.03917 0
M  V30 14373 N 1356.9 1.35099 -0.81154 0
M  V30 14374 C 1358.14 1.99348 -0.403961 0
M  V30 14375 C 1358.5 1.63209 1.01885 0
M  V30 14376 O 1357.79 0.887707 1.69795 0
M  V30 14377 C 1357.98 3.53444 -0.530322 0
M  V30 14378 C 1357.81 4.04552 -1.96387 0
M  V30 14379 C 1356.58 4.33677 -2.5933 0
M  V30 14380 C 1358.78 4.2274 -2.92909 0
M  V30 14381 N 1356.76 4.70747 -3.94043 0
M  V30 14382 C 1358.13 4.62862 -4.12503 0
M  V30 14383 C 1360.19 4.0496 -2.89675 0
M  V30 14384 C 1358.89 4.87064 -5.29303 0
M  V30 14385 C 1360.92 4.30321 -4.05682 0
M  V30 14386 C 1360.28 4.7072 -5.24025 0
M  V30 14387 H 1356.38 0.757119 -0.195692 0
M  V30 14388 H 1358.96 1.63715 -1.05383 0
M  V30 14389 H 1357.13 3.88297 0.089583 0
M  V30 14390 H 1358.87 4.04584 -0.0968489 0
M  V30 14391 H 1355.62 4.24174 -2.1065 0
M  V30 14392 H 1356.04 4.93534 -4.63414 0
M  V30 14393 H 1360.69 3.72864 -1.99329 0
M  V30 14394 H 1358.4 5.18031 -6.20217 0
M  V30 14395 H 1361.99 4.18112 -4.04566 0
M  V30 14396 H 1360.87 4.89961 -6.12298 0
M  V30 14397 N 1358.37 0.56548 1.47106 0
M  V30 14398 C 1359.65 -0.0215358 1.95588 0
M  V30 14399 C 1360.03 -1.47712 1.50813 0
M  V30 14400 O 1359.38 -2.15814 0.750776 0
M  V30 14401 C 1359.59 0.132552 3.48748 0
M  V30 14402 C 1360.94 -0.00853591 4.24599 0
M  V30 14403 O 1361.96 0.0605142 3.56149 0
M  V30 14404 O 1360.82 -0.158519 5.4627 0
M  V30 14405 H 1357.91 -0.0595011 0.824857 0
M  V30 14406 H 1360.46 0.632586 1.57469 0
M  V30 14407 H 1359.23 1.14511 3.7417 0
M  V30 14408 H 1358.85 -0.558801 3.93654 0
M  V30 14409 N 1359.85 -1.54672 0.302354 0
M  V30 14410 C 1360.78 -2.2653 -0.566265 0
M  V30 14411 C 1361.76 -1.26532 -1.13682 0
M  V30 14412 O 1362.95 -1.55307 -1.1659 0
M  V30 14413 C 1360.08 -3.00709 -1.73757 0
M  V30 14414 C 1359.03 -4.07865 -1.29731 0
M  V30 14415 C 1358.36 -4.69767 -2.55388 0
M  V30 14416 C 1359.66 -5.20547 -0.427567 0
M  V30 14417 H 1361.35 -2.99382 0.033071 0
M  V30 14418 H 1358.9 -1.4399 0.0173458 0
M  V30 14419 H 1360.85 -3.497 -2.35134 0
M  V30 14420 H 1359.58 -2.25437 -2.36317 0
M  V30 14421 H 1358.23 -3.59726 -0.706586 0
M  V30 14422 H 1357.88 -3.91134 -3.16265 0
M  V30 14423 H 1357.58 -5.42137 -2.26631 0
M  V30 14424 H 1359.11 -5.21521 -3.17566 0
M  V30 14425 H 1360.52 -5.65424 -0.947053 0
M  V30 14426 H 1358.92 -5.99645 -0.233704 0
M  V30 14427 H 1359.99 -4.81805 0.546993 0
M  V30 14428 N 1361.33 -0.0301034 -1.57571 0
M  V30 14429 C 1362.74 0.508591 -1.79639 0
M  V30 14430 C 1363.09 1.72191 -0.940458 0
M  V30 14431 O 1362.22 2.15872 -0.151138 0
M  V30 14432 C 1362.81 0.929446 -3.25802 0
M  V30 14433 C 1361.37 1.41325 -3.48861 0
M  V30 14434 C 1360.52 0.378433 -2.74706 0
M  V30 14435 H 1363.47 -0.256131 -1.56619 0
M  V30 14436 H 1363.49 1.79374 -3.35567 0
M  V30 14437 H 1363 0.0461738 -3.88073 0
M  V30 14438 H 1361.1 2.31641 -2.91844 0
M  V30 14439 H 1361.22 1.41995 -4.57574 0
M  V30 14440 H 1359.58 0.846744 -2.40213 0
M  V30 14441 H 1360.36 -0.49639 -3.39692 0
M  V30 14442 N 1362.81 1.55714 0.243056 0
M  V30 14443 C 1363.74 1.93655 1.30461 0
M  V30 14444 C 1364.72 0.801968 1.50008 0
M  V30 14445 O 1365.9 1.06256 1.62552 0
M  V30 14446 C 1363.03 2.23459 2.65863 0
M  V30 14447 C 1361.99 3.39205 2.61006 0
M  V30 14448 C 1361.31 3.5456 4.00239 0
M  V30 14449 C 1362.61 4.74787 2.17656 0
M  V30 14450 H 1364.31 2.82575 0.98954 0
M  V30 14451 H 1361.85 1.35955 0.474572 0
M  V30 14452 H 1363.81 2.48591 3.40266 0
M  V30 14453 H 1362.53 1.31369 2.99014 0
M  V30 14454 H 1361.19 3.14088 1.89061 0
M  V30 14455 H 1360.84 2.59884 4.30661 0
M  V30 14456 H 1360.54 4.32399 3.97876 0
M  V30 14457 H 1362.06 3.82017 4.76335 0
M  V30 14458 H 1363.48 4.99266 2.81792 0
M  V30 14459 H 1361.87 5.55756 2.26397 0
M  V30 14460 H 1362.94 4.7159 1.12831 0
M  V30 14461 N 1364.29 -0.50888 1.49158 0
M  V30 14462 C 1365.51 -1.29245 1.62205 0
M  V30 14463 C 1365.94 -1.85845 0.29041 0
M  V30 14464 O 1365.29 -1.6547 -0.740906 0
M  V30 14465 C 1365.34 -2.40415 2.68762 0
M  V30 14466 O 1364.45 -3.44048 2.27387 0
M  V30 14467 H 1363.79 -0.381898 0.543185 0
M  V30 14468 H 1366.32 -0.610076 1.95293 0
M  V30 14469 H 1366.33 -2.86295 2.90688 0
M  V30 14470 H 1365 -1.98584 3.65427 0
M  V30 14471 H 1363.58 -3.04141 2.1576 0
M  V30 14472 N 1365.76 -1.381 -0.759346 0
M  V30 14473 C 1367.04 -1.24517 -1.50847 0
M  V30 14474 C 1367.42 0.155929 -2.10523 0
M  V30 14475 O 1366.77 1.16485 -1.96579 0
M  V30 14476 C 1366.98 -2.35086 -2.57945 0
M  V30 14477 C 1368.33 -2.73232 -3.25007 0
M  V30 14478 O 1369.35 -2.34355 -2.68247 0
M  V30 14479 O 1368.21 -3.40254 -4.27656 0
M  V30 14480 H 1365.3 -0.486599 -0.668693 0
M  V30 14481 H 1367.85 -1.49913 -0.795249 0
M  V30 14482 H 1366.62 -3.28858 -2.12056 0
M  V30 14483 H 1366.25 -2.11222 -3.36854 0
M  V30 14484 N 1367.24 0.986894 -1.22875 0
M  V30 14485 C 1368.18 2.07604 -0.947406 0
M  V30 14486 C 1369.15 1.62214 0.111904 0
M  V30 14487 O 1370.34 1.88488 -0.0209682 0
M  V30 14488 C 1367.46 3.3601 -0.42605 0
M  V30 14489 C 1366.51 4.00331 -1.47097 0
M  V30 14490 S 1367.34 4.40412 -3.04627 0
M  V30 14491 C 1368.5 5.7198 -2.54145 0
M  V30 14492 H 1368.73 2.31149 -1.86969 0
M  V30 14493 H 1366.27 1.1222 -1.06047 0
M  V30 14494 H 1368.22 4.10288 -0.131846 0
M  V30 14495 H 1366.88 3.10484 0.475211 0
M  V30 14496 H 1366.08 4.92809 -1.05618 0
M  V30 14497 H 1365.68 3.32403 -1.71418 0
M  V30 14498 H 1367.97 6.48602 -1.9576 0
M  V30 14499 H 1368.91 6.18293 -3.45137 0
M  V30 14500 H 1369.32 5.29669 -1.95221 0
M  V30 14501 N 1368.72 1.0394 1.18466 0
M  V30 14502 C 1369.95 0.760909 1.92077 0
M  V30 14503 C 1370.36 -0.685622 1.7634 0
M  V30 14504 O 1369.7 -1.47894 1.08963 0
M  V30 14505 C 1369.76 1.04583 3.43952 0
M  V30 14506 C 1369.43 2.48602 3.83466 0
M  V30 14507 C 1370.42 3.46775 3.87354 0
M  V30 14508 C 1368.11 2.8328 4.14798 0
M  V30 14509 C 1370.1 4.77678 4.22022 0
M  V30 14510 C 1367.79 4.1439 4.49138 0
M  V30 14511 C 1368.79 5.11399 4.52725 0
M  V30 14512 O 1368.48 6.40159 4.86264 0
M  V30 14513 H 1368.21 0.276991 0.616646 0
M  V30 14514 H 1370.76 1.3898 1.5124 0
M  V30 14515 H 1368.99 0.359807 3.85022 0
M  V30 14516 H 1370.68 0.755336 3.9881 0
M  V30 14517 H 1371.45 3.21323 3.63286 0
M  V30 14518 H 1367.33 2.08444 4.11184 0
M  V30 14519 H 1370.87 5.53393 4.24737 0
M  V30 14520 H 1366.77 4.39611 4.72666 0
M  V30 14521 H 1367.54 6.4479 5.04171 0
M  V30 14522 N 1370.2 -1.34667 0.818693 0
M  V30 14523 C 1371.43 -2.02642 0.417608 0
M  V30 14524 C 1371.84 -1.61667 -0.97516 0
M  V30 14525 O 1371.2 -0.820056 -1.63038 0
M  V30 14526 C 1371.25 -3.57951 0.505295 0
M  V30 14527 O 1370.97 -3.97441 1.84317 0
M  V30 14528 C 1372.47 -4.4319 0.0985667 0
M  V30 14529 H 1369.69 -0.6496 0.168111 0
M  V30 14530 H 1372.24 -1.72032 1.10568 0
M  V30 14531 H 1370.39 -3.87166 -0.134646 0
M  V30 14532 H 1370.8 -4.92116 1.81444 0
M  V30 14533 H 1372.28 -5.51597 0.211015 0
M  V30 14534 H 1372.76 -4.28637 -0.95745 0
M  V30 14535 H 1373.36 -4.19295 0.71214 0
M  V30 14536 N 1371.68 -0.573274 -1.46804 0
M  V30 14537 C 1373.09 -0.144162 -1.86143 0
M  V30 14538 C 1373.44 1.29033 -1.47801 0
M  V30 14539 O 1372.56 1.97319 -0.888494 0
M  V30 14540 C 1373.16 -0.254851 -3.3784 0
M  V30 14541 C 1371.72 0.119325 -3.76211 0
M  V30 14542 C 1370.86 -0.595115 -2.70839 0
M  V30 14543 H 1373.82 -0.782057 -1.38093 0
M  V30 14544 H 1373.84 0.522321 -3.76898 0
M  V30 14545 H 1373.35 -1.29899 -3.65715 0
M  V30 14546 H 1371.45 1.16396 -3.53953 0
M  V30 14547 H 1371.56 -0.250421 -4.78445 0
M  V30 14548 H 1369.93 -0.0364028 -2.54674 0
M  V30 14549 H 1370.71 -1.64072 -3.01555 0
M  V30 14550 N 1373.15 1.5451 -0.310553 0
M  V30 14551 C 1374.38 2.04442 0.297807 0
M  V30 14552 C 1374.79 1.18695 1.47337 0
M  V30 14553 O 1374.14 0.207405 1.82525 0
M  V30 14554 C 1374.2 3.50306 0.807851 0
M  V30 14555 C 1373.86 4.5635 -0.24369 0
M  V30 14556 C 1374.86 5.08656 -1.07539 0
M  V30 14557 C 1372.54 5.00798 -0.388138 0
M  V30 14558 C 1374.54 6.03961 -2.03738 0
M  V30 14559 C 1372.22 5.95921 -1.35357 0
M  V30 14560 C 1373.22 6.47387 -2.17667 0
M  V30 14561 O 1372.91 7.40644 -3.12571 0
M  V30 14562 H 1372.64 0.672646 0.0672525 0
M  V30 14563 H 1375.2 2.00389 -0.450948 0
M  V30 14564 H 1373.43 3.51714 1.6073 0
M  V30 14565 H 1375.12 3.83383 1.33314 0
M  V30 14566 H 1375.88 4.75105 -0.97471 0
M  V30 14567 H 1371.76 4.60361 0.242608 0
M  V30 14568 H 1375.3 6.44057 -2.68023 0
M  V30 14569 H 1371.2 6.2889 -1.45493 0
M  V30 14570 H 1371.97 7.58477 -3.0766 0
M  V30 14571 N 1374.63 0.0384594 1.57553 0
M  V30 14572 C 1375.88 -0.639085 1.92467 0
M  V30 14573 C 1376.21 -1.71239 0.916014 0
M  V30 14574 O 1375.49 -1.94408 -0.0598928 0
M  V30 14575 C 1375.77 -1.24693 3.37822 0
M  V30 14576 C 1375.62 -0.182544 4.49429 0
M  V30 14577 C 1376.94 -2.16226 3.8332 0
M  V30 14578 H 1374.06 -0.230852 0.699912 0
M  V30 14579 H 1376.7 0.0976276 1.89749 0
M  V30 14580 H 1374.85 -1.87481 3.40269 0
M  V30 14581 H 1376.53 0.448622 4.59113 0
M  V30 14582 H 1374.77 0.4909 4.31013 0
M  V30 14583 H 1375.44 -0.647626 5.48188 0
M  V30 14584 H 1377.92 -1.63413 3.82669 0
M  V30 14585 H 1376.79 -2.55705 4.85702 0
M  V30 14586 H 1377.05 -3.05722 3.19353 0
M  V30 14587 N 1376.11 -1.55841 -0.234795 0
M  V30 14588 C 1377.36 -1.78238 -0.961116 0
M  V30 14589 C 1377.69 -0.604919 -1.84854 0
M  V30 14590 O 1376.94 0.411289 -1.91329 0
M  V30 14591 C 1377.24 -3.06262 -1.84223 0
M  V30 14592 C 1376.91 -4.37045 -1.10916 0
M  V30 14593 C 1375.57 -4.72582 -0.906606 0
M  V30 14594 C 1377.92 -5.17844 -0.59049 0
M  V30 14595 C 1375.25 -5.86444 -0.173275 0
M  V30 14596 C 1377.6 -6.32468 0.129433 0
M  V30 14597 C 1376.26 -6.66616 0.343357 0
M  V30 14598 H 1375.53 -0.652219 -0.351697 0
M  V30 14599 H 1378.18 -1.9011 -0.230272 0
M  V30 14600 H 1376.49 -2.89454 -2.64052 0
M  V30 14601 H 1378.18 -3.20791 -2.40612 0
M  V30 14602 H 1374.77 -4.09134 -1.27699 0
M  V30 14603 H 1378.96 -4.90835 -0.734487 0
M  V30 14604 H 1374.21 -6.114 0.00282409 0
M  V30 14605 H 1378.39 -6.94312 0.538905 0
M  V30 14606 H 1376.01 -7.54691 0.913538 0
M  V30 14607 N 1377.59 0.500963 -1.49426 0
M  V30 14608 C 1379 1.08248 -1.52116 0
M  V30 14609 C 1379.35 1.93777 -0.30738 0
M  V30 14610 O 1378.48 2.08404 0.582805 0
M  V30 14611 C 1379.07 1.96988 -2.75647 0
M  V30 14612 C 1377.63 2.50303 -2.81115 0
M  V30 14613 C 1376.78 1.27924 -2.4603 0
M  V30 14614 H 1379.73 0.284872 -1.56122 0
M  V30 14615 H 1379.75 2.81675 -2.55811 0
M  V30 14616 H 1379.26 1.34711 -3.6397 0
M  V30 14617 H 1377.36 3.16218 -1.97072 0
M  V30 14618 H 1377.48 2.87453 -3.83286 0
M  V30 14619 H 1375.84 1.60447 -1.9781 0
M  V30 14620 H 1376.62 0.673557 -3.36628 0
M  V30 14621 N 1379.07 1.38501 0.752011 0
M  V30 14622 C 1380.29 1.38212 1.54636 0
M  V30 14623 C 1380.72 -0.0256356 1.88083 0
M  V30 14624 O 1380.08 -1.00812 1.50687 0
M  V30 14625 C 1380.12 2.24597 2.82114 0
M  V30 14626 O 1379.23 1.66415 3.77332 0
M  V30 14627 H 1378.57 0.47138 0.46765 0
M  V30 14628 H 1381.1 1.82283 0.929205 0
M  V30 14629 H 1381.11 2.38511 3.31023 0
M  V30 14630 H 1379.78 3.26913 2.57101 0
M  V30 14631 H 1378.36 1.61651 3.36041 0
M  V30 14632 N 1380.55 -0.980364 1.23396 0
M  V30 14633 C 1381.46 -2.10688 1.03188 0
M  V30 14634 C 1382.47 -1.73984 -0.0236159 0
M  V30 14635 O 1383.65 -2.00666 0.171841 0
M  V30 14636 C 1380.71 -3.4101 0.625563 0
M  V30 14637 C 1379.77 -3.91739 1.75611 0
M  V30 14638 C 1379.01 -5.15841 1.36908 0
M  V30 14639 O 1379.23 -5.69837 0.253329 0
M  V30 14640 O 1378.16 -5.60638 2.19018 0
M  V30 14641 H 1381.99 -2.30626 1.97599 0
M  V30 14642 H 1379.57 -1.09067 1.02102 0
M  V30 14643 H 1381.46 -4.19402 0.409909 0
M  V30 14644 H 1380.13 -3.22402 -0.28956 0
M  V30 14645 H 1379.04 -3.14464 2.0264 0
M  V30 14646 H 1380.37 -4.14801 2.64955 0
M  V30 14647 N 1382.02 -1.04567 -1.17913 0
M  V30 14648 C 1382.97 -0.634939 -2.23766 0
M  V30 14649 C 1383.97 0.340723 -1.65938 0
M  V30 14650 O 1385.17 0.207467 -1.788 0
M  V30 14651 H 1381.55 -0.187129 -0.728345 0
M  V30 14652 H 1383.52 -1.53798 -2.55712 0
M  V30 14653 C 1382.27 -0.0190662 -3.47695 0
M  V30 14654 H 1381.59 -0.760881 -3.92493 0
M  V30 14655 H 1383.03 0.231035 -4.2337 0
M  V30 14656 C 1381.49 1.23246 -3.13548 0
M  V30 14657 O 1382.02 2.32262 -3.27746 0
M  V30 14658 N 1380.22 1.12768 -2.67828 0
M  V30 14659 H 1379.77 0.240547 -2.56474 0
M  V30 14660 H 1379.73 1.96594 -2.45353 0
M  V30 14661 N 1383.5 1.34231 -0.825823 0
M  V30 14662 C 1384.75 1.97805 -0.414456 0
M  V30 14663 C 1385.07 1.65786 1.02664 0
M  V30 14664 O 1384.34 0.950069 1.7132 0
M  V30 14665 H 1382.92 0.73173 -0.150265 0
M  V30 14666 H 1385.58 1.63819 -1.05591 0
M  V30 14667 H 1384.68 3.07466 -0.535829 0
M  V30 14668 N 1384.98 0.581051 1.46498 0
M  V30 14669 C 1385.91 -0.140957 2.33074 0
M  V30 14670 C 1386.89 -0.885323 1.45245 0
M  V30 14671 O 1388.08 -0.86111 1.74065 0
M  V30 14672 C 1385.21 -1.15625 3.27488 0
M  V30 14673 C 1384.16 -0.526829 4.24745 0
M  V30 14674 C 1383.49 -1.64847 5.08655 0
M  V30 14675 C 1384.79 0.53492 5.19554 0
M  V30 14676 H 1386.48 0.581888 2.93691 0
M  V30 14677 H 1384.03 0.281278 1.41226 0
M  V30 14678 H 1385.98 -1.6697 3.8691 0
M  V30 14679 H 1384.7 -1.90935 2.64974 0
M  V30 14680 H 1383.36 -0.0344738 3.66584 0
M  V30 14681 H 1383.01 -2.3912 4.42528 0
M  V30 14682 H 1382.71 -1.23298 5.74518 0
M  V30 14683 H 1384.23 -2.16472 5.7094 0
M  V30 14684 H 1385.65 0.106606 5.73201 0
M  V30 14685 H 1384.04 0.870639 5.93751 0
M  V30 14686 H 1385.11 1.42184 4.63586 0
M  V30 14687 N 1386.46 -1.54343 0.318742 0
M  V30 14688 C 1387.87 -1.59564 -0.034068 0
M  V30 14689 C 1388.07 -1.33539 -1.50896 0
M  V30 14690 O 1387.13 -1.11746 -2.26427 0
M  V30 14691 C 1388.44 -2.98291 0.379827 0
M  V30 14692 C 1389.99 -3.11255 0.330078 0
M  V30 14693 C 1390.47 -4.5232 0.719061 0
M  V30 14694 N 1391.96 -4.58295 0.67228 0
M  V30 14695 C 1392.69 -5.65551 0.945513 0
M  V30 14696 N 1392.19 -6.80767 1.28563 0
M  V30 14697 N 1393.98 -5.55305 0.871394 0
M  V30 14698 H 1386.13 -1.69518 1.27975 0
M  V30 14699 H 1388.39 -0.792627 0.520044 0
M  V30 14700 H 1388.1 -3.22319 1.40724 0
M  V30 14701 H 1387.97 -3.76319 -0.257606 0
M  V30 14702 H 1390.36 -2.86965 -0.688117 0
M  V30 14703 H 1390.44 -2.35342 1.00238 0
M  V30 14704 H 1390.09 -4.77342 1.73515 0
M  V30 14705 H 1390.02 -5.26594 0.0245001 0
M  V30 14706 H 1392.51 -3.75547 0.421059 0
M  V30 14707 H 1392.82 -7.58503 1.47963 0
M  V30 14708 H 1391.17 -6.82275 1.32385 0
M  V30 14709 H 1394.36 -4.64171 0.605205 0
M  V30 14710 H 1394.53 -6.38806 1.08769 0
M  V30 14711 N 1387.94 -0.0468143 -1.5753 0
M  V30 14712 C 1389.18 0.631887 -1.94388 0
M  V30 14713 C 1389.54 1.68265 -0.924715 0
M  V30 14714 O 1390.74 2.41511 -1.18008 0
M  V30 14715 C 1389.01 1.21642 -3.36063 0
M  V30 14716 S 1390.57 1.91373 -3.94869 0
M  V30 14717 H 1387.39 0.207594 -0.680019 0
M  V30 14718 H 1389.99 -0.11471 -1.95163 0
M  V30 14719 H 1388.69 0.439479 -4.0804 0
M  V30 14720 H 1388.23 1.99993 -3.38772 0
M  V30 14721 H 1390.24 3.19392 -3.79741 0
M  V30 14722 N 1389.41 1.55964 0.226527 0
M  V30 14723 C 1390.66 1.78392 0.94977 0
M  V30 14724 C 1390.98 0.614444 1.85066 0
M  V30 14725 O 1390.25 -0.368894 1.92395 0
M  V30 14726 H 1388.83 0.657962 0.353688 0
M  V30 14727 H 1391.5 1.93422 0.239577 0
M  V30 14728 H 1390.59 2.70343 1.55952 0
M  V30 14729 N 1390.89 -0.493031 1.4969 0
M  V30 14730 C 1392.12 -1.27046 1.633 0
M  V30 14731 C 1392.54 -1.86278 0.307534 0
M  V30 14732 O 1391.89 -1.68208 -0.707968 0
M  V30 14733 C 1391.94 -2.39501 2.70779 0
M  V30 14734 O 1391.66 -1.82702 3.98185 0
M  V30 14735 C 1393.17 -3.30744 2.95166 0
M  V30 14736 H 1390.39 -0.385042 0.54953 0
M  V30 14737 H 1392.93 -0.590998 1.95774 0
M  V30 14738 H 1391.08 -3.03263 2.41061 0
M  V30 14739 H 1391.5 -2.56588 4.57452 0
M  V30 14740 H 1392.97 -4.05912 3.74085 0
M  V30 14741 H 1393.45 -3.88217 2.05387 0
M  V30 14742 H 1394.06 -2.72741 3.26332 0
M  V30 14743 N 1392.37 -1.38898 -0.744656 0
M  V30 14744 C 1393.79 -1.20291 -1.04892 0
M  V30 14745 C 1393.99 -0.0577705 -2.01417 0
M  V30 14746 O 1393.04 0.593638 -2.45422 0
M  V30 14747 C 1394.36 -2.53302 -1.62045 0
M  V30 14748 C 1395.9 -2.60063 -1.74173 0
M  V30 14749 C 1396.38 -3.93272 -2.34736 0
M  V30 14750 N 1397.87 -3.9486 -2.42157 0
M  V30 14751 C 1398.6 -4.94698 -2.89933 0
M  V30 14752 N 1398.1 -6.04934 -3.37678 0
M  V30 14753 N 1399.89 -4.82083 -2.89055 0
M  V30 14754 H 1392.04 -2.12144 -0.104294 0
M  V30 14755 H 1394.31 -0.941725 -0.108895 0
M  V30 14756 H 1394.01 -3.376 -0.985868 0
M  V30 14757 H 1393.89 -2.72335 -2.60986 0
M  V30 14758 H 1396.27 -1.76155 -2.36756 0
M  V30 14759 H 1396.36 -2.44889 -0.739115 0
M  V30 14760 H 1396 -4.77607 -1.72784 0
M  V30 14761 H 1395.93 -4.05762 -3.35656 0
M  V30 14762 H 1398.42 -3.15243 -2.08399 0
M  V30 14763 H 1398.73 -6.77036 -3.72616 0
M  V30 14764 H 1397.08 -6.08541 -3.35712 0
M  V30 14765 H 1400.27 -3.9507 -2.51072 0
M  V30 14766 H 1400.44 -5.60039 -3.25975 0
M  V30 14767 N 1393.85 0.973806 -1.23914 0
M  V30 14768 C 1394.76 2.10138 -1.04304 0
M  V30 14769 C 1395.77 1.73994 0.0143888 0
M  V30 14770 O 1396.95 2.00572 -0.182481 0
M  V30 14771 C 1394.02 3.40673 -0.643639 0
M  V30 14772 C 1393.08 3.90802 -1.77686 0
M  V30 14773 C 1392.31 5.15108 -1.39642 0
M  V30 14774 O 1392.53 5.69695 -0.283546 0
M  V30 14775 O 1391.47 5.59468 -2.21988 0
M  V30 14776 H 1395.29 2.29574 -1.9882 0
M  V30 14777 H 1392.88 1.08524 -1.02679 0
M  V30 14778 H 1394.76 4.19178 -0.432145 0
M  V30 14779 H 1393.43 3.22551 0.272458 0
M  V30 14780 H 1392.34 3.13385 -2.04305 0
M  V30 14781 H 1393.67 4.1339 -2.67151 0
M  V30 14782 N 1395.33 1.05191 1.17357 0
M  V30 14783 C 1396.26 0.673931 2.23563 0
M  V30 14784 C 1397.24 -0.328284 1.66902 0
M  V30 14785 O 1398.42 -0.205878 1.93106 0
M  V30 14786 C 1395.55 0.0478801 3.47267 0
M  V30 14787 C 1394.51 0.974855 4.1675 0
M  V30 14788 C 1393.83 0.212684 5.34277 0
M  V30 14789 C 1395.13 2.299 4.68981 0
M  V30 14790 H 1396.83 1.56183 2.55436 0
M  V30 14791 H 1394.37 0.752408 1.2278 0
M  V30 14792 H 1396.33 -0.228343 4.20781 0
M  V30 14793 H 1395.05 -0.874963 3.14662 0
M  V30 14794 H 1393.71 1.23564 3.45148 0
M  V30 14795 H 1393.36 -0.712924 4.97922 0
M  V30 14796 H 1393.06 0.830351 5.81703 0
M  V30 14797 H 1394.58 -0.056255 6.10574 0
M  V30 14798 H 1395.99 2.08269 5.34132 0
M  V30 14799 H 1394.39 2.87064 5.26986 0
M  V30 14800 H 1395.46 2.93759 3.8579 0
M  V30 14801 N 1396.8 -1.33791 0.83293 0
M  V30 14802 C 1397.75 -2.31249 0.250357 0
M  V30 14803 C 1398.75 -1.57865 -0.614403 0
M  V30 14804 O 1399.95 -1.72782 -0.504627 0
M  V30 14805 H 1396.33 -0.749421 0.0622268 0
M  V30 14806 H 1398.3 -2.77899 1.08697 0
M  V30 14807 C 1397.05 -3.43082 -0.564783 0
M  V30 14808 H 1396.37 -3.99696 0.0913189 0
M  V30 14809 H 1397.81 -4.13486 -0.938351 0
M  V30 14810 C 1396.27 -2.88414 -1.74124 0
M  V30 14811 O 1396.8 -2.84113 -2.83976 0
M  V30 14812 N 1395.01 -2.45101 -1.56121 0
M  V30 14813 H 1394.55 -2.48799 -0.667607 0
M  V30 14814 H 1394.51 -2.08875 -2.34986 0
M  V30 14815 N 1398.28 -0.588812 -1.46187 0
M  V30 14816 C 1399.51 -0.0824104 -2.06436 0
M  V30 14817 C 1399.92 1.23054 -1.43716 0
M  V30 14818 O 1399.26 1.7562 -0.538825 0
M  V30 14819 C 1399.33 0.151307 -3.59181 0
M  V30 14820 C 1398.99 -1.07697 -4.44129 0
M  V30 14821 C 1399.99 -1.99053 -4.80285 0
M  V30 14822 C 1397.67 -1.30053 -4.85172 0
M  V30 14823 C 1399.67 -3.11108 -5.56319 0
M  V30 14824 C 1397.35 -2.42412 -5.60963 0
M  V30 14825 C 1398.35 -3.32769 -5.96451 0
M  V30 14826 O 1398.04 -4.43175 -6.70709 0
M  V30 14827 H 1397.77 -0.0573231 -0.673565 0
M  V30 14828 H 1400.32 -0.811012 -1.88711 0
M  V30 14829 H 1398.55 0.934591 -3.75236 0
M  V30 14830 H 1400.24 0.606973 -4.01336 0
M  V30 14831 H 1401.01 -1.83 -4.4915 0
M  V30 14832 H 1396.89 -0.606295 -4.56996 0
M  V30 14833 H 1400.43 -3.81659 -5.83937 0
M  V30 14834 H 1396.33 -2.58426 -5.91512 0
M  V30 14835 H 1397.1 -4.4162 -6.8914 0
M  V30 14836 N 1399.76 1.54172 -0.326923 0
M  V30 14837 C 1401.01 2.00233 0.274098 0
M  V30 14838 C 1401.33 1.21665 1.5239 0
M  V30 14839 O 1400.6 0.319359 1.93279 0
M  V30 14840 H 1399.18 0.739687 0.104271 0
M  V30 14841 H 1401.84 1.8977 -0.444244 0
M  V30 14842 H 1400.94 3.07599 0.528154 0
M  V30 14843 N 1401.24 0.0551678 1.57503 0
M  V30 14844 C 1402.65 -0.479948 1.80426 0
M  V30 14845 C 1403 -1.70673 0.967733 0
M  V30 14846 O 1402.13 -2.15604 0.185462 0
M  V30 14847 C 1402.72 -0.877496 3.27239 0
M  V30 14848 C 1401.28 -1.35757 3.51066 0
M  V30 14849 C 1400.43 -0.334681 2.75273 0
M  V30 14850 H 1403.38 0.281016 1.56192 0
M  V30 14851 H 1403.4 -1.74013 3.38378 0
M  V30 14852 H 1402.91 0.015571 3.88097 0
M  V30 14853 H 1401.01 -2.26969 2.95492 0
M  V30 14854 H 1401.12 -1.34697 4.59776 0
M  V30 14855 H 1399.49 -0.808421 2.4153 0
M  V30 14856 H 1400.27 0.550369 3.3886 0
M  V30 14857 N 1402.72 -1.56081 -0.218252 0
M  V30 14858 C 1403.67 -1.89082 -1.27405 0
M  V30 14859 C 1404.65 -0.754204 -1.42129 0
M  V30 14860 O 1405.84 -1.01668 -1.44888 0
M  V30 14861 C 1402.97 -2.21387 -2.62379 0
M  V30 14862 C 1402.06 -3.41448 -2.51543 0
M  V30 14863 N 1402.45 -4.5998 -2.10362 0
M  V30 14864 C 1400.75 -3.45128 -2.82494 0
M  V30 14865 C 1401.45 -5.42139 -2.10857 0
M  V30 14866 N 1400.42 -4.81936 -2.51472 0
M  V30 14867 H 1404.23 -2.78238 -0.946609 0
M  V30 14868 H 1401.74 -1.56691 -0.426801 0
M  V30 14869 H 1403.74 -2.43205 -3.38611 0
M  V30 14870 H 1402.4 -1.33545 -2.95966 0
M  V30 14871 H 1403.41 -4.85077 -1.8144 0
M  V30 14872 H 1400.08 -2.67638 -3.20431 0
M  V30 14873 H 1401.47 -6.47029 -1.81114 0
M  V30 14874 N 1404.2 0.485086 -1.49949 0
M  V30 14875 C 1405.13 1.60191 -1.63926 0
M  V30 14876 C 1406.14 1.5423 -0.521256 0
M  V30 14877 O 1407.33 1.59872 -0.79392 0
M  V30 14878 C 1404.43 2.99035 -1.59472 0
M  V30 14879 C 1403.6 3.30014 -2.87071 0
M  V30 14880 C 1402.66 4.48345 -2.75451 0
M  V30 14881 O 1401.69 4.49342 -3.494 0
M  V30 14882 N 1402.89 5.49192 -1.88064 0
M  V30 14883 H 1405.65 1.48622 -2.60253 0
M  V30 14884 H 1403.22 0.673258 -1.47237 0
M  V30 14885 H 1405.21 3.76142 -1.4933 0
M  V30 14886 H 1403.78 3.04445 -0.709373 0
M  V30 14887 H 1403 2.41652 -3.11445 0
M  V30 14888 H 1404.29 3.47515 -3.71632 0
M  V30 14889 H 1403.68 5.51198 -1.2727 0
M  V30 14890 H 1402.24 6.25338 -1.83835 0
M  V30 14891 N 1405.67 1.39291 0.737279 0
M  V30 14892 C 1406.92 1.37597 1.49795 0
M  V30 14893 C 1407.27 -0.0289024 1.92378 0
M  V30 14894 O 1406.57 -0.994964 1.63741 0
M  V30 14895 C 1406.76 2.28043 2.75193 0
M  V30 14896 C 1406.59 3.77184 2.44871 0
M  V30 14897 C 1405.36 4.46123 2.37281 0
M  V30 14898 C 1407.56 4.69219 2.10565 0
M  V30 14899 N 1405.54 5.80612 1.99406 0
M  V30 14900 C 1406.91 5.92342 1.83115 0
M  V30 14901 C 1408.97 4.57263 1.97014 0
M  V30 14902 C 1407.67 7.04845 1.4348 0
M  V30 14903 C 1409.7 5.69686 1.58781 0
M  V30 14904 C 1409.06 6.9188 1.32215 0
M  V30 14905 H 1405.16 0.558776 0.547077 0
M  V30 14906 H 1407.74 1.74821 0.857065 0
M  V30 14907 H 1405.91 1.92981 3.37065 0
M  V30 14908 H 1407.64 2.17358 3.41376 0
M  V30 14909 H 1404.4 3.99535 2.543 0
M  V30 14910 H 1404.82 6.51779 1.83068 0
M  V30 14911 H 1409.46 3.63329 2.16222 0
M  V30 14912 H 1407.18 7.98682 1.23013 0
M  V30 14913 H 1410.77 5.62422 1.48905 0
M  V30 14914 H 1409.65 7.77397 1.03073 0
M  V30 14915 N 1407.15 -0.967221 1.24429 0
M  V30 14916 C 1408.57 -1.23594 1.00979 0
M  V30 14917 C 1408.77 -1.99529 -0.281112 0
M  V30 14918 O 1407.82 -2.31977 -0.997139 0
M  V30 14919 C 1409.14 -2.02261 2.22511 0
M  V30 14920 C 1410.68 -2.15352 2.2714 0
M  V30 14921 C 1411.16 -2.97414 3.48294 0
M  V30 14922 N 1412.65 -3.04996 3.48614 0
M  V30 14923 C 1413.39 -3.68851 4.39017 0
M  V30 14924 N 1412.88 -4.34421 5.39676 0
M  V30 14925 N 1414.67 -3.65868 4.26728 0
M  V30 14926 H 1406.83 -0.458881 2.07384 0
M  V30 14927 H 1409.09 -0.265411 0.910088 0
M  V30 14928 H 1408.79 -1.53852 3.16263 0
M  V30 14929 H 1408.67 -3.02993 2.24667 0
M  V30 14930 H 1411.06 -2.62964 1.33919 0
M  V30 14931 H 1411.14 -1.13966 2.2901 0
M  V30 14932 H 1410.78 -2.50495 4.41831 0
M  V30 14933 H 1410.71 -3.98998 3.43668 0
M  V30 14934 H 1413.2 -2.58354 2.75793 0
M  V30 14935 H 1413.51 -4.80965 6.04891 0
M  V30 14936 H 1411.86 -4.33089 5.43562 0
M  V30 14937 H 1415.05 -3.13819 3.47325 0
M  V30 14938 H 1415.22 -4.15349 4.97382 0
M  V30 14939 N 1408.63 -1.05812 -1.16797 0
M  V30 14940 C 1409.88 -0.770398 -1.8684 0
M  V30 14941 C 1410.2 0.704986 -1.8181 0
M  V30 14942 O 1409.47 1.50977 -1.24832 0
M  V30 14943 H 1408.05 -0.281989 -0.691731 0
M  V30 14944 H 1410.71 -1.33859 -1.41661 0
M  V30 14945 H 1409.81 -1.09094 -2.92412 0
M  V30 14946 N 1410.11 1.33347 -0.840014 0
M  V30 14947 C 1411.38 1.92293 -0.358158 0
M  V30 14948 C 1411.76 1.76594 1.15662 0
M  V30 14949 O 1411.11 1.15503 1.97158 0
M  V30 14950 C 1411.32 3.39558 -0.806329 0
M  V30 14951 C 1412.67 4.16705 -0.81501 0
M  V30 14952 O 1413.69 3.48214 -0.75001 0
M  V30 14953 O 1412.55 5.38974 -0.903818 0
M  V30 14954 H 1409.65 0.820737 -0.101585 0
M  V30 14955 H 1412.19 1.42213 -0.925942 0
M  V30 14956 H 1410.97 3.44861 -1.84897 0
M  V30 14957 H 1410.59 3.97017 -0.215181 0
M  V30 14958 N 1411.59 0.596556 1.45873 0
M  V30 14959 C 1412.83 0.0874583 2.02311 0
M  V30 14960 C 1413.16 -1.27781 1.46636 0
M  V30 14961 O 1412.42 -1.85393 0.62674 0
M  V30 14962 C 1412.71 -0.0135714 3.57397 0
M  V30 14963 C 1412.38 1.28591 4.32175 0
M  V30 14964 C 1411.04 1.6419 4.52322 0
M  V30 14965 C 1413.39 2.14523 4.75005 0
M  V30 14966 C 1410.72 2.85493 5.12553 0
M  V30 14967 C 1413.07 3.35065 5.36577 0
M  V30 14968 C 1411.74 3.70929 5.54949 0
M  V30 14969 H 1411.01 0.0320033 0.740309 0
M  V30 14970 H 1413.66 0.775967 1.75074 0
M  V30 14971 H 1411.96 -0.785287 3.8385 0
M  V30 14972 H 1413.66 -0.423456 3.98758 0
M  V30 14973 H 1410.25 0.99881 4.16799 0
M  V30 14974 H 1414.43 1.88321 4.59183 0
M  V30 14975 H 1409.69 3.134 5.24967 0
M  V30 14976 H 1413.86 4.01909 5.6872 0
M  V30 14977 H 1411.49 4.65011 6.01389 0
M  V30 14978 N 1413.06 -1.53996 0.335095 0
M  V30 14979 C 1414 -2.22258 -0.559809 0
M  V30 14980 C 1415.01 -1.22636 -1.07071 0
M  V30 14981 O 1416.2 -1.4904 -0.982312 0
M  V30 14982 C 1413.3 -2.88256 -1.78218 0
M  V30 14983 C 1412.47 -4.14118 -1.40801 0
M  V30 14984 C 1411.53 -4.63603 -2.48915 0
M  V30 14985 O 1410.56 -5.28015 -2.12576 0
M  V30 14986 N 1411.76 -4.3881 -3.80034 0
M  V30 14987 H 1414.52 -2.9969 0.0247521 0
M  V30 14988 H 1412.08 -1.61119 0.158826 0
M  V30 14989 H 1414.08 -3.1828 -2.4996 0
M  V30 14990 H 1412.65 -2.14461 -2.27431 0
M  V30 14991 H 1411.87 -3.90732 -0.521729 0
M  V30 14992 H 1413.15 -4.96005 -1.13388 0
M  V30 14993 H 1412.55 -3.87278 -4.12349 0
M  V30 14994 H 1411.11 -4.73461 -4.47971 0
M  V30 14995 N 1414.54 -0.0635198 -1.57472 0
M  V30 14996 C 1415.79 0.607484 -1.93173 0
M  V30 14997 C 1416.12 1.70117 -0.942897 0
M  V30 14998 O 1415.37 1.95653 0.042832 0
M  V30 14999 C 1415.67 1.23117 -3.35525 0
M  V30 15000 C 1415.34 0.264457 -4.50124 0
M  V30 15001 C 1414 -0.00151762 -4.812 0
M  V30 15002 C 1416.35 -0.39737 -5.19683 0
M  V30 15003 C 1413.68 -0.936547 -5.79177 0
M  V30 15004 C 1416.03 -1.32067 -6.18661 0
M  V30 15005 C 1414.69 -1.59519 -6.48159 0
M  V30 15006 H 1413.96 0.222294 -0.706871 0
M  V30 15007 H 1416.61 -0.132633 -1.9104 0
M  V30 15008 H 1414.92 2.04684 -3.34084 0
M  V30 15009 H 1416.61 1.7575 -3.60434 0
M  V30 15010 H 1413.2 0.481945 -4.25882 0
M  V30 15011 H 1417.39 -0.20499 -4.95876 0
M  V30 15012 H 1412.64 -1.15658 -6.00361 0
M  V30 15013 H 1416.82 -1.83949 -6.71666 0
M  V30 15014 H 1414.44 -2.32134 -7.23891 0
M  V30 15015 N 1416.02 1.56195 0.209972 0
M  V30 15016 C 1416.97 1.94226 1.27981 0
M  V30 15017 C 1417.96 0.825742 1.47912 0
M  V30 15018 O 1419.17 1.01066 1.48949 0
M  V30 15019 H 1415.54 0.617395 0.429333 0
M  V30 15020 H 1417.51 2.83474 0.931946 0
M  V30 15021 C 1416.26 2.28527 2.62051 0
M  V30 15022 H 1415.59 3.1396 2.47526 0
M  V30 15023 H 1417.03 2.59012 3.35692 0
M  V30 15024 C 1415.48 1.11452 3.17931 0
M  V30 15025 O 1416.01 0.381713 3.99882 0
M  V30 15026 N 1414.22 0.895263 2.76466 0
M  V30 15027 H 1413.77 1.4929 2.09929 0
M  V30 15028 H 1413.73 0.113688 3.14194 0
M  V30 15029 N 1417.5 -0.477127 1.50204 0
M  V30 15030 C 1418.75 -1.22639 1.60133 0
M  V30 15031 C 1419.06 -1.93218 0.304333 0
M  V30 15032 O 1420.27 -2.70027 0.282457 0
M  V30 15033 C 1418.72 -2.22807 2.82639 0
M  V30 15034 C 1418.33 -1.58059 4.19191 0
M  V30 15035 C 1420.07 -2.98413 3.01911 0
M  V30 15036 C 1417.98 -2.56478 5.32891 0
M  V30 15037 H 1416.91 -0.461439 0.596314 0
M  V30 15038 H 1419.56 -0.497533 1.76626 0
M  V30 15039 H 1417.94 -2.98959 2.59692 0
M  V30 15040 H 1419.12 -0.877374 4.5237 0
M  V30 15041 H 1417.43 -0.947563 4.05475 0
M  V30 15042 H 1420.03 -3.72059 3.84026 0
M  V30 15043 H 1420.37 -3.57444 2.134 0
M  V30 15044 H 1420.91 -2.29375 3.25011 0
M  V30 15045 H 1417.64 -2.02194 6.23536 0
M  V30 15046 H 1417.16 -3.24969 5.04138 0
M  V30 15047 H 1418.84 -3.18429 5.63216 0
M  V30 15048 N 1418.98 -1.3968 -0.729882 0
M  V30 15049 C 1420.2 -1.40654 -1.52418 0
M  V30 15050 C 1420.63 -0.00428997 -1.881 0
M  V30 15051 O 1419.98 0.984023 -1.52272 0
M  V30 15052 C 1420.03 -2.29057 -2.78506 0
M  V30 15053 O 1419.14 -1.72397 -3.74637 0
M  V30 15054 H 1418.48 -0.478761 -0.460091 0
M  V30 15055 H 1421.01 -1.83738 -0.900087 0
M  V30 15056 H 1421.02 -2.43748 -3.27187 0
M  V30 15057 H 1419.69 -3.30961 -2.51868 0
M  V30 15058 H 1418.27 -1.66977 -3.33426 0
M  V30 15059 N 1420.45 0.960609 -1.2494 0
M  V30 15060 C 1421.87 1.23057 -1.01633 0
M  V30 15061 C 1422.07 1.99676 0.270527 0
M  V30 15062 O 1421.13 2.32503 0.984823 0
M  V30 15063 C 1422.44 2.01078 -2.2358 0
M  V30 15064 C 1423.99 2.14144 -2.28279 0
M  V30 15065 C 1424.46 2.95563 -3.49867 0
M  V30 15066 N 1425.95 3.03143 -3.50227 0
M  V30 15067 C 1426.69 3.66518 -4.40967 0
M  V30 15068 N 1426.18 4.31553 -5.41972 0
M  V30 15069 N 1427.98 3.636 -4.28663 0
M  V30 15070 H 1420.13 0.447876 -2.07624 0
M  V30 15071 H 1422.39 0.260581 -0.911483 0
M  V30 15072 H 1422.1 1.52172 -3.17075 0
M  V30 15073 H 1421.97 3.01797 -2.2627 0
M  V30 15074 H 1424.36 2.6225 -1.35311 0
M  V30 15075 H 1424.44 1.1275 -2.29611 0
M  V30 15076 H 1424.08 2.48149 -4.43153 0
M  V30 15077 H 1424.01 3.9717 -3.45779 0
M  V30 15078 H 1426.5 2.56888 -2.77159 0
M  V30 15079 H 1426.82 4.7775 -6.07433 0
M  V30 15080 H 1425.16 4.302 -5.45851 0
M  V30 15081 H 1428.35 3.11973 -3.48985 0
M  V30 15082 H 1428.53 4.12706 -4.99578 0
M  V30 15083 N 1421.93 1.0643 1.16234 0
M  V30 15084 C 1423.16 0.80148 1.9042 0
M  V30 15085 C 1423.57 -0.648064 1.77755 0
M  V30 15086 O 1422.91 -1.4555 1.12076 0
M  V30 15087 C 1422.98 1.11855 3.41656 0
M  V30 15088 C 1422.64 2.5668 3.78107 0
M  V30 15089 C 1423.64 3.54914 3.79911 0
M  V30 15090 C 1421.32 2.92015 4.08696 0
M  V30 15091 C 1423.32 4.86522 4.11795 0
M  V30 15092 C 1421 4.23823 4.40247 0
M  V30 15093 C 1422 5.20887 4.41776 0
M  V30 15094 O 1421.69 6.50329 4.72575 0
M  V30 15095 H 1421.42 0.290009 0.610632 0
M  V30 15096 H 1423.97 1.42157 1.48258 0
M  V30 15097 H 1422.2 0.441395 3.84173 0
M  V30 15098 H 1423.89 0.839759 3.97118 0
M  V30 15099 H 1424.66 3.28957 3.56388 0
M  V30 15100 H 1420.54 2.17119 4.0667 0
M  V30 15101 H 1424.08 5.62278 4.12903 0
M  V30 15102 H 1419.98 4.49538 4.63235 0
M  V30 15103 H 1420.75 6.55339 4.90381 0
M  V30 15104 N 1423.41 -1.329 0.847073 0
M  V30 15105 C 1424.64 -2.02244 0.459588 0
M  V30 15106 C 1425.06 -1.63279 -0.933897 0
M  V30 15107 O 1424.42 -0.829551 -1.61208 0
M  V30 15108 C 1424.47 -3.55616 0.59745 0
M  V30 15109 O 1423.57 -4.1071 -0.372919 0
M  V30 15110 H 1422.91 -0.637504 0.1857 0
M  V30 15111 H 1425.44 -1.69617 1.14417 0
M  V30 15112 H 1425.45 -4.05141 0.482145 0
M  V30 15113 H 1424.13 -3.8332 1.61365 0
M  V30 15114 H 1422.7 -3.72283 -0.214487 0
M  V30 15115 N 1424.89 -0.604284 -1.45555 0
M  V30 15116 C 1425.82 0.154579 -2.28678 0
M  V30 15117 C 1426.83 0.83491 -1.39761 0
M  V30 15118 O 1428.02 0.700852 -1.64166 0
M  V30 15119 C 1425.12 1.2397 -3.15412 0
M  V30 15120 C 1424.3 0.647128 -4.32586 0
M  V30 15121 C 1423.35 1.62272 -5.00554 0
M  V30 15122 O 1422.38 1.15031 -5.57455 0
M  V30 15123 N 1423.58 2.9571 -4.99536 0
M  V30 15124 H 1426.35 -0.558668 -2.94447 0
M  V30 15125 H 1423.91 -0.443538 -1.55706 0
M  V30 15126 H 1425.9 1.89209 -3.57746 0
M  V30 15127 H 1424.47 1.85552 -2.51574 0
M  V30 15128 H 1423.69 -0.183261 -3.93774 0
M  V30 15129 H 1424.98 0.231394 -5.08274 0
M  V30 15130 H 1424.38 3.36695 -4.54591 0
M  V30 15131 H 1422.93 3.56381 -5.45744 0
M  V30 15132 N 1426.37 1.53816 -0.343257 0
M  V30 15133 C 1427.3 2.22552 0.548015 0
M  V30 15134 C 1428.31 1.23202 1.06419 0
M  V30 15135 O 1429.5 1.49559 0.974394 0
M  V30 15136 C 1426.6 2.89197 1.76687 0
M  V30 15137 C 1425.77 4.14859 1.38603 0
M  V30 15138 C 1424.83 4.64917 2.46453 0
M  V30 15139 O 1423.86 5.29135 2.09773 0
M  V30 15140 N 1425.06 4.4082 3.77701 0
M  V30 15141 H 1427.83 2.99672 -0.040645 0
M  V30 15142 H 1425.39 1.61033 -0.167368 0
M  V30 15143 H 1427.38 3.19601 2.48268 0
M  V30 15144 H 1425.95 2.15664 2.26291 0
M  V30 15145 H 1425.17 3.91003 0.501001 0
M  V30 15146 H 1426.46 4.96599 1.10756 0
M  V30 15147 H 1425.85 3.8946 4.1029 0
M  V30 15148 H 1424.41 4.7583 4.45453 0
M  V30 15149 N 1427.84 0.0718701 1.57436 0
M  V30 15150 C 1428.78 -0.924911 2.09709 0
M  V30 15151 C 1429.79 -1.26136 1.02925 0
M  V30 15152 O 1430.98 -1.21853 1.30438 0
M  V30 15153 C 1428.08 -2.24072 2.54254 0
M  V30 15154 C 1427.25 -2.0831 3.84611 0
M  V30 15155 C 1426.31 -3.23196 4.15248 0
M  V30 15156 O 1425.34 -2.98184 4.84846 0
M  V30 15157 N 1426.54 -4.48293 3.688 0
M  V30 15158 H 1429.3 -0.478605 2.95854 0
M  V30 15159 H 1426.86 -0.113853 1.61499 0
M  V30 15160 H 1428.86 -2.99835 2.71811 0
M  V30 15161 H 1427.43 -2.60201 1.73246 0
M  V30 15162 H 1426.65 -1.17014 3.76432 0
M  V30 15163 H 1427.93 -1.9503 4.69937 0
M  V30 15164 H 1427.33 -4.71501 3.12575 0
M  V30 15165 H 1425.89 -5.21082 3.91556 0
M  V30 15166 N 1429.32 -1.56304 -0.201686 0
M  V30 15167 C 1430.25 -1.97046 -1.25281 0
M  V30 15168 C 1431.23 -0.841458 -1.47829 0
M  V30 15169 O 1432.42 -1.10529 -1.59678 0
M  V30 15170 C 1429.55 -2.30429 -2.59845 0
M  V30 15171 C 1428.5 -3.46006 -2.5192 0
M  V30 15172 C 1427.83 -3.65047 -3.90697 0
M  V30 15173 C 1429.13 -4.80391 -2.04992 0
M  V30 15174 H 1430.82 -2.85099 -0.914272 0
M  V30 15175 H 1428.37 -1.37166 -0.438359 0
M  V30 15176 H 1430.32 -2.57525 -3.33555 0
M  V30 15177 H 1429.05 -1.39251 -2.95426 0
M  V30 15178 H 1427.7 -3.18991 -1.80667 0
M  V30 15179 H 1427.35 -2.71211 -4.2362 0
M  V30 15180 H 1427.05 -4.42796 -3.86271 0
M  V30 15181 H 1428.58 -3.94512 -4.66039 0
M  V30 15182 H 1429.99 -5.06561 -2.68456 0
M  V30 15183 H 1428.39 -5.61563 -2.11582 0
M  V30 15184 H 1429.46 -4.74416 -1.00288 0
M  V30 15185 N 1430.8 0.469154 -1.50455 0
M  V30 15186 C 1431.73 1.58574 -1.64102 0
M  V30 15187 C 1432.71 1.5507 -0.489095 0
M  V30 15188 O 1433.9 1.74664 -0.708851 0
M  V30 15189 C 1431.02 2.97151 -1.62538 0
M  V30 15190 C 1430.07 3.18803 -2.83315 0
M  V30 15191 S 1430.9 2.98496 -4.4459 0
M  V30 15192 C 1432.06 4.39412 -4.45722 0
M  V30 15193 H 1432.29 1.46759 -2.58552 0
M  V30 15194 H 1429.82 0.656629 -1.39742 0
M  V30 15195 H 1431.78 3.77044 -1.62321 0
M  V30 15196 H 1430.44 3.06355 -0.693205 0
M  V30 15197 H 1429.64 4.20044 -2.7853 0
M  V30 15198 H 1429.24 2.46685 -2.81109 0
M  V30 15199 H 1431.53 5.32078 -4.19404 0
M  V30 15200 H 1432.47 4.49239 -5.47348 0
M  V30 15201 H 1432.88 4.2158 -3.75407 0
M  V30 15202 N 1432.28 1.40065 0.722464 0
M  V30 15203 C 1433.19 1.42086 1.86678 0
M  V30 15204 C 1434.2 0.314223 1.71139 0
M  V30 15205 O 1435.38 0.55771 1.93524 0
M  V30 15206 C 1432.45 1.27498 3.22405 0
M  V30 15207 C 1431.51 2.48243 3.50248 0
M  V30 15208 C 1430.74 2.34342 4.79499 0
M  V30 15209 O 1430.96 1.35355 5.54108 0
M  V30 15210 O 1429.9 3.23579 5.07523 0
M  V30 15211 H 1433.72 2.38571 1.87929 0
M  V30 15212 H 1431.31 1.21314 0.871968 0
M  V30 15213 H 1433.19 1.21543 4.03491 0
M  V30 15214 H 1431.86 0.341141 3.21897 0
M  V30 15215 H 1430.77 2.59775 2.69199 0
M  V30 15216 H 1432.1 3.40364 3.55547 0
M  V30 15217 N 1433.76 -0.95397 1.25448 0
M  V30 15218 C 1434.99 -1.73331 1.12977 0
M  V30 15219 C 1435.4 -1.86131 -0.316364 0
M  V30 15220 O 1434.76 -1.35951 -1.21753 0
M  V30 15221 C 1434.81 -3.14675 1.77938 0
M  V30 15222 O 1434.53 -3.025 3.16899 0
M  V30 15223 C 1436.03 -4.08884 1.71256 0
M  V30 15224 H 1433.25 -0.543118 0.394036 0
M  V30 15225 H 1435.79 -1.19678 1.65823 0
M  V30 15226 H 1433.95 -3.6527 1.29062 0
M  V30 15227 H 1434.36 -3.91668 3.4885 0
M  V30 15228 H 1435.84 -5.05668 2.21368 0
M  V30 15229 H 1436.31 -4.33959 0.676476 0
M  V30 15230 H 1436.92 -3.64205 2.19624 0
M  V30 15231 N 1435.24 -1.07045 -1.15668 0
M  V30 15232 C 1436.46 -0.812802 -1.9081 0
M  V30 15233 C 1436.89 0.627827 -1.77313 0
M  V30 15234 O 1436.24 1.43836 -1.10368 0
M  V30 15235 C 1436.29 -1.2219 -3.39267 0
M  V30 15236 O 1435.4 -0.365305 -4.10779 0
M  V30 15237 H 1434.74 -0.296385 -0.594182 0
M  V30 15238 H 1437.27 -1.42825 -1.465 0
M  V30 15239 H 1437.28 -1.19674 -3.90054 0
M  V30 15240 H 1435.95 -2.27121 -3.48409 0
M  V30 15241 H 1434.53 -0.452687 -3.70142 0
M  V30 15242 N 1436.71 1.32449 -0.85411 0
M  V30 15243 C 1437.66 2.26394 -0.270121 0
M  V30 15244 C 1438.65 1.49939 0.58371 0
M  V30 15245 O 1439.84 1.71617 0.433182 0
M  V30 15246 C 1436.97 3.3901 0.540998 0
M  V30 15247 C 1436.05 4.22851 -0.32519 0
M  V30 15248 N 1436.45 4.85715 -1.41118 0
M  V30 15249 C 1434.74 4.45852 -0.114845 0
M  V30 15250 C 1435.44 5.48254 -1.94402 0
M  V30 15251 N 1434.42 5.29192 -1.24327 0
M  V30 15252 H 1438.22 2.72523 -1.10037 0
M  V30 15253 H 1435.74 1.46531 -0.700167 0
M  V30 15254 H 1437.73 4.0532 0.975778 0
M  V30 15255 H 1436.39 2.94427 1.36905 0
M  V30 15256 H 1437.4 4.85831 -1.79411 0
M  V30 15257 H 1434.08 4.11949 0.678533 0
M  V30 15258 H 1435.47 6.08259 -2.8543 0
M  V30 15259 N 1438.19 0.611994 1.45232 0
M  V30 15260 C 1439.61 0.276005 1.57195 0
M  V30 15261 C 1439.81 -1.22136 1.60266 0
M  V30 15262 O 1438.86 -2.00459 1.53533 0
M  V30 15263 C 1440.18 0.951064 2.85263 0
M  V30 15264 C 1441.72 0.927398 2.98945 0
M  V30 15265 C 1442.2 1.58255 4.2979 0
M  V30 15266 N 1443.69 1.54825 4.36559 0
M  V30 15267 C 1444.43 2.02428 5.3648 0
M  V30 15268 N 1443.92 2.58137 6.42913 0
M  V30 15269 N 1445.71 1.9317 5.27865 0
M  V30 15270 H 1437.87 1.58418 1.41483 0
M  V30 15271 H 1440.13 0.663879 0.676734 0
M  V30 15272 H 1439.83 2.00557 2.88912 0
M  V30 15273 H 1439.71 0.477044 3.74171 0
M  V30 15274 H 1442.1 -0.118571 2.94862 0
M  V30 15275 H 1442.18 1.43973 2.11437 0
M  V30 15276 H 1441.82 2.62787 4.34632 0
M  V30 15277 H 1441.75 1.04521 5.16123 0
M  V30 15278 H 1444.24 1.14133 3.60253 0
M  V30 15279 H 1444.55 2.92243 7.15412 0
M  V30 15280 H 1442.9 2.62179 6.43652 0
M  V30 15281 H 1446.09 1.49384 4.43624 0
M  V30 15282 H 1446.26 2.30582 6.05587 0
M  V30 15283 N 1439.67 -1.53632 0.351409 0
M  V30 15284 C 1440.62 -2.22041 -0.517867 0
M  V30 15285 C 1441.6 -1.21057 -1.0599 0
M  V30 15286 O 1442.8 -1.46569 -0.992298 0
M  V30 15287 C 1439.92 -3.00259 -1.66432 0
M  V30 15288 C 1439.01 -4.08607 -1.13584 0
M  V30 15289 N 1439.4 -5.04727 -0.329217 0
M  V30 15290 C 1437.7 -4.23059 -1.412 0
M  V30 15291 C 1438.4 -5.81685 -0.0415005 0
M  V30 15292 N 1437.38 -5.39875 -0.635288 0
M  V30 15293 H 1441.18 -2.93711 0.105386 0
M  V30 15294 H 1438.69 -1.61623 0.15868 0
M  V30 15295 H 1440.69 -3.47774 -2.29911 0
M  V30 15296 H 1439.35 -2.30117 -2.29077 0
M  V30 15297 H 1440.36 -5.17891 0.0303777 0
M  V30 15298 H 1437.04 -3.64139 -2.04227 0
M  V30 15299 H 1438.43 -6.69128 0.609686 0
M  V30 15300 N 1441.15 -0.0802183 -1.57396 0
M  V30 15301 C 1442.08 0.881426 -2.16225 0
M  V30 15302 C 1443.06 1.30459 -1.09154 0
M  V30 15303 O 1444.24 1.37413 -1.37227 0
M  V30 15304 C 1441.37 2.14599 -2.73065 0
M  V30 15305 C 1440.33 1.86195 -3.85377 0
M  V30 15306 C 1439.65 3.19354 -4.28856 0
M  V30 15307 C 1440.95 1.16059 -5.09242 0
M  V30 15308 H 1442.65 0.391325 -2.96832 0
M  V30 15309 H 1440.19 0.186785 -1.42783 0
M  V30 15310 H 1442.15 2.82297 -3.12868 0
M  V30 15311 H 1440.87 2.65866 -1.89691 0
M  V30 15312 H 1439.53 1.209 -3.46091 0
M  V30 15313 H 1439.18 3.68479 -3.42392 0
M  V30 15314 H 1438.88 3.01137 -5.04569 0
M  V30 15315 H 1440.4 3.88235 -4.71281 0
M  V30 15316 H 1441.82 1.7384 -5.46308 0
M  V30 15317 H 1440.21 1.08072 -5.90288 0
M  V30 15318 H 1441.28 0.14098 -4.84695 0
M  V30 15319 N 1442.63 1.56409 0.193394 0
M  V30 15320 C 1443.56 1.97707 1.24234 0
M  V30 15321 C 1444.54 0.849286 1.47381 0
M  V30 15322 O 1445.72 1.11374 1.59089 0
M  V30 15323 C 1442.85 2.31804 2.5862 0
M  V30 15324 C 1441.81 3.47337 2.50082 0
M  V30 15325 C 1441.13 3.67114 3.88756 0
M  V30 15326 C 1442.43 4.81472 2.02441 0
M  V30 15327 H 1444.13 2.8558 0.89914 0
M  V30 15328 H 1441.67 1.37396 0.431078 0
M  V30 15329 H 1443.62 2.5929 3.32185 0
M  V30 15330 H 1442.35 1.40816 2.94684 0
M  V30 15331 H 1441.01 3.19944 1.78973 0
M  V30 15332 H 1440.66 2.73454 4.22175 0
M  V30 15333 H 1440.36 4.44838 3.83918 0
M  V30 15334 H 1441.88 3.96978 4.6394 0
M  V30 15335 H 1443.29 5.07978 2.65766 0
M  V30 15336 H 1441.69 5.62677 2.08601 0
M  V30 15337 H 1442.76 4.74941 0.977704 0
M  V30 15338 N 1444.1 -0.461169 1.50702 0
M  V30 15339 C 1445.05 -1.55575 1.66675 0
M  V30 15340 C 1446.04 -1.52227 0.521128 0
M  V30 15341 O 1447.23 -1.59083 0.775989 0
M  V30 15342 C 1444.36 -2.93951 1.77336 0
M  V30 15343 C 1443.44 -3.02145 2.97606 0
M  V30 15344 N 1443.84 -2.80131 4.21142 0
M  V30 15345 C 1442.13 -3.33289 2.96369 0
M  V30 15346 C 1442.83 -2.93549 5.02199 0
M  V30 15347 N 1441.81 -3.24184 4.36355 0
M  V30 15348 H 1445.61 -1.3727 2.59874 0
M  V30 15349 H 1443.13 -0.668078 1.48022 0
M  V30 15350 H 1445.12 -3.72666 1.86884 0
M  V30 15351 H 1443.78 -3.13295 0.853023 0
M  V30 15352 H 1444.79 -2.55519 4.50478 0
M  V30 15353 H 1441.47 -3.58558 2.13875 0
M  V30 15354 H 1442.86 -2.80685 6.10463 0
M  V30 15355 N 1445.58 -1.40446 -0.715026 0
M  V30 15356 C 1446.54 -1.40506 -1.81082 0
M  V30 15357 C 1447.54 -0.298768 -1.58 0
M  V30 15358 O 1448.73 -0.5577 -1.65031 0
M  V30 15359 C 1445.87 -1.19735 -3.19181 0
M  V30 15360 H 1447.06 -2.38034 -1.82427 0
M  V30 15361 H 1444.61 -1.26303 -0.920718 0
M  V30 15362 H 1445.35 -0.229695 -3.23486 0
M  V30 15363 H 1445.13 -1.99871 -3.37334 0
M  V30 15364 H 1446.62 -1.22566 -3.99208 0
M  V30 15365 N 1447.06 0.947303 -1.25952 0
M  V30 15366 C 1447.97 2.07878 -1.08738 0
M  V30 15367 C 1448.99 1.73985 -0.0225212 0
M  V30 15368 O 1450.16 2.00139 -0.224984 0
M  V30 15369 C 1447.23 3.39231 -0.715756 0
M  V30 15370 C 1446.29 3.86945 -1.85935 0
M  V30 15371 C 1445.52 5.1203 -1.50537 0
M  V30 15372 O 1445.74 5.68965 -0.404323 0
M  V30 15373 O 1444.68 5.54634 -2.33805 0
M  V30 15374 H 1448.5 2.25305 -2.03645 0
M  V30 15375 H 1446.09 1.06321 -1.04958 0
M  V30 15376 H 1447.97 4.18167 -0.520962 0
M  V30 15377 H 1446.65 3.23057 0.203978 0
M  V30 15378 H 1445.55 3.08981 -2.10906 0
M  V30 15379 H 1446.89 4.0763 -2.75859 0
M  V30 15380 N 1448.54 1.07657 1.15099 0
M  V30 15381 C 1449.45 0.711198 2.2356 0
M  V30 15382 C 1450.46 -0.278932 1.7175 0
M  V30 15383 O 1451.64 -0.124788 2.01013 0
M  V30 15384 C 1448.71 0.117855 3.465 0
M  V30 15385 C 1447.77 1.16162 4.13286 0
M  V30 15386 C 1447 0.596494 5.30356 0
M  V30 15387 O 1447.22 -0.586474 5.67377 0
M  V30 15388 O 1446.16 1.34288 5.86729 0
M  V30 15389 H 1449.98 1.61578 2.5715 0
M  V30 15390 H 1447.57 0.84973 1.22882 0
M  V30 15391 H 1449.45 -0.210613 4.20873 0
M  V30 15392 H 1448.12 -0.760008 3.14652 0
M  V30 15393 H 1447.03 1.54249 3.4082 0
M  V30 15394 H 1448.36 2.01149 4.49221 0
M  V30 15395 N 1450.02 -1.31994 0.861122 0
M  V30 15396 C 1451.26 -1.96636 0.466754 0
M  V30 15397 C 1451.59 -1.6845 -0.982328 0
M  V30 15398 O 1450.86 -0.995157 -1.68741 0
M  V30 15399 H 1449.44 -0.727489 0.169613 0
M  V30 15400 H 1452.1 -1.60962 1.09897 0
M  V30 15401 H 1451.19 -3.05937 0.61716 0
M  V30 15402 N 1451.49 -0.619688 -1.44906 0
M  V30 15403 C 1452.72 -0.126363 -2.06514 0
M  V30 15404 C 1453.14 1.19432 -1.46224 0
M  V30 15405 O 1452.49 1.7301 -0.580851 0
M  V30 15406 C 1452.55 0.00682319 -3.61499 0
M  V30 15407 O 1452.27 -1.26162 -4.19541 0
M  V30 15408 C 1453.77 0.530189 -4.40118 0
M  V30 15409 H 1450.99 -0.0744032 -0.666862 0
M  V30 15410 H 1453.53 -0.850851 -1.85959 0
M  V30 15411 H 1451.69 0.681694 -3.81355 0
M  V30 15412 H 1452.1 -1.09908 -5.12855 0
M  V30 15413 H 1453.57 0.572428 -5.49024 0
M  V30 15414 H 1454.05 1.55494 -4.10753 0
M  V30 15415 H 1454.66 -0.111044 -4.25155 0
M  V30 15416 N 1452.97 1.53444 -0.359552 0
M  V30 15417 C 1454.22 2.02152 0.224969 0
M  V30 15418 C 1454.57 1.24236 1.46912 0
M  V30 15419 O 1453.87 0.325976 1.88807 0
M  V30 15420 C 1454.06 3.5273 0.575863 0
M  V30 15421 C 1453.89 4.45226 -0.63273 0
M  V30 15422 C 1452.66 4.92204 -1.14296 0
M  V30 15423 C 1454.86 4.92058 -1.49611 0
M  V30 15424 N 1452.84 5.68692 -2.31221 0
M  V30 15425 C 1454.21 5.66829 -2.51208 0
M  V30 15426 C 1456.27 4.74141 -1.51969 0
M  V30 15427 C 1454.97 6.25587 -3.55012 0
M  V30 15428 C 1456.99 5.33761 -2.54663 0
M  V30 15429 C 1456.36 6.08412 -3.54984 0
M  V30 15430 H 1452.46 0.780693 0.0451987 0
M  V30 15431 H 1455.04 1.88097 -0.502735 0
M  V30 15432 H 1453.21 3.66958 1.27265 0
M  V30 15433 H 1454.94 3.88166 1.14495 0
M  V30 15434 H 1451.7 4.6827 -0.70853 0
M  V30 15435 H 1452.12 6.116 -2.90301 0
M  V30 15436 H 1456.76 4.15956 -0.757639 0
M  V30 15437 H 1454.48 6.82871 -4.32102 0
M  V30 15438 H 1458.07 5.21795 -2.57334 0
M  V30 15439 H 1456.95 6.53724 -4.33145 0
M  V30 15440 N 1454.45 0.0885642 1.57351 0
M  V30 15441 C 1455.38 -0.869946 2.16689 0
M  V30 15442 C 1456.36 -1.29878 1.09844 0
M  V30 15443 O 1457.55 -1.36684 1.37954 0
M  V30 15444 C 1454.68 -2.13148 2.74199 0
M  V30 15445 C 1453.63 -1.84149 3.86359 0
M  V30 15446 C 1452.96 -3.17075 4.30543 0
M  V30 15447 C 1454.26 -1.13357 5.09851 0
M  V30 15448 H 1455.95 -0.375578 2.97035 0
M  V30 15449 H 1453.5 -0.17921 1.42881 0
M  V30 15450 H 1455.45 -2.80634 3.14361 0
M  V30 15451 H 1454.17 -2.64856 1.91098 0
M  V30 15452 H 1452.83 -1.19063 3.46727 0
M  V30 15453 H 1452.48 -3.66658 3.44342 0
M  V30 15454 H 1452.18 -2.98457 5.06159 0
M  V30 15455 H 1453.7 -3.85731 4.73333 0
M  V30 15456 H 1455.12 -1.70941 5.47222 0
M  V30 15457 H 1453.52 -1.0494 5.90853 0
M  V30 15458 H 1454.59 -0.115273 4.84763 0
M  V30 15459 N 1455.93 -1.56509 -0.185096 0
M  V30 15460 C 1456.88 -1.96237 -1.24875 0
M  V30 15461 C 1457.87 -0.849169 -1.46579 0
M  V30 15462 O 1459.08 -1.03422 -1.47322 0
M  V30 15463 H 1455.45 -0.624147 -0.419457 0
M  V30 15464 H 1457.42 -2.8492 -0.88673 0
M  V30 15465 C 1456.17 -2.32667 -2.58382 0
M  V30 15466 H 1455.49 -3.17858 -2.425 0
M  V30 15467 H 1456.93 -2.6432 -3.31528 0
M  V30 15468 C 1455.39 -1.16496 -3.16118 0
M  V30 15469 O 1455.92 -0.445283 -3.99224 0
M  V30 15470 N 1454.13 -0.939133 -2.75007 0
M  V30 15471 H 1453.68 -1.52611 -2.07527 0
M  V30 15472 H 1453.63 -0.163659 -3.13974 0
M  V30 15473 N 1457.41 0.45317 -1.50944 0
M  V30 15474 C 1458.66 1.20076 -1.62064 0
M  V30 15475 C 1458.97 1.92709 -0.335034 0
M  V30 15476 O 1460.17 2.69543 -0.32538 0
M  V30 15477 C 1458.63 2.18283 -2.86148 0
M  V30 15478 C 1458.24 1.5137 -4.21653 0
M  V30 15479 C 1459.98 2.93572 -3.0662 0
M  V30 15480 C 1457.89 2.47968 -5.36904 0
M  V30 15481 H 1456.82 0.451894 -0.603579 0
M  V30 15482 H 1459.47 0.46937 -1.77396 0
M  V30 15483 H 1457.85 2.94789 -2.64415 0
M  V30 15484 H 1459.03 0.805295 -4.53709 0
M  V30 15485 H 1457.34 0.882935 -4.06931 0
M  V30 15486 H 1459.94 3.65903 -3.89897 0
M  V30 15487 H 1460.28 3.54003 -2.1906 0
M  V30 15488 H 1460.81 2.24175 -3.28619 0
M  V30 15489 H 1457.55 1.92249 -6.26674 0
M  V30 15490 H 1457.07 3.16907 -5.09244 0
M  V30 15491 H 1458.75 3.09428 -5.6821 0
M  V30 15492 N 1458.88 1.40823 0.707568 0
M  V30 15493 C 1460.16 1.3003 1.46122 0
M  V30 15494 C 1460.54 -0.0776873 2.10957 0
M  V30 15495 O 1459.89 -1.09109 2.00767 0
M  V30 15496 C 1460.1 2.44498 2.49042 0
M  V30 15497 C 1461.45 2.85106 3.14642 0
M  V30 15498 O 1462.47 2.44149 2.59364 0
M  V30 15499 O 1461.33 3.55892 4.14733 0
M  V30 15500 H 1458.42 0.511082 0.650172 0
M  V30 15501 H 1460.97 1.52761 0.739062 0
M  V30 15502 H 1459.74 3.36502 1.99705 0
M  V30 15503 H 1459.37 2.23579 3.28783 0
M  V30 15504 N 1460.36 -0.94061 1.26453 0
M  V30 15505 C 1461.61 -1.68354 1.11809 0
M  V30 15506 C 1461.93 -1.9203 -0.339037 0
M  V30 15507 O 1461.2 -1.51739 -1.23903 0
M  V30 15508 H 1459.78 -0.623916 0.410777 0
M  V30 15509 H 1462.44 -1.13014 1.58789 0
M  V30 15510 H 1461.54 -2.65706 1.63728 0
M  V30 15511 N 1461.84 -1.08266 -1.14527 0
M  V30 15512 C 1463.09 -0.811459 -1.85531 0
M  V30 15513 C 1463.42 0.662726 -1.82861 0
M  V30 15514 O 1462.67 1.50296 -1.25338 0
M  V30 15515 C 1462.97 -1.27675 -3.33817 0
M  V30 15516 C 1462.64 -2.7585 -3.56676 0
M  V30 15517 C 1461.3 -3.16319 -3.62623 0
M  V30 15518 C 1463.65 -3.71446 -3.65619 0
M  V30 15519 C 1460.98 -4.51183 -3.75035 0
M  V30 15520 C 1463.33 -5.06083 -3.79556 0
M  V30 15521 C 1461.99 -5.4616 -3.83752 0
M  V30 15522 H 1461.26 -0.296934 -0.678904 0
M  V30 15523 H 1463.91 -1.35533 -1.35288 0
M  V30 15524 H 1462.22 -0.65244 -3.86329 0
M  V30 15525 H 1463.91 -1.04369 -3.8718 0
M  V30 15526 H 1460.5 -2.43526 -3.52694 0
M  V30 15527 H 1464.69 -3.41301 -3.60316 0
M  V30 15528 H 1459.94 -4.81689 -3.76545 0
M  V30 15529 H 1464.12 -5.80022 -3.85418 0
M  V30 15530 H 1461.74 -6.50661 -3.93121 0
M  V30 15531 N 1463.32 1.31536 -0.86811 0
M  V30 15532 C 1464.27 2.26095 -0.294118 0
M  V30 15533 C 1465.25 1.50549 0.567774 0
M  V30 15534 O 1466.45 1.72067 0.414955 0
M  V30 15535 C 1463.57 3.39565 0.505011 0
M  V30 15536 C 1462.66 4.22483 -0.37002 0
M  V30 15537 N 1463.05 4.84191 -1.46262 0
M  V30 15538 C 1461.35 4.45705 -0.162128 0
M  V30 15539 C 1462.05 5.46161 -2.00206 0
M  V30 15540 N 1461.03 5.27843 -1.29933 0
M  V30 15541 H 1464.83 2.71341 -1.12921 0
M  V30 15542 H 1462.34 1.4578 -0.715669 0
M  V30 15543 H 1464.34 4.06332 0.932733 0
M  V30 15544 H 1463 2.95862 1.33774 0
M  V30 15545 H 1464.01 4.83901 -1.84554 0
M  V30 15546 H 1460.69 4.12646 0.634802 0
M  V30 15547 H 1462.08 6.05197 -2.91866 0
M  V30 15548 N 1464.8 0.627364 1.44575 0
M  V30 15549 C 1465.73 -0.129056 2.27835 0
M  V30 15550 C 1466.71 -0.854852 1.38315 0
M  V30 15551 O 1467.89 -0.859709 1.67754 0
M  V30 15552 C 1465.02 -1.18866 3.17157 0
M  V30 15553 C 1464.07 -0.563816 4.22757 0
M  V30 15554 S 1464.9 0.643269 5.31622 0
M  V30 15555 C 1466.05 -0.416443 6.24513 0
M  V30 15556 H 1466.29 0.577281 2.91641 0
M  V30 15557 H 1463.82 0.415427 1.48706 0
M  V30 15558 H 1465.78 -1.79508 3.69171 0
M  V30 15559 H 1464.44 -1.86717 2.52578 0
M  V30 15560 H 1463.63 -1.36173 4.85256 0
M  V30 15561 H 1463.23 -0.0321045 3.73986 0
M  V30 15562 H 1465.53 -1.29006 6.65104 0
M  V30 15563 H 1466.47 0.172871 7.07889 0
M  V30 15564 H 1466.88 -0.740651 5.5962 0
M  V30 15565 N 1466.28 -1.53251 0.367684 0
M  V30 15566 C 1467.52 -2.00889 -0.220914 0
M  V30 15567 C 1467.84 -1.25662 -1.4911 0
M  V30 15568 O 1467.11 -0.370491 -1.92365 0
M  V30 15569 H 1465.69 -0.742191 -0.0846233 0
M  V30 15570 H 1468.36 -1.88525 0.494402 0
M  V30 15571 H 1467.45 -3.08891 -0.446414 0
M  V30 15572 N 1467.75 -0.0969077 -1.57302 0
M  V30 15573 C 1469 0.566072 -1.93594 0
M  V30 15574 C 1469.32 1.69226 -0.980922 0
M  V30 15575 O 1470.52 2.41651 -1.23763 0
M  V30 15576 C 1468.98 1.05832 -3.43988 0
M  V30 15577 C 1468.59 -0.038207 -4.47984 0
M  V30 15578 C 1470.33 1.69393 -3.89238 0
M  V30 15579 C 1468.24 0.4695 -5.89533 0
M  V30 15580 H 1467.17 0.215226 -0.72263 0
M  V30 15581 H 1469.82 -0.173202 -1.82681 0
M  V30 15582 H 1468.2 1.85134 -3.50059 0
M  V30 15583 H 1469.37 -0.813761 -4.53558 0
M  V30 15584 H 1467.69 -0.579113 -4.12353 0
M  V30 15585 H 1470.29 2.08454 -4.92393 0
M  V30 15586 H 1470.63 2.56381 -3.27986 0
M  V30 15587 H 1471.16 0.966709 -3.85875 0
M  V30 15588 H 1467.9 -0.363802 -6.5449 0
M  V30 15589 H 1467.42 1.21202 -5.87427 0
M  V30 15590 H 1469.1 0.937885 -6.40166 0
M  V30 15591 N 1469.23 1.56605 0.176793 0
M  V30 15592 C 1470.48 1.81324 0.892535 0
M  V30 15593 C 1470.8 0.67301 1.83018 0
M  V30 15594 O 1470.07 -0.307498 1.93472 0
M  V30 15595 H 1468.65 0.668881 0.332576 0
M  V30 15596 H 1471.31 1.94086 0.17792 0
M  V30 15597 H 1470.41 2.75168 1.47272 0
M  V30 15598 N 1470.71 -0.445159 1.51182 0
M  V30 15599 C 1471.96 -1.19288 1.6314 0
M  V30 15600 C 1472.28 -1.91904 0.346109 0
M  V30 15601 O 1471.55 -1.8523 -0.637695 0
M  V30 15602 H 1470.13 -0.443319 0.601229 0
M  V30 15603 H 1472.79 -0.511136 1.88078 0
M  V30 15604 H 1471.89 -1.92672 2.45528 0
M  V30 15605 N 1472.19 -1.41197 -0.700089 0
M  V30 15606 C 1473.46 -1.30803 -1.4543 0
M  V30 15607 C 1473.84 0.0664987 -2.10995 0
M  V30 15608 O 1473.19 1.08043 -2.01343 0
M  V30 15609 C 1473.4 -2.45815 -2.47742 0
M  V30 15610 C 1474.75 -2.86771 -3.13126 0
M  V30 15611 O 1475.77 -2.45521 -2.58065 0
M  V30 15612 O 1474.63 -3.58086 -4.1284 0
M  V30 15613 H 1471.73 -0.514523 -0.647453 0
M  V30 15614 H 1474.27 -1.53151 -0.73095 0
M  V30 15615 H 1473.05 -3.37557 -1.97917 0
M  V30 15616 H 1472.67 -2.25319 -3.27593 0
M  V30 15617 N 1473.67 0.933891 -1.2695 0
M  V30 15618 C 1474.94 1.65874 -1.0366 0
M  V30 15619 C 1475.32 2.0666 0.43066 0
M  V30 15620 O 1474.67 1.79606 1.41259 0
M  V30 15621 C 1474.88 2.86546 -1.99229 0
M  V30 15622 C 1476.23 3.58031 -2.28251 0
M  V30 15623 O 1477.25 2.96663 -1.97154 0
M  V30 15624 O 1476.11 4.68583 -2.81233 0
M  V30 15625 H 1473.21 0.72673 -0.394706 0
M  V30 15626 H 1475.75 0.984975 -1.38189 0
M  V30 15627 H 1474.52 2.53351 -2.9821 0
M  V30 15628 H 1474.15 3.61645 -1.65224 0
M  V30 15629 N 1475.14 1.08871 1.13951 0
M  V30 15630 C 1476.37 0.843055 1.89492 0
M  V30 15631 C 1476.79 -0.599539 1.78289 0
M  V30 15632 O 1476.15 -1.42062 1.12642 0
M  V30 15633 C 1476.2 1.27572 3.3728 0
M  V30 15634 O 1475.3 0.430611 4.10146 0
M  V30 15635 H 1474.64 0.3058 0.589391 0
M  V30 15636 H 1477.17 1.45137 1.44209 0
M  V30 15637 H 1477.18 1.25864 3.88101 0
M  V30 15638 H 1475.86 2.32635 3.44751 0
M  V30 15639 H 1474.44 0.511516 3.69375 0
M  V30 15640 N 1476.62 -1.31073 0.875073 0
M  V30 15641 C 1477.87 -1.97194 0.498612 0
M  V30 15642 C 1478.22 -1.67884 -0.939819 0
M  V30 15643 O 1477.52 -0.967708 -1.65366 0
M  V30 15644 C 1477.71 -3.50511 0.698351 0
M  V30 15645 C 1477.54 -3.94722 2.15465 0
M  V30 15646 C 1476.31 -4.2081 2.79726 0
M  V30 15647 C 1478.51 -4.08283 3.12745 0
M  V30 15648 N 1476.49 -4.51411 4.16055 0
M  V30 15649 C 1477.86 -4.42653 4.34117 0
M  V30 15650 C 1479.91 -3.90678 3.08667 0
M  V30 15651 C 1478.62 -4.61255 5.51939 0
M  V30 15652 C 1480.64 -4.10476 4.25751 0
M  V30 15653 C 1480.01 -4.45182 5.45887 0
M  V30 15654 H 1476.1 -0.74692 0.231592 0
M  V30 15655 H 1478.69 -1.585 1.13074 0
M  V30 15656 H 1476.86 -3.88282 0.0957804 0
M  V30 15657 H 1478.59 -4.03661 0.289771 0
M  V30 15658 H 1475.35 -4.13641 2.30648 0
M  V30 15659 H 1475.77 -4.70862 4.86434 0
M  V30 15660 H 1480.41 -3.6293 2.16892 0
M  V30 15661 H 1478.13 -4.8785 6.44227 0
M  V30 15662 H 1481.72 -3.98334 4.24054 0
M  V30 15663 H 1480.6 -4.60189 6.34977 0
M  V30 15664 N 1478.1 -0.635022 -1.4424 0
M  V30 15665 C 1479.33 -0.146549 -2.06882 0
M  V30 15666 C 1479.75 1.17143 -1.4717 0
M  V30 15667 O 1479.11 1.71952 -0.574636 0
M  V30 15668 C 1479.16 -0.0494694 -3.60566 0
M  V30 15669 O 1478.26 0.993423 -4.00256 0
M  V30 15670 H 1477.6 -0.0865505 -0.658335 0
M  V30 15671 H 1480.13 -0.872803 -1.85049 0
M  V30 15672 H 1480.14 0.139839 -4.0776 0
M  V30 15673 H 1478.82 -1.01169 -4.03407 0
M  V30 15674 H 1477.39 0.778372 -3.64686 0
M  V30 15675 N 1479.58 1.53054 -0.375806 0
M  V30 15676 C 1480.99 1.86426 0.101188 0
M  V30 15677 C 1481.34 1.29603 1.47301 0
M  V30 15678 O 1480.47 0.622059 2.07266 0
M  V30 15679 C 1481.06 3.38265 0.190389 0
M  V30 15680 C 1479.62 3.71397 0.611653 0
M  V30 15681 C 1478.77 2.76304 -0.234801 0
M  V30 15682 H 1481.72 1.47156 -0.594211 0
M  V30 15683 H 1481.74 3.66793 1.01207 0
M  V30 15684 H 1481.25 3.79592 -0.80818 0
M  V30 15685 H 1479.35 3.35632 1.61808 0
M  V30 15686 H 1479.46 4.77597 0.379168 0
M  V30 15687 H 1477.83 2.52952 0.297888 0
M  V30 15688 H 1478.61 3.20467 -1.2311 0
M  V30 15689 N 1481.06 0.105248 1.57248 0
M  V30 15690 C 1482.28 -0.567515 1.99484 0
M  V30 15691 C 1482.71 -1.60298 0.984182 0
M  V30 15692 O 1482.06 -1.81242 -0.0459944 0
M  V30 15693 C 1482.11 -1.18271 3.40653 0
M  V30 15694 O 1481.22 -2.29843 3.42412 0
M  V30 15695 H 1480.56 -0.143069 0.648404 0
M  V30 15696 H 1483.09 0.189661 2.03719 0
M  V30 15697 H 1483.1 -1.52157 3.78566 0
M  V30 15698 H 1481.77 -0.424179 4.13731 0
M  V30 15699 H 1480.35 -1.975 3.16304 0
M  V30 15700 N 1482.53 -1.56697 -0.168486 0
M  V30 15701 C 1483.78 -1.82424 -0.885965 0
M  V30 15702 C 1484.11 -0.683543 -1.81773 0
M  V30 15703 O 1483.39 0.314319 -1.91943 0
M  V30 15704 C 1483.67 -3.18553 -1.67917 0
M  V30 15705 C 1483.52 -4.43154 -0.770343 0
M  V30 15706 C 1484.84 -3.51654 -2.64627 0
M  V30 15707 H 1481.96 -0.663594 -0.320644 0
M  V30 15708 H 1484.6 -1.89391 -0.15205 0
M  V30 15709 H 1482.75 -3.12745 -2.30484 0
M  V30 15710 H 1484.43 -4.61032 -0.157328 0
M  V30 15711 H 1482.67 -4.33729 -0.0785653 0
M  V30 15712 H 1483.34 -5.34961 -1.36092 0
M  V30 15713 H 1485.82 -3.57934 -2.12185 0
M  V30 15714 H 1484.69 -4.47975 -3.17191 0
M  V30 15715 H 1484.95 -2.76503 -3.44961 0
M  V30 15716 N 1484.01 0.437135 -1.51416 0
M  V30 15717 C 1485.24 1.21359 -1.68187 0
M  V30 15718 C 1485.66 1.84247 -0.378748 0
M  V30 15719 O 1485.02 1.68816 0.661115 0
M  V30 15720 C 1485.07 2.27319 -2.79926 0
M  V30 15721 O 1484.17 3.32807 -2.43543 0
M  V30 15722 H 1483.51 0.355547 -0.560787 0
M  V30 15723 H 1486.04 0.516204 -1.97981 0
M  V30 15724 H 1486.05 2.721 -3.04016 0
M  V30 15725 H 1484.73 1.80923 -3.74486 0
M  V30 15726 H 1483.31 2.93501 -2.30025 0
M  V30 15727 N 1485.49 1.41566 0.692592 0
M  V30 15728 C 1486.45 1.43369 1.78824 0
M  V30 15729 C 1487.45 0.323867 1.57505 0
M  V30 15730 O 1488.64 0.583885 1.64123 0
M  V30 15731 C 1485.78 1.24798 3.17235 0
M  V30 15732 H 1486.97 2.40906 1.78617 0
M  V30 15733 H 1484.52 1.27752 0.900508 0
M  V30 15734 H 1485.26 0.281129 3.23079 0
M  V30 15735 H 1485.04 2.05212 3.34111 0
M  V30 15736 H 1486.53 1.28902 3.97208 0
M  V30 15737 N 1486.97 -0.927146 1.27443 0
M  V30 15738 C 1487.88 -2.06122 1.12031 0
M  V30 15739 C 1488.89 -1.73928 0.0501979 0
M  V30 15740 O 1490.07 -1.99756 0.256796 0
M  V30 15741 C 1487.14 -3.3805 0.769634 0
M  V30 15742 C 1486.2 -3.83938 1.92068 0
M  V30 15743 C 1485.43 -5.0957 1.58664 0
M  V30 15744 O 1485.65 -5.6825 0.494789 0
M  V30 15745 O 1484.59 -5.50844 2.42599 0
M  V30 15746 H 1488.41 -2.22037 2.07203 0
M  V30 15747 H 1486 -1.04638 1.06636 0
M  V30 15748 H 1487.88 -4.17286 0.587423 0
M  V30 15749 H 1486.55 -3.2334 -0.152557 0
M  V30 15750 H 1485.46 -3.05587 2.15795 0
M  V30 15751 H 1486.79 -4.0319 2.8231 0
M  V30 15752 N 1488.45 -1.09474 -1.13372 0
M  V30 15753 C 1489.69 -0.831091 -1.84659 0
M  V30 15754 C 1490.02 0.643294 -1.83554 0
M  V30 15755 O 1489.28 1.48958 -1.26925 0
M  V30 15756 C 1489.58 -1.31208 -3.32444 0
M  V30 15757 C 1489.24 -2.79617 -3.5373 0
M  V30 15758 C 1487.9 -3.20147 -3.59248 0
M  V30 15759 C 1490.26 -3.75303 -3.61659 0
M  V30 15760 C 1487.58 -4.55135 -3.70228 0
M  V30 15761 C 1489.94 -5.1008 -3.74167 0
M  V30 15762 C 1488.6 -5.50199 -3.77938 0
M  V30 15763 H 1487.87 -0.304118 -0.675717 0
M  V30 15764 H 1490.52 -1.36961 -1.33843 0
M  V30 15765 H 1488.82 -0.693379 -3.85616 0
M  V30 15766 H 1490.52 -1.08469 -3.86051 0
M  V30 15767 H 1487.11 -2.47253 -3.50091 0
M  V30 15768 H 1491.29 -3.45103 -3.56676 0
M  V30 15769 H 1486.55 -4.85656 -3.71414 0
M  V30 15770 H 1490.72 -5.84077 -3.79245 0
M  V30 15771 H 1488.35 -6.54794 -3.86198 0
M  V30 15772 N 1489.92 1.30607 -0.882012 0
M  V30 15773 C 1490.86 2.27177 -0.303861 0
M  V30 15774 C 1491.87 1.53587 0.539898 0
M  V30 15775 O 1493.06 1.74833 0.359931 0
M  V30 15776 C 1490.16 3.33781 0.586828 0
M  V30 15777 C 1489.33 4.3681 -0.227197 0
M  V30 15778 C 1488.39 5.22842 0.593519 0
M  V30 15779 O 1487.42 5.69197 0.0172694 0
M  V30 15780 N 1488.62 5.48414 1.90321 0
M  V30 15781 H 1491.38 2.77426 -1.13378 0
M  V30 15782 H 1488.94 1.43756 -0.744698 0
M  V30 15783 H 1490.94 3.88257 1.14186 0
M  V30 15784 H 1489.51 2.83483 1.31743 0
M  V30 15785 H 1488.73 3.82239 -0.963674 0
M  V30 15786 H 1490.01 5.02703 -0.785315 0
M  V30 15787 H 1489.41 5.1253 2.39435 0
M  V30 15788 H 1487.97 6.05778 2.40575 0
M  V30 15789 N 1491.4 0.642663 1.43901 0
M  V30 15790 C 1492.33 -0.0419756 2.33462 0
M  V30 15791 C 1493.31 -0.822923 1.48869 0
M  V30 15792 O 1494.5 -0.786508 1.7756 0
M  V30 15793 C 1491.63 -1.01631 3.32097 0
M  V30 15794 C 1490.58 -0.346206 4.26597 0
M  V30 15795 C 1489.91 -1.43125 5.15189 0
M  V30 15796 C 1491.21 0.754799 5.16817 0
M  V30 15797 H 1492.9 0.705929 2.90959 0
M  V30 15798 H 1490.45 0.340924 1.39906 0
M  V30 15799 H 1492.4 -1.5041 3.93643 0
M  V30 15800 H 1491.13 -1.79525 2.72834 0
M  V30 15801 H 1489.78 0.121038 3.664 0
M  V30 15802 H 1489.43 -2.20135 4.52271 0
M  V30 15803 H 1489.13 -0.988194 5.79231 0
M  V30 15804 H 1490.66 -1.92061 5.79607 0
M  V30 15805 H 1492.07 0.349624 5.72233 0
M  V30 15806 H 1490.47 1.12169 5.89524 0
M  V30 15807 H 1491.54 1.61718 4.57138 0
M  V30 15808 N 1492.88 -1.52852 0.383918 0
M  V30 15809 C 1494.11 -2.06406 -0.202764 0
M  V30 15810 C 1494.53 -1.25421 -1.40183 0
M  V30 15811 O 1493.89 -0.277876 -1.79158 0
M  V30 15812 C 1493.94 -3.56281 -0.556414 0
M  V30 15813 O 1493.04 -3.77904 -1.65113 0
M  V30 15814 H 1492.38 -0.663523 -0.0251737 0
M  V30 15815 H 1494.91 -1.97074 0.54983 0
M  V30 15816 H 1494.92 -3.99629 -0.822249 0
M  V30 15817 H 1493.6 -4.14665 0.320253 0
M  V30 15818 H 1492.17 -3.46448 -1.37943 0
M  V30 15819 N 1494.36 -0.113586 -1.5719 0
M  V30 15820 C 1495.32 0.824258 -2.13866 0
M  V30 15821 C 1496.32 1.19831 -1.07224 0
M  V30 15822 O 1497.51 1.12471 -1.33026 0
M  V30 15823 C 1494.64 2.11391 -2.67445 0
M  V30 15824 H 1495.84 0.331803 -2.98059 0
M  V30 15825 H 1493.39 0.135599 -1.55711 0
M  V30 15826 H 1494.13 2.65079 -1.86824 0
M  V30 15827 H 1493.91 1.85523 -3.45433 0
M  V30 15828 H 1495.4 2.78443 -3.11222 0
M  V30 15829 N 1495.84 1.56784 0.160173 0
M  V30 15830 C 1497.09 1.8226 0.873253 0
M  V30 15831 C 1497.41 0.692384 1.82294 0
M  V30 15832 O 1496.68 -0.286961 1.93787 0
M  V30 15833 H 1495.26 0.672371 0.325463 0
M  V30 15834 H 1497.92 1.94264 0.157325 0
M  V30 15835 H 1497.01 2.76714 1.44345 0
M  V30 15836 N 1497.32 -0.429099 1.51646 0
M  V30 15837 C 1498.73 -0.766217 1.40005 0
M  V30 15838 C 1498.93 -1.95481 0.488837 0
M  V30 15839 O 1497.99 -2.52445 -0.0529101 0
M  V30 15840 C 1499.3 -1.03886 2.82185 0
M  V30 15841 C 1500.85 -1.1428 2.91392 0
M  V30 15842 C 1501.32 -1.44833 4.34497 0
M  V30 15843 N 1502.81 -1.5174 4.37641 0
M  V30 15844 C 1503.55 -1.76968 5.45408 0
M  V30 15845 N 1503.05 -1.99934 6.63324 0
M  V30 15846 N 1504.84 -1.78819 5.32898 0
M  V30 15847 H 1496.99 0.35358 2.09436 0
M  V30 15848 H 1499.25 0.0958189 0.943145 0
M  V30 15849 H 1498.96 -0.238103 3.50893 0
M  V30 15850 H 1498.83 -1.96434 3.22015 0
M  V30 15851 H 1501.22 -1.93418 2.22876 0
M  V30 15852 H 1501.3 -0.19614 2.55047 0
M  V30 15853 H 1500.94 -0.662201 5.03565 0
M  V30 15854 H 1500.87 -2.40718 4.68361 0
M  V30 15855 H 1503.37 -1.35862 3.52633 0
M  V30 15856 H 1503.68 -2.18578 7.41245 0
M  V30 15857 H 1502.02 -1.97239 6.66425 0
M  V30 15858 H 1505.21 -1.60402 4.3976 0
M  V30 15859 H 1505.39 -1.98142 6.16963 0
M  V30 15860 N 1498.79 -1.41931 -0.685074 0
M  V30 15861 C 1500.02 -1.45018 -1.4715 0
M  V30 15862 C 1500.43 -0.0569412 -1.89114 0
M  V30 15863 O 1499.77 0.936419 -1.58041 0
M  V30 15864 C 1499.84 -2.30522 -2.75862 0
M  V30 15865 C 1499.5 -3.78542 -2.56037 0
M  V30 15866 C 1500.5 -4.70448 -2.21303 0
M  V30 15867 C 1498.18 -4.22698 -2.71351 0
M  V30 15868 C 1500.18 -6.045 -2.02135 0
M  V30 15869 C 1497.86 -5.56812 -2.518 0
M  V30 15870 C 1498.86 -6.47529 -2.17244 0
M  V30 15871 O 1498.55 -7.79167 -1.97872 0
M  V30 15872 H 1498.28 -0.495682 -0.459647 0
M  V30 15873 H 1500.84 -1.86983 -0.850079 0
M  V30 15874 H 1499.07 -1.83389 -3.40449 0
M  V30 15875 H 1500.75 -2.25186 -3.37707 0
M  V30 15876 H 1501.52 -4.37621 -2.09077 0
M  V30 15877 H 1497.4 -3.52385 -2.9723 0
M  V30 15878 H 1500.94 -6.75271 -1.75086 0
M  V30 15879 H 1496.84 -5.89216 -2.6362 0
M  V30 15880 H 1497.61 -7.9042 -2.12552 0
M  V30 15881 N 1500.27 0.920374 -1.27933 0
M  V30 15882 C 1501.22 2.00832 -1.07937 0
M  V30 15883 C 1502.21 1.60899 -0.005079 0
M  V30 15884 O 1503.4 1.75571 -0.224461 0
M  V30 15885 C 1500.53 3.35311 -0.736301 0
M  V30 15886 C 1499.61 3.81666 -1.8491 0
M  V30 15887 N 1500 4.00458 -3.08977 0
M  V30 15888 C 1498.3 4.10766 -1.73745 0
M  V30 15889 C 1499 4.39178 -3.81441 0
M  V30 15890 N 1497.98 4.47064 -3.09249 0
M  V30 15891 H 1501.78 2.13402 -2.02081 0
M  V30 15892 H 1499.29 1.10774 -1.18755 0
M  V30 15893 H 1501.29 4.12928 -0.574144 0
M  V30 15894 H 1499.95 3.24099 0.197437 0
M  V30 15895 H 1500.96 3.86562 -3.4466 0
M  V30 15896 H 1497.64 4.08227 -0.875042 0
M  V30 15897 H 1499.03 4.61736 -4.88109 0
M  V30 15898 N 1501.75 1.10074 1.1279 0
M  V30 15899 C 1502.98 0.861655 1.87774 0
M  V30 15900 C 1503.39 -0.591184 1.79727 0
M  V30 15901 O 1502.73 -1.4191 1.1665 0
M  V30 15902 C 1502.79 1.22668 3.37924 0
M  V30 15903 C 1502.46 2.68579 3.69749 0
M  V30 15904 C 1503.45 3.66821 3.68427 0
M  V30 15905 C 1501.14 3.04869 3.99199 0
M  V30 15906 C 1503.13 4.99377 3.96108 0
M  V30 15907 C 1500.82 4.37615 4.2654 0
M  V30 15908 C 1501.82 5.34678 4.24981 0
M  V30 15909 O 1501.51 6.65034 4.51647 0
M  V30 15910 H 1501.24 0.309289 0.601096 0
M  V30 15911 H 1503.79 1.46802 1.43661 0
M  V30 15912 H 1502.02 0.563393 3.82574 0
M  V30 15913 H 1503.71 0.965675 3.94246 0
M  V30 15914 H 1504.48 3.40128 3.45742 0
M  V30 15915 H 1500.36 2.29947 3.99557 0
M  V30 15916 H 1503.9 5.7513 3.94806 0
M  V30 15917 H 1499.8 4.64047 4.48698 0
M  V30 15918 H 1500.56 6.70608 4.69283 0
M  V30 15919 N 1503.23 -1.30138 0.888926 0
M  V30 15920 C 1504.16 -2.27013 0.315904 0
M  V30 15921 C 1505.17 -1.53871 -0.531746 0
M  V30 15922 O 1506.36 -1.75022 -0.350654 0
M  V30 15923 C 1503.46 -3.34087 -0.569119 0
M  V30 15924 C 1502.63 -4.36683 0.250359 0
M  V30 15925 C 1501.69 -5.23149 -0.565783 0
M  V30 15926 O 1500.72 -5.69199 0.0129167 0
M  V30 15927 N 1501.92 -5.49416 -1.8741 0
M  V30 15928 H 1504.69 -2.76821 1.14848 0
M  V30 15929 H 1502.25 -1.43359 0.752311 0
M  V30 15930 H 1504.24 -3.88857 -1.12125 0
M  V30 15931 H 1502.81 -2.84178 -1.30237 0
M  V30 15932 H 1502.03 -3.81723 0.983931 0
M  V30 15933 H 1503.32 -5.02279 0.811964 0
M  V30 15934 H 1502.72 -5.13793 -2.36713 0
M  V30 15935 H 1501.27 -6.07045 -2.37359 0
M  V30 15936 N 1504.71 -0.650285 -1.43559 0
M  V30 15937 C 1505.64 0.0295939 -2.33481 0
M  V30 15938 C 1506.62 0.815017 -1.49303 0
M  V30 15939 O 1507.8 0.77708 -1.77975 0
M  V30 15940 C 1504.93 0.998683 -3.32631 0
M  V30 15941 C 1503.89 0.323577 -4.26775 0
M  V30 15942 C 1503.21 1.40391 -5.1594 0
M  V30 15943 C 1504.51 -0.782197 -5.1641 0
M  V30 15944 H 1506.21 -0.721349 -2.9058 0
M  V30 15945 H 1503.75 -0.348339 -1.39723 0
M  V30 15946 H 1505.7 1.4832 -3.94435 0
M  V30 15947 H 1504.43 1.78075 -2.73782 0
M  V30 15948 H 1503.09 -0.140467 -3.66331 0
M  V30 15949 H 1502.74 2.17734 -4.53432 0
M  V30 15950 H 1502.44 0.957462 -5.79747 0
M  V30 15951 H 1503.96 1.88985 -5.80618 0
M  V30 15952 H 1505.37 -0.379966 -5.72039 0
M  V30 15953 H 1503.77 -1.15293 -5.88921 0
M  V30 15954 H 1504.84 -1.6414 -4.56274 0
M  V30 15955 N 1506.18 1.52647 -0.392018 0
M  V30 15956 C 1507.43 2.01912 0.18958 0
M  V30 15957 C 1507.76 1.27786 1.46234 0
M  V30 15958 O 1507.04 0.379124 1.90769 0
M  V30 15959 C 1507.32 3.57217 0.454734 0
M  V30 15960 C 1507.17 4.4201 -0.833501 0
M  V30 15961 C 1508.49 4.22146 1.24421 0
M  V30 15962 H 1505.61 0.733909 0.0674281 0
M  V30 15963 H 1508.25 1.82685 -0.52212 0
M  V30 15964 H 1506.4 3.73731 1.06101 0
M  V30 15965 H 1508.08 4.37242 -1.47027 0
M  V30 15966 H 1506.32 4.08912 -1.44823 0
M  V30 15967 H 1506.99 5.48701 -0.602585 0
M  V30 15968 H 1509.47 4.09627 0.731093 0
M  V30 15969 H 1508.34 5.30786 1.39848 0
M  V30 15970 H 1508.6 3.7996 2.26016 0
M  V30 15971 N 1507.66 0.121921 1.57128 0
M  V30 15972 C 1508.91 -0.5299 1.96376 0
M  V30 15973 C 1509.26 -1.64103 1.00439 0
M  V30 15974 O 1508.56 -1.91568 0.0349355 0
M  V30 15975 C 1508.75 -1.10579 3.39863 0
M  V30 15976 C 1508.58 -0.051992 4.4967 0
M  V30 15977 C 1507.35 0.380828 5.03863 0
M  V30 15978 C 1509.55 0.730085 5.09092 0
M  V30 15979 N 1507.53 1.4201 5.97249 0
M  V30 15980 C 1508.9 1.62048 5.98448 0
M  V30 15981 C 1510.96 0.780651 4.91742 0
M  V30 15982 C 1509.66 2.55704 6.72315 0
M  V30 15983 C 1511.68 1.70493 5.66291 0
M  V30 15984 C 1511.05 2.5829 6.55336 0
M  V30 15985 H 1507.15 -0.163445 0.764728 0
M  V30 15986 H 1509.73 0.210716 1.93556 0
M  V30 15987 H 1507.9 -1.81612 3.43325 0
M  V30 15988 H 1509.63 -1.72217 3.66229 0
M  V30 15989 H 1506.39 -0.0121324 4.73598 0
M  V30 15990 H 1506.81 1.93874 6.48646 0
M  V30 15991 H 1511.45 0.115994 4.22641 0
M  V30 15992 H 1509.17 3.23182 7.40661 0
M  V30 15993 H 1512.76 1.74954 5.54872 0
M  V30 15994 H 1511.64 3.28647 7.12012 0
M  V30 15995 N 1509.14 -1.56867 -0.151857 0
M  V30 15996 C 1510.38 -1.84887 -0.871555 0
M  V30 15997 C 1510.74 -0.705549 -1.78567 0
M  V30 15998 O 1511.95 -0.86668 -2.54445 0
M  V30 15999 C 1510.22 -3.18077 -1.62978 0
M  V30 16000 S 1511.78 -3.67639 -2.39557 0
M  V30 16001 H 1508.59 -0.648478 -0.291543 0
M  V30 16002 H 1511.2 -1.95055 -0.131873 0
M  V30 16003 H 1509.9 -3.99262 -0.949621 0
M  V30 16004 H 1509.43 -3.10902 -2.41046 0
M  V30 16005 H 1511.45 -3.36516 -3.64653 0
M  V30 16006 N 1510.62 0.421051 -1.51871 0
M  V30 16007 C 1511.55 1.53094 -1.70572 0
M  V30 16008 C 1512.56 1.5188 -0.586201 0
M  V30 16009 O 1513.75 1.56361 -0.861013 0
M  V30 16010 C 1510.85 2.92002 -1.72011 0
M  V30 16011 C 1510.03 3.17541 -3.0081 0
M  V30 16012 C 1509.08 4.36259 -2.94219 0
M  V30 16013 O 1508.11 4.34118 -3.68144 0
M  V30 16014 N 1509.31 5.40722 -2.11188 0
M  V30 16015 H 1512.08 1.3745 -2.66322 0
M  V30 16016 H 1509.64 0.610204 -1.4996 0
M  V30 16017 H 1511.63 3.6947 -1.65149 0
M  V30 16018 H 1510.2 3.01162 -0.837861 0
M  V30 16019 H 1509.42 2.28225 -3.21414 0
M  V30 16020 H 1510.71 3.3144 -3.86037 0
M  V30 16021 H 1510.11 5.45304 -1.50534 0
M  V30 16022 H 1508.66 6.16979 -2.10192 0
M  V30 16023 N 1512.1 1.42293 0.677538 0
M  V30 16024 C 1513.04 1.45556 1.79114 0
M  V30 16025 C 1514.01 0.307826 1.63223 0
M  V30 16026 O 1515.2 0.511504 1.83816 0
M  V30 16027 C 1512.34 1.36104 3.17127 0
M  V30 16028 C 1511.45 2.60891 3.44325 0
M  V30 16029 C 1510.59 2.43601 4.72051 0
M  V30 16030 C 1509.63 3.63775 4.92274 0
M  V30 16031 N 1508.76 3.45444 6.11239 0
M  V30 16032 H 1513.6 2.40723 1.7566 0
M  V30 16033 H 1511.14 1.19517 0.857565 0
M  V30 16034 H 1513.1 1.28622 3.96878 0
M  V30 16035 H 1511.73 0.445342 3.19713 0
M  V30 16036 H 1510.78 2.78751 2.58848 0
M  V30 16037 H 1512.09 3.50229 3.55163 0
M  V30 16038 H 1511.25 2.33689 5.59888 0
M  V30 16039 H 1509.98 1.51748 4.63491 0
M  V30 16040 H 1508.99 3.74122 4.0288 0
M  V30 16041 H 1510.21 4.56605 5.02681 0
M  V30 16042 H 1508.16 2.56306 6.03857 0
M  V30 16043 H 1508.08 4.28368 6.22926 0
M  V30 16044 H 1509.35 3.39339 7.01762 0
M  V30 16045 O 1513.61 -0.820052 1.39131 0
M  V30 16046 H 1514.3 -1.46363 1.26876 0
M  V30 END ATOM
M  V30 BEGIN BOND
M  V30 END BOND
M  V30 END CTAB
M  END
$$$$
