drugbank_target|P32170 L-rhamnose isomerase (DB02399; DB02961)
 OpenBabel12092120013D

  0  0  0     0  0            999 V3000
M  V30 BEGIN CTAB
M  V30 COUNTS 6578 6657 0 0 0
M  V30 BEGIN ATOM
M  V30 1 H -0.908 1.98254 -0.117106 0
M  V30 2 N 0 1.576 0 0
M  V30 3 C 0.933 2.03868 1.02534 0
M  V30 4 C 1.911 0.928543 1.3348 0
M  V30 5 O 3.095 1.19667 1.45644 0
M  V30 6 C 0.222 2.43627 2.35294 0
M  V30 7 C -0.732 3.65373 2.2001 0
M  V30 8 S 0.101 5.13292 1.52614 0
M  V30 9 C 1.257 5.56322 2.86805 0
M  V30 10 H 1.49 2.90518 0.631377 0
M  V30 11 H -0.977 1.52953 0.210867 0
M  V30 12 H 0.981 2.67203 3.11629 0
M  V30 13 H -0.358 1.57376 2.7183 0
M  V30 14 H -1.165 3.90944 3.18086 0
M  V30 15 H -1.563 3.418 1.51819 0
M  V30 16 H 0.729 5.58782 3.83104 0
M  V30 17 H 1.672 6.56266 2.65933 0
M  V30 18 H 2.08 4.83886 2.90714 0
M  V30 19 N 1.4781 -0.272755 1.55222 0
M  V30 20 C 2.7061 -1.02255 1.79865 0
M  V30 21 C 3.1211 -1.79924 0.572088 0
M  V30 22 O 2.4781 -1.76638 -0.458842 0
M  V30 23 C 2.5291 -1.98094 3.02392 0
M  V30 24 O 2.2501 -1.23572 4.20311 0
M  V30 25 C 3.7511 -2.84884 3.39641 0
M  V30 26 H 0.9711 -0.302057 0.599168 0
M  V30 27 H 3.5151 -0.303465 2.02236 0
M  V30 28 H 1.6701 -2.65465 2.82147 0
M  V30 29 H 2.0841 -1.88172 4.89583 0
M  V30 30 H 3.5581 -3.47927 4.28545 0
M  V30 31 H 4.0351 -3.54665 2.59055 0
M  V30 32 H 4.6411 -2.23003 3.62146 0
M  V30 33 N 2.9562 -1.48159 -0.537278 0
M  V30 34 C 4.1842 -1.59454 -1.31841 0
M  V30 35 C 4.5992 -0.252065 -1.8711 0
M  V30 36 O 3.9562 0.757621 -1.66031 0
M  V30 37 C 4.0072 -2.63546 -2.47439 0
M  V30 38 O 3.7282 -3.92583 -1.94449 0
M  V30 39 C 5.2292 -2.85212 -3.39366 0
M  V30 40 H 2.4492 -0.53785 -0.401196 0
M  V30 41 H 4.9932 -1.93932 -0.648891 0
M  V30 42 H 3.1482 -2.31946 -3.1029 0
M  V30 43 H 3.5622 -4.49629 -2.70063 0
M  V30 44 H 5.0362 -3.61863 -4.16844 0
M  V30 45 H 5.5132 -1.93765 -3.94147 0
M  V30 46 H 6.1192 -3.18086 -2.82314 0
M  V30 47 N 4.4343 0.785586 -1.36625 0
M  V30 48 C 5.3663 1.90711 -1.2713 0
M  V30 49 C 6.3793 1.61688 -0.189986 0
M  V30 50 O 7.5683 1.72864 -0.445014 0
M  V30 51 C 4.6683 3.25611 -0.939713 0
M  V30 52 C 3.8413 3.82385 -2.12369 0
M  V30 53 C 2.9003 4.95732 -1.76456 0
M  V30 54 O 1.9263 5.12047 -2.48589 0
M  V30 55 N 3.1283 5.76258 -0.700492 0
M  V30 56 H 5.8933 1.99376 -2.23762 0
M  V30 57 H 3.4543 0.964041 -1.30069 0
M  V30 58 H 5.4463 3.98937 -0.680554 0
M  V30 59 H 4.0163 3.12538 -0.0624074 0
M  V30 60 H 3.2363 3.01001 -2.54543 0
M  V30 61 H 4.5243 4.17047 -2.9146 0
M  V30 62 H 3.9223 5.65609 -0.101624 0
M  V30 63 H 2.4793 6.4987 -0.501165 0
M  V30 64 N 5.9124 1.20967 1.01018 0
M  V30 65 C 6.8424 0.988272 2.11555 0
M  V30 66 C 7.8234 -0.0849778 1.69888 0
M  V30 67 O 9.0084 0.0738202 1.9406 0
M  V30 68 C 6.1384 0.546528 3.42973 0
M  V30 69 C 5.0924 1.56375 3.9841 0
M  V30 70 C 4.4184 0.97842 5.25672 0
M  V30 71 C 5.7184 2.94922 4.31066 0
M  V30 72 H 7.4124 1.91276 2.30334 0
M  V30 73 H 4.9584 0.921073 1.1069 0
M  V30 74 H 6.9114 0.378839 4.19694 0
M  V30 75 H 5.6354 -0.413598 3.23971 0
M  V30 76 H 4.2944 1.71891 3.23804 0
M  V30 77 H 3.9424 0.0101688 5.02999 0
M  V30 78 H 3.6424 1.65784 5.63728 0
M  V30 79 H 5.1664 0.821939 6.05043 0
M  V30 80 H 6.5804 2.8288 4.9865 0
M  V30 81 H 4.9774 3.5983 4.80253 0
M  V30 82 H 6.0474 3.4616 3.39561 0
M  V30 83 N 7.3905 -1.2043 1.01659 0
M  V30 84 C 8.3005 -2.2689 0.596484 0
M  V30 85 C 9.3165 -1.70107 -0.36599 0
M  V30 86 O 10.4925 -2.00117 -0.226942 0
M  V30 87 C 7.5575 -3.4665 -0.0586659 0
M  V30 88 C 6.6185 -4.18662 0.949751 0
M  V30 89 C 5.8515 -5.32705 0.32577 0
M  V30 90 O 6.0745 -5.63656 -0.874509 0
M  V30 91 O 5.0085 -5.92803 1.04249 0
M  V30 92 H 8.8345 -2.65041 1.4828 0
M  V30 93 H 6.4195 -1.27048 0.786082 0
M  V30 94 H 8.3015 -4.19256 -0.424564 0
M  V30 95 H 6.9765 -3.10375 -0.91918 0
M  V30 96 H 5.8835 -3.48229 1.36702 0
M  V30 97 H 7.2165 -4.58878 1.78023 0
M  V30 98 N 8.8686 -0.792821 -1.36206 0
M  V30 99 C 9.8006 -0.151469 -2.28699 0
M  V30 100 C 10.8136 0.641262 -1.49638 0
M  V30 101 O 12.0026 0.475885 -1.72039 0
M  V30 102 C 9.1026 0.808424 -3.29117 0
M  V30 103 C 8.2756 0.0650202 -4.37352 0
M  V30 104 C 7.3346 0.941358 -5.17711 0
M  V30 105 O 6.3606 0.397352 -5.67811 0
M  V30 106 N 7.5626 2.2652 -5.3448 0
M  V30 107 H 10.3276 -0.945982 -2.84379 0
M  V30 108 H 7.8886 -0.647032 -1.48409 0
M  V30 109 H 9.8806 1.3986 -3.79765 0
M  V30 110 H 8.4506 1.5038 -2.74052 0
M  V30 111 H 7.6706 -0.706255 -3.87822 0
M  V30 112 H 8.9586 -0.447847 -5.06825 0
M  V30 113 H 8.3566 2.73128 -4.95396 0
M  V30 114 H 6.9136 2.80493 -5.88359 0
M  V30 115 N 10.3467 1.47872 -0.545128 0
M  V30 116 C 11.3097 2.28337 0.198717 0
M  V30 117 C 12.3097 1.36255 0.853888 0
M  V30 118 O 13.4997 1.59003 0.711606 0
M  V30 119 C 10.6317 3.15585 1.28915 0
M  V30 120 H 11.8247 2.95567 -0.507941 0
M  V30 121 H 9.3777 1.53362 -0.301616 0
M  V30 122 H 10.1127 2.53019 2.02859 0
M  V30 123 H 9.8977 3.83337 0.824309 0
M  V30 124 H 11.3877 3.76243 1.81194 0
M  V30 125 N 11.8248 0.280983 1.55075 0
M  V30 126 C 13.0708 -0.327573 2.00745 0
M  V30 127 C 13.4258 -1.53045 1.16598 0
M  V30 128 O 12.7188 -1.90221 0.229451 0
M  V30 129 C 12.9128 -0.754656 3.49342 0
M  V30 130 C 12.7418 0.40529 4.4787 0
M  V30 131 C 11.5118 0.890947 4.97383 0
M  V30 132 C 13.7098 1.24371 4.99035 0
M  V30 133 N 11.6918 2.01975 5.79724 0
M  V30 134 C 13.0628 2.22031 5.7888 0
M  V30 135 C 15.1178 1.27638 4.81262 0
M  V30 136 C 13.8208 3.22709 6.42846 0
M  V30 137 C 15.8468 2.27164 5.46031 0
M  V30 138 C 15.2088 3.23556 6.25692 0
M  V30 139 H 11.3078 -0.0848774 0.77738 0
M  V30 140 H 13.8918 0.406342 1.90413 0
M  V30 141 H 12.0628 -1.45778 3.60005 0
M  V30 142 H 13.7948 -1.34105 3.81835 0
M  V30 143 H 10.5498 0.469262 4.71269 0
M  V30 144 H 10.9738 2.58794 6.25584 0
M  V30 145 H 15.6158 0.544936 4.19274 0
M  V30 146 H 13.3338 3.96784 7.0398 0
M  V30 147 H 16.9198 2.30441 5.34217 0
M  V30 148 H 15.7998 3.99309 6.74924 0
M  V30 149 N 13.3029 -1.57598 0.00835791 0
M  V30 150 C 14.2129 -2.12385 -0.996487 0
M  V30 151 C 15.2289 -1.07108 -1.37127 0
M  V30 152 O 16.4049 -1.39055 -1.4569 0
M  V30 153 C 13.4699 -2.62314 -2.26699 0
M  V30 154 C 12.5309 -3.82225 -1.95456 0
M  V30 155 C 11.7639 -4.29763 -3.16449 0
M  V30 156 O 11.9869 -3.76584 -4.28416 0
M  V30 157 O 10.9209 -5.21832 -2.99958 0
M  V30 158 H 14.7469 -2.98479 -0.560725 0
M  V30 159 H 12.3319 -1.47903 -0.210987 0
M  V30 160 H 14.2139 -2.94589 -3.01322 0
M  V30 161 H 12.8889 -1.79313 -2.69497 0
M  V30 162 H 11.7959 -3.54909 -1.18282 0
M  V30 163 H 13.1289 -4.66324 -1.57489 0
M  V30 164 N 14.781 0.264519 -1.55364 0
M  V30 165 C 15.711 1.33121 -1.91836 0
M  V30 166 C 16.692 1.51101 -0.781192 0
M  V30 167 O 17.877 1.64003 -1.04003 0
M  V30 168 C 15.007 2.68921 -2.19769 0
M  V30 169 C 13.961 2.65661 -3.35571 0
M  V30 170 C 13.287 4.05093 -3.49004 0
M  V30 171 C 14.587 2.24187 -4.71739 0
M  V30 172 H 16.281 1.02844 -2.81182 0
M  V30 173 H 13.827 0.493286 -1.35287 0
M  V30 174 H 15.78 3.43663 -2.43872 0
M  V30 175 H 14.504 3.00799 -1.27231 0
M  V30 176 H 13.163 1.93377 -3.1145 0
M  V30 177 H 12.811 4.34206 -2.53917 0
M  V30 178 H 12.511 4.03804 -4.26868 0
M  V30 179 H 14.035 4.81561 -3.75408 0
M  V30 180 H 15.449 2.88654 -4.9533 0
M  V30 181 H 13.846 2.34044 -5.52579 0
M  V30 182 H 14.916 1.19327 -4.69988 0
M  V30 183 N 16.2591 1.48442 0.529413 0
M  V30 184 C 17.2221 1.62524 1.61612 0
M  V30 185 C 18.2221 0.498509 1.52877 0
M  V30 186 O 19.4121 0.76431 1.56537 0
M  V30 187 C 16.5441 1.59597 3.01233 0
M  V30 188 H 17.7371 2.59423 1.50465 0
M  V30 189 H 15.2901 1.37047 0.751514 0
M  V30 190 H 16.0251 0.641781 3.17886 0
M  V30 191 H 15.8101 2.41397 3.08982 0
M  V30 192 H 17.3001 1.72646 3.80241 0
M  V30 193 N 17.7372 -0.778329 1.37039 0
M  V30 194 C 18.6842 -1.89139 1.32269 0
M  V30 195 C 19.6542 -1.65017 0.189387 0
M  V30 196 O 20.8392 -1.87024 0.377693 0
M  V30 197 C 17.9792 -3.26112 1.12894 0
M  V30 198 C 17.0922 -3.62233 2.35396 0
M  V30 199 C 16.2272 -4.8838 2.08946 0
M  V30 200 C 15.2662 -5.17212 3.2735 0
M  V30 201 N 14.4032 -6.34546 3.00492 0
M  V30 202 H 19.2432 -1.92552 2.27437 0
M  V30 203 H 16.7802 -0.941473 1.13025 0
M  V30 204 H 18.7382 -4.05116 0.996835 0
M  V30 205 H 17.3682 -3.22091 0.213758 0
M  V30 206 H 16.4202 -2.78265 2.5937 0
M  V30 207 H 17.7322 -3.79481 3.23721 0
M  V30 208 H 16.8862 -5.75274 1.92729 0
M  V30 209 H 15.6252 -4.73222 1.17949 0
M  V30 210 H 14.6302 -4.28796 3.44113 0
M  V30 211 H 15.8552 -5.34283 4.19188 0
M  V30 212 H 13.8012 -6.20759 2.12118 0
M  V30 213 H 13.7182 -6.52179 3.82358 0
M  V30 214 H 14.9862 -7.24394 2.87879 0
M  V30 215 N 19.2153 -1.21501 -1.00376 0
M  V30 216 C 20.1473 -0.933174 -2.09343 0
M  V30 217 C 21.1603 0.0840896 -1.62583 0
M  V30 218 O 22.3493 -0.148563 -1.77881 0
M  V30 219 C 19.4493 -0.379869 -3.36764 0
M  V30 220 C 18.6223 -1.45176 -4.12605 0
M  V30 221 C 17.6813 -0.907476 -5.18316 0
M  V30 222 O 16.7073 -1.5912 -5.46507 0
M  V30 223 N 17.9093 0.276649 -5.7984 0
M  V30 224 H 20.6743 -1.87124 -2.34104 0
M  V30 225 H 18.2353 -1.12043 -1.16867 0
M  V30 226 H 20.2273 -0.00131488 -4.047 0
M  V30 227 H 18.7973 0.463048 -3.09151 0
M  V30 228 H 18.0173 -2.00411 -3.39454 0
M  V30 229 H 19.3053 -2.17328 -4.6005 0
M  V30 230 H 18.7033 0.849147 -5.59291 0
M  V30 231 H 17.2603 0.596702 -6.49063 0
M  V30 232 N 20.6934 1.19889 -1.02296 0
M  V30 233 C 22.1094 1.41462 -0.738954 0
M  V30 234 C 22.3094 1.89721 0.678846 0
M  V30 235 O 21.3654 2.07016 1.4457 0
M  V30 236 C 22.6784 2.43083 -1.77005 0
M  V30 237 C 24.2264 2.5684 -1.78892 0
M  V30 238 C 24.7014 3.61709 -2.80945 0
M  V30 239 N 26.1924 3.69199 -2.79725 0
M  V30 240 C 26.9274 4.50019 -3.55345 0
M  V30 241 N 26.4234 5.34592 -4.40662 0
M  V30 242 N 28.2164 4.44612 -3.43914 0
M  V30 243 H 20.3674 0.868827 -1.93817 0
M  V30 244 H 22.6304 0.44399 -0.837602 0
M  V30 245 H 22.3364 2.14636 -2.78612 0
M  V30 246 H 22.2104 3.4217 -1.58744 0
M  V30 247 H 24.5974 2.84614 -0.779674 0
M  V30 248 H 24.6784 1.57927 -2.01228 0
M  V30 249 H 24.3224 3.34678 -3.82038 0
M  V30 250 H 24.2524 4.60259 -2.5587 0
M  V30 251 H 26.7434 3.08794 -2.17842 0
M  V30 252 H 27.0564 5.93363 -4.95116 0
M  V30 253 H 25.4014 5.34073 -4.44737 0
M  V30 254 H 28.5924 3.7758 -2.76679 0
M  V30 255 H 28.7654 5.0736 -4.031 0
M  V30 256 N 22.1715 0.800033 1.35784 0
M  V30 257 C 23.4185 0.377342 1.98953 0
M  V30 258 C 23.7465 -1.05378 1.6348 0
M  V30 259 O 23.0015 -1.74459 0.886707 0
M  V30 260 C 23.3005 0.500276 3.53881 0
M  V30 261 C 22.9665 1.89375 4.09204 0
M  V30 262 C 21.6285 2.27499 4.24025 0
M  V30 263 C 23.9805 2.8057 4.39238 0
M  V30 264 C 21.3085 3.562 4.66195 0
M  V30 265 C 23.6605 4.0871 4.82844 0
M  V30 266 C 22.3245 4.46843 4.95871 0
M  V30 267 H 21.5945 0.138079 0.728021 0
M  V30 268 H 24.2415 1.01955 1.62103 0
M  V30 269 H 22.5465 -0.225405 3.91151 0
M  V30 270 H 24.2435 0.154097 4.00704 0
M  V30 271 H 20.8335 1.58753 3.98115 0
M  V30 272 H 25.0175 2.52367 4.27346 0
M  V30 273 H 20.2735 3.85602 4.74469 0
M  V30 274 H 24.4475 4.79481 5.05046 0
M  V30 275 H 22.0745 5.46623 5.28306 0
M  V30 276 N 23.6496 -1.47581 0.552962 0
M  V30 277 C 24.6126 -2.28439 -0.186605 0
M  V30 278 C 25.6126 -1.36706 -0.84665 0
M  V30 279 O 26.8026 -1.59378 -0.703164 0
M  V30 280 C 23.9346 -3.16264 -1.2724 0
M  V30 281 H 25.1276 -2.95294 0.523609 0
M  V30 282 H 22.6806 -1.532 0.309745 0
M  V30 283 H 23.4156 -2.54091 -2.01514 0
M  V30 284 H 23.2006 -3.83769 -0.803968 0
M  V30 285 H 24.6906 -3.77198 -1.79196 0
M  V30 286 N 25.1277 -0.289203 -1.54924 0
M  V30 287 C 26.0907 0.579144 -2.21762 0
M  V30 288 C 27.0907 1.07047 -1.1999 0
M  V30 289 O 28.2807 0.968384 -1.44803 0
M  V30 290 C 25.4127 1.80055 -2.8947 0
M  V30 291 H 26.6057 -0.00464908 -2.999 0
M  V30 292 H 24.1587 -0.0399306 -1.56249 0
M  V30 293 H 24.8937 2.42449 -2.15381 0
M  V30 294 H 24.6787 1.45602 -3.64064 0
M  V30 295 H 26.1687 2.41773 -3.40493 0
M  V30 296 N 26.6058 1.57591 -0.0167156 0
M  V30 297 C 27.8518 1.91567 0.665582 0
M  V30 298 C 28.1848 0.892298 1.72487 0
M  V30 299 O 27.4598 -0.0867127 1.94307 0
M  V30 300 C 27.7428 3.36069 1.29342 0
M  V30 301 C 27.5958 4.49135 0.244541 0
M  V30 302 C 28.9148 3.803 2.21495 0
M  V30 303 H 26.0338 0.69666 0.240488 0
M  V30 304 H 28.6758 1.89866 -0.0714356 0
M  V30 305 H 26.8258 3.3765 1.92158 0
M  V30 306 H 28.4978 4.59689 -0.385228 0
M  V30 307 H 26.7408 4.3165 -0.431379 0
M  V30 308 H 27.4118 5.47242 0.723207 0
M  V30 309 H 29.8878 3.80377 1.68678 0
M  V30 310 H 28.7638 4.82127 2.62382 0
M  V30 311 H 29.0248 3.15104 3.101 0
M  V30 312 N 28.0839 -0.256276 1.55502 0
M  V30 313 C 29.3319 -0.983672 1.76545 0
M  V30 314 C 29.6529 -1.86206 0.578982 0
M  V30 315 O 28.9229 -1.91656 -0.405577 0
M  V30 316 H 27.5029 -0.366191 0.651086 0
M  V30 317 H 30.1649 -0.276479 1.92929 0
M  V30 318 H 29.2609 -1.61087 2.67315 0
M  V30 319 N 29.562 -1.4872 -0.521534 0
M  V30 320 C 30.811 -1.56419 -1.27341 0
M  V30 321 C 31.124 -0.246805 -1.94037 0
M  V30 322 O 32.33 -0.202122 -2.70747 0
M  V30 323 C 30.786 -2.75896 -2.31105 0
M  V30 324 C 30.394 -4.14311 -1.70441 0
M  V30 325 C 32.138 -2.92913 -3.07249 0
M  V30 326 C 30.045 -5.25038 -2.72194 0
M  V30 327 H 28.975 -0.582344 -0.478949 0
M  V30 328 H 31.626 -1.75071 -0.549779 0
M  V30 329 H 30.008 -2.50697 -3.06541 0
M  V30 330 H 31.182 -4.49564 -1.01136 0
M  V30 331 H 29.497 -4.02482 -1.06759 0
M  V30 332 H 32.094 -3.72805 -3.83302 0
M  V30 333 H 32.437 -2.02689 -3.63625 0
M  V30 334 H 32.97 -3.18054 -2.38928 0
M  V30 335 H 29.709 -6.17255 -2.20627 0
M  V30 336 H 29.229 -4.94263 -3.39801 0
M  V30 337 H 30.908 -5.53508 -3.35019 0
M  V30 338 N 31.0401 0.771051 -1.3745 0
M  V30 339 C 32.3171 1.519 -1.23231 0
M  V30 340 C 32.6971 2.10383 0.173809 0
M  V30 341 O 32.0451 1.95583 1.18151 0
M  V30 342 C 32.2551 2.59933 -2.32886 0
M  V30 343 C 33.6031 3.27316 -2.70461 0
M  V30 344 O 34.6271 2.70228 -2.32068 0
M  V30 345 O 33.4861 4.30531 -3.36608 0
M  V30 346 H 30.5801 0.672803 -0.480901 0
M  V30 347 H 33.1261 0.807957 -1.49232 0
M  V30 348 H 31.8981 2.14842 -3.27045 0
M  V30 349 H 31.5211 3.38637 -2.08353 0
M  V30 350 N 32.5182 1.22032 0.997298 0
M  V30 351 C 33.7642 1.04376 1.73878 0
M  V30 352 C 34.0972 -0.420716 1.89588 0
M  V30 353 O 33.3722 -1.31202 1.43583 0
M  V30 354 C 33.6552 1.75047 3.14691 0
M  V30 355 C 33.5082 3.29062 3.06656 0
M  V30 356 C 34.8272 1.49928 4.13775 0
M  V30 357 H 31.9462 0.380578 0.631133 0
M  V30 358 H 34.5882 1.50312 1.16217 0
M  V30 359 H 32.7382 1.35996 3.63919 0
M  V30 360 H 34.4102 3.7753 2.65083 0
M  V30 361 H 32.6532 3.58967 2.43568 0
M  V30 362 H 33.3242 3.73683 4.06282 0
M  V30 363 H 35.8002 1.83842 3.73285 0
M  V30 364 H 34.6762 2.01878 5.10428 0
M  V30 365 H 34.9372 0.430929 4.39995 0
M  V30 366 N 33.9963 -1.19345 1.0293 0
M  V30 367 C 34.9063 -2.26245 0.620515 0
M  V30 368 C 35.9223 -1.70486 -0.347928 0
M  V30 369 O 37.0983 -2.00347 -0.205704 0
M  V30 370 C 34.1633 -3.46693 -0.0218957 0
M  V30 371 C 33.2243 -4.17632 0.994102 0
M  V30 372 C 32.4573 -5.32329 0.382253 0
M  V30 373 O 32.6803 -5.64552 -0.814676 0
M  V30 374 O 31.6143 -5.91664 1.10531 0
M  V30 375 H 35.4403 -2.63453 1.51083 0
M  V30 376 H 33.0253 -1.26207 0.799513 0
M  V30 377 H 34.9073 -4.19683 -0.380072 0
M  V30 378 H 33.5823 -3.11333 -0.886209 0
M  V30 379 H 32.4893 -3.4676 1.40387 0
M  V30 380 H 33.8223 -4.56964 1.8288 0
M  V30 381 N 35.4744 -0.807222 -1.35358 0
M  V30 382 C 36.3844 -0.219594 -2.3357 0
M  V30 383 C 37.4004 0.637734 -1.61892 0
M  V30 384 O 38.5764 0.549336 -1.93763 0
M  V30 385 C 35.6414 0.62158 -3.41083 0
M  V30 386 C 34.7024 -0.256315 -4.28534 0
M  V30 387 C 33.9354 0.544807 -5.30912 0
M  V30 388 O 34.1584 1.77944 -5.41934 0
M  V30 389 O 33.0924 -0.0646478 -6.01865 0
M  V30 390 H 36.9184 -1.03208 -2.85625 0
M  V30 391 H 34.5034 -0.569025 -1.38139 0
M  V30 392 H 36.3854 1.10067 -4.06772 0
M  V30 393 H 35.0604 1.41165 -2.91297 0
M  V30 394 H 33.9674 -0.782559 -3.65823 0
M  V30 395 H 35.3004 -1.01034 -4.81719 0
M  V30 396 N 36.9525 1.47285 -0.560781 0
M  V30 397 C 37.9155 2.28535 0.174488 0
M  V30 398 C 38.9155 1.37153 0.839388 0
M  V30 399 O 40.1055 1.59748 0.694702 0
M  V30 400 C 37.2375 3.16934 1.25561 0
M  V30 401 H 38.4305 2.95012 -0.539262 0
M  V30 402 H 35.9835 1.53034 -0.317865 0
M  V30 403 H 36.7185 2.55157 2.00164 0
M  V30 404 H 36.5035 3.8419 0.783604 0
M  V30 405 H 37.9935 3.78143 1.77193 0
M  V30 406 N 38.4306 0.297415 1.54768 0
M  V30 407 C 39.3606 -0.573494 2.26348 0
M  V30 408 C 40.3416 -1.14085 1.26169 0
M  V30 409 O 41.5266 -1.17086 1.54934 0
M  V30 410 C 38.6566 -1.74716 3.00153 0
M  V30 411 C 37.6106 -1.31032 4.07449 0
M  V30 412 C 36.9366 -2.56887 4.68949 0
M  V30 413 C 38.2366 -0.444183 5.20408 0
M  V30 414 H 39.9306 0.0235131 2.99391 0
M  V30 415 H 37.4766 0.0127488 1.43994 0
M  V30 416 H 39.4296 -2.3625 3.48947 0
M  V30 417 H 38.1536 -2.37035 2.24682 0
M  V30 418 H 36.8126 -0.718066 3.59499 0
M  V30 419 H 36.4606 -3.17512 3.90122 0
M  V30 420 H 36.1606 -2.2836 5.41411 0
M  V30 421 H 37.6846 -3.19229 5.20505 0
M  V30 422 H 39.0986 -0.9651 5.65118 0
M  V30 423 H 37.4956 -0.252846 5.99567 0
M  V30 424 H 38.5656 0.531609 4.81977 0
M  V30 425 N 39.9087 -1.5758 0.0250728 0
M  V30 426 C 41.3247 -1.56124 -0.331282 0
M  V30 427 C 41.5247 -1.03029 -1.73169 0
M  V30 428 O 40.5807 -0.675215 -2.43305 0
M  V30 429 C 41.8937 -3.00139 -0.183584 0
M  V30 430 C 43.4417 -3.11946 -0.256654 0
M  V30 431 C 43.9167 -4.57793 -0.137792 0
M  V30 432 N 45.4077 -4.6279 -0.194904 0
M  V30 433 C 46.1427 -5.7326 -0.126655 0
M  V30 434 N 45.6387 -6.928 -0.00755288 0
M  V30 435 N 47.4317 -5.61811 -0.180348 0
M  V30 436 H 39.5827 -1.90424 0.94087 0
M  V30 437 H 41.8457 -0.875761 0.362968 0
M  V30 438 H 41.5517 -3.4292 0.780927 0
M  V30 439 H 41.4257 -3.64899 -0.955448 0
M  V30 440 H 43.8127 -2.69079 -1.21162 0
M  V30 441 H 43.8937 -2.49915 0.545517 0
M  V30 442 H 43.5377 -5.01339 0.813739 0
M  V30 443 H 43.4677 -5.17798 -0.958775 0
M  V30 444 H 45.9587 -3.76807 -0.287267 0
M  V30 445 H 46.2717 -7.72791 0.0379428 0
M  V30 446 H 44.6167 -6.94995 0.0271731 0
M  V30 447 H 47.8077 -4.6731 -0.271767 0
M  V30 448 H 47.9807 -6.47882 -0.123697 0
M  V30 449 N 41.3868 0.248026 -1.55636 0
M  V30 450 C 42.3188 1.32993 -1.8667 0
M  V30 451 C 43.3318 1.44345 -0.752877 0
M  V30 452 O 44.5208 1.45715 -1.03098 0
M  V30 453 C 41.6208 2.70863 -2.03682 0
M  V30 454 C 40.7938 2.81792 -3.34532 0
M  V30 455 C 39.8528 4.005 -3.41301 0
M  V30 456 O 38.8788 3.9008 -4.14519 0
M  V30 457 N 40.0808 5.13618 -2.70512 0
M  V30 458 H 42.8458 1.06707 -2.8006 0
M  V30 459 H 40.4068 0.438129 -1.55859 0
M  V30 460 H 42.3988 3.48612 -2.05553 0
M  V30 461 H 40.9688 2.89862 -1.17041 0
M  V30 462 H 40.1888 1.90729 -3.44987 0
M  V30 463 H 41.4768 2.86043 -4.20781 0
M  V30 464 H 40.8748 5.24975 -2.10755 0
M  V30 465 H 39.4318 5.89505 -2.78077 0
M  V30 466 N 42.8649 1.48995 0.513639 0
M  V30 467 C 43.7949 1.67636 1.62544 0
M  V30 468 C 44.7759 0.525087 1.61793 0
M  V30 469 O 45.9609 0.759502 1.78732 0
M  V30 470 C 43.0909 1.73114 3.01079 0
M  V30 471 C 42.0449 2.87905 3.16693 0
M  V30 472 C 41.3709 2.78486 4.56453 0
M  V30 473 C 42.6709 4.29005 2.97913 0
M  V30 474 H 44.3649 2.60716 1.47198 0
M  V30 475 H 41.9109 1.25465 0.706714 0
M  V30 476 H 43.8639 1.84742 3.78746 0
M  V30 477 H 42.5879 0.766241 3.17484 0
M  V30 478 H 41.2469 2.75859 2.41448 0
M  V30 479 H 40.8949 1.7993 4.69717 0
M  V30 480 H 40.5949 3.55523 4.67843 0
M  V30 481 H 42.1189 2.92104 5.36197 0
M  V30 482 H 43.5329 4.41798 3.65359 0
M  V30 483 H 41.9299 5.07166 3.20785 0
M  V30 484 H 42.9999 4.44329 1.94165 0
M  V30 485 N 44.343 -0.763751 1.37857 0
M  V30 486 C 45.62 -1.51244 1.24035 0
M  V30 487 C 46 -2.10472 -0.162649 0
M  V30 488 O 45.348 -1.96206 -1.17112 0
M  V30 489 C 45.558 -2.58694 2.34261 0
M  V30 490 C 46.906 -3.25878 2.72193 0
M  V30 491 O 47.93 -2.68993 2.33497 0
M  V30 492 O 46.789 -4.2874 3.38887 0
M  V30 493 H 43.883 -0.670243 0.484462 0
M  V30 494 H 46.429 -0.800031 1.49658 0
M  V30 495 H 45.201 -2.13105 3.2818 0
M  V30 496 H 44.824 -3.37527 2.10146 0
M  V30 497 N 45.8211 -1.22559 -0.990812 0
M  V30 498 C 47.2371 -0.985996 -1.255 0
M  V30 499 C 47.4371 0.319173 -1.98956 0
M  V30 500 O 46.4931 1.04127 -2.3003 0
M  V30 501 C 47.8061 -2.18607 -2.06474 0
M  V30 502 C 49.3541 -2.22985 -2.19651 0
M  V30 503 C 49.8291 -3.4255 -3.04012 0
M  V30 504 N 51.3201 -3.42725 -3.11599 0
M  V30 505 C 52.0551 -4.31892 -3.7717 0
M  V30 506 N 51.5511 -5.31279 -4.44651 0
M  V30 507 N 53.3441 -4.19662 -3.73952 0
M  V30 508 H 45.4951 -2.06469 -0.49841 0
M  V30 509 H 47.7581 -0.904853 -0.282747 0
M  V30 510 H 47.4641 -3.13267 -1.59865 0
M  V30 511 H 47.3381 -2.18838 -3.07229 0
M  V30 512 H 49.7251 -1.28871 -2.65474 0
M  V30 513 H 49.8061 -2.26791 -1.18319 0
M  V30 514 H 49.4501 -4.36965 -2.58889 0
M  V30 515 H 49.3801 -3.35984 -4.0549 0
M  V30 516 H 51.8711 -2.70807 -2.63575 0
M  V30 517 H 52.1841 -5.95593 -4.92431 0
M  V30 518 H 50.5291 -5.3519 -4.43392 0
M  V30 519 H 53.7201 -3.41268 -3.20396 0
M  V30 520 H 53.8931 -4.89358 -4.24774 0
M  V30 521 N 47.2992 1.18797 -1.03562 0
M  V30 522 C 48.2292 2.24472 -0.643019 0
M  V30 523 C 49.2102 1.66433 0.351283 0
M  V30 524 O 50.3952 1.92803 0.232505 0
M  V30 525 C 47.5252 3.473 4.24935e-05 0
M  V30 526 C 46.4792 4.18055 -0.917257 0
M  V30 527 C 45.8052 5.34519 -0.138941 0
M  V30 528 C 47.1052 4.72109 -2.23407 0
M  V30 529 H 48.7992 2.57566 -1.52643 0
M  V30 530 H 46.3452 1.23806 -0.735394 0
M  V30 531 H 48.2982 4.20426 0.286383 0
M  V30 532 H 47.0222 3.13424 0.918299 0
M  V30 533 H 45.6812 3.46821 -1.1879 0
M  V30 534 H 45.3292 4.96891 0.781562 0
M  V30 535 H 45.0292 5.82794 -0.750005 0
M  V30 536 H 46.5532 6.10438 0.1405 0
M  V30 537 H 47.9672 5.36955 -2.00879 0
M  V30 538 H 46.3642 5.30897 -2.79765 0
M  V30 539 H 47.4342 3.89807 -2.88407 0
M  V30 540 N 48.7773 0.814389 1.34928 0
M  V30 541 C 50.1883 0.458364 1.80986 0
M  V30 542 C 50.5393 -1.02042 1.67577 0
M  V30 543 O 49.6643 -1.79352 1.21086 0
M  V30 544 C 50.2593 0.825212 3.28597 0
M  V30 545 C 48.8183 0.521677 3.72767 0
M  V30 546 C 47.9653 1.04668 2.56788 0
M  V30 547 H 50.9163 1.00533 1.22795 0
M  V30 548 H 50.9373 0.12571 3.80292 0
M  V30 549 H 50.4493 1.90154 3.38324 0
M  V30 550 H 48.5503 -0.545589 3.68584 0
M  V30 551 H 48.6633 1.05977 4.67232 0
M  V30 552 H 47.0273 0.468622 2.50352 0
M  V30 553 H 47.8103 2.12927 2.6929 0
M  V30 554 N 50.2554 -1.46986 0.568584 0
M  V30 555 C 51.5014 -2.02741 0.0488709 0
M  V30 556 C 51.8344 -1.44077 -1.30214 0
M  V30 557 O 51.1094 -0.600552 -1.84996 0
M  V30 558 C 51.3924 -3.60086 -0.032047 0
M  V30 559 C 51.2454 -4.29162 1.34686 0
M  V30 560 C 52.5644 -4.33838 -0.739798 0
M  V30 561 H 49.6834 -0.736749 0.0192338 0
M  V30 562 H 52.3254 -1.75289 0.733065 0
M  V30 563 H 50.4754 -3.83606 -0.61473 0
M  V30 564 H 52.1474 -4.16948 1.97362 0
M  V30 565 H 50.3904 -3.89073 1.91846 0
M  V30 566 H 51.0614 -5.37826 1.24285 0
M  V30 567 H 53.5374 -4.15378 -0.244939 0
M  V30 568 H 52.4134 -5.43537 -0.765406 0
M  V30 569 H 52.6744 -4.03875 -1.79827 0
M  V30 570 N 51.7335 -0.305618 -1.54608 0
M  V30 571 C 52.9585 0.307562 -2.05107 0
M  V30 572 C 53.3835 1.46385 -1.18123 0
M  V30 573 O 52.7415 1.8034 -0.186324 0
M  V30 574 C 52.7895 0.73704 -3.52987 0
M  V30 575 O 51.8935 1.84134 -3.6901 0
M  V30 576 H 51.2345 0.0589143 -0.661381 0
M  V30 577 H 53.7645 -0.448807 -1.99617 0
M  V30 578 H 53.7745 1.02459 -3.94925 0
M  V30 579 H 52.4495 -0.108773 -4.15758 0
M  V30 580 H 51.0265 1.55398 -3.38978 0
M  V30 581 N 53.2116 1.57565 -0.0334293 0
M  V30 582 C 54.1446 2.05997 0.981866 0
M  V30 583 C 55.1226 0.956647 1.3148 0
M  V30 584 O 56.3066 1.22729 1.43073 0
M  V30 585 C 53.4336 2.48564 2.30074 0
M  V30 586 C 52.4796 3.69958 2.12211 0
M  V30 587 S 53.3126 5.16414 1.41692 0
M  V30 588 C 54.4686 5.6228 2.7494 0
M  V30 589 H 54.7016 2.91792 0.569612 0
M  V30 590 H 52.2346 1.53366 0.178376 0
M  V30 591 H 54.1926 2.73753 3.05892 0
M  V30 592 H 52.8536 1.63106 2.68431 0
M  V30 593 H 52.0466 3.97603 3.09722 0
M  V30 594 H 51.6486 3.44943 1.44535 0
M  V30 595 H 53.9406 5.66783 3.71165 0
M  V30 596 H 54.8836 6.61759 2.51953 0
M  V30 597 H 55.2916 4.89944 2.80384 0
M  V30 598 N 54.6897 -0.239769 1.55765 0
M  V30 599 C 55.6397 -1.30002 1.87306 0
M  V30 600 C 56.6237 -1.43156 0.73452 0
M  V30 601 O 57.8157 -1.46277 0.99659 0
M  V30 602 C 54.9447 -2.65409 2.17745 0
M  V30 603 C 54.0307 -2.56231 3.37945 0
M  V30 604 N 54.4217 -2.16689 4.57033 0
M  V30 605 C 52.7197 -2.87229 3.41197 0
M  V30 606 C 53.4207 -2.18318 5.39177 0
M  V30 607 N 52.3967 -2.58098 4.78421 0
M  V30 608 H 56.1987 -0.984912 2.76906 0
M  V30 609 H 53.7127 -0.448381 1.56087 0
M  V30 610 H 55.7097 -3.41934 2.38509 0
M  V30 611 H 54.3697 -2.97781 1.29448 0
M  V30 612 H 55.3807 -1.88116 4.82528 0
M  V30 613 H 52.0577 -3.24094 2.63191 0
M  V30 614 H 53.4477 -1.90025 6.44469 0
M  V30 615 N 56.1678 -1.49265 -0.50573 0
M  V30 616 C 57.4078 -1.60128 -1.27038 0
M  V30 617 C 57.7718 -0.279557 -1.89954 0
M  V30 618 O 58.9728 -0.263329 -2.67507 0
M  V30 619 C 57.2438 -2.72507 -2.31246 0
M  V30 620 S 58.8028 -3.0329 -3.17113 0
M  V30 621 H 55.6208 -0.564863 -0.4318 0
M  V30 622 H 58.2228 -1.86902 -0.573397 0
M  V30 623 H 56.9268 -3.67068 -1.83546 0
M  V30 624 H 56.4578 -2.4771 -3.05619 0
M  V30 625 H 58.4728 -2.44448 -4.31809 0
M  V30 626 N 57.6459 0.756429 -1.3826 0
M  V30 627 C 58.8919 1.5168 -1.35517 0
M  V30 628 C 59.2469 1.9232 0.0554451 0
M  V30 629 O 58.5399 1.62352 1.01746 0
M  V30 630 C 58.7339 2.78313 -2.24224 0
M  V30 631 C 58.5629 2.50053 -3.7377 0
M  V30 632 C 57.3329 2.43414 -4.42807 0
M  V30 633 C 59.5309 2.1702 -4.66269 0
M  V30 634 N 57.5129 2.07398 -5.77805 0
M  V30 635 C 58.8839 1.91271 -5.89759 0
M  V30 636 C 60.9389 2.03305 -4.54501 0
M  V30 637 C 59.6419 1.53192 -7.02798 0
M  V30 638 C 61.6679 1.66627 -5.67441 0
M  V30 639 C 61.0299 1.4175 -6.8999 0
M  V30 640 H 57.1289 0.554735 -0.551174 0
M  V30 641 H 59.7129 0.881106 -1.73622 0
M  V30 642 H 57.8839 3.39696 -1.88311 0
M  V30 643 H 59.6159 3.44343 -2.12627 0
M  V30 644 H 56.3709 2.59789 -3.95988 0
M  V30 645 H 56.7949 1.92044 -6.4919 0
M  V30 646 H 61.4369 2.21215 -3.60311 0
M  V30 647 H 59.1549 1.34022 -7.96909 0
M  V30 648 H 62.7409 1.56652 -5.60314 0
M  V30 649 H 61.6209 1.1379 -7.759 0
M  V30 650 N 59.124 1.23083 0.984299 0
M  V30 651 C 60.056 0.96636 2.07832 0
M  V30 652 C 61.069 -0.0582135 1.62696 0
M  V30 653 O 62.258 0.176843 1.77622 0
M  V30 654 C 59.358 0.433397 3.36117 0
M  V30 655 C 58.531 1.51722 4.10243 0
M  V30 656 C 57.59 0.989821 5.16807 0
M  V30 657 O 56.616 1.67794 5.43906 0
M  V30 658 N 57.818 -0.184367 5.80207 0
M  V30 659 H 60.583 1.90824 2.31098 0
M  V30 660 H 58.144 1.13888 1.1507 0
M  V30 661 H 60.136 0.065699 4.04647 0
M  V30 662 H 58.706 -0.413806 3.09849 0
M  V30 663 H 57.926 2.05786 3.36223 0
M  V30 664 H 59.214 2.24619 4.56534 0
M  V30 665 H 58.612 -0.760062 5.60571 0
M  V30 666 H 57.169 -0.493366 6.4993 0
M  V30 667 N 60.6021 -1.18246 1.0419 0
M  V30 668 C 61.8501 -1.87886 0.744543 0
M  V30 669 C 62.1711 -1.8082 -0.730006 0
M  V30 670 O 61.4411 -1.22736 -1.52685 0
M  V30 671 H 60.0211 -0.695556 0.272417 0
M  V30 672 H 62.6831 -1.43494 1.31892 0
M  V30 673 H 61.7791 -2.9389 1.05049 0
M  V30 674 N 62.0802 -0.821533 -1.34494 0
M  V30 675 C 63.3572 -0.33159 -1.92769 0
M  V30 676 C 63.7372 1.18088 -1.74981 0
M  V30 677 O 63.0852 1.98733 -1.12772 0
M  V30 678 C 63.2952 -0.759398 -3.40638 0
M  V30 679 C 64.6432 -0.757433 -4.1779 0
M  V30 680 O 65.6672 -0.70189 -3.49216 0
M  V30 681 O 64.5262 -0.829361 -5.4017 0
M  V30 682 H 61.6202 -0.0902502 -0.822061 0
M  V30 683 H 64.1662 -0.906231 -1.43477 0
M  V30 684 H 62.9382 -1.8012 -3.47379 0
M  V30 685 H 62.5612 -0.160378 -3.97276 0
M  V30 686 N 63.5583 1.46682 -0.576371 0
M  V30 687 C 64.8353 1.95599 0.00703437 0
M  V30 688 C 65.2153 1.51904 1.46589 0
M  V30 689 O 64.5633 0.766755 2.15251 0
M  V30 690 C 64.7733 3.4864 -0.158404 0
M  V30 691 C 66.1213 4.24594 -0.0229439 0
M  V30 692 O 67.1453 3.56094 -0.0869173 0
M  V30 693 O 66.0043 5.46373 0.118015 0
M  V30 694 H 63.0983 0.825275 0.053384 0
M  V30 695 H 65.6443 1.56996 -0.644244 0
M  V30 696 H 64.4163 3.7331 -1.17282 0
M  V30 697 H 64.0393 3.94057 0.5296 0
M  V30 698 N 65.0364 0.313813 1.54444 0
M  V30 699 C 66.2824 -0.292108 2.00685 0
M  V30 700 C 66.6154 -1.52548 1.20177 0
M  V30 701 O 65.8904 -1.92452 0.281531 0
M  V30 702 C 66.1734 -0.635968 3.5444 0
M  V30 703 C 66.0264 0.607437 4.4568 0
M  V30 704 C 67.3454 -1.45747 4.15266 0
M  V30 705 H 64.4644 -0.104697 0.729526 0
M  V30 706 H 67.1064 0.428457 1.85106 0
M  V30 707 H 65.2564 -1.24986 3.67846 0
M  V30 708 H 66.9284 1.24581 4.44159 0
M  V30 709 H 65.1714 1.23822 4.15753 0
M  V30 710 H 65.8424 0.322515 5.51057 0
M  V30 711 H 68.3184 -0.938645 4.05375 0
M  V30 712 H 67.1944 -1.66683 5.2298 0
M  V30 713 H 67.4554 -2.45063 3.67963 0
M  V30 714 N 66.5145 -1.57545 0.0417849 0
M  V30 715 C 67.7395 -1.97035 -0.647455 0
M  V30 716 C 68.1645 -0.918775 -1.64135 0
M  V30 717 O 67.5225 0.119006 -1.80909 0
M  V30 718 C 67.5705 -3.35609 -1.31905 0
M  V30 719 O 66.6745 -3.3287 -2.43457 0
M  V30 720 H 66.0155 -0.64211 -0.169086 0
M  V30 721 H 68.5455 -2.04318 0.107399 0
M  V30 722 H 68.5555 -3.72126 -1.67291 0
M  V30 723 H 67.2305 -4.11685 -0.590586 0
M  V30 724 H 65.8075 -3.08087 -2.10088 0
M  V30 725 N 67.9926 0.231505 -1.5589 0
M  V30 726 C 69.2406 0.955461 -1.78088 0
M  V30 727 C 69.5616 1.85262 -0.608533 0
M  V30 728 O 68.8316 1.92277 0.375035 0
M  V30 729 H 67.4116 0.355787 -0.656829 0
M  V30 730 H 70.0736 0.245751 -1.93344 0
M  V30 731 H 69.1696 1.56814 -2.69844 0
M  V30 732 N 69.4707 1.49531 0.497807 0
M  V30 733 C 70.7177 1.59179 1.25173 0
M  V30 734 C 71.0457 0.279932 1.92475 0
M  V30 735 O 70.3007 -0.732383 1.81479 0
M  V30 736 C 70.5997 2.70252 2.33878 0
M  V30 737 C 70.2657 4.11644 1.84012 0
M  V30 738 C 68.9277 4.50121 1.70132 0
M  V30 739 C 71.2797 5.00121 1.46725 0
M  V30 740 C 68.6077 5.74845 1.17348 0
M  V30 741 C 70.9597 6.25366 0.95392 0
M  V30 742 C 69.6237 6.6267 0.801538 0
M  V30 743 H 68.8937 0.582478 0.45804 0
M  V30 744 H 71.5407 1.83373 0.551948 0
M  V30 745 H 69.8457 2.40041 3.09657 0
M  V30 746 H 71.5427 2.74925 2.9192 0
M  V30 747 H 68.1327 3.81274 1.95775 0
M  V30 748 H 72.3167 4.71048 1.56294 0
M  V30 749 H 67.5727 6.02444 1.04264 0
M  V30 750 H 71.7467 6.93301 0.656225 0
M  V30 751 H 69.3737 7.59197 0.390351 0
M  V30 752 N 70.9488 -0.749086 1.3866 0
M  V30 753 C 71.8588 -1.89358 1.38494 0
M  V30 754 C 72.8748 -1.71708 0.281476 0
M  V30 755 O 74.0508 -1.94554 0.520643 0
M  V30 756 C 71.1158 -3.24782 1.21316 0
M  V30 757 C 70.1768 -3.54926 2.41508 0
M  V30 758 C 69.4098 -4.83888 2.2514 0
M  V30 759 O 69.6328 -5.56592 1.24746 0
M  V30 760 O 68.5668 -5.13612 3.13826 0
M  V30 761 H 72.3928 -1.92452 2.34938 0
M  V30 762 H 69.9778 -0.894981 1.19626 0
M  V30 763 H 71.8598 -4.05739 1.13814 0
M  V30 764 H 70.5348 -3.2249 0.279592 0
M  V30 765 H 69.4418 -2.74112 2.54585 0
M  V30 766 H 70.7748 -3.61983 3.3351 0
M  V30 767 N 72.4269 -1.23603 -0.977757 0
M  V30 768 C 73.3749 -1.01704 -2.09187 0
M  V30 769 C 74.3689 0.0448214 -1.69341 0
M  V30 770 O 75.5749 -0.108902 -1.7967 0
M  V30 771 H 71.9499 -0.311803 -0.684312 0
M  V30 772 H 73.9209 -1.96207 -2.24823 0
M  V30 773 C 72.6699 -0.627746 -3.41986 0
M  V30 774 H 71.9929 -1.43656 -3.73099 0
M  V30 775 H 73.4329 -0.514053 -4.20872 0
M  V30 776 C 71.8919 0.664238 -3.30287 0
M  V30 777 O 72.4219 1.71268 -3.6336 0
M  V30 778 N 70.6279 0.641156 -2.83439 0
M  V30 779 H 70.1749 -0.212376 -2.56723 0
M  V30 780 H 70.1329 1.50583 -2.75993 0
M  V30 781 N 73.905 1.17692 -1.04816 0
M  V30 782 C 75.316 1.69501 -0.782698 0
M  V30 783 C 75.667 1.83456 0.695577 0
M  V30 784 O 74.792 1.51942 1.54086 0
M  V30 785 C 75.387 3.07874 -1.41419 0
M  V30 786 C 73.946 3.56864 -1.19686 0
M  V30 787 C 73.093 2.3322 -1.50012 0
M  V30 788 H 76.044 1.02262 -1.2136 0
M  V30 789 H 76.065 3.71528 -0.821428 0
M  V30 790 H 75.577 2.97685 -2.49009 0
M  V30 791 H 73.678 3.72337 -0.140043 0
M  V30 792 H 73.791 4.39851 -1.89916 0
M  V30 793 H 72.155 2.37501 -0.920071 0
M  V30 794 H 72.938 2.25644 -2.58727 0
M  V30 795 N 75.3831 0.828654 1.34056 0
M  V30 796 C 76.2931 0.256725 2.33191 0
M  V30 797 C 77.3091 -0.611898 1.62886 0
M  V30 798 O 78.4851 -0.51844 1.94613 0
M  V30 799 C 75.5501 -0.567238 3.42028 0
M  V30 800 C 74.6111 0.324458 4.28072 0
M  V30 801 C 73.8441 -0.460274 5.31712 0
M  V30 802 O 74.0671 -1.693 5.44696 0
M  V30 803 O 73.0011 0.160391 6.01686 0
M  V30 804 H 76.8271 1.07739 2.83947 0
M  V30 805 H 74.4121 0.59093 1.37217 0
M  V30 806 H 76.2941 -1.03582 4.08471 0
M  V30 807 H 74.9691 -1.36513 2.93506 0
M  V30 808 H 73.8761 0.840659 3.64532 0
M  V30 809 H 75.2091 1.08685 4.8005 0
M  V30 810 N 76.8612 -1.46375 0.584142 0
M  V30 811 C 78.1092 -2.01978 0.0701287 0
M  V30 812 C 78.4302 -1.4579 -1.295 0
M  V30 813 O 77.7002 -0.64314 -1.85042 0
M  V30 814 H 76.2802 -0.746648 0.0229345 0
M  V30 815 H 78.9422 -1.79461 0.760245 0
M  V30 816 H 78.0382 -3.121 0.0022064 0
M  V30 817 N 78.3393 -0.321999 -1.54275 0
M  V30 818 C 79.5643 0.285791 -2.05422 0
M  V30 819 C 79.9893 1.45124 -1.19669 0
M  V30 820 O 79.3473 1.80132 -0.205441 0
M  V30 821 C 79.3953 0.69956 -3.53749 0
M  V30 822 O 78.4993 1.8021 -3.70942 0
M  V30 823 H 77.8403 0.0518962 -0.661969 0
M  V30 824 H 80.3703 -0.469954 -1.9913 0
M  V30 825 H 80.3803 0.982649 -3.9599 0
M  V30 826 H 79.0553 -0.152864 -4.15619 0
M  V30 827 H 77.6323 1.51794 -3.40607 0
M  V30 828 N 79.8174 1.5752 -0.0501392 0
M  V30 829 C 80.7474 2.14502 0.922566 0
M  V30 830 C 81.7284 1.06642 1.3252 0
M  V30 831 O 82.9134 1.34577 1.4001 0
M  V30 832 C 80.0434 2.68916 2.19776 0
M  V30 833 C 78.9974 3.8175 1.93523 0
M  V30 834 C 78.3234 4.22677 3.27487 0
M  V30 835 C 79.6234 5.06932 1.25765 0
M  V30 836 H 81.3174 2.9603 0.447952 0
M  V30 837 H 78.8634 1.42401 0.214024 0
M  V30 838 H 80.8164 3.07419 2.88222 0
M  V30 839 H 79.5404 1.84578 2.69441 0
M  V30 840 H 78.1994 3.43718 1.27489 0
M  V30 841 H 77.8474 3.35291 3.74952 0
M  V30 842 H 77.5474 4.98725 3.1072 0
M  V30 843 H 79.0714 4.63779 3.97166 0
M  V30 844 H 80.4854 5.42888 1.84244 0
M  V30 845 H 78.8824 5.88116 1.19328 0
M  V30 846 H 79.9524 4.84337 0.233536 0
M  V30 847 N 81.2955 -0.223234 1.56011 0
M  V30 848 C 82.5235 -0.964812 1.83027 0
M  V30 849 C 82.9385 -1.78013 0.62904 0
M  V30 850 O 82.2955 -1.78008 -0.402414 0
M  V30 851 C 82.3465 -1.88373 3.08542 0
M  V30 852 O 82.0675 -1.10137 4.2403 0
M  V30 853 C 83.5685 -2.73934 3.48533 0
M  V30 854 H 80.7885 -0.282842 0.608475 0
M  V30 855 H 83.3325 -0.238971 2.03099 0
M  V30 856 H 81.4875 -2.56354 2.9045 0
M  V30 857 H 81.9015 -1.72501 4.95322 0
M  V30 858 H 83.3755 -3.34117 4.39397 0
M  V30 859 H 83.8525 -3.46244 2.70207 0
M  V30 860 H 84.4585 -2.11369 3.69057 0
M  V30 861 N 82.7736 -1.49793 -0.48987 0
M  V30 862 C 84.0216 -1.59525 -1.24081 0
M  V30 863 C 84.3426 -0.288953 -1.92847 0
M  V30 864 O 83.6126 0.692436 -1.83254 0
M  V30 865 H 82.1926 -0.587796 -0.460983 0
M  V30 866 H 84.8546 -1.86477 -0.566778 0
M  V30 867 H 83.9506 -2.39696 -1.99881 0
M  V30 868 N 84.2517 0.741722 -1.39055 0
M  V30 869 C 85.4997 1.49818 -1.35643 0
M  V30 870 C 85.8207 1.94938 0.0491642 0
M  V30 871 O 85.0907 1.68505 0.999141 0
M  V30 872 H 83.6707 0.555755 -0.499144 0
M  V30 873 H 86.3327 0.880957 -1.73854 0
M  V30 874 H 85.4287 2.38348 -2.01486 0
M  V30 875 N 85.7298 1.2412 0.971189 0
M  V30 876 C 86.9788 1.07284 1.70801 0
M  V30 877 C 87.2918 -0.388902 1.91695 0
M  V30 878 O 88.4978 -0.677379 2.62914 0
M  V30 879 C 86.9538 1.87145 3.07416 0
M  V30 880 C 86.5618 3.37707 2.94377 0
M  V30 881 C 88.3058 1.78828 3.84995 0
M  V30 882 C 86.2128 4.09925 4.26281 0
M  V30 883 H 85.1428 0.397854 0.64049 0
M  V30 884 H 87.7938 1.4817 1.0825 0
M  V30 885 H 86.1758 1.39071 3.70777 0
M  V30 886 H 87.3498 3.93335 2.4005 0
M  V30 887 H 85.6648 3.46938 2.30267 0
M  V30 888 H 88.2618 2.30089 4.82662 0
M  V30 889 H 88.6048 0.75284 4.09436 0
M  V30 890 H 89.1378 2.24563 3.28354 0
M  V30 891 H 85.8768 5.13813 4.07033 0
M  V30 892 H 85.3968 3.59083 4.80437 0
M  V30 893 H 87.0758 4.1673 4.94919 0
M  V30 894 N 87.2079 -1.17134 1.05439 0
M  V30 895 C 88.1399 -2.2078 0.615539 0
M  V30 896 C 89.1529 -1.59584 -0.322001 0
M  V30 897 O 90.3419 -1.78133 -0.114344 0
M  V30 898 C 87.4419 -3.38691 -0.118938 0
M  V30 899 C 86.6149 -4.29454 0.829924 0
M  V30 900 C 85.6739 -5.26024 0.136258 0
M  V30 901 O 84.6999 -5.63952 0.77115 0
M  V30 902 N 85.9019 -5.69487 -1.1254 0
M  V30 903 H 88.6669 -2.59052 1.50705 0
M  V30 904 H 86.2279 -1.32058 0.936603 0
M  V30 905 H 88.2199 -4.00329 -0.593179 0
M  V30 906 H 86.7899 -2.98996 -0.91215 0
M  V30 907 H 86.0099 -3.65211 1.48373 0
M  V30 908 H 87.2979 -4.86984 1.47392 0
M  V30 909 H 86.6959 -5.4075 -1.6615 0
M  V30 910 H 85.2529 -6.33257 -1.54366 0
M  V30 911 N 88.686 -0.835752 -1.33615 0
M  V30 912 C 89.649 -0.272 -2.2758 0
M  V30 913 C 90.649 0.557487 -1.50827 0
M  V30 914 O 91.839 0.37173 -1.70188 0
M  V30 915 C 88.971 0.617173 -3.35267 0
M  V30 916 H 90.164 -1.10111 -2.78954 0
M  V30 917 H 87.717 -0.608594 -1.43965 0
M  V30 918 H 88.452 1.46884 -2.89129 0
M  V30 919 H 88.237 0.0237066 -3.92093 0
M  V30 920 H 89.727 1.005 -4.05326 0
M  V30 921 N 90.1641 1.46063 -0.591896 0
M  V30 922 C 91.3921 2.06717 -0.0868936 0
M  V30 923 C 91.8071 1.43916 1.22203 0
M  V30 924 O 91.1641 0.547698 1.74088 0
M  V30 925 C 91.2151 3.6142 0.0758725 0
M  V30 926 O 90.9361 4.21874 -1.18126 0
M  V30 927 C 92.4371 4.39025 0.61416 0
M  V30 928 H 89.6571 0.668162 -0.0616518 0
M  V30 929 H 92.2011 1.8755 -0.815175 0
M  V30 930 H 90.3561 3.79983 0.754413 0
M  V30 931 H 90.7701 5.14861 -1.00092 0
M  V30 932 H 92.2441 5.4783 0.677193 0
M  V30 933 H 92.7211 4.07708 1.63312 0
M  V30 934 H 93.3271 4.2529 -0.0298142 0
M  V30 935 N 91.6422 0.330177 1.54103 0
M  V30 936 C 92.8902 -0.269871 2.0029 0
M  V30 937 C 93.2112 -1.52133 1.21986 0
M  V30 938 O 92.4812 -1.93212 0.323438 0
M  V30 939 H 91.0612 -0.10271 0.739905 0
M  V30 940 H 93.7232 0.448249 1.89675 0
M  V30 941 H 92.8192 -0.52166 3.07709 0
M  V30 942 N 93.1203 -1.57491 0.0584922 0
M  V30 943 C 94.0683 -2.13148 -0.931168 0
M  V30 944 C 95.0623 -1.06507 -1.31729 0
M  V30 945 O 96.2683 -1.24906 -1.29609 0
M  V30 946 H 92.6433 -0.68137 -0.31818 0
M  V30 947 H 94.6143 -2.95187 -0.436707 0
M  V30 948 C 93.3633 -2.69732 -2.19408 0
M  V30 949 H 92.6863 -3.51454 -1.90578 0
M  V30 950 H 94.1263 -3.12287 -2.86798 0
M  V30 951 C 92.5853 -1.63855 -2.94369 0
M  V30 952 O 93.1153 -1.05565 -3.87581 0
M  V30 953 N 91.3213 -1.35202 -2.57233 0
M  V30 954 H 90.8683 -1.82791 -1.81508 0
M  V30 955 H 90.8263 -0.645922 -3.07693 0
M  V30 956 N 94.5984 0.214957 -1.56127 0
M  V30 957 C 95.8284 0.953707 -1.8327 0
M  V30 958 C 96.2364 1.78181 -0.636262 0
M  V30 959 O 95.5794 1.79191 0.404516 0
M  V30 960 C 95.6414 1.91516 -3.0424 0
M  V30 961 C 95.3054 1.27094 -4.38972 0
M  V30 962 C 96.3024 0.657575 -5.15725 0
M  V30 963 C 93.9874 1.28073 -4.85698 0
M  V30 964 C 95.9814 0.0625968 -6.37369 0
M  V30 965 C 93.6684 0.681914 -6.07283 0
M  V30 966 C 94.6664 0.0739046 -6.8296 0
M  V30 967 O 94.3544 -0.515582 -8.02245 0
M  V30 968 H 94.0864 0.284764 -0.613095 0
M  V30 969 H 96.6404 0.233283 -2.04071 0
M  V30 970 H 94.8704 2.67475 -2.79274 0
M  V30 971 H 96.5594 2.52001 -3.18198 0
M  V30 972 H 97.3254 0.642288 -4.80728 0
M  V30 973 H 93.2044 1.74337 -4.26764 0
M  V30 974 H 96.7484 -0.412593 -6.96379 0
M  V30 975 H 92.6454 0.694636 -6.41752 0
M  V30 976 H 93.4134 -0.410544 -8.1747 0
M  V30 977 N 96.0765 1.50051 0.48192 0
M  V30 978 C 97.4875 1.5348 1.06305 0
M  V30 979 C 97.8385 0.331997 1.93371 0
M  V30 980 O 96.9635 -0.556256 2.09129 0
M  V30 981 C 97.5585 2.7813 1.93466 0
M  V30 982 C 96.1175 2.84275 2.46707 0
M  V30 983 C 95.2645 2.47637 1.24785 0
M  V30 984 H 98.2155 1.56472 0.264995 0
M  V30 985 H 98.2365 2.59372 2.78399 0
M  V30 986 H 97.7485 3.65654 1.30072 0
M  V30 987 H 95.8495 2.01077 3.13686 0
M  V30 988 H 95.9625 3.8691 2.82555 0
M  V30 989 H 94.3265 1.99835 1.57918 0
M  V30 990 H 95.1095 3.37457 0.630694 0
M  V30 991 N 97.5546 -0.734337 1.39446 0
M  V30 992 C 98.8026 -1.49096 1.36436 0
M  V30 993 C 99.1236 -1.94961 -0.0388255 0
M  V30 994 O 98.3936 -1.69033 -0.990191 0
M  V30 995 H 96.9736 -0.5531 0.502085 0
M  V30 996 H 99.6356 -0.871725 1.74319 0
M  V30 997 H 98.7316 -2.37276 2.02747 0
M  V30 998 N 99.0327 -1.24633 -0.964593 0
M  V30 999 C 99.9797 -1.04144 -2.05968 0
M  V30 1000 C 100.95 0.046262 -1.66036 0
M  V30 1001 O 102.135 -0.108972 -1.90489 0
M  V30 1002 C 99.2747 -0.65563 -3.38815 0
M  V30 1003 C 98.3877 -1.81714 -3.91923 0
M  V30 1004 C 97.5227 -1.37662 -5.13052 0
M  V30 1005 C 96.5617 -2.50788 -5.58365 0
M  V30 1006 N 95.6987 -2.07582 -6.70712 0
M  V30 1007 H 100.539 -1.9787 -2.22827 0
M  V30 1008 H 98.0757 -0.9855 -1.09208 0
M  V30 1009 H 100.034 -0.412954 -4.15151 0
M  V30 1010 H 98.6637 0.244627 -3.21872 0
M  V30 1011 H 97.7157 -2.1734 -3.12198 0
M  V30 1012 H 99.0277 -2.66705 -4.21509 0
M  V30 1013 H 98.1817 -1.093 -5.96773 0
M  V30 1014 H 96.9207 -0.497293 -4.85158 0
M  V30 1015 H 95.9257 -2.79906 -4.73215 0
M  V30 1016 H 97.1507 -3.39283 -5.88272 0
M  V30 1017 H 95.0967 -1.22051 -6.44546 0
M  V30 1018 H 95.0137 -2.86125 -6.99763 0
M  V30 1019 H 96.2817 -1.82369 -7.57867 0
M  V30 1020 N 100.511 1.16574 -1.06058 0
M  V30 1021 C 101.474 2.19085 -0.673392 0
M  V30 1022 C 102.474 1.5835 0.279648 0
M  V30 1023 O 103.664 1.74088 0.0623488 0
M  V30 1024 C 100.796 3.40899 0.00954234 0
M  V30 1025 H 101.989 2.54853 -1.58081 0
M  V30 1026 H 99.5418 1.30808 -0.855516 0
M  V30 1027 H 100.277 3.10684 0.929826 0
M  V30 1028 H 100.062 3.86233 -0.67573 0
M  V30 1029 H 101.552 4.1675 0.266245 0
M  V30 1030 N 101.989 0.842826 1.3317 0
M  V30 1031 C 103.405 0.531128 1.50503 0
M  V30 1032 C 103.605 -0.940734 1.78192 0
M  V30 1033 O 102.661 -1.72436 1.84451 0
M  V30 1034 C 103.974 1.40789 2.65705 0
M  V30 1035 C 105.522 1.40708 2.79589 0
M  V30 1036 C 105.997 2.26878 3.97857 0
M  V30 1037 N 107.488 2.24609 4.05099 0
M  V30 1038 C 108.223 2.88019 4.95815 0
M  V30 1039 N 107.719 3.60496 5.9162 0
M  V30 1040 N 109.512 2.77469 4.88843 0
M  V30 1041 H 101.663 1.79557 1.1346 0
M  V30 1042 H 103.926 0.766267 0.558156 0
M  V30 1043 H 103.632 2.454 2.51936 0
M  V30 1044 H 103.506 1.08677 3.61205 0
M  V30 1045 H 105.893 0.368668 2.92788 0
M  V30 1046 H 105.974 1.76829 1.84838 0
M  V30 1047 H 105.618 3.3078 3.85418 0
M  V30 1048 H 105.548 1.88096 4.91861 0
M  V30 1049 H 108.039 1.71906 3.36536 0
M  V30 1050 H 108.352 4.06076 6.57512 0
M  V30 1051 H 106.697 3.64604 5.91683 0
M  V30 1052 H 109.888 2.20406 4.12963 0
M  V30 1053 H 110.061 3.2717 5.59342 0
M  V30 1054 N 103.467 -1.45747 0.599634 0
M  V30 1055 C 104.415 -2.322 -0.136426 0
M  V30 1056 C 105.409 -1.45497 -0.867583 0
M  V30 1057 O 106.615 -1.62027 -0.78405 0
M  V30 1058 H 102.99 -0.749368 -0.0628588 0
M  V30 1059 H 104.961 -2.92072 0.611281 0
M  V30 1060 C 103.71 -3.28974 -1.12567 0
M  V30 1061 H 103.033 -3.9568 -0.572484 0
M  V30 1062 H 104.473 -3.92212 -1.61077 0
M  V30 1063 C 102.932 -2.55561 -2.19523 0
M  V30 1064 O 103.462 -2.33111 -3.27143 0
M  V30 1065 N 101.668 -2.15832 -1.94589 0
M  V30 1066 H 101.215 -2.3429 -1.07078 0
M  V30 1067 H 101.173 -1.67034 -2.66359 0
M  V30 1068 N 104.945 -0.338344 -1.53925 0
M  V30 1069 C 105.908 0.508299 -2.23493 0
M  V30 1070 C 106.908 1.03175 -1.23335 0
M  V30 1071 O 108.098 0.921826 -1.47811 0
M  V30 1072 C 105.23 1.70754 -2.95052 0
M  V30 1073 H 106.423 -0.100058 -2.99733 0
M  V30 1074 H 103.976 -0.0896198 -1.56043 0
M  V30 1075 H 104.711 2.35474 -2.22986 0
M  V30 1076 H 104.496 1.33946 -3.68512 0
M  V30 1077 H 105.986 2.30818 -3.48013 0
M  V30 1078 N 106.423 1.57458 -0.0668435 0
M  V30 1079 C 107.648 1.9804 0.616027 0
M  V30 1080 C 108.073 0.944771 1.62652 0
M  V30 1081 O 107.431 -0.0902094 1.81075 0
M  V30 1082 C 107.479 3.37665 1.26549 0
M  V30 1083 O 106.583 3.36701 2.38131 0
M  V30 1084 H 105.924 0.644719 0.158849 0
M  V30 1085 H 108.454 2.04121 -0.139891 0
M  V30 1086 H 108.464 3.7474 1.6135 0
M  V30 1087 H 107.139 4.12573 0.525016 0
M  V30 1088 H 105.716 3.1139 2.0516 0
M  V30 1089 N 107.901 -0.206675 1.56239 0
M  V30 1090 C 108.811 -1.27686 1.96808 0
M  V30 1091 C 109.827 -1.50455 0.874035 0
M  V30 1092 O 111.003 -1.63295 1.17884 0
M  V30 1093 C 108.068 -2.60358 2.28942 0
M  V30 1094 C 107.129 -2.45762 3.51994 0
M  V30 1095 C 106.362 -3.72108 3.82585 0
M  V30 1096 O 106.585 -4.75776 3.14631 0
M  V30 1097 O 105.519 -3.6833 4.76043 0
M  V30 1098 H 109.345 -0.962593 2.88041 0
M  V30 1099 H 106.93 -0.410746 1.43643 0
M  V30 1100 H 108.812 -3.38687 2.50737 0
M  V30 1101 H 107.487 -2.91435 1.4088 0
M  V30 1102 H 106.394 -1.65584 3.35459 0
M  V30 1103 H 107.727 -2.19621 4.40486 0
M  V30 1104 N 109.379 -1.50304 -0.473955 0
M  V30 1105 C 110.309 -1.71886 -1.58042 0
M  V30 1106 C 111.29 -0.567799 -1.60344 0
M  V30 1107 O 112.475 -0.806623 -1.76656 0
M  V30 1108 C 109.605 -1.81036 -2.96384 0
M  V30 1109 C 108.559 -2.962 -3.08949 0
M  V30 1110 C 107.885 -2.9049 -4.48909 0
M  V30 1111 C 109.185 -4.36752 -2.86434 0
M  V30 1112 H 110.879 -2.64527 -1.40234 0
M  V30 1113 H 108.425 -1.27295 -0.673201 0
M  V30 1114 H 110.378 -1.94719 -3.73714 0
M  V30 1115 H 109.102 -0.850147 -3.15341 0
M  V30 1116 H 107.761 -2.82164 -2.3405 0
M  V30 1117 H 107.409 -1.92321 -4.64781 0
M  V30 1118 H 107.109 -3.67802 -4.58253 0
M  V30 1119 H 108.633 -3.06218 -5.28264 0
M  V30 1120 H 110.047 -4.5133 -3.53517 0
M  V30 1121 H 108.444 -5.15493 -3.07225 0
M  V30 1122 H 109.514 -4.49321 -1.82316 0
M  V30 1123 N 110.857 0.726932 -1.39834 0
M  V30 1124 C 112.273 1.03354 -1.21615 0
M  V30 1125 C 112.473 2.01327 -0.08338 0
M  V30 1126 O 111.529 2.46158 0.56238 0
M  V30 1127 C 112.842 1.58811 -2.55342 0
M  V30 1128 C 114.39 1.70851 -2.62257 0
M  V30 1129 C 114.865 2.29716 -3.96225 0
M  V30 1130 N 116.356 2.37116 -3.97907 0
M  V30 1131 C 117.091 2.83619 -4.98345 0
M  V30 1132 N 116.587 3.29958 -6.09179 0
M  V30 1133 N 118.38 2.82901 -4.8572 0
M  V30 1134 H 110.531 0.0773069 -2.12259 0
M  V30 1135 H 112.794 0.0969102 -0.943034 0
M  V30 1136 H 112.5 0.942855 -3.38826 0
M  V30 1137 H 112.374 2.57502 -2.75632 0
M  V30 1138 H 114.761 2.34497 -1.79152 0
M  V30 1139 H 114.842 0.707913 -2.45809 0
M  V30 1140 H 114.486 1.66696 -4.79765 0
M  V30 1141 H 114.416 3.30469 -4.09997 0
M  V30 1142 H 116.907 2.04374 -3.17868 0
M  V30 1143 H 117.22 3.63976 -6.8172 0
M  V30 1144 H 115.565 3.27946 -6.12761 0
M  V30 1145 H 118.756 2.46027 -3.98231 0
M  V30 1146 H 118.929 3.18827 -5.6414 0
M  V30 1147 N 112.336 1.25143 0.95797 0
M  V30 1148 C 113.299 1.05321 2.03569 0
M  V30 1149 C 114.299 0.007152 1.60798 0
M  V30 1150 O 115.489 0.24903 1.72411 0
M  V30 1151 C 112.621 0.598394 3.35607 0
M  V30 1152 H 113.814 2.00986 2.22586 0
M  V30 1153 H 111.367 1.07502 1.13459 0
M  V30 1154 H 112.102 -0.361014 3.22284 0
M  V30 1155 H 111.887 1.35351 3.67998 0
M  V30 1156 H 113.377 0.48104 4.1482 0
M  V30 1157 N 113.814 -1.1601 1.06675 0
M  V30 1158 C 115.091 -1.82679 0.699114 0
M  V30 1159 C 115.471 -1.94559 -0.819137 0
M  V30 1160 O 114.819 -1.49169 -1.73092 0
M  V30 1161 C 115.029 -3.19445 1.40555 0
M  V30 1162 C 116.377 -3.95171 1.55323 0
M  V30 1163 O 117.401 -3.28976 1.36577 0
M  V30 1164 O 116.26 -5.13833 1.86112 0
M  V30 1165 H 113.354 -0.788954 0.247951 0
M  V30 1166 H 115.9 -1.23179 1.16726 0
M  V30 1167 H 114.672 -3.05856 2.44065 0
M  V30 1168 H 114.295 -3.86625 0.927733 0
M  V30 1169 N 115.292 -0.849877 -1.32721 0
M  V30 1170 C 116.222 -0.306308 -2.31482 0
M  V30 1171 C 117.203 0.591952 -1.59468 0
M  V30 1172 O 118.388 0.513199 -1.87296 0
M  V30 1173 C 115.518 0.510204 -3.43532 0
M  V30 1174 C 114.472 -0.293209 -4.26994 0
M  V30 1175 C 113.798 0.647743 -5.30762 0
M  V30 1176 C 115.098 -1.51634 -4.99804 0
M  V30 1177 H 116.792 -1.13153 -2.77195 0
M  V30 1178 H 114.338 -0.545553 -1.33266 0
M  V30 1179 H 116.291 0.900856 -4.11658 0
M  V30 1180 H 115.015 1.36874 -2.96535 0
M  V30 1181 H 113.674 -0.665555 -3.60508 0
M  V30 1182 H 113.322 1.50299 -4.8002 0
M  V30 1183 H 113.022 0.11422 -5.87489 0
M  V30 1184 H 114.546 1.03567 -6.01753 0
M  V30 1185 H 115.96 -1.19824 -5.60638 0
M  V30 1186 H 114.357 -1.98745 -5.66234 0
M  V30 1187 H 115.427 -2.28018 -4.27943 0
M  V30 1188 N 116.77 1.45427 -0.607355 0
M  V30 1189 C 117.68 2.34325 0.113463 0
M  V30 1190 C 118.696 1.51226 0.860617 0
M  V30 1191 O 119.872 1.84029 0.818255 0
M  V30 1192 C 116.937 3.28839 1.09844 0
M  V30 1193 C 115.998 4.27844 0.353271 0
M  V30 1194 C 115.231 5.17842 1.29133 0
M  V30 1195 O 115.454 5.11264 2.52913 0
M  V30 1196 O 114.388 5.96713 0.788523 0
M  V30 1197 H 118.214 2.97364 -0.617094 0
M  V30 1198 H 115.799 1.44807 -0.367619 0
M  V30 1199 H 117.681 3.8708 1.66575 0
M  V30 1200 H 116.356 2.68365 1.81003 0
M  V30 1201 H 115.263 3.7322 -0.256494 0
M  V30 1202 H 116.596 4.91173 -0.317822 0
M  V30 1203 N 118.248 0.346503 1.53744 0
M  V30 1204 C 119.18 -0.543316 2.22667 0
M  V30 1205 C 120.193 -1.06159 1.23427 0
M  V30 1206 O 121.382 -0.971235 1.49764 0
M  V30 1207 C 118.482 -1.76076 2.89569 0
M  V30 1208 C 117.655 -1.37727 4.15151 0
M  V30 1209 C 116.714 -2.45471 4.65436 0
M  V30 1210 O 115.74 -2.08655 5.29577 0
M  V30 1211 N 116.942 -3.7677 4.41616 0
M  V30 1212 H 119.707 0.0469703 2.99663 0
M  V30 1213 H 117.268 0.170766 1.60997 0
M  V30 1214 H 119.26 -2.47593 3.20125 0
M  V30 1215 H 117.83 -2.25835 2.16142 0
M  V30 1216 H 117.05 -0.492746 3.91108 0
M  V30 1217 H 118.338 -1.09708 4.96832 0
M  V30 1218 H 117.736 -4.09467 3.90325 0
M  V30 1219 H 116.293 -4.44448 4.7677 0
M  V30 1220 N 119.726 -1.57421 0.075193 0
M  V30 1221 C 120.689 -2.11791 -0.876203 0
M  V30 1222 C 121.689 -1.04268 -1.22412 0
M  V30 1223 O 122.879 -1.30242 -1.15684 0
M  V30 1224 C 120.011 -2.62207 -2.17854 0
M  V30 1225 H 121.204 -2.9716 -0.40444 0
M  V30 1226 H 118.757 -1.55333 -0.173557 0
M  V30 1227 H 119.492 -1.803 -2.6956 0
M  V30 1228 H 119.277 -3.40802 -1.93897 0
M  V30 1229 H 120.767 -3.04335 -2.85955 0
M  V30 1230 N 121.204 0.198386 -1.56346 0
M  V30 1231 C 122.137 1.27381 -1.89339 0
M  V30 1232 C 123.115 1.44106 -0.753134 0
M  V30 1233 O 124.299 1.59549 -1.00381 0
M  V30 1234 C 121.426 2.6409 -2.12071 0
M  V30 1235 C 120.472 2.64253 -3.34772 0
M  V30 1236 S 121.305 2.16013 -4.89999 0
M  V30 1237 C 122.461 3.54553 -5.15794 0
M  V30 1238 H 122.694 0.992058 -2.8026 0
M  V30 1239 H 120.227 0.401726 -1.49082 0
M  V30 1240 H 122.185 3.42786 -2.2585 0
M  V30 1241 H 120.846 2.89478 -1.21906 0
M  V30 1242 H 120.039 3.64768 -3.47794 0
M  V30 1243 H 119.641 1.93637 -3.1997 0
M  V30 1244 H 121.933 4.50396 -5.06112 0
M  V30 1245 H 122.876 3.46428 -6.1757 0
M  V30 1246 H 123.284 3.49313 -4.43442 0
M  V30 1247 N 122.682 1.50554 0.465978 0
M  V30 1248 C 124.098 1.38093 0.800154 0
M  V30 1249 C 124.298 0.440988 1.96615 0
M  V30 1250 O 123.354 -0.114499 2.5224 0
M  V30 1251 C 124.667 2.79565 1.10742 0
M  V30 1252 C 126.215 2.88516 1.21357 0
M  V30 1253 C 126.69 4.30833 1.55393 0
M  V30 1254 N 128.181 4.33807 1.62375 0
M  V30 1255 C 128.916 5.40927 1.90225 0
M  V30 1256 N 128.412 6.58247 2.16062 0
M  V30 1257 N 130.205 5.28376 1.9177 0
M  V30 1258 H 122.356 2.10237 -0.302366 0
M  V30 1259 H 124.619 0.945203 -0.0727746 0
M  V30 1260 H 124.325 3.50208 0.323661 0
M  V30 1261 H 124.199 3.17125 2.04234 0
M  V30 1262 H 126.586 2.1809 1.98799 0
M  V30 1263 H 126.667 2.54492 0.258321 0
M  V30 1264 H 126.311 5.01799 0.784889 0
M  V30 1265 H 126.241 4.62347 2.52076 0
M  V30 1266 H 128.732 3.49212 1.44427 0
M  V30 1267 H 129.045 7.3569 2.36601 0
M  V30 1268 H 127.39 6.61413 2.13444 0
M  V30 1269 H 130.581 4.35715 1.71085 0
M  V30 1270 H 130.754 6.11944 2.13139 0
M  V30 1271 N 124.16 -0.719506 1.40217 0
M  V30 1272 C 125.09 -1.8465 1.42922 0
M  V30 1273 C 126.071 -1.67599 0.29062 0
M  V30 1274 O 127.256 -1.87688 0.498677 0
M  V30 1275 C 124.386 -3.22565 1.28722 0
M  V30 1276 C 123.34 -3.54281 2.40144 0
M  V30 1277 C 122.666 -4.91298 2.11023 0
M  V30 1278 C 123.966 -3.55676 3.82481 0
M  V30 1279 H 125.66 -1.82644 2.37237 0
M  V30 1280 H 123.206 -0.877305 1.1419 0
M  V30 1281 H 125.159 -4.01095 1.29232 0
M  V30 1282 H 123.883 -3.25137 0.308811 0
M  V30 1283 H 122.542 -2.78088 2.38877 0
M  V30 1284 H 122.19 -4.90468 1.11582 0
M  V30 1285 H 121.89 -5.13485 2.8567 0
M  V30 1286 H 123.414 -5.72166 2.13209 0
M  V30 1287 H 124.828 -4.24254 3.85592 0
M  V30 1288 H 123.225 -3.89388 4.56614 0
M  V30 1289 H 124.295 -2.55144 4.12346 0
M  V30 1290 N 125.638 -1.25649 -0.95132 0
M  V30 1291 C 126.887 -1.09988 -1.69073 0
M  V30 1292 C 127.2 0.358355 -1.92289 0
M  V30 1293 O 128.406 0.635466 -2.63958 0
M  V30 1294 C 126.862 -1.92012 -3.044 0
M  V30 1295 C 126.47 -3.42347 -2.88968 0
M  V30 1296 C 128.214 -1.8493 -3.82101 0
M  V30 1297 C 126.121 -4.16655 -4.19705 0
M  V30 1298 H 125.051 -0.407993 -0.63408 0
M  V30 1299 H 127.702 -1.49873 -1.05879 0
M  V30 1300 H 126.084 -1.44952 -3.68517 0
M  V30 1301 H 127.258 -3.97104 -2.33762 0
M  V30 1302 H 125.573 -3.50557 -2.24719 0
M  V30 1303 H 128.17 -2.37739 -4.78941 0
M  V30 1304 H 128.513 -0.817883 -4.08187 0
M  V30 1305 H 129.046 -2.29758 -3.2474 0
M  V30 1306 H 125.785 -5.20224 -3.98807 0
M  V30 1307 H 125.305 -3.66681 -4.74663 0
M  V30 1308 H 126.984 -4.24551 -4.88227 0
M  V30 1309 N 127.117 1.15442 -1.07289 0
M  V30 1310 C 128.528 1.67803 -0.818475 0
M  V30 1311 C 128.879 1.8489 0.656507 0
M  V30 1312 O 128.004 1.55176 1.50829 0
M  V30 1313 C 128.599 3.04805 -1.47917 0
M  V30 1314 C 127.158 3.54245 -1.27229 0
M  V30 1315 C 126.305 2.29986 -1.54925 0
M  V30 1316 H 129.256 0.996646 -1.23502 0
M  V30 1317 H 129.277 3.69702 -0.90005 0
M  V30 1318 H 128.789 2.92336 -2.55267 0
M  V30 1319 H 126.89 3.71956 -0.21899 0
M  V30 1320 H 127.003 4.35723 -1.99203 0
M  V30 1321 H 125.367 2.35496 -0.970242 0
M  V30 1322 H 126.15 2.20105 -2.63455 0
M  V30 1323 N 128.595 0.856903 1.32268 0
M  V30 1324 C 129.843 0.460474 1.96784 0
M  V30 1325 C 130.164 -0.987701 1.68135 0
M  V30 1326 O 129.434 -1.69058 0.989765 0
M  V30 1327 H 128.014 0.167289 0.728027 0
M  V30 1328 H 130.676 1.09383 1.61312 0
M  V30 1329 H 129.772 0.60739 3.06133 0
M  V30 1330 N 130.073 -1.45103 0.615059 0
M  V30 1331 C 131.484 -1.85654 0.197383 0
M  V30 1332 C 131.835 -1.51433 -1.24749 0
M  V30 1333 O 130.96 -0.944608 -1.94695 0
M  V30 1334 C 131.555 -3.36972 0.351448 0
M  V30 1335 C 130.114 -3.76398 -0.011593 0
M  V30 1336 C 129.261 -2.69024 0.672394 0
M  V30 1337 H 132.212 -1.35797 0.821263 0
M  V30 1338 H 132.233 -3.78239 -0.414227 0
M  V30 1339 H 131.745 -3.61847 1.40314 0
M  V30 1340 H 129.846 -3.5714 -1.06217 0
M  V30 1341 H 129.959 -4.77532 0.387265 0
M  V30 1342 H 128.323 -2.54465 0.109284 0
M  V30 1343 H 129.106 -2.96735 1.72636 0
M  V30 1344 N 131.551 -0.354651 -1.53558 0
M  V30 1345 C 132.498 0.496968 -2.25386 0
M  V30 1346 C 133.468 1.0865 -1.25636 0
M  V30 1347 O 134.653 1.12104 -1.54394 0
M  V30 1348 C 131.793 1.63637 -3.03837 0
M  V30 1349 C 130.906 1.07307 -4.18461 0
M  V30 1350 C 130.041 2.18068 -4.84376 0
M  V30 1351 C 129.08 1.59147 -5.91049 0
M  V30 1352 N 128.217 2.63695 -6.50699 0
M  V30 1353 H 133.057 -0.122075 -2.9775 0
M  V30 1354 H 130.594 -0.0720154 -1.46924 0
M  V30 1355 H 132.552 2.30734 -3.47589 0
M  V30 1356 H 131.182 2.22623 -2.33749 0
M  V30 1357 H 130.234 0.292708 -3.79272 0
M  V30 1358 H 131.546 0.602193 -4.95152 0
M  V30 1359 H 130.7 2.93007 -5.31255 0
M  V30 1360 H 129.439 2.68504 -4.07133 0
M  V30 1361 H 128.444 0.827175 -5.43542 0
M  V30 1362 H 129.669 1.09549 -6.70206 0
M  V30 1363 H 127.615 3.13365 -5.76315 0
M  V30 1364 H 127.532 2.21263 -7.22896 0
M  V30 1365 H 128.8 3.3837 -7.02229 0
M  V30 1366 N 133.029 1.57378 -0.0835403 0
M  V30 1367 C 134.445 1.57246 0.273109 0
M  V30 1368 C 134.645 1.09385 1.69225 0
M  V30 1369 O 133.701 0.765051 2.40631 0
M  V30 1370 C 135.014 3.00614 0.0720628 0
M  V30 1371 C 136.562 3.12684 0.1407 0
M  V30 1372 C 137.037 4.57989 -0.0322094 0
M  V30 1373 N 138.528 4.63194 0.0230085 0
M  V30 1374 C 139.263 5.73335 -0.0861941 0
M  V30 1375 N 138.759 6.9235 -0.24958 0
M  V30 1376 N 140.552 5.62093 -0.0282886 0
M  V30 1377 H 132.703 1.86801 -1.0109 0
M  V30 1378 H 134.966 0.861687 -0.395222 0
M  V30 1379 H 134.672 3.39786 -0.907662 0
M  V30 1380 H 134.546 3.68193 0.81936 0
M  V30 1381 H 136.933 2.73391 1.11092 0
M  V30 1382 H 137.014 2.47719 -0.637896 0
M  V30 1383 H 136.658 4.97973 -0.999247 0
M  V30 1384 H 136.588 5.21 0.765937 0
M  V30 1385 H 139.079 3.77613 0.14722 0
M  V30 1386 H 139.392 7.72117 -0.324733 0
M  V30 1387 H 137.737 6.94415 -0.285097 0
M  V30 1388 H 140.928 4.67997 0.0981408 0
M  V30 1389 H 141.101 6.47895 -0.116845 0
M  V30 1390 N 134.507 -0.190092 1.56449 0
M  V30 1391 C 135.437 -1.23816 1.97969 0
M  V30 1392 C 136.418 -1.47201 0.852395 0
M  V30 1393 O 137.603 -1.58854 1.1171 0
M  V30 1394 C 134.733 -2.5813 2.3235 0
M  V30 1395 C 133.687 -2.49348 3.47864 0
M  V30 1396 C 133.013 -3.8798 3.67934 0
M  V30 1397 C 134.313 -2.01424 4.81898 0
M  V30 1398 H 136.007 -0.89311 2.85769 0
M  V30 1399 H 133.553 -0.428177 1.37487 0
M  V30 1400 H 135.506 -3.31637 2.59991 0
M  V30 1401 H 134.23 -2.94386 1.41438 0
M  V30 1402 H 132.889 -1.78297 3.20321 0
M  V30 1403 H 132.537 -4.21597 2.74344 0
M  V30 1404 H 132.237 -3.82978 4.45648 0
M  V30 1405 H 133.761 -4.63101 3.97957 0
M  V30 1406 H 135.175 -2.64693 5.08538 0
M  V30 1407 H 133.572 -2.07413 5.63116 0
M  V30 1408 H 134.642 -0.967677 4.75146 0
M  V30 1409 N 135.985 -1.50799 -0.457987 0
M  V30 1410 C 136.933 -1.71162 -1.575 0
M  V30 1411 C 137.927 -0.577592 -1.59249 0
M  V30 1412 O 139.133 -0.758443 -1.63241 0
M  V30 1413 H 135.508 -0.540468 -0.522875 0
M  V30 1414 H 137.479 -2.64837 -1.37492 0
M  V30 1415 C 136.228 -1.83496 -2.95338 0
M  V30 1416 H 135.551 -2.70153 -2.94716 0
M  V30 1417 H 136.991 -2.01765 -3.72917 0
M  V30 1418 C 135.45 -0.589694 -3.31699 0
M  V30 1419 O 135.98 0.265163 -4.00824 0
M  V30 1420 N 134.186 -0.439845 -2.87252 0
M  V30 1421 H 133.733 -1.13655 -2.31172 0
M  V30 1422 H 133.691 0.392159 -3.11945 0
M  V30 1423 N 137.463 0.71206 -1.40597 0
M  V30 1424 C 138.393 1.83889 -1.43899 0
M  V30 1425 C 139.374 1.67442 -0.299504 0
M  V30 1426 O 140.559 1.87421 -0.508624 0
M  V30 1427 C 137.689 3.21877 -1.30431 0
M  V30 1428 C 136.643 3.53002 -2.42019 0
M  V30 1429 C 135.969 4.90172 -2.13626 0
M  V30 1430 C 137.269 3.53643 -3.84362 0
M  V30 1431 H 138.963 1.81383 -2.38203 0
M  V30 1432 H 136.509 0.871237 -1.14654 0
M  V30 1433 H 138.462 4.00404 -1.31357 0
M  V30 1434 H 137.186 3.24968 -0.326049 0
M  V30 1435 H 135.845 2.76818 -2.40349 0
M  V30 1436 H 135.493 4.89869 -1.14182 0
M  V30 1437 H 135.193 5.11962 -2.88389 0
M  V30 1438 H 136.717 5.71028 -2.1624 0
M  V30 1439 H 138.131 4.22203 -3.87837 0
M  V30 1440 H 136.528 3.86961 -4.58673 0
M  V30 1441 H 137.598 2.52954 -4.13693 0
M  V30 1442 N 138.941 1.26152 0.944643 0
M  V30 1443 C 139.891 1.04081 2.02857 0
M  V30 1444 C 140.875 -0.0256555 1.6088 0
M  V30 1445 O 142.067 0.190884 1.75968 0
M  V30 1446 C 139.196 0.672118 3.36656 0
M  V30 1447 C 138.282 1.77586 3.85128 0
M  V30 1448 N 138.673 3.01272 4.06287 0
M  V30 1449 C 136.971 1.65867 4.1401 0
M  V30 1450 C 137.672 3.72983 4.46384 0
M  V30 1451 N 136.648 3.00653 4.52889 0
M  V30 1452 H 140.45 1.97968 2.17223 0
M  V30 1453 H 137.964 1.16618 1.13022 0
M  V30 1454 H 139.961 0.495166 4.13949 0
M  V30 1455 H 138.621 -0.259307 3.23663 0
M  V30 1456 H 139.632 3.37213 3.93075 0
M  V30 1457 H 136.309 0.796907 4.09824 0
M  V30 1458 H 137.699 4.792 4.70975 0
M  V30 1459 N 140.419 -1.14872 1.07899 0
M  V30 1460 C 141.382 -2.17986 0.708161 0
M  V30 1461 C 142.382 -1.58775 -0.25442 0
M  V30 1462 O 143.572 -1.74166 -0.034645 0
M  V30 1463 C 140.704 -3.40871 0.0446929 0
M  V30 1464 H 141.897 -2.52306 1.62116 0
M  V30 1465 H 139.45 -1.2943 0.876218 0
M  V30 1466 H 140.185 -3.12124 -0.880281 0
M  V30 1467 H 139.97 -3.8511 0.737091 0
M  V30 1468 H 141.46 -4.17121 -0.19991 0
M  V30 1469 N 141.898 -0.863906 -1.31812 0
M  V30 1470 C 143.147 -0.46801 -1.96195 0
M  V30 1471 C 143.46 0.983474 -1.69077 0
M  V30 1472 O 144.666 1.48523 -2.27273 0
M  V30 1473 C 143.122 -0.785995 -3.51212 0
M  V30 1474 C 142.73 -2.25383 -3.87178 0
M  V30 1475 C 144.474 -0.458274 -4.22019 0
M  V30 1476 C 142.381 -2.51455 -5.3528 0
M  V30 1477 H 141.311 -0.171283 -0.734287 0
M  V30 1478 H 143.962 -1.05597 -1.50072 0
M  V30 1479 H 142.344 -0.127359 -3.95795 0
M  V30 1480 H 143.518 -2.95502 -3.53575 0
M  V30 1481 H 141.833 -2.54698 -3.2942 0
M  V30 1482 H 144.43 -0.630369 -5.30971 0
M  V30 1483 H 144.773 0.600834 -4.11941 0
M  V30 1484 H 145.306 -1.07319 -3.8305 0
M  V30 1485 H 142.045 -3.56025 -5.50387 0
M  V30 1486 H 141.565 -1.85923 -5.70257 0
M  V30 1487 H 143.244 -2.35874 -6.02472 0
M  V30 1488 N 143.376 1.44774 -0.622745 0
M  V30 1489 C 144.606 2.06187 -0.130532 0
M  V30 1490 C 145.014 1.46547 1.19669 0
M  V30 1491 O 144.357 0.579636 1.74316 0
M  V30 1492 C 144.419 3.59437 0.0674983 0
M  V30 1493 C 144.083 4.41496 -1.18026 0
M  V30 1494 C 145.08 4.75512 -2.102 0
M  V30 1495 C 142.765 4.82007 -1.41333 0
M  V30 1496 C 144.759 5.48912 -3.23998 0
M  V30 1497 C 142.446 5.55157 -2.55429 0
M  V30 1498 C 143.444 5.88528 -3.46589 0
M  V30 1499 O 143.132 6.60191 -4.58697 0
M  V30 1500 H 142.864 0.672045 -0.0730162 0
M  V30 1501 H 145.418 1.86768 -0.854802 0
M  V30 1502 H 143.648 3.77314 0.846825 0
M  V30 1503 H 145.337 4.02642 0.513209 0
M  V30 1504 H 146.103 4.4476 -1.93425 0
M  V30 1505 H 141.982 4.55457 -0.712709 0
M  V30 1506 H 145.526 5.74877 -3.95174 0
M  V30 1507 H 141.423 5.85324 -2.72151 0
M  V30 1508 H 142.191 6.78654 -4.57571 0
M  V30 1509 N 144.854 0.36279 1.53368 0
M  V30 1510 C 145.784 -0.476976 2.28576 0
M  V30 1511 C 146.765 -1.08631 1.30894 0
M  V30 1512 O 147.95 -1.10409 1.59761 0
M  V30 1513 C 145.08 -1.61828 3.07293 0
M  V30 1514 C 144.034 -1.13633 4.1264 0
M  V30 1515 C 143.36 -2.36766 4.79423 0
M  V30 1516 C 144.66 -0.223061 5.21823 0
M  V30 1517 H 146.354 0.150474 2.99022 0
M  V30 1518 H 143.9 0.0738103 1.43811 0
M  V30 1519 H 145.853 -2.21237 3.58653 0
M  V30 1520 H 144.577 -2.27292 2.34533 0
M  V30 1521 H 143.236 -0.564945 3.62221 0
M  V30 1522 H 142.884 -3.0068 4.03238 0
M  V30 1523 H 142.584 -2.05192 5.50609 0
M  V30 1524 H 144.108 -2.96865 5.33576 0
M  V30 1525 H 145.522 -0.724545 5.68703 0
M  V30 1526 H 143.919 0.001678 6.001 0
M  V30 1527 H 144.989 0.735553 4.79289 0
M  V30 1528 N 146.332 -1.57332 0.0918853 0
M  V30 1529 C 147.242 -2.17368 -0.882505 0
M  V30 1530 C 148.258 -1.14226 -1.31257 0
M  V30 1531 O 149.434 -1.46582 -1.38115 0
M  V30 1532 C 146.499 -2.73962 -2.12476 0
M  V30 1533 C 145.56 -3.92048 -1.7492 0
M  V30 1534 C 144.793 -4.45933 -2.93223 0
M  V30 1535 O 145.016 -3.98764 -4.07852 0
M  V30 1536 O 143.95 -5.36999 -2.71875 0
M  V30 1537 H 147.776 -3.01031 -0.40172 0
M  V30 1538 H 145.361 -1.48813 -0.132291 0
M  V30 1539 H 147.243 -3.10147 -2.85283 0
M  V30 1540 H 145.918 -1.93347 -2.59613 0
M  V30 1541 H 144.825 -3.6068 -0.993025 0
M  V30 1542 H 146.158 -4.74017 -1.32548 0
M  V30 1543 N 147.81 0.181792 -1.56548 0
M  V30 1544 C 149.035 0.920019 -1.85877 0
M  V30 1545 C 149.46 1.75494 -0.677021 0
M  V30 1546 O 148.818 1.77399 0.374056 0
M  V30 1547 C 148.866 1.78112 -3.13542 0
M  V30 1548 O 147.97 2.88152 -2.95029 0
M  V30 1549 H 147.311 0.258334 -0.611686 0
M  V30 1550 H 149.841 0.183092 -2.03779 0
M  V30 1551 H 149.851 2.18314 -3.44678 0
M  V30 1552 H 148.526 1.16777 -3.99169 0
M  V30 1553 H 147.103 2.51609 -2.75222 0
M  V30 1554 N 149.288 1.51039 0.449983 0
M  V30 1555 C 150.565 1.53612 1.21089 0
M  V30 1556 C 150.945 0.292997 2.09057 0
M  V30 1557 O 150.293 -0.72259 2.16774 0
M  V30 1558 C 150.503 2.84337 2.0237 0
M  V30 1559 C 151.851 3.35807 2.59843 0
M  V30 1560 O 152.875 2.85802 2.12593 0
M  V30 1561 O 151.734 4.23029 3.45989 0
M  V30 1562 H 148.828 0.617057 0.550608 0
M  V30 1563 H 151.374 1.63344 0.460082 0
M  V30 1564 H 150.146 3.66278 1.37681 0
M  V30 1565 H 149.769 2.77708 2.84542 0
M  V30 1566 N 150.766 -0.704594 1.40972 0
M  V30 1567 C 151.994 -1.49354 1.43182 0
M  V30 1568 C 152.409 -1.88768 0.0345508 0
M  V30 1569 O 151.766 -1.56184 -0.944081 0
M  V30 1570 C 151.817 -2.76187 2.33244 0
M  V30 1571 O 151.538 -2.38436 3.67532 0
M  V30 1572 C 153.039 -3.7 2.44162 0
M  V30 1573 H 150.259 -0.460559 0.487982 0
M  V30 1574 H 152.803 -0.868261 1.85153 0
M  V30 1575 H 150.958 -3.34974 1.94606 0
M  V30 1576 H 151.372 -3.20126 4.15475 0
M  V30 1577 H 152.846 -4.55803 3.11364 0
M  V30 1578 H 153.323 -4.13867 1.47006 0
M  V30 1579 H 153.929 -3.17121 2.83398 0
M  V30 1580 N 152.244 -1.26651 -0.937939 0
M  V30 1581 C 153.655 -1.1125 -1.49934 0
M  V30 1582 C 154.006 0.306077 -1.93798 0
M  V30 1583 O 153.131 1.19792 -1.80219 0
M  V30 1584 C 153.726 -2.01339 -2.72485 0
M  V30 1585 C 152.285 -1.90074 -3.24883 0
M  V30 1586 C 151.432 -1.94498 -1.97651 0
M  V30 1587 H 154.383 -1.39693 -0.753091 0
M  V30 1588 H 154.404 -1.56319 -3.46907 0
M  V30 1589 H 153.916 -3.04577 -2.40529 0
M  V30 1590 H 152.017 -0.897827 -3.61621 0
M  V30 1591 H 152.13 -2.75778 -3.9177 0
M  V30 1592 H 150.494 -1.38591 -2.13693 0
M  V30 1593 H 151.277 -2.99372 -1.68022 0
M  V30 1594 N 153.722 1.14298 -1.08507 0
M  V30 1595 C 154.968 1.85633 -0.816581 0
M  V30 1596 C 155.301 1.82784 0.656021 0
M  V30 1597 O 154.576 1.25926 1.48233 0
M  V30 1598 C 154.859 3.34223 -1.34041 0
M  V30 1599 C 154.712 3.45639 -2.87843 0
M  V30 1600 C 156.031 4.29356 -0.9665 0
M  V30 1601 H 153.15 0.67402 -0.298104 0
M  V30 1602 H 155.792 1.34214 -1.34487 0
M  V30 1603 H 153.942 3.78144 -0.89104 0
M  V30 1604 H 155.614 3.10498 -3.41158 0
M  V30 1605 H 153.857 2.86817 -3.25451 0
M  V30 1606 H 154.528 4.50089 -3.19569 0
M  V30 1607 H 157.004 3.93457 -1.35391 0
M  V30 1608 H 155.88 5.3178 -1.3602 0
M  V30 1609 H 156.141 4.41919 0.126362 0
M  V30 1610 N 155.201 0.870884 1.31352 0
M  V30 1611 C 156.426 0.495957 2.01383 0
M  V30 1612 C 156.851 -0.904324 1.64935 0
M  V30 1613 O 156.209 -1.59687 0.858466 0
M  V30 1614 C 156.257 0.661433 3.54482 0
M  V30 1615 O 155.361 -0.298851 4.11316 0
M  V30 1616 H 154.702 0.197158 0.634054 0
M  V30 1617 H 157.232 1.17455 1.67527 0
M  V30 1618 H 157.242 0.555072 4.04207 0
M  V30 1619 H 155.917 1.68246 3.8035 0
M  V30 1620 H 154.494 -0.147368 3.72609 0
M  V30 1621 N 156.679 -1.44442 0.630414 0
M  V30 1622 C 158.095 -1.56832 0.295973 0
M  V30 1623 C 158.295 -1.61806 -1.20088 0
M  V30 1624 O 157.351 -1.5607 -1.9849 0
M  V30 1625 C 158.664 -2.84031 0.987264 0
M  V30 1626 C 160.212 -2.97742 0.96534 0
M  V30 1627 C 160.687 -4.27743 1.63708 0
M  V30 1628 N 162.178 -4.34555 1.60364 0
M  V30 1629 C 162.913 -5.33862 2.09234 0
M  V30 1630 N 162.409 -6.39578 2.66292 0
M  V30 1631 N 164.202 -5.25366 1.99867 0
M  V30 1632 H 156.353 -1.39457 1.60205 0
M  V30 1633 H 158.616 -0.668237 0.672431 0
M  V30 1634 H 158.322 -2.86338 2.04215 0
M  V30 1635 H 158.196 -3.73534 0.524588 0
M  V30 1636 H 160.583 -2.94989 -0.0810639 0
M  V30 1637 H 160.664 -2.09589 1.4665 0
M  V30 1638 H 160.308 -4.31255 2.68293 0
M  V30 1639 H 160.238 -5.14752 1.11076 0
M  V30 1640 H 162.729 -3.58772 1.18705 0
M  V30 1641 H 163.042 -7.11637 3.01317 0
M  V30 1642 H 161.387 -6.40265 2.70343 0
M  V30 1643 H 164.578 -4.41688 1.55013 0
M  V30 1644 H 164.751 -6.02606 2.38265 0
M  V30 1645 N 158.157 -0.370918 -1.53173 0
M  V30 1646 C 159.434 0.273754 -1.93675 0
M  V30 1647 C 159.814 1.65938 -1.3049 0
M  V30 1648 O 159.162 2.23698 -0.465999 0
M  V30 1649 C 159.372 0.318602 -3.47543 0
M  V30 1650 C 160.72 0.556392 -4.20939 0
M  V30 1651 O 161.744 0.399587 -3.53952 0
M  V30 1652 O 160.603 0.862133 -5.39657 0
M  V30 1653 H 157.697 0.165448 -0.810281 0
M  V30 1654 H 160.243 -0.42409 -1.64315 0
M  V30 1655 H 159.015 -0.652687 -3.85818 0
M  V30 1656 H 158.638 1.06212 -3.83151 0
M  V30 1657 N 159.635 1.57281 -0.100228 0
M  V30 1658 C 160.567 2.11342 0.886972 0
M  V30 1659 C 161.58 1.05182 1.24261 0
M  V30 1660 O 162.769 1.32613 1.19483 0
M  V30 1661 C 159.869 2.5825 2.19454 0
M  V30 1662 C 159.042 3.88302 2.01346 0
M  V30 1663 C 158.101 4.21004 3.15661 0
M  V30 1664 O 157.127 4.9014 2.89398 0
M  V30 1665 N 158.329 3.76818 4.41575 0
M  V30 1666 H 161.094 2.96668 0.425216 0
M  V30 1667 H 158.655 1.61678 0.0847334 0
M  V30 1668 H 160.647 2.7717 2.94888 0
M  V30 1669 H 159.217 1.77907 2.57037 0
M  V30 1670 H 158.437 3.7848 1.10212 0
M  V30 1671 H 159.725 4.73375 1.8653 0
M  V30 1672 H 159.123 3.2102 4.65792 0
M  V30 1673 H 157.68 4.00882 5.13942 0
M  V30 1674 N 161.113 -0.173488 1.56642 0
M  V30 1675 C 162.362 -0.888758 1.81063 0
M  V30 1676 C 162.675 -1.83506 0.67712 0
M  V30 1677 O 163.881 -2.59254 0.806206 0
M  V30 1678 C 162.337 -1.63091 3.20826 0
M  V30 1679 C 161.945 -0.728357 4.4204 0
M  V30 1680 C 163.689 -2.33454 3.54541 0
M  V30 1681 C 161.596 -1.47062 5.72823 0
M  V30 1682 H 160.526 -0.335618 0.675186 0
M  V30 1683 H 163.177 -0.141712 1.82952 0
M  V30 1684 H 161.559 -2.42263 3.13248 0
M  V30 1685 H 162.733 0.0262449 4.60793 0
M  V30 1686 H 161.048 -0.134492 4.16183 0
M  V30 1687 H 163.645 -2.89578 4.49498 0
M  V30 1688 H 163.988 -3.08687 2.79317 0
M  V30 1689 H 164.521 -1.61227 3.63663 0
M  V30 1690 H 161.26 -0.760658 6.51072 0
M  V30 1691 H 160.78 -2.1986 5.58052 0
M  V30 1692 H 162.459 -2.01868 6.14702 0
M  V30 1693 N 162.591 -1.51276 -0.441967 0
M  V30 1694 C 163.538 -1.72256 -1.53612 0
M  V30 1695 C 164.508 -0.564164 -1.56225 0
M  V30 1696 O 165.693 -0.798074 -1.73307 0
M  V30 1697 C 162.833 -1.84932 -2.91366 0
M  V30 1698 C 161.946 -3.12459 -2.98317 0
M  V30 1699 C 161.081 -3.15758 -4.27166 0
M  V30 1700 C 160.12 -4.37619 -4.27967 0
M  V30 1701 N 159.257 -4.38493 -5.48333 0
M  V30 1702 H 164.097 -2.65654 -1.35026 0
M  V30 1703 H 161.634 -1.31662 -0.656009 0
M  V30 1704 H 163.592 -1.90263 -3.7129 0
M  V30 1705 H 162.222 -0.949461 -3.08521 0
M  V30 1706 H 161.274 -3.1646 -2.11086 0
M  V30 1707 H 162.586 -4.02382 -2.94771 0
M  V30 1708 H 161.74 -3.19979 -5.15459 0
M  V30 1709 H 160.479 -2.23715 -4.33362 0
M  V30 1710 H 159.484 -4.33579 -3.38067 0
M  V30 1711 H 160.709 -5.30921 -4.23438 0
M  V30 1712 H 158.655 -3.49318 -5.55259 0
M  V30 1713 H 158.572 -5.22219 -5.46647 0
M  V30 1714 H 159.84 -4.469 -6.38671 0
M  V30 1715 N 164.069 0.697108 -1.41344 0
M  V30 1716 C 165.48 1.27697 -1.36199 0
M  V30 1717 C 165.831 1.9615 -0.0443463 0
M  V30 1718 O 164.956 1.98689 0.857419 0
M  V30 1719 C 165.551 2.32223 -2.46694 0
M  V30 1720 C 164.11 2.8579 -2.44952 0
M  V30 1721 C 163.257 1.59807 -2.26621 0
M  V30 1722 H 166.208 0.491968 -1.50882 0
M  V30 1723 H 166.229 3.1348 -2.15664 0
M  V30 1724 H 165.741 1.82373 -3.42581 0
M  V30 1725 H 163.842 3.3982 -1.52817 0
M  V30 1726 H 163.955 3.36325 -3.41207 0
M  V30 1727 H 162.319 1.8556 -1.7447 0
M  V30 1728 H 163.102 1.11956 -3.24532 0
M  V30 1729 N 165.547 1.27147 0.931209 0
M  V30 1730 C 166.457 1.11372 2.06478 0
M  V30 1731 C 167.473 0.044645 1.73943 0
M  V30 1732 O 168.649 0.250417 1.99837 0
M  V30 1733 C 165.714 0.758838 3.38294 0
M  V30 1734 C 164.775 1.90841 3.84549 0
M  V30 1735 C 164.008 1.57036 5.10074 0
M  V30 1736 O 164.231 0.476645 5.68405 0
M  V30 1737 O 163.165 2.40839 5.51616 0
M  V30 1738 H 166.991 2.06493 2.22698 0
M  V30 1739 H 164.576 1.06301 1.04978 0
M  V30 1740 H 166.458 0.574098 4.17471 0
M  V30 1741 H 165.133 -0.162879 3.2329 0
M  V30 1742 H 164.04 2.14819 3.06274 0
M  V30 1743 H 165.373 2.81021 4.04089 0
M  V30 1744 N 167.025 -1.13721 1.09112 0
M  V30 1745 C 167.975 -2.17082 0.697091 0
M  V30 1746 C 168.959 -1.58321 -0.286923 0
M  V30 1747 O 170.151 -1.7673 -0.0978008 0
M  V30 1748 C 167.28 -3.43105 0.115729 0
M  V30 1749 C 166.366 -4.0888 1.12596 0
M  V30 1750 N 166.757 -4.4987 2.31195 0
M  V30 1751 C 165.055 -4.35471 0.963366 0
M  V30 1752 C 165.756 -5.01094 2.95431 0
M  V30 1753 N 164.732 -4.95751 2.23006 0
M  V30 1754 H 168.534 -2.46524 1.6001 0
M  V30 1755 H 166.048 -1.30481 0.966869 0
M  V30 1756 H 168.045 -4.16491 -0.184555 0
M  V30 1757 H 166.705 -3.15138 -0.78217 0
M  V30 1758 H 167.716 -4.42678 2.68806 0
M  V30 1759 H 164.393 -4.17328 0.119878 0
M  V30 1760 H 165.783 -5.4263 3.96236 0
M  V30 1761 N 168.503 -0.877838 -1.30888 0
M  V30 1762 C 169.75 -0.492696 -1.96415 0
M  V30 1763 C 170.078 0.956671 -1.69346 0
M  V30 1764 O 169.333 1.68993 -0.986913 0
M  V30 1765 C 169.632 -0.705748 -3.50363 0
M  V30 1766 C 169.298 -2.1291 -3.97467 0
M  V30 1767 C 167.96 -2.51834 -4.1004 0
M  V30 1768 C 170.312 -3.05702 -4.22132 0
M  V30 1769 C 167.64 -3.82775 -4.44635 0
M  V30 1770 C 169.992 -4.36166 -4.58194 0
M  V30 1771 C 168.656 -4.74993 -4.68975 0
M  V30 1772 H 167.926 -0.18029 -0.718733 0
M  V30 1773 H 170.573 -1.11233 -1.55883 0
M  V30 1774 H 168.878 -0.00303058 -3.918 0
M  V30 1775 H 170.575 -0.387456 -3.99124 0
M  V30 1776 H 167.165 -1.81694 -3.88182 0
M  V30 1777 H 171.349 -2.76853 -4.11906 0
M  V30 1778 H 166.605 -4.12609 -4.51181 0
M  V30 1779 H 170.779 -5.08111 -4.76231 0
M  V30 1780 H 168.406 -5.76495 -4.95537 0
M  V30 1781 N 169.982 1.44106 -0.638065 0
M  V30 1782 C 170.929 2.30715 0.062701 0
M  V30 1783 C 171.899 1.43882 0.829883 0
M  V30 1784 O 173.084 1.72775 0.809532 0
M  V30 1785 C 170.224 3.29258 1.03358 0
M  V30 1786 C 169.337 4.31192 0.26409 0
M  V30 1787 C 168.472 5.16825 1.22741 0
M  V30 1788 C 167.511 6.10462 0.447475 0
M  V30 1789 N 166.648 6.8877 1.36161 0
M  V30 1790 H 171.488 2.90096 -0.681781 0
M  V30 1791 H 169.025 1.42925 -0.347988 0
M  V30 1792 H 170.983 3.84886 1.60992 0
M  V30 1793 H 169.613 2.71562 1.74511 0
M  V30 1794 H 168.665 3.77981 -0.428295 0
M  V30 1795 H 169.977 4.97619 -0.343052 0
M  V30 1796 H 169.131 5.77004 1.87487 0
M  V30 1797 H 167.87 4.50488 1.86847 0
M  V30 1798 H 166.875 5.49386 -0.213433 0
M  V30 1799 H 168.1 6.78837 -0.188968 0
M  V30 1800 H 166.046 6.25096 1.98975 0
M  V30 1801 H 165.963 7.51663 0.808656 0
M  V30 1802 H 167.231 7.53467 1.99769 0
M  V30 1803 N 171.46 0.379036 1.52974 0
M  V30 1804 C 172.408 -0.476033 2.27677 0
M  V30 1805 C 173.402 -1.0719 1.31174 0
M  V30 1806 O 174.608 -1.01355 1.48752 0
M  V30 1807 H 170.983 -0.172255 0.732006 0
M  V30 1808 H 172.954 0.175615 2.97883 0
M  V30 1809 C 171.703 -1.5967 3.0887 0
M  V30 1810 H 171.026 -1.1475 3.82978 0
M  V30 1811 H 172.466 -2.16943 3.64296 0
M  V30 1812 C 170.925 -2.54682 2.20542 0
M  V30 1813 O 171.455 -3.57836 1.82527 0
M  V30 1814 N 169.661 -2.24183 1.84907 0
M  V30 1815 H 169.208 -1.40333 2.1602 0
M  V30 1816 H 169.166 -2.88006 1.26096 0
M  V30 1817 N 172.938 -1.57226 0.108567 0
M  V30 1818 C 174.184 -1.95919 -0.546564 0
M  V30 1819 C 174.539 -0.990417 -1.6495 0
M  V30 1820 O 173.832 -0.0186593 -1.91591 0
M  V30 1821 C 174.026 -3.38911 -1.13463 0
M  V30 1822 C 173.855 -4.4961 -0.0901926 0
M  V30 1823 C 172.625 -5.04168 0.338008 0
M  V30 1824 C 174.823 -5.09693 0.686808 0
M  V30 1825 N 172.805 -5.98434 1.36931 0
M  V30 1826 C 174.176 -5.99804 1.56958 0
M  V30 1827 C 176.231 -4.92388 0.738846 0
M  V30 1828 C 174.934 -6.74463 2.49983 0
M  V30 1829 C 176.96 -5.67719 1.65676 0
M  V30 1830 C 176.322 -6.57507 2.52713 0
M  V30 1831 H 172.421 -0.763312 -0.169936 0
M  V30 1832 H 175.005 -1.93728 0.194264 0
M  V30 1833 H 173.176 -3.41769 -1.84522 0
M  V30 1834 H 174.908 -3.64752 -1.75322 0
M  V30 1835 H 171.663 -4.73571 -0.0523673 0
M  V30 1836 H 172.087 -6.5027 1.88356 0
M  V30 1837 H 176.729 -4.22724 0.080084 0
M  V30 1838 H 174.447 -7.4338 3.16878 0
M  V30 1839 H 178.033 -5.56338 1.70233 0
M  V30 1840 H 176.913 -7.14778 3.22586 0
M  V30 1841 N 174.416 0.165178 -1.56732 0
M  V30 1842 C 175.662 0.882112 -1.82611 0
M  V30 1843 C 175.995 1.81628 -0.687378 0
M  V30 1844 O 175.27 1.92009 0.310267 0
M  V30 1845 C 175.553 1.67245 -3.18906 0
M  V30 1846 C 175.406 0.760987 -4.43316 0
M  V30 1847 C 176.725 2.63884 -3.52212 0
M  V30 1848 H 173.844 0.319242 -0.664269 0
M  V30 1849 H 176.486 0.148052 -1.89422 0
M  V30 1850 H 174.636 2.29824 -3.1323 0
M  V30 1851 H 176.308 0.147596 -4.61064 0
M  V30 1852 H 174.551 0.0694102 -4.33744 0
M  V30 1853 H 175.222 1.34962 -5.35247 0
M  V30 1854 H 177.698 2.11429 -3.58381 0
M  V30 1855 H 176.574 3.16245 -4.48643 0
M  V30 1856 H 176.835 3.44377 -2.77231 0
M  V30 1857 N 175.894 1.51508 0.433938 0
M  V30 1858 C 176.804 1.75917 1.5521 0
M  V30 1859 C 177.82 0.643545 1.61662 0
M  V30 1860 O 178.996 0.926183 1.7884 0
M  V30 1861 C 176.061 1.88213 2.91164 0
M  V30 1862 C 175.122 3.12074 2.94802 0
M  V30 1863 C 174.355 3.23774 4.24271 0
M  V30 1864 O 174.578 2.4133 5.16833 0
M  V30 1865 O 173.512 4.16774 4.34262 0
M  V30 1866 H 177.338 2.70777 1.37527 0
M  V30 1867 H 174.923 1.36051 0.617293 0
M  V30 1868 H 176.805 1.98267 3.71845 0
M  V30 1869 H 175.48 0.965413 3.08968 0
M  V30 1870 H 174.387 3.07497 2.13065 0
M  V30 1871 H 175.72 4.03446 2.81943 0
M  V30 1872 N 177.372 -0.689602 1.41712 0
M  V30 1873 C 178.618 -1.45041 1.42599 0
M  V30 1874 C 178.973 -1.92366 0.0363764 0
M  V30 1875 O 178.266 -1.67022 -0.938844 0
M  V30 1876 C 178.46 -2.67298 2.37247 0
M  V30 1877 C 178.289 -2.31935 3.85274 0
M  V30 1878 C 177.059 -2.2201 4.53916 0
M  V30 1879 C 179.257 -1.94526 4.76093 0
M  V30 1880 N 177.239 -1.79594 5.87043 0
M  V30 1881 C 178.61 -1.62915 5.98213 0
M  V30 1882 C 180.665 -1.81388 4.63684 0
M  V30 1883 C 179.368 -1.19486 7.09306 0
M  V30 1884 C 181.394 -1.39364 5.74745 0
M  V30 1885 C 180.756 -1.08668 6.95967 0
M  V30 1886 H 176.855 -0.527806 0.577014 0
M  V30 1887 H 179.439 -0.797266 1.77628 0
M  V30 1888 H 177.61 -3.30325 2.04304 0
M  V30 1889 H 179.342 -3.33806 2.28814 0
M  V30 1890 H 176.097 -2.406 4.07932 0
M  V30 1891 H 176.521 -1.60851 6.57614 0
M  V30 1892 H 181.163 -2.03772 3.70455 0
M  V30 1893 H 178.881 -0.958477 8.02396 0
M  V30 1894 H 182.467 -1.2974 5.6715 0
M  V30 1895 H 181.347 -0.766417 7.80446 0
M  V30 1896 N 178.85 -1.27639 -0.924453 0
M  V30 1897 C 179.813 -1.10681 -2.00705 0
M  V30 1898 C 180.813 -0.0497823 -1.60723 0
M  V30 1899 O 182.003 -0.294654 -1.7169 0
M  V30 1900 C 179.135 -0.687164 -3.33902 0
M  V30 1901 H 180.328 -2.06817 -2.17179 0
M  V30 1902 H 177.881 -1.10473 -1.10569 0
M  V30 1903 H 178.616 0.275439 -3.23128 0
M  V30 1904 H 178.401 -1.45061 -3.6428 0
M  V30 1905 H 179.891 -0.590853 -4.13399 0
M  V30 1906 N 180.328 1.1314 -1.09713 0
M  V30 1907 C 181.275 2.18642 -0.739196 0
M  V30 1908 C 182.245 1.63706 0.280978 0
M  V30 1909 O 183.43 1.90111 0.161946 0
M  V30 1910 C 180.57 3.44685 -0.169102 0
M  V30 1911 C 179.683 4.13711 -1.24367 0
M  V30 1912 C 178.818 5.27379 -0.636019 0
M  V30 1913 C 177.857 5.88259 -1.69169 0
M  V30 1914 N 176.994 6.93352 -1.10485 0
M  V30 1915 H 181.834 2.48607 -1.64312 0
M  V30 1916 H 179.371 1.22066 -0.820875 0
M  V30 1917 H 181.329 4.16815 0.179256 0
M  V30 1918 H 179.959 3.15161 0.698079 0
M  V30 1919 H 179.011 3.39835 -1.70927 0
M  V30 1920 H 180.323 4.55037 -2.04311 0
M  V30 1921 H 179.477 6.06238 -0.236677 0
M  V30 1922 H 178.216 4.8731 0.194928 0
M  V30 1923 H 177.221 5.08092 -2.10055 0
M  V30 1924 H 178.446 6.30399 -2.52536 0
M  V30 1925 H 176.392 6.55335 -0.295234 0
M  V30 1926 H 176.309 7.33236 -1.84121 0
M  V30 1927 H 177.577 7.76057 -0.73181 0
M  V30 1928 N 181.806 0.884767 1.30421 0
M  V30 1929 C 182.769 0.356277 2.26414 0
M  V30 1930 C 183.769 -0.501124 1.52792 0
M  V30 1931 O 184.959 -0.30831 1.7145 0
M  V30 1932 C 182.091 -0.492316 3.37326 0
M  V30 1933 H 183.284 1.20389 2.74675 0
M  V30 1934 H 180.837 0.661607 1.41607 0
M  V30 1935 H 181.572 -1.36052 2.94381 0
M  V30 1936 H 181.357 0.121832 3.91911 0
M  V30 1937 H 182.847 -0.853871 4.08777 0
M  V30 1938 N 183.284 -1.43765 0.645699 0
M  V30 1939 C 184.232 -2.32516 -0.0624849 0
M  V30 1940 C 185.226 -1.48183 -0.820855 0
M  V30 1941 O 186.432 -1.64439 -0.732106 0
M  V30 1942 H 182.807 -0.750989 -0.0389864 0
M  V30 1943 H 184.778 -2.89979 0.703892 0
M  V30 1944 C 183.527 -3.32389 -1.02044 0
M  V30 1945 H 182.85 -3.97301 -0.446312 0
M  V30 1946 H 184.29 -3.97138 -1.48517 0
M  V30 1947 C 182.749 -2.62416 -2.11281 0
M  V30 1948 O 183.279 -2.434 -3.19561 0
M  V30 1949 N 181.485 -2.21913 -1.87624 0
M  V30 1950 H 181.032 -2.37578 -0.995703 0
M  V30 1951 H 180.99 -1.75424 -2.6091 0
M  V30 1952 N 184.763 -0.387143 -1.52771 0
M  V30 1953 C 185.695 0.484089 -2.2403 0
M  V30 1954 C 186.708 1.02849 -1.26198 0
M  V30 1955 O 187.897 0.931186 -1.52286 0
M  V30 1956 C 184.997 1.68337 -2.94136 0
M  V30 1957 C 184.17 1.26672 -4.18656 0
M  V30 1958 C 183.229 2.33045 -4.7178 0
M  V30 1959 O 182.255 1.94541 -5.34923 0
M  V30 1960 N 183.457 3.64929 -4.5145 0
M  V30 1961 H 186.222 -0.126404 -2.99433 0
M  V30 1962 H 183.783 -0.213392 -1.60488 0
M  V30 1963 H 185.775 2.39019 -3.26577 0
M  V30 1964 H 184.345 2.20025 -2.22053 0
M  V30 1965 H 183.565 0.388878 -3.92277 0
M  V30 1966 H 184.853 0.964964 -4.99566 0
M  V30 1967 H 184.251 3.98974 -4.01044 0
M  V30 1968 H 182.808 4.31651 -4.88386 0
M  V30 1969 N 186.241 1.57166 -0.116904 0
M  V30 1970 C 187.171 2.18222 0.830759 0
M  V30 1971 C 188.152 1.12167 1.27877 0
M  V30 1972 O 189.337 1.40394 1.34176 0
M  V30 1973 C 186.467 2.77996 2.08172 0
M  V30 1974 C 185.421 3.89614 1.77157 0
M  V30 1975 C 184.747 4.36187 3.09265 0
M  V30 1976 C 186.047 5.1181 1.04151 0
M  V30 1977 H 187.741 2.97664 0.321992 0
M  V30 1978 H 185.287 1.4318 0.153434 0
M  V30 1979 H 187.24 3.19366 2.74924 0
M  V30 1980 H 185.964 1.9584 2.6137 0
M  V30 1981 H 184.623 3.48816 1.12796 0
M  V30 1982 H 184.271 3.50893 3.60393 0
M  V30 1983 H 183.971 5.11455 2.89288 0
M  V30 1984 H 185.495 4.80207 3.77139 0
M  V30 1985 H 186.909 5.50214 1.61052 0
M  V30 1986 H 185.306 5.92648 0.942762 0
M  V30 1987 H 186.376 4.84892 0.0279022 0
M  V30 1988 N 187.719 -0.156864 1.56817 0
M  V30 1989 C 188.967 -0.869404 1.82444 0
M  V30 1990 C 189.288 -1.82147 0.69623 0
M  V30 1991 O 188.558 -1.93847 -0.28287 0
M  V30 1992 H 187.138 -0.324043 0.673056 0
M  V30 1993 H 189.8 -0.153224 1.94297 0
M  V30 1994 H 188.896 -1.43761 2.77019 0
M  V30 1995 N 189.197 -1.51736 -0.425897 0
M  V30 1996 C 190.127 -1.76827 -1.52494 0
M  V30 1997 C 191.108 -0.618524 -1.58456 0
M  V30 1998 O 192.293 -0.862416 -1.74 0
M  V30 1999 C 189.423 -1.90374 -2.90474 0
M  V30 2000 C 188.377 -3.0588 -2.99369 0
M  V30 2001 C 187.703 -3.04625 -4.3944 0
M  V30 2002 C 189.003 -4.45644 -2.72394 0
M  V30 2003 H 190.697 -2.68855 -1.31748 0
M  V30 2004 H 188.243 -1.29372 -0.632362 0
M  V30 2005 H 190.196 -2.0651 -3.6733 0
M  V30 2006 H 188.92 -0.95004 -3.12477 0
M  V30 2007 H 187.579 -2.89467 -2.24954 0
M  V30 2008 H 187.227 -2.0701 -4.58428 0
M  V30 2009 H 186.927 -3.82195 -4.46319 0
M  V30 2010 H 188.451 -3.22869 -5.18255 0
M  V30 2011 H 189.865 -4.62348 -3.38979 0
M  V30 2012 H 188.262 -5.25006 -2.9067 0
M  V30 2013 H 189.332 -4.54893 -1.67929 0
M  V30 2014 N 190.675 0.682077 -1.42076 0
M  V30 2015 C 191.952 1.43755 -1.32642 0
M  V30 2016 C 192.332 2.11063 0.0396611 0
M  V30 2017 O 191.68 2.02701 1.05474 0
M  V30 2018 C 191.89 2.44596 -2.48946 0
M  V30 2019 C 193.238 3.09454 -2.9073 0
M  V30 2020 O 194.262 2.54922 -2.48783 0
M  V30 2021 O 193.121 4.08253 -3.63307 0
M  V30 2022 H 190.215 0.640857 -0.522715 0
M  V30 2023 H 192.761 0.711415 -1.54068 0
M  V30 2024 H 191.533 1.93609 -3.40046 0
M  V30 2025 H 191.156 3.24701 -2.29467 0
M  V30 2026 N 192.153 1.28127 0.917671 0
M  V30 2027 C 193.4 1.15052 1.66641 0
M  V30 2028 C 193.728 -0.301677 1.92146 0
M  V30 2029 O 192.983 -1.23622 1.51711 0
M  V30 2030 C 193.282 1.89018 3.03327 0
M  V30 2031 C 192.948 3.38832 2.97496 0
M  V30 2032 C 191.61 3.79693 2.95613 0
M  V30 2033 C 193.962 4.34378 2.88036 0
M  V30 2034 C 191.29 5.14447 2.82066 0
M  V30 2035 C 193.642 5.69201 2.7603 0
M  V30 2036 C 192.306 6.09343 2.72502 0
M  V30 2037 H 191.576 0.421006 0.609783 0
M  V30 2038 H 194.223 1.58855 1.06945 0
M  V30 2039 H 192.528 1.37752 3.66785 0
M  V30 2040 H 194.225 1.76321 3.60156 0
M  V30 2041 H 190.815 3.06342 2.99754 0
M  V30 2042 H 194.999 4.03775 2.88581 0
M  V30 2043 H 190.255 5.44681 2.77728 0
M  V30 2044 H 194.429 6.42901 2.67678 0
M  V30 2045 H 192.056 7.13712 2.61762 0
M  V30 2046 N 193.631 -1.12557 1.10312 0
M  V30 2047 C 194.579 -2.20325 0.745629 0
M  V30 2048 C 195.573 -1.67429 -0.25763 0
M  V30 2049 O 196.779 -1.79612 -0.118132 0
M  V30 2050 H 193.154 -0.718118 0.223182 0
M  V30 2051 H 195.125 -2.47733 1.66346 0
M  V30 2052 C 193.874 -3.47168 0.192262 0
M  V30 2053 H 193.197 -3.88215 0.955475 0
M  V30 2054 H 194.637 -4.23995 -0.0198274 0
M  V30 2055 C 193.096 -3.19298 -1.07472 0
M  V30 2056 O 193.626 -3.3891 -2.15645 0
M  V30 2057 N 191.832 -2.73113 -0.992847 0
M  V30 2058 H 191.379 -2.57354 -0.112474 0
M  V30 2059 H 191.337 -2.54842 -1.84127 0
M  V30 2060 N 195.109 -0.891671 -1.2995 0
M  V30 2061 C 196.52 -0.563104 -1.78006 0
M  V30 2062 C 196.871 0.920978 -1.73241 0
M  V30 2063 O 195.996 1.71987 -1.31337 0
M  V30 2064 C 196.591 -1.01539 -3.23226 0
M  V30 2065 C 195.15 -0.738124 -3.69092 0
M  V30 2066 C 194.297 -1.19461 -2.50249 0
M  V30 2067 H 197.248 -1.07522 -1.16725 0
M  V30 2068 H 197.269 -0.347217 -3.78912 0
M  V30 2069 H 196.781 -2.09555 -3.26662 0
M  V30 2070 H 194.882 0.329766 -3.71138 0
M  V30 2071 H 194.995 -1.33037 -4.60259 0
M  V30 2072 H 193.359 -0.613787 -2.47194 0
M  V30 2073 H 194.142 -2.28265 -2.56417 0
M  V30 2074 N 196.587 1.43421 -0.653314 0
M  V30 2075 C 197.812 2.06678 -0.172846 0
M  V30 2076 C 198.237 1.48648 1.15262 0
M  V30 2077 O 197.595 0.596457 1.71208 0
M  V30 2078 C 197.643 3.60474 -0.0953184 0
M  V30 2079 O 196.747 4.01487 0.942442 0
M  V30 2080 H 196.088 0.657181 -0.0949155 0
M  V30 2081 H 198.618 1.83925 -0.896265 0
M  V30 2082 H 198.628 4.07905 0.0879728 0
M  V30 2083 H 197.303 4.02088 -1.06291 0
M  V30 2084 H 195.88 3.65646 0.731932 0
M  V30 2085 N 198.065 0.39524 1.52563 0
M  V30 2086 C 199.305 -0.184744 2.03563 0
M  V30 2087 C 199.669 -1.43548 1.27507 0
M  V30 2088 O 200.87 -2.093 1.68662 0
M  V30 2089 C 199.141 -0.440294 3.54678 0
M  V30 2090 S 200.7 -0.989712 4.27493 0
M  V30 2091 H 197.518 -0.0515075 0.709132 0
M  V30 2092 H 200.12 0.544957 1.87751 0
M  V30 2093 H 198.824 0.477005 4.07618 0
M  V30 2094 H 198.355 -1.19825 3.74707 0
M  V30 2095 H 200.37 -2.27155 4.41152 0
M  V30 2096 N 199.544 -1.57102 0.125237 0
M  V30 2097 C 200.791 -1.95407 -0.531248 0
M  V30 2098 C 201.119 -1.0089 -1.66287 0
M  V30 2099 O 200.374 -0.0339431 -1.95671 0
M  V30 2100 C 200.673 -3.40096 -1.09862 0
M  V30 2101 C 200.339 -4.50815 -0.0876989 0
M  V30 2102 C 199.001 -4.80824 0.19026 0
M  V30 2103 C 201.353 -5.17724 0.600902 0
M  V30 2104 C 198.681 -5.75058 1.163 0
M  V30 2105 C 201.033 -6.13005 1.56231 0
M  V30 2106 C 199.697 -6.41403 1.8482 0
M  V30 2107 H 198.967 -0.715046 -0.194397 0
M  V30 2108 H 201.614 -1.90373 0.207463 0
M  V30 2109 H 199.919 -3.41855 -1.91422 0
M  V30 2110 H 201.616 -3.6705 -1.61478 0
M  V30 2111 H 198.206 -4.27444 -0.314528 0
M  V30 2112 H 202.39 -4.94691 0.399333 0
M  V30 2113 H 197.646 -5.95362 1.39117 0
M  V30 2114 H 201.82 -6.63934 2.10153 0
M  V30 2115 H 199.447 -7.14229 2.60349 0
M  V30 2116 N 201.022 0.148545 -1.56898 0
M  V30 2117 C 202.247 0.880385 -1.87787 0
M  V30 2118 C 202.672 1.74018 -0.714093 0
M  V30 2119 O 202.03 1.78153 0.336343 0
M  V30 2120 C 202.078 1.71422 -3.17249 0
M  V30 2121 O 201.182 2.8183 -3.01074 0
M  V30 2122 H 200.523 0.245301 -0.617028 0
M  V30 2123 H 203.053 0.139826 -2.04122 0
M  V30 2124 H 203.063 2.10954 -3.49231 0
M  V30 2125 H 201.738 1.08284 -4.01556 0
M  V30 2126 H 200.315 2.45715 -2.80497 0
M  V30 2127 N 202.5 1.5196 0.417844 0
M  V30 2128 C 203.45 1.7106 1.5074 0
M  V30 2129 C 204.434 0.564487 1.50673 0
M  V30 2130 O 205.626 0.821206 1.56797 0
M  V30 2131 C 202.755 1.85677 2.88754 0
M  V30 2132 C 201.841 3.06133 2.93502 0
M  V30 2133 N 202.232 4.28987 2.67962 0
M  V30 2134 C 200.53 3.05787 3.24669 0
M  V30 2135 C 201.231 5.10395 2.79055 0
M  V30 2136 N 200.207 4.45455 3.11561 0
M  V30 2137 H 204.009 2.63696 1.29775 0
M  V30 2138 H 201.523 1.49873 0.625436 0
M  V30 2139 H 203.52 1.97475 3.67164 0
M  V30 2140 H 202.18 0.942348 3.10725 0
M  V30 2141 H 203.191 4.57607 2.4252 0
M  V30 2142 H 199.868 2.2405 3.52289 0
M  V30 2143 H 201.258 6.18247 2.63097 0
M  V30 2144 N 203.978 -0.674533 1.42435 0
M  V30 2145 C 205.389 -1.25514 1.38214 0
M  V30 2146 C 205.74 -1.96055 0.0755464 0
M  V30 2147 O 204.865 -2.00028 -0.8257 0
M  V30 2148 C 205.46 -2.28269 2.50357 0
M  V30 2149 C 204.019 -2.81856 2.49467 0
M  V30 2150 C 203.166 -1.56182 2.29134 0
M  V30 2151 H 206.117 -0.467902 1.51646 0
M  V30 2152 H 206.138 -3.10009 2.20624 0
M  V30 2153 H 205.65 -1.769 3.45439 0
M  V30 2154 H 203.751 -3.37346 1.58204 0
M  V30 2155 H 203.864 -3.30854 3.46515 0
M  V30 2156 H 202.228 -1.82761 1.774 0
M  V30 2157 H 203.011 -1.06778 3.26272 0
M  V30 2158 N 205.456 -1.28612 -0.910864 0
M  V30 2159 C 206.386 -1.15326 -2.03032 0
M  V30 2160 C 207.367 -0.0502924 -1.70026 0
M  V30 2161 O 208.552 -0.227797 -1.92859 0
M  V30 2162 C 205.682 -0.817343 -3.37545 0
M  V30 2163 C 204.636 -1.8754 -3.84724 0
M  V30 2164 C 203.962 -1.39305 -5.16235 0
M  V30 2165 C 205.262 -3.28244 -4.06267 0
M  V30 2166 H 206.956 -2.08975 -2.14406 0
M  V30 2167 H 204.502 -1.00612 -1.03021 0
M  V30 2168 H 206.455 -0.711151 -4.15356 0
M  V30 2169 H 205.179 0.154846 -3.26233 0
M  V30 2170 H 203.838 -1.97079 -3.09121 0
M  V30 2171 H 203.486 -0.409846 -5.01328 0
M  V30 2172 H 203.186 -2.10057 -5.48771 0
M  V30 2173 H 204.71 -1.30014 -5.96598 0
M  V30 2174 H 206.124 -3.21611 -4.74594 0
M  V30 2175 H 204.521 -3.96855 -4.5014 0
M  V30 2176 H 205.591 -3.72048 -3.10979 0
M  V30 2177 N 206.934 1.1197 -1.10907 0
M  V30 2178 C 208.159 1.87942 -0.877064 0
M  V30 2179 C 208.584 1.79341 0.567314 0
M  V30 2180 O 207.942 1.15184 1.40009 0
M  V30 2181 C 207.99 3.34926 -1.33629 0
M  V30 2182 O 207.094 4.09303 -0.504447 0
M  V30 2183 H 206.435 0.583785 -0.316371 0
M  V30 2184 H 208.965 1.4157 -1.47712 0
M  V30 2185 H 208.975 3.8577 -1.32837 0
M  V30 2186 H 207.65 3.40504 -2.3881 0
M  V30 2187 H 206.227 3.68393 -0.577993 0
M  V30 2188 N 208.412 0.89855 1.29475 0
M  V30 2189 C 209.375 0.380272 2.26023 0
M  V30 2190 C 210.375 -0.484891 1.53315 0
M  V30 2191 O 211.565 -0.290108 1.71767 0
M  V30 2192 C 208.697 -0.45651 3.3783 0
M  V30 2193 H 209.89 1.23295 2.73383 0
M  V30 2194 H 207.443 0.676589 1.40897 0
M  V30 2195 H 208.178 -1.32922 2.95808 0
M  V30 2196 H 207.963 0.163393 3.91759 0
M  V30 2197 H 209.453 -0.810466 4.0966 0
M  V30 2198 N 209.89 -1.43072 0.660911 0
M  V30 2199 C 211.167 -1.95307 0.107017 0
M  V30 2200 C 211.547 -1.60192 -1.37484 0
M  V30 2201 O 210.895 -0.890949 -2.10415 0
M  V30 2202 C 211.105 -3.47124 0.361402 0
M  V30 2203 C 212.453 -4.23738 0.270455 0
M  V30 2204 O 213.477 -3.54981 0.294382 0
M  V30 2205 O 212.336 -5.46131 0.200737 0
M  V30 2206 H 209.43 -0.826984 -0.00517729 0
M  V30 2207 H 211.976 -1.52972 0.734681 0
M  V30 2208 H 210.748 -3.65837 1.38848 0
M  V30 2209 H 210.371 -3.96475 -0.298953 0
M  V30 2210 N 211.368 -0.403325 -1.52352 0
M  V30 2211 C 212.616 0.174003 -2.0135 0
M  V30 2212 C 212.937 1.46139 -1.29106 0
M  V30 2213 O 212.207 1.91448 -0.415253 0
M  V30 2214 H 210.787 0.0672911 -0.743963 0
M  V30 2215 H 213.449 -0.538235 -1.87321 0
M  V30 2216 H 212.545 0.374254 -3.09848 0
M  V30 2217 N 212.846 1.57033 -0.133567 0
M  V30 2218 C 214.093 1.95686 0.520877 0
M  V30 2219 C 214.421 1.0177 1.6575 0
M  V30 2220 O 213.676 0.0443195 1.9565 0
M  V30 2221 C 213.975 3.40674 1.08057 0
M  V30 2222 C 213.641 4.50855 0.0637899 0
M  V30 2223 C 212.303 4.80716 -0.215757 0
M  V30 2224 C 214.655 5.17398 -0.62835 0
M  V30 2225 C 211.983 5.74433 -1.19348 0
M  V30 2226 C 214.335 6.12167 -1.5948 0
M  V30 2227 C 212.999 6.40414 -1.88218 0
M  V30 2228 H 212.269 0.716067 0.190602 0
M  V30 2229 H 214.916 1.9026 -0.217556 0
M  V30 2230 H 213.221 3.42865 1.89606 0
M  V30 2231 H 214.918 3.67902 1.59529 0
M  V30 2232 H 211.508 4.27605 0.291855 0
M  V30 2233 H 215.692 4.94472 -0.425562 0
M  V30 2234 H 210.948 5.94616 -1.42272 0
M  V30 2235 H 215.122 6.6281 -2.13671 0
M  V30 2236 H 212.749 7.12838 -2.64133 0
M  V30 2237 N 214.325 -0.140222 1.56975 0
M  V30 2238 C 215.553 -0.866437 1.87884 0
M  V30 2239 C 215.968 -1.74428 0.722517 0
M  V30 2240 O 215.325 -1.79891 -0.30749 0
M  V30 2241 C 215.376 -1.71753 3.18093 0
M  V30 2242 O 215.097 -0.875056 4.29272 0
M  V30 2243 C 216.598 -2.55074 3.62563 0
M  V30 2244 H 213.818 -0.25019 0.622612 0
M  V30 2245 H 216.362 -0.130977 2.0408 0
M  V30 2246 H 214.517 -2.40598 3.03631 0
M  V30 2247 H 214.931 -1.46002 5.03769 0
M  V30 2248 H 216.405 -3.10356 4.5649 0
M  V30 2249 H 216.882 -3.31434 2.88181 0
M  V30 2250 H 217.488 -1.91509 3.79743 0
M  V30 2251 N 215.803 -1.52179 -0.40978 0
M  V30 2252 C 216.733 -1.78435 -1.5061 0
M  V30 2253 C 217.714 -0.635295 -1.57791 0
M  V30 2254 O 218.899 -0.880823 -1.73076 0
M  V30 2255 C 216.029 -1.93444 -2.88439 0
M  V30 2256 C 214.983 -3.09038 -2.96108 0
M  V30 2257 C 214.309 -3.09268 -4.36185 0
M  V30 2258 C 215.609 -4.48508 -2.67652 0
M  V30 2259 H 217.303 -2.70237 -1.28889 0
M  V30 2260 H 214.849 -1.30036 -0.618605 0
M  V30 2261 H 216.802 -2.10394 -3.65119 0
M  V30 2262 H 215.526 -0.983129 -3.11452 0
M  V30 2263 H 214.185 -2.91837 -2.21872 0
M  V30 2264 H 213.833 -2.11861 -4.56206 0
M  V30 2265 H 213.533 -3.86907 -4.42241 0
M  V30 2266 H 215.057 -3.28348 -5.14801 0
M  V30 2267 H 216.471 -4.65918 -3.34056 0
M  V30 2268 H 214.868 -5.28059 -2.85085 0
M  V30 2269 H 215.938 -4.56649 -1.63095 0
M  V30 2270 N 217.281 0.66697 -1.42791 0
M  V30 2271 C 218.506 1.46004 -1.47301 0
M  V30 2272 C 218.931 1.87894 -0.0880317 0
M  V30 2273 O 218.289 1.56502 0.915253 0
M  V30 2274 C 218.337 2.68031 -2.41229 0
M  V30 2275 O 217.441 3.6659 -1.88906 0
M  V30 2276 H 216.782 0.43832 -0.49877 0
M  V30 2277 H 219.312 0.817391 -1.87563 0
M  V30 2278 H 219.322 3.1601 -2.58073 0
M  V30 2279 H 217.997 2.36883 -3.41847 0
M  V30 2280 H 216.574 3.25661 -1.81656 0
M  V30 2281 N 218.759 1.29093 0.90403 0
M  V30 2282 C 219.709 1.10482 1.99443 0
M  V30 2283 C 220.693 0.0255401 1.6088 0
M  V30 2284 O 221.885 0.24677 1.75271 0
M  V30 2285 C 219.014 0.778882 3.34348 0
M  V30 2286 C 218.1 1.89749 3.79284 0
M  V30 2287 N 218.491 3.14045 3.96497 0
M  V30 2288 C 216.789 1.78955 4.08523 0
M  V30 2289 C 217.49 3.86996 4.34292 0
M  V30 2290 N 216.466 3.14909 4.43095 0
M  V30 2291 H 220.268 2.04778 2.10815 0
M  V30 2292 H 217.782 1.20155 1.09255 0
M  V30 2293 H 219.779 0.62661 4.12164 0
M  V30 2294 H 218.439 -0.156205 3.24324 0
M  V30 2295 H 219.45 3.49548 3.82148 0
M  V30 2296 H 216.127 0.926886 4.07081 0
M  V30 2297 H 217.517 4.93941 4.55491 0
M  V30 2298 N 220.237 -1.11381 1.11499 0
M  V30 2299 C 221.2 -2.15622 0.777153 0
M  V30 2300 C 222.2 -1.59504 -0.203779 0
M  V30 2301 O 223.39 -1.74188 0.020782 0
M  V30 2302 C 220.522 -3.40556 0.153116 0
M  V30 2303 H 221.715 -2.47021 1.70061 0
M  V30 2304 H 219.268 -1.26577 0.916952 0
M  V30 2305 H 220.003 -3.14767 -0.780536 0
M  V30 2306 H 219.788 -3.8257 0.859238 0
M  V30 2307 H 221.278 -4.17546 -0.0671044 0
M  V30 2308 N 221.715 -0.905404 -1.28997 0
M  V30 2309 C 222.992 -0.453513 -1.9027 0
M  V30 2310 C 223.372 1.06721 -1.82137 0
M  V30 2311 O 222.72 1.91159 -1.25182 0
M  V30 2312 C 222.93 -0.974494 -3.35119 0
M  V30 2313 C 224.278 -1.0216 -4.12127 0
M  V30 2314 O 225.302 -0.922557 -3.44046 0
M  V30 2315 O 224.161 -1.17121 -5.33802 0
M  V30 2316 H 221.255 -0.142347 -0.814657 0
M  V30 2317 H 223.801 -0.995642 -1.37423 0
M  V30 2318 H 222.573 -2.01848 -3.35221 0
M  V30 2319 H 222.196 -0.412706 -3.95452 0
M  V30 2320 N 223.193 1.4272 -0.668489 0
M  V30 2321 C 224.47 1.95248 -0.117373 0
M  V30 2322 C 224.85 1.60919 1.36632 0
M  V30 2323 O 224.198 0.902095 2.09939 0
M  V30 2324 C 224.408 3.46927 -0.379806 0
M  V30 2325 C 225.756 4.23588 -0.292923 0
M  V30 2326 O 226.78 3.5482 -0.313204 0
M  V30 2327 O 225.639 5.46017 -0.229697 0
M  V30 2328 H 222.733 0.827 0.00079152 0
M  V30 2329 H 225.279 1.52581 -0.742783 0
M  V30 2330 H 224.051 3.65096 -1.40786 0
M  V30 2331 H 223.674 3.96627 0.277923 0
M  V30 2332 N 224.671 0.411399 1.52136 0
M  V30 2333 C 225.896 -0.165538 2.06738 0
M  V30 2334 C 226.321 -1.379 1.27926 0
M  V30 2335 O 225.679 -1.78628 0.310114 0
M  V30 2336 C 225.727 -0.492124 3.57226 0
M  V30 2337 O 224.831 -1.58276 3.80818 0
M  V30 2338 H 224.172 -0.0132132 0.663869 0
M  V30 2339 H 226.702 0.585253 1.96051 0
M  V30 2340 H 226.712 -0.750104 4.01045 0
M  V30 2341 H 225.387 0.394922 4.14021 0
M  V30 2342 H 223.964 -1.31677 3.48877 0
M  V30 2343 N 226.149 -1.5696 0.141893 0
M  V30 2344 C 227.398 -1.95135 -0.510427 0
M  V30 2345 C 227.711 -1.02896 -1.66348 0
M  V30 2346 O 228.917 -1.30629 -2.38009 0
M  V30 2347 C 227.373 -3.46876 -0.959427 0
M  V30 2348 C 226.981 -4.47691 0.166419 0
M  V30 2349 C 228.725 -3.93927 -1.58183 0
M  V30 2350 C 226.632 -5.90636 -0.300565 0
M  V30 2351 H 225.562 -0.728494 -0.194454 0
M  V30 2352 H 228.213 -1.8211 0.22542 0
M  V30 2353 H 226.595 -3.55215 -1.75038 0
M  V30 2354 H 227.769 -4.51043 0.94325 0
M  V30 2355 H 226.084 -4.10527 0.696905 0
M  V30 2356 H 228.681 -4.98158 -1.94275 0
M  V30 2357 H 229.024 -3.3519 -2.46888 0
M  V30 2358 H 229.557 -3.88484 -0.855863 0
M  V30 2359 H 226.296 -6.5318 0.550989 0
M  V30 2360 H 225.816 -5.90655 -1.04338 0
M  V30 2361 H 227.495 -6.42588 -0.754265 0
M  V30 2362 N 227.627 0.131896 -1.57047 0
M  V30 2363 C 229.043 0.485031 -1.52051 0
M  V30 2364 C 229.243 1.82563 -0.85281 0
M  V30 2365 O 228.299 2.48817 -0.429694 0
M  V30 2366 C 229.612 0.481409 -2.96821 0
M  V30 2367 C 231.16 0.565868 -3.07842 0
M  V30 2368 C 231.635 0.592762 -4.54148 0
M  V30 2369 N 233.126 0.654564 -4.58552 0
M  V30 2370 C 233.861 0.696608 -5.69153 0
M  V30 2371 N 233.357 0.697078 -6.89284 0
M  V30 2372 N 235.15 0.738639 -5.57226 0
M  V30 2373 H 227.301 -0.746664 -1.98843 0
M  V30 2374 H 229.564 -0.273999 -0.90754 0
M  V30 2375 H 229.27 -0.435731 -3.4899 0
M  V30 2376 H 229.144 1.3139 -3.53577 0
M  V30 2377 H 231.531 1.47343 -2.55684 0
M  V30 2378 H 231.612 -0.29406 -2.54104 0
M  V30 2379 H 231.256 -0.310701 -5.06949 0
M  V30 2380 H 231.186 1.46939 -5.05684 0
M  V30 2381 H 233.677 0.660887 -3.72076 0
M  V30 2382 H 233.99 0.731426 -7.69331 0
M  V30 2383 H 232.335 0.66471 -6.91814 0
M  V30 2384 H 235.526 0.735545 -4.62285 0
M  V30 2385 H 235.699 0.767938 -6.43434 0
M  V30 2386 N 229.106 1.52395 0.401703 0
M  V30 2387 C 230.038 1.72505 1.50912 0
M  V30 2388 C 231.051 0.605468 1.51122 0
M  V30 2389 O 232.24 0.880828 1.55254 0
M  V30 2390 C 229.34 1.75711 2.89791 0
M  V30 2391 C 228.513 3.04824 3.1369 0
M  V30 2392 C 227.572 2.99743 4.32482 0
M  V30 2393 O 226.598 3.73635 4.29402 0
M  V30 2394 N 227.8 2.18047 5.37992 0
M  V30 2395 H 230.565 2.68049 1.34052 0
M  V30 2396 H 228.126 1.50724 0.591084 0
M  V30 2397 H 230.118 1.69834 3.6734 0
M  V30 2398 H 228.688 0.876092 3.00072 0
M  V30 2399 H 227.908 3.2429 2.24119 0
M  V30 2400 H 229.196 3.90221 3.26504 0
M  V30 2401 H 228.594 1.57456 5.43345 0
M  V30 2402 H 227.151 2.18021 6.14256 0
M  V30 2403 N 230.584 -0.659388 1.43143 0
M  V30 2404 C 231.831 -1.41935 1.44433 0
M  V30 2405 C 232.159 -1.94387 0.0663522 0
M  V30 2406 O 231.414 -1.72314 -0.927706 0
M  V30 2407 C 231.713 -2.62206 2.42864 0
M  V30 2408 C 231.379 -2.28208 3.88886 0
M  V30 2409 C 230.041 -2.18647 4.28657 0
M  V30 2410 C 232.393 -2.00887 4.8093 0
M  V30 2411 C 229.721 -1.79914 5.58433 0
M  V30 2412 C 232.073 -1.63653 6.11065 0
M  V30 2413 C 230.737 -1.52614 6.49819 0
M  V30 2414 H 230.007 -0.519376 0.528517 0
M  V30 2415 H 232.654 -0.750453 1.76183 0
M  V30 2416 H 230.959 -3.34199 2.04495 0
M  V30 2417 H 232.656 -3.2041 2.41119 0
M  V30 2418 H 229.246 -2.36557 3.57406 0
M  V30 2419 H 233.43 -2.07198 4.5098 0
M  V30 2420 H 228.686 -1.69948 5.87305 0
M  V30 2421 H 232.86 -1.41543 6.81864 0
M  V30 2422 H 230.487 -1.22371 7.50286 0
M  V30 2423 N 232.062 -1.29571 -0.897171 0
M  V30 2424 C 233.308 -1.18873 -1.65048 0
M  V30 2425 C 233.663 0.256707 -1.9068 0
M  V30 2426 O 232.956 1.18202 -1.50794 0
M  V30 2427 C 233.15 -1.9382 -3.00281 0
M  V30 2428 C 232.979 -3.45503 -2.8785 0
M  V30 2429 C 231.749 -4.14856 -2.88483 0
M  V30 2430 C 233.947 -4.40956 -2.64693 0
M  V30 2431 N 231.929 -5.52886 -2.66815 0
M  V30 2432 C 233.3 -5.66464 -2.5203 0
M  V30 2433 C 235.355 -4.3069 -2.49821 0
M  V30 2434 C 234.058 -6.82871 -2.26008 0
M  V30 2435 C 236.084 -5.46852 -2.25182 0
M  V30 2436 C 235.446 -6.71333 -2.13286 0
M  V30 2437 H 231.545 -0.489998 -0.609447 0
M  V30 2438 H 234.129 -1.63431 -1.05822 0
M  V30 2439 H 232.3 -1.51671 -3.57562 0
M  V30 2440 H 234.032 -1.75366 -3.64731 0
M  V30 2441 H 230.787 -3.66579 -2.99861 0
M  V30 2442 H 231.211 -6.25487 -2.59027 0
M  V30 2443 H 235.853 -3.35141 -2.5776 0
M  V30 2444 H 233.571 -7.78473 -2.16806 0
M  V30 2445 H 237.157 -5.40809 -2.14515 0
M  V30 2446 H 236.037 -7.59701 -1.94485 0
M  V30 2447 N 233.54 1.10788 -1.12088 0
M  V30 2448 C 234.789 1.82036 -0.868659 0
M  V30 2449 C 235.102 1.85929 0.607426 0
M  V30 2450 O 236.308 2.53346 0.97613 0
M  V30 2451 C 234.764 3.26951 -1.50435 0
M  V30 2452 C 234.372 3.31367 -3.01496 0
M  V30 2453 C 236.116 4.03053 -1.33225 0
M  V30 2454 C 234.023 4.7072 -3.58017 0
M  V30 2455 H 232.953 0.682108 -0.321318 0
M  V30 2456 H 235.604 1.24618 -1.34694 0
M  V30 2457 H 233.986 3.84343 -0.953735 0
M  V30 2458 H 235.16 2.83819 -3.6302 0
M  V30 2459 H 233.475 2.6875 -3.18061 0
M  V30 2460 H 236.072 5.05981 -1.72878 0
M  V30 2461 H 236.415 4.15387 -0.275529 0
M  V30 2462 H 236.948 3.52066 -1.85188 0
M  V30 2463 H 233.687 4.63585 -4.63432 0
M  V30 2464 H 233.207 5.1865 -3.01268 0
M  V30 2465 H 234.886 5.39685 -3.56859 0
M  V30 2466 N 235.018 0.912232 1.28515 0
M  V30 2467 C 236.295 0.463597 1.90027 0
M  V30 2468 C 236.675 -1.05753 1.82701 0
M  V30 2469 O 236.023 -1.90492 1.26194 0
M  V30 2470 C 236.233 0.992253 3.34597 0
M  V30 2471 C 237.581 1.04344 4.11579 0
M  V30 2472 O 238.605 0.94079 3.43551 0
M  V30 2473 O 237.464 1.1995 5.33174 0
M  V30 2474 H 234.558 0.146666 0.813891 0
M  V30 2475 H 237.104 1.00292 1.36893 0
M  V30 2476 H 235.876 2.03623 3.34146 0
M  V30 2477 H 235.499 0.433672 3.95228 0
M  V30 2478 N 236.496 -1.42363 0.676048 0
M  V30 2479 C 237.446 -2.27987 -0.0242903 0
M  V30 2480 C 238.43 -1.41153 -0.772319 0
M  V30 2481 O 239.622 -1.64592 -0.651025 0
M  V30 2482 C 236.751 -3.29195 -0.973953 0
M  V30 2483 C 235.837 -4.23512 -0.223202 0
M  V30 2484 N 236.228 -4.99865 0.772589 0
M  V30 2485 C 234.526 -4.43606 -0.461469 0
M  V30 2486 C 235.227 -5.68757 1.22027 0
M  V30 2487 N 234.203 -5.40811 0.549975 0
M  V30 2488 H 238.005 -2.84445 0.73949 0
M  V30 2489 H 235.519 -1.54341 0.50522 0
M  V30 2490 H 237.516 -3.89339 -1.49067 0
M  V30 2491 H 236.176 -2.74298 -1.73755 0
M  V30 2492 H 237.187 -5.04921 1.15217 0
M  V30 2493 H 233.864 -3.99749 -1.20446 0
M  V30 2494 H 235.254 -6.40007 2.0455 0
M  V30 2495 N 237.974 -0.419461 -1.51915 0
M  V30 2496 C 239.214 0.152336 -2.03832 0
M  V30 2497 C 239.578 1.41501 -1.29775 0
M  V30 2498 O 240.779 2.06591 -1.7197 0
M  V30 2499 C 239.05 0.383812 -3.55333 0
M  V30 2500 S 240.609 0.921577 -4.29013 0
M  V30 2501 H 237.427 0.0402193 -0.709862 0
M  V30 2502 H 240.029 -0.574758 -1.8686 0
M  V30 2503 H 238.733 -0.541794 -4.06808 0
M  V30 2504 H 238.264 1.13849 -3.76566 0
M  V30 2505 H 240.279 2.20108 -4.4471 0
M  V30 2506 N 239.452 1.56882 -0.150215 0
M  V30 2507 C 240.399 2.16922 0.788244 0
M  V30 2508 C 241.369 1.10303 1.24187 0
M  V30 2509 O 242.554 1.38359 1.31383 0
M  V30 2510 C 239.694 2.79754 2.02068 0
M  V30 2511 C 238.807 4.00775 1.61257 0
M  V30 2512 C 237.942 4.51595 2.79705 0
M  V30 2513 C 236.981 5.65074 2.35282 0
M  V30 2514 N 236.118 6.10499 3.4675 0
M  V30 2515 H 240.958 2.96779 0.269444 0
M  V30 2516 H 238.495 1.46599 0.12128 0
M  V30 2517 H 240.453 3.14329 2.74323 0
M  V30 2518 H 239.083 2.02536 2.51354 0
M  V30 2519 H 238.135 3.72158 0.787553 0
M  V30 2520 H 239.447 4.82978 1.24633 0
M  V30 2521 H 238.601 4.88242 3.60145 0
M  V30 2522 H 237.34 3.68406 3.19576 0
M  V30 2523 H 236.345 5.28 1.53283 0
M  V30 2524 H 237.57 6.50052 1.96493 0
M  V30 2525 H 235.516 5.30243 3.86236 0
M  V30 2526 H 235.433 6.87637 3.14152 0
M  V30 2527 H 236.701 6.51791 4.27537 0
M  V30 2528 N 240.93 -0.123565 1.57115 0
M  V30 2529 C 241.893 -1.13583 1.99076 0
M  V30 2530 C 242.893 -1.34564 0.880296 0
M  V30 2531 O 244.083 -1.31158 1.14644 0
M  V30 2532 C 241.215 -2.49128 2.32698 0
M  V30 2533 H 242.408 -0.775287 2.89706 0
M  V30 2534 H 239.961 -0.36771 1.51913 0
M  V30 2535 H 240.696 -2.90111 1.44934 0
M  V30 2536 H 240.481 -2.35255 3.13684 0
M  V30 2537 H 241.971 -3.2199 2.65918 0
M  V30 2538 N 242.408 -1.52605 -0.393616 0
M  V30 2539 C 243.633 -1.71592 -1.16495 0
M  V30 2540 C 244.058 -0.43133 -1.83088 0
M  V30 2541 O 243.416 0.612523 -1.7064 0
M  V30 2542 C 243.464 -2.86318 -2.19213 0
M  V30 2543 O 242.568 -2.52969 -3.257 0
M  V30 2544 H 241.909 -0.570734 -0.33935 0
M  V30 2545 H 244.439 -1.99377 -0.459324 0
M  V30 2546 H 244.449 -3.1168 -2.63286 0
M  V30 2547 H 243.124 -3.79511 -1.7013 0
M  V30 2548 H 241.701 -2.38332 -2.86797 0
M  V30 2549 N 243.887 0.651787 -1.4349 0
M  V30 2550 C 245.303 0.96762 -1.26922 0
M  V30 2551 C 245.503 2.00602 -0.189982 0
M  V30 2552 O 244.559 2.48793 0.431107 0
M  V30 2553 C 245.872 1.45052 -2.63401 0
M  V30 2554 C 247.42 1.5671 -2.70945 0
M  V30 2555 C 247.895 2.0839 -4.07845 0
M  V30 2556 N 249.386 2.1569 -4.09917 0
M  V30 2557 C 250.121 2.56804 -5.12679 0
M  V30 2558 N 249.617 2.97203 -6.25813 0
M  V30 2559 N 251.41 2.56756 -5.00033 0
M  V30 2560 H 243.561 -0.0353158 -2.12371 0
M  V30 2561 H 245.824 0.0467858 -0.946845 0
M  V30 2562 H 245.53 0.761926 -3.43348 0
M  V30 2563 H 245.404 2.42529 -2.88894 0
M  V30 2564 H 247.791 2.2467 -1.9133 0
M  V30 2565 H 247.872 0.57662 -2.49216 0
M  V30 2566 H 247.516 1.41031 -4.87927 0
M  V30 2567 H 247.446 3.08271 -4.26938 0
M  V30 2568 H 249.937 1.87237 -3.28254 0
M  V30 2569 H 250.25 3.27328 -7.00055 0
M  V30 2570 H 248.595 2.95004 -6.29283 0
M  V30 2571 H 251.786 2.24572 -4.10713 0
M  V30 2572 H 251.959 2.88475 -5.80247 0
M  V30 2573 N 245.365 1.30045 0.890287 0
M  V30 2574 C 246.781 1.08261 1.17268 0
M  V30 2575 C 246.981 -0.160063 2.00863 0
M  V30 2576 O 246.037 -0.855181 2.37577 0
M  V30 2577 C 247.35 2.34323 1.8845 0
M  V30 2578 C 248.898 2.39735 2.01237 0
M  V30 2579 C 249.373 3.65625 2.7583 0
M  V30 2580 N 250.864 3.66402 2.83379 0
M  V30 2581 C 251.599 4.60498 3.41657 0
M  V30 2582 N 251.095 5.64933 4.01026 0
M  V30 2583 N 252.888 4.48051 3.39421 0
M  V30 2584 H 245.039 2.09777 0.332762 0
M  V30 2585 H 247.302 0.92446 0.209948 0
M  V30 2586 H 247.008 3.2498 1.34465 0
M  V30 2587 H 246.882 2.4256 2.88867 0
M  V30 2588 H 249.269 1.4956 2.54393 0
M  V30 2589 H 249.35 2.35476 0.999232 0
M  V30 2590 H 248.994 4.56156 2.23347 0
M  V30 2591 H 248.924 3.67144 3.77509 0
M  V30 2592 H 251.415 2.90896 2.41222 0
M  V30 2593 H 251.728 6.32841 4.43545 0
M  V30 2594 H 250.073 5.68732 3.99461 0
M  V30 2595 H 253.264 3.65649 2.92264 0
M  V30 2596 H 253.437 5.21565 3.84544 0
M  V30 2597 N 246.843 -1.10192 1.12674 0
M  V30 2598 C 248.089 -1.82475 0.884915 0
M  V30 2599 C 248.422 -1.85093 -0.58773 0
M  V30 2600 O 247.697 -1.3134 -1.43457 0
M  V30 2601 C 247.98 -3.29018 1.46353 0
M  V30 2602 C 247.833 -3.34718 3.00473 0
M  V30 2603 C 249.152 -4.25473 1.12519 0
M  V30 2604 H 246.271 -0.662492 0.322915 0
M  V30 2605 H 248.913 -1.2913 1.39375 0
M  V30 2606 H 247.063 -3.74576 1.03077 0
M  V30 2607 H 248.735 -2.97622 3.52447 0
M  V30 2608 H 246.978 -2.74541 3.35872 0
M  V30 2609 H 247.649 -4.37918 3.36053 0
M  V30 2610 H 250.125 -3.88161 1.499 0
M  V30 2611 H 249.001 -5.26365 1.55663 0
M  V30 2612 H 249.262 -4.42084 0.0377407 0
M  V30 2613 N 248.321 -0.919034 -1.28029 0
M  V30 2614 C 249.546 -0.570357 -1.99403 0
M  V30 2615 C 249.971 0.842486 -1.68178 0
M  V30 2616 O 249.329 1.56391 -0.917141 0
M  V30 2617 C 249.377 -0.792541 -3.51783 0
M  V30 2618 O 248.481 0.145988 -4.12142 0
M  V30 2619 H 247.822 -0.220555 -0.6263 0
M  V30 2620 H 250.352 -1.23592 -1.63053 0
M  V30 2621 H 250.362 -0.704708 -4.01868 0
M  V30 2622 H 249.037 -1.82247 -3.73844 0
M  V30 2623 H 247.614 0.00897528 -3.72899 0
M  V30 2624 N 249.799 1.42003 -0.683588 0
M  V30 2625 C 250.762 2.29191 -0.0198243 0
M  V30 2626 C 251.762 1.43773 0.72013 0
M  V30 2627 O 252.952 1.65061 0.556815 0
M  V30 2628 C 250.084 3.26435 0.982487 0
M  V30 2629 H 251.277 2.8938 -0.787345 0
M  V30 2630 H 248.83 1.49789 -0.446418 0
M  V30 2631 H 249.565 2.71203 1.77819 0
M  V30 2632 H 249.35 3.89449 0.455182 0
M  V30 2633 H 250.84 3.918 1.44508 0
M  V30 2634 N 251.277 0.427512 1.51691 0
M  V30 2635 C 252.507 -0.140986 2.06118 0
M  V30 2636 C 252.915 -1.37854 1.29588 0
M  V30 2637 O 252.258 -1.80411 0.346036 0
M  V30 2638 C 252.32 -0.538276 3.55447 0
M  V30 2639 C 251.984 0.591095 4.53161 0
M  V30 2640 C 252.981 1.46027 4.98971 0
M  V30 2641 C 250.666 0.769028 4.96378 0
M  V30 2642 C 252.66 2.49216 5.8666 0
M  V30 2643 C 250.347 1.80421 5.83859 0
M  V30 2644 C 251.345 2.66417 6.28897 0
M  V30 2645 O 251.033 3.68159 7.14643 0
M  V30 2646 H 250.765 -0.0157455 0.675817 0
M  V30 2647 H 253.319 0.602495 1.96365 0
M  V30 2648 H 251.549 -1.33432 3.6295 0
M  V30 2649 H 253.238 -1.0368 3.92435 0
M  V30 2650 H 254.004 1.33429 4.66285 0
M  V30 2651 H 249.883 0.109273 4.6087 0
M  V30 2652 H 253.427 3.16372 6.21735 0
M  V30 2653 H 249.324 1.93042 6.15959 0
M  V30 2654 H 250.092 3.64622 7.32798 0
M  V30 2655 N 252.755 -1.56801 0.158532 0
M  V30 2656 C 254.002 -1.9649 -0.489679 0
M  V30 2657 C 254.33 -1.04394 -1.6411 0
M  V30 2658 O 253.585 -0.0754401 -1.95555 0
M  V30 2659 C 253.884 -3.4235 -1.02623 0
M  V30 2660 C 253.55 -4.50899 0.00794526 0
M  V30 2661 C 252.212 -4.80312 0.292207 0
M  V30 2662 C 254.564 -5.16333 0.710584 0
M  V30 2663 C 251.892 -5.72461 1.28472 0
M  V30 2664 C 254.244 -6.09553 1.69199 0
M  V30 2665 C 252.908 -6.37339 1.98383 0
M  V30 2666 H 252.178 -0.719009 -0.179186 0
M  V30 2667 H 254.825 -1.8989 0.247798 0
M  V30 2668 H 253.13 -3.45838 -1.84128 0
M  V30 2669 H 254.827 -3.70393 -1.53656 0
M  V30 2670 H 251.417 -4.28015 -0.22379 0
M  V30 2671 H 255.601 -4.93732 0.504174 0
M  V30 2672 H 250.857 -5.92278 1.51714 0
M  V30 2673 H 255.031 -6.59327 2.24189 0
M  V30 2674 H 252.658 -7.08546 2.7544 0
M  V30 2675 N 254.233 0.115231 -1.57178 0
M  V30 2676 C 255.481 0.820727 -1.84685 0
M  V30 2677 C 255.802 1.80237 -0.744279 0
M  V30 2678 O 255.072 1.94529 0.231375 0
M  V30 2679 H 253.652 0.306084 -0.681411 0
M  V30 2680 H 256.314 0.101656 -1.94635 0
M  V30 2681 H 255.41 1.36366 -2.80733 0
M  V30 2682 N 255.711 1.52812 0.385517 0
M  V30 2683 C 256.621 1.80766 1.49535 0
M  V30 2684 C 257.637 0.694651 1.59532 0
M  V30 2685 O 258.813 0.982611 1.75803 0
M  V30 2686 C 255.878 1.97381 2.85029 0
M  V30 2687 C 254.939 3.21295 2.84724 0
M  V30 2688 C 254.172 3.37108 4.13756 0
M  V30 2689 O 254.395 2.5765 5.08893 0
M  V30 2690 O 253.329 4.30378 4.20783 0
M  V30 2691 H 257.155 2.75015 1.28842 0
M  V30 2692 H 254.74 1.37946 0.573697 0
M  V30 2693 H 256.622 2.09996 3.65349 0
M  V30 2694 H 255.297 1.06322 3.05741 0
M  V30 2695 H 254.204 3.1412 2.03174 0
M  V30 2696 H 255.537 4.12212 2.68965 0
M  V30 2697 N 257.189 -0.644168 1.43834 0
M  V30 2698 C 258.121 -1.76955 1.45669 0
M  V30 2699 C 259.134 -1.58956 0.351666 0
M  V30 2700 O 260.323 -1.6751 0.616644 0
M  V30 2701 C 257.423 -3.14507 1.26248 0
M  V30 2702 C 256.596 -3.59083 2.49757 0
M  V30 2703 C 255.655 -4.75467 2.25427 0
M  V30 2704 O 254.681 -4.84444 2.98836 0
M  V30 2705 N 255.883 -5.66289 1.27661 0
M  V30 2706 H 258.648 -1.75856 2.42682 0
M  V30 2707 H 256.209 -0.828312 1.39106 0
M  V30 2708 H 258.201 -3.90067 1.0784 0
M  V30 2709 H 256.771 -3.10325 0.376478 0
M  V30 2710 H 255.991 -2.7387 2.8353 0
M  V30 2711 H 257.279 -3.85613 3.31934 0
M  V30 2712 H 256.677 -5.61718 0.670064 0
M  V30 2713 H 255.234 -6.41533 1.15234 0
M  V30 2714 N 258.668 -1.30515 -0.883378 0
M  V30 2715 C 259.598 -1.19607 -2.00541 0
M  V30 2716 C 260.579 -0.086346 -1.69881 0
M  V30 2717 O 261.764 -0.268654 -1.92333 0
M  V30 2718 C 258.894 -0.888758 -3.35736 0
M  V30 2719 C 257.848 -1.95659 -3.8066 0
M  V30 2720 C 257.174 -1.50224 -5.13164 0
M  V30 2721 C 258.474 -3.36788 -3.99213 0
M  V30 2722 H 260.168 -2.13476 -2.09925 0
M  V30 2723 H 257.714 -1.02775 -1.00863 0
M  V30 2724 H 259.667 -0.799094 -4.13754 0
M  V30 2725 H 258.391 0.0856125 -3.26488 0
M  V30 2726 H 257.05 -2.03591 -3.04871 0
M  V30 2727 H 256.698 -0.516092 -5.00345 0
M  V30 2728 H 256.398 -2.2165 -5.44192 0
M  V30 2729 H 257.922 -1.42639 -5.93706 0
M  V30 2730 H 259.336 -3.31605 -4.67665 0
M  V30 2731 H 257.733 -4.06314 -4.41621 0
M  V30 2732 H 258.803 -3.78561 -3.03017 0
M  V30 2733 N 260.146 1.09593 -1.13257 0
M  V30 2734 C 261.394 1.81375 -0.891492 0
M  V30 2735 C 261.715 1.86049 0.584009 0
M  V30 2736 O 260.985 1.34481 1.42449 0
M  V30 2737 H 259.565 0.671708 -0.326828 0
M  V30 2738 H 262.227 1.3256 -1.42877 0
M  V30 2739 H 261.323 2.84612 -1.28071 0
M  V30 2740 N 261.624 0.925811 1.2754 0
M  V30 2741 C 262.852 0.581509 1.9856 0
M  V30 2742 C 263.267 -0.840041 1.69082 0
M  V30 2743 O 262.624 -1.55805 0.950312 0
M  V30 2744 C 262.675 0.795589 3.52637 0
M  V30 2745 O 262.396 2.16121 3.81082 0
M  V30 2746 C 263.897 0.459744 4.4091 0
M  V30 2747 H 261.117 0.220538 0.633722 0
M  V30 2748 H 263.661 1.24232 1.6244 0
M  V30 2749 H 261.816 0.18161 3.86974 0
M  V30 2750 H 262.23 2.2098 4.75676 0
M  V30 2751 H 263.704 0.660244 5.48037 0
M  V30 2752 H 264.181 -0.604625 4.35018 0
M  V30 2753 H 264.787 1.05178 4.12089 0
M  V30 2754 N 263.102 -1.41638 0.69111 0
M  V30 2755 C 264.513 -1.84346 0.295517 0
M  V30 2756 C 264.864 -1.57833 -1.16547 0
M  V30 2757 O 263.989 -1.04648 -1.89414 0
M  V30 2758 C 264.584 -3.34636 0.529575 0
M  V30 2759 C 263.143 -3.7593 0.187944 0
M  V30 2760 C 262.29 -2.65082 0.814052 0
M  V30 2761 H 265.241 -1.31253 0.892092 0
M  V30 2762 H 265.262 -3.79903 -0.213148 0
M  V30 2763 H 264.774 -3.53901 1.59297 0
M  V30 2764 H 262.875 -3.62268 -0.871367 0
M  V30 2765 H 262.988 -4.74808 0.63985 0
M  V30 2766 H 261.352 -2.53528 0.244017 0
M  V30 2767 H 262.135 -2.87167 1.88123 0
M  V30 2768 N 264.58 -0.43555 -1.51462 0
M  V30 2769 C 265.805 0.132627 -2.06976 0
M  V30 2770 C 266.23 1.35848 -1.30104 0
M  V30 2771 O 265.588 1.78112 -0.338493 0
M  V30 2772 C 265.636 0.43523 -3.57964 0
M  V30 2773 O 264.74 1.52198 -3.83288 0
M  V30 2774 H 264.081 0.00265 -0.663995 0
M  V30 2775 H 266.611 -0.616369 -1.95095 0
M  V30 2776 H 266.621 0.686206 -4.02188 0
M  V30 2777 H 265.296 -0.460739 -4.1334 0
M  V30 2778 H 263.873 1.2611 -3.50928 0
M  V30 2779 N 266.058 1.56714 -0.166846 0
M  V30 2780 C 267.304 1.97039 0.479962 0
M  V30 2781 C 267.637 1.05264 1.63197 0
M  V30 2782 O 266.912 0.0988833 1.94248 0
M  V30 2783 C 267.195 3.46867 0.967212 0
M  V30 2784 C 267.048 4.49421 -0.18466 0
M  V30 2785 C 268.367 3.9968 1.84238 0
M  V30 2786 H 265.486 0.71641 0.172992 0
M  V30 2787 H 268.128 1.8832 -0.252079 0
M  V30 2788 H 266.278 3.54428 1.59101 0
M  V30 2789 H 267.95 4.53924 -0.821621 0
M  V30 2790 H 266.193 4.25573 -0.840837 0
M  V30 2791 H 266.864 5.51644 0.198317 0
M  V30 2792 H 269.34 3.94723 1.31655 0
M  V30 2793 H 268.216 5.04941 2.15234 0
M  V30 2794 H 268.477 3.43226 2.78654 0
M  V30 2795 N 267.536 -0.106894 1.57237 0
M  V30 2796 C 268.469 -1.16125 1.96444 0
M  V30 2797 C 269.447 -1.3947 0.835871 0
M  V30 2798 O 270.631 -1.53425 1.09513 0
M  V30 2799 C 267.758 -2.51277 2.27107 0
M  V30 2800 C 266.804 -2.44285 3.4961 0
M  V30 2801 S 267.637 -1.87077 5.01759 0
M  V30 2802 C 268.793 -3.23877 5.35588 0
M  V30 2803 H 269.026 -0.826971 2.85567 0
M  V30 2804 H 266.559 -0.314124 1.51171 0
M  V30 2805 H 268.517 -3.29035 2.45451 0
M  V30 2806 H 267.178 -2.81879 1.38576 0
M  V30 2807 H 266.371 -3.4387 3.68469 0
M  V30 2808 H 265.973 -1.74652 3.30715 0
M  V30 2809 H 268.265 -4.20122 5.31511 0
M  V30 2810 H 269.208 -3.09833 6.36717 0
M  V30 2811 H 269.616 -3.22864 4.63054 0
M  V30 2812 N 269.014 -1.53014 -0.377408 0
M  V30 2813 C 269.962 -1.7927 -1.48206 0
M  V30 2814 C 270.956 -0.661195 -1.55963 0
M  V30 2815 O 272.162 -0.843908 -1.58991 0
M  V30 2816 H 268.537 -0.567425 -0.493491 0
M  V30 2817 H 270.508 -2.71753 -1.2326 0
M  V30 2818 C 269.257 -1.98894 -2.85196 0
M  V30 2819 H 268.58 -2.85395 -2.79981 0
M  V30 2820 H 270.02 -2.21249 -3.61698 0
M  V30 2821 C 268.479 -0.764691 -3.28107 0
M  V30 2822 O 269.009 0.0523226 -4.01666 0
M  V30 2823 N 267.215 -0.591493 -2.84517 0
M  V30 2824 H 266.762 -1.25749 -2.24822 0
M  V30 2825 H 266.72 0.226253 -3.13585 0
M  V30 2826 N 270.492 0.636531 -1.44174 0
M  V30 2827 C 271.741 1.39213 -1.45954 0
M  V30 2828 C 272.054 1.95374 -0.0939119 0
M  V30 2829 O 273.26 2.71498 0.0107767 0
M  V30 2830 C 271.716 2.52025 -2.56927 0
M  V30 2831 C 271.324 2.024 -3.99673 0
M  V30 2832 C 273.068 3.29269 -2.67922 0
M  V30 2833 C 270.975 3.12521 -5.0208 0
M  V30 2834 H 269.905 0.523132 -0.542999 0
M  V30 2835 H 272.556 0.685349 -1.70221 0
M  V30 2836 H 270.938 3.25253 -2.25891 0
M  V30 2837 H 272.112 1.36073 -4.40251 0
M  V30 2838 H 270.427 1.37987 -3.92872 0
M  V30 2839 H 273.024 4.11352 -3.41605 0
M  V30 2840 H 273.367 3.78397 -1.73555 0
M  V30 2841 H 273.9 2.63129 -2.98342 0
M  V30 2842 H 270.639 2.68343 -5.98057 0
M  V30 2843 H 270.159 3.77507 -4.66099 0
M  V30 2844 H 271.838 3.77385 -5.25538 0
M  V30 2845 N 271.97 1.30982 0.876444 0
M  V30 2846 C 273.216 1.21484 1.63136 0
M  V30 2847 C 273.571 -0.226339 1.91064 0
M  V30 2848 O 272.864 -1.15788 1.52656 0
M  V30 2849 C 273.058 1.98572 2.9716 0
M  V30 2850 C 272.887 3.50039 2.82317 0
M  V30 2851 C 271.657 4.19393 2.81847 0
M  V30 2852 C 273.855 4.45111 2.57644 0
M  V30 2853 N 271.837 5.57061 2.57985 0
M  V30 2854 C 273.208 5.70402 2.42986 0
M  V30 2855 C 275.263 4.3461 2.42937 0
M  V30 2856 C 273.966 6.8638 2.15115 0
M  V30 2857 C 275.992 5.50365 2.16454 0
M  V30 2858 C 275.354 6.74642 2.02578 0
M  V30 2859 H 271.453 0.499632 0.601575 0
M  V30 2860 H 274.037 1.65094 1.03209 0
M  V30 2861 H 272.208 1.5734 3.55104 0
M  V30 2862 H 273.94 1.81146 3.61895 0
M  V30 2863 H 270.695 3.71303 2.93991 0
M  V30 2864 H 271.119 6.29529 2.49043 0
M  V30 2865 H 275.761 3.39199 2.52396 0
M  V30 2866 H 273.479 7.81824 2.04394 0
M  V30 2867 H 277.065 5.44154 2.05884 0
M  V30 2868 H 275.945 7.62699 1.82374 0
M  V30 2869 N 273.449 -1.08991 1.13837 0
M  V30 2870 C 274.698 -1.80631 0.897509 0
M  V30 2871 C 275.011 -1.86872 -0.57777 0
M  V30 2872 O 276.217 -2.54866 -0.935701 0
M  V30 2873 C 274.673 -3.24517 1.55618 0
M  V30 2874 C 274.281 -3.26529 3.0673 0
M  V30 2875 C 276.025 -4.00882 1.3962 0
M  V30 2876 C 273.932 -4.64965 3.65461 0
M  V30 2877 H 272.862 -0.67691 0.332129 0
M  V30 2878 H 275.513 -1.2246 1.3666 0
M  V30 2879 H 273.895 -3.82778 1.01476 0
M  V30 2880 H 275.069 -2.78008 3.67489 0
M  V30 2881 H 273.384 -2.63656 3.22296 0
M  V30 2882 H 275.981 -5.03167 1.80906 0
M  V30 2883 H 276.324 -4.14896 0.341578 0
M  V30 2884 H 276.857 -3.49075 1.90766 0
M  V30 2885 H 273.596 -4.56153 4.70749 0
M  V30 2886 H 273.116 -5.13792 3.09481 0
M  V30 2887 H 274.795 -5.3394 3.654 0
M  V30 2888 N 274.927 -0.932562 -1.27047 0
M  V30 2889 C 276.338 -0.619451 -1.76124 0
M  V30 2890 C 276.689 0.865397 -1.76083 0
M  V30 2891 O 275.814 1.67722 -1.36742 0
M  V30 2892 C 276.409 -1.11771 -3.19832 0
M  V30 2893 C 274.968 -0.855174 -3.66557 0
M  V30 2894 C 274.115 -1.27362 -2.46321 0
M  V30 2895 H 277.066 -1.11181 -1.13245 0
M  V30 2896 H 277.087 -0.46759 -3.77616 0
M  V30 2897 H 276.599 -2.19842 -3.1983 0
M  V30 2898 H 274.7 0.211524 -3.71999 0
M  V30 2899 H 274.813 -1.47613 -4.55793 0
M  V30 2900 H 273.177 -0.692119 -2.45116 0
M  V30 2901 H 273.96 -2.36307 -2.49025 0
M  V30 2902 N 276.405 1.4127 -0.698611 0
M  V30 2903 C 277.682 1.94955 -0.158762 0
M  V30 2904 C 278.062 1.63781 1.33188 0
M  V30 2905 O 277.41 0.946423 2.07979 0
M  V30 2906 C 277.62 3.46044 -0.453309 0
M  V30 2907 C 278.968 4.22872 -0.382707 0
M  V30 2908 O 279.992 3.54076 -0.388396 0
M  V30 2909 O 278.851 5.45407 -0.345463 0
M  V30 2910 H 275.945 0.82683 -0.0167505 0
M  V30 2911 H 278.491 1.50971 -0.77498 0
M  V30 2912 H 277.263 3.62028 -1.48498 0
M  V30 2913 H 276.886 3.97128 0.19373 0
M  V30 2914 N 277.883 0.443576 1.51229 0
M  V30 2915 C 279.131 -0.120557 2.0174 0
M  V30 2916 C 279.452 -1.42665 1.32935 0
M  V30 2917 O 278.722 -1.9028 0.465866 0
M  V30 2918 H 277.302 -0.0475426 0.745486 0
M  V30 2919 H 279.964 0.587711 1.85828 0
M  V30 2920 H 279.06 -0.291972 3.10731 0
M  V30 2921 N 279.361 -1.56624 0.175154 0
M  V30 2922 C 280.294 -2.14 -0.792412 0
M  V30 2923 C 281.272 -1.07114 -1.22333 0
M  V30 2924 O 282.456 -1.35112 -1.31442 0
M  V30 2925 C 279.583 -2.68268 -2.0676 0
M  V30 2926 C 278.629 -3.87562 -1.7804 0
M  V30 2927 S 279.462 -5.27074 -0.946222 0
M  V30 2928 C 280.618 -5.8475 -2.23199 0
M  V30 2929 H 280.851 -2.95736 -0.304588 0
M  V30 2930 H 278.384 -1.54349 -0.0395705 0
M  V30 2931 H 280.342 -3.00182 -2.80002 0
M  V30 2932 H 279.003 -1.86612 -2.52656 0
M  V30 2933 H 278.196 -4.23874 -2.72666 0
M  V30 2934 H 277.798 -3.56555 -1.12891 0
M  V30 2935 H 280.09 -5.97898 -3.18629 0
M  V30 2936 H 281.033 -6.81756 -1.91349 0
M  V30 2937 H 281.441 -5.13198 -2.35134 0
M  V30 2938 N 280.839 0.0985539 -1.57292 0
M  V30 2939 C 281.786 1.11981 -2.01814 0
M  V30 2940 C 282.756 1.39999 -0.89384 0
M  V30 2941 O 283.941 1.5152 -1.15958 0
M  V30 2942 C 281.081 2.43577 -2.44467 0
M  V30 2943 C 280.194 2.2232 -3.70402 0
M  V30 2944 C 279.329 3.4729 -4.01949 0
M  V30 2945 C 278.368 3.2128 -5.21005 0
M  V30 2946 N 277.505 4.38507 -5.48321 0
M  V30 2947 H 282.345 0.733149 -2.88841 0
M  V30 2948 H 279.882 0.350482 -1.42864 0
M  V30 2949 H 281.84 3.20373 -2.6724 0
M  V30 2950 H 280.47 2.80097 -1.60455 0
M  V30 2951 H 279.522 1.36343 -3.55126 0
M  V30 2952 H 280.834 1.99089 -4.57345 0
M  V30 2953 H 279.988 4.32495 -4.25479 0
M  V30 2954 H 278.727 3.73572 -3.13521 0
M  V30 2955 H 277.732 2.34468 -4.97298 0
M  V30 2956 H 278.957 2.96348 -6.11028 0
M  V30 2957 H 276.903 4.64871 -4.62851 0
M  V30 2958 H 276.82 4.18455 -6.29628 0
M  V30 2959 H 278.088 5.24787 -5.76385 0
M  V30 2960 N 282.317 1.53212 0.369288 0
M  V30 2961 C 283.594 1.59815 1.12776 0
M  V30 2962 C 283.974 0.403402 2.0721 0
M  V30 2963 O 283.322 -0.606667 2.20299 0
M  V30 2964 C 283.532 2.94664 1.87013 0
M  V30 2965 C 284.88 3.49109 2.41677 0
M  V30 2966 O 285.904 2.96669 1.97144 0
M  V30 2967 O 284.763 4.40775 3.23079 0
M  V30 2968 H 281.857 0.645376 0.517125 0
M  V30 2969 H 284.403 1.65553 0.37285 0
M  V30 2970 H 283.175 3.73061 1.18071 0
M  V30 2971 H 282.798 2.92401 2.69421 0
M  V30 2972 N 283.795 -0.628877 1.44509 0
M  V30 2973 C 285.044 -1.38437 1.4669 0
M  V30 2974 C 285.357 -1.95322 0.104272 0
M  V30 2975 O 286.563 -2.715 0.00362163 0
M  V30 2976 C 285.019 -2.50659 2.5826 0
M  V30 2977 C 284.627 -2.00277 4.0074 0
M  V30 2978 C 286.371 -3.27844 2.69664 0
M  V30 2979 C 284.278 -3.09854 5.0373 0
M  V30 2980 H 283.208 -0.520245 0.545766 0
M  V30 2981 H 285.859 -0.676313 1.70582 0
M  V30 2982 H 284.241 -3.2405 2.27612 0
M  V30 2983 H 285.415 -1.33736 4.40966 0
M  V30 2984 H 283.73 -1.35901 3.93599 0
M  V30 2985 H 286.327 -4.09534 3.43781 0
M  V30 2986 H 286.67 -3.77471 1.75559 0
M  V30 2987 H 287.203 -2.61543 2.99733 0
M  V30 2988 H 283.942 -2.65168 5.99472 0
M  V30 2989 H 283.462 -3.7503 4.68095 0
M  V30 2990 H 285.141 -3.74592 5.27532 0
M  V30 2991 N 285.273 -1.31445 -0.869486 0
M  V30 2992 C 286.501 -1.24122 -1.65534 0
M  V30 2993 C 286.916 0.193387 -1.87807 0
M  V30 2994 O 286.273 1.12557 -1.43656 0
M  V30 2995 C 286.324 -1.98229 -3.02304 0
M  V30 2996 O 286.045 -3.3609 -2.81026 0
M  V30 2997 C 287.546 -1.97751 -3.96749 0
M  V30 2998 H 284.766 -0.428868 -0.516055 0
M  V30 2999 H 287.31 -1.73328 -1.08525 0
M  V30 3000 H 285.465 -1.52782 -3.56001 0
M  V30 3001 H 285.879 -3.7383 -3.67902 0
M  V30 3002 H 287.353 -2.54114 -4.90031 0
M  V30 3003 H 287.83 -0.960137 -4.28577 0
M  V30 3004 H 288.436 -2.43079 -3.48988 0
M  V30 3005 N 286.751 1.08385 -1.14413 0
M  V30 3006 C 287.997 1.81044 -0.913834 0
M  V30 3007 C 288.33 1.86004 0.558209 0
M  V30 3008 O 287.605 1.33606 1.4135 0
M  V30 3009 C 287.888 3.26648 -1.51569 0
M  V30 3010 C 287.741 3.29895 -3.0576 0
M  V30 3011 C 289.06 4.23629 -1.19273 0
M  V30 3012 H 286.179 0.65727 -0.333414 0
M  V30 3013 H 288.821 1.26896 -1.41412 0
M  V30 3014 H 286.971 3.72889 -1.09023 0
M  V30 3015 H 288.643 2.91977 -3.57137 0
M  V30 3016 H 286.886 2.69163 -3.40197 0
M  V30 3017 H 287.557 4.32516 -3.42977 0
M  V30 3018 H 290.033 3.85727 -1.56057 0
M  V30 3019 H 288.909 5.23822 -1.64017 0
M  V30 3020 H 289.17 4.41968 -0.108068 0
M  V30 3021 N 288.23 0.939286 1.26551 0
M  V30 3022 C 289.507 0.5038 1.89001 0
M  V30 3023 C 289.887 -1.01854 1.84903 0
M  V30 3024 O 289.235 -1.87773 1.30206 0
M  V30 3025 C 289.445 1.063 3.32417 0
M  V30 3026 C 290.793 1.13051 4.09273 0
M  V30 3027 O 291.817 1.01345 3.41479 0
M  V30 3028 O 290.676 1.31233 5.30509 0
M  V30 3029 H 287.77 0.163897 0.810597 0
M  V30 3030 H 290.316 1.03173 1.34735 0
M  V30 3031 H 289.088 2.10665 3.29752 0
M  V30 3032 H 288.711 0.517408 3.94219 0
M  V30 3033 N 289.708 -1.40897 0.706093 0
M  V30 3034 C 291.124 -1.55042 0.37869 0
M  V30 3035 C 291.324 -1.67944 -1.11342 0
M  V30 3036 O 290.38 -1.66372 -1.89938 0
M  V30 3037 C 291.693 -2.78398 1.13643 0
M  V30 3038 C 293.241 -2.92206 1.12181 0
M  V30 3039 C 293.716 -4.18463 1.86152 0
M  V30 3040 N 295.207 -4.25443 1.83173 0
M  V30 3041 C 295.942 -5.2202 2.37239 0
M  V30 3042 N 295.438 -6.24563 2.99821 0
M  V30 3043 N 297.231 -5.14033 2.27435 0
M  V30 3044 H 289.382 -1.30769 1.67372 0
M  V30 3045 H 291.645 -0.631653 0.706907 0
M  V30 3046 H 291.351 -2.7511 2.19106 0
M  V30 3047 H 291.225 -3.70228 0.721853 0
M  V30 3048 H 293.612 -2.95004 0.0754171 0
M  V30 3049 H 293.693 -2.01521 1.57554 0
M  V30 3050 H 293.337 -4.16427 2.90776 0
M  V30 3051 H 293.267 -5.08141 1.38206 0
M  V30 3052 H 295.758 -3.51976 1.37556 0
M  V30 3053 H 296.071 -6.94665 3.38616 0
M  V30 3054 H 294.416 -6.25035 3.03902 0
M  V30 3055 H 297.607 -4.3285 1.78208 0
M  V30 3056 H 297.78 -5.89129 2.69873 0
M  V30 3057 N 291.186 -0.45159 -1.50991 0
M  V30 3058 C 292.116 0.342898 -2.30969 0
M  V30 3059 C 293.097 1.00815 -1.37005 0
M  V30 3060 O 294.282 1.00907 -1.65926 0
M  V30 3061 C 291.412 1.43637 -3.16205 0
M  V30 3062 C 290.366 0.893818 -4.18563 0
M  V30 3063 C 289.692 2.08411 -4.92411 0
M  V30 3064 C 290.992 -0.0815568 -5.22236 0
M  V30 3065 H 292.686 -0.324556 -2.97636 0
M  V30 3066 H 290.232 -0.157531 -1.43136 0
M  V30 3067 H 292.185 1.9995 -3.70942 0
M  V30 3068 H 290.909 2.13232 -2.47386 0
M  V30 3069 H 289.568 0.352798 -3.64898 0
M  V30 3070 H 289.216 2.76658 -4.20082 0
M  V30 3071 H 288.916 1.72741 -5.61636 0
M  V30 3072 H 290.44 2.65251 -5.49976 0
M  V30 3073 H 291.854 0.391742 -5.7196 0
M  V30 3074 H 290.251 -0.351551 -5.99069 0
M  V30 3075 H 291.321 -1.01374 -4.74185 0
M  V30 3076 N 292.664 1.56529 -0.183458 0
M  V30 3077 C 293.627 2.17324 0.728223 0
M  V30 3078 C 294.627 1.12453 1.14939 0
M  V30 3079 O 295.817 1.37902 1.06437 0
M  V30 3080 C 292.949 2.76591 1.99274 0
M  V30 3081 H 294.142 2.99241 0.198772 0
M  V30 3082 H 291.695 1.5616 0.0661391 0
M  V30 3083 H 292.43 1.98441 2.56499 0
M  V30 3084 H 292.215 3.5335 1.69959 0
M  V30 3085 H 293.705 3.23311 2.6431 0
M  V30 3086 N 294.142 -0.090211 1.57342 0
M  V30 3087 C 295.553 -0.644173 1.75235 0
M  V30 3088 C 295.904 -1.78865 0.806335 0
M  V30 3089 O 295.029 -2.16395 -0.0140128 0
M  V30 3090 C 295.624 -1.17532 3.1776 0
M  V30 3091 C 294.183 -1.67531 3.37061 0
M  V30 3092 C 293.33 -0.58693 2.71017 0
M  V30 3093 H 296.281 0.135884 1.58117 0
M  V30 3094 H 296.302 -2.04455 3.20902 0
M  V30 3095 H 295.814 -0.342138 3.86589 0
M  V30 3096 H 293.915 -2.53234 2.73319 0
M  V30 3097 H 294.028 -1.76493 4.45406 0
M  V30 3098 H 292.392 -1.02756 2.33052 0
M  V30 3099 H 293.175 0.235758 3.4249 0
M  V30 3100 N 295.62 -1.53406 -0.361157 0
M  V30 3101 C 297.036 -1.43277 -0.703124 0
M  V30 3102 C 297.236 -0.575384 -1.9311 0
M  V30 3103 O 296.292 -0.0595362 -2.5243 0
M  V30 3104 C 297.605 -2.8653 -0.9122 0
M  V30 3105 C 299.153 -2.96191 -1.01193 0
M  V30 3106 C 299.628 -4.40514 -1.25345 0
M  V30 3107 N 301.119 -4.43962 -1.32105 0
M  V30 3108 C 301.854 -5.52746 -1.5251 0
M  V30 3109 N 301.35 -6.71567 -1.70203 0
M  V30 3110 N 303.143 -5.40331 -1.54916 0
M  V30 3111 H 295.294 -2.07654 0.446475 0
M  V30 3112 H 297.557 -0.937944 0.137715 0
M  V30 3113 H 297.263 -3.51605 -0.0816414 0
M  V30 3114 H 297.137 -3.30441 -1.81903 0
M  V30 3115 H 299.524 -2.31266 -1.83303 0
M  V30 3116 H 299.605 -2.55667 -0.0823929 0
M  V30 3117 H 299.249 -5.06014 -0.437346 0
M  V30 3118 H 299.179 -4.78614 -2.19627 0
M  V30 3119 H 301.67 -3.58332 -1.20028 0
M  V30 3120 H 301.983 -7.50241 -1.85359 0
M  V30 3121 H 300.328 -6.74545 -1.67373 0
M  V30 3122 H 303.519 -4.46465 -1.40663 0
M  V30 3123 H 303.692 -6.25173 -1.70477 0
M  V30 3124 N 297.098 0.621204 -1.44841 0
M  V30 3125 C 298.03 1.74615 -1.48466 0
M  V30 3126 C 299.043 1.58377 -0.37691 0
M  V30 3127 O 300.232 1.66508 -0.643215 0
M  V30 3128 C 297.332 3.12459 -1.31236 0
M  V30 3129 C 296.505 3.55064 -2.55438 0
M  V30 3130 C 295.564 4.71821 -2.32963 0
M  V30 3131 O 294.59 4.79628 -3.06505 0
M  V30 3132 N 295.792 5.64186 -1.36654 0
M  V30 3133 H 298.557 1.71973 -2.45449 0
M  V30 3134 H 296.118 0.806077 -1.40407 0
M  V30 3135 H 298.11 3.88302 -1.14032 0
M  V30 3136 H 296.68 3.09686 -0.4258 0
M  V30 3137 H 295.9 2.69324 -2.87851 0
M  V30 3138 H 297.188 3.80284 -3.38026 0
M  V30 3139 H 296.586 5.6058 -0.759344 0
M  V30 3140 H 295.143 6.39618 -1.25425 0
M  V30 3141 N 298.576 1.31904 0.862503 0
M  V30 3142 C 299.992 1.10724 1.14945 0
M  V30 3143 C 300.192 -0.117421 2.01158 0
M  V30 3144 O 299.248 -0.804595 2.39338 0
M  V30 3145 C 300.561 2.38267 1.83437 0
M  V30 3146 C 302.109 2.43949 1.96106 0
M  V30 3147 C 302.584 3.71394 2.68013 0
M  V30 3148 N 304.075 3.72331 2.75543 0
M  V30 3149 C 304.81 4.67641 3.31812 0
M  V30 3150 N 304.306 5.73313 3.88953 0
M  V30 3151 N 306.099 4.5515 3.29841 0
M  V30 3152 H 298.25 2.10436 0.288191 0
M  V30 3153 H 300.513 0.928705 0.190292 0
M  V30 3154 H 300.219 3.27759 1.27542 0
M  V30 3155 H 300.093 2.48633 2.83657 0
M  V30 3156 H 302.48 1.54922 2.51164 0
M  V30 3157 H 302.561 2.37543 0.949059 0
M  V30 3158 H 302.205 4.60791 2.13621 0
M  V30 3159 H 302.135 3.75069 3.69636 0
M  V30 3160 H 304.626 2.95947 2.34997 0
M  V30 3161 H 304.939 6.42107 4.30022 0
M  V30 3162 H 303.284 5.77077 3.87308 0
M  V30 3163 H 306.475 3.71766 2.84443 0
M  V30 3164 H 306.648 5.29604 3.73394 0
M  V30 3165 N 300.054 -1.07777 1.14986 0
M  V30 3166 C 300.984 -2.16865 0.865557 0
M  V30 3167 C 301.965 -1.69123 -0.182083 0
M  V30 3168 O 303.15 -1.94164 -0.0373815 0
M  V30 3169 C 300.28 -3.45539 0.349313 0
M  V30 3170 C 299.234 -4.06708 1.33313 0
M  V30 3171 C 298.56 -5.30411 0.675918 0
M  V30 3172 C 299.86 -4.47241 2.69764 0
M  V30 3173 H 301.554 -2.40905 1.77778 0
M  V30 3174 H 299.1 -1.15781 0.856203 0
M  V30 3175 H 301.053 -4.21174 0.137983 0
M  V30 3176 H 299.777 -3.21072 -0.598362 0
M  V30 3177 H 298.436 -3.33112 1.53075 0
M  V30 3178 H 298.084 -5.02232 -0.277767 0
M  V30 3179 H 297.784 -5.72293 1.33244 0
M  V30 3180 H 299.308 -6.08755 0.474262 0
M  V30 3181 H 300.722 -5.14025 2.53873 0
M  V30 3182 H 299.119 -5.00062 3.3175 0
M  V30 3183 H 300.189 -3.58818 3.26156 0
M  V30 3184 N 301.532 -0.945985 -1.26051 0
M  V30 3185 C 302.462 -0.477172 -2.28572 0
M  V30 3186 C 303.443 0.472032 -1.63419 0
M  V30 3187 O 304.628 0.372853 -1.90587 0
M  V30 3188 C 301.758 0.253975 -3.4637 0
M  V30 3189 C 300.712 -0.609135 -4.23643 0
M  V30 3190 C 300.038 0.252252 -5.34105 0
M  V30 3191 C 301.338 -1.8829 -4.8718 0
M  V30 3192 H 303.032 -1.33402 -2.68038 0
M  V30 3193 H 300.578 -0.642904 -1.28852 0
M  V30 3194 H 302.531 0.593016 -4.17207 0
M  V30 3195 H 301.255 1.145 -3.05871 0
M  V30 3196 H 299.914 -0.931138 -3.54578 0
M  V30 3197 H 299.562 1.14278 -4.89846 0
M  V30 3198 H 299.262 -0.32188 -5.86718 0
M  V30 3199 H 300.786 0.586454 -6.07777 0
M  V30 3200 H 302.2 -1.61081 -5.50205 0
M  V30 3201 H 300.597 -2.40199 -5.49931 0
M  V30 3202 H 301.667 -2.59134 -4.09851 0
M  V30 3203 N 303.011 1.40521 -0.713556 0
M  V30 3204 C 303.974 2.29098 -0.0684347 0
M  V30 3205 C 304.974 1.45268 0.689472 0
M  V30 3206 O 306.164 1.66205 0.521677 0
M  V30 3207 C 303.296 3.28446 0.913024 0
M  V30 3208 H 304.489 2.87645 -0.84855 0
M  V30 3209 H 302.042 1.48809 -0.47809 0
M  V30 3210 H 302.777 2.74913 1.72027 0
M  V30 3211 H 302.562 3.90327 0.372472 0
M  V30 3212 H 304.052 3.94777 1.36165 0
M  V30 3213 N 304.489 0.459591 1.5075 0
M  V30 3214 C 305.452 -0.329093 2.26825 0
M  V30 3215 C 306.452 -0.930481 1.31144 0
M  V30 3216 O 307.642 -0.801453 1.54669 0
M  V30 3217 C 304.774 -1.46768 3.07688 0
M  V30 3218 H 305.967 0.337924 2.9799 0
M  V30 3219 H 303.52 0.213336 1.54837 0
M  V30 3220 H 304.255 -2.17009 2.40993 0
M  V30 3221 H 304.04 -1.04238 3.77991 0
M  V30 3222 H 305.53 -2.02433 3.65254 0
M  V30 3223 N 305.967 -1.56429 0.191757 0
M  V30 3224 C 306.897 -2.21937 -0.725696 0
M  V30 3225 C 307.878 -1.1814 -1.2238 0
M  V30 3226 O 309.063 -1.46636 -1.27325 0
M  V30 3227 C 306.193 -2.87611 -1.94672 0
M  V30 3228 C 305.147 -3.97623 -1.58366 0
M  V30 3229 C 304.473 -4.50446 -2.88102 0
M  V30 3230 C 305.773 -5.16197 -0.796133 0
M  V30 3231 H 307.467 -2.98861 -0.179606 0
M  V30 3232 H 305.013 -1.43749 -0.0849464 0
M  V30 3233 H 306.966 -3.3212 -2.59373 0
M  V30 3234 H 305.69 -2.08087 -2.51728 0
M  V30 3235 H 304.349 -3.53801 -0.960247 0
M  V30 3236 H 303.997 -3.67688 -3.43241 0
M  V30 3237 H 303.697 -5.24675 -2.64556 0
M  V30 3238 H 305.221 -4.97654 -3.53798 0
M  V30 3239 H 306.635 -5.57271 -1.34618 0
M  V30 3240 H 305.032 -5.96471 -0.658928 0
M  V30 3241 H 306.102 -4.84473 0.203478 0
M  V30 3242 N 307.445 0.0818655 -1.57387 0
M  V30 3243 C 308.722 0.815343 -1.77796 0
M  V30 3244 C 309.102 1.96289 -0.77679 0
M  V30 3245 O 308.45 2.27691 0.192106 0
M  V30 3246 C 308.66 1.29765 -3.23978 0
M  V30 3247 C 310.008 1.7351 -3.8753 0
M  V30 3248 O 311.032 1.39356 -3.27808 0
M  V30 3249 O 309.891 2.36708 -4.92576 0
M  V30 3250 H 306.985 0.389914 -0.729312 0
M  V30 3251 H 309.531 0.0627213 -1.69584 0
M  V30 3252 H 308.303 0.47608 -3.88393 0
M  V30 3253 H 307.926 2.11189 -3.36875 0
M  V30 3254 N 308.923 1.53595 0.353017 0
M  V30 3255 C 309.833 1.83897 1.45667 0
M  V30 3256 C 310.849 0.728334 1.58023 0
M  V30 3257 O 312.025 1.01968 1.73679 0
M  V30 3258 C 309.09 2.03383 2.80778 0
M  V30 3259 C 308.151 3.27262 2.77845 0
M  V30 3260 C 307.384 3.45809 4.06512 0
M  V30 3261 O 307.607 2.68387 5.03314 0
M  V30 3262 O 306.541 4.39207 4.11559 0
M  V30 3263 H 310.367 2.77686 1.2298 0
M  V30 3264 H 307.952 1.39132 0.544308 0
M  V30 3265 H 309.834 2.17698 3.60812 0
M  V30 3266 H 308.509 1.12783 3.03417 0
M  V30 3267 H 307.416 3.18359 1.96465 0
M  V30 3268 H 308.749 4.17824 2.60161 0
M  V30 3269 N 310.401 -0.613514 1.45168 0
M  V30 3270 C 311.647 -1.37471 1.49096 0
M  V30 3271 C 311.98 -1.93765 0.129901 0
M  V30 3272 O 311.255 -1.74707 -0.854858 0
M  V30 3273 C 311.538 -2.52701 2.56542 0
M  V30 3274 C 311.391 -2.01643 4.0207 0
M  V30 3275 C 312.71 -3.54849 2.60327 0
M  V30 3276 H 309.829 -0.498502 0.54283 0
M  V30 3277 H 312.471 -0.692125 1.76945 0
M  V30 3278 H 310.621 -3.10931 2.32926 0
M  V30 3279 H 312.293 -1.48108 4.36877 0
M  V30 3280 H 310.536 -1.32688 4.13009 0
M  V30 3281 H 311.207 -2.84681 4.72928 0
M  V30 3282 H 313.683 -3.0645 2.81474 0
M  V30 3283 H 312.559 -4.32973 3.37381 0
M  V30 3284 H 312.82 -4.10079 1.6519 0
M  V30 3285 N 311.879 -1.3236 -0.855495 0
M  V30 3286 C 313.128 -1.22226 -1.60448 0
M  V30 3287 C 313.441 0.214733 -1.94418 0
M  V30 3288 O 314.647 0.437917 -2.67945 0
M  V30 3289 C 313.103 -2.14063 -2.89318 0
M  V30 3290 C 312.711 -3.62839 -2.62777 0
M  V30 3291 C 314.455 -2.12764 -3.67331 0
M  V30 3292 C 312.362 -4.4664 -3.87643 0
M  V30 3293 H 311.292 -0.453904 -0.602069 0
M  V30 3294 H 313.943 -1.57314 -0.944698 0
M  V30 3295 H 312.325 -1.71889 -3.5675 0
M  V30 3296 H 313.499 -4.1335 -2.03662 0
M  V30 3297 H 311.814 -3.66261 -1.98096 0
M  V30 3298 H 314.411 -2.72611 -4.59987 0
M  V30 3299 H 314.754 -1.11841 -4.00995 0
M  V30 3300 H 315.287 -2.53214 -3.06802 0
M  V30 3301 H 312.026 -5.48373 -3.5912 0
M  V30 3302 H 311.546 -4.0088 -4.46156 0
M  V30 3303 H 313.225 -4.59597 -4.55389 0
M  V30 3304 N 313.357 1.07166 -1.15556 0
M  V30 3305 C 314.582 1.84053 -0.955988 0
M  V30 3306 C 315.007 1.81586 0.490739 0
M  V30 3307 O 314.365 1.21018 1.34997 0
M  V30 3308 C 314.413 3.28957 -1.47714 0
M  V30 3309 O 313.517 4.06795 -0.677593 0
M  V30 3310 H 312.858 0.569842 -0.340847 0
M  V30 3311 H 315.388 1.35178 -1.53584 0
M  V30 3312 H 315.398 3.79788 -1.4908 0
M  V30 3313 H 314.073 3.30068 -2.53037 0
M  V30 3314 H 312.65 3.6561 -0.733721 0
M  V30 3315 N 314.835 0.952656 1.25548 0
M  V30 3316 C 315.745 0.47782 2.29682 0
M  V30 3317 C 316.761 -0.453859 1.67977 0
M  V30 3318 O 317.937 -0.330587 1.98668 0
M  V30 3319 C 315.002 -0.238655 3.45878 0
M  V30 3320 C 314.063 0.730994 4.23031 0
M  V30 3321 C 313.296 0.0486165 5.33678 0
M  V30 3322 O 313.519 -1.16612 5.58353 0
M  V30 3323 O 312.453 0.733152 5.97418 0
M  V30 3324 H 316.279 1.34312 2.72386 0
M  V30 3325 H 313.864 0.719026 1.30959 0
M  V30 3326 H 315.746 -0.641774 4.16484 0
M  V30 3327 H 314.421 -1.07916 3.05181 0
M  V30 3328 H 313.328 1.18428 3.5486 0
M  V30 3329 H 314.661 1.53946 4.67506 0
M  V30 3330 N 316.313 -1.40141 0.720998 0
M  V30 3331 C 317.26 -2.30688 0.071919 0
M  V30 3332 C 318.23 -1.48476 -0.744584 0
M  V30 3333 O 319.415 -1.77201 -0.707423 0
M  V30 3334 C 316.555 -3.34724 -0.839855 0
M  V30 3335 C 315.668 -4.31998 -0.0122438 0
M  V30 3336 C 314.803 -5.23102 -0.923995 0
M  V30 3337 C 313.842 -6.12033 -0.0907969 0
M  V30 3338 N 312.979 -6.95537 -0.957718 0
M  V30 3339 H 317.819 -2.85628 0.849755 0
M  V30 3340 H 315.356 -1.40653 0.430726 0
M  V30 3341 H 317.314 -3.93618 -1.38279 0
M  V30 3342 H 315.944 -2.81274 -1.58381 0
M  V30 3343 H 314.996 -3.74841 0.64794 0
M  V30 3344 H 316.308 -4.94772 0.632595 0
M  V30 3345 H 315.462 -5.86953 -1.53527 0
M  V30 3346 H 314.201 -4.60615 -1.60264 0
M  V30 3347 H 313.206 -5.47207 0.533377 0
M  V30 3348 H 314.431 -6.76581 0.584428 0
M  V30 3349 H 312.377 -6.35633 -1.62192 0
M  V30 3350 H 312.294 -7.55099 -0.36904 0
M  V30 3351 H 313.562 -7.63832 -1.555 0
M  V30 3352 N 317.792 -0.46758 -1.50504 0
M  V30 3353 C 318.722 0.318381 -2.31319 0
M  V30 3354 C 319.703 0.993564 -1.38066 0
M  V30 3355 O 320.888 0.991411 -1.66987 0
M  V30 3356 C 318.018 1.40275 -3.17711 0
M  V30 3357 C 316.972 0.849373 -4.19487 0
M  V30 3358 C 316.298 2.03177 -4.94594 0
M  V30 3359 C 317.598 -0.136942 -5.2212 0
M  V30 3360 H 319.292 -0.356106 -2.97275 0
M  V30 3361 H 316.838 -0.172703 -1.42961 0
M  V30 3362 H 318.791 1.96004 -3.73042 0
M  V30 3363 H 317.515 2.10596 -2.49634 0
M  V30 3364 H 316.174 0.314076 -3.65252 0
M  V30 3365 H 315.822 2.72187 -4.22993 0
M  V30 3366 H 315.522 1.66774 -5.63436 0
M  V30 3367 H 317.046 2.59403 -5.52759 0
M  V30 3368 H 318.46 0.331056 -5.72343 0
M  V30 3369 H 316.857 -0.41507 -5.98663 0
M  V30 3370 H 317.927 -1.06398 -4.73083 0
M  V30 3371 N 319.27 1.56325 -0.20005 0
M  V30 3372 C 320.218 2.20666 0.735482 0
M  V30 3373 C 321.212 1.17934 1.21605 0
M  V30 3374 O 322.418 1.36068 1.17837 0
M  V30 3375 H 318.793 0.70725 0.255542 0
M  V30 3376 H 320.764 2.9792 0.169166 0
M  V30 3377 C 319.513 2.88391 1.94232 0
M  V30 3378 H 318.836 3.67185 1.58161 0
M  V30 3379 H 320.276 3.3684 2.57517 0
M  V30 3380 C 318.735 1.89692 2.78421 0
M  V30 3381 O 319.265 1.40032 3.76502 0
M  V30 3382 N 317.471 1.57813 2.44015 0
M  V30 3383 H 317.018 1.9839 1.64314 0
M  V30 3384 H 316.976 0.920325 3.00628 0
M  V30 3385 N 320.748 -0.0735177 1.57428 0
M  V30 3386 C 322.159 -0.625551 1.75908 0
M  V30 3387 C 322.51 -1.78 0.825261 0
M  V30 3388 O 321.635 -2.16398 0.00893964 0
M  V30 3389 C 322.23 -1.14155 3.18989 0
M  V30 3390 C 320.789 -1.63946 3.38819 0
M  V30 3391 C 319.936 -0.558151 2.71625 0
M  V30 3392 H 322.887 0.152647 1.57964 0
M  V30 3393 H 322.908 -2.0104 3.23053 0
M  V30 3394 H 322.42 -0.301116 3.8693 0
M  V30 3395 H 320.521 -2.50321 2.7599 0
M  V30 3396 H 320.634 -1.71759 4.47253 0
M  V30 3397 H 318.998 -1.00278 2.34129 0
M  V30 3398 H 319.781 0.272071 3.4222 0
M  V30 3399 N 322.226 -1.5378 -0.344866 0
M  V30 3400 C 323.189 -1.80981 -1.40637 0
M  V30 3401 C 324.189 -0.680816 -1.45676 0
M  V30 3402 O 325.379 -0.949095 -1.46075 0
M  V30 3403 C 322.511 -1.95063 -2.79577 0
M  V30 3404 H 323.704 -2.75803 -1.17783 0
M  V30 3405 H 321.257 -1.45173 -0.579181 0
M  V30 3406 H 321.992 -1.02379 -3.07716 0
M  V30 3407 H 321.777 -2.77198 -2.77315 0
M  V30 3408 H 323.267 -2.17629 -3.56409 0
M  V30 3409 N 323.704 0.605807 -1.45491 0
M  V30 3410 C 324.654 1.71074 -1.50724 0
M  V30 3411 C 325.638 1.5658 -0.37033 0
M  V30 3412 O 326.83 1.65887 -0.617299 0
M  V30 3413 C 323.959 3.0983 -1.47852 0
M  V30 3414 C 323.045 3.29704 -2.66751 0
M  V30 3415 N 323.436 3.19831 -3.91844 0
M  V30 3416 C 321.734 3.60579 -2.62486 0
M  V30 3417 C 322.435 3.41083 -4.71208 0
M  V30 3418 N 321.411 3.65157 -4.02693 0
M  V30 3419 H 325.213 1.61937 -2.45263 0
M  V30 3420 H 322.727 0.80912 -1.40808 0
M  V30 3421 H 324.724 3.89101 -1.49686 0
M  V30 3422 H 323.384 3.20115 -0.543714 0
M  V30 3423 H 324.395 2.98194 -4.23439 0
M  V30 3424 H 321.072 3.7769 -1.77922 0
M  V30 3425 H 322.462 3.38828 -5.80211 0
M  V30 3426 N 325.182 1.32811 0.848464 0
M  V30 3427 C 326.132 1.18842 1.94578 0
M  V30 3428 C 327.116 0.0937517 1.60627 0
M  V30 3429 O 328.308 0.320887 1.74067 0
M  V30 3430 C 325.437 0.91999 3.30743 0
M  V30 3431 C 324.523 2.05665 3.70894 0
M  V30 3432 N 324.914 3.30579 3.8282 0
M  V30 3433 C 323.212 1.9612 4.00566 0
M  V30 3434 C 323.913 4.05067 4.17487 0
M  V30 3435 N 322.889 3.33419 4.2934 0
M  V30 3436 H 326.691 2.13536 2.0194 0
M  V30 3437 H 324.205 1.2468 1.0406 0
M  V30 3438 H 326.202 0.800859 4.09136 0
M  V30 3439 H 324.862 -0.0185076 3.24695 0
M  V30 3440 H 325.873 3.65441 3.66978 0
M  V30 3441 H 322.55 1.09871 4.02784 0
M  V30 3442 H 323.94 5.12815 4.34131 0
M  V30 3443 N 326.66 -1.06551 1.16123 0
M  V30 3444 C 327.909 -1.78687 0.935622 0
M  V30 3445 C 328.222 -1.88056 -0.538001 0
M  V30 3446 O 329.428 -2.56794 -0.88143 0
M  V30 3447 C 327.884 -3.21143 1.62466 0
M  V30 3448 C 327.492 -3.19949 3.13587 0
M  V30 3449 C 329.236 -3.9783 1.48092 0
M  V30 3450 C 327.143 -4.57108 3.75241 0
M  V30 3451 H 326.073 -0.669712 0.346412 0
M  V30 3452 H 328.724 -1.19534 1.39226 0
M  V30 3453 H 327.106 -3.80539 1.09572 0
M  V30 3454 H 328.28 -2.70151 3.73303 0
M  V30 3455 H 326.595 -2.5676 3.27816 0
M  V30 3456 H 329.192 -4.99217 1.91538 0
M  V30 3457 H 329.535 -4.14078 0.429507 0
M  V30 3458 H 330.068 -3.4495 1.98127 0
M  V30 3459 H 326.807 -4.46065 4.80319 0
M  V30 3460 H 326.327 -5.07111 3.20309 0
M  V30 3461 H 328.006 -5.26069 3.76644 0
M  V30 3462 N 328.138 -0.959301 -1.25041 0
M  V30 3463 C 329.415 -0.533805 -1.88175 0
M  V30 3464 C 329.795 0.988994 -1.865 0
M  V30 3465 O 329.143 1.85677 -1.33177 0
M  V30 3466 C 329.353 -1.11575 -3.30684 0
M  V30 3467 C 330.701 -1.19548 -4.07423 0
M  V30 3468 O 331.725 -1.06765 -3.39823 0
M  V30 3469 O 330.584 -1.39656 -5.28354 0
M  V30 3470 H 327.678 -0.176772 -0.807887 0
M  V30 3471 H 330.224 -1.05303 -1.33076 0
M  V30 3472 H 328.996 -2.15884 -3.26358 0
M  V30 3473 H 328.619 -0.580059 -3.93346 0
M  V30 3474 N 329.616 1.39756 -0.72842 0
M  V30 3475 C 330.579 2.29012 -0.0927297 0
M  V30 3476 C 331.579 1.45992 0.674025 0
M  V30 3477 O 332.769 1.66749 0.50402 0
M  V30 3478 C 329.901 3.29396 0.878137 0
M  V30 3479 H 331.094 2.86729 -0.879011 0
M  V30 3480 H 328.647 1.48293 -0.493847 0
M  V30 3481 H 329.382 2.76722 1.69101 0
M  V30 3482 H 329.167 3.907 0.331051 0
M  V30 3483 H 330.657 3.96199 1.3197 0
M  V30 3484 N 331.094 0.475555 1.50254 0
M  V30 3485 C 332.34 -0.0780073 2.0265 0
M  V30 3486 C 332.673 -1.38968 1.35652 0
M  V30 3487 O 331.948 -1.8839 0.483691 0
M  V30 3488 C 332.231 -0.257161 3.59181 0
M  V30 3489 C 332.084 1.07585 4.36744 0
M  V30 3490 C 333.403 -1.00965 4.28362 0
M  V30 3491 H 330.522 -0.0268758 0.73651 0
M  V30 3492 H 333.164 0.622015 1.7953 0
M  V30 3493 H 331.314 -0.853412 3.79011 0
M  V30 3494 H 332.986 1.70902 4.28474 0
M  V30 3495 H 331.229 1.6714 4.00308 0
M  V30 3496 H 331.9 0.904088 5.44546 0
M  V30 3497 H 334.376 -0.504214 4.13034 0
M  V30 3498 H 333.252 -1.10381 5.37687 0
M  V30 3499 H 333.513 -2.04731 3.91839 0
M  V30 3500 N 332.573 -1.56217 0.208337 0
M  V30 3501 C 333.483 -2.23316 -0.718836 0
M  V30 3502 C 334.499 -1.23648 -1.22422 0
M  V30 3503 O 335.675 -1.56423 -1.26861 0
M  V30 3504 C 332.74 -2.88968 -1.91568 0
M  V30 3505 C 331.801 -4.03943 -1.45357 0
M  V30 3506 C 331.034 -4.66455 -2.59337 0
M  V30 3507 O 331.257 -4.27919 -3.77149 0
M  V30 3508 O 330.191 -5.55686 -2.31293 0
M  V30 3509 H 334.017 -3.03182 -0.177315 0
M  V30 3510 H 331.602 -1.49384 -0.0215402 0
M  V30 3511 H 333.484 -3.30455 -2.61491 0
M  V30 3512 H 332.159 -2.12071 -2.44556 0
M  V30 3513 H 331.066 -3.67052 -0.722746 0
M  V30 3514 H 332.399 -4.82543 -0.970219 0
M  V30 3515 N 334.051 0.0651679 -1.57465 0
M  V30 3516 C 335.276 0.779605 -1.9219 0
M  V30 3517 C 335.701 1.69988 -0.805333 0
M  V30 3518 O 335.059 1.79685 0.241435 0
M  V30 3519 C 335.107 1.54364 -3.2589 0
M  V30 3520 O 334.211 2.65474 -3.1559 0
M  V30 3521 H 333.552 0.212249 -0.629163 0
M  V30 3522 H 336.082 0.0314294 -2.04576 0
M  V30 3523 H 336.092 1.92146 -3.59922 0
M  V30 3524 H 334.767 0.868457 -4.06732 0
M  V30 3525 H 333.344 2.30501 -2.93128 0
M  V30 3526 N 335.529 1.53961 0.336706 0
M  V30 3527 C 336.476 1.82428 1.41381 0
M  V30 3528 C 337.446 0.670444 1.51968 0
M  V30 3529 O 338.631 0.915565 1.67398 0
M  V30 3530 C 335.771 2.04564 2.77934 0
M  V30 3531 C 334.884 3.32267 2.76084 0
M  V30 3532 C 334.019 3.44434 4.04399 0
M  V30 3533 C 333.058 4.66061 3.96804 0
M  V30 3534 N 332.195 4.75224 5.16823 0
M  V30 3535 H 337.035 2.74324 1.16405 0
M  V30 3536 H 334.572 1.35869 0.563752 0
M  V30 3537 H 336.53 2.15388 3.57301 0
M  V30 3538 H 335.16 1.15974 3.01247 0
M  V30 3539 H 334.212 3.3025 1.88784 0
M  V30 3540 H 335.524 4.21733 2.66351 0
M  V30 3541 H 334.678 3.54728 4.92192 0
M  V30 3542 H 333.417 2.53037 4.16921 0
M  V30 3543 H 332.422 4.55838 3.07396 0
M  V30 3544 H 333.647 5.58829 3.85858 0
M  V30 3545 H 331.593 3.86739 5.29876 0
M  V30 3546 H 331.51 5.58636 5.09374 0
M  V30 3547 H 332.778 4.89835 6.06367 0
M  V30 3548 N 337.007 -0.598083 1.45811 0
M  V30 3549 C 337.937 -1.71873 1.58057 0
M  V30 3550 C 338.918 -1.64533 0.431615 0
M  V30 3551 O 340.103 -1.82787 0.65595 0
M  V30 3552 C 337.233 -3.10495 1.55597 0
M  V30 3553 C 336.187 -3.32654 2.69305 0
M  V30 3554 C 335.513 -4.71646 2.51902 0
M  V30 3555 C 336.813 -3.21981 4.11248 0
M  V30 3556 H 338.507 -1.61881 2.51863 0
M  V30 3557 H 336.053 -0.777372 1.21214 0
M  V30 3558 H 338.006 -3.88699 1.6276 0
M  V30 3559 H 336.73 -3.2135 0.583255 0
M  V30 3560 H 335.389 -2.56843 2.61586 0
M  V30 3561 H 335.037 -4.79246 1.52748 0
M  V30 3562 H 334.737 -4.87426 3.2816 0
M  V30 3563 H 336.261 -5.52038 2.60933 0
M  V30 3564 H 337.675 -3.90049 4.20161 0
M  V30 3565 H 336.072 -3.49289 4.87972 0
M  V30 3566 H 337.142 -2.1928 4.32486 0
M  V30 3567 N 338.485 -1.33259 -0.841409 0
M  V30 3568 C 339.732 -1.24572 -1.5965 0
M  V30 3569 C 340.06 0.189137 -1.93578 0
M  V30 3570 O 339.315 1.14566 -1.5866 0
M  V30 3571 C 339.614 -2.06381 -2.9179 0
M  V30 3572 C 339.28 -3.556 -2.77235 0
M  V30 3573 C 337.942 -3.96282 -2.72973 0
M  V30 3574 C 340.294 -4.50433 -2.62221 0
M  V30 3575 C 337.622 -5.30017 -2.51592 0
M  V30 3576 C 339.974 -5.84327 -2.42374 0
M  V30 3577 C 338.638 -6.24194 -2.36512 0
M  V30 3578 H 337.908 -0.455842 -0.5842 0
M  V30 3579 H 340.555 -1.6482 -0.975016 0
M  V30 3580 H 338.86 -1.58903 -3.5813 0
M  V30 3581 H 340.557 -1.97019 -3.49263 0
M  V30 3582 H 337.147 -3.23298 -2.81384 0
M  V30 3583 H 341.331 -4.19914 -2.64549 0
M  V30 3584 H 336.587 -5.59947 -2.45499 0
M  V30 3585 H 340.761 -6.57414 -2.29739 0
M  V30 3586 H 338.388 -7.27759 -2.19706 0
M  V30 3587 N 339.963 1.05934 -1.16686 0
M  V30 3588 C 341.211 1.78447 -0.948744 0
M  V30 3589 C 341.532 1.87813 0.524523 0
M  V30 3590 O 340.802 1.38945 1.38098 0
M  V30 3591 H 339.382 0.660971 -0.348033 0
M  V30 3592 H 342.044 1.27947 -1.47022 0
M  V30 3593 H 341.14 2.80394 -1.37061 0
M  V30 3594 N 341.441 0.965919 1.2453 0
M  V30 3595 C 342.69 0.622437 1.91856 0
M  V30 3596 C 343.003 -0.846006 1.76358 0
M  V30 3597 O 344.209 -1.29993 2.38357 0
M  V30 3598 C 342.665 1.0626 3.43856 0
M  V30 3599 C 342.273 2.55437 3.68043 0
M  V30 3600 C 344.017 0.792183 4.17043 0
M  V30 3601 C 341.924 2.93196 5.13605 0
M  V30 3602 H 340.854 0.229092 0.718354 0
M  V30 3603 H 343.505 1.17189 1.41206 0
M  V30 3604 H 341.887 0.441476 3.93531 0
M  V30 3605 H 343.061 3.22665 3.28974 0
M  V30 3606 H 341.376 2.8007 3.08139 0
M  V30 3607 H 343.973 1.05031 5.24283 0
M  V30 3608 H 344.316 -0.271584 4.15413 0
M  V30 3609 H 344.849 1.37419 3.73311 0
M  V30 3610 H 341.588 3.98636 5.20355 0
M  V30 3611 H 341.108 2.30651 5.53679 0
M  V30 3612 H 342.787 2.83004 5.81823 0
M  V30 3613 N 342.919 -1.39368 0.735821 0
M  V30 3614 C 344.167 -2.00101 0.283562 0
M  V30 3615 C 344.488 -1.5868 -1.13338 0
M  V30 3616 O 343.758 -0.835423 -1.77193 0
M  V30 3617 H 342.338 -0.740024 0.101851 0
M  V30 3618 H 345 -1.70404 0.945962 0
M  V30 3619 H 344.096 -3.10323 0.332604 0
M  V30 3620 N 344.397 -0.483516 -1.5 0
M  V30 3621 C 345.36 0.292965 -2.2732 0
M  V30 3622 C 346.36 0.909499 -1.32608 0
M  V30 3623 O 347.55 0.776745 -1.55924 0
M  V30 3624 C 344.682 1.41854 -3.09984 0
M  V30 3625 H 345.875 -0.385289 -2.97415 0
M  V30 3626 H 343.428 -0.237942 -1.54478 0
M  V30 3627 H 344.163 2.13148 -2.44414 0
M  V30 3628 H 343.948 0.982114 -3.79601 0
M  V30 3629 H 345.438 1.96597 -3.68429 0
M  V30 3630 N 345.875 1.56104 -0.216619 0
M  V30 3631 C 346.785 2.23694 0.706982 0
M  V30 3632 C 347.801 1.24295 1.21765 0
M  V30 3633 O 348.977 1.57094 1.2603 0
M  V30 3634 C 346.042 2.8998 1.90033 0
M  V30 3635 C 345.103 4.04708 1.43213 0
M  V30 3636 C 344.336 4.67824 2.56859 0
M  V30 3637 O 344.559 4.29913 3.74874 0
M  V30 3638 O 343.493 5.56905 2.28343 0
M  V30 3639 H 347.319 3.03272 0.161235 0
M  V30 3640 H 344.904 1.49394 0.0136177 0
M  V30 3641 H 346.786 3.31837 2.59735 0
M  V30 3642 H 345.461 2.13365 2.43428 0
M  V30 3643 H 344.368 3.6743 0.70327 0
M  V30 3644 H 345.701 4.83051 0.944615 0
M  V30 3645 N 347.353 -0.0568162 1.57498 0
M  V30 3646 C 348.578 -0.769402 1.92601 0
M  V30 3647 C 349.003 -1.69559 0.814336 0
M  V30 3648 O 348.361 -1.79811 -0.231903 0
M  V30 3649 C 348.409 -1.52634 3.26704 0
M  V30 3650 O 347.513 -2.63797 3.16994 0
M  V30 3651 H 346.854 -0.208909 0.63028 0
M  V30 3652 H 349.384 -0.0205798 2.0459 0
M  V30 3653 H 349.394 -1.90234 3.60936 0
M  V30 3654 H 348.069 -0.846875 4.07186 0
M  V30 3655 H 346.646 -2.28943 2.94346 0
M  V30 3656 N 348.832 -1.54138 -0.328536 0
M  V30 3657 C 350.062 -1.75807 -1.08516 0
M  V30 3658 C 350.47 -0.50428 -1.82356 0
M  V30 3659 O 349.813 0.534451 -1.75754 0
M  V30 3660 C 349.875 -2.89423 -2.13248 0
M  V30 3661 C 349.539 -4.28504 -1.5885 0
M  V30 3662 C 350.536 -5.09536 -1.03289 0
M  V30 3663 C 348.221 -4.75034 -1.63243 0
M  V30 3664 C 350.215 -6.35206 -0.52845 0
M  V30 3665 C 347.902 -6.00672 -1.12411 0
M  V30 3666 C 348.9 -6.80592 -0.573062 0
M  V30 3667 O 348.588 -8.03867 -0.0723692 0
M  V30 3668 H 348.32 -0.590633 -0.328829 0
M  V30 3669 H 350.874 -2.01819 -0.381868 0
M  V30 3670 H 349.104 -2.5897 -2.87178 0
M  V30 3671 H 350.793 -2.98921 -2.74592 0
M  V30 3672 H 351.559 -4.74745 -0.99206 0
M  V30 3673 H 347.438 -4.12875 -2.05074 0
M  V30 3674 H 350.982 -6.97532 -0.0976774 0
M  V30 3675 H 346.879 -6.34955 -1.162 0
M  V30 3676 H 347.647 -8.18283 -0.188258 0
M  V30 3677 N 350.31 0.590341 -1.46126 0
M  V30 3678 C 351.538 1.37504 -1.54597 0
M  V30 3679 C 351.953 1.87897 -0.184447 0
M  V30 3680 O 351.31 1.63192 0.816984 0
M  V30 3681 C 351.361 2.56779 -2.54454 0
M  V30 3682 O 351.082 2.08476 -3.85317 0
M  V30 3683 C 352.583 3.49427 -2.72792 0
M  V30 3684 H 349.803 0.420325 -0.523037 0
M  V30 3685 H 352.347 0.718383 -1.91467 0
M  V30 3686 H 350.502 3.1845 -2.20609 0
M  V30 3687 H 350.916 2.86097 -4.396 0
M  V30 3688 H 352.39 4.29619 -3.466 0
M  V30 3689 H 352.867 4.00876 -1.79429 0
M  V30 3690 H 353.473 2.93598 -3.07702 0
M  V30 3691 N 351.788 1.33704 0.83433 0
M  V30 3692 C 353.034 1.25603 1.59222 0
M  V30 3693 C 353.367 -0.176659 1.93395 0
M  V30 3694 O 352.642 -1.11915 1.59076 0
M  V30 3695 C 352.925 2.13576 2.89926 0
M  V30 3696 C 352.778 3.65326 2.62406 0
M  V30 3697 C 354.097 2.01238 3.91397 0
M  V30 3698 H 351.216 0.457613 0.577719 0
M  V30 3699 H 353.858 1.63848 0.961972 0
M  V30 3700 H 352.008 1.8109 3.43713 0
M  V30 3701 H 353.68 4.08124 2.15017 0
M  V30 3702 H 351.923 3.8698 1.96033 0
M  V30 3703 H 352.594 4.22232 3.55562 0
M  V30 3704 H 355.07 2.29738 3.46929 0
M  V30 3705 H 353.946 2.65036 4.80673 0
M  V30 3706 H 354.207 0.985951 4.30966 0
M  V30 3707 N 353.266 -1.05314 1.17247 0
M  V30 3708 C 354.514 -1.77941 0.958194 0
M  V30 3709 C 354.835 -1.88089 -0.514556 0
M  V30 3710 O 354.105 -1.39676 -1.37359 0
M  V30 3711 H 352.685 -0.659116 0.351533 0
M  V30 3712 H 355.347 -1.27166 1.47699 0
M  V30 3713 H 354.443 -2.79663 1.38546 0
M  V30 3714 N 354.744 -0.972509 -1.24016 0
M  V30 3715 C 355.969 -0.654417 -1.96805 0
M  V30 3716 C 356.394 0.770398 -1.716 0
M  V30 3717 O 355.752 1.52361 -0.982647 0
M  V30 3718 C 355.8 -0.941031 -3.48105 0
M  V30 3719 O 354.904 -0.0289472 -4.1239 0
M  V30 3720 H 354.245 -0.24692 -0.616382 0
M  V30 3721 H 356.775 -1.30396 -1.57664 0
M  V30 3722 H 356.785 -0.87452 -3.98517 0
M  V30 3723 H 355.46 -1.97939 -3.65777 0
M  V30 3724 H 354.037 -0.149192 -3.72601 0
M  V30 3725 N 356.222 1.38976 -0.743202 0
M  V30 3726 C 357.17 2.32394 -0.0978389 0
M  V30 3727 C 358.164 1.53486 0.716824 0
M  V30 3728 O 359.37 1.69092 0.617088 0
M  V30 3729 H 355.745 0.75189 -0.0128402 0
M  V30 3730 H 357.716 2.84441 -0.901981 0
M  V30 3731 C 356.465 3.38629 0.789036 0
M  V30 3732 H 355.788 3.99432 0.171559 0
M  V30 3733 H 357.228 4.06426 1.20807 0
M  V30 3734 C 355.687 2.76347 1.92702 0
M  V30 3735 O 356.217 2.64836 3.02034 0
M  V30 3736 N 354.423 2.34311 1.71891 0
M  V30 3737 H 353.97 2.43873 0.829675 0
M  V30 3738 H 353.928 1.9298 2.48205 0
M  V30 3739 N 357.7 0.491464 1.49741 0
M  V30 3740 C 358.61 -0.296835 2.32715 0
M  V30 3741 C 359.626 -0.976536 1.44013 0
M  V30 3742 O 360.802 -0.960023 1.77047 0
M  V30 3743 C 357.867 -1.35288 3.19215 0
M  V30 3744 C 356.928 -0.687632 4.23757 0
M  V30 3745 C 356.161 -1.69336 5.06123 0
M  V30 3746 O 356.384 -2.92219 4.89861 0
M  V30 3747 O 355.318 -1.25394 5.88693 0
M  V30 3748 H 359.144 0.382048 3.01287 0
M  V30 3749 H 356.729 0.252953 1.47243 0
M  V30 3750 H 358.611 -1.96411 3.72828 0
M  V30 3751 H 357.286 -2.01487 2.53347 0
M  V30 3752 H 356.193 -0.0369159 3.74082 0
M  V30 3753 H 357.526 -0.0682566 4.92153 0
M  V30 3754 N 359.178 -1.55987 0.224894 0
M  V30 3755 C 360.425 -1.9839 -0.4059 0
M  V30 3756 C 360.753 -1.11261 -1.59535 0
M  V30 3757 O 360.008 -0.158314 -1.95059 0
M  V30 3758 C 360.307 -3.46394 -0.880106 0
M  V30 3759 C 359.973 -4.5046 0.19918 0
M  V30 3760 C 358.635 -4.7864 0.495661 0
M  V30 3761 C 360.987 -5.12855 0.928939 0
M  V30 3762 C 358.315 -5.66497 1.52636 0
M  V30 3763 C 360.667 -6.01828 1.949 0
M  V30 3764 C 359.331 -6.28351 2.25236 0
M  V30 3765 H 358.601 -0.725961 -0.148529 0
M  V30 3766 H 361.248 -1.88668 0.328113 0
M  V30 3767 H 359.553 -3.53337 -1.69294 0
M  V30 3768 H 361.25 -3.76577 -1.37808 0
M  V30 3769 H 357.84 -4.28579 -0.0420526 0
M  V30 3770 H 362.024 -4.9115 0.713129 0
M  V30 3771 H 357.28 -5.8531 1.76698 0
M  V30 3772 H 361.454 -6.49225 2.51951 0
M  V30 3773 H 359.081 -6.96226 3.05244 0
M  V30 3774 N 360.656 0.0484629 -1.57525 0
M  V30 3775 C 361.886 0.754326 -1.92337 0
M  V30 3776 C 362.294 1.70443 -0.82132 0
M  V30 3777 O 361.637 1.82466 0.21254 0
M  V30 3778 C 361.699 1.58231 -3.22805 0
M  V30 3779 C 361.363 0.799074 -4.4996 0
M  V30 3780 C 362.36 0.1079 -5.19788 0
M  V30 3781 C 360.045 0.759345 -4.96527 0
M  V30 3782 C 362.039 -0.612516 -6.3445 0
M  V30 3783 C 359.726 0.0351713 -6.1109 0
M  V30 3784 C 360.724 -0.649537 -6.79904 0
M  V30 3785 O 360.412 -1.36199 -7.92278 0
M  V30 3786 H 360.144 0.218257 -0.639797 0
M  V30 3787 H 362.698 0.0159295 -2.05394 0
M  V30 3788 H 360.928 2.36406 -3.06021 0
M  V30 3789 H 362.617 2.16898 -3.43089 0
M  V30 3790 H 363.383 0.129748 -4.84826 0
M  V30 3791 H 359.262 1.28177 -4.42822 0
M  V30 3792 H 362.806 -1.14751 -6.88097 0
M  V30 3793 H 358.703 0.0113314 -6.45499 0
M  V30 3794 H 359.471 -1.27366 -8.0853 0
M  V30 3795 N 362.134 1.5431 0.320358 0
M  V30 3796 C 363.067 1.78769 1.41834 0
M  V30 3797 C 364.045 0.63783 1.49568 0
M  V30 3798 O 365.229 0.875628 1.66928 0
M  V30 3799 C 362.356 1.90712 2.79905 0
M  V30 3800 C 361.402 3.13023 2.89687 0
M  V30 3801 S 362.235 4.71554 2.53766 0
M  V30 3802 C 363.391 4.86408 3.93902 0
M  V30 3803 H 363.624 2.71619 1.20874 0
M  V30 3804 H 361.157 1.45474 0.517377 0
M  V30 3805 H 363.115 1.98279 3.59438 0
M  V30 3806 H 361.776 0.988343 2.98145 0
M  V30 3807 H 360.969 3.18124 3.90913 0
M  V30 3808 H 360.571 3.03803 2.18128 0
M  V30 3809 H 362.863 4.69241 4.88691 0
M  V30 3810 H 363.806 5.88508 3.93782 0
M  V30 3811 H 364.214 4.14689 3.83005 0
M  V30 3812 N 363.613 -0.582584 1.46437 0
M  V30 3813 C 364.861 -1.33814 1.51453 0
M  V30 3814 C 365.182 -1.94277 0.167792 0
M  V30 3815 O 364.452 -1.78566 -0.805677 0
M  V30 3816 H 363.032 -0.496838 0.557818 0
M  V30 3817 H 365.694 -0.682281 1.82568 0
M  V30 3818 H 364.79 -2.14479 2.26728 0
M  V30 3819 N 365.091 -1.34144 -0.827227 0
M  V30 3820 C 366.321 -1.29138 -1.61267 0
M  V30 3821 C 366.729 0.137597 -1.88699 0
M  V30 3822 O 366.072 1.09379 -1.47587 0
M  V30 3823 C 366.134 -2.0097 -2.9808 0
M  V30 3824 C 365.798 -3.50242 -2.93563 0
M  V30 3825 C 366.795 -4.4523 -2.68452 0
M  V30 3826 C 364.48 -3.92592 -3.13331 0
M  V30 3827 C 366.474 -5.80542 -2.63154 0
M  V30 3828 C 364.161 -5.28005 -3.07658 0
M  V30 3829 C 365.159 -6.21792 -2.82602 0
M  V30 3830 O 364.847 -7.54723 -2.76853 0
M  V30 3831 H 364.579 -0.445851 -0.508127 0
M  V30 3832 H 367.133 -1.77263 -1.03763 0
M  V30 3833 H 365.363 -1.47451 -3.57484 0
M  V30 3834 H 367.052 -1.89309 -3.5905 0
M  V30 3835 H 367.818 -4.13832 -2.52919 0
M  V30 3836 H 363.697 -3.19994 -3.31851 0
M  V30 3837 H 367.241 -6.53717 -2.43516 0
M  V30 3838 H 363.138 -5.59023 -3.22743 0
M  V30 3839 H 363.906 -7.64409 -2.92611 0
M  V30 3840 N 366.569 1.04691 -1.17803 0
M  V30 3841 C 367.532 2.10724 -0.901545 0
M  V30 3842 C 368.532 1.6042 0.110437 0
M  V30 3843 O 369.722 1.7377 -0.122303 0
M  V30 3844 C 366.854 3.39084 -0.351409 0
M  V30 3845 H 368.047 2.36686 -1.84174 0
M  V30 3846 H 365.6 1.21015 -0.98919 0
M  V30 3847 H 366.335 3.18782 0.59569 0
M  V30 3848 H 366.12 3.76909 -1.08083 0
M  V30 3849 H 367.61 4.17227 -0.176451 0
M  V30 3850 N 368.047 0.979072 1.23499 0
M  V30 3851 C 369.275 0.665202 1.95915 0
M  V30 3852 C 369.69 -0.767571 1.72493 0
M  V30 3853 O 369.047 -1.51635 1.01554 0
M  V30 3854 C 369.098 0.944438 3.48945 0
M  V30 3855 O 368.819 2.3209 3.71572 0
M  V30 3856 C 370.32 0.646336 4.38563 0
M  V30 3857 H 367.54 0.247218 0.623798 0
M  V30 3858 H 370.084 1.31009 1.57025 0
M  V30 3859 H 368.239 0.345575 3.85856 0
M  V30 3860 H 368.653 2.40957 4.65876 0
M  V30 3861 H 370.127 0.892091 5.44744 0
M  V30 3862 H 370.604 -0.419575 4.37191 0
M  V30 3863 H 371.21 1.22562 4.07258 0
M  V30 3864 N 369.525 -1.3858 0.750561 0
M  V30 3865 C 370.75 -2.04997 0.314812 0
M  V30 3866 C 371.175 -1.56235 -1.04749 0
M  V30 3867 O 370.533 -0.712981 -1.66692 0
M  V30 3868 C 370.581 -3.58961 0.343415 0
M  V30 3869 O 369.685 -4.07025 -0.663628 0
M  V30 3870 H 369.026 -0.649081 0.139962 0
M  V30 3871 H 371.556 -1.77313 1.02084 0
M  V30 3872 H 371.566 -4.07542 0.193233 0
M  V30 3873 H 370.241 -3.93811 1.33738 0
M  V30 3874 H 368.818 -3.6982 -0.478307 0
M  V30 3875 N 371.003 -0.499398 -1.49478 0
M  V30 3876 C 372.419 -0.155261 -1.58843 0
M  V30 3877 C 372.619 1.34008 -1.50479 0
M  V30 3878 O 371.675 2.11589 -1.37791 0
M  V30 3879 C 372.988 -0.730636 -2.91689 0
M  V30 3880 C 374.536 -0.696599 -3.0515 0
M  V30 3881 C 375.011 -1.25001 -4.40612 0
M  V30 3882 N 376.502 -1.21064 -4.47099 0
M  V30 3883 C 377.237 -1.60905 -5.50361 0
M  V30 3884 N 376.733 -2.08331 -6.60735 0
M  V30 3885 N 378.526 -1.52331 -5.41065 0
M  V30 3886 H 370.677 -1.47162 -1.53158 0
M  V30 3887 H 372.94 -0.610309 -0.725415 0
M  V30 3888 H 372.646 -1.77928 -3.03372 0
M  V30 3889 H 372.52 -0.190161 -3.7672 0
M  V30 3890 H 374.907 0.343204 -2.93097 0
M  V30 3891 H 374.988 -1.2742 -2.21806 0
M  V30 3892 H 374.632 -2.28859 -4.53416 0
M  V30 3893 H 374.562 -0.64836 -5.22593 0
M  V30 3894 H 377.053 -0.863128 -3.67911 0
M  V30 3895 H 377.366 -2.36805 -7.35624 0
M  V30 3896 H 375.711 -2.12304 -6.6178 0
M  V30 3897 H 378.902 -1.151 -4.53729 0
M  V30 3898 H 379.075 -1.83704 -6.21415 0
M  V30 3899 N 372.481 1.55866 -0.233164 0
M  V30 3900 C 373.413 2.18099 0.704668 0
M  V30 3901 C 374.426 1.15334 1.14899 0
M  V30 3902 O 375.615 1.42262 1.07814 0
M  V30 3903 C 372.715 2.7592 1.96777 0
M  V30 3904 C 371.888 4.03969 1.67713 0
M  V30 3905 C 370.947 4.46242 2.78845 0
M  V30 3906 O 369.973 5.12903 2.46818 0
M  V30 3907 N 371.175 4.12886 4.08051 0
M  V30 3908 H 373.94 2.99205 0.172258 0
M  V30 3909 H 371.501 1.61815 -0.0525945 0
M  V30 3910 H 373.493 3.01165 2.70337 0
M  V30 3911 H 372.063 1.99051 2.41034 0
M  V30 3912 H 371.283 3.86459 0.777391 0
M  V30 3913 H 372.571 4.8748 1.4574 0
M  V30 3914 H 371.969 3.59342 4.3691 0
M  V30 3915 H 370.526 4.42997 4.78118 0
M  V30 3916 N 373.959 -0.0401083 1.57549 0
M  V30 3917 C 375.187 -0.745196 1.93014 0
M  V30 3918 C 375.602 -1.6948 0.831984 0
M  V30 3919 O 374.959 -1.81482 -0.192463 0
M  V30 3920 C 375.01 -1.51176 3.28372 0
M  V30 3921 O 374.731 -0.600284 4.33968 0
M  V30 3922 C 376.232 -2.315 3.78051 0
M  V30 3923 H 373.452 -0.210088 0.637263 0
M  V30 3924 H 375.996 -0.000924689 2.045 0
M  V30 3925 H 374.151 -2.20801 3.18317 0
M  V30 3926 H 374.565 -1.13669 5.12035 0
M  V30 3927 H 376.039 -2.80697 4.75303 0
M  V30 3928 H 376.516 -3.12436 3.08675 0
M  V30 3929 H 377.122 -1.66971 3.91153 0
M  V30 3930 N 375.437 -1.54477 -0.31217 0
M  V30 3931 C 376.4 -1.83923 -1.36766 0
M  V30 3932 C 377.4 -0.711563 -1.44199 0
M  V30 3933 O 378.59 -0.979866 -1.44029 0
M  V30 3934 C 375.722 -2.0095 -2.75376 0
M  V30 3935 H 376.915 -2.78239 -1.11906 0
M  V30 3936 H 374.468 -1.46369 -0.548257 0
M  V30 3937 H 375.203 -1.08883 -3.05475 0
M  V30 3938 H 374.988 -2.83018 -2.71373 0
M  V30 3939 H 376.478 -2.2514 -3.51713 0
M  V30 3940 N 376.915 0.57481 -1.46744 0
M  V30 3941 C 377.845 1.69337 -1.60771 0
M  V30 3942 C 378.826 1.63825 -0.457736 0
M  V30 3943 O 380.011 1.8172 -0.684947 0
M  V30 3944 C 377.141 3.0798 -1.60517 0
M  V30 3945 C 376.095 3.28327 -2.74564 0
M  V30 3946 C 375.421 4.67578 -2.59373 0
M  V30 3947 C 376.721 3.15398 -4.16319 0
M  V30 3948 H 378.415 1.57853 -2.54407 0
M  V30 3949 H 375.961 0.75799 -1.22436 0
M  V30 3950 H 377.914 3.86061 -1.68923 0
M  V30 3951 H 376.638 3.20381 -0.634305 0
M  V30 3952 H 375.297 2.52649 -2.65639 0
M  V30 3953 H 374.945 4.76755 -1.60353 0
M  V30 3954 H 374.645 4.82144 -3.35873 0
M  V30 3955 H 376.169 5.47817 -2.69682 0
M  V30 3956 H 377.583 3.83315 -4.26313 0
M  V30 3957 H 375.98 3.41482 -4.93468 0
M  V30 3958 H 377.05 2.12372 -4.3592 0
M  V30 3959 N 378.394 1.34581 0.820102 0
M  V30 3960 C 379.634 1.28448 1.58998 0
M  V30 3961 C 379.998 -0.142883 1.91468 0
M  V30 3962 O 381.199 -0.328422 2.66786 0
M  V30 3963 C 379.47 2.153 2.85273 0
M  V30 3964 S 381.029 2.26548 3.75794 0
M  V30 3965 H 377.847 0.456685 0.54494 0
M  V30 3966 H 380.449 1.69825 0.968487 0
M  V30 3967 H 379.153 3.18008 2.59421 0
M  V30 3968 H 378.684 1.7483 3.52417 0
M  V30 3969 H 380.699 1.44034 4.74835 0
M  V30 3970 N 379.872 -1.04064 1.18357 0
M  V30 3971 C 380.802 -2.14001 0.934113 0
M  V30 3972 C 381.783 -1.69616 -0.128186 0
M  V30 3973 O 382.968 -1.94185 0.0244093 0
M  V30 3974 C 380.098 -3.44253 0.459066 0
M  V30 3975 C 379.052 -4.02261 1.46185 0
M  V30 3976 C 378.378 -5.27992 0.844322 0
M  V30 3977 C 379.678 -4.38432 2.83856 0
M  V30 3978 H 381.372 -2.35127 1.85352 0
M  V30 3979 H 378.918 -1.12998 0.892604 0
M  V30 3980 H 380.871 -4.20522 0.271907 0
M  V30 3981 H 379.595 -3.22813 -0.495912 0
M  V30 3982 H 378.254 -3.28074 1.63595 0
M  V30 3983 H 377.902 -5.02862 -0.117845 0
M  V30 3984 H 377.602 -5.67765 1.51384 0
M  V30 3985 H 379.126 -6.06938 0.667693 0
M  V30 3986 H 380.54 -5.05688 2.70098 0
M  V30 3987 H 378.937 -4.89254 3.47491 0
M  V30 3988 H 380.007 -3.4826 3.37406 0
M  V30 3989 N 381.35 -0.985608 -1.22978 0
M  V30 3990 C 382.627 -0.573599 -1.87001 0
M  V30 3991 C 383.007 0.949213 -1.88555 0
M  V30 3992 O 382.355 1.82811 -1.37086 0
M  V30 3993 C 382.565 -1.18564 -3.28243 0
M  V30 3994 C 383.913 -1.28163 -4.04796 0
M  V30 3995 O 384.937 -1.13949 -3.37482 0
M  V30 3996 O 383.796 -1.50832 -5.25273 0
M  V30 3997 H 380.89 -0.193868 -0.803955 0
M  V30 3998 H 383.436 -1.08102 -1.30813 0
M  V30 3999 H 382.208 -2.22758 -3.21706 0
M  V30 4000 H 381.831 -0.663363 -3.92027 0
M  V30 4001 N 382.828 1.3818 -0.7579 0
M  V30 4002 C 383.791 2.28764 -0.141286 0
M  V30 4003 C 384.791 1.47388 0.642907 0
M  V30 4004 O 385.981 1.67781 0.468536 0
M  V30 4005 C 383.113 3.31184 0.808069 0
M  V30 4006 H 384.306 2.848 -0.939633 0
M  V30 4007 H 381.859 1.47212 -0.525191 0
M  V30 4008 H 382.594 2.80247 1.63193 0
M  V30 4009 H 382.379 3.91314 0.248104 0
M  V30 4010 H 383.869 3.98909 1.23536 0
M  V30 4011 N 384.306 0.507319 1.49211 0
M  V30 4012 C 385.554 -0.0348839 2.0207 0
M  V30 4013 C 385.875 -1.36898 1.38866 0
M  V30 4014 O 385.145 -1.88133 0.546151 0
M  V30 4015 H 383.725 -0.0158812 0.746831 0
M  V30 4016 H 386.387 0.665998 1.83168 0
M  V30 4017 H 385.483 -0.159917 3.1169 0
M  V30 4018 N 385.784 -1.5574 0.241426 0
M  V30 4019 C 386.734 -2.17803 -0.674233 0
M  V30 4020 C 387.718 -1.13225 -1.14319 0
M  V30 4021 O 388.91 -1.39153 -1.09387 0
M  V30 4022 C 386.039 -2.87682 -1.87333 0
M  V30 4023 C 385.125 -3.99509 -1.42313 0
M  V30 4024 N 385.516 -5.01115 -0.686798 0
M  V30 4025 C 383.814 -4.11964 -1.70885 0
M  V30 4026 C 384.515 -5.79922 -0.454456 0
M  V30 4027 N 383.491 -5.34001 -1.01705 0
M  V30 4028 H 387.293 -2.93718 -0.103447 0
M  V30 4029 H 384.807 -1.62342 0.0435095 0
M  V30 4030 H 386.804 -3.3057 -2.54026 0
M  V30 4031 H 385.464 -2.13269 -2.4484 0
M  V30 4032 H 386.475 -5.16799 -0.337459 0
M  V30 4033 H 383.152 -3.48718 -2.2957 0
M  V30 4034 H 384.542 -6.71768 0.132992 0
M  V30 4035 N 387.262 0.0317525 -1.57568 0
M  V30 4036 C 388.509 0.723104 -1.89149 0
M  V30 4037 C 388.837 1.75504 -0.838377 0
M  V30 4038 O 388.092 1.95037 0.160982 0
M  V30 4039 C 388.391 1.43167 -3.27472 0
M  V30 4040 C 388.057 0.535972 -4.47703 0
M  V30 4041 C 386.719 0.289262 -4.8033 0
M  V30 4042 C 389.071 -0.0826125 -5.21135 0
M  V30 4043 C 386.399 -0.584853 -5.83778 0
M  V30 4044 C 388.751 -0.944414 -6.25511 0
M  V30 4045 C 387.415 -1.20061 -6.56614 0
M  V30 4046 H 386.685 0.264602 -0.692146 0
M  V30 4047 H 389.332 -0.0169496 -1.91492 0
M  V30 4048 H 387.637 2.24497 -3.21105 0
M  V30 4049 H 389.334 1.97209 -3.49155 0
M  V30 4050 H 385.924 0.738414 -4.22191 0
M  V30 4051 H 390.108 0.0950302 -4.96209 0
M  V30 4052 H 385.364 -0.79168 -6.06253 0
M  V30 4053 H 389.538 -1.43026 -6.81554 0
M  V30 4054 H 387.165 -1.87967 -7.36595 0
M  V30 4055 N 388.74 1.54641 0.303973 0
M  V30 4056 C 389.69 1.8177 1.37636 0
M  V30 4057 C 390.674 0.674697 1.46071 0
M  V30 4058 O 391.866 0.935251 1.50273 0
M  V30 4059 C 388.995 2.06584 2.74186 0
M  V30 4060 C 388.081 3.2706 2.69986 0
M  V30 4061 N 388.472 4.47682 2.35402 0
M  V30 4062 C 386.77 3.29028 3.01092 0
M  V30 4063 C 387.471 5.29689 2.40426 0
M  V30 4064 N 386.447 4.67339 2.7766 0
M  V30 4065 H 390.249 2.72596 1.09857 0
M  V30 4066 H 387.763 1.541 0.51254 0
M  V30 4067 H 389.76 2.24166 3.51504 0
M  V30 4068 H 388.42 1.17024 3.02879 0
M  V30 4069 H 389.431 4.74336 2.07908 0
M  V30 4070 H 386.108 2.49565 3.34699 0
M  V30 4071 H 387.498 6.3606 2.16512 0
M  V30 4072 N 390.218 -0.567019 1.47046 0
M  V30 4073 C 391.629 -1.14916 1.47143 0
M  V30 4074 C 391.98 -1.94954 0.220767 0
M  V30 4075 O 391.105 -2.05602 -0.67505 0
M  V30 4076 C 391.7 -2.09069 2.666 0
M  V30 4077 C 390.259 -2.62575 2.69687 0
M  V30 4078 C 389.406 -1.38755 2.40088 0
M  V30 4079 H 392.357 -0.354126 1.54699 0
M  V30 4080 H 392.378 -2.92789 2.43011 0
M  V30 4081 H 391.89 -1.50789 3.57609 0
M  V30 4082 H 389.991 -3.24681 1.82792 0
M  V30 4083 H 390.104 -3.04239 3.70102 0
M  V30 4084 H 388.468 -1.69098 1.90468 0
M  V30 4085 H 389.251 -0.822822 3.33293 0
M  V30 4086 N 391.696 -1.35014 -0.812953 0
M  V30 4087 C 392.924 -1.31031 -1.6012 0
M  V30 4088 C 393.339 0.113558 -1.88458 0
M  V30 4089 O 392.696 1.06363 -1.48301 0
M  V30 4090 C 392.747 -2.10872 -2.93624 0
M  V30 4091 O 392.468 -3.47706 -2.66518 0
M  V30 4092 C 393.969 -2.14401 -3.88004 0
M  V30 4093 H 391.189 -0.45037 -0.497401 0
M  V30 4094 H 393.733 -1.77775 -1.01076 0
M  V30 4095 H 391.888 -1.67744 -3.492 0
M  V30 4096 H 392.302 -3.89097 -3.51715 0
M  V30 4097 H 393.776 -2.74669 -4.78812 0
M  V30 4098 H 394.253 -1.14105 -4.24119 0
M  V30 4099 H 394.859 -2.57662 -3.38364 0
M  V30 4100 N 393.175 1.03435 -1.18907 0
M  V30 4101 C 394.085 2.15075 -0.937015 0
M  V30 4102 C 395.101 1.73706 0.101085 0
M  V30 4103 O 396.277 2.01232 -0.0822948 0
M  V30 4104 C 393.342 3.43458 -0.473057 0
M  V30 4105 C 392.403 3.99172 -1.57989 0
M  V30 4106 C 391.636 5.21427 -1.13797 0
M  V30 4107 O 391.859 5.704 0.000725941 0
M  V30 4108 O 390.793 5.69837 -1.9383 0
M  V30 4109 H 394.619 2.39198 -1.87131 0
M  V30 4110 H 392.204 1.13506 -0.971427 0
M  V30 4111 H 394.086 4.20811 -0.222702 0
M  V30 4112 H 392.761 3.20793 0.432869 0
M  V30 4113 H 391.668 3.23178 -1.88433 0
M  V30 4114 H 393.001 4.2619 -2.46217 0
M  V30 4115 N 394.653 0.992116 1.22453 0
M  V30 4116 C 395.899 0.668523 1.91464 0
M  V30 4117 C 396.232 -0.797313 1.77078 0
M  V30 4118 O 395.507 -1.5765 1.13916 0
M  V30 4119 C 395.79 1.07424 3.43703 0
M  V30 4120 C 395.643 2.59857 3.67143 0
M  V30 4121 C 396.962 0.626891 4.35612 0
M  V30 4122 H 394.081 0.244341 0.695318 0
M  V30 4123 H 396.723 1.2355 1.44345 0
M  V30 4124 H 394.873 0.591816 3.83966 0
M  V30 4125 H 396.545 3.15764 3.3629 0
M  V30 4126 H 394.788 3.01961 3.11451 0
M  V30 4127 H 395.459 2.83296 4.73759 0
M  V30 4128 H 397.935 1.04125 4.02861 0
M  V30 4129 H 396.811 0.939076 5.40807 0
M  V30 4130 H 397.072 -0.472457 4.39568 0
M  V30 4131 N 396.131 -1.37776 0.765217 0
M  V30 4132 C 397.38 -1.99092 0.323307 0
M  V30 4133 C 397.693 -1.61434 -1.10446 0
M  V30 4134 O 398.899 -2.15805 -1.64743 0
M  V30 4135 C 397.355 -3.56019 0.527098 0
M  V30 4136 C 396.963 -4.0262 1.96471 0
M  V30 4137 C 398.707 -4.2424 0.148483 0
M  V30 4138 C 396.614 -5.52233 2.11644 0
M  V30 4139 H 395.544 -0.744846 0.117137 0
M  V30 4140 H 398.195 -1.57391 0.943417 0
M  V30 4141 H 396.577 -3.95667 -0.162372 0
M  V30 4142 H 397.751 -3.74234 2.68859 0
M  V30 4143 H 396.066 -3.47161 2.29931 0
M  V30 4144 H 398.663 -5.34159 0.240456 0
M  V30 4145 H 399.006 -4.06446 -0.900422 0
M  V30 4146 H 399.539 -3.89872 0.79025 0
M  V30 4147 H 396.278 -5.74945 3.1483 0
M  V30 4148 H 395.798 -5.82324 1.4373 0
M  V30 4149 H 397.477 -6.18106 1.91193 0
M  V30 4150 N 397.609 -0.515225 -1.4894 0
M  V30 4151 C 398.834 0.022727 -2.07388 0
M  V30 4152 C 399.259 1.2876 -1.37122 0
M  V30 4153 O 398.617 1.76067 -0.432431 0
M  V30 4154 C 398.665 0.244869 -3.59768 0
M  V30 4155 O 397.769 1.31667 -3.90817 0
M  V30 4156 H 397.11 -0.0325506 -0.663202 0
M  V30 4157 H 399.64 -0.718918 -1.91553 0
M  V30 4158 H 399.65 0.47205 -4.0526 0
M  V30 4159 H 398.325 -0.679194 -4.10317 0
M  V30 4160 H 396.902 1.07331 -3.5712 0
M  V30 4161 N 399.087 1.5561 -0.249682 0
M  V30 4162 C 400.364 1.90932 0.424761 0
M  V30 4163 C 400.744 1.17078 1.75658 0
M  V30 4164 O 400.092 0.289176 2.26663 0
M  V30 4165 C 400.302 3.43975 0.590109 0
M  V30 4166 C 401.65 4.15281 0.884714 0
M  V30 4167 O 402.674 3.49729 0.67587 0
M  V30 4168 O 401.533 5.31236 1.28259 0
M  V30 4169 H 398.627 0.794815 0.228468 0
M  V30 4170 H 401.173 1.67135 -0.293954 0
M  V30 4171 H 399.945 3.89748 -0.34818 0
M  V30 4172 H 399.568 3.73644 1.35926 0
M  V30 4173 N 400.565 -0.0233959 1.57583 0
M  V30 4174 C 401.512 -1.02224 2.06927 0
M  V30 4175 C 402.482 -1.35575 0.959617 0
M  V30 4176 O 403.667 -1.45815 1.23055 0
M  V30 4177 C 400.807 -2.31636 2.5581 0
M  V30 4178 C 399.92 -2.04394 3.80588 0
M  V30 4179 C 399.055 -3.27717 4.18061 0
M  V30 4180 C 398.094 -2.96056 5.3574 0
M  V30 4181 N 397.231 -4.11847 5.68618 0
M  V30 4182 H 402.071 -0.594504 2.9201 0
M  V30 4183 H 399.608 -0.281921 1.44373 0
M  V30 4184 H 401.566 -3.07258 2.82221 0
M  V30 4185 H 400.196 -2.72122 1.73636 0
M  V30 4186 H 399.248 -1.19244 3.61227 0
M  V30 4187 H 400.56 -1.77042 4.66323 0
M  V30 4188 H 399.714 -4.11702 4.4563 0
M  V30 4189 H 398.453 -3.58188 3.30988 0
M  V30 4190 H 397.458 -2.10474 5.07918 0
M  V30 4191 H 398.683 -2.66857 6.24471 0
M  V30 4192 H 396.629 -4.42258 4.84504 0
M  V30 4193 H 396.546 -3.87938 6.48876 0
M  V30 4194 H 397.814 -4.96689 6.00766 0
M  V30 4195 N 402.043 -1.548 -0.295768 0
M  V30 4196 C 403.292 -1.73538 -1.02798 0
M  V30 4197 C 403.605 -0.531159 -1.8825 0
M  V30 4198 O 404.811 -0.600458 -2.64777 0
M  V30 4199 C 403.267 -3.07051 -1.87744 0
M  V30 4200 C 402.875 -4.34968 -1.07269 0
M  V30 4201 C 404.619 -3.35146 -2.60533 0
M  V30 4202 C 402.526 -5.5953 -1.91521 0
M  V30 4203 H 401.456 -0.646794 -0.387522 0
M  V30 4204 H 404.107 -1.81278 -0.284718 0
M  V30 4205 H 402.489 -2.93289 -2.66078 0
M  V30 4206 H 403.663 -4.5958 -0.335117 0
M  V30 4207 H 401.978 -4.13847 -0.460384 0
M  V30 4208 H 404.575 -4.2541 -3.23929 0
M  V30 4209 H 404.918 -2.54255 -3.29636 0
M  V30 4210 H 405.451 -3.49902 -1.89244 0
M  V30 4211 H 402.19 -6.43103 -1.26878 0
M  V30 4212 H 401.71 -5.39096 -2.62937 0
M  V30 4213 H 403.389 -5.96982 -2.49442 0
M  V30 4214 N 403.521 0.559213 -1.47345 0
M  V30 4215 C 404.746 1.34676 -1.57725 0
M  V30 4216 C 405.171 1.86723 -0.227164 0
M  V30 4217 O 404.529 1.6286 0.796642 0
M  V30 4218 C 404.577 2.49399 -2.60447 0
M  V30 4219 O 403.681 3.51567 -2.15578 0
M  V30 4220 H 403.022 0.400115 -0.52991 0
M  V30 4221 H 405.552 0.676009 -1.93109 0
M  V30 4222 H 405.562 2.95996 -2.80803 0
M  V30 4223 H 404.237 2.10873 -3.58477 0
M  V30 4224 H 402.814 3.11289 -2.05313 0
M  V30 4225 N 404.999 1.35443 0.805782 0
M  V30 4226 C 405.962 1.28301 1.89925 0
M  V30 4227 C 406.962 0.194285 1.59622 0
M  V30 4228 O 408.152 0.448036 1.6834 0
M  V30 4229 C 405.284 0.984997 3.2636 0
M  V30 4230 H 406.477 2.2553 1.97677 0
M  V30 4231 H 404.03 1.19979 1.00173 0
M  V30 4232 H 404.765 0.016603 3.24296 0
M  V30 4233 H 404.55 1.77269 3.4974 0
M  V30 4234 H 406.04 0.960651 4.064 0
M  V30 4235 N 406.477 -1.02803 1.19454 0
M  V30 4236 C 407.44 -2.09264 0.934955 0
M  V30 4237 C 408.44 -1.60576 -0.0849015 0
M  V30 4238 O 409.63 -1.73554 0.149933 0
M  V30 4239 C 406.762 -3.38482 0.40531 0
M  V30 4240 H 407.955 -2.33726 1.87916 0
M  V30 4241 H 405.508 -1.19426 1.00832 0
M  V30 4242 H 406.243 -3.19689 -0.544899 0
M  V30 4243 H 406.028 -3.75142 1.14065 0
M  V30 4244 H 407.518 -4.16894 0.242806 0
M  V30 4245 N 407.956 -0.998596 -1.21925 0
M  V30 4246 C 408.889 -0.498517 -2.22688 0
M  V30 4247 C 409.867 0.444301 -1.56412 0
M  V30 4248 O 411.051 0.368518 -1.84863 0
M  V30 4249 C 408.178 0.276639 -3.37568 0
M  V30 4250 C 407.224 -0.61302 -4.22071 0
M  V30 4251 S 408.057 -2.07168 -4.93803 0
M  V30 4252 C 409.213 -1.30617 -6.12119 0
M  V30 4253 H 409.446 -1.35234 -2.64762 0
M  V30 4254 H 406.979 -0.806018 -1.31692 0
M  V30 4255 H 408.937 0.717817 -4.04175 0
M  V30 4256 H 407.598 1.10581 -2.93991 0
M  V30 4257 H 406.791 -0.0162909 -5.03997 0
M  V30 4258 H 406.393 -0.991202 -3.60626 0
M  V30 4259 H 408.685 -0.57675 -6.75041 0
M  V30 4260 H 409.628 -2.10091 -6.76215 0
M  V30 4261 H 410.036 -0.816957 -5.58557 0
M  V30 4262 N 409.434 1.37368 -0.772513 0
M  V30 4263 C 410.364 2.32856 -0.173304 0
M  V30 4264 C 411.345 1.55818 0.682262 0
M  V30 4265 O 412.53 1.84052 0.619566 0
M  V30 4266 C 409.66 3.40048 0.706007 0
M  V30 4267 C 408.614 4.27973 -0.0483144 0
M  V30 4268 C 407.94 5.26184 0.950491 0
M  V30 4269 C 409.24 5.07665 -1.22776 0
M  V30 4270 H 410.934 2.83217 -0.971002 0
M  V30 4271 H 408.48 1.3617 -0.468377 0
M  V30 4272 H 410.433 4.05827 1.13501 0
M  V30 4273 H 409.157 2.88214 1.53623 0
M  V30 4274 H 407.816 3.63726 -0.458107 0
M  V30 4275 H 407.464 4.7063 1.77529 0
M  V30 4276 H 407.164 5.85872 0.450314 0
M  V30 4277 H 408.688 5.94838 1.37842 0
M  V30 4278 H 410.102 5.66578 -0.875366 0
M  V30 4279 H 408.499 5.76681 -1.66007 0
M  V30 4280 H 409.569 4.40294 -2.03149 0
M  V30 4281 N 410.912 0.523116 1.48665 0
M  V30 4282 C 412.142 -0.00961724 2.06598 0
M  V30 4283 C 412.55 -1.29333 1.38093 0
M  V30 4284 O 411.893 -1.77846 0.46007 0
M  V30 4285 C 411.955 -0.311135 3.58151 0
M  V30 4286 C 411.619 0.878092 4.48485 0
M  V30 4287 C 412.616 1.77464 4.88674 0
M  V30 4288 C 410.301 1.08315 4.90483 0
M  V30 4289 C 412.295 2.86021 5.69623 0
M  V30 4290 C 409.982 2.17187 5.71203 0
M  V30 4291 C 410.98 3.05873 6.10681 0
M  V30 4292 O 410.668 4.12862 6.89783 0
M  V30 4293 H 410.4 0.0272658 0.67545 0
M  V30 4294 H 412.954 0.726156 1.92136 0
M  V30 4295 H 411.184 -1.10079 3.70701 0
M  V30 4296 H 412.873 -0.785125 3.98234 0
M  V30 4297 H 413.639 1.62813 4.56855 0
M  V30 4298 H 409.518 0.402149 4.59243 0
M  V30 4299 H 413.062 3.55272 6.00356 0
M  V30 4300 H 408.959 2.31824 6.02435 0
M  V30 4301 H 409.727 4.10487 7.08126 0
M  V30 4302 N 412.39 -1.55475 0.257931 0
M  V30 4303 C 413.636 -1.99502 -0.364266 0
M  V30 4304 C 413.969 -1.146 -1.56782 0
M  V30 4305 O 413.244 -0.211968 -1.93342 0
M  V30 4306 C 413.527 -3.51917 -0.763333 0
M  V30 4307 C 413.38 -4.4758 0.446371 0
M  V30 4308 C 414.699 -4.09742 -1.60623 0
M  V30 4309 H 411.818 -0.725277 -0.130929 0
M  V30 4310 H 414.46 -1.8653 0.361446 0
M  V30 4311 H 412.61 -3.63101 -1.38166 0
M  V30 4312 H 414.282 -4.48362 1.08487 0
M  V30 4313 H 412.525 -4.19947 1.08753 0
M  V30 4314 H 413.196 -5.51862 0.123645 0
M  V30 4315 H 415.672 -4.01727 -1.08418 0
M  V30 4316 H 414.548 -5.16631 -1.85429 0
M  V30 4317 H 414.809 -3.58889 -2.58169 0
M  V30 4318 N 413.868 0.0150385 -1.57593 0
M  V30 4319 C 415.279 0.559832 -1.78109 0
M  V30 4320 C 415.63 1.74814 -0.890756 0
M  V30 4321 O 414.755 2.16216 -0.0892482 0
M  V30 4322 C 415.35 1.02238 -3.23006 0
M  V30 4323 C 413.909 1.51258 -3.44671 0
M  V30 4324 C 413.056 0.456955 -2.73509 0
M  V30 4325 H 416.007 -0.211169 -1.57289 0
M  V30 4326 H 416.028 1.88912 -3.30292 0
M  V30 4327 H 415.54 0.157302 -3.87781 0
M  V30 4328 H 413.641 2.39905 -2.8509 0
M  V30 4329 H 413.754 1.55042 -4.5332 0
M  V30 4330 H 412.118 0.915196 -2.37689 0
M  V30 4331 H 412.901 -0.398896 -3.40975 0
M  V30 4332 N 415.346 1.54954 0.287554 0
M  V30 4333 C 416.278 1.83224 1.37701 0
M  V30 4334 C 417.291 0.715898 1.46215 0
M  V30 4335 O 418.48 0.993565 1.48292 0
M  V30 4336 C 415.58 1.96723 2.75959 0
M  V30 4337 C 414.753 3.27253 2.90215 0
M  V30 4338 C 413.812 3.30998 4.09056 0
M  V30 4339 O 412.838 4.04457 4.00503 0
M  V30 4340 N 414.04 2.57353 5.20336 0
M  V30 4341 H 416.805 2.77254 1.138 0
M  V30 4342 H 414.366 1.54694 0.477652 0
M  V30 4343 H 416.358 1.96615 3.5373 0
M  V30 4344 H 414.928 1.09626 2.92747 0
M  V30 4345 H 414.148 3.40022 1.99447 0
M  V30 4346 H 415.436 4.13365 2.96659 0
M  V30 4347 H 414.834 1.97327 5.30169 0
M  V30 4348 H 413.391 2.62984 5.96391 0
M  V30 4349 N 416.824 -0.551391 1.4764 0
M  V30 4350 C 417.754 -1.66757 1.63445 0
M  V30 4351 C 418.735 -1.63077 0.483742 0
M  V30 4352 O 419.92 -1.80607 0.71377 0
M  V30 4353 C 417.05 -3.05387 1.65396 0
M  V30 4354 C 416.004 -3.23918 2.79752 0
M  V30 4355 C 415.33 -4.63393 2.66779 0
M  V30 4356 C 416.63 -3.08735 4.21284 0
M  V30 4357 H 418.324 -1.53786 2.56886 0
M  V30 4358 H 415.87 -0.738415 1.23626 0
M  V30 4359 H 417.823 -3.83325 1.75043 0
M  V30 4360 H 416.547 -3.19332 0.685195 0
M  V30 4361 H 415.206 -2.48391 2.69625 0
M  V30 4362 H 414.854 -4.74144 1.67918 0
M  V30 4363 H 414.554 -4.7674 3.43501 0
M  V30 4364 H 416.078 -5.43458 2.78364 0
M  V30 4365 H 417.492 -3.76484 4.32357 0
M  V30 4366 H 415.889 -3.33588 4.98838 0
M  V30 4367 H 416.959 -2.0541 4.39243 0
M  V30 4368 N 418.302 -1.35869 -0.798587 0
M  V30 4369 C 419.232 -1.32118 -1.92528 0
M  V30 4370 C 420.213 -0.194209 -1.68988 0
M  V30 4371 O 421.398 -0.390426 -1.90235 0
M  V30 4372 C 418.528 -1.10047 -3.29404 0
M  V30 4373 C 417.482 -2.19471 -3.67446 0
M  V30 4374 C 416.808 -1.82555 -5.02571 0
M  V30 4375 C 418.108 -3.61495 -3.76987 0
M  V30 4376 H 419.802 -2.26394 -1.95924 0
M  V30 4377 H 417.348 -1.08981 -0.94123 0
M  V30 4378 H 419.301 -1.06061 -4.07835 0
M  V30 4379 H 418.025 -0.122195 -3.26371 0
M  V30 4380 H 416.684 -2.22568 -2.91306 0
M  V30 4381 H 416.332 -0.833249 -4.9605 0
M  V30 4382 H 416.032 -2.5581 -5.28995 0
M  V30 4383 H 417.556 -1.80108 -5.83432 0
M  V30 4384 H 418.97 -3.60676 -4.4563 0
M  V30 4385 H 417.367 -4.33577 -4.14887 0
M  V30 4386 H 418.437 -3.97065 -2.78329 0
M  V30 4387 N 419.78 1.02168 -1.19998 0
M  V30 4388 C 420.71 2.12488 -0.96804 0
M  V30 4389 C 421.691 1.69799 0.101185 0
M  V30 4390 O 422.876 1.94121 -0.0552993 0
M  V30 4391 C 420.006 3.43479 -0.513776 0
M  V30 4392 C 418.96 3.99884 -1.52566 0
M  V30 4393 C 418.286 5.26582 -0.928214 0
M  V30 4394 C 419.586 4.33861 -2.90795 0
M  V30 4395 H 421.28 2.32149 -1.89069 0
M  V30 4396 H 418.826 1.11564 -0.910468 0
M  V30 4397 H 420.779 4.20036 -0.338774 0
M  V30 4398 H 419.503 3.23561 0.444493 0
M  V30 4399 H 418.162 3.25429 -1.68794 0
M  V30 4400 H 417.81 5.02986 0.0378289 0
M  V30 4401 H 417.51 5.65284 -1.60397 0
M  V30 4402 H 419.034 6.05799 -0.764167 0
M  V30 4403 H 420.448 5.01327 -2.78109 0
M  V30 4404 H 418.845 4.83664 -3.55231 0
M  V30 4405 H 419.915 3.42848 -3.42904 0
M  V30 4406 N 421.258 1.00505 1.21394 0
M  V30 4407 C 422.208 0.536503 2.21598 0
M  V30 4408 C 423.192 -0.401914 1.55799 0
M  V30 4409 O 424.384 -0.226757 1.75541 0
M  V30 4410 C 421.513 -0.135446 3.43033 0
M  V30 4411 C 420.599 0.823992 4.16018 0
M  V30 4412 N 420.99 1.97683 4.6557 0
M  V30 4413 C 419.288 0.642387 4.4135 0
M  V30 4414 C 419.989 2.58003 5.21354 0
M  V30 4415 N 418.965 1.86162 5.1073 0
M  V30 4416 H 422.767 1.41557 2.57563 0
M  V30 4417 H 420.281 0.868878 1.37202 0
M  V30 4418 H 422.278 -0.488584 4.14027 0
M  V30 4419 H 420.938 -1.01049 3.08576 0
M  V30 4420 H 421.949 2.3572 4.61147 0
M  V30 4421 H 418.626 -0.185578 4.17087 0
M  V30 4422 H 420.016 3.555 5.70149 0
M  V30 4423 N 422.737 -1.36956 0.779787 0
M  V30 4424 C 423.983 -1.99787 0.348281 0
M  V30 4425 C 424.316 -1.61756 -1.07465 0
M  V30 4426 O 423.591 -0.867639 -1.74075 0
M  V30 4427 C 423.874 -3.56597 0.50104 0
M  V30 4428 C 423.727 -4.04513 1.96697 0
M  V30 4429 C 425.046 -4.40008 -0.0898097 0
M  V30 4430 H 422.165 -0.725796 0.128022 0
M  V30 4431 H 424.807 -1.62514 0.984331 0
M  V30 4432 H 422.957 -3.88479 -0.0404347 0
M  V30 4433 H 424.629 -3.83161 2.56876 0
M  V30 4434 H 422.872 -3.56408 2.47297 0
M  V30 4435 H 423.543 -5.1352 2.02486 0
M  V30 4436 H 426.019 -4.14431 0.372293 0
M  V30 4437 H 424.895 -5.4888 0.0471605 0
M  V30 4438 H 425.156 -4.26035 -1.18096 0
M  V30 4439 N 424.215 -0.530993 -1.48385 0
M  V30 4440 C 425.44 0.000729535 -2.074 0
M  V30 4441 C 425.865 1.27298 -1.3848 0
M  V30 4442 O 425.223 1.75599 -0.451081 0
M  V30 4443 C 425.271 0.206697 -3.60007 0
M  V30 4444 O 424.375 1.27514 -3.92191 0
M  V30 4445 H 423.716 -0.039583 -0.662819 0
M  V30 4446 H 426.246 -0.739194 -1.9078 0
M  V30 4447 H 426.256 0.42904 -4.05738 0
M  V30 4448 H 424.931 -0.722675 -4.09573 0
M  V30 4449 H 423.508 1.03537 -3.58238 0
M  V30 4450 N 425.693 1.55336 -0.266172 0
M  V30 4451 C 427.109 1.59356 0.0882065 0
M  V30 4452 C 427.309 1.2834 1.55342 0
M  V30 4453 O 426.365 1.03996 2.30089 0
M  V30 4454 C 427.678 2.99409 -0.278364 0
M  V30 4455 C 429.226 3.12196 -0.224243 0
M  V30 4456 C 429.701 4.545 -0.565123 0
M  V30 4457 N 431.192 4.60313 -0.51634 0
M  V30 4458 C 431.927 5.68434 -0.753013 0
M  V30 4459 N 431.423 6.84738 -1.05383 0
M  V30 4460 N 433.216 5.57942 -0.682414 0
M  V30 4461 H 425.367 1.73764 -1.22147 0
M  V30 4462 H 427.63 0.809822 -0.492841 0
M  V30 4463 H 427.336 3.2691 -1.29703 0
M  V30 4464 H 427.21 3.75228 0.385186 0
M  V30 4465 H 429.597 2.84464 0.78512 0
M  V30 4466 H 429.678 2.38609 -0.921922 0
M  V30 4467 H 429.322 4.82956 -1.57213 0
M  V30 4468 H 429.252 5.26374 0.154248 0
M  V30 4469 H 431.743 3.7676 -0.29335 0
M  V30 4470 H 432.056 7.63088 -1.22133 0
M  V30 4471 H 430.401 6.86375 -1.09151 0
M  V30 4472 H 433.592 4.65958 -0.44731 0
M  V30 4473 H 433.765 6.4213 -0.870248 0
M  V30 4474 N 427.171 -0.0066808 1.57599 0
M  V30 4475 C 428.582 -0.550379 1.78403 0
M  V30 4476 C 428.933 -1.74339 0.900014 0
M  V30 4477 O 428.058 -2.16166 0.100713 0
M  V30 4478 C 428.653 -1.00523 3.23544 0
M  V30 4479 C 427.212 -1.49428 3.45468 0
M  V30 4480 C 426.359 -0.442444 2.73748 0
M  V30 4481 H 429.31 0.219508 1.57175 0
M  V30 4482 H 429.331 -1.87157 3.31289 0
M  V30 4483 H 428.843 -0.136735 3.87859 0
M  V30 4484 H 426.944 -2.3839 2.86358 0
M  V30 4485 H 427.057 -1.52635 4.54136 0
M  V30 4486 H 425.421 -0.902578 2.38171 0
M  V30 4487 H 426.204 0.416973 3.40758 0
M  V30 4488 N 428.649 -1.55105 -0.279332 0
M  V30 4489 C 429.895 -1.75672 -1.01327 0
M  V30 4490 C 430.228 -0.552739 -1.86168 0
M  V30 4491 O 429.503 0.449827 -1.89227 0
M  V30 4492 C 429.786 -3.05825 -1.90114 0
M  V30 4493 C 429.639 -4.36565 -1.08309 0
M  V30 4494 C 430.958 -3.31975 -2.8893 0
M  V30 4495 H 428.077 -0.639149 -0.366957 0
M  V30 4496 H 430.719 -1.87833 -0.286154 0
M  V30 4497 H 428.869 -2.95588 -2.52111 0
M  V30 4498 H 430.541 -4.58751 -0.484314 0
M  V30 4499 H 428.784 -4.32076 -0.386362 0
M  V30 4500 H 429.455 -5.23946 -1.73737 0
M  V30 4501 H 431.931 -3.41963 -2.37067 0
M  V30 4502 H 430.807 -4.2432 -3.48201 0
M  V30 4503 H 431.068 -2.51309 -3.63725 0
M  V30 4504 N 430.127 0.543554 -1.4793 0
M  V30 4505 C 431.543 0.870806 -1.3375 0
M  V30 4506 C 431.743 1.9864 -0.338261 0
M  V30 4507 O 430.799 2.51305 0.245371 0
M  V30 4508 C 432.112 1.25114 -2.73435 0
M  V30 4509 C 433.66 1.3618 -2.81823 0
M  V30 4510 C 434.135 1.77563 -4.22179 0
M  V30 4511 N 435.626 1.8469 -4.24787 0
M  V30 4512 C 436.361 2.18067 -5.30315 0
M  V30 4513 N 435.857 2.49963 -6.46135 0
M  V30 4514 N 437.65 2.18958 -5.17701 0
M  V30 4515 H 429.801 -0.19275 -2.11524 0
M  V30 4516 H 432.064 -0.0235777 -0.947707 0
M  V30 4517 H 431.77 0.50514 -3.48053 0
M  V30 4518 H 431.644 2.20431 -3.06088 0
M  V30 4519 H 434.031 2.09859 -2.07468 0
M  V30 4520 H 434.112 0.390169 -2.52807 0
M  V30 4521 H 433.756 1.04449 -4.97044 0
M  V30 4522 H 433.686 2.75753 -4.48629 0
M  V30 4523 H 436.177 1.62372 -3.41239 0
M  V30 4524 H 436.49 2.74497 -7.22406 0
M  V30 4525 H 434.835 2.47513 -6.49432 0
M  V30 4526 H 438.026 1.93488 -4.2624 0
M  V30 4527 H 438.199 2.44639 -6.00047 0
M  V30 4528 N 431.605 1.3629 0.791371 0
M  V30 4529 C 432.851 1.31613 1.5508 0
M  V30 4530 C 433.206 -0.104372 1.92117 0
M  V30 4531 O 432.499 -1.05845 1.5971 0
M  V30 4532 C 432.693 2.17068 2.8393 0
M  V30 4533 C 432.522 3.67285 2.59484 0
M  V30 4534 C 431.292 4.36469 2.54604 0
M  V30 4535 C 433.49 4.60595 2.28816 0
M  V30 4536 N 431.472 5.7234 2.22036 0
M  V30 4537 C 432.843 5.847 2.06218 0
M  V30 4538 C 434.898 4.4918 2.14806 0
M  V30 4539 C 433.601 6.98671 1.71028 0
M  V30 4540 C 435.627 5.63017 1.81014 0
M  V30 4541 C 434.989 6.86159 1.59263 0
M  V30 4542 H 431.088 0.536878 0.568582 0
M  V30 4543 H 433.672 1.71323 0.925007 0
M  V30 4544 H 431.843 1.79605 3.44378 0
M  V30 4545 H 433.575 2.03795 3.49642 0
M  V30 4546 H 430.33 3.89249 2.69782 0
M  V30 4547 H 430.754 6.44093 2.08503 0
M  V30 4548 H 435.396 3.54564 2.30313 0
M  V30 4549 H 433.114 7.9324 1.54259 0
M  V30 4550 H 436.7 5.56146 1.70861 0
M  V30 4551 H 435.58 7.72753 1.335 0
M  V30 4552 N 433.083 -1.0153 1.20538 0
M  V30 4553 C 434.36 -1.72327 0.925343 0
M  V30 4554 C 434.74 -2.03383 -0.565547 0
M  V30 4555 O 434.088 -1.69934 -1.52757 0
M  V30 4556 C 434.298 -2.9902 1.79967 0
M  V30 4557 C 435.646 -3.72258 2.04228 0
M  V30 4558 O 436.67 -3.08979 1.77231 0
M  V30 4559 O 435.529 -4.86053 2.4983 0
M  V30 4560 H 432.623 -0.751099 0.346092 0
M  V30 4561 H 435.169 -1.07366 1.31417 0
M  V30 4562 H 433.941 -2.72402 2.80915 0
M  V30 4563 H 433.564 -3.71721 1.41099 0
M  V30 4564 N 434.561 -1.01147 -1.20859 0
M  V30 4565 C 435.786 -0.716698 -1.94623 0
M  V30 4566 C 436.211 0.715415 -1.73964 0
M  V30 4567 O 435.569 1.49157 -1.03062 0
M  V30 4568 C 435.617 -1.0513 -3.44935 0
M  V30 4569 O 434.721 -0.160131 -4.12089 0
M  V30 4570 H 434.062 -0.266404 -0.608214 0
M  V30 4571 H 436.592 -1.35346 -1.53436 0
M  V30 4572 H 436.602 -1.00086 -3.95533 0
M  V30 4573 H 435.277 -2.09475 -3.59295 0
M  V30 4574 H 433.854 -0.267657 -3.71938 0
M  V30 4575 N 436.039 1.36541 -0.78704 0
M  V30 4576 C 437.316 1.9355 -0.282424 0
M  V30 4577 C 437.696 1.71919 1.22503 0
M  V30 4578 O 437.044 1.07677 2.01539 0
M  V30 4579 C 437.254 3.4246 -0.672462 0
M  V30 4580 C 438.602 4.19582 -0.650863 0
M  V30 4581 O 439.626 3.50889 -0.612789 0
M  V30 4582 O 438.485 5.42106 -0.691623 0
M  V30 4583 H 435.579 0.824091 -0.0693 0
M  V30 4584 H 438.125 1.45736 -0.869423 0
M  V30 4585 H 436.897 3.51851 -1.71221 0
M  V30 4586 H 436.52 3.97556 -0.0592211 0
M  V30 4587 N 437.518 0.538854 1.48102 0
M  V30 4588 C 438.468 -0.23907 2.26743 0
M  V30 4589 C 439.452 -0.901923 1.33245 0
M  V30 4590 O 440.644 -0.803263 1.57723 0
M  V30 4591 C 437.773 -1.2799 3.18549 0
M  V30 4592 C 436.859 -0.621388 4.19523 0
M  V30 4593 N 437.25 0.298004 5.04921 0
M  V30 4594 C 435.548 -0.877533 4.37282 0
M  V30 4595 C 436.249 0.678757 5.77726 0
M  V30 4596 N 435.225 0.0377881 5.43587 0
M  V30 4597 H 439.027 0.468096 2.90148 0
M  V30 4598 H 436.541 0.357497 1.58416 0
M  V30 4599 H 438.538 -1.851 3.73555 0
M  V30 4600 H 437.198 -1.98835 2.567 0
M  V30 4601 H 438.209 0.671126 5.13533 0
M  V30 4602 H 434.886 -1.57588 3.86616 0
M  V30 4603 H 436.276 1.43316 6.56437 0
M  V30 4604 N 438.996 -1.55193 0.274407 0
M  V30 4605 C 440.242 -1.99877 -0.343086 0
M  V30 4606 C 440.575 -1.16256 -1.55558 0
M  V30 4607 O 439.85 -0.232462 -1.93106 0
M  V30 4608 C 440.133 -3.52706 -0.725965 0
M  V30 4609 C 439.986 -4.47081 0.493818 0
M  V30 4610 C 441.305 -4.11422 -1.56268 0
M  V30 4611 H 438.424 -0.726625 -0.123229 0
M  V30 4612 H 441.066 -1.86136 0.38121 0
M  V30 4613 H 439.216 -3.64546 -1.34307 0
M  V30 4614 H 440.888 -4.47186 1.13237 0
M  V30 4615 H 439.131 -4.1877 1.13201 0
M  V30 4616 H 439.802 -5.51699 0.18217 0
M  V30 4617 H 442.278 -4.02855 -1.04151 0
M  V30 4618 H 441.154 -5.18568 -1.79939 0
M  V30 4619 H 441.415 -3.61607 -2.54348 0
M  V30 4620 N 440.474 -0.00167713 -1.576 0
M  V30 4621 C 441.72 0.683832 -1.90923 0
M  V30 4622 C 442.053 1.7333 -0.875799 0
M  V30 4623 O 441.328 1.94215 0.10525 0
M  V30 4624 C 441.611 1.32543 -3.3482 0
M  V30 4625 C 441.464 0.287387 -4.48881 0
M  V30 4626 C 442.783 2.25114 -3.78169 0
M  V30 4627 H 439.902 0.247125 -0.694333 0
M  V30 4628 H 442.544 -0.0533149 -1.89925 0
M  V30 4629 H 440.694 1.95372 -3.35801 0
M  V30 4630 H 442.366 -0.341346 -4.60035 0
M  V30 4631 H 440.609 -0.39017 -4.32042 0
M  V30 4632 H 441.28 0.775393 -5.46527 0
M  V30 4633 H 443.756 1.723 -3.7875 0
M  V30 4634 H 442.632 2.66971 -4.79602 0
M  V30 4635 H 442.893 3.13092 -3.12131 0
M  V30 4636 N 441.952 1.55251 0.271103 0
M  V30 4637 C 442.882 1.9127 1.33933 0
M  V30 4638 C 443.863 0.77478 1.5143 0
M  V30 4639 O 445.048 1.03307 1.64442 0
M  V30 4640 C 442.178 2.18627 2.69851 0
M  V30 4641 C 441.132 3.34442 2.67081 0
M  V30 4642 C 440.458 3.47284 4.06569 0
M  V30 4643 C 441.758 4.70784 2.26185 0
M  V30 4644 H 443.452 2.80744 1.04035 0
M  V30 4645 H 440.998 1.35077 0.499017 0
M  V30 4646 H 442.951 2.42413 3.44694 0
M  V30 4647 H 441.675 1.25955 3.01335 0
M  V30 4648 H 440.334 3.10627 1.94695 0
M  V30 4649 H 439.982 2.52074 4.35279 0
M  V30 4650 H 439.682 4.25152 4.0561 0
M  V30 4651 H 441.206 3.73363 4.83148 0
M  V30 4652 H 442.62 4.94102 2.90751 0
M  V30 4653 H 441.017 5.51582 2.36384 0
M  V30 4654 H 442.087 4.69478 1.21319 0
M  V30 4655 N 443.43 -0.535701 1.48216 0
M  V30 4656 C 444.36 -1.65014 1.65204 0
M  V30 4657 C 445.341 -1.62554 0.501011 0
M  V30 4658 O 446.526 -1.7984 0.732886 0
M  V30 4659 C 443.656 -3.03616 1.68626 0
M  V30 4660 C 442.61 -3.20932 2.83172 0
M  V30 4661 C 441.936 -4.60537 2.71679 0
M  V30 4662 C 443.236 -3.04249 4.24535 0
M  V30 4663 H 444.93 -1.51053 2.58502 0
M  V30 4664 H 442.476 -0.725262 1.24402 0
M  V30 4665 H 444.429 -3.81446 1.79099 0
M  V30 4666 H 443.153 -3.18587 0.719026 0
M  V30 4667 H 441.812 -2.45517 2.72244 0
M  V30 4668 H 441.46 -4.72336 1.72937 0
M  V30 4669 H 441.16 -4.73069 3.48538 0
M  V30 4670 H 442.684 -5.40475 2.84112 0
M  V30 4671 H 444.098 -3.71877 4.36326 0
M  V30 4672 H 442.495 -3.28278 5.02348 0
M  V30 4673 H 443.565 -2.00739 4.41397 0
M  V30 4674 N 444.908 -1.36708 -0.784132 0
M  V30 4675 C 446.185 -1.21776 -1.53069 0
M  V30 4676 C 446.565 0.193876 -2.10208 0
M  V30 4677 O 445.913 1.20012 -1.94446 0
M  V30 4678 C 446.123 -2.30395 -2.62143 0
M  V30 4679 C 447.471 -2.67325 -3.29882 0
M  V30 4680 O 448.495 -2.29478 -2.7243 0
M  V30 4681 O 447.354 -3.32485 -4.33724 0
M  V30 4682 H 444.448 -0.474459 -0.677361 0
M  V30 4683 H 446.994 -1.48454 -0.82216 0
M  V30 4684 H 445.766 -3.2498 -2.17953 0
M  V30 4685 H 445.389 -2.05112 -3.40609 0
M  V30 4686 N 446.386 1.0089 -1.21074 0
M  V30 4687 C 447.663 1.71834 -0.934469 0
M  V30 4688 C 448.043 2.0368 0.554753 0
M  V30 4689 O 447.391 1.70742 1.51854 0
M  V30 4690 C 447.601 2.98061 -1.8155 0
M  V30 4691 C 448.949 3.7117 -2.06199 0
M  V30 4692 O 449.973 3.08034 -1.78867 0
M  V30 4693 O 448.832 4.84721 -2.52404 0
M  V30 4694 H 445.926 0.749253 -0.35007 0
M  V30 4695 H 448.472 1.06668 -1.31985 0
M  V30 4696 H 447.244 2.70908 -2.82355 0
M  V30 4697 H 446.867 3.70968 -1.43068 0
M  V30 4698 N 447.864 1.01787 1.20321 0
M  V30 4699 C 448.774 0.598898 2.26827 0
M  V30 4700 C 449.79 -0.36418 1.70146 0
M  V30 4701 O 450.966 -0.224812 2.00141 0
M  V30 4702 C 448.031 -0.0549769 3.46656 0
M  V30 4703 C 447.092 0.954205 4.18561 0
M  V30 4704 C 446.325 0.331439 5.3267 0
M  V30 4705 O 446.548 -0.86851 5.63749 0
M  V30 4706 O 445.482 1.0488 5.92692 0
M  V30 4707 H 449.308 1.48562 2.64883 0
M  V30 4708 H 446.893 0.787434 1.26964 0
M  V30 4709 H 448.775 -0.420102 4.19301 0
M  V30 4710 H 447.45 -0.915876 3.10473 0
M  V30 4711 H 446.357 1.37072 3.48083 0
M  V30 4712 H 447.69 1.78511 4.58688 0
M  V30 4713 N 449.342 -1.36122 0.79427 0
M  V30 4714 C 450.57 -2.03362 0.380989 0
M  V30 4715 C 450.985 -1.59881 -1.00416 0
M  V30 4716 O 450.342 -0.790515 -1.6449 0
M  V30 4717 C 450.393 -3.58804 0.440649 0
M  V30 4718 O 450.114 -4.007 1.77118 0
M  V30 4719 C 451.615 -4.43296 0.0186117 0
M  V30 4720 H 448.835 -0.652526 0.156367 0
M  V30 4721 H 451.379 -1.73998 1.07447 0
M  V30 4722 H 449.534 -3.8686 -0.204458 0
M  V30 4723 H 449.948 -4.95309 1.72538 0
M  V30 4724 H 451.422 -5.51887 0.111488 0
M  V30 4725 H 451.899 -4.2684 -1.03461 0
M  V30 4726 H 452.505 -4.20512 0.636395 0
M  V30 4727 N 450.82 -0.546701 -1.47814 0
M  V30 4728 C 451.752 0.244196 -2.27895 0
M  V30 4729 C 452.765 0.88911 -1.36377 0
M  V30 4730 O 453.954 0.764733 -1.61289 0
M  V30 4731 C 451.054 1.36252 -3.10304 0
M  V30 4732 C 450.227 0.816382 -4.29714 0
M  V30 4733 C 449.286 1.81789 -4.93801 0
M  V30 4734 O 448.312 1.36818 -5.52512 0
M  V30 4735 N 449.514 3.15085 -4.87547 0
M  V30 4736 H 452.279 -0.442694 -2.96412 0
M  V30 4737 H 449.84 -0.382095 -1.57327 0
M  V30 4738 H 451.832 2.03102 -3.50045 0
M  V30 4739 H 450.402 1.95281 -2.44099 0
M  V30 4740 H 449.622 -0.0285981 -3.9419 0
M  V30 4741 H 450.91 0.430668 -5.06974 0
M  V30 4742 H 450.308 3.54275 -4.41028 0
M  V30 4743 H 448.865 3.77522 -5.31339 0
M  V30 4744 N 452.299 1.55045 -0.282633 0
M  V30 4745 C 453.262 2.21515 0.588539 0
M  V30 4746 C 454.262 1.19535 1.07554 0
M  V30 4747 O 455.452 1.44391 0.974514 0
M  V30 4748 C 452.584 2.88704 1.8128 0
M  V30 4749 H 453.777 2.99899 0.00806397 0
M  V30 4750 H 451.33 1.56265 -0.0333067 0
M  V30 4751 H 452.065 2.14352 2.43359 0
M  V30 4752 H 451.85 3.63443 1.47144 0
M  V30 4753 H 453.34 3.39465 2.43214 0
M  V30 4754 N 453.777 0.010035 1.57597 0
M  V30 4755 C 455.026 -0.671945 1.90178 0
M  V30 4756 C 455.339 -1.74376 0.886131 0
M  V30 4757 O 456.545 -2.48107 1.10252 0
M  V30 4758 C 455.001 -1.24636 3.3763 0
M  V30 4759 C 454.609 -0.208838 4.47513 0
M  V30 4760 C 456.353 -1.90595 3.79307 0
M  V30 4761 C 454.26 -0.793814 5.86048 0
M  V30 4762 H 453.19 -0.25474 0.709665 0
M  V30 4763 H 455.841 0.0722206 1.83358 0
M  V30 4764 H 454.223 -2.04152 3.3932 0
M  V30 4765 H 455.397 0.562463 4.57354 0
M  V30 4766 H 453.712 0.350889 4.14919 0
M  V30 4767 H 456.309 -2.35284 4.80151 0
M  V30 4768 H 456.652 -2.74074 3.13352 0
M  V30 4769 H 457.185 -1.17798 3.79958 0
M  V30 4770 H 453.924 0.00240855 6.555 0
M  V30 4771 H 453.444 -1.53404 5.79851 0
M  V30 4772 H 455.123 -1.2894 6.34022 0
M  V30 4773 N 455.255 -1.55392 -0.262866 0
M  V30 4774 C 456.218 -1.88181 -1.30846 0
M  V30 4775 C 457.218 -0.757079 -1.41862 0
M  V30 4776 O 458.408 -1.02519 -1.40838 0
M  V30 4777 C 455.54 -2.09609 -2.68844 0
M  V30 4778 H 456.733 -2.81659 -1.02997 0
M  V30 4779 H 454.286 -1.48039 -0.501414 0
M  V30 4780 H 455.021 -1.18547 -3.01856 0
M  V30 4781 H 454.806 -2.91508 -2.62231 0
M  V30 4782 H 456.296 -2.36215 -3.44372 0
M  V30 4783 N 456.733 0.527833 -1.48498 0
M  V30 4784 C 457.958 1.313 -1.60546 0
M  V30 4785 C 458.383 1.86199 -0.26672 0
M  V30 4786 O 457.741 1.64513 0.761918 0
M  V30 4787 C 457.789 2.43818 -2.65678 0
M  V30 4788 O 456.893 3.46916 -2.22987 0
M  V30 4789 H 456.234 0.388784 -0.538277 0
M  V30 4790 H 458.764 0.634896 -1.945 0
M  V30 4791 H 458.774 2.89973 -2.87018 0
M  V30 4792 H 457.449 2.03222 -3.62869 0
M  V30 4793 H 456.026 3.06864 -2.11869 0
M  V30 4794 N 458.211 1.37122 0.776871 0
M  V30 4795 C 459.121 1.34651 1.9211 0
M  V30 4796 C 460.137 0.246824 1.7224 0
M  V30 4797 O 461.313 0.48134 1.95563 0
M  V30 4798 C 458.378 1.14748 3.2716 0
M  V30 4799 C 457.439 2.34308 3.5972 0
M  V30 4800 C 456.672 2.15345 4.88326 0
M  V30 4801 O 456.895 1.13507 5.58992 0
M  V30 4802 O 455.829 3.03414 5.1983 0
M  V30 4803 H 459.655 2.31013 1.97146 0
M  V30 4804 H 457.24 1.17799 0.918901 0
M  V30 4805 H 459.122 1.05616 4.0795 0
M  V30 4806 H 457.797 0.214562 3.22988 0
M  V30 4807 H 456.704 2.49011 2.79185 0
M  V30 4808 H 458.037 3.26149 3.68629 0
M  V30 4809 N 459.689 -1.00246 1.21608 0
M  V30 4810 C 460.938 -1.73476 1.02902 0
M  V30 4811 C 461.251 -1.90643 -0.437561 0
M  V30 4812 O 462.457 -2.61105 -0.74407 0
M  V30 4813 C 460.913 -3.12079 1.79261 0
M  V30 4814 C 460.521 -3.02877 3.30106 0
M  V30 4815 C 462.265 -3.89421 1.68972 0
M  V30 4816 C 460.172 -4.36575 3.98944 0
M  V30 4817 H 459.102 -0.650408 0.381425 0
M  V30 4818 H 461.753 -1.11985 1.45367 0
M  V30 4819 H 460.135 -3.74196 1.2959 0
M  V30 4820 H 461.309 -2.49983 3.87098 0
M  V30 4821 H 459.624 -2.39022 3.40965 0
M  V30 4822 H 462.221 -4.88362 2.17731 0
M  V30 4823 H 462.564 -4.1122 0.648397 0
M  V30 4824 H 463.097 -3.33963 2.16133 0
M  V30 4825 H 459.836 -4.19978 5.03288 0
M  V30 4826 H 459.356 -4.8942 3.4674 0
M  V30 4827 H 461.035 -5.05364 4.04 0
M  V30 4828 N 461.167 -1.02423 -1.1978 0
M  V30 4829 C 462.413 -0.719051 -1.89625 0
M  V30 4830 C 462.746 0.750083 -1.7913 0
M  V30 4831 O 462.021 1.54574 -1.18056 0
M  V30 4832 C 462.304 -1.16499 -3.40735 0
M  V30 4833 C 462.157 -2.695 -3.60125 0
M  V30 4834 C 463.476 -0.742166 -4.33797 0
M  V30 4835 H 460.595 -0.26269 -0.688595 0
M  V30 4836 H 463.237 -1.27333 -1.41018 0
M  V30 4837 H 461.387 -0.69341 -3.82262 0
M  V30 4838 H 463.059 -3.24569 -3.278 0
M  V30 4839 H 461.302 -3.10113 -3.03336 0
M  V30 4840 H 461.973 -2.95757 -4.66081 0
M  V30 4841 H 464.449 -1.1477 -3.99959 0
M  V30 4842 H 463.325 -1.08213 -5.38127 0
M  V30 4843 H 463.586 0.355747 -4.40666 0
M  V30 4844 N 462.645 1.35699 -0.801477 0
M  V30 4845 C 464.061 1.52065 -0.484596 0
M  V30 4846 C 464.261 1.75215 0.995084 0
M  V30 4847 O 463.317 1.79061 1.78026 0
M  V30 4848 C 464.63 2.69908 -1.32552 0
M  V30 4849 C 466.178 2.83784 -1.32044 0
M  V30 4850 C 466.653 4.04646 -2.14536 0
M  V30 4851 N 468.144 4.11814 -2.12046 0
M  V30 4852 C 468.879 5.04437 -2.72636 0
M  V30 4853 N 468.375 6.02426 -3.42133 0
M  V30 4854 N 470.168 4.97144 -2.62305 0
M  V30 4855 H 462.319 1.18928 -1.75983 0
M  V30 4856 H 464.582 0.581455 -0.748741 0
M  V30 4857 H 464.288 2.59363 -2.37537 0
M  V30 4858 H 464.162 3.64376 -0.975181 0
M  V30 4859 H 466.549 2.93783 -0.27846 0
M  V30 4860 H 466.63 1.90188 -1.71062 0
M  V30 4861 H 466.274 3.95407 -3.18772 0
M  V30 4862 H 466.204 4.97413 -1.72882 0
M  V30 4863 H 468.695 3.41664 -1.61476 0
M  V30 4864 H 469.008 6.69688 -3.85666 0
M  V30 4865 H 467.353 6.02615 -3.46237 0
M  V30 4866 H 470.544 4.19546 -2.07603 0
M  V30 4867 H 470.717 5.69138 -3.09815 0
M  V30 4868 N 464.123 0.554532 1.47522 0
M  V30 4869 C 465.073 -0.215008 2.26984 0
M  V30 4870 C 466.057 -0.88774 1.34194 0
M  V30 4871 O 467.249 -0.786489 1.58567 0
M  V30 4872 C 464.378 -1.24604 3.19889 0
M  V30 4873 C 463.464 -0.576857 4.20159 0
M  V30 4874 N 463.855 0.351541 5.04577 0
M  V30 4875 C 462.153 -0.831104 4.38188 0
M  V30 4876 C 462.854 0.739995 5.76974 0
M  V30 4877 N 461.83 0.0954407 5.43516 0
M  V30 4878 H 465.632 0.498843 2.89636 0
M  V30 4879 H 463.146 0.374279 1.58028 0
M  V30 4880 H 465.143 -1.81128 3.75498 0
M  V30 4881 H 463.803 -1.96101 2.58794 0
M  V30 4882 H 464.814 0.725556 5.12792 0
M  V30 4883 H 461.491 -1.53479 3.88266 0
M  V30 4884 H 462.881 1.50271 6.5488 0
M  V30 4885 N 465.601 -1.54893 0.290851 0
M  V30 4886 C 466.878 -1.91991 -0.373989 0
M  V30 4887 C 467.258 -1.21694 -1.72493 0
M  V30 4888 O 466.606 -0.34917 -2.25816 0
M  V30 4889 C 466.816 -3.45419 -0.498703 0
M  V30 4890 C 468.164 -4.1748 -0.774298 0
M  V30 4891 O 469.188 -3.51398 -0.582908 0
M  V30 4892 O 468.047 -5.3445 -1.14129 0
M  V30 4893 H 465.141 -0.800593 -0.207315 0
M  V30 4894 H 467.687 -1.66297 0.338164 0
M  V30 4895 H 466.459 -3.88688 0.451392 0
M  V30 4896 H 466.082 -3.77117 -1.25972 0
M  V30 4897 N 467.08 -0.0183926 -1.57589 0
M  V30 4898 C 468.01 0.965596 -2.12599 0
M  V30 4899 C 468.991 1.34641 -1.0395 0
M  V30 4900 O 470.176 1.42693 -1.31729 0
M  V30 4901 C 467.306 2.25149 -2.64434 0
M  V30 4902 C 466.26 2.01175 -3.77773 0
M  V30 4903 C 465.586 3.35937 -4.15994 0
M  V30 4904 C 466.886 1.35953 -5.04296 0
M  V30 4905 H 468.58 0.507504 -2.95067 0
M  V30 4906 H 466.126 0.242671 -1.41941 0
M  V30 4907 H 468.079 2.94357 -3.01549 0
M  V30 4908 H 466.803 2.73105 -1.79112 0
M  V30 4909 H 465.462 1.34388 -3.4108 0
M  V30 4910 H 465.11 3.81631 -3.27669 0
M  V30 4911 H 464.81 3.20705 -4.92364 0
M  V30 4912 H 466.334 4.0643 -4.55683 0
M  V30 4913 H 467.748 1.95144 -5.39065 0
M  V30 4914 H 466.145 1.31152 -5.85593 0
M  V30 4915 H 467.215 0.331071 -4.83768 0
M  V30 4916 N 468.558 1.5553 0.254621 0
M  V30 4917 C 469.805 1.77 0.983736 0
M  V30 4918 C 470.133 0.58133 1.85609 0
M  V30 4919 O 469.388 -0.435621 1.9079 0
M  V30 4920 C 469.687 3.03891 1.88109 0
M  V30 4921 C 469.353 4.35597 1.16472 0
M  V30 4922 C 468.015 4.7139 0.966714 0
M  V30 4923 C 470.367 5.1705 0.656387 0
M  V30 4924 C 467.695 5.86176 0.247942 0
M  V30 4925 C 470.047 6.32581 -0.0488807 0
M  V30 4926 C 468.711 6.67 -0.258438 0
M  V30 4927 H 467.981 0.647688 0.359974 0
M  V30 4928 H 470.628 1.89802 0.254463 0
M  V30 4929 H 468.933 2.86068 2.67717 0
M  V30 4930 H 470.63 3.17701 2.44677 0
M  V30 4931 H 467.22 4.07475 1.32899 0
M  V30 4932 H 471.404 4.8986 0.796933 0
M  V30 4933 H 466.66 6.11354 0.075035 0
M  V30 4934 H 470.834 6.94942 -0.450444 0
M  V30 4935 H 468.461 7.55793 -0.817358 0
M  V30 4936 N 470.036 -0.519951 1.48776 0
M  V30 4937 C 471.313 -1.28123 1.47797 0
M  V30 4938 C 471.693 -2.10196 0.195157 0
M  V30 4939 O 471.041 -2.13167 -0.822925 0
M  V30 4940 C 471.251 -2.15413 2.74587 0
M  V30 4941 C 472.599 -2.75225 3.23321 0
M  V30 4942 O 473.623 -2.25694 2.75574 0
M  V30 4943 O 472.482 -3.65346 4.06429 0
M  V30 4944 H 469.576 -0.578793 0.590701 0
M  V30 4945 H 472.122 -0.535779 1.6102 0
M  V30 4946 H 470.894 -1.54617 3.59457 0
M  V30 4947 H 470.517 -2.97186 2.64132 0
M  V30 4948 N 471.514 -1.37532 -0.769588 0
M  V30 4949 C 472.93 -1.18379 -1.07045 0
M  V30 4950 C 473.13 -0.0214312 -2.01489 0
M  V30 4951 O 472.186 0.637809 -2.44312 0
M  V30 4952 C 473.499 -2.50338 -1.66588 0
M  V30 4953 C 475.047 -2.56879 -1.78835 0
M  V30 4954 C 475.522 -3.88974 -2.41792 0
M  V30 4955 N 477.013 -3.90428 -2.4924 0
M  V30 4956 C 477.748 -4.89388 -2.98809 0
M  V30 4957 N 477.244 -5.98745 -3.48535 0
M  V30 4958 N 479.037 -4.76791 -2.97703 0
M  V30 4959 H 471.188 -2.11921 -0.142541 0
M  V30 4960 H 473.451 -0.939608 -0.125863 0
M  V30 4961 H 473.157 -3.35767 -1.0466 0
M  V30 4962 H 473.031 -2.67583 -2.65856 0
M  V30 4963 H 475.418 -1.71856 -2.39895 0
M  V30 4964 H 475.499 -2.43516 -0.783166 0
M  V30 4965 H 475.143 -4.74412 -1.81371 0
M  V30 4966 H 475.073 -3.99641 -3.4292 0
M  V30 4967 H 477.564 -3.11433 -2.14052 0
M  V30 4968 H 477.877 -6.70205 -3.84767 0
M  V30 4969 H 476.222 -6.02387 -3.46634 0
M  V30 4970 H 479.413 -3.90478 -2.58157 0
M  V30 4971 H 479.586 -5.54069 -3.36024 0
M  V30 4972 N 472.992 0.995999 -1.22138 0
M  V30 4973 C 474.238 1.73767 -1.04561 0
M  V30 4974 C 474.571 1.89633 0.418698 0
M  V30 4975 O 473.846 1.43723 1.3105 0
M  V30 4976 C 474.129 3.14505 -1.75382 0
M  V30 4977 C 473.982 3.06306 -3.29388 0
M  V30 4978 C 475.301 4.13615 -1.50369 0
M  V30 4979 H 472.42 0.630728 -0.38125 0
M  V30 4980 H 475.062 1.16057 -1.50435 0
M  V30 4981 H 473.212 3.63775 -1.36383 0
M  V30 4982 H 474.884 2.64681 -3.77812 0
M  V30 4983 H 473.127 2.43186 -3.59226 0
M  V30 4984 H 473.798 4.05884 -3.74116 0
M  V30 4985 H 476.274 3.73089 -1.84239 0
M  V30 4986 H 475.15 5.10212 -2.02421 0
M  V30 4987 H 475.411 4.39949 -0.435611 0
M  V30 4988 N 474.47 1.03057 1.19235 0
M  V30 4989 C 475.42 0.583386 2.2041 0
M  V30 4990 C 476.404 -0.368776 1.56617 0
M  V30 4991 O 477.596 -0.189471 1.75983 0
M  V30 4992 C 474.725 -0.0626534 3.43243 0
M  V30 4993 C 473.811 0.91205 4.14177 0
M  V30 4994 N 474.202 2.07514 4.61272 0
M  V30 4995 C 472.5 0.735859 4.39888 0
M  V30 4996 C 473.201 2.69003 5.15764 0
M  V30 4997 N 472.177 1.96954 5.06666 0
M  V30 4998 H 475.979 1.46988 2.54503 0
M  V30 4999 H 473.493 0.897785 1.35328 0
M  V30 5000 H 475.49 -0.400653 4.1497 0
M  V30 5001 H 474.15 -0.944813 3.1065 0
M  V30 5002 H 475.161 2.45448 4.56043 0
M  V30 5003 H 471.838 -0.0970656 4.17387 0
M  V30 5004 H 473.228 3.67514 5.6248 0
M  V30 5005 N 475.948 -1.35272 0.808662 0
M  V30 5006 C 477.197 -1.97963 0.386483 0
M  V30 5007 C 477.51 -1.64866 -1.05255 0
M  V30 5008 O 478.716 -2.20937 -1.57794 0
M  V30 5009 C 477.172 -3.54162 0.640096 0
M  V30 5010 C 476.78 -3.96166 2.0918 0
M  V30 5011 C 478.524 -4.23553 0.283376 0
M  V30 5012 C 476.431 -5.4522 2.29106 0
M  V30 5013 H 475.361 -0.740742 0.140774 0
M  V30 5014 H 478.012 -1.5431 0.993012 0
M  V30 5015 H 476.394 -3.95983 -0.0364117 0
M  V30 5016 H 477.568 -3.65491 2.80629 0
M  V30 5017 H 475.883 -3.3967 2.40859 0
M  V30 5018 H 478.48 -5.33124 0.410273 0
M  V30 5019 H 478.823 -4.09105 -0.770659 0
M  V30 5020 H 479.356 -3.8716 0.913884 0
M  V30 5021 H 476.095 -5.64638 3.32962 0
M  V30 5022 H 475.615 -5.77457 1.62184 0
M  V30 5023 H 477.294 -6.1171 2.1076 0
M  V30 5024 N 477.426 -0.562348 -1.47226 0
M  V30 5025 C 478.674 -0.0401371 -2.0206 0
M  V30 5026 C 478.995 1.3165 -1.43852 0
M  V30 5027 O 478.265 1.85976 -0.615599 0
M  V30 5028 H 476.845 -0.0118479 -0.746906 0
M  V30 5029 H 479.507 -0.73352 -1.8057 0
M  V30 5030 H 478.603 0.0441254 -3.12069 0
M  V30 5031 N 478.904 1.54736 -0.299062 0
M  V30 5032 C 479.834 2.26409 0.571085 0
M  V30 5033 C 480.815 1.2629 1.13951 0
M  V30 5034 O 482 1.55059 1.16921 0
M  V30 5035 C 479.13 3.00338 1.74396 0
M  V30 5036 C 478.084 4.07588 1.30599 0
M  V30 5037 C 477.41 4.69222 2.56387 0
M  V30 5038 C 478.71 5.20455 0.438645 0
M  V30 5039 H 480.404 2.99388 -0.0266991 0
M  V30 5040 H 477.95 1.43993 -0.0142812 0
M  V30 5041 H 479.903 3.49198 2.35878 0
M  V30 5042 H 478.627 2.24934 2.36796 0
M  V30 5043 H 477.286 3.59575 0.71424 0
M  V30 5044 H 476.934 3.9046 3.17097 0
M  V30 5045 H 476.634 5.41653 2.27784 0
M  V30 5046 H 478.158 5.20844 3.18675 0
M  V30 5047 H 479.572 5.65221 0.959085 0
M  V30 5048 H 477.969 5.99594 0.246466 0
M  V30 5049 H 479.039 4.8192 -0.536738 0
M  V30 5050 N 480.382 0.0267497 1.57577 0
M  V30 5051 C 481.659 -0.690926 1.82991 0
M  V30 5052 C 482.039 -1.90471 0.910164 0
M  V30 5053 O 481.387 -2.28474 -0.0347985 0
M  V30 5054 C 481.597 -1.07139 3.32148 0
M  V30 5055 C 482.945 -1.46402 3.98562 0
M  V30 5056 O 483.969 -1.16443 3.36629 0
M  V30 5057 O 482.828 -2.02214 5.07712 0
M  V30 5058 H 479.922 -0.338747 0.75444 0
M  V30 5059 H 482.468 0.0542506 1.69613 0
M  V30 5060 H 481.24 -0.207394 3.9075 0
M  V30 5061 H 480.863 -1.87481 3.50623 0
M  V30 5062 N 481.861 -1.55662 -0.24637 0
M  V30 5063 C 483.108 -1.77519 -0.974335 0
M  V30 5064 C 483.436 -0.591165 -1.85298 0
M  V30 5065 O 482.691 0.425497 -1.91018 0
M  V30 5066 C 482.99 -3.04885 -1.86494 0
M  V30 5067 C 482.656 -4.36209 -1.14161 0
M  V30 5068 C 481.318 -4.71896 -0.941701 0
M  V30 5069 C 483.67 -5.17391 -0.628957 0
M  V30 5070 C 480.998 -5.86299 -0.216852 0
M  V30 5071 C 483.35 -6.32546 0.0824273 0
M  V30 5072 C 482.014 -6.66853 0.293807 0
M  V30 5073 H 481.284 -0.649588 -0.356535 0
M  V30 5074 H 483.931 -1.89934 -0.244394 0
M  V30 5075 H 482.236 -2.87484 -2.66196 0
M  V30 5076 H 483.933 -3.18994 -2.42989 0
M  V30 5077 H 480.523 -4.08174 -1.30736 0
M  V30 5078 H 484.707 -4.90276 -0.770943 0
M  V30 5079 H 479.963 -6.11385 -0.0426124 0
M  V30 5080 H 484.137 -6.94693 0.487292 0
M  V30 5081 H 481.764 -7.55349 0.857428 0
M  V30 5082 N 483.339 0.512053 -1.4905 0
M  V30 5083 C 484.586 1.26686 -1.57978 0
M  V30 5084 C 484.914 1.92733 -0.261553 0
M  V30 5085 O 484.169 1.80772 0.749667 0
M  V30 5086 C 484.468 2.36446 -2.68008 0
M  V30 5087 C 484.134 1.87932 -4.09869 0
M  V30 5088 C 482.796 1.74419 -4.48477 0
M  V30 5089 C 485.148 1.5149 -4.98698 0
M  V30 5090 C 482.476 1.22827 -5.73699 0
M  V30 5091 C 484.828 1.01355 -6.24428 0
M  V30 5092 C 483.492 0.864735 -6.61875 0
M  V30 5093 H 482.762 0.463577 -0.578081 0
M  V30 5094 H 485.409 0.569421 -1.82838 0
M  V30 5095 H 483.714 3.11933 -2.37076 0
M  V30 5096 H 485.411 2.9453 -2.72127 0
M  V30 5097 H 482.001 1.99405 -3.79389 0
M  V30 5098 H 486.185 1.60782 -4.69535 0
M  V30 5099 H 481.441 1.10008 -6.01422 0
M  V30 5100 H 485.615 0.722351 -6.92644 0
M  V30 5101 H 483.242 0.462777 -7.5879 0
M  V30 5102 N 484.817 1.37938 0.762283 0
M  V30 5103 C 486.094 1.24196 1.51112 0
M  V30 5104 C 486.474 -0.160409 2.1049 0
M  V30 5105 O 485.822 -1.16904 1.96331 0
M  V30 5106 C 486.032 2.34537 2.58445 0
M  V30 5107 C 487.38 2.7254 3.25588 0
M  V30 5108 O 488.404 2.33783 2.68745 0
M  V30 5109 O 487.263 3.39343 4.28379 0
M  V30 5110 H 484.357 0.485175 0.669727 0
M  V30 5111 H 486.903 1.49743 0.798438 0
M  V30 5112 H 485.675 3.28406 2.12756 0
M  V30 5113 H 485.298 2.10505 3.37303 0
M  V30 5114 N 486.295 -0.989507 1.22664 0
M  V30 5115 C 487.258 -2.06183 1.00106 0
M  V30 5116 C 488.258 -1.60765 -0.0337726 0
M  V30 5117 O 489.448 -1.72989 0.205072 0
M  V30 5118 C 486.58 -3.37021 0.51279 0
M  V30 5119 H 487.773 -2.27629 1.95256 0
M  V30 5120 H 485.326 -1.16158 1.0458 0
M  V30 5121 H 486.061 -3.21261 -0.442917 0
M  V30 5122 H 485.846 -3.71323 1.25942 0
M  V30 5123 H 487.336 -4.1591 0.375315 0
M  V30 5124 N 487.773 -1.03688 -1.18687 0
M  V30 5125 C 488.998 -0.757819 -1.93059 0
M  V30 5126 C 489.423 0.678353 -1.75442 0
M  V30 5127 O 488.781 1.46938 -1.06203 0
M  V30 5128 C 488.829 -1.12423 -3.42627 0
M  V30 5129 O 487.933 -0.247505 -4.11657 0
M  V30 5130 H 487.274 -0.279245 -0.602427 0
M  V30 5131 H 489.804 -1.3857 -1.5053 0
M  V30 5132 H 489.814 -1.08454 -3.93322 0
M  V30 5133 H 488.489 -2.17049 -3.54771 0
M  V30 5134 H 487.066 -0.34649 -3.71287 0
M  V30 5135 N 489.251 1.34841 -0.815825 0
M  V30 5136 C 490.5 1.97755 -0.396976 0
M  V30 5137 C 490.813 1.65422 1.04379 0
M  V30 5138 O 492.019 2.21771 1.5662 0
M  V30 5139 C 490.475 3.53818 -0.658869 0
M  V30 5140 C 490.083 3.95051 -2.11278 0
M  V30 5141 C 491.827 4.23397 -0.305834 0
M  V30 5142 C 489.734 5.43997 -2.31994 0
M  V30 5143 H 488.664 0.739985 -0.1447 0
M  V30 5144 H 491.315 1.53781 -1.00118 0
M  V30 5145 H 489.697 3.95997 0.0154112 0
M  V30 5146 H 490.871 3.63998 -2.82564 0
M  V30 5147 H 489.186 3.38388 -2.42657 0
M  V30 5148 H 491.783 5.32899 -0.43854 0
M  V30 5149 H 492.126 4.09508 0.748952 0
M  V30 5150 H 492.659 3.8667 -0.934403 0
M  V30 5151 H 489.398 5.62865 -3.35952 0
M  V30 5152 H 488.918 5.76589 -1.65244 0
M  V30 5153 H 490.597 6.10584 -2.14001 0
M  V30 5154 N 490.729 0.570148 1.46925 0
M  V30 5155 C 491.677 -0.183181 2.31878 0
M  V30 5156 C 492.671 -0.896721 1.43719 0
M  V30 5157 O 493.877 -0.816536 1.60414 0
M  V30 5158 H 490.252 -0.077944 0.74795 0
M  V30 5159 H 492.223 0.552312 2.93244 0
M  V30 5160 C 490.972 -1.19172 3.2664 0
M  V30 5161 H 490.295 -0.652088 3.94446 0
M  V30 5162 H 491.735 -1.68946 3.88887 0
M  V30 5163 C 490.194 -2.24627 2.51086 0
M  V30 5164 O 490.724 -3.31773 2.26472 0
M  V30 5165 N 488.93 -1.98898 2.11867 0
M  V30 5166 H 488.477 -1.11777 2.32086 0
M  V30 5167 H 488.435 -2.6967 1.61634 0
M  V30 5168 N 492.207 -1.54576 0.307264 0
M  V30 5169 C 493.623 -1.59534 -0.0459251 0
M  V30 5170 C 493.823 -1.32414 -1.51884 0
M  V30 5171 O 492.879 -1.1006 -2.27251 0
M  V30 5172 C 494.192 -2.98566 0.357649 0
M  V30 5173 C 495.74 -3.11491 0.306937 0
M  V30 5174 C 496.215 -4.52842 0.685427 0
M  V30 5175 N 497.706 -4.58782 0.638203 0
M  V30 5176 C 498.441 -5.66238 0.903458 0
M  V30 5177 N 497.937 -6.81703 1.23501 0
M  V30 5178 N 499.73 -5.55937 0.830102 0
M  V30 5179 H 491.881 -1.70464 1.26712 0
M  V30 5180 H 494.144 -0.79647 0.514139 0
M  V30 5181 H 493.85 -3.23356 1.38325 0
M  V30 5182 H 493.724 -3.76117 -0.285565 0
M  V30 5183 H 496.111 -2.86446 -0.709424 0
M  V30 5184 H 496.192 -2.36081 0.984861 0
M  V30 5185 H 495.836 -4.78618 1.69963 0
M  V30 5186 H 495.766 -5.26598 -0.0146346 0
M  V30 5187 H 498.257 -3.75849 0.393138 0
M  V30 5188 H 498.57 -7.59582 1.42322 0
M  V30 5189 H 496.915 -6.8324 1.27311 0
M  V30 5190 H 500.106 -4.64608 0.570693 0
M  V30 5191 H 500.279 -6.39597 1.04019 0
M  V30 5192 N 493.685 -0.035106 -1.57561 0
M  V30 5193 C 494.934 0.641604 -1.91223 0
M  V30 5194 C 495.247 1.72944 -0.913761 0
M  V30 5195 O 496.453 2.46321 -1.14185 0
M  V30 5196 C 494.909 1.19249 -3.3957 0
M  V30 5197 C 494.517 0.137616 -4.47789 0
M  V30 5198 C 496.261 1.84537 -3.82291 0
M  V30 5199 C 494.168 0.700478 -5.87237 0
M  V30 5200 H 493.098 0.243417 -0.713627 0
M  V30 5201 H 495.749 -0.101382 -1.8322 0
M  V30 5202 H 494.131 1.98728 -3.42525 0
M  V30 5203 H 495.305 -0.635153 -4.56402 0
M  V30 5204 H 493.62 -0.416855 -4.14308 0
M  V30 5205 H 496.217 2.27616 -4.83834 0
M  V30 5206 H 496.56 2.69054 -3.17672 0
M  V30 5207 H 497.093 1.11739 -3.81784 0
M  V30 5208 H 493.832 -0.106693 -6.55413 0
M  V30 5209 H 493.352 1.4416 -5.82218 0
M  V30 5210 H 495.031 1.18837 -6.35993 0
M  V30 5211 N 495.163 1.55791 0.238111 0
M  V30 5212 C 496.126 1.90239 1.27835 0
M  V30 5213 C 497.126 0.779552 1.4064 0
M  V30 5214 O 498.316 1.04747 1.3919 0
M  V30 5215 C 495.448 2.13859 2.65475 0
M  V30 5216 H 496.641 2.83262 0.985034 0
M  V30 5217 H 494.194 1.48818 0.477799 0
M  V30 5218 H 494.929 1.23334 2.99932 0
M  V30 5219 H 494.714 2.95643 2.57561 0
M  V30 5220 H 496.204 2.41664 3.40571 0
M  V30 5221 N 496.642 -0.504142 1.49319 0
M  V30 5222 C 497.605 -1.5883 1.65244 0
M  V30 5223 C 498.605 -1.52009 0.524386 0
M  V30 5224 O 499.795 -1.55218 0.79077 0
M  V30 5225 C 496.927 -2.98481 1.64687 0
M  V30 5226 H 498.12 -1.4604 2.61939 0
M  V30 5227 H 495.673 -0.728144 1.38303 0
M  V30 5228 H 496.408 -3.16751 0.695644 0
M  V30 5229 H 496.193 -3.0484 2.46607 0
M  V30 5230 H 497.683 -3.77256 1.79075 0
M  V30 5231 N 498.12 -1.38341 -0.754957 0
M  V30 5232 C 499.366 -1.35678 -1.51536 0
M  V30 5233 C 499.721 0.0533985 -1.92326 0
M  V30 5234 O 499.014 1.01573 -1.6246 0
M  V30 5235 C 499.208 -2.2452 -2.78075 0
M  V30 5236 C 499.037 -3.74035 -2.49655 0
M  V30 5237 C 497.807 -4.43066 -2.42942 0
M  V30 5238 C 500.005 -4.665 -2.16523 0
M  V30 5239 N 497.987 -5.78026 -2.06783 0
M  V30 5240 C 499.358 -5.89962 -1.90644 0
M  V30 5241 C 501.413 -4.54718 -2.02821 0
M  V30 5242 C 500.116 -7.0296 -1.52444 0
M  V30 5243 C 502.142 -5.67618 -1.66023 0
M  V30 5244 C 501.504 -6.90141 -1.41015 0
M  V30 5245 H 497.603 -0.551764 -0.554148 0
M  V30 5246 H 500.187 -1.73716 -0.879258 0
M  V30 5247 H 498.358 -1.88673 -3.39496 0
M  V30 5248 H 500.09 -2.12993 -3.44116 0
M  V30 5249 H 496.845 -3.96264 -2.59367 0
M  V30 5250 H 497.269 -6.49394 -1.91353 0
M  V30 5251 H 501.911 -3.60546 -2.20831 0
M  V30 5252 H 499.629 -7.97051 -1.33174 0
M  V30 5253 H 503.215 -5.6048 -1.56055 0
M  V30 5254 H 502.095 -7.76021 -1.12965 0
M  V30 5255 N 499.598 0.982988 -1.23187 0
M  V30 5256 C 500.844 1.72648 -1.06398 0
M  V30 5257 C 501.177 1.90066 0.398561 0
M  V30 5258 O 500.452 1.45105 1.29518 0
M  V30 5259 C 500.735 3.12627 -1.78707 0
M  V30 5260 C 500.588 3.02795 -3.32618 0
M  V30 5261 C 501.907 4.11997 -1.54747 0
M  V30 5262 H 499.026 0.626649 -0.387918 0
M  V30 5263 H 501.668 1.14455 -1.51658 0
M  V30 5264 H 499.818 3.62308 -1.40234 0
M  V30 5265 H 501.49 2.60659 -3.80598 0
M  V30 5266 H 499.733 2.39362 -3.61785 0
M  V30 5267 H 500.404 4.01893 -3.78399 0
M  V30 5268 H 502.88 3.71114 -1.88186 0
M  V30 5269 H 501.756 5.08037 -2.07821 0
M  V30 5270 H 502.017 4.39462 -0.482249 0
M  V30 5271 N 501.076 1.04316 1.18135 0
M  V30 5272 C 502.325 0.74319 1.87509 0
M  V30 5273 C 502.638 -0.732136 1.81381 0
M  V30 5274 O 503.844 -1.14572 2.46141 0
M  V30 5275 C 502.3 1.27913 3.36402 0
M  V30 5276 C 501.908 2.78326 3.51053 0
M  V30 5277 C 503.652 1.0558 4.11161 0
M  V30 5278 C 501.559 3.25266 4.93919 0
M  V30 5279 H 500.489 0.274313 0.702331 0
M  V30 5280 H 503.14 1.25931 1.33467 0
M  V30 5281 H 501.522 0.690853 3.89927 0
M  V30 5282 H 502.696 3.42933 3.07788 0
M  V30 5283 H 501.011 2.991 2.89704 0
M  V30 5284 H 503.608 1.38161 5.16542 0
M  V30 5285 H 503.951 -0.00684729 4.16299 0
M  V30 5286 H 504.484 1.60882 3.63816 0
M  V30 5287 H 501.223 4.30922 4.9395 0
M  V30 5288 H 500.743 2.65396 5.3789 0
M  V30 5289 H 502.422 3.19433 5.62647 0
M  V30 5290 N 502.554 -1.34406 0.822964 0
M  V30 5291 C 503.802 -1.97892 0.410245 0
M  V30 5292 C 504.123 -1.65567 -1.03017 0
M  V30 5293 O 503.393 -0.94642 -1.71522 0
M  V30 5294 H 501.973 -0.732049 0.148707 0
M  V30 5295 H 504.635 -1.64043 1.05242 0
M  V30 5296 H 503.731 -3.07579 0.529284 0
M  V30 5297 N 504.032 -0.577932 -1.46621 0
M  V30 5298 C 505.26 -0.0671642 -2.06791 0
M  V30 5299 C 505.675 1.23571 -1.42743 0
M  V30 5300 O 505.032 1.74602 -0.531062 0
M  V30 5301 C 505.083 0.110357 -3.61332 0
M  V30 5302 O 504.804 -1.14095 -4.22982 0
M  V30 5303 C 506.305 0.656025 -4.38419 0
M  V30 5304 H 503.525 -0.0552732 -0.66872 0
M  V30 5305 H 506.069 -0.797242 -1.8832 0
M  V30 5306 H 504.224 0.790637 -3.79246 0
M  V30 5307 H 504.638 -0.951742 -5.15793 0
M  V30 5308 H 506.112 0.729438 -5.47159 0
M  V30 5309 H 506.589 1.67195 -4.06131 0
M  V30 5310 H 507.195 0.0107692 -4.25299 0
M  V30 5311 N 505.51 1.54411 -0.315457 0
M  V30 5312 C 506.926 1.59556 0.037464 0
M  V30 5313 C 507.126 1.33217 1.5118 0
M  V30 5314 O 506.182 1.11264 2.26664 0
M  V30 5315 C 507.495 2.98372 -0.373477 0
M  V30 5316 C 509.043 3.11324 -0.323452 0
M  V30 5317 C 509.518 4.52472 -0.709433 0
M  V30 5318 N 511.009 4.58437 -0.662524 0
M  V30 5319 C 511.744 5.65751 -0.933474 0
M  V30 5320 N 511.24 6.81039 -1.27114 0
M  V30 5321 N 513.033 5.55489 -0.859573 0
M  V30 5322 H 505.184 1.6979 -1.27614 0
M  V30 5323 H 507.447 0.793732 -0.518356 0
M  V30 5324 H 507.153 3.22618 -1.40037 0
M  V30 5325 H 507.027 3.76264 0.265615 0
M  V30 5326 H 509.414 2.86818 0.694223 0
M  V30 5327 H 509.495 2.35555 -0.997367 0
M  V30 5328 H 509.139 4.7771 -1.72498 0
M  V30 5329 H 509.069 5.26598 -0.0132923 0
M  V30 5330 H 511.56 3.75636 -0.413065 0
M  V30 5331 H 511.873 7.58816 -1.46348 0
M  V30 5332 H 510.218 6.82555 -1.30932 0
M  V30 5333 H 513.409 4.64299 -0.595324 0
M  V30 5334 H 513.582 6.39036 -1.0741 0
M  V30 5335 N 506.988 0.0434614 1.5754 0
M  V30 5336 C 507.936 -0.951465 2.1225 0
M  V30 5337 C 508.93 -1.3274 1.05245 0
M  V30 5338 O 510.136 -1.30795 1.23663 0
M  V30 5339 H 506.511 -0.324667 0.678303 0
M  V30 5340 H 508.482 -0.464855 2.94757 0
M  V30 5341 C 507.231 -2.21972 2.67626 0
M  V30 5342 H 506.554 -1.93923 3.4962 0
M  V30 5343 H 507.994 -2.89765 3.09536 0
M  V30 5344 C 506.453 -2.95919 1.61038 0
M  V30 5345 O 506.983 -3.8857 1.01862 0
M  V30 5346 N 505.189 -2.58511 1.32741 0
M  V30 5347 H 504.736 -1.83244 1.81051 0
M  V30 5348 H 504.694 -3.08296 0.616531 0
M  V30 5349 N 508.466 -1.55915 -0.229846 0
M  V30 5350 C 509.399 -1.86734 -1.3117 0
M  V30 5351 C 510.377 -0.723947 -1.45595 0
M  V30 5352 O 511.561 -0.971462 -1.61539 0
M  V30 5353 C 508.688 -2.06707 -2.68309 0
M  V30 5354 C 507.734 -3.2938 -2.70944 0
M  V30 5355 S 508.567 -4.85547 -2.25842 0
M  V30 5356 C 509.723 -5.08546 -3.64873 0
M  V30 5357 H 509.956 -2.78204 -1.04832 0
M  V30 5358 H 507.489 -1.48243 -0.431681 0
M  V30 5359 H 509.447 -2.18898 -3.47267 0
M  V30 5360 H 508.108 -1.16049 -2.91876 0
M  V30 5361 H 507.301 -3.40374 -3.71701 0
M  V30 5362 H 506.903 -3.16004 -2.00044 0
M  V30 5363 H 509.195 -4.96935 -4.60502 0
M  V30 5364 H 510.138 -6.10465 -3.58801 0
M  V30 5365 H 510.546 -4.36314 -3.58176 0
M  V30 5366 N 509.944 0.496216 -1.49584 0
M  V30 5367 C 510.891 1.59722 -1.66606 0
M  V30 5368 C 511.861 1.58158 -0.507477 0
M  V30 5369 O 513.046 1.76072 -0.735076 0
M  V30 5370 C 510.186 2.97844 -1.74308 0
M  V30 5371 C 509.299 3.09388 -3.01502 0
M  V30 5372 C 508.434 4.38271 -3.00153 0
M  V30 5373 C 507.473 4.43466 -4.21906 0
M  V30 5374 N 506.61 5.63784 -4.1844 0
M  V30 5375 H 511.45 1.44515 -2.60613 0
M  V30 5376 H 508.987 0.703048 -1.29212 0
M  V30 5377 H 510.945 3.77907 -1.76754 0
M  V30 5378 H 509.575 3.11743 -0.837619 0
M  V30 5379 H 508.627 2.22357 -3.08645 0
M  V30 5380 H 509.939 3.09085 -3.91494 0
M  V30 5381 H 509.093 5.2666 -3.01188 0
M  V30 5382 H 507.832 4.41146 -2.07947 0
M  V30 5383 H 506.837 3.53478 -4.21109 0
M  V30 5384 H 508.062 4.42303 -5.1531 0
M  V30 5385 H 506.008 5.67491 -3.29074 0
M  V30 5386 H 505.925 5.65118 -5.02173 0
M  V30 5387 H 507.193 6.54367 -4.23585 0
M  V30 5388 N 511.423 1.38739 0.74761 0
M  V30 5389 C 512.37 1.36449 1.86146 0
M  V30 5390 C 513.34 0.226098 1.64554 0
M  V30 5391 O 514.525 0.41926 1.86137 0
M  V30 5392 C 511.665 1.2013 3.23516 0
M  V30 5393 C 510.778 2.43407 3.56899 0
M  V30 5394 C 509.913 2.19773 4.83605 0
M  V30 5395 C 508.952 3.3879 5.09792 0
M  V30 5396 N 508.089 3.14553 6.27695 0
M  V30 5397 H 512.929 2.3167 1.87438 0
M  V30 5398 H 510.466 1.15094 0.916063 0
M  V30 5399 H 512.424 1.08683 4.02795 0
M  V30 5400 H 511.054 0.285453 3.21535 0
M  V30 5401 H 510.106 2.65504 2.72418 0
M  V30 5402 H 511.418 3.32094 3.72176 0
M  V30 5403 H 510.572 2.05496 5.70838 0
M  V30 5404 H 509.311 1.28461 4.70478 0
M  V30 5405 H 508.316 3.53579 4.21025 0
M  V30 5406 H 509.541 4.30986 5.24812 0
M  V30 5407 H 507.487 2.25893 6.1588 0
M  V30 5408 H 507.404 3.96791 6.435 0
M  V30 5409 H 508.672 3.03943 7.17801 0
M  V30 5410 N 512.901 -0.976442 1.23707 0
M  V30 5411 C 513.864 -2.0511 1.02287 0
M  V30 5412 C 514.864 -1.60791 -0.0167195 0
M  V30 5413 O 516.054 -1.72761 0.223408 0
M  V30 5414 C 513.186 -3.36458 0.548507 0
M  V30 5415 H 514.379 -2.25545 1.9766 0
M  V30 5416 H 511.932 -1.15042 1.05806 0
M  V30 5417 H 512.667 -3.21713 -0.408818 0
M  V30 5418 H 512.452 -3.69967 1.29874 0
M  V30 5419 H 513.942 -4.15489 0.419406 0
M  V30 5420 N 514.379 -1.04941 -1.1758 0
M  V30 5421 C 515.309 -0.669172 -2.23706 0
M  V30 5422 C 516.29 0.331835 -1.66832 0
M  V30 5423 O 517.475 0.209988 -1.93061 0
M  V30 5424 C 514.605 -0.0404889 -3.47276 0
M  V30 5425 C 513.559 -0.965983 -4.16957 0
M  V30 5426 C 512.885 -0.201312 -5.34321 0
M  V30 5427 C 514.185 -2.28902 -4.69469 0
M  V30 5428 H 515.879 -1.55639 -2.55767 0
M  V30 5429 H 513.425 -0.749793 -1.22939 0
M  V30 5430 H 515.378 0.237298 -4.20731 0
M  V30 5431 H 514.102 0.881658 -3.14475 0
M  V30 5432 H 512.761 -1.22829 -3.45411 0
M  V30 5433 H 512.409 0.723519 -4.97769 0
M  V30 5434 H 512.109 -0.817968 -5.81879 0
M  V30 5435 H 513.633 0.0692499 -6.10561 0
M  V30 5436 H 515.047 -2.07132 -5.34574 0
M  V30 5437 H 513.444 -2.85942 -5.27596 0
M  V30 5438 H 514.514 -2.92937 -3.86414 0
M  V30 5439 N 515.857 1.33968 -0.830081 0
M  V30 5440 C 516.787 2.31911 -0.271911 0
M  V30 5441 C 517.768 1.58571 0.61556 0
M  V30 5442 O 518.953 1.86514 0.540946 0
M  V30 5443 C 516.083 3.42737 0.561146 0
M  V30 5444 C 515.037 4.27383 -0.229789 0
M  V30 5445 C 514.363 5.29742 0.726463 0
M  V30 5446 C 515.663 5.02 -1.44197 0
M  V30 5447 H 517.357 2.78844 -1.09025 0
M  V30 5448 H 514.903 1.34061 -0.52571 0
M  V30 5449 H 516.856 4.10276 0.961867 0
M  V30 5450 H 515.58 2.94471 1.41261 0
M  V30 5451 H 514.239 3.61456 -0.611964 0
M  V30 5452 H 513.887 4.77736 1.57408 0
M  V30 5453 H 513.587 5.87255 0.20142 0
M  V30 5454 H 515.111 6.00149 1.12489 0
M  V30 5455 H 516.525 5.62355 -1.11488 0
M  V30 5456 H 514.922 5.69122 -1.90317 0
M  V30 5457 H 515.992 4.31281 -2.2164 0
M  V30 5458 N 517.335 0.585699 1.46312 0
M  V30 5459 C 518.751 0.247607 1.57668 0
M  V30 5460 C 518.951 -1.25007 1.58037 0
M  V30 5461 O 518.007 -2.03196 1.49893 0
M  V30 5462 C 519.32 0.899456 2.86933 0
M  V30 5463 C 520.868 0.873326 3.00569 0
M  V30 5464 C 521.343 1.50477 4.32574 0
M  V30 5465 N 522.834 1.46925 4.3928 0
M  V30 5466 C 523.569 1.92719 5.40044 0
M  V30 5467 N 523.065 2.46499 6.47464 0
M  V30 5468 N 524.858 1.83617 5.31264 0
M  V30 5469 H 517.009 1.55841 1.44317 0
M  V30 5470 H 519.272 0.651564 0.688599 0
M  V30 5471 H 518.978 1.95313 2.92482 0
M  V30 5472 H 518.852 0.409476 3.74971 0
M  V30 5473 H 521.239 -0.171736 2.946 0
M  V30 5474 H 521.32 1.40136 2.13999 0
M  V30 5475 H 520.964 2.54905 4.39302 0
M  V30 5476 H 520.894 0.951944 5.17924 0
M  V30 5477 H 523.385 1.07616 3.62253 0
M  V30 5478 H 523.698 2.79291 7.20567 0
M  V30 5479 H 522.043 2.50526 6.48276 0
M  V30 5480 H 525.234 1.41358 4.46246 0
M  V30 5481 H 525.407 2.19622 6.09648 0
M  V30 5482 N 518.813 -1.54241 0.323641 0
M  V30 5483 C 519.776 -2.22997 -0.529602 0
M  V30 5484 C 520.776 -1.22345 -1.04347 0
M  V30 5485 O 521.966 -1.46924 -0.935889 0
M  V30 5486 C 519.098 -2.93409 -1.73562 0
M  V30 5487 H 520.291 -2.99815 0.0714518 0
M  V30 5488 H 517.844 -1.56121 0.0747258 0
M  V30 5489 H 518.579 -2.20729 -2.37591 0
M  V30 5490 H 518.364 -3.67217 -1.37456 0
M  V30 5491 H 519.854 -3.45794 -2.34128 0
M  V30 5492 N 520.291 -0.0518155 -1.57515 0
M  V30 5493 C 521.221 0.920283 -2.146 0
M  V30 5494 C 522.202 1.32406 -1.06783 0
M  V30 5495 O 523.387 1.39866 -1.34726 0
M  V30 5496 C 520.517 2.1949 -2.6915 0
M  V30 5497 C 519.471 1.93116 -3.81956 0
M  V30 5498 C 518.797 3.27037 -4.23026 0
M  V30 5499 C 520.097 1.25225 -5.07066 0
M  V30 5500 H 521.791 0.444801 -2.96077 0
M  V30 5501 H 519.337 0.212508 -1.42423 0
M  V30 5502 H 521.29 2.87894 -3.07725 0
M  V30 5503 H 520.014 2.69244 -1.84865 0
M  V30 5504 H 518.673 1.27123 -3.43854 0
M  V30 5505 H 518.321 3.74595 -3.3569 0
M  V30 5506 H 518.021 3.10189 -4.99056 0
M  V30 5507 H 519.545 3.96673 -4.64202 0
M  V30 5508 H 520.959 1.83666 -5.43083 0
M  V30 5509 H 519.356 1.18702 -5.88243 0
M  V30 5510 H 520.426 0.228382 -4.84362 0
M  V30 5511 N 521.769 1.56035 0.221574 0
M  V30 5512 C 522.699 1.95434 1.2778 0
M  V30 5513 C 523.68 0.822564 1.48889 0
M  V30 5514 O 524.865 1.08486 1.61072 0
M  V30 5515 C 521.995 2.27102 2.62759 0
M  V30 5516 C 520.949 3.4277 2.56306 0
M  V30 5517 C 520.275 3.60043 3.95314 0
M  V30 5518 C 521.575 4.77742 2.11093 0
M  V30 5519 H 523.269 2.83912 0.950504 0
M  V30 5520 H 520.815 1.36596 0.455791 0
M  V30 5521 H 522.768 2.53256 3.36807 0
M  V30 5522 H 521.492 1.35478 2.97176 0
M  V30 5523 H 520.151 3.16664 1.84715 0
M  V30 5524 H 519.799 2.65794 4.27039 0
M  V30 5525 H 519.499 4.37841 3.91879 0
M  V30 5526 H 521.023 3.88545 4.71025 0
M  V30 5527 H 522.437 5.03102 2.74885 0
M  V30 5528 H 520.834 5.58823 2.18716 0
M  V30 5529 H 521.904 4.731 1.06321 0
M  V30 5530 N 523.247 -0.488276 1.49845 0
M  V30 5531 C 524.157 -1.61451 1.70207 0
M  V30 5532 C 525.173 -1.63877 0.584846 0
M  V30 5533 O 526.349 -1.82063 0.861107 0
M  V30 5534 C 523.414 -2.9776 1.77594 0
M  V30 5535 C 522.475 -3.05861 3.01243 0
M  V30 5536 C 521.708 -4.35668 3.08268 0
M  V30 5537 O 521.931 -5.25197 2.22541 0
M  V30 5538 O 520.865 -4.49005 4.00847 0
M  V30 5539 H 524.691 -1.47199 2.65643 0
M  V30 5540 H 522.276 -0.665939 1.33737 0
M  V30 5541 H 524.158 -3.7875 1.84732 0
M  V30 5542 H 522.833 -3.12248 0.8534 0
M  V30 5543 H 521.74 -2.24012 2.99616 0
M  V30 5544 H 523.073 -2.96304 3.9302 0
M  V30 5545 N 524.725 -1.39134 -0.740242 0
M  V30 5546 C 526.136 -1.32208 -1.31825 0
M  V30 5547 C 526.487 0.0159919 -1.96193 0
M  V30 5548 O 525.612 0.918111 -1.95958 0
M  V30 5549 C 526.207 -2.39436 -2.39699 0
M  V30 5550 C 524.766 -2.36048 -2.93187 0
M  V30 5551 C 523.913 -2.21599 -1.66701 0
M  V30 5552 H 526.864 -1.49298 -0.538133 0
M  V30 5553 H 526.885 -2.05922 -3.19963 0
M  V30 5554 H 526.397 -3.36811 -1.92821 0
M  V30 5555 H 524.498 -1.42295 -3.44359 0
M  V30 5556 H 524.611 -3.30704 -3.46658 0
M  V30 5557 H 522.975 -1.68681 -1.90837 0
M  V30 5558 H 523.758 -3.20936 -1.21882 0
M  V30 5559 N 526.204 0.969867 -1.24223 0
M  V30 5560 C 527.432 1.74756 -1.10761 0
M  V30 5561 C 527.847 1.85713 0.340041 0
M  V30 5562 O 527.204 1.34389 1.23474 0
M  V30 5563 C 527.255 3.16915 -1.73917 0
M  V30 5564 O 526.976 3.06511 -3.13021 0
M  V30 5565 C 528.477 4.11032 -1.66036 0
M  V30 5566 H 525.697 0.548092 -0.387087 0
M  V30 5567 H 528.241 1.2178 -1.64286 0
M  V30 5568 H 526.396 3.66884 -1.244 0
M  V30 5569 H 526.81 3.96079 -3.43834 0
M  V30 5570 H 528.284 5.08446 -2.14911 0
M  V30 5571 H 528.761 4.34785 -0.621159 0
M  V30 5572 H 529.367 3.66972 -2.14969 0
M  V30 5573 N 527.682 1.05563 1.17022 0
M  V30 5574 C 528.645 0.664098 2.19368 0
M  V30 5575 C 529.645 -0.286358 1.5823 0
M  V30 5576 O 530.835 -0.069728 1.7406 0
M  V30 5577 C 527.967 -0.0239932 3.40892 0
M  V30 5578 H 529.16 1.57 2.55521 0
M  V30 5579 H 526.713 0.849964 1.31169 0
M  V30 5580 H 527.448 -0.942988 3.10287 0
M  V30 5581 H 527.233 0.659351 3.86516 0
M  V30 5582 H 528.723 -0.283909 4.16634 0
M  V30 5583 N 529.16 -1.33526 0.837174 0
M  V30 5584 C 530.07 -2.33023 0.271568 0
M  V30 5585 C 531.086 -1.63272 -0.601514 0
M  V30 5586 O 532.262 -1.94939 -0.506038 0
M  V30 5587 C 529.327 -3.42382 -0.545448 0
M  V30 5588 C 528.388 -4.27857 0.351709 0
M  V30 5589 C 527.621 -5.31994 -0.426409 0
M  V30 5590 O 527.844 -5.45763 -1.65828 0
M  V30 5591 O 526.778 -6.01572 0.1987 0
M  V30 5592 H 530.604 -2.83256 1.09545 0
M  V30 5593 H 528.189 -1.36837 0.599655 0
M  V30 5594 H 530.071 -4.09122 -1.00979 0
M  V30 5595 H 528.746 -2.94369 -1.34641 0
M  V30 5596 H 527.653 -3.6399 0.863853 0
M  V30 5597 H 528.986 -4.79349 1.1174 0
M  V30 5598 N 530.638 -0.59345 -1.46 0
M  V30 5599 C 531.568 0.121192 -2.33185 0
M  V30 5600 C 532.549 0.872977 -1.4599 0
M  V30 5601 O 533.734 0.846321 -1.74789 0
M  V30 5602 C 530.864 1.12844 -3.28456 0
M  V30 5603 C 529.818 0.4908 -4.25177 0
M  V30 5604 C 529.144 1.60529 -5.10034 0
M  V30 5605 C 530.444 -0.578949 -5.19081 0
M  V30 5606 H 532.138 -0.606767 -2.93187 0
M  V30 5607 H 529.684 -0.293242 -1.40983 0
M  V30 5608 H 531.637 1.63684 -3.88311 0
M  V30 5609 H 530.361 1.88681 -2.66584 0
M  V30 5610 H 529.02 0.00339328 -3.666 0
M  V30 5611 H 528.668 2.35359 -4.44539 0
M  V30 5612 H 528.368 1.18422 -5.75543 0
M  V30 5613 H 529.892 2.11623 -5.72755 0
M  V30 5614 H 531.306 -0.155199 -5.7309 0
M  V30 5615 H 529.703 -0.920947 -5.92991 0
M  V30 5616 H 530.773 -1.46109 -4.62364 0
M  V30 5617 N 532.116 1.54067 -0.331816 0
M  V30 5618 C 533.532 1.59587 0.0205388 0
M  V30 5619 C 533.732 1.34813 1.49759 0
M  V30 5620 O 532.788 1.13661 2.25471 0
M  V30 5621 C 534.101 2.97959 -0.405103 0
M  V30 5622 C 535.649 3.10964 -0.356454 0
M  V30 5623 C 536.124 4.51694 -0.757384 0
M  V30 5624 N 537.615 4.57709 -0.71111 0
M  V30 5625 C 538.35 5.64729 -0.993427 0
M  V30 5626 N 537.846 6.79652 -1.3433 0
M  V30 5627 N 539.639 5.54546 -0.918442 0
M  V30 5628 H 531.79 1.68426 -1.29407 0
M  V30 5629 H 534.053 0.78819 -0.526745 0
M  V30 5630 H 533.759 3.21115 -1.43451 0
M  V30 5631 H 533.633 3.76524 0.225692 0
M  V30 5632 H 536.02 2.87538 0.663763 0
M  V30 5633 H 536.101 2.34484 -1.02229 0
M  V30 5634 H 535.745 4.75853 -1.77555 0
M  V30 5635 H 535.675 5.26555 -0.0691444 0
M  V30 5636 H 538.166 3.75176 -0.452883 0
M  V30 5637 H 538.479 7.57221 -1.54388 0
M  V30 5638 H 536.824 6.81128 -1.38164 0
M  V30 5639 H 540.015 4.63641 -0.644536 0
M  V30 5640 H 540.188 6.37861 -1.14181 0
M  V30 5641 N 533.594 0.0601682 1.57485 0
M  V30 5642 C 534.541 -0.91112 2.12055 0
M  V30 5643 C 535.511 -1.30298 1.03013 0
M  V30 5644 O 536.696 -1.39087 1.30612 0
M  V30 5645 C 533.836 -2.1775 2.67729 0
M  V30 5646 C 532.949 -1.83933 3.90887 0
M  V30 5647 C 532.084 -3.05096 4.34845 0
M  V30 5648 C 531.123 -2.67241 5.5068 0
M  V30 5649 N 530.26 -3.81127 5.8965 0
M  V30 5650 H 535.1 -0.43888 2.9475 0
M  V30 5651 H 532.637 -0.204995 1.45665 0
M  V30 5652 H 534.595 -2.91866 2.98111 0
M  V30 5653 H 533.225 -2.62535 1.87816 0
M  V30 5654 H 532.277 -0.999287 3.6704 0
M  V30 5655 H 533.589 -1.52074 4.75052 0
M  V30 5656 H 532.743 -3.87502 4.66827 0
M  V30 5657 H 531.482 -3.40139 3.49509 0
M  V30 5658 H 530.487 -1.83254 5.18361 0
M  V30 5659 H 531.712 -2.3338 6.37738 0
M  V30 5660 H 529.658 -4.15954 5.07266 0
M  V30 5661 H 529.575 -3.52997 6.68528 0
M  V30 5662 H 530.843 -4.64145 6.2625 0
M  V30 5663 N 535.072 -1.5615 -0.213296 0
M  V30 5664 C 536.002 -1.96109 -1.26742 0
M  V30 5665 C 536.983 -0.830448 -1.48451 0
M  V30 5666 O 538.168 -1.09339 -1.60495 0
M  V30 5667 C 535.298 -2.28492 -2.61551 0
M  V30 5668 C 534.252 -3.44124 -2.54485 0
M  V30 5669 C 533.578 -3.62134 -3.93399 0
M  V30 5670 C 534.878 -4.78855 -2.08556 0
M  V30 5671 H 536.572 -2.84412 -0.935434 0
M  V30 5672 H 534.118 -1.36836 -0.44854 0
M  V30 5673 H 536.071 -2.55039 -3.3546 0
M  V30 5674 H 534.795 -1.37052 -2.96453 0
M  V30 5675 H 533.454 -3.17639 -1.83033 0
M  V30 5676 H 533.102 -2.68055 -4.25623 0
M  V30 5677 H 532.802 -4.39913 -3.89551 0
M  V30 5678 H 534.326 -3.91038 -4.68958 0
M  V30 5679 H 535.74 -5.04552 -2.72213 0
M  V30 5680 H 534.137 -5.59975 -2.1575 0
M  V30 5681 H 535.207 -4.73657 -1.03811 0
M  V30 5682 N 536.55 0.480323 -1.50102 0
M  V30 5683 C 537.46 1.60547 -1.71061 0
M  V30 5684 C 538.476 1.63564 -0.593529 0
M  V30 5685 O 539.652 1.81604 -0.870751 0
M  V30 5686 C 536.717 2.96814 -1.79171 0
M  V30 5687 C 535.778 3.04259 -3.02861 0
M  V30 5688 C 535.011 4.34027 -3.10574 0
M  V30 5689 O 535.234 5.24009 -2.25323 0
M  V30 5690 O 534.168 4.46873 -4.03223 0
M  V30 5691 H 537.994 1.45788 -2.6642 0
M  V30 5692 H 535.579 0.658838 -1.34088 0
M  V30 5693 H 537.461 3.77765 -1.86738 0
M  V30 5694 H 536.136 3.11791 -0.869947 0
M  V30 5695 H 535.043 2.22419 -3.008 0
M  V30 5696 H 536.376 2.94216 -3.94586 0
M  V30 5697 N 538.028 1.39524 0.732853 0
M  V30 5698 C 538.991 1.38189 1.82857 0
M  V30 5699 C 539.991 0.278624 1.58368 0
M  V30 5700 O 541.181 0.536639 1.65728 0
M  V30 5701 C 538.313 1.15661 3.2068 0
M  V30 5702 H 539.506 2.35692 1.85444 0
M  V30 5703 H 537.059 1.2512 0.936728 0
M  V30 5704 H 537.794 0.188482 3.23752 0
M  V30 5705 H 537.579 1.95559 3.39852 0
M  V30 5706 H 539.069 1.17472 4.00737 0
M  V30 5707 N 539.506 -0.963266 1.24736 0
M  V30 5708 C 540.469 -2.04013 1.04457 0
M  V30 5709 C 541.469 -1.608 0.000335555 0
M  V30 5710 O 542.659 -1.72515 0.241719 0
M  V30 5711 C 539.791 -3.35858 0.584162 0
M  V30 5712 H 540.984 -2.23436 2.00041 0
M  V30 5713 H 538.537 -1.13914 1.07021 0
M  V30 5714 H 539.272 -3.22128 -0.374673 0
M  V30 5715 H 539.057 -3.68568 1.3379 0
M  V30 5716 H 540.547 -4.1502 0.463451 0
M  V30 5717 N 540.985 -1.06182 -1.16461 0
M  V30 5718 C 542.233 -0.776326 -1.86595 0
M  V30 5719 C 542.554 0.69921 -1.82033 0
M  V30 5720 O 541.824 1.50579 -1.2531 0
M  V30 5721 H 540.404 -0.284184 -0.690832 0
M  V30 5722 H 543.066 -1.34308 -1.41235 0
M  V30 5723 H 542.162 -1.10022 -2.92064 0
M  V30 5724 N 542.463 1.3308 -0.844243 0
M  V30 5725 C 543.74 1.92178 -0.364261 0
M  V30 5726 C 544.12 1.76961 1.15101 0
M  V30 5727 O 543.468 1.16128 1.9679 0
M  V30 5728 C 543.678 3.393 -0.817106 0
M  V30 5729 C 545.026 4.16444 -0.828236 0
M  V30 5730 O 546.05 3.47975 -0.761062 0
M  V30 5731 O 544.909 5.38685 -0.920926 0
M  V30 5732 H 542.003 0.820411 -0.10419 0
M  V30 5733 H 544.549 1.41918 -0.930453 0
M  V30 5734 H 543.321 3.44272 -1.85991 0
M  V30 5735 H 542.944 3.96947 -0.227785 0
M  V30 5736 N 543.941 0.601185 1.45683 0
M  V30 5737 C 545.171 0.0999093 2.06358 0
M  V30 5738 C 545.579 -1.21831 1.44754 0
M  V30 5739 O 544.922 -1.75157 0.553695 0
M  V30 5740 C 544.984 -0.12085 3.59297 0
M  V30 5741 C 544.648 1.11459 4.432 0
M  V30 5742 C 545.645 2.03118 4.7858 0
M  V30 5743 C 543.33 1.34162 4.84051 0
M  V30 5744 C 545.324 3.15814 5.53661 0
M  V30 5745 C 543.011 2.4716 5.58888 0
M  V30 5746 C 544.009 3.37814 5.93608 0
M  V30 5747 O 543.697 4.48846 6.66928 0
M  V30 5748 H 543.429 0.0630316 0.673055 0
M  V30 5749 H 545.983 0.826982 1.88016 0
M  V30 5750 H 544.213 -0.902744 3.76015 0
M  V30 5751 H 545.902 -0.572925 4.01836 0
M  V30 5752 H 546.668 1.86801 4.47583 0
M  V30 5753 H 542.547 0.645018 4.56465 0
M  V30 5754 H 546.091 3.86596 5.8068 0
M  V30 5755 H 541.988 2.63432 5.89299 0
M  V30 5756 H 542.756 4.47446 6.85371 0
M  V30 5757 N 545.419 -1.53889 0.339982 0
M  V30 5758 C 546.647 -2.05271 -0.259114 0
M  V30 5759 C 547.062 -1.21517 -1.44496 0
M  V30 5760 O 546.419 -0.24966 -1.80784 0
M  V30 5761 C 546.47 -3.55092 -0.677634 0
M  V30 5762 O 546.191 -4.35667 0.461051 0
M  V30 5763 C 547.692 -4.22631 -1.33782 0
M  V30 5764 H 544.912 -0.669085 -0.0506566 0
M  V30 5765 H 547.456 -1.9852 0.490935 0
M  V30 5766 H 545.611 -3.62077 -1.37763 0
M  V30 5767 H 546.025 -5.24343 0.128144 0
M  V30 5768 H 547.499 -5.28861 -1.58145 0
M  V30 5769 H 547.976 -3.74758 -2.29027 0
M  V30 5770 H 548.582 -4.19829 -0.679957 0
M  V30 5771 N 546.897 -0.0685191 -1.57451 0
M  V30 5772 C 547.86 0.885173 -2.11417 0
M  V30 5773 C 548.86 1.22853 -1.03748 0
M  V30 5774 O 550.05 1.16235 -1.2975 0
M  V30 5775 C 547.182 2.18964 -2.61281 0
M  V30 5776 H 548.375 0.417034 -2.96986 0
M  V30 5777 H 545.928 0.18014 -1.55258 0
M  V30 5778 H 546.663 2.70321 -1.79156 0
M  V30 5779 H 546.448 1.9534 -3.39977 0
M  V30 5780 H 547.938 2.87242 -3.0312 0
M  V30 5781 N 548.375 1.56261 0.205012 0
M  V30 5782 C 549.791 1.49623 0.555433 0
M  V30 5783 C 549.991 0.766719 1.86343 0
M  V30 5784 O 549.047 0.313158 2.50551 0
M  V30 5785 C 550.36 2.94253 0.619347 0
M  V30 5786 C 551.908 3.04868 0.708855 0
M  V30 5787 C 552.383 4.50888 0.803969 0
M  V30 5788 N 553.874 4.54999 0.867758 0
M  V30 5789 C 554.609 5.65284 0.96135 0
M  V30 5790 N 554.105 6.85282 1.01786 0
M  V30 5791 N 555.898 5.53174 0.997771 0
M  V30 5792 H 548.049 2.0211 -0.653094 0
M  V30 5793 H 550.312 0.919333 -0.231366 0
M  V30 5794 H 550.018 3.50643 -0.272458 0
M  V30 5795 H 549.892 3.47063 1.47741 0
M  V30 5796 H 552.279 2.48532 1.5911 0
M  V30 5797 H 552.36 2.55199 -0.175205 0
M  V30 5798 H 552.004 5.07846 -0.0738798 0
M  V30 5799 H 551.934 4.98279 1.70369 0
M  V30 5800 H 554.425 3.68588 0.833735 0
M  V30 5801 H 554.738 7.65081 1.08951 0
M  V30 5802 H 553.083 6.8796 0.986706 0
M  V30 5803 H 556.274 4.5835 0.950392 0
M  V30 5804 H 556.447 6.39151 1.06725 0
M  V30 5805 N 549.853 -0.472356 1.50355 0
M  V30 5806 C 550.783 -1.57859 1.72055 0
M  V30 5807 C 551.764 -1.60283 0.569505 0
M  V30 5808 O 552.949 -1.7657 0.808503 0
M  V30 5809 C 550.079 -2.96191 1.81351 0
M  V30 5810 C 549.033 -3.08633 2.96529 0
M  V30 5811 C 548.359 -4.486 2.90968 0
M  V30 5812 C 549.659 -2.85969 4.37057 0
M  V30 5813 H 551.353 -1.39953 2.64676 0
M  V30 5814 H 548.899 -0.671846 1.27367 0
M  V30 5815 H 550.852 -3.73507 1.95117 0
M  V30 5816 H 549.576 -3.15251 0.853502 0
M  V30 5817 H 548.235 -2.33749 2.82413 0
M  V30 5818 H 547.883 -4.64577 1.92815 0
M  V30 5819 H 547.583 -4.57861 3.68289 0
M  V30 5820 H 549.107 -5.27938 3.0678 0
M  V30 5821 H 550.521 -3.53036 4.51706 0
M  V30 5822 H 548.918 -3.06677 5.15819 0
M  V30 5823 H 549.988 -1.81838 4.49514 0
M  V30 5824 N 551.331 -1.39911 -0.725443 0
M  V30 5825 C 552.294 -1.39156 -1.82121 0
M  V30 5826 C 553.294 -0.287018 -1.58218 0
M  V30 5827 O 554.484 -0.545421 -1.65441 0
M  V30 5828 C 551.616 -1.1736 -3.20062 0
M  V30 5829 H 552.809 -2.36672 -1.84191 0
M  V30 5830 H 550.362 -1.25615 -0.930079 0
M  V30 5831 H 551.097 -0.205648 -3.23647 0
M  V30 5832 H 550.882 -1.97358 -3.3881 0
M  V30 5833 H 552.372 -1.19596 -4.00108 0
M  V30 5834 N 552.809 0.956637 -1.25245 0
M  V30 5835 C 553.739 2.07058 -1.07931 0
M  V30 5836 C 554.72 1.70096 0.0110361 0
M  V30 5837 O 555.905 1.93555 -0.158121 0
M  V30 5838 C 553.035 3.40272 -0.695124 0
M  V30 5839 C 551.989 3.91235 -1.73549 0
M  V30 5840 C 551.315 5.20921 -1.20604 0
M  V30 5841 C 552.615 4.17837 -3.13385 0
M  V30 5842 H 554.309 2.218 -2.01109 0
M  V30 5843 H 551.855 1.06581 -0.968326 0
M  V30 5844 H 553.808 4.1765 -0.560949 0
M  V30 5845 H 552.532 3.25462 0.272355 0
M  V30 5846 H 551.191 3.16025 -1.85807 0
M  V30 5847 H 550.839 5.02479 -0.228846 0
M  V30 5848 H 550.539 5.55987 -1.90136 0
M  V30 5849 H 552.063 6.00897 -1.08421 0
M  V30 5850 H 553.477 4.8588 -3.04292 0
M  V30 5851 H 551.874 4.64154 -3.80369 0
M  V30 5852 H 552.944 3.2419 -3.60595 0
M  V30 5853 N 554.287 1.06798 1.15896 0
M  V30 5854 C 555.217 0.704677 2.22613 0
M  V30 5855 C 556.198 -0.305252 1.67339 0
M  V30 5856 O 557.383 -0.179247 1.93371 0
M  V30 5857 C 554.513 0.0957325 3.47168 0
M  V30 5858 C 553.467 1.0322 4.15367 0
M  V30 5859 C 552.793 0.286293 5.33933 0
M  V30 5860 C 554.093 2.36341 4.65768 0
M  V30 5861 H 555.787 1.59688 2.53259 0
M  V30 5862 H 553.333 0.769257 1.21731 0
M  V30 5863 H 555.286 -0.170333 4.21056 0
M  V30 5864 H 554.01 -0.831516 3.15838 0
M  V30 5865 H 552.669 1.28309 3.43413 0
M  V30 5866 H 552.317 -0.644237 4.98857 0
M  V30 5867 H 552.017 0.910436 5.80504 0
M  V30 5868 H 553.541 0.0278938 6.10594 0
M  V30 5869 H 554.955 2.1561 5.31211 0
M  V30 5870 H 553.352 2.94299 5.2298 0
M  V30 5871 H 554.422 2.99047 3.81705 0
M  V30 5872 N 555.766 -1.3263 0.851289 0
M  V30 5873 C 556.676 -2.32722 0.296268 0
M  V30 5874 C 557.692 -1.63901 -0.584162 0
M  V30 5875 O 558.868 -1.95465 -0.485334 0
M  V30 5876 C 555.933 -3.42942 -0.509103 0
M  V30 5877 C 554.994 -4.2746 0.397069 0
M  V30 5878 C 554.227 -5.32416 -0.36996 0
M  V30 5879 O 554.45 -5.47491 -1.6003 0
M  V30 5880 O 553.384 -6.01327 0.262493 0
M  V30 5881 H 557.21 -2.82078 1.12543 0
M  V30 5882 H 554.795 -1.36194 0.614135 0
M  V30 5883 H 556.677 -4.1017 -0.96634 0
M  V30 5884 H 555.352 -2.95781 -1.31512 0
M  V30 5885 H 554.259 -3.63053 0.902411 0
M  V30 5886 H 555.592 -4.78136 1.16818 0
M  V30 5887 N 557.244 -0.608902 -1.45362 0
M  V30 5888 C 558.154 0.110969 -2.34337 0
M  V30 5889 C 559.17 0.859007 -1.51318 0
M  V30 5890 O 560.346 0.816296 -1.84116 0
M  V30 5891 C 557.411 1.09494 -3.28956 0
M  V30 5892 C 556.472 0.348718 -4.27881 0
M  V30 5893 C 555.705 1.28582 -5.17979 0
M  V30 5894 O 555.928 2.52369 -5.11533 0
M  V30 5895 O 554.862 0.782172 -5.96796 0
M  V30 5896 H 558.688 -0.620258 -2.97299 0
M  V30 5897 H 556.273 -0.36916 -1.44767 0
M  V30 5898 H 558.155 1.66163 -3.87257 0
M  V30 5899 H 556.83 1.80717 -2.68557 0
M  V30 5900 H 555.737 -0.260465 -3.73192 0
M  V30 5901 H 557.07 -0.323049 -4.91139 0
M  V30 5902 N 558.722 1.53707 -0.348139 0
M  V30 5903 C 559.654 2.22725 0.540946 0
M  V30 5904 C 560.667 1.2354 1.06027 0
M  V30 5905 O 561.856 1.49867 0.96964 0
M  V30 5906 C 558.956 2.89756 1.75768 0
M  V30 5907 C 558.129 4.15297 1.37285 0
M  V30 5908 C 557.188 4.65697 2.44976 0
M  V30 5909 O 556.214 5.29798 2.08092 0
M  V30 5910 N 557.416 4.42017 3.763 0
M  V30 5911 H 560.181 2.99658 -0.0501592 0
M  V30 5912 H 557.742 1.60979 -0.17248 0
M  V30 5913 H 559.734 3.20388 2.47252 0
M  V30 5914 H 558.304 2.16382 2.25605 0
M  V30 5915 H 557.524 3.9116 0.488584 0
M  V30 5916 H 558.812 4.96948 1.09179 0
M  V30 5917 H 558.21 3.9076 4.09051 0
M  V30 5918 H 556.767 4.77242 4.4394 0
M  V30 5919 N 560.2 0.0768682 1.57412 0
M  V30 5920 C 561.147 -0.888577 2.13009 0
M  V30 5921 C 562.117 -1.29198 1.0439 0
M  V30 5922 O 563.302 -1.37694 1.3208 0
M  V30 5923 C 560.442 -2.14899 2.70023 0
M  V30 5924 C 559.555 -1.79777 3.92816 0
M  V30 5925 C 558.69 -3.00467 4.38056 0
M  V30 5926 C 557.729 -2.61385 5.53484 0
M  V30 5927 N 556.866 -3.74851 5.93659 0
M  V30 5928 H 561.706 -0.407593 2.95199 0
M  V30 5929 H 559.243 -0.189534 1.45874 0
M  V30 5930 H 561.201 -2.88688 3.0119 0
M  V30 5931 H 559.831 -2.60529 1.9059 0
M  V30 5932 H 558.883 -0.960301 3.68079 0
M  V30 5933 H 560.195 -1.47027 4.76639 0
M  V30 5934 H 559.349 -3.82529 4.7091 0
M  V30 5935 H 558.088 -3.36413 3.53097 0
M  V30 5936 H 557.093 -1.77746 5.20275 0
M  V30 5937 H 558.318 -2.26603 6.40178 0
M  V30 5938 H 556.264 -4.1055 5.11649 0
M  V30 5939 H 556.181 -3.45887 6.72234 0
M  V30 5940 H 557.449 -4.57477 6.31138 0
M  V30 5941 N 561.678 -1.56367 -0.196722 0
M  V30 5942 C 562.903 -1.84991 -0.937714 0
M  V30 5943 C 563.328 -0.660244 -1.76132 0
M  V30 5944 O 562.686 0.390967 -1.77034 0
M  V30 5945 C 562.734 -3.11828 -1.81096 0
M  V30 5946 O 561.838 -2.92266 -2.90955 0
M  V30 5947 H 561.179 -0.609193 -0.264159 0
M  V30 5948 H 563.709 -2.03595 -0.202529 0
M  V30 5949 H 563.719 -3.42579 -2.21594 0
M  V30 5950 H 562.394 -3.98037 -1.2058 0
M  V30 5951 H 560.971 -2.72809 -2.54224 0
M  V30 5952 N 563.156 0.464375 -1.50603 0
M  V30 5953 C 564.086 1.56944 -1.72889 0
M  V30 5954 C 565.067 1.59979 -0.577997 0
M  V30 5955 O 566.252 1.76138 -0.817855 0
M  V30 5956 C 563.382 2.95225 -1.8292 0
M  V30 5957 C 562.336 3.07056 -2.98162 0
M  V30 5958 C 561.662 4.47051 -2.93343 0
M  V30 5959 C 562.962 2.83648 -4.38567 0
M  V30 5960 H 564.656 1.38547 -2.65415 0
M  V30 5961 H 562.202 0.665082 -1.27721 0
M  V30 5962 H 564.155 3.72467 -1.97095 0
M  V30 5963 H 562.879 3.14793 -0.870209 0
M  V30 5964 H 561.538 2.32248 -2.83648 0
M  V30 5965 H 561.186 4.63547 -1.95276 0
M  V30 5966 H 560.886 4.55902 -3.70712 0
M  V30 5967 H 562.41 5.26304 -3.09575 0
M  V30 5968 H 563.824 3.50636 -4.53572 0
M  V30 5969 H 562.221 3.03937 -5.17438 0
M  V30 5970 H 563.291 1.79451 -4.50472 0
M  V30 5971 N 564.634 1.40294 0.718013 0
M  V30 5972 C 566.045 1.34289 1.29705 0
M  V30 5973 C 566.396 0.0152228 1.96194 0
M  V30 5974 O 565.521 -0.88682 1.97394 0
M  V30 5975 C 566.116 2.43219 2.3586 0
M  V30 5976 C 564.675 2.40682 2.89394 0
M  V30 5977 C 563.822 2.24223 1.63154 0
M  V30 5978 H 566.773 1.50135 0.514312 0
M  V30 5979 H 566.794 2.10986 3.16647 0
M  V30 5980 H 566.306 3.39836 1.87439 0
M  V30 5981 H 564.407 1.47756 3.42051 0
M  V30 5982 H 564.52 3.36177 3.41353 0
M  V30 5983 H 562.884 1.71696 1.88129 0
M  V30 5984 H 563.667 3.22834 1.16761 0
M  V30 5985 N 566.112 -0.949982 1.2575 0
M  V30 5986 C 567.358 -1.69822 1.11947 0
M  V30 5987 C 567.713 -1.89455 -0.335334 0
M  V30 5988 O 567.006 -1.45778 -1.24336 0
M  V30 5989 C 567.2 -3.08039 1.81237 0
M  V30 5990 C 567.029 -3.0189 3.33305 0
M  V30 5991 C 565.799 -3.05391 4.02573 0
M  V30 5992 C 567.997 -2.827 4.29634 0
M  V30 5993 N 565.979 -2.89449 5.4138 0
M  V30 5994 C 567.35 -2.75237 5.55558 0
M  V30 5995 C 569.405 -2.67416 4.19992 0
M  V30 5996 C 568.108 -2.54051 6.72942 0
M  V30 5997 C 570.134 -2.47602 5.37073 0
M  V30 5998 C 569.496 -2.40863 6.6194 0
M  V30 5999 H 565.595 -0.629188 0.464378 0
M  V30 6000 H 568.179 -1.1249 1.58916 0
M  V30 6001 H 566.35 -3.63528 1.36756 0
M  V30 6002 H 568.082 -3.71671 1.60134 0
M  V30 6003 H 564.837 -3.14763 3.53866 0
M  V30 6004 H 565.261 -2.84669 6.14241 0
M  V30 6005 H 569.903 -2.71398 3.24196 0
M  V30 6006 H 567.621 -2.48811 7.68842 0
M  V30 6007 H 571.207 -2.36694 5.31477 0
M  V30 6008 H 570.087 -2.25732 7.51009 0
M  V30 6009 N 567.59 -1.07411 -1.15328 0
M  V30 6010 C 568.522 -0.652924 -2.19703 0
M  V30 6011 C 569.535 0.294869 -1.60107 0
M  V30 6012 O 570.724 0.0840932 -1.78302 0
M  V30 6013 C 567.824 0.061434 -3.38844 0
M  V30 6014 C 566.997 -0.902696 -4.27984 0
M  V30 6015 C 566.056 -0.225521 -5.25717 0
M  V30 6016 O 565.082 -0.86676 -5.62562 0
M  V30 6017 N 566.284 1.02858 -5.71315 0
M  V30 6018 H 569.049 -1.55081 -2.56457 0
M  V30 6019 H 566.61 -0.958883 -1.30449 0
M  V30 6020 H 568.602 0.525145 -4.01278 0
M  V30 6021 H 567.172 0.861269 -3.00501 0
M  V30 6022 H 566.392 -1.54551 -3.6264 0
M  V30 6023 H 567.68 -1.55636 -4.84412 0
M  V30 6024 H 567.078 1.56948 -5.43492 0
M  V30 6025 H 565.635 1.43596 -6.35786 0
M  V30 6026 N 569.068 1.32177 -0.85831 0
M  V30 6027 C 570.031 2.27086 -0.310588 0
M  V30 6028 C 571.031 1.51751 0.531806 0
M  V30 6029 O 572.221 1.70794 0.34279 0
M  V30 6030 C 569.353 3.36266 0.560179 0
M  V30 6031 H 570.546 2.77045 -1.1483 0
M  V30 6032 H 568.099 1.42911 -0.632942 0
M  V30 6033 H 568.834 2.9158 1.41956 0
M  V30 6034 H 568.619 3.92077 -0.0428473 0
M  V30 6035 H 570.109 4.06974 0.936056 0
M  V30 6036 N 570.547 0.616602 1.45037 0
M  V30 6037 C 571.793 0.115501 2.02471 0
M  V30 6038 C 572.126 -1.25406 1.4828 0
M  V30 6039 O 571.401 -1.82922 0.661051 0
M  V30 6040 C 571.684 0.0863588 3.59996 0
M  V30 6041 C 571.537 1.48723 4.24501 0
M  V30 6042 C 572.856 -0.596762 4.36035 0
M  V30 6043 H 569.975 0.0434461 0.735718 0
M  V30 6044 H 572.617 0.7903 1.72784 0
M  V30 6045 H 570.767 -0.488277 3.85419 0
M  V30 6046 H 572.439 2.10964 4.10234 0
M  V30 6047 H 570.682 2.04534 3.82555 0
M  V30 6048 H 571.353 1.419 5.3345 0
M  V30 6049 H 573.829 -0.10824 4.15959 0
M  V30 6050 H 572.705 -0.586289 5.4576 0
M  V30 6051 H 572.966 -1.66451 4.09569 0
M  V30 6052 N 572.025 -1.5352 0.356285 0
M  V30 6053 C 573.271 -2.02104 -0.229271 0
M  V30 6054 C 573.626 -1.23923 -1.47176 0
M  V30 6055 O 572.919 -0.321957 -1.88876 0
M  V30 6056 C 573.113 -3.52607 -0.583369 0
M  V30 6057 C 572.942 -4.4536 0.623253 0
M  V30 6058 C 571.712 -4.92446 1.13248 0
M  V30 6059 C 573.91 -4.92375 1.48563 0
M  V30 6060 N 571.892 -5.69183 2.3001 0
M  V30 6061 C 573.263 -5.67362 2.50001 0
M  V30 6062 C 575.318 -4.74464 1.50959 0
M  V30 6063 C 574.021 -6.26341 3.5368 0
M  V30 6064 C 576.047 -5.34302 2.53526 0
M  V30 6065 C 575.409 -6.09166 3.53688 0
M  V30 6066 H 571.508 -0.780595 -0.0468602 0
M  V30 6067 H 574.092 -1.88204 0.49873 0
M  V30 6068 H 572.263 -3.66686 -1.28046 0
M  V30 6069 H 573.995 -3.87922 -1.15321 0
M  V30 6070 H 570.75 -4.6842 0.698562 0
M  V30 6071 H 571.174 -6.12216 2.88998 0
M  V30 6072 H 575.816 -4.16117 0.748785 0
M  V30 6073 H 573.534 -6.8379 4.30648 0
M  V30 6074 H 577.12 -5.22342 2.56223 0
M  V30 6075 H 576 -6.54644 4.31753 0
M  V30 6076 N 573.503 -0.0852151 -1.57369 0
M  V30 6077 C 574.413 0.891712 -2.16992 0
M  V30 6078 C 575.429 1.3174 -1.13669 0
M  V30 6079 O 576.605 1.38735 -1.45995 0
M  V30 6080 C 573.67 2.13635 -2.73059 0
M  V30 6081 C 572.731 1.7658 -3.91303 0
M  V30 6082 C 571.964 2.95111 -4.44686 0
M  V30 6083 O 572.187 4.09539 -3.97032 0
M  V30 6084 O 571.121 2.74149 -5.35841 0
M  V30 6085 H 574.947 0.414477 -3.00858 0
M  V30 6086 H 572.532 0.138598 -1.48756 0
M  V30 6087 H 574.414 2.86595 -3.08935 0
M  V30 6088 H 573.089 2.6043 -1.92244 0
M  V30 6089 H 571.996 1.00831 -3.60255 0
M  V30 6090 H 573.329 1.34557 -4.7345 0
M  V30 6091 N 574.981 1.5647 0.188427 0
M  V30 6092 C 575.914 1.90146 1.26173 0
M  V30 6093 C 576.892 0.762294 1.43624 0
M  V30 6094 O 578.076 1.01395 1.58907 0
M  V30 6095 C 575.203 2.13748 2.62735 0
M  V30 6096 C 574.249 3.36448 2.62116 0
M  V30 6097 S 575.082 4.91364 2.12889 0
M  V30 6098 C 576.238 5.18041 3.51261 0
M  V30 6099 H 576.471 2.80886 0.974192 0
M  V30 6100 H 574.004 1.49335 0.392226 0
M  V30 6101 H 575.962 2.28028 3.41341 0
M  V30 6102 H 574.623 1.23747 2.88696 0
M  V30 6103 H 573.816 3.50109 3.62546 0
M  V30 6104 H 573.418 3.21196 1.91596 0
M  V30 6105 H 575.71 5.0897 4.47164 0
M  V30 6106 H 576.653 6.19764 3.42489 0
M  V30 6107 H 577.061 4.45657 3.46482 0
M  V30 6108 N 576.459 -0.456382 1.50847 0
M  V30 6109 C 577.689 -1.22848 1.66108 0
M  V30 6110 C 578.097 -1.85936 0.349897 0
M  V30 6111 O 577.44 -1.70664 -0.679665 0
M  V30 6112 C 577.502 -2.36722 2.70561 0
M  V30 6113 C 577.166 -1.94154 4.13707 0
M  V30 6114 C 578.163 -1.4557 4.99105 0
M  V30 6115 C 575.848 -2.02426 4.59705 0
M  V30 6116 C 577.842 -1.0582 6.28555 0
M  V30 6117 C 575.529 -1.62287 5.89157 0
M  V30 6118 C 576.527 -1.14064 6.73408 0
M  V30 6119 O 576.215 -0.744873 8.00442 0
M  V30 6120 H 575.947 -0.377105 0.561042 0
M  V30 6121 H 578.501 -0.549431 1.97915 0
M  V30 6122 H 576.731 -3.07844 2.34027 0
M  V30 6123 H 578.42 -2.98646 2.74892 0
M  V30 6124 H 579.186 -1.38589 4.64777 0
M  V30 6125 H 575.065 -2.38908 3.94264 0
M  V30 6126 H 578.609 -0.6811 6.94267 0
M  V30 6127 H 574.506 -1.68932 6.23003 0
M  V30 6128 H 575.274 -0.87242 8.13837 0
M  V30 6129 N 577.937 -1.40673 -0.710563 0
M  V30 6130 C 579.177 -1.40677 -1.48288 0
M  V30 6131 C 579.541 -0.0097193 -1.91998 0
M  V30 6132 O 580.742 0.115381 -2.68552 0
M  V30 6133 C 579.013 -2.37289 -2.67262 0
M  V30 6134 S 580.572 -2.55694 -3.56603 0
M  V30 6135 H 577.39 -0.498545 -0.506926 0
M  V30 6136 H 579.992 -1.76984 -0.830472 0
M  V30 6137 H 578.696 -3.37617 -2.3333 0
M  V30 6138 H 578.227 -2.02282 -3.3741 0
M  V30 6139 H 580.242 -1.81311 -4.61888 0
M  V30 6140 N 579.415 0.9433 -1.26252 0
M  V30 6141 C 580.347 2.04542 -1.03417 0
M  V30 6142 C 581.36 1.62799 0.0046911 0
M  V30 6143 O 582.549 1.76944 -0.235146 0
M  V30 6144 C 579.649 3.34511 -0.543671 0
M  V30 6145 C 578.822 4.05033 -1.65128 0
M  V30 6146 C 577.881 5.13273 -1.1592 0
M  V30 6147 O 576.907 5.38095 -1.85586 0
M  V30 6148 N 578.109 5.805 -0.00649279 0
M  V30 6149 H 580.874 2.24699 -1.98319 0
M  V30 6150 H 578.435 1.11264 -1.1761 0
M  V30 6151 H 580.427 4.04212 -0.198703 0
M  V30 6152 H 578.997 3.11042 0.311711 0
M  V30 6153 H 578.217 3.29275 -2.16729 0
M  V30 6154 H 579.505 4.48903 -2.39508 0
M  V30 6155 H 578.903 5.62767 0.575347 0
M  V30 6156 H 577.46 6.51201 0.279416 0
M  V30 6157 N 580.893 1.08022 1.14757 0
M  V30 6158 C 582.309 0.807072 1.3769 0
M  V30 6159 C 582.509 -0.585504 1.92806 0
M  V30 6160 O 581.565 -1.34301 2.13821 0
M  V30 6161 C 582.878 1.88651 2.34161 0
M  V30 6162 C 584.426 1.91206 2.47809 0
M  V30 6163 C 584.901 2.98253 3.47576 0
M  V30 6164 N 586.392 2.974 3.55117 0
M  V30 6165 C 587.127 3.76872 4.32152 0
M  V30 6166 N 586.623 4.66212 5.12463 0
M  V30 6167 N 588.416 3.6519 4.27309 0
M  V30 6168 H 580.567 1.97824 0.77326 0
M  V30 6169 H 582.83 0.85826 0.402608 0
M  V30 6170 H 582.536 2.88749 2.00791 0
M  V30 6171 H 582.41 1.75244 3.3402 0
M  V30 6172 H 584.797 0.917564 2.80472 0
M  V30 6173 H 584.878 2.08691 1.47925 0
M  V30 6174 H 584.522 3.97907 3.15646 0
M  V30 6175 H 584.452 2.78014 4.47231 0
M  V30 6176 H 586.943 2.32643 2.97801 0
M  V30 6177 H 587.256 5.23468 5.68508 0
M  V30 6178 H 585.601 4.70257 5.11745 0
M  V30 6179 H 588.792 2.94765 3.63636 0
M  V30 6180 H 588.965 4.27366 4.87095 0
M  V30 6181 N 582.371 -1.3172 0.865308 0
M  V30 6182 C 583.321 -2.26157 0.289305 0
M  V30 6183 C 584.305 -1.50428 -0.570977 0
M  V30 6184 O 585.497 -1.71978 -0.418617 0
M  V30 6185 C 582.626 -3.39457 -0.512237 0
M  V30 6186 C 581.712 -4.22561 0.361028 0
M  V30 6187 N 582.103 -4.84501 1.45231 0
M  V30 6188 C 580.401 -4.45739 0.152641 0
M  V30 6189 C 581.102 -5.46586 1.99043 0
M  V30 6190 N 580.078 -5.28119 1.28809 0
M  V30 6191 H 583.88 -2.71581 1.12344 0
M  V30 6192 H 581.394 -1.45932 0.712565 0
M  V30 6193 H 583.391 -4.06133 -0.941379 0
M  V30 6194 H 582.051 -2.95577 -1.34404 0
M  V30 6195 H 583.062 -4.84293 1.83524 0
M  V30 6196 H 579.739 -4.1251 -0.643583 0
M  V30 6197 H 581.129 -6.05817 2.90577 0
M  V30 6198 N 583.85 -0.624285 -1.44708 0
M  V30 6199 C 585.127 -0.0572781 -1.95516 0
M  V30 6200 C 585.507 1.41516 -1.56641 0
M  V30 6201 O 584.855 2.12614 -0.837111 0
M  V30 6202 C 585.065 -0.272944 -3.47931 0
M  V30 6203 C 586.413 -0.162529 -4.24289 0
M  V30 6204 O 587.437 -0.203946 -3.55616 0
M  V30 6205 O 586.296 -0.0616847 -5.46465 0
M  V30 6206 H 583.389 0.0262219 -0.826584 0
M  V30 6207 H 585.936 -0.695512 -1.54793 0
M  V30 6208 H 584.707 -1.29492 -3.69253 0
M  V30 6209 H 584.331 0.399756 -3.95585 0
M  V30 6210 N 585.328 1.53329 -0.364422 0
M  V30 6211 C 586.556 2.05657 0.226424 0
M  V30 6212 C 586.971 1.23801 1.42544 0
M  V30 6213 O 586.328 0.27839 1.80364 0
M  V30 6214 C 586.379 3.56125 0.621056 0
M  V30 6215 O 586.1 4.34879 -0.530304 0
M  V30 6216 C 587.601 4.24706 1.27041 0
M  V30 6217 H 584.821 0.669806 0.0400056 0
M  V30 6218 H 587.365 1.97714 -0.522456 0
M  V30 6219 H 585.52 3.64223 1.31985 0
M  V30 6220 H 585.934 5.24073 -0.211546 0
M  V30 6221 H 587.408 5.3131 1.49711 0
M  V30 6222 H 587.885 3.78354 2.23036 0
M  V30 6223 H 588.491 4.20858 0.613079 0
M  V30 6224 N 586.806 0.0935595 1.57322 0
M  V30 6225 C 588.217 -0.435807 1.81542 0
M  V30 6226 C 588.568 -1.68263 1.00907 0
M  V30 6227 O 587.693 -2.15087 0.237983 0
M  V30 6228 C 588.288 -0.797436 3.29282 0
M  V30 6229 C 586.847 -1.27155 3.54272 0
M  V30 6230 C 585.994 -0.267455 2.76007 0
M  V30 6231 H 588.945 0.31902 1.5546 0
M  V30 6232 H 588.966 -1.6571 3.42521 0
M  V30 6233 H 588.478 0.110206 3.87943 0
M  V30 6234 H 586.579 -2.19696 3.00939 0
M  V30 6235 H 586.692 -1.23445 4.62923 0
M  V30 6236 H 585.056 -0.749282 2.43429 0
M  V30 6237 H 585.839 0.632839 3.37417 0
M  V30 6238 N 588.284 -1.56567 -0.180126 0
M  V30 6239 C 589.247 -1.94852 -1.20686 0
M  V30 6240 C 590.247 -0.831212 -1.3765 0
M  V30 6241 O 591.437 -1.09841 -1.35206 0
M  V30 6242 C 588.569 -2.23565 -2.57355 0
M  V30 6243 H 589.762 -2.86722 -0.879225 0
M  V30 6244 H 587.315 -1.50489 -0.422237 0
M  V30 6245 H 588.05 -1.34381 -2.95148 0
M  V30 6246 H 587.835 -3.04999 -2.46411 0
M  V30 6247 H 589.325 -2.54137 -3.31367 0
M  V30 6248 N 589.762 0.448376 -1.51087 0
M  V30 6249 C 591.01 1.19635 -1.62886 0
M  V30 6250 C 591.331 1.91977 -0.342024 0
M  V30 6251 O 590.601 1.85094 0.641636 0
M  V30 6252 H 589.181 0.444598 -0.600285 0
M  V30 6253 H 591.843 0.515138 -1.87969 0
M  V30 6254 H 590.939 1.93194 -2.45117 0
M  V30 6255 N 591.24 1.41047 0.703093 0
M  V30 6256 C 592.465 1.43537 1.49706 0
M  V30 6257 C 592.89 0.0401853 1.88057 0
M  V30 6258 O 592.248 -0.954785 1.54122 0
M  V30 6259 C 592.296 2.3433 2.74084 0
M  V30 6260 O 591.4 1.79515 3.71279 0
M  V30 6261 H 590.741 0.487454 0.450871 0
M  V30 6262 H 593.271 1.85422 0.86486 0
M  V30 6263 H 593.281 2.49947 3.22476 0
M  V30 6264 H 591.956 3.35708 2.45506 0
M  V30 6265 H 590.533 1.7331 3.30179 0
M  V30 6266 N 592.718 -0.936591 1.26751 0
M  V30 6267 C 593.628 -2.06949 1.10496 0
M  V30 6268 C 594.644 -1.7396 0.037271 0
M  V30 6269 O 595.82 -1.99941 0.241944 0
M  V30 6270 C 592.885 -3.38612 0.744491 0
M  V30 6271 C 591.946 -3.85355 1.89209 0
M  V30 6272 C 591.179 -5.10735 1.54873 0
M  V30 6273 O 591.402 -5.68602 0.452546 0
M  V30 6274 O 590.336 -5.52632 2.38499 0
M  V30 6275 H 594.162 -2.23571 2.05547 0
M  V30 6276 H 591.747 -1.05428 1.05855 0
M  V30 6277 H 593.629 -4.17711 0.556396 0
M  V30 6278 H 592.304 -3.23218 -0.176582 0
M  V30 6279 H 591.211 -3.07182 2.13518 0
M  V30 6280 H 592.544 -4.05277 2.79305 0
M  V30 6281 N 594.196 -1.08629 -1.14182 0
M  V30 6282 C 595.442 -0.828415 -1.85766 0
M  V30 6283 C 595.797 0.638947 -1.81481 0
M  V30 6284 O 595.09 1.46386 -1.23619 0
M  V30 6285 C 595.284 -1.28734 -3.3341 0
M  V30 6286 C 595.113 -2.79778 -3.52071 0
M  V30 6287 C 593.883 -3.47554 -3.66789 0
M  V30 6288 C 596.081 -3.77945 -3.48801 0
M  V30 6289 N 594.063 -4.87107 -3.73631 0
M  V30 6290 C 595.434 -5.03406 -3.61914 0
M  V30 6291 C 597.489 -3.70917 -3.32152 0
M  V30 6292 C 596.192 -6.22673 -3.60098 0
M  V30 6293 C 598.218 -4.89662 -3.31641 0
M  V30 6294 C 597.58 -6.13962 -3.45296 0
M  V30 6295 H 593.679 -0.355884 -0.696327 0
M  V30 6296 H 596.263 -1.38508 -1.36834 0
M  V30 6297 H 594.434 -0.75822 -3.80927 0
M  V30 6298 H 596.166 -0.975649 -3.92764 0
M  V30 6299 H 592.921 -2.97972 -3.68116 0
M  V30 6300 H 593.345 -5.59775 -3.80763 0
M  V30 6301 H 597.987 -2.75749 -3.20504 0
M  V30 6302 H 595.705 -7.1815 -3.70522 0
M  V30 6303 H 599.291 -4.85914 -3.19968 0
M  V30 6304 H 598.171 -7.04307 -3.44851 0
M  V30 6305 N 595.674 1.31259 -0.872281 0
M  V30 6306 C 596.604 2.30929 -0.345554 0
M  V30 6307 C 597.585 1.60449 0.5648 0
M  V30 6308 O 598.77 1.8814 0.481335 0
M  V30 6309 C 595.9 3.44348 0.451823 0
M  V30 6310 C 594.854 4.26435 -0.365641 0
M  V30 6311 C 594.18 5.31785 0.557562 0
M  V30 6312 C 595.48 4.97159 -1.60095 0
M  V30 6313 H 597.174 2.75234 -1.17841 0
M  V30 6314 H 594.72 1.3232 -0.568094 0
M  V30 6315 H 596.673 4.13128 0.830854 0
M  V30 6316 H 595.397 2.98816 1.31821 0
M  V30 6317 H 594.056 3.59326 -0.726649 0
M  V30 6318 H 593.704 4.82502 1.4213 0
M  V30 6319 H 593.404 5.87598 0.0144878 0
M  V30 6320 H 594.928 6.03424 0.933387 0
M  V30 6321 H 596.342 5.58523 -1.29323 0
M  V30 6322 H 594.739 5.62779 -2.08327 0
M  V30 6323 H 595.809 4.24012 -2.35249 0
M  V30 6324 N 597.152 0.631951 1.44375 0
M  V30 6325 C 598.062 -0.073674 2.34484 0
M  V30 6326 C 599.078 -0.834825 1.52665 0
M  V30 6327 O 600.254 -0.786902 1.85391 0
M  V30 6328 C 597.319 -1.04247 3.30656 0
M  V30 6329 C 596.38 -0.280602 4.28382 0
M  V30 6330 C 595.613 -1.20325 5.19959 0
M  V30 6331 O 595.836 -2.44199 5.15484 0
M  V30 6332 O 594.77 -0.687128 5.97965 0
M  V30 6333 H 598.596 0.667477 2.96274 0
M  V30 6334 H 596.181 0.392144 1.44162 0
M  V30 6335 H 598.063 -1.59981 3.89851 0
M  V30 6336 H 596.738 -1.76422 2.71398 0
M  V30 6337 H 595.645 0.319804 3.72731 0
M  V30 6338 H 596.978 0.401144 4.90563 0
M  V30 6339 N 598.631 -1.53133 0.372548 0
M  V30 6340 C 599.856 -2.0625 -0.218098 0
M  V30 6341 C 600.281 -1.24375 -1.41111 0
M  V30 6342 O 599.639 -0.264554 -1.79359 0
M  V30 6343 C 599.687 -3.55858 -0.582876 0
M  V30 6344 O 598.791 -3.76667 -1.67917 0
M  V30 6345 H 598.132 -0.663317 -0.030104 0
M  V30 6346 H 600.662 -1.97477 0.535169 0
M  V30 6347 H 600.672 -3.99007 -0.851925 0
M  V30 6348 H 599.347 -4.14892 0.289428 0
M  V30 6349 H 597.924 -3.45413 -1.40513 0
M  V30 6350 N 600.109 -0.101901 -1.5727 0
M  V30 6351 C 601.355 0.561027 -1.94885 0
M  V30 6352 C 601.688 1.6741 -0.984258 0
M  V30 6353 O 600.963 1.94491 -0.0184767 0
M  V30 6354 C 601.246 1.10982 -3.42571 0
M  V30 6355 C 601.099 0.00133418 -4.498 0
M  V30 6356 C 602.418 2.00608 -3.9172 0
M  V30 6357 H 599.537 0.202467 -0.708644 0
M  V30 6358 H 602.179 -0.173992 -1.89202 0
M  V30 6359 H 600.329 1.73621 -3.47546 0
M  V30 6360 H 602.001 -0.63322 -4.56933 0
M  V30 6361 H 600.244 -0.664143 -4.28686 0
M  V30 6362 H 600.915 0.426253 -5.50352 0
M  V30 6363 H 603.391 1.47864 -3.88941 0
M  V30 6364 H 602.267 2.3593 -4.95609 0
M  V30 6365 H 602.528 2.92608 -3.3141 0
M  V30 6366 N 601.587 1.56661 0.17182 0
M  V30 6367 C 603.003 1.50768 0.52357 0
M  V30 6368 C 603.203 0.806072 1.84675 0
M  V30 6369 O 602.259 0.366233 2.4983 0
M  V30 6370 C 603.572 2.955 0.556793 0
M  V30 6371 C 605.12 3.06303 0.644029 0
M  V30 6372 C 605.595 4.52492 0.708148 0
M  V30 6373 N 607.086 4.56737 0.771051 0
M  V30 6374 C 607.821 5.67196 0.841229 0
M  V30 6375 N 607.317 6.87287 0.872272 0
M  V30 6376 N 609.11 5.55165 0.88021 0
M  V30 6377 H 601.261 2.00679 -0.695817 0
M  V30 6378 H 603.524 0.914219 -0.250814 0
M  V30 6379 H 603.23 3.49986 -0.346774 0
M  V30 6380 H 603.104 3.50119 1.40346 0
M  V30 6381 H 605.491 2.51851 1.53802 0
M  V30 6382 H 605.572 2.5477 -0.229297 0
M  V30 6383 H 605.216 5.07575 -0.181585 0
M  V30 6384 H 605.146 5.01781 1.59761 0
M  V30 6385 H 607.637 3.70274 0.755364 0
M  V30 6386 H 607.95 7.6722 0.92698 0
M  V30 6387 H 606.295 6.89898 0.840557 0
M  V30 6388 H 609.486 4.60263 0.852956 0
M  V30 6389 H 609.659 6.41271 0.931439 0
M  V30 6390 N 603.065 -0.440357 1.51323 0
M  V30 6391 C 604.028 -1.51679 1.71832 0
M  V30 6392 C 605.028 -1.49648 0.588386 0
M  V30 6393 O 606.218 -1.51724 0.855891 0
M  V30 6394 C 603.35 -2.91228 1.77199 0
M  V30 6395 H 604.543 -1.34799 2.67898 0
M  V30 6396 H 602.096 -0.66883 1.41267 0
M  V30 6397 H 602.831 -3.13516 0.829363 0
M  V30 6398 H 602.616 -2.94107 2.59314 0
M  V30 6399 H 604.106 -3.69321 1.94915 0
M  V30 6400 N 604.543 -1.41418 -0.695603 0
M  V30 6401 C 605.773 -1.43921 -1.48224 0
M  V30 6402 C 606.181 -0.0428855 -1.89151 0
M  V30 6403 O 605.524 0.948138 -1.5734 0
M  V30 6404 C 605.586 -2.28466 -2.77567 0
M  V30 6405 C 605.25 -3.76629 -2.58844 0
M  V30 6406 C 606.247 -4.6879 -2.24793 0
M  V30 6407 C 603.932 -4.2067 -2.74485 0
M  V30 6408 C 605.926 -6.02981 -2.06622 0
M  V30 6409 C 603.613 -5.54926 -2.55931 0
M  V30 6410 C 604.611 -6.45897 -2.2205 0
M  V30 6411 O 604.299 -7.77675 -2.03657 0
M  V30 6412 H 604.031 -0.492252 -0.463318 0
M  V30 6413 H 606.585 -1.86347 -0.863952 0
M  V30 6414 H 604.815 -1.80853 -3.41802 0
M  V30 6415 H 606.504 -2.2267 -3.39371 0
M  V30 6416 H 607.27 -4.36055 -2.12323 0
M  V30 6417 H 603.149 -3.50167 -2.9984 0
M  V30 6418 H 606.693 -6.73951 -1.80099 0
M  V30 6419 H 602.59 -5.8724 -2.67991 0
M  V30 6420 H 603.358 -7.88819 -2.1842 0
M  V30 6421 N 606.021 0.929856 -1.27246 0
M  V30 6422 C 606.931 2.0636 -1.11592 0
M  V30 6423 C 607.947 1.73938 -0.046496 0
M  V30 6424 O 609.123 1.9981 -0.252544 0
M  V30 6425 C 606.188 3.38213 -0.762437 0
M  V30 6426 C 605.249 3.84346 -1.9125 0
M  V30 6427 C 604.482 5.09906 -1.57579 0
M  V30 6428 O 604.705 5.68354 -0.482694 0
M  V30 6429 O 603.639 5.51359 -2.41426 0
M  V30 6430 H 607.465 2.22478 -2.0673 0
M  V30 6431 H 605.05 1.04865 -1.06413 0
M  V30 6432 H 606.932 4.1741 -0.57854 0
M  V30 6433 H 605.607 3.23307 0.159439 0
M  V30 6434 H 604.514 3.06045 -2.15144 0
M  V30 6435 H 605.847 4.0379 -2.81451 0
M  V30 6436 N 607.499 1.09233 1.13605 0
M  V30 6437 C 608.446 0.729921 2.18954 0
M  V30 6438 C 609.416 -0.287916 1.63586 0
M  V30 6439 O 610.601 -0.170003 1.90041 0
M  V30 6440 C 607.741 0.154489 3.44754 0
M  V30 6441 C 606.854 1.22613 4.14234 0
M  V30 6442 C 605.989 0.613657 5.27644 0
M  V30 6443 C 605.028 1.66674 5.8897 0
M  V30 6444 N 604.165 1.07545 6.93814 0
M  V30 6445 H 609.005 1.63257 2.49302 0
M  V30 6446 H 606.542 0.815693 1.22413 0
M  V30 6447 H 608.5 -0.196923 4.16735 0
M  V30 6448 H 607.13 -0.711433 3.14863 0
M  V30 6449 H 606.182 1.69485 3.40557 0
M  V30 6450 H 607.494 2.0238 4.55899 0
M  V30 6451 H 606.648 0.210976 6.06333 0
M  V30 6452 H 605.387 -0.215584 4.87223 0
M  V30 6453 H 604.392 2.07899 5.08978 0
M  V30 6454 H 605.617 2.49861 6.31464 0
M  V30 6455 H 603.563 0.267451 6.55455 0
M  V30 6456 H 603.48 1.81011 7.3401 0
M  V30 6457 H 604.748 0.698906 7.7636 0
M  V30 6458 N 608.977 -1.30795 0.87923 0
M  V30 6459 C 609.887 -2.32041 0.345565 0
M  V30 6460 C 610.903 -1.65103 -0.549265 0
M  V30 6461 O 612.079 -1.9645 -0.443763 0
M  V30 6462 C 609.144 -3.43944 -0.436245 0
M  V30 6463 C 608.205 -4.26521 0.48765 0
M  V30 6464 C 607.438 -5.33081 -0.256943 0
M  V30 6465 O 607.661 -5.50762 -1.48381 0
M  V30 6466 O 606.595 -6.00635 0.389985 0
M  V30 6467 H 610.421 -2.79627 1.18501 0
M  V30 6468 H 608.006 -1.3486 0.642885 0
M  V30 6469 H 609.888 -4.12128 -0.879119 0
M  V30 6470 H 608.563 -2.98504 -1.25208 0
M  V30 6471 H 607.47 -3.61057 0.979216 0
M  V30 6472 H 608.803 -4.75551 1.26933 0
M  V30 6473 N 610.455 -0.639598 -1.44038 0
M  V30 6474 C 611.704 -0.144885 -2.01179 0
M  V30 6475 C 612.017 1.24372 -1.50967 0
M  V30 6476 O 613.223 1.83291 -2.00292 0
M  V30 6477 C 611.679 -0.208244 -3.59297 0
M  V30 6478 C 611.287 -1.59869 -4.18504 0
M  V30 6479 C 613.031 0.229568 -4.23879 0
M  V30 6480 C 610.938 -1.61671 -5.68873 0
M  V30 6481 H 609.868 -0.0504005 -0.752314 0
M  V30 6482 H 612.519 -0.799639 -1.65161 0
M  V30 6483 H 610.901 0.513767 -3.92653 0
M  V30 6484 H 612.075 -2.34496 -3.96671 0
M  V30 6485 H 610.39 -1.98131 -3.66242 0
M  V30 6486 H 612.987 0.235758 -5.3418 0
M  V30 6487 H 613.33 1.25848 -3.96822 0
M  V30 6488 H 613.863 -0.440233 -3.95357 0
M  V30 6489 H 610.602 -2.62427 -6.00677 0
M  V30 6490 H 610.122 -0.913489 -5.92803 0
M  V30 6491 H 611.801 -1.35439 -6.32665 0
M  V30 6492 N 611.933 1.52934 -0.380664 0
M  V30 6493 C 612.863 2.29118 0.450268 0
M  V30 6494 C 613.844 1.32153 1.07096 0
M  V30 6495 O 615.029 1.61038 1.08537 0
M  V30 6496 C 612.159 3.09161 1.58231 0
M  V30 6497 C 611.113 4.13938 1.0881 0
M  V30 6498 C 610.439 4.82153 2.31155 0
M  V30 6499 C 611.739 5.22048 0.162146 0
M  V30 6500 H 613.433 2.98826 -0.185361 0
M  V30 6501 H 610.979 1.43715 -0.0905886 0
M  V30 6502 H 612.932 3.61211 2.17036 0
M  V30 6503 H 611.656 2.3717 2.2454 0
M  V30 6504 H 610.315 3.62855 0.522633 0
M  V30 6505 H 609.963 4.06719 2.95953 0
M  V30 6506 H 609.663 5.52966 1.98752 0
M  V30 6507 H 611.187 5.37004 2.90618 0
M  V30 6508 H 612.601 5.6951 0.658126 0
M  V30 6509 H 610.998 6.00057 -0.0717122 0
M  V30 6510 H 612.068 4.78398 -0.791438 0
M  V30 6511 N 613.412 0.11024 1.57214 0
M  V30 6512 C 614.637 -0.561179 1.99664 0
M  V30 6513 C 615.062 -1.59985 0.989266 0
M  V30 6514 O 614.42 -1.81255 -0.0402399 0
M  V30 6515 C 614.468 -1.17189 3.41027 0
M  V30 6516 O 613.572 -2.28755 3.4314 0
M  V30 6517 H 612.913 -0.14101 0.648855 0
M  V30 6518 H 615.443 0.196128 2.03658 0
M  V30 6519 H 615.453 -1.50954 3.79047 0
M  V30 6520 H 614.128 -0.411041 4.13864 0
M  V30 6521 H 612.705 -1.96495 3.16929 0
M  V30 6522 N 614.89 -1.56749 -0.16351 0
M  V30 6523 C 616.306 -1.51043 -0.515567 0
M  V30 6524 C 616.506 -0.815855 -1.84245 0
M  V30 6525 O 615.562 -0.379477 -2.49632 0
M  V30 6526 C 616.875 -2.95791 -0.541114 0
M  V30 6527 C 618.423 -3.0664 -0.627776 0
M  V30 6528 C 618.898 -4.52861 -0.684141 0
M  V30 6529 N 620.389 -4.5714 -0.746818 0
M  V30 6530 C 621.124 -5.67634 -0.811137 0
M  V30 6531 N 620.62 -6.8774 -0.835811 0
M  V30 6532 N 622.413 -5.55624 -0.850756 0
M  V30 6533 H 614.564 -2.00307 0.70645 0
M  V30 6534 H 616.827 -0.912876 0.255659 0
M  V30 6535 H 616.533 -3.49797 0.365329 0
M  V30 6536 H 616.407 -3.50858 -1.38487 0
M  V30 6537 H 618.794 -2.52663 -1.52464 0
M  V30 6538 H 618.875 -2.54645 0.242805 0
M  V30 6539 H 618.519 -5.07472 0.2085 0
M  V30 6540 H 618.449 -5.02621 -1.57098 0
M  V30 6541 H 620.94 -3.70669 -0.735717 0
M  V30 6542 H 621.253 -7.67701 -0.886279 0
M  V30 6543 H 619.598 -6.90334 -0.803958 0
M  V30 6544 H 622.789 -4.60709 -0.828535 0
M  V30 6545 H 622.962 -6.41756 -0.897418 0
M  V30 6546 N 616.368 0.432326 -1.51554 0
M  V30 6547 C 617.784 0.769195 -1.39841 0
M  V30 6548 C 617.984 1.95584 -0.484675 0
M  V30 6549 O 617.04 2.52433 0.0582829 0
M  V30 6550 C 618.353 1.04487 -2.81963 0
M  V30 6551 C 619.901 1.149 -2.91148 0
M  V30 6552 C 620.376 1.45758 -4.34187 0
M  V30 6553 N 621.867 1.52671 -4.37317 0
M  V30 6554 C 622.602 1.78129 -5.4503 0
M  V30 6555 N 622.098 2.01345 -6.62897 0
M  V30 6556 N 623.891 1.79953 -5.32516 0
M  V30 6557 H 616.042 -0.349122 -2.09511 0
M  V30 6558 H 618.305 -0.0938113 -0.943347 0
M  V30 6559 H 618.011 0.24557 -3.50842 0
M  V30 6560 H 617.885 1.97119 -3.21596 0
M  V30 6561 H 620.272 1.93891 -2.22464 0
M  V30 6562 H 620.353 0.201568 -2.55005 0
M  V30 6563 H 619.997 0.672917 -5.03423 0
M  V30 6564 H 619.927 2.41715 -4.67848 0
M  V30 6565 H 622.418 1.36612 -3.52343 0
M  V30 6566 H 622.731 2.20155 -7.40778 0
M  V30 6567 H 621.076 1.98657 -6.66003 0
M  V30 6568 H 624.267 1.61337 -4.39418 0
M  V30 6569 H 624.44 1.99455 -6.1654 0
M  V30 6570 N 617.846 1.41785 0.688094 0
M  V30 6571 C 619.094 1.41264 1.4453 0
M  V30 6572 C 619.415 0.0252946 1.94984 0
M  V30 6573 O 618.685 -0.934081 1.72197 0
M  V30 6574 H 617.265 0.519998 0.536294 0
M  V30 6575 H 619.927 1.7709 0.813941 0
M  V30 6576 H 619.023 2.10439 2.30482 0
M  V30 6577 O 619.363 -0.830368 1.38518 0
M  V30 6578 H 620.054 -1.47302 1.25785 0
M  V30 END ATOM
M  V30 BEGIN BOND
M  V30 END BOND
M  V30 END CTAB
M  END
$$$$
