drugbank_target|P61160 Actin-related protein 2 (DB08235; DB08236)
 OpenBabel12092120503D

  0  0  0     0  0            999 V3000
M  V30 BEGIN CTAB
M  V30 COUNTS 6340 6402 0 0 0
M  V30 BEGIN ATOM
M  V30 1 H -0.908 1.98254 -0.117106 0
M  V30 2 N 0 1.576 0 0
M  V30 3 C 0.933 2.03868 1.02534 0
M  V30 4 C 1.911 0.928543 1.3348 0
M  V30 5 O 3.095 1.19667 1.45644 0
M  V30 6 C 0.222 2.43627 2.35294 0
M  V30 7 C -0.732 3.65373 2.2001 0
M  V30 8 S 0.101 5.13292 1.52614 0
M  V30 9 C 1.257 5.56322 2.86805 0
M  V30 10 H 1.49 2.90518 0.631377 0
M  V30 11 H -0.977 1.52953 0.210867 0
M  V30 12 H 0.981 2.67203 3.11629 0
M  V30 13 H -0.358 1.57376 2.7183 0
M  V30 14 H -1.165 3.90944 3.18086 0
M  V30 15 H -1.563 3.418 1.51819 0
M  V30 16 H 0.729 5.58782 3.83104 0
M  V30 17 H 1.672 6.56266 2.65933 0
M  V30 18 H 2.08 4.83886 2.90714 0
M  V30 19 N 1.4781 -0.272755 1.55222 0
M  V30 20 C 2.7551 -1.02562 1.66555 0
M  V30 21 C 3.1351 -2.04282 0.532189 0
M  V30 22 O 2.4831 -2.23662 -0.467717 0
M  V30 23 C 2.6931 -1.6822 3.05782 0
M  V30 24 C 4.0411 -2.19373 3.63539 0
M  V30 25 O 5.0651 -1.78206 3.08417 0
M  V30 26 O 3.9241 -2.94883 4.60115 0
M  V30 27 H 1.0181 -0.475755 0.676451 0
M  V30 28 H 3.5641 -0.268593 1.67561 0
M  V30 29 H 2.3361 -0.945112 3.79715 0
M  V30 30 H 1.9591 -2.50609 3.08676 0
M  V30 31 N 2.9562 -1.48159 -0.537278 0
M  V30 32 C 4.1812 -1.59707 -1.32319 0
M  V30 33 C 4.6062 -0.254859 -1.86365 0
M  V30 34 O 3.9642 0.772378 -1.64024 0
M  V30 35 C 4.0122 -2.6412 -2.45505 0
M  V30 36 O 3.1162 -2.20774 -3.48328 0
M  V30 37 H 2.4572 -0.535791 -0.392204 0
M  V30 38 H 4.9872 -1.94092 -0.647268 0
M  V30 39 H 4.9972 -2.85166 -2.91795 0
M  V30 40 H 3.6722 -3.61567 -2.05528 0
M  V30 41 H 2.2492 -2.09911 -3.08207 0
M  V30 42 N 4.4343 0.785586 -1.36625 0
M  V30 43 C 5.3663 1.90711 -1.2713 0
M  V30 44 C 6.3793 1.61688 -0.189986 0
M  V30 45 O 7.5683 1.72864 -0.445014 0
M  V30 46 C 4.6683 3.25611 -0.939713 0
M  V30 47 C 3.8413 3.82385 -2.12369 0
M  V30 48 C 2.9003 4.95732 -1.76456 0
M  V30 49 O 1.9263 5.12047 -2.48589 0
M  V30 50 N 3.1283 5.76258 -0.700492 0
M  V30 51 H 5.8933 1.99376 -2.23762 0
M  V30 52 H 3.4543 0.964041 -1.30069 0
M  V30 53 H 5.4463 3.98937 -0.680554 0
M  V30 54 H 4.0163 3.12538 -0.0624074 0
M  V30 55 H 3.2363 3.01001 -2.54543 0
M  V30 56 H 4.5243 4.17047 -2.9146 0
M  V30 57 H 3.9223 5.65609 -0.101624 0
M  V30 58 H 2.4793 6.4987 -0.501165 0
M  V30 59 N 5.9124 1.20967 1.01018 0
M  V30 60 C 7.1604 1.02172 1.74371 0
M  V30 61 C 7.4814 -0.446414 1.89821 0
M  V30 62 O 6.7514 -1.32234 1.44537 0
M  V30 63 H 5.3314 0.375066 0.646014 0
M  V30 64 H 7.9934 1.52187 1.21758 0
M  V30 65 H 7.0894 1.48538 2.74487 0
M  V30 66 N 7.3905 -1.2043 1.01659 0
M  V30 67 C 8.8065 -1.41852 0.731442 0
M  V30 68 C 9.0065 -1.89358 -0.688898 0
M  V30 69 O 8.0625 -2.06247 -1.45666 0
M  V30 70 C 9.3755 -2.44019 1.75714 0
M  V30 71 C 10.9235 -2.57785 1.77527 0
M  V30 72 C 11.3985 -3.63194 2.79023 0
M  V30 73 N 12.8895 -3.70678 2.77763 0
M  V30 74 C 13.6245 -4.51897 3.52954 0
M  V30 75 N 13.1205 -5.36921 4.37821 0
M  V30 76 N 14.9135 -4.4643 3.41551 0
M  V30 77 H 7.0645 -0.879093 1.93354 0
M  V30 78 H 9.3275 -0.448425 0.835236 0
M  V30 79 H 9.0335 -2.1611 2.77469 0
M  V30 80 H 8.9075 -3.43007 1.56927 0
M  V30 81 H 11.2945 -2.85023 0.764569 0
M  V30 82 H 11.3755 -1.58992 2.00387 0
M  V30 83 H 11.0195 -3.36699 3.80258 0
M  V30 84 H 10.9495 -4.61609 2.53425 0
M  V30 85 H 13.4405 -3.09944 2.16201 0
M  V30 86 H 13.7535 -5.95981 4.91962 0
M  V30 87 H 12.0985 -5.36424 4.41899 0
M  V30 88 H 15.2895 -3.79042 2.74672 0
M  V30 89 H 15.4625 -5.09491 4.00404 0
M  V30 90 N 8.8686 -0.792821 -1.36206 0
M  V30 91 C 9.8156 -0.191653 -2.30003 0
M  V30 92 C 10.7856 0.666453 -1.52143 0
M  V30 93 O 11.9706 0.61442 -1.80636 0
M  V30 94 C 9.1106 0.664848 -3.38635 0
M  V30 95 C 8.2236 -0.212175 -4.31479 0
M  V30 96 C 7.3586 0.651022 -5.27196 0
M  V30 97 C 6.3976 -0.227247 -6.11678 0
M  V30 98 N 5.5346 0.595127 -6.99573 0
M  V30 99 H 10.3746 -0.996978 -2.80828 0
M  V30 100 H 7.9116 -0.503206 -1.38225 0
M  V30 101 H 9.8696 1.17645 -4.00269 0
M  V30 102 H 8.4996 1.43557 -2.89122 0
M  V30 103 H 7.5516 -0.841777 -3.70969 0
M  V30 104 H 8.8636 -0.888751 -4.90818 0
M  V30 105 H 8.0176 1.2283 -5.94136 0
M  V30 106 H 6.7566 1.36121 -4.68319 0
M  V30 107 H 5.7616 -0.816904 -5.43697 0
M  V30 108 H 6.9866 -0.93509 -6.72631 0
M  V30 109 H 4.9326 1.28955 -6.432 0
M  V30 110 H 4.8496 -0.0236952 -7.55996 0
M  V30 111 H 6.1176 1.15613 -7.70879 0
M  V30 112 N 10.3467 1.47872 -0.545128 0
M  V30 113 C 11.5927 2.02793 -0.0166104 0
M  V30 114 C 11.9257 1.41987 1.32489 0
M  V30 115 O 11.2007 0.571045 1.85928 0
M  V30 116 C 11.4837 3.59989 0.0893294 0
M  V30 117 C 11.3367 4.3125 -1.27841 0
M  V30 118 C 12.6557 4.32606 0.808724 0
M  V30 119 H 9.7747 0.736962 -0.00751035 0
M  V30 120 H 12.4167 1.76433 -0.705085 0
M  V30 121 H 10.5667 3.82579 0.675681 0
M  V30 122 H 12.2387 4.20035 -1.90704 0
M  V30 123 H 10.4817 3.92076 -1.85632 0
M  V30 124 H 11.1527 5.39736 -1.15713 0
M  V30 125 H 13.6287 4.14936 0.310992 0
M  V30 126 H 12.5047 5.42251 0.851782 0
M  V30 127 H 12.7657 4.00963 1.86229 0
M  V30 128 N 11.8248 0.280983 1.55075 0
M  V30 129 C 13.0708 -0.33461 2.00021 0
M  V30 130 C 13.4038 -1.55063 1.16915 0
M  V30 131 O 12.6788 -1.93006 0.240646 0
M  V30 132 C 12.9618 -0.711007 3.53011 0
M  V30 133 C 12.8148 0.512766 4.46868 0
M  V30 134 C 14.1338 -1.54522 4.12081 0
M  V30 135 H 11.2528 -0.120147 0.727141 0
M  V30 136 H 13.8948 0.389097 1.85973 0
M  V30 137 H 12.0448 -1.32761 3.65112 0
M  V30 138 H 13.7168 1.15131 4.46702 0
M  V30 139 H 11.9598 1.14975 4.18286 0
M  V30 140 H 12.6308 0.205556 5.51617 0
M  V30 141 H 15.1068 -1.02442 4.03293 0
M  V30 142 H 13.9828 -1.77739 5.19327 0
M  V30 143 H 14.2438 -2.52813 3.62682 0
M  V30 144 N 13.3029 -1.57598 0.00835791 0
M  V30 145 C 14.5489 -1.91211 -0.675732 0
M  V30 146 C 14.8819 -0.883139 -1.72958 0
M  V30 147 O 14.1569 0.097016 -1.94258 0
M  V30 148 C 14.4399 -3.35379 -1.31123 0
M  V30 149 C 14.2929 -4.48999 -0.268356 0
M  V30 150 C 15.6119 -3.7912 -2.23508 0
M  V30 151 H 12.7309 -0.695374 -0.244179 0
M  V30 152 H 15.3729 -1.89901 0.0613655 0
M  V30 153 H 13.5229 -3.36626 -1.93946 0
M  V30 154 H 15.1949 -4.59887 0.360844 0
M  V30 155 H 13.4379 -4.31873 0.408482 0
M  V30 156 H 14.1089 -5.46851 -0.752218 0
M  V30 157 H 16.5849 -3.79477 -1.70693 0
M  V30 158 H 15.4609 -4.80729 -2.64936 0
M  V30 159 H 15.7219 -3.13455 -3.11766 0
M  V30 160 N 14.781 0.264519 -1.55364 0
M  V30 161 C 16.021 1.00254 -1.78125 0
M  V30 162 C 16.385 1.83187 -0.575017 0
M  V30 163 O 17.586 2.60029 -0.681042 0
M  V30 164 C 15.857 1.85478 -3.05504 0
M  V30 165 S 17.416 2.6543 -3.49417 0
M  V30 166 H 14.234 0.337522 -0.625779 0
M  V30 167 H 16.836 0.272111 -1.93597 0
M  V30 168 H 15.54 1.23491 -3.9138 0
M  V30 169 H 15.071 2.62827 -2.92721 0
M  V30 170 H 17.086 3.87958 -3.09359 0
M  V30 171 N 16.2591 1.48442 0.529413 0
M  V30 172 C 17.5361 1.46978 1.29062 0
M  V30 173 C 17.9161 0.181769 2.10316 0
M  V30 174 O 17.2641 -0.836481 2.12639 0
M  V30 175 C 17.4741 2.7321 2.17157 0
M  V30 176 C 18.8221 3.21562 2.77278 0
M  V30 177 O 19.8461 2.74131 2.27444 0
M  V30 178 O 18.7051 4.04094 3.67927 0
M  V30 179 H 15.7991 0.587003 0.582543 0
M  V30 180 H 18.3451 1.60676 0.546021 0
M  V30 181 H 17.1171 3.58465 1.56903 0
M  V30 182 H 16.7401 2.62235 2.98862 0
M  V30 183 N 17.7372 -0.778329 1.37039 0
M  V30 184 C 18.6852 -1.91278 1.32345 0
M  V30 185 C 19.6792 -1.68051 0.213331 0
M  V30 186 O 20.8852 -1.75922 0.38098 0
M  V30 187 H 17.2602 -0.628909 0.412283 0
M  V30 188 H 19.2312 -1.92355 2.28127 0
M  V30 189 C 17.9802 -3.28455 1.14073 0
M  V30 190 H 17.3032 -3.46901 1.98746 0
M  V30 191 H 18.7432 -4.08152 1.14837 0
M  V30 192 C 17.2022 -3.36548 -0.154015 0
M  V30 193 O 17.7322 -3.85186 -1.13993 0
M  V30 194 N 15.9382 -2.89894 -0.202475 0
M  V30 195 H 15.4852 -2.50504 0.600476 0
M  V30 196 H 15.4432 -2.9569 -1.06841 0
M  V30 197 N 19.2153 -1.21501 -1.00376 0
M  V30 198 C 20.4633 -1.03095 -1.73827 0
M  V30 199 C 20.7843 0.436341 -1.90055 0
M  V30 200 O 20.0543 1.31466 -1.45236 0
M  V30 201 H 18.6343 -0.378487 -0.644016 0
M  V30 202 H 21.2963 -1.52831 -1.20949 0
M  V30 203 H 20.3923 -1.49991 -2.73695 0
M  V30 204 N 20.6934 1.19889 -1.02296 0
M  V30 205 C 21.9214 1.9339 -0.735399 0
M  V30 206 C 22.3364 1.75148 0.704887 0
M  V30 207 O 21.6934 1.06954 1.47875 0
M  V30 208 C 21.7444 3.45313 -1.06962 0
M  V30 209 O 21.4654 3.62964 -2.45334 0
M  V30 210 C 22.9664 4.35948 -0.804021 0
M  V30 211 H 20.1864 0.61448 -0.269546 0
M  V30 212 H 22.7304 1.522 -1.36585 0
M  V30 213 H 20.8854 3.84359 -0.484455 0
M  V30 214 H 21.2994 4.56886 -2.57595 0
M  V30 215 H 22.7734 5.41174 -1.0879 0
M  V30 216 H 23.2504 4.3842 0.261691 0
M  V30 217 H 23.8564 4.02574 -1.37164 0
M  V30 218 N 22.1715 0.800033 1.35784 0
M  V30 219 C 23.4195 0.376597 1.9856 0
M  V30 220 C 23.7405 -1.05812 1.63795 0
M  V30 221 O 23.0105 -1.73103 0.917171 0
M  V30 222 H 21.5905 0.136261 0.734467 0
M  V30 223 H 24.2525 1.02442 1.65806 0
M  V30 224 H 23.3485 0.477002 3.08433 0
M  V30 225 N 23.6496 -1.47581 0.552962 0
M  V30 226 C 24.8966 -2.02482 0.0273243 0
M  V30 227 C 25.2246 -1.42776 -1.32081 0
M  V30 228 O 24.4796 -0.571393 -1.87173 0
M  V30 229 C 24.7786 -3.57199 -0.119728 0
M  V30 230 C 24.4446 -4.35804 1.15697 0
M  V30 231 C 23.1066 -4.57 1.50681 0
M  V30 232 C 25.4586 -4.81167 2.00319 0
M  V30 233 C 22.7866 -5.20807 2.70142 0
M  V30 234 C 25.1386 -5.46293 3.18978 0
M  V30 235 C 23.8026 -5.65722 3.54281 0
M  V30 236 H 23.0726 -0.740933 0.00999866 0
M  V30 237 H 25.7196 -1.77302 0.72362 0
M  V30 238 H 24.0246 -3.81348 -0.89896 0
M  V30 239 H 25.7216 -3.97324 -0.541718 0
M  V30 240 H 22.3116 -4.19582 0.874561 0
M  V30 241 H 26.4956 -4.64574 1.74599 0
M  V30 242 H 21.7516 -5.34045 2.97668 0
M  V30 243 H 25.9256 -5.80407 3.84838 0
M  V30 244 H 23.5526 -6.14936 4.46942 0
M  V30 245 N 25.1277 -0.289203 -1.54924 0
M  V30 246 C 26.3737 0.323998 -2.00195 0
M  V30 247 C 26.7067 1.54441 -1.17735 0
M  V30 248 O 25.9817 1.92875 -0.250878 0
M  V30 249 C 26.2647 0.692276 -3.53383 0
M  V30 250 C 26.1177 -0.536457 -4.46589 0
M  V30 251 C 27.4367 1.52335 -4.12895 0
M  V30 252 H 24.5557 0.116289 -0.727768 0
M  V30 253 H 27.1977 -0.398954 -1.85764 0
M  V30 254 H 25.3477 1.30822 -3.65811 0
M  V30 255 H 27.0197 -1.17499 -4.46085 0
M  V30 256 H 25.2627 -1.17192 -4.1767 0
M  V30 257 H 25.9337 -0.234806 -5.515 0
M  V30 258 H 28.4097 1.00302 -4.0383 0
M  V30 259 H 27.2857 1.74982 -5.20262 0
M  V30 260 H 27.5467 2.50886 -3.64018 0
M  V30 261 N 26.6058 1.57591 -0.0167156 0
M  V30 262 C 27.5528 2.09462 0.969251 0
M  V30 263 C 28.5228 0.99381 1.33089 0
M  V30 264 O 29.7078 1.26726 1.42636 0
M  V30 265 C 26.8478 2.61622 2.25051 0
M  V30 266 C 25.9608 3.85666 1.94642 0
M  V30 267 C 25.0958 4.26266 3.16972 0
M  V30 268 C 24.1348 5.43101 2.82326 0
M  V30 269 N 23.2718 5.78915 3.97243 0
M  V30 270 H 28.1118 2.93428 0.519997 0
M  V30 271 H 25.6488 1.45044 0.245087 0
M  V30 272 H 27.6068 2.89949 2.99976 0
M  V30 273 H 26.2368 1.80505 2.67615 0
M  V30 274 H 25.2888 3.64145 1.10013 0
M  V30 275 H 26.6008 4.70678 1.65117 0
M  V30 276 H 25.7548 4.55963 4.00228 0
M  V30 277 H 24.4938 3.39996 3.49648 0
M  V30 278 H 23.4988 5.1311 1.97479 0
M  V30 279 H 24.7238 6.3106 2.50879 0
M  V30 280 H 22.6698 4.95602 4.29785 0
M  V30 281 H 22.5868 6.58539 3.71299 0
M  V30 282 H 23.8548 6.13212 4.81239 0
M  V30 283 N 28.0839 -0.256276 1.55502 0
M  V30 284 C 29.3239 -0.993081 1.78654 0
M  V30 285 C 29.6879 -1.8288 0.584724 0
M  V30 286 O 30.8889 -2.59665 0.694822 0
M  V30 287 C 29.1599 -1.83856 3.06483 0
M  V30 288 S 30.7189 -2.63573 3.5082 0
M  V30 289 H 27.5369 -0.334199 0.62756 0
M  V30 290 H 30.1389 -0.26184 1.93739 0
M  V30 291 H 28.8429 -1.21414 3.92029 0
M  V30 292 H 28.3739 -2.61271 2.94111 0
M  V30 293 H 30.3889 -3.86312 3.11412 0
M  V30 294 N 29.562 -1.4872 -0.521534 0
M  V30 295 C 30.81 -1.56857 -1.27437 0
M  V30 296 C 31.131 -0.247982 -1.93417 0
M  V30 297 O 30.401 0.731151 -1.81744 0
M  V30 298 H 28.981 -0.577885 -0.473347 0
M  V30 299 H 31.643 -1.85233 -0.606205 0
M  V30 300 H 30.739 -2.35402 -2.0492 0
M  V30 301 N 31.0401 0.771051 -1.3745 0
M  V30 302 C 32.2701 1.55789 -1.35696 0
M  V30 303 C 32.6781 1.89107 0.0594523 0
M  V30 304 O 32.0211 1.51984 1.03183 0
M  V30 305 C 32.0831 2.89515 -2.13123 0
M  V30 306 C 31.7471 2.78829 -3.62082 0
M  V30 307 C 32.7441 2.49812 -4.5595 0
M  V30 308 C 30.4291 2.9683 -4.05213 0
M  V30 309 C 32.4231 2.38923 -5.90927 0
M  V30 310 C 30.1101 2.85562 -5.40276 0
M  V30 311 C 31.1081 2.56649 -6.32946 0
M  V30 312 O 30.7961 2.45408 -7.65526 0
M  V30 313 H 30.5281 0.489257 -0.466481 0
M  V30 314 H 33.0821 0.963446 -1.81403 0
M  V30 315 H 31.3121 3.51081 -1.62107 0
M  V30 316 H 33.0011 3.50915 -2.03994 0
M  V30 317 H 33.7671 2.3559 -4.23937 0
M  V30 318 H 29.6461 3.18335 -3.33442 0
M  V30 319 H 33.1901 2.16277 -6.63227 0
M  V30 320 H 29.0871 2.99351 -5.71891 0
M  V30 321 H 29.8551 2.60753 -7.75855 0
M  V30 322 N 32.5182 1.22032 0.997298 0
M  V30 323 C 33.4812 0.987909 2.06816 0
M  V30 324 C 34.4812 -0.0440084 1.6074 0
M  V30 325 O 35.6712 0.194053 1.73116 0
M  V30 326 C 32.8032 0.49132 3.37341 0
M  V30 327 H 33.9962 1.93803 2.28868 0
M  V30 328 H 31.5492 1.03838 1.16822 0
M  V30 329 H 32.2842 -0.463364 3.20973 0
M  V30 330 H 32.0692 1.23575 3.72118 0
M  V30 331 H 33.5592 0.348824 4.16141 0
M  V30 332 N 33.9963 -1.19345 1.0293 0
M  V30 333 C 35.2443 -1.88665 0.724574 0
M  V30 334 C 35.5653 -1.80036 -0.749144 0
M  V30 335 O 34.8353 -1.2111 -1.53978 0
M  V30 336 H 33.4153 -0.698406 0.265025 0
M  V30 337 H 36.0773 -1.44885 1.30362 0
M  V30 338 H 35.1733 -2.94987 1.01926 0
M  V30 339 N 35.4744 -0.807222 -1.35358 0
M  V30 340 C 36.6994 -0.399309 -2.0352 0
M  V30 341 C 37.1244 0.981986 -1.60433 0
M  V30 342 O 36.4824 1.63601 -0.781299 0
M  V30 343 C 36.5304 -0.491552 -3.57234 0
M  V30 344 O 35.6344 0.494754 -4.09421 0
M  V30 345 H 34.9754 -0.166682 -0.642739 0
M  V30 346 H 37.5054 -1.09328 -1.72941 0
M  V30 347 H 37.5154 -0.361588 -4.06395 0
M  V30 348 H 36.1904 -1.49907 -3.87944 0
M  V30 349 H 34.7674 0.324977 -3.71481 0
M  V30 350 N 36.9525 1.47285 -0.560781 0
M  V30 351 C 37.9005 2.31756 0.197942 0
M  V30 352 C 38.8945 1.43146 0.905854 0
M  V30 353 O 40.1005 1.59891 0.826733 0
M  V30 354 H 36.4755 0.747438 0.0827049 0
M  V30 355 H 38.4465 2.9359 -0.533629 0
M  V30 356 C 37.1955 3.25874 1.21249 0
M  V30 357 H 36.5185 3.94023 0.67719 0
M  V30 358 H 37.9585 3.87803 1.71419 0
M  V30 359 C 36.4175 2.49651 2.26221 0
M  V30 360 O 36.9475 2.24355 3.33208 0
M  V30 361 N 35.1535 2.10597 2.00243 0
M  V30 362 H 34.7005 2.31369 1.13252 0
M  V30 363 H 34.6585 1.59913 2.70694 0
M  V30 364 N 38.4306 0.297415 1.54768 0
M  V30 365 C 39.6776 -0.312913 2.00068 0
M  V30 366 C 40.0056 -1.54171 1.18582 0
M  V30 367 O 39.2606 -1.94108 0.249133 0
M  V30 368 C 39.5596 -0.717561 3.50123 0
M  V30 369 C 39.2256 0.409095 4.4904 0
M  V30 370 C 37.8876 0.718399 4.75807 0
M  V30 371 C 40.2396 1.16717 5.07963 0
M  V30 372 C 37.5676 1.78896 5.5876 0
M  V30 373 C 39.9196 2.22762 5.92081 0
M  V30 374 C 38.5836 2.54303 6.1716 0
M  V30 375 H 37.8536 -0.114503 0.7321 0
M  V30 376 H 40.5006 0.415767 1.86932 0
M  V30 377 H 38.8056 -1.52627 3.60849 0
M  V30 378 H 40.5026 -1.20091 3.82595 0
M  V30 379 H 37.0926 0.157918 4.28309 0
M  V30 380 H 41.2766 0.941466 4.87289 0
M  V30 381 H 36.5326 2.0381 5.7643 0
M  V30 382 H 40.7066 2.81962 6.36765 0
M  V30 383 H 38.3336 3.3739 6.81229 0
M  V30 384 N 39.9087 -1.5758 0.0250728 0
M  V30 385 C 41.3197 -1.79476 -0.514323 0
M  V30 386 C 41.6707 -0.934956 -1.72491 0
M  V30 387 O 40.7957 -0.144245 -2.15919 0
M  V30 388 C 41.3907 -3.25503 -0.939842 0
M  V30 389 C 39.9497 -3.48408 -1.42438 0
M  V30 390 C 39.0967 -2.74583 -0.387201 0
M  V30 391 H 42.0477 -1.567 0.25113 0
M  V30 392 H 42.0687 -3.34992 -1.80445 0
M  V30 393 H 41.5807 -3.88056 -0.0585628 0
M  V30 394 H 39.6817 -2.91103 -2.32572 0
M  V30 395 H 39.7947 -4.57119 -1.43455 0
M  V30 396 H 38.1587 -2.39942 -0.854409 0
M  V30 397 H 38.9417 -3.39849 0.485543 0
M  V30 398 N 41.3868 0.248026 -1.55636 0
M  V30 399 C 42.2968 1.32859 -1.93354 0
M  V30 400 C 43.3128 1.52719 -0.833838 0
M  V30 401 O 44.4888 1.66363 -1.13513 0
M  V30 402 C 41.5538 2.66337 -2.21958 0
M  V30 403 C 40.6148 2.55008 -3.45354 0
M  V30 404 C 39.8478 3.82121 -3.72584 0
M  V30 405 O 40.0708 4.83951 -3.01907 0
M  V30 406 O 39.0048 3.80822 -4.6611 0
M  V30 407 H 42.8308 1.03862 -2.85388 0
M  V30 408 H 40.4158 0.448686 -1.42503 0
M  V30 409 H 42.2978 3.45216 -2.4167 0
M  V30 410 H 40.9728 2.95068 -1.33103 0
M  V30 411 H 39.8798 1.7442 -3.30951 0
M  V30 412 H 41.2128 2.31222 -4.34508 0
M  V30 413 N 42.8649 1.48995 0.513639 0
M  V30 414 C 43.8149 1.61127 1.61314 0
M  V30 415 C 44.7989 0.467521 1.53958 0
M  V30 416 O 45.9909 0.719826 1.61702 0
M  V30 417 C 43.1199 1.66937 2.99978 0
M  V30 418 C 42.2059 2.86847 3.12377 0
M  V30 419 N 42.5969 4.11078 2.94701 0
M  V30 420 C 40.8949 2.84521 3.43459 0
M  V30 421 C 41.5959 4.91615 3.10949 0
M  V30 422 N 40.5719 4.24739 3.3926 0
M  V30 423 H 44.3739 2.54909 1.46282 0
M  V30 424 H 41.8879 1.45593 0.719483 0
M  V30 425 H 43.8849 1.73725 3.78979 0
M  V30 426 H 42.5449 0.742831 3.16089 0
M  V30 427 H 43.5559 4.41258 2.71131 0
M  V30 428 H 40.2329 2.01192 3.65825 0
M  V30 429 H 41.6229 6.00264 3.01882 0
M  V30 430 N 44.343 -0.763751 1.37857 0
M  V30 431 C 45.592 -1.51789 1.32827 0
M  V30 432 C 45.905 -1.95426 -0.0823719 0
M  V30 433 O 47.111 -2.70298 -0.255172 0
M  V30 434 C 45.567 -2.74133 2.33193 0
M  V30 435 C 45.175 -2.37562 3.79827 0
M  V30 436 C 46.919 -3.52054 2.37188 0
M  V30 437 C 44.826 -3.56456 4.71904 0
M  V30 438 H 43.756 -0.569896 0.493695 0
M  V30 439 H 46.407 -0.835822 1.63359 0
M  V30 440 H 44.789 -3.4427 1.9569 0
M  V30 441 H 45.963 -1.75157 4.26212 0
M  V30 442 H 44.278 -1.72798 3.78853 0
M  V30 443 H 46.875 -4.40437 3.03182 0
M  V30 444 H 47.218 -3.92486 1.38782 0
M  V30 445 H 47.751 -2.88921 2.7344 0
M  V30 446 H 44.49 -3.21099 5.71468 0
M  V30 447 H 44.01 -4.17938 4.30218 0
M  V30 448 H 45.689 -4.23168 4.89426 0
M  V30 449 N 45.8211 -1.22559 -0.990812 0
M  V30 450 C 47.0681 -1.05141 -1.73065 0
M  V30 451 C 47.3961 0.413191 -1.9006 0
M  V30 452 O 46.6511 1.32257 -1.44245 0
M  V30 453 C 46.9501 -1.71011 -3.13831 0
M  V30 454 C 46.6161 -3.20911 -3.16745 0
M  V30 455 C 45.2781 -3.61812 -3.17247 0
M  V30 456 C 47.6301 -4.16846 -3.12872 0
M  V30 457 C 44.9581 -4.97127 -3.1158 0
M  V30 458 C 47.3101 -5.5214 -3.08746 0
M  V30 459 C 45.9741 -5.92419 -3.07565 0
M  V30 460 H 45.2441 -0.384738 -0.633291 0
M  V30 461 H 47.8911 -1.5235 -1.16025 0
M  V30 462 H 46.1961 -1.16133 -3.74193 0
M  V30 463 H 47.8931 -1.55023 -3.69823 0
M  V30 464 H 44.4831 -2.88344 -3.17105 0
M  V30 465 H 48.6671 -3.86263 -3.11632 0
M  V30 466 H 43.9231 -5.27562 -3.09012 0
M  V30 467 H 48.0971 -6.26201 -3.04705 0
M  V30 468 H 45.7241 -6.97236 -3.02929 0
M  V30 469 N 47.2992 1.18797 -1.03562 0
M  V30 470 C 48.7102 1.70322 -0.764676 0
M  V30 471 C 49.0612 1.82708 0.714996 0
M  V30 472 O 48.1862 1.50299 1.55689 0
M  V30 473 C 48.7812 3.09356 -1.38145 0
M  V30 474 C 47.3402 3.58114 -1.15895 0
M  V30 475 C 46.4872 2.34798 -1.4753 0
M  V30 476 H 49.4382 1.03543 -1.20268 0
M  V30 477 H 49.4592 3.72378 -0.781977 0
M  V30 478 H 48.9712 3.00309 -2.45837 0
M  V30 479 H 47.0722 3.72464 -0.100544 0
M  V30 480 H 47.1852 4.4184 -1.8524 0
M  V30 481 H 45.5492 2.38464 -0.894829 0
M  V30 482 H 46.3322 2.28375 -2.56319 0
M  V30 483 N 48.7773 0.814389 1.34928 0
M  V30 484 C 49.7403 0.235759 2.27984 0
M  V30 485 C 50.7403 -0.581412 1.49921 0
M  V30 486 O 51.9303 -0.398758 1.69575 0
M  V30 487 C 49.0623 -0.670433 3.34242 0
M  V30 488 H 50.2553 1.05659 2.80671 0
M  V30 489 H 47.8083 0.585614 1.44915 0
M  V30 490 H 48.5433 -1.51466 2.86755 0
M  V30 491 H 48.3283 -0.0860822 3.92005 0
M  V30 492 H 49.8183 -1.06935 4.03676 0
M  V30 493 N 50.2554 -1.46986 0.568584 0
M  V30 494 C 51.1854 -2.32946 -0.160753 0
M  V30 495 C 52.1664 -1.44487 -0.897631 0
M  V30 496 O 53.3514 -1.73327 -0.875867 0
M  V30 497 C 50.4814 -3.26494 -1.18403 0
M  V30 498 C 49.4354 -4.24282 -0.562895 0
M  V30 499 C 48.7614 -5.07236 -1.69163 0
M  V30 500 C 50.0614 -5.19989 0.490761 0
M  V30 501 H 51.7554 -2.94175 0.556916 0
M  V30 502 H 49.3014 -1.4146 0.26927 0
M  V30 503 H 51.2544 -3.85477 -1.70251 0
M  V30 504 H 49.9784 -2.63343 -1.93179 0
M  V30 505 H 48.6374 -3.66541 -0.0656164 0
M  V30 506 H 48.2854 -4.4048 -2.42871 0
M  V30 507 H 47.9854 -5.7345 -1.28174 0
M  V30 508 H 49.5094 -5.6908 -2.21314 0
M  V30 509 H 50.9234 -5.73271 0.0579047 0
M  V30 510 H 49.3204 -5.94469 0.820165 0
M  V30 511 H 50.3904 -4.64777 1.3824 0
M  V30 512 N 51.7335 -0.305618 -1.54608 0
M  V30 513 C 52.9795 0.302746 -2.00528 0
M  V30 514 C 53.3125 1.53184 -1.19367 0
M  V30 515 O 52.5875 1.92598 -0.271321 0
M  V30 516 C 52.8705 0.654756 -3.54097 0
M  V30 517 C 52.7235 -0.583793 -4.45995 0
M  V30 518 C 54.0425 1.47947 -4.14487 0
M  V30 519 H 51.1615 0.108564 -0.72896 0
M  V30 520 H 53.8035 -0.418634 -1.85331 0
M  V30 521 H 51.9535 1.26935 -3.67178 0
M  V30 522 H 53.6255 -1.22224 -4.44814 0
M  V30 523 H 51.8685 -1.21615 -4.16404 0
M  V30 524 H 52.5395 -0.293287 -5.5122 0
M  V30 525 H 55.0155 0.96013 -4.04871 0
M  V30 526 H 53.8915 1.69454 -5.22088 0
M  V30 527 H 54.1525 2.47011 -3.66658 0
M  V30 528 N 53.2116 1.57565 -0.0334293 0
M  V30 529 C 54.4596 1.91598 0.642999 0
M  V30 530 C 54.7806 0.910847 1.7242 0
M  V30 531 O 54.0506 -0.0469931 1.95844 0
M  V30 532 H 52.6306 0.707228 0.240496 0
M  V30 533 H 55.2926 1.94726 -0.0822488 0
M  V30 534 H 54.3886 2.92336 1.09298 0
M  V30 535 N 54.6897 -0.239769 1.55765 0
M  V30 536 C 56.1057 -0.588624 1.48349 0
M  V30 537 C 56.3057 -1.88005 0.72502 0
M  V30 538 O 55.3617 -2.51186 0.257269 0
M  V30 539 C 56.6747 -0.68474 2.928 0
M  V30 540 C 58.2227 -0.77659 3.03213 0
M  V30 541 C 58.6977 -0.904207 4.48986 0
M  V30 542 N 60.1887 -0.968896 4.52953 0
M  V30 543 C 60.9237 -1.08703 5.63002 0
M  V30 544 N 60.4197 -1.17026 6.82845 0
M  V30 545 N 62.2127 -1.12074 5.50814 0
M  V30 546 H 54.3637 0.607911 2.03515 0
M  V30 547 H 56.6267 0.21083 0.924259 0
M  V30 548 H 56.3327 0.194284 3.51163 0
M  V30 549 H 56.2067 -1.55435 3.43686 0
M  V30 550 H 58.5937 -1.64606 2.44926 0
M  V30 551 H 58.6747 0.118315 2.55526 0
M  V30 552 H 58.3187 -0.0392633 5.07885 0
M  V30 553 H 58.2487 -1.81426 4.9436 0
M  V30 554 H 60.7397 -0.915633 3.6664 0
M  V30 555 H 61.0527 -1.25966 7.62465 0
M  V30 556 H 59.3977 -1.13971 6.85591 0
M  V30 557 H 62.5887 -1.05226 4.5612 0
M  V30 558 H 62.7617 -1.20936 6.36615 0
M  V30 559 N 56.1678 -1.49265 -0.50573 0
M  V30 560 C 57.5788 -1.51769 -1.08734 0
M  V30 561 C 57.9298 -0.301192 -1.93874 0
M  V30 562 O 57.0548 0.589456 -2.08217 0
M  V30 563 C 57.6498 -2.75017 -1.97867 0
M  V30 564 C 56.2088 -2.80314 -2.51199 0
M  V30 565 C 55.3558 -2.4562 -1.28709 0
M  V30 566 H 58.3068 -1.56031 -0.289855 0
M  V30 567 H 58.3278 -2.5491 -2.82491 0
M  V30 568 H 57.8398 -3.63539 -1.35873 0
M  V30 569 H 55.9408 -1.96061 -3.16845 0
M  V30 570 H 56.0538 -3.82366 -2.88675 0
M  V30 571 H 54.4178 -1.97297 -1.61078 0
M  V30 572 H 55.2008 -3.36411 -0.6843 0
M  V30 573 N 57.6459 0.756429 -1.3826 0
M  V30 574 C 58.8949 1.51082 -1.3363 0
M  V30 575 C 59.2079 1.95467 0.0720068 0
M  V30 576 O 60.4139 2.7043 0.240834 0
M  V30 577 C 58.8699 2.72893 -2.34644 0
M  V30 578 C 58.4779 2.35544 -3.81081 0
M  V30 579 C 60.2219 3.50791 -2.39052 0
M  V30 580 C 58.1289 3.53948 -4.73787 0
M  V30 581 H 57.0589 0.56727 -0.49671 0
M  V30 582 H 59.7099 0.827147 -1.638 0
M  V30 583 H 58.0919 3.43227 -1.97513 0
M  V30 584 H 59.2659 1.72894 -4.27135 0
M  V30 585 H 57.5809 1.70786 -3.79764 0
M  V30 586 H 60.1779 4.38823 -3.05513 0
M  V30 587 H 60.5209 3.91745 -1.40861 0
M  V30 588 H 61.0539 2.87467 -2.74968 0
M  V30 589 H 57.7929 3.18064 -5.73163 0
M  V30 590 H 57.3129 4.15651 -4.32428 0
M  V30 591 H 58.9919 4.20566 -4.91663 0
M  V30 592 N 59.124 1.23083 0.984299 0
M  V30 593 C 60.373 1.05466 1.71929 0
M  V30 594 C 60.686 -0.409211 1.91272 0
M  V30 595 O 61.892 -0.705226 2.62181 0
M  V30 596 C 60.348 1.83874 3.09384 0
M  V30 597 C 59.956 3.34566 2.97943 0
M  V30 598 C 61.7 1.74734 3.8687 0
M  V30 599 C 59.607 4.05381 4.30605 0
M  V30 600 H 58.537 0.391039 0.644674 0
M  V30 601 H 61.188 1.47013 1.09815 0
M  V30 602 H 59.57 1.35131 3.72231 0
M  V30 603 H 60.744 3.90767 2.44209 0
M  V30 604 H 59.059 3.44476 2.33934 0
M  V30 605 H 61.656 2.24957 4.85076 0
M  V30 606 H 61.999 0.709372 4.10212 0
M  V30 607 H 62.532 2.21067 3.30717 0
M  V30 608 H 59.271 5.09467 4.1246 0
M  V30 609 H 58.791 3.53967 4.84218 0
M  V30 610 H 60.47 4.11458 4.99311 0
M  V30 611 N 60.6021 -1.18246 1.0419 0
M  V30 612 C 62.0181 -1.40269 0.761366 0
M  V30 613 C 62.2181 -1.90777 -0.648578 0
M  V30 614 O 61.2741 -2.0929 -1.41258 0
M  V30 615 C 62.5871 -2.40237 1.8085 0
M  V30 616 C 64.1351 -2.53961 1.82955 0
M  V30 617 C 64.6101 -3.57194 2.86664 0
M  V30 618 N 66.1011 -3.64702 2.85563 0
M  V30 619 C 66.8361 -4.44309 3.6246 0
M  V30 620 N 66.3321 -5.27514 4.49111 0
M  V30 621 N 68.1251 -4.39084 3.50944 0
M  V30 622 H 60.2761 -0.837882 1.95175 0
M  V30 623 H 62.5391 -0.430608 0.84456 0
M  V30 624 H 62.2451 -2.10176 2.81991 0
M  V30 625 H 62.1191 -3.39601 1.64168 0
M  V30 626 H 64.5061 -2.83338 0.824855 0
M  V30 627 H 64.5871 -1.54706 2.03715 0
M  V30 628 H 64.2311 -3.28558 3.87314 0
M  V30 629 H 64.1611 -4.5613 2.6316 0
M  V30 630 H 66.6521 -3.05289 2.22727 0
M  V30 631 H 66.9651 -5.85411 5.04493 0
M  V30 632 H 65.3101 -5.2693 4.53178 0
M  V30 633 H 68.5011 -3.7313 2.82651 0
M  V30 634 H 68.6741 -5.00883 4.11121 0
M  V30 635 N 62.0802 -0.821533 -1.34494 0
M  V30 636 C 63.3052 -0.420873 -2.03085 0
M  V30 637 C 63.7302 0.964915 -1.61465 0
M  V30 638 O 63.0882 1.62763 -0.798607 0
M  V30 639 C 63.1362 -0.529414 -3.56693 0
M  V30 640 O 62.2402 0.451302 -4.09923 0
M  V30 641 H 61.5812 -0.173489 -0.640935 0
M  V30 642 H 64.1112 -1.11157 -1.71771 0
M  V30 643 H 64.1212 -0.404671 -4.05988 0
M  V30 644 H 62.7962 -1.54014 -3.86332 0
M  V30 645 H 61.3732 0.285558 -3.71805 0
M  V30 646 N 63.5583 1.46682 -0.576371 0
M  V30 647 C 64.7863 2.06798 -0.0649635 0
M  V30 648 C 65.2013 1.42612 1.23723 0
M  V30 649 O 64.5583 0.529203 1.74659 0
M  V30 650 C 64.6093 3.6132 0.114202 0
M  V30 651 O 64.3303 4.23104 -1.13644 0
M  V30 652 C 65.8313 4.38349 0.66069 0
M  V30 653 H 63.0513 0.668778 -0.0545616 0
M  V30 654 H 65.5953 1.88404 -0.795237 0
M  V30 655 H 63.7503 3.79162 0.794673 0
M  V30 656 H 64.1643 5.15894 -0.946253 0
M  V30 657 H 65.6383 5.47081 0.73526 0
M  V30 658 H 66.1153 4.05953 1.67627 0
M  V30 659 H 66.7213 4.25297 0.0152951 0
M  V30 660 N 65.0364 0.313813 1.54444 0
M  V30 661 C 66.2644 -0.293918 2.04802 0
M  V30 662 C 66.6794 -1.46537 1.19047 0
M  V30 663 O 66.0364 -1.81182 0.218939 0
M  V30 664 C 66.0874 -0.737806 3.53891 0
M  V30 665 O 65.8084 0.387038 4.36387 0
M  V30 666 C 67.3094 -1.40936 4.203 0
M  V30 667 H 64.5294 -0.0620057 0.668129 0
M  V30 668 H 67.0734 0.457169 1.99324 0
M  V30 669 H 65.2284 -1.43889 3.59687 0
M  V30 670 H 65.6424 0.0391274 5.24485 0
M  V30 671 H 67.1164 -1.67099 5.26101 0
M  V30 672 H 67.5934 -2.35355 3.70816 0
M  V30 673 H 68.1994 -0.751117 4.18615 0
M  V30 674 N 66.5145 -1.57545 0.0417849 0
M  V30 675 C 67.4615 -2.10977 -0.935805 0
M  V30 676 C 68.4315 -1.01486 -1.31491 0
M  V30 677 O 69.6165 -1.2898 -1.40602 0
M  V30 678 C 66.7565 -2.65169 -2.2086 0
M  V30 679 C 65.8695 -3.88714 -1.88482 0
M  V30 680 C 65.0045 -4.31254 -3.1015 0
M  V30 681 C 64.0435 -5.47524 -2.7365 0
M  V30 682 N 63.1805 -5.85162 -3.87982 0
M  V30 683 H 68.0205 -2.94218 -0.473249 0
M  V30 684 H 65.5575 -1.45415 -0.221981 0
M  V30 685 H 67.5155 -2.94685 -2.95325 0
M  V30 686 H 66.1455 -1.8474 -2.64709 0
M  V30 687 H 65.1975 -3.65849 -1.04205 0
M  V30 688 H 66.5095 -4.73245 -1.57608 0
M  V30 689 H 65.6635 -4.62273 -3.92923 0
M  V30 690 H 64.4025 -3.45516 -3.44195 0
M  V30 691 H 63.4075 -5.16187 -1.89291 0
M  V30 692 H 64.6325 -6.34971 -2.40807 0
M  V30 693 H 62.5785 -5.02377 -4.21846 0
M  V30 694 H 62.4955 -6.64362 -3.60775 0
M  V30 695 H 63.7635 -6.20791 -4.71422 0
M  V30 696 N 67.9926 0.231505 -1.5589 0
M  V30 697 C 69.2386 0.95877 -1.78705 0
M  V30 698 C 69.5716 1.8438 -0.609725 0
M  V30 699 O 68.8466 1.90521 0.391426 0
M  V30 700 C 69.1296 1.8062 -3.11526 0
M  V30 701 C 68.9826 0.948328 -4.39689 0
M  V30 702 C 70.3016 2.78585 -3.40703 0
M  V30 703 H 67.4206 0.347129 -0.650131 0
M  V30 704 H 70.0626 0.228259 -1.88624 0
M  V30 705 H 68.2126 2.42902 -3.03201 0
M  V30 706 H 69.8846 0.343016 -4.60023 0
M  V30 707 H 68.1276 0.253314 -4.3306 0
M  V30 708 H 68.7986 1.57543 -5.29041 0
M  V30 709 H 71.2746 2.26439 -3.49091 0
M  V30 710 H 70.1506 3.34988 -4.34826 0
M  V30 711 H 70.4116 3.55825 -2.62375 0
M  V30 712 N 69.4707 1.49531 0.497807 0
M  V30 713 C 70.7187 1.58865 1.24926 0
M  V30 714 C 71.0397 0.278721 1.92998 0
M  V30 715 O 70.3097 -0.702144 1.82885 0
M  V30 716 H 68.8897 0.585343 0.464094 0
M  V30 717 H 71.5517 1.86174 0.57666 0
M  V30 718 H 70.6477 2.38633 2.01149 0
M  V30 719 N 70.9488 -0.749086 1.3866 0
M  V30 720 C 71.8968 -1.88428 1.36373 0
M  V30 721 C 72.8908 -1.67561 0.248929 0
M  V30 722 O 74.0968 -1.75074 0.41821 0
M  V30 723 H 70.4718 -0.620023 0.42553 0
M  V30 724 H 72.4428 -1.87473 2.32156 0
M  V30 725 C 71.1918 -3.25961 1.21014 0
M  V30 726 H 70.5148 -3.42607 2.06059 0
M  V30 727 H 71.9548 -4.05625 1.23469 0
M  V30 728 C 70.4138 -3.36799 -0.0825941 0
M  V30 729 O 70.9438 -3.87517 -1.05797 0
M  V30 730 N 69.1498 -2.90258 -0.140939 0
M  V30 731 H 68.6968 -2.49174 0.653477 0
M  V30 732 H 68.6548 -2.97889 -1.00545 0
M  V30 733 N 72.4269 -1.23603 -0.977757 0
M  V30 734 C 73.6759 -1.06377 -1.71368 0
M  V30 735 C 73.9889 0.399062 -1.91486 0
M  V30 736 O 75.1949 0.691312 -2.62551 0
M  V30 737 C 73.6509 -1.85512 -3.08404 0
M  V30 738 C 73.2589 -3.36141 -2.96164 0
M  V30 739 C 75.0029 -1.76783 -3.85938 0
M  V30 740 C 72.9099 -4.07659 -4.28449 0
M  V30 741 H 71.8399 -0.394452 -0.642591 0
M  V30 742 H 74.4909 -1.47594 -1.09034 0
M  V30 743 H 72.8729 -1.37103 -3.71509 0
M  V30 744 H 74.0469 -3.92056 -2.42133 0
M  V30 745 H 72.3619 -3.45712 -2.32104 0
M  V30 746 H 74.9589 -2.27526 -4.83876 0
M  V30 747 H 75.3019 -0.731116 -4.0983 0
M  V30 748 H 75.8349 -2.22818 -3.2954 0
M  V30 749 H 72.5739 -5.11648 -4.09752 0
M  V30 750 H 72.0939 -3.5653 -4.82334 0
M  V30 751 H 73.7729 -4.141 -4.97122 0
M  V30 752 N 73.905 1.17692 -1.04816 0
M  V30 753 C 74.815 2.25229 -0.65643 0
M  V30 754 C 75.831 1.71018 0.320761 0
M  V30 755 O 77.007 2.00649 0.173805 0
M  V30 756 C 74.072 3.46684 -0.0332629 0
M  V30 757 C 73.133 4.15997 -1.06042 0
M  V30 758 C 72.366 5.31654 -0.466893 0
M  V30 759 O 72.589 5.65777 0.724758 0
M  V30 760 O 71.523 5.89831 -1.1993 0
M  V30 761 H 75.349 2.61016 -1.55255 0
M  V30 762 H 72.934 1.24919 -0.81949 0
M  V30 763 H 74.816 4.20234 0.313256 0
M  V30 764 H 73.491 3.12703 0.836566 0
M  V30 765 H 72.398 3.44482 -1.45886 0
M  V30 766 H 73.731 4.53996 -1.90127 0
M  V30 767 N 75.3831 0.828654 1.34056 0
M  V30 768 C 76.6321 0.415828 1.97367 0
M  V30 769 C 76.9451 -1.02796 1.6641 0
M  V30 770 O 78.1511 -1.54497 2.23255 0
M  V30 771 C 76.6071 0.692601 3.53173 0
M  V30 772 C 76.2151 2.15038 3.93017 0
M  V30 773 C 77.9591 0.346222 4.23086 0
M  V30 774 C 75.8661 2.37174 5.41758 0
M  V30 775 H 74.7961 0.151755 0.738571 0
M  V30 776 H 77.4471 1.01581 1.52819 0
M  V30 777 H 75.8291 0.0223764 3.95994 0
M  V30 778 H 77.0031 2.86024 3.61285 0
M  V30 779 H 75.3181 2.45875 3.36057 0
M  V30 780 H 77.9151 0.48937 5.32456 0
M  V30 781 H 78.2581 -0.709842 4.10204 0
M  V30 782 H 78.7911 0.971258 3.85761 0
M  V30 783 H 75.5301 3.41308 5.59633 0
M  V30 784 H 75.0501 1.70738 5.74986 0
M  V30 785 H 76.7291 2.19818 6.08514 0
M  V30 786 N 76.8612 -1.46375 0.584142 0
M  V30 787 C 77.8082 -2.30323 -0.148286 0
M  V30 788 C 78.7782 -1.40703 -0.882713 0
M  V30 789 O 79.9632 -1.69651 -0.873099 0
M  V30 790 C 77.1032 -3.25196 -1.15507 0
M  V30 791 C 76.2162 -4.29915 -0.423943 0
M  V30 792 C 75.3512 -5.11914 -1.41838 0
M  V30 793 C 74.3902 -6.08381 -0.673736 0
M  V30 794 N 73.5272 -6.83242 -1.6163 0
M  V30 795 H 78.3672 -2.92427 0.573644 0
M  V30 796 H 75.9042 -1.44118 0.294703 0
M  V30 797 H 77.8622 -3.78646 -1.75166 0
M  V30 798 H 76.4922 -2.64898 -1.8447 0
M  V30 799 H 75.5442 -3.7931 0.287714 0
M  V30 800 H 76.8562 -4.98549 0.158128 0
M  V30 801 H 76.0102 -5.69648 -2.08773 0
M  V30 802 H 74.7492 -4.43243 -2.03438 0
M  V30 803 H 73.7542 -5.49799 0.00938483 0
M  V30 804 H 74.9792 -6.79071 -0.0631082 0
M  V30 805 H 72.9252 -6.1728 -2.22038 0
M  V30 806 H 72.8422 -7.48144 -1.08707 0
M  V30 807 H 74.1102 -7.45534 -2.27596 0
M  V30 808 N 78.3393 -0.321999 -1.54275 0
M  V30 809 C 79.6163 0.335232 -1.92706 0
M  V30 810 C 79.9963 1.70006 -1.25145 0
M  V30 811 O 79.3443 2.25067 -0.394596 0
M  V30 812 C 79.5543 0.429008 -3.46353 0
M  V30 813 C 80.9023 0.690029 -4.18956 0
M  V30 814 O 81.9263 0.511992 -3.52501 0
M  V30 815 O 80.7853 1.03338 -5.36641 0
M  V30 816 H 77.8793 0.191143 -0.804608 0
M  V30 817 H 80.4253 -0.3716 -1.65581 0
M  V30 818 H 79.1973 -0.529611 -3.87699 0
M  V30 819 H 78.8203 1.18348 -3.79578 0
M  V30 820 N 79.8174 1.5752 -0.0501392 0
M  V30 821 C 80.7474 2.14502 0.922566 0
M  V30 822 C 81.7284 1.06642 1.3252 0
M  V30 823 O 82.9134 1.34577 1.4001 0
M  V30 824 C 80.0434 2.68916 2.19776 0
M  V30 825 C 78.9974 3.8175 1.93523 0
M  V30 826 C 78.3234 4.22677 3.27487 0
M  V30 827 C 79.6234 5.06932 1.25765 0
M  V30 828 H 81.3174 2.9603 0.447952 0
M  V30 829 H 78.8634 1.42401 0.214024 0
M  V30 830 H 80.8164 3.07419 2.88222 0
M  V30 831 H 79.5404 1.84578 2.69441 0
M  V30 832 H 78.1994 3.43718 1.27489 0
M  V30 833 H 77.8474 3.35291 3.74952 0
M  V30 834 H 77.5474 4.98725 3.1072 0
M  V30 835 H 79.0714 4.63779 3.97166 0
M  V30 836 H 80.4854 5.42888 1.84244 0
M  V30 837 H 78.8824 5.88116 1.19328 0
M  V30 838 H 79.9524 4.84337 0.233536 0
M  V30 839 N 81.2955 -0.223234 1.56011 0
M  V30 840 C 82.2285 -1.30377 1.87289 0
M  V30 841 C 83.2065 -1.45286 0.730112 0
M  V30 842 O 84.3905 -1.61126 0.978302 0
M  V30 843 C 81.5175 -2.67431 2.07843 0
M  V30 844 C 80.5635 -2.69546 3.30526 0
M  V30 845 S 81.3965 -2.23781 4.865 0
M  V30 846 C 82.5525 -3.62714 5.10088 0
M  V30 847 H 82.7855 -1.03652 2.78646 0
M  V30 848 H 80.3185 -0.425393 1.48424 0
M  V30 849 H 82.2765 -3.46336 2.20368 0
M  V30 850 H 80.9375 -2.91381 1.17285 0
M  V30 851 H 80.1305 -3.70255 3.41947 0
M  V30 852 H 79.7325 -1.98703 3.16849 0
M  V30 853 H 82.0245 -4.58391 4.98883 0
M  V30 854 H 82.9675 -3.5621 6.11981 0
M  V30 855 H 83.3755 -3.56323 4.37829 0
M  V30 856 N 82.7736 -1.49793 -0.48987 0
M  V30 857 C 84.0196 -1.60078 -1.24511 0
M  V30 858 C 84.3526 -0.291608 -1.91998 0
M  V30 859 O 83.6276 0.705647 -1.81248 0
M  V30 860 C 83.9106 -2.76791 -2.30345 0
M  V30 861 C 83.7636 -4.17535 -1.67286 0
M  V30 862 C 85.0826 -2.89111 -3.31817 0
M  V30 863 H 82.2016 -0.582645 -0.451324 0
M  V30 864 H 84.8436 -1.82117 -0.541612 0
M  V30 865 H 82.9936 -2.5813 -2.90346 0
M  V30 866 H 84.6656 -4.4774 -1.11026 0
M  V30 867 H 82.9086 -4.22665 -0.976577 0
M  V30 868 H 83.5796 -4.95094 -2.44103 0
M  V30 869 H 86.0556 -3.06133 -2.81819 0
M  V30 870 H 84.9316 -3.72433 -4.03219 0
M  V30 871 H 85.1926 -1.9893 -3.94815 0
M  V30 872 N 84.2517 0.741722 -1.39055 0
M  V30 873 C 85.4997 1.49818 -1.35643 0
M  V30 874 C 85.8207 1.94938 0.0491642 0
M  V30 875 O 85.0907 1.68505 0.999141 0
M  V30 876 H 83.6707 0.555755 -0.499144 0
M  V30 877 H 86.3327 0.880957 -1.73854 0
M  V30 878 H 85.4287 2.38348 -2.01486 0
M  V30 879 N 85.7298 1.2412 0.971189 0
M  V30 880 C 87.0068 0.986867 1.6888 0
M  V30 881 C 87.3868 -0.491857 2.0529 0
M  V30 882 O 86.7348 -1.46531 1.75331 0
M  V30 883 C 86.9448 1.9063 2.92338 0
M  V30 884 C 88.2928 2.17515 3.64654 0
M  V30 885 O 89.3168 1.88254 3.02388 0
M  V30 886 O 88.1758 2.6719 4.7673 0
M  V30 887 H 85.2698 0.372944 0.738134 0
M  V30 888 H 87.8158 1.35203 1.02559 0
M  V30 889 H 86.5878 2.90552 2.62097 0
M  V30 890 H 86.2108 1.54408 3.66393 0
M  V30 891 N 87.2079 -1.17134 1.05439 0
M  V30 892 C 88.1179 -2.24878 0.668365 0
M  V30 893 C 89.1339 -1.71186 -0.311687 0
M  V30 894 O 90.3099 -2.00738 -0.163161 0
M  V30 895 C 87.3749 -3.46662 0.051648 0
M  V30 896 C 86.4359 -4.15429 1.08246 0
M  V30 897 C 85.6689 -5.31399 0.495082 0
M  V30 898 O 85.8919 -5.66153 -0.694743 0
M  V30 899 O 84.8259 -5.89187 1.23056 0
M  V30 900 H 88.6519 -2.60189 1.56637 0
M  V30 901 H 86.2369 -1.24482 0.826104 0
M  V30 902 H 88.1189 -4.20394 -0.290966 0
M  V30 903 H 86.7939 -3.13142 -0.819971 0
M  V30 904 H 85.7009 -3.43704 1.47711 0
M  V30 905 H 87.0339 -4.52982 1.92532 0
M  V30 906 N 88.686 -0.835752 -1.33615 0
M  V30 907 C 89.649 -0.272 -2.2758 0
M  V30 908 C 90.649 0.557487 -1.50827 0
M  V30 909 O 91.839 0.37173 -1.70188 0
M  V30 910 C 88.971 0.617173 -3.35267 0
M  V30 911 H 90.164 -1.10111 -2.78954 0
M  V30 912 H 87.717 -0.608594 -1.43965 0
M  V30 913 H 88.452 1.46884 -2.89129 0
M  V30 914 H 88.237 0.0237066 -3.92093 0
M  V30 915 H 89.727 1.005 -4.05326 0
M  V30 916 N 90.1641 1.46063 -0.591896 0
M  V30 917 C 91.3891 2.07226 -0.0850314 0
M  V30 918 C 91.8141 1.43625 1.21463 0
M  V30 919 O 91.1721 0.523305 1.73583 0
M  V30 920 C 91.2201 3.60554 0.0576567 0
M  V30 921 O 90.3241 3.97128 1.11188 0
M  V30 922 H 89.6651 0.660615 -0.0669568 0
M  V30 923 H 92.1951 1.8756 -0.81745 0
M  V30 924 H 92.2051 4.07165 0.2609 0
M  V30 925 H 90.8801 4.06235 -0.891416 0
M  V30 926 H 89.4571 3.62213 0.886356 0
M  V30 927 N 91.6422 0.330177 1.54103 0
M  V30 928 C 92.5522 -0.541534 2.28264 0
M  V30 929 C 93.5682 -1.12351 1.32866 0
M  V30 930 O 94.7442 -1.14206 1.65888 0
M  V30 931 C 91.8092 -1.68322 3.03098 0
M  V30 932 C 90.8702 -1.13238 4.14096 0
M  V30 933 C 90.1032 -2.21966 4.85352 0
M  V30 934 O 90.3262 -3.42437 4.56172 0
M  V30 935 O 89.2602 -1.87013 5.7211 0
M  V30 936 H 93.0862 0.060938 3.03639 0
M  V30 937 H 90.6712 0.09565 1.49093 0
M  V30 938 H 92.5532 -2.34777 3.49939 0
M  V30 939 H 91.2282 -2.27176 2.30593 0
M  V30 940 H 90.1352 -0.432736 3.71589 0
M  V30 941 H 91.4682 -0.588898 4.88664 0
M  V30 942 N 93.1203 -1.57491 0.0584922 0
M  V30 943 C 94.0503 -2.14988 -0.911178 0
M  V30 944 C 95.0313 -1.07343 -1.31952 0
M  V30 945 O 96.2163 -1.35318 -1.39294 0
M  V30 946 C 93.3463 -2.70078 -2.18347 0
M  V30 947 C 92.3003 -3.82771 -1.91495 0
M  V30 948 C 91.6263 -4.24408 -3.25241 0
M  V30 949 C 92.9263 -5.07592 -1.23075 0
M  V30 950 H 94.6203 -2.96263 -0.432246 0
M  V30 951 H 92.1663 -1.42512 -0.206469 0
M  V30 952 H 94.1193 -3.08943 -2.86587 0
M  V30 953 H 92.8433 -1.86005 -2.68458 0
M  V30 954 H 91.5023 -3.44389 -1.25664 0
M  V30 955 H 91.1503 -3.37275 -3.73168 0
M  V30 956 H 90.8503 -5.00366 -3.08071 0
M  V30 957 H 92.3743 -4.65879 -3.94701 0
M  V30 958 H 93.7883 -5.43857 -1.81362 0
M  V30 959 H 92.1853 -5.88741 -1.16207 0
M  V30 960 H 93.2553 -4.84454 -0.207847 0
M  V30 961 N 94.5984 0.214957 -1.56127 0
M  V30 962 C 96.0144 0.564948 -1.49267 0
M  V30 963 C 96.2144 1.86827 -0.754838 0
M  V30 964 O 95.2704 2.50745 -0.297198 0
M  V30 965 C 96.5834 0.638071 -2.93852 0
M  V30 966 C 98.1314 0.728253 -3.0441 0
M  V30 967 C 98.6064 0.832663 -4.50367 0
M  V30 968 N 100.097 0.896712 -4.54437 0
M  V30 969 C 100.832 0.997324 -5.6466 0
M  V30 970 N 100.328 1.06147 -6.8462 0
M  V30 971 N 102.121 1.03297 -5.52527 0
M  V30 972 H 94.2724 -0.640211 -2.02522 0
M  V30 973 H 96.5354 -0.225507 -0.920788 0
M  V30 974 H 96.2414 -0.250126 -3.50809 0
M  V30 975 H 96.1154 1.49947 -3.46115 0
M  V30 976 H 98.5024 1.60689 -2.47514 0
M  V30 977 H 98.5834 -0.158952 -2.55306 0
M  V30 978 H 98.2274 -0.0415417 -5.07883 0
M  V30 979 H 98.1574 1.73538 -4.97184 0
M  V30 980 H 100.648 0.857188 -3.6805 0
M  V30 981 H 100.961 1.1382 -7.64372 0
M  V30 982 H 99.3064 1.03049 -6.87318 0
M  V30 983 H 102.497 0.979558 -4.57736 0
M  V30 984 H 102.67 1.10793 -6.38458 0
M  V30 985 N 96.0765 1.50051 0.48192 0
M  V30 986 C 97.3015 1.64508 1.26301 0
M  V30 987 C 97.7265 0.323851 1.85291 0
M  V30 988 O 97.0845 -0.710969 1.66778 0
M  V30 989 C 97.1325 2.7305 2.35533 0
M  V30 990 O 96.2365 2.3355 3.39895 0
M  V30 991 H 95.5775 0.549978 0.372048 0
M  V30 992 H 98.1075 1.9636 0.574786 0
M  V30 993 H 98.1175 2.95799 2.8101 0
M  V30 994 H 96.7925 3.68946 1.91967 0
M  V30 995 H 95.3695 2.21205 3.00204 0
M  V30 996 N 97.5546 -0.734337 1.39446 0
M  V30 997 C 98.4876 -1.85715 1.32609 0
M  V30 998 C 99.4656 -1.6137 0.199636 0
M  V30 999 O 100.65 -1.84626 0.380195 0
M  V30 1000 C 97.7766 -3.21709 1.05929 0
M  V30 1001 C 96.8226 -3.64913 2.20773 0
M  V30 1002 S 97.6556 -3.74203 3.83056 0
M  V30 1003 C 98.8116 -5.12986 3.58603 0
M  V30 1004 H 99.0446 -1.91232 2.27635 0
M  V30 1005 H 96.5776 -0.899263 1.25509 0
M  V30 1006 H 98.5356 -4.00236 0.912203 0
M  V30 1007 H 97.1966 -3.13848 0.125883 0
M  V30 1008 H 96.3896 -4.63606 1.97699 0
M  V30 1009 H 95.9916 -2.93593 2.31688 0
M  V30 1010 H 98.2836 -5.99339 3.15909 0
M  V30 1011 H 99.2266 -5.41088 4.5676 0
M  V30 1012 H 99.6346 -4.82694 2.9269 0
M  V30 1013 N 99.0327 -1.24633 -0.964593 0
M  V30 1014 C 99.9627 -1.06611 -2.07741 0
M  V30 1015 C 100.944 0.0218666 -1.70086 0
M  V30 1016 O 102.129 -0.145793 -1.93652 0
M  V30 1017 C 99.2587 -0.673444 -3.40708 0
M  V30 1018 C 98.2127 -1.71054 -3.92332 0
M  V30 1019 C 97.5387 -1.17285 -5.21678 0
M  V30 1020 C 98.8387 -3.10718 -4.19824 0
M  V30 1021 H 100.533 -1.99693 -2.23076 0
M  V30 1022 H 98.0787 -0.96152 -1.07195 0
M  V30 1023 H 100.032 -0.534345 -4.17998 0
M  V30 1024 H 98.7557 0.293073 -3.25282 0
M  V30 1025 H 97.4147 -1.83791 -3.17201 0
M  V30 1026 H 97.0627 -0.196847 -5.02615 0
M  V30 1027 H 96.7627 -1.86592 -5.57187 0
M  V30 1028 H 98.2867 -1.04593 -6.01575 0
M  V30 1029 H 99.7007 -3.01192 -4.87808 0
M  V30 1030 H 98.0977 -3.77406 -4.66567 0
M  V30 1031 H 99.1677 -3.58524 -3.26479 0
M  V30 1032 N 100.511 1.16574 -1.06058 0
M  V30 1033 C 101.421 2.2452 -0.680282 0
M  V30 1034 C 102.437 1.71348 0.302604 0
M  V30 1035 O 103.613 2.00822 0.152513 0
M  V30 1036 C 100.678 3.46629 -0.0700315 0
M  V30 1037 C 99.7388 4.14849 -1.10448 0
M  V30 1038 C 98.9718 5.31129 -0.523256 0
M  V30 1039 O 99.1948 5.66514 0.664709 0
M  V30 1040 O 98.1288 5.88526 -1.26179 0
M  V30 1041 H 101.955 2.59355 -1.58015 0
M  V30 1042 H 99.5398 1.24043 -0.832694 0
M  V30 1043 H 101.422 4.20543 0.268667 0
M  V30 1044 H 100.097 3.13573 0.803353 0
M  V30 1045 H 99.0038 3.42916 -1.49532 0
M  V30 1046 H 100.337 4.51954 -1.94931 0
M  V30 1047 N 101.989 0.842826 1.3317 0
M  V30 1048 C 103.235 0.441099 1.97945 0
M  V30 1049 C 103.568 -0.998024 1.66593 0
M  V30 1050 O 102.843 -1.69839 0.947898 0
M  V30 1051 C 103.126 0.666841 3.53872 0
M  V30 1052 C 102.979 2.15352 3.94897 0
M  V30 1053 C 104.298 0.115544 4.39948 0
M  V30 1054 H 101.417 0.161739 0.719034 0
M  V30 1055 H 104.059 1.05907 1.57746 0
M  V30 1056 H 102.209 0.140828 3.88245 0
M  V30 1057 H 103.881 2.7447 3.70761 0
M  V30 1058 H 102.124 2.63653 3.44484 0
M  V30 1059 H 102.795 2.26221 5.03516 0
M  V30 1060 H 105.271 0.565213 4.12243 0
M  V30 1061 H 104.147 0.303152 5.48062 0
M  V30 1062 H 104.408 -0.980935 4.3108 0
M  V30 1063 N 103.467 -1.45747 0.599634 0
M  V30 1064 C 104.415 -2.322 -0.136426 0
M  V30 1065 C 105.409 -1.45497 -0.867583 0
M  V30 1066 O 106.615 -1.62027 -0.78405 0
M  V30 1067 H 102.99 -0.749368 -0.0628588 0
M  V30 1068 H 104.961 -2.92072 0.611281 0
M  V30 1069 C 103.71 -3.28974 -1.12567 0
M  V30 1070 H 103.033 -3.9568 -0.572484 0
M  V30 1071 H 104.473 -3.92212 -1.61077 0
M  V30 1072 C 102.932 -2.55561 -2.19523 0
M  V30 1073 O 103.462 -2.33111 -3.27143 0
M  V30 1074 N 101.668 -2.15832 -1.94589 0
M  V30 1075 H 101.215 -2.3429 -1.07078 0
M  V30 1076 H 101.173 -1.67034 -2.66359 0
M  V30 1077 N 104.945 -0.338344 -1.53925 0
M  V30 1078 C 106.175 0.260919 -2.04946 0
M  V30 1079 C 106.583 1.45174 -1.2133 0
M  V30 1080 O 105.926 1.82122 -0.240262 0
M  V30 1081 C 105.988 0.744596 -3.51704 0
M  V30 1082 C 105.652 -0.325883 -4.55837 0
M  V30 1083 C 106.649 -1.16687 -5.06636 0
M  V30 1084 C 104.334 -0.478317 -5.00017 0
M  V30 1085 C 106.328 -2.14588 -6.00192 0
M  V30 1086 C 104.015 -1.46073 -5.93385 0
M  V30 1087 C 105.013 -2.29297 -6.4336 0
M  V30 1088 O 104.701 -3.25867 -7.34892 0
M  V30 1089 H 104.433 0.0551207 -0.673749 0
M  V30 1090 H 106.987 -0.486984 -1.99544 0
M  V30 1091 H 105.217 1.54366 -3.54553 0
M  V30 1092 H 106.906 1.26383 -3.85723 0
M  V30 1093 H 107.672 -1.06016 -4.73271 0
M  V30 1094 H 103.551 0.159613 -4.60724 0
M  V30 1095 H 107.095 -2.79585 -6.39123 0
M  V30 1096 H 102.992 -1.56802 -6.26166 0
M  V30 1097 H 103.76 -3.21278 -7.5281 0
M  V30 1098 N 106.423 1.57458 -0.0668435 0
M  V30 1099 C 107.834 1.80776 0.466558 0
M  V30 1100 C 108.185 0.980361 1.69951 0
M  V30 1101 O 107.31 0.201441 2.1546 0
M  V30 1102 C 107.905 3.27881 0.85321 0
M  V30 1103 C 106.464 3.52062 1.3315 0
M  V30 1104 C 105.611 2.75513 0.314264 0
M  V30 1105 H 108.562 1.5598 -0.292588 0
M  V30 1106 H 108.583 3.39659 1.715 0
M  V30 1107 H 108.095 3.88075 -0.0443439 0
M  V30 1108 H 106.196 2.97167 2.24772 0
M  V30 1109 H 106.309 4.60762 1.31285 0
M  V30 1110 H 104.673 2.42123 0.790492 0
M  V30 1111 H 105.456 3.38442 -0.575477 0
M  V30 1112 N 107.901 -0.206675 1.56239 0
M  V30 1113 C 108.834 -1.28383 1.88661 0
M  V30 1114 C 109.812 -1.44504 0.745481 0
M  V30 1115 O 110.996 -1.60079 0.995336 0
M  V30 1116 C 108.123 -2.65211 2.10667 0
M  V30 1117 C 107.169 -2.66025 3.33366 0
M  V30 1118 S 108.002 -2.18609 4.88846 0
M  V30 1119 C 109.158 -3.57283 5.13906 0
M  V30 1120 H 109.391 -1.00691 2.7973 0
M  V30 1121 H 106.924 -0.409627 1.48867 0
M  V30 1122 H 108.882 -3.43979 2.24029 0
M  V30 1123 H 107.543 -2.90121 1.20369 0
M  V30 1124 H 106.736 -3.66607 3.45855 0
M  V30 1125 H 106.338 -1.95331 3.18938 0
M  V30 1126 H 108.63 -4.53074 5.03717 0
M  V30 1127 H 109.573 -3.49699 6.15724 0
M  V30 1128 H 109.981 -3.51659 4.41583 0
M  V30 1129 N 109.379 -1.50304 -0.473955 0
M  V30 1130 C 110.289 -1.7174 -1.5982 0
M  V30 1131 C 111.305 -0.600457 -1.63311 0
M  V30 1132 O 112.481 -0.878441 -1.81233 0
M  V30 1133 C 109.546 -1.80427 -2.96052 0
M  V30 1134 C 108.607 -3.04148 -3.02972 0
M  V30 1135 C 107.84 -3.12411 -4.32706 0
M  V30 1136 O 108.063 -2.27542 -5.23049 0
M  V30 1137 O 106.997 -4.05113 -4.45159 0
M  V30 1138 H 110.823 -2.67035 -1.44657 0
M  V30 1139 H 108.408 -1.34366 -0.653148 0
M  V30 1140 H 110.29 -1.88338 -3.7697 0
M  V30 1141 H 108.965 -0.883156 -3.11419 0
M  V30 1142 H 107.872 -3.0174 -2.21142 0
M  V30 1143 H 109.205 -3.95829 -2.92541 0
M  V30 1144 N 110.857 0.726932 -1.39834 0
M  V30 1145 C 111.805 1.86235 -1.39353 0
M  V30 1146 C 112.799 1.67144 -0.275555 0
M  V30 1147 O 114.005 1.74387 -0.44601 0
M  V30 1148 H 110.38 0.613174 -0.43534 0
M  V30 1149 H 112.351 1.83756 -2.35109 0
M  V30 1150 C 111.1 3.23995 -1.26185 0
M  V30 1151 H 110.423 3.39285 -2.11484 0
M  V30 1152 H 111.863 4.03609 -1.29907 0
M  V30 1153 C 110.322 3.36888 0.0290018 0
M  V30 1154 O 110.852 3.89152 0.99619 0
M  V30 1155 N 109.058 2.90446 0.0947437 0
M  V30 1156 H 108.605 2.48102 -0.693035 0
M  V30 1157 H 108.563 2.99451 0.957932 0
M  V30 1158 N 112.336 1.25143 0.95797 0
M  V30 1159 C 113.584 1.09476 1.69881 0
M  V30 1160 C 113.905 -0.365502 1.91544 0
M  V30 1161 O 113.175 -1.25985 1.50015 0
M  V30 1162 H 111.755 0.402128 0.629525 0
M  V30 1163 H 114.417 1.57214 1.15194 0
M  V30 1164 H 113.513 1.60046 2.6794 0
M  V30 1165 N 113.814 -1.1601 1.06675 0
M  V30 1166 C 115.063 -1.85973 0.780818 0
M  V30 1167 C 115.376 -1.82819 -0.695444 0
M  V30 1168 O 116.582 -2.484 -1.09589 0
M  V30 1169 C 115.038 -3.33757 1.34665 0
M  V30 1170 C 114.646 -3.45374 2.85343 0
M  V30 1171 C 116.39 -4.0895 1.13843 0
M  V30 1172 C 114.297 -4.87266 3.35151 0
M  V30 1173 H 113.227 -0.696661 0.288407 0
M  V30 1174 H 115.878 -1.30903 1.28595 0
M  V30 1175 H 114.26 -3.88456 0.769274 0
M  V30 1176 H 115.434 -3.00816 3.49065 0
M  V30 1177 H 113.749 -2.83619 3.04876 0
M  V30 1178 H 116.346 -5.13654 1.4854 0
M  V30 1179 H 116.689 -4.16229 0.0770282 0
M  V30 1180 H 117.222 -3.605 1.68179 0
M  V30 1181 H 113.961 -4.85168 4.40786 0
M  V30 1182 H 113.481 -5.32433 2.76179 0
M  V30 1183 H 115.16 -5.56097 3.30704 0
M  V30 1184 N 115.292 -0.849877 -1.32721 0
M  V30 1185 C 116.538 -0.451591 -1.97708 0
M  V30 1186 C 116.871 0.989175 -1.6712 0
M  V30 1187 O 116.146 1.69334 -0.956891 0
M  V30 1188 C 116.429 -0.685598 -3.53513 0
M  V30 1189 C 116.282 -2.17444 -3.93749 0
M  V30 1190 C 117.601 -0.138874 -4.39881 0
M  V30 1191 H 114.72 -0.16555 -0.718166 0
M  V30 1192 H 117.362 -1.06742 -1.57182 0
M  V30 1193 H 115.512 -0.161416 -3.88165 0
M  V30 1194 H 117.184 -2.76433 -3.693 0
M  V30 1195 H 115.427 -2.65476 -3.43081 0
M  V30 1196 H 116.098 -2.28888 -5.02309 0
M  V30 1197 H 118.574 -0.587068 -4.11938 0
M  V30 1198 H 117.45 -0.332213 -5.47894 0
M  V30 1199 H 117.711 0.95806 -4.31594 0
M  V30 1200 N 116.77 1.45427 -0.607355 0
M  V30 1201 C 118.186 1.57283 -0.270985 0
M  V30 1202 C 118.386 1.59875 1.22647 0
M  V30 1203 O 117.442 1.52893 2.00948 0
M  V30 1204 C 118.755 2.85566 -0.941952 0
M  V30 1205 C 120.303 2.9924 -0.917849 0
M  V30 1206 C 120.778 4.30293 -1.56882 0
M  V30 1207 N 122.269 4.37051 -1.5343 0
M  V30 1208 C 123.004 5.37123 -2.00715 0
M  V30 1209 N 122.5 6.43734 -2.56084 0
M  V30 1210 N 124.293 5.28479 -1.91484 0
M  V30 1211 H 116.444 1.41988 -1.57966 0
M  V30 1212 H 118.707 0.67885 -0.661715 0
M  V30 1213 H 118.413 2.8955 -1.99633 0
M  V30 1214 H 118.287 3.74322 -0.465096 0
M  V30 1215 H 120.674 2.94822 0.127984 0
M  V30 1216 H 120.755 2.11895 -1.43297 0
M  V30 1217 H 120.399 4.35469 -2.61398 0
M  V30 1218 H 120.329 5.16454 -1.02873 0
M  V30 1219 H 122.82 3.60615 -1.12982 0
M  V30 1220 H 123.133 7.16341 -2.89958 0
M  V30 1221 H 121.478 6.44485 -2.60122 0
M  V30 1222 H 124.669 4.44098 -1.47967 0
M  V30 1223 H 124.842 6.0632 -2.28648 0
M  V30 1224 N 118.248 0.346503 1.53744 0
M  V30 1225 C 119.196 -0.52422 2.26616 0
M  V30 1226 C 120.19 -1.09948 1.28871 0
M  V30 1227 O 121.396 -1.04488 1.46568 0
M  V30 1228 H 117.771 -0.187743 0.728187 0
M  V30 1229 H 119.742 0.11239 2.98188 0
M  V30 1230 C 118.491 -1.66186 3.05414 0
M  V30 1231 H 117.814 -1.22848 3.80458 0
M  V30 1232 H 119.254 -2.24622 3.59612 0
M  V30 1233 C 117.713 -2.59302 2.1509 0
M  V30 1234 O 118.243 -3.61628 1.74895 0
M  V30 1235 N 116.449 -2.28055 1.8011 0
M  V30 1236 H 115.996 -1.44883 2.12994 0
M  V30 1237 H 115.954 -2.90615 1.19958 0
M  V30 1238 N 119.726 -1.57421 0.075193 0
M  V30 1239 C 120.972 -1.94716 -0.587998 0
M  V30 1240 C 121.327 -0.955205 -1.67014 0
M  V30 1241 O 120.62 0.0219842 -1.91587 0
M  V30 1242 C 120.814 -3.36428 -1.20626 0
M  V30 1243 C 120.643 -4.49317 -0.185541 0
M  V30 1244 C 119.413 -5.04772 0.23099 0
M  V30 1245 C 121.611 -5.11036 0.57854 0
M  V30 1246 N 119.593 -6.01204 1.24206 0
M  V30 1247 C 120.964 -6.02998 1.44199 0
M  V30 1248 C 123.019 -4.93844 0.634237 0
M  V30 1249 C 121.722 -6.79614 2.3562 0
M  V30 1250 C 123.748 -5.71106 1.53597 0
M  V30 1251 C 123.11 -6.6272 2.38709 0
M  V30 1252 H 119.209 -0.759536 -0.186089 0
M  V30 1253 H 121.793 -1.94097 0.153128 0
M  V30 1254 H 119.964 -3.37778 -1.9173 0
M  V30 1255 H 121.696 -3.60951 -1.8302 0
M  V30 1256 H 118.451 -4.73353 -0.152807 0
M  V30 1257 H 118.875 -6.54119 1.74521 0
M  V30 1258 H 123.517 -4.22799 -0.00960004 0
M  V30 1259 H 121.235 -7.49934 3.01038 0
M  V30 1260 H 124.821 -5.59824 1.58394 0
M  V30 1261 H 123.701 -7.2146 3.07352 0
M  V30 1262 N 121.204 0.198386 -1.56346 0
M  V30 1263 C 122.481 0.944982 -1.71258 0
M  V30 1264 C 122.861 2.0151 -0.629048 0
M  V30 1265 O 122.209 2.25639 0.360473 0
M  V30 1266 C 122.419 1.5344 -3.1346 0
M  V30 1267 C 123.767 2.01778 -3.73591 0
M  V30 1268 O 124.791 1.63288 -3.16568 0
M  V30 1269 O 123.65 2.72594 -4.73661 0
M  V30 1270 H 120.744 0.442939 -0.69838 0
M  V30 1271 H 123.29 0.188342 -1.68652 0
M  V30 1272 H 122.062 0.762869 -3.83792 0
M  V30 1273 H 121.685 2.35596 -3.20282 0
M  V30 1274 N 122.682 1.50554 0.465978 0
M  V30 1275 C 123.959 1.5232 1.22712 0
M  V30 1276 C 124.339 0.270807 2.09356 0
M  V30 1277 O 123.687 -0.745541 2.15995 0
M  V30 1278 C 123.897 2.82175 2.05374 0
M  V30 1279 C 125.245 3.33033 2.6339 0
M  V30 1280 O 126.269 2.83531 2.15612 0
M  V30 1281 O 125.128 4.19336 3.50456 0
M  V30 1282 H 122.222 0.611183 0.557122 0
M  V30 1283 H 124.768 1.62847 0.477381 0
M  V30 1284 H 123.54 3.64797 1.41558 0
M  V30 1285 H 123.163 2.74675 2.87471 0
M  V30 1286 N 124.16 -0.719506 1.40217 0
M  V30 1287 C 125.093 -1.84298 1.34571 0
M  V30 1288 C 126.071 -1.61149 0.216741 0
M  V30 1289 O 127.255 -1.84212 0.399756 0
M  V30 1290 C 124.382 -3.20568 1.09335 0
M  V30 1291 C 123.428 -3.62551 2.24631 0
M  V30 1292 S 124.261 -3.7012 3.87004 0
M  V30 1293 C 125.417 -5.09154 3.64024 0
M  V30 1294 H 125.65 -1.88807 2.2965 0
M  V30 1295 H 123.183 -0.885901 1.26456 0
M  V30 1296 H 125.141 -3.99246 0.954602 0
M  V30 1297 H 123.802 -3.13696 0.159164 0
M  V30 1298 H 122.995 -4.61483 2.02606 0
M  V30 1299 H 122.597 -2.91119 2.34789 0
M  V30 1300 H 124.889 -5.95955 3.22248 0
M  V30 1301 H 125.832 -5.36213 4.62473 0
M  V30 1302 H 126.24 -4.79562 2.97793 0
M  V30 1303 N 125.638 -1.25649 -0.95132 0
M  V30 1304 C 126.585 -1.06323 -2.04851 0
M  V30 1305 C 127.555 0.0286491 -1.66075 0
M  V30 1306 O 128.74 -0.12917 -1.90362 0
M  V30 1307 C 125.88 -0.691529 -3.381 0
M  V30 1308 C 124.993 -1.85861 -3.89974 0
M  V30 1309 C 124.128 -1.43096 -5.11563 0
M  V30 1310 C 123.167 -2.56696 -5.55674 0
M  V30 1311 N 122.304 -2.14684 -6.68472 0
M  V30 1312 H 127.144 -2.00222 -2.20715 0
M  V30 1313 H 124.681 -0.997027 -1.08156 0
M  V30 1314 H 126.639 -0.456963 -4.1469 0
M  V30 1315 H 125.269 0.210474 -3.22113 0
M  V30 1316 H 124.321 -2.20639 -3.09875 0
M  V30 1317 H 125.633 -2.71161 -4.18657 0
M  V30 1318 H 124.787 -1.15624 -5.9558 0
M  V30 1319 H 123.526 -0.548722 -4.84603 0
M  V30 1320 H 122.531 -2.84909 -4.7022 0
M  V30 1321 H 123.756 -3.45503 -5.8464 0
M  V30 1322 H 121.702 -1.28881 -6.43215 0
M  V30 1323 H 121.619 -2.9353 -6.96689 0
M  V30 1324 H 122.887 -1.90397 -7.5589 0
M  V30 1325 N 127.117 1.15442 -1.07289 0
M  V30 1326 C 128.067 2.18164 -0.662467 0
M  V30 1327 C 129.051 1.57845 0.312074 0
M  V30 1328 O 130.243 1.76552 0.125905 0
M  V30 1329 C 127.372 3.43246 -0.0611295 0
M  V30 1330 C 126.458 4.1062 -1.06077 0
M  V30 1331 N 126.849 4.53491 -2.24008 0
M  V30 1332 C 125.147 4.36949 -0.893964 0
M  V30 1333 C 125.848 5.05731 -2.87422 0
M  V30 1334 N 124.824 4.99236 -2.15091 0
M  V30 1335 H 128.626 2.49038 -1.56068 0
M  V30 1336 H 126.14 1.32003 -0.945988 0
M  V30 1337 H 128.137 4.16145 0.250792 0
M  V30 1338 H 126.797 3.13854 0.832207 0
M  V30 1339 H 127.808 4.46898 -2.6173 0
M  V30 1340 H 124.485 4.17466 -0.0534693 0
M  V30 1341 H 125.875 5.48865 -3.87553 0
M  V30 1342 N 128.595 0.856903 1.32268 0
M  V30 1343 C 129.525 0.31858 2.31316 0
M  V30 1344 C 130.506 -0.583487 1.59779 0
M  V30 1345 O 131.691 -0.503259 1.87566 0
M  V30 1346 C 128.821 -0.491979 3.43798 0
M  V30 1347 C 127.775 0.315849 4.26833 0
M  V30 1348 C 127.101 -0.619586 5.31098 0
M  V30 1349 C 128.401 1.54282 4.98993 0
M  V30 1350 H 130.095 1.14621 2.76591 0
M  V30 1351 H 127.641 0.552613 1.32974 0
M  V30 1352 H 129.594 -0.879012 4.1213 0
M  V30 1353 H 128.318 -1.35299 2.97257 0
M  V30 1354 H 126.977 0.684664 3.6015 0
M  V30 1355 H 126.625 -1.47751 4.8081 0
M  V30 1356 H 126.325 -0.0830621 5.87541 0
M  V30 1357 H 127.849 -1.00375 6.02293 0
M  V30 1358 H 129.263 1.22796 5.59995 0
M  V30 1359 H 127.66 2.01745 5.65172 0
M  V30 1360 H 128.73 2.30285 4.26728 0
M  V30 1361 N 130.073 -1.45103 0.615059 0
M  V30 1362 C 131.319 -2.03035 0.121804 0
M  V30 1363 C 131.674 -1.47393 -1.23665 0
M  V30 1364 O 130.967 -0.642061 -1.80522 0
M  V30 1365 C 131.161 -3.57386 0.0318797 0
M  V30 1366 C 130.99 -4.28 1.38007 0
M  V30 1367 C 129.76 -4.65624 1.9627 0
M  V30 1368 C 131.958 -4.5948 2.31047 0
M  V30 1369 N 129.94 -5.21132 3.24492 0
M  V30 1370 C 131.311 -5.159 3.43872 0
M  V30 1371 C 133.366 -4.41423 2.30326 0
M  V30 1372 C 132.069 -5.56165 4.5615 0
M  V30 1373 C 134.095 -4.82726 3.41658 0
M  V30 1374 C 133.457 -5.39245 4.53205 0
M  V30 1375 H 129.556 -0.77702 0.0881159 0
M  V30 1376 H 132.14 -1.76819 0.815044 0
M  V30 1377 H 130.311 -3.83247 -0.630599 0
M  V30 1378 H 132.043 -4.01976 -0.468721 0
M  V30 1379 H 128.798 -4.49421 1.49392 0
M  V30 1380 H 129.222 -5.53377 3.90004 0
M  V30 1381 H 133.864 -3.97033 1.45343 0
M  V30 1382 H 131.582 -5.99517 5.41854 0
M  V30 1383 H 135.168 -4.7048 3.42257 0
M  V30 1384 H 134.048 -5.70616 5.37929 0
M  V30 1385 N 131.551 -0.354651 -1.53558 0
M  V30 1386 C 132.828 0.294281 -1.93374 0
M  V30 1387 C 133.208 1.67313 -1.28723 0
M  V30 1388 O 132.556 2.24179 -0.442247 0
M  V30 1389 C 132.766 0.355445 -3.47185 0
M  V30 1390 C 134.114 0.601007 -4.20325 0
M  V30 1391 O 135.138 0.437106 -3.53508 0
M  V30 1392 O 133.997 0.919322 -5.38712 0
M  V30 1393 H 131.091 0.174033 -0.808481 0
M  V30 1394 H 133.637 -0.406638 -1.64756 0
M  V30 1395 H 132.409 -0.611729 -3.86489 0
M  V30 1396 H 132.032 1.1027 -3.82003 0
M  V30 1397 N 133.029 1.57378 -0.0835403 0
M  V30 1398 C 134.259 1.97975 0.590713 0
M  V30 1399 C 134.667 0.961083 1.62972 0
M  V30 1400 O 134.01 -0.0590879 1.83605 0
M  V30 1401 C 134.072 3.34915 1.3066 0
M  V30 1402 C 133.736 4.55069 0.419698 0
M  V30 1403 C 134.733 5.18868 -0.32749 0
M  V30 1404 C 132.418 5.0114 0.341137 0
M  V30 1405 C 134.412 6.27098 -1.14134 0
M  V30 1406 C 132.099 6.0924 -0.476374 0
M  V30 1407 C 133.097 6.72083 -1.21627 0
M  V30 1408 O 132.785 7.781 -2.02028 0
M  V30 1409 H 132.517 0.655818 0.163947 0
M  V30 1410 H 135.071 2.04807 -0.156021 0
M  V30 1411 H 133.301 3.24733 2.09966 0
M  V30 1412 H 134.99 3.60037 1.87424 0
M  V30 1413 H 135.756 4.84211 -0.276459 0
M  V30 1414 H 131.635 4.51996 0.90668 0
M  V30 1415 H 135.179 6.7608 -1.71935 0
M  V30 1416 H 131.076 6.43329 -0.528927 0
M  V30 1417 H 131.844 7.95034 -1.94586 0
M  V30 1418 N 134.507 -0.190092 1.56449 0
M  V30 1419 C 135.735 -0.925772 1.85033 0
M  V30 1420 C 136.15 -1.76638 0.666658 0
M  V30 1421 O 135.507 -1.78822 -0.364565 0
M  V30 1422 C 135.558 -1.81786 3.12468 0
M  V30 1423 O 135.279 -1.01118 4.26271 0
M  V30 1424 C 136.78 -2.6648 3.54265 0
M  V30 1425 H 134 -0.269872 0.614337 0
M  V30 1426 H 136.544 -0.195837 2.0356 0
M  V30 1427 H 134.699 -2.50136 2.95822 0
M  V30 1428 H 135.113 -1.61956 4.98869 0
M  V30 1429 H 136.587 -3.24722 4.46385 0
M  V30 1430 H 137.064 -3.40434 2.77491 0
M  V30 1431 H 137.67 -2.03493 3.73458 0
M  V30 1432 N 135.985 -1.50799 -0.457987 0
M  V30 1433 C 137.232 -1.62442 -1.20908 0
M  V30 1434 C 137.56 -0.330865 -1.91665 0
M  V30 1435 O 136.815 0.68401 -1.83357 0
M  V30 1436 C 137.114 -2.76358 -2.2663 0
M  V30 1437 C 136.78 -4.16378 -1.73033 0
M  V30 1438 C 135.442 -4.54473 -1.58138 0
M  V30 1439 C 137.794 -5.03836 -1.33413 0
M  V30 1440 C 135.122 -5.77754 -1.02065 0
M  V30 1441 C 137.474 -6.27676 -0.78778 0
M  V30 1442 C 136.138 -6.64562 -0.625561 0
M  V30 1443 H 135.408 -0.594417 -0.442435 0
M  V30 1444 H 138.055 -1.84772 -0.503136 0
M  V30 1445 H 136.36 -2.48167 -3.03184 0
M  V30 1446 H 138.057 -2.82568 -2.84528 0
M  V30 1447 H 134.647 -3.86331 -1.85598 0
M  V30 1448 H 138.831 -4.75026 -1.4375 0
M  V30 1449 H 134.087 -6.04997 -0.882547 0
M  V30 1450 H 138.261 -6.94797 -0.472177 0
M  V30 1451 H 135.888 -7.59965 -0.188926 0
M  V30 1452 N 137.463 0.71206 -1.40597 0
M  V30 1453 C 138.711 1.46907 -1.38791 0
M  V30 1454 C 139.032 1.94998 0.00780391 0
M  V30 1455 O 138.302 1.70587 0.963174 0
M  V30 1456 H 136.882 0.545043 -0.51082 0
M  V30 1457 H 139.544 0.843882 -1.75683 0
M  V30 1458 H 138.64 2.34021 -2.06496 0
M  V30 1459 N 138.941 1.26152 0.944643 0
M  V30 1460 C 140.352 1.10454 1.50522 0
M  V30 1461 C 140.703 -0.31635 1.93633 0
M  V30 1462 O 139.828 -1.20746 1.79581 0
M  V30 1463 C 140.423 1.99891 2.73549 0
M  V30 1464 C 138.982 1.88348 3.25886 0
M  V30 1465 C 138.129 1.93447 1.9868 0
M  V30 1466 H 141.08 1.39292 0.760489 0
M  V30 1467 H 141.101 1.54477 3.47732 0
M  V30 1468 H 140.613 3.03297 2.42141 0
M  V30 1469 H 138.714 0.878636 3.62092 0
M  V30 1470 H 138.827 2.73696 3.93227 0
M  V30 1471 H 137.191 1.37456 2.14425 0
M  V30 1472 H 137.974 2.98476 1.69607 0
M  V30 1473 N 140.419 -1.14872 1.07899 0
M  V30 1474 C 141.329 -2.2341 0.715915 0
M  V30 1475 C 142.345 -1.71808 -0.275306 0
M  V30 1476 O 143.521 -2.01039 -0.120545 0
M  V30 1477 C 140.586 -3.46474 0.125168 0
M  V30 1478 C 139.647 -4.13039 1.17034 0
M  V30 1479 C 138.88 -5.30229 0.607688 0
M  V30 1480 O 139.103 -5.675 -0.574497 0
M  V30 1481 O 138.037 -5.86444 1.35526 0
M  V30 1482 H 141.863 -2.56808 1.62121 0
M  V30 1483 H 139.448 -1.22702 0.852322 0
M  V30 1484 H 141.33 -4.20917 -0.201729 0
M  V30 1485 H 140.005 -3.14811 -0.753364 0
M  V30 1486 H 138.912 -3.40493 1.54968 0
M  V30 1487 H 140.245 -4.48796 2.02097 0
M  V30 1488 N 141.898 -0.863906 -1.31812 0
M  V30 1489 C 142.845 -0.313303 -2.28664 0
M  V30 1490 C 143.815 0.584868 -1.55462 0
M  V30 1491 O 145 0.517805 -1.83639 0
M  V30 1492 C 142.14 0.48441 -3.41683 0
M  V30 1493 C 141.253 -0.440594 -4.29747 0
M  V30 1494 C 140.388 0.370652 -5.29905 0
M  V30 1495 C 139.427 -0.551164 -6.09613 0
M  V30 1496 N 138.564 0.223462 -7.01744 0
M  V30 1497 H 143.404 -1.14444 -2.75148 0
M  V30 1498 H 140.941 -0.575769 -1.35364 0
M  V30 1499 H 142.899 0.962627 -4.05943 0
M  V30 1500 H 141.529 1.28029 -2.96325 0
M  V30 1501 H 140.581 -1.03724 -3.65986 0
M  V30 1502 H 141.893 -1.14767 -4.85417 0
M  V30 1503 H 141.047 0.911638 -5.99812 0
M  V30 1504 H 139.786 1.11105 -4.74876 0
M  V30 1505 H 138.791 -1.10396 -5.38603 0
M  V30 1506 H 140.016 -1.29032 -6.66729 0
M  V30 1507 H 137.962 0.946787 -6.49132 0
M  V30 1508 H 137.879 -0.424399 -7.54808 0
M  V30 1509 H 139.147 0.745876 -7.75923 0
M  V30 1510 N 143.376 1.44774 -0.622745 0
M  V30 1511 C 144.306 2.33382 0.0741861 0
M  V30 1512 C 145.287 1.47719 0.843387 0
M  V30 1513 O 146.472 1.76458 0.810934 0
M  V30 1514 C 143.602 3.30663 1.06204 0
M  V30 1515 C 142.556 4.26079 0.405037 0
M  V30 1516 C 141.882 5.13165 1.5022 0
M  V30 1517 C 143.182 5.1781 -0.683414 0
M  V30 1518 H 144.876 2.91905 -0.665713 0
M  V30 1519 H 142.422 1.40363 -0.321587 0
M  V30 1520 H 144.375 3.9153 1.55827 0
M  V30 1521 H 143.099 2.70331 1.83272 0
M  V30 1522 H 141.758 3.66532 -0.0704683 0
M  V30 1523 H 141.406 4.49191 2.26355 0
M  V30 1524 H 141.106 5.77812 1.06803 0
M  V30 1525 H 142.63 5.76902 2.00041 0
M  V30 1526 H 144.044 5.72661 -0.270631 0
M  V30 1527 H 142.441 5.91015 -1.04023 0
M  V30 1528 H 143.511 4.59326 -1.55395 0
M  V30 1529 N 144.854 0.36279 1.53368 0
M  V30 1530 C 145.802 -0.500155 2.27159 0
M  V30 1531 C 146.796 -1.08575 1.3003 0
M  V30 1532 O 148.002 -1.02927 1.47668 0
M  V30 1533 H 144.377 -0.180009 0.730138 0
M  V30 1534 H 146.348 0.14401 2.98052 0
M  V30 1535 C 145.097 -1.62937 3.07159 0
M  V30 1536 H 144.42 -1.18806 3.8174 0
M  V30 1537 H 145.86 -2.20795 3.61975 0
M  V30 1538 C 144.319 -2.57007 2.17829 0
M  V30 1539 O 144.849 -3.59752 1.78721 0
M  V30 1540 N 143.055 -2.26131 1.82518 0
M  V30 1541 H 142.602 -1.42616 2.14519 0
M  V30 1542 H 142.56 -2.89327 1.23034 0
M  V30 1543 N 146.332 -1.57332 0.0918853 0
M  V30 1544 C 147.581 -1.93412 -0.572249 0
M  V30 1545 C 147.894 -0.975515 -1.69538 0
M  V30 1546 O 149.1 -1.22991 -2.42045 0
M  V30 1547 C 147.556 -3.43648 -1.0693 0
M  V30 1548 C 147.164 -4.47994 0.0239049 0
M  V30 1549 C 148.908 -3.88695 -1.70635 0
M  V30 1550 C 146.815 -5.89381 -0.488319 0
M  V30 1551 H 145.745 -0.721939 -0.217532 0
M  V30 1552 H 148.396 -1.82735 0.167369 0
M  V30 1553 H 146.778 -3.49466 -1.8625 0
M  V30 1554 H 147.952 -4.53815 0.799277 0
M  V30 1555 H 146.267 -4.12536 0.565946 0
M  V30 1556 H 148.864 -4.91725 -2.10025 0
M  V30 1557 H 149.207 -3.27166 -2.57426 0
M  V30 1558 H 149.74 -3.85564 -0.979023 0
M  V30 1559 H 146.479 -6.54602 0.342906 0
M  V30 1560 H 145.999 -5.87037 -1.23077 0
M  V30 1561 H 147.678 -6.39863 -0.958317 0
M  V30 1562 N 147.81 0.181792 -1.56548 0
M  V30 1563 C 149.087 0.926765 -1.72251 0
M  V30 1564 C 149.467 2.00831 -0.650386 0
M  V30 1565 O 148.815 2.26008 0.336521 0
M  V30 1566 C 149.025 1.50106 -3.1507 0
M  V30 1567 C 150.373 1.97805 -3.75711 0
M  V30 1568 O 151.397 1.59922 -3.18282 0
M  V30 1569 O 150.256 2.67555 -4.76525 0
M  V30 1570 H 147.35 0.435506 -0.703039 0
M  V30 1571 H 149.896 0.170443 -1.68842 0
M  V30 1572 H 148.668 0.72212 -3.84579 0
M  V30 1573 H 148.291 2.32186 -3.22763 0
M  V30 1574 N 149.288 1.51039 0.449983 0
M  V30 1575 C 150.516 1.66869 1.2232 0
M  V30 1576 C 150.931 0.360727 1.85322 0
M  V30 1577 O 150.288 -0.659531 1.70166 0
M  V30 1578 C 150.339 2.77524 2.31652 0
M  V30 1579 O 150.06 4.03252 1.7123 0
M  V30 1580 C 151.561 3.04512 3.2216 0
M  V30 1581 H 148.781 0.560326 0.369155 0
M  V30 1582 H 151.325 1.97385 0.534719 0
M  V30 1583 H 149.48 2.49642 2.96239 0
M  V30 1584 H 149.894 4.64609 2.43389 0
M  V30 1585 H 151.368 3.85551 3.95038 0
M  V30 1586 H 151.845 2.16415 3.8218 0
M  V30 1587 H 152.451 3.34005 2.63288 0
M  V30 1588 N 150.766 -0.704594 1.40972 0
M  V30 1589 C 152.182 -1.01406 1.23244 0
M  V30 1590 C 152.382 -2.01169 0.115399 0
M  V30 1591 O 151.438 -2.47021 -0.523147 0
M  V30 1592 C 152.751 -1.54728 2.57836 0
M  V30 1593 C 154.299 -1.66658 2.64942 0
M  V30 1594 C 154.774 -2.23383 3.9983 0
M  V30 1595 N 156.265 -2.30756 4.01629 0
M  V30 1596 C 157 -2.75655 5.02794 0
M  V30 1597 N 156.496 -3.20225 6.14352 0
M  V30 1598 N 158.289 -2.75138 4.90159 0
M  V30 1599 H 150.44 -0.0435285 2.12355 0
M  V30 1600 H 152.703 -0.0818951 0.944456 0
M  V30 1601 H 152.409 -0.888832 3.40283 0
M  V30 1602 H 152.283 -2.53084 2.79693 0
M  V30 1603 H 154.67 -2.31617 1.8286 0
M  V30 1604 H 154.751 -0.668717 2.46904 0
M  V30 1605 H 154.395 -1.59043 4.82357 0
M  V30 1606 H 154.325 -3.23904 4.15203 0
M  V30 1607 H 156.816 -1.99291 3.21079 0
M  V30 1608 H 157.129 -3.53084 6.87424 0
M  V30 1609 H 155.474 -3.18156 6.17901 0
M  V30 1610 H 158.665 -2.39661 4.02095 0
M  V30 1611 H 158.838 -3.09812 5.6914 0
M  V30 1612 N 152.244 -1.26651 -0.937939 0
M  V30 1613 C 153.192 -1.08308 -2.05845 0
M  V30 1614 C 154.186 -0.0090757 -1.69398 0
M  V30 1615 O 155.392 -0.166007 -1.79233 0
M  V30 1616 H 151.767 -0.333416 -0.674046 0
M  V30 1617 H 153.738 -2.03261 -2.18467 0
M  V30 1618 C 152.487 -0.736229 -3.39816 0
M  V30 1619 H 151.81 -1.55453 -3.6834 0
M  V30 1620 H 153.25 -0.64769 -4.19024 0
M  V30 1621 C 151.709 0.558824 -3.32233 0
M  V30 1622 O 152.239 1.59621 -3.68624 0
M  V30 1623 N 150.445 0.550657 -2.85335 0
M  V30 1624 H 149.992 -0.293943 -2.55917 0
M  V30 1625 H 149.95 1.41726 -2.80644 0
M  V30 1626 N 153.722 1.14298 -1.08507 0
M  V30 1627 C 154.962 1.87016 -0.824894 0
M  V30 1628 C 155.326 1.81099 0.637735 0
M  V30 1629 O 156.527 2.48963 1.01345 0
M  V30 1630 C 154.798 3.31584 -1.33368 0
M  V30 1631 S 156.357 4.21903 -1.20596 0
M  V30 1632 H 153.175 0.645259 -0.2986 0
M  V30 1633 H 155.777 1.37822 -1.38656 0
M  V30 1634 H 154.481 3.33439 -2.39262 0
M  V30 1635 H 154.012 3.85836 -0.767734 0
M  V30 1636 H 156.027 4.95971 -0.150891 0
M  V30 1637 N 155.201 0.870884 1.31352 0
M  V30 1638 C 156.148 0.325425 2.28494 0
M  V30 1639 C 157.118 -0.576615 1.5577 0
M  V30 1640 O 158.303 -0.508059 1.83911 0
M  V30 1641 C 155.443 -0.466283 3.41935 0
M  V30 1642 C 154.556 0.463378 4.29508 0
M  V30 1643 C 153.691 -0.342544 5.30094 0
M  V30 1644 C 152.73 0.583486 6.09313 0
M  V30 1645 N 151.867 -0.186244 7.01853 0
M  V30 1646 H 156.707 1.15901 2.74538 0
M  V30 1647 H 154.244 0.58294 1.35056 0
M  V30 1648 H 156.202 -0.941085 4.06447 0
M  V30 1649 H 154.832 -1.26456 2.97 0
M  V30 1650 H 153.884 1.05663 3.65431 0
M  V30 1651 H 155.196 1.1734 4.84802 0
M  V30 1652 H 154.35 -0.879816 6.00287 0
M  V30 1653 H 153.089 -1.08585 4.75458 0
M  V30 1654 H 152.094 1.13251 5.3801 0
M  V30 1655 H 153.319 1.32566 6.66035 0
M  V30 1656 H 151.265 -0.912348 6.49625 0
M  V30 1657 H 151.182 0.464422 7.54572 0
M  V30 1658 H 152.45 -0.704716 7.76308 0
M  V30 1659 N 156.679 -1.44442 0.630414 0
M  V30 1660 C 157.928 -2.01267 0.132073 0
M  V30 1661 C 158.241 -1.50172 -1.25331 0
M  V30 1662 O 159.447 -1.9912 -1.84562 0
M  V30 1663 C 157.903 -3.59422 0.185362 0
M  V30 1664 C 157.511 -4.19514 1.57201 0
M  V30 1665 C 159.255 -4.23724 -0.256553 0
M  V30 1666 C 157.162 -5.69891 1.58045 0
M  V30 1667 H 156.092 -0.752619 0.0456092 0
M  V30 1668 H 158.743 -1.65666 0.789106 0
M  V30 1669 H 157.125 -3.92318 -0.538759 0
M  V30 1670 H 158.299 -3.98156 2.31966 0
M  V30 1671 H 156.614 -3.67496 1.95795 0
M  V30 1672 H 159.211 -5.34019 -0.269767 0
M  V30 1673 H 159.554 -3.96013 -1.28372 0
M  V30 1674 H 160.087 -3.95629 0.41505 0
M  V30 1675 H 156.826 -6.02336 2.58597 0
M  V30 1676 H 156.346 -5.93373 0.875725 0
M  V30 1677 H 158.025 -6.33515 1.31408 0
M  V30 1678 N 158.157 -0.370918 -1.53173 0
M  V30 1679 C 159.087 0.464847 -2.28826 0
M  V30 1680 C 160.068 1.07936 -1.31468 0
M  V30 1681 O 161.253 1.0956 -1.60344 0
M  V30 1682 C 158.383 1.60196 -3.08147 0
M  V30 1683 C 157.337 1.11443 -4.13237 0
M  V30 1684 C 156.663 2.3422 -4.80672 0
M  V30 1685 C 157.963 0.195384 -5.21934 0
M  V30 1686 H 159.657 -0.166329 -2.98938 0
M  V30 1687 H 157.203 -0.0814359 -1.4377 0
M  V30 1688 H 159.156 2.19332 -3.59822 0
M  V30 1689 H 157.88 2.26045 -2.35735 0
M  V30 1690 H 156.539 0.545727 -3.62515 0
M  V30 1691 H 156.187 2.98537 -4.04827 0
M  V30 1692 H 155.887 2.02269 -5.51689 0
M  V30 1693 H 157.411 2.94032 -5.35143 0
M  V30 1694 H 158.825 0.694375 -5.69079 0
M  V30 1695 H 157.222 -0.0335027 -6.00091 0
M  V30 1696 H 158.292 -0.760961 -4.78892 0
M  V30 1697 N 159.635 1.57281 -0.100228 0
M  V30 1698 C 160.565 2.17328 0.853857 0
M  V30 1699 C 161.546 1.10804 1.2906 0
M  V30 1700 O 162.731 1.38963 1.35657 0
M  V30 1701 C 159.861 2.75772 2.11109 0
M  V30 1702 C 158.815 3.87713 1.81279 0
M  V30 1703 C 158.141 4.32882 3.13874 0
M  V30 1704 C 159.441 5.10677 1.09574 0
M  V30 1705 H 161.135 2.97305 0.353545 0
M  V30 1706 H 158.681 1.43009 0.168612 0
M  V30 1707 H 160.634 3.16433 2.78296 0
M  V30 1708 H 159.358 1.93057 2.63432 0
M  V30 1709 H 158.017 3.476 1.16489 0
M  V30 1710 H 157.665 3.47051 3.64095 0
M  V30 1711 H 157.365 5.08358 2.94696 0
M  V30 1712 H 158.889 4.7618 3.82211 0
M  V30 1713 H 160.303 5.48474 1.66879 0
M  V30 1714 H 158.7 5.91615 1.00557 0
M  V30 1715 H 159.77 4.84835 0.0793299 0
M  V30 1716 N 161.113 -0.173488 1.56642 0
M  V30 1717 C 162.341 -0.906095 1.86004 0
M  V30 1718 C 162.756 -1.75921 0.685355 0
M  V30 1719 O 162.113 -1.79198 -0.345578 0
M  V30 1720 C 162.164 -1.78462 3.14378 0
M  V30 1721 O 161.885 -0.965914 4.27319 0
M  V30 1722 C 163.386 -2.62707 3.57071 0
M  V30 1723 H 160.606 -0.263341 0.617165 0
M  V30 1724 H 163.15 -0.174236 2.03756 0
M  V30 1725 H 161.305 -2.46984 2.98459 0
M  V30 1726 H 161.719 -1.56655 5.00559 0
M  V30 1727 H 163.193 -3.19969 4.49804 0
M  V30 1728 H 163.67 -3.37472 2.81086 0
M  V30 1729 H 164.276 -1.99521 3.75595 0
M  V30 1730 N 162.591 -1.51276 -0.441967 0
M  V30 1731 C 163.501 -1.75092 -1.56141 0
M  V30 1732 C 164.517 -0.634963 -1.62001 0
M  V30 1733 O 165.693 -0.916686 -1.79329 0
M  V30 1734 C 162.758 -1.86666 -2.92158 0
M  V30 1735 C 161.819 -3.10506 -2.96453 0
M  V30 1736 C 161.052 -3.21519 -4.25982 0
M  V30 1737 O 161.275 -2.38586 -5.18105 0
M  V30 1738 O 160.209 -4.14465 -4.36466 0
M  V30 1739 H 164.035 -2.70044 -1.38961 0
M  V30 1740 H 161.62 -1.35722 -0.624499 0
M  V30 1741 H 163.502 -1.96292 -3.72891 0
M  V30 1742 H 162.177 -0.949014 -3.09476 0
M  V30 1743 H 161.084 -3.06363 -2.14692 0
M  V30 1744 H 162.417 -4.01945 -2.84079 0
M  V30 1745 N 164.069 0.697108 -1.41344 0
M  V30 1746 C 165.48 1.27697 -1.36199 0
M  V30 1747 C 165.831 1.9615 -0.0443463 0
M  V30 1748 O 164.956 1.98689 0.857419 0
M  V30 1749 C 165.551 2.32223 -2.46694 0
M  V30 1750 C 164.11 2.8579 -2.44952 0
M  V30 1751 C 163.257 1.59807 -2.26621 0
M  V30 1752 H 166.208 0.491968 -1.50882 0
M  V30 1753 H 166.229 3.1348 -2.15664 0
M  V30 1754 H 165.741 1.82373 -3.42581 0
M  V30 1755 H 163.842 3.3982 -1.52817 0
M  V30 1756 H 163.955 3.36325 -3.41207 0
M  V30 1757 H 162.319 1.8556 -1.7447 0
M  V30 1758 H 163.102 1.11956 -3.24532 0
M  V30 1759 N 165.547 1.27147 0.931209 0
M  V30 1760 C 166.958 1.12044 1.49342 0
M  V30 1761 C 167.309 -0.295795 1.93957 0
M  V30 1762 O 166.434 -1.18835 1.80852 0
M  V30 1763 C 167.029 2.02781 2.71414 0
M  V30 1764 C 165.588 1.91794 3.2387 0
M  V30 1765 C 164.735 1.95543 1.96617 0
M  V30 1766 H 167.686 1.40091 0.745672 0
M  V30 1767 H 167.707 1.58156 3.46074 0
M  V30 1768 H 167.219 3.05848 2.38911 0
M  V30 1769 H 165.32 0.916992 3.6114 0
M  V30 1770 H 165.433 2.77852 3.90302 0
M  V30 1771 H 163.797 1.39722 2.12955 0
M  V30 1772 H 164.58 3.00259 1.66432 0
M  V30 1773 N 167.025 -1.13721 1.09112 0
M  V30 1774 C 167.958 -2.18094 0.67158 0
M  V30 1775 C 168.936 -1.59414 -0.320299 0
M  V30 1776 O 170.12 -1.87183 -0.222444 0
M  V30 1777 C 167.247 -3.38698 -0.0111189 0
M  V30 1778 C 166.293 -4.15966 0.942055 0
M  V30 1779 S 167.126 -4.7604 2.45246 0
M  V30 1780 C 168.282 -5.99994 1.78208 0
M  V30 1781 H 168.515 -2.53344 1.55577 0
M  V30 1782 H 166.048 -1.24967 0.906789 0
M  V30 1783 H 168.006 -4.08559 -0.398716 0
M  V30 1784 H 166.667 -3.01756 -0.871905 0
M  V30 1785 H 165.86 -5.02318 0.411396 0
M  V30 1786 H 165.462 -3.51745 1.2709 0
M  V30 1787 H 167.754 -6.68441 1.10424 0
M  V30 1788 H 168.697 -6.57662 2.62463 0
M  V30 1789 H 169.105 -5.50432 1.25238 0
M  V30 1790 N 168.503 -0.877838 -1.30888 0
M  V30 1791 C 169.451 -0.328662 -2.30266 0
M  V30 1792 C 170.445 0.560496 -1.59859 0
M  V30 1793 O 171.651 0.445722 -1.74394 0
M  V30 1794 H 168.026 -0.0876142 -0.746879 0
M  V30 1795 H 169.997 -1.18061 -2.74051 0
M  V30 1796 C 168.746 0.448071 -3.44801 0
M  V30 1797 H 168.069 -0.226859 -3.99156 0
M  V30 1798 H 169.509 0.797541 -4.16432 0
M  V30 1799 C 167.968 1.64239 -2.94155 0
M  V30 1800 O 168.498 2.74175 -2.93583 0
M  V30 1801 N 166.704 1.47716 -2.50256 0
M  V30 1802 H 166.251 0.582821 -2.5092 0
M  V30 1803 H 166.209 2.27765 -2.16727 0
M  V30 1804 N 169.982 1.44106 -0.638065 0
M  V30 1805 C 171.393 1.85316 -0.226894 0
M  V30 1806 C 171.744 1.53399 1.22324 0
M  V30 1807 O 170.869 0.975463 1.93167 0
M  V30 1808 C 171.464 3.3637 -0.405013 0
M  V30 1809 C 170.023 3.76369 -0.0482902 0
M  V30 1810 C 169.17 2.67921 -0.715108 0
M  V30 1811 H 172.121 1.34474 -0.842764 0
M  V30 1812 H 172.142 3.7885 0.354 0
M  V30 1813 H 171.654 3.59569 -1.46053 0
M  V30 1814 H 169.755 3.58784 1.00522 0
M  V30 1815 H 169.868 4.76856 -0.463187 0
M  V30 1816 H 168.232 2.54259 -0.149753 0
M  V30 1817 H 169.015 2.93951 -1.77335 0
M  V30 1818 N 171.46 0.379036 1.52974 0
M  V30 1819 C 172.688 -0.20679 2.05864 0
M  V30 1820 C 173.103 -1.41356 1.25155 0
M  V30 1821 O 172.46 -1.8009 0.295588 0
M  V30 1822 C 172.511 -0.587045 3.56702 0
M  V30 1823 O 172.232 0.571776 4.34353 0
M  V30 1824 C 173.733 -1.22983 4.25899 0
M  V30 1825 H 170.953 -0.0336123 0.670158 0
M  V30 1826 H 173.497 0.541298 1.97206 0
M  V30 1827 H 171.652 -1.28504 3.65466 0
M  V30 1828 H 172.066 0.261544 5.23847 0
M  V30 1829 H 173.54 -1.44635 5.32715 0
M  V30 1830 H 174.017 -2.19416 3.80465 0
M  V30 1831 H 174.623 -0.572892 4.21424 0
M  V30 1832 N 172.938 -1.57226 0.108567 0
M  V30 1833 C 173.885 -2.14756 -0.845481 0
M  V30 1834 C 174.855 -1.06971 -1.27068 0
M  V30 1835 O 176.04 -1.34827 -1.35005 0
M  V30 1836 C 173.18 -2.74298 -2.09415 0
M  V30 1837 C 172.293 -3.96358 -1.71826 0
M  V30 1838 C 171.428 -4.44021 -2.9158 0
M  V30 1839 C 170.467 -5.58637 -2.50181 0
M  V30 1840 N 169.604 -6.01091 -3.62814 0
M  V30 1841 H 174.444 -2.95961 -0.348035 0
M  V30 1842 H 171.981 -1.46226 -0.160106 0
M  V30 1843 H 173.939 -3.06945 -2.82561 0
M  V30 1844 H 172.569 -1.95801 -2.56636 0
M  V30 1845 H 171.621 -3.69939 -0.885947 0
M  V30 1846 H 172.933 -4.79504 -1.37394 0
M  V30 1847 H 172.087 -4.78522 -3.72963 0
M  V30 1848 H 170.826 -3.59803 -3.29231 0
M  V30 1849 H 169.831 -5.23751 -1.67228 0
M  V30 1850 H 171.056 -6.44613 -2.13659 0
M  V30 1851 H 169.002 -5.19817 -4.00158 0
M  V30 1852 H 168.919 -6.79066 -3.32273 0
M  V30 1853 H 170.187 -6.40227 -4.44668 0
M  V30 1854 N 174.416 0.165178 -1.56732 0
M  V30 1855 C 175.364 1.22369 -1.97809 0
M  V30 1856 C 176.358 1.45488 -0.867741 0
M  V30 1857 O 177.564 1.45995 -1.05288 0
M  V30 1858 H 173.939 0.411486 -0.629431 0
M  V30 1859 H 175.91 0.850425 -2.86025 0
M  V30 1860 C 174.659 2.55403 -2.35934 0
M  V30 1861 H 173.982 2.38438 -3.20916 0
M  V30 1862 H 175.422 3.2814 -2.68514 0
M  V30 1863 C 173.881 3.14611 -1.20506 0
M  V30 1864 O 174.411 3.98626 -0.496016 0
M  V30 1865 N 172.617 2.7379 -0.97403 0
M  V30 1866 H 172.164 2.0557 -1.55238 0
M  V30 1867 H 172.122 3.1374 -0.203573 0
M  V30 1868 N 175.894 1.51508 0.433938 0
M  V30 1869 C 177.31 1.39759 0.770682 0
M  V30 1870 C 177.51 0.482594 1.95636 0
M  V30 1871 O 176.566 -0.0609691 2.52426 0
M  V30 1872 C 177.879 2.81851 1.04787 0
M  V30 1873 C 179.427 2.91025 1.1521 0
M  V30 1874 C 179.902 4.34032 1.46219 0
M  V30 1875 N 181.393 4.37154 1.53136 0
M  V30 1876 C 182.128 5.4484 1.78709 0
M  V30 1877 N 181.624 6.62682 2.02051 0
M  V30 1878 N 183.417 5.32324 1.80519 0
M  V30 1879 H 175.568 2.09548 -0.346892 0
M  V30 1880 H 177.831 0.943446 -0.0928074 0
M  V30 1881 H 177.537 3.50815 0.249304 0
M  V30 1882 H 177.411 3.21386 1.97461 0
M  V30 1883 H 179.798 2.22257 1.94128 0
M  V30 1884 H 179.879 2.54983 0.204281 0
M  V30 1885 H 179.523 5.03351 0.678274 0
M  V30 1886 H 179.453 4.6759 2.42212 0
M  V30 1887 H 181.944 3.52197 1.36987 0
M  V30 1888 H 182.257 7.40543 2.20943 0
M  V30 1889 H 180.602 6.65791 1.99366 0
M  V30 1890 H 183.793 4.39246 1.61805 0
M  V30 1891 H 183.966 6.16328 2.00111 0
M  V30 1892 N 177.372 -0.689602 1.41712 0
M  V30 1893 C 178.282 -1.83314 1.46401 0
M  V30 1894 C 179.298 -1.7036 0.35405 0
M  V30 1895 O 180.474 -1.92171 0.602692 0
M  V30 1896 C 177.539 -3.19344 1.34982 0
M  V30 1897 C 176.6 -3.44363 2.56344 0
M  V30 1898 C 175.833 -4.73904 2.45461 0
M  V30 1899 O 176.056 -5.508 1.48241 0
M  V30 1900 O 174.99 -4.99839 3.35328 0
M  V30 1901 H 178.816 -1.82314 2.42889 0
M  V30 1902 H 176.401 -0.843438 1.23315 0
M  V30 1903 H 178.283 -4.00547 1.3092 0
M  V30 1904 H 176.958 -3.21014 0.41612 0
M  V30 1905 H 175.865 -2.63067 2.65982 0
M  V30 1906 H 177.198 -3.47512 3.48563 0
M  V30 1907 N 178.85 -1.27639 -0.924453 0
M  V30 1908 C 179.797 -1.10644 -2.0255 0
M  V30 1909 C 180.767 -0.00658438 -1.66099 0
M  V30 1910 O 181.952 -0.16952 -1.90045 0
M  V30 1911 C 179.092 -0.76309 -3.36557 0
M  V30 1912 C 178.205 -1.94091 -3.85944 0
M  V30 1913 C 177.34 -1.53914 -5.08413 0
M  V30 1914 C 176.379 -2.68425 -5.50104 0
M  V30 1915 N 175.516 -2.28815 -6.63768 0
M  V30 1916 H 180.356 -2.04858 -2.16419 0
M  V30 1917 H 177.893 -1.01974 -1.06017 0
M  V30 1918 H 179.851 -0.544822 -4.13627 0
M  V30 1919 H 178.481 0.142102 -3.22487 0
M  V30 1920 H 177.533 -2.27162 -3.05125 0
M  V30 1921 H 178.845 -2.7998 -4.12811 0
M  V30 1922 H 177.999 -1.28231 -5.92994 0
M  V30 1923 H 176.738 -0.651391 -4.8333 0
M  V30 1924 H 175.743 -2.94819 -4.64071 0
M  V30 1925 H 176.968 -3.57826 -5.7718 0
M  V30 1926 H 174.914 -1.42495 -6.40337 0
M  V30 1927 H 174.831 -3.08242 -6.90306 0
M  V30 1928 H 176.099 -2.06387 -7.51681 0
M  V30 1929 N 180.328 1.1314 -1.09713 0
M  V30 1930 C 181.577 1.83838 -0.829851 0
M  V30 1931 C 181.89 1.84599 0.646728 0
M  V30 1932 O 183.096 2.51218 1.02965 0
M  V30 1933 C 181.552 3.30069 -1.43466 0
M  V30 1934 C 181.16 3.37688 -2.94399 0
M  V30 1935 C 182.904 4.05788 -1.24645 0
M  V30 1936 C 180.811 4.78209 -3.47952 0
M  V30 1937 H 179.741 0.68877 -0.306777 0
M  V30 1938 H 182.392 1.27448 -1.3202 0
M  V30 1939 H 180.774 3.8628 -0.871996 0
M  V30 1940 H 181.948 2.91456 -3.56918 0
M  V30 1941 H 180.263 2.75436 -3.12289 0
M  V30 1942 H 182.86 5.09535 -1.62107 0
M  V30 1943 H 183.203 4.15878 -0.187357 0
M  V30 1944 H 183.736 3.55915 -1.77678 0
M  V30 1945 H 180.475 4.73311 -4.53495 0
M  V30 1946 H 179.995 5.24924 -2.90198 0
M  V30 1947 H 181.674 5.47133 -3.45332 0
M  V30 1948 N 181.806 0.884767 1.30421 0
M  V30 1949 C 183.052 0.503851 1.96441 0
M  V30 1950 C 183.385 -0.944518 1.69684 0
M  V30 1951 O 182.66 -1.66737 1.00145 0
M  V30 1952 C 182.943 0.779085 3.51571 0
M  V30 1953 C 182.796 2.27807 3.87846 0
M  V30 1954 C 184.115 0.255452 4.39358 0
M  V30 1955 H 181.234 0.184533 0.713524 0
M  V30 1956 H 183.876 1.10872 1.54297 0
M  V30 1957 H 182.026 0.264274 3.876 0
M  V30 1958 H 183.698 2.86127 3.61841 0
M  V30 1959 H 181.941 2.74479 3.35922 0
M  V30 1960 H 182.612 2.42125 4.96064 0
M  V30 1961 H 185.088 0.696079 4.10236 0
M  V30 1962 H 183.964 0.477361 5.4682 0
M  V30 1963 H 184.225 -0.843293 4.33983 0
M  V30 1964 N 183.284 -1.43765 0.645699 0
M  V30 1965 C 184.194 -2.34544 -0.0512957 0
M  V30 1966 C 185.21 -1.53455 -0.82022 0
M  V30 1967 O 186.386 -1.86133 -0.769176 0
M  V30 1968 C 183.451 -3.31636 -1.01087 0
M  V30 1969 C 182.512 -4.2863 -0.239712 0
M  V30 1970 C 181.745 -5.21084 -1.15358 0
M  V30 1971 O 181.968 -5.1779 -2.39269 0
M  V30 1972 O 180.902 -5.98593 -0.630038 0
M  V30 1973 H 184.728 -2.95624 0.695718 0
M  V30 1974 H 182.313 -1.43781 0.405882 0
M  V30 1975 H 184.195 -3.9136 -1.56254 0
M  V30 1976 H 182.87 -2.73069 -1.73824 0
M  V30 1977 H 181.777 -3.72408 0.355356 0
M  V30 1978 H 183.11 -4.90157 0.447936 0
M  V30 1979 N 184.763 -0.387143 -1.52771 0
M  V30 1980 C 186.009 0.196025 -2.0185 0
M  V30 1981 C 186.342 1.46641 -1.27319 0
M  V30 1982 O 185.617 1.90889 -0.373032 0
M  V30 1983 C 185.9 0.466136 -3.5707 0
M  V30 1984 C 185.753 -0.819385 -4.42274 0
M  V30 1985 C 187.072 1.25768 -4.21747 0
M  V30 1986 H 184.191 0.0697708 -0.73369 0
M  V30 1987 H 186.833 -0.516286 -1.82851 0
M  V30 1988 H 184.983 1.07293 -3.7339 0
M  V30 1989 H 186.655 -1.4563 -4.37709 0
M  V30 1990 H 184.898 -1.43517 -4.09372 0
M  V30 1991 H 185.569 -0.585065 -5.48891 0
M  V30 1992 H 188.045 0.744167 -4.09391 0
M  V30 1993 H 186.921 1.41541 -5.30337 0
M  V30 1994 H 187.182 2.27228 -3.79236 0
M  V30 1995 N 186.241 1.57166 -0.116904 0
M  V30 1996 C 187.174 2.10912 0.871291 0
M  V30 1997 C 188.152 1.025 1.26224 0
M  V30 1998 O 189.336 1.3014 1.36366 0
M  V30 1999 C 186.463 2.6041 2.16574 0
M  V30 2000 C 185.509 3.80687 1.92302 0
M  V30 2001 S 186.342 5.23199 1.14119 0
M  V30 2002 C 187.498 5.76064 2.44748 0
M  V30 2003 H 187.731 2.94401 0.414138 0
M  V30 2004 H 185.264 1.54096 0.096829 0
M  V30 2005 H 187.222 2.89583 2.9095 0
M  V30 2006 H 185.883 1.77106 2.59408 0
M  V30 2007 H 185.076 4.13462 2.8821 0
M  V30 2008 H 184.678 3.5212 1.26047 0
M  V30 2009 H 186.97 5.8566 3.406 0
M  V30 2010 H 187.913 6.74184 2.16521 0
M  V30 2011 H 188.321 5.04117 2.54019 0
M  V30 2012 N 187.719 -0.156864 1.56817 0
M  V30 2013 C 188.966 -0.871125 1.82805 0
M  V30 2014 C 189.294 -1.81611 0.696262 0
M  V30 2015 O 188.549 -1.93141 -0.315459 0
M  V30 2016 C 188.848 -1.68737 3.1506 0
M  V30 2017 C 188.514 -0.890045 4.42028 0
M  V30 2018 C 187.176 -0.670042 4.76512 0
M  V30 2019 C 189.528 -0.331769 5.20143 0
M  V30 2020 C 186.856 0.119104 5.86579 0
M  V30 2021 C 189.208 0.444365 6.31037 0
M  V30 2022 C 187.872 0.675035 6.64078 0
M  V30 2023 H 187.142 -0.318767 0.668931 0
M  V30 2024 H 189.789 -0.135274 1.91022 0
M  V30 2025 H 188.094 -2.49304 3.0225 0
M  V30 2026 H 189.791 -2.24331 3.3238 0
M  V30 2027 H 186.381 -1.07157 4.14988 0
M  V30 2028 H 190.565 -0.489043 4.93885 0
M  V30 2029 H 185.821 0.307417 6.10627 0
M  V30 2030 H 189.995 0.884139 6.90765 0
M  V30 2031 H 187.622 1.28839 7.49203 0
M  V30 2032 N 189.197 -1.51736 -0.425897 0
M  V30 2033 C 190.107 -1.76738 -1.54275 0
M  V30 2034 C 191.123 -0.65211 -1.61318 0
M  V30 2035 O 192.299 -0.935654 -1.78346 0
M  V30 2036 C 189.364 -1.89755 -2.90162 0
M  V30 2037 C 188.425 -3.13633 -2.93143 0
M  V30 2038 C 187.658 -3.2602 -4.22548 0
M  V30 2039 O 187.881 -2.44067 -5.15546 0
M  V30 2040 O 186.815 -4.19071 -4.32046 0
M  V30 2041 H 190.641 -2.71502 -1.36089 0
M  V30 2042 H 188.226 -1.36376 -0.610069 0
M  V30 2043 H 190.108 -2.00236 -3.70788 0
M  V30 2044 H 188.783 -0.981785 -3.08452 0
M  V30 2045 H 187.69 -3.08622 -2.11431 0
M  V30 2046 H 189.023 -4.04936 -2.798 0
M  V30 2047 N 190.675 0.682077 -1.42076 0
M  V30 2048 C 191.903 1.47057 -1.4554 0
M  V30 2049 C 192.318 1.8869 -0.0645779 0
M  V30 2050 O 191.675 1.57666 0.919115 0
M  V30 2051 C 191.726 2.72442 -2.37609 0
M  V30 2052 O 191.447 2.32559 -3.71279 0
M  V30 2053 C 192.948 3.66069 -2.50017 0
M  V30 2054 H 190.168 0.452737 -0.495248 0
M  V30 2055 H 192.712 0.838695 -1.8651 0
M  V30 2056 H 190.867 3.31835 -1.9991 0
M  V30 2057 H 191.281 3.13475 -4.20516 0
M  V30 2058 H 192.755 4.50792 -3.18576 0
M  V30 2059 H 193.232 4.11476 -1.53572 0
M  V30 2060 H 193.838 3.12572 -2.88407 0
M  V30 2061 N 192.153 1.28127 0.917671 0
M  V30 2062 C 193.383 1.17722 1.6978 0
M  V30 2063 C 193.791 -0.267261 1.87303 0
M  V30 2064 O 193.134 -1.19286 1.39702 0
M  V30 2065 C 193.196 1.79958 3.11216 0
M  V30 2066 C 192.86 3.29187 3.16993 0
M  V30 2067 C 193.857 4.25679 2.98485 0
M  V30 2068 C 191.542 3.70075 3.39632 0
M  V30 2069 C 193.536 5.61035 3.02521 0
M  V30 2070 C 191.223 5.05557 3.433 0
M  V30 2071 C 192.221 6.00847 3.24764 0
M  V30 2072 O 191.909 7.33859 3.28187 0
M  V30 2073 H 191.641 0.409788 0.537634 0
M  V30 2074 H 194.195 1.69694 1.15728 0
M  V30 2075 H 192.425 1.22475 3.66793 0
M  V30 2076 H 194.114 1.64125 3.71238 0
M  V30 2077 H 194.88 3.95426 2.80826 0
M  V30 2078 H 190.759 2.96373 3.53106 0
M  V30 2079 H 194.303 6.35388 2.87971 0
M  V30 2080 H 190.2 5.35462 3.60486 0
M  V30 2081 H 190.968 7.42436 3.44575 0
M  V30 2082 N 193.631 -1.12557 1.10312 0
M  V30 2083 C 194.563 -2.17971 0.708625 0
M  V30 2084 C 195.576 -1.60806 -0.254027 0
M  V30 2085 O 196.765 -1.78458 -0.0386891 0
M  V30 2086 C 193.865 -3.38891 0.0248198 0
M  V30 2087 C 193.038 -4.25548 1.01132 0
M  V30 2088 C 192.097 -5.24972 0.35924 0
M  V30 2089 O 191.123 -5.60174 1.00965 0
M  V30 2090 N 192.325 -5.73747 -0.882847 0
M  V30 2091 H 195.09 -2.52427 1.61557 0
M  V30 2092 H 192.651 -1.27967 0.991771 0
M  V30 2093 H 194.643 -4.02485 -0.422852 0
M  V30 2094 H 193.213 -3.02596 -0.784514 0
M  V30 2095 H 192.433 -3.58589 1.6373 0
M  V30 2096 H 193.721 -4.80294 1.67914 0
M  V30 2097 H 193.119 -5.4731 -1.43065 0
M  V30 2098 H 191.676 -6.39234 -1.27369 0
M  V30 2099 N 195.109 -0.891671 -1.2995 0
M  V30 2100 C 196.356 -0.513501 -1.95881 0
M  V30 2101 C 196.684 0.938655 -1.70351 0
M  V30 2102 O 195.939 1.67936 -1.00478 0
M  V30 2103 C 196.238 -0.742868 -3.49594 0
M  V30 2104 C 195.904 -2.17114 -3.95186 0
M  V30 2105 C 194.566 -2.56169 -4.07346 0
M  V30 2106 C 196.918 -3.10162 -4.18866 0
M  V30 2107 C 194.246 -3.87469 -4.4055 0
M  V30 2108 C 196.598 -4.41001 -4.53542 0
M  V30 2109 C 195.262 -4.79941 -4.63911 0
M  V30 2110 H 194.532 -0.187903 -0.71678 0
M  V30 2111 H 197.179 -1.1288 -1.54694 0
M  V30 2112 H 195.484 -0.044586 -3.91775 0
M  V30 2113 H 197.181 -0.429767 -3.9869 0
M  V30 2114 H 193.771 -1.85801 -3.86233 0
M  V30 2115 H 197.955 -2.81206 -4.08946 0
M  V30 2116 H 193.211 -4.17371 -4.46779 0
M  V30 2117 H 197.385 -5.13133 -4.70815 0
M  V30 2118 H 195.012 -5.81719 -4.89395 0
M  V30 2119 N 196.587 1.43421 -0.653314 0
M  V30 2120 C 197.812 2.06678 -0.172846 0
M  V30 2121 C 198.237 1.48648 1.15262 0
M  V30 2122 O 197.595 0.596457 1.71208 0
M  V30 2123 C 197.643 3.60474 -0.0953184 0
M  V30 2124 O 196.747 4.01487 0.942442 0
M  V30 2125 H 196.088 0.657181 -0.0949155 0
M  V30 2126 H 198.618 1.83925 -0.896265 0
M  V30 2127 H 198.628 4.07905 0.0879728 0
M  V30 2128 H 197.303 4.02088 -1.06291 0
M  V30 2129 H 195.88 3.65646 0.731932 0
M  V30 2130 N 198.065 0.39524 1.52563 0
M  V30 2131 C 199.313 -0.184678 2.01254 0
M  V30 2132 C 199.634 -1.46822 1.28329 0
M  V30 2133 O 198.904 -1.91666 0.405094 0
M  V30 2134 H 197.484 -0.0712355 0.743596 0
M  V30 2135 H 200.146 0.528293 1.87603 0
M  V30 2136 H 199.242 -0.390681 3.09645 0
M  V30 2137 N 199.544 -1.57102 0.125237 0
M  V30 2138 C 200.79 -1.95697 -0.532035 0
M  V30 2139 C 201.123 -1.009 -1.6593 0
M  V30 2140 O 200.398 -0.047347 -1.94442 0
M  V30 2141 C 200.681 -3.44181 -1.05884 0
M  V30 2142 C 200.534 -4.49752 0.0654392 0
M  V30 2143 C 201.853 -3.94655 -1.9477 0
M  V30 2144 H 198.972 -0.711571 -0.191925 0
M  V30 2145 H 201.614 -1.88923 0.20206 0
M  V30 2146 H 199.764 -3.50085 -1.68442 0
M  V30 2147 H 201.436 -4.55943 0.700982 0
M  V30 2148 H 199.679 -4.27653 0.727709 0
M  V30 2149 H 200.35 -5.50924 -0.344505 0
M  V30 2150 H 202.826 -3.91094 -1.42074 0
M  V30 2151 H 201.702 -4.99057 -2.28546 0
M  V30 2152 H 201.963 -3.35718 -2.87656 0
M  V30 2153 N 201.022 0.148545 -1.56898 0
M  V30 2154 C 202.252 0.875118 -1.8715 0
M  V30 2155 C 202.66 1.75322 -0.711262 0
M  V30 2156 O 202.003 1.80745 0.328151 0
M  V30 2157 C 202.065 1.7844 -3.12089 0
M  V30 2158 C 201.729 1.08361 -4.43967 0
M  V30 2159 C 202.726 0.438247 -5.1805 0
M  V30 2160 C 200.411 1.07358 -4.90693 0
M  V30 2161 C 202.405 -0.20779 -6.37061 0
M  V30 2162 C 200.092 0.42373 -6.09629 0
M  V30 2163 C 201.09 -0.215829 -6.82659 0
M  V30 2164 O 200.778 -0.855378 -7.99336 0
M  V30 2165 H 200.51 0.258504 -0.624621 0
M  V30 2166 H 203.064 0.14652 -2.04877 0
M  V30 2167 H 201.294 2.55389 -2.90367 0
M  V30 2168 H 202.983 2.38279 -3.286 0
M  V30 2169 H 203.749 0.437817 -4.8302 0
M  V30 2170 H 199.628 1.5608 -4.33774 0
M  V30 2171 H 203.172 -0.70758 -6.94002 0
M  V30 2172 H 199.069 0.421822 -6.4412 0
M  V30 2173 H 199.837 -0.756892 -8.14993 0
M  V30 2174 N 202.5 1.5196 0.417844 0
M  V30 2175 C 203.746 1.65836 1.16732 0
M  V30 2176 C 204.079 0.382881 1.90388 0
M  V30 2177 O 203.354 -0.618368 1.84408 0
M  V30 2178 C 203.637 2.87466 2.16876 0
M  V30 2179 C 203.49 4.25041 1.47174 0
M  V30 2180 C 204.809 3.04613 3.17646 0
M  V30 2181 H 201.928 0.603515 0.423011 0
M  V30 2182 H 204.57 1.84494 0.454105 0
M  V30 2183 H 202.72 2.71689 2.777 0
M  V30 2184 H 204.392 4.52527 0.895376 0
M  V30 2185 H 202.635 4.26843 0.773806 0
M  V30 2186 H 203.306 5.06176 2.20204 0
M  V30 2187 H 205.782 3.1923 2.66892 0
M  V30 2188 H 204.658 3.91247 3.8499 0
M  V30 2189 H 204.919 2.17541 3.84874 0
M  V30 2190 N 203.978 -0.674533 1.42435 0
M  V30 2191 C 204.941 -1.76986 1.45632 0
M  V30 2192 C 205.941 -1.5708 0.343871 0
M  V30 2193 O 207.131 -1.63367 0.604709 0
M  V30 2194 C 204.263 -3.15623 1.28822 0
M  V30 2195 H 205.456 -1.75539 2.43158 0
M  V30 2196 H 203.009 -0.884189 1.28887 0
M  V30 2197 H 203.744 -3.22696 0.322193 0
M  V30 2198 H 203.529 -3.31475 2.09444 0
M  V30 2199 H 205.019 -3.95537 1.33942 0
M  V30 2200 N 205.456 -1.28612 -0.910864 0
M  V30 2201 C 206.705 -1.15311 -1.65488 0
M  V30 2202 C 207.018 0.296999 -1.93332 0
M  V30 2203 O 208.224 0.551168 -2.65847 0
M  V30 2204 C 206.68 -2.01599 -2.98137 0
M  V30 2205 C 206.288 -3.51367 -2.7793 0
M  V30 2206 C 208.032 -1.96993 -3.76024 0
M  V30 2207 C 205.939 -4.29797 -4.06237 0
M  V30 2208 H 204.869 -0.42796 -0.620779 0
M  V30 2209 H 207.52 -1.53166 -1.01057 0
M  V30 2210 H 205.902 -1.56603 -3.63719 0
M  V30 2211 H 207.076 -4.0434 -2.21011 0
M  V30 2212 H 205.391 -3.57529 -2.13452 0
M  V30 2213 H 207.988 -2.52856 -4.71135 0
M  V30 2214 H 208.331 -0.94733 -4.05378 0
M  V30 2215 H 208.864 -2.39973 -3.17266 0
M  V30 2216 H 205.603 -5.32648 -3.82055 0
M  V30 2217 H 205.123 -3.81596 -4.62757 0
M  V30 2218 H 206.802 -4.39869 -4.74473 0
M  V30 2219 N 206.934 1.1197 -1.10907 0
M  V30 2220 C 207.866 2.17592 -0.720175 0
M  V30 2221 C 208.879 1.60938 0.245495 0
M  V30 2222 O 210.068 1.78476 0.0292245 0
M  V30 2223 C 207.168 3.38873 -0.0427917 0
M  V30 2224 C 206.341 4.25006 -1.03388 0
M  V30 2225 C 205.4 5.24774 -0.387075 0
M  V30 2226 O 204.426 5.59631 -1.03934 0
M  V30 2227 N 205.628 5.74208 0.852407 0
M  V30 2228 H 208.393 2.51567 -1.62893 0
M  V30 2229 H 205.954 1.27439 -0.998543 0
M  V30 2230 H 207.946 4.02703 0.401501 0
M  V30 2231 H 206.516 3.03007 0.768456 0
M  V30 2232 H 205.736 3.57716 -1.65629 0
M  V30 2233 H 207.024 4.79397 -1.70458 0
M  V30 2234 H 206.422 5.48062 1.40161 0
M  V30 2235 H 204.979 6.39901 1.23977 0
M  V30 2236 N 208.412 0.89855 1.29475 0
M  V30 2237 C 209.375 0.380272 2.26023 0
M  V30 2238 C 210.375 -0.484891 1.53315 0
M  V30 2239 O 211.565 -0.290108 1.71767 0
M  V30 2240 C 208.697 -0.45651 3.3783 0
M  V30 2241 H 209.89 1.23295 2.73383 0
M  V30 2242 H 207.443 0.676589 1.40897 0
M  V30 2243 H 208.178 -1.32922 2.95808 0
M  V30 2244 H 207.963 0.163393 3.91759 0
M  V30 2245 H 209.453 -0.810466 4.0966 0
M  V30 2246 N 209.89 -1.43072 0.660911 0
M  V30 2247 C 211.136 -2.0202 0.177708 0
M  V30 2248 C 211.469 -1.52066 -1.20787 0
M  V30 2249 O 210.744 -0.716987 -1.80802 0
M  V30 2250 C 211.027 -3.59561 0.197019 0
M  V30 2251 C 210.88 -4.19727 1.61706 0
M  V30 2252 C 212.199 -4.37664 -0.462396 0
M  V30 2253 H 209.318 -0.734034 0.0660494 0
M  V30 2254 H 211.96 -1.70272 0.843058 0
M  V30 2255 H 210.11 -3.86739 -0.369527 0
M  V30 2256 H 211.782 -4.03553 2.23479 0
M  V30 2257 H 210.025 -3.76084 2.16201 0
M  V30 2258 H 210.696 -5.28834 1.58237 0
M  V30 2259 H 213.172 -4.16095 0.0197215 0
M  V30 2260 H 212.048 -5.47305 -0.418188 0
M  V30 2261 H 212.309 -4.14493 -1.53778 0
M  V30 2262 N 211.368 -0.403325 -1.52352 0
M  V30 2263 C 212.298 0.416205 -2.29761 0
M  V30 2264 C 213.279 1.05123 -1.33728 0
M  V30 2265 O 214.464 1.06134 -1.62632 0
M  V30 2266 C 211.594 1.53624 -3.11475 0
M  V30 2267 C 210.548 1.02653 -4.15507 0
M  V30 2268 C 209.874 2.23971 -4.85532 0
M  V30 2269 C 211.174 0.08463 -5.22231 0
M  V30 2270 H 212.868 -0.229701 -2.98518 0
M  V30 2271 H 210.414 -0.111913 -1.43564 0
M  V30 2272 H 212.367 2.1165 -3.64393 0
M  V30 2273 H 211.091 2.20994 -2.40477 0
M  V30 2274 H 209.75 0.46871 -3.63591 0
M  V30 2275 H 209.398 2.89883 -4.11068 0
M  V30 2276 H 209.098 1.90521 -5.55856 0
M  V30 2277 H 210.622 2.82614 -5.41259 0
M  V30 2278 H 212.036 0.573509 -5.70424 0
M  V30 2279 H 210.433 -0.160783 -5.99885 0
M  V30 2280 H 211.503 -0.86237 -4.7717 0
M  V30 2281 N 212.846 1.57033 -0.133567 0
M  V30 2282 C 214.074 2.00044 0.528195 0
M  V30 2283 C 214.489 1.01349 1.59291 0
M  V30 2284 O 213.846 0.00848369 1.82498 0
M  V30 2285 C 213.897 3.43018 1.1411 0
M  V30 2286 O 213.618 4.37939 0.11892 0
M  V30 2287 C 215.119 4.01237 1.88477 0
M  V30 2288 H 212.339 0.656517 0.138661 0
M  V30 2289 H 214.883 2.03267 -0.224196 0
M  V30 2290 H 213.038 3.40688 1.84418 0
M  V30 2291 H 213.452 5.21436 0.56613 0
M  V30 2292 H 214.926 5.03314 2.26669 0
M  V30 2293 H 215.403 3.41193 2.76558 0
M  V30 2294 H 216.009 4.07156 1.22898 0
M  V30 2295 N 214.325 -0.140222 1.56975 0
M  V30 2296 C 215.255 -1.17456 2.01808 0
M  V30 2297 C 216.236 -1.44415 0.898794 0
M  V30 2298 O 217.421 -1.5522 1.16707 0
M  V30 2299 C 214.551 -2.50607 2.40444 0
M  V30 2300 C 213.505 -2.38155 3.55621 0
M  V30 2301 C 212.831 -3.76078 3.80091 0
M  V30 2302 C 214.131 -1.85991 4.88062 0
M  V30 2303 H 215.825 -0.801743 2.88466 0
M  V30 2304 H 213.371 -0.38422 1.38779 0
M  V30 2305 H 215.324 -3.23197 2.7041 0
M  V30 2306 H 214.048 -2.89737 1.50732 0
M  V30 2307 H 212.707 -1.68016 3.25832 0
M  V30 2308 H 212.355 -4.12656 2.87618 0
M  V30 2309 H 212.055 -3.68606 4.57606 0
M  V30 2310 H 213.579 -4.50206 4.12488 0
M  V30 2311 H 214.993 -2.4838 5.16701 0
M  V30 2312 H 213.39 -1.89393 5.6943 0
M  V30 2313 H 214.46 -0.816023 4.77984 0
M  V30 2314 N 215.803 -1.52179 -0.40978 0
M  V30 2315 C 217.033 -1.69807 -1.17682 0
M  V30 2316 C 217.441 -0.406908 -1.84773 0
M  V30 2317 O 216.784 0.626863 -1.72673 0
M  V30 2318 C 216.846 -2.77712 -2.2829 0
M  V30 2319 C 216.51 -4.19481 -1.81341 0
M  V30 2320 C 217.507 -5.03345 -1.30154 0
M  V30 2321 C 215.192 -4.65713 -1.88194 0
M  V30 2322 C 217.186 -6.31511 -0.864416 0
M  V30 2323 C 214.873 -5.93869 -1.44093 0
M  V30 2324 C 215.871 -6.76597 -0.933023 0
M  V30 2325 O 215.559 -8.02354 -0.49838 0
M  V30 2326 H 215.291 -0.572372 -0.359675 0
M  V30 2327 H 217.845 -1.99511 -0.488311 0
M  V30 2328 H 216.075 -2.43383 -3.00502 0
M  V30 2329 H 217.764 -2.83946 -2.90051 0
M  V30 2330 H 218.53 -4.68819 -1.24232 0
M  V30 2331 H 214.409 -4.01424 -2.26671 0
M  V30 2332 H 217.953 -6.96033 -0.467286 0
M  V30 2333 H 213.85 -6.27903 -1.49694 0
M  V30 2334 H 214.618 -8.16135 -0.621747 0
M  V30 2335 N 217.281 0.66697 -1.42791 0
M  V30 2336 C 218.244 1.76211 -1.46568 0
M  V30 2337 C 219.244 1.56896 -0.352196 0
M  V30 2338 O 220.434 1.63044 -0.613364 0
M  V30 2339 C 217.566 3.14935 -1.30494 0
M  V30 2340 H 218.759 1.74247 -2.44086 0
M  V30 2341 H 216.312 0.877342 -1.29354 0
M  V30 2342 H 217.047 3.2252 -0.339301 0
M  V30 2343 H 216.832 3.30359 -2.11199 0
M  V30 2344 H 218.322 3.94821 -1.36038 0
M  V30 2345 N 218.759 1.29093 0.90403 0
M  V30 2346 C 219.691 1.09658 2.01266 0
M  V30 2347 C 220.704 0.0453729 1.62737 0
M  V30 2348 O 221.893 0.289446 1.76138 0
M  V30 2349 C 218.993 0.646278 3.32681 0
M  V30 2350 C 218.166 1.77505 3.99763 0
M  V30 2351 C 217.225 1.31649 5.09465 0
M  V30 2352 O 216.251 2.02045 5.32134 0
M  V30 2353 N 217.453 0.184997 5.80205 0
M  V30 2354 H 220.218 2.05135 2.18494 0
M  V30 2355 H 217.779 1.20975 1.07594 0
M  V30 2356 H 219.771 0.322906 4.0341 0
M  V30 2357 H 218.341 -0.215916 3.11853 0
M  V30 2358 H 217.561 2.26752 3.22455 0
M  V30 2359 H 218.849 2.53198 4.41325 0
M  V30 2360 H 218.247 -0.402021 5.6427 0
M  V30 2361 H 216.804 -0.0790358 6.51752 0
M  V30 2362 N 220.237 -1.11381 1.11499 0
M  V30 2363 C 221.485 -1.8277 0.862524 0
M  V30 2364 C 221.806 -1.85097 -0.613534 0
M  V30 2365 O 221.076 -1.32198 -1.4457 0
M  V30 2366 H 219.656 -0.676823 0.316101 0
M  V30 2367 H 222.318 -1.34816 1.4075 0
M  V30 2368 H 221.414 -2.86614 1.23527 0
M  V30 2369 N 221.715 -0.905404 -1.28997 0
M  V30 2370 C 222.645 -0.404212 -2.29975 0
M  V30 2371 C 223.626 0.523784 -1.61835 0
M  V30 2372 O 224.811 0.433298 -1.89304 0
M  V30 2373 C 221.941 0.364042 -3.45387 0
M  V30 2374 C 220.895 -0.474048 -4.25367 0
M  V30 2375 C 220.221 0.422045 -5.33032 0
M  V30 2376 C 221.521 -1.72696 -4.92923 0
M  V30 2377 H 223.215 -1.24807 -2.72146 0
M  V30 2378 H 220.761 -0.601585 -1.30832 0
M  V30 2379 H 222.714 0.725447 -4.15109 0
M  V30 2380 H 221.438 1.24174 -3.02074 0
M  V30 2381 H 220.097 -0.81786 -3.57361 0
M  V30 2382 H 219.745 1.29804 -4.85963 0
M  V30 2383 H 219.445 -0.135057 -5.87445 0
M  V30 2384 H 220.969 0.779517 -6.05604 0
M  V30 2385 H 222.383 -1.43495 -5.55051 0
M  V30 2386 H 220.78 -2.22582 -5.57295 0
M  V30 2387 H 221.85 -2.45964 -4.17887 0
M  V30 2388 N 223.193 1.4272 -0.668489 0
M  V30 2389 C 224.123 2.335 -0.000100175 0
M  V30 2390 C 225.104 1.50328 0.795964 0
M  V30 2391 O 226.289 1.78949 0.754385 0
M  V30 2392 C 223.419 3.33874 0.956302 0
M  V30 2393 C 222.373 4.27152 0.269278 0
M  V30 2394 C 221.699 5.17684 1.33818 0
M  V30 2395 C 222.999 5.15373 -0.847805 0
M  V30 2396 H 224.693 2.89639 -0.758244 0
M  V30 2397 H 222.239 1.39269 -0.366079 0
M  V30 2398 H 224.192 3.9629 1.43292 0
M  V30 2399 H 222.916 2.76025 1.74579 0
M  V30 2400 H 221.575 3.66123 -0.187042 0
M  V30 2401 H 221.223 4.56165 2.1195 0
M  V30 2402 H 220.923 5.80918 0.883659 0
M  V30 2403 H 222.447 5.82974 1.81586 0
M  V30 2404 H 223.861 5.7151 -0.452681 0
M  V30 2405 H 222.258 5.87407 -1.22773 0
M  V30 2406 H 223.328 4.5415 -1.69929 0
M  V30 2407 N 224.671 0.411399 1.52136 0
M  V30 2408 C 225.899 -0.163076 2.06256 0
M  V30 2409 C 226.314 -1.3867 1.28125 0
M  V30 2410 O 225.671 -1.79423 0.333721 0
M  V30 2411 C 225.722 -0.511252 3.57867 0
M  V30 2412 O 225.443 0.66378 4.33042 0
M  V30 2413 C 226.944 -1.13921 4.28412 0
M  V30 2414 H 224.164 -0.0193897 0.67072 0
M  V30 2415 H 226.708 0.583007 1.96013 0
M  V30 2416 H 224.863 -1.20723 3.6811 0
M  V30 2417 H 225.277 0.372601 5.23175 0
M  V30 2418 H 226.751 -1.33302 5.35663 0
M  V30 2419 H 227.228 -2.11296 3.85033 0
M  V30 2420 H 227.834 -0.483373 4.22544 0
M  V30 2421 N 226.149 -1.5696 0.141893 0
M  V30 2422 C 227.397 -1.95573 -0.509484 0
M  V30 2423 C 227.718 -1.02746 -1.65736 0
M  V30 2424 O 226.988 -0.0880311 -1.95702 0
M  V30 2425 H 225.568 -0.722115 -0.191205 0
M  V30 2426 H 228.23 -1.93697 0.216196 0
M  V30 2427 H 227.326 -2.99171 -0.889 0
M  V30 2428 N 227.627 0.131896 -1.57047 0
M  V30 2429 C 228.873 0.843179 -1.84441 0
M  V30 2430 C 229.206 1.80129 -0.725749 0
M  V30 2431 O 228.481 1.92624 0.269469 0
M  V30 2432 C 228.764 1.60442 -3.22382 0
M  V30 2433 C 228.617 0.666782 -4.4483 0
M  V30 2434 C 229.936 2.56354 -3.5773 0
M  V30 2435 H 227.055 0.305081 -0.670891 0
M  V30 2436 H 229.697 0.107839 -1.89694 0
M  V30 2437 H 227.847 2.23128 -3.18035 0
M  V30 2438 H 229.519 0.0497646 -4.61273 0
M  V30 2439 H 227.762 -0.022609 -4.33794 0
M  V30 2440 H 228.433 1.23579 -5.37989 0
M  V30 2441 H 230.909 2.0378 -3.62785 0
M  V30 2442 H 229.785 3.06657 -4.5525 0
M  V30 2443 H 230.046 3.38419 -2.84473 0
M  V30 2444 N 229.106 1.52395 0.401703 0
M  V30 2445 C 230.352 1.67065 1.14966 0
M  V30 2446 C 230.685 0.403052 1.89971 0
M  V30 2447 O 229.96 -0.598774 1.85054 0
M  V30 2448 C 230.243 2.8975 2.13815 0
M  V30 2449 C 230.096 4.26578 1.42658 0
M  V30 2450 C 231.415 3.07965 3.14397 0
M  V30 2451 H 228.534 0.607968 0.416587 0
M  V30 2452 H 231.176 1.84965 0.434511 0
M  V30 2453 H 229.326 2.74619 2.74803 0
M  V30 2454 H 230.998 4.53451 0.847329 0
M  V30 2455 H 229.241 4.27639 0.72849 0
M  V30 2456 H 229.912 5.08483 2.14823 0
M  V30 2457 H 232.388 3.22043 2.63491 0
M  V30 2458 H 231.264 3.95308 3.80819 0
M  V30 2459 H 231.525 2.21611 3.82545 0
M  V30 2460 N 230.584 -0.659388 1.43143 0
M  V30 2461 C 231.83 -1.42145 1.44647 0
M  V30 2462 C 232.163 -1.9408 0.0681907 0
M  V30 2463 O 231.438 -1.71899 -0.910007 0
M  V30 2464 C 231.721 -2.60735 2.48373 0
M  V30 2465 C 231.574 -2.14332 3.95451 0
M  V30 2466 C 232.893 -3.62951 2.48906 0
M  V30 2467 H 230.012 -0.51552 0.526696 0
M  V30 2468 H 232.654 -0.748069 1.74654 0
M  V30 2469 H 230.804 -3.18184 2.22916 0
M  V30 2470 H 232.476 -1.61932 4.31944 0
M  V30 2471 H 230.719 -1.4576 4.08578 0
M  V30 2472 H 231.39 -2.99583 4.63631 0
M  V30 2473 H 233.866 -3.1525 2.71582 0
M  V30 2474 H 232.742 -4.43487 3.23435 0
M  V30 2475 H 233.003 -4.15126 1.52061 0
M  V30 2476 N 232.062 -1.29571 -0.897171 0
M  V30 2477 C 233.339 -1.08365 -1.62839 0
M  V30 2478 C 233.719 0.371331 -2.07808 0
M  V30 2479 O 233.067 1.3606 -1.83576 0
M  V30 2480 C 233.277 -2.0735 -2.80726 0
M  V30 2481 C 234.625 -2.38406 -3.51351 0
M  V30 2482 O 235.649 -2.05564 -2.90898 0
M  V30 2483 O 234.508 -2.9453 -4.60341 0
M  V30 2484 H 231.602 -0.415345 -0.715134 0
M  V30 2485 H 234.148 -1.40952 -0.945018 0
M  V30 2486 H 232.92 -3.05339 -2.44711 0
M  V30 2487 H 232.543 -1.75507 -3.56767 0
M  V30 2488 N 233.54 1.10788 -1.12088 0
M  V30 2489 C 234.765 1.87002 -0.896949 0
M  V30 2490 C 235.19 1.79933 0.548261 0
M  V30 2491 O 234.548 1.16662 1.38779 0
M  V30 2492 C 234.596 3.3349 -1.37174 0
M  V30 2493 O 233.7 4.08745 -0.547831 0
M  V30 2494 H 233.041 0.580397 -0.322545 0
M  V30 2495 H 235.571 1.39996 -1.49206 0
M  V30 2496 H 235.581 3.84339 -1.36922 0
M  V30 2497 H 234.256 3.37951 -2.42408 0
M  V30 2498 H 232.833 3.6776 -0.617034 0
M  V30 2499 N 235.018 0.912232 1.28515 0
M  V30 2500 C 236.266 0.543523 1.94654 0
M  V30 2501 C 236.587 -0.9155 1.72173 0
M  V30 2502 O 235.857 -1.64708 1.06058 0
M  V30 2503 H 234.437 0.198017 0.720277 0
M  V30 2504 H 237.099 1.16126 1.56527 0
M  V30 2505 H 236.195 0.736684 3.03281 0
M  V30 2506 N 236.496 -1.42363 0.676048 0
M  V30 2507 C 237.773 -1.95183 0.127726 0
M  V30 2508 C 238.153 -1.61641 -1.35777 0
M  V30 2509 O 237.501 -0.913216 -2.09458 0
M  V30 2510 C 237.711 -3.46721 0.398199 0
M  V30 2511 C 239.059 -4.23427 0.315383 0
M  V30 2512 O 240.083 -3.54649 0.332016 0
M  V30 2513 O 238.942 -5.45888 0.25865 0
M  V30 2514 H 236.036 -0.826992 0.00359427 0
M  V30 2515 H 238.582 -1.52184 0.750864 0
M  V30 2516 H 237.354 -3.64344 1.4272 0
M  V30 2517 H 236.977 -3.96769 -0.256885 0
M  V30 2518 N 237.974 -0.419461 -1.51915 0
M  V30 2519 C 239.222 0.152637 -2.01523 0
M  V30 2520 C 239.543 1.44762 -1.30649 0
M  V30 2521 O 238.813 1.90997 -0.435535 0
M  V30 2522 H 237.393 0.0593966 -0.744635 0
M  V30 2523 H 240.055 -0.558073 -1.86739 0
M  V30 2524 H 239.151 0.341369 -3.10227 0
M  V30 2525 N 239.452 1.56882 -0.150215 0
M  V30 2526 C 240.698 1.96518 0.500834 0
M  V30 2527 C 241.031 1.03527 1.64304 0
M  V30 2528 O 240.306 0.0782751 1.94342 0
M  V30 2529 C 240.589 3.45822 1.00395 0
M  V30 2530 C 240.442 4.49591 -0.136983 0
M  V30 2531 C 241.761 3.97704 1.88467 0
M  V30 2532 H 238.88 0.714535 0.18058 0
M  V30 2533 H 241.522 1.88577 -0.232091 0
M  V30 2534 H 239.672 3.5272 1.62851 0
M  V30 2535 H 241.344 4.5477 -0.77343 0
M  V30 2536 H 239.587 4.26441 -0.795652 0
M  V30 2537 H 240.258 5.51402 0.256815 0
M  V30 2538 H 242.734 3.93304 1.35834 0
M  V30 2539 H 241.61 5.0263 2.20578 0
M  V30 2540 H 241.871 3.40252 2.82279 0
M  V30 2541 N 240.93 -0.123565 1.57115 0
M  V30 2542 C 242.158 -0.846461 1.88793 0
M  V30 2543 C 242.573 -1.73652 0.740976 0
M  V30 2544 O 241.93 -1.80207 -0.288393 0
M  V30 2545 C 241.981 -1.6837 3.19897 0
M  V30 2546 O 241.702 -0.829477 4.30176 0
M  V30 2547 C 243.203 -2.51214 3.65248 0
M  V30 2548 H 240.423 -0.243573 0.625231 0
M  V30 2549 H 242.967 -0.109324 2.04208 0
M  V30 2550 H 241.122 -2.37364 3.06165 0
M  V30 2551 H 241.536 -1.40651 5.0529 0
M  V30 2552 H 243.01 -3.05497 4.59756 0
M  V30 2553 H 243.487 -3.28359 2.9168 0
M  V30 2554 H 244.093 -1.8747 3.81752 0
M  V30 2555 N 242.408 -1.52605 -0.393616 0
M  V30 2556 C 243.358 -1.73436 -1.48 0
M  V30 2557 C 244.342 -0.588386 -1.49756 0
M  V30 2558 O 245.534 -0.846047 -1.5547 0
M  V30 2559 C 242.663 -1.90247 -2.85764 0
M  V30 2560 C 241.749 -3.10763 -2.88595 0
M  V30 2561 N 242.14 -4.33196 -2.61103 0
M  V30 2562 C 240.438 -3.10914 -3.19763 0
M  V30 2563 C 241.139 -5.1477 -2.70899 0
M  V30 2564 N 240.115 -4.50356 -3.04435 0
M  V30 2565 H 243.917 -2.65727 -1.25563 0
M  V30 2566 H 241.431 -1.5085 -0.601513 0
M  V30 2567 H 243.428 -2.03291 -3.63976 0
M  V30 2568 H 242.088 -0.991663 -3.09186 0
M  V30 2569 H 243.099 -4.61408 -2.35209 0
M  V30 2570 H 239.776 -2.29626 -3.4868 0
M  V30 2571 H 241.166 -6.22355 -2.53227 0
M  V30 2572 N 243.887 0.651787 -1.4349 0
M  V30 2573 C 245.136 1.40754 -1.44469 0
M  V30 2574 C 245.449 1.95463 -0.0731845 0
M  V30 2575 O 246.655 2.71471 0.0395721 0
M  V30 2576 C 245.111 2.54735 -2.5424 0
M  V30 2577 C 244.719 2.06628 -3.97504 0
M  V30 2578 C 246.463 3.32092 -2.64414 0
M  V30 2579 C 244.37 3.17829 -4.98737 0
M  V30 2580 H 243.3 0.528862 -0.53742 0
M  V30 2581 H 245.951 0.703365 -1.69485 0
M  V30 2582 H 244.333 3.2763 -2.22428 0
M  V30 2583 H 245.507 1.40734 -4.38783 0
M  V30 2584 H 243.822 1.42146 -3.91387 0
M  V30 2585 H 246.419 4.14952 -3.37223 0
M  V30 2586 H 246.762 3.80217 -1.69532 0
M  V30 2587 H 247.295 2.66279 -2.95534 0
M  V30 2588 H 244.034 2.74671 -5.95177 0
M  V30 2589 H 243.554 3.82429 -4.62069 0
M  V30 2590 H 245.233 3.82937 -5.21505 0
M  V30 2591 N 245.365 1.30045 0.890287 0
M  V30 2592 C 246.605 1.19839 1.65584 0
M  V30 2593 C 246.969 -0.244175 1.90441 0
M  V30 2594 O 248.17 -0.469378 2.6467 0
M  V30 2595 C 246.441 1.99876 2.96284 0
M  V30 2596 S 248 2.06309 3.87275 0
M  V30 2597 H 244.818 0.427157 0.568382 0
M  V30 2598 H 247.42 1.64453 1.05715 0
M  V30 2599 H 246.124 3.03809 2.75913 0
M  V30 2600 H 245.655 1.55903 3.61189 0
M  V30 2601 H 247.67 1.18661 4.81803 0
M  V30 2602 N 246.843 -1.10192 1.12674 0
M  V30 2603 C 248.254 -1.63707 0.897604 0
M  V30 2604 C 248.605 -1.87812 -0.567546 0
M  V30 2605 O 247.73 -1.62196 -1.43253 0
M  V30 2606 C 248.325 -2.974 1.62292 0
M  V30 2607 C 246.884 -3.47772 1.43986 0
M  V30 2608 C 246.031 -2.22332 1.65722 0
M  V30 2609 H 248.982 -0.936587 1.28116 0
M  V30 2610 H 249.003 -3.64986 1.07541 0
M  V30 2611 H 248.515 -2.79824 2.68924 0
M  V30 2612 H 246.616 -3.70487 0.396206 0
M  V30 2613 H 246.729 -4.25723 2.19765 0
M  V30 2614 H 245.093 -2.30599 1.08149 0
M  V30 2615 H 245.876 -2.07285 2.73657 0
M  V30 2616 N 248.321 -0.919034 -1.28029 0
M  V30 2617 C 249.567 -0.555757 -1.95036 0
M  V30 2618 C 249.9 0.899198 -1.72128 0
M  V30 2619 O 249.175 1.64023 -1.04531 0
M  V30 2620 C 249.458 -0.872024 -3.49382 0
M  V30 2621 C 249.311 -2.3801 -3.81669 0
M  V30 2622 C 250.63 -0.37185 -4.38526 0
M  V30 2623 H 247.749 -0.203386 -0.708381 0
M  V30 2624 H 250.391 -1.14924 -1.51303 0
M  V30 2625 H 248.541 -0.366946 -3.86763 0
M  V30 2626 H 250.213 -2.9562 -3.54128 0
M  V30 2627 H 248.456 -2.83289 -3.28526 0
M  V30 2628 H 249.127 -2.55192 -4.8947 0
M  V30 2629 H 251.603 -0.804602 -4.08247 0
M  V30 2630 H 250.479 -0.622173 -5.45362 0
M  V30 2631 H 250.74 0.727934 -4.36066 0
M  V30 2632 N 249.799 1.42003 -0.683588 0
M  V30 2633 C 251.029 2.05448 -0.217866 0
M  V30 2634 C 251.437 1.51491 1.13346 0
M  V30 2635 O 250.78 0.653048 1.717 0
M  V30 2636 C 250.842 3.59399 -0.0850118 0
M  V30 2637 C 250.506 4.36093 -1.36645 0
M  V30 2638 C 251.503 4.66169 -2.30179 0
M  V30 2639 C 249.188 4.75578 -1.61649 0
M  V30 2640 C 251.182 5.34676 -3.46988 0
M  V30 2641 C 248.869 5.43824 -2.78745 0
M  V30 2642 C 249.867 5.73299 -3.71238 0
M  V30 2643 O 249.555 6.40142 -4.86285 0
M  V30 2644 H 249.287 0.668344 -0.101454 0
M  V30 2645 H 251.841 1.82974 -0.933248 0
M  V30 2646 H 250.071 3.80566 0.686031 0
M  V30 2647 H 251.76 4.04457 0.341973 0
M  V30 2648 H 252.526 4.36156 -2.12115 0
M  V30 2649 H 248.405 4.52025 -0.905243 0
M  V30 2650 H 251.949 5.57599 -4.19201 0
M  V30 2651 H 247.846 5.73254 -2.96732 0
M  V30 2652 H 248.614 6.58636 -4.85944 0
M  V30 2653 N 251.277 0.427512 1.51691 0
M  V30 2654 C 252.187 -0.39527 2.31246 0
M  V30 2655 C 253.203 -1.03674 1.39742 0
M  V30 2656 O 254.379 -1.03425 1.72816 0
M  V30 2657 C 251.444 -1.48706 3.13189 0
M  V30 2658 C 250.505 -0.866743 4.20459 0
M  V30 2659 C 249.738 -1.90651 4.98486 0
M  V30 2660 O 249.961 -3.12733 4.77026 0
M  V30 2661 O 248.895 -1.5025 5.82845 0
M  V30 2662 H 252.721 0.253918 3.02637 0
M  V30 2663 H 250.306 0.190274 1.48183 0
M  V30 2664 H 252.188 -2.12047 3.64162 0
M  V30 2665 H 250.863 -2.12051 2.44573 0
M  V30 2666 H 249.77 -0.195544 3.73589 0
M  V30 2667 H 251.103 -0.276934 4.9142 0
M  V30 2668 N 252.755 -1.56801 0.158532 0
M  V30 2669 C 254.003 -1.96102 -0.488712 0
M  V30 2670 C 254.324 -1.04498 -1.64636 0
M  V30 2671 O 253.594 -0.108783 -1.95598 0
M  V30 2672 H 252.174 -0.724102 -0.183535 0
M  V30 2673 H 254.836 -1.93457 0.236728 0
M  V30 2674 H 253.932 -3.00097 -0.857219 0
M  V30 2675 N 254.233 0.115231 -1.57178 0
M  V30 2676 C 255.48 0.822351 -1.8505 0
M  V30 2677 C 255.808 1.79701 -0.744168 0
M  V30 2678 O 255.063 1.93909 0.26414 0
M  V30 2679 C 255.362 1.60324 -3.19423 0
M  V30 2680 C 255.028 0.772536 -4.44233 0
M  V30 2681 C 253.69 0.543468 -4.78121 0
M  V30 2682 C 256.042 0.193746 -5.2084 0
M  V30 2683 C 253.37 -0.274583 -5.86057 0
M  V30 2684 C 255.722 -0.611517 -6.29637 0
M  V30 2685 C 254.386 -0.850867 -6.62055 0
M  V30 2686 H 253.656 0.30092 -0.677147 0
M  V30 2687 H 256.303 0.0845802 -1.91313 0
M  V30 2688 H 254.608 2.41203 -3.08753 0
M  V30 2689 H 256.305 2.1544 -3.38211 0
M  V30 2690 H 252.895 0.96117 -4.17683 0
M  V30 2691 H 257.079 0.357926 -4.95008 0
M  V30 2692 H 252.335 -0.469206 -6.09597 0
M  V30 2693 H 256.509 -1.06697 -6.88178 0
M  V30 2694 H 254.136 -1.48657 -7.45523 0
M  V30 2695 N 255.711 1.52812 0.385517 0
M  V30 2696 C 256.936 1.72207 1.15583 0
M  V30 2697 C 257.361 0.441034 1.82857 0
M  V30 2698 O 256.719 -0.603465 1.70962 0
M  V30 2699 C 256.767 2.87476 2.17692 0
M  V30 2700 O 255.871 2.54693 3.24354 0
M  V30 2701 H 255.212 0.572526 0.336319 0
M  V30 2702 H 257.742 1.99618 0.448744 0
M  V30 2703 H 257.752 3.13072 2.6163 0
M  V30 2704 H 256.427 3.80408 1.68115 0
M  V30 2705 H 255.004 2.3985 2.85529 0
M  V30 2706 N 257.189 -0.644168 1.43834 0
M  V30 2707 C 258.119 -1.76814 1.52509 0
M  V30 2708 C 259.1 -1.65823 0.379052 0
M  V30 2709 O 260.285 -1.84781 0.597466 0
M  V30 2710 C 257.415 -3.15288 1.4564 0
M  V30 2711 C 256.369 -3.41053 2.58586 0
M  V30 2712 C 255.695 -4.79421 2.36769 0
M  V30 2713 C 256.995 -3.34902 4.00797 0
M  V30 2714 H 258.689 -1.69812 2.46586 0
M  V30 2715 H 256.235 -0.815542 1.1868 0
M  V30 2716 H 258.188 -3.93681 1.50311 0
M  V30 2717 H 256.912 -3.23043 0.480725 0
M  V30 2718 H 255.571 -2.65035 2.53282 0
M  V30 2719 H 255.219 -4.83863 1.37424 0
M  V30 2720 H 254.919 -4.9762 3.12487 0
M  V30 2721 H 256.443 -5.6006 2.43238 0
M  V30 2722 H 257.857 -4.03218 4.07539 0
M  V30 2723 H 256.254 -3.64637 4.76613 0
M  V30 2724 H 257.324 -2.32928 4.25291 0
M  V30 2725 N 258.668 -1.30515 -0.883378 0
M  V30 2726 C 260.079 -1.17509 -1.45081 0
M  V30 2727 C 260.43 0.223605 -1.94922 0
M  V30 2728 O 259.555 1.12041 -1.85137 0
M  V30 2729 C 260.15 -2.12715 -2.63701 0
M  V30 2730 C 258.709 -2.03682 -3.16529 0
M  V30 2731 C 257.856 -2.02706 -1.89224 0
M  V30 2732 H 260.807 -1.42762 -0.693165 0
M  V30 2733 H 260.828 -1.70891 -3.39965 0
M  V30 2734 H 260.34 -3.14505 -2.27395 0
M  V30 2735 H 258.441 -1.05039 -3.57488 0
M  V30 2736 H 258.554 -2.92146 -3.7972 0
M  V30 2737 H 256.918 -1.4753 -2.07622 0
M  V30 2738 H 257.701 -3.06229 -1.55174 0
M  V30 2739 N 260.146 1.09593 -1.13257 0
M  V30 2740 C 261.096 2.14345 -0.777179 0
M  V30 2741 C 262.08 1.59277 0.227966 0
M  V30 2742 O 263.272 1.76971 0.0321413 0
M  V30 2743 C 260.401 3.42439 -0.242991 0
M  V30 2744 C 259.487 4.04419 -1.27694 0
M  V30 2745 N 259.878 4.40979 -2.47732 0
M  V30 2746 C 258.176 4.31596 -1.12432 0
M  V30 2747 C 258.877 4.89784 -3.13826 0
M  V30 2748 N 257.853 4.87133 -2.41252 0
M  V30 2749 H 261.655 2.40415 -1.69049 0
M  V30 2750 H 259.169 1.26803 -1.01463 0
M  V30 2751 H 261.166 4.16889 0.0298496 0
M  V30 2752 H 259.826 3.17824 0.66467 0
M  V30 2753 H 260.837 4.32396 -2.85051 0
M  V30 2754 H 257.514 4.16595 -0.274684 0
M  V30 2755 H 258.904 5.2755 -4.16102 0
M  V30 2756 N 261.624 0.925811 1.2754 0
M  V30 2757 C 262.554 0.440748 2.29303 0
M  V30 2758 C 263.535 -0.497971 1.62648 0
M  V30 2759 O 264.72 -0.403126 1.8997 0
M  V30 2760 C 261.85 -0.309048 3.45922 0
M  V30 2761 C 260.804 0.54166 4.24559 0
M  V30 2762 C 260.13 -0.337191 5.33636 0
M  V30 2763 C 261.43 1.80516 4.90114 0
M  V30 2764 H 263.124 1.29121 2.70126 0
M  V30 2765 H 260.67 0.622323 1.29858 0
M  V30 2766 H 262.623 -0.659315 4.1621 0
M  V30 2767 H 261.347 -1.19352 3.04011 0
M  V30 2768 H 260.006 0.874609 3.56014 0
M  V30 2769 H 259.654 -1.22056 4.87966 0
M  V30 2770 H 259.354 0.228497 5.87156 0
M  V30 2771 H 260.878 -0.683072 6.06767 0
M  V30 2772 H 262.292 1.52307 5.52698 0
M  V30 2773 H 260.689 2.3142 5.53683 0
M  V30 2774 H 261.759 2.52581 4.13921 0
M  V30 2775 N 263.102 -1.41638 0.69111 0
M  V30 2776 C 264.33 -2.05628 0.22909 0
M  V30 2777 C 264.745 -1.51992 -1.11999 0
M  V30 2778 O 264.102 -0.666322 -1.69901 0
M  V30 2779 C 264.153 -3.61084 0.173283 0
M  V30 2780 O 263.874 -4.12735 1.46907 0
M  V30 2781 C 265.375 -4.42213 -0.310266 0
M  V30 2782 H 262.595 -0.662327 0.107534 0
M  V30 2783 H 265.139 -1.81489 0.942438 0
M  V30 2784 H 263.294 -3.84278 -0.490858 0
M  V30 2785 H 263.708 -5.06743 1.35322 0
M  V30 2786 H 265.182 -5.51194 -0.298196 0
M  V30 2787 H 265.659 -4.1799 -1.34838 0
M  V30 2788 H 266.265 -4.24074 0.322716 0
M  V30 2789 N 264.58 -0.43555 -1.51462 0
M  V30 2790 C 265.996 -0.0877501 -1.59359 0
M  V30 2791 C 266.196 1.4027 -1.4466 0
M  V30 2792 O 265.252 2.17243 -1.28693 0
M  V30 2793 C 266.565 -0.606264 -2.94525 0
M  V30 2794 C 268.113 -0.566548 -3.0783 0
M  V30 2795 C 268.588 -1.06201 -4.45517 0
M  V30 2796 N 270.079 -1.01992 -4.51832 0
M  V30 2797 C 270.814 -1.37417 -5.5669 0
M  V30 2798 N 270.31 -1.80119 -6.68976 0
M  V30 2799 N 272.103 -1.29245 -5.47039 0
M  V30 2800 H 264.254 -1.40533 -1.59261 0
M  V30 2801 H 266.517 -0.578992 -0.750648 0
M  V30 2802 H 266.223 -1.64901 -3.10645 0
M  V30 2803 H 266.097 -0.0302097 -3.77188 0
M  V30 2804 H 268.484 0.467208 -2.91378 0
M  V30 2805 H 268.565 -1.17898 -2.2701 0
M  V30 2806 H 268.209 -2.09422 -4.62715 0
M  V30 2807 H 268.139 -0.426127 -5.24873 0
M  V30 2808 H 270.63 -0.706308 -3.71241 0
M  V30 2809 H 270.943 -2.05392 -7.45006 0
M  V30 2810 H 269.288 -1.84044 -6.70189 0
M  V30 2811 H 272.479 -0.957522 -4.58202 0
M  V30 2812 H 272.652 -1.57182 -6.28648 0
M  V30 2813 N 266.058 1.56714 -0.166846 0
M  V30 2814 C 267.474 1.58473 0.189372 0
M  V30 2815 C 267.674 1.18201 1.63189 0
M  V30 2816 O 266.73 0.891528 2.36237 0
M  V30 2817 C 268.043 3.00573 -0.0873872 0
M  V30 2818 C 269.591 3.1299 -0.0252443 0
M  V30 2819 C 270.066 4.57174 -0.274934 0
M  V30 2820 N 271.557 4.62665 -0.222553 0
M  V30 2821 C 272.292 5.72072 -0.389985 0
M  V30 2822 N 271.788 6.90054 -0.616229 0
M  V30 2823 N 273.581 5.61153 -0.326202 0
M  V30 2824 H 265.732 1.8118 -1.10849 0
M  V30 2825 H 267.995 0.839525 -0.440342 0
M  V30 2826 H 267.701 3.34497 -1.0865 0
M  V30 2827 H 267.575 3.72019 0.623037 0
M  V30 2828 H 269.962 2.78895 0.96444 0
M  V30 2829 H 270.043 2.43989 -0.768309 0
M  V30 2830 H 269.687 4.91976 -1.26181 0
M  V30 2831 H 269.617 5.24328 0.48869 0
M  V30 2832 H 272.108 3.77863 -0.0531512 0
M  V30 2833 H 272.421 7.69311 -0.733559 0
M  V30 2834 H 270.766 6.91927 -0.652791 0
M  V30 2835 H 273.957 4.67859 -0.150072 0
M  V30 2836 H 274.13 6.46364 -0.460116 0
M  V30 2837 N 267.536 -0.106894 1.57237 0
M  V30 2838 C 268.466 -1.13148 2.04254 0
M  V30 2839 C 269.447 -1.42476 0.929224 0
M  V30 2840 O 270.632 -1.52709 1.19973 0
M  V30 2841 C 267.762 -2.4545 2.45706 0
M  V30 2842 C 266.716 -2.30558 3.60592 0
M  V30 2843 C 266.042 -3.67931 3.87983 0
M  V30 2844 C 267.342 -1.75597 4.91897 0
M  V30 2845 H 269.036 -0.740374 2.90101 0
M  V30 2846 H 266.582 -0.354696 1.39563 0
M  V30 2847 H 268.535 -3.17389 2.77205 0
M  V30 2848 H 267.259 -2.86475 1.56843 0
M  V30 2849 H 265.918 -1.61067 3.29322 0
M  V30 2850 H 265.566 -4.06462 2.96306 0
M  V30 2851 H 265.266 -3.58817 4.65322 0
M  V30 2852 H 266.79 -4.41356 4.21945 0
M  V30 2853 H 268.204 -2.37364 5.21854 0
M  V30 2854 H 266.601 -1.77272 5.73319 0
M  V30 2855 H 267.671 -0.714451 4.79608 0
M  V30 2856 N 269.014 -1.53014 -0.377408 0
M  V30 2857 C 270.291 -1.59215 -1.13622 0
M  V30 2858 C 270.671 -0.392407 -2.07421 0
M  V30 2859 O 270.019 0.618342 -2.19975 0
M  V30 2860 C 270.229 -2.93669 -1.88573 0
M  V30 2861 C 271.577 -3.47822 -2.43526 0
M  V30 2862 O 272.601 -2.9562 -1.98715 0
M  V30 2863 O 271.46 -4.39055 -3.25412 0
M  V30 2864 H 268.554 -0.642625 -0.52054 0
M  V30 2865 H 271.1 -1.65353 -0.381625 0
M  V30 2866 H 269.872 -3.7243 -1.20048 0
M  V30 2867 H 269.495 -2.90968 -2.70968 0
M  V30 2868 N 270.492 0.636531 -1.44174 0
M  V30 2869 C 271.741 1.39213 -1.45954 0
M  V30 2870 C 272.054 1.95374 -0.0939119 0
M  V30 2871 O 273.26 2.71498 0.0107767 0
M  V30 2872 C 271.716 2.52025 -2.56927 0
M  V30 2873 C 271.324 2.024 -3.99673 0
M  V30 2874 C 273.068 3.29269 -2.67922 0
M  V30 2875 C 270.975 3.12521 -5.0208 0
M  V30 2876 H 269.905 0.523132 -0.542999 0
M  V30 2877 H 272.556 0.685349 -1.70221 0
M  V30 2878 H 270.938 3.25253 -2.25891 0
M  V30 2879 H 272.112 1.36073 -4.40251 0
M  V30 2880 H 270.427 1.37987 -3.92872 0
M  V30 2881 H 273.024 4.11352 -3.41605 0
M  V30 2882 H 273.367 3.78397 -1.73555 0
M  V30 2883 H 273.9 2.63129 -2.98342 0
M  V30 2884 H 270.639 2.68343 -5.98057 0
M  V30 2885 H 270.159 3.77507 -4.66099 0
M  V30 2886 H 271.838 3.77385 -5.25538 0
M  V30 2887 N 271.97 1.30982 0.876444 0
M  V30 2888 C 272.933 1.18054 1.96459 0
M  V30 2889 C 273.933 0.109399 1.60427 0
M  V30 2890 O 275.123 0.358173 1.70478 0
M  V30 2891 C 272.255 0.810616 3.31122 0
M  V30 2892 H 273.448 2.14735 2.09354 0
M  V30 2893 H 271.001 1.145 1.06392 0
M  V30 2894 H 271.736 -0.155322 3.23928 0
M  V30 2895 H 271.521 1.58481 3.58645 0
M  V30 2896 H 273.011 0.743876 4.10921 0
M  V30 2897 N 273.449 -1.08991 1.13837 0
M  V30 2898 C 274.697 -1.80899 0.901098 0
M  V30 2899 C 275.018 -1.86356 -0.574134 0
M  V30 2900 O 274.288 -1.35235 -1.41733 0
M  V30 2901 H 272.868 -0.669966 0.330386 0
M  V30 2902 H 275.53 -1.318 1.43578 0
M  V30 2903 H 274.626 -2.83929 1.29578 0
M  V30 2904 N 274.927 -0.932562 -1.27047 0
M  V30 2905 C 276.343 -0.633544 -1.46487 0
M  V30 2906 C 276.543 0.815746 -1.84249 0
M  V30 2907 O 275.599 1.59319 -1.95892 0
M  V30 2908 C 276.912 -1.58758 -2.55375 0
M  V30 2909 C 278.46 -1.59634 -2.69232 0
M  V30 2910 C 278.935 -2.53747 -3.81283 0
M  V30 2911 N 280.426 -2.51982 -3.88664 0
M  V30 2912 C 281.161 -3.21491 -4.74796 0
M  V30 2913 N 280.657 -4.00395 -5.65381 0
M  V30 2914 N 282.45 -3.10485 -4.68568 0
M  V30 2915 H 274.601 -1.86946 -1.00821 0
M  V30 2916 H 276.864 -0.802897 -0.504044 0
M  V30 2917 H 276.57 -2.62172 -2.34432 0
M  V30 2918 H 276.444 -1.33301 -3.52861 0
M  V30 2919 H 278.831 -0.569488 -2.89553 0
M  V30 2920 H 278.912 -1.89142 -1.72218 0
M  V30 2921 H 278.556 -3.56545 -3.61715 0
M  V30 2922 H 278.486 -2.21532 -4.77735 0
M  V30 2923 H 280.977 -1.94681 -3.23895 0
M  V30 2924 H 281.29 -4.50406 -6.27976 0
M  V30 2925 H 279.635 -4.04498 -5.65161 0
M  V30 2926 H 282.826 -2.48331 -3.96799 0
M  V30 2927 H 282.999 -3.64925 -5.35475 0
M  V30 2928 N 276.405 1.4127 -0.698611 0
M  V30 2929 C 277.682 1.94955 -0.158762 0
M  V30 2930 C 278.062 1.63781 1.33188 0
M  V30 2931 O 277.41 0.946423 2.07979 0
M  V30 2932 C 277.62 3.46044 -0.453309 0
M  V30 2933 C 278.968 4.22872 -0.382707 0
M  V30 2934 O 279.992 3.54076 -0.388396 0
M  V30 2935 O 278.851 5.45407 -0.345463 0
M  V30 2936 H 275.945 0.82683 -0.0167505 0
M  V30 2937 H 278.491 1.50971 -0.77498 0
M  V30 2938 H 277.263 3.62028 -1.48498 0
M  V30 2939 H 276.886 3.97128 0.19373 0
M  V30 2940 N 277.883 0.443576 1.51229 0
M  V30 2941 C 279.132 -0.122332 2.01329 0
M  V30 2942 C 279.445 -1.43237 1.33201 0
M  V30 2943 O 280.651 -2.0816 1.74304 0
M  V30 2944 C 279.107 -0.268551 3.58897 0
M  V30 2945 C 278.715 1.03142 4.35965 0
M  V30 2946 C 280.459 -0.787894 4.17124 0
M  V30 2947 C 278.366 0.850504 5.85252 0
M  V30 2948 H 277.296 -0.0494929 0.752374 0
M  V30 2949 H 279.947 0.574289 1.74282 0
M  V30 2950 H 278.329 -1.02832 3.82415 0
M  V30 2951 H 279.503 1.80001 4.24189 0
M  V30 2952 H 277.818 1.47977 3.89219 0
M  V30 2953 H 280.415 -0.939841 5.26375 0
M  V30 2954 H 280.758 -1.77201 3.76703 0
M  V30 2955 H 281.291 -0.0862669 3.97706 0
M  V30 2956 H 278.03 1.80718 6.30096 0
M  V30 2957 H 277.55 0.121825 5.99676 0
M  V30 2958 H 279.229 0.506163 6.45017 0
M  V30 2959 N 279.361 -1.56624 0.175154 0
M  V30 2960 C 280.589 -2.01374 -0.474971 0
M  V30 2961 C 281.004 -1.05537 -1.56548 0
M  V30 2962 O 280.361 -0.0568668 -1.82411 0
M  V30 2963 C 280.412 -3.45923 -1.04975 0
M  V30 2964 O 280.133 -4.381 -0.00276605 0
M  V30 2965 C 281.634 -4.06093 -1.77773 0
M  V30 2966 H 278.854 -0.659962 -0.121206 0
M  V30 2967 H 281.398 -2.02601 0.27801 0
M  V30 2968 H 279.553 -3.45458 -1.75321 0
M  V30 2969 H 279.967 -5.22753 -0.427681 0
M  V30 2970 H 281.441 -5.09147 -2.13245 0
M  V30 2971 H 281.918 -3.48405 -2.67414 0
M  V30 2972 H 282.524 -4.10272 -1.12059 0
M  V30 2973 N 280.839 0.0985539 -1.57292 0
M  V30 2974 C 282.255 0.45267 -1.53046 0
M  V30 2975 C 282.455 1.80713 -0.891342 0
M  V30 2976 O 281.511 2.4785 -0.482375 0
M  V30 2977 C 282.824 0.418341 -2.97776 0
M  V30 2978 C 284.372 0.500443 -3.08973 0
M  V30 2979 C 284.847 0.496297 -4.55303 0
M  V30 2980 N 286.338 0.557151 -4.59837 0
M  V30 2981 C 287.073 0.575726 -5.70502 0
M  V30 2982 N 286.569 0.550714 -6.90608 0
M  V30 2983 N 288.362 0.620277 -5.58667 0
M  V30 2984 H 280.513 -0.788673 -1.97215 0
M  V30 2985 H 282.776 -0.293188 -0.901524 0
M  V30 2986 H 282.482 -0.509659 -3.47988 0
M  V30 2987 H 282.356 1.2386 -3.56284 0
M  V30 2988 H 284.743 1.41886 -2.58751 0
M  V30 2989 H 284.824 -0.347894 -2.53423 0
M  V30 2990 H 284.468 -0.418162 -5.06176 0
M  V30 2991 H 284.398 1.3618 -5.08687 0
M  V30 2992 H 286.889 0.581816 -3.73394 0
M  V30 2993 H 287.202 0.568075 -7.70709 0
M  V30 2994 H 285.547 0.517816 -6.93068 0
M  V30 2995 H 288.738 0.637322 -4.63741 0
M  V30 2996 H 288.911 0.631283 -6.44918 0
M  V30 2997 N 282.317 1.53212 0.369288 0
M  V30 2998 C 283.547 1.72868 1.13139 0
M  V30 2999 C 283.955 0.455754 1.83629 0
M  V30 3000 O 283.298 -0.580861 1.74275 0
M  V30 3001 C 283.36 2.83667 2.20847 0
M  V30 3002 C 283.024 4.24142 1.70155 0
M  V30 3003 C 284.021 5.06619 1.16763 0
M  V30 3004 C 281.706 4.70539 1.7578 0
M  V30 3005 C 283.7 6.33581 0.696678 0
M  V30 3006 C 281.387 5.97481 1.28297 0
M  V30 3007 C 282.385 6.78833 0.753307 0
M  V30 3008 O 282.073 8.03393 0.285475 0
M  V30 3009 H 281.805 0.581707 0.344373 0
M  V30 3010 H 284.359 2.00736 0.435243 0
M  V30 3011 H 282.589 2.51265 2.93944 0
M  V30 3012 H 284.278 2.91536 2.82421 0
M  V30 3013 H 285.044 4.71948 1.11758 0
M  V30 3014 H 280.923 4.07293 2.15949 0
M  V30 3015 H 284.467 6.97027 0.282581 0
M  V30 3016 H 280.364 6.31651 1.32994 0
M  V30 3017 H 281.132 8.17497 0.405145 0
M  V30 3018 N 283.795 -0.628877 1.44509 0
M  V30 3019 C 284.725 -1.75187 1.54376 0
M  V30 3020 C 285.706 -1.65411 0.396618 0
M  V30 3021 O 286.891 -1.84137 0.617031 0
M  V30 3022 C 284.021 -3.13725 1.48976 0
M  V30 3023 C 282.975 -3.38291 2.62189 0
M  V30 3024 C 282.301 -4.76883 2.41841 0
M  V30 3025 C 283.601 -3.30632 4.04326 0
M  V30 3026 H 285.295 -1.67187 2.48373 0
M  V30 3027 H 282.841 -0.802909 1.19538 0
M  V30 3028 H 284.794 -3.92064 1.54478 0
M  V30 3029 H 283.518 -3.22515 0.514961 0
M  V30 3030 H 282.177 -2.62334 2.56079 0
M  V30 3031 H 281.825 -4.82378 1.42548 0
M  V30 3032 H 281.525 -4.94278 3.17747 0
M  V30 3033 H 283.049 -5.57449 2.49165 0
M  V30 3034 H 284.463 -3.98873 4.11793 0
M  V30 3035 H 282.86 -3.59561 4.80454 0
M  V30 3036 H 283.93 -2.28404 4.27738 0
M  V30 3037 N 285.273 -1.31445 -0.869486 0
M  V30 3038 C 286.522 -1.20517 -1.61736 0
M  V30 3039 C 286.835 0.235341 -1.94179 0
M  V30 3040 O 288.041 0.466312 -2.67465 0
M  V30 3041 C 286.497 -2.10982 -2.91573 0
M  V30 3042 C 286.105 -3.60032 -2.66611 0
M  V30 3043 C 287.849 -2.08856 -3.69567 0
M  V30 3044 C 285.756 -4.42503 -3.92358 0
M  V30 3045 H 284.686 -0.447493 -0.606849 0
M  V30 3046 H 287.337 -1.56303 -0.96133 0
M  V30 3047 H 285.719 -1.68095 -3.58553 0
M  V30 3048 H 286.893 -4.11167 -2.08035 0
M  V30 3049 H 285.208 -3.64139 -2.0197 0
M  V30 3050 H 287.805 -2.67716 -4.62852 0
M  V30 3051 H 288.148 -1.07582 -4.02159 0
M  V30 3052 H 288.681 -2.49945 -3.09471 0
M  V30 3053 H 285.42 -5.44533 -3.64916 0
M  V30 3054 H 284.94 -3.96125 -4.50383 0
M  V30 3055 H 286.619 -4.54741 -4.60238 0
M  V30 3056 N 286.751 1.08385 -1.14413 0
M  V30 3057 C 287.698 2.15311 -0.831265 0
M  V30 3058 C 288.668 1.64751 0.211292 0
M  V30 3059 O 289.853 1.90627 0.0811674 0
M  V30 3060 C 286.993 3.43658 -0.315143 0
M  V30 3061 C 286.106 4.08064 -1.41802 0
M  V30 3062 C 285.241 5.24207 -0.859126 0
M  V30 3063 C 284.28 5.80554 -1.93967 0
M  V30 3064 N 283.417 6.88042 -1.39793 0
M  V30 3065 H 288.257 2.41415 -1.74708 0
M  V30 3066 H 285.794 1.18474 -0.871909 0
M  V30 3067 H 287.752 4.172 0.00230884 0
M  V30 3068 H 286.382 3.17839 0.56378 0
M  V30 3069 H 285.434 3.3228 -1.85187 0
M  V30 3070 H 286.746 4.45962 -2.23427 0
M  V30 3071 H 285.9 6.04689 -0.49359 0
M  V30 3072 H 284.639 4.87699 -0.011932 0
M  V30 3073 H 283.644 4.98725 -2.31415 0
M  V30 3074 H 284.869 6.19121 -2.79046 0
M  V30 3075 H 282.815 6.53493 -0.572919 0
M  V30 3076 H 282.732 7.24767 -2.15054 0
M  V30 3077 H 284 7.72255 -1.0603 0
M  V30 3078 N 288.23 0.939286 1.26551 0
M  V30 3079 C 289.16 0.465044 2.28822 0
M  V30 3080 C 290.141 -0.480692 1.63167 0
M  V30 3081 O 291.326 -0.382955 1.90387 0
M  V30 3082 C 288.456 -0.27234 3.46231 0
M  V30 3083 C 287.41 0.58666 4.2396 0
M  V30 3084 C 286.736 -0.280573 5.33963 0
M  V30 3085 C 288.036 1.85704 4.88171 0
M  V30 3086 H 289.73 1.31979 2.68741 0
M  V30 3087 H 287.276 0.636061 1.29191 0
M  V30 3088 H 289.229 -0.615133 4.16886 0
M  V30 3089 H 287.953 -1.16121 3.0526 0
M  V30 3090 H 286.612 0.91232 3.55067 0
M  V30 3091 H 286.26 -1.16874 4.89234 0
M  V30 3092 H 285.96 0.29076 5.8688 0
M  V30 3093 H 287.484 -0.618678 6.07458 0
M  V30 3094 H 288.898 1.58161 5.51052 0
M  V30 3095 H 287.295 2.37279 5.51197 0
M  V30 3096 H 288.365 2.56957 4.11219 0
M  V30 3097 N 289.708 -1.40897 0.706093 0
M  V30 3098 C 290.638 -2.33418 0.0620085 0
M  V30 3099 C 291.619 -1.52385 -0.755827 0
M  V30 3100 O 292.804 -1.80886 -0.706674 0
M  V30 3101 C 289.934 -3.36293 -0.867445 0
M  V30 3102 C 288.888 -4.27716 -0.155932 0
M  V30 3103 C 288.214 -5.2105 -1.20046 0
M  V30 3104 C 289.514 -5.12944 0.984149 0
M  V30 3105 H 291.208 -2.87527 0.83477 0
M  V30 3106 H 288.754 -1.38249 0.402875 0
M  V30 3107 H 290.707 -3.99949 -1.32735 0
M  V30 3108 H 289.431 -2.80556 -1.67199 0
M  V30 3109 H 288.09 -3.65498 0.284047 0
M  V30 3110 H 287.738 -4.61624 -1.99781 0
M  V30 3111 H 287.438 -5.83056 -0.729328 0
M  V30 3112 H 288.962 -5.87584 -1.66066 0
M  V30 3113 H 290.376 -5.70109 0.604048 0
M  V30 3114 H 288.773 -5.83945 1.38304 0
M  V30 3115 H 289.843 -4.49485 1.81911 0
M  V30 3116 N 291.186 -0.45159 -1.50991 0
M  V30 3117 C 292.116 0.342898 -2.30969 0
M  V30 3118 C 293.097 1.00815 -1.37005 0
M  V30 3119 O 294.282 1.00907 -1.65926 0
M  V30 3120 C 291.412 1.43637 -3.16205 0
M  V30 3121 C 290.366 0.893818 -4.18563 0
M  V30 3122 C 289.692 2.08411 -4.92411 0
M  V30 3123 C 290.992 -0.0815568 -5.22236 0
M  V30 3124 H 292.686 -0.324556 -2.97636 0
M  V30 3125 H 290.232 -0.157531 -1.43136 0
M  V30 3126 H 292.185 1.9995 -3.70942 0
M  V30 3127 H 290.909 2.13232 -2.47386 0
M  V30 3128 H 289.568 0.352798 -3.64898 0
M  V30 3129 H 289.216 2.76658 -4.20082 0
M  V30 3130 H 288.916 1.72741 -5.61636 0
M  V30 3131 H 290.44 2.65251 -5.49976 0
M  V30 3132 H 291.854 0.391742 -5.7196 0
M  V30 3133 H 290.251 -0.351551 -5.99069 0
M  V30 3134 H 291.321 -1.01374 -4.74185 0
M  V30 3135 N 292.664 1.56529 -0.183458 0
M  V30 3136 C 293.594 2.21549 0.737456 0
M  V30 3137 C 294.575 1.17489 1.23005 0
M  V30 3138 O 295.76 1.45959 1.281 0
M  V30 3139 C 292.89 2.86575 1.96194 0
M  V30 3140 C 291.844 3.96778 1.60473 0
M  V30 3141 C 291.17 4.48911 2.90487 0
M  V30 3142 C 292.47 5.15767 0.823497 0
M  V30 3143 H 294.164 2.98761 0.195453 0
M  V30 3144 H 291.71 1.43702 0.0925686 0
M  V30 3145 H 293.663 3.30739 2.61131 0
M  V30 3146 H 292.387 2.06749 2.52828 0
M  V30 3147 H 291.046 3.53286 0.978997 0
M  V30 3148 H 290.694 3.65862 3.45186 0
M  V30 3149 H 290.394 5.23265 2.67335 0
M  V30 3150 H 291.918 4.95771 3.56432 0
M  V30 3151 H 293.332 5.56549 1.37571 0
M  V30 3152 H 291.729 5.96114 0.690551 0
M  V30 3153 H 292.799 4.84574 -0.177782 0
M  V30 3154 N 294.142 -0.090211 1.57342 0
M  V30 3155 C 295.558 -0.444547 1.53284 0
M  V30 3156 C 295.758 -1.80238 0.900914 0
M  V30 3157 O 294.814 -2.4759 0.495513 0
M  V30 3158 C 296.127 -0.402543 2.97993 0
M  V30 3159 C 297.675 -0.48405 3.09234 0
M  V30 3160 C 298.15 -0.472144 4.5556 0
M  V30 3161 N 299.641 -0.532757 4.60126 0
M  V30 3162 C 300.376 -0.545462 5.708 0
M  V30 3163 N 299.872 -0.514082 6.9089 0
M  V30 3164 N 301.665 -0.59064 5.58988 0
M  V30 3165 H 293.816 0.799121 1.96794 0
M  V30 3166 H 296.079 0.297965 0.899956 0
M  V30 3167 H 295.785 0.528106 3.47712 0
M  V30 3168 H 295.659 -1.21969 3.56936 0
M  V30 3169 H 298.046 -1.40512 2.595 0
M  V30 3170 H 298.127 0.361328 2.53235 0
M  V30 3171 H 297.771 0.445 5.05947 0
M  V30 3172 H 297.701 -1.3348 5.09402 0
M  V30 3173 H 300.192 -0.562006 3.73698 0
M  V30 3174 H 300.505 -0.527195 7.71 0
M  V30 3175 H 298.85 -0.481054 6.93333 0
M  V30 3176 H 302.041 -0.61272 4.64073 0
M  V30 3177 H 302.214 -0.597073 6.45243 0
M  V30 3178 N 295.62 -1.53406 -0.361157 0
M  V30 3179 C 296.868 -1.69467 -1.10115 0
M  V30 3180 C 297.189 -0.451352 -1.89705 0
M  V30 3181 O 296.459 0.534636 -1.88463 0
M  V30 3182 H 295.039 -0.624749 -0.409508 0
M  V30 3183 H 297.701 -1.90609 -0.406699 0
M  V30 3184 H 296.797 -2.55774 -1.78847 0
M  V30 3185 N 297.098 0.621204 -1.44841 0
M  V30 3186 C 298.328 1.40548 -1.51426 0
M  V30 3187 C 298.736 1.88673 -0.141083 0
M  V30 3188 O 298.079 1.62053 0.865128 0
M  V30 3189 C 298.141 2.65325 -2.42576 0
M  V30 3190 C 297.805 2.3893 -3.89566 0
M  V30 3191 C 298.802 2.00138 -4.79834 0
M  V30 3192 C 296.487 2.52263 -4.3436 0
M  V30 3193 C 298.481 1.75021 -6.129 0
M  V30 3194 C 296.168 2.2676 -5.67471 0
M  V30 3195 C 297.166 1.88199 -6.56559 0
M  V30 3196 O 296.854 1.62986 -7.87204 0
M  V30 3197 H 296.586 0.437122 -0.515655 0
M  V30 3198 H 299.14 0.765987 -1.90583 0
M  V30 3199 H 297.37 3.31947 -1.98364 0
M  V30 3200 H 299.059 3.27347 -2.39998 0
M  V30 3201 H 299.825 1.89386 -4.46495 0
M  V30 3202 H 295.704 2.81246 -3.65269 0
M  V30 3203 H 299.248 1.44848 -6.82396 0
M  V30 3204 H 295.145 2.37125 -6.00368 0
M  V30 3205 H 295.913 1.7715 -7.991 0
M  V30 3206 N 298.576 1.31904 0.862503 0
M  V30 3207 C 299.539 1.20131 1.95195 0
M  V30 3208 C 300.539 0.126409 1.60302 0
M  V30 3209 O 301.729 0.376234 1.70089 0
M  V30 3210 C 298.861 0.845691 3.30244 0
M  V30 3211 H 300.054 2.16943 2.07064 0
M  V30 3212 H 297.607 1.15622 1.05172 0
M  V30 3213 H 298.342 -0.120957 3.24074 0
M  V30 3214 H 298.127 1.62276 3.56944 0
M  V30 3215 H 299.617 0.787418 4.10109 0
M  V30 3216 N 300.054 -1.07777 1.14986 0
M  V30 3217 C 301.301 -1.8029 0.922056 0
M  V30 3218 C 301.629 -1.86531 -0.55105 0
M  V30 3219 O 300.884 -1.34189 -1.42449 0
M  V30 3220 C 301.183 -3.25495 1.47608 0
M  V30 3221 C 300.849 -3.39361 2.96893 0
M  V30 3222 C 299.511 -3.42852 3.37647 0
M  V30 3223 C 301.863 -3.42512 3.92854 0
M  V30 3224 C 299.191 -3.47094 4.73015 0
M  V30 3225 C 301.543 -3.4829 5.28088 0
M  V30 3226 C 300.207 -3.50058 5.68345 0
M  V30 3227 H 299.477 -0.659727 0.337404 0
M  V30 3228 H 302.124 -1.26854 1.43459 0
M  V30 3229 H 300.429 -3.81683 0.88463 0
M  V30 3230 H 302.126 -3.80168 1.27568 0
M  V30 3231 H 298.716 -3.37339 2.64387 0
M  V30 3232 H 302.9 -3.3904 3.62444 0
M  V30 3233 H 298.156 -3.46758 5.03556 0
M  V30 3234 H 302.33 -3.49675 6.02246 0
M  V30 3235 H 299.957 -3.53097 6.73221 0
M  V30 3236 N 301.532 -0.945985 -1.26051 0
M  V30 3237 C 302.48 -0.450259 -2.282 0
M  V30 3238 C 303.474 0.47497 -1.62605 0
M  V30 3239 O 304.68 0.352653 -1.76512 0
M  V30 3240 H 301.055 -0.127081 -0.741184 0
M  V30 3241 H 303.026 -1.32422 -2.67408 0
M  V30 3242 C 301.775 0.26467 -3.46691 0
M  V30 3243 H 301.098 -0.438123 -3.97392 0
M  V30 3244 H 302.538 0.575678 -4.20074 0
M  V30 3245 C 300.997 1.48416 -3.02447 0
M  V30 3246 O 301.527 2.58227 -3.07704 0
M  V30 3247 N 299.733 1.34243 -2.57735 0
M  V30 3248 H 299.28 0.448994 -2.53657 0
M  V30 3249 H 299.238 2.15957 -2.28495 0
M  V30 3250 N 303.011 1.40521 -0.713556 0
M  V30 3251 C 303.961 2.27971 -0.036165 0
M  V30 3252 C 304.945 1.43151 0.734623 0
M  V30 3253 O 306.137 1.66261 0.607158 0
M  V30 3254 C 303.266 3.31661 0.886331 0
M  V30 3255 C 302.352 4.23955 0.110836 0
M  V30 3256 N 302.743 4.97641 -0.904847 0
M  V30 3257 C 301.041 4.44674 0.343692 0
M  V30 3258 C 301.742 5.65322 -1.37064 0
M  V30 3259 N 300.718 5.39162 -0.693168 0
M  V30 3260 H 304.52 2.82384 -0.814645 0
M  V30 3261 H 302.034 1.52948 -0.545963 0
M  V30 3262 H 304.031 3.93154 1.38692 0
M  V30 3263 H 302.691 2.78808 1.66421 0
M  V30 3264 H 303.702 5.01689 -1.28563 0
M  V30 3265 H 300.379 4.02801 1.09805 0
M  V30 3266 H 301.769 6.34359 -2.21447 0
M  V30 3267 N 304.489 0.459591 1.5075 0
M  V30 3268 C 305.714 -0.0996819 2.0716 0
M  V30 3269 C 306.139 -1.33761 1.32249 0
M  V30 3270 O 305.497 -1.77551 0.366786 0
M  V30 3271 C 305.545 -0.378226 3.58611 0
M  V30 3272 O 304.649 -1.46081 3.85661 0
M  V30 3273 H 303.99 0.00791392 0.663953 0
M  V30 3274 H 306.52 0.647329 1.9409 0
M  V30 3275 H 306.53 -0.622135 4.03229 0
M  V30 3276 H 305.205 0.526439 4.12555 0
M  V30 3277 H 303.782 -1.20511 3.5289 0
M  V30 3278 N 305.967 -1.56429 0.191757 0
M  V30 3279 C 306.93 -2.17707 -0.716688 0
M  V30 3280 C 307.93 -1.13061 -1.14341 0
M  V30 3281 O 309.12 -1.38464 -1.05704 0
M  V30 3282 C 306.252 -2.77644 -1.97804 0
M  V30 3283 H 307.445 -2.99342 -0.1829 0
M  V30 3284 H 304.998 -1.56193 -0.0578566 0
M  V30 3285 H 305.733 -1.99799 -2.55443 0
M  V30 3286 H 305.518 -3.54246 -1.68083 0
M  V30 3287 H 307.008 -3.24708 -2.62592 0
M  V30 3288 N 307.445 0.0818655 -1.57387 0
M  V30 3289 C 308.722 0.815343 -1.77796 0
M  V30 3290 C 309.102 1.96289 -0.77679 0
M  V30 3291 O 308.45 2.27691 0.192106 0
M  V30 3292 C 308.66 1.29765 -3.23978 0
M  V30 3293 C 310.008 1.7351 -3.8753 0
M  V30 3294 O 311.032 1.39356 -3.27808 0
M  V30 3295 O 309.891 2.36708 -4.92576 0
M  V30 3296 H 306.985 0.389914 -0.729312 0
M  V30 3297 H 309.531 0.0627213 -1.69584 0
M  V30 3298 H 308.303 0.47608 -3.88393 0
M  V30 3299 H 307.926 2.11189 -3.36875 0
M  V30 3300 N 308.923 1.53595 0.353017 0
M  V30 3301 C 310.17 1.70385 1.09431 0
M  V30 3302 C 310.498 0.462113 1.88931 0
M  V30 3303 O 309.753 -0.556074 1.87633 0
M  V30 3304 C 310.052 2.91313 2.07054 0
M  V30 3305 C 309.718 4.27308 1.43939 0
M  V30 3306 C 308.38 4.64287 1.26454 0
M  V30 3307 C 310.732 5.11829 0.983883 0
M  V30 3308 C 308.06 5.83412 0.620226 0
M  V30 3309 C 310.412 6.31611 0.353516 0
M  V30 3310 C 309.076 6.67293 0.166272 0
M  V30 3311 H 308.346 0.623484 0.400436 0
M  V30 3312 H 310.993 1.87799 0.374655 0
M  V30 3313 H 309.298 2.68463 2.85368 0
M  V30 3314 H 310.995 3.01497 2.64387 0
M  V30 3315 H 307.585 3.98198 1.58543 0
M  V30 3316 H 311.769 4.838 1.10685 0
M  V30 3317 H 307.025 6.09639 0.463681 0
M  V30 3318 H 311.199 6.964 -0.00757555 0
M  V30 3319 H 308.826 7.59461 -0.335047 0
M  V30 3320 N 310.401 -0.613514 1.45168 0
M  V30 3321 C 311.311 -1.75296 1.55912 0
M  V30 3322 C 312.327 -1.68244 0.443856 0
M  V30 3323 O 313.503 -1.88706 0.70371 0
M  V30 3324 C 310.568 -3.1174 1.5172 0
M  V30 3325 C 309.629 -3.30291 2.74238 0
M  V30 3326 C 308.862 -4.60226 2.70236 0
M  V30 3327 O 309.085 -5.42168 1.77229 0
M  V30 3328 O 308.019 -4.81361 3.61352 0
M  V30 3329 H 311.845 -1.69183 2.52212 0
M  V30 3330 H 309.43 -0.776886 1.27612 0
M  V30 3331 H 311.312 -3.93044 1.51968 0
M  V30 3332 H 309.987 -3.18357 0.585697 0
M  V30 3333 H 308.894 -2.48598 2.79553 0
M  V30 3334 H 310.227 -3.28547 3.66494 0
M  V30 3335 N 311.879 -1.3236 -0.855495 0
M  V30 3336 C 313.107 -1.2587 -1.64208 0
M  V30 3337 C 313.522 0.173457 -1.88002 0
M  V30 3338 O 312.879 1.11027 -1.44842 0
M  V30 3339 C 312.93 -2.01424 -3.00184 0
M  V30 3340 O 312.651 -3.39051 -2.77445 0
M  V30 3341 C 314.152 -2.01948 -3.94629 0
M  V30 3342 H 311.372 -0.434318 -0.511477 0
M  V30 3343 H 313.916 -1.74469 -1.0668 0
M  V30 3344 H 312.071 -1.56549 -3.5436 0
M  V30 3345 H 312.485 -3.77711 -3.63916 0
M  V30 3346 H 313.959 -2.59297 -4.87308 0
M  V30 3347 H 314.436 -1.00554 -4.27534 0
M  V30 3348 H 315.042 -2.46767 -3.4639 0
M  V30 3349 N 313.357 1.07166 -1.15556 0
M  V30 3350 C 314.603 1.80065 -0.932984 0
M  V30 3351 C 314.936 1.86586 0.53845 0
M  V30 3352 O 314.211 1.35098 1.39924 0
M  V30 3353 C 314.494 3.25022 -1.55025 0
M  V30 3354 C 314.347 3.26634 -3.09242 0
M  V30 3355 C 315.666 4.22341 -1.2376 0
M  V30 3356 H 312.785 0.653697 -0.340366 0
M  V30 3357 H 315.427 1.25389 -1.4275 0
M  V30 3358 H 313.577 3.71712 -1.12972 0
M  V30 3359 H 315.249 2.88173 -3.60214 0
M  V30 3360 H 313.492 2.65539 -3.43033 0
M  V30 3361 H 314.163 4.28854 -3.47546 0
M  V30 3362 H 316.639 3.8405 -1.60139 0
M  V30 3363 H 315.515 5.22053 -1.69564 0
M  V30 3364 H 315.776 4.41828 -0.154938 0
M  V30 3365 N 314.835 0.952656 1.25548 0
M  V30 3366 C 316.251 0.656769 1.4546 0
M  V30 3367 C 316.451 -0.78633 1.85524 0
M  V30 3368 O 315.507 -1.56183 1.98402 0
M  V30 3369 C 316.82 1.62801 2.52817 0
M  V30 3370 C 318.368 1.63897 2.66659 0
M  V30 3371 C 318.843 2.5978 3.77198 0
M  V30 3372 N 320.334 2.58133 3.84606 0
M  V30 3373 C 321.069 3.29003 4.69621 0
M  V30 3374 N 320.565 4.09339 5.58939 0
M  V30 3375 N 322.358 3.179 4.63569 0
M  V30 3376 H 314.509 1.88526 0.978344 0
M  V30 3377 H 316.772 0.810815 0.491206 0
M  V30 3378 H 316.478 2.65869 2.30232 0
M  V30 3379 H 316.352 1.38898 3.50695 0
M  V30 3380 H 318.739 0.615481 2.8861 0
M  V30 3381 H 318.82 1.91858 1.69187 0
M  V30 3382 H 318.464 3.62254 3.55997 0
M  V30 3383 H 318.394 2.29105 4.7415 0
M  V30 3384 H 320.885 1.99809 3.20757 0
M  V30 3385 H 321.198 4.6034 6.20731 0
M  V30 3386 H 319.543 4.13438 5.58654 0
M  V30 3387 H 322.734 2.54612 3.92798 0
M  V30 3388 H 322.907 3.73398 5.29602 0
M  V30 3389 N 316.313 -1.40141 0.720998 0
M  V30 3390 C 317.246 -2.2819 0.020916 0
M  V30 3391 C 318.224 -1.43633 -0.762129 0
M  V30 3392 O 319.408 -1.7304 -0.747633 0
M  V30 3393 C 316.535 -3.24281 -0.977715 0
M  V30 3394 C 315.581 -4.25548 -0.284836 0
M  V30 3395 S 316.414 -5.26247 0.991169 0
M  V30 3396 C 317.57 -6.259 -0.0052214 0
M  V30 3397 H 317.803 -2.87218 0.767649 0
M  V30 3398 H 315.336 -1.45656 0.512233 0
M  V30 3399 H 317.294 -3.80167 -1.54865 0
M  V30 3400 H 315.955 -2.643 -1.69719 0
M  V30 3401 H 315.148 -4.93154 -1.03996 0
M  V30 3402 H 314.75 -3.73389 0.213684 0
M  V30 3403 H 317.042 -6.72143 -0.850279 0
M  V30 3404 H 317.985 -7.05224 0.637599 0
M  V30 3405 H 318.393 -5.63277 -0.371366 0
M  V30 3406 N 317.792 -0.46758 -1.50504 0
M  V30 3407 C 319.041 0.0902868 -2.01498 0
M  V30 3408 C 319.354 1.411 -1.35463 0
M  V30 3409 O 320.56 2.0536 -1.77594 0
M  V30 3410 C 319.016 0.21142 -3.59278 0
M  V30 3411 C 318.624 -1.10065 -4.34269 0
M  V30 3412 C 320.368 0.721433 -4.18325 0
M  V30 3413 C 318.275 -0.943505 -5.83825 0
M  V30 3414 H 317.205 0.037517 -0.753066 0
M  V30 3415 H 319.856 -0.601943 -1.73346 0
M  V30 3416 H 318.238 0.967352 -3.84003 0
M  V30 3417 H 319.412 -1.86726 -4.21272 0
M  V30 3418 H 317.727 -1.5415 -3.86816 0
M  V30 3419 H 320.324 0.85598 -5.27804 0
M  V30 3420 H 320.667 1.71186 -3.79475 0
M  V30 3421 H 321.2 0.0229843 -3.97793 0
M  V30 3422 H 317.939 -1.90719 -6.27141 0
M  V30 3423 H 317.459 -0.217213 -5.99407 0
M  V30 3424 H 319.138 -0.608715 -6.4413 0
M  V30 3425 N 319.27 1.56325 -0.20005 0
M  V30 3426 C 320.217 2.1932 0.718833 0
M  V30 3427 C 321.187 1.14198 1.20615 0
M  V30 3428 O 322.372 1.42469 1.26914 0
M  V30 3429 C 319.512 2.86041 1.93066 0
M  V30 3430 C 318.625 4.05702 1.48425 0
M  V30 3431 C 317.76 4.60266 2.65196 0
M  V30 3432 C 316.799 5.72273 2.17185 0
M  V30 3433 N 315.936 6.21221 3.27152 0
M  V30 3434 H 320.776 2.97486 0.17489 0
M  V30 3435 H 318.313 1.46911 0.0745794 0
M  V30 3436 H 320.271 3.22897 2.64184 0
M  V30 3437 H 318.901 2.1043 2.44783 0
M  V30 3438 H 317.953 3.74475 0.668755 0
M  V30 3439 H 319.265 4.86699 1.09204 0
M  V30 3440 H 318.419 4.99453 3.4443 0
M  V30 3441 H 317.158 3.78386 3.07693 0
M  V30 3442 H 316.163 5.3261 1.36407 0
M  V30 3443 H 317.388 6.55974 1.75713 0
M  V30 3444 H 315.334 5.42263 3.69171 0
M  V30 3445 H 315.251 6.97284 2.92116 0
M  V30 3446 H 316.519 6.65063 4.06585 0
M  V30 3447 N 320.748 -0.0735177 1.57428 0
M  V30 3448 C 321.658 -1.10547 2.06922 0
M  V30 3449 C 322.674 -1.42506 0.998402 0
M  V30 3450 O 323.85 -1.52717 1.31299 0
M  V30 3451 C 320.915 -2.40019 2.50184 0
M  V30 3452 C 319.976 -2.15046 3.71556 0
M  V30 3453 C 319.209 -3.38345 4.12745 0
M  V30 3454 O 319.432 -4.47399 3.53822 0
M  V30 3455 O 318.366 -3.2666 5.05546 0
M  V30 3456 H 322.192 -0.715013 2.95163 0
M  V30 3457 H 319.777 -0.287531 1.46607 0
M  V30 3458 H 321.659 -3.16218 2.78539 0
M  V30 3459 H 320.334 -2.78447 1.65072 0
M  V30 3460 H 319.241 -1.36558 3.48285 0
M  V30 3461 H 320.574 -1.81499 4.57514 0
M  V30 3462 N 322.226 -1.5378 -0.344866 0
M  V30 3463 C 323.173 -1.81676 -1.42346 0
M  V30 3464 C 324.143 -0.662376 -1.52321 0
M  V30 3465 O 325.328 -0.906675 -1.67881 0
M  V30 3466 C 322.468 -2.03087 -2.79015 0
M  V30 3467 C 321.581 -3.30799 -2.77842 0
M  V30 3468 C 320.716 -3.42285 -4.0622 0
M  V30 3469 C 319.755 -4.6395 -3.9927 0
M  V30 3470 N 318.892 -4.72477 -5.19336 0
M  V30 3471 H 323.732 -2.73703 -1.17858 0
M  V30 3472 H 321.269 -1.35568 -0.570949 0
M  V30 3473 H 323.227 -2.1349 -3.58438 0
M  V30 3474 H 321.857 -1.14375 -3.01858 0
M  V30 3475 H 320.909 -3.29244 -1.90533 0
M  V30 3476 H 322.221 -4.20314 -2.68584 0
M  V30 3477 H 321.375 -3.52113 -4.94066 0
M  V30 3478 H 320.114 -2.50823 -4.18258 0
M  V30 3479 H 319.119 -4.54201 -3.09809 0
M  V30 3480 H 320.344 -5.56775 -3.88817 0
M  V30 3481 H 318.29 -3.83924 -5.3192 0
M  V30 3482 H 318.207 -5.55927 -5.12329 0
M  V30 3483 H 319.475 -4.86613 -6.08957 0
M  V30 3484 N 323.704 0.605807 -1.45491 0
M  V30 3485 C 324.634 1.72709 -1.57143 0
M  V30 3486 C 325.615 1.6476 -0.422884 0
M  V30 3487 O 326.8 1.83132 -0.646247 0
M  V30 3488 C 323.93 3.11316 -1.53948 0
M  V30 3489 C 322.884 3.34077 -2.67537 0
M  V30 3490 C 322.21 4.72975 -2.49397 0
M  V30 3491 C 323.51 3.24158 -4.09535 0
M  V30 3492 H 325.204 1.63214 -2.51001 0
M  V30 3493 H 322.75 0.78379 -1.208 0
M  V30 3494 H 324.703 3.89557 -1.60696 0
M  V30 3495 H 323.427 3.21655 -0.566205 0
M  V30 3496 H 322.086 2.58227 -2.6022 0
M  V30 3497 H 321.734 4.8005 -1.50205 0
M  V30 3498 H 321.434 4.8916 -3.25571 0
M  V30 3499 H 322.958 5.53414 -2.58002 0
M  V30 3500 H 324.372 3.92271 -4.18086 0
M  V30 3501 H 322.769 3.51872 -4.86113 0
M  V30 3502 H 323.839 2.2157 -4.31317 0
M  V30 3503 N 325.182 1.32811 0.848464 0
M  V30 3504 C 326.422 1.25046 1.61687 0
M  V30 3505 C 326.786 -0.183464 1.91121 0
M  V30 3506 O 327.987 -0.384937 2.66029 0
M  V30 3507 C 326.258 2.09201 2.89775 0
M  V30 3508 S 327.817 2.18526 3.80515 0
M  V30 3509 H 324.635 0.445023 0.554505 0
M  V30 3510 H 327.237 1.67733 1.00429 0
M  V30 3511 H 325.941 3.12433 2.66108 0
M  V30 3512 H 325.472 1.67315 3.56047 0
M  V30 3513 H 327.487 1.3393 4.77784 0
M  V30 3514 N 326.66 -1.06551 1.16123 0
M  V30 3515 C 327.89 -1.8274 0.963838 0
M  V30 3516 C 328.298 -1.82712 -0.491228 0
M  V30 3517 O 327.641 -1.24294 -1.35265 0
M  V30 3518 C 327.703 -3.3065 1.41106 0
M  V30 3519 C 327.367 -3.54384 2.88549 0
M  V30 3520 C 328.364 -3.4765 3.86569 0
M  V30 3521 C 326.049 -3.81789 3.26408 0
M  V30 3522 C 328.043 -3.67982 5.2045 0
M  V30 3523 C 325.73 -4.01772 4.60459 0
M  V30 3524 C 326.728 -3.94866 5.57288 0
M  V30 3525 O 326.416 -4.14306 6.88916 0
M  V30 3526 H 326.148 -0.583136 0.341948 0
M  V30 3527 H 328.702 -1.35351 1.54497 0
M  V30 3528 H 326.932 -3.78887 0.773394 0
M  V30 3529 H 328.621 -3.88324 1.1815 0
M  V30 3530 H 329.387 -3.2647 3.58667 0
M  V30 3531 H 325.266 -3.86276 2.51619 0
M  V30 3532 H 328.81 -3.62507 5.96015 0
M  V30 3533 H 324.707 -4.2244 4.88072 0
M  V30 3534 H 325.475 -4.31609 6.95454 0
M  V30 3535 N 328.138 -0.959301 -1.25041 0
M  V30 3536 C 329.384 -0.617525 -1.9317 0
M  V30 3537 C 329.717 0.843981 -1.74902 0
M  V30 3538 O 328.992 1.60615 -1.09696 0
M  V30 3539 C 329.275 -0.982736 -3.46431 0
M  V30 3540 C 329.128 -2.50032 -3.73904 0
M  V30 3541 C 330.447 -0.511176 -4.37121 0
M  V30 3542 H 327.566 -0.22582 -0.701552 0
M  V30 3543 H 330.208 -1.19679 -1.4757 0
M  V30 3544 H 328.358 -0.489806 -3.854 0
M  V30 3545 H 330.03 -3.06737 -3.44544 0
M  V30 3546 H 328.273 -2.93598 -3.19348 0
M  V30 3547 H 328.944 -2.70635 -4.81103 0
M  V30 3548 H 331.42 -0.934075 -4.0548 0
M  V30 3549 H 330.296 -0.795361 -5.43107 0
M  V30 3550 H 330.557 0.588834 -4.38161 0
M  V30 3551 N 329.616 1.39756 -0.72842 0
M  V30 3552 C 330.864 2.00248 -0.272946 0
M  V30 3553 C 331.185 1.58077 1.14178 0
M  V30 3554 O 330.455 0.826014 1.77634 0
M  V30 3555 H 329.035 0.740554 -0.0979247 0
M  V30 3556 H 331.697 1.70903 -0.936912 0
M  V30 3557 H 330.793 3.10495 -0.316142 0
M  V30 3558 N 331.094 0.475555 1.50254 0
M  V30 3559 C 332.324 -0.0753399 2.06463 0
M  V30 3560 C 332.732 -1.33661 1.33908 0
M  V30 3561 O 332.075 -1.79219 0.403257 0
M  V30 3562 C 332.137 -0.424921 3.5698 0
M  V30 3563 C 331.801 0.734965 4.51051 0
M  V30 3564 C 332.798 1.61827 4.94073 0
M  V30 3565 C 330.483 0.926557 4.9368 0
M  V30 3566 C 332.477 2.67754 5.78434 0
M  V30 3567 C 330.164 1.98904 5.77824 0
M  V30 3568 C 331.162 2.8629 6.20103 0
M  V30 3569 O 330.85 3.90708 7.02568 0
M  V30 3570 H 330.582 0.00576308 0.675975 0
M  V30 3571 H 333.136 0.664662 1.94349 0
M  V30 3572 H 331.366 -1.21817 3.67012 0
M  V30 3573 H 333.055 -0.911422 3.95535 0
M  V30 3574 H 333.821 1.48196 4.61804 0
M  V30 3575 H 329.7 0.25584 4.6029 0
M  V30 3576 H 333.244 3.35992 6.11355 0
M  V30 3577 H 329.141 2.12541 6.09505 0
M  V30 3578 H 329.909 3.87751 7.20827 0
M  V30 3579 N 332.573 -1.56217 0.208337 0
M  V30 3580 C 333.521 -2.21053 -0.723769 0
M  V30 3581 C 334.515 -1.18578 -1.20978 0
M  V30 3582 O 335.721 -1.36691 -1.17114 0
M  V30 3583 H 332.096 -0.708595 -0.251788 0
M  V30 3584 H 334.067 -2.98006 -0.153365 0
M  V30 3585 C 332.816 -2.89417 -1.927 0
M  V30 3586 H 332.139 -3.68019 -1.56212 0
M  V30 3587 H 333.579 -3.38201 -2.55727 0
M  V30 3588 C 332.038 -1.91166 -2.77411 0
M  V30 3589 O 332.568 -1.42026 -3.75754 0
M  V30 3590 N 330.774 -1.59105 -2.43175 0
M  V30 3591 H 330.321 -1.99259 -1.63259 0
M  V30 3592 H 330.279 -0.936255 -3.00136 0
M  V30 3593 N 334.051 0.0651679 -1.57465 0
M  V30 3594 C 335.3 0.761916 -1.86756 0
M  V30 3595 C 335.613 1.78406 -0.801925 0
M  V30 3596 O 336.819 2.53084 -0.982885 0
M  V30 3597 C 335.275 1.40603 -3.31299 0
M  V30 3598 C 334.883 0.422115 -4.46007 0
M  V30 3599 C 336.627 2.08476 -3.69781 0
M  V30 3600 C 334.534 1.07252 -5.81593 0
M  V30 3601 H 333.464 0.288308 -0.696702 0
M  V30 3602 H 336.115 0.015344 -1.83494 0
M  V30 3603 H 334.497 2.20109 -3.29193 0
M  V30 3604 H 335.671 -0.343613 -4.59517 0
M  V30 3605 H 333.986 -0.152527 -4.16121 0
M  V30 3606 H 336.583 2.57925 -4.68379 0
M  V30 3607 H 336.926 2.88712 -2.99919 0
M  V30 3608 H 337.459 1.35792 -3.73905 0
M  V30 3609 H 334.198 0.310342 -6.54765 0
M  V30 3610 H 333.718 1.80895 -5.71872 0
M  V30 3611 H 335.397 1.59043 -6.27148 0
M  V30 3612 N 335.529 1.53961 0.336706 0
M  V30 3613 C 336.439 1.85432 1.43708 0
M  V30 3614 C 337.455 0.745053 1.57242 0
M  V30 3615 O 338.631 1.03804 1.72588 0
M  V30 3616 C 335.696 2.06349 2.78605 0
M  V30 3617 C 334.757 3.30191 2.74358 0
M  V30 3618 C 333.99 3.50101 4.02822 0
M  V30 3619 O 334.213 2.7371 5.00439 0
M  V30 3620 O 333.147 4.43547 4.06878 0
M  V30 3621 H 336.973 2.78975 1.20028 0
M  V30 3622 H 334.558 1.39701 0.52952 0
M  V30 3623 H 336.44 2.21513 3.58483 0
M  V30 3624 H 335.115 1.15995 3.02203 0
M  V30 3625 H 334.022 3.20425 1.93078 0
M  V30 3626 H 335.355 4.2056 2.55715 0
M  V30 3627 N 337.007 -0.598083 1.45811 0
M  V30 3628 C 337.939 -1.72231 1.51225 0
M  V30 3629 C 338.952 -1.57757 0.402059 0
M  V30 3630 O 340.141 -1.65464 0.669624 0
M  V30 3631 C 337.241 -3.10331 1.3619 0
M  V30 3632 C 336.414 -3.50955 2.61054 0
M  V30 3633 C 335.473 -4.68055 2.40439 0
M  V30 3634 O 334.499 -4.74691 3.14097 0
M  V30 3635 N 335.701 -5.61941 1.45612 0
M  V30 3636 H 338.466 -1.68046 2.48154 0
M  V30 3637 H 336.027 -0.783637 1.41671 0
M  V30 3638 H 338.019 -3.86439 1.20195 0
M  V30 3639 H 336.589 -3.0897 0.475015 0
M  V30 3640 H 335.809 -2.64711 2.92099 0
M  V30 3641 H 337.097 -3.74858 3.44034 0
M  V30 3642 H 336.495 -5.59301 0.848431 0
M  V30 3643 H 335.052 -6.37542 1.35585 0
M  V30 3644 N 338.485 -1.33259 -0.841409 0
M  V30 3645 C 339.395 -1.25332 -1.98316 0
M  V30 3646 C 340.411 -0.164364 -1.73222 0
M  V30 3647 O 341.587 -0.387486 -1.97637 0
M  V30 3648 C 338.652 -0.990078 -3.32262 0
M  V30 3649 C 337.713 -2.16879 -3.70489 0
M  V30 3650 C 336.946 -1.91801 -4.98044 0
M  V30 3651 O 337.169 -0.867075 -5.63771 0
M  V30 3652 O 336.103 -2.78267 -5.33714 0
M  V30 3653 H 339.929 -2.21344 -2.07944 0
M  V30 3654 H 337.514 -1.1328 -0.974058 0
M  V30 3655 H 339.396 -0.860321 -4.12524 0
M  V30 3656 H 338.071 -0.0602155 -3.23644 0
M  V30 3657 H 336.978 -2.35407 -2.90748 0
M  V30 3658 H 338.311 -3.0819 -3.8377 0
M  V30 3659 N 339.963 1.05934 -1.16686 0
M  V30 3660 C 340.895 2.13468 -0.834503 0
M  V30 3661 C 341.908 1.62013 0.15984 0
M  V30 3662 O 343.097 1.7838 -0.0654228 0
M  V30 3663 C 340.197 3.3817 -0.222361 0
M  V30 3664 C 339.37 4.18928 -1.25771 0
M  V30 3665 C 338.429 5.21985 -0.664703 0
M  V30 3666 O 337.455 5.53334 -1.33453 0
M  V30 3667 N 338.657 5.77919 0.546834 0
M  V30 3668 H 341.422 2.42578 -1.75999 0
M  V30 3669 H 338.983 1.21967 -1.06469 0
M  V30 3670 H 340.975 4.04266 0.187472 0
M  V30 3671 H 339.545 3.06655 0.606758 0
M  V30 3672 H 338.765 3.48433 -1.84358 0
M  V30 3673 H 340.053 4.69687 -1.95631 0
M  V30 3674 H 339.451 5.54721 1.10912 0
M  V30 3675 H 338.008 6.45573 0.898829 0
M  V30 3676 N 341.441 0.965919 1.2453 0
M  V30 3677 C 342.388 0.49402 2.25451 0
M  V30 3678 C 343.358 -0.45948 1.59618 0
M  V30 3679 O 344.543 -0.370238 1.87173 0
M  V30 3680 C 341.683 -0.211359 3.44452 0
M  V30 3681 C 340.796 0.7807 4.24887 0
M  V30 3682 C 339.931 0.0516105 5.31175 0
M  V30 3683 C 338.97 1.03385 6.03306 0
M  V30 3684 N 338.107 0.334887 7.01301 0
M  V30 3685 H 342.947 1.35946 2.65184 0
M  V30 3686 H 340.484 0.681515 1.3036 0
M  V30 3687 H 342.442 -0.637 4.12308 0
M  V30 3688 H 341.072 -1.04077 3.05562 0
M  V30 3689 H 340.124 1.32479 3.56586 0
M  V30 3690 H 341.436 1.52978 4.74762 0
M  V30 3691 H 340.59 -0.432114 6.05159 0
M  V30 3692 H 339.329 -0.730179 4.82203 0
M  V30 3693 H 338.334 1.52847 5.28127 0
M  V30 3694 H 339.559 1.81606 6.54367 0
M  V30 3695 H 337.505 -0.427959 6.54603 0
M  V30 3696 H 337.422 1.02287 7.49048 0
M  V30 3697 H 338.69 -0.126928 7.79397 0
M  V30 3698 N 342.919 -1.39368 0.735821 0
M  V30 3699 C 343.849 -2.33234 0.111506 0
M  V30 3700 C 344.83 -1.53954 -0.723334 0
M  V30 3701 O 346.015 -1.82344 -0.668147 0
M  V30 3702 C 343.145 -3.38057 -0.795917 0
M  V30 3703 C 342.099 -4.2795 -0.065172 0
M  V30 3704 C 341.425 -5.23479 -1.08967 0
M  V30 3705 C 342.725 -5.10741 1.09273 0
M  V30 3706 H 344.419 -2.85692 0.895571 0
M  V30 3707 H 341.965 -1.37364 0.432109 0
M  V30 3708 H 343.918 -4.02675 -1.24221 0
M  V30 3709 H 342.642 -2.8404 -1.61211 0
M  V30 3710 H 341.301 -3.64813 0.361511 0
M  V30 3711 H 340.949 -4.65758 -1.89944 0
M  V30 3712 H 340.649 -5.84472 -0.605489 0
M  V30 3713 H 342.173 -5.90974 -1.53565 0
M  V30 3714 H 343.587 -5.68699 0.724841 0
M  V30 3715 H 341.984 -5.8088 1.50659 0
M  V30 3716 H 343.054 -4.45525 1.91404 0
M  V30 3717 N 344.397 -0.483516 -1.5 0
M  V30 3718 C 345.36 0.292965 -2.2732 0
M  V30 3719 C 346.36 0.909499 -1.32608 0
M  V30 3720 O 347.55 0.776745 -1.55924 0
M  V30 3721 C 344.682 1.41854 -3.09984 0
M  V30 3722 H 345.875 -0.385289 -2.97415 0
M  V30 3723 H 343.428 -0.237942 -1.54478 0
M  V30 3724 H 344.163 2.13148 -2.44414 0
M  V30 3725 H 343.948 0.982114 -3.79601 0
M  V30 3726 H 345.438 1.96597 -3.68429 0
M  V30 3727 N 345.875 1.56104 -0.216619 0
M  V30 3728 C 346.805 2.23063 0.690296 0
M  V30 3729 C 347.786 1.20072 1.20485 0
M  V30 3730 O 348.971 1.48643 1.24976 0
M  V30 3731 C 346.101 2.90672 1.90072 0
M  V30 3732 C 345.055 4.00092 1.5202 0
M  V30 3733 C 344.381 4.54972 2.80899 0
M  V30 3734 C 345.681 5.17398 0.71391 0
M  V30 3735 H 347.375 2.99109 0.132038 0
M  V30 3736 H 344.921 1.43866 0.0620664 0
M  V30 3737 H 346.874 3.36204 2.54057 0
M  V30 3738 H 345.598 2.12066 2.48386 0
M  V30 3739 H 344.257 3.55283 0.903839 0
M  V30 3740 H 343.905 3.73102 3.37348 0
M  V30 3741 H 343.605 5.28817 2.56176 0
M  V30 3742 H 345.129 5.0322 3.45836 0
M  V30 3743 H 346.543 5.59342 1.25735 0
M  V30 3744 H 344.94 5.97444 0.563951 0
M  V30 3745 H 346.01 4.84088 -0.280527 0
M  V30 3746 N 347.353 -0.0568162 1.57498 0
M  V30 3747 C 348.263 -1.08346 2.08083 0
M  V30 3748 C 349.279 -1.41439 1.01346 0
M  V30 3749 O 350.455 -1.51316 1.32912 0
M  V30 3750 C 347.52 -2.37352 2.52715 0
M  V30 3751 C 346.581 -2.11093 3.73816 0
M  V30 3752 C 345.814 -3.33949 4.1631 0
M  V30 3753 O 346.037 -4.43622 3.58547 0
M  V30 3754 O 344.971 -3.21279 5.08983 0
M  V30 3755 H 348.797 -0.683667 2.95905 0
M  V30 3756 H 346.382 -0.271965 1.46904 0
M  V30 3757 H 348.264 -3.13246 2.81877 0
M  V30 3758 H 346.939 -2.76681 1.68016 0
M  V30 3759 H 345.846 -1.32856 3.49714 0
M  V30 3760 H 347.179 -1.76637 4.59413 0
M  V30 3761 N 348.832 -1.54138 -0.328536 0
M  V30 3762 C 350.06 -1.76062 -1.08673 0
M  V30 3763 C 350.475 -0.506852 -1.81869 0
M  V30 3764 O 349.832 0.522223 -1.74869 0
M  V30 3765 C 349.883 -2.95054 -2.08866 0
M  V30 3766 O 349.604 -4.15583 -1.38644 0
M  V30 3767 C 351.105 -3.2915 -2.96943 0
M  V30 3768 H 348.325 -0.587889 -0.323461 0
M  V30 3769 H 350.869 -2.0101 -0.376175 0
M  V30 3770 H 349.024 -2.72394 -2.75464 0
M  V30 3771 H 349.438 -4.82481 -2.05699 0
M  V30 3772 H 350.912 -4.15723 -3.63151 0
M  V30 3773 H 351.389 -2.461 -3.63774 0
M  V30 3774 H 351.995 -3.53871 -2.35914 0
M  V30 3775 N 350.31 0.590341 -1.46126 0
M  V30 3776 C 351.538 1.37504 -1.54597 0
M  V30 3777 C 351.953 1.87897 -0.184447 0
M  V30 3778 O 351.31 1.63192 0.816984 0
M  V30 3779 C 351.361 2.56779 -2.54454 0
M  V30 3780 O 351.082 2.08476 -3.85317 0
M  V30 3781 C 352.583 3.49427 -2.72792 0
M  V30 3782 H 349.803 0.420325 -0.523037 0
M  V30 3783 H 352.347 0.718383 -1.91467 0
M  V30 3784 H 350.502 3.1845 -2.20609 0
M  V30 3785 H 350.916 2.86097 -4.396 0
M  V30 3786 H 352.39 4.29619 -3.466 0
M  V30 3787 H 352.867 4.00876 -1.79429 0
M  V30 3788 H 353.473 2.93598 -3.07702 0
M  V30 3789 N 351.788 1.33704 0.83433 0
M  V30 3790 C 353.034 1.25603 1.59222 0
M  V30 3791 C 353.367 -0.176659 1.93395 0
M  V30 3792 O 352.642 -1.11915 1.59076 0
M  V30 3793 C 352.925 2.13576 2.89926 0
M  V30 3794 C 352.778 3.65326 2.62406 0
M  V30 3795 C 354.097 2.01238 3.91397 0
M  V30 3796 H 351.216 0.457613 0.577719 0
M  V30 3797 H 353.858 1.63848 0.961972 0
M  V30 3798 H 352.008 1.8109 3.43713 0
M  V30 3799 H 353.68 4.08124 2.15017 0
M  V30 3800 H 351.923 3.8698 1.96033 0
M  V30 3801 H 352.594 4.22232 3.55562 0
M  V30 3802 H 355.07 2.29738 3.46929 0
M  V30 3803 H 353.946 2.65036 4.80673 0
M  V30 3804 H 354.207 0.985951 4.30966 0
M  V30 3805 N 353.266 -1.05314 1.17247 0
M  V30 3806 C 354.196 -2.1498 0.911362 0
M  V30 3807 C 355.177 -1.69471 -0.146169 0
M  V30 3808 O 356.362 -1.942 0.003812 0
M  V30 3809 C 353.492 -3.4472 0.422528 0
M  V30 3810 C 352.446 -4.03789 1.4191 0
M  V30 3811 C 351.772 -5.28858 0.788274 0
M  V30 3812 C 353.072 -4.41418 2.7919 0
M  V30 3813 H 354.766 -2.3708 1.82848 0
M  V30 3814 H 352.312 -1.13938 0.880569 0
M  V30 3815 H 354.265 -4.20787 0.227289 0
M  V30 3816 H 352.989 -3.22269 -0.530123 0
M  V30 3817 H 351.648 -3.2979 1.60106 0
M  V30 3818 H 351.296 -5.02709 -0.171173 0
M  V30 3819 H 350.996 -5.69338 1.45353 0
M  V30 3820 H 352.52 -6.07612 0.603282 0
M  V30 3821 H 353.934 -5.08524 2.64719 0
M  V30 3822 H 352.331 -4.92913 3.42282 0
M  V30 3823 H 353.401 -3.51819 3.33693 0
M  V30 3824 N 354.744 -0.972509 -1.24016 0
M  V30 3825 C 355.99 -0.637978 -1.92504 0
M  V30 3826 C 356.323 0.825383 -1.75787 0
M  V30 3827 O 355.598 1.59442 -1.11393 0
M  V30 3828 C 355.881 -1.01942 -3.45369 0
M  V30 3829 C 355.734 -2.53983 -3.71231 0
M  V30 3830 C 357.053 -0.55751 -4.36555 0
M  V30 3831 H 354.172 -0.233248 -0.699117 0
M  V30 3832 H 356.814 -1.21238 -1.46292 0
M  V30 3833 H 354.964 -0.530656 -3.84859 0
M  V30 3834 H 356.636 -3.10374 -3.41271 0
M  V30 3835 H 354.879 -2.96968 -3.16216 0
M  V30 3836 H 355.55 -2.75723 -4.78206 0
M  V30 3837 H 358.026 -0.977029 -4.04467 0
M  V30 3838 H 356.902 -0.85292 -5.42233 0
M  V30 3839 H 357.163 0.542328 -4.38761 0
M  V30 3840 N 356.222 1.38976 -0.743202 0
M  V30 3841 C 357.132 2.3434 -0.110399 0
M  V30 3842 C 358.148 1.58741 0.712559 0
M  V30 3843 O 359.324 1.9099 0.639125 0
M  V30 3844 C 356.389 3.37812 0.780012 0
M  V30 3845 C 355.45 4.29263 -0.0561319 0
M  V30 3846 C 354.683 5.27793 0.791875 0
M  V30 3847 O 354.906 5.33043 2.03031 0
M  V30 3848 O 353.84 6.01512 0.216183 0
M  V30 3849 H 357.666 2.90129 -0.897714 0
M  V30 3850 H 355.251 1.40643 -0.503966 0
M  V30 3851 H 357.133 4.01194 1.28923 0
M  V30 3852 H 355.808 2.84395 1.546 0
M  V30 3853 H 354.715 3.69076 -0.611056 0
M  V30 3854 H 356.048 4.85907 -0.784531 0
M  V30 3855 N 357.7 0.491464 1.49741 0
M  V30 3856 C 358.925 -0.0557177 2.07325 0
M  V30 3857 C 359.35 -1.30925 1.35056 0
M  V30 3858 O 358.708 -1.76733 0.404365 0
M  V30 3859 C 358.756 -0.302074 3.59333 0
M  V30 3860 O 357.86 -1.37868 3.88672 0
M  V30 3861 H 357.201 0.0219956 0.663636 0
M  V30 3862 H 359.731 0.688352 1.92673 0
M  V30 3863 H 359.741 -0.536464 4.04458 0
M  V30 3864 H 358.416 0.61383 4.11345 0
M  V30 3865 H 356.993 -1.12999 3.55367 0
M  V30 3866 N 359.178 -1.55987 0.224894 0
M  V30 3867 C 360.408 -2.02489 -0.41007 0
M  V30 3868 C 360.816 -1.10391 -1.53657 0
M  V30 3869 O 360.159 -0.106458 -1.83391 0
M  V30 3870 C 360.221 -3.45319 -0.999757 0
M  V30 3871 C 359.885 -4.56999 -0.00827976 0
M  V30 3872 C 360.882 -5.13812 0.793314 0
M  V30 3873 C 358.567 -5.02176 0.111442 0
M  V30 3874 C 360.561 -6.14276 1.7013 0
M  V30 3875 C 358.248 -6.02477 1.02296 0
M  V30 3876 C 359.246 -6.58403 1.81643 0
M  V30 3877 O 358.934 -7.56751 2.71262 0
M  V30 3878 H 358.666 -0.667915 -0.104235 0
M  V30 3879 H 361.22 -2.0257 0.339782 0
M  V30 3880 H 359.45 -3.42318 -1.79876 0
M  V30 3881 H 361.139 -3.7545 -1.54248 0
M  V30 3882 H 361.905 -4.79756 0.711288 0
M  V30 3883 H 357.784 -4.58323 -0.49605 0
M  V30 3884 H 361.328 -6.57854 2.32107 0
M  V30 3885 H 357.225 -6.35954 1.10599 0
M  V30 3886 H 357.993 -7.74286 2.65375 0
M  V30 3887 N 360.656 0.0484629 -1.57525 0
M  V30 3888 C 361.884 0.755421 -1.92616 0
M  V30 3889 C 362.299 1.69919 -0.822984 0
M  V30 3890 O 361.656 1.81378 0.202085 0
M  V30 3891 C 361.707 1.52915 -3.27566 0
M  V30 3892 O 361.428 0.62329 -4.33644 0
M  V30 3893 C 362.929 2.33502 -3.76818 0
M  V30 3894 H 360.149 0.213465 -0.63614 0
M  V30 3895 H 362.693 0.0117698 -2.04497 0
M  V30 3896 H 360.848 2.22486 -3.17142 0
M  V30 3897 H 361.262 1.16383 -5.11425 0
M  V30 3898 H 362.736 2.83214 -4.73808 0
M  V30 3899 H 363.213 3.14068 -3.07014 0
M  V30 3900 H 363.819 1.69043 -3.90262 0
M  V30 3901 N 362.134 1.5431 0.320358 0
M  V30 3902 C 363.064 1.86912 1.3995 0
M  V30 3903 C 364.045 0.726211 1.53819 0
M  V30 3904 O 365.23 0.980233 1.67646 0
M  V30 3905 C 362.36 2.09932 2.7667 0
M  V30 3906 C 361.314 3.25776 2.77586 0
M  V30 3907 C 360.64 3.34173 4.17412 0
M  V30 3908 C 361.94 4.6335 2.41048 0
M  V30 3909 H 363.634 2.77292 1.12914 0
M  V30 3910 H 361.18 1.33421 0.541738 0
M  V30 3911 H 363.133 2.31324 3.52232 0
M  V30 3912 H 361.857 1.16304 3.0519 0
M  V30 3913 H 360.516 3.04276 2.04479 0
M  V30 3914 H 360.164 2.38098 4.43078 0
M  V30 3915 H 359.864 4.12033 4.18931 0
M  V30 3916 H 361.388 3.57803 4.94782 0
M  V30 3917 H 362.802 4.84602 3.06324 0
M  V30 3918 H 361.199 5.43782 2.53813 0
M  V30 3919 H 362.269 4.65381 1.36193 0
M  V30 3920 N 363.613 -0.582584 1.46437 0
M  V30 3921 C 365.024 -1.1647 1.45916 0
M  V30 3922 C 365.375 -1.95177 0.200077 0
M  V30 3923 O 364.5 -2.04874 -0.696819 0
M  V30 3924 C 365.095 -2.11885 2.64367 0
M  V30 3925 C 363.654 -2.65421 2.66887 0
M  V30 3926 C 362.801 -1.41294 2.38603 0
M  V30 3927 H 365.752 -0.370514 1.54314 0
M  V30 3928 H 365.773 -2.9535 2.39892 0
M  V30 3929 H 365.285 -1.54573 3.5599 0
M  V30 3930 H 363.386 -3.26602 1.79338 0
M  V30 3931 H 363.499 -3.08147 3.66854 0
M  V30 3932 H 361.863 -1.71109 1.88663 0
M  V30 3933 H 362.646 -0.858125 3.32402 0
M  V30 3934 N 365.091 -1.34144 -0.827227 0
M  V30 3935 C 366.368 -1.16844 -1.56865 0
M  V30 3936 C 366.748 0.260654 -2.09485 0
M  V30 3937 O 366.096 1.26138 -1.9053 0
M  V30 3938 C 366.306 -2.21939 -2.6934 0
M  V30 3939 C 367.654 -2.56695 -3.3822 0
M  V30 3940 O 368.678 -2.20695 -2.79593 0
M  V30 3941 O 367.537 -3.18518 -4.44082 0
M  V30 3942 H 364.631 -0.452669 -0.692112 0
M  V30 3943 H 367.177 -1.45763 -0.868973 0
M  V30 3944 H 365.949 -3.17882 -2.28182 0
M  V30 3945 H 365.572 -1.94172 -3.46962 0
M  V30 3946 N 366.569 1.04691 -1.17803 0
M  V30 3947 C 367.817 1.7743 -0.967617 0
M  V30 3948 C 368.138 1.88359 0.504574 0
M  V30 3949 O 367.408 1.40402 1.36617 0
M  V30 3950 H 365.988 0.657242 -0.355024 0
M  V30 3951 H 368.65 1.2638 -1.48371 0
M  V30 3952 H 367.746 2.78924 -1.40027 0
M  V30 3953 N 368.047 0.979072 1.23499 0
M  V30 3954 C 369.463 0.687475 1.44034 0
M  V30 3955 C 369.663 -0.746801 1.8715 0
M  V30 3956 O 368.719 -1.51939 2.0167 0
M  V30 3957 C 370.032 1.68127 2.49307 0
M  V30 3958 C 371.58 1.69516 2.63122 0
M  V30 3959 C 372.055 2.67723 3.71603 0
M  V30 3960 N 373.546 2.66233 3.79044 0
M  V30 3961 C 374.281 3.38891 4.62537 0
M  V30 3962 N 373.777 4.21103 5.50131 0
M  V30 3963 N 375.57 3.27661 4.56721 0
M  V30 3964 H 367.721 1.90559 0.938135 0
M  V30 3965 H 369.984 0.821051 0.473897 0
M  V30 3966 H 369.69 2.70693 2.2454 0
M  V30 3967 H 369.564 1.46306 3.4767 0
M  V30 3968 H 371.951 0.676561 2.8724 0
M  V30 3969 H 372.032 1.95404 1.65079 0
M  V30 3970 H 371.676 3.69724 3.48233 0
M  V30 3971 H 371.606 2.39111 4.69184 0
M  V30 3972 H 374.097 2.06568 3.16446 0
M  V30 3973 H 374.41 4.73403 6.10827 0
M  V30 3974 H 372.755 4.25195 5.49759 0
M  V30 3975 H 375.946 2.62887 3.87309 0
M  V30 3976 H 376.119 3.84547 5.21562 0
M  V30 3977 N 369.525 -1.3858 0.750561 0
M  V30 3978 C 370.774 -1.99424 0.302172 0
M  V30 3979 C 371.087 -1.60254 -1.12152 0
M  V30 3980 O 372.293 -2.14046 -1.67023 0
M  V30 3981 C 370.749 -3.56558 0.489307 0
M  V30 3982 C 370.357 -4.04682 1.92189 0
M  V30 3983 C 372.101 -4.24374 0.103478 0
M  V30 3984 C 370.008 -5.54446 2.05775 0
M  V30 3985 H 368.938 -0.746046 0.10923 0
M  V30 3986 H 371.589 -1.58383 0.92667 0
M  V30 3987 H 369.971 -3.95472 -0.204329 0
M  V30 3988 H 371.145 -3.77065 2.64875 0
M  V30 3989 H 369.46 -3.4958 2.26236 0
M  V30 3990 H 372.057 -5.34384 0.183787 0
M  V30 3991 H 372.4 -4.05468 -0.943481 0
M  V30 3992 H 372.933 -3.90688 0.748854 0
M  V30 3993 H 369.672 -5.78252 3.08714 0
M  V30 3994 H 369.192 -5.83816 1.37546 0
M  V30 3995 H 370.871 -6.20099 1.84626 0
M  V30 3996 N 371.003 -0.499398 -1.49478 0
M  V30 3997 C 372.252 0.0475259 -2.01644 0
M  V30 3998 C 372.565 1.38195 -1.38425 0
M  V30 3999 O 373.771 2.01547 -1.8191 0
M  V30 4000 C 372.227 0.135164 -3.59646 0
M  V30 4001 C 371.835 -1.19252 -4.31837 0
M  V30 4002 C 373.579 0.632538 -4.19761 0
M  V30 4003 C 371.486 -1.06713 -5.81693 0
M  V30 4004 H 370.416 0.0215349 -0.753692 0
M  V30 4005 H 373.067 -0.638577 -1.7203 0
M  V30 4006 H 371.449 0.885681 -3.85969 0
M  V30 4007 H 372.623 -1.9562 -4.17216 0
M  V30 4008 H 370.938 -1.62321 -3.83459 0
M  V30 4009 H 373.535 0.743833 -5.29501 0
M  V30 4010 H 373.878 1.63098 -3.83021 0
M  V30 4011 H 374.411 -0.0613987 -3.97753 0
M  V30 4012 H 371.15 -2.03979 -6.22955 0
M  V30 4013 H 370.67 -0.344307 -5.98811 0
M  V30 4014 H 372.349 -0.745208 -6.42694 0
M  V30 4015 N 372.481 1.55866 -0.233164 0
M  V30 4016 C 373.428 2.20796 0.67215 0
M  V30 4017 C 374.398 1.16731 1.18166 0
M  V30 4018 O 375.583 1.45129 1.23864 0
M  V30 4019 C 372.723 2.90072 1.86955 0
M  V30 4020 C 371.836 4.08759 1.39786 0
M  V30 4021 C 370.971 4.65787 2.55374 0
M  V30 4022 C 370.01 5.76752 2.04998 0
M  V30 4023 N 369.147 6.28021 3.13901 0
M  V30 4024 H 373.987 2.9779 0.111749 0
M  V30 4025 H 371.524 1.47036 0.0434007 0
M  V30 4026 H 373.482 3.28428 2.57276 0
M  V30 4027 H 372.112 2.15575 2.40265 0
M  V30 4028 H 371.164 3.7581 0.589173 0
M  V30 4029 H 372.476 4.88906 0.98856 0
M  V30 4030 H 371.63 5.06646 3.33758 0
M  V30 4031 H 370.369 3.84828 2.99598 0
M  V30 4032 H 369.374 5.35383 1.25079 0
M  V30 4033 H 370.599 6.59553 1.61759 0
M  V30 4034 H 368.545 5.49971 3.57586 0
M  V30 4035 H 368.462 7.03323 2.7726 0
M  V30 4036 H 369.73 6.73538 3.92386 0
M  V30 4037 N 373.959 -0.0401083 1.57549 0
M  V30 4038 C 375.205 -0.734211 1.89043 0
M  V30 4039 C 375.538 -1.75591 0.829535 0
M  V30 4040 O 374.813 -1.93868 -0.156706 0
M  V30 4041 C 375.096 -1.41374 3.31188 0
M  V30 4042 C 374.949 -0.406299 4.47961 0
M  V30 4043 C 376.268 -2.35061 3.72068 0
M  V30 4044 H 373.387 -0.265447 0.687537 0
M  V30 4045 H 376.029 0.00294087 1.9 0
M  V30 4046 H 374.179 -2.04206 3.30503 0
M  V30 4047 H 375.851 0.219255 4.60779 0
M  V30 4048 H 374.094 0.275485 4.32924 0
M  V30 4049 H 374.765 -0.920022 5.44279 0
M  V30 4050 H 377.241 -1.82282 3.74049 0
M  V30 4051 H 376.117 -2.79593 4.72355 0
M  V30 4052 H 376.378 -3.21258 3.0372 0
M  V30 4053 N 375.437 -1.54477 -0.31217 0
M  V30 4054 C 376.685 -1.72884 -1.04668 0
M  V30 4055 C 377.006 -0.511477 -1.88173 0
M  V30 4056 O 376.276 0.474407 -1.90069 0
M  V30 4057 H 374.856 -0.637461 -0.389425 0
M  V30 4058 H 377.518 -1.91807 -0.345852 0
M  V30 4059 H 376.614 -2.61334 -1.70619 0
M  V30 4060 N 376.915 0.57481 -1.46744 0
M  V30 4061 C 378.163 1.33009 -1.52161 0
M  V30 4062 C 378.484 1.94185 -0.178092 0
M  V30 4063 O 377.754 1.7899 0.796196 0
M  V30 4064 H 376.334 0.493873 -0.560445 0
M  V30 4065 H 378.996 0.672589 -1.82927 0
M  V30 4066 H 378.092 2.13273 -2.27862 0
M  V30 4067 N 378.394 1.34581 0.820102 0
M  V30 4068 C 379.304 1.28471 1.96297 0
M  V30 4069 C 380.32 0.191902 1.72939 0
M  V30 4070 O 381.496 0.418879 1.96996 0
M  V30 4071 C 378.561 1.04281 3.30645 0
M  V30 4072 C 377.622 2.22745 3.66992 0
M  V30 4073 C 376.855 1.997 4.9493 0
M  V30 4074 O 377.078 0.956656 5.6232 0
M  V30 4075 O 376.012 2.86723 5.2922 0
M  V30 4076 H 379.838 2.24624 2.04396 0
M  V30 4077 H 377.423 1.14816 0.955913 0
M  V30 4078 H 379.305 0.925841 4.11104 0
M  V30 4079 H 377.98 0.111697 3.23507 0
M  V30 4080 H 376.887 2.40003 2.86966 0
M  V30 4081 H 378.22 3.14257 3.78819 0
M  V30 4082 N 379.872 -1.04064 1.18357 0
M  V30 4083 C 381.288 -1.2947 0.933258 0
M  V30 4084 C 381.488 -1.97466 -0.401169 0
M  V30 4085 O 380.544 -2.25528 -1.13549 0
M  V30 4086 C 381.857 -2.15337 2.09882 0
M  V30 4087 C 383.405 -2.28683 2.13712 0
M  V30 4088 C 383.88 -3.17917 3.29686 0
M  V30 4089 N 385.371 -3.25504 3.29547 0
M  V30 4090 C 386.106 -3.94706 4.15926 0
M  V30 4091 N 385.602 -4.66239 5.12439 0
M  V30 4092 N 387.395 -3.90986 4.0384 0
M  V30 4093 H 379.546 -0.583359 2.04232 0
M  V30 4094 H 381.809 -0.319921 0.892387 0
M  V30 4095 H 381.515 -1.72682 3.06389 0
M  V30 4096 H 381.389 -3.16015 2.05947 0
M  V30 4097 H 383.776 -2.70575 1.17784 0
M  V30 4098 H 383.857 -1.27596 2.21705 0
M  V30 4099 H 383.501 -2.76736 4.25887 0
M  V30 4100 H 383.431 -4.19036 3.1893 0
M  V30 4101 H 385.922 -2.74547 2.59677 0
M  V30 4102 H 386.235 -5.16638 5.74722 0
M  V30 4103 H 384.58 -4.65143 5.16398 0
M  V30 4104 H 387.771 -3.34234 3.27727 0
M  V30 4105 H 387.944 -4.44646 4.71375 0
M  V30 4106 N 381.35 -0.985608 -1.22978 0
M  V30 4107 C 382.597 -0.657386 -1.91532 0
M  V30 4108 C 382.925 0.809707 -1.76845 0
M  V30 4109 O 382.18 1.60021 -1.12658 0
M  V30 4110 C 382.479 -1.00014 -3.43121 0
M  V30 4111 C 382.145 -2.4583 -3.77993 0
M  V30 4112 C 380.807 -2.85679 -3.87222 0
M  V30 4113 C 383.159 -3.40378 -3.94705 0
M  V30 4114 C 380.487 -4.19081 -4.10595 0
M  V30 4115 C 382.839 -4.73429 -4.1958 0
M  V30 4116 C 381.503 -5.1303 -4.27032 0
M  V30 4117 H 380.773 -0.240555 -0.700867 0
M  V30 4118 H 383.42 -1.24044 -1.45895 0
M  V30 4119 H 381.725 -0.335072 -3.90365 0
M  V30 4120 H 383.422 -0.724322 -3.94404 0
M  V30 4121 H 380.012 -2.13939 -3.71387 0
M  V30 4122 H 384.196 -3.10766 -3.8696 0
M  V30 4123 H 379.452 -4.49362 -4.14589 0
M  V30 4124 H 383.626 -5.46644 -4.31455 0
M  V30 4125 H 381.253 -6.16418 -4.44896 0
M  V30 4126 N 382.828 1.3818 -0.7579 0
M  V30 4127 C 383.738 2.3421 -0.135247 0
M  V30 4128 C 384.754 1.59487 0.695683 0
M  V30 4129 O 385.93 1.91657 0.618832 0
M  V30 4130 C 382.995 3.3862 0.744139 0
M  V30 4131 C 382.056 4.2918 -0.101658 0
M  V30 4132 C 381.289 5.28603 0.735851 0
M  V30 4133 O 381.512 5.35166 1.97366 0
M  V30 4134 O 380.446 6.01707 0.152372 0
M  V30 4135 H 384.272 2.8916 -0.928436 0
M  V30 4136 H 381.857 1.40101 -0.518855 0
M  V30 4137 H 383.739 4.02539 1.2466 0
M  V30 4138 H 382.414 2.86019 1.51575 0
M  V30 4139 H 381.321 3.68407 -0.650167 0
M  V30 4140 H 382.654 4.85048 -0.836024 0
M  V30 4141 N 384.306 0.507319 1.49211 0
M  V30 4142 C 385.269 -0.256763 2.27757 0
M  V30 4143 C 386.269 -0.888287 1.34038 0
M  V30 4144 O 387.459 -0.751841 1.5714 0
M  V30 4145 C 384.591 -1.36905 3.12202 0
M  V30 4146 H 385.784 0.432557 2.96764 0
M  V30 4147 H 383.337 0.262488 1.5408 0
M  V30 4148 H 384.072 -2.09233 2.47775 0
M  V30 4149 H 383.857 -0.921599 3.81115 0
M  V30 4150 H 385.347 -1.9071 3.7151 0
M  V30 4151 N 385.784 -1.5574 0.241426 0
M  V30 4152 C 387.195 -1.84842 -0.262755 0
M  V30 4153 C 387.546 -1.16317 -1.58003 0
M  V30 4154 O 386.671 -0.439653 -2.11887 0
M  V30 4155 C 387.266 -3.35332 -0.483523 0
M  V30 4156 C 385.825 -3.6468 -0.931977 0
M  V30 4157 C 384.972 -2.77299 -0.0061151 0
M  V30 4158 H 387.923 -1.51761 0.464129 0
M  V30 4159 H 387.944 -3.56615 -1.32688 0
M  V30 4160 H 387.456 -3.85178 0.47537 0
M  V30 4161 H 385.557 -3.20307 -1.90353 0
M  V30 4162 H 385.67 -4.72498 -0.792628 0
M  V30 4163 H 384.034 -2.49408 -0.516503 0
M  V30 4164 H 384.817 -3.2995 0.948052 0
M  V30 4165 N 387.262 0.0317525 -1.57568 0
M  V30 4166 C 388.172 1.05021 -2.0978 0
M  V30 4167 C 389.188 1.39809 -1.03583 0
M  V30 4168 O 390.364 1.49182 -1.35302 0
M  V30 4169 C 387.429 2.33301 -2.56459 0
M  V30 4170 C 386.49 2.0512 -3.77127 0
M  V30 4171 C 385.723 3.27283 -4.2157 0
M  V30 4172 O 385.946 4.37861 -3.65559 0
M  V30 4173 O 384.88 3.13141 -5.14029 0
M  V30 4174 H 388.706 0.636505 -2.96955 0
M  V30 4175 H 386.291 0.248559 -1.47318 0
M  V30 4176 H 388.173 3.08722 -2.86825 0
M  V30 4177 H 386.848 2.73973 -1.72397 0
M  V30 4178 H 385.755 1.27276 -3.51784 0
M  V30 4179 H 387.088 1.69305 -4.62165 0
M  V30 4180 N 388.74 1.54641 0.303973 0
M  V30 4181 C 389.703 1.84646 1.35789 0
M  V30 4182 C 390.703 0.7192 1.4382 0
M  V30 4183 O 391.893 0.987491 1.43507 0
M  V30 4184 C 389.025 2.02407 2.74307 0
M  V30 4185 H 390.218 2.78829 1.10429 0
M  V30 4186 H 387.771 1.46658 0.540487 0
M  V30 4187 H 388.506 1.10502 3.04893 0
M  V30 4188 H 388.291 2.84453 2.69868 0
M  V30 4189 H 389.781 2.27002 3.50514 0
M  V30 4190 N 390.218 -0.567019 1.47046 0
M  V30 4191 C 391.148 -1.68482 1.61667 0
M  V30 4192 C 392.129 -1.6358 0.466418 0
M  V30 4193 O 393.314 -1.81354 0.694574 0
M  V30 4194 C 390.444 -3.07124 1.62148 0
M  V30 4195 C 389.398 -3.26867 2.76301 0
M  V30 4196 C 388.724 -4.66196 2.61849 0
M  V30 4197 C 390.024 -3.13186 4.17986 0
M  V30 4198 H 391.718 -1.56502 2.5524 0
M  V30 4199 H 389.264 -0.751486 1.22836 0
M  V30 4200 H 391.217 -3.8516 1.70968 0
M  V30 4201 H 389.941 -3.2004 0.651287 0
M  V30 4202 H 388.6 -2.51237 2.66975 0
M  V30 4203 H 388.248 -4.75898 1.62879 0
M  V30 4204 H 387.948 -4.80356 3.38425 0
M  V30 4205 H 389.472 -5.46379 2.72584 0
M  V30 4206 H 390.886 -3.81049 4.2834 0
M  V30 4207 H 389.283 -3.3886 4.95272 0
M  V30 4208 H 390.353 -2.10057 4.3704 0
M  V30 4209 N 391.696 -1.35014 -0.812953 0
M  V30 4210 C 392.943 -1.27931 -1.56971 0
M  V30 4211 C 393.271 0.148034 -1.93936 0
M  V30 4212 O 392.526 1.11175 -1.61054 0
M  V30 4213 C 392.825 -2.12524 -2.87347 0
M  V30 4214 C 392.491 -3.61401 -2.6963 0
M  V30 4215 C 391.153 -4.01983 -2.64506 0
M  V30 4216 C 393.505 -4.55894 -2.52607 0
M  V30 4217 C 390.833 -5.35235 -2.40293 0
M  V30 4218 C 393.185 -5.89336 -2.29925 0
M  V30 4219 C 391.849 -6.2907 -2.23219 0
M  V30 4220 H 391.119 -0.468131 -0.574399 0
M  V30 4221 H 393.766 -1.66851 -0.939836 0
M  V30 4222 H 392.071 -1.66463 -3.54679 0
M  V30 4223 H 393.768 -2.04383 -3.45005 0
M  V30 4224 H 390.358 -3.29193 -2.74463 0
M  V30 4225 H 394.542 -4.25431 -2.55583 0
M  V30 4226 H 389.798 -5.65028 -2.33566 0
M  V30 4227 H 393.972 -6.62139 -2.15743 0
M  V30 4228 H 391.599 -7.32256 -2.04219 0
M  V30 4229 N 393.175 1.03435 -1.18907 0
M  V30 4230 C 394.107 2.1165 -0.879595 0
M  V30 4231 C 395.12 1.62316 0.125439 0
M  V30 4232 O 396.309 1.78201 -0.103245 0
M  V30 4233 C 393.409 3.37622 -0.294042 0
M  V30 4234 C 392.582 4.16166 -1.34629 0
M  V30 4235 C 391.641 5.20457 -0.775274 0
M  V30 4236 O 390.667 5.50379 -1.4516 0
M  V30 4237 N 391.869 5.78949 0.424126 0
M  V30 4238 H 394.634 2.38791 -1.81105 0
M  V30 4239 H 392.195 1.19681 -1.09032 0
M  V30 4240 H 394.187 4.04572 0.101679 0
M  V30 4241 H 392.757 3.07873 0.541575 0
M  V30 4242 H 391.977 3.44444 -1.91707 0
M  V30 4243 H 393.265 4.65432 -2.05549 0
M  V30 4244 H 392.663 5.56948 0.991209 0
M  V30 4245 H 391.22 6.47334 0.761691 0
M  V30 4246 N 394.653 0.992116 1.22453 0
M  V30 4247 C 396.064 0.702776 1.72968 0
M  V30 4248 C 396.415 -0.780399 1.80012 0
M  V30 4249 O 395.54 -1.61007 1.44589 0
M  V30 4250 C 396.135 1.26903 3.14135 0
M  V30 4251 C 394.694 1.02909 3.62059 0
M  V30 4252 C 393.841 1.38969 2.39964 0
M  V30 4253 H 396.792 1.16457 1.07812 0
M  V30 4254 H 396.813 0.647223 3.74955 0
M  V30 4255 H 396.325 2.34851 3.08977 0
M  V30 4256 H 394.426 -0.0337979 3.72585 0
M  V30 4257 H 394.539 1.69191 4.48231 0
M  V30 4258 H 392.903 0.808279 2.41535 0
M  V30 4259 H 393.686 2.4792 2.37467 0
M  V30 4260 N 396.131 -1.37776 0.765217 0
M  V30 4261 C 397.081 -2.2768 0.12075 0
M  V30 4262 C 398.065 -1.45778 -0.680988 0
M  V30 4263 O 399.257 -1.684 -0.545033 0
M  V30 4264 C 396.386 -3.34722 -0.762626 0
M  V30 4265 C 395.472 -4.24074 0.0465881 0
M  V30 4266 N 395.863 -4.93939 1.08892 0
M  V30 4267 C 394.161 -4.45643 -0.178418 0
M  V30 4268 C 394.862 -5.59845 1.57951 0
M  V30 4269 N 393.838 -5.36218 0.892797 0
M  V30 4270 H 397.64 -2.79166 0.918889 0
M  V30 4271 H 395.154 -1.50816 0.602353 0
M  V30 4272 H 397.151 -3.98031 -1.24005 0
M  V30 4273 H 395.811 -2.84793 -1.55959 0
M  V30 4274 H 396.822 -4.96572 1.47095 0
M  V30 4275 H 393.499 -4.06599 -0.9478 0
M  V30 4276 H 394.889 -6.25703 2.44838 0
M  V30 4277 N 397.609 -0.515225 -1.4894 0
M  V30 4278 C 398.539 0.244628 -2.32215 0
M  V30 4279 C 399.52 0.949136 -1.41157 0
M  V30 4280 O 400.705 0.937783 -1.70057 0
M  V30 4281 C 397.835 1.30096 -3.22013 0
M  V30 4282 C 396.789 0.715486 -4.21977 0
M  V30 4283 C 396.115 1.87339 -5.00808 0
M  V30 4284 C 397.415 -0.302982 -5.2142 0
M  V30 4285 H 399.109 -0.450501 -2.95991 0
M  V30 4286 H 396.655 -0.218098 -1.42339 0
M  V30 4287 H 398.608 1.84037 -3.79089 0
M  V30 4288 H 397.332 2.02547 -2.56207 0
M  V30 4289 H 395.991 0.197715 -3.66066 0
M  V30 4290 H 395.639 2.58592 -4.31438 0
M  V30 4291 H 395.339 1.48764 -5.68457 0
M  V30 4292 H 396.863 2.41686 -5.60732 0
M  V30 4293 H 398.277 0.148802 -5.73107 0
M  V30 4294 H 396.674 -0.60532 -5.97039 0
M  V30 4295 H 397.744 -1.21395 -4.69459 0
M  V30 4296 N 399.087 1.5561 -0.249682 0
M  V30 4297 C 400.336 1.98187 0.37479 0
M  V30 4298 C 400.649 1.14111 1.58865 0
M  V30 4299 O 401.855 1.46714 2.28445 0
M  V30 4300 C 400.311 3.52661 0.718192 0
M  V30 4301 C 399.919 4.45481 -0.474428 0
M  V30 4302 C 401.663 4.03888 1.3067 0
M  V30 4303 C 399.57 5.91303 -0.107026 0
M  V30 4304 H 398.5 0.740159 0.143808 0
M  V30 4305 H 401.151 1.80125 -0.350336 0
M  V30 4306 H 399.533 3.66429 1.50152 0
M  V30 4307 H 400.707 4.43473 -1.25172 0
M  V30 4308 H 399.022 4.04751 -0.978052 0
M  V30 4309 H 401.619 5.10358 1.59496 0
M  V30 4310 H 401.962 3.51401 2.23211 0
M  V30 4311 H 402.495 3.93457 0.586211 0
M  V30 4312 H 399.234 6.47833 -0.999642 0
M  V30 4313 H 398.754 5.9644 0.634013 0
M  V30 4314 H 400.433 6.46258 0.309807 0
M  V30 4315 N 400.565 -0.0233959 1.57583 0
M  V30 4316 C 401.513 -1.04063 2.08023 0
M  V30 4317 C 402.507 -1.37084 0.995204 0
M  V30 4318 O 403.713 -1.35923 1.18004 0
M  V30 4319 H 400.088 -0.353144 0.663922 0
M  V30 4320 H 402.059 -0.589453 2.9252 0
M  V30 4321 C 400.808 -2.33123 2.57971 0
M  V30 4322 H 400.131 -2.08577 3.4108 0
M  V30 4323 H 401.571 -3.02632 2.96967 0
M  V30 4324 C 400.03 -3.02483 1.48342 0
M  V30 4325 O 400.56 -3.92541 0.852898 0
M  V30 4326 N 398.766 -2.63909 1.21658 0
M  V30 4327 H 398.313 -1.90758 1.73116 0
M  V30 4328 H 398.271 -3.10633 0.485218 0
M  V30 4329 N 402.043 -1.548 -0.295768 0
M  V30 4330 C 403.289 -1.74588 -1.03184 0
M  V30 4331 C 403.622 -0.532962 -1.86744 0
M  V30 4332 O 402.897 0.469872 -1.88739 0
M  V30 4333 C 403.18 -3.03791 -1.93347 0
M  V30 4334 C 403.033 -4.35392 -1.12933 0
M  V30 4335 C 404.352 -3.28892 -2.92435 0
M  V30 4336 H 401.471 -0.635221 -0.373715 0
M  V30 4337 H 404.113 -1.87519 -0.30606 0
M  V30 4338 H 402.263 -2.92898 -2.55232 0
M  V30 4339 H 403.935 -4.58211 -0.532943 0
M  V30 4340 H 402.178 -4.31642 -0.432168 0
M  V30 4341 H 402.849 -5.22074 -1.79284 0
M  V30 4342 H 405.325 -3.39429 -2.4068 0
M  V30 4343 H 404.201 -4.20603 -3.52682 0
M  V30 4344 H 404.462 -2.47437 -3.6637 0
M  V30 4345 N 403.521 0.559213 -1.47345 0
M  V30 4346 C 404.431 1.69388 -1.62311 0
M  V30 4347 C 405.447 1.6648 -0.505993 0
M  V30 4348 O 406.623 1.85964 -0.773262 0
M  V30 4349 C 403.688 3.05894 -1.63185 0
M  V30 4350 C 402.749 3.19885 -2.86307 0
M  V30 4351 C 401.982 4.49879 -2.87131 0
M  V30 4352 O 402.205 5.35217 -1.97229 0
M  V30 4353 O 401.139 4.67618 -3.78968 0
M  V30 4354 H 404.965 1.59706 -2.58317 0
M  V30 4355 H 402.55 0.728989 -1.30407 0
M  V30 4356 H 404.432 3.87133 -1.66451 0
M  V30 4357 H 403.107 3.15964 -0.70345 0
M  V30 4358 H 402.014 2.38052 -2.88587 0
M  V30 4359 H 403.347 3.14718 -3.78435 0
M  V30 4360 N 404.999 1.35443 0.805782 0
M  V30 4361 C 406.247 1.28507 1.55982 0
M  V30 4362 C 406.568 -0.140046 1.94496 0
M  V30 4363 O 405.838 -1.07666 1.63661 0
M  V30 4364 H 404.418 0.472676 0.578434 0
M  V30 4365 H 407.08 1.69555 0.961098 0
M  V30 4366 H 406.176 1.90148 2.47488 0
M  V30 4367 N 406.477 -1.02803 1.19454 0
M  V30 4368 C 407.723 -1.76478 0.999171 0
M  V30 4369 C 408.056 -1.88456 -0.468828 0
M  V30 4370 O 407.331 -1.40198 -1.34814 0
M  V30 4371 C 407.614 -3.19044 1.66981 0
M  V30 4372 C 407.467 -3.14932 3.21151 0
M  V30 4373 C 408.786 -4.17456 1.39349 0
M  V30 4374 H 405.905 -0.640614 0.364393 0
M  V30 4375 H 408.547 -1.20005 1.47305 0
M  V30 4376 H 406.697 -3.67263 1.2669 0
M  V30 4377 H 408.369 -2.74605 3.70661 0
M  V30 4378 H 406.612 -2.52625 3.52652 0
M  V30 4379 H 407.283 -4.1566 3.63223 0
M  V30 4380 H 409.759 -3.77842 1.74283 0
M  V30 4381 H 408.635 -5.154 1.88823 0
M  V30 4382 H 408.896 -4.40949 0.318813 0
M  V30 4383 N 407.956 -0.998596 -1.21925 0
M  V30 4384 C 409.204 -0.676325 -1.90448 0
M  V30 4385 C 409.525 0.794719 -1.78071 0
M  V30 4386 O 408.795 1.5701 -1.17152 0
M  V30 4387 H 407.375 -0.247165 -0.704925 0
M  V30 4388 H 410.037 -1.26633 -1.48156 0
M  V30 4389 H 409.133 -0.943858 -2.97486 0
M  V30 4390 N 409.434 1.37368 -0.772513 0
M  V30 4391 C 410.68 1.99969 -0.337681 0
M  V30 4392 C 411.013 1.61184 1.08321 0
M  V30 4393 O 410.288 0.858395 1.74533 0
M  V30 4394 C 410.571 3.56858 -0.482121 0
M  V30 4395 C 410.424 4.0555 -1.94549 0
M  V30 4396 C 411.743 4.39955 0.113143 0
M  V30 4397 H 408.862 0.726464 -0.124171 0
M  V30 4398 H 411.504 1.63034 -0.975699 0
M  V30 4399 H 409.654 3.88452 0.0610361 0
M  V30 4400 H 411.326 3.84518 -2.54841 0
M  V30 4401 H 409.569 3.57715 -2.45403 0
M  V30 4402 H 410.24 5.14587 -1.9976 0
M  V30 4403 H 412.716 4.14623 -0.35031 0
M  V30 4404 H 411.592 5.48897 -0.0180514 0
M  V30 4405 H 411.853 4.25403 1.20354 0
M  V30 4406 N 410.912 0.523116 1.48665 0
M  V30 4407 C 411.875 -0.232592 2.28017 0
M  V30 4408 C 412.875 -0.874021 1.34972 0
M  V30 4409 O 414.065 -0.735132 1.57929 0
M  V30 4410 C 411.197 -1.33586 3.13636 0
M  V30 4411 H 412.39 0.464008 2.96289 0
M  V30 4412 H 409.943 0.278816 1.53793 0
M  V30 4413 H 410.678 -2.06593 2.4998 0
M  V30 4414 H 410.463 -0.881125 3.82071 0
M  V30 4415 H 411.953 -1.86759 3.73511 0
M  V30 4416 N 412.39 -1.55475 0.257931 0
M  V30 4417 C 413.3 -2.2549 -0.647425 0
M  V30 4418 C 414.316 -1.2748 -1.18427 0
M  V30 4419 O 415.492 -1.6038 -1.2182 0
M  V30 4420 C 412.557 -2.94916 -1.82278 0
M  V30 4421 C 411.618 -4.08363 -1.32432 0
M  V30 4422 C 410.851 -4.74469 -2.44366 0
M  V30 4423 O 411.074 -4.39701 -3.63344 0
M  V30 4424 O 410.008 -5.62763 -2.13497 0
M  V30 4425 H 413.834 -3.03593 -0.0807707 0
M  V30 4426 H 411.419 -1.49377 0.0259962 0
M  V30 4427 H 413.301 -3.38606 -2.50846 0
M  V30 4428 H 411.976 -2.19744 -2.37685 0
M  V30 4429 H 410.883 -3.69166 -0.605605 0
M  V30 4430 H 412.216 -4.85385 -0.816211 0
M  V30 4431 N 413.868 0.0150385 -1.57593 0
M  V30 4432 C 414.798 1.01047 -2.10503 0
M  V30 4433 C 415.779 1.36816 -1.01071 0
M  V30 4434 O 416.964 1.45455 -1.28672 0
M  V30 4435 C 414.094 2.30708 -2.59598 0
M  V30 4436 C 413.048 2.09142 -3.73421 0
M  V30 4437 C 412.374 3.44685 -4.08774 0
M  V30 4438 C 413.674 1.46619 -5.01298 0
M  V30 4439 H 415.368 0.569978 -2.93925 0
M  V30 4440 H 412.914 0.272724 -1.41394 0
M  V30 4441 H 414.867 3.00687 -2.95238 0
M  V30 4442 H 413.591 2.76843 -1.73279 0
M  V30 4443 H 412.25 1.41592 -3.38153 0
M  V30 4444 H 411.898 3.88495 -3.195 0
M  V30 4445 H 411.598 3.31077 -4.8545 0
M  V30 4446 H 413.122 4.16004 -4.4696 0
M  V30 4447 H 414.536 2.06535 -5.34805 0
M  V30 4448 H 412.933 1.43544 -5.82679 0
M  V30 4449 H 414.003 0.433611 -4.82957 0
M  V30 4450 N 415.346 1.54954 0.287554 0
M  V30 4451 C 416.276 1.89839 1.35954 0
M  V30 4452 C 417.257 0.758675 1.52244 0
M  V30 4453 O 418.442 1.01557 1.65529 0
M  V30 4454 C 415.572 2.15753 2.72154 0
M  V30 4455 C 414.526 3.3159 2.70614 0
M  V30 4456 C 413.852 3.42952 4.10229 0
M  V30 4457 C 415.152 4.68359 2.31165 0
M  V30 4458 H 416.846 2.79625 1.07007 0
M  V30 4459 H 414.392 1.3454 0.513316 0
M  V30 4460 H 416.345 2.38743 3.47246 0
M  V30 4461 H 415.069 1.22752 3.02654 0
M  V30 4462 H 413.728 3.08545 1.97979 0
M  V30 4463 H 413.376 2.47443 4.37928 0
M  V30 4464 H 413.076 4.20826 4.10097 0
M  V30 4465 H 414.6 3.68218 4.87081 0
M  V30 4466 H 416.014 4.9099 2.95976 0
M  V30 4467 H 414.411 5.49044 2.42221 0
M  V30 4468 H 415.481 4.68165 1.26291 0
M  V30 4469 N 416.824 -0.551391 1.4764 0
M  V30 4470 C 418.071 -1.3083 1.54563 0
M  V30 4471 C 418.399 -1.93359 0.210361 0
M  V30 4472 O 417.654 -1.78721 -0.797332 0
M  V30 4473 C 417.953 -2.43469 2.61644 0
M  V30 4474 C 417.619 -1.98732 4.04742 0
M  V30 4475 C 416.281 -1.86248 4.43695 0
M  V30 4476 C 418.633 -1.64659 4.94507 0
M  V30 4477 C 415.961 -1.37995 5.70241 0
M  V30 4478 C 418.313 -1.17875 6.21521 0
M  V30 4479 C 416.977 -1.03992 6.5935 0
M  V30 4480 H 416.247 -0.478741 0.565587 0
M  V30 4481 H 418.894 -0.617697 1.81264 0
M  V30 4482 H 417.199 -3.18109 2.28722 0
M  V30 4483 H 418.896 -3.01642 2.64222 0
M  V30 4484 H 415.486 -2.09393 3.73968 0
M  V30 4485 H 419.67 -1.73174 4.65107 0
M  V30 4486 H 414.926 -1.25915 5.98294 0
M  V30 4487 H 419.1 -0.905739 6.90485 0
M  V30 4488 H 416.727 -0.663794 7.57296 0
M  V30 4489 N 418.302 -1.35869 -0.798587 0
M  V30 4490 C 419.25 -1.29491 -1.93222 0
M  V30 4491 C 420.244 -0.18836 -1.6835 0
M  V30 4492 O 421.45 -0.354822 -1.76468 0
M  V30 4493 H 417.825 -0.402901 -0.63496 0
M  V30 4494 H 419.796 -2.25247 -1.9572 0
M  V30 4495 C 418.545 -1.09184 -3.30112 0
M  V30 4496 H 417.868 -1.93574 -3.49813 0
M  V30 4497 H 419.308 -1.08766 -4.09812 0
M  V30 4498 C 417.767 0.203959 -3.36282 0
M  V30 4499 O 418.297 1.19699 -3.83451 0
M  V30 4500 N 416.503 0.245488 -2.89561 0
M  V30 4501 H 416.05 -0.563223 -2.51367 0
M  V30 4502 H 416.008 1.11219 -2.94071 0
M  V30 4503 N 419.78 1.02168 -1.19998 0
M  V30 4504 C 421.008 1.79296 -1.03249 0
M  V30 4505 C 421.423 1.84103 0.418502 0
M  V30 4506 O 420.78 1.29031 1.29063 0
M  V30 4507 C 420.831 3.24007 -1.60319 0
M  V30 4508 O 420.552 3.19512 -2.99739 0
M  V30 4509 C 422.053 4.17704 -1.48453 0
M  V30 4510 H 419.273 0.564016 -0.363493 0
M  V30 4511 H 421.817 1.28639 -1.58973 0
M  V30 4512 H 419.972 3.7183 -1.08727 0
M  V30 4513 H 420.386 4.10306 -3.26725 0
M  V30 4514 H 421.86 5.17104 -1.93153 0
M  V30 4515 H 422.337 4.37029 -0.436193 0
M  V30 4516 H 422.943 3.7576 -1.99211 0
M  V30 4517 N 421.258 1.00505 1.21394 0
M  V30 4518 C 422.507 0.683159 1.89778 0
M  V30 4519 C 422.82 -0.789471 1.7896 0
M  V30 4520 O 424.026 -1.22344 2.42372 0
M  V30 4521 C 422.482 1.17146 3.40301 0
M  V30 4522 C 422.09 2.67017 3.5973 0
M  V30 4523 C 423.834 0.924461 4.14311 0
M  V30 4524 C 421.741 3.09387 5.04017 0
M  V30 4525 H 420.671 0.25183 0.710702 0
M  V30 4526 H 423.322 1.21622 1.37406 0
M  V30 4527 H 421.704 0.566451 3.91928 0
M  V30 4528 H 422.878 3.32968 3.18542 0
M  V30 4529 H 421.193 2.89732 2.99073 0
M  V30 4530 H 423.79 1.21658 5.20676 0
M  V30 4531 H 424.133 -0.139286 4.16067 0
M  V30 4532 H 424.666 1.49226 3.6875 0
M  V30 4533 H 421.405 4.14989 5.07409 0
M  V30 4534 H 420.925 2.48149 5.46061 0
M  V30 4535 H 422.604 3.01371 5.72525 0
M  V30 4536 N 422.737 -1.36956 0.779787 0
M  V30 4537 C 423.669 -2.28833 0.129639 0
M  V30 4538 C 424.682 -1.4902 -0.655511 0
M  V30 4539 O 425.871 -1.71578 -0.492279 0
M  V30 4540 C 422.971 -3.2833 -0.839792 0
M  V30 4541 C 422.144 -4.3727 -0.10675 0
M  V30 4542 C 421.203 -5.16789 -0.990717 0
M  V30 4543 O 420.229 -5.67406 -0.451516 0
M  V30 4544 N 421.431 -5.32294 -2.3161 0
M  V30 4545 H 424.196 -2.85268 0.918803 0
M  V30 4546 H 421.757 -1.49019 0.632841 0
M  V30 4547 H 423.749 -3.78413 -1.43477 0
M  V30 4548 H 422.319 -2.72605 -1.52988 0
M  V30 4549 H 421.539 -3.88478 0.669216 0
M  V30 4550 H 422.827 -5.07229 0.399464 0
M  V30 4551 H 422.225 -4.92768 -2.77843 0
M  V30 4552 H 420.782 -5.85656 -2.86095 0
M  V30 4553 N 424.215 -0.530993 -1.48385 0
M  V30 4554 C 425.178 0.220497 -2.28137 0
M  V30 4555 C 426.178 0.866851 -1.35434 0
M  V30 4556 O 427.368 0.726746 -1.58316 0
M  V30 4557 C 424.5 1.31921 -3.1434 0
M  V30 4558 H 425.693 -0.479714 -2.96038 0
M  V30 4559 H 423.246 -0.286968 -1.53643 0
M  V30 4560 H 423.981 2.05264 -2.51072 0
M  V30 4561 H 423.766 0.86085 -3.82533 0
M  V30 4562 H 425.256 1.84776 -3.74497 0
M  V30 4563 N 425.693 1.55336 -0.266172 0
M  V30 4564 C 426.656 2.20878 0.612001 0
M  V30 4565 C 427.656 1.18388 1.08816 0
M  V30 4566 O 428.846 1.4335 0.989774 0
M  V30 4567 C 425.978 2.86765 1.84332 0
M  V30 4568 H 427.171 2.99873 0.0398718 0
M  V30 4569 H 424.724 1.56291 -0.0167309 0
M  V30 4570 H 425.459 2.11759 2.45619 0
M  V30 4571 H 425.244 3.61862 1.5099 0
M  V30 4572 H 426.734 3.36867 2.46801 0
M  V30 4573 N 427.171 -0.0066808 1.57599 0
M  V30 4574 C 428.448 -0.729586 1.81484 0
M  V30 4575 C 428.828 -1.92359 0.869558 0
M  V30 4576 O 428.176 -2.28348 -0.0832533 0
M  V30 4577 C 428.386 -1.1416 3.29801 0
M  V30 4578 C 429.734 -1.54823 3.95367 0
M  V30 4579 O 430.758 -1.23558 3.34084 0
M  V30 4580 O 429.617 -2.12937 5.03309 0
M  V30 4581 H 426.711 -0.354674 0.747085 0
M  V30 4582 H 429.257 0.0182609 1.6969 0
M  V30 4583 H 428.029 -0.290231 3.90222 0
M  V30 4584 H 427.652 -1.94876 3.46568 0
M  V30 4585 N 428.649 -1.55105 -0.279332 0
M  V30 4586 C 429.898 -1.74618 -1.00952 0
M  V30 4587 C 430.211 -0.551096 -1.87676 0
M  V30 4588 O 431.417 -0.628507 -2.64125 0
M  V30 4589 C 429.873 -3.09025 -1.84476 0
M  V30 4590 C 429.481 -4.36081 -1.0265 0
M  V30 4591 C 431.225 -3.37891 -2.56963 0
M  V30 4592 C 429.132 -5.6153 -1.85576 0
M  V30 4593 H 428.062 -0.650868 -0.38064 0
M  V30 4594 H 430.713 -1.81569 -0.265475 0
M  V30 4595 H 429.095 -2.96095 -2.62952 0
M  V30 4596 H 430.269 -4.59909 -0.286354 0
M  V30 4597 H 428.584 -4.14312 -0.416464 0
M  V30 4598 H 431.181 -4.28822 -3.19399 0
M  V30 4599 H 431.524 -2.57737 -3.26921 0
M  V30 4600 H 432.057 -3.5189 -1.85522 0
M  V30 4601 H 428.796 -6.44413 -1.2005 0
M  V30 4602 H 428.316 -5.41854 -2.57204 0
M  V30 4603 H 429.995 -5.99594 -2.43096 0
M  V30 4604 N 430.127 0.543554 -1.4793 0
M  V30 4605 C 431.404 1.30458 -1.4574 0
M  V30 4606 C 431.784 2.1048 -0.161692 0
M  V30 4607 O 431.132 2.11831 0.856734 0
M  V30 4608 C 431.342 2.19754 -2.71126 0
M  V30 4609 C 432.69 2.80334 -3.18901 0
M  V30 4610 O 433.714 2.30049 -2.71948 0
M  V30 4611 O 432.573 3.71766 -4.00565 0
M  V30 4612 H 429.667 0.588117 -0.581418 0
M  V30 4613 H 432.213 0.561328 -1.60147 0
M  V30 4614 H 430.985 1.60316 -3.56952 0
M  V30 4615 H 430.608 3.01351 -2.59371 0
M  V30 4616 N 431.605 1.3629 0.791371 0
M  V30 4617 C 432.833 1.33562 1.58016 0
M  V30 4618 C 433.248 -0.0835616 1.88615 0
M  V30 4619 O 432.605 -1.0399 1.49974 0
M  V30 4620 C 432.656 2.15517 2.90232 0
M  V30 4621 O 432.377 3.51902 2.60953 0
M  V30 4622 C 433.878 2.20546 3.84544 0
M  V30 4623 H 431.098 0.458226 0.490173 0
M  V30 4624 H 433.642 1.79361 0.982345 0
M  V30 4625 H 431.797 1.73278 3.46487 0
M  V30 4626 H 432.211 3.94644 3.4548 0
M  V30 4627 H 433.685 2.82252 4.74382 0
M  V30 4628 H 434.162 1.20838 4.2225 0
M  V30 4629 H 434.768 2.63013 3.34222 0
M  V30 4630 N 433.083 -1.0153 1.20538 0
M  V30 4631 C 434.499 -1.27461 0.96051 0
M  V30 4632 C 434.699 -1.98273 -0.359193 0
M  V30 4633 O 433.755 -2.27886 -1.0874 0
M  V30 4634 C 435.068 -2.10837 2.14402 0
M  V30 4635 C 436.616 -2.24099 2.18515 0
M  V30 4636 C 437.091 -3.10852 3.36355 0
M  V30 4637 N 438.582 -3.18441 3.36377 0
M  V30 4638 C 439.317 -3.85795 4.24205 0
M  V30 4639 N 438.813 -4.55264 5.22213 0
M  V30 4640 N 440.606 -3.82331 4.12043 0
M  V30 4641 H 432.757 -0.539907 2.05423 0
M  V30 4642 H 435.02 -0.30092 0.898972 0
M  V30 4643 H 434.726 -1.66144 3.09983 0
M  V30 4644 H 434.6 -3.11576 2.12604 0
M  V30 4645 H 436.987 -2.68016 1.23497 0
M  V30 4646 H 437.068 -1.22865 2.24361 0
M  V30 4647 H 436.712 -2.6764 4.31661 0
M  V30 4648 H 436.642 -4.12177 3.27746 0
M  V30 4649 H 439.133 -2.68978 2.65442 0
M  V30 4650 H 439.446 -5.04331 5.85551 0
M  V30 4651 H 437.791 -4.54085 5.26148 0
M  V30 4652 H 440.982 -3.27207 3.34743 0
M  V30 4653 H 441.155 -4.34547 4.807 0
M  V30 4654 N 434.561 -1.01147 -1.20859 0
M  V30 4655 C 435.786 -0.716698 -1.94623 0
M  V30 4656 C 436.211 0.715415 -1.73964 0
M  V30 4657 O 435.569 1.49157 -1.03062 0
M  V30 4658 C 435.617 -1.0513 -3.44935 0
M  V30 4659 O 434.721 -0.160131 -4.12089 0
M  V30 4660 H 434.062 -0.266404 -0.608214 0
M  V30 4661 H 436.592 -1.35346 -1.53436 0
M  V30 4662 H 436.602 -1.00086 -3.95533 0
M  V30 4663 H 435.277 -2.09475 -3.59295 0
M  V30 4664 H 433.854 -0.267657 -3.71938 0
M  V30 4665 N 436.039 1.36541 -0.78704 0
M  V30 4666 C 436.949 2.3387 -0.184896 0
M  V30 4667 C 437.965 1.60927 0.661697 0
M  V30 4668 O 439.141 1.92927 0.57804 0
M  V30 4669 C 436.206 3.40122 0.672145 0
M  V30 4670 C 435.267 4.28867 -0.19267 0
M  V30 4671 C 434.5 5.30045 0.623561 0
M  V30 4672 O 434.723 5.39232 1.8597 0
M  V30 4673 O 433.657 6.01895 0.0247068 0
M  V30 4674 H 437.483 2.87126 -0.989562 0
M  V30 4675 H 435.068 1.38969 -0.548455 0
M  V30 4676 H 436.95 4.05093 1.16094 0
M  V30 4677 H 435.625 2.89169 1.45474 0
M  V30 4678 H 434.532 3.66945 -0.728166 0
M  V30 4679 H 435.865 4.83165 -0.938722 0
M  V30 4680 N 437.518 0.538854 1.48102 0
M  V30 4681 C 438.765 0.0080018 2.02498 0
M  V30 4682 C 439.093 -1.33437 1.41509 0
M  V30 4683 O 438.348 -1.87709 0.553507 0
M  V30 4684 C 438.647 -0.153808 3.57069 0
M  V30 4685 C 438.313 1.11533 4.36888 0
M  V30 4686 C 436.975 1.46314 4.58417 0
M  V30 4687 C 439.327 1.95718 4.83057 0
M  V30 4688 C 436.655 2.6516 5.23361 0
M  V30 4689 C 439.007 3.13751 5.49312 0
M  V30 4690 C 437.671 3.48866 5.69077 0
M  V30 4691 H 436.941 0.00292807 0.740994 0
M  V30 4692 H 439.588 0.706668 1.77984 0
M  V30 4693 H 437.893 -0.935309 3.80472 0
M  V30 4694 H 439.59 -0.579607 3.96789 0
M  V30 4695 H 436.18 0.834484 4.20398 0
M  V30 4696 H 440.364 1.70158 4.66219 0
M  V30 4697 H 435.62 2.92558 5.36861 0
M  V30 4698 H 439.794 3.79282 5.84053 0
M  V30 4699 H 437.421 4.41054 6.19173 0
M  V30 4700 N 438.996 -1.55193 0.274407 0
M  V30 4701 C 440.226 -2.03692 -0.345442 0
M  V30 4702 C 440.634 -1.15224 -1.50067 0
M  V30 4703 O 439.977 -0.164749 -1.8296 0
M  V30 4704 C 440.039 -3.48325 -0.88939 0
M  V30 4705 C 439.703 -4.56794 0.137115 0
M  V30 4706 C 440.7 -5.11028 0.956378 0
M  V30 4707 C 438.385 -5.01568 0.27115 0
M  V30 4708 C 440.379 -6.08552 1.89587 0
M  V30 4709 C 438.066 -5.98918 1.21412 0
M  V30 4710 C 439.064 -6.52291 2.02498 0
M  V30 4711 O 438.752 -7.47738 2.952 0
M  V30 4712 H 438.484 -0.670893 -0.0829332 0
M  V30 4713 H 441.038 -2.01387 0.404056 0
M  V30 4714 H 439.268 -3.47867 -1.68895 0
M  V30 4715 H 440.957 -3.80167 -1.42225 0
M  V30 4716 H 441.723 -4.7725 0.863559 0
M  V30 4717 H 437.602 -4.5967 -0.349987 0
M  V30 4718 H 441.146 -6.50137 2.52918 0
M  V30 4719 H 437.043 -6.32114 1.30776 0
M  V30 4720 H 437.811 -7.65451 2.89874 0
M  V30 4721 N 440.474 -0.00167713 -1.576 0
M  V30 4722 C 441.421 0.989195 -2.08527 0
M  V30 4723 C 442.391 1.34031 -0.981065 0
M  V30 4724 O 443.576 1.43839 -1.2536 0
M  V30 4725 C 440.716 2.27537 -2.59463 0
M  V30 4726 C 439.829 1.98314 -3.83791 0
M  V30 4727 C 438.964 3.21025 -4.23222 0
M  V30 4728 C 438.003 2.87495 -5.40382 0
M  V30 4729 N 437.14 4.02749 -5.75098 0
M  V30 4730 H 441.98 0.547973 -2.92919 0
M  V30 4731 H 439.517 0.258917 -1.44803 0
M  V30 4732 H 441.475 3.02729 -2.87073 0
M  V30 4733 H 440.105 2.69325 -1.77943 0
M  V30 4734 H 439.157 1.13482 -3.63078 0
M  V30 4735 H 440.469 1.69601 -4.69081 0
M  V30 4736 H 439.623 4.04561 -4.52123 0
M  V30 4737 H 438.362 3.52877 -3.36644 0
M  V30 4738 H 437.367 2.02367 -5.11202 0
M  V30 4739 H 438.592 2.56889 -6.28637 0
M  V30 4740 H 436.538 4.34494 -4.91478 0
M  V30 4741 H 436.455 3.77566 -6.54966 0
M  V30 4742 H 437.723 4.87068 -6.08592 0
M  V30 4743 N 441.952 1.55251 0.271103 0
M  V30 4744 C 442.902 1.84649 1.33749 0
M  V30 4745 C 443.886 0.705529 1.44607 0
M  V30 4746 O 445.078 0.966916 1.48256 0
M  V30 4747 C 442.207 2.12354 2.69742 0
M  V30 4748 C 441.293 3.32714 2.62988 0
M  V30 4749 N 441.684 4.52575 2.25853 0
M  V30 4750 C 439.982 3.35341 2.94045 0
M  V30 4751 C 440.683 5.34669 2.29136 0
M  V30 4752 N 439.659 4.73123 2.67685 0
M  V30 4753 H 443.461 2.74865 1.0405 0
M  V30 4754 H 440.975 1.55152 0.479738 0
M  V30 4755 H 442.972 2.31572 3.4667 0
M  V30 4756 H 441.632 1.23422 3.00328 0
M  V30 4757 H 442.643 4.78639 1.978 0
M  V30 4758 H 439.32 2.56608 3.2933 0
M  V30 4759 H 440.71 6.40509 2.02971 0
M  V30 4760 N 443.43 -0.535701 1.48216 0
M  V30 4761 C 444.679 -1.28828 1.55197 0
M  V30 4762 C 444.992 -1.94263 0.228278 0
M  V30 4763 O 446.198 -2.70927 0.176278 0
M  V30 4764 C 444.654 -2.33727 2.73678 0
M  V30 4765 C 444.262 -1.74386 4.12666 0
M  V30 4766 C 446.006 -3.1003 2.89968 0
M  V30 4767 C 443.913 -2.77192 5.22416 0
M  V30 4768 H 442.843 -0.484484 0.577747 0
M  V30 4769 H 445.494 -0.56646 1.74538 0
M  V30 4770 H 443.876 -3.08919 2.4776 0
M  V30 4771 H 445.05 -1.05421 4.48579 0
M  V30 4772 H 443.365 -1.10595 4.01445 0
M  V30 4773 H 445.962 -3.86842 3.6913 0
M  V30 4774 H 446.305 -3.65542 1.9921 0
M  V30 4775 H 446.838 -2.41952 3.15759 0
M  V30 4776 H 443.577 -2.26507 6.15122 0
M  V30 4777 H 443.097 -3.44502 4.90998 0
M  V30 4778 H 444.776 -3.40285 5.50286 0
M  V30 4779 N 444.908 -1.36708 -0.784132 0
M  V30 4780 C 446.154 -1.31426 -1.54451 0
M  V30 4781 C 446.487 0.10476 -1.93917 0
M  V30 4782 O 445.762 1.05934 -1.6312 0
M  V30 4783 C 446.045 -2.24189 -2.818 0
M  V30 4784 C 445.898 -3.74813 -2.48667 0
M  V30 4785 C 447.217 -2.15626 -3.83658 0
M  V30 4786 H 444.336 -0.478739 -0.560337 0
M  V30 4787 H 446.978 -1.67305 -0.900498 0
M  V30 4788 H 445.128 -1.93722 -3.36755 0
M  V30 4789 H 446.8 -4.15823 -1.99722 0
M  V30 4790 H 445.043 -3.93989 -1.81535 0
M  V30 4791 H 445.714 -4.35138 -3.39646 0
M  V30 4792 H 448.19 -2.42456 -3.38163 0
M  V30 4793 H 447.066 -2.82694 -4.70506 0
M  V30 4794 H 447.327 -1.14522 -4.27009 0
M  V30 4795 N 446.386 1.0089 -1.21074 0
M  V30 4796 C 447.316 2.1145 -0.990523 0
M  V30 4797 C 448.297 1.69897 0.0831699 0
M  V30 4798 O 449.482 1.94052 -0.0758853 0
M  V30 4799 C 446.612 3.42914 -0.550177 0
M  V30 4800 C 445.566 3.98244 -1.56799 0
M  V30 4801 C 444.892 5.25568 -0.984013 0
M  V30 4802 C 446.192 4.30752 -2.95381 0
M  V30 4803 H 447.886 2.3013 -1.91521 0
M  V30 4804 H 445.432 1.10592 -0.92225 0
M  V30 4805 H 447.385 4.19653 -0.383305 0
M  V30 4806 H 446.109 3.24014 0.41015 0
M  V30 4807 H 444.768 3.23621 -1.72236 0
M  V30 4808 H 444.416 5.02998 -0.0155216 0
M  V30 4809 H 444.116 5.63551 -1.66384 0
M  V30 4810 H 445.64 6.04955 -0.828378 0
M  V30 4811 H 447.054 4.98349 -2.8341 0
M  V30 4812 H 445.451 4.79869 -3.60341 0
M  V30 4813 H 446.521 3.39192 -3.46521 0
M  V30 4814 N 447.864 1.01787 1.20321 0
M  V30 4815 C 449.089 0.727009 1.9424 0
M  V30 4816 C 449.514 -0.706179 1.74341 0
M  V30 4817 O 448.872 -1.48609 1.03852 0
M  V30 4818 C 448.92 1.06958 3.44372 0
M  V30 4819 O 448.024 0.181983 4.11998 0
M  V30 4820 H 447.365 0.269626 0.606793 0
M  V30 4821 H 449.895 1.36158 1.52716 0
M  V30 4822 H 449.905 1.02182 3.94997 0
M  V30 4823 H 448.58 2.11378 3.58179 0
M  V30 4824 H 447.157 0.287378 3.71791 0
M  V30 4825 N 449.342 -1.36122 0.79427 0
M  V30 4826 C 450.59 -1.98718 0.368177 0
M  V30 4827 C 450.911 -1.63345 -1.06506 0
M  V30 4828 O 450.181 -0.909825 -1.73491 0
M  V30 4829 H 448.761 -0.735038 0.133146 0
M  V30 4830 H 451.423 -1.66239 1.01739 0
M  V30 4831 H 450.519 -3.08633 0.463923 0
M  V30 4832 N 450.82 -0.546701 -1.47814 0
M  V30 4833 C 452.068 -0.0187037 -2.02091 0
M  V30 4834 C 452.389 1.33168 -1.42447 0
M  V30 4835 O 451.659 1.86619 -0.595839 0
M  V30 4836 H 450.239 -0.00392531 -0.74699 0
M  V30 4837 H 452.901 -0.714327 -1.81338 0
M  V30 4838 H 451.997 0.0772219 -3.12004 0
M  V30 4839 N 452.299 1.55045 -0.282633 0
M  V30 4840 C 453.524 2.04628 0.337977 0
M  V30 4841 C 453.949 1.15937 1.48123 0
M  V30 4842 O 453.307 0.159532 1.80597 0
M  V30 4843 C 453.355 3.51854 0.78936 0
M  V30 4844 O 452.459 3.66236 1.89592 0
M  V30 4845 H 451.8 0.660434 0.0687261 0
M  V30 4846 H 454.33 2.00261 -0.419124 0
M  V30 4847 H 454.34 3.93361 1.08311 0
M  V30 4848 H 453.015 4.15873 -0.0470419 0
M  V30 4849 H 451.592 3.36633 1.60413 0
M  V30 4850 N 453.777 0.010035 1.57597 0
M  V30 4851 C 455.005 -0.683413 1.95287 0
M  V30 4852 C 455.42 -1.66747 0.885481 0
M  V30 4853 O 454.777 -1.82003 -0.134629 0
M  V30 4854 C 454.828 -1.40652 3.33015 0
M  V30 4855 O 454.549 -0.461916 4.35658 0
M  V30 4856 C 456.05 -2.19356 3.85225 0
M  V30 4857 H 453.27 -0.189708 0.643624 0
M  V30 4858 H 455.814 0.0641359 2.04399 0
M  V30 4859 H 453.969 -2.10562 3.2518 0
M  V30 4860 H 454.383 -0.973215 5.15392 0
M  V30 4861 H 455.857 -2.65433 4.83993 0
M  V30 4862 H 456.334 -3.02457 3.18459 0
M  V30 4863 H 456.94 -1.54442 3.96267 0
M  V30 4864 N 455.255 -1.55392 -0.262866 0
M  V30 4865 C 456.188 -1.8391 -1.35101 0
M  V30 4866 C 457.166 -0.692901 -1.47097 0
M  V30 4867 O 458.35 -0.936979 -1.63563 0
M  V30 4868 C 455.477 -2.00969 -2.72634 0
M  V30 4869 C 454.523 -3.23559 -2.7787 0
M  V30 4870 S 455.356 -4.80647 -2.3609 0
M  V30 4871 C 456.512 -5.00692 -3.75578 0
M  V30 4872 H 456.745 -2.75918 -1.1071 0
M  V30 4873 H 454.278 -1.47294 -0.463029 0
M  V30 4874 H 456.236 -2.11482 -3.51832 0
M  V30 4875 H 454.897 -1.09832 -2.94272 0
M  V30 4876 H 454.09 -3.32413 -3.78837 0
M  V30 4877 H 453.692 -3.11689 -2.06702 0
M  V30 4878 H 455.984 -4.87055 -4.70939 0
M  V30 4879 H 456.927 -6.02717 -3.71669 0
M  V30 4880 H 457.335 -4.28619 -3.6735 0
M  V30 4881 N 456.733 0.527833 -1.48498 0
M  V30 4882 C 457.963 1.30633 -1.60058 0
M  V30 4883 C 458.371 1.87394 -0.260786 0
M  V30 4884 O 457.714 1.67227 0.760317 0
M  V30 4885 C 457.776 2.49361 -2.58958 0
M  V30 4886 C 457.44 2.13671 -4.03972 0
M  V30 4887 C 458.437 1.69217 -4.91591 0
M  V30 4888 C 456.122 2.24129 -4.49524 0
M  V30 4889 C 458.116 1.35689 -6.2279 0
M  V30 4890 C 455.803 1.90212 -5.80743 0
M  V30 4891 C 456.801 1.46063 -6.67199 0
M  V30 4892 O 456.489 1.12593 -7.95976 0
M  V30 4893 H 456.221 0.403444 -0.54241 0
M  V30 4894 H 458.775 0.643233 -1.95068 0
M  V30 4895 H 457.005 3.18659 -2.19073 0
M  V30 4896 H 458.694 3.11421 -2.6033 0
M  V30 4897 H 459.46 1.60607 -4.57636 0
M  V30 4898 H 455.339 2.57447 -3.82416 0
M  V30 4899 H 458.883 1.01157 -6.90227 0
M  V30 4900 H 454.78 1.98464 -6.14233 0
M  V30 4901 H 455.548 1.25972 -8.08748 0
M  V30 4902 N 458.211 1.37122 0.776871 0
M  V30 4903 C 459.622 1.28667 1.35284 0
M  V30 4904 C 459.973 -0.0680035 1.96082 0
M  V30 4905 O 459.098 -0.969743 1.93455 0
M  V30 4906 C 459.693 2.32997 2.45963 0
M  V30 4907 C 458.252 2.28191 2.99342 0
M  V30 4908 C 457.399 2.17101 1.72517 0
M  V30 4909 H 460.35 1.47819 0.577527 0
M  V30 4910 H 460.371 1.97366 3.2531 0
M  V30 4911 H 459.883 3.3158 2.01684 0
M  V30 4912 H 457.984 1.33115 3.4801 0
M  V30 4913 H 458.097 3.21397 3.55304 0
M  V30 4914 H 456.461 1.63562 1.95242 0
M  V30 4915 H 457.244 3.17591 1.30348 0
M  V30 4916 N 459.689 -1.00246 1.21608 0
M  V30 4917 C 460.937 -1.73717 1.0328 0
M  V30 4918 C 461.258 -1.90102 -0.434318 0
M  V30 4919 O 460.528 -1.45376 -1.31311 0
M  V30 4920 H 459.108 -0.643613 0.379172 0
M  V30 4921 H 461.77 -1.20787 1.52959 0
M  V30 4922 H 460.866 -2.73535 1.50283 0
M  V30 4923 N 461.167 -1.02423 -1.1978 0
M  V30 4924 C 462.097 -0.62157 -2.25075 0
M  V30 4925 C 463.078 0.367148 -1.6609 0
M  V30 4926 O 464.263 0.250892 -1.92573 0
M  V30 4927 C 461.393 0.0331826 -3.47284 0
M  V30 4928 C 460.347 -0.877323 -4.18912 0
M  V30 4929 C 459.673 -0.0879296 -5.34628 0
M  V30 4930 C 460.973 -2.18892 -4.74219 0
M  V30 4931 H 462.667 -1.50179 -2.59011 0
M  V30 4932 H 460.213 -0.723547 -1.24502 0
M  V30 4933 H 462.166 0.326488 -4.20133 0
M  V30 4934 H 460.89 0.948164 -3.12534 0
M  V30 4935 H 459.549 -1.15475 -3.47938 0
M  V30 4936 H 459.197 0.828941 -4.96123 0
M  V30 4937 H 458.897 -0.694359 -5.83483 0
M  V30 4938 H 460.421 0.198743 -6.10276 0
M  V30 4939 H 461.835 -1.95746 -5.38847 0
M  V30 4940 H 460.232 -2.74686 -5.33542 0
M  V30 4941 H 461.302 -2.84674 -3.92541 0
M  V30 4942 N 462.645 1.35699 -0.801477 0
M  V30 4943 C 464.056 1.81415 -0.441073 0
M  V30 4944 C 464.407 1.66595 1.03636 0
M  V30 4945 O 463.532 1.19369 1.80499 0
M  V30 4946 C 464.127 3.29369 -0.793819 0
M  V30 4947 C 462.686 3.73248 -0.486083 0
M  V30 4948 C 461.833 2.57775 -1.02213 0
M  V30 4949 H 464.784 1.23749 -0.993572 0
M  V30 4950 H 464.805 3.80395 -0.0894158 0
M  V30 4951 H 464.317 3.40123 -1.86917 0
M  V30 4952 H 462.418 3.68046 0.580735 0
M  V30 4953 H 462.531 4.68222 -1.01513 0
M  V30 4954 H 460.895 2.50788 -0.444712 0
M  V30 4955 H 461.678 2.71309 -2.10348 0
M  V30 4956 N 464.123 0.554532 1.47522 0
M  V30 4957 C 465.348 0.0322661 2.07375 0
M  V30 4958 C 465.773 -1.25079 1.40488 0
M  V30 4959 O 465.131 -1.74859 0.47896 0
M  V30 4960 C 465.179 -0.149397 3.6029 0
M  V30 4961 O 464.283 -1.21259 3.9417 0
M  V30 4962 H 463.624 0.0501228 0.662106 0
M  V30 4963 H 466.154 0.769452 1.8958 0
M  V30 4964 H 466.164 -0.364437 4.06369 0
M  V30 4965 H 464.839 0.787743 4.08372 0
M  V30 4966 H 463.416 -0.97825 3.5984 0
M  V30 4967 N 465.601 -1.54893 0.290851 0
M  V30 4968 C 467.017 -1.59476 -0.0628432 0
M  V30 4969 C 467.217 -1.30795 -1.5328 0
M  V30 4970 O 466.273 -1.07644 -2.28406 0
M  V30 4971 C 467.586 -2.98928 0.325962 0
M  V30 4972 C 469.134 -3.11799 0.273882 0
M  V30 4973 C 469.609 -4.53544 0.637359 0
M  V30 4974 N 471.1 -4.59433 0.589507 0
M  V30 4975 C 471.835 -5.67164 0.84335 0
M  V30 4976 N 471.331 -6.82975 1.16263 0
M  V30 4977 N 473.124 -5.56786 0.771091 0
M  V30 4978 H 465.275 -1.71798 1.24896 0
M  V30 4979 H 467.538 -0.801879 0.505663 0
M  V30 4980 H 467.244 -3.24805 1.34887 0
M  V30 4981 H 467.118 -3.75793 -0.325441 0
M  V30 4982 H 469.505 -2.85677 -0.739765 0
M  V30 4983 H 469.586 -2.37112 0.959766 0
M  V30 4984 H 469.23 -4.80394 1.64877 0
M  V30 4985 H 469.16 -5.26553 -0.0704866 0
M  V30 4986 H 471.651 -3.76245 0.353252 0
M  V30 4987 H 471.964 -7.61048 1.34257 0
M  V30 4988 H 470.309 -6.84552 1.20057 0
M  V30 4989 H 473.5 -4.65187 0.521383 0
M  V30 4990 H 473.673 -6.40664 0.972295 0
M  V30 4991 N 467.08 -0.0183926 -1.57589 0
M  V30 4992 C 468.01 0.965596 -2.12599 0
M  V30 4993 C 468.991 1.34641 -1.0395 0
M  V30 4994 O 470.176 1.42693 -1.31729 0
M  V30 4995 C 467.306 2.25149 -2.64434 0
M  V30 4996 C 466.26 2.01175 -3.77773 0
M  V30 4997 C 465.586 3.35937 -4.15994 0
M  V30 4998 C 466.886 1.35953 -5.04296 0
M  V30 4999 H 468.58 0.507504 -2.95067 0
M  V30 5000 H 466.126 0.242671 -1.41941 0
M  V30 5001 H 468.079 2.94357 -3.01549 0
M  V30 5002 H 466.803 2.73105 -1.79112 0
M  V30 5003 H 465.462 1.34388 -3.4108 0
M  V30 5004 H 465.11 3.81631 -3.27669 0
M  V30 5005 H 464.81 3.20705 -4.92364 0
M  V30 5006 H 466.334 4.0643 -4.55683 0
M  V30 5007 H 467.748 1.95144 -5.39065 0
M  V30 5008 H 466.145 1.31152 -5.85593 0
M  V30 5009 H 467.215 0.331071 -4.83768 0
M  V30 5010 N 468.558 1.5553 0.254621 0
M  V30 5011 C 469.468 1.92789 1.33677 0
M  V30 5012 C 470.484 0.827356 1.53071 0
M  V30 5013 O 471.66 1.12807 1.66843 0
M  V30 5014 C 468.725 2.20827 2.67275 0
M  V30 5015 C 467.786 3.4427 2.5647 0
M  V30 5016 C 467.019 3.70961 3.83697 0
M  V30 5017 O 467.242 2.99852 4.85227 0
M  V30 5018 O 466.176 4.64491 3.82794 0
M  V30 5019 H 470.002 2.84945 1.05071 0
M  V30 5020 H 467.587 1.42312 0.454723 0
M  V30 5021 H 469.469 2.40204 3.46237 0
M  V30 5022 H 468.144 1.31851 2.9563 0
M  V30 5023 H 467.051 3.30209 1.75821 0
M  V30 5024 H 468.384 4.33524 2.33062 0
M  V30 5025 N 470.036 -0.519951 1.48776 0
M  V30 5026 C 471.452 -0.849418 1.35119 0
M  V30 5027 C 471.652 -1.98077 0.36982 0
M  V30 5028 O 470.708 -2.51664 -0.205359 0
M  V30 5029 C 472.021 -1.20748 2.75391 0
M  V30 5030 C 473.569 -1.31679 2.83954 0
M  V30 5031 C 474.044 -1.70824 4.24951 0
M  V30 5032 N 475.535 -1.77908 4.27672 0
M  V30 5033 C 476.27 -2.09603 5.33717 0
M  V30 5034 N 475.766 -2.39652 6.5003 0
M  V30 5035 N 477.559 -2.10694 5.21119 0
M  V30 5036 H 469.71 0.226377 2.1119 0
M  V30 5037 H 471.973 0.0386519 0.947212 0
M  V30 5038 H 471.679 -0.449703 3.48813 0
M  V30 5039 H 471.553 -2.15534 3.09556 0
M  V30 5040 H 473.94 -2.06532 2.10781 0
M  V30 5041 H 474.021 -0.3499 2.53396 0
M  V30 5042 H 473.665 -0.965282 4.98643 0
M  V30 5043 H 473.595 -2.6858 4.52959 0
M  V30 5044 H 476.086 -1.56923 3.43779 0
M  V30 5045 H 476.399 -2.6297 7.26682 0
M  V30 5046 H 474.744 -2.37149 6.53288 0
M  V30 5047 H 477.935 -1.86682 4.29264 0
M  V30 5048 H 478.108 -2.35062 6.03863 0
M  V30 5049 N 471.514 -1.37532 -0.769588 0
M  V30 5050 C 472.424 -1.35668 -1.91393 0
M  V30 5051 C 473.44 -0.255954 -1.72107 0
M  V30 5052 O 474.616 -0.491704 -1.95305 0
M  V30 5053 C 471.681 -1.16481 -3.26547 0
M  V30 5054 C 470.742 -2.36212 -3.58472 0
M  V30 5055 C 469.975 -2.17932 -4.87177 0
M  V30 5056 O 470.198 -1.1647 -5.58382 0
M  V30 5057 O 469.132 -3.06167 -5.18214 0
M  V30 5058 H 472.958 -2.32055 -1.95918 0
M  V30 5059 H 470.543 -1.18284 -0.912641 0
M  V30 5060 H 472.425 -1.07778 -4.07384 0
M  V30 5061 H 471.1 -0.231687 -3.2287 0
M  V30 5062 H 470.007 -2.50488 -2.77861 0
M  V30 5063 H 471.34 -3.281 -3.66894 0
M  V30 5064 N 472.992 0.995999 -1.22138 0
M  V30 5065 C 473.922 2.10387 -1.01289 0
M  V30 5066 C 474.903 1.69975 0.0651454 0
M  V30 5067 O 476.088 1.9396 -0.0964628 0
M  V30 5068 C 473.218 3.42312 -0.586517 0
M  V30 5069 C 472.172 3.96558 -1.61014 0
M  V30 5070 C 471.498 5.24494 -1.0397 0
M  V30 5071 C 472.798 4.27595 -2.99933 0
M  V30 5072 H 474.492 2.28086 -1.93951 0
M  V30 5073 H 472.038 1.09607 -0.933928 0
M  V30 5074 H 473.991 4.19223 -0.427793 0
M  V30 5075 H 472.715 3.24431 0.375761 0
M  V30 5076 H 471.374 3.21776 -1.75658 0
M  V30 5077 H 471.022 5.02953 -0.0688703 0
M  V30 5078 H 470.722 5.61755 -1.72352 0
M  V30 5079 H 472.246 6.04042 -0.892494 0
M  V30 5080 H 473.66 4.95315 -2.8868 0
M  V30 5081 H 472.057 4.76021 -3.6541 0
M  V30 5082 H 473.127 3.35498 -3.50099 0
M  V30 5083 N 474.47 1.03057 1.19235 0
M  V30 5084 C 475.417 0.612832 2.22515 0
M  V30 5085 C 476.387 -0.374224 1.61829 0
M  V30 5086 O 477.572 -0.270501 1.88873 0
M  V30 5087 C 474.712 -0.028475 3.45088 0
M  V30 5088 C 473.825 1.00483 4.20151 0
M  V30 5089 C 472.96 0.333102 5.30155 0
M  V30 5090 C 471.999 1.3522 5.96977 0
M  V30 5091 N 471.136 0.70616 6.9854 0
M  V30 5092 H 475.976 1.49812 2.57605 0
M  V30 5093 H 473.513 0.749658 1.26564 0
M  V30 5094 H 475.471 -0.417548 4.15105 0
M  V30 5095 H 474.101 -0.877334 3.10649 0
M  V30 5096 H 473.153 1.51194 3.49062 0
M  V30 5097 H 474.465 1.77929 4.65986 0
M  V30 5098 H 473.619 -0.110725 6.06599 0
M  V30 5099 H 472.358 -0.473547 4.85396 0
M  V30 5100 H 471.363 1.80627 5.19282 0
M  V30 5101 H 472.588 2.16037 6.4382 0
M  V30 5102 H 470.534 -0.0803667 6.55951 0
M  V30 5103 H 470.451 1.41848 7.42573 0
M  V30 5104 H 471.719 0.286391 7.78974 0
M  V30 5105 N 475.948 -1.35272 0.808662 0
M  V30 5106 C 476.88 -2.28507 0.178149 0
M  V30 5107 C 477.893 -1.50377 -0.623754 0
M  V30 5108 O 479.082 -1.72583 -0.455774 0
M  V30 5109 C 476.182 -3.30038 -0.769959 0
M  V30 5110 C 475.355 -4.37398 -0.0139749 0
M  V30 5111 C 474.414 -5.18775 -0.880875 0
M  V30 5112 O 473.44 -5.68236 -0.331059 0
M  V30 5113 N 474.642 -5.37087 -2.20267 0
M  V30 5114 H 477.407 -2.83255 0.979106 0
M  V30 5115 H 474.968 -1.47643 0.664308 0
M  V30 5116 H 476.96 -3.81371 -1.35418 0
M  V30 5117 H 475.53 -2.75789 -1.47171 0
M  V30 5118 H 474.75 -3.86971 0.751468 0
M  V30 5119 H 476.038 -5.06268 0.506965 0
M  V30 5120 H 475.436 -4.9855 -2.67328 0
M  V30 5121 H 473.993 -5.91593 -2.73608 0
M  V30 5122 N 477.426 -0.562348 -1.47226 0
M  V30 5123 C 478.356 0.170627 -2.32876 0
M  V30 5124 C 479.337 0.903748 -1.44106 0
M  V30 5125 O 480.522 0.883206 -1.72954 0
M  V30 5126 C 477.652 1.19786 -3.25989 0
M  V30 5127 C 476.606 0.580875 -4.2404 0
M  V30 5128 C 475.932 1.71311 -5.06514 0
M  V30 5129 C 477.232 -0.468714 -5.20193 0
M  V30 5130 H 478.926 -0.544441 -2.94408 0
M  V30 5131 H 476.472 -0.263271 -1.41573 0
M  V30 5132 H 478.425 1.71884 -3.84752 0
M  V30 5133 H 477.149 1.94294 -2.62521 0
M  V30 5134 H 475.808 0.0811538 -3.6651 0
M  V30 5135 H 475.456 2.44736 -4.39447 0
M  V30 5136 H 475.156 1.30604 -5.72902 0
M  V30 5137 H 476.68 2.23725 -5.68137 0
M  V30 5138 H 478.094 -0.0336028 -5.7329 0
M  V30 5139 H 476.491 -0.794957 -5.94811 0
M  V30 5140 H 477.561 -1.36269 -4.65359 0
M  V30 5141 N 478.904 1.54736 -0.299062 0
M  V30 5142 C 480.134 2.04215 0.312992 0
M  V30 5143 C 480.542 1.17596 1.48215 0
M  V30 5144 O 479.885 0.193835 1.82674 0
M  V30 5145 C 479.947 3.49696 0.833862 0
M  V30 5146 C 479.611 4.56518 -0.20977 0
M  V30 5147 C 480.608 5.09442 -1.03756 0
M  V30 5148 C 478.293 5.01073 -0.35091 0
M  V30 5149 C 480.287 6.05459 -1.99244 0
M  V30 5150 C 477.974 5.9691 -1.30924 0
M  V30 5151 C 478.972 6.48987 -2.1285 0
M  V30 5152 O 478.66 7.42947 -3.07059 0
M  V30 5153 H 478.392 0.672128 0.0722494 0
M  V30 5154 H 480.946 2.00718 -0.436043 0
M  V30 5155 H 479.176 3.5051 1.63339 0
M  V30 5156 H 480.865 3.82381 1.36159 0
M  V30 5157 H 481.631 4.75816 -0.939376 0
M  V30 5158 H 477.51 4.60168 0.276813 0
M  V30 5159 H 481.054 6.46031 -2.63229 0
M  V30 5160 H 476.951 6.29953 -1.40815 0
M  V30 5161 H 477.719 7.60743 -3.02015 0
M  V30 5162 N 480.382 0.0267497 1.57577 0
M  V30 5163 C 481.312 -0.954308 2.13108 0
M  V30 5164 C 482.293 -1.34088 1.04663 0
M  V30 5165 O 483.478 -1.41992 1.32484 0
M  V30 5166 C 480.608 -2.23744 2.65624 0
M  V30 5167 C 479.562 -1.99168 3.78835 0
M  V30 5168 C 478.888 -3.33726 4.17769 0
M  V30 5169 C 480.188 -1.33277 5.0501 0
M  V30 5170 H 481.882 -0.491848 2.95332 0
M  V30 5171 H 479.428 -0.23514 1.42067 0
M  V30 5172 H 481.381 -2.92754 3.03106 0
M  V30 5173 H 480.105 -2.72151 1.80558 0
M  V30 5174 H 478.764 -1.32577 3.41788 0
M  V30 5175 H 478.412 -3.79888 3.29688 0
M  V30 5176 H 478.112 -3.18089 4.94058 0
M  V30 5177 H 479.636 -4.04008 4.57832 0
M  V30 5178 H 481.05 -1.92283 5.40093 0
M  V30 5179 H 479.447 -1.28045 5.8628 0
M  V30 5180 H 480.517 -0.305411 4.83937 0
M  V30 5181 N 481.861 -1.55662 -0.24637 0
M  V30 5182 C 482.771 -1.93495 -1.32653 0
M  V30 5183 C 483.787 -0.835462 -1.5263 0
M  V30 5184 O 484.963 -1.1369 -1.66242 0
M  V30 5185 C 482.028 -2.22242 -2.66101 0
M  V30 5186 C 481.089 -3.45625 -2.54641 0
M  V30 5187 C 480.322 -3.72991 -3.81724 0
M  V30 5188 O 480.545 -3.02421 -4.8363 0
M  V30 5189 O 479.479 -4.66515 -3.80325 0
M  V30 5190 H 483.305 -2.85498 -1.03559 0
M  V30 5191 H 480.89 -1.42551 -0.44717 0
M  V30 5192 H 482.772 -2.42037 -3.44958 0
M  V30 5193 H 481.447 -1.33417 -2.94926 0
M  V30 5194 H 480.354 -3.31136 -1.74067 0
M  V30 5195 H 481.687 -4.34754 -2.3076 0
M  V30 5196 N 483.339 0.512053 -1.4905 0
M  V30 5197 C 484.755 0.84224 -1.35567 0
M  V30 5198 C 484.955 1.97878 -0.380319 0
M  V30 5199 O 484.011 2.51769 0.19201 0
M  V30 5200 C 485.324 1.19286 -2.76028 0
M  V30 5201 C 486.872 1.30171 -2.84648 0
M  V30 5202 C 487.347 1.68568 -4.25851 0
M  V30 5203 N 488.838 1.75638 -4.28609 0
M  V30 5204 C 489.573 2.06769 -5.34821 0
M  V30 5205 N 489.069 2.36201 -6.51292 0
M  V30 5206 N 490.862 2.07927 -5.22229 0
M  V30 5207 H 483.013 -0.237574 -2.11067 0
M  V30 5208 H 485.276 -0.0436747 -0.946993 0
M  V30 5209 H 484.982 0.431199 -3.49047 0
M  V30 5210 H 484.856 2.13889 -3.10695 0
M  V30 5211 H 487.243 2.05411 -2.11873 0
M  V30 5212 H 487.324 0.336457 -2.53578 0
M  V30 5213 H 486.968 0.938824 -4.99148 0
M  V30 5214 H 486.898 2.66174 -4.54377 0
M  V30 5215 H 489.389 1.55097 -3.44606 0
M  V30 5216 H 489.702 2.59112 -7.28066 0
M  V30 5217 H 488.047 2.33681 -6.54536 0
M  V30 5218 H 491.238 1.84403 -4.30248 0
M  V30 5219 H 491.411 2.31856 -6.05101 0
M  V30 5220 N 484.817 1.37938 0.762283 0
M  V30 5221 C 486.063 1.33866 1.52341 0
M  V30 5222 C 486.396 -0.0738961 1.94059 0
M  V30 5223 O 485.671 -1.03326 1.64785 0
M  V30 5224 C 485.954 2.28644 2.78197 0
M  V30 5225 C 485.807 3.78722 2.42672 0
M  V30 5226 C 487.126 2.21702 3.80179 0
M  V30 5227 H 484.245 0.487593 0.55265 0
M  V30 5228 H 486.887 1.68717 0.873767 0
M  V30 5229 H 485.037 1.99055 3.33631 0
M  V30 5230 H 486.709 4.18948 1.93081 0
M  V30 5231 H 484.952 3.96827 1.75244 0
M  V30 5232 H 485.623 4.40486 3.3268 0
M  V30 5233 H 488.099 2.47805 3.34263 0
M  V30 5234 H 486.975 2.90143 4.65949 0
M  V30 5235 H 487.236 1.21301 4.25133 0
M  V30 5236 N 486.295 -0.989507 1.22664 0
M  V30 5237 C 487.225 -2.09847 1.02404 0
M  V30 5238 C 488.206 -1.70007 -0.0561303 0
M  V30 5239 O 489.391 -1.93906 0.106748 0
M  V30 5240 C 486.521 -3.41996 0.604663 0
M  V30 5241 C 485.475 -3.95699 1.63115 0
M  V30 5242 C 484.801 -5.23936 1.0675 0
M  V30 5243 C 486.101 -4.25999 3.02196 0
M  V30 5244 H 487.795 -2.27054 1.95158 0
M  V30 5245 H 485.341 -1.09111 0.939727 0
M  V30 5246 H 487.294 -4.1899 0.45002 0
M  V30 5247 H 486.018 -3.24626 -0.35855 0
M  V30 5248 H 484.677 -3.2084 1.77362 0
M  V30 5249 H 484.325 -5.02909 0.0955422 0
M  V30 5250 H 484.025 -5.60833 1.75328 0
M  V30 5251 H 485.549 -6.0356 0.924516 0
M  V30 5252 H 486.963 -4.93777 2.91303 0
M  V30 5253 H 485.36 -4.74076 3.67929 0
M  V30 5254 H 486.43 -3.33636 3.51873 0
M  V30 5255 N 487.773 -1.03688 -1.18687 0
M  V30 5256 C 488.72 -0.624624 -2.22187 0
M  V30 5257 C 489.69 0.365636 -1.62026 0
M  V30 5258 O 490.875 0.260481 -1.89014 0
M  V30 5259 C 488.015 0.0101738 -3.45099 0
M  V30 5260 C 487.128 -1.02709 -4.19613 0
M  V30 5261 C 486.263 -0.361213 -5.2997 0
M  V30 5262 C 485.302 -1.38384 -5.96252 0
M  V30 5263 N 484.439 -0.743196 -6.98155 0
M  V30 5264 H 489.279 -1.51176 -2.56807 0
M  V30 5265 H 486.816 -0.75636 -1.26165 0
M  V30 5266 H 488.774 0.395528 -4.15321 0
M  V30 5267 H 487.404 0.860848 -3.1111 0
M  V30 5268 H 486.456 -1.53043 -3.48256 0
M  V30 5269 H 487.768 -1.80398 -4.65036 0
M  V30 5270 H 486.922 0.0785537 -6.06649 0
M  V30 5271 H 485.661 0.447799 -4.8564 0
M  V30 5272 H 484.666 -1.83378 -5.18317 0
M  V30 5273 H 485.891 -2.19448 -6.42666 0
M  V30 5274 H 483.837 0.0455789 -6.55984 0
M  V30 5275 H 483.754 -1.45784 -7.41811 0
M  V30 5276 H 485.022 -0.327698 -7.78811 0
M  V30 5277 N 489.251 1.34841 -0.815825 0
M  V30 5278 C 490.499 1.98107 -0.399744 0
M  V30 5279 C 490.82 1.65019 1.03894 0
M  V30 5280 O 490.09 0.937311 1.72021 0
M  V30 5281 H 488.67 0.732827 -0.144823 0
M  V30 5282 H 491.332 1.64599 -1.0437 0
M  V30 5283 H 490.428 3.07856 -0.512965 0
M  V30 5284 N 490.729 0.570148 1.46925 0
M  V30 5285 C 492.006 -0.0153259 1.95594 0
M  V30 5286 C 492.386 -1.47232 1.51281 0
M  V30 5287 O 491.734 -2.15574 0.757624 0
M  V30 5288 C 491.944 0.143624 3.48704 0
M  V30 5289 C 493.292 0.00494484 4.246 0
M  V30 5290 O 494.316 0.0718214 3.56128 0
M  V30 5291 O 493.175 -0.141175 5.46318 0
M  V30 5292 H 490.269 -0.0568819 0.825041 0
M  V30 5293 H 492.815 0.637583 1.57267 0
M  V30 5294 H 491.587 1.15699 3.73804 0
M  V30 5295 H 491.21 -0.5463 3.93829 0
M  V30 5296 N 492.207 -1.54576 0.307264 0
M  V30 5297 C 493.453 -2.0056 -0.300612 0
M  V30 5298 C 493.786 -1.1953 -1.53057 0
M  V30 5299 O 493.061 -0.27337 -1.92569 0
M  V30 5300 C 493.344 -3.54167 -0.650987 0
M  V30 5301 C 493.197 -4.45933 0.588539 0
M  V30 5302 C 494.516 -4.14645 -1.47506 0
M  V30 5303 H 491.635 -0.729075 -0.107788 0
M  V30 5304 H 494.277 -1.85286 0.420606 0
M  V30 5305 H 492.427 -3.67313 -1.26544 0
M  V30 5306 H 494.099 -4.44683 1.22697 0
M  V30 5307 H 492.342 -4.16274 1.22058 0
M  V30 5308 H 493.013 -5.51189 0.299153 0
M  V30 5309 H 495.489 -4.04973 -0.955821 0
M  V30 5310 H 494.365 -5.22269 -1.68899 0
M  V30 5311 H 494.626 -3.66921 -2.4662 0
M  V30 5312 N 493.685 -0.035106 -1.57561 0
M  V30 5313 C 494.595 0.960295 -2.14046 0
M  V30 5314 C 495.611 1.3529 -1.0942 0
M  V30 5315 O 496.787 1.43309 -1.41508 0
M  V30 5316 C 493.852 2.22214 -2.66124 0
M  V30 5317 C 492.913 1.8894 -3.85487 0
M  V30 5318 C 492.146 3.09109 -4.35072 0
M  V30 5319 O 492.369 4.21963 -3.83802 0
M  V30 5320 O 491.303 2.91058 -5.26848 0
M  V30 5321 H 495.129 0.509983 -2.99387 0
M  V30 5322 H 492.714 0.185853 -1.48239 0
M  V30 5323 H 494.596 2.96279 -2.99661 0
M  V30 5324 H 493.271 2.66414 -1.83862 0
M  V30 5325 H 492.178 1.12241 -3.56865 0
M  V30 5326 H 493.511 1.49551 -4.6893 0
M  V30 5327 N 495.163 1.55791 0.238111 0
M  V30 5328 C 496.11 1.9105 1.29493 0
M  V30 5329 C 497.08 0.765733 1.47397 0
M  V30 5330 O 498.265 1.02017 1.61236 0
M  V30 5331 C 495.405 2.21826 2.64362 0
M  V30 5332 C 494.518 3.49153 2.54394 0
M  V30 5333 C 493.653 3.69455 3.81676 0
M  V30 5334 C 492.692 4.90353 3.66361 0
M  V30 5335 N 491.829 5.07131 4.85554 0
M  V30 5336 H 496.669 2.81172 0.987233 0
M  V30 5337 H 494.206 1.39179 0.476203 0
M  V30 5338 H 496.164 2.37675 3.4288 0
M  V30 5339 H 494.794 1.34897 2.93262 0
M  V30 5340 H 493.846 3.41587 1.67399 0
M  V30 5341 H 495.158 4.37818 2.38991 0
M  V30 5342 H 494.312 3.85311 4.68636 0
M  V30 5343 H 493.051 2.7904 3.99985 0
M  V30 5344 H 492.056 4.74464 2.77784 0
M  V30 5345 H 493.281 5.82237 3.49538 0
M  V30 5346 H 491.227 4.19654 5.04209 0
M  V30 5347 H 491.144 5.89899 4.72816 0
M  V30 5348 H 492.412 5.27407 5.73988 0
M  V30 5349 N 496.642 -0.504142 1.49319 0
M  V30 5350 C 497.572 -1.61473 1.68667 0
M  V30 5351 C 498.553 -1.61455 0.535378 0
M  V30 5352 O 499.738 -1.78245 0.770868 0
M  V30 5353 C 496.868 -2.99971 1.75028 0
M  V30 5354 C 495.822 -3.14854 2.89916 0
M  V30 5355 C 495.148 -4.54671 2.81387 0
M  V30 5356 C 496.448 -2.95176 4.30893 0
M  V30 5357 H 498.142 -1.45535 2.61648 0
M  V30 5358 H 495.688 -0.698711 1.25913 0
M  V30 5359 H 497.641 -3.77562 1.8715 0
M  V30 5360 H 496.365 -3.1699 0.786441 0
M  V30 5361 H 495.024 -2.39687 2.77391 0
M  V30 5362 H 494.672 -4.68562 1.82917 0
M  V30 5363 H 494.372 -4.6557 3.58494 0
M  V30 5364 H 495.896 -5.34327 2.95512 0
M  V30 5365 H 497.31 -3.62538 4.44116 0
M  V30 5366 H 495.707 -3.17549 5.09198 0
M  V30 5367 H 496.777 -1.91332 4.45556 0
M  V30 5368 N 498.12 -1.38341 -0.754957 0
M  V30 5369 C 499.345 -1.37882 -1.5493 0
M  V30 5370 C 499.77 0.0296385 -1.88077 0
M  V30 5371 O 499.128 1.01133 -1.50472 0
M  V30 5372 C 499.176 -2.23996 -2.82592 0
M  V30 5373 O 498.28 -1.65612 -3.77686 0
M  V30 5374 H 497.621 -0.470384 -0.468652 0
M  V30 5375 H 500.151 -1.82084 -0.933082 0
M  V30 5376 H 500.161 -2.37806 -3.3153 0
M  V30 5377 H 498.836 -3.26365 -2.57796 0
M  V30 5378 H 497.413 -1.60936 -3.36384 0
M  V30 5379 N 499.598 0.982988 -1.23187 0
M  V30 5380 C 500.545 2.07491 -1.01075 0
M  V30 5381 C 501.515 1.65949 0.070905 0
M  V30 5382 O 502.7 1.90629 -0.0806822 0
M  V30 5383 C 499.84 3.39751 -0.605261 0
M  V30 5384 C 498.953 3.94578 -1.75876 0
M  V30 5385 C 498.088 5.15039 -1.3003 0
M  V30 5386 C 497.127 5.62027 -2.42472 0
M  V30 5387 N 496.264 6.73719 -1.97602 0
M  V30 5388 H 501.104 2.25739 -1.9454 0
M  V30 5389 H 498.641 1.10659 -0.969179 0
M  V30 5390 H 500.599 4.15719 -0.351279 0
M  V30 5391 H 499.229 3.21473 0.292382 0
M  V30 5392 H 498.281 3.1539 -2.12681 0
M  V30 5393 H 499.593 4.25422 -2.60418 0
M  V30 5394 H 498.747 5.9833 -1.00429 0
M  V30 5395 H 497.486 4.85843 -0.425216 0
M  V30 5396 H 496.491 4.77318 -2.7285 0
M  V30 5397 H 497.716 5.93244 -3.30512 0
M  V30 5398 H 495.662 6.46287 -1.1247 0
M  V30 5399 H 495.579 7.03934 -2.75705 0
M  V30 5400 H 496.847 7.6049 -1.71098 0
M  V30 5401 N 501.076 1.04316 1.18135 0
M  V30 5402 C 502.323 0.74802 1.88178 0
M  V30 5403 C 502.651 -0.72441 1.80506 0
M  V30 5404 O 501.906 -1.54463 1.20165 0
M  V30 5405 C 502.205 1.16271 3.37958 0
M  V30 5406 C 501.871 2.63585 3.65833 0
M  V30 5407 C 500.533 3.03829 3.73151 0
M  V30 5408 C 502.885 3.58822 3.78016 0
M  V30 5409 C 500.213 4.38194 3.90132 0
M  V30 5410 C 502.565 4.92909 3.96514 0
M  V30 5411 C 501.229 5.3282 4.02068 0
M  V30 5412 H 500.499 0.27372 0.688592 0
M  V30 5413 H 503.146 1.30863 1.39811 0
M  V30 5414 H 501.451 0.520938 3.88321 0
M  V30 5415 H 503.148 0.911672 3.90499 0
M  V30 5416 H 499.738 2.31414 3.60757 0
M  V30 5417 H 503.922 3.28875 3.71692 0
M  V30 5418 H 499.178 4.68631 3.92677 0
M  V30 5419 H 503.352 5.66606 4.04883 0
M  V30 5420 H 500.979 6.36943 4.14979 0
M  V30 5421 N 502.554 -1.34406 0.822964 0
M  V30 5422 C 503.501 -2.29519 0.24284 0
M  V30 5423 C 504.471 -1.5359 -0.632397 0
M  V30 5424 O 505.656 -1.8196 -0.57403 0
M  V30 5425 C 502.796 -3.40032 -0.58925 0
M  V30 5426 C 501.909 -4.30899 0.308236 0
M  V30 5427 C 501.044 -5.28515 -0.533425 0
M  V30 5428 C 500.083 -6.1102 0.363444 0
M  V30 5429 N 499.22 -7.00725 -0.439147 0
M  V30 5430 H 504.06 -2.78537 1.05929 0
M  V30 5431 H 501.597 -1.3707 0.533872 0
M  V30 5432 H 503.555 -4.0279 -1.087 0
M  V30 5433 H 502.185 -2.92248 -1.37081 0
M  V30 5434 H 501.237 -3.69002 0.924203 0
M  V30 5435 H 502.549 -4.88717 0.997862 0
M  V30 5436 H 501.703 -5.96725 -1.09565 0
M  V30 5437 H 500.442 -4.71235 -1.25656 0
M  V30 5438 H 499.447 -5.41743 0.937812 0
M  V30 5439 H 500.672 -6.70381 1.08469 0
M  V30 5440 H 498.618 -6.45913 -1.14595 0
M  V30 5441 H 498.535 -7.55756 0.19209 0
M  V30 5442 H 499.803 -7.73263 -0.984124 0
M  V30 5443 N 504.032 -0.577932 -1.46621 0
M  V30 5444 C 505.281 -0.0594281 -2.01612 0
M  V30 5445 C 505.594 1.30663 -1.45556 0
M  V30 5446 O 506.8 1.91621 -1.92337 0
M  V30 5447 C 505.256 -0.0556666 -3.59857 0
M  V30 5448 C 504.864 -1.41975 -4.24908 0
M  V30 5449 C 506.608 0.409143 -4.22524 0
M  V30 5450 C 504.515 -1.37397 -5.75218 0
M  V30 5451 H 503.445 -0.0184469 -0.753774 0
M  V30 5452 H 506.096 -0.728869 -1.68404 0
M  V30 5453 H 504.478 0.679843 -3.90121 0
M  V30 5454 H 505.652 -2.17461 -4.0626 0
M  V30 5455 H 503.967 -1.82419 -3.74316 0
M  V30 5456 H 506.564 0.46211 -5.32699 0
M  V30 5457 H 506.907 1.42565 -3.91128 0
M  V30 5458 H 507.44 -0.272152 -3.96868 0
M  V30 5459 H 504.179 -2.36714 -6.11267 0
M  V30 5460 H 503.699 -0.661239 -5.96144 0
M  V30 5461 H 505.378 -1.08484 -6.3784 0
M  V30 5462 N 505.51 1.54411 -0.315457 0
M  V30 5463 C 506.926 1.59556 0.037464 0
M  V30 5464 C 507.126 1.33217 1.5118 0
M  V30 5465 O 506.182 1.11264 2.26664 0
M  V30 5466 C 507.495 2.98372 -0.373477 0
M  V30 5467 C 509.043 3.11324 -0.323452 0
M  V30 5468 C 509.518 4.52472 -0.709433 0
M  V30 5469 N 511.009 4.58437 -0.662524 0
M  V30 5470 C 511.744 5.65751 -0.933474 0
M  V30 5471 N 511.24 6.81039 -1.27114 0
M  V30 5472 N 513.033 5.55489 -0.859573 0
M  V30 5473 H 505.184 1.6979 -1.27614 0
M  V30 5474 H 507.447 0.793732 -0.518356 0
M  V30 5475 H 507.153 3.22618 -1.40037 0
M  V30 5476 H 507.027 3.76264 0.265615 0
M  V30 5477 H 509.414 2.86818 0.694223 0
M  V30 5478 H 509.495 2.35555 -0.997367 0
M  V30 5479 H 509.139 4.7771 -1.72498 0
M  V30 5480 H 509.069 5.26598 -0.0132923 0
M  V30 5481 H 511.56 3.75636 -0.413065 0
M  V30 5482 H 511.873 7.58816 -1.46348 0
M  V30 5483 H 510.218 6.82555 -1.30932 0
M  V30 5484 H 513.409 4.64299 -0.595324 0
M  V30 5485 H 513.582 6.39036 -1.0741 0
M  V30 5486 N 506.988 0.0434614 1.5754 0
M  V30 5487 C 508.237 -0.631454 1.91561 0
M  V30 5488 C 508.55 -1.72457 0.92292 0
M  V30 5489 O 509.756 -2.45712 1.15489 0
M  V30 5490 C 508.212 -1.17447 3.40197 0
M  V30 5491 C 507.82 -0.113867 4.47855 0
M  V30 5492 C 509.564 -1.82507 3.83264 0
M  V30 5493 C 507.471 -0.669326 5.876 0
M  V30 5494 H 506.401 -0.239629 0.714908 0
M  V30 5495 H 509.052 0.111097 1.83163 0
M  V30 5496 H 507.434 -1.96909 3.43574 0
M  V30 5497 H 508.608 0.659348 4.56058 0
M  V30 5498 H 506.923 0.438821 4.14081 0
M  V30 5499 H 509.52 -2.25047 4.85034 0
M  V30 5500 H 509.863 -2.67365 3.19095 0
M  V30 5501 H 510.396 -1.09712 3.82372 0
M  V30 5502 H 507.135 0.141449 6.55347 0
M  V30 5503 H 506.655 -1.4107 5.82974 0
M  V30 5504 H 508.334 -1.15463 6.36614 0
M  V30 5505 N 508.466 -1.55915 -0.229846 0
M  V30 5506 C 509.376 -1.94891 -1.30593 0
M  V30 5507 C 510.392 -0.851604 -1.51736 0
M  V30 5508 O 511.568 -1.15447 -1.65027 0
M  V30 5509 C 508.633 -2.25052 -2.63728 0
M  V30 5510 C 507.694 -3.48306 -2.5096 0
M  V30 5511 C 506.927 -3.77019 -3.77747 0
M  V30 5512 O 507.15 -3.07534 -4.80395 0
M  V30 5513 O 506.084 -4.70523 -3.75356 0
M  V30 5514 H 509.91 -2.86581 -1.00525 0
M  V30 5515 H 507.495 -1.43017 -0.432025 0
M  V30 5516 H 509.377 -2.45682 -3.42372 0
M  V30 5517 H 508.052 -1.36538 -2.93495 0
M  V30 5518 H 506.959 -3.32964 -1.70546 0
M  V30 5519 H 508.292 -4.37177 -2.26136 0
M  V30 5520 N 509.944 0.496216 -1.49584 0
M  V30 5521 C 511.221 1.25755 -1.49816 0
M  V30 5522 C 511.601 2.09859 -0.228572 0
M  V30 5523 O 510.949 2.14449 0.788908 0
M  V30 5524 C 511.159 2.11017 -2.7798 0
M  V30 5525 C 512.507 2.70047 -3.27658 0
M  V30 5526 O 513.531 2.21281 -2.79129 0
M  V30 5527 O 512.39 3.58834 -4.1219 0
M  V30 5528 H 509.484 0.569322 -0.599834 0
M  V30 5529 H 512.03 0.510094 -1.61852 0
M  V30 5530 H 510.802 1.48879 -3.61871 0
M  V30 5531 H 510.425 2.92947 -2.68827 0
M  V30 5532 N 511.423 1.38739 0.74761 0
M  V30 5533 C 512.834 1.31507 1.32524 0
M  V30 5534 C 513.185 -0.0263963 1.96182 0
M  V30 5535 O 512.31 -0.92849 1.95469 0
M  V30 5536 C 512.905 2.38162 2.40966 0
M  V30 5537 C 511.464 2.34489 2.94434 0
M  V30 5538 C 510.611 2.20712 1.67873 0
M  V30 5539 H 513.562 1.4901 0.546043 0
M  V30 5540 H 513.583 2.04222 3.21051 0
M  V30 5541 H 513.095 3.35783 1.94605 0
M  V30 5542 H 511.196 1.40467 3.45108 0
M  V30 5543 H 511.309 3.28861 3.48407 0
M  V30 5544 H 509.673 1.67667 1.91729 0
M  V30 5545 H 510.456 3.20285 1.23582 0
M  V30 5546 N 512.901 -0.976442 1.23707 0
M  V30 5547 C 514.312 -1.53284 1.06587 0
M  V30 5548 C 514.663 -1.92765 -0.365526 0
M  V30 5549 O 513.788 -1.7645 -1.25277 0
M  V30 5550 C 514.383 -2.78548 1.92864 0
M  V30 5551 C 512.942 -3.30574 1.79994 0
M  V30 5552 C 512.089 -2.03538 1.88328 0
M  V30 5553 H 515.04 -0.795692 1.37311 0
M  V30 5554 H 515.061 -3.5155 1.45577 0
M  V30 5555 H 514.573 -2.49782 2.97037 0
M  V30 5556 H 512.674 -3.64211 0.786202 0
M  V30 5557 H 512.787 -4.00065 2.636 0
M  V30 5558 H 511.151 -2.17853 1.31954 0
M  V30 5559 H 511.934 -1.77149 2.94063 0
M  V30 5560 N 514.379 -1.04941 -1.1758 0
M  V30 5561 C 515.795 -0.770282 -1.39781 0
M  V30 5562 C 515.995 0.636417 -1.91186 0
M  V30 5563 O 515.051 1.39923 -2.10185 0
M  V30 5564 C 516.364 -1.82376 -2.3908 0
M  V30 5565 C 517.912 -1.84569 -2.52791 0
M  V30 5566 C 518.387 -2.88933 -3.55361 0
M  V30 5567 N 519.878 -2.8788 -3.62877 0
M  V30 5568 C 520.613 -3.65282 -4.41992 0
M  V30 5569 N 520.109 -4.52461 -5.24643 0
M  V30 5570 N 521.902 -3.53732 -4.36841 0
M  V30 5571 H 514.053 -1.95705 -0.825438 0
M  V30 5572 H 516.316 -0.847284 -0.425222 0
M  V30 5573 H 516.022 -2.83323 -2.08376 0
M  V30 5574 H 515.896 -1.66327 -3.38549 0
M  V30 5575 H 518.283 -0.842879 -2.82807 0
M  V30 5576 H 518.364 -2.04696 -1.53406 0
M  V30 5577 H 518.008 -3.89398 -3.26085 0
M  V30 5578 H 517.938 -2.66059 -4.54445 0
M  V30 5579 H 520.429 -2.24666 -3.03864 0
M  V30 5580 H 520.742 -5.08211 -5.82187 0
M  V30 5581 H 519.087 -4.56524 -5.24033 0
M  V30 5582 H 522.278 -2.85021 -3.71323 0
M  V30 5583 H 522.451 -4.14302 -4.98255 0
M  V30 5584 N 515.857 1.33968 -0.830081 0
M  V30 5585 C 517.273 1.51003 -0.516742 0
M  V30 5586 C 517.473 1.77286 0.957694 0
M  V30 5587 O 516.529 1.82797 1.74188 0
M  V30 5588 C 517.842 2.67036 -1.38247 0
M  V30 5589 C 519.39 2.80919 -1.38034 0
M  V30 5590 C 519.865 4.00004 -2.23071 0
M  V30 5591 N 521.356 4.07224 -2.20733 0
M  V30 5592 C 522.091 4.98541 -2.83275 0
M  V30 5593 N 521.587 5.95033 -3.54835 0
M  V30 5594 N 523.38 4.91469 -2.72791 0
M  V30 5595 H 515.531 1.15168 -1.78466 0
M  V30 5596 H 517.794 0.565443 -0.760906 0
M  V30 5597 H 517.5 2.54266 -2.42985 0
M  V30 5598 H 517.374 3.62226 -1.05225 0
M  V30 5599 H 519.761 2.93127 -0.340713 0
M  V30 5600 H 519.842 1.86517 -1.75057 0
M  V30 5601 H 519.486 3.88557 -3.27087 0
M  V30 5602 H 519.416 4.93634 -1.83394 0
M  V30 5603 H 521.907 3.38162 -1.68687 0
M  V30 5604 H 522.22 6.61357 -3.99784 0
M  V30 5605 H 520.565 5.95135 -3.58942 0
M  V30 5606 H 523.756 4.15048 -2.16456 0
M  V30 5607 H 523.929 5.62439 -3.21818 0
M  V30 5608 N 517.335 0.585699 1.46312 0
M  V30 5609 C 518.282 -0.145835 2.30339 0
M  V30 5610 C 519.252 -0.881215 1.40797 0
M  V30 5611 O 520.437 -0.871293 1.69744 0
M  V30 5612 C 517.577 -1.15161 3.25318 0
M  V30 5613 C 516.69 -0.419367 4.2996 0
M  V30 5614 C 515.825 -1.41293 5.12064 0
M  V30 5615 C 514.864 -0.667261 6.08452 0
M  V30 5616 N 514.001 -1.60903 6.83414 0
M  V30 5617 H 518.841 0.576755 2.92365 0
M  V30 5618 H 516.378 0.296237 1.44086 0
M  V30 5619 H 518.336 -1.74763 3.78832 0
M  V30 5620 H 516.966 -1.84188 2.65094 0
M  V30 5621 H 516.018 0.291751 3.7928 0
M  V30 5622 H 517.33 0.163433 4.98532 0
M  V30 5623 H 516.484 -2.08167 5.6987 0
M  V30 5624 H 515.223 -2.02966 4.43459 0
M  V30 5625 H 514.228 0.0152356 5.49798 0
M  V30 5626 H 515.453 -0.0558817 6.79077 0
M  V30 5627 H 513.399 -2.21381 6.17516 0
M  V30 5628 H 513.316 -1.07911 7.48259 0
M  V30 5629 H 514.584 -2.26802 7.45775 0
M  V30 5630 N 518.813 -1.54241 0.323641 0
M  V30 5631 C 519.763 -2.21071 -0.557833 0
M  V30 5632 C 520.747 -1.19126 -1.08157 0
M  V30 5633 O 521.939 -1.44755 -1.01857 0
M  V30 5634 C 519.068 -2.97208 -1.71821 0
M  V30 5635 C 518.154 -4.06491 -1.20936 0
M  V30 5636 N 518.545 -5.04052 -0.420202 0
M  V30 5637 C 516.843 -4.20443 -1.48808 0
M  V30 5638 C 517.544 -5.81516 -0.146413 0
M  V30 5639 N 516.52 -5.38641 -0.732562 0
M  V30 5640 H 520.322 -2.93853 0.0523921 0
M  V30 5641 H 517.836 -1.61883 0.129502 0
M  V30 5642 H 519.833 -3.4357 -2.36146 0
M  V30 5643 H 518.493 -2.25947 -2.33191 0
M  V30 5644 H 519.504 -5.17862 -0.0630401 0
M  V30 5645 H 516.181 -3.60396 -2.10762 0
M  V30 5646 H 517.571 -6.70119 0.488895 0
M  V30 5647 N 520.291 -0.0518155 -1.57515 0
M  V30 5648 C 521.224 0.957758 -2.07129 0
M  V30 5649 C 522.202 1.30355 -0.971927 0
M  V30 5650 O 523.386 1.41631 -1.2439 0
M  V30 5651 C 520.513 2.27157 -2.51232 0
M  V30 5652 C 519.559 2.07879 -3.72409 0
M  V30 5653 S 520.392 1.35656 -5.18033 0
M  V30 5654 C 521.548 2.68359 -5.65451 0
M  V30 5655 H 521.781 0.53552 -2.92437 0
M  V30 5656 H 519.314 0.160465 -1.53564 0
M  V30 5657 H 521.272 3.02676 -2.77304 0
M  V30 5658 H 519.933 2.66509 -1.66228 0
M  V30 5659 H 519.126 3.05061 -4.01191 0
M  V30 5660 H 518.728 1.40499 -3.46606 0
M  V30 5661 H 521.02 3.64526 -5.71076 0
M  V30 5662 H 521.963 2.44213 -6.64654 0
M  V30 5663 H 522.371 2.74647 -4.93183 0
M  V30 5664 N 521.769 1.56035 0.221574 0
M  V30 5665 C 523.015 1.79312 0.947372 0
M  V30 5666 C 523.348 0.621453 1.83988 0
M  V30 5667 O 522.623 -0.379287 1.90766 0
M  V30 5668 C 522.906 3.1267 1.78633 0
M  V30 5669 C 522.759 4.40284 0.920312 0
M  V30 5670 C 524.078 3.4247 2.7641 0
M  V30 5671 H 521.197 0.652328 0.342982 0
M  V30 5672 H 523.839 1.88765 0.216244 0
M  V30 5673 H 521.989 3.04741 2.40967 0
M  V30 5674 H 523.661 4.60232 0.313718 0
M  V30 5675 H 521.904 4.33212 0.225734 0
M  V30 5676 H 522.575 5.30033 1.54171 0
M  V30 5677 H 525.051 3.50526 2.24211 0
M  V30 5678 H 523.927 4.3695 3.32213 0
M  V30 5679 H 524.188 2.64635 3.54148 0
M  V30 5680 N 523.247 -0.488276 1.49845 0
M  V30 5681 C 524.494 -1.24157 1.59973 0
M  V30 5682 C 524.822 -1.92293 0.292182 0
M  V30 5683 O 524.077 -1.81942 -0.720813 0
M  V30 5684 C 524.376 -2.32152 2.71735 0
M  V30 5685 C 524.042 -1.81387 4.12807 0
M  V30 5686 C 522.704 -1.67262 4.51195 0
M  V30 5687 C 525.056 -1.43537 5.01045 0
M  V30 5688 C 522.384 -1.13685 5.7558 0
M  V30 5689 C 524.736 -0.914081 6.25961 0
M  V30 5690 C 523.4 -0.759327 6.63167 0
M  V30 5691 H 522.67 -0.454322 0.585383 0
M  V30 5692 H 525.317 -0.540261 1.83721 0
M  V30 5693 H 523.622 -3.08122 2.42008 0
M  V30 5694 H 525.319 -2.90164 2.76778 0
M  V30 5695 H 521.909 -1.93344 3.82513 0
M  V30 5696 H 526.093 -1.53292 4.72033 0
M  V30 5697 H 521.349 -1.00426 6.03096 0
M  V30 5698 H 525.523 -0.612066 6.93705 0
M  V30 5699 H 523.15 -0.342002 7.5943 0
M  V30 5700 N 524.725 -1.39134 -0.740242 0
M  V30 5701 C 525.655 -1.40165 -1.86751 0
M  V30 5702 C 526.636 -0.265708 -1.68012 0
M  V30 5703 O 527.821 -0.47076 -1.88408 0
M  V30 5704 C 524.951 -1.2392 -3.2444 0
M  V30 5705 C 523.905 -2.34858 -3.57807 0
M  V30 5706 C 523.231 -2.03707 -4.94376 0
M  V30 5707 C 524.531 -3.77159 -3.61315 0
M  V30 5708 H 526.225 -2.345 -1.86145 0
M  V30 5709 H 523.771 -1.12875 -0.89416 0
M  V30 5710 H 525.724 -1.23263 -4.02969 0
M  V30 5711 H 524.448 -0.26051 -3.25559 0
M  V30 5712 H 523.107 -2.34723 -2.81604 0
M  V30 5713 H 522.755 -1.04289 -4.9207 0
M  V30 5714 H 522.455 -2.78016 -5.17669 0
M  V30 5715 H 523.979 -2.04691 -5.75268 0
M  V30 5716 H 525.393 -3.79252 -4.29931 0
M  V30 5717 H 523.79 -4.50784 -3.96124 0
M  V30 5718 H 524.86 -4.08513 -2.61238 0
M  V30 5719 N 526.204 0.969867 -1.24223 0
M  V30 5720 C 527.452 1.70918 -1.0785 0
M  V30 5721 C 527.773 1.91186 0.383763 0
M  V30 5722 O 527.043 1.48806 1.27411 0
M  V30 5723 H 525.623 0.633334 -0.396103 0
M  V30 5724 H 528.285 1.16689 -1.56108 0
M  V30 5725 H 527.381 2.69455 -1.57482 0
M  V30 5726 N 527.682 1.05563 1.17022 0
M  V30 5727 C 528.93 0.76642 1.87004 0
M  V30 5728 C 529.251 -0.708854 1.8166 0
M  V30 5729 O 528.521 -1.51242 1.2451 0
M  V30 5730 H 527.101 0.280516 0.692329 0
M  V30 5731 H 529.763 1.33557 1.41945 0
M  V30 5732 H 528.859 1.08472 2.92644 0
M  V30 5733 N 529.16 -1.33526 0.837174 0
M  V30 5734 C 530.123 -2.27551 0.274421 0
M  V30 5735 C 531.123 -1.50886 -0.555881 0
M  V30 5736 O 532.313 -1.70227 -0.369918 0
M  V30 5737 C 529.445 -3.35332 -0.613605 0
M  V30 5738 H 530.638 -2.78837 1.10408 0
M  V30 5739 H 528.191 -1.439 0.610126 0
M  V30 5740 H 528.926 -2.89285 -1.46577 0
M  V30 5741 H 528.711 -3.92095 -0.0195341 0
M  V30 5742 H 530.201 -4.05433 -1.00068 0
M  V30 5743 N 530.638 -0.59345 -1.46 0
M  V30 5744 C 531.884 -0.0832754 -2.02629 0
M  V30 5745 C 532.217 1.27749 -1.46266 0
M  V30 5746 O 531.492 1.8395 -0.631866 0
M  V30 5747 C 531.775 -0.0290756 -3.60088 0
M  V30 5748 C 531.628 -1.41951 -4.26814 0
M  V30 5749 C 532.947 0.666055 -4.35031 0
M  V30 5750 H 530.066 -0.031736 -0.736316 0
M  V30 5751 H 532.708 -0.762711 -1.74019 0
M  V30 5752 H 530.858 0.549532 -3.84594 0
M  V30 5753 H 532.53 -2.04411 -4.13538 0
M  V30 5754 H 530.773 -1.98422 -3.8576 0
M  V30 5755 H 531.444 -1.33395 -5.3564 0
M  V30 5756 H 533.92 0.174401 -4.15734 0
M  V30 5757 H 532.796 0.673041 -5.44758 0
M  V30 5758 H 533.057 1.72946 -4.06869 0
M  V30 5759 N 532.116 1.54067 -0.331816 0
M  V30 5760 C 533.046 2.27569 0.522932 0
M  V30 5761 C 534.027 1.28679 1.11247 0
M  V30 5762 O 535.212 1.57504 1.13605 0
M  V30 5763 C 532.342 3.0397 1.67987 0
M  V30 5764 C 531.296 4.10267 1.21924 0
M  V30 5765 C 530.622 4.74555 2.46377 0
M  V30 5766 C 531.922 5.21268 0.32815 0
M  V30 5767 H 533.616 2.99264 -0.0901977 0
M  V30 5768 H 531.162 1.4393 -0.044821 0
M  V30 5769 H 533.115 3.54123 2.28418 0
M  V30 5770 H 531.839 2.29906 2.31971 0
M  V30 5771 H 530.498 3.61009 0.637809 0
M  V30 5772 H 530.146 3.97098 3.08743 0
M  V30 5773 H 529.846 5.46363 2.16243 0
M  V30 5774 H 531.37 5.27487 3.07555 0
M  V30 5775 H 532.784 5.67128 0.838978 0
M  V30 5776 H 531.181 5.99982 0.119228 0
M  V30 5777 H 532.251 4.80673 -0.638839 0
M  V30 5778 N 533.594 0.0601682 1.57485 0
M  V30 5779 C 534.557 -0.896373 2.10945 0
M  V30 5780 C 535.557 -1.23402 1.03095 0
M  V30 5781 O 536.747 -1.16921 1.29132 0
M  V30 5782 C 533.879 -2.20346 2.60116 0
M  V30 5783 H 535.072 -0.432778 2.96761 0
M  V30 5784 H 532.625 -0.188372 1.55161 0
M  V30 5785 H 533.36 -2.71268 1.7772 0
M  V30 5786 H 533.145 -1.9714 3.38937 0
M  V30 5787 H 534.635 -2.88846 3.01592 0
M  V30 5788 N 535.072 -1.5615 -0.213296 0
M  V30 5789 C 536.349 -1.70349 -0.961281 0
M  V30 5790 C 536.729 -0.609791 -2.02101 0
M  V30 5791 O 536.077 0.381987 -2.25285 0
M  V30 5792 C 536.287 -3.11982 -1.56424 0
M  V30 5793 C 537.635 -3.71649 -2.05334 0
M  V30 5794 O 538.659 -3.14995 -1.66302 0
M  V30 5795 O 537.518 -4.71038 -2.77102 0
M  V30 5796 H 534.612 -0.694121 -0.449582 0
M  V30 5797 H 537.158 -1.68464 -0.204426 0
M  V30 5798 H 535.93 -3.83046 -0.799457 0
M  V30 5799 H 535.553 -3.18019 -2.38641 0
M  V30 5800 N 536.55 0.480323 -1.50102 0
M  V30 5801 C 537.799 1.22979 -1.59872 0
M  V30 5802 C 538.112 1.93282 -0.30022 0
M  V30 5803 O 539.318 2.70086 -0.276709 0
M  V30 5804 C 537.774 2.23408 -2.82164 0
M  V30 5805 C 537.382 1.5895 -4.18854 0
M  V30 5806 C 539.126 2.99055 -3.01275 0
M  V30 5807 C 537.033 2.57611 -5.32344 0
M  V30 5808 H 535.963 0.462707 -0.59533 0
M  V30 5809 H 538.614 0.501291 -1.7652 0
M  V30 5810 H 536.996 2.99511 -2.59055 0
M  V30 5811 H 538.17 0.887 -4.52182 0
M  V30 5812 H 536.485 0.956191 -4.05273 0
M  V30 5813 H 539.082 3.72876 -3.83233 0
M  V30 5814 H 539.425 3.57897 -2.12639 0
M  V30 5815 H 539.958 2.30066 -3.24522 0
M  V30 5816 H 536.697 2.03521 -6.23105 0
M  V30 5817 H 536.217 3.26041 -5.03445 0
M  V30 5818 H 537.896 3.19627 -5.62537 0
M  V30 5819 N 538.028 1.39524 0.732853 0
M  V30 5820 C 538.961 1.32806 1.85574 0
M  V30 5821 C 539.939 0.201354 1.61348 0
M  V30 5822 O 541.123 0.38216 1.84585 0
M  V30 5823 C 538.25 1.06271 3.21596 0
M  V30 5824 C 537.296 2.21161 3.64678 0
M  V30 5825 S 538.129 3.83454 3.73796 0
M  V30 5826 C 539.285 3.59149 5.12604 0
M  V30 5827 H 539.518 2.27838 1.9099 0
M  V30 5828 H 537.051 1.25605 0.897927 0
M  V30 5829 H 539.009 0.916461 4.00139 0
M  V30 5830 H 537.67 0.129223 3.13834 0
M  V30 5831 H 536.863 1.98193 4.63396 0
M  V30 5832 H 536.465 2.32 2.93346 0
M  V30 5833 H 538.757 3.16547 5.99003 0
M  V30 5834 H 539.7 4.57335 5.40602 0
M  V30 5835 H 540.108 2.93203 4.82382 0
M  V30 5836 N 539.506 -0.963266 1.24736 0
M  V30 5837 C 540.453 -2.05857 1.04363 0
M  V30 5838 C 541.423 -1.6604 -0.0444951 0
M  V30 5839 O 542.608 -1.90477 0.110999 0
M  V30 5840 C 539.748 -3.38745 0.659235 0
M  V30 5841 C 538.861 -3.9173 1.82131 0
M  V30 5842 C 537.996 -5.12906 1.38208 0
M  V30 5843 C 537.035 -5.58098 2.51382 0
M  V30 5844 N 536.172 -6.7049 2.08295 0
M  V30 5845 H 541.012 -2.22616 1.98107 0
M  V30 5846 H 538.549 -1.09103 0.986661 0
M  V30 5847 H 540.507 -4.15107 0.417371 0
M  V30 5848 H 539.137 -3.21898 -0.241201 0
M  V30 5849 H 538.189 -3.11966 2.17672 0
M  V30 5850 H 539.501 -4.21225 2.67153 0
M  V30 5851 H 538.655 -5.96657 1.09935 0
M  V30 5852 H 537.394 -4.85105 0.502456 0
M  V30 5853 H 536.399 -4.72917 2.80409 0
M  V30 5854 H 537.624 -5.87911 3.39909 0
M  V30 5855 H 535.57 -6.44416 1.22737 0
M  V30 5856 H 535.487 -6.99458 2.86869 0
M  V30 5857 H 536.755 -7.57672 1.83175 0
M  V30 5858 N 540.985 -1.06182 -1.16461 0
M  V30 5859 C 542.262 -0.691364 -1.82974 0
M  V30 5860 C 542.642 0.827377 -1.9421 0
M  V30 5861 O 541.99 1.73723 -1.48434 0
M  V30 5862 C 542.2 -1.39199 -3.20038 0
M  V30 5863 C 543.548 -1.53647 -3.95825 0
M  V30 5864 O 544.572 -1.35181 -3.29552 0
M  V30 5865 O 543.431 -1.83932 -5.14618 0
M  V30 5866 H 540.525 -0.244605 -0.789998 0
M  V30 5867 H 543.071 -1.16203 -1.23673 0
M  V30 5868 H 541.843 -2.42766 -3.06888 0
M  V30 5869 H 541.466 -0.911335 -3.87015 0
M  V30 5870 N 542.463 1.3308 -0.844243 0
M  V30 5871 C 543.41 2.29104 -0.279323 0
M  V30 5872 C 544.38 1.54577 0.607882 0
M  V30 5873 O 545.565 1.8285 0.545009 0
M  V30 5874 C 542.705 3.40927 0.53508 0
M  V30 5875 C 541.818 4.30354 -0.376749 0
M  V30 5876 C 540.953 5.29297 0.449276 0
M  V30 5877 C 539.992 6.10365 -0.460606 0
M  V30 5878 N 539.129 7.01335 0.327612 0
M  V30 5879 H 543.969 2.76817 -1.10346 0
M  V30 5880 H 541.506 1.36203 -0.555611 0
M  V30 5881 H 543.464 4.04469 1.02278 0
M  V30 5882 H 542.094 2.94391 1.32414 0
M  V30 5883 H 541.146 3.67485 -0.982791 0
M  V30 5884 H 542.458 4.87067 -1.07549 0
M  V30 5885 H 541.612 5.98392 1.00058 0
M  V30 5886 H 540.351 4.73174 1.18143 0
M  V30 5887 H 539.356 5.40182 -1.02388 0
M  V30 5888 H 540.581 6.68571 -1.1912 0
M  V30 5889 H 538.527 6.47655 1.04305 0
M  V30 5890 H 538.444 7.55355 -0.3123 0
M  V30 5891 H 539.712 7.74731 0.86098 0
M  V30 5892 N 543.941 0.601185 1.45683 0
M  V30 5893 C 545.218 0.0261659 1.95582 0
M  V30 5894 C 545.598 -1.4399 1.5437 0
M  V30 5895 O 544.946 -2.13919 0.80318 0
M  V30 5896 C 545.156 0.217557 3.48321 0
M  V30 5897 C 546.504 0.0950076 4.24494 0
M  V30 5898 O 547.528 0.147345 3.55895 0
M  V30 5899 O 546.387 -0.025261 5.46494 0
M  V30 5900 H 543.481 -0.0393688 0.826062 0
M  V30 5901 H 546.027 0.670798 1.55879 0
M  V30 5902 H 544.799 1.23601 3.71266 0
M  V30 5903 H 544.422 -0.46264 3.94899 0
M  V30 5904 N 545.419 -1.53889 0.339982 0
M  V30 5905 C 546.367 -2.26391 -0.533822 0
M  V30 5906 C 547.361 -1.28404 -1.10493 0
M  V30 5907 O 548.567 -1.46124 -1.05108 0
M  V30 5908 H 544.942 -0.727385 -0.190828 0
M  V30 5909 H 546.913 -2.98233 0.0997484 0
M  V30 5910 C 545.662 -3.04707 -1.67479 0
M  V30 5911 H 544.985 -3.79934 -1.2446 0
M  V30 5912 H 546.425 -3.58657 -2.26144 0
M  V30 5913 C 544.884 -2.13989 -2.60212 0
M  V30 5914 O 545.414 -1.73361 -3.62366 0
M  V30 5915 N 543.62 -1.79141 -2.28816 0
M  V30 5916 H 543.167 -2.12378 -1.45785 0
M  V30 5917 H 543.125 -1.18725 -2.91121 0
M  V30 5918 N 546.897 -0.0685191 -1.57451 0
M  V30 5919 C 548.144 0.601348 -1.93365 0
M  V30 5920 C 548.472 1.69816 -0.948294 0
M  V30 5921 O 547.727 1.95666 0.0366199 0
M  V30 5922 C 548.026 1.22051 -3.35914 0
M  V30 5923 C 547.692 0.250165 -4.50205 0
M  V30 5924 C 546.354 -0.0167954 -4.81197 0
M  V30 5925 C 548.706 -0.413867 -5.19554 0
M  V30 5926 C 546.034 -0.95493 -5.78876 0
M  V30 5927 C 548.386 -1.3403 -6.18238 0
M  V30 5928 C 547.05 -1.61576 -6.47649 0
M  V30 5929 H 546.32 0.220049 -0.707573 0
M  V30 5930 H 548.967 -0.138697 -1.90997 0
M  V30 5931 H 547.272 2.03622 -3.34732 0
M  V30 5932 H 548.969 1.74605 -3.6099 0
M  V30 5933 H 545.559 0.468421 -4.26033 0
M  V30 5934 H 549.743 -0.220733 -4.95809 0
M  V30 5935 H 544.999 -1.17563 -5.99991 0
M  V30 5936 H 549.173 -1.86081 -6.71079 0
M  V30 5937 H 546.8 -2.34431 -7.2315 0
M  V30 5938 N 548.375 1.56261 0.205012 0
M  V30 5939 C 549.621 1.81211 0.923805 0
M  V30 5940 C 549.976 0.644065 1.813 0
M  V30 5941 O 549.269 -0.361208 1.88164 0
M  V30 5942 C 549.463 3.09722 1.78345 0
M  V30 5943 C 549.292 4.38915 0.978979 0
M  V30 5944 C 548.062 5.00874 0.667332 0
M  V30 5945 C 550.26 5.13199 0.336386 0
M  V30 5946 N 548.242 6.137 -0.156814 0
M  V30 5947 C 549.613 6.19009 -0.350402 0
M  V30 5948 C 551.668 4.97266 0.251101 0
M  V30 5949 C 550.371 7.10616 -1.11434 0
M  V30 5950 C 552.397 5.89288 -0.499413 0
M  V30 5951 C 551.759 6.94536 -1.17468 0
M  V30 5952 H 547.858 0.714528 0.317764 0
M  V30 5953 H 550.442 1.93738 0.193317 0
M  V30 5954 H 548.613 2.98448 2.48563 0
M  V30 5955 H 550.345 3.22798 2.44098 0
M  V30 5956 H 547.1 4.63151 0.989366 0
M  V30 5957 H 547.524 6.74695 -0.558206 0
M  V30 5958 H 552.166 4.15935 0.758823 0
M  V30 5959 H 549.884 7.91417 -1.63353 0
M  V30 5960 H 553.47 5.79034 -0.566627 0
M  V30 5961 H 552.35 7.64513 -1.74613 0
M  V30 5962 N 549.853 -0.472356 1.50355 0
M  V30 5963 C 550.786 -1.58923 1.63764 0
M  V30 5964 C 551.764 -1.55173 0.485793 0
M  V30 5965 O 552.948 -1.74815 0.705132 0
M  V30 5966 C 550.075 -2.97497 1.61905 0
M  V30 5967 C 549.121 -3.19405 2.82635 0
M  V30 5968 S 549.954 -2.99441 4.43954 0
M  V30 5969 C 551.11 -4.40359 4.44786 0
M  V30 5970 H 551.343 -1.47309 2.58239 0
M  V30 5971 H 548.876 -0.659601 1.39602 0
M  V30 5972 H 550.834 -3.77389 1.61518 0
M  V30 5973 H 549.495 -3.06502 0.686683 0
M  V30 5974 H 548.688 -4.20636 2.77636 0
M  V30 5975 H 548.29 -2.47283 2.80583 0
M  V30 5976 H 550.582 -5.32969 4.1827 0
M  V30 5977 H 551.525 -4.50403 5.46391 0
M  V30 5978 H 551.933 -4.22378 3.74509 0
M  V30 5979 N 551.331 -1.39911 -0.725443 0
M  V30 5980 C 552.559 -1.40949 -1.51463 0
M  V30 5981 C 552.974 -0.0065242 -1.88799 0
M  V30 5982 O 552.331 0.967163 -1.54765 0
M  V30 5983 C 552.382 -2.29119 -2.79619 0
M  V30 5984 O 552.103 -3.63952 -2.43866 0
M  V30 5985 C 553.604 -2.38642 -3.73584 0
M  V30 5986 H 550.824 -0.481091 -0.467752 0
M  V30 5987 H 553.368 -1.83843 -0.895651 0
M  V30 5988 H 551.523 -1.89612 -3.37826 0
M  V30 5989 H 551.937 -4.10677 -3.26258 0
M  V30 5990 H 553.411 -3.04563 -4.60375 0
M  V30 5991 H 553.888 -1.40846 -4.16004 0
M  V30 5992 H 554.494 -2.78659 -3.21293 0
M  V30 5993 N 552.809 0.956637 -1.25245 0
M  V30 5994 C 554.225 1.22733 -1.02023 0
M  V30 5995 C 554.425 1.99761 0.264186 0
M  V30 5996 O 553.481 2.32814 0.977436 0
M  V30 5997 C 554.794 2.00367 -2.24217 0
M  V30 5998 C 556.342 2.13418 -2.28958 0
M  V30 5999 C 556.817 2.9445 -3.50803 0
M  V30 6000 N 558.308 3.02029 -3.51187 0
M  V30 6001 C 559.043 3.65116 -4.42129 0
M  V30 6002 N 558.539 4.2983 -5.43339 0
M  V30 6003 N 560.332 3.62237 -4.29815 0
M  V30 6004 H 552.483 0.441282 -2.07765 0
M  V30 6005 H 554.746 0.257686 -0.912306 0
M  V30 6006 H 554.452 1.51165 -3.17556 0
M  V30 6007 H 554.326 3.01077 -2.27228 0
M  V30 6008 H 556.713 2.61819 -1.36143 0
M  V30 6009 H 556.794 1.1202 -2.29968 0
M  V30 6010 H 556.438 2.46741 -4.43939 0
M  V30 6011 H 556.368 3.9607 -3.47039 0
M  V30 6012 H 558.859 2.56007 -2.77973 0
M  V30 6013 H 559.172 4.75819 -6.08947 0
M  V30 6014 H 557.517 4.28465 -5.47214 0
M  V30 6015 H 560.708 3.10863 -3.49974 0
M  V30 6016 H 560.881 4.11117 -5.00886 0
M  V30 6017 N 554.287 1.06798 1.15896 0
M  V30 6018 C 555.219 0.641263 2.20046 0
M  V30 6019 C 556.232 -0.303355 1.59949 0
M  V30 6020 O 557.421 -0.0935478 1.78255 0
M  V30 6021 C 554.521 -0.0794029 3.38807 0
M  V30 6022 C 553.694 0.879986 4.28457 0
M  V30 6023 C 552.753 0.197638 5.25829 0
M  V30 6024 O 551.779 0.836913 5.63014 0
M  V30 6025 N 552.981 -1.05886 5.70761 0
M  V30 6026 H 555.746 1.53718 2.57276 0
M  V30 6027 H 553.307 0.951951 1.30956 0
M  V30 6028 H 555.299 -0.546418 4.00994 0
M  V30 6029 H 553.869 -0.877193 3.0004 0
M  V30 6030 H 553.089 1.52625 3.63454 0
M  V30 6031 H 554.377 1.53065 4.8523 0
M  V30 6032 H 553.775 -1.59828 5.42652 0
M  V30 6033 H 552.332 -1.46965 6.35015 0
M  V30 6034 N 555.766 -1.3263 0.851289 0
M  V30 6035 C 556.676 -2.32722 0.296268 0
M  V30 6036 C 557.692 -1.63901 -0.584162 0
M  V30 6037 O 558.868 -1.95465 -0.485334 0
M  V30 6038 C 555.933 -3.42942 -0.509103 0
M  V30 6039 C 554.994 -4.2746 0.397069 0
M  V30 6040 C 554.227 -5.32416 -0.36996 0
M  V30 6041 O 554.45 -5.47491 -1.6003 0
M  V30 6042 O 553.384 -6.01327 0.262493 0
M  V30 6043 H 557.21 -2.82078 1.12543 0
M  V30 6044 H 554.795 -1.36194 0.614135 0
M  V30 6045 H 556.677 -4.1017 -0.96634 0
M  V30 6046 H 555.352 -2.95781 -1.31512 0
M  V30 6047 H 554.259 -3.63053 0.902411 0
M  V30 6048 H 555.592 -4.78136 1.16818 0
M  V30 6049 N 557.244 -0.608902 -1.45362 0
M  V30 6050 C 558.474 -0.110852 -2.06302 0
M  V30 6051 C 558.882 1.21062 -1.45398 0
M  V30 6052 O 558.225 1.74861 -0.562976 0
M  V30 6053 C 558.287 0.101793 -3.59356 0
M  V30 6054 C 557.951 -1.13808 -4.42602 0
M  V30 6055 C 558.948 -2.05653 -4.77496 0
M  V30 6056 C 556.633 -1.36727 -4.83333 0
M  V30 6057 C 558.627 -3.18745 -5.51978 0
M  V30 6058 C 556.314 -2.5012 -5.57569 0
M  V30 6059 C 557.312 -3.40957 -5.91809 0
M  V30 6060 O 557 -4.52376 -6.64538 0
M  V30 6061 H 556.732 -0.0666001 -0.672711 0
M  V30 6062 H 559.286 -0.836942 -1.87575 0
M  V30 6063 H 557.516 0.88279 -3.76489 0
M  V30 6064 H 559.205 0.551607 -4.02134 0
M  V30 6065 H 559.971 -1.89172 -4.46586 0
M  V30 6066 H 555.85 -0.669216 -4.56117 0
M  V30 6067 H 559.394 -3.8967 -5.78622 0
M  V30 6068 H 555.291 -2.66553 -5.87894 0
M  V30 6069 H 556.059 -4.51075 -6.82989 0
M  V30 6070 N 558.722 1.53707 -0.348139 0
M  V30 6071 C 559.654 2.22725 0.540946 0
M  V30 6072 C 560.667 1.2354 1.06027 0
M  V30 6073 O 561.856 1.49867 0.96964 0
M  V30 6074 C 558.956 2.89756 1.75768 0
M  V30 6075 C 558.129 4.15297 1.37285 0
M  V30 6076 C 557.188 4.65697 2.44976 0
M  V30 6077 O 556.214 5.29798 2.08092 0
M  V30 6078 N 557.416 4.42017 3.763 0
M  V30 6079 H 560.181 2.99658 -0.0501592 0
M  V30 6080 H 557.742 1.60979 -0.17248 0
M  V30 6081 H 559.734 3.20388 2.47252 0
M  V30 6082 H 558.304 2.16382 2.25605 0
M  V30 6083 H 557.524 3.9116 0.488584 0
M  V30 6084 H 558.812 4.96948 1.09179 0
M  V30 6085 H 558.21 3.9076 4.09051 0
M  V30 6086 H 556.767 4.77242 4.4394 0
M  V30 6087 N 560.2 0.0768682 1.57412 0
M  V30 6088 C 561.11 -0.903207 2.16516 0
M  V30 6089 C 562.126 -1.32341 1.12968 0
M  V30 6090 O 563.302 -1.39507 1.45258 0
M  V30 6091 C 560.367 -2.1508 2.71922 0
M  V30 6092 C 559.428 -1.78653 3.90361 0
M  V30 6093 C 558.661 -2.97465 4.43114 0
M  V30 6094 O 558.884 -4.11638 3.94854 0
M  V30 6095 O 557.818 -2.76987 5.3438 0
M  V30 6096 H 561.644 -0.430427 3.00634 0
M  V30 6097 H 559.229 -0.146485 1.4868 0
M  V30 6098 H 561.111 -2.8823 3.07411 0
M  V30 6099 H 559.786 -2.61446 1.9086 0
M  V30 6100 H 558.693 -1.0274 3.59716 0
M  V30 6101 H 560.026 -1.37066 4.7273 0
M  V30 6102 N 561.678 -1.56367 -0.196722 0
M  V30 6103 C 562.625 -1.94417 -1.24382 0
M  V30 6104 C 563.595 -0.804543 -1.45315 0
M  V30 6105 O 564.78 -1.06256 -1.58475 0
M  V30 6106 C 561.92 -2.28757 -2.58388 0
M  V30 6107 C 561.033 -3.55775 -2.45047 0
M  V30 6108 C 560.168 -3.79445 -3.71746 0
M  V30 6109 C 559.207 -4.99894 -3.53231 0
M  V30 6110 N 558.344 -5.19826 -4.71938 0
M  V30 6111 H 563.184 -2.83691 -0.912338 0
M  V30 6112 H 560.721 -1.40392 -0.439135 0
M  V30 6113 H 562.679 -2.46682 -3.36457 0
M  V30 6114 H 561.309 -1.42625 -2.89582 0
M  V30 6115 H 560.361 -3.45905 -1.58284 0
M  V30 6116 H 561.673 -4.44 -2.27299 0
M  V30 6117 H 560.827 -3.97601 -4.58256 0
M  V30 6118 H 559.566 -2.89546 -3.92446 0
M  V30 6119 H 558.571 -4.81662 -2.65107 0
M  V30 6120 H 559.796 -5.913 -3.33978 0
M  V30 6121 H 557.742 -4.32875 -4.92905 0
M  V30 6122 H 557.659 -6.02228 -4.57009 0
M  V30 6123 H 558.927 -5.42439 -5.59803 0
M  V30 6124 N 563.156 0.464375 -1.50603 0
M  V30 6125 C 564.404 1.21356 -1.61608 0
M  V30 6126 C 564.725 1.92329 -0.321643 0
M  V30 6127 O 563.995 1.84403 0.661232 0
M  V30 6128 H 562.575 0.45094 -0.595535 0
M  V30 6129 H 565.237 0.535046 -1.87412 0
M  V30 6130 H 564.333 1.95783 -2.43054 0
M  V30 6131 N 564.634 1.40294 0.718013 0
M  V30 6132 C 565.88 1.38645 1.48005 0
M  V30 6133 C 566.213 -0.0121202 1.94196 0
M  V30 6134 O 565.488 -0.980309 1.67989 0
M  V30 6135 C 565.771 2.37379 2.70782 0
M  V30 6136 C 565.624 3.8625 2.30501 0
M  V30 6137 C 566.943 2.33685 3.72933 0
M  V30 6138 H 564.062 0.504928 0.536858 0
M  V30 6139 H 566.704 1.71411 0.819649 0
M  V30 6140 H 564.854 2.09568 3.27129 0
M  V30 6141 H 566.526 4.24879 1.79655 0
M  V30 6142 H 564.769 4.02202 1.6253 0
M  V30 6143 H 565.44 4.50847 3.18498 0
M  V30 6144 H 567.916 2.58314 3.2621 0
M  V30 6145 H 566.792 3.0482 4.56482 0
M  V30 6146 H 567.053 1.34765 4.21059 0
M  V30 6147 N 566.112 -0.949982 1.2575 0
M  V30 6148 C 567.528 -1.22191 1.02672 0
M  V30 6149 C 567.728 -1.99898 -0.253588 0
M  V30 6150 O 566.784 -2.33329 -0.965076 0
M  V30 6151 C 568.097 -1.99175 2.25277 0
M  V30 6152 C 569.645 -2.12201 2.30087 0
M  V30 6153 C 570.12 -2.92586 3.5236 0
M  V30 6154 N 571.611 -3.00163 3.52784 0
M  V30 6155 C 572.346 -3.62766 4.44059 0
M  V30 6156 N 571.842 -4.26943 5.45611 0
M  V30 6157 N 573.635 -3.59953 4.3173 0
M  V30 6158 H 565.786 -0.430258 2.07996 0
M  V30 6159 H 568.049 -0.252844 0.91366 0
M  V30 6160 H 567.755 -1.49479 3.18354 0
M  V30 6161 H 567.629 -2.99868 2.28821 0
M  V30 6162 H 570.016 -2.61093 1.3753 0
M  V30 6163 H 570.097 -1.10799 2.30559 0
M  V30 6164 H 569.741 -2.44383 4.45241 0
M  V30 6165 H 569.671 -3.94224 3.49134 0
M  V30 6166 H 572.162 -2.54529 2.79327 0
M  V30 6167 H 572.475 -4.72583 6.11461 0
M  V30 6168 H 570.82 -4.25557 5.49478 0
M  V30 6169 H 574.011 -3.09003 3.51617 0
M  V30 6170 H 574.184 -4.08455 5.03059 0
M  V30 6171 N 567.59 -1.07411 -1.15328 0
M  V30 6172 C 568.836 -0.798831 -1.86404 0
M  V30 6173 C 569.169 0.673433 -1.8215 0
M  V30 6174 O 568.444 1.49428 -1.24505 0
M  V30 6175 C 568.727 -1.30846 -3.35487 0
M  V30 6176 C 568.58 -2.84532 -3.4837 0
M  V30 6177 C 569.899 -0.925486 -4.30259 0
M  V30 6178 H 567.018 -0.291659 -0.676834 0
M  V30 6179 H 569.66 -1.332 -1.35491 0
M  V30 6180 H 567.81 -0.854916 -3.78977 0
M  V30 6181 H 569.482 -3.3818 -3.13739 0
M  V30 6182 H 567.725 -3.22699 -2.8991 0
M  V30 6183 H 568.396 -3.15259 -4.53118 0
M  V30 6184 H 570.872 -1.3163 -3.94731 0
M  V30 6185 H 569.748 -1.3094 -5.33053 0
M  V30 6186 H 570.009 0.168525 -4.41779 0
M  V30 6187 N 569.068 1.32177 -0.85831 0
M  V30 6188 C 569.998 2.31282 -0.321041 0
M  V30 6189 C 570.979 1.59841 0.581786 0
M  V30 6190 O 572.164 1.87619 0.501262 0
M  V30 6191 C 569.294 3.4385 0.48832 0
M  V30 6192 C 568.248 4.26799 -0.320391 0
M  V30 6193 C 567.574 5.31164 0.613934 0
M  V30 6194 C 568.874 4.98829 -1.54813 0
M  V30 6195 H 570.568 2.76469 -1.14915 0
M  V30 6196 H 568.114 1.32916 -0.554028 0
M  V30 6197 H 570.067 4.12224 0.874626 0
M  V30 6198 H 568.791 2.97401 1.34983 0
M  V30 6199 H 567.45 3.60077 -0.688497 0
M  V30 6200 H 567.098 4.80967 1.47239 0
M  V30 6201 H 566.798 5.8755 0.0768097 0
M  V30 6202 H 568.322 6.024 0.997336 0
M  V30 6203 H 569.736 5.59864 -1.23392 0
M  V30 6204 H 568.133 5.64957 -2.02346 0
M  V30 6205 H 569.203 4.26483 -2.30739 0
M  V30 6206 N 570.547 0.616602 1.45037 0
M  V30 6207 C 571.457 -0.0985401 2.34393 0
M  V30 6208 C 572.473 -0.850971 1.51771 0
M  V30 6209 O 573.649 -0.806521 1.84546 0
M  V30 6210 C 570.714 -1.07748 3.29532 0
M  V30 6211 C 569.775 -0.326022 4.2806 0
M  V30 6212 C 569.008 -1.25833 5.18654 0
M  V30 6213 O 569.231 -2.49652 5.12864 0
M  V30 6214 O 568.165 -0.750512 5.97203 0
M  V30 6215 H 571.991 0.636016 2.96966 0
M  V30 6216 H 569.576 0.376832 1.44569 0
M  V30 6217 H 571.458 -1.64107 3.88133 0
M  V30 6218 H 570.133 -1.79291 2.69512 0
M  V30 6219 H 569.04 0.280253 3.73049 0
M  V30 6220 H 570.373 0.349091 4.9096 0
M  V30 6221 N 572.025 -1.5352 0.356285 0
M  V30 6222 C 572.972 -2.25439 -0.494569 0
M  V30 6223 C 573.942 -1.25752 -1.08516 0
M  V30 6224 O 575.127 -1.54513 -1.1194 0
M  V30 6225 C 572.267 -3.04011 -1.63313 0
M  V30 6226 C 571.38 -4.18574 -1.06862 0
M  V30 6227 C 570.515 -4.84607 -2.17552 0
M  V30 6228 C 569.554 -5.91218 -1.58518 0
M  V30 6229 N 568.691 -6.50979 -2.63003 0
M  V30 6230 H 573.531 -2.97737 0.125244 0
M  V30 6231 H 571.068 -1.46916 0.0735789 0
M  V30 6232 H 573.026 -3.47834 -2.30363 0
M  V30 6233 H 571.656 -2.33986 -2.22374 0
M  V30 6234 H 570.708 -3.79303 -0.288672 0
M  V30 6235 H 572.02 -4.95215 -0.596924 0
M  V30 6236 H 571.174 -5.31566 -2.92442 0
M  V30 6237 H 569.913 -4.07418 -2.6807 0
M  V30 6238 H 568.918 -5.4363 -0.821391 0
M  V30 6239 H 570.143 -6.70322 -1.08836 0
M  V30 6240 H 568.089 -5.76648 -3.12751 0
M  V30 6241 H 568.006 -7.23131 -2.20493 0
M  V30 6242 H 569.274 -7.02589 -3.37623 0
M  V30 6243 N 573.503 -0.0852151 -1.57369 0
M  V30 6244 C 574.433 0.874556 -2.16503 0
M  V30 6245 C 575.414 1.30111 -1.09568 0
M  V30 6246 O 576.599 1.36977 -1.37662 0
M  V30 6247 C 573.729 2.13731 -2.73745 0
M  V30 6248 C 572.683 1.84971 -3.85966 0
M  V30 6249 C 572.009 3.17991 -4.29867 0
M  V30 6250 C 573.309 1.14442 -5.09608 0
M  V30 6251 H 575.003 0.381899 -2.96954 0
M  V30 6252 H 572.549 0.18225 -1.42842 0
M  V30 6253 H 574.502 2.81302 -3.13763 0
M  V30 6254 H 573.226 2.65263 -1.90534 0
M  V30 6255 H 571.885 1.19801 -3.46473 0
M  V30 6256 H 571.533 3.6739 -3.4356 0
M  V30 6257 H 571.233 2.99534 -5.05523 0
M  V30 6258 H 572.757 3.86737 -4.72511 0
M  V30 6259 H 574.171 1.72105 -5.46857 0
M  V30 6260 H 572.568 1.06197 -5.90629 0
M  V30 6261 H 573.638 0.12559 -4.84737 0
M  V30 6262 N 574.981 1.5647 0.188427 0
M  V30 6263 C 576.229 1.80655 0.905986 0
M  V30 6264 C 576.55 0.659391 1.83513 0
M  V30 6265 O 575.82 -0.321868 1.93238 0
M  V30 6266 H 574.4 0.666391 0.337538 0
M  V30 6267 H 577.062 1.93949 0.192339 0
M  V30 6268 H 576.158 2.74066 1.49313 0
M  V30 6269 N 576.459 -0.456382 1.50847 0
M  V30 6270 C 577.705 -1.20914 1.62811 0
M  V30 6271 C 578.038 -1.91301 0.334304 0
M  V30 6272 O 577.313 -1.82775 -0.665098 0
M  V30 6273 C 577.596 -2.24122 2.81853 0
M  V30 6274 C 577.449 -1.57944 4.21158 0
M  V30 6275 C 578.768 -3.25295 2.96431 0
M  V30 6276 H 575.887 -0.438233 0.592554 0
M  V30 6277 H 578.529 -0.50091 1.83278 0
M  V30 6278 H 576.679 -2.84524 2.64534 0
M  V30 6279 H 578.351 -1.01025 4.50102 0
M  V30 6280 H 576.594 -0.882185 4.24735 0
M  V30 6281 H 577.265 -2.33014 5.00408 0
M  V30 6282 H 579.741 -2.7493 3.12335 0
M  V30 6283 H 578.617 -3.94822 3.81322 0
M  V30 6284 H 578.878 -3.90286 2.07676 0
M  V30 6285 N 577.937 -1.40673 -0.710563 0
M  V30 6286 C 579.165 -1.42547 -1.4996 0
M  V30 6287 C 579.58 -0.0265485 -1.88781 0
M  V30 6288 O 578.937 0.950694 -1.55782 0
M  V30 6289 C 578.988 -2.32071 -2.77173 0
M  V30 6290 O 578.709 -3.66518 -2.39992 0
M  V30 6291 C 580.21 -2.42591 -3.71032 0
M  V30 6292 H 577.43 -0.486025 -0.462623 0
M  V30 6293 H 579.974 -1.84783 -0.876102 0
M  V30 6294 H 578.129 -1.93184 -3.35795 0
M  V30 6295 H 578.543 -4.14115 -3.21884 0
M  V30 6296 H 580.017 -3.09429 -4.57119 0
M  V30 6297 H 580.494 -1.4525 -4.14486 0
M  V30 6298 H 581.1 -2.82051 -3.18319 0
M  V30 6299 N 579.415 0.9433 -1.26252 0
M  V30 6300 C 580.661 1.69175 -1.11837 0
M  V30 6301 C 580.994 1.91238 0.337891 0
M  V30 6302 O 580.269 1.49152 1.24836 0
M  V30 6303 C 580.552 3.06783 -1.88563 0
M  V30 6304 C 580.405 2.9206 -3.42083 0
M  V30 6305 C 581.724 4.06865 -1.67776 0
M  V30 6306 H 578.843 0.61399 -0.407658 0
M  V30 6307 H 581.485 1.09572 -1.55222 0
M  V30 6308 H 579.635 3.57663 -1.51689 0
M  V30 6309 H 581.307 2.48419 -3.88698 0
M  V30 6310 H 579.55 2.27731 -3.69217 0
M  V30 6311 H 580.221 3.89651 -3.90994 0
M  V30 6312 H 582.697 3.64939 -1.99897 0
M  V30 6313 H 581.573 5.01168 -2.23879 0
M  V30 6314 H 581.834 4.37705 -0.621816 0
M  V30 6315 N 580.893 1.08022 1.14757 0
M  V30 6316 C 582.309 0.807072 1.3769 0
M  V30 6317 C 582.509 -0.585504 1.92806 0
M  V30 6318 O 581.565 -1.34301 2.13821 0
M  V30 6319 C 582.878 1.88651 2.34161 0
M  V30 6320 C 584.426 1.91206 2.47809 0
M  V30 6321 C 584.901 2.98253 3.47576 0
M  V30 6322 N 586.392 2.974 3.55117 0
M  V30 6323 C 587.127 3.76872 4.32152 0
M  V30 6324 N 586.623 4.66212 5.12463 0
M  V30 6325 N 588.416 3.6519 4.27309 0
M  V30 6326 H 580.567 1.97824 0.77326 0
M  V30 6327 H 582.83 0.85826 0.402608 0
M  V30 6328 H 582.536 2.88749 2.00791 0
M  V30 6329 H 582.41 1.75244 3.3402 0
M  V30 6330 H 584.797 0.917564 2.80472 0
M  V30 6331 H 584.878 2.08691 1.47925 0
M  V30 6332 H 584.522 3.97907 3.15646 0
M  V30 6333 H 584.452 2.78014 4.47231 0
M  V30 6334 H 586.943 2.32643 2.97801 0
M  V30 6335 H 587.256 5.23468 5.68508 0
M  V30 6336 H 585.601 4.70257 5.11745 0
M  V30 6337 H 588.792 2.94765 3.63636 0
M  V30 6338 H 588.965 4.27366 4.87095 0
M  V30 6339 O 582.41 -1.2689 0.999054 0
M  V30 6340 H 583.101 -1.82419 0.651387 0
M  V30 END ATOM
M  V30 BEGIN BOND
M  V30 END BOND
M  V30 END CTAB
M  END
$$$$
