drugbank_target|Q9UJ70 N-acetyl-D-glucosamine kinase (DB00141)
 OpenBabel12092120083D

  0  0  0     0  0            999 V3000
M  V30 BEGIN CTAB
M  V30 COUNTS 5231 5288 0 0 0
M  V30 BEGIN ATOM
M  V30 1 H -0.908 1.98254 -0.117106 0
M  V30 2 N 0 1.576 0 0
M  V30 3 C 0.933 2.03868 1.02534 0
M  V30 4 C 1.911 0.928543 1.3348 0
M  V30 5 O 3.095 1.19667 1.45644 0
M  V30 6 C 0.222 2.43627 2.35294 0
M  V30 7 C -0.732 3.65373 2.2001 0
M  V30 8 S 0.101 5.13292 1.52614 0
M  V30 9 C 1.257 5.56322 2.86805 0
M  V30 10 H 1.49 2.90518 0.631377 0
M  V30 11 H -0.977 1.52953 0.210867 0
M  V30 12 H 0.981 2.67203 3.11629 0
M  V30 13 H -0.358 1.57376 2.7183 0
M  V30 14 H -1.165 3.90944 3.18086 0
M  V30 15 H -1.563 3.418 1.51819 0
M  V30 16 H 0.729 5.58782 3.83104 0
M  V30 17 H 1.672 6.56266 2.65933 0
M  V30 18 H 2.08 4.83886 2.90714 0
M  V30 19 N 1.4781 -0.272755 1.55222 0
M  V30 20 C 2.4411 -1.32041 1.87344 0
M  V30 21 C 3.4411 -1.42342 0.74803 0
M  V30 22 O 4.6311 -1.41488 1.0162 0
M  V30 23 C 1.7631 -2.70173 2.07893 0
M  V30 24 H 2.9561 -1.04789 2.80997 0
M  V30 25 H 0.5091 -0.51083 1.47717 0
M  V30 26 H 1.2441 -3.02605 1.16622 0
M  V30 27 H 1.0291 -2.64082 2.89833 0
M  V30 28 H 2.5191 -3.45869 2.34017 0
M  V30 29 N 2.9562 -1.48159 -0.537278 0
M  V30 30 C 3.9192 -1.61665 -1.62472 0
M  V30 31 C 4.9192 -0.490395 -1.5314 0
M  V30 32 O 6.1092 -0.755998 -1.5694 0
M  V30 33 C 3.2412 -1.57997 -3.02076 0
M  V30 34 H 4.4342 -2.58621 -1.51839 0
M  V30 35 H 1.9872 -1.36647 -0.758771 0
M  V30 36 H 2.7222 -0.624913 -3.18222 0
M  V30 37 H 2.5072 -2.39755 -3.10258 0
M  V30 38 H 3.9972 -1.70627 -3.81151 0
M  V30 39 N 4.4343 0.785586 -1.36625 0
M  V30 40 C 5.6833 1.53883 -1.30396 0
M  V30 41 C 5.9963 1.95271 0.113452 0
M  V30 42 O 7.2023 2.69858 0.298142 0
M  V30 43 C 5.6583 2.77808 -2.28802 0
M  V30 44 C 5.2663 2.43574 -3.75999 0
M  V30 45 C 7.0103 3.55783 -2.31558 0
M  V30 46 C 4.9173 3.63919 -4.66173 0
M  V30 47 H 3.8473 0.577678 -0.484566 0
M  V30 48 H 6.4983 0.861705 -1.62009 0
M  V30 49 H 4.8803 3.47339 -1.90188 0
M  V30 50 H 6.0543 1.81916 -4.23371 0
M  V30 51 H 4.3693 1.78803 -3.76056 0
M  V30 52 H 6.9663 4.45205 -2.96137 0
M  V30 53 H 7.3093 3.94644 -1.3252 0
M  V30 54 H 7.8423 2.93235 -2.68809 0
M  V30 55 H 4.5813 3.3015 -5.66287 0
M  V30 56 H 4.1013 4.2473 -4.23515 0
M  V30 57 H 5.7803 4.30901 -4.82632 0
M  V30 58 N 5.9124 1.20967 1.01018 0
M  V30 59 C 7.1424 1.04803 1.78044 0
M  V30 60 C 7.5504 -0.405462 1.84804 0
M  V30 61 O 6.8934 -1.2932 1.30468 0
M  V30 62 C 6.9554 1.56377 3.23707 0
M  V30 63 C 6.6194 3.04767 3.40538 0
M  V30 64 C 7.6164 4.02366 3.29239 0
M  V30 65 C 5.3014 3.43862 3.66147 0
M  V30 66 C 7.2954 5.37049 3.43304 0
M  V30 67 C 4.9824 4.78699 3.79855 0
M  V30 68 C 5.9804 5.75101 3.68439 0
M  V30 69 O 5.6684 7.07493 3.81719 0
M  V30 70 H 5.4004 0.368778 0.56655 0
M  V30 71 H 7.9544 1.60642 1.27997 0
M  V30 72 H 6.1844 0.949297 3.74867 0
M  V30 73 H 7.8734 1.36136 3.8239 0
M  V30 74 H 8.6394 3.73506 3.09384 0
M  V30 75 H 4.5184 2.69364 3.74118 0
M  V30 76 H 8.0624 6.12277 3.34309 0
M  V30 77 H 3.9594 5.07247 3.99213 0
M  V30 78 H 4.7274 7.1483 3.98697 0
M  V30 79 N 7.3905 -1.2043 1.01659 0
M  V30 80 C 8.6385 -1.89423 0.704522 0
M  V30 81 C 8.9595 -1.79231 -0.768197 0
M  V30 82 O 8.2295 -1.1947 -1.55254 0
M  V30 83 H 6.8095 -0.701178 0.257602 0
M  V30 84 H 9.4715 -1.4626 1.28818 0
M  V30 85 H 8.5675 -2.96052 0.987916 0
M  V30 86 N 8.8686 -0.792821 -1.36206 0
M  V30 87 C 10.1166 -0.366062 -1.98757 0
M  V30 88 C 10.4376 1.0668 -1.63231 0
M  V30 89 O 9.7076 1.73587 -0.907978 0
M  V30 90 H 8.2876 -0.132364 -0.735179 0
M  V30 91 H 10.9496 -1.01562 -1.66347 0
M  V30 92 H 10.0456 -0.460638 -3.08682 0
M  V30 93 N 10.3467 1.47872 -0.545128 0
M  V30 94 C 11.5927 2.02793 -0.0166104 0
M  V30 95 C 11.9257 1.41987 1.32489 0
M  V30 96 O 11.2007 0.571045 1.85928 0
M  V30 97 C 11.4837 3.59989 0.0893294 0
M  V30 98 C 11.3367 4.3125 -1.27841 0
M  V30 99 C 12.6557 4.32606 0.808724 0
M  V30 100 H 9.7747 0.736962 -0.00751035 0
M  V30 101 H 12.4167 1.76433 -0.705085 0
M  V30 102 H 10.5667 3.82579 0.675681 0
M  V30 103 H 12.2387 4.20035 -1.90704 0
M  V30 104 H 10.4817 3.92076 -1.85632 0
M  V30 105 H 11.1527 5.39736 -1.15713 0
M  V30 106 H 13.6287 4.14936 0.310992 0
M  V30 107 H 12.5047 5.42251 0.851782 0
M  V30 108 H 12.7657 4.00963 1.86229 0
M  V30 109 N 11.8248 0.280983 1.55075 0
M  V30 110 C 12.7348 -0.61388 2.26426 0
M  V30 111 C 13.7508 -1.16521 1.29224 0
M  V30 112 O 14.9268 -1.19426 1.62171 0
M  V30 113 C 11.9918 -1.7788 2.9759 0
M  V30 114 C 11.0528 -1.26355 4.10284 0
M  V30 115 C 10.2858 -2.37295 4.78045 0
M  V30 116 O 10.5088 -3.56777 4.45047 0
M  V30 117 O 9.4428 -2.05119 5.65871 0
M  V30 118 H 13.2688 -0.0356932 3.03679 0
M  V30 119 H 10.8538 0.0481686 1.49322 0
M  V30 120 H 12.7358 -2.45791 3.42293 0
M  V30 121 H 11.4108 -2.34397 2.23249 0
M  V30 122 H 10.3178 -0.550735 3.70024 0
M  V30 123 H 11.6508 -0.744065 4.86543 0
M  V30 124 N 13.3029 -1.57598 0.00835791 0
M  V30 125 C 14.5509 -1.90551 -0.6734 0
M  V30 126 C 14.8719 -0.883301 -1.73847 0
M  V30 127 O 14.1419 0.0781442 -1.95744 0
M  V30 128 H 12.7219 -0.703312 -0.251717 0
M  V30 129 H 15.3839 -1.94833 0.0512592 0
M  V30 130 H 14.4799 -2.9056 -1.13935 0
M  V30 131 N 14.781 0.264519 -1.55364 0
M  V30 132 C 16.029 0.993021 -1.76021 0
M  V30 133 C 16.35 1.86511 -0.569099 0
M  V30 134 O 15.62 1.91438 0.415735 0
M  V30 135 H 14.2 0.369639 -0.649135 0
M  V30 136 H 16.862 0.286707 -1.9278 0
M  V30 137 H 15.958 1.62502 -2.66457 0
M  V30 138 N 16.2591 1.48442 0.529413 0
M  V30 139 C 17.5071 1.56179 1.28267 0
M  V30 140 C 17.8281 0.237721 1.93546 0
M  V30 141 O 17.0981 -0.740779 1.81354 0
M  V30 142 H 15.6781 0.575367 0.476405 0
M  V30 143 H 18.3401 1.84909 0.61602 0
M  V30 144 H 17.4361 2.34312 2.06165 0
M  V30 145 N 17.7372 -0.778329 1.37039 0
M  V30 146 C 18.9652 -1.56734 1.35063 0
M  V30 147 C 19.3802 -1.88686 -0.0655597 0
M  V30 148 O 18.7372 -1.5096 -1.02554 0
M  V30 149 C 18.7882 -2.88163 2.18276 0
M  V30 150 O 18.5092 -2.57583 3.54376 0
M  V30 151 C 20.0102 -3.82422 2.24206 0
M  V30 152 H 17.2302 -0.485778 0.462883 0
M  V30 153 H 19.7742 -0.965185 1.8029 0
M  V30 154 H 17.9292 -3.44818 1.76576 0
M  V30 155 H 18.3432 -3.41699 3.97922 0
M  V30 156 H 19.8172 -4.71667 2.86765 0
M  V30 157 H 20.2942 -4.21078 1.24861 0
M  V30 158 H 20.9002 -3.31697 2.6619 0
M  V30 159 N 19.2153 -1.21501 -1.00376 0
M  V30 160 C 20.6313 -0.972629 -1.26539 0
M  V30 161 C 20.8313 0.340257 -1.98606 0
M  V30 162 O 19.8873 1.06561 -2.28913 0
M  V30 163 C 21.2003 -2.16404 -2.08781 0
M  V30 164 C 22.7483 -2.20643 -2.22004 0
M  V30 165 C 23.2233 -3.39306 -3.07629 0
M  V30 166 N 24.7143 -3.39401 -3.15217 0
M  V30 167 C 25.4493 -4.27867 -3.81729 0
M  V30 168 N 24.9453 -5.26533 -4.5026 0
M  V30 169 N 26.7383 -4.15672 -3.78382 0
M  V30 170 H 18.8893 -2.05929 -0.520281 0
M  V30 171 H 21.1523 -0.901803 -0.292328 0
M  V30 172 H 20.8583 -3.11554 -1.63178 0
M  V30 173 H 20.7323 -2.15567 -3.09533 0
M  V30 174 H 23.1193 -1.26048 -2.66825 0
M  V30 175 H 23.2003 -2.25523 -1.20718 0
M  V30 176 H 22.8443 -4.34195 -2.63509 0
M  V30 177 H 22.7743 -3.31665 -4.09031 0
M  V30 178 H 25.2653 -2.67997 -2.66432 0
M  V30 179 H 25.5783 -5.90337 -4.98721 0
M  V30 180 H 23.9233 -5.30457 -4.49044 0
M  V30 181 H 27.1143 -3.3785 -3.23998 0
M  V30 182 H 27.2873 -4.84825 -4.2994 0
M  V30 183 N 20.6934 1.19889 -1.02296 0
M  V30 184 C 21.9184 1.9393 -0.735237 0
M  V30 185 C 22.3434 1.74639 0.698782 0
M  V30 186 O 21.7014 1.04481 1.48167 0
M  V30 187 C 21.7494 3.43916 -1.08417 0
M  V30 188 O 20.8534 4.11917 -0.199446 0
M  V30 189 H 20.1944 0.605645 -0.272196 0
M  V30 190 H 22.7244 1.52137 -1.36804 0
M  V30 191 H 22.7344 3.9456 -1.03856 0
M  V30 192 H 21.4094 3.5728 -2.12894 0
M  V30 193 H 19.9864 3.71666 -0.303136 0
M  V30 194 N 22.1715 0.800033 1.35784 0
M  V30 195 C 23.0815 0.207204 2.33683 0
M  V30 196 C 24.0975 -0.64631 1.61551 0
M  V30 197 O 25.2735 -0.559604 1.93469 0
M  V30 198 C 22.3385 -0.639659 3.40748 0
M  V30 199 C 21.3995 0.233585 4.28664 0
M  V30 200 C 20.6325 -0.572954 5.30616 0
M  V30 201 O 20.8555 -1.80816 5.40982 0
M  V30 202 O 19.7895 0.0327285 6.01891 0
M  V30 203 H 23.6155 1.01692 2.86169 0
M  V30 204 H 21.2005 0.561691 1.38439 0
M  V30 205 H 23.0825 -1.12223 4.06182 0
M  V30 206 H 21.7575 -1.42708 2.90544 0
M  V30 207 H 20.6645 0.763147 3.66233 0
M  V30 208 H 21.9975 0.984784 4.82248 0
M  V30 209 N 23.6496 -1.47581 0.552962 0
M  V30 210 C 24.8956 -2.02782 0.0273648 0
M  V30 211 C 25.2286 -1.42687 -1.31734 0
M  V30 212 O 24.5036 -0.580897 -1.85623 0
M  V30 213 C 24.7866 -3.60031 -0.0702371 0
M  V30 214 C 24.6396 -4.30566 1.30126 0
M  V30 215 C 25.9586 -4.33028 -0.785771 0
M  V30 216 H 23.0776 -0.736912 0.0114185 0
M  V30 217 H 25.7196 -1.76056 0.714432 0
M  V30 218 H 23.8696 -3.82932 -0.655382 0
M  V30 219 H 25.5416 -4.19018 1.92929 0
M  V30 220 H 23.7846 -3.91086 1.87709 0
M  V30 221 H 24.4556 -5.39114 1.18573 0
M  V30 222 H 26.9316 -4.15095 -0.288982 0
M  V30 223 H 25.8076 -5.42695 -0.823013 0
M  V30 224 H 26.0686 -4.01945 -1.841 0
M  V30 225 N 25.1277 -0.289203 -1.54924 0
M  V30 226 C 26.0577 0.58549 -2.2604 0
M  V30 227 C 27.0387 1.14753 -1.25562 0
M  V30 228 O 28.2237 1.17906 -1.54311 0
M  V30 229 C 25.3537 1.76305 -2.99222 0
M  V30 230 C 24.3077 1.33191 -4.06748 0
M  V30 231 C 23.6337 2.5937 -4.6758 0
M  V30 232 C 24.9337 0.471775 -5.20165 0
M  V30 233 H 26.6277 -0.00763532 -2.99399 0
M  V30 234 H 24.1737 -0.00511229 -1.43999 0
M  V30 235 H 26.1267 2.38097 -3.47689 0
M  V30 236 H 24.8507 2.38223 -2.23422 0
M  V30 237 H 23.5097 0.737121 -3.59113 0
M  V30 238 H 23.1577 3.19576 -3.88433 0
M  V30 239 H 22.8577 2.31228 -5.40192 0
M  V30 240 H 24.3817 3.21985 -5.18804 0
M  V30 241 H 25.7957 0.995056 -5.64599 0
M  V30 242 H 24.1927 0.284639 -5.99425 0
M  V30 243 H 25.2627 -0.506041 -4.82252 0
M  V30 244 N 26.6058 1.57591 -0.0167156 0
M  V30 245 C 27.5358 2.12496 0.967858 0
M  V30 246 C 28.5168 1.03807 1.34752 0
M  V30 247 O 29.7018 1.31577 1.42833 0
M  V30 248 C 26.8318 2.64194 2.25431 0
M  V30 249 C 25.7858 3.77559 2.01576 0
M  V30 250 C 25.1118 4.15636 3.36379 0
M  V30 251 C 26.4118 5.04151 1.36489 0
M  V30 252 H 28.1058 2.95013 0.510643 0
M  V30 253 H 25.6518 1.41915 0.244181 0
M  V30 254 H 27.6048 3.01236 2.94678 0
M  V30 255 H 26.3288 1.78821 2.73296 0
M  V30 256 H 24.9878 3.40937 1.34751 0
M  V30 257 H 24.6358 3.27263 3.81979 0
M  V30 258 H 24.3358 4.92022 3.21229 0
M  V30 259 H 25.8598 4.5525 4.06915 0
M  V30 260 H 27.2738 5.38857 1.95718 0
M  V30 261 H 25.6708 5.85453 1.31776 0
M  V30 262 H 26.7408 4.83733 0.336219 0
M  V30 263 N 28.0839 -0.256276 1.55502 0
M  V30 264 C 29.3299 -0.987079 1.77157 0
M  V30 265 C 29.6629 -1.85327 0.580315 0
M  V30 266 O 28.9379 -1.89874 -0.421686 0
M  V30 267 C 29.2209 -1.85553 3.08613 0
M  V30 268 C 29.0739 -1.01816 4.38125 0
M  V30 269 C 30.3929 -2.8397 3.36228 0
M  V30 270 H 27.5119 -0.357428 0.644526 0
M  V30 271 H 30.1539 -0.258239 1.88237 0
M  V30 272 H 28.3039 -2.47695 2.99298 0
M  V30 273 H 29.9759 -0.416159 4.59419 0
M  V30 274 H 28.2189 -0.322178 4.32602 0
M  V30 275 H 28.8899 -1.65939 5.26468 0
M  V30 276 H 31.3659 -2.31964 3.45445 0
M  V30 277 H 30.2419 -3.41864 4.29442 0
M  V30 278 H 30.5029 -3.59955 2.56681 0
M  V30 279 N 29.562 -1.4872 -0.521534 0
M  V30 280 C 30.787 -1.61101 -1.30618 0
M  V30 281 C 31.212 -0.274611 -1.86085 0
M  V30 282 O 30.57 0.754937 -1.64834 0
M  V30 283 C 30.618 -2.66709 -2.4269 0
M  V30 284 O 29.722 -2.24456 -3.45967 0
M  V30 285 H 29.063 -0.539921 -0.386499 0
M  V30 286 H 31.593 -1.94767 -0.626645 0
M  V30 287 H 31.603 -2.88245 -2.88754 0
M  V30 288 H 30.278 -3.63727 -2.01682 0
M  V30 289 H 28.855 -2.13168 -3.05964 0
M  V30 290 N 31.0401 0.771051 -1.3745 0
M  V30 291 C 31.9501 1.91538 -1.35464 0
M  V30 292 C 32.9661 1.72134 -0.254123 0
M  V30 293 O 34.1421 1.95358 -0.489626 0
M  V30 294 C 31.2071 3.26671 -1.16134 0
M  V30 295 C 30.2681 3.58723 -2.35831 0
M  V30 296 C 29.5011 4.87409 -2.17413 0
M  V30 297 O 29.7241 5.58506 -1.15876 0
M  V30 298 O 28.6581 5.18539 -3.05615 0
M  V30 299 H 32.4841 1.96165 -2.31847 0
M  V30 300 H 30.0691 0.9139 -1.18187 0
M  V30 301 H 31.9511 4.07499 -1.07345 0
M  V30 302 H 30.6261 3.22894 -0.228251 0
M  V30 303 H 29.5331 2.78127 -2.50192 0
M  V30 304 H 30.8661 3.67243 -3.27709 0
M  V30 305 N 32.5182 1.22032 0.997298 0
M  V30 306 C 33.7952 0.950823 1.70935 0
M  V30 307 C 34.1752 -0.535292 2.042 0
M  V30 308 O 33.5232 -1.50217 1.72183 0
M  V30 309 C 33.7332 1.84386 2.96315 0
M  V30 310 C 35.0812 2.09732 3.69185 0
M  V30 311 O 36.1052 1.81798 3.06314 0
M  V30 312 O 34.9642 2.57018 4.82291 0
M  V30 313 H 32.0582 0.357204 0.745878 0
M  V30 314 H 34.6042 1.32997 1.05404 0
M  V30 315 H 33.3762 2.84928 2.68201 0
M  V30 316 H 32.9992 1.46602 3.69586 0
M  V30 317 N 33.9963 -1.19345 1.0293 0
M  V30 318 C 35.2443 -1.88665 0.724574 0
M  V30 319 C 35.5653 -1.80036 -0.749144 0
M  V30 320 O 34.8353 -1.2111 -1.53978 0
M  V30 321 H 33.4153 -0.698406 0.265025 0
M  V30 322 H 36.0773 -1.44885 1.30362 0
M  V30 323 H 35.1733 -2.94987 1.01926 0
M  V30 324 N 35.4744 -0.807222 -1.35358 0
M  V30 325 C 36.4214 -0.216037 -2.29787 0
M  V30 326 C 37.3914 0.650278 -1.52842 0
M  V30 327 O 38.5764 0.595227 -1.81278 0
M  V30 328 C 35.7164 0.628893 -3.39321 0
M  V30 329 C 34.8294 -0.257927 -4.31229 0
M  V30 330 C 33.9644 0.595069 -5.27856 0
M  V30 331 C 33.0034 -0.292111 -6.11403 0
M  V30 332 N 32.1404 0.520895 -7.00165 0
M  V30 333 H 36.9804 -1.02671 -2.79755 0
M  V30 334 H 34.5174 -0.517839 -1.37684 0
M  V30 335 H 36.4754 1.13393 -4.01494 0
M  V30 336 H 35.1054 1.40482 -2.90628 0
M  V30 337 H 34.1574 -0.881076 -3.70056 0
M  V30 338 H 35.4694 -0.940759 -4.89848 0
M  V30 339 H 34.6234 1.16522 -5.95405 0
M  V30 340 H 33.3624 1.31146 -4.69736 0
M  V30 341 H 32.3674 -0.874525 -5.428 0
M  V30 342 H 33.5924 -1.00638 -6.71602 0
M  V30 343 H 31.5384 1.22125 -6.44532 0
M  V30 344 H 31.4554 -0.103877 -7.55929 0
M  V30 345 H 32.7234 1.0743 -7.72062 0
M  V30 346 N 36.9525 1.47285 -0.560781 0
M  V30 347 C 38.2015 2.01668 -0.035895 0
M  V30 348 C 38.5145 1.44021 1.32353 0
M  V30 349 O 39.7205 1.90088 1.93853 0
M  V30 350 C 38.1765 3.59897 -0.0136659 0
M  V30 351 C 37.7845 4.26536 -1.37006 0
M  V30 352 C 39.5285 4.22017 0.458425 0
M  V30 353 C 37.4355 5.76782 -1.30675 0
M  V30 354 H 36.3655 0.753938 -0.00964879 0
M  V30 355 H 39.0165 1.69243 -0.709166 0
M  V30 356 H 37.3985 3.89301 0.725325 0
M  V30 357 H 38.5725 4.0877 -2.12705 0
M  V30 358 H 36.8875 3.76419 -1.78038 0
M  V30 359 H 39.4845 5.32124 0.524247 0
M  V30 360 H 39.8275 3.89437 1.4712 0
M  V30 361 H 40.3605 3.97159 -0.225818 0
M  V30 362 H 37.0995 6.13988 -2.29564 0
M  V30 363 H 36.6195 5.96875 -0.591622 0
M  V30 364 H 38.2985 6.39063 -1.01033 0
M  V30 365 N 38.4306 0.297415 1.54768 0
M  V30 366 C 39.3606 -0.573494 2.26348 0
M  V30 367 C 40.3416 -1.14085 1.26169 0
M  V30 368 O 41.5266 -1.17086 1.54934 0
M  V30 369 C 38.6566 -1.74716 3.00153 0
M  V30 370 C 37.6106 -1.31032 4.07449 0
M  V30 371 C 36.9366 -2.56887 4.68949 0
M  V30 372 C 38.2366 -0.444183 5.20408 0
M  V30 373 H 39.9306 0.0235131 2.99391 0
M  V30 374 H 37.4766 0.0127488 1.43994 0
M  V30 375 H 39.4296 -2.3625 3.48947 0
M  V30 376 H 38.1536 -2.37035 2.24682 0
M  V30 377 H 36.8126 -0.718066 3.59499 0
M  V30 378 H 36.4606 -3.17512 3.90122 0
M  V30 379 H 36.1606 -2.2836 5.41411 0
M  V30 380 H 37.6846 -3.19229 5.20505 0
M  V30 381 H 39.0986 -0.9651 5.65118 0
M  V30 382 H 37.4956 -0.252846 5.99567 0
M  V30 383 H 38.5656 0.531609 4.81977 0
M  V30 384 N 39.9087 -1.5758 0.0250728 0
M  V30 385 C 40.8717 -2.08896 -0.943139 0
M  V30 386 C 41.8717 -1.00321 -1.25668 0
M  V30 387 O 43.0617 -1.26495 -1.19769 0
M  V30 388 C 40.1937 -2.55143 -2.26086 0
M  V30 389 H 41.3867 -2.95723 -0.498775 0
M  V30 390 H 38.9397 -1.54703 -0.222888 0
M  V30 391 H 39.6747 -1.71633 -2.75159 0
M  V30 392 H 39.4597 -3.34461 -2.04641 0
M  V30 393 H 40.9497 -2.95083 -2.95492 0
M  V30 394 N 41.3868 0.248026 -1.55636 0
M  V30 395 C 42.2968 1.32859 -1.93354 0
M  V30 396 C 43.3128 1.52719 -0.833838 0
M  V30 397 O 44.4888 1.66363 -1.13513 0
M  V30 398 C 41.5538 2.66337 -2.21958 0
M  V30 399 C 40.6148 2.55008 -3.45354 0
M  V30 400 C 39.8478 3.82121 -3.72584 0
M  V30 401 O 40.0708 4.83951 -3.01907 0
M  V30 402 O 39.0048 3.80822 -4.6611 0
M  V30 403 H 42.8308 1.03862 -2.85388 0
M  V30 404 H 40.4158 0.448686 -1.42503 0
M  V30 405 H 42.2978 3.45216 -2.4167 0
M  V30 406 H 40.9728 2.95068 -1.33103 0
M  V30 407 H 39.8798 1.7442 -3.30951 0
M  V30 408 H 41.2128 2.31222 -4.34508 0
M  V30 409 N 42.8649 1.48995 0.513639 0
M  V30 410 C 43.8279 1.64229 1.59879 0
M  V30 411 C 44.8279 0.514696 1.5234 0
M  V30 412 O 46.0179 0.78087 1.55718 0
M  V30 413 C 43.1499 1.62783 2.99524 0
M  V30 414 H 44.3429 2.61004 1.47705 0
M  V30 415 H 41.8959 1.37837 0.736936 0
M  V30 416 H 42.6309 0.675461 3.17188 0
M  V30 417 H 42.4159 2.4466 3.06404 0
M  V30 418 H 43.9059 1.76669 3.78388 0
M  V30 419 N 44.343 -0.763751 1.37857 0
M  V30 420 C 45.62 -1.51244 1.24035 0
M  V30 421 C 46 -2.10472 -0.162649 0
M  V30 422 O 45.348 -1.96206 -1.17112 0
M  V30 423 C 45.558 -2.58694 2.34261 0
M  V30 424 C 46.906 -3.25878 2.72193 0
M  V30 425 O 47.93 -2.68993 2.33497 0
M  V30 426 O 46.789 -4.2874 3.38887 0
M  V30 427 H 43.883 -0.670243 0.484462 0
M  V30 428 H 46.429 -0.800031 1.49658 0
M  V30 429 H 45.201 -2.13105 3.2818 0
M  V30 430 H 44.824 -3.37527 2.10146 0
M  V30 431 N 45.8211 -1.22559 -0.990812 0
M  V30 432 C 47.0691 -1.04933 -1.72724 0
M  V30 433 C 47.3901 0.416158 -1.90508 0
M  V30 434 O 46.6601 1.29918 -1.46622 0
M  V30 435 H 45.2401 -0.385296 -0.639965 0
M  V30 436 H 47.9021 -1.54105 -1.19322 0
M  V30 437 H 46.9981 -1.52886 -2.72089 0
M  V30 438 N 47.2992 1.18797 -1.03562 0
M  V30 439 C 48.2292 2.24472 -0.643019 0
M  V30 440 C 49.2102 1.66433 0.351283 0
M  V30 441 O 50.3952 1.92803 0.232505 0
M  V30 442 C 47.5252 3.473 4.24935e-05 0
M  V30 443 C 46.4792 4.18055 -0.917257 0
M  V30 444 C 45.8052 5.34519 -0.138941 0
M  V30 445 C 47.1052 4.72109 -2.23407 0
M  V30 446 H 48.7992 2.57566 -1.52643 0
M  V30 447 H 46.3452 1.23806 -0.735394 0
M  V30 448 H 48.2982 4.20426 0.286383 0
M  V30 449 H 47.0222 3.13424 0.918299 0
M  V30 450 H 45.6812 3.46821 -1.1879 0
M  V30 451 H 45.3292 4.96891 0.781562 0
M  V30 452 H 45.0292 5.82794 -0.750005 0
M  V30 453 H 46.5532 6.10438 0.1405 0
M  V30 454 H 47.9672 5.36955 -2.00879 0
M  V30 455 H 46.3642 5.30897 -2.79765 0
M  V30 456 H 47.4342 3.89807 -2.88407 0
M  V30 457 N 48.7773 0.814389 1.34928 0
M  V30 458 C 50.0023 0.410097 2.03305 0
M  V30 459 C 50.4273 -0.973464 1.60951 0
M  V30 460 O 49.7853 -1.63185 0.789964 0
M  V30 461 C 49.8333 0.51049 3.56968 0
M  V30 462 O 48.9373 -0.473035 4.09678 0
M  V30 463 H 48.2783 0.170088 0.641846 0
M  V30 464 H 50.8083 1.10244 1.72358 0
M  V30 465 H 50.8183 0.383135 4.06197 0
M  V30 466 H 49.4933 1.51963 3.87144 0
M  V30 467 H 48.0703 -0.305272 3.71648 0
M  V30 468 N 50.2554 -1.46986 0.568584 0
M  V30 469 C 51.4834 -2.0683 0.0539956 0
M  V30 470 C 51.8984 -1.41953 -1.24478 0
M  V30 471 O 51.2554 -0.519933 -1.74937 0
M  V30 472 C 51.3064 -3.61254 -0.133362 0
M  V30 473 O 51.0274 -4.237 1.11399 0
M  V30 474 C 52.5284 -4.37992 -0.683927 0
M  V30 475 H 49.7484 -0.669058 0.0510141 0
M  V30 476 H 52.2924 -1.88824 0.785234 0
M  V30 477 H 50.4474 -3.78735 -0.81477 0
M  V30 478 H 50.8614 -5.16388 0.91888 0
M  V30 479 H 52.3354 -5.46684 -0.764263 0
M  V30 480 H 52.8124 -4.05058 -1.69778 0
M  V30 481 H 53.4184 -4.25283 -0.0378494 0
M  V30 482 N 51.7335 -0.305618 -1.54608 0
M  V30 483 C 52.6815 0.584119 -2.25146 0
M  V30 484 C 53.6755 1.13326 -1.25911 0
M  V30 485 O 54.8815 1.08337 -1.43747 0
M  V30 486 H 51.2565 0.206983 -0.722954 0
M  V30 487 H 53.2275 -0.033291 -2.98381 0
M  V30 488 C 51.9765 1.74225 -3.009 0
M  V30 489 H 51.2995 1.32892 -3.77067 0
M  V30 490 H 52.7395 2.34077 -3.53531 0
M  V30 491 C 51.1985 2.64914 -2.0814 0
M  V30 492 O 51.7285 3.66137 -1.65246 0
M  V30 493 N 49.9345 2.3275 -1.74 0
M  V30 494 H 49.4815 1.50479 -2.09078 0
M  V30 495 H 49.4395 2.93694 -1.12211 0
M  V30 496 N 53.2116 1.57565 -0.0334293 0
M  V30 497 C 54.1616 2.06978 0.956237 0
M  V30 498 C 55.1456 0.971193 1.28283 0
M  V30 499 O 56.3376 1.23471 1.26822 0
M  V30 500 C 53.4666 2.60393 2.23719 0
M  V30 501 C 52.5526 3.7719 1.93877 0
M  V30 502 N 52.9436 4.87639 1.34321 0
M  V30 503 C 51.2416 3.85758 2.23845 0
M  V30 504 C 51.9426 5.68825 1.21709 0
M  V30 505 N 50.9186 5.1587 1.71404 0
M  V30 506 H 54.7206 2.89773 0.490815 0
M  V30 507 H 52.2346 1.61492 0.171478 0
M  V30 508 H 54.2316 2.94088 2.95496 0
M  V30 509 H 52.8916 1.79031 2.70884 0
M  V30 510 H 53.9026 5.07803 1.01767 0
M  V30 511 H 50.5796 3.1531 2.73653 0
M  V30 512 H 51.9696 6.67631 0.75621 0
M  V30 513 N 54.6897 -0.239769 1.55765 0
M  V30 514 C 55.9357 -0.963942 1.79108 0
M  V30 515 C 56.2907 -1.82689 0.60352 0
M  V30 516 O 55.5837 -1.87313 -0.403033 0
M  V30 517 C 55.7777 -1.852 3.05672 0
M  V30 518 C 55.6067 -1.07651 4.36625 0
M  V30 519 C 54.3767 -0.778738 4.99263 0
M  V30 520 C 56.5747 -0.45062 5.12322 0
M  V30 521 N 54.5567 0.0200708 6.13897 0
M  V30 522 C 55.9277 0.212429 6.19636 0
M  V30 523 C 57.9827 -0.361806 4.96584 0
M  V30 524 C 56.6857 0.955772 7.12922 0
M  V30 525 C 58.7117 0.368023 5.90254 0
M  V30 526 C 58.0737 1.01968 6.96981 0
M  V30 527 H 54.1727 -0.333601 0.707272 0
M  V30 528 H 56.7567 -0.236425 1.93259 0
M  V30 529 H 54.9277 -2.55149 2.92837 0
M  V30 530 H 56.6597 -2.51228 3.1728 0
M  V30 531 H 53.4147 -1.09229 4.60832 0
M  V30 532 H 53.8387 0.407777 6.75771 0
M  V30 533 H 58.4807 -0.851286 4.14141 0
M  V30 534 H 56.1987 1.45683 7.9486 0
M  V30 535 H 59.7847 0.437504 5.80153 0
M  V30 536 H 58.6647 1.5754 7.68213 0
M  V30 537 N 56.1678 -1.49265 -0.50573 0
M  V30 538 C 57.0978 -1.68495 -1.61653 0
M  V30 539 C 58.0788 -0.53366 -1.61512 0
M  V30 540 O 59.2638 -0.76897 -1.78327 0
M  V30 541 C 56.3938 -1.74709 -3.00157 0
M  V30 542 C 55.3478 -2.89581 -3.15162 0
M  V30 543 C 54.6738 -2.80903 -4.5497 0
M  V30 544 C 55.9738 -4.30578 -2.95634 0
M  V30 545 H 57.6678 -2.61493 -1.45814 0
M  V30 546 H 55.2138 -1.25838 -0.70005 0
M  V30 547 H 57.1668 -1.86748 -3.77761 0
M  V30 548 H 55.8908 -0.783067 -3.17074 0
M  V30 549 H 54.5498 -2.77136 -2.39982 0
M  V30 550 H 54.1978 -1.82419 -4.68756 0
M  V30 551 H 53.8978 -3.57999 -4.65951 0
M  V30 552 H 55.4218 -2.94944 -5.34641 0
M  V30 553 H 56.8358 -4.4373 -3.63011 0
M  V30 554 H 55.2328 -5.0886 -3.18091 0
M  V30 555 H 56.3028 -4.45352 -1.91806 0
M  V30 556 N 57.6459 0.756429 -1.3826 0
M  V30 557 C 58.8949 1.51082 -1.3363 0
M  V30 558 C 59.2079 1.95467 0.0720068 0
M  V30 559 O 60.4139 2.7043 0.240834 0
M  V30 560 C 58.8699 2.72893 -2.34644 0
M  V30 561 C 58.4779 2.35544 -3.81081 0
M  V30 562 C 60.2219 3.50791 -2.39052 0
M  V30 563 C 58.1289 3.53948 -4.73787 0
M  V30 564 H 57.0589 0.56727 -0.49671 0
M  V30 565 H 59.7099 0.827147 -1.638 0
M  V30 566 H 58.0919 3.43227 -1.97513 0
M  V30 567 H 59.2659 1.72894 -4.27135 0
M  V30 568 H 57.5809 1.70786 -3.79764 0
M  V30 569 H 60.1779 4.38823 -3.05513 0
M  V30 570 H 60.5209 3.91745 -1.40861 0
M  V30 571 H 61.0539 2.87467 -2.74968 0
M  V30 572 H 57.7929 3.18064 -5.73163 0
M  V30 573 H 57.3129 4.15651 -4.32428 0
M  V30 574 H 58.9919 4.20566 -4.91663 0
M  V30 575 N 59.124 1.23083 0.984299 0
M  V30 576 C 60.372 1.05848 1.72165 0
M  V30 577 C 60.693 -0.406049 1.90726 0
M  V30 578 O 59.963 -1.29139 1.47309 0
M  V30 579 H 58.543 0.388685 0.637913 0
M  V30 580 H 61.205 1.54736 1.18503 0
M  V30 581 H 60.301 1.54327 2.71274 0
M  V30 582 N 60.6021 -1.18246 1.0419 0
M  V30 583 C 61.8301 -1.92195 0.766072 0
M  V30 584 C 62.2451 -1.76247 -0.676933 0
M  V30 585 O 61.6021 -1.09293 -1.46155 0
M  V30 586 C 61.6531 -3.43568 1.12442 0
M  V30 587 O 61.3741 -3.59015 2.51078 0
M  V30 588 C 62.8751 -4.34613 0.873275 0
M  V30 589 H 60.0951 -0.610114 0.279288 0
M  V30 590 H 62.6391 -1.50007 1.38989 0
M  V30 591 H 60.7941 -3.8354 0.545542 0
M  V30 592 H 61.2081 -4.5273 2.64831 0
M  V30 593 H 62.6821 -5.39374 1.17385 0
M  V30 594 H 63.1591 -4.38781 -0.191909 0
M  V30 595 H 63.7651 -4.00341 1.43551 0
M  V30 596 N 62.0802 -0.821533 -1.34494 0
M  V30 597 C 63.3572 -0.33159 -1.92769 0
M  V30 598 C 63.7372 1.18088 -1.74981 0
M  V30 599 O 63.0852 1.98733 -1.12772 0
M  V30 600 C 63.2952 -0.759398 -3.40638 0
M  V30 601 C 64.6432 -0.757433 -4.1779 0
M  V30 602 O 65.6672 -0.70189 -3.49216 0
M  V30 603 O 64.5262 -0.829361 -5.4017 0
M  V30 604 H 61.6202 -0.0902502 -0.822061 0
M  V30 605 H 64.1662 -0.906231 -1.43477 0
M  V30 606 H 62.9382 -1.8012 -3.47379 0
M  V30 607 H 62.5612 -0.160378 -3.97276 0
M  V30 608 N 63.5583 1.46682 -0.576371 0
M  V30 609 C 64.5053 2.30241 0.160499 0
M  V30 610 C 65.4753 1.40233 0.890162 0
M  V30 611 O 66.6603 1.69186 0.882084 0
M  V30 612 C 63.8003 3.24578 1.1723 0
M  V30 613 C 62.9133 4.29684 0.446736 0
M  V30 614 C 62.0483 5.11154 1.44551 0
M  V30 615 C 61.0873 6.08015 0.70599 0
M  V30 616 N 60.2243 6.82376 1.65251 0
M  V30 617 H 65.0643 2.92727 -0.558127 0
M  V30 618 H 62.6013 1.44272 -0.287056 0
M  V30 619 H 64.5593 3.77711 1.77172 0
M  V30 620 H 63.1893 2.63916 1.85872 0
M  V30 621 H 62.2413 3.79458 -0.267594 0
M  V30 622 H 63.5533 4.98626 -0.131686 0
M  V30 623 H 62.7073 5.68533 2.11791 0
M  V30 624 H 61.4463 4.42158 2.05786 0
M  V30 625 H 60.4513 5.49796 0.0197725 0
M  V30 626 H 61.6763 6.79028 0.09912 0
M  V30 627 H 59.6223 6.16094 2.25308 0
M  V30 628 H 59.5393 7.47556 1.12673 0
M  V30 629 H 60.8073 7.44316 2.31546 0
M  V30 630 N 65.0364 0.313813 1.54444 0
M  V30 631 C 66.2764 -0.292389 2.02298 0
M  V30 632 C 66.6404 -1.50105 1.19719 0
M  V30 633 O 67.8414 -2.17947 1.5733 0
M  V30 634 C 66.1124 -0.627682 3.51845 0
M  V30 635 S 67.6714 -1.21493 4.21646 0
M  V30 636 H 64.4894 -0.0890247 0.705405 0
M  V30 637 H 67.0914 0.444668 1.90376 0
M  V30 638 H 65.7954 0.260265 4.09574 0
M  V30 639 H 65.3264 -1.39519 3.67829 0
M  V30 640 H 67.3414 -2.5022 4.28491 0
M  V30 641 N 66.5145 -1.57545 0.0417849 0
M  V30 642 C 67.7605 -1.92601 -0.635021 0
M  V30 643 C 68.0935 -0.919627 -1.71045 0
M  V30 644 O 67.3685 0.0557892 -1.9442 0
M  V30 645 C 67.6515 -3.38085 -1.23979 0
M  V30 646 C 67.5045 -4.49467 -0.173057 0
M  V30 647 C 68.8235 -3.83776 -2.15416 0
M  V30 648 H 65.9425 -0.700397 -0.229374 0
M  V30 649 H 68.5845 -1.89728 0.101633 0
M  V30 650 H 66.7345 -3.40664 -1.86762 0
M  V30 651 H 68.4065 -4.59018 0.458312 0
M  V30 652 H 66.6495 -4.30909 0.499996 0
M  V30 653 H 67.3205 -5.48323 -0.636054 0
M  V30 654 H 69.7965 -3.83013 -1.62605 0
M  V30 655 H 68.6725 -4.8624 -2.54679 0
M  V30 656 H 68.9335 -3.19998 -3.05047 0
M  V30 657 N 67.9926 0.231505 -1.5589 0
M  V30 658 C 68.9026 1.308 -1.94752 0
M  V30 659 C 69.9186 1.51826 -0.849989 0
M  V30 660 O 71.0946 1.6515 -1.15271 0
M  V30 661 C 68.1596 2.63968 -2.24771 0
M  V30 662 C 67.2206 2.51331 -3.48039 0
M  V30 663 C 66.4536 3.78148 -3.76616 0
M  V30 664 O 66.6766 4.80722 -3.07022 0
M  V30 665 O 65.6106 3.75857 -4.70123 0
M  V30 666 H 69.4366 1.0083 -2.86474 0
M  V30 667 H 67.0216 0.433547 -1.42971 0
M  V30 668 H 68.9036 3.42633 -2.45318 0
M  V30 669 H 67.5786 2.9364 -1.36225 0
M  V30 670 H 66.4856 1.709 -3.32782 0
M  V30 671 H 67.8186 2.26601 -4.36936 0
M  V30 672 N 69.4707 1.49531 0.497807 0
M  V30 673 C 70.8867 1.36365 0.829266 0
M  V30 674 C 71.0867 0.399184 1.97506 0
M  V30 675 O 70.1427 -0.167977 2.51941 0
M  V30 676 C 71.4557 2.77153 1.16647 0
M  V30 677 C 73.0037 2.85877 1.27449 0
M  V30 678 C 73.4787 4.2744 1.64497 0
M  V30 679 N 74.9697 4.30265 1.7154 0
M  V30 680 C 75.7047 5.3677 2.01656 0
M  V30 681 N 75.2007 6.53516 2.29976 0
M  V30 682 N 76.9937 5.24189 2.02934 0
M  V30 683 H 69.1447 2.10831 -0.257703 0
M  V30 684 H 71.4077 0.946534 -0.0527091 0
M  V30 685 H 71.1137 3.49442 0.397872 0
M  V30 686 H 70.9877 3.12722 2.10915 0
M  V30 687 H 73.3747 2.13824 2.0338 0
M  V30 688 H 73.4557 2.53887 0.312244 0
M  V30 689 H 73.0997 5.00021 0.891151 0
M  V30 690 H 73.0297 4.56896 2.61827 0
M  V30 691 H 75.5207 3.4607 1.51802 0
M  V30 692 H 75.8337 7.30506 2.52153 0
M  V30 693 H 74.1787 6.56737 2.27425 0
M  V30 694 H 77.3697 4.31988 1.80289 0
M  V30 695 H 77.5427 6.07286 2.26071 0
M  V30 696 N 70.9488 -0.749086 1.3866 0
M  V30 697 C 72.1978 -1.50371 1.3443 0
M  V30 698 C 72.5108 -1.95503 -0.0616397 0
M  V30 699 O 73.7168 -2.70554 -0.226489 0
M  V30 700 C 72.1728 -2.71644 2.36088 0
M  V30 701 C 71.7808 -2.3352 3.82325 0
M  V30 702 C 73.5248 -3.49518 2.40909 0
M  V30 703 C 71.4318 -3.51431 4.75658 0
M  V30 704 H 70.3618 -0.564628 0.499712 0
M  V30 705 H 73.0128 -0.818449 1.64237 0
M  V30 706 H 71.3948 -3.42175 1.9933 0
M  V30 707 H 72.5688 -1.70627 4.28046 0
M  V30 708 H 70.8838 -1.6877 3.80665 0
M  V30 709 H 73.4808 -4.37197 3.07836 0
M  V30 710 H 73.8238 -3.90992 1.42937 0
M  V30 711 H 74.3568 -2.86005 2.76489 0
M  V30 712 H 71.0958 -3.15019 5.74842 0
M  V30 713 H 70.6158 -4.13352 4.34627 0
M  V30 714 H 72.2948 -4.17953 4.93887 0
M  V30 715 N 72.4269 -1.23603 -0.977757 0
M  V30 716 C 73.3749 -1.01704 -2.09187 0
M  V30 717 C 74.3689 0.0448214 -1.69341 0
M  V30 718 O 75.5749 -0.108902 -1.7967 0
M  V30 719 H 71.9499 -0.311803 -0.684312 0
M  V30 720 H 73.9209 -1.96207 -2.24823 0
M  V30 721 C 72.6699 -0.627746 -3.41986 0
M  V30 722 H 71.9929 -1.43656 -3.73099 0
M  V30 723 H 73.4329 -0.514053 -4.20872 0
M  V30 724 C 71.8919 0.664238 -3.30287 0
M  V30 725 O 72.4219 1.71268 -3.6336 0
M  V30 726 N 70.6279 0.641156 -2.83439 0
M  V30 727 H 70.1749 -0.212376 -2.56723 0
M  V30 728 H 70.1329 1.50583 -2.75993 0
M  V30 729 N 73.905 1.17692 -1.04816 0
M  V30 730 C 74.815 2.25229 -0.65643 0
M  V30 731 C 75.831 1.71018 0.320761 0
M  V30 732 O 77.007 2.00649 0.173805 0
M  V30 733 C 74.072 3.46684 -0.0332629 0
M  V30 734 C 73.133 4.15997 -1.06042 0
M  V30 735 C 72.366 5.31654 -0.466893 0
M  V30 736 O 72.589 5.65777 0.724758 0
M  V30 737 O 71.523 5.89831 -1.1993 0
M  V30 738 H 75.349 2.61016 -1.55255 0
M  V30 739 H 72.934 1.24919 -0.81949 0
M  V30 740 H 74.816 4.20234 0.313256 0
M  V30 741 H 73.491 3.12703 0.836566 0
M  V30 742 H 72.398 3.44482 -1.45886 0
M  V30 743 H 73.731 4.53996 -1.90127 0
M  V30 744 N 75.3831 0.828654 1.34056 0
M  V30 745 C 76.3161 0.199763 2.27324 0
M  V30 746 C 77.2941 -0.647168 1.49166 0
M  V30 747 O 78.4781 -0.609661 1.78369 0
M  V30 748 C 75.6051 -0.720455 3.30949 0
M  V30 749 C 74.6511 0.0496888 4.26471 0
M  V30 750 S 75.4841 1.40072 5.16856 0
M  V30 751 C 76.6401 0.485527 6.24014 0
M  V30 752 H 76.8731 0.990478 2.80316 0
M  V30 753 H 74.4061 0.624857 1.41191 0
M  V30 754 H 76.3641 -1.24581 3.91139 0
M  V30 755 H 75.0251 -1.48474 2.76793 0
M  V30 756 H 74.2181 -0.650104 4.9979 0
M  V30 757 H 73.8201 0.505779 3.70564 0
M  V30 758 H 76.1121 -0.320672 6.76741 0
M  V30 759 H 77.0551 1.18856 6.98054 0
M  V30 760 H 77.4631 0.0714109 5.64455 0
M  V30 761 N 76.8612 -1.46375 0.584142 0
M  V30 762 C 78.1072 -2.02678 0.0703716 0
M  V30 763 C 78.4402 -1.4545 -1.28678 0
M  V30 764 O 77.7152 -0.62014 -1.84349 0
M  V30 765 C 77.9982 -3.60099 0.00614674 0
M  V30 766 C 77.8512 -4.27709 1.3923 0
M  V30 767 C 79.1702 -4.34598 -0.693742 0
M  V30 768 H 76.2892 -0.736504 0.027047 0
M  V30 769 H 78.9312 -1.74501 0.751615 0
M  V30 770 H 77.0812 -3.84236 -0.574009 0
M  V30 771 H 78.7532 -4.14832 2.01773 0
M  V30 772 H 76.9962 -3.87016 1.95962 0
M  V30 773 H 77.6672 -5.36478 1.29982 0
M  V30 774 H 80.1432 -4.15615 -0.200869 0
M  V30 775 H 79.0192 -5.44318 -0.707714 0
M  V30 776 H 79.2802 -4.05759 -1.75533 0
M  V30 777 N 78.3393 -0.321999 -1.54275 0
M  V30 778 C 79.2873 0.560206 -2.25753 0
M  V30 779 C 80.2813 1.11984 -1.27106 0
M  V30 780 O 81.4873 1.06806 -1.44888 0
M  V30 781 H 77.8623 0.199304 -0.725108 0
M  V30 782 H 79.8333 -0.0649365 -2.98329 0
M  V30 783 C 78.5823 1.71023 -3.02731 0
M  V30 784 H 77.9053 1.28885 -3.78456 0
M  V30 785 H 79.3453 2.30314 -3.55993 0
M  V30 786 C 77.8043 2.62692 -2.10938 0
M  V30 787 O 78.3343 3.64364 -1.6912 0
M  V30 788 N 76.5403 2.30891 -1.76459 0
M  V30 789 H 76.0873 1.48253 -2.10663 0
M  V30 790 H 76.0453 2.92487 -1.1532 0
M  V30 791 N 79.8174 1.5752 -0.0501392 0
M  V30 792 C 81.2334 1.56631 0.306402 0
M  V30 793 C 81.4334 1.0577 1.71508 0
M  V30 794 O 80.4894 0.713837 2.422 0
M  V30 795 C 81.8024 3.00393 0.135811 0
M  V30 796 C 83.3504 3.12315 0.206993 0
M  V30 797 C 83.8254 4.57954 0.064944 0
M  V30 798 N 85.3164 4.63041 0.121254 0
M  V30 799 C 86.0514 5.73389 0.0354381 0
M  V30 800 N 85.5474 6.92724 -0.102666 0
M  V30 801 N 87.3404 5.62026 0.090946 0
M  V30 802 H 79.4914 1.88903 -0.971046 0
M  V30 803 H 81.7544 0.869876 -0.376855 0
M  V30 804 H 81.4604 3.41635 -0.835384 0
M  V30 805 H 81.3344 3.66373 0.897275 0
M  V30 806 H 83.7214 2.70973 1.16866 0
M  V30 807 H 83.8024 2.49016 -0.585208 0
M  V30 808 H 83.4464 4.99981 -0.893394 0
M  V30 809 H 83.3764 5.19258 0.876277 0
M  V30 810 H 85.8674 3.77216 0.227284 0
M  V30 811 H 86.1804 7.72633 -0.160882 0
M  V30 812 H 84.5254 6.94864 -0.137737 0
M  V30 813 H 87.7164 4.67684 0.197388 0
M  V30 814 H 87.8894 6.47997 0.0206089 0
M  V30 815 N 81.2955 -0.223234 1.56011 0
M  V30 816 C 82.2585 -1.26014 1.9145 0
M  V30 817 C 83.2585 -1.3989 0.792937 0
M  V30 818 O 84.4485 -1.38184 1.0607 0
M  V30 819 C 81.5805 -2.63422 2.16383 0
M  V30 820 H 82.7735 -0.95796 2.84189 0
M  V30 821 H 80.3265 -0.463576 1.49267 0
M  V30 822 H 81.0615 -2.98741 1.2619 0
M  V30 823 H 80.8465 -2.54728 2.98088 0
M  V30 824 H 82.3365 -3.38249 2.44903 0
M  V30 825 N 82.7736 -1.49793 -0.48987 0
M  V30 826 C 83.7206 -1.67281 -1.59014 0
M  V30 827 C 84.6906 -0.514177 -1.57941 0
M  V30 828 O 85.8756 -0.742533 -1.75759 0
M  V30 829 C 83.0156 -1.75569 -2.97102 0
M  V30 830 C 82.1286 -3.0281 -3.08107 0
M  V30 831 C 81.2636 -3.02008 -4.36995 0
M  V30 832 C 80.3026 -4.23782 -4.41673 0
M  V30 833 N 79.4396 -4.20826 -5.62005 0
M  V30 834 H 84.2796 -2.61224 -1.43409 0
M  V30 835 H 81.8166 -1.29508 -0.697565 0
M  V30 836 H 83.7746 -1.78354 -3.77155 0
M  V30 837 H 82.4046 -0.850827 -3.11385 0
M  V30 838 H 81.4566 -3.09584 -2.21047 0
M  V30 839 H 82.7686 -3.92801 -3.07423 0
M  V30 840 H 81.9226 -3.03418 -5.25378 0
M  V30 841 H 80.6616 -2.09815 -4.4026 0
M  V30 842 H 79.6666 -4.22604 -3.5169 0
M  V30 843 H 80.8916 -5.17181 -4.40115 0
M  V30 844 H 78.8376 -3.31476 -5.66091 0
M  V30 845 H 78.7546 -5.04564 -5.62984 0
M  V30 846 H 80.0226 -4.26355 -6.52565 0
M  V30 847 N 84.2517 0.741722 -1.39055 0
M  V30 848 C 85.6677 1.04638 -1.20512 0
M  V30 849 C 85.8677 2.01405 -0.0620218 0
M  V30 850 O 84.9237 2.45547 0.588457 0
M  V30 851 C 86.2367 1.6151 -2.53643 0
M  V30 852 C 87.7847 1.73623 -2.6043 0
M  V30 853 C 88.2597 2.33906 -3.93767 0
M  V30 854 N 89.7507 2.41323 -3.9537 0
M  V30 855 C 90.4857 2.88888 -4.95309 0
M  V30 856 N 89.9817 3.36401 -6.05645 0
M  V30 857 N 91.7747 2.88037 -4.82692 0
M  V30 858 H 83.9257 0.0998155 -2.12165 0
M  V30 859 H 86.1887 0.106907 -0.941953 0
M  V30 860 H 85.8947 0.978739 -3.37807 0
M  V30 861 H 85.7687 2.60411 -2.72885 0
M  V30 862 H 88.1557 2.36384 -1.76655 0
M  V30 863 H 88.2367 0.733945 -2.45045 0
M  V30 864 H 87.8807 1.71776 -4.7797 0
M  V30 865 H 87.8107 3.34799 -4.06469 0
M  V30 866 H 90.3017 2.07734 -3.15682 0
M  V30 867 H 90.6147 3.71186 -6.77821 0
M  V30 868 H 88.9597 3.34427 -6.09248 0
M  V30 869 H 92.1507 2.50237 -3.95599 0
M  V30 870 H 92.3237 3.24792 -5.60726 0
M  V30 871 N 85.7298 1.2412 0.971189 0
M  V30 872 C 86.6768 1.0305 2.06517 0
M  V30 873 C 87.6468 -0.0550666 1.66009 0
M  V30 874 O 88.8318 0.0988688 1.90544 0
M  V30 875 C 85.9718 0.637653 3.39158 0
M  V30 876 C 85.0848 1.79633 3.92882 0
M  V30 877 C 84.2198 1.34939 5.13775 0
M  V30 878 C 83.2588 2.47823 5.59687 0
M  V30 879 N 82.3958 2.04022 6.71803 0
M  V30 880 H 87.2358 1.96685 2.23873 0
M  V30 881 H 84.7728 0.979694 1.09729 0
M  V30 882 H 86.7308 0.390931 4.15364 0
M  V30 883 H 85.3608 -0.261693 3.21737 0
M  V30 884 H 84.4128 2.15681 3.13346 0
M  V30 885 H 85.7248 2.64466 4.22918 0
M  V30 886 H 84.8788 1.06134 5.97345 0
M  V30 887 H 83.6178 0.471557 4.85415 0
M  V30 888 H 82.6228 2.77392 4.74693 0
M  V30 889 H 83.8478 3.36158 5.90063 0
M  V30 890 H 81.7938 1.18632 6.45184 0
M  V30 891 H 81.7108 2.82409 7.01271 0
M  V30 892 H 82.9788 1.78347 7.58823 0
M  V30 893 N 87.2079 -1.17134 1.05439 0
M  V30 894 C 88.1709 -2.19439 0.661764 0
M  V30 895 C 89.1709 -1.58199 -0.288042 0
M  V30 896 O 90.3609 -1.74053 -0.0715803 0
M  V30 897 C 87.4929 -3.40889 -0.0276209 0
M  V30 898 H 88.6859 -2.55688 1.56728 0
M  V30 899 H 86.2389 -1.31259 0.848567 0
M  V30 900 H 86.9739 -3.10187 -0.94629 0
M  V30 901 H 86.7589 -3.86586 0.655238 0
M  V30 902 H 88.2489 -4.16603 -0.288342 0
M  V30 903 N 88.686 -0.835752 -1.33615 0
M  V30 904 C 89.934 -0.429109 -1.97492 0
M  V30 905 C 90.255 1.01433 -1.66543 0
M  V30 906 O 89.525 1.70611 -0.962744 0
M  V30 907 H 88.105 -0.155686 -0.730596 0
M  V30 908 H 90.767 -1.06802 -1.63031 0
M  V30 909 H 89.863 -0.55861 -3.0706 0
M  V30 910 N 90.1641 1.46063 -0.591896 0
M  V30 911 C 91.4101 2.02638 -0.0811191 0
M  V30 912 C 91.7431 1.4613 1.27905 0
M  V30 913 O 91.0181 0.629908 1.84017 0
M  V30 914 C 91.3011 3.60091 -0.0252436 0
M  V30 915 C 91.1541 4.26965 -1.41496 0
M  V30 916 C 92.4731 4.3496 0.670685 0
M  V30 917 H 89.5921 0.73635 -0.0309524 0
M  V30 918 H 92.2341 1.741 -0.760859 0
M  V30 919 H 90.3841 3.84535 0.553624 0
M  V30 920 H 92.0561 4.13756 -2.0397 0
M  V30 921 H 90.2991 3.85971 -1.98011 0
M  V30 922 H 90.9701 5.35781 -1.32825 0
M  V30 923 H 93.4461 4.15716 0.178825 0
M  V30 924 H 92.3221 5.44686 0.678837 0
M  V30 925 H 92.5831 4.06685 1.73379 0
M  V30 926 N 91.6422 0.330177 1.54103 0
M  V30 927 C 92.9192 -0.325007 1.92881 0
M  V30 928 C 93.2992 -1.6934 1.26045 0
M  V30 929 O 92.6472 -2.24855 0.406526 0
M  V30 930 C 92.8572 -0.410634 3.46576 0
M  V30 931 C 94.2052 -0.667801 4.19316 0
M  V30 932 O 95.2292 -0.49329 3.52768 0
M  V30 933 O 94.0882 -1.00491 5.37181 0
M  V30 934 H 91.1822 -0.186873 0.80561 0
M  V30 935 H 93.7282 0.380376 1.65382 0
M  V30 936 H 92.5002 0.550164 3.87413 0
M  V30 937 H 92.1232 -1.16333 3.802 0
M  V30 938 N 93.1203 -1.57491 0.0584922 0
M  V30 939 C 94.5313 -1.80526 -0.476138 0
M  V30 940 C 94.8823 -0.971334 -1.70469 0
M  V30 941 O 94.0073 -0.190012 -2.15564 0
M  V30 942 C 94.6023 -3.27424 -0.870587 0
M  V30 943 C 93.1613 -3.51351 -1.35015 0
M  V30 944 C 92.3083 -2.75343 -0.32887 0
M  V30 945 H 95.2593 -1.56133 0.284312 0
M  V30 946 H 95.2803 -3.38745 -1.73299 0
M  V30 947 H 94.7923 -3.88093 0.0237627 0
M  V30 948 H 92.8933 -2.95971 -2.26345 0
M  V30 949 H 93.0063 -4.60059 -1.33726 0
M  V30 950 H 91.3703 -2.417 -0.803321 0
M  V30 951 H 92.1533 -3.38743 0.557521 0
M  V30 952 N 94.5984 0.214957 -1.56127 0
M  V30 953 C 95.5284 1.2695 -1.95974 0
M  V30 954 C 96.5094 1.48539 -0.828868 0
M  V30 955 O 97.6944 1.60611 -1.09168 0
M  V30 956 C 94.8244 2.61794 -2.28214 0
M  V30 957 C 93.7784 2.54851 -3.43853 0
M  V30 958 C 93.1044 3.93785 -3.61715 0
M  V30 959 C 94.4044 2.09065 -4.78632 0
M  V30 960 H 96.0984 0.93846 -2.84312 0
M  V30 961 H 93.6444 0.449996 -1.36788 0
M  V30 962 H 95.5974 3.35731 -2.54682 0
M  V30 963 H 94.3214 2.96599 -1.36736 0
M  V30 964 H 92.9804 1.8337 -3.17444 0
M  V30 965 H 92.6284 4.25908 -2.67602 0
M  V30 966 H 92.3284 3.90019 -4.39498 0
M  V30 967 H 93.8524 4.69374 -3.90539 0
M  V30 968 H 95.2664 2.7275 -5.04262 0
M  V30 969 H 93.6634 2.16346 -5.59745 0
M  V30 970 H 94.7334 1.04315 -4.73547 0
M  V30 971 N 96.0765 1.50051 0.48192 0
M  V30 972 C 97.3225 1.60736 1.2366 0
M  V30 973 C 97.6555 0.301786 1.91841 0
M  V30 974 O 96.9305 -0.696025 1.8162 0
M  V30 975 C 97.2135 2.78009 2.28874 0
M  V30 976 C 97.0665 4.18416 1.65069 0
M  V30 977 C 98.3855 2.90867 3.30279 0
M  V30 978 H 95.5045 0.585031 0.448228 0
M  V30 979 H 98.1465 1.82402 0.531946 0
M  V30 980 H 96.2965 2.59667 2.88973 0
M  V30 981 H 97.9685 4.48322 1.0865 0
M  V30 982 H 96.2115 4.23177 0.954148 0
M  V30 983 H 96.8825 4.96381 2.41474 0
M  V30 984 H 99.3585 3.07623 2.80191 0
M  V30 985 H 98.2345 3.74566 4.01238 0
M  V30 986 H 98.4955 2.01021 3.93755 0
M  V30 987 N 97.5546 -0.734337 1.39446 0
M  V30 988 C 98.9656 -1.31264 1.32766 0
M  V30 989 C 99.3166 -1.96198 -0.00767497 0
M  V30 990 O 98.4416 -1.96346 -0.909796 0
M  V30 991 C 99.0366 -2.38682 2.4045 0
M  V30 992 C 97.5956 -2.92184 2.37288 0
M  V30 993 C 96.7426 -1.6576 2.22304 0
M  V30 994 H 99.6936 -0.531799 1.49525 0
M  V30 995 H 99.7146 -3.19087 2.07276 0
M  V30 996 H 99.2266 -1.91392 3.37625 0
M  V30 997 H 97.3276 -3.43752 1.43754 0
M  V30 998 H 97.4406 -3.45253 3.3217 0
M  V30 999 H 95.8046 -1.9012 1.69489 0
M  V30 1000 H 96.5876 -1.20521 3.21449 0
M  V30 1001 N 99.0327 -1.24633 -0.964593 0
M  V30 1002 C 99.9627 -1.06611 -2.07741 0
M  V30 1003 C 100.944 0.0218666 -1.70086 0
M  V30 1004 O 102.129 -0.145793 -1.93652 0
M  V30 1005 C 99.2587 -0.673444 -3.40708 0
M  V30 1006 C 98.2127 -1.71054 -3.92332 0
M  V30 1007 C 97.5387 -1.17285 -5.21678 0
M  V30 1008 C 98.8387 -3.10718 -4.19824 0
M  V30 1009 H 100.533 -1.99693 -2.23076 0
M  V30 1010 H 98.0787 -0.96152 -1.07195 0
M  V30 1011 H 100.032 -0.534345 -4.17998 0
M  V30 1012 H 98.7557 0.293073 -3.25282 0
M  V30 1013 H 97.4147 -1.83791 -3.17201 0
M  V30 1014 H 97.0627 -0.196847 -5.02615 0
M  V30 1015 H 96.7627 -1.86592 -5.57187 0
M  V30 1016 H 98.2867 -1.04593 -6.01575 0
M  V30 1017 H 99.7007 -3.01192 -4.87808 0
M  V30 1018 H 98.0977 -3.77406 -4.66567 0
M  V30 1019 H 99.1677 -3.58524 -3.26479 0
M  V30 1020 N 100.511 1.16574 -1.06058 0
M  V30 1021 C 101.927 1.3904 -0.783585 0
M  V30 1022 C 102.127 1.91784 0.618145 0
M  V30 1023 O 101.183 2.11511 1.37911 0
M  V30 1024 C 102.496 2.37329 -1.84649 0
M  V30 1025 C 104.044 2.51018 -1.86973 0
M  V30 1026 C 104.519 3.52588 -2.92311 0
M  V30 1027 N 106.01 3.60113 -2.91329 0
M  V30 1028 C 106.745 4.38486 -3.69482 0
M  V30 1029 N 106.241 5.20302 -4.57447 0
M  V30 1030 N 108.034 4.33446 -3.57885 0
M  V30 1031 H 100.185 0.806725 -1.96483 0
M  V30 1032 H 102.448 0.417117 -0.851303 0
M  V30 1033 H 102.154 2.05663 -2.85299 0
M  V30 1034 H 102.028 3.36946 -1.6955 0
M  V30 1035 H 104.415 2.81989 -0.869827 0
M  V30 1036 H 104.496 1.51445 -2.0615 0
M  V30 1037 H 104.14 3.22354 -3.92492 0
M  V30 1038 H 104.07 4.51886 -2.70383 0
M  V30 1039 H 106.561 3.01707 -2.27555 0
M  V30 1040 H 106.874 5.77311 -5.13743 0
M  V30 1041 H 105.219 5.19653 -4.61503 0
M  V30 1042 H 108.41 3.68586 -2.88551 0
M  V30 1043 H 108.583 4.94279 -4.19037 0
M  V30 1044 N 101.989 0.842826 1.3317 0
M  V30 1045 C 103.214 0.453129 2.02389 0
M  V30 1046 C 103.639 -0.939105 1.6298 0
M  V30 1047 O 102.997 -1.61472 0.8244 0
M  V30 1048 C 103.045 0.586094 3.55805 0
M  V30 1049 O 102.149 -0.386029 4.10589 0
M  V30 1050 H 101.49 0.183664 0.638094 0
M  V30 1051 H 104.02 1.13875 1.69981 0
M  V30 1052 H 104.03 0.469209 4.05293 0
M  V30 1053 H 102.705 1.6014 3.83833 0
M  V30 1054 H 101.282 -0.226371 3.72212 0
M  V30 1055 N 103.467 -1.45747 0.599634 0
M  V30 1056 C 104.397 -2.33235 -0.111306 0
M  V30 1057 C 105.378 -1.46359 -0.866781 0
M  V30 1058 O 106.563 -1.75146 -0.838904 0
M  V30 1059 C 103.693 -3.28932 -1.11451 0
M  V30 1060 C 102.647 -4.25381 -0.472772 0
M  V30 1061 C 101.973 -5.1071 -1.58365 0
M  V30 1062 C 103.273 -5.18831 0.600948 0
M  V30 1063 H 104.967 -2.92927 0.61919 0
M  V30 1064 H 102.513 -1.40857 0.299215 0
M  V30 1065 H 104.466 -3.89002 -1.62036 0
M  V30 1066 H 103.19 -2.67381 -1.8755 0
M  V30 1067 H 101.849 -3.66598 0.0121472 0
M  V30 1068 H 101.497 -4.45533 -2.33473 0
M  V30 1069 H 101.197 -5.7604 -1.15982 0
M  V30 1070 H 102.721 -5.73647 -2.09194 0
M  V30 1071 H 104.135 -5.73019 0.179491 0
M  V30 1072 H 102.532 -5.92595 0.946076 0
M  V30 1073 H 103.602 -4.6174 1.48068 0
M  V30 1074 N 104.945 -0.338344 -1.53925 0
M  V30 1075 C 106.193 0.259245 -2.0043 0
M  V30 1076 C 106.514 1.51484 -1.22791 0
M  V30 1077 O 105.784 1.93037 -0.33368 0
M  V30 1078 H 104.364 0.0987845 -0.740439 0
M  V30 1079 H 107.026 -0.458302 -1.89435 0
M  V30 1080 H 106.122 0.505334 -3.07982 0
M  V30 1081 N 106.423 1.57458 -0.0668435 0
M  V30 1082 C 107.353 2.15468 0.899764 0
M  V30 1083 C 108.334 1.08042 1.31381 0
M  V30 1084 O 109.519 1.36054 1.38574 0
M  V30 1085 C 106.649 2.71232 2.16911 0
M  V30 1086 C 105.603 3.83781 1.89463 0
M  V30 1087 C 104.929 4.26127 3.22986 0
M  V30 1088 C 106.229 5.08238 1.20381 0
M  V30 1089 H 107.923 2.96488 0.416529 0
M  V30 1090 H 105.469 1.4262 0.198908 0
M  V30 1091 H 107.422 3.10458 2.84945 0
M  V30 1092 H 106.146 1.87426 2.67468 0
M  V30 1093 H 104.805 3.45051 1.23836 0
M  V30 1094 H 104.453 3.39249 3.71374 0
M  V30 1095 H 104.153 5.01993 3.05413 0
M  V30 1096 H 105.677 4.67966 3.92225 0
M  V30 1097 H 107.091 5.44811 1.78475 0
M  V30 1098 H 105.488 5.89349 1.13083 0
M  V30 1099 H 106.558 4.84558 0.182153 0
M  V30 1100 N 107.901 -0.206675 1.56239 0
M  V30 1101 C 109.126 -0.949474 1.8439 0
M  V30 1102 C 109.551 -1.76549 0.649016 0
M  V30 1103 O 108.909 -1.76782 -0.402231 0
M  V30 1104 C 108.957 -1.83078 3.10668 0
M  V30 1105 O 108.061 -2.9281 2.90407 0
M  V30 1106 H 107.402 -0.268033 0.607499 0
M  V30 1107 H 109.932 -0.215488 2.03462 0
M  V30 1108 H 109.942 -2.2377 3.41161 0
M  V30 1109 H 108.617 -1.23112 3.97261 0
M  V30 1110 H 107.194 -2.55956 2.71184 0
M  V30 1111 N 109.379 -1.50304 -0.473955 0
M  V30 1112 C 110.309 -1.71886 -1.58042 0
M  V30 1113 C 111.29 -0.567799 -1.60344 0
M  V30 1114 O 112.475 -0.806623 -1.76656 0
M  V30 1115 C 109.605 -1.81036 -2.96384 0
M  V30 1116 C 108.559 -2.962 -3.08949 0
M  V30 1117 C 107.885 -2.9049 -4.48909 0
M  V30 1118 C 109.185 -4.36752 -2.86434 0
M  V30 1119 H 110.879 -2.64527 -1.40234 0
M  V30 1120 H 108.425 -1.27295 -0.673201 0
M  V30 1121 H 110.378 -1.94719 -3.73714 0
M  V30 1122 H 109.102 -0.850147 -3.15341 0
M  V30 1123 H 107.761 -2.82164 -2.3405 0
M  V30 1124 H 107.409 -1.92321 -4.64781 0
M  V30 1125 H 107.109 -3.67802 -4.58253 0
M  V30 1126 H 108.633 -3.06218 -5.28264 0
M  V30 1127 H 110.047 -4.5133 -3.53517 0
M  V30 1128 H 108.444 -5.15493 -3.07225 0
M  V30 1129 H 109.514 -4.49321 -1.82316 0
M  V30 1130 N 110.857 0.726932 -1.39834 0
M  V30 1131 C 112.082 1.52121 -1.40976 0
M  V30 1132 C 112.507 1.88098 -0.00826029 0
M  V30 1133 O 111.865 1.52479 0.980807 0
M  V30 1134 C 111.913 2.78021 -2.29644 0
M  V30 1135 O 111.017 3.74272 -1.73188 0
M  V30 1136 H 110.358 0.45908 -0.479731 0
M  V30 1137 H 112.888 0.896207 -1.83927 0
M  V30 1138 H 112.898 3.26671 -2.44438 0
M  V30 1139 H 111.573 2.51169 -3.31492 0
M  V30 1140 H 110.15 3.33073 -1.6768 0
M  V30 1141 N 112.336 1.25143 0.95797 0
M  V30 1142 C 113.584 1.09476 1.69881 0
M  V30 1143 C 113.905 -0.365502 1.91544 0
M  V30 1144 O 113.175 -1.25985 1.50015 0
M  V30 1145 H 111.755 0.402128 0.629525 0
M  V30 1146 H 114.417 1.57214 1.15194 0
M  V30 1147 H 113.513 1.60046 2.6794 0
M  V30 1148 N 113.814 -1.1601 1.06675 0
M  V30 1149 C 115.062 -1.86264 0.784229 0
M  V30 1150 C 115.383 -1.82328 -0.691488 0
M  V30 1151 O 114.653 -1.25947 -1.50047 0
M  V30 1152 H 113.233 -0.689621 0.28711 0
M  V30 1153 H 115.895 -1.40664 1.34906 0
M  V30 1154 H 114.991 -2.91595 1.11259 0
M  V30 1155 N 115.292 -0.849877 -1.32721 0
M  V30 1156 C 116.569 -0.372405 -1.92022 0
M  V30 1157 C 116.949 1.1435 -1.77447 0
M  V30 1158 O 116.297 1.96296 -1.16962 0
M  V30 1159 C 116.507 -0.831482 -3.3895 0
M  V30 1160 C 117.855 -0.845882 -4.16089 0
M  V30 1161 O 118.879 -0.775806 -3.47649 0
M  V30 1162 O 117.738 -0.943753 -5.38289 0
M  V30 1163 H 114.832 -0.107667 -0.819961 0
M  V30 1164 H 117.378 -0.93646 -1.41522 0
M  V30 1165 H 116.15 -1.87448 -3.4348 0
M  V30 1166 H 115.773 -0.24461 -3.96847 0
M  V30 1167 N 116.77 1.45427 -0.607355 0
M  V30 1168 C 117.702 2.2871 0.149752 0
M  V30 1169 C 118.715 1.39937 0.831958 0
M  V30 1170 O 119.904 1.64313 0.697385 0
M  V30 1171 C 117.004 3.15673 1.23304 0
M  V30 1172 C 116.177 4.32722 0.637996 0
M  V30 1173 C 115.236 5.00895 1.61215 0
M  V30 1174 O 114.262 5.57697 1.13854 0
M  V30 1175 N 115.464 5.00159 2.94655 0
M  V30 1176 H 118.229 2.94328 -0.564882 0
M  V30 1177 H 115.79 1.55612 -0.446823 0
M  V30 1178 H 117.782 3.58144 1.88454 0
M  V30 1179 H 116.352 2.51965 1.8502 0
M  V30 1180 H 115.572 3.93734 -0.191572 0
M  V30 1181 H 116.86 5.08321 0.220665 0
M  V30 1182 H 116.258 4.553 3.35735 0
M  V30 1183 H 114.815 5.46495 3.55228 0
M  V30 1184 N 118.248 0.346503 1.53744 0
M  V30 1185 C 119.158 -0.517293 2.28826 0
M  V30 1186 C 120.174 -1.10935 1.3405 0
M  V30 1187 O 121.35 -1.1244 1.6709 0
M  V30 1188 C 118.415 -1.65098 3.04866 0
M  V30 1189 C 117.476 -1.0884 4.15274 0
M  V30 1190 C 116.709 -2.16806 4.87679 0
M  V30 1191 O 116.932 -3.3758 4.59778 0
M  V30 1192 O 115.866 -1.80934 5.74061 0
M  V30 1193 H 119.692 0.0931396 3.03557 0
M  V30 1194 H 117.277 0.111458 1.48984 0
M  V30 1195 H 119.159 -2.31053 3.5241 0
M  V30 1196 H 117.834 -2.24717 2.32989 0
M  V30 1197 H 116.741 -0.3933 3.72027 0
M  V30 1198 H 118.074 -0.537036 4.89261 0
M  V30 1199 N 119.726 -1.57421 0.075193 0
M  V30 1200 C 121.003 -1.85029 -0.634329 0
M  V30 1201 C 121.383 -0.968305 -1.87582 0
M  V30 1202 O 120.731 -0.0354749 -2.28472 0
M  V30 1203 C 120.941 -3.35286 -0.968742 0
M  V30 1204 C 122.289 -4.02875 -1.34077 0
M  V30 1205 O 123.313 -3.40051 -1.06037 0
M  V30 1206 O 122.172 -5.13691 -1.86506 0
M  V30 1207 H 119.266 -0.7645 -0.315387 0
M  V30 1208 H 121.812 -1.69366 0.106382 0
M  V30 1209 H 120.584 -3.91203 -0.0871376 0
M  V30 1210 H 120.207 -3.56223 -1.7661 0
M  V30 1211 N 121.204 0.198386 -1.56346 0
M  V30 1212 C 122.167 1.22952 -1.93431 0
M  V30 1213 C 123.167 1.38611 -0.815092 0
M  V30 1214 O 124.357 1.36479 -1.08255 0
M  V30 1215 C 121.489 2.59946 -2.20546 0
M  V30 1216 H 122.682 0.912626 -2.85677 0
M  V30 1217 H 120.235 0.43977 -1.49986 0
M  V30 1218 H 120.97 2.96696 -1.30927 0
M  V30 1219 H 120.755 2.49953 -3.02102 0
M  V30 1220 H 122.245 3.3431 -2.50253 0
M  V30 1221 N 122.682 1.50554 0.465978 0
M  V30 1222 C 123.93 1.61479 1.21528 0
M  V30 1223 C 124.251 0.319596 1.92363 0
M  V30 1224 O 123.521 -0.663194 1.84333 0
M  V30 1225 H 122.101 0.595055 0.451573 0
M  V30 1226 H 124.763 1.87355 0.53704 0
M  V30 1227 H 123.859 2.42846 1.96042 0
M  V30 1228 N 124.16 -0.719506 1.40217 0
M  V30 1229 C 125.576 -1.02707 1.22161 0
M  V30 1230 C 125.776 -2.0128 0.0940557 0
M  V30 1231 O 124.832 -2.46452 -0.549318 0
M  V30 1232 C 126.145 -1.57454 2.56181 0
M  V30 1233 C 127.693 -1.69458 2.63159 0
M  V30 1234 C 128.168 -2.27611 3.97438 0
M  V30 1235 N 129.659 -2.35002 3.99159 0
M  V30 1236 C 130.394 -2.80972 4.99842 0
M  V30 1237 N 129.89 -3.26723 6.10921 0
M  V30 1238 N 131.683 -2.80321 4.87213 0
M  V30 1239 H 123.834 -0.0660492 2.12297 0
M  V30 1240 H 126.097 -0.0919077 0.943534 0
M  V30 1241 H 125.803 -0.924873 3.39321 0
M  V30 1242 H 125.677 -2.56036 2.76993 0
M  V30 1243 H 128.064 -2.33543 1.80393 0
M  V30 1244 H 128.145 -0.694867 2.46181 0
M  V30 1245 H 127.789 -1.6415 4.80643 0
M  V30 1246 H 127.719 -3.2829 4.11744 0
M  V30 1247 H 130.21 -2.02685 3.18947 0
M  V30 1248 H 130.523 -3.60355 6.8364 0
M  V30 1249 H 128.868 -3.24692 6.14492 0
M  V30 1250 H 132.059 -2.43912 3.9953 0
M  V30 1251 H 132.232 -3.15831 5.65822 0
M  V30 1252 N 125.638 -1.25649 -0.95132 0
M  V30 1253 C 126.887 -1.09988 -1.69073 0
M  V30 1254 C 127.2 0.358355 -1.92289 0
M  V30 1255 O 128.406 0.635466 -2.63958 0
M  V30 1256 C 126.862 -1.92012 -3.044 0
M  V30 1257 C 126.47 -3.42347 -2.88968 0
M  V30 1258 C 128.214 -1.8493 -3.82101 0
M  V30 1259 C 126.121 -4.16655 -4.19705 0
M  V30 1260 H 125.051 -0.407993 -0.63408 0
M  V30 1261 H 127.702 -1.49873 -1.05879 0
M  V30 1262 H 126.084 -1.44952 -3.68517 0
M  V30 1263 H 127.258 -3.97104 -2.33762 0
M  V30 1264 H 125.573 -3.50557 -2.24719 0
M  V30 1265 H 128.17 -2.37739 -4.78941 0
M  V30 1266 H 128.513 -0.817883 -4.08187 0
M  V30 1267 H 129.046 -2.29758 -3.2474 0
M  V30 1268 H 125.785 -5.20224 -3.98807 0
M  V30 1269 H 125.305 -3.66681 -4.74663 0
M  V30 1270 H 126.984 -4.24551 -4.88227 0
M  V30 1271 N 127.117 1.15442 -1.07289 0
M  V30 1272 C 128.047 2.22312 -0.714107 0
M  V30 1273 C 129.028 1.67467 0.298155 0
M  V30 1274 O 130.213 1.93445 0.171048 0
M  V30 1275 C 127.343 3.47124 -0.110448 0
M  V30 1276 C 126.297 4.14926 -1.04979 0
M  V30 1277 C 125.623 5.33807 -0.308924 0
M  V30 1278 C 126.923 4.64762 -2.38314 0
M  V30 1279 H 128.617 2.5258 -1.6076 0
M  V30 1280 H 126.163 1.21404 -0.77441 0
M  V30 1281 H 128.116 4.21124 0.152482 0
M  V30 1282 H 126.84 3.16187 0.81812 0
M  V30 1283 H 125.499 3.42866 -1.29764 0
M  V30 1284 H 125.147 4.99126 0.623084 0
M  V30 1285 H 124.847 5.80113 -0.935036 0
M  V30 1286 H 126.371 6.10576 -0.0537771 0
M  V30 1287 H 127.785 5.30292 -2.1786 0
M  V30 1288 H 126.182 5.21728 -2.96514 0
M  V30 1289 H 127.252 3.80434 -3.00663 0
M  V30 1290 N 128.595 0.856903 1.32268 0
M  V30 1291 C 129.844 0.457599 1.96441 0
M  V30 1292 C 130.157 -0.992426 1.68553 0
M  V30 1293 O 131.363 -1.49727 2.26482 0
M  V30 1294 C 129.819 0.767358 3.51624 0
M  V30 1295 C 129.427 2.23326 3.88367 0
M  V30 1296 C 131.171 0.435887 4.22256 0
M  V30 1297 C 129.078 2.48613 5.36606 0
M  V30 1298 H 128.008 0.167387 0.735185 0
M  V30 1299 H 130.659 1.048 1.5063 0
M  V30 1300 H 129.041 0.106367 3.95857 0
M  V30 1301 H 130.215 2.93623 3.55137 0
M  V30 1302 H 128.53 2.52948 3.30766 0
M  V30 1303 H 131.127 0.602202 5.31298 0
M  V30 1304 H 131.47 -0.622672 4.11617 0
M  V30 1305 H 132.003 1.05286 3.83614 0
M  V30 1306 H 128.742 3.53101 5.52268 0
M  V30 1307 H 128.262 1.82896 5.71235 0
M  V30 1308 H 129.941 2.32676 6.03714 0
M  V30 1309 N 130.073 -1.45103 0.615059 0
M  V30 1310 C 130.983 -2.34382 -0.101034 0
M  V30 1311 C 131.999 -1.51681 -0.852585 0
M  V30 1312 O 133.175 -1.8446 -0.808484 0
M  V30 1313 C 130.24 -3.29417 -1.08099 0
M  V30 1314 C 129.301 -4.28025 -0.330577 0
M  V30 1315 C 128.534 -5.1852 -1.26385 0
M  V30 1316 O 128.757 -5.12598 -2.50198 0
M  V30 1317 O 127.691 -5.97122 -0.756866 0
M  V30 1318 H 131.517 -2.97033 0.632855 0
M  V30 1319 H 129.102 -1.4461 0.375293 0
M  V30 1320 H 130.984 -3.87958 -1.6452 0
M  V30 1321 H 129.659 -2.69321 -1.79577 0
M  V30 1322 H 128.566 -3.73078 0.276283 0
M  V30 1323 H 129.899 -4.90997 0.343866 0
M  V30 1324 N 131.551 -0.354651 -1.53558 0
M  V30 1325 C 132.461 0.50515 -2.29097 0
M  V30 1326 C 133.477 1.10223 -1.34636 0
M  V30 1327 O 134.653 1.11553 -1.67684 0
M  V30 1328 C 131.718 1.63479 -3.05738 0
M  V30 1329 C 130.779 1.06636 -4.15845 0
M  V30 1330 C 130.012 2.14217 -4.88822 0
M  V30 1331 O 130.235 3.35137 -4.61562 0
M  V30 1332 O 129.169 1.77887 -5.75013 0
M  V30 1333 H 132.995 -0.109237 -3.03503 0
M  V30 1334 H 130.58 -0.119357 -1.48922 0
M  V30 1335 H 132.462 2.2918 -3.5363 0
M  V30 1336 H 131.137 2.23478 -2.34178 0
M  V30 1337 H 130.044 0.373565 -3.7223 0
M  V30 1338 H 131.377 0.511081 -4.89539 0
M  V30 1339 N 133.029 1.57378 -0.0835403 0
M  V30 1340 C 133.959 2.1641 0.87686 0
M  V30 1341 C 134.94 1.09429 1.30228 0
M  V30 1342 O 136.125 1.37516 1.37124 0
M  V30 1343 C 133.255 2.73517 2.14022 0
M  V30 1344 C 132.209 3.85769 1.85381 0
M  V30 1345 C 131.535 4.29529 3.18448 0
M  V30 1346 C 132.835 5.09486 1.14984 0
M  V30 1347 H 134.529 2.96914 0.385059 0
M  V30 1348 H 132.075 1.42823 0.18377 0
M  V30 1349 H 134.028 3.13463 2.81636 0
M  V30 1350 H 132.752 1.90252 2.65465 0
M  V30 1351 H 131.411 3.46345 1.20169 0
M  V30 1352 H 131.059 3.43169 3.67755 0
M  V30 1353 H 130.759 5.05204 3.00071 0
M  V30 1354 H 132.283 4.72099 3.8724 0
M  V30 1355 H 133.697 5.46674 1.72687 0
M  V30 1356 H 132.094 5.90515 1.06826 0
M  V30 1357 H 133.164 4.84724 0.130749 0
M  V30 1358 N 134.507 -0.190092 1.56449 0
M  V30 1359 C 135.923 -0.54113 1.50146 0
M  V30 1360 C 136.123 -1.85603 0.784465 0
M  V30 1361 O 135.179 -2.5024 0.337051 0
M  V30 1362 C 136.492 -0.591241 2.9483 0
M  V30 1363 C 138.04 -0.679732 3.0553 0
M  V30 1364 C 138.515 -0.760908 4.51635 0
M  V30 1365 N 140.006 -0.824302 4.55806 0
M  V30 1366 C 140.741 -0.907365 5.66175 0
M  V30 1367 N 140.237 -0.952422 6.86222 0
M  V30 1368 N 142.03 -0.94494 5.541 0
M  V30 1369 H 134.181 0.67235 2.01478 0
M  V30 1370 H 136.444 0.240127 0.917084 0
M  V30 1371 H 136.15 0.305905 3.50367 0
M  V30 1372 H 136.024 -1.44422 3.48457 0
M  V30 1373 H 138.411 -1.56731 2.50039 0
M  V30 1374 H 138.492 0.199549 2.5502 0
M  V30 1375 H 138.136 0.122336 5.07753 0
M  V30 1376 H 138.066 -1.65606 4.99882 0
M  V30 1377 H 140.557 -0.798526 3.69367 0
M  V30 1378 H 140.87 -1.01645 7.66086 0
M  V30 1379 H 139.215 -0.921014 6.8887 0
M  V30 1380 H 142.406 -0.906612 4.59236 0
M  V30 1381 H 142.579 -1.00622 6.4014 0
M  V30 1382 N 135.985 -1.50799 -0.457987 0
M  V30 1383 C 137.262 -1.52968 -1.21902 0
M  V30 1384 C 137.642 -0.281906 -2.09209 0
M  V30 1385 O 136.99 0.734076 -2.16388 0
M  V30 1386 C 137.2 -2.8326 -2.03875 0
M  V30 1387 C 138.548 -3.34425 -2.6162 0
M  V30 1388 O 139.572 -2.8467 -2.14106 0
M  V30 1389 O 138.431 -4.21188 -3.48228 0
M  V30 1390 H 135.525 -0.614129 -0.553873 0
M  V30 1391 H 138.071 -1.63098 -0.468739 0
M  V30 1392 H 136.843 -3.65543 -1.39621 0
M  V30 1393 H 136.466 -2.76195 -2.8601 0
M  V30 1394 N 137.463 0.71206 -1.40597 0
M  V30 1395 C 138.879 1.02058 -1.22704 0
M  V30 1396 C 139.079 2.01228 -0.104729 0
M  V30 1397 O 138.135 2.4674 0.53624 0
M  V30 1398 C 139.448 1.56094 -2.57012 0
M  V30 1399 C 140.996 1.6806 -2.64054 0
M  V30 1400 C 141.471 2.25501 -3.9864 0
M  V30 1401 N 142.962 2.32882 -4.004 0
M  V30 1402 C 143.697 2.78317 -5.01325 0
M  V30 1403 N 143.193 3.23478 -6.12645 0
M  V30 1404 N 144.986 2.77733 -4.88693 0
M  V30 1405 H 137.137 0.0547896 -2.12329 0
M  V30 1406 H 139.4 0.0869027 -0.944008 0
M  V30 1407 H 139.106 0.906865 -3.39807 0
M  V30 1408 H 138.98 2.54564 -2.78347 0
M  V30 1409 H 141.367 2.32583 -1.81629 0
M  V30 1410 H 141.448 0.681802 -2.46546 0
M  V30 1411 H 141.092 1.61598 -4.81506 0
M  V30 1412 H 141.022 3.26102 -4.13479 0
M  V30 1413 H 143.513 2.00991 -3.20017 0
M  V30 1414 H 143.826 3.56725 -6.85542 0
M  V30 1415 H 142.171 3.21429 -6.16205 0
M  V30 1416 H 145.362 2.4179 -4.00818 0
M  V30 1417 H 145.535 3.12826 -5.67489 0
M  V30 1418 N 138.941 1.26152 0.944643 0
M  V30 1419 C 140.188 1.11492 1.69044 0
M  V30 1420 C 140.516 -0.342366 1.91463 0
M  V30 1421 O 139.771 -1.26812 1.49054 0
M  V30 1422 C 140.07 1.82541 3.07268 0
M  V30 1423 C 139.736 3.32445 3.04616 0
M  V30 1424 C 138.398 3.73337 3.036 0
M  V30 1425 C 140.75 4.28171 2.97185 0
M  V30 1426 C 138.078 5.08348 2.92915 0
M  V30 1427 C 140.43 5.63218 2.88041 0
M  V30 1428 C 139.094 6.03426 2.85366 0
M  V30 1429 H 138.364 0.407977 0.618576 0
M  V30 1430 H 141.011 1.56551 1.10291 0
M  V30 1431 H 139.316 1.29941 3.69625 0
M  V30 1432 H 141.013 1.68642 3.63815 0
M  V30 1433 H 137.603 2.99915 3.06185 0
M  V30 1434 H 141.787 3.97563 2.97081 0
M  V30 1435 H 137.043 5.38667 2.89219 0
M  V30 1436 H 141.217 6.37078 2.81254 0
M  V30 1437 H 138.844 7.07999 2.76842 0
M  V30 1438 N 140.419 -1.14872 1.07899 0
M  V30 1439 C 141.83 -1.67367 0.827363 0
M  V30 1440 C 142.181 -1.85236 -0.646693 0
M  V30 1441 O 141.306 -1.55974 -1.50004 0
M  V30 1442 C 141.901 -3.04016 1.49532 0
M  V30 1443 C 140.46 -3.53566 1.29106 0
M  V30 1444 C 139.607 -2.29161 1.56143 0
M  V30 1445 H 142.558 -0.990083 1.24028 0
M  V30 1446 H 142.579 -3.69219 0.919643 0
M  V30 1447 H 142.091 -2.90978 2.56814 0
M  V30 1448 H 140.192 -3.71835 0.238713 0
M  V30 1449 H 140.305 -4.34661 2.01511 0
M  V30 1450 H 138.669 -2.34978 0.982717 0
M  V30 1451 H 139.452 -2.18705 2.64619 0
M  V30 1452 N 141.898 -0.863906 -1.31812 0
M  V30 1453 C 143.128 -0.485406 -2.00817 0
M  V30 1454 C 143.536 0.925007 -1.65046 0
M  V30 1455 O 142.879 1.61653 -0.872574 0
M  V30 1456 C 142.941 -0.555589 -3.55181 0
M  V30 1457 C 142.605 -1.92654 -4.14407 0
M  V30 1458 C 143.602 -2.89324 -4.31958 0
M  V30 1459 C 141.287 -2.2262 -4.50273 0
M  V30 1460 C 143.281 -4.14108 -4.84555 0
M  V30 1461 C 140.968 -3.47654 -5.02573 0
M  V30 1462 C 141.966 -4.43214 -5.19664 0
M  V30 1463 O 141.654 -5.66033 -5.70843 0
M  V30 1464 H 141.386 -0.188224 -0.649267 0
M  V30 1465 H 143.94 -1.16514 -1.69156 0
M  V30 1466 H 142.17 0.181037 -3.86276 0
M  V30 1467 H 143.859 -0.19138 -4.05449 0
M  V30 1468 H 144.625 -2.6748 -4.04573 0
M  V30 1469 H 140.504 -1.4902 -4.3625 0
M  V30 1470 H 144.048 -4.88703 -4.9781 0
M  V30 1471 H 139.945 -3.69345 -5.29391 0
M  V30 1472 H 140.713 -5.6812 -5.89222 0
M  V30 1473 N 143.376 1.44774 -0.622745 0
M  V30 1474 C 144.306 2.33382 0.0741861 0
M  V30 1475 C 145.287 1.47719 0.843387 0
M  V30 1476 O 146.472 1.76458 0.810934 0
M  V30 1477 C 143.602 3.30663 1.06204 0
M  V30 1478 C 142.556 4.26079 0.405037 0
M  V30 1479 C 141.882 5.13165 1.5022 0
M  V30 1480 C 143.182 5.1781 -0.683414 0
M  V30 1481 H 144.876 2.91905 -0.665713 0
M  V30 1482 H 142.422 1.40363 -0.321587 0
M  V30 1483 H 144.375 3.9153 1.55827 0
M  V30 1484 H 143.099 2.70331 1.83272 0
M  V30 1485 H 141.758 3.66532 -0.0704683 0
M  V30 1486 H 141.406 4.49191 2.26355 0
M  V30 1487 H 141.106 5.77812 1.06803 0
M  V30 1488 H 142.63 5.76902 2.00041 0
M  V30 1489 H 144.044 5.72661 -0.270631 0
M  V30 1490 H 142.441 5.91015 -1.04023 0
M  V30 1491 H 143.511 4.59326 -1.55395 0
M  V30 1492 N 144.854 0.36279 1.53368 0
M  V30 1493 C 146.079 -0.231226 2.06107 0
M  V30 1494 C 146.504 -1.419 1.23474 0
M  V30 1495 O 145.862 -1.79524 0.253128 0
M  V30 1496 C 145.91 -0.605523 3.5548 0
M  V30 1497 O 145.014 -1.70312 3.7559 0
M  V30 1498 H 144.355 -0.034327 0.663112 0
M  V30 1499 H 146.885 0.522584 1.97814 0
M  V30 1500 H 146.895 -0.877314 3.98456 0
M  V30 1501 H 145.57 0.263004 4.15068 0
M  V30 1502 H 144.147 -1.4271 3.44512 0
M  V30 1503 N 146.332 -1.57332 0.0918853 0
M  V30 1504 C 147.242 -2.17368 -0.882505 0
M  V30 1505 C 148.258 -1.14226 -1.31257 0
M  V30 1506 O 149.434 -1.46582 -1.38115 0
M  V30 1507 C 146.499 -2.73962 -2.12476 0
M  V30 1508 C 145.56 -3.92048 -1.7492 0
M  V30 1509 C 144.793 -4.45933 -2.93223 0
M  V30 1510 O 145.016 -3.98764 -4.07852 0
M  V30 1511 O 143.95 -5.36999 -2.71875 0
M  V30 1512 H 147.776 -3.01031 -0.40172 0
M  V30 1513 H 145.361 -1.48813 -0.132291 0
M  V30 1514 H 147.243 -3.10147 -2.85283 0
M  V30 1515 H 145.918 -1.93347 -2.59613 0
M  V30 1516 H 144.825 -3.6068 -0.993025 0
M  V30 1517 H 146.158 -4.74017 -1.32548 0
M  V30 1518 N 147.81 0.181792 -1.56548 0
M  V30 1519 C 149.035 0.920019 -1.85877 0
M  V30 1520 C 149.46 1.75494 -0.677021 0
M  V30 1521 O 148.818 1.77399 0.374056 0
M  V30 1522 C 148.866 1.78112 -3.13542 0
M  V30 1523 O 147.97 2.88152 -2.95029 0
M  V30 1524 H 147.311 0.258334 -0.611686 0
M  V30 1525 H 149.841 0.183092 -2.03779 0
M  V30 1526 H 149.851 2.18314 -3.44678 0
M  V30 1527 H 148.526 1.16777 -3.99169 0
M  V30 1528 H 147.103 2.51609 -2.75222 0
M  V30 1529 N 149.288 1.51039 0.449983 0
M  V30 1530 C 150.518 1.66627 1.22143 0
M  V30 1531 C 150.926 0.357776 1.85786 0
M  V30 1532 O 150.269 -0.672424 1.70951 0
M  V30 1533 C 150.331 2.71562 2.35573 0
M  V30 1534 C 149.995 4.14526 1.92399 0
M  V30 1535 C 150.992 4.99717 1.43453 0
M  V30 1536 C 148.677 4.60559 2.00475 0
M  V30 1537 C 150.671 6.28998 1.03155 0
M  V30 1538 C 148.358 5.8984 1.59788 0
M  V30 1539 C 149.356 6.73886 1.11208 0
M  V30 1540 O 149.044 8.0075 0.710935 0
M  V30 1541 H 148.776 0.562635 0.374724 0
M  V30 1542 H 151.33 1.98146 0.541036 0
M  V30 1543 H 149.56 2.3533 3.06849 0
M  V30 1544 H 151.249 2.76156 2.97478 0
M  V30 1545 H 152.015 4.65361 1.36618 0
M  V30 1546 H 147.894 3.95273 2.37235 0
M  V30 1547 H 151.438 6.9455 0.651663 0
M  V30 1548 H 147.335 6.23713 1.66289 0
M  V30 1549 H 148.103 8.142 0.837913 0
M  V30 1550 N 150.766 -0.704594 1.40972 0
M  V30 1551 C 151.696 -1.83124 1.44872 0
M  V30 1552 C 152.677 -1.67281 0.30838 0
M  V30 1553 O 153.862 -1.87149 0.518556 0
M  V30 1554 C 150.992 -3.21181 1.32136 0
M  V30 1555 C 149.946 -3.51714 2.43888 0
M  V30 1556 C 149.272 -4.89032 2.16222 0
M  V30 1557 C 150.572 -3.516 3.86232 0
M  V30 1558 H 152.266 -1.80117 2.39161 0
M  V30 1559 H 149.812 -0.865145 1.15114 0
M  V30 1560 H 151.765 -3.99702 1.33479 0
M  V30 1561 H 150.489 -3.24791 0.343279 0
M  V30 1562 H 149.148 -2.75539 2.41813 0
M  V30 1563 H 148.796 -4.89256 1.16778 0
M  V30 1564 H 148.496 -5.10426 2.911 0
M  V30 1565 H 150.02 -5.69873 2.19265 0
M  V30 1566 H 151.434 -4.2014 3.9007 0
M  V30 1567 H 149.831 -3.84523 4.60719 0
M  V30 1568 H 150.901 -2.50757 4.15029 0
M  V30 1569 N 152.244 -1.26651 -0.937939 0
M  V30 1570 C 153.493 -1.11775 -1.67897 0
M  V30 1571 C 153.806 0.33794 -1.92659 0
M  V30 1572 O 155.012 0.607434 -2.64618 0
M  V30 1573 C 153.468 -1.9523 -3.02346 0
M  V30 1574 C 153.076 -3.45393 -2.8532 0
M  V30 1575 C 154.82 -1.88972 -3.80118 0
M  V30 1576 C 152.727 -4.21083 -4.15263 0
M  V30 1577 H 151.657 -0.414696 -0.629717 0
M  V30 1578 H 154.308 -1.50988 -1.04283 0
M  V30 1579 H 152.69 -1.48853 -3.66959 0
M  V30 1580 H 153.864 -3.99561 -2.29537 0
M  V30 1581 H 152.179 -3.52921 -2.20988 0
M  V30 1582 H 154.776 -2.42805 -4.76392 0
M  V30 1583 H 155.119 -0.86113 -4.07296 0
M  V30 1584 H 155.652 -2.33189 -3.22285 0
M  V30 1585 H 152.391 -5.24425 -3.93267 0
M  V30 1586 H 151.911 -3.71695 -4.70747 0
M  V30 1587 H 153.59 -4.29706 -4.83696 0
M  V30 1588 N 153.722 1.14298 -1.08507 0
M  V30 1589 C 154.95 1.89219 -0.836876 0
M  V30 1590 C 155.365 1.78638 0.611054 0
M  V30 1591 O 154.722 1.14643 1.41998 0
M  V30 1592 C 154.773 3.39158 -1.25116 0
M  V30 1593 O 154.494 3.49449 -2.64229 0
M  V30 1594 C 155.995 4.31073 -1.03398 0
M  V30 1595 H 153.215 0.599328 -0.301739 0
M  V30 1596 H 155.759 1.44746 -1.44461 0
M  V30 1597 H 153.914 3.81251 -0.687514 0
M  V30 1598 H 154.328 4.42589 -2.81452 0
M  V30 1599 H 155.802 5.34646 -1.37323 0
M  V30 1600 H 156.279 4.3919 0.0289259 0
M  V30 1601 H 156.885 3.94738 -1.58311 0
M  V30 1602 N 155.201 0.870884 1.31352 0
M  V30 1603 C 156.429 0.49677 2.00848 0
M  V30 1604 C 156.844 -0.910998 1.65367 0
M  V30 1605 O 156.201 -1.59696 0.883374 0
M  V30 1606 C 156.252 0.645308 3.55694 0
M  V30 1607 O 155.973 1.99764 3.89905 0
M  V30 1608 C 157.474 0.272326 4.42463 0
M  V30 1609 H 154.694 0.193462 0.642506 0
M  V30 1610 H 157.238 1.1723 1.67563 0
M  V30 1611 H 155.393 0.0173176 3.87396 0
M  V30 1612 H 155.807 2.00607 4.84621 0
M  V30 1613 H 157.281 0.427208 5.50344 0
M  V30 1614 H 157.758 -0.788587 4.32062 0
M  V30 1615 H 158.364 0.876054 4.1618 0
M  V30 1616 N 156.679 -1.44442 0.630414 0
M  V30 1617 C 157.956 -1.9549 0.0655657 0
M  V30 1618 C 158.336 -1.5724 -1.40851 0
M  V30 1619 O 157.684 -0.846116 -2.12257 0
M  V30 1620 C 157.894 -3.47812 0.287691 0
M  V30 1621 C 159.242 -4.24216 0.180513 0
M  V30 1622 O 160.266 -3.55526 0.219019 0
M  V30 1623 O 159.125 -5.46434 0.0848493 0
M  V30 1624 H 156.219 -0.826688 -0.0227177 0
M  V30 1625 H 158.765 -1.54496 0.702068 0
M  V30 1626 H 157.537 -3.687 1.31056 0
M  V30 1627 H 157.16 -3.95751 -0.382984 0
M  V30 1628 N 158.157 -0.370918 -1.53173 0
M  V30 1629 C 159.12 0.460778 -2.24521 0
M  V30 1630 C 160.12 1.00536 -1.25496 0
M  V30 1631 O 161.31 0.890266 -1.49733 0
M  V30 1632 C 158.442 1.64457 -2.98608 0
M  V30 1633 H 159.635 -0.163613 -2.99453 0
M  V30 1634 H 157.188 -0.122699 -1.55818 0
M  V30 1635 H 157.923 2.30691 -2.2793 0
M  V30 1636 H 157.708 1.26099 -3.7127 0
M  V30 1637 H 159.198 2.23384 -3.5283 0
M  V30 1638 N 159.635 1.57281 -0.100228 0
M  V30 1639 C 160.598 2.13158 0.842398 0
M  V30 1640 C 161.598 1.06202 1.20738 0
M  V30 1641 O 162.788 1.32066 1.13597 0
M  V30 1642 C 159.92 2.65639 2.13655 0
M  V30 1643 H 161.113 2.97766 0.357114 0
M  V30 1644 H 158.666 1.5559 0.148823 0
M  V30 1645 H 159.401 1.84566 2.66657 0
M  V30 1646 H 159.186 3.43844 1.88451 0
M  V30 1647 H 160.676 3.08846 2.81077 0
M  V30 1648 N 161.113 -0.173488 1.56642 0
M  V30 1649 C 162.361 -0.888706 1.81512 0
M  V30 1650 C 162.682 -1.82875 0.676872 0
M  V30 1651 O 161.952 -1.93536 -0.303414 0
M  V30 1652 H 160.532 -0.331164 0.669582 0
M  V30 1653 H 163.194 -0.173823 1.94123 0
M  V30 1654 H 162.29 -1.46691 2.75478 0
M  V30 1655 N 162.591 -1.51276 -0.441967 0
M  V30 1656 C 163.816 -1.67799 -1.21895 0
M  V30 1657 C 164.241 -0.372864 -1.84367 0
M  V30 1658 O 163.599 0.666501 -1.68604 0
M  V30 1659 C 163.647 -2.79199 -2.28211 0
M  V30 1660 O 162.751 -2.42479 -3.33583 0
M  V30 1661 H 162.092 -0.559649 -0.357336 0
M  V30 1662 H 164.622 -1.97815 -0.522522 0
M  V30 1663 H 164.632 -3.03146 -2.73069 0
M  V30 1664 H 163.307 -3.73906 -1.82118 0
M  V30 1665 H 161.884 -2.29087 -2.94234 0
M  V30 1666 N 164.069 0.697108 -1.41344 0
M  V30 1667 C 165.318 1.45279 -1.39918 0
M  V30 1668 C 165.631 1.95597 -0.0109624 0
M  V30 1669 O 166.837 2.71208 0.125919 0
M  V30 1670 C 165.293 2.62695 -2.46007 0
M  V30 1671 C 164.901 2.19169 -3.90729 0
M  V30 1672 C 166.645 3.40336 -2.53715 0
M  V30 1673 C 164.552 3.33535 -4.88373 0
M  V30 1674 H 163.482 0.545692 -0.520323 0
M  V30 1675 H 166.133 0.756929 -1.67161 0
M  V30 1676 H 164.515 3.34541 -2.11892 0
M  V30 1677 H 165.689 1.54623 -4.34083 0
M  V30 1678 H 164.004 1.54525 -3.86666 0
M  V30 1679 H 166.601 4.2547 -3.2385 0
M  V30 1680 H 166.944 3.85418 -1.5735 0
M  V30 1681 H 167.477 2.75546 -2.86913 0
M  V30 1682 H 164.216 2.93468 -5.86137 0
M  V30 1683 H 163.736 3.96936 -4.49668 0
M  V30 1684 H 165.415 3.99335 -5.09059 0
M  V30 1685 N 165.547 1.27147 0.931209 0
M  V30 1686 C 166.51 1.09615 2.01289 0
M  V30 1687 C 167.51 0.0412581 1.60747 0
M  V30 1688 O 168.7 0.285545 1.71844 0
M  V30 1689 C 165.832 0.669447 3.34262 0
M  V30 1690 H 167.025 2.05662 2.18273 0
M  V30 1691 H 164.578 1.09885 1.11153 0
M  V30 1692 H 165.313 -0.292572 3.22978 0
M  V30 1693 H 165.098 1.43127 3.65044 0
M  V30 1694 H 166.588 0.568921 4.13706 0
M  V30 1695 N 167.025 -1.13721 1.09112 0
M  V30 1696 C 168.253 -1.88773 0.846899 0
M  V30 1697 C 168.668 -1.7896 -0.601572 0
M  V30 1698 O 168.025 -1.15394 -1.41388 0
M  V30 1699 C 168.076 -3.3849 1.26913 0
M  V30 1700 O 167.797 -3.48043 2.66079 0
M  V30 1701 C 169.298 -4.30518 1.05682 0
M  V30 1702 H 166.518 -0.59772 0.304914 0
M  V30 1703 H 169.062 -1.43977 1.45227 0
M  V30 1704 H 167.217 -3.80881 0.707723 0
M  V30 1705 H 167.631 -4.4109 2.83795 0
M  V30 1706 H 169.105 -5.3391 1.40156 0
M  V30 1707 H 169.582 -4.392 -0.00563416 0
M  V30 1708 H 170.188 -3.93893 1.60402 0
M  V30 1709 N 168.503 -0.877838 -1.30888 0
M  V30 1710 C 169.466 -0.344265 -2.266 0
M  V30 1711 C 170.466 0.50922 -1.52524 0
M  V30 1712 O 171.656 0.317398 -1.71284 0
M  V30 1713 C 168.788 0.510198 -3.37061 0
M  V30 1714 H 169.981 -1.1893 -2.7531 0
M  V30 1715 H 167.534 -0.654088 -1.41956 0
M  V30 1716 H 168.269 1.37612 -2.93655 0
M  V30 1717 H 168.054 -0.101047 -3.9197 0
M  V30 1718 H 169.544 0.875537 -4.08319 0
M  V30 1719 N 169.982 1.44106 -0.638065 0
M  V30 1720 C 171.21 2.06336 -0.152615 0
M  V30 1721 C 171.625 1.47731 1.17563 0
M  V30 1722 O 170.982 0.602806 1.72257 0
M  V30 1723 C 171.033 3.61479 -0.0391491 0
M  V30 1724 O 170.754 4.17903 -1.31487 0
M  V30 1725 C 172.255 4.40757 0.474176 0
M  V30 1726 H 169.475 0.665862 -0.0828776 0
M  V30 1727 H 172.019 1.84862 -0.87443 0
M  V30 1728 H 170.174 3.82191 0.633142 0
M  V30 1729 H 170.588 5.11416 -1.16421 0
M  V30 1730 H 172.062 5.49707 0.502562 0
M  V30 1731 H 172.539 4.12697 1.50258 0
M  V30 1732 H 173.145 4.24979 -0.165102 0
M  V30 1733 N 171.46 0.379036 1.52974 0
M  V30 1734 C 172.871 -0.0972525 1.86447 0
M  V30 1735 C 173.222 -1.47027 1.29914 0
M  V30 1736 O 172.347 -2.07135 0.626433 0
M  V30 1737 C 172.942 -0.183248 3.38304 0
M  V30 1738 C 171.501 -0.603812 3.71525 0
M  V30 1739 C 170.648 0.240632 2.76254 0
M  V30 1740 H 173.599 0.597316 1.4703 0
M  V30 1741 H 173.62 -1.00432 3.67006 0
M  V30 1742 H 173.132 0.816191 3.79421 0
M  V30 1743 H 171.233 -1.61099 3.35973 0
M  V30 1744 H 171.346 -0.369086 4.77676 0
M  V30 1745 H 169.71 -0.292548 2.53014 0
M  V30 1746 H 170.493 1.23786 3.20206 0
M  V30 1747 N 172.938 -1.57226 0.108567 0
M  V30 1748 C 174.215 -1.86333 -0.594939 0
M  V30 1749 C 174.595 -1.00788 -1.85486 0
M  V30 1750 O 173.943 -0.0839293 -2.28346 0
M  V30 1751 C 174.153 -3.37265 -0.897405 0
M  V30 1752 C 175.501 -4.05629 -1.25501 0
M  V30 1753 O 176.525 -3.42224 -0.987998 0
M  V30 1754 O 175.384 -5.17531 -1.75567 0
M  V30 1755 H 172.478 -0.771018 -0.2991 0
M  V30 1756 H 175.024 -1.69102 0.142283 0
M  V30 1757 H 173.796 -3.913 -0.00413806 0
M  V30 1758 H 173.419 -3.59889 -1.69014 0
M  V30 1759 N 174.416 0.165178 -1.56732 0
M  V30 1760 C 175.664 0.879068 -1.8198 0
M  V30 1761 C 175.985 1.82514 -0.686561 0
M  V30 1762 O 175.255 1.93694 0.293146 0
M  V30 1763 H 173.835 0.327608 -0.671329 0
M  V30 1764 H 176.497 0.163526 -1.94213 0
M  V30 1765 H 175.593 1.45228 -2.76252 0
M  V30 1766 N 175.894 1.51508 0.433938 0
M  V30 1767 C 177.142 1.6402 1.18075 0
M  V30 1768 C 177.463 0.360328 1.91642 0
M  V30 1769 O 176.733 -0.623945 1.85698 0
M  V30 1770 H 175.313 0.6045 0.43885 0
M  V30 1771 H 177.975 1.88452 0.497178 0
M  V30 1772 H 177.071 2.46949 1.90847 0
M  V30 1773 N 177.372 -0.689602 1.41712 0
M  V30 1774 C 178.618 -1.45181 1.41599 0
M  V30 1775 C 178.951 -1.94181 0.0270081 0
M  V30 1776 O 178.226 -1.6993 -0.946265 0
M  V30 1777 C 178.509 -2.65945 2.42787 0
M  V30 1778 C 178.362 -2.22672 3.90816 0
M  V30 1779 C 179.681 -3.68149 2.41151 0
M  V30 1780 H 176.8 -0.526576 0.515642 0
M  V30 1781 H 179.442 -0.784947 1.73028 0
M  V30 1782 H 177.592 -3.2284 2.16116 0
M  V30 1783 H 179.264 -1.71058 4.28412 0
M  V30 1784 H 177.507 -1.54394 4.05395 0
M  V30 1785 H 178.178 -3.0935 4.57172 0
M  V30 1786 H 180.654 -3.2094 2.64834 0
M  V30 1787 H 179.53 -4.50248 3.13955 0
M  V30 1788 H 179.791 -4.18259 1.43221 0
M  V30 1789 N 178.85 -1.27639 -0.924453 0
M  V30 1790 C 180.096 -1.14336 -1.67497 0
M  V30 1791 C 180.429 0.309465 -1.91718 0
M  V30 1792 O 179.704 1.22608 -1.50989 0
M  V30 1793 C 179.987 -1.93096 -3.0395 0
M  V30 1794 C 179.84 -3.46381 -2.8695 0
M  V30 1795 C 181.159 -1.73798 -4.0433 0
M  V30 1796 H 178.278 -0.416728 -0.607871 0
M  V30 1797 H 180.92 -1.56832 -1.07256 0
M  V30 1798 H 179.07 -1.56982 -3.55372 0
M  V30 1799 H 180.742 -3.92343 -2.42621 0
M  V30 1800 H 178.985 -3.72557 -2.22225 0
M  V30 1801 H 179.656 -3.96735 -3.83804 0
M  V30 1802 H 182.132 -2.05293 -3.61931 0
M  V30 1803 H 181.008 -2.31294 -4.97789 0
M  V30 1804 H 181.269 -0.686725 -4.36734 0
M  V30 1805 N 180.328 1.1314 -1.09713 0
M  V30 1806 C 181.258 2.20748 -0.761102 0
M  V30 1807 C 182.239 1.68061 0.262566 0
M  V30 1808 O 183.424 1.93765 0.129977 0
M  V30 1809 C 180.554 3.46812 -0.184054 0
M  V30 1810 C 179.508 4.12606 -1.13757 0
M  V30 1811 C 178.834 5.33031 -0.422083 0
M  V30 1812 C 180.134 4.59603 -2.48118 0
M  V30 1813 H 181.828 2.49113 -1.66082 0
M  V30 1814 H 179.374 1.19734 -0.799987 0
M  V30 1815 H 181.327 4.21353 0.0631215 0
M  V30 1816 H 180.051 3.17851 0.750868 0
M  V30 1817 H 178.71 3.40036 -1.37007 0
M  V30 1818 H 178.358 5.00335 0.517072 0
M  V30 1819 H 178.058 5.77999 -1.05788 0
M  V30 1820 H 179.582 6.10325 -0.183277 0
M  V30 1821 H 180.996 5.25552 -2.29059 0
M  V30 1822 H 179.393 5.15321 -3.07514 0
M  V30 1823 H 180.463 3.73971 -3.08665 0
M  V30 1824 N 181.806 0.884767 1.30421 0
M  V30 1825 C 183.055 0.499164 1.95426 0
M  V30 1826 C 183.368 -0.95645 1.70621 0
M  V30 1827 O 184.574 -1.44889 2.29607 0
M  V30 1828 C 183.03 0.84177 3.49917 0
M  V30 1829 C 182.638 2.31514 3.83543 0
M  V30 1830 C 184.382 0.525355 4.21237 0
M  V30 1831 C 182.289 2.59939 5.31212 0
M  V30 1832 H 181.219 0.182944 0.73147 0
M  V30 1833 H 183.87 1.07971 1.48373 0
M  V30 1834 H 182.252 0.190311 3.95542 0
M  V30 1835 H 183.426 3.0109 3.48829 0
M  V30 1836 H 181.741 2.59907 3.25326 0
M  V30 1837 H 184.338 0.714762 5.29901 0
M  V30 1838 H 184.681 -0.535222 4.12845 0
M  V30 1839 H 185.214 1.134 3.81294 0
M  V30 1840 H 181.953 3.64736 5.44654 0
M  V30 1841 H 181.473 1.94972 5.67227 0
M  V30 1842 H 183.152 2.45429 5.98643 0
M  V30 1843 N 183.284 -1.43765 0.645699 0
M  V30 1844 C 184.509 -2.06767 0.161883 0
M  V30 1845 C 184.934 -1.48034 -1.16049 0
M  V30 1846 O 184.292 -0.587369 -1.71522 0
M  V30 1847 C 184.34 -3.60519 0.0762003 0
M  V30 1848 O 183.444 -4.00982 -0.963721 0
M  V30 1849 H 182.785 -0.657675 0.091429 0
M  V30 1850 H 185.315 -1.84397 0.886499 0
M  V30 1851 H 185.325 -4.07853 -0.109604 0
M  V30 1852 H 184 -4.02646 1.04157 0
M  V30 1853 H 182.577 -3.65253 -0.751312 0
M  V30 1854 N 184.763 -0.387143 -1.52771 0
M  V30 1855 C 186.011 0.195349 -2.01154 0
M  V30 1856 C 186.332 1.475 -1.27549 0
M  V30 1857 O 185.602 1.91878 -0.394924 0
M  V30 1858 H 184.182 0.075178 -0.743207 0
M  V30 1859 H 186.844 -0.518337 -1.87881 0
M  V30 1860 H 185.94 0.407096 -3.09434 0
M  V30 1861 N 186.241 1.57166 -0.116904 0
M  V30 1862 C 187.469 1.99473 0.549383 0
M  V30 1863 C 187.884 0.996541 1.60357 0
M  V30 1864 O 187.241 -0.0108731 1.82497 0
M  V30 1865 C 187.292 3.41788 1.17741 0
M  V30 1866 O 187.013 4.37788 0.165362 0
M  V30 1867 C 188.514 3.99216 1.92722 0
M  V30 1868 H 185.734 0.655009 0.145616 0
M  V30 1869 H 188.278 2.03494 -0.202625 0
M  V30 1870 H 186.433 3.38713 1.88021 0
M  V30 1871 H 186.847 5.20806 0.621403 0
M  V30 1872 H 188.321 5.00882 2.31995 0
M  V30 1873 H 188.798 3.3824 2.80161 0
M  V30 1874 H 189.404 4.0583 1.27209 0
M  V30 1875 N 187.719 -0.156864 1.56817 0
M  V30 1876 C 188.967 -0.869404 1.82444 0
M  V30 1877 C 189.288 -1.82147 0.69623 0
M  V30 1878 O 188.558 -1.93847 -0.28287 0
M  V30 1879 H 187.138 -0.324043 0.673056 0
M  V30 1880 H 189.8 -0.153224 1.94297 0
M  V30 1881 H 188.896 -1.43761 2.77019 0
M  V30 1882 N 189.197 -1.51736 -0.425897 0
M  V30 1883 C 190.422 -1.69082 -1.20108 0
M  V30 1884 C 190.847 -0.392398 -1.83962 0
M  V30 1885 O 190.205 0.64858 -1.69302 0
M  V30 1886 C 190.253 -2.81604 -2.25237 0
M  V30 1887 O 189.357 -2.46004 -3.30992 0
M  V30 1888 H 188.698 -0.563408 -0.35138 0
M  V30 1889 H 191.228 -1.98358 -0.501512 0
M  V30 1890 H 191.238 -3.06025 -2.69838 0
M  V30 1891 H 189.913 -3.75817 -1.78142 0
M  V30 1892 H 188.49 -2.32195 -2.91787 0
M  V30 1893 N 190.675 0.682077 -1.42076 0
M  V30 1894 C 191.623 1.81707 -1.45208 0
M  V30 1895 C 192.617 1.66183 -0.328591 0
M  V30 1896 O 193.823 1.7288 -0.501264 0
M  V30 1897 H 190.198 0.599014 -0.454628 0
M  V30 1898 H 192.169 1.76183 -2.40836 0
M  V30 1899 C 190.918 3.19816 -1.36428 0
M  V30 1900 H 190.241 3.32385 -2.22171 0
M  V30 1901 H 191.681 3.99272 -1.42681 0
M  V30 1902 C 190.14 3.36809 -0.078191 0
M  V30 1903 O 190.67 3.92124 0.87188 0
M  V30 1904 N 188.876 2.906 0.00229266 0
M  V30 1905 H 188.423 2.45772 -0.771616 0
M  V30 1906 H 188.381 3.02347 0.862179 0
M  V30 1907 N 192.153 1.28127 0.917671 0
M  V30 1908 C 193.393 1.163 1.68088 0
M  V30 1909 C 193.757 -0.284515 1.8988 0
M  V30 1910 O 194.958 -0.525413 2.63615 0
M  V30 1911 C 193.229 1.93546 3.00457 0
M  V30 1912 S 194.788 1.98048 3.91564 0
M  V30 1913 H 191.606 0.415005 0.577315 0
M  V30 1914 H 194.208 1.62173 1.09179 0
M  V30 1915 H 192.912 2.97888 2.82295 0
M  V30 1916 H 192.443 1.48207 3.64415 0
M  V30 1917 H 194.458 1.08415 4.84211 0
M  V30 1918 N 193.631 -1.12557 1.10312 0
M  V30 1919 C 195.047 -1.36036 0.834649 0
M  V30 1920 C 195.247 -1.93946 -0.546539 0
M  V30 1921 O 194.303 -2.16484 -1.29966 0
M  V30 1922 C 195.616 -2.30312 1.9333 0
M  V30 1923 C 197.164 -2.43906 1.9616 0
M  V30 1924 C 197.639 -3.41496 3.05195 0
M  V30 1925 N 199.13 -3.49053 3.04494 0
M  V30 1926 C 199.865 -4.24471 3.85502 0
M  V30 1927 N 199.361 -5.02966 4.76442 0
M  V30 1928 N 201.154 -4.19864 3.73725 0
M  V30 1929 H 193.305 -0.733246 1.99342 0
M  V30 1930 H 195.568 -0.385234 0.866198 0
M  V30 1931 H 195.274 -1.94933 2.92735 0
M  V30 1932 H 195.148 -3.30421 1.81939 0
M  V30 1933 H 197.535 -2.78567 0.973886 0
M  V30 1934 H 197.616 -1.4369 2.11629 0
M  V30 1935 H 197.26 -3.07565 4.04186 0
M  V30 1936 H 197.19 -4.41539 2.86968 0
M  V30 1937 H 199.681 -2.93053 2.38596 0
M  V30 1938 H 199.994 -5.57846 5.34815 0
M  V30 1939 H 198.339 -5.02167 4.80472 0
M  V30 1940 H 201.53 -3.57623 3.02032 0
M  V30 1941 H 201.703 -4.78386 4.37093 0
M  V30 1942 N 195.109 -0.891671 -1.2995 0
M  V30 1943 C 196.039 -0.379797 -2.30391 0
M  V30 1944 C 197.02 0.540919 -1.6127 0
M  V30 1945 O 198.205 0.453352 -1.88834 0
M  V30 1946 C 195.335 0.400654 -3.44981 0
M  V30 1947 C 194.289 -0.428905 -4.25846 0
M  V30 1948 C 193.615 0.478557 -5.32554 0
M  V30 1949 C 194.915 -1.67458 -4.94727 0
M  V30 1950 H 196.609 -1.21914 -2.73454 0
M  V30 1951 H 194.155 -0.587675 -1.31462 0
M  V30 1952 H 196.108 0.769434 -4.14316 0
M  V30 1953 H 194.832 1.27371 -3.0074 0
M  V30 1954 H 193.491 -0.779911 -3.58208 0
M  V30 1955 H 193.139 1.34951 -4.84559 0
M  V30 1956 H 192.839 -0.0727433 -5.87555 0
M  V30 1957 H 194.363 0.843705 -6.04743 0
M  V30 1958 H 195.777 -1.376 -5.56542 0
M  V30 1959 H 194.174 -2.16659 -5.59624 0
M  V30 1960 H 195.244 -2.41518 -4.20473 0
M  V30 1961 N 196.587 1.43421 -0.653314 0
M  V30 1962 C 197.836 2.01032 -0.164076 0
M  V30 1963 C 198.149 1.52147 1.22926 0
M  V30 1964 O 199.355 2.02031 1.81371 0
M  V30 1965 C 197.811 3.59082 -0.24252 0
M  V30 1966 C 197.419 4.1696 -1.63855 0
M  V30 1967 C 199.163 4.24079 0.18911 0
M  V30 1968 C 197.07 5.67304 -1.67092 0
M  V30 1969 H 196 0.751798 -0.0575769 0
M  V30 1970 H 198.651 1.6439 -0.815362 0
M  V30 1971 H 197.033 3.93125 0.476276 0
M  V30 1972 H 198.207 3.94416 -2.38271 0
M  V30 1973 H 196.522 3.64335 -2.01616 0
M  V30 1974 H 199.119 5.34381 0.184775 0
M  V30 1975 H 199.462 3.98005 1.22056 0
M  V30 1976 H 199.995 3.94918 -0.477938 0
M  V30 1977 H 196.734 5.98145 -2.68146 0
M  V30 1978 H 196.254 5.91904 -0.970014 0
M  V30 1979 H 197.933 6.31344 -1.4147 0
M  V30 1980 N 198.065 0.39524 1.52563 0
M  V30 1981 C 199.013 -0.451859 2.28169 0
M  V30 1982 C 200.007 -1.05792 1.32304 0
M  V30 1983 O 201.213 -0.997718 1.49818 0
M  V30 1984 H 197.588 -0.164481 0.733792 0
M  V30 1985 H 199.559 0.207199 2.9768 0
M  V30 1986 C 198.308 -1.56385 3.10546 0
M  V30 1987 H 197.631 -1.10682 3.84174 0
M  V30 1988 H 199.071 -2.13067 3.66577 0
M  V30 1989 C 197.53 -2.52328 2.23231 0
M  V30 1990 O 198.06 -3.5588 1.86312 0
M  V30 1991 N 196.266 -2.22209 1.87274 0
M  V30 1992 H 195.813 -1.38033 2.17496 0
M  V30 1993 H 195.771 -2.86652 1.29143 0
M  V30 1994 N 199.544 -1.57102 0.125237 0
M  V30 1995 C 200.955 -1.82384 -0.399142 0
M  V30 1996 C 201.306 -1.04276 -1.66195 0
M  V30 1997 O 200.431 -0.281269 -2.14564 0
M  V30 1998 C 201.026 -3.30821 -0.730932 0
M  V30 1999 C 199.585 -3.56762 -1.19992 0
M  V30 2000 C 198.732 -2.7649 -0.211792 0
M  V30 2001 H 201.683 -1.54786 0.350277 0
M  V30 2002 H 201.704 -3.4579 -1.58775 0
M  V30 2003 H 201.216 -3.87643 0.188345 0
M  V30 2004 H 199.317 -3.05305 -2.13588 0
M  V30 2005 H 199.43 -4.65317 -1.14093 0
M  V30 2006 H 197.794 -2.4489 -0.700085 0
M  V30 2007 H 198.577 -3.36073 0.700691 0
M  V30 2008 N 201.022 0.148545 -1.56898 0
M  V30 2009 C 202.299 0.890019 -1.74178 0
M  V30 2010 C 202.679 1.99407 -0.692839 0
M  V30 2011 O 202.027 2.26671 0.288505 0
M  V30 2012 C 202.237 1.43389 -3.18183 0
M  V30 2013 C 203.585 1.89791 -3.79822 0
M  V30 2014 O 204.609 1.53134 -3.21603 0
M  V30 2015 O 203.468 2.57387 -4.82093 0
M  V30 2016 H 200.562 0.420496 -0.712118 0
M  V30 2017 H 203.108 0.134591 -1.69165 0
M  V30 2018 H 201.88 0.640383 -3.86024 0
M  V30 2019 H 201.503 2.25287 -3.27615 0
M  V30 2020 N 202.5 1.5196 0.417844 0
M  V30 2021 C 203.748 1.65263 1.16329 0
M  V30 2022 C 204.069 0.380634 1.91249 0
M  V30 2023 O 203.339 -0.604214 1.86349 0
M  V30 2024 H 201.919 0.60912 0.432414 0
M  V30 2025 H 204.581 1.88969 0.477162 0
M  V30 2026 H 203.677 2.4896 1.88217 0
M  V30 2027 N 203.978 -0.674533 1.42435 0
M  V30 2028 C 205.203 -1.46784 1.46524 0
M  V30 2029 C 205.628 -1.87938 0.078066 0
M  V30 2030 O 204.986 -1.56014 -0.92354 0
M  V30 2031 C 205.034 -2.69307 2.39805 0
M  V30 2032 O 204.138 -3.67587 1.86959 0
M  V30 2033 H 203.479 -0.440959 0.496439 0
M  V30 2034 H 206.009 -0.827326 1.87127 0
M  V30 2035 H 206.019 -3.17374 2.56393 0
M  V30 2036 H 204.694 -2.38692 3.40586 0
M  V30 2037 H 203.271 -3.2662 1.79927 0
M  V30 2038 N 205.456 -1.28612 -0.910864 0
M  V30 2039 C 206.366 -1.14643 -2.0468 0
M  V30 2040 C 207.382 -0.0723121 -1.7385 0
M  V30 2041 O 208.558 -0.282178 -1.99413 0
M  V30 2042 C 205.623 -0.812561 -3.37044 0
M  V30 2043 C 204.684 -1.96935 -3.81465 0
M  V30 2044 C 203.917 -1.65131 -5.07511 0
M  V30 2045 O 204.14 -0.567013 -5.67575 0
M  V30 2046 O 203.074 -2.49585 -5.47714 0
M  V30 2047 H 206.9 -2.1001 -2.19384 0
M  V30 2048 H 204.485 -1.07958 -1.03274 0
M  V30 2049 H 206.367 -0.640441 -4.16505 0
M  V30 2050 H 205.042 0.111426 -3.23508 0
M  V30 2051 H 203.949 -2.19664 -3.02818 0
M  V30 2052 H 205.282 -2.87414 -3.99567 0
M  V30 2053 N 206.934 1.1197 -1.10907 0
M  V30 2054 C 208.159 1.87942 -0.877064 0
M  V30 2055 C 208.584 1.79341 0.567314 0
M  V30 2056 O 207.942 1.15184 1.40009 0
M  V30 2057 C 207.99 3.34926 -1.33629 0
M  V30 2058 O 207.094 4.09303 -0.504447 0
M  V30 2059 H 206.435 0.583785 -0.316371 0
M  V30 2060 H 208.965 1.4157 -1.47712 0
M  V30 2061 H 208.975 3.8577 -1.32837 0
M  V30 2062 H 207.65 3.40504 -2.3881 0
M  V30 2063 H 206.227 3.68393 -0.577993 0
M  V30 2064 N 208.412 0.89855 1.29475 0
M  V30 2065 C 209.66 0.522847 1.9522 0
M  V30 2066 C 209.981 -0.93371 1.71192 0
M  V30 2067 O 209.251 -1.65823 1.04305 0
M  V30 2068 H 207.831 0.190366 0.722336 0
M  V30 2069 H 210.493 1.14459 1.5775 0
M  V30 2070 H 209.589 0.704476 3.04045 0
M  V30 2071 N 209.89 -1.43072 0.660911 0
M  V30 2072 C 211.13 -2.03596 0.181146 0
M  V30 2073 C 211.494 -1.51057 -1.18515 0
M  V30 2074 O 212.695 -2.03275 -1.75877 0
M  V30 2075 C 210.966 -3.56845 0.19911 0
M  V30 2076 S 212.525 -4.38289 -0.211684 0
M  V30 2077 H 209.343 -0.706954 0.0757479 0
M  V30 2078 H 211.945 -1.75027 0.870965 0
M  V30 2079 H 210.649 -3.92583 1.1961 0
M  V30 2080 H 210.18 -3.90067 -0.510996 0
M  V30 2081 H 212.195 -4.74583 -1.44863 0
M  V30 2082 N 211.368 -0.403325 -1.52352 0
M  V30 2083 C 212.616 0.174003 -2.0135 0
M  V30 2084 C 212.937 1.46139 -1.29106 0
M  V30 2085 O 212.207 1.91448 -0.415253 0
M  V30 2086 H 210.787 0.0672911 -0.743963 0
M  V30 2087 H 213.449 -0.538235 -1.87321 0
M  V30 2088 H 212.545 0.374254 -3.09848 0
M  V30 2089 N 212.846 1.57033 -0.133567 0
M  V30 2090 C 214.094 1.953 0.519848 0
M  V30 2091 C 214.415 1.01866 1.66278 0
M  V30 2092 O 213.685 0.0776513 1.95746 0
M  V30 2093 H 212.265 0.721091 0.195032 0
M  V30 2094 H 214.927 1.93809 -0.205921 0
M  V30 2095 H 214.023 2.98695 0.904854 0
M  V30 2096 N 214.325 -0.140222 1.56975 0
M  V30 2097 C 215.571 -0.848084 1.84876 0
M  V30 2098 C 215.926 -1.78481 0.718481 0
M  V30 2099 O 215.219 -1.89497 -0.283093 0
M  V30 2100 C 215.413 -1.65386 3.16832 0
M  V30 2101 C 215.242 -0.79665 4.42587 0
M  V30 2102 C 214.012 -0.459648 5.03205 0
M  V30 2103 C 216.21 -0.12389 5.14151 0
M  V30 2104 N 214.192 0.410446 6.12526 0
M  V30 2105 C 215.563 0.606064 6.17031 0
M  V30 2106 C 217.618 -0.0452654 4.97879 0
M  V30 2107 C 216.321 1.40723 7.054 0
M  V30 2108 C 218.347 0.742658 5.86718 0
M  V30 2109 C 217.709 1.46087 6.89085 0
M  V30 2110 H 213.808 -0.287946 0.727056 0
M  V30 2111 H 216.392 -0.11304 1.94372 0
M  V30 2112 H 214.563 -2.36009 3.08471 0
M  V30 2113 H 216.295 -2.30541 3.32615 0
M  V30 2114 H 213.05 -0.797006 4.66846 0
M  V30 2115 H 213.474 0.836716 6.7181 0
M  V30 2116 H 218.116 -0.586184 4.18717 0
M  V30 2117 H 215.834 1.95938 7.83986 0
M  V30 2118 H 219.42 0.805574 5.76196 0
M  V30 2119 H 218.3 2.06077 7.56639 0
M  V30 2120 N 215.803 -1.52179 -0.40978 0
M  V30 2121 C 217.051 -1.65878 -1.15451 0
M  V30 2122 C 217.372 -0.390771 -1.91044 0
M  V30 2123 O 216.642 0.594323 -1.86667 0
M  V30 2124 H 215.222 -0.611405 -0.429177 0
M  V30 2125 H 217.884 -1.89219 -0.467134 0
M  V30 2126 H 216.98 -2.49954 -1.86894 0
M  V30 2127 N 217.281 0.66697 -1.42791 0
M  V30 2128 C 218.231 1.77313 -1.43332 0
M  V30 2129 C 219.215 1.5801 -0.303586 0
M  V30 2130 O 220.407 1.68356 -0.546385 0
M  V30 2131 C 217.536 3.15822 -1.34578 0
M  V30 2132 C 216.622 3.40721 -2.52528 0
M  V30 2133 N 217.013 3.36162 -3.77927 0
M  V30 2134 C 215.311 3.71387 -2.46956 0
M  V30 2135 C 216.012 3.60762 -4.56318 0
M  V30 2136 N 214.988 3.81908 -3.86843 0
M  V30 2137 H 218.79 1.72193 -2.38174 0
M  V30 2138 H 216.304 0.868114 -1.3725 0
M  V30 2139 H 218.301 3.951 -1.33048 0
M  V30 2140 H 216.961 3.22133 -0.407453 0
M  V30 2141 H 217.972 3.15885 -4.10411 0
M  V30 2142 H 214.649 3.84897 -1.61743 0
M  V30 2143 H 216.039 3.63132 -5.65318 0
M  V30 2144 N 218.759 1.29093 0.90403 0
M  V30 2145 C 219.692 1.08176 2.00931 0
M  V30 2146 C 220.67 -0.005083 1.62599 0
M  V30 2147 O 221.854 0.144765 1.87943 0
M  V30 2148 C 218.981 0.645897 3.32484 0
M  V30 2149 C 218.027 1.73081 3.89801 0
M  V30 2150 S 218.86 3.32905 4.19446 0
M  V30 2151 C 220.016 2.91176 5.54046 0
M  V30 2152 H 220.249 2.01752 2.18365 0
M  V30 2153 H 217.782 1.13191 1.0501 0
M  V30 2154 H 219.74 0.401131 4.08535 0
M  V30 2155 H 218.401 -0.270188 3.12936 0
M  V30 2156 H 217.594 1.37768 4.84805 0
M  V30 2157 H 217.196 1.92888 3.20422 0
M  V30 2158 H 219.488 2.37952 6.34338 0
M  V30 2159 H 220.431 3.85014 5.94281 0
M  V30 2160 H 220.839 2.296 5.15698 0
M  V30 2161 N 220.237 -1.11381 1.11499 0
M  V30 2162 C 221.17 -2.16621 0.71769 0
M  V30 2163 C 222.148 -1.60058 -0.286413 0
M  V30 2164 O 223.332 -1.87613 -0.182689 0
M  V30 2165 C 220.459 -3.38646 0.0607265 0
M  V30 2166 C 219.505 -4.13874 1.03008 0
M  V30 2167 S 220.338 -4.70731 2.55289 0
M  V30 2168 C 221.494 -5.96079 1.90895 0
M  V30 2169 H 221.727 -2.49987 1.60915 0
M  V30 2170 H 219.26 -1.23015 0.933092 0
M  V30 2171 H 221.218 -4.09313 -0.311965 0
M  V30 2172 H 219.879 -3.03537 -0.807702 0
M  V30 2173 H 219.072 -5.01333 0.517853 0
M  V30 2174 H 218.674 -3.4897 1.34522 0
M  V30 2175 H 220.966 -6.65948 1.24577 0
M  V30 2176 H 221.909 -6.51946 2.76354 0
M  V30 2177 H 222.317 -5.47652 1.36885 0
M  V30 2178 N 221.715 -0.905404 -1.28997 0
M  V30 2179 C 222.963 -0.533192 -1.9494 0
M  V30 2180 C 223.284 0.924618 -1.71685 0
M  V30 2181 O 222.554 1.65268 -1.05183 0
M  V30 2182 H 221.134 -0.194194 -0.721317 0
M  V30 2183 H 223.796 -1.15294 -1.57141 0
M  V30 2184 H 222.892 -0.72059 -3.03667 0
M  V30 2185 N 223.193 1.4272 -0.668489 0
M  V30 2186 C 224.47 1.95248 -0.117373 0
M  V30 2187 C 224.85 1.60919 1.36632 0
M  V30 2188 O 224.198 0.902095 2.09939 0
M  V30 2189 C 224.408 3.46927 -0.379806 0
M  V30 2190 C 225.756 4.23588 -0.292923 0
M  V30 2191 O 226.78 3.5482 -0.313204 0
M  V30 2192 O 225.639 5.46017 -0.229697 0
M  V30 2193 H 222.733 0.827 0.00079152 0
M  V30 2194 H 225.279 1.52581 -0.742783 0
M  V30 2195 H 224.051 3.65096 -1.40786 0
M  V30 2196 H 223.674 3.96627 0.277923 0
M  V30 2197 N 224.671 0.411399 1.52136 0
M  V30 2198 C 225.581 -0.419774 2.30814 0
M  V30 2199 C 226.597 -1.0515 1.38634 0
M  V30 2200 O 227.773 -1.05252 1.71709 0
M  V30 2201 C 224.838 -1.52019 3.11594 0
M  V30 2202 C 223.899 -0.91129 4.19516 0
M  V30 2203 C 223.132 -1.95927 4.96436 0
M  V30 2204 O 223.355 -3.17775 4.73683 0
M  V30 2205 O 222.289 -1.56423 5.81219 0
M  V30 2206 H 226.115 0.221805 3.02889 0
M  V30 2207 H 223.7 0.174547 1.48377 0
M  V30 2208 H 225.582 -2.15898 3.61892 0
M  V30 2209 H 224.257 -2.14633 2.42311 0
M  V30 2210 H 223.164 -0.235157 3.7336 0
M  V30 2211 H 224.497 -0.32904 4.91099 0
M  V30 2212 N 226.149 -1.5696 0.141893 0
M  V30 2213 C 227.397 -1.95573 -0.509484 0
M  V30 2214 C 227.718 -1.02746 -1.65736 0
M  V30 2215 O 226.988 -0.0880311 -1.95702 0
M  V30 2216 H 225.568 -0.722115 -0.191205 0
M  V30 2217 H 228.23 -1.93697 0.216196 0
M  V30 2218 H 227.326 -2.99171 -0.889 0
M  V30 2219 N 227.627 0.131896 -1.57047 0
M  V30 2220 C 228.852 0.860418 -1.8871 0
M  V30 2221 C 229.277 1.73251 -0.73251 0
M  V30 2222 O 228.635 1.785 0.317429 0
M  V30 2223 C 228.683 1.68047 -3.19049 0
M  V30 2224 O 227.787 2.7862 -3.04047 0
M  V30 2225 H 227.128 0.238743 -0.619595 0
M  V30 2226 H 229.658 0.118169 -2.04258 0
M  V30 2227 H 229.668 2.07238 -3.51449 0
M  V30 2228 H 228.343 1.04018 -4.02682 0
M  V30 2229 H 226.92 2.42726 -2.83088 0
M  V30 2230 N 229.106 1.52395 0.401703 0
M  V30 2231 C 230.069 1.75636 1.47257 0
M  V30 2232 C 231.069 0.62628 1.48103 0
M  V30 2233 O 232.259 0.894227 1.49497 0
M  V30 2234 C 229.391 1.84553 2.86624 0
M  V30 2235 H 230.584 2.71241 1.27938 0
M  V30 2236 H 228.137 1.42923 0.632662 0
M  V30 2237 H 228.872 0.908882 3.11303 0
M  V30 2238 H 228.657 2.66715 2.87412 0
M  V30 2239 H 230.147 2.04251 3.64241 0
M  V30 2240 N 230.584 -0.659388 1.43143 0
M  V30 2241 C 231.814 -1.44513 1.47646 0
M  V30 2242 C 232.222 -1.88981 0.0910095 0
M  V30 2243 O 231.565 -1.59702 -0.907789 0
M  V30 2244 C 231.627 -2.71663 2.35456 0
M  V30 2245 C 231.291 -2.49175 3.83094 0
M  V30 2246 C 232.288 -2.1279 4.74359 0
M  V30 2247 C 229.973 -2.63691 4.27519 0
M  V30 2248 C 231.967 -1.9121 6.08044 0
M  V30 2249 C 229.654 -2.41726 5.61259 0
M  V30 2250 C 230.652 -2.0554 6.51339 0
M  V30 2251 O 230.34 -1.838 7.82606 0
M  V30 2252 H 230.072 -0.45064 0.503884 0
M  V30 2253 H 232.626 -0.816248 1.88485 0
M  V30 2254 H 230.856 -3.37089 1.89493 0
M  V30 2255 H 232.545 -3.33595 2.31235 0
M  V30 2256 H 233.311 -2.01157 4.41317 0
M  V30 2257 H 229.19 -2.90832 3.57684 0
M  V30 2258 H 232.734 -1.62889 6.78316 0
M  V30 2259 H 228.631 -2.52959 5.9387 0
M  V30 2260 H 229.399 -1.98275 7.94122 0
M  V30 2261 N 232.062 -1.29571 -0.897171 0
M  V30 2262 C 233.308 -1.18873 -1.65048 0
M  V30 2263 C 233.663 0.256707 -1.9068 0
M  V30 2264 O 232.956 1.18202 -1.50794 0
M  V30 2265 C 233.15 -1.9382 -3.00281 0
M  V30 2266 C 232.979 -3.45503 -2.8785 0
M  V30 2267 C 231.749 -4.14856 -2.88483 0
M  V30 2268 C 233.947 -4.40956 -2.64693 0
M  V30 2269 N 231.929 -5.52886 -2.66815 0
M  V30 2270 C 233.3 -5.66464 -2.5203 0
M  V30 2271 C 235.355 -4.3069 -2.49821 0
M  V30 2272 C 234.058 -6.82871 -2.26008 0
M  V30 2273 C 236.084 -5.46852 -2.25182 0
M  V30 2274 C 235.446 -6.71333 -2.13286 0
M  V30 2275 H 231.545 -0.489998 -0.609447 0
M  V30 2276 H 234.129 -1.63431 -1.05822 0
M  V30 2277 H 232.3 -1.51671 -3.57562 0
M  V30 2278 H 234.032 -1.75366 -3.64731 0
M  V30 2279 H 230.787 -3.66579 -2.99861 0
M  V30 2280 H 231.211 -6.25487 -2.59027 0
M  V30 2281 H 235.853 -3.35141 -2.5776 0
M  V30 2282 H 233.571 -7.78473 -2.16806 0
M  V30 2283 H 237.157 -5.40809 -2.14515 0
M  V30 2284 H 236.037 -7.59701 -1.94485 0
M  V30 2285 N 233.54 1.10788 -1.12088 0
M  V30 2286 C 234.789 1.82036 -0.868659 0
M  V30 2287 C 235.102 1.85929 0.607426 0
M  V30 2288 O 236.308 2.53346 0.97613 0
M  V30 2289 C 234.764 3.26951 -1.50435 0
M  V30 2290 C 234.372 3.31367 -3.01496 0
M  V30 2291 C 236.116 4.03053 -1.33225 0
M  V30 2292 C 234.023 4.7072 -3.58017 0
M  V30 2293 H 232.953 0.682108 -0.321318 0
M  V30 2294 H 235.604 1.24618 -1.34694 0
M  V30 2295 H 233.986 3.84343 -0.953735 0
M  V30 2296 H 235.16 2.83819 -3.6302 0
M  V30 2297 H 233.475 2.6875 -3.18061 0
M  V30 2298 H 236.072 5.05981 -1.72878 0
M  V30 2299 H 236.415 4.15387 -0.275529 0
M  V30 2300 H 236.948 3.52066 -1.85188 0
M  V30 2301 H 233.687 4.63585 -4.63432 0
M  V30 2302 H 233.207 5.1865 -3.01268 0
M  V30 2303 H 234.886 5.39685 -3.56859 0
M  V30 2304 N 235.018 0.912232 1.28515 0
M  V30 2305 C 235.981 0.404223 2.25607 0
M  V30 2306 C 236.981 -0.468602 1.53821 0
M  V30 2307 O 238.171 -0.271873 1.72065 0
M  V30 2308 C 235.303 -0.420653 3.38295 0
M  V30 2309 H 236.496 1.26188 2.7206 0
M  V30 2310 H 234.049 0.691495 1.40171 0
M  V30 2311 H 234.784 -1.29777 2.97201 0
M  V30 2312 H 234.569 0.204935 3.91564 0
M  V30 2313 H 236.059 -0.766971 4.10496 0
M  V30 2314 N 236.496 -1.42363 0.676048 0
M  V30 2315 C 237.446 -2.27987 -0.0242903 0
M  V30 2316 C 238.43 -1.41153 -0.772319 0
M  V30 2317 O 239.622 -1.64592 -0.651025 0
M  V30 2318 C 236.751 -3.29195 -0.973953 0
M  V30 2319 C 235.837 -4.23512 -0.223202 0
M  V30 2320 N 236.228 -4.99865 0.772589 0
M  V30 2321 C 234.526 -4.43606 -0.461469 0
M  V30 2322 C 235.227 -5.68757 1.22027 0
M  V30 2323 N 234.203 -5.40811 0.549975 0
M  V30 2324 H 238.005 -2.84445 0.73949 0
M  V30 2325 H 235.519 -1.54341 0.50522 0
M  V30 2326 H 237.516 -3.89339 -1.49067 0
M  V30 2327 H 236.176 -2.74298 -1.73755 0
M  V30 2328 H 237.187 -5.04921 1.15217 0
M  V30 2329 H 233.864 -3.99749 -1.20446 0
M  V30 2330 H 235.254 -6.40007 2.0455 0
M  V30 2331 N 237.974 -0.419461 -1.51915 0
M  V30 2332 C 238.906 0.43646 -2.25006 0
M  V30 2333 C 239.919 1.00149 -1.28351 0
M  V30 2334 O 241.108 0.898674 -1.54227 0
M  V30 2335 C 238.208 1.6206 -2.9764 0
M  V30 2336 C 237.381 1.17763 -4.21249 0
M  V30 2337 C 236.44 2.22985 -4.76617 0
M  V30 2338 O 235.466 1.83151 -5.38929 0
M  V30 2339 N 236.668 3.55271 -4.59089 0
M  V30 2340 H 239.433 -0.18989 -2.99098 0
M  V30 2341 H 236.994 -0.247386 -1.59999 0
M  V30 2342 H 238.986 2.32038 -3.31573 0
M  V30 2343 H 237.556 2.15266 -2.2667 0
M  V30 2344 H 236.776 0.305582 -3.93014 0
M  V30 2345 H 238.064 0.858781 -5.015 0
M  V30 2346 H 237.462 3.90377 -4.09417 0
M  V30 2347 H 236.019 4.21195 -4.97432 0
M  V30 2348 N 239.452 1.56882 -0.150215 0
M  V30 2349 C 240.415 2.1573 0.774157 0
M  V30 2350 C 241.415 1.0999 1.17298 0
M  V30 2351 O 242.605 1.35613 1.09338 0
M  V30 2352 C 239.737 2.72302 2.05096 0
M  V30 2353 H 240.93 2.98752 0.262201 0
M  V30 2354 H 238.483 1.55985 0.099248 0
M  V30 2355 H 239.218 1.92956 2.6065 0
M  V30 2356 H 239.003 3.49665 1.77416 0
M  V30 2357 H 240.493 3.17632 2.71109 0
M  V30 2358 N 240.93 -0.123565 1.57115 0
M  V30 2359 C 242.176 -0.833386 1.84885 0
M  V30 2360 C 242.509 -1.79742 0.735292 0
M  V30 2361 O 241.784 -1.92764 -0.25925 0
M  V30 2362 C 242.067 -1.5873 3.23228 0
M  V30 2363 C 241.92 -0.643183 4.45178 0
M  V30 2364 C 243.239 -2.54453 3.59085 0
M  V30 2365 H 240.358 -0.301518 0.6725 0
M  V30 2366 H 243 -0.097778 1.89748 0
M  V30 2367 H 241.15 -2.21438 3.19214 0
M  V30 2368 H 242.822 -0.0253015 4.61293 0
M  V30 2369 H 241.065 0.0456139 4.33776 0
M  V30 2370 H 241.736 -1.20724 5.38637 0
M  V30 2371 H 244.212 -2.01853 3.63861 0
M  V30 2372 H 243.088 -3.04238 4.5687 0
M  V30 2373 H 243.349 -3.36906 2.86264 0
M  V30 2374 N 242.408 -1.52605 -0.393616 0
M  V30 2375 C 243.355 -1.77055 -1.48054 0
M  V30 2376 C 244.325 -0.61358 -1.54352 0
M  V30 2377 O 245.51 -0.852806 -1.70681 0
M  V30 2378 C 242.65 -1.94108 -2.85335 0
M  V30 2379 C 241.763 -3.21792 -2.88226 0
M  V30 2380 C 240.898 -3.29188 -4.16904 0
M  V30 2381 C 239.937 -4.51013 -4.13828 0
M  V30 2382 N 239.074 -4.55716 -5.34105 0
M  V30 2383 H 243.914 -2.69815 -1.26506 0
M  V30 2384 H 241.451 -1.33683 -0.61379 0
M  V30 2385 H 243.409 -2.01979 -3.65049 0
M  V30 2386 H 242.039 -1.04713 -3.05344 0
M  V30 2387 H 241.091 -3.23015 -2.00911 0
M  V30 2388 H 242.403 -4.11557 -2.8182 0
M  V30 2389 H 241.557 -3.36216 -5.05018 0
M  V30 2390 H 240.296 -2.37389 -4.26026 0
M  V30 2391 H 239.301 -4.44115 -3.24102 0
M  V30 2392 H 240.526 -5.44123 -4.06333 0
M  V30 2393 H 238.472 -3.66807 -5.43865 0
M  V30 2394 H 238.389 -5.39346 -5.29756 0
M  V30 2395 H 239.657 -4.66993 -6.2413 0
M  V30 2396 N 243.887 0.651787 -1.4349 0
M  V30 2397 C 245.136 1.40754 -1.44469 0
M  V30 2398 C 245.449 1.95463 -0.0731845 0
M  V30 2399 O 246.655 2.71471 0.0395721 0
M  V30 2400 C 245.111 2.54735 -2.5424 0
M  V30 2401 C 244.719 2.06628 -3.97504 0
M  V30 2402 C 246.463 3.32092 -2.64414 0
M  V30 2403 C 244.37 3.17829 -4.98737 0
M  V30 2404 H 243.3 0.528862 -0.53742 0
M  V30 2405 H 245.951 0.703365 -1.69485 0
M  V30 2406 H 244.333 3.2763 -2.22428 0
M  V30 2407 H 245.507 1.40734 -4.38783 0
M  V30 2408 H 243.822 1.42146 -3.91387 0
M  V30 2409 H 246.419 4.14952 -3.37223 0
M  V30 2410 H 246.762 3.80217 -1.69532 0
M  V30 2411 H 247.295 2.66279 -2.95534 0
M  V30 2412 H 244.034 2.74671 -5.95177 0
M  V30 2413 H 243.554 3.82429 -4.62069 0
M  V30 2414 H 245.233 3.82937 -5.21505 0
M  V30 2415 N 245.365 1.30045 0.890287 0
M  V30 2416 C 246.611 1.18737 1.64406 0
M  V30 2417 C 246.944 -0.258525 1.92472 0
M  V30 2418 O 246.219 -1.18562 1.54186 0
M  V30 2419 C 246.502 2.01087 2.98724 0
M  V30 2420 C 246.355 3.53867 2.77665 0
M  V30 2421 C 247.674 1.84457 3.9958 0
M  V30 2422 H 244.793 0.432698 0.596608 0
M  V30 2423 H 247.435 1.5962 1.0306 0
M  V30 2424 H 245.585 1.66349 3.51084 0
M  V30 2425 H 247.257 3.98637 2.32133 0
M  V30 2426 H 245.5 3.78318 2.12269 0
M  V30 2427 H 246.171 4.06772 3.7315 0
M  V30 2428 H 248.647 2.14817 3.56361 0
M  V30 2429 H 247.523 2.44411 4.91482 0
M  V30 2430 H 247.784 0.802276 4.3476 0
M  V30 2431 N 246.843 -1.10192 1.12674 0
M  V30 2432 C 248.09 -1.82205 0.883606 0
M  V30 2433 C 248.418 -1.8532 -0.590492 0
M  V30 2434 O 247.673 -1.31137 -1.45264 0
M  V30 2435 C 247.972 -3.28552 1.4067 0
M  V30 2436 C 247.638 -3.45582 2.89627 0
M  V30 2437 C 246.3 -3.49937 3.30299 0
M  V30 2438 C 248.652 -3.50768 3.85501 0
M  V30 2439 C 245.98 -3.57049 4.65546 0
M  V30 2440 C 248.332 -3.59414 5.20581 0
M  V30 2441 C 246.996 -3.62034 5.60792 0
M  V30 2442 H 246.266 -0.666735 0.323334 0
M  V30 2443 H 248.913 -1.29868 1.40736 0
M  V30 2444 H 247.218 -3.83473 0.80347 0
M  V30 2445 H 248.915 -3.82788 1.19475 0
M  V30 2446 H 245.505 -3.42871 2.57172 0
M  V30 2447 H 249.689 -3.46651 3.55171 0
M  V30 2448 H 244.945 -3.57361 4.96088 0
M  V30 2449 H 249.119 -3.62371 5.94693 0
M  V30 2450 H 246.746 -3.67298 6.6558 0
M  V30 2451 N 248.321 -0.919034 -1.28029 0
M  V30 2452 C 249.598 -0.473668 -1.89778 0
M  V30 2453 C 249.978 1.04783 -1.83259 0
M  V30 2454 O 249.326 1.8982 -1.27202 0
M  V30 2455 C 249.536 -1.00998 -3.34066 0
M  V30 2456 C 250.884 -1.06525 -4.1102 0
M  V30 2457 O 251.908 -0.958996 -3.43048 0
M  V30 2458 O 250.767 -1.22776 -5.3253 0
M  V30 2459 H 247.861 -0.15098 -0.813101 0
M  V30 2460 H 250.407 -1.01016 -1.36359 0
M  V30 2461 H 249.179 -2.05392 -3.33061 0
M  V30 2462 H 248.802 -0.454626 -3.94992 0
M  V30 2463 N 249.799 1.42003 -0.683588 0
M  V30 2464 C 251.024 2.06265 -0.216647 0
M  V30 2465 C 251.449 1.51059 1.12083 0
M  V30 2466 O 250.807 0.632638 1.69904 0
M  V30 2467 C 250.855 3.60191 -0.171759 0
M  V30 2468 O 249.959 4.03396 0.857069 0
M  V30 2469 H 249.3 0.65502 -0.108834 0
M  V30 2470 H 251.83 1.81982 -0.935077 0
M  V30 2471 H 251.84 4.08 0.0014303 0
M  V30 2472 H 250.515 3.99743 -1.14796 0
M  V30 2473 H 249.092 3.67117 0.654208 0
M  V30 2474 N 251.277 0.427512 1.51691 0
M  V30 2475 C 252.526 -0.143679 2.01188 0
M  V30 2476 C 252.839 -1.44642 1.31674 0
M  V30 2477 O 254.045 -2.09997 1.72086 0
M  V30 2478 C 252.501 -0.306602 3.58592 0
M  V30 2479 C 252.109 0.985125 4.37035 0
M  V30 2480 C 253.853 -0.832091 4.16265 0
M  V30 2481 C 251.76 0.788382 5.86122 0
M  V30 2482 H 250.69 -0.0574701 0.751807 0
M  V30 2483 H 253.341 0.555772 1.74881 0
M  V30 2484 H 251.723 -1.06882 3.81303 0
M  V30 2485 H 252.897 1.75492 4.26074 0
M  V30 2486 H 251.212 1.4384 3.90767 0
M  V30 2487 H 253.809 -0.995617 5.25349 0
M  V30 2488 H 254.152 -1.81186 3.74803 0
M  V30 2489 H 254.685 -0.128444 3.97593 0
M  V30 2490 H 251.424 1.74025 6.31978 0
M  V30 2491 H 250.944 0.0582143 5.99772 0
M  V30 2492 H 252.623 0.437722 6.45518 0
M  V30 2493 N 252.755 -1.56801 0.158532 0
M  V30 2494 C 254.032 -1.88131 -0.535357 0
M  V30 2495 C 254.412 -1.06638 -1.82186 0
M  V30 2496 O 253.76 -0.156533 -2.27963 0
M  V30 2497 C 253.97 -3.39949 -0.789653 0
M  V30 2498 C 255.318 -4.09416 -1.12533 0
M  V30 2499 O 256.342 -3.45194 -0.878622 0
M  V30 2500 O 255.201 -5.22855 -1.59014 0
M  V30 2501 H 252.295 -0.780143 -0.27442 0
M  V30 2502 H 254.841 -1.68564 0.19601 0
M  V30 2503 H 253.613 -3.91115 0.120353 0
M  V30 2504 H 253.236 -3.65084 -1.57479 0
M  V30 2505 N 254.233 0.115231 -1.57178 0
M  V30 2506 C 255.181 1.16014 -2.01602 0
M  V30 2507 C 256.175 1.42653 -0.913587 0
M  V30 2508 O 257.381 1.42571 -1.09879 0
M  V30 2509 H 253.756 0.391252 -0.642204 0
M  V30 2510 H 255.727 0.758998 -2.88586 0
M  V30 2511 C 254.476 2.47767 -2.4394 0
M  V30 2512 H 253.799 2.28108 -3.28339 0
M  V30 2513 H 255.239 3.19432 -2.78818 0
M  V30 2514 C 253.698 3.10617 -1.30455 0
M  V30 2515 O 254.228 3.96846 -0.622585 0
M  V30 2516 N 252.434 2.70553 -1.06064 0
M  V30 2517 H 251.981 2.00527 -1.61699 0
M  V30 2518 H 251.939 3.12934 -0.303284 0
M  V30 2519 N 255.711 1.52812 0.385517 0
M  V30 2520 C 256.641 1.80808 1.47752 0
M  V30 2521 C 257.622 0.660318 1.5676 0
M  V30 2522 O 258.807 0.908246 1.71652 0
M  V30 2523 C 255.937 1.98008 2.85324 0
M  V30 2524 C 254.891 3.13709 2.91154 0
M  V30 2525 C 254.217 3.16169 4.31209 0
M  V30 2526 C 255.517 4.52709 2.60483 0
M  V30 2527 H 257.211 2.72253 1.24573 0
M  V30 2528 H 254.757 1.31003 0.597839 0
M  V30 2529 H 256.71 2.16176 3.61726 0
M  V30 2530 H 255.434 1.03255 3.09848 0
M  V30 2531 H 254.093 2.95329 2.17201 0
M  V30 2532 H 253.741 2.19092 4.52778 0
M  V30 2533 H 253.441 3.93894 4.36029 0
M  V30 2534 H 254.965 3.36496 5.09512 0
M  V30 2535 H 256.379 4.71173 3.26602 0
M  V30 2536 H 254.776 5.32528 2.76648 0
M  V30 2537 H 255.846 4.59186 1.55809 0
M  V30 2538 N 257.189 -0.644168 1.43834 0
M  V30 2539 C 258.099 -1.78563 1.52159 0
M  V30 2540 C 259.115 -1.69147 0.408069 0
M  V30 2541 O 260.291 -1.90156 0.663524 0
M  V30 2542 C 257.356 -3.14888 1.45073 0
M  V30 2543 C 256.417 -3.36034 2.6717 0
M  V30 2544 C 255.65 -4.65855 2.60413 0
M  V30 2545 O 255.873 -5.45805 1.65689 0
M  V30 2546 O 254.807 -4.88918 3.5106 0
M  V30 2547 H 258.633 -1.74494 2.48567 0
M  V30 2548 H 256.218 -0.80378 1.25935 0
M  V30 2549 H 258.1 -3.96179 1.43597 0
M  V30 2550 H 256.775 -3.19528 0.518037 0
M  V30 2551 H 255.682 -2.54472 2.74217 0
M  V30 2552 H 257.015 -3.36247 3.59442 0
M  V30 2553 N 258.668 -1.30515 -0.883378 0
M  V30 2554 C 259.631 -1.1701 -1.97082 0
M  V30 2555 C 260.631 -0.10089 -1.60483 0
M  V30 2556 O 261.821 -0.349127 -1.70666 0
M  V30 2557 C 258.953 -0.793045 -3.31547 0
M  V30 2558 H 260.146 -2.13622 -2.10489 0
M  V30 2559 H 257.699 -1.13935 -1.06998 0
M  V30 2560 H 258.434 0.172499 -3.23841 0
M  V30 2561 H 258.219 -1.56576 -3.5948 0
M  V30 2562 H 259.709 -0.722073 -4.1131 0
M  V30 2563 N 260.146 1.09593 -1.13257 0
M  V30 2564 C 261.109 2.14359 -0.811358 0
M  V30 2565 C 262.109 1.59808 0.178377 0
M  V30 2566 O 263.299 1.74132 -0.0484911 0
M  V30 2567 C 260.431 3.40269 -0.207276 0
M  V30 2568 H 261.624 2.44284 -1.73969 0
M  V30 2569 H 259.177 1.25102 -0.936973 0
M  V30 2570 H 259.912 3.15969 0.73036 0
M  V30 2571 H 259.697 3.81154 -0.919992 0
M  V30 2572 H 261.187 4.176 0.000667944 0
M  V30 2573 N 261.624 0.925811 1.2754 0
M  V30 2574 C 263.035 0.610102 1.7645 0
M  V30 2575 C 263.386 -0.874723 1.75622 0
M  V30 2576 O 262.511 -1.68444 1.35851 0
M  V30 2577 C 263.106 1.10073 3.20421 0
M  V30 2578 C 261.665 0.835723 3.67005 0
M  V30 2579 C 260.812 1.26054 2.46993 0
M  V30 2580 H 263.763 1.10579 1.13833 0
M  V30 2581 H 263.784 0.447557 3.77859 0
M  V30 2582 H 263.296 2.18143 3.20991 0
M  V30 2583 H 261.397 -0.231249 3.71882 0
M  V30 2584 H 261.51 1.45193 4.56569 0
M  V30 2585 H 259.874 0.679111 2.45479 0
M  V30 2586 H 260.657 2.34984 2.50275 0
M  V30 2587 N 263.102 -1.41638 0.69111 0
M  V30 2588 C 264.052 -2.28 -0.000107832 0
M  V30 2589 C 265.036 -1.41964 -0.757304 0
M  V30 2590 O 266.228 -1.65274 -0.633532 0
M  V30 2591 C 263.357 -3.30209 -0.938983 0
M  V30 2592 C 262.443 -4.23725 -0.17827 0
M  V30 2593 N 262.834 -4.99017 0.825563 0
M  V30 2594 C 261.132 -4.44071 -0.414392 0
M  V30 2595 C 261.833 -5.67431 1.28052 0
M  V30 2596 N 260.809 -5.40197 0.607304 0
M  V30 2597 H 264.611 -2.83644 0.769617 0
M  V30 2598 H 262.125 -1.53797 0.521562 0
M  V30 2599 H 264.122 -3.90898 -1.44929 0
M  V30 2600 H 262.782 -2.76126 -1.70836 0
M  V30 2601 H 263.793 -5.03671 1.20566 0
M  V30 2602 H 260.47 -4.01004 -1.162 0
M  V30 2603 H 261.86 -6.37801 2.11327 0
M  V30 2604 N 264.58 -0.43555 -1.51462 0
M  V30 2605 C 265.857 0.191364 -1.94662 0
M  V30 2606 C 266.237 1.60254 -1.37411 0
M  V30 2607 O 265.585 2.2152 -0.560458 0
M  V30 2608 C 265.795 0.17091 -3.48581 0
M  V30 2609 C 267.143 0.377357 -4.2292 0
M  V30 2610 O 268.167 0.249104 -3.55328 0
M  V30 2611 O 267.026 0.63247 -5.42828 0
M  V30 2612 H 264.12 0.130932 -0.816569 0
M  V30 2613 H 266.666 -0.4934 -1.62369 0
M  V30 2614 H 265.438 -0.815738 -3.82703 0
M  V30 2615 H 265.061 0.898659 -3.87311 0
M  V30 2616 N 266.058 1.56714 -0.166846 0
M  V30 2617 C 267.307 1.95922 0.479318 0
M  V30 2618 C 267.62 1.05529 1.6469 0
M  V30 2619 O 268.826 1.34399 2.35901 0
M  V30 2620 C 267.282 3.48359 0.90412 0
M  V30 2621 C 266.89 4.47369 -0.237621 0
M  V30 2622 C 268.634 3.96394 1.51896 0
M  V30 2623 C 266.541 5.91039 0.206561 0
M  V30 2624 H 265.471 0.731495 0.18284 0
M  V30 2625 H 268.122 1.81728 -0.254363 0
M  V30 2626 H 266.504 3.57955 1.69365 0
M  V30 2627 H 267.678 4.49485 -1.01489 0
M  V30 2628 H 265.993 4.09366 -0.762128 0
M  V30 2629 H 268.59 5.01186 1.86325 0
M  V30 2630 H 268.933 3.39075 2.41524 0
M  V30 2631 H 269.466 3.89796 0.79395 0
M  V30 2632 H 266.205 6.52221 -0.654834 0
M  V30 2633 H 265.725 5.9224 0.949282 0
M  V30 2634 H 267.404 6.43707 0.651939 0
M  V30 2635 N 267.536 -0.106894 1.57237 0
M  V30 2636 C 268.784 -0.810921 1.85117 0
M  V30 2637 C 269.105 -1.7984 0.753827 0
M  V30 2638 O 268.375 -1.94649 -0.221056 0
M  V30 2639 H 266.955 -0.302466 0.683025 0
M  V30 2640 H 269.617 -0.0913324 1.94686 0
M  V30 2641 H 268.713 -1.34875 2.81452 0
M  V30 2642 N 269.014 -1.53014 -0.377408 0
M  V30 2643 C 270.244 -1.72265 -1.14054 0
M  V30 2644 C 270.652 -0.44601 -1.83868 0
M  V30 2645 O 269.995 0.590095 -1.73964 0
M  V30 2646 C 270.057 -2.82492 -2.22348 0
M  V30 2647 C 269.721 -4.23233 -1.72402 0
M  V30 2648 C 270.718 -5.05992 -1.19448 0
M  V30 2649 C 268.403 -4.696 -1.78273 0
M  V30 2650 C 270.397 -6.33203 -0.730268 0
M  V30 2651 C 268.084 -5.96792 -1.31464 0
M  V30 2652 C 269.082 -6.78424 -0.789297 0
M  V30 2653 O 268.77 -8.0323 -0.328077 0
M  V30 2654 H 268.502 -0.579873 -0.347453 0
M  V30 2655 H 271.056 -2.00502 -0.445882 0
M  V30 2656 H 269.286 -2.49702 -2.95272 0
M  V30 2657 H 270.975 -2.90034 -2.83963 0
M  V30 2658 H 271.741 -4.71349 -1.14259 0
M  V30 2659 H 267.62 -4.06142 -2.18106 0
M  V30 2660 H 271.164 -6.96868 -0.319542 0
M  V30 2661 H 267.061 -6.30937 -1.36342 0
M  V30 2662 H 267.829 -8.1727 -0.448493 0
M  V30 2663 N 270.492 0.636531 -1.44174 0
M  V30 2664 C 271.738 1.39826 -1.4689 0
M  V30 2665 C 272.071 1.93947 -0.0990585 0
M  V30 2666 O 271.346 1.73325 0.882544 0
M  V30 2667 C 271.629 2.56751 -2.5249 0
M  V30 2668 C 271.482 2.08014 -3.98811 0
M  V30 2669 C 272.801 3.58946 -2.54649 0
M  V30 2670 H 269.92 0.507075 -0.53483 0
M  V30 2671 H 272.562 0.720188 -1.75822 0
M  V30 2672 H 270.712 3.14597 -2.2795 0
M  V30 2673 H 272.384 1.5504 -4.34466 0
M  V30 2674 H 270.627 1.39242 -4.10846 0
M  V30 2675 H 271.298 2.92169 -4.68339 0
M  V30 2676 H 273.774 3.1089 -2.76563 0
M  V30 2677 H 272.65 4.38286 -3.3045 0
M  V30 2678 H 272.911 4.12655 -1.58646 0
M  V30 2679 N 271.97 1.30982 0.876444 0
M  V30 2680 C 272.917 1.18085 1.98304 0
M  V30 2681 C 273.887 0.0682263 1.6596 0
M  V30 2682 O 275.072 0.239937 1.89285 0
M  V30 2683 C 272.212 0.887475 3.33493 0
M  V30 2684 C 271.325 2.08281 3.78475 0
M  V30 2685 C 270.46 1.72678 5.0235 0
M  V30 2686 C 269.499 2.88657 5.39762 0
M  V30 2687 N 268.636 2.53292 6.54819 0
M  V30 2688 H 273.476 2.1275 2.08666 0
M  V30 2689 H 271.013 1.05839 1.02159 0
M  V30 2690 H 272.971 0.697961 4.1132 0
M  V30 2691 H 271.601 -0.022315 3.22792 0
M  V30 2692 H 270.653 2.3833 2.96484 0
M  V30 2693 H 271.965 2.95108 4.02135 0
M  V30 2694 H 271.119 1.50151 5.87826 0
M  V30 2695 H 269.858 0.830327 4.8058 0
M  V30 2696 H 268.863 3.1184 4.52809 0
M  V30 2697 H 270.088 3.79002 5.63502 0
M  V30 2698 H 268.034 1.66163 6.34607 0
M  V30 2699 H 267.951 3.3365 6.7839 0
M  V30 2700 H 269.219 2.34143 7.43503 0
M  V30 2701 N 273.449 -1.08991 1.13837 0
M  V30 2702 C 274.381 -2.15606 0.777612 0
M  V30 2703 C 275.394 -1.61533 -0.202739 0
M  V30 2704 O 276.583 -1.78491 0.0181055 0
M  V30 2705 C 273.683 -3.3864 0.132623 0
M  V30 2706 C 272.856 -4.22115 1.1462 0
M  V30 2707 C 271.915 -5.23564 0.526074 0
M  V30 2708 O 270.941 -5.56678 1.18735 0
M  V30 2709 N 272.143 -5.76266 -0.699866 0
M  V30 2710 H 274.908 -2.47159 1.69506 0
M  V30 2711 H 272.469 -1.24747 1.03198 0
M  V30 2712 H 274.461 -4.03626 -0.29459 0
M  V30 2713 H 273.031 -3.04938 -0.687849 0
M  V30 2714 H 272.251 -3.53199 1.75055 0
M  V30 2715 H 273.539 -4.74709 1.83109 0
M  V30 2716 H 272.937 -5.51585 -1.25581 0
M  V30 2717 H 271.494 -6.42963 -1.06968 0
M  V30 2718 N 274.927 -0.932562 -1.27047 0
M  V30 2719 C 275.89 -0.440064 -2.24936 0
M  V30 2720 C 276.89 0.444071 -1.54547 0
M  V30 2721 O 278.08 0.244465 -1.72476 0
M  V30 2722 C 275.212 0.36678 -3.38921 0
M  V30 2723 H 276.405 -1.305 -2.70018 0
M  V30 2724 H 273.958 -0.713707 -1.39054 0
M  V30 2725 H 274.693 1.25033 -2.99228 0
M  V30 2726 H 274.478 -0.267204 -3.91188 0
M  V30 2727 H 275.968 0.701567 -4.11665 0
M  V30 2728 N 276.405 1.4127 -0.698611 0
M  V30 2729 C 277.338 2.28195 0.0153898 0
M  V30 2730 C 278.316 1.42402 0.784883 0
M  V30 2731 O 279.5 1.71828 0.775067 0
M  V30 2732 C 276.627 3.22685 1.02918 0
M  V30 2733 C 275.673 4.25041 0.352501 0
M  V30 2734 S 276.506 5.27757 -0.907322 0
M  V30 2735 C 277.662 6.25812 0.104796 0
M  V30 2736 H 277.895 2.88403 -0.721858 0
M  V30 2737 H 275.428 1.46452 -0.488996 0
M  V30 2738 H 277.386 3.77655 1.60893 0
M  V30 2739 H 276.047 2.61566 1.73902 0
M  V30 2740 H 275.24 4.91437 1.11828 0
M  V30 2741 H 274.842 3.73682 -0.154254 0
M  V30 2742 H 277.134 6.70705 0.957103 0
M  V30 2743 H 278.077 7.06149 -0.525323 0
M  V30 2744 H 278.485 5.62615 0.460931 0
M  V30 2745 N 277.883 0.443576 1.51229 0
M  V30 2746 C 279.13 -0.120796 2.02139 0
M  V30 2747 C 279.458 -1.42166 1.32736 0
M  V30 2748 O 278.713 -1.90849 0.43301 0
M  V30 2749 C 279.012 -0.380579 3.55368 0
M  V30 2750 C 278.678 0.83523 4.43097 0
M  V30 2751 C 277.34 1.16864 4.66794 0
M  V30 2752 C 279.692 1.64601 4.94526 0
M  V30 2753 C 277.02 2.31339 5.39165 0
M  V30 2754 C 279.372 2.78181 5.68153 0
M  V30 2755 C 278.036 3.11969 5.90112 0
M  V30 2756 H 277.306 -0.0442023 0.73968 0
M  V30 2757 H 279.953 0.592046 1.82118 0
M  V30 2758 H 278.258 -1.17538 3.73754 0
M  V30 2759 H 279.955 -0.830777 3.923 0
M  V30 2760 H 276.545 0.565437 4.24854 0
M  V30 2761 H 280.729 1.40163 4.76097 0
M  V30 2762 H 275.985 2.57823 5.5438 0
M  V30 2763 H 280.159 3.41371 6.06992 0
M  V30 2764 H 277.786 4.00784 6.45969 0
M  V30 2765 N 279.361 -1.56624 0.175154 0
M  V30 2766 C 280.311 -2.14747 -0.766004 0
M  V30 2767 C 281.295 -1.08275 -1.19018 0
M  V30 2768 O 282.487 -1.34388 -1.15191 0
M  V30 2769 C 279.616 -2.79478 -1.99366 0
M  V30 2770 C 278.702 -3.93114 -1.5913 0
M  V30 2771 N 279.093 -4.97752 -0.89872 0
M  V30 2772 C 277.391 -4.04345 -1.88204 0
M  V30 2773 C 278.092 -5.77473 -0.700012 0
M  V30 2774 N 277.068 -5.29207 -1.24263 0
M  V30 2775 H 280.87 -2.93015 -0.22793 0
M  V30 2776 H 278.384 -1.6238 -0.0253843 0
M  V30 2777 H 280.381 -3.19498 -2.67818 0
M  V30 2778 H 279.041 -2.02692 -2.53665 0
M  V30 2779 H 280.052 -5.14903 -0.556347 0
M  V30 2780 H 276.729 -3.38667 -2.44153 0
M  V30 2781 H 278.119 -6.71728 -0.152047 0
M  V30 2782 N 280.839 0.0985539 -1.57292 0
M  V30 2783 C 282.069 0.815135 -1.8984 0
M  V30 2784 C 282.477 1.7297 -0.766679 0
M  V30 2785 O 281.82 1.81698 0.270483 0
M  V30 2786 C 281.882 1.6842 -3.17608 0
M  V30 2787 C 281.546 0.94182 -4.4719 0
M  V30 2788 C 282.543 0.273212 -5.19182 0
M  V30 2789 C 280.228 0.916927 -4.9386 0
M  V30 2790 C 282.222 -0.410361 -6.36078 0
M  V30 2791 C 279.909 0.229567 -6.10669 0
M  V30 2792 C 280.907 -0.432902 -6.81627 0
M  V30 2793 O 280.595 -1.10925 -7.9621 0
M  V30 2794 H 280.327 0.238501 -0.632529 0
M  V30 2795 H 282.881 0.0812659 -2.05239 0
M  V30 2796 H 281.111 2.46022 -2.98345 0
M  V30 2797 H 282.8 2.27704 -3.36015 0
M  V30 2798 H 283.566 0.283927 -4.84168 0
M  V30 2799 H 279.445 1.42201 -4.3852 0
M  V30 2800 H 282.989 -0.928013 -6.914 0
M  V30 2801 H 278.886 0.216686 -6.45136 0
M  V30 2802 H 279.654 -1.01579 -8.12172 0
M  V30 2803 N 282.317 1.53212 0.369288 0
M  V30 2804 C 283.564 1.69215 1.11232 0
M  V30 2805 C 283.892 0.442048 1.8941 0
M  V30 2806 O 283.147 -0.575944 1.87033 0
M  V30 2807 C 283.446 2.89101 2.10132 0
M  V30 2808 C 283.112 4.25758 1.48463 0
M  V30 2809 C 281.774 4.6292 1.31372 0
M  V30 2810 C 284.126 5.10757 1.03811 0
M  V30 2811 C 281.454 5.82722 0.68207 0
M  V30 2812 C 283.806 6.31201 0.420487 0
M  V30 2813 C 282.47 6.67079 0.237038 0
M  V30 2814 H 281.74 0.619201 0.407027 0
M  V30 2815 H 284.387 1.87391 0.394552 0
M  V30 2816 H 282.692 2.65421 2.88199 0
M  V30 2817 H 284.389 2.98676 2.6757 0
M  V30 2818 H 280.979 3.96494 1.62758 0
M  V30 2819 H 285.163 4.82599 1.1581 0
M  V30 2820 H 280.419 6.09113 0.528316 0
M  V30 2821 H 284.593 6.96368 0.0662874 0
M  V30 2822 H 282.22 7.59774 -0.254477 0
M  V30 2823 N 283.795 -0.628877 1.44509 0
M  V30 2824 C 284.727 -1.754 1.47538 0
M  V30 2825 C 285.74 -1.58575 0.368506 0
M  V30 2826 O 286.929 -1.66847 0.634376 0
M  V30 2827 C 284.029 -3.1315 1.29577 0
M  V30 2828 C 283.202 -3.56413 2.53551 0
M  V30 2829 C 282.261 -4.7305 2.30457 0
M  V30 2830 O 281.287 -4.81247 3.03957 0
M  V30 2831 N 282.489 -5.64903 1.3366 0
M  V30 2832 H 285.254 -1.73272 2.44534 0
M  V30 2833 H 282.815 -0.813512 1.39977 0
M  V30 2834 H 284.807 -3.88902 1.11971 0
M  V30 2835 H 283.377 -3.09908 0.409371 0
M  V30 2836 H 282.597 -2.70847 2.86419 0
M  V30 2837 H 283.885 -3.82071 3.36005 0
M  V30 2838 H 283.283 -5.60975 0.729604 0
M  V30 2839 H 281.84 -6.40275 1.22032 0
M  V30 2840 N 285.273 -1.31445 -0.869486 0
M  V30 2841 C 286.519 -1.21337 -1.62496 0
M  V30 2842 C 286.852 0.227872 -1.92858 0
M  V30 2843 O 286.127 1.16094 -1.56053 0
M  V30 2844 C 286.41 -2.05814 -2.95487 0
M  V30 2845 C 286.263 -3.5824 -2.72 0
M  V30 2846 C 287.582 -1.9079 -3.96594 0
M  V30 2847 H 284.701 -0.442135 -0.589649 0
M  V30 2848 H 287.343 -1.6124 -1.00507 0
M  V30 2849 H 285.493 -1.71913 -3.48394 0
M  V30 2850 H 287.165 -4.0228 -2.25762 0
M  V30 2851 H 285.408 -3.81647 -2.06224 0
M  V30 2852 H 286.079 -4.12657 -3.66631 0
M  V30 2853 H 288.555 -2.20459 -3.52898 0
M  V30 2854 H 287.431 -2.52199 -4.87531 0
M  V30 2855 H 287.692 -0.871341 -4.33428 0
M  V30 2856 N 286.751 1.08385 -1.14413 0
M  V30 2857 C 288.162 1.62258 -0.923535 0
M  V30 2858 C 288.513 1.88691 0.537595 0
M  V30 2859 O 287.638 1.64454 1.40655 0
M  V30 2860 C 288.233 2.94781 -1.67002 0
M  V30 2861 C 286.792 3.45437 -1.495 0
M  V30 2862 C 285.939 2.19668 -1.69238 0
M  V30 2863 H 288.89 0.916086 -1.2959 0
M  V30 2864 H 288.911 3.63229 -1.13334 0
M  V30 2865 H 288.423 2.7551 -2.73342 0
M  V30 2866 H 286.524 3.6981 -0.455097 0
M  V30 2867 H 286.637 4.22173 -2.2651 0
M  V30 2868 H 285.001 2.28849 -1.11804 0
M  V30 2869 H 285.784 2.02905 -2.7692 0
M  V30 2870 N 288.23 0.939286 1.26551 0
M  V30 2871 C 289.507 0.5038 1.89001 0
M  V30 2872 C 289.887 -1.01854 1.84903 0
M  V30 2873 O 289.235 -1.87773 1.30206 0
M  V30 2874 C 289.445 1.063 3.32417 0
M  V30 2875 C 290.793 1.13051 4.09273 0
M  V30 2876 O 291.817 1.01345 3.41479 0
M  V30 2877 O 290.676 1.31233 5.30509 0
M  V30 2878 H 287.77 0.163897 0.810597 0
M  V30 2879 H 290.316 1.03173 1.34735 0
M  V30 2880 H 289.088 2.10665 3.29752 0
M  V30 2881 H 288.711 0.517408 3.94219 0
M  V30 2882 N 289.708 -1.40897 0.706093 0
M  V30 2883 C 291.124 -1.55042 0.37869 0
M  V30 2884 C 291.324 -1.67944 -1.11342 0
M  V30 2885 O 290.38 -1.66372 -1.89938 0
M  V30 2886 C 291.693 -2.78398 1.13643 0
M  V30 2887 C 293.241 -2.92206 1.12181 0
M  V30 2888 C 293.716 -4.18463 1.86152 0
M  V30 2889 N 295.207 -4.25443 1.83173 0
M  V30 2890 C 295.942 -5.2202 2.37239 0
M  V30 2891 N 295.438 -6.24563 2.99821 0
M  V30 2892 N 297.231 -5.14033 2.27435 0
M  V30 2893 H 289.382 -1.30769 1.67372 0
M  V30 2894 H 291.645 -0.631653 0.706907 0
M  V30 2895 H 291.351 -2.7511 2.19106 0
M  V30 2896 H 291.225 -3.70228 0.721853 0
M  V30 2897 H 293.612 -2.95004 0.0754171 0
M  V30 2898 H 293.693 -2.01521 1.57554 0
M  V30 2899 H 293.337 -4.16427 2.90776 0
M  V30 2900 H 293.267 -5.08141 1.38206 0
M  V30 2901 H 295.758 -3.51976 1.37556 0
M  V30 2902 H 296.071 -6.94665 3.38616 0
M  V30 2903 H 294.416 -6.25035 3.03902 0
M  V30 2904 H 297.607 -4.3285 1.78208 0
M  V30 2905 H 297.78 -5.89129 2.69873 0
M  V30 2906 N 291.186 -0.45159 -1.50991 0
M  V30 2907 C 292.116 0.342898 -2.30969 0
M  V30 2908 C 293.097 1.00815 -1.37005 0
M  V30 2909 O 294.282 1.00907 -1.65926 0
M  V30 2910 C 291.412 1.43637 -3.16205 0
M  V30 2911 C 290.366 0.893818 -4.18563 0
M  V30 2912 C 289.692 2.08411 -4.92411 0
M  V30 2913 C 290.992 -0.0815568 -5.22236 0
M  V30 2914 H 292.686 -0.324556 -2.97636 0
M  V30 2915 H 290.232 -0.157531 -1.43136 0
M  V30 2916 H 292.185 1.9995 -3.70942 0
M  V30 2917 H 290.909 2.13232 -2.47386 0
M  V30 2918 H 289.568 0.352798 -3.64898 0
M  V30 2919 H 289.216 2.76658 -4.20082 0
M  V30 2920 H 288.916 1.72741 -5.61636 0
M  V30 2921 H 290.44 2.65251 -5.49976 0
M  V30 2922 H 291.854 0.391742 -5.7196 0
M  V30 2923 H 290.251 -0.351551 -5.99069 0
M  V30 2924 H 291.321 -1.01374 -4.74185 0
M  V30 2925 N 292.664 1.56529 -0.183458 0
M  V30 2926 C 293.912 1.96855 0.457452 0
M  V30 2927 C 294.233 1.07104 1.62953 0
M  V30 2928 O 293.503 0.139887 1.954 0
M  V30 2929 H 292.083 0.72693 0.171992 0
M  V30 2930 H 294.745 1.93056 -0.267476 0
M  V30 2931 H 293.841 3.01423 0.809368 0
M  V30 2932 N 294.142 -0.090211 1.57342 0
M  V30 2933 C 295.391 -0.791531 1.8552 0
M  V30 2934 C 295.704 -1.79659 0.773441 0
M  V30 2935 O 296.91 -2.54616 0.942497 0
M  V30 2936 C 295.366 -1.45856 3.2902 0
M  V30 2937 C 294.974 -0.493017 4.45279 0
M  V30 2938 C 296.718 -2.14332 3.66418 0
M  V30 2939 C 294.625 -1.16491 5.79814 0
M  V30 2940 H 293.555 -0.299356 0.692027 0
M  V30 2941 H 296.206 -0.0445343 1.83446 0
M  V30 2942 H 294.588 -2.25318 3.2565 0
M  V30 2943 H 295.762 0.270464 4.60006 0
M  V30 2944 H 294.077 0.0863061 4.16311 0
M  V30 2945 H 296.674 -2.65344 4.64216 0
M  V30 2946 H 297.017 -2.93447 2.95287 0
M  V30 2947 H 297.55 -1.41724 3.71698 0
M  V30 2948 H 294.289 -0.41447 6.54188 0
M  V30 2949 H 293.809 -1.8997 5.68921 0
M  V30 2950 H 295.488 -1.69001 6.24538 0
M  V30 2951 N 295.62 -1.53406 -0.361157 0
M  V30 2952 C 296.55 -1.83136 -1.44857 0
M  V30 2953 C 297.531 -0.685174 -1.5569 0
M  V30 2954 O 298.716 -0.93544 -1.70186 0
M  V30 2955 C 295.846 -2.02522 -2.82138 0
M  V30 2956 C 294.8 -3.18302 -2.86126 0
M  V30 2957 C 294.126 -3.22989 -4.26125 0
M  V30 2958 C 295.426 -4.56796 -2.53248 0
M  V30 2959 H 297.12 -2.74201 -1.20226 0
M  V30 2960 H 294.666 -1.31938 -0.576922 0
M  V30 2961 H 296.619 -2.21904 -3.58241 0
M  V30 2962 H 295.343 -1.08172 -3.08166 0
M  V30 2963 H 294.002 -2.98747 -2.12475 0
M  V30 2964 H 293.65 -2.26267 -4.49235 0
M  V30 2965 H 293.35 -4.00781 -4.29708 0
M  V30 2966 H 294.874 -3.44559 -5.04094 0
M  V30 2967 H 296.288 -4.7631 -3.19064 0
M  V30 2968 H 294.685 -5.36862 -2.68141 0
M  V30 2969 H 295.755 -4.61606 -1.48484 0
M  V30 2970 N 297.098 0.621204 -1.44841 0
M  V30 2971 C 298.326 1.40752 -1.51646 0
M  V30 2972 C 298.741 1.88246 -0.144549 0
M  V30 2973 O 298.098 1.61422 0.851416 0
M  V30 2974 C 298.149 2.62119 -2.4895 0
M  V30 2975 O 297.87 2.16602 -3.80808 0
M  V30 2976 C 299.371 3.55135 -2.65319 0
M  V30 2977 H 296.591 0.431325 -0.514004 0
M  V30 2978 H 299.135 0.758835 -1.899 0
M  V30 2979 H 297.29 3.23058 -2.13805 0
M  V30 2980 H 297.704 2.95358 -4.33433 0
M  V30 2981 H 299.178 4.36874 -3.37409 0
M  V30 2982 H 299.655 4.04592 -1.70886 0
M  V30 2983 H 300.261 3.00058 -3.01405 0
M  V30 2984 N 298.576 1.31904 0.862503 0
M  V30 2985 C 299.526 1.16772 1.95827 0
M  V30 2986 C 300.51 0.0767098 1.60717 0
M  V30 2987 O 301.702 0.302407 1.74398 0
M  V30 2988 C 298.831 0.884858 3.317 0
M  V30 2989 C 297.917 2.0172 3.73055 0
M  V30 2990 N 298.308 3.265 3.86305 0
M  V30 2991 C 296.606 1.91861 4.02623 0
M  V30 2992 C 297.307 4.00616 4.2176 0
M  V30 2993 N 296.283 3.28847 4.32852 0
M  V30 2994 H 300.085 2.11382 2.04193 0
M  V30 2995 H 297.599 1.2357 1.05377 0
M  V30 2996 H 299.596 0.757419 4.09962 0
M  V30 2997 H 298.256 -0.0529448 3.24657 0
M  V30 2998 H 299.267 3.61529 3.70833 0
M  V30 2999 H 295.944 1.05593 4.03926 0
M  V30 3000 H 297.334 5.08182 4.39546 0
M  V30 3001 N 300.054 -1.07777 1.14986 0
M  V30 3002 C 300.984 -2.16865 0.865557 0
M  V30 3003 C 301.965 -1.69123 -0.182083 0
M  V30 3004 O 303.15 -1.94164 -0.0373815 0
M  V30 3005 C 300.28 -3.45539 0.349313 0
M  V30 3006 C 299.234 -4.06708 1.33313 0
M  V30 3007 C 298.56 -5.30411 0.675918 0
M  V30 3008 C 299.86 -4.47241 2.69764 0
M  V30 3009 H 301.554 -2.40905 1.77778 0
M  V30 3010 H 299.1 -1.15781 0.856203 0
M  V30 3011 H 301.053 -4.21174 0.137983 0
M  V30 3012 H 299.777 -3.21072 -0.598362 0
M  V30 3013 H 298.436 -3.33112 1.53075 0
M  V30 3014 H 298.084 -5.02232 -0.277767 0
M  V30 3015 H 297.784 -5.72293 1.33244 0
M  V30 3016 H 299.308 -6.08755 0.474262 0
M  V30 3017 H 300.722 -5.14025 2.53873 0
M  V30 3018 H 299.119 -5.00062 3.3175 0
M  V30 3019 H 300.189 -3.58818 3.26156 0
M  V30 3020 N 301.532 -0.945985 -1.26051 0
M  V30 3021 C 302.762 -0.612136 -1.97323 0
M  V30 3022 C 303.17 0.818171 -1.70595 0
M  V30 3023 O 302.513 1.55777 -0.973613 0
M  V30 3024 C 302.575 -0.780347 -3.50929 0
M  V30 3025 C 302.239 -2.18619 -4.01317 0
M  V30 3026 C 303.236 -3.16209 -4.12683 0
M  V30 3027 C 300.921 -2.50805 -4.35203 0
M  V30 3028 C 302.915 -4.44085 -4.57238 0
M  V30 3029 C 300.602 -3.78912 -4.79446 0
M  V30 3030 C 301.6 -4.75365 -4.90425 0
M  V30 3031 O 301.288 -6.01191 -5.3369 0
M  V30 3032 H 301.02 -0.229134 -0.635982 0
M  V30 3033 H 303.574 -1.27036 -1.61404 0
M  V30 3034 H 301.804 -0.0649864 -3.86645 0
M  V30 3035 H 303.493 -0.448842 -4.03411 0
M  V30 3036 H 304.259 -2.92668 -3.86744 0
M  V30 3037 H 300.138 -1.76463 -4.2589 0
M  V30 3038 H 303.682 -5.19373 -4.65723 0
M  V30 3039 H 299.579 -4.02265 -5.0483 0
M  V30 3040 H 300.347 -6.04442 -5.51899 0
M  V30 3041 N 303.011 1.40521 -0.713556 0
M  V30 3042 C 304.427 1.54839 -0.386907 0
M  V30 3043 C 304.627 1.68532 1.1045 0
M  V30 3044 O 303.683 1.67377 1.89053 0
M  V30 3045 C 304.996 2.77792 -1.15118 0
M  V30 3046 C 306.544 2.91607 -1.13729 0
M  V30 3047 C 307.019 4.1747 -1.88368 0
M  V30 3048 N 308.51 4.24466 -1.85427 0
M  V30 3049 C 309.245 5.20755 -2.40004 0
M  V30 3050 N 308.741 6.22965 -3.03129 0
M  V30 3051 N 310.534 5.1282 -2.30158 0
M  V30 3052 H 302.685 1.29879 -1.68063 0
M  V30 3053 H 304.948 0.627896 -0.710247 0
M  V30 3054 H 304.654 2.73944 -2.20561 0
M  V30 3055 H 304.528 3.6984 -0.741477 0
M  V30 3056 H 306.915 2.94959 -0.0910608 0
M  V30 3057 H 306.996 2.00682 -1.5862 0
M  V30 3058 H 306.64 4.1488 -2.9298 0
M  V30 3059 H 306.57 5.074 -1.40898 0
M  V30 3060 H 309.061 3.51241 -1.3942 0
M  V30 3061 H 309.374 6.92859 -3.42295 0
M  V30 3062 H 307.719 6.23415 -3.07212 0
M  V30 3063 H 310.91 4.31899 -1.80501 0
M  V30 3064 H 311.083 5.87689 -2.72993 0
M  V30 3065 N 304.489 0.459591 1.5075 0
M  V30 3066 C 305.766 -0.160371 1.94941 0
M  V30 3067 C 306.146 -1.58048 1.39943 0
M  V30 3068 O 305.494 -2.206 0.595629 0
M  V30 3069 C 305.704 -0.115432 3.48809 0
M  V30 3070 C 307.052 -0.310026 4.23467 0
M  V30 3071 O 308.076 -0.192543 3.55679 0
M  V30 3072 O 306.935 -0.546031 5.43765 0
M  V30 3073 H 304.029 -0.117925 0.818549 0
M  V30 3074 H 306.575 0.519169 1.61563 0
M  V30 3075 H 305.347 0.87652 3.81357 0
M  V30 3076 H 304.97 -0.836928 3.88692 0
M  V30 3077 N 305.967 -1.56429 0.191757 0
M  V30 3078 C 307.214 -1.97485 -0.447891 0
M  V30 3079 C 307.542 -1.07852 -1.61859 0
M  V30 3080 O 306.797 -0.116903 -1.95351 0
M  V30 3081 C 307.096 -3.44449 -0.953384 0
M  V30 3082 C 306.762 -4.50781 0.103586 0
M  V30 3083 C 305.424 -4.79584 0.394023 0
M  V30 3084 C 307.776 -5.1471 0.819946 0
M  V30 3085 C 305.104 -5.69607 1.40585 0
M  V30 3086 C 307.456 -6.05827 1.8209 0
M  V30 3087 C 306.12 -6.32987 2.11857 0
M  V30 3088 H 305.39 -0.722648 -0.163895 0
M  V30 3089 H 308.037 -1.89322 0.28802 0
M  V30 3090 H 306.342 -3.49666 -1.76751 0
M  V30 3091 H 308.039 -3.73569 -1.45765 0
M  V30 3092 H 304.629 -4.28394 -0.132951 0
M  V30 3093 H 308.813 -4.92552 0.608789 0
M  V30 3094 H 304.069 -5.88926 1.64243 0
M  V30 3095 H 308.243 -6.54424 2.38123 0
M  V30 3096 H 305.87 -7.02544 2.90407 0
M  V30 3097 N 307.445 0.0818655 -1.57387 0
M  V30 3098 C 308.722 0.815343 -1.77796 0
M  V30 3099 C 309.102 1.96289 -0.77679 0
M  V30 3100 O 308.45 2.27691 0.192106 0
M  V30 3101 C 308.66 1.29765 -3.23978 0
M  V30 3102 C 310.008 1.7351 -3.8753 0
M  V30 3103 O 311.032 1.39356 -3.27808 0
M  V30 3104 O 309.891 2.36708 -4.92576 0
M  V30 3105 H 306.985 0.389914 -0.729312 0
M  V30 3106 H 309.531 0.0627213 -1.69584 0
M  V30 3107 H 308.303 0.47608 -3.88393 0
M  V30 3108 H 307.926 2.11189 -3.36875 0
M  V30 3109 N 308.923 1.53595 0.353017 0
M  V30 3110 C 309.87 1.80919 1.43308 0
M  V30 3111 C 310.84 0.654288 1.5267 0
M  V30 3112 O 312.025 0.897759 1.6836 0
M  V30 3113 C 309.165 2.01605 2.80089 0
M  V30 3114 C 308.278 3.29321 2.79593 0
M  V30 3115 C 307.413 3.40125 4.0803 0
M  V30 3116 C 306.452 4.61826 4.01725 0
M  V30 3117 N 305.589 4.69716 5.21834 0
M  V30 3118 H 310.429 2.73074 1.19308 0
M  V30 3119 H 307.966 1.35263 0.578131 0
M  V30 3120 H 309.924 2.11586 3.59565 0
M  V30 3121 H 308.554 1.12772 3.0246 0
M  V30 3122 H 307.606 3.28229 1.92276 0
M  V30 3123 H 308.918 4.18884 2.70809 0
M  V30 3124 H 308.072 3.49488 4.95927 0
M  V30 3125 H 306.811 2.48601 4.19582 0
M  V30 3126 H 305.816 4.52552 3.12213 0
M  V30 3127 H 307.041 5.54705 3.91764 0
M  V30 3128 H 304.987 3.81097 5.33948 0
M  V30 3129 H 304.904 5.53202 5.1527 0
M  V30 3130 H 306.172 4.83376 6.11529 0
M  V30 3131 N 310.401 -0.613514 1.45168 0
M  V30 3132 C 311.641 -1.38405 1.5041 0
M  V30 3133 C 312.005 -1.91489 0.139922 0
M  V30 3134 O 313.206 -2.68716 0.067033 0
M  V30 3135 C 311.477 -2.50552 2.5487 0
M  V30 3136 S 313.036 -3.38439 2.79292 0
M  V30 3137 H 309.854 -0.471945 0.531779 0
M  V30 3138 H 312.456 -0.708518 1.82209 0
M  V30 3139 H 311.16 -2.09894 3.52665 0
M  V30 3140 H 310.691 -3.22913 2.24701 0
M  V30 3141 H 312.706 -4.48527 2.12222 0
M  V30 3142 N 311.879 -1.3236 -0.855495 0
M  V30 3143 C 313.295 -1.11332 -1.14356 0
M  V30 3144 C 313.495 0.106751 -2.01217 0
M  V30 3145 O 312.551 0.791891 -2.39761 0
M  V30 3146 C 313.864 -2.39237 -1.82171 0
M  V30 3147 C 315.412 -2.44986 -1.9481 0
M  V30 3148 C 315.887 -3.7281 -2.66039 0
M  V30 3149 N 317.378 -3.73787 -2.73565 0
M  V30 3150 C 318.113 -4.69394 -3.29327 0
M  V30 3151 N 317.609 -5.75367 -3.85907 0
M  V30 3152 N 319.402 -4.56893 -3.27423 0
M  V30 3153 H 311.553 -2.10586 -0.277027 0
M  V30 3154 H 313.816 -0.929701 -0.185364 0
M  V30 3155 H 313.522 -3.28431 -1.25802 0
M  V30 3156 H 313.396 -2.50134 -2.82335 0
M  V30 3157 H 315.783 -1.56252 -2.50338 0
M  V30 3158 H 315.864 -2.38043 -0.936448 0
M  V30 3159 H 315.508 -4.61918 -2.11174 0
M  V30 3160 H 315.438 -3.77024 -3.67642 0
M  V30 3161 H 317.929 -2.97189 -2.33424 0
M  V30 3162 H 318.242 -6.44378 -4.26611 0
M  V30 3163 H 316.587 -5.79123 -3.84242 0
M  V30 3164 H 319.778 -3.73269 -2.82467 0
M  V30 3165 H 319.951 -5.31577 -3.7058 0
M  V30 3166 N 313.357 1.07166 -1.15556 0
M  V30 3167 C 314.604 1.79798 -0.931604 0
M  V30 3168 C 314.932 1.8682 0.54115 0
M  V30 3169 O 314.187 1.34942 1.41736 0
M  V30 3170 C 314.486 3.24707 -1.49332 0
M  V30 3171 C 314.152 3.37781 -2.98688 0
M  V30 3172 C 312.814 3.41057 -3.39461 0
M  V30 3173 C 315.166 3.40424 -3.94665 0
M  V30 3174 C 312.494 3.4458 -4.74849 0
M  V30 3175 C 314.846 3.45485 -5.29927 0
M  V30 3176 C 313.51 3.47039 -5.70193 0
M  V30 3177 H 312.78 0.657928 -0.340898 0
M  V30 3178 H 315.427 1.26091 -1.44129 0
M  V30 3179 H 313.732 3.81208 -0.904859 0
M  V30 3180 H 315.429 3.79486 -1.29582 0
M  V30 3181 H 312.019 3.35932 -2.66172 0
M  V30 3182 H 316.203 3.37113 -3.64237 0
M  V30 3183 H 311.459 3.44083 -5.05388 0
M  V30 3184 H 315.633 3.46476 -6.04092 0
M  V30 3185 H 313.26 3.49522 -6.75084 0
M  V30 3186 N 314.835 0.952656 1.25548 0
M  V30 3187 C 315.798 0.475794 2.24207 0
M  V30 3188 C 316.798 -0.419428 1.55234 0
M  V30 3189 O 317.988 -0.216994 1.72843 0
M  V30 3190 C 315.12 -0.312814 3.39462 0
M  V30 3191 H 316.313 1.34779 2.67908 0
M  V30 3192 H 313.866 0.735739 1.37901 0
M  V30 3193 H 314.601 -1.20257 3.01179 0
M  V30 3194 H 314.386 0.329404 3.90714 0
M  V30 3195 H 315.876 -0.635986 4.12729 0
M  V30 3196 N 316.313 -1.40141 0.720998 0
M  V30 3197 C 317.561 -2.0039 0.262323 0
M  V30 3198 C 317.882 -1.57469 -1.15015 0
M  V30 3199 O 317.152 -0.816582 -1.78069 0
M  V30 3200 H 315.732 -0.741063 0.093996 0
M  V30 3201 H 318.394 -1.71398 0.927835 0
M  V30 3202 H 317.49 -3.10658 0.299671 0
M  V30 3203 N 317.792 -0.46758 -1.50504 0
M  V30 3204 C 319.039 0.0886219 -2.02306 0
M  V30 3205 C 319.367 1.40037 -1.34981 0
M  V30 3206 O 318.622 1.90136 -0.463318 0
M  V30 3207 C 318.921 0.323995 -3.55928 0
M  V30 3208 C 318.587 -0.905618 -4.41712 0
M  V30 3209 C 317.249 -1.24275 -4.64875 0
M  V30 3210 C 319.601 -1.72448 -4.91845 0
M  V30 3211 C 316.929 -2.39888 -5.35417 0
M  V30 3212 C 319.281 -2.87185 -5.63656 0
M  V30 3213 C 317.945 -3.21317 -5.85074 0
M  V30 3214 H 317.215 0.0324291 -0.74029 0
M  V30 3215 H 319.862 -0.620945 -1.81153 0
M  V30 3216 H 318.167 1.11577 -3.75577 0
M  V30 3217 H 319.864 0.76826 -3.93572 0
M  V30 3218 H 316.454 -0.632956 -4.239 0
M  V30 3219 H 320.638 -1.4772 -4.73806 0
M  V30 3220 H 315.894 -2.66611 -5.50208 0
M  V30 3221 H 320.068 -3.50985 -6.01484 0
M  V30 3222 H 317.695 -4.1101 -6.39511 0
M  V30 3223 N 319.27 1.56325 -0.20005 0
M  V30 3224 C 320.51 1.99619 0.439519 0
M  V30 3225 C 320.874 1.08423 1.58456 0
M  V30 3226 O 322.075 1.40973 2.28867 0
M  V30 3227 C 320.346 3.46314 0.883258 0
M  V30 3228 S 321.905 4.11634 1.51997 0
M  V30 3229 H 318.723 0.697007 0.140363 0
M  V30 3230 H 321.325 1.93118 -0.304282 0
M  V30 3231 H 320.029 4.10381 0.0398967 0
M  V30 3232 H 319.56 3.56643 1.6604 0
M  V30 3233 H 321.575 4.09049 2.8088 0
M  V30 3234 N 320.748 -0.0735177 1.57428 0
M  V30 3235 C 322.164 -0.428264 1.53747 0
M  V30 3236 C 322.364 -1.79272 0.91998 0
M  V30 3237 O 321.42 -2.47051 0.521745 0
M  V30 3238 C 322.733 -0.370914 2.98404 0
M  V30 3239 C 324.281 -0.451224 3.0973 0
M  V30 3240 C 324.756 -0.4238 4.56035 0
M  V30 3241 N 326.247 -0.483925 4.60665 0
M  V30 3242 C 326.982 -0.484891 5.71346 0
M  V30 3243 N 326.478 -0.440775 6.91396 0
M  V30 3244 N 328.271 -0.531319 5.59583 0
M  V30 3245 H 320.422 0.819949 1.95935 0
M  V30 3246 H 322.685 0.307493 0.896745 0
M  V30 3247 H 322.391 0.564956 3.47133 0
M  V30 3248 H 322.265 -1.18176 3.5821 0
M  V30 3249 H 324.652 -1.37752 2.60976 0
M  V30 3250 H 324.733 0.388167 2.52838 0
M  V30 3251 H 324.377 0.498638 5.05446 0
M  V30 3252 H 324.307 -1.2807 5.10789 0
M  V30 3253 H 326.798 -0.522338 3.74273 0
M  V30 3254 H 327.111 -0.44539 7.71515 0
M  V30 3255 H 325.456 -0.40749 6.93804 0
M  V30 3256 H 328.647 -0.563464 4.64696 0
M  V30 3257 H 328.82 -0.528603 6.4584 0
M  V30 3258 N 322.226 -1.5378 -0.344866 0
M  V30 3259 C 323.173 -1.81676 -1.42346 0
M  V30 3260 C 324.143 -0.662376 -1.52321 0
M  V30 3261 O 325.328 -0.906675 -1.67881 0
M  V30 3262 C 322.468 -2.03087 -2.79015 0
M  V30 3263 C 321.581 -3.30799 -2.77842 0
M  V30 3264 C 320.716 -3.42285 -4.0622 0
M  V30 3265 C 319.755 -4.6395 -3.9927 0
M  V30 3266 N 318.892 -4.72477 -5.19336 0
M  V30 3267 H 323.732 -2.73703 -1.17858 0
M  V30 3268 H 321.269 -1.35568 -0.570949 0
M  V30 3269 H 323.227 -2.1349 -3.58438 0
M  V30 3270 H 321.857 -1.14375 -3.01858 0
M  V30 3271 H 320.909 -3.29244 -1.90533 0
M  V30 3272 H 322.221 -4.20314 -2.68584 0
M  V30 3273 H 321.375 -3.52113 -4.94066 0
M  V30 3274 H 320.114 -2.50823 -4.18258 0
M  V30 3275 H 319.119 -4.54201 -3.09809 0
M  V30 3276 H 320.344 -5.56775 -3.88817 0
M  V30 3277 H 318.29 -3.83924 -5.3192 0
M  V30 3278 H 318.207 -5.55927 -5.12329 0
M  V30 3279 H 319.475 -4.86613 -6.08957 0
M  V30 3280 N 323.704 0.605807 -1.45491 0
M  V30 3281 C 324.953 1.36086 -1.48874 0
M  V30 3282 C 325.266 1.95131 -0.135333 0
M  V30 3283 O 326.472 2.7146 -0.0468144 0
M  V30 3284 C 324.928 2.46518 -2.62215 0
M  V30 3285 C 324.536 1.93877 -4.03876 0
M  V30 3286 C 326.28 3.23512 -2.74846 0
M  V30 3287 C 324.187 3.01801 -5.08596 0
M  V30 3288 H 323.117 0.511497 -0.553974 0
M  V30 3289 H 325.768 0.649089 -1.71636 0
M  V30 3290 H 324.15 3.20388 -2.32739 0
M  V30 3291 H 325.324 1.26704 -4.43038 0
M  V30 3292 H 323.639 1.29622 -3.95711 0
M  V30 3293 H 326.236 4.04013 -3.50253 0
M  V30 3294 H 326.579 3.74631 -1.81542 0
M  V30 3295 H 327.112 2.56742 -3.03856 0
M  V30 3296 H 323.851 2.55597 -6.03614 0
M  V30 3297 H 323.371 3.67535 -4.74002 0
M  V30 3298 H 325.05 3.66152 -5.33424 0
M  V30 3299 N 325.182 1.32811 0.848464 0
M  V30 3300 C 326.145 1.22194 1.9391 0
M  V30 3301 C 327.145 0.143404 1.60159 0
M  V30 3302 O 328.335 0.394253 1.6968 0
M  V30 3303 C 325.467 0.88067 3.29328 0
M  V30 3304 H 326.66 2.19127 2.04752 0
M  V30 3305 H 324.213 1.16731 1.0394 0
M  V30 3306 H 324.948 -0.0865776 3.24184 0
M  V30 3307 H 324.733 1.66052 3.55203 0
M  V30 3308 H 326.223 0.830871 4.09251 0
M  V30 3309 N 326.66 -1.06551 1.16123 0
M  V30 3310 C 327.57 -2.17484 0.879662 0
M  V30 3311 C 328.586 -1.73377 -0.147104 0
M  V30 3312 O 329.762 -2.01379 0.0289128 0
M  V30 3313 C 326.827 -3.44591 0.381829 0
M  V30 3314 C 325.888 -4.0322 1.4735 0
M  V30 3315 C 325.121 -5.24261 0.999324 0
M  V30 3316 O 325.344 -5.70198 -0.151957 0
M  V30 3317 O 324.278 -5.74775 1.78653 0
M  V30 3318 H 328.104 -2.44075 1.80724 0
M  V30 3319 H 325.689 -1.16042 0.940992 0
M  V30 3320 H 327.571 -4.21254 0.111053 0
M  V30 3321 H 326.246 -3.19532 -0.51777 0
M  V30 3322 H 325.153 -3.2806 1.79798 0
M  V30 3323 H 326.486 -4.32568 2.34831 0
M  V30 3324 N 328.138 -0.959301 -1.25041 0
M  V30 3325 C 329.386 -0.615393 -1.92503 0
M  V30 3326 C 329.707 0.850969 -1.75452 0
M  V30 3327 O 328.977 1.60658 -1.12098 0
M  V30 3328 H 327.557 -0.224613 -0.712431 0
M  V30 3329 H 330.219 -1.21855 -1.5211 0
M  V30 3330 H 329.315 -0.848738 -3.00338 0
M  V30 3331 N 329.616 1.39756 -0.72842 0
M  V30 3332 C 330.579 2.29012 -0.0927297 0
M  V30 3333 C 331.579 1.45992 0.674025 0
M  V30 3334 O 332.769 1.66749 0.50402 0
M  V30 3335 C 329.901 3.29396 0.878137 0
M  V30 3336 H 331.094 2.86729 -0.879011 0
M  V30 3337 H 328.647 1.48293 -0.493847 0
M  V30 3338 H 329.382 2.76722 1.69101 0
M  V30 3339 H 329.167 3.907 0.331051 0
M  V30 3340 H 330.657 3.96199 1.3197 0
M  V30 3341 N 331.094 0.475555 1.50254 0
M  V30 3342 C 332.026 -0.352649 2.26471 0
M  V30 3343 C 333.039 -0.953165 1.3198 0
M  V30 3344 O 334.228 -0.840815 1.57457 0
M  V30 3345 C 331.328 -1.50902 3.0345 0
M  V30 3346 C 330.501 -1.02047 4.25329 0
M  V30 3347 C 329.56 -2.05142 4.84565 0
M  V30 3348 O 328.586 -1.63023 5.45355 0
M  V30 3349 N 329.788 -3.37987 4.71959 0
M  V30 3350 H 332.553 0.300767 2.98187 0
M  V30 3351 H 330.114 0.306598 1.5897 0
M  V30 3352 H 332.106 -2.19572 3.39956 0
M  V30 3353 H 330.676 -2.06705 2.34504 0
M  V30 3354 H 329.896 -0.159507 3.93877 0
M  V30 3355 H 331.184 -0.672061 5.04342 0
M  V30 3356 H 330.582 -3.74913 4.23623 0
M  V30 3357 H 329.139 -4.02443 5.12721 0
M  V30 3358 N 332.573 -1.56217 0.208337 0
M  V30 3359 C 333.505 -2.1695 -0.739276 0
M  V30 3360 C 334.518 -1.13492 -1.1672 0
M  V30 3361 O 335.707 -1.40529 -1.10063 0
M  V30 3362 C 332.807 -2.72755 -2.01142 0
M  V30 3363 C 331.98 -4.0125 -1.74118 0
M  V30 3364 C 331.039 -4.41749 -2.85909 0
M  V30 3365 O 330.065 -5.08912 -2.54946 0
M  V30 3366 N 331.267 -4.06342 -4.14568 0
M  V30 3367 H 334.032 -2.98893 -0.219837 0
M  V30 3368 H 331.593 -1.61878 0.0268445 0
M  V30 3369 H 333.585 -2.96826 -2.75094 0
M  V30 3370 H 332.155 -1.95191 -2.4417 0
M  V30 3371 H 331.375 -3.85173 -0.838775 0
M  V30 3372 H 332.663 -4.851 -1.53477 0
M  V30 3373 H 332.061 -3.52345 -4.42571 0
M  V30 3374 H 330.618 -4.35335 -4.85105 0
M  V30 3375 N 334.051 0.0651679 -1.57465 0
M  V30 3376 C 335.299 0.761555 -1.87202 0
M  V30 3377 C 335.62 1.77778 -0.801243 0
M  V30 3378 O 334.89 1.95166 0.16937 0
M  V30 3379 H 333.47 0.284251 -0.690804 0
M  V30 3380 H 336.132 0.0396827 -1.9486 0
M  V30 3381 H 335.228 1.27365 -2.84929 0
M  V30 3382 N 335.529 1.53961 0.336706 0
M  V30 3383 C 336.806 1.62171 1.09361 0
M  V30 3384 C 337.186 0.447263 2.06307 0
M  V30 3385 O 336.534 -0.559802 2.21537 0
M  V30 3386 C 336.744 2.98565 1.80721 0
M  V30 3387 C 338.092 3.54157 2.34218 0
M  V30 3388 O 339.116 3.00784 1.90807 0
M  V30 3389 O 337.975 4.47528 3.13657 0
M  V30 3390 H 335.069 0.6562 0.503319 0
M  V30 3391 H 337.615 1.66307 0.33765 0
M  V30 3392 H 336.387 3.75482 1.10132 0
M  V30 3393 H 336.01 2.9805 2.63158 0
M  V30 3394 N 337.007 -0.598083 1.45811 0
M  V30 3395 C 338.418 -1.18011 1.44673 0
M  V30 3396 C 338.769 -1.95378 0.179364 0
M  V30 3397 O 337.894 -2.04124 -0.718509 0
M  V30 3398 C 338.489 -2.14677 2.62105 0
M  V30 3399 C 337.048 -2.68236 2.64057 0
M  V30 3400 C 336.195 -1.43816 2.37091 0
M  V30 3401 H 339.146 -0.38686 1.53913 0
M  V30 3402 H 339.167 -2.97878 2.36746 0
M  V30 3403 H 338.679 -1.5834 3.5433 0
M  V30 3404 H 336.78 -3.28486 1.75864 0
M  V30 3405 H 336.893 -3.12021 3.63566 0
M  V30 3406 H 335.257 -1.731 1.86838 0
M  V30 3407 H 336.04 -0.893333 3.31473 0
M  V30 3408 N 338.485 -1.33259 -0.841409 0
M  V30 3409 C 339.415 -1.25926 -1.96634 0
M  V30 3410 C 340.396 -0.140349 -1.6952 0
M  V30 3411 O 341.581 -0.329707 -1.91381 0
M  V30 3412 C 338.711 -0.99512 -3.32738 0
M  V30 3413 C 337.665 -2.0767 -3.74242 0
M  V30 3414 C 336.991 -1.66474 -5.08125 0
M  V30 3415 C 338.291 -3.49318 -3.88297 0
M  V30 3416 H 339.985 -2.20046 -2.03027 0
M  V30 3417 H 337.531 -1.05931 -0.975425 0
M  V30 3418 H 339.484 -0.930323 -4.11002 0
M  V30 3419 H 338.208 -0.0183004 -3.26595 0
M  V30 3420 H 336.867 -2.13187 -2.98239 0
M  V30 3421 H 336.515 -0.675012 -4.9845 0
M  V30 3422 H 336.215 -2.3885 -5.36865 0
M  V30 3423 H 337.739 -1.61455 -5.88867 0
M  V30 3424 H 339.153 -3.46316 -4.56879 0
M  V30 3425 H 337.55 -4.20158 -4.28471 0
M  V30 3426 H 338.62 -3.8801 -2.9082 0
M  V30 3427 N 339.963 1.05934 -1.16686 0
M  V30 3428 C 341.188 1.83029 -0.975455 0
M  V30 3429 C 341.613 1.82096 0.471452 0
M  V30 3430 O 340.971 1.22443 1.33706 0
M  V30 3431 C 341.019 3.27372 -1.51195 0
M  V30 3432 O 340.123 4.06054 -0.720701 0
M  V30 3433 H 339.464 0.566194 -0.346872 0
M  V30 3434 H 341.994 1.33541 -1.55009 0
M  V30 3435 H 342.004 3.78186 -1.53099 0
M  V30 3436 H 340.679 3.27366 -2.56523 0
M  V30 3437 H 339.256 3.64812 -0.772458 0
M  V30 3438 N 341.441 0.965919 1.2453 0
M  V30 3439 C 342.857 0.67216 1.44756 0
M  V30 3440 C 343.057 -0.766609 1.86347 0
M  V30 3441 O 342.113 -1.5407 2.00047 0
M  V30 3442 C 343.426 1.65473 2.51076 0
M  V30 3443 C 344.974 1.66716 2.64905 0
M  V30 3444 C 345.449 2.63766 3.74421 0
M  V30 3445 N 346.94 2.62198 3.81846 0
M  V30 3446 C 347.675 3.33966 4.66106 0
M  V30 3447 N 347.171 4.15245 5.54566 0
M  V30 3448 N 348.964 3.22799 4.60171 0
M  V30 3449 H 341.115 1.89553 0.958293 0
M  V30 3450 H 343.378 0.815979 0.482579 0
M  V30 3451 H 343.084 2.68296 2.27399 0
M  V30 3452 H 342.958 1.4261 3.49202 0
M  V30 3453 H 345.345 0.646057 2.87941 0
M  V30 3454 H 345.426 1.93642 1.67142 0
M  V30 3455 H 345.07 3.6601 3.52135 0
M  V30 3456 H 345 2.34121 4.71694 0
M  V30 3457 H 347.491 2.032 3.18619 0
M  V30 3458 H 347.804 4.66898 6.15814 0
M  V30 3459 H 346.149 4.1934 5.54237 0
M  V30 3460 H 349.34 2.58764 3.90075 0
M  V30 3461 H 349.513 3.78994 5.25612 0
M  V30 3462 N 342.919 -1.39368 0.735821 0
M  V30 3463 C 344.149 -2.04498 0.293967 0
M  V30 3464 C 344.557 -1.55593 -1.07645 0
M  V30 3465 O 343.9 -0.716324 -1.69158 0
M  V30 3466 C 343.962 -3.58836 0.218342 0
M  V30 3467 C 343.626 -4.30721 1.52736 0
M  V30 3468 C 344.623 -4.57305 2.47322 0
M  V30 3469 C 342.308 -4.69251 1.79189 0
M  V30 3470 C 344.302 -5.21429 3.66593 0
M  V30 3471 C 341.989 -5.33104 2.98737 0
M  V30 3472 C 342.987 -5.59125 3.9226 0
M  V30 3473 O 342.675 -6.21653 5.09708 0
M  V30 3474 H 342.407 -0.664118 0.126189 0
M  V30 3475 H 344.961 -1.79385 1.00051 0
M  V30 3476 H 343.191 -3.8285 -0.544314 0
M  V30 3477 H 344.88 -4.05447 -0.191626 0
M  V30 3478 H 345.646 -4.27983 2.28156 0
M  V30 3479 H 341.525 -4.48354 1.07239 0
M  V30 3480 H 345.069 -5.41656 4.39607 0
M  V30 3481 H 340.966 -5.61846 3.17803 0
M  V30 3482 H 341.734 -6.40146 5.10054 0
M  V30 3483 N 344.397 -0.483516 -1.5 0
M  V30 3484 C 345.646 0.0689102 -2.01582 0
M  V30 3485 C 345.959 1.39655 -1.36952 0
M  V30 3486 O 347.165 2.03465 -1.79762 0
M  V30 3487 C 345.621 0.173302 -3.59483 0
M  V30 3488 C 345.229 -1.14665 -4.33077 0
M  V30 3489 C 346.973 0.677024 -4.19066 0
M  V30 3490 C 344.88 -1.00537 -5.82792 0
M  V30 3491 H 343.81 0.0295277 -0.753422 0
M  V30 3492 H 346.461 -0.620295 -1.72698 0
M  V30 3493 H 344.843 0.926569 -3.85007 0
M  V30 3494 H 346.017 -1.91184 -4.19268 0
M  V30 3495 H 344.332 -1.58244 -3.85159 0
M  V30 3496 H 346.929 0.799952 -5.28682 0
M  V30 3497 H 347.272 1.67151 -3.81269 0
M  V30 3498 H 347.805 -0.0192083 -3.97795 0
M  V30 3499 H 344.544 -1.9736 -6.25083 0
M  V30 3500 H 344.064 -0.280776 -5.99142 0
M  V30 3501 H 345.743 -0.677 -6.43448 0
M  V30 3502 N 345.875 1.56104 -0.216619 0
M  V30 3503 C 347.122 1.98172 0.416416 0
M  V30 3504 C 347.45 1.10413 1.60122 0
M  V30 3505 O 346.705 0.147967 1.9514 0
M  V30 3506 C 347.004 3.45923 0.898464 0
M  V30 3507 C 346.67 4.50559 -0.175288 0
M  V30 3508 C 345.332 4.78897 -0.470271 0
M  V30 3509 C 347.684 5.1334 -0.901728 0
M  V30 3510 C 345.012 5.67299 -1.4963 0
M  V30 3511 C 347.364 6.02853 -1.91705 0
M  V30 3512 C 346.028 6.29537 -2.21901 0
M  V30 3513 H 345.298 0.725164 0.152377 0
M  V30 3514 H 347.945 1.88839 -0.318103 0
M  V30 3515 H 346.25 3.52434 1.71165 0
M  V30 3516 H 347.947 3.75841 1.39803 0
M  V30 3517 H 344.537 4.28551 0.0647806 0
M  V30 3518 H 348.721 4.91521 -0.687072 0
M  V30 3519 H 343.977 5.86239 -1.73592 0
M  V30 3520 H 348.151 6.50552 -2.48505 0
M  V30 3521 H 345.778 6.97835 -3.01548 0
M  V30 3522 N 347.353 -0.0568162 1.57498 0
M  V30 3523 C 348.769 -0.411933 1.54192 0
M  V30 3524 C 348.969 -1.78287 0.938942 0
M  V30 3525 O 348.025 -2.46483 0.547919 0
M  V30 3526 C 349.338 -0.339244 2.9878 0
M  V30 3527 C 350.886 -0.418348 3.10192 0
M  V30 3528 C 351.361 -0.375407 4.56459 0
M  V30 3529 N 352.852 -0.435038 4.61153 0
M  V30 3530 C 353.587 -0.424265 5.71828 0
M  V30 3531 N 353.083 -0.367418 6.91825 0
M  V30 3532 N 354.876 -0.471938 5.60115 0
M  V30 3533 H 347.027 0.840684 1.95055 0
M  V30 3534 H 349.29 0.316987 0.893433 0
M  V30 3535 H 348.996 0.601742 3.46514 0
M  V30 3536 H 348.87 -1.14371 3.59443 0
M  V30 3537 H 351.257 -1.34976 2.62422 0
M  V30 3538 H 351.338 0.414962 2.52412 0
M  V30 3539 H 350.982 0.552219 5.04889 0
M  V30 3540 H 350.912 -1.22645 5.12119 0
M  V30 3541 H 353.403 -0.482612 3.74806 0
M  V30 3542 H 353.716 -0.363535 7.71944 0
M  V30 3543 H 352.061 -0.333879 6.94198 0
M  V30 3544 H 355.252 -0.514145 4.65268 0
M  V30 3545 H 355.425 -0.460073 6.46365 0
M  V30 3546 N 348.832 -1.54138 -0.328536 0
M  V30 3547 C 349.779 -1.83176 -1.40411 0
M  V30 3548 C 350.749 -0.678494 -1.5161 0
M  V30 3549 O 351.934 -0.92443 -1.6691 0
M  V30 3550 C 349.074 -2.06035 -2.76846 0
M  V30 3551 C 348.187 -3.33727 -2.74318 0
M  V30 3552 C 347.322 -3.46574 -4.02567 0
M  V30 3553 C 346.361 -4.68159 -3.94327 0
M  V30 3554 N 345.498 -4.77959 -5.14296 0
M  V30 3555 H 350.338 -2.74938 -1.14948 0
M  V30 3556 H 347.875 -1.36166 -0.556538 0
M  V30 3557 H 349.833 -2.1728 -3.56153 0
M  V30 3558 H 348.463 -1.1757 -3.00628 0
M  V30 3559 H 347.515 -3.31246 -1.8703 0
M  V30 3560 H 348.827 -4.23139 -2.64111 0
M  V30 3561 H 347.981 -3.57333 -4.90304 0
M  V30 3562 H 346.72 -2.55245 -4.15574 0
M  V30 3563 H 345.725 -4.57461 -3.04974 0
M  V30 3564 H 346.95 -5.60868 -3.82889 0
M  V30 3565 H 344.896 -3.89544 -5.27818 0
M  V30 3566 H 344.813 -5.6133 -5.06404 0
M  V30 3567 H 346.081 -4.93044 -6.03761 0
M  V30 3568 N 350.31 0.590341 -1.46126 0
M  V30 3569 C 351.273 1.68194 -1.55703 0
M  V30 3570 C 352.273 1.54808 -0.434868 0
M  V30 3571 O 353.463 1.59564 -0.698928 0
M  V30 3572 C 350.595 3.07575 -1.47005 0
M  V30 3573 H 351.788 1.61064 -2.52979 0
M  V30 3574 H 349.341 0.807541 -1.33823 0
M  V30 3575 H 350.076 3.20268 -0.509785 0
M  V30 3576 H 349.861 3.187 -2.28414 0
M  V30 3577 H 351.351 3.87055 -1.56776 0
M  V30 3578 N 351.788 1.33704 0.83433 0
M  V30 3579 C 353.036 1.25169 1.58673 0
M  V30 3580 C 353.357 -0.18127 1.94156 0
M  V30 3581 O 352.627 -1.11113 1.6134 0
M  V30 3582 H 351.207 0.4603 0.58833 0
M  V30 3583 H 353.869 1.67478 0.996847 0
M  V30 3584 H 352.965 1.84856 2.51465 0
M  V30 3585 N 353.266 -1.05314 1.17247 0
M  V30 3586 C 354.176 -2.16538 0.90268 0
M  V30 3587 C 355.192 -1.73523 -0.128707 0
M  V30 3588 O 356.368 -2.01337 0.0502701 0
M  V30 3589 C 353.433 -3.44167 0.418356 0
M  V30 3590 C 352.494 -4.01635 1.51618 0
M  V30 3591 C 351.727 -5.23171 1.05487 0
M  V30 3592 O 351.95 -5.70327 -0.0914715 0
M  V30 3593 O 350.884 -5.72848 1.8474 0
M  V30 3594 H 354.71 -2.42145 1.83302 0
M  V30 3595 H 352.295 -1.15037 0.953246 0
M  V30 3596 H 354.177 -4.21112 0.155726 0
M  V30 3597 H 352.852 -3.20063 -0.48385 0
M  V30 3598 H 351.759 -3.26135 1.83268 0
M  V30 3599 H 353.092 -4.30053 2.39405 0
M  V30 3600 N 354.744 -0.972509 -1.24016 0
M  V30 3601 C 355.677 -0.45117 -2.23696 0
M  V30 3602 C 356.655 0.477378 -1.55434 0
M  V30 3603 O 357.839 0.407647 -1.84039 0
M  V30 3604 C 354.966 0.34818 -3.36906 0
M  V30 3605 C 354.012 -0.523355 -4.23277 0
M  V30 3606 S 354.845 -1.96647 -4.98087 0
M  V30 3607 C 356.001 -1.17604 -6.14752 0
M  V30 3608 H 356.234 -1.29588 -2.67571 0
M  V30 3609 H 353.767 -0.777903 -1.33372 0
M  V30 3610 H 355.725 0.803387 -4.02562 0
M  V30 3611 H 354.386 1.16792 -2.91579 0
M  V30 3612 H 353.579 0.0906181 -5.03919 0
M  V30 3613 H 353.181 -0.914485 -3.62647 0
M  V30 3614 H 355.473 -0.433434 -6.76112 0
M  V30 3615 H 356.416 -1.95701 -6.8052 0
M  V30 3616 H 356.824 -0.698295 -5.60164 0
M  V30 3617 N 356.222 1.38976 -0.743202 0
M  V30 3618 C 357.152 2.33171 -0.123873 0
M  V30 3619 C 358.133 1.54336 0.71516 0
M  V30 3620 O 359.318 1.82696 0.658467 0
M  V30 3621 C 356.448 3.38474 0.777978 0
M  V30 3622 C 355.402 4.27979 0.0424758 0
M  V30 3623 C 354.728 5.2405 1.06189 0
M  V30 3624 C 356.028 5.10155 -1.1198 0
M  V30 3625 H 357.722 2.85213 -0.910709 0
M  V30 3626 H 355.268 1.37133 -0.439388 0
M  V30 3627 H 357.221 4.03328 1.22084 0
M  V30 3628 H 355.945 2.84891 1.59702 0
M  V30 3629 H 354.604 3.64616 -0.380853 0
M  V30 3630 H 354.252 4.66758 1.87472 0
M  V30 3631 H 353.952 5.84785 0.574485 0
M  V30 3632 H 355.476 5.9178 1.50428 0
M  V30 3633 H 356.89 5.68307 -0.75499 0
M  V30 3634 H 355.287 5.80073 -1.53738 0
M  V30 3635 H 356.357 4.44504 -1.93764 0
M  V30 3636 N 357.7 0.491464 1.49741 0
M  V30 3637 C 358.948 -0.0563141 2.02022 0
M  V30 3638 C 359.269 -1.38363 1.37407 0
M  V30 3639 O 358.539 -1.88702 0.526166 0
M  V30 3640 H 357.119 -0.0238014 0.746621 0
M  V30 3641 H 359.781 0.646533 1.83864 0
M  V30 3642 H 358.877 -0.192967 3.11503 0
M  V30 3643 N 359.178 -1.55987 0.224894 0
M  V30 3644 C 360.594 -1.59066 -0.130426 0
M  V30 3645 C 360.794 -1.24176 -1.5869 0
M  V30 3646 O 359.85 -0.978592 -2.32766 0
M  V30 3647 C 361.163 -3.00042 0.198883 0
M  V30 3648 C 362.711 -3.1268 0.141391 0
M  V30 3649 C 363.186 -4.55839 0.444422 0
M  V30 3650 N 364.677 -4.6152 0.394115 0
M  V30 3651 C 365.412 -5.70231 0.602038 0
M  V30 3652 N 364.908 -6.87291 0.871914 0
M  V30 3653 N 366.701 -5.59555 0.534245 0
M  V30 3654 H 358.852 -1.76941 1.17497 0
M  V30 3655 H 361.115 -0.822604 0.471197 0
M  V30 3656 H 360.821 -3.30234 1.2099 0
M  V30 3657 H 360.695 -3.74075 -0.484535 0
M  V30 3658 H 363.082 -2.82283 -0.860265 0
M  V30 3659 H 363.163 -2.40969 0.858335 0
M  V30 3660 H 362.807 -4.86954 1.44353 0
M  V30 3661 H 362.737 -5.2578 -0.293752 0
M  V30 3662 H 365.228 -3.77405 0.193356 0
M  V30 3663 H 365.541 -7.66058 1.01858 0
M  V30 3664 H 363.886 -6.89028 0.909145 0
M  V30 3665 H 367.077 -4.6698 0.323612 0
M  V30 3666 H 367.25 -6.44211 0.699693 0
M  V30 3667 N 360.656 0.0484629 -1.57525 0
M  V30 3668 C 361.606 1.06246 -2.01732 0
M  V30 3669 C 362.59 1.33155 -0.903245 0
M  V30 3670 O 363.782 1.33065 -1.16717 0
M  V30 3671 C 360.911 2.36943 -2.48421 0
M  V30 3672 C 359.997 2.13208 -3.6661 0
M  V30 3673 N 360.388 1.5947 -4.80003 0
M  V30 3674 C 358.686 2.43581 -3.7361 0
M  V30 3675 C 359.387 1.51092 -5.61735 0
M  V30 3676 N 358.363 1.9797 -5.0627 0
M  V30 3677 H 362.165 0.640675 -2.86832 0
M  V30 3678 H 359.679 0.255134 -1.60383 0
M  V30 3679 H 361.676 3.10374 -2.78341 0
M  V30 3680 H 360.336 2.79818 -1.64718 0
M  V30 3681 H 361.347 1.28008 -5.01831 0
M  V30 3682 H 358.024 2.89662 -3.00669 0
M  V30 3683 H 359.414 1.10199 -6.62801 0
M  V30 3684 N 362.134 1.5431 0.320358 0
M  V30 3685 C 363.383 1.7188 1.05546 0
M  V30 3686 C 363.696 0.501143 1.89071 0
M  V30 3687 O 364.902 0.558258 2.65699 0
M  V30 3688 C 363.358 3.04025 1.92605 0
M  V30 3689 C 362.966 4.33207 1.14176 0
M  V30 3690 C 364.71 3.30959 2.65832 0
M  V30 3691 C 362.617 5.56412 2.00399 0
M  V30 3692 H 361.547 0.640547 0.397763 0
M  V30 3693 H 364.198 1.80802 0.313522 0
M  V30 3694 H 362.58 2.89019 2.7071 0
M  V30 3695 H 363.754 4.58989 0.40819 0
M  V30 3696 H 362.069 4.13062 0.526165 0
M  V30 3697 H 364.666 4.20203 3.30656 0
M  V30 3698 H 365.009 2.48979 3.33639 0
M  V30 3699 H 365.542 3.46847 1.94787 0
M  V30 3700 H 362.281 6.41004 1.37094 0
M  V30 3701 H 361.801 5.34844 2.7148 0
M  V30 3702 H 363.48 5.92938 2.58908 0
M  V30 3703 N 363.613 -0.582584 1.46437 0
M  V30 3704 C 364.859 -1.34278 1.51978 0
M  V30 3705 C 365.192 -1.93446 0.170973 0
M  V30 3706 O 364.467 -1.76481 -0.817608 0
M  V30 3707 C 364.75 -2.47203 2.61845 0
M  V30 3708 C 364.603 -1.93069 4.06257 0
M  V30 3709 C 365.922 -3.49247 2.67795 0
M  V30 3710 H 363.041 -0.486876 0.553282 0
M  V30 3711 H 365.683 -0.654437 1.78374 0
M  V30 3712 H 363.833 -3.0592 2.39469 0
M  V30 3713 H 365.505 -1.38808 4.3992 0
M  V30 3714 H 363.748 -1.23898 4.1573 0
M  V30 3715 H 364.419 -2.74586 4.7886 0
M  V30 3716 H 366.895 -3.00411 2.8791 0
M  V30 3717 H 365.771 -4.25719 3.46489 0
M  V30 3718 H 366.032 -4.06482 1.73852 0
M  V30 3719 N 365.091 -1.34144 -0.827227 0
M  V30 3720 C 366.054 -1.25264 -1.91942 0
M  V30 3721 C 367.054 -0.168866 -1.59911 0
M  V30 3722 O 368.244 -0.421198 -1.69031 0
M  V30 3723 C 365.376 -0.932952 -3.27885 0
M  V30 3724 H 366.569 -2.22357 -2.0124 0
M  V30 3725 H 364.122 -1.1837 -1.0207 0
M  V30 3726 H 364.857 0.0349917 -3.24281 0
M  V30 3727 H 364.642 -1.71682 -3.52516 0
M  V30 3728 H 366.132 -0.895874 -4.07877 0
M  V30 3729 N 366.569 1.04691 -1.17803 0
M  V30 3730 C 367.815 1.78045 -0.970969 0
M  V30 3731 C 368.148 1.87686 0.498751 0
M  V30 3732 O 367.423 1.38035 1.37027 0
M  V30 3733 C 367.706 3.2166 -1.61884 0
M  V30 3734 C 367.559 3.20001 -3.161 0
M  V30 3735 C 368.878 4.1962 -1.3269 0
M  V30 3736 H 365.997 0.64633 -0.354155 0
M  V30 3737 H 368.639 1.22333 -1.45378 0
M  V30 3738 H 366.789 3.69232 -1.20831 0
M  V30 3739 H 368.461 2.80467 -3.66246 0
M  V30 3740 H 366.704 2.58203 -3.48588 0
M  V30 3741 H 367.375 4.21386 -3.56564 0
M  V30 3742 H 369.851 3.80567 -1.68249 0
M  V30 3743 H 368.727 5.18339 -1.80599 0
M  V30 3744 H 368.988 4.414 -0.248622 0
M  V30 3745 N 368.047 0.979072 1.23499 0
M  V30 3746 C 368.977 0.537606 2.27227 0
M  V30 3747 C 369.958 -0.428539 1.64613 0
M  V30 3748 O 371.143 -0.322191 1.91509 0
M  V30 3749 C 368.273 -0.162052 3.46922 0
M  V30 3750 C 367.227 0.721242 4.21879 0
M  V30 3751 C 366.553 -0.110555 5.34586 0
M  V30 3752 C 367.853 2.01141 4.82016 0
M  V30 3753 H 369.547 1.40462 2.64406 0
M  V30 3754 H 367.093 0.67684 1.27102 0
M  V30 3755 H 369.046 -0.482192 4.18632 0
M  V30 3756 H 367.77 -1.06351 3.08799 0
M  V30 3757 H 366.429 1.02482 3.51984 0
M  V30 3758 H 366.077 -1.0125 4.92704 0
M  V30 3759 H 365.777 0.477325 5.85658 0
M  V30 3760 H 367.301 -0.425107 6.09118 0
M  V30 3761 H 368.715 1.75612 5.45741 0
M  V30 3762 H 367.112 2.54695 5.43369 0
M  V30 3763 H 368.182 2.69909 4.02836 0
M  V30 3764 N 369.525 -1.3858 0.750561 0
M  V30 3765 C 370.936 -1.82927 0.373438 0
M  V30 3766 C 371.287 -1.62634 -1.09748 0
M  V30 3767 O 370.412 -1.12588 -1.84805 0
M  V30 3768 C 371.007 -3.32088 0.671029 0
M  V30 3769 C 369.566 -3.74795 0.34722 0
M  V30 3770 C 368.713 -2.61391 0.92575 0
M  V30 3771 H 371.664 -1.27351 0.946958 0
M  V30 3772 H 371.685 -3.80465 -0.0518269 0
M  V30 3773 H 371.197 -3.46826 1.74164 0
M  V30 3774 H 369.298 -3.65638 -0.716933 0
M  V30 3775 H 369.411 -4.71667 0.840656 0
M  V30 3776 H 367.775 -2.52265 0.351327 0
M  V30 3777 H 368.558 -2.78929 2.00133 0
M  V30 3778 N 371.003 -0.499398 -1.49478 0
M  V30 3779 C 371.913 0.284489 -2.32869 0
M  V30 3780 C 372.929 0.968885 -1.44529 0
M  V30 3781 O 374.105 0.95062 -1.77553 0
M  V30 3782 C 371.17 1.33594 -3.19928 0
M  V30 3783 C 370.231 0.665149 -4.24116 0
M  V30 3784 C 369.464 1.6665 -5.07014 0
M  V30 3785 O 369.687 2.89618 -4.91404 0
M  V30 3786 O 368.621 1.22271 -5.8935 0
M  V30 3787 H 372.447 -0.39802 -3.01081 0
M  V30 3788 H 370.032 -0.260758 -1.47107 0
M  V30 3789 H 371.914 1.94431 -3.73864 0
M  V30 3790 H 370.589 2.0014 -2.54412 0
M  V30 3791 H 369.496 0.0170769 -3.74096 0
M  V30 3792 H 370.829 0.0421555 -4.92182 0
M  V30 3793 N 372.481 1.55866 -0.233164 0
M  V30 3794 C 373.73 1.97779 0.39579 0
M  V30 3795 C 374.043 1.12419 1.60066 0
M  V30 3796 O 375.249 1.44283 2.29988 0
M  V30 3797 C 373.705 3.5188 0.755556 0
M  V30 3798 C 373.313 4.45959 -0.427152 0
M  V30 3799 C 375.057 4.02479 1.34946 0
M  V30 3800 C 372.964 5.91383 -0.0443043 0
M  V30 3801 H 371.894 0.738592 0.15165 0
M  V30 3802 H 374.545 1.80486 -0.331212 0
M  V30 3803 H 372.927 3.64816 1.5403 0
M  V30 3804 H 374.101 4.44776 -1.20462 0
M  V30 3805 H 372.416 4.05765 -0.935068 0
M  V30 3806 H 375.013 5.08637 1.649 0
M  V30 3807 H 375.356 3.49014 2.26925 0
M  V30 3808 H 375.889 3.92813 0.62791 0
M  V30 3809 H 372.628 6.48857 -0.930874 0
M  V30 3810 H 372.148 5.95734 0.697238 0
M  V30 3811 H 373.827 6.45893 0.378334 0
M  V30 3812 N 373.959 -0.0401083 1.57549 0
M  V30 3813 C 375.236 -0.767917 1.79896 0
M  V30 3814 C 375.616 -1.9416 0.82856 0
M  V30 3815 O 374.964 -2.2812 -0.131671 0
M  V30 3816 C 375.174 -1.2113 3.27305 0
M  V30 3817 C 376.522 -1.63175 3.91994 0
M  V30 3818 O 377.546 -1.30616 3.31388 0
M  V30 3819 O 376.405 -2.23565 4.98679 0
M  V30 3820 H 373.499 -0.370441 0.739393 0
M  V30 3821 H 376.045 -0.017737 1.69691 0
M  V30 3822 H 374.817 -0.372937 3.89519 0
M  V30 3823 H 374.44 -2.02183 3.42356 0
M  V30 3824 N 375.437 -1.54477 -0.31217 0
M  V30 3825 C 376.848 -1.64344 -0.885891 0
M  V30 3826 C 377.199 -0.54485 -1.88483 0
M  V30 3827 O 376.324 0.320387 -2.14015 0
M  V30 3828 C 376.919 -2.97908 -1.61357 0
M  V30 3829 C 375.478 -3.09933 -2.13585 0
M  V30 3830 C 374.625 -2.59971 -0.964897 0
M  V30 3831 H 377.576 -1.58448 -0.0894528 0
M  V30 3832 H 377.597 -2.88706 -2.47848 0
M  V30 3833 H 377.109 -3.77845 -0.886277 0
M  V30 3834 H 375.21 -2.34694 -2.89395 0
M  V30 3835 H 375.323 -4.15916 -2.37804 0
M  V30 3836 H 373.687 -2.16147 -1.34731 0
M  V30 3837 H 374.47 -3.42376 -0.251742 0
M  V30 3838 N 376.915 0.57481 -1.46744 0
M  V30 3839 C 378.161 1.3347 -1.52688 0
M  V30 3840 C 378.494 1.93353 -0.181229 0
M  V30 3841 O 377.769 1.76912 0.808237 0
M  V30 3842 C 378.052 2.45811 -2.63152 0
M  V30 3843 C 377.905 1.90912 -4.07275 0
M  V30 3844 C 379.224 3.47822 -2.69644 0
M  V30 3845 H 376.343 0.483935 -0.555856 0
M  V30 3846 H 378.985 0.644968 -1.78718 0
M  V30 3847 H 377.135 3.04646 -2.41088 0
M  V30 3848 H 378.807 1.36473 -4.4065 0
M  V30 3849 H 377.05 1.21691 -4.16382 0
M  V30 3850 H 377.721 2.72042 -4.80309 0
M  V30 3851 H 380.197 2.9888 -2.895 0
M  V30 3852 H 379.073 4.23876 -3.48742 0
M  V30 3853 H 379.334 4.05555 -1.76005 0
M  V30 3854 N 378.394 1.34581 0.820102 0
M  V30 3855 C 379.324 1.29038 1.94606 0
M  V30 3856 C 380.305 0.1673 1.69275 0
M  V30 3857 O 381.49 0.360112 1.90832 0
M  V30 3858 C 378.62 1.04793 3.31113 0
M  V30 3859 C 377.574 2.13597 3.70891 0
M  V30 3860 C 376.9 1.74537 5.05412 0
M  V30 3861 C 378.2 3.55451 3.8269 0
M  V30 3862 H 379.894 2.23248 1.99501 0
M  V30 3863 H 377.44 1.0747 0.958449 0
M  V30 3864 H 379.393 0.995592 4.0947 0
M  V30 3865 H 378.117 0.0702565 3.26524 0
M  V30 3866 H 376.776 2.17905 2.9481 0
M  V30 3867 H 376.424 0.754226 4.97313 0
M  V30 3868 H 376.124 2.47361 5.32997 0
M  V30 3869 H 377.648 1.70803 5.86224 0
M  V30 3870 H 379.062 3.5354 4.51312 0
M  V30 3871 H 377.459 4.26922 4.21732 0
M  V30 3872 H 378.529 3.92587 2.84611 0
M  V30 3873 N 379.872 -1.04064 1.18357 0
M  V30 3874 C 381.119 -1.77265 0.978947 0
M  V30 3875 C 381.447 -1.88189 -0.491428 0
M  V30 3876 O 380.702 -1.38653 -1.38108 0
M  V30 3877 C 381.001 -3.20634 1.57888 0
M  V30 3878 C 380.667 -3.29743 3.07539 0
M  V30 3879 C 379.329 -3.31937 3.48384 0
M  V30 3880 C 381.681 -3.29841 4.03552 0
M  V30 3881 C 379.009 -3.3187 4.83818 0
M  V30 3882 C 381.361 -3.31313 5.38901 0
M  V30 3883 C 380.025 -3.31799 5.79194 0
M  V30 3884 H 379.295 -0.648659 0.358222 0
M  V30 3885 H 381.942 -1.22225 1.47422 0
M  V30 3886 H 380.247 -3.78675 1.00561 0
M  V30 3887 H 381.944 -3.75917 1.39598 0
M  V30 3888 H 378.534 -3.28757 2.74986 0
M  V30 3889 H 382.718 -3.27337 3.73047 0
M  V30 3890 H 377.974 -3.30562 5.14333 0
M  V30 3891 H 382.148 -3.30338 6.13066 0
M  V30 3892 H 379.775 -3.315 6.84114 0
M  V30 3893 N 381.35 -0.985608 -1.22978 0
M  V30 3894 C 382.282 -0.488154 -2.23941 0
M  V30 3895 C 383.295 0.41282 -1.57479 0
M  V30 3896 O 384.484 0.216121 -1.77187 0
M  V30 3897 C 381.584 0.312611 -3.37455 0
M  V30 3898 C 380.757 -0.582741 -4.33501 0
M  V30 3899 C 379.816 0.165064 -5.25941 0
M  V30 3900 O 378.842 -0.447077 -5.67442 0
M  V30 3901 N 380.044 1.44953 -5.62111 0
M  V30 3902 H 382.809 -1.3563 -2.67254 0
M  V30 3903 H 380.37 -0.859477 -1.37203 0
M  V30 3904 H 382.362 0.821357 -3.96277 0
M  V30 3905 H 380.932 1.0818 -2.93285 0
M  V30 3906 H 380.152 -1.27225 -3.73105 0
M  V30 3907 H 381.44 -1.19275 -4.94622 0
M  V30 3908 H 380.838 1.9683 -5.30353 0
M  V30 3909 H 379.395 1.90361 -6.23383 0
M  V30 3910 N 382.828 1.3818 -0.7579 0
M  V30 3911 C 384.076 1.99624 -0.315361 0
M  V30 3912 C 384.397 1.60464 1.10799 0
M  V30 3913 O 383.667 0.863507 1.75842 0
M  V30 3914 H 382.247 0.73831 -0.113611 0
M  V30 3915 H 384.909 1.68878 -0.972952 0
M  V30 3916 H 384.005 3.09754 -0.381931 0
M  V30 3917 N 384.306 0.507319 1.49211 0
M  V30 3918 C 385.253 -0.267728 2.29242 0
M  V30 3919 C 386.223 -0.954609 1.35928 0
M  V30 3920 O 387.408 -0.960046 1.64887 0
M  V30 3921 C 384.548 -1.32243 3.18756 0
M  V30 3922 C 383.661 -0.64669 4.27132 0
M  V30 3923 C 382.796 -1.68238 5.03855 0
M  V30 3924 C 381.835 -0.98885 6.0406 0
M  V30 3925 N 380.972 -1.96903 6.73924 0
M  V30 3926 H 385.812 0.420968 2.95012 0
M  V30 3927 H 383.349 0.219443 1.45454 0
M  V30 3928 H 385.307 -1.94599 3.69036 0
M  V30 3929 H 383.937 -1.97981 2.54958 0
M  V30 3930 H 382.989 0.0902926 3.80293 0
M  V30 3931 H 384.301 -0.101058 4.98698 0
M  V30 3932 H 383.455 -2.38081 5.58034 0
M  V30 3933 H 382.194 -2.26187 4.32077 0
M  V30 3934 H 381.199 -0.276222 5.49106 0
M  V30 3935 H 382.424 -0.415767 6.77826 0
M  V30 3936 H 380.37 -2.53803 6.04913 0
M  V30 3937 H 380.287 -1.47423 7.41487 0
M  V30 3938 H 381.555 -2.66015 7.32705 0
M  V30 3939 N 385.784 -1.5574 0.241426 0
M  V30 3940 C 387.033 -1.97986 -0.385295 0
M  V30 3941 C 387.346 -1.13267 -1.59468 0
M  V30 3942 O 388.552 -1.45501 -2.2922 0
M  V30 3943 C 387.008 -3.52275 -0.736884 0
M  V30 3944 C 386.616 -4.45726 0.450796 0
M  V30 3945 C 388.36 -4.03189 -1.3281 0
M  V30 3946 C 386.267 -5.91352 0.0756662 0
M  V30 3947 H 385.197 -0.739386 -0.147731 0
M  V30 3948 H 387.848 -1.80308 0.340779 0
M  V30 3949 H 386.23 -3.65628 -1.52094 0
M  V30 3950 H 387.404 -4.44131 1.22819 0
M  V30 3951 H 385.719 -4.05264 0.956573 0
M  V30 3952 H 388.316 -5.09505 -1.62201 0
M  V30 3953 H 388.659 -3.50212 -2.25071 0
M  V30 3954 H 389.192 -3.93141 -0.607069 0
M  V30 3955 H 385.931 -6.48354 0.965272 0
M  V30 3956 H 385.451 -5.96095 -0.665635 0
M  V30 3957 H 387.13 -6.46084 -0.344075 0
M  V30 3958 N 387.262 0.0317525 -1.57568 0
M  V30 3959 C 388.51 0.721676 -1.88776 0
M  V30 3960 C 388.831 1.76039 -0.838772 0
M  V30 3961 O 388.101 1.95482 0.127935 0
M  V30 3962 H 386.681 0.269534 -0.696678 0
M  V30 3963 H 389.343 -0.00165879 -1.949 0
M  V30 3964 H 388.439 1.21293 -2.87566 0
M  V30 3965 N 388.74 1.54641 0.303973 0
M  V30 3966 C 389.67 1.88386 1.3796 0
M  V30 3967 C 390.651 0.742485 1.5304 0
M  V30 3968 O 391.836 0.997959 1.66597 0
M  V30 3969 C 388.966 2.12854 2.74427 0
M  V30 3970 C 387.92 3.28702 2.74115 0
M  V30 3971 C 387.246 3.38582 4.13844 0
M  V30 3972 C 388.546 4.65881 2.3612 0
M  V30 3973 H 390.24 2.78474 1.09966 0
M  V30 3974 H 387.786 1.33988 0.527556 0
M  V30 3975 H 389.739 2.35047 3.49758 0
M  V30 3976 H 388.463 1.19535 3.03939 0
M  V30 3977 H 387.122 3.06428 2.0124 0
M  V30 3978 H 386.77 2.42784 4.40528 0
M  V30 3979 H 386.47 4.16453 4.14537 0
M  V30 3980 H 387.994 3.63031 4.90959 0
M  V30 3981 H 389.408 4.87823 3.01167 0
M  V30 3982 H 387.805 5.46444 2.48031 0
M  V30 3983 H 388.875 4.66799 1.3125 0
M  V30 3984 N 390.218 -0.567019 1.47046 0
M  V30 3985 C 391.629 -1.14916 1.47143 0
M  V30 3986 C 391.98 -1.94954 0.220767 0
M  V30 3987 O 391.105 -2.05602 -0.67505 0
M  V30 3988 C 391.7 -2.09069 2.666 0
M  V30 3989 C 390.259 -2.62575 2.69687 0
M  V30 3990 C 389.406 -1.38755 2.40088 0
M  V30 3991 H 392.357 -0.354126 1.54699 0
M  V30 3992 H 392.378 -2.92789 2.43011 0
M  V30 3993 H 391.89 -1.50789 3.57609 0
M  V30 3994 H 389.991 -3.24681 1.82792 0
M  V30 3995 H 390.104 -3.04239 3.70102 0
M  V30 3996 H 388.468 -1.69098 1.90468 0
M  V30 3997 H 389.251 -0.822822 3.33293 0
M  V30 3998 N 391.696 -1.35014 -0.812953 0
M  V30 3999 C 392.945 -1.27269 -1.56479 0
M  V30 4000 C 393.258 0.152771 -1.95002 0
M  V30 4001 O 394.464 0.352451 -2.69203 0
M  V30 4002 C 392.92 -2.23159 -2.82362 0
M  V30 4003 C 392.528 -3.71016 -2.511 0
M  V30 4004 C 394.272 -2.24342 -3.60376 0
M  V30 4005 C 392.179 -4.58746 -3.73237 0
M  V30 4006 H 391.109 -0.472829 -0.587324 0
M  V30 4007 H 393.76 -1.6024 -0.894171 0
M  V30 4008 H 392.142 -1.83151 -3.51101 0
M  V30 4009 H 393.316 -4.1962 -1.90409 0
M  V30 4010 H 391.631 -3.72378 -1.86343 0
M  V30 4011 H 394.228 -2.87107 -4.51081 0
M  V30 4012 H 394.571 -1.24542 -3.97234 0
M  V30 4013 H 395.104 -2.62846 -2.98591 0
M  V30 4014 H 391.843 -5.59521 -3.41492 0
M  V30 4015 H 391.363 -4.14871 -4.33176 0
M  V30 4016 H 393.042 -4.73852 -4.40537 0
M  V30 4017 N 393.175 1.03435 -1.18907 0
M  V30 4018 C 394.105 2.13503 -0.945448 0
M  V30 4019 C 395.086 1.69682 0.119189 0
M  V30 4020 O 396.271 1.94169 -0.034707 0
M  V30 4021 C 393.401 3.44004 -0.477316 0
M  V30 4022 C 392.355 4.0148 -1.48316 0
M  V30 4023 C 391.681 5.27537 -0.872311 0
M  V30 4024 C 392.981 4.36921 -2.86177 0
M  V30 4025 H 394.675 2.34141 -1.86597 0
M  V30 4026 H 392.221 1.12523 -0.898584 0
M  V30 4027 H 394.174 4.20372 -0.294204 0
M  V30 4028 H 392.898 3.23072 0.478786 0
M  V30 4029 H 391.557 3.27201 -1.65332 0
M  V30 4030 H 391.205 5.02917 0.0911752 0
M  V30 4031 H 390.905 5.66954 -1.54393 0
M  V30 4032 H 392.429 6.06576 -0.699871 0
M  V30 4033 H 393.843 5.04248 -2.72776 0
M  V30 4034 H 392.24 4.87405 -3.50081 0
M  V30 4035 H 393.31 3.46466 -3.39248 0
M  V30 4036 N 394.653 0.992116 1.22453 0
M  V30 4037 C 395.893 0.675727 1.92907 0
M  V30 4038 C 396.257 -0.777762 1.75542 0
M  V30 4039 O 397.458 -1.20553 2.40251 0
M  V30 4040 C 395.729 1.0696 3.4102 0
M  V30 4041 S 397.288 0.871456 4.30059 0
M  V30 4042 H 394.106 0.247089 0.666684 0
M  V30 4043 H 396.708 1.27423 1.48269 0
M  V30 4044 H 395.412 2.12383 3.51172 0
M  V30 4045 H 394.943 0.462858 3.90668 0
M  V30 4046 H 396.958 -0.238436 4.95627 0
M  V30 4047 N 396.131 -1.37776 0.765217 0
M  V30 4048 C 397.377 -2.00145 0.327072 0
M  V30 4049 C 397.71 -1.60607 -1.09175 0
M  V30 4050 O 396.985 -0.849127 -1.74986 0
M  V30 4051 C 397.268 -3.57109 0.46319 0
M  V30 4052 C 397.121 -4.06576 1.92395 0
M  V30 4053 C 398.44 -4.39888 -0.136473 0
M  V30 4054 H 395.559 -0.727113 0.120316 0
M  V30 4055 H 398.201 -1.63549 0.967039 0
M  V30 4056 H 396.351 -3.88414 -0.0816358 0
M  V30 4057 H 398.023 -3.85864 2.52798 0
M  V30 4058 H 396.266 -3.59011 2.43503 0
M  V30 4059 H 396.937 -5.15639 1.97028 0
M  V30 4060 H 399.413 -4.14803 0.328317 0
M  V30 4061 H 398.289 -5.48899 -0.0110582 0
M  V30 4062 H 398.55 -4.24758 -1.22608 0
M  V30 4063 N 397.609 -0.515225 -1.4894 0
M  V30 4064 C 398.857 0.0241671 -2.02086 0
M  V30 4065 C 399.178 1.3616 -1.3959 0
M  V30 4066 O 398.448 1.87841 -0.556121 0
M  V30 4067 H 397.028 0.0119203 -0.746905 0
M  V30 4068 H 399.69 -0.675702 -1.82812 0
M  V30 4069 H 398.786 0.143385 -3.1177 0
M  V30 4070 N 399.087 1.5561 -0.249682 0
M  V30 4071 C 400.312 2.03865 0.381305 0
M  V30 4072 C 400.737 1.12769 1.50548 0
M  V30 4073 O 400.095 0.121189 1.80895 0
M  V30 4074 C 400.143 3.50101 0.863816 0
M  V30 4075 O 399.247 3.62132 1.97318 0
M  V30 4076 H 398.588 0.658827 0.0827194 0
M  V30 4077 H 401.118 2.01105 -0.376552 0
M  V30 4078 H 401.128 3.90975 1.1663 0
M  V30 4079 H 399.803 4.1588 0.0411816 0
M  V30 4080 H 398.38 3.33155 1.67517 0
M  V30 4081 N 400.565 -0.0233959 1.57583 0
M  V30 4082 C 401.811 -0.714119 1.89811 0
M  V30 4083 C 402.144 -1.74702 0.848113 0
M  V30 4084 O 401.419 -1.94023 -0.136135 0
M  V30 4085 C 401.702 -1.37853 3.32669 0
M  V30 4086 C 401.555 -0.358764 4.48367 0
M  V30 4087 C 402.874 -2.31101 3.7454 0
M  V30 4088 H 399.993 -0.25814 0.690314 0
M  V30 4089 H 402.635 0.0230927 1.89986 0
M  V30 4090 H 400.785 -2.00689 3.3265 0
M  V30 4091 H 402.457 0.268115 4.6052 0
M  V30 4092 H 400.7 0.321387 4.32608 0
M  V30 4093 H 401.371 -0.862242 5.45224 0
M  V30 4094 H 403.847 -1.78304 3.75961 0
M  V30 4095 H 402.723 -2.74567 4.75294 0
M  V30 4096 H 402.984 -3.18018 3.0711 0
M  V30 4097 N 402.043 -1.548 -0.295768 0
M  V30 4098 C 403.289 -1.75517 -1.02789 0
M  V30 4099 C 403.644 -0.537266 -1.84746 0
M  V30 4100 O 402.937 0.470299 -1.85738 0
M  V30 4101 C 403.131 -2.98797 -1.961 0
M  V30 4102 C 402.96 -4.3246 -1.23321 0
M  V30 4103 C 401.73 -4.96131 -0.95822 0
M  V30 4104 C 403.928 -5.10365 -0.635024 0
M  V30 4105 N 401.91 -6.1357 -0.201257 0
M  V30 4106 C 403.281 -6.19999 -0.0110937 0
M  V30 4107 C 405.336 -4.94957 -0.540594 0
M  V30 4108 C 404.039 -7.15904 0.698136 0
M  V30 4109 C 406.065 -5.91197 0.154992 0
M  V30 4110 C 405.427 -7.00203 0.767752 0
M  V30 4111 H 401.526 -0.694786 -0.358882 0
M  V30 4112 H 404.11 -1.92281 -0.305943 0
M  V30 4113 H 402.281 -2.83448 -2.6554 0
M  V30 4114 H 404.013 -3.08017 -2.62502 0
M  V30 4115 H 400.768 -4.56595 -1.25771 0
M  V30 4116 H 401.192 -6.76802 0.16389 0
M  V30 4117 H 405.834 -4.10803 -1.00003 0
M  V30 4118 H 403.552 -7.99595 1.16933 0
M  V30 4119 H 407.138 -5.81353 0.228069 0
M  V30 4120 H 406.018 -7.73393 1.29743 0
M  V30 4121 N 403.521 0.559213 -1.47345 0
M  V30 4122 C 404.468 1.66645 -1.59682 0
M  V30 4123 C 405.438 1.60168 -0.43994 0
M  V30 4124 O 406.623 1.79031 -0.659736 0
M  V30 4125 C 403.763 3.04969 -1.61518 0
M  V30 4126 C 402.876 3.21897 -2.88108 0
M  V30 4127 C 402.011 4.50608 -2.81294 0
M  V30 4128 C 401.05 4.60961 -4.02717 0
M  V30 4129 N 400.187 5.81024 -3.94151 0
M  V30 4130 H 405.027 1.55439 -2.54249 0
M  V30 4131 H 402.564 0.757219 -1.26113 0
M  V30 4132 H 404.522 3.85064 -1.60566 0
M  V30 4133 H 403.152 3.15015 -0.704645 0
M  V30 4134 H 402.204 2.35248 -2.98936 0
M  V30 4135 H 403.516 3.25412 -3.78032 0
M  V30 4136 H 402.67 5.3896 -2.7858 0
M  V30 4137 H 401.409 4.49568 -1.89049 0
M  V30 4138 H 400.414 3.71021 -4.05738 0
M  V30 4139 H 401.639 4.63761 -4.96087 0
M  V30 4140 H 399.585 5.80938 -3.04708 0
M  V30 4141 H 399.502 5.85909 -4.77752 0
M  V30 4142 H 400.77 6.71744 -3.9545 0
M  V30 4143 N 404.999 1.35443 0.805782 0
M  V30 4144 C 406.224 1.32037 1.59941 0
M  V30 4145 C 406.649 -0.0994215 1.87837 0
M  V30 4146 O 406.007 -1.06648 1.46615 0
M  V30 4147 C 406.055 2.13354 2.90711 0
M  V30 4148 O 405.159 1.5148 3.83572 0
M  V30 4149 H 404.5 0.452666 0.485787 0
M  V30 4150 H 407.03 1.78496 1.00002 0
M  V30 4151 H 407.04 2.25338 3.40128 0
M  V30 4152 H 405.715 3.16572 2.69732 0
M  V30 4153 H 404.292 1.4834 3.42125 0
M  V30 4154 N 406.477 -1.02803 1.19454 0
M  V30 4155 C 407.723 -1.76598 1.0092 0
M  V30 4156 C 408.078 -1.86939 -0.455142 0
M  V30 4157 O 407.371 -1.37575 -1.33355 0
M  V30 4158 C 407.565 -3.18941 1.6128 0
M  V30 4159 C 407.394 -3.22476 3.13431 0
M  V30 4160 C 406.164 -3.30375 3.82336 0
M  V30 4161 C 408.362 -3.09451 4.10785 0
M  V30 4162 N 406.344 -3.23292 5.21877 0
M  V30 4163 C 407.715 -3.10012 5.36929 0
M  V30 4164 C 409.77 -2.93585 4.02135 0
M  V30 4165 C 408.473 -2.96334 6.55423 0
M  V30 4166 C 410.499 -2.81256 5.20239 0
M  V30 4167 C 409.861 -2.82472 6.45282 0
M  V30 4168 H 405.96 -0.657447 0.423424 0
M  V30 4169 H 408.544 -1.22369 1.5144 0
M  V30 4170 H 406.715 -3.71489 1.1336 0
M  V30 4171 H 408.447 -3.81102 1.36173 0
M  V30 4172 H 405.202 -3.3663 3.33132 0
M  V30 4173 H 405.626 -3.23156 5.94894 0
M  V30 4174 H 410.268 -2.91466 3.0628 0
M  V30 4175 H 407.986 -2.97203 7.51463 0
M  V30 4176 H 411.572 -2.70014 5.15348 0
M  V30 4177 H 410.452 -2.73036 7.35133 0
M  V30 4178 N 407.956 -0.998596 -1.21925 0
M  V30 4179 C 408.866 -0.562736 -2.27751 0
M  V30 4180 C 409.882 0.391203 -1.69545 0
M  V30 4181 O 411.058 0.256625 -1.99758 0
M  V30 4182 C 408.123 0.11012 -3.46525 0
M  V30 4183 C 407.184 -0.887495 -4.20026 0
M  V30 4184 C 406.417 -0.246654 -5.3313 0
M  V30 4185 O 406.64 0.958088 -5.62296 0
M  V30 4186 O 405.574 -0.954374 -5.94286 0
M  V30 4187 H 409.4 -1.44329 -2.67213 0
M  V30 4188 H 406.985 -0.767135 -1.28201 0
M  V30 4189 H 408.867 0.486756 -4.18579 0
M  V30 4190 H 407.542 0.965154 -3.08976 0
M  V30 4191 H 406.449 -1.31517 -3.5022 0
M  V30 4192 H 407.782 -1.71191 -4.6147 0
M  V30 4193 N 409.434 1.37368 -0.772513 0
M  V30 4194 C 410.364 2.32856 -0.173304 0
M  V30 4195 C 411.345 1.55818 0.682262 0
M  V30 4196 O 412.53 1.84052 0.619566 0
M  V30 4197 C 409.66 3.40048 0.706007 0
M  V30 4198 C 408.614 4.27973 -0.0483144 0
M  V30 4199 C 407.94 5.26184 0.950491 0
M  V30 4200 C 409.24 5.07665 -1.22776 0
M  V30 4201 H 410.934 2.83217 -0.971002 0
M  V30 4202 H 408.48 1.3617 -0.468377 0
M  V30 4203 H 410.433 4.05827 1.13501 0
M  V30 4204 H 409.157 2.88214 1.53623 0
M  V30 4205 H 407.816 3.63726 -0.458107 0
M  V30 4206 H 407.464 4.7063 1.77529 0
M  V30 4207 H 407.164 5.85872 0.450314 0
M  V30 4208 H 408.688 5.94838 1.37842 0
M  V30 4209 H 410.102 5.66578 -0.875366 0
M  V30 4210 H 408.499 5.76681 -1.66007 0
M  V30 4211 H 409.569 4.40294 -2.03149 0
M  V30 4212 N 410.912 0.523116 1.48665 0
M  V30 4213 C 411.842 -0.23231 2.32342 0
M  V30 4214 C 412.823 -0.941637 1.41659 0
M  V30 4215 O 414.008 -0.928751 1.70552 0
M  V30 4216 C 411.138 -1.28387 3.22698 0
M  V30 4217 C 410.092 -0.693098 4.22351 0
M  V30 4218 C 409.418 -1.8468 5.01794 0
M  V30 4219 C 410.718 0.33063 5.21252 0
M  V30 4220 H 412.412 0.466192 2.95748 0
M  V30 4221 H 409.958 0.225643 1.42221 0
M  V30 4222 H 411.911 -1.82024 3.80059 0
M  V30 4223 H 410.635 -2.01186 2.57278 0
M  V30 4224 H 409.294 -0.178299 3.66166 0
M  V30 4225 H 408.942 -2.56301 4.32804 0
M  V30 4226 H 408.642 -1.45747 5.69238 0
M  V30 4227 H 410.166 -2.38709 5.62006 0
M  V30 4228 H 411.58 -0.118407 5.73178 0
M  V30 4229 H 409.977 0.636974 5.9671 0
M  V30 4230 H 411.047 1.23883 4.68808 0
M  V30 4231 N 412.39 -1.55475 0.257931 0
M  V30 4232 C 413.337 -2.21837 -0.636939 0
M  V30 4233 C 414.307 -1.18596 -1.16294 0
M  V30 4234 O 415.492 -1.47081 -1.21539 0
M  V30 4235 C 412.632 -2.9301 -1.82317 0
M  V30 4236 C 411.745 -4.10931 -1.33265 0
M  V30 4237 C 410.88 -4.69791 -2.47931 0
M  V30 4238 C 409.919 -5.7994 -1.95796 0
M  V30 4239 N 409.056 -6.32935 -3.0387 0
M  V30 4240 H 413.896 -2.9793 -0.0643591 0
M  V30 4241 H 411.433 -1.47086 -0.0200031 0
M  V30 4242 H 413.391 -3.3248 -2.52018 0
M  V30 4243 H 412.021 -2.1937 -2.36805 0
M  V30 4244 H 411.073 -3.76699 -0.52931 0
M  V30 4245 H 412.385 -4.90417 -0.910654 0
M  V30 4246 H 411.539 -5.11892 -3.25656 0
M  V30 4247 H 410.278 -3.89545 -2.93438 0
M  V30 4248 H 409.283 -5.37305 -1.16546 0
M  V30 4249 H 410.508 -6.62043 -1.51246 0
M  V30 4250 H 408.454 -5.55591 -3.48791 0
M  V30 4251 H 408.371 -7.07645 -2.66035 0
M  V30 4252 H 409.639 -6.79695 -3.81621 0
M  V30 4253 N 413.868 0.0150385 -1.57593 0
M  V30 4254 C 414.778 1.02791 -2.10882 0
M  V30 4255 C 415.794 1.38702 -1.0506 0
M  V30 4256 O 416.97 1.47739 -1.36877 0
M  V30 4257 C 414.035 2.30568 -2.58919 0
M  V30 4258 C 413.096 2.01108 -3.79281 0
M  V30 4259 C 412.329 3.22794 -4.25018 0
M  V30 4260 O 412.552 4.33959 -3.70183 0
M  V30 4261 O 411.486 3.07672 -5.17322 0
M  V30 4262 H 415.312 0.604973 -2.97613 0
M  V30 4263 H 412.897 0.23292 -1.47573 0
M  V30 4264 H 414.779 3.05662 -2.90084 0
M  V30 4265 H 413.454 2.72129 -1.75293 0
M  V30 4266 H 412.361 1.23537 -3.53114 0
M  V30 4267 H 413.694 1.64394 -4.63935 0
M  V30 4268 N 415.346 1.54954 0.287554 0
M  V30 4269 C 416.594 1.74528 1.01904 0
M  V30 4270 C 416.915 0.541349 1.87335 0
M  V30 4271 O 416.185 -0.444108 1.908 0
M  V30 4272 H 414.765 0.643576 0.379235 0
M  V30 4273 H 417.427 1.92333 0.315294 0
M  V30 4274 H 416.523 2.64015 1.6644 0
M  V30 4275 N 416.824 -0.551391 1.4764 0
M  V30 4276 C 418.071 -1.3083 1.54563 0
M  V30 4277 C 418.399 -1.93359 0.210361 0
M  V30 4278 O 417.654 -1.78721 -0.797332 0
M  V30 4279 C 417.953 -2.43469 2.61644 0
M  V30 4280 C 417.619 -1.98732 4.04742 0
M  V30 4281 C 416.281 -1.86248 4.43695 0
M  V30 4282 C 418.633 -1.64659 4.94507 0
M  V30 4283 C 415.961 -1.37995 5.70241 0
M  V30 4284 C 418.313 -1.17875 6.21521 0
M  V30 4285 C 416.977 -1.03992 6.5935 0
M  V30 4286 H 416.247 -0.478741 0.565587 0
M  V30 4287 H 418.894 -0.617697 1.81264 0
M  V30 4288 H 417.199 -3.18109 2.28722 0
M  V30 4289 H 418.896 -3.01642 2.64222 0
M  V30 4290 H 415.486 -2.09393 3.73968 0
M  V30 4291 H 419.67 -1.73174 4.65107 0
M  V30 4292 H 414.926 -1.25915 5.98294 0
M  V30 4293 H 419.1 -0.905739 6.90485 0
M  V30 4294 H 416.727 -0.663794 7.57296 0
M  V30 4295 N 418.302 -1.35869 -0.798587 0
M  V30 4296 C 419.232 -1.32118 -1.92528 0
M  V30 4297 C 420.213 -0.194209 -1.68988 0
M  V30 4298 O 421.398 -0.390426 -1.90235 0
M  V30 4299 C 418.528 -1.10047 -3.29404 0
M  V30 4300 C 417.482 -2.19471 -3.67446 0
M  V30 4301 C 416.808 -1.82555 -5.02571 0
M  V30 4302 C 418.108 -3.61495 -3.76987 0
M  V30 4303 H 419.802 -2.26394 -1.95924 0
M  V30 4304 H 417.348 -1.08981 -0.94123 0
M  V30 4305 H 419.301 -1.06061 -4.07835 0
M  V30 4306 H 418.025 -0.122195 -3.26371 0
M  V30 4307 H 416.684 -2.22568 -2.91306 0
M  V30 4308 H 416.332 -0.833249 -4.9605 0
M  V30 4309 H 416.032 -2.5581 -5.28995 0
M  V30 4310 H 417.556 -1.80108 -5.83432 0
M  V30 4311 H 418.97 -3.60676 -4.4563 0
M  V30 4312 H 417.367 -4.33577 -4.14887 0
M  V30 4313 H 418.437 -3.97065 -2.78329 0
M  V30 4314 N 419.78 1.02168 -1.19998 0
M  V30 4315 C 420.71 2.12488 -0.96804 0
M  V30 4316 C 421.691 1.69799 0.101185 0
M  V30 4317 O 422.876 1.94121 -0.0552993 0
M  V30 4318 C 420.006 3.43479 -0.513776 0
M  V30 4319 C 418.96 3.99884 -1.52566 0
M  V30 4320 C 418.286 5.26582 -0.928214 0
M  V30 4321 C 419.586 4.33861 -2.90795 0
M  V30 4322 H 421.28 2.32149 -1.89069 0
M  V30 4323 H 418.826 1.11564 -0.910468 0
M  V30 4324 H 420.779 4.20036 -0.338774 0
M  V30 4325 H 419.503 3.23561 0.444493 0
M  V30 4326 H 418.162 3.25429 -1.68794 0
M  V30 4327 H 417.81 5.02986 0.0378289 0
M  V30 4328 H 417.51 5.65284 -1.60397 0
M  V30 4329 H 419.034 6.05799 -0.764167 0
M  V30 4330 H 420.448 5.01327 -2.78109 0
M  V30 4331 H 418.845 4.83664 -3.55231 0
M  V30 4332 H 419.915 3.42848 -3.42904 0
M  V30 4333 N 421.258 1.00505 1.21394 0
M  V30 4334 C 422.221 0.570459 2.21987 0
M  V30 4335 C 423.221 -0.353211 1.56873 0
M  V30 4336 O 424.411 -0.14349 1.73608 0
M  V30 4337 C 421.543 -0.168555 3.40483 0
M  V30 4338 H 422.736 1.46021 2.6195 0
M  V30 4339 H 420.289 0.793565 1.34656 0
M  V30 4340 H 421.024 -1.07374 3.06009 0
M  V30 4341 H 420.809 0.494823 3.88965 0
M  V30 4342 H 422.299 -0.460362 4.15055 0
M  V30 4343 N 422.737 -1.36956 0.779787 0
M  V30 4344 C 423.667 -2.32761 0.185651 0
M  V30 4345 C 424.648 -1.56177 -0.673989 0
M  V30 4346 O 425.833 -1.84378 -0.609797 0
M  V30 4347 C 422.963 -3.40418 -0.687964 0
M  V30 4348 C 421.917 -4.27941 0.0710102 0
M  V30 4349 C 421.243 -5.26681 -0.922573 0
M  V30 4350 C 422.543 -5.07006 1.25467 0
M  V30 4351 H 424.237 -2.82698 0.986008 0
M  V30 4352 H 421.783 -1.3592 0.475592 0
M  V30 4353 H 423.736 -4.06423 -1.11348 0
M  V30 4354 H 422.46 -2.89025 -1.52093 0
M  V30 4355 H 421.119 -3.63478 0.47739 0
M  V30 4356 H 420.767 -4.71565 -1.7503 0
M  V30 4357 H 420.467 -5.86103 -0.419237 0
M  V30 4358 H 421.991 -5.9556 -1.34686 0
M  V30 4359 H 423.405 -5.66105 0.905401 0
M  V30 4360 H 421.802 -5.75793 1.69063 0
M  V30 4361 H 422.872 -4.3921 2.05481 0
M  V30 4362 N 424.215 -0.530993 -1.48385 0
M  V30 4363 C 425.443 -0.00134122 -2.069 0
M  V30 4364 C 425.858 1.2805 -1.3874 0
M  V30 4365 O 425.215 1.76204 -0.475244 0
M  V30 4366 C 425.266 0.225256 -3.60798 0
M  V30 4367 O 424.987 -1.0058 -4.26398 0
M  V30 4368 C 426.488 0.795172 -4.3611 0
M  V30 4369 H 423.708 -0.0339704 -0.67014 0
M  V30 4370 H 426.252 -0.736926 -1.90761 0
M  V30 4371 H 424.407 0.910891 -3.76539 0
M  V30 4372 H 424.821 -0.787165 -5.1856 0
M  V30 4373 H 426.295 0.903143 -5.44562 0
M  V30 4374 H 426.772 1.80031 -4.00606 0
M  V30 4375 H 427.378 0.146069 -4.25049 0
M  V30 4376 N 425.693 1.55336 -0.266172 0
M  V30 4377 C 426.625 2.19544 0.658247 0
M  V30 4378 C 427.638 1.17746 1.12427 0
M  V30 4379 O 428.827 1.44517 1.04772 0
M  V30 4380 C 425.927 2.80032 1.9088 0
M  V30 4381 C 425.1 4.07436 1.59106 0
M  V30 4382 C 424.159 4.52056 2.69317 0
M  V30 4383 O 423.185 5.18023 2.35883 0
M  V30 4384 N 424.387 4.21448 3.99201 0
M  V30 4385 H 427.152 2.99503 0.108754 0
M  V30 4386 H 424.713 1.61667 -0.0869059 0
M  V30 4387 H 426.705 3.06831 2.63888 0
M  V30 4388 H 425.275 2.04119 2.36758 0
M  V30 4389 H 424.495 3.88021 0.695243 0
M  V30 4390 H 425.783 4.90462 1.35367 0
M  V30 4391 H 425.181 3.68528 4.29189 0
M  V30 4392 H 423.738 4.53039 4.68614 0
M  V30 4393 N 427.171 -0.0066808 1.57599 0
M  V30 4394 C 428.419 -0.691552 1.899 0
M  V30 4395 C 428.74 -1.74682 0.866672 0
M  V30 4396 O 428.01 -1.95661 -0.0968189 0
M  V30 4397 H 426.59 -0.258416 0.700878 0
M  V30 4398 H 429.252 0.0326655 1.94873 0
M  V30 4399 H 428.348 -1.16702 2.8946 0
M  V30 4400 N 428.649 -1.55105 -0.279332 0
M  V30 4401 C 430.065 -1.46803 -0.626187 0
M  V30 4402 C 430.265 -0.676939 -1.89789 0
M  V30 4403 O 429.321 -0.19326 -2.51759 0
M  V30 4404 C 430.634 -2.90962 -0.759034 0
M  V30 4405 C 432.182 -3.01138 -0.853504 0
M  V30 4406 C 432.657 -4.46539 -1.01818 0
M  V30 4407 N 434.148 -4.50341 -1.08386 0
M  V30 4408 C 434.883 -5.60053 -1.22996 0
M  V30 4409 N 434.379 -6.79645 -1.34366 0
M  V30 4410 N 436.172 -5.47783 -1.26056 0
M  V30 4411 H 428.323 -2.04996 0.555921 0
M  V30 4412 H 430.586 -0.929325 0.187239 0
M  V30 4413 H 430.292 -3.51544 0.104852 0
M  V30 4414 H 430.166 -3.39619 -1.64131 0
M  V30 4415 H 432.553 -2.40658 -1.70786 0
M  V30 4416 H 432.634 -2.55745 0.0532466 0
M  V30 4417 H 432.278 -5.0762 -0.168504 0
M  V30 4418 H 432.208 -4.89583 -1.93948 0
M  V30 4419 H 434.699 -3.64191 -1.00864 0
M  V30 4420 H 435.012 -7.59012 -1.4533 0
M  V30 4421 H 433.357 -6.82469 -1.31382 0
M  V30 4422 H 436.548 -4.53294 -1.168 0
M  V30 4423 H 436.721 -6.33331 -1.37098 0
M  V30 4424 N 430.127 0.543554 -1.4793 0
M  V30 4425 C 431.037 1.67657 -1.64098 0
M  V30 4426 C 432.053 1.65934 -0.523622 0
M  V30 4427 O 433.229 1.85133 -0.792943 0
M  V30 4428 C 430.294 3.04146 -1.66421 0
M  V30 4429 C 429.355 3.16831 -2.89684 0
M  V30 4430 C 428.588 4.46809 -2.91886 0
M  V30 4431 O 428.811 5.33095 -2.02895 0
M  V30 4432 O 427.745 4.63573 -3.83906 0
M  V30 4433 H 431.571 1.56957 -2.59997 0
M  V30 4434 H 429.156 0.715116 -1.31173 0
M  V30 4435 H 431.038 3.85346 -1.70548 0
M  V30 4436 H 429.713 3.152 -0.736923 0
M  V30 4437 H 428.62 2.34977 -2.91095 0
M  V30 4438 H 429.953 3.10687 -3.81752 0
M  V30 4439 N 431.605 1.3629 0.791371 0
M  V30 4440 C 432.854 1.29742 1.54434 0
M  V30 4441 C 433.167 -0.121729 1.95221 0
M  V30 4442 O 434.373 -0.309579 2.69729 0
M  V30 4443 C 432.829 2.27623 2.78776 0
M  V30 4444 C 432.437 3.74963 2.45166 0
M  V30 4445 C 434.181 2.30047 3.56761 0
M  V30 4446 C 432.088 4.64626 3.65891 0
M  V30 4447 H 431.018 0.482113 0.579727 0
M  V30 4448 H 433.669 1.61642 0.868565 0
M  V30 4449 H 432.051 1.88714 3.48142 0
M  V30 4450 H 433.225 4.22596 1.83709 0
M  V30 4451 H 431.54 3.75295 1.80396 0
M  V30 4452 H 434.137 2.94247 4.46456 0
M  V30 4453 H 434.48 1.30846 3.95203 0
M  V30 4454 H 435.013 2.67563 2.94372 0
M  V30 4455 H 431.752 5.64883 3.32547 0
M  V30 4456 H 431.272 4.2171 4.26521 0
M  V30 4457 H 432.951 4.80801 4.32943 0
M  V30 4458 N 433.083 -1.0153 1.20538 0
M  V30 4459 C 434.015 -2.10224 0.913155 0
M  V30 4460 C 435.028 -1.62495 -0.0995998 0
M  V30 4461 O 436.217 -1.78014 0.131582 0
M  V30 4462 C 433.317 -3.37111 0.347717 0
M  V30 4463 C 432.49 -4.13971 1.41233 0
M  V30 4464 C 431.549 -5.19158 0.857976 0
M  V30 4465 O 430.575 -5.48 1.53897 0
M  V30 4466 N 431.777 -5.7955 -0.331966 0
M  V30 4467 H 434.542 -2.35879 1.84881 0
M  V30 4468 H 432.103 -1.17931 1.10923 0
M  V30 4469 H 434.095 -4.04683 -0.0373026 0
M  V30 4470 H 432.665 -3.08696 -0.492527 0
M  V30 4471 H 431.885 -3.41351 1.97163 0
M  V30 4472 H 433.173 -4.62103 2.12928 0
M  V30 4473 H 432.571 -5.58455 -0.902478 0
M  V30 4474 H 431.128 -6.48464 -0.65861 0
M  V30 4475 N 434.561 -1.01147 -1.20859 0
M  V30 4476 C 435.524 -0.582224 -2.21682 0
M  V30 4477 C 436.524 0.344887 -1.57058 0
M  V30 4478 O 437.714 0.134281 -1.73682 0
M  V30 4479 C 434.846 0.150496 -3.40568 0
M  V30 4480 H 436.039 -1.47408 -2.61172 0
M  V30 4481 H 433.592 -0.800695 -1.34233 0
M  V30 4482 H 434.327 1.0575 -3.06574 0
M  V30 4483 H 434.112 -0.515444 -3.88697 0
M  V30 4484 H 435.602 0.438344 -4.15293 0
M  V30 4485 N 436.039 1.36541 -0.78704 0
M  V30 4486 C 436.971 2.28761 -0.141773 0
M  V30 4487 C 437.984 1.49365 0.647599 0
M  V30 4488 O 439.173 1.71836 0.483173 0
M  V30 4489 C 436.273 3.28771 0.822368 0
M  V30 4490 C 435.446 4.3732 0.0835594 0
M  V30 4491 C 434.505 5.17307 0.963296 0
M  V30 4492 O 433.531 5.67638 0.421419 0
M  V30 4493 N 434.733 5.33515 2.28784 0
M  V30 4494 H 437.498 2.84777 -0.933919 0
M  V30 4495 H 435.059 1.48682 -0.640735 0
M  V30 4496 H 437.051 3.79169 1.41468 0
M  V30 4497 H 435.621 2.73412 1.5154 0
M  V30 4498 H 434.841 3.88118 -0.689809 0
M  V30 4499 H 436.129 5.0701 -0.426358 0
M  V30 4500 H 435.527 4.94234 2.75226 0
M  V30 4501 H 434.084 5.87165 2.82985 0
M  V30 4502 N 437.518 0.538854 1.48102 0
M  V30 4503 C 438.466 -0.232325 2.31437 0
M  V30 4504 C 439.46 -0.927004 1.41785 0
M  V30 4505 O 440.666 -0.850378 1.58646 0
M  V30 4506 H 437.041 -0.0937916 0.746128 0
M  V30 4507 H 439.012 0.489986 2.9435 0
M  V30 4508 C 437.761 -1.26074 3.24038 0
M  V30 4509 H 437.084 -0.735609 3.92974 0
M  V30 4510 H 438.524 -1.77157 3.85216 0
M  V30 4511 C 436.983 -2.29902 2.46265 0
M  V30 4512 O 437.513 -3.36502 2.19384 0
M  V30 4513 N 435.719 -2.03348 2.07601 0
M  V30 4514 H 435.266 -1.16675 2.29662 0
M  V30 4515 H 435.224 -2.73038 1.55877 0
M  V30 4516 N 438.996 -1.55193 0.274407 0
M  V30 4517 C 440.243 -1.99581 -0.342579 0
M  V30 4518 C 440.571 -1.1628 -1.55914 0
M  V30 4519 O 439.826 -0.22029 -1.94456 0
M  V30 4520 C 440.125 -3.49019 -0.769458 0
M  V30 4521 C 439.791 -4.49598 0.342389 0
M  V30 4522 C 438.453 -4.76821 0.647686 0
M  V30 4523 C 440.805 -5.0964 1.09163 0
M  V30 4524 C 438.133 -5.61354 1.70581 0
M  V30 4525 C 440.485 -5.95323 2.13948 0
M  V30 4526 C 439.149 -6.20867 2.45113 0
M  V30 4527 H 438.419 -0.730319 -0.125358 0
M  V30 4528 H 441.066 -1.87529 0.387971 0
M  V30 4529 H 439.371 -3.58544 -1.57967 0
M  V30 4530 H 441.068 -3.8077 -1.25757 0
M  V30 4531 H 437.658 -4.28496 0.094318 0
M  V30 4532 H 441.842 -4.88632 0.869024 0
M  V30 4533 H 437.098 -5.79392 1.9523 0
M  V30 4534 H 441.272 -6.40881 2.72478 0
M  V30 4535 H 438.899 -6.86162 3.27239 0
M  V30 4536 N 440.474 -0.00167713 -1.576 0
M  V30 4537 C 441.721 0.68282 -1.90641 0
M  V30 4538 C 442.049 1.73686 -0.875415 0
M  V30 4539 O 441.304 1.95334 0.119575 0
M  V30 4540 C 441.603 1.36189 -3.30435 0
M  V30 4541 C 441.269 0.440887 -4.48739 0
M  V30 4542 C 439.931 0.187312 -4.80835 0
M  V30 4543 C 442.283 -0.193134 -5.20842 0
M  V30 4544 C 439.611 -0.70855 -5.82406 0
M  V30 4545 C 441.963 -1.07688 -6.23367 0
M  V30 4546 C 440.627 -1.33962 -6.53919 0
M  V30 4547 H 439.897 0.249862 -0.697603 0
M  V30 4548 H 442.544 -0.0575642 -1.91413 0
M  V30 4549 H 440.849 2.17636 -3.25794 0
M  V30 4550 H 442.546 1.89759 -3.5326 0
M  V30 4551 H 439.136 0.648694 -4.23663 0
M  V30 4552 H 443.32 -0.0102445 -4.96299 0
M  V30 4553 H 438.576 -0.920097 -6.04437 0
M  V30 4554 H 442.75 -1.57451 -6.78367 0
M  V30 4555 H 440.377 -2.03549 -7.32442 0
M  V30 4556 N 441.952 1.55251 0.271103 0
M  V30 4557 C 443.177 1.80306 1.02491 0
M  V30 4558 C 443.602 0.575457 1.79081 0
M  V30 4559 O 442.96 -0.474987 1.74967 0
M  V30 4560 C 443.008 3.02832 1.95768 0
M  V30 4561 O 442.112 2.78051 3.04568 0
M  V30 4562 H 441.453 0.595896 0.292923 0
M  V30 4563 H 443.983 2.02397 0.299436 0
M  V30 4564 H 443.993 3.31616 2.37686 0
M  V30 4565 H 442.668 3.9183 1.39434 0
M  V30 4566 H 441.245 2.60369 2.66951 0
M  V30 4567 N 443.43 -0.535701 1.48216 0
M  V30 4568 C 444.655 -1.32149 1.59848 0
M  V30 4569 C 445.08 -1.86338 0.256842 0
M  V30 4570 O 444.438 -1.64107 -0.770632 0
M  V30 4571 C 444.486 -2.45224 2.64381 0
M  V30 4572 O 443.59 -3.48093 2.21144 0
M  V30 4573 H 442.931 -0.391634 0.536208 0
M  V30 4574 H 445.461 -0.645202 1.94161 0
M  V30 4575 H 445.471 -2.91491 2.85476 0
M  V30 4576 H 444.146 -2.05143 3.61786 0
M  V30 4577 H 442.723 -3.07984 2.10239 0
M  V30 4578 N 444.908 -1.36708 -0.784132 0
M  V30 4579 C 446.155 -1.31231 -1.54222 0
M  V30 4580 C 446.483 0.106864 -1.94206 0
M  V30 4581 O 445.738 1.07734 -1.63376 0
M  V30 4582 C 446.037 -2.18571 -2.82774 0
M  V30 4583 C 445.703 -3.67039 -2.61903 0
M  V30 4584 C 444.365 -4.07503 -2.55919 0
M  V30 4585 C 446.717 -4.61149 -2.4288 0
M  V30 4586 C 444.045 -5.40211 -2.28886 0
M  V30 4587 C 446.397 -5.94081 -2.17373 0
M  V30 4588 C 445.061 -6.33664 -2.09825 0
M  V30 4589 H 444.331 -0.48021 -0.56434 0
M  V30 4590 H 446.978 -1.68807 -0.904233 0
M  V30 4591 H 445.283 -1.73949 -3.51068 0
M  V30 4592 H 446.98 -2.11655 -3.40592 0
M  V30 4593 H 443.57 -3.34941 -2.67418 0
M  V30 4594 H 447.754 -4.30756 -2.46501 0
M  V30 4595 H 443.01 -5.69855 -2.21529 0
M  V30 4596 H 447.184 -6.66566 -2.01649 0
M  V30 4597 H 444.811 -7.36423 -1.88641 0
M  V30 4598 N 446.386 1.0089 -1.21074 0
M  V30 4599 C 447.614 1.78191 -1.05145 0
M  V30 4600 C 448.029 1.84537 0.398952 0
M  V30 4601 O 447.386 1.30393 1.27687 0
M  V30 4602 C 447.437 3.22288 -1.63746 0
M  V30 4603 O 447.158 3.16315 -3.03111 0
M  V30 4604 C 448.659 4.16106 -1.52875 0
M  V30 4605 H 445.879 0.560129 -0.369454 0
M  V30 4606 H 448.423 1.26945 -1.60328 0
M  V30 4607 H 446.578 3.70655 -1.12664 0
M  V30 4608 H 446.992 4.06817 -3.31059 0
M  V30 4609 H 448.466 5.15026 -1.98626 0
M  V30 4610 H 448.943 4.36541 -0.482521 0
M  V30 4611 H 449.549 3.73625 -2.03185 0
M  V30 4612 N 447.864 1.01787 1.20321 0
M  V30 4613 C 448.794 0.609625 2.25401 0
M  V30 4614 C 449.775 -0.375951 1.65893 0
M  V30 4615 O 450.96 -0.261101 1.92437 0
M  V30 4616 C 448.09 -0.0515995 3.47262 0
M  V30 4617 C 447.044 0.855095 4.19371 0
M  V30 4618 C 446.37 0.0595757 5.34667 0
M  V30 4619 C 447.67 2.16374 4.75373 0
M  V30 4620 H 449.364 1.48803 2.59804 0
M  V30 4621 H 446.91 0.716934 1.24884 0
M  V30 4622 H 448.863 -0.348764 4.19954 0
M  V30 4623 H 447.587 -0.964726 3.12027 0
M  V30 4624 H 446.246 1.13628 3.48546 0
M  V30 4625 H 445.894 -0.85524 4.95676 0
M  V30 4626 H 445.594 0.663406 5.83843 0
M  V30 4627 H 447.118 -0.231105 6.10162 0
M  V30 4628 H 448.532 1.92885 5.39878 0
M  V30 4629 H 446.929 2.71853 5.34991 0
M  V30 4630 H 447.999 2.82589 3.94045 0
M  V30 4631 N 449.342 -1.36122 0.79427 0
M  V30 4632 C 450.275 -2.27759 0.141845 0
M  V30 4633 C 451.253 -1.47471 -0.684921 0
M  V30 4634 O 452.437 -1.76759 -0.654857 0
M  V30 4635 C 449.564 -3.29008 -0.804446 0
M  V30 4636 C 448.61 -4.26459 -0.0588617 0
M  V30 4637 S 449.443 -5.20253 1.26873 0
M  V30 4638 C 450.599 -6.25048 0.326562 0
M  V30 4639 H 450.832 -2.82746 0.918818 0
M  V30 4640 H 448.365 -1.42736 0.588722 0
M  V30 4641 H 450.323 -3.87842 -1.34495 0
M  V30 4642 H 448.984 -2.72924 -1.5547 0
M  V30 4643 H 448.177 -4.97973 -0.777087 0
M  V30 4644 H 447.779 -3.71731 0.411309 0
M  V30 4645 H 450.071 -6.75705 -0.492795 0
M  V30 4646 H 451.014 -7.00852 1.01053 0
M  V30 4647 H 451.422 -5.64454 -0.0722627 0
M  V30 4648 N 450.82 -0.546701 -1.47814 0
M  V30 4649 C 451.767 0.206854 -2.29871 0
M  V30 4650 C 452.737 0.918235 -1.38411 0
M  V30 4651 O 453.922 0.915991 -1.67375 0
M  V30 4652 C 451.062 1.23746 -3.22151 0
M  V30 4653 C 450.175 0.533216 -4.28697 0
M  V30 4654 C 449.31 1.5482 -5.08138 0
M  V30 4655 C 448.349 0.828347 -6.06469 0
M  V30 4656 N 447.486 1.78966 -6.78908 0
M  V30 4657 H 452.326 -0.499037 -2.93792 0
M  V30 4658 H 449.863 -0.25793 -1.44821 0
M  V30 4659 H 451.821 1.84746 -3.74065 0
M  V30 4660 H 450.451 1.91151 -2.60117 0
M  V30 4661 H 449.503 -0.191089 -3.7992 0
M  V30 4662 H 450.815 -0.0311987 -4.9879 0
M  V30 4663 H 449.969 2.23202 -5.6415 0
M  V30 4664 H 448.708 2.14652 -4.37922 0
M  V30 4665 H 447.713 0.130539 -5.49645 0
M  V30 4666 H 448.938 0.235907 -6.7869 0
M  V30 4667 H 446.884 2.37675 -6.1143 0
M  V30 4668 H 446.801 1.27712 -7.45135 0
M  V30 4669 H 448.069 2.46496 -7.395 0
M  V30 4670 N 452.299 1.55045 -0.282633 0
M  V30 4671 C 453.229 2.2579 0.595066 0
M  V30 4672 C 454.21 1.25074 1.15284 0
M  V30 4673 O 455.395 1.5381 1.18559 0
M  V30 4674 C 452.525 2.98472 1.77572 0
M  V30 4675 C 451.479 4.0618 1.34914 0
M  V30 4676 C 450.805 4.66477 2.6135 0
M  V30 4677 C 452.105 5.1996 0.493821 0
M  V30 4678 H 453.799 2.994 0.00505653 0
M  V30 4679 H 451.345 1.44 0.000992001 0
M  V30 4680 H 453.298 3.46677 2.39568 0
M  V30 4681 H 452.022 2.2241 2.39168 0
M  V30 4682 H 450.681 3.58797 0.752338 0
M  V30 4683 H 450.329 3.87074 3.2122 0
M  V30 4684 H 450.029 5.39207 2.33516 0
M  V30 4685 H 451.553 5.17435 3.24181 0
M  V30 4686 H 452.967 5.64172 1.01898 0
M  V30 4687 H 451.364 5.99299 0.310047 0
M  V30 4688 H 452.434 4.82462 -0.485593 0
M  V30 4689 N 453.777 0.010035 1.57597 0
M  V30 4690 C 455.193 -0.346164 1.55801 0
M  V30 4691 C 455.393 -1.74144 1.01371 0
M  V30 4692 O 454.449 -2.43938 0.651968 0
M  V30 4693 C 455.762 -0.212216 2.9995 0
M  V30 4694 C 457.31 -0.286409 3.11687 0
M  V30 4695 C 457.785 -0.18147 4.5764 0
M  V30 4696 N 459.276 -0.239056 4.62583 0
M  V30 4697 C 460.011 -0.181351 5.73113 0
M  V30 4698 N 459.507 -0.073661 6.92761 0
M  V30 4699 N 461.3 -0.233949 5.61613 0
M  V30 4700 H 453.451 0.922657 1.91313 0
M  V30 4701 H 455.714 0.354595 0.879185 0
M  V30 4702 H 455.42 0.748169 3.4365 0
M  V30 4703 H 455.294 -0.990224 3.6397 0
M  V30 4704 H 457.681 -1.23724 2.67911 0
M  V30 4705 H 457.762 0.521645 2.50425 0
M  V30 4706 H 457.406 0.765863 5.02093 0
M  V30 4707 H 457.336 -1.00814 5.1686 0
M  V30 4708 H 459.827 -0.32321 3.76515 0
M  V30 4709 H 460.14 -0.0358003 7.72792 0
M  V30 4710 H 458.485 -0.0391461 6.94989 0
M  V30 4711 H 461.676 -0.316347 4.6703 0
M  V30 4712 H 461.849 -0.185514 6.47734 0
M  V30 4713 N 455.255 -1.55392 -0.262866 0
M  V30 4714 C 456.205 -1.85355 -1.32768 0
M  V30 4715 C 457.189 -0.713188 -1.44231 0
M  V30 4716 O 458.381 -0.974765 -1.47741 0
M  V30 4717 C 455.51 -2.13781 -2.68612 0
M  V30 4718 C 454.596 -3.34104 -2.61219 0
M  V30 4719 N 454.987 -4.53766 -2.2345 0
M  V30 4720 C 453.285 -3.36895 -2.92263 0
M  V30 4721 C 453.986 -5.35877 -2.26298 0
M  V30 4722 N 452.962 -4.74536 -2.65172 0
M  V30 4723 H 456.764 -2.75413 -1.02591 0
M  V30 4724 H 454.278 -1.55405 -0.471503 0
M  V30 4725 H 456.275 -2.33407 -3.45437 0
M  V30 4726 H 454.935 -1.25013 -2.99669 0
M  V30 4727 H 455.946 -4.79682 -1.95258 0
M  V30 4728 H 452.623 -2.58351 -3.27965 0
M  V30 4729 H 454.013 -6.41577 -1.99572 0
M  V30 4730 N 456.733 0.527833 -1.48498 0
M  V30 4731 C 457.958 1.313 -1.60546 0
M  V30 4732 C 458.383 1.86199 -0.26672 0
M  V30 4733 O 457.741 1.64513 0.761918 0
M  V30 4734 C 457.789 2.43818 -2.65678 0
M  V30 4735 O 456.893 3.46916 -2.22987 0
M  V30 4736 H 456.234 0.388784 -0.538277 0
M  V30 4737 H 458.764 0.634896 -1.945 0
M  V30 4738 H 458.774 2.89973 -2.87018 0
M  V30 4739 H 457.449 2.03222 -3.62869 0
M  V30 4740 H 456.026 3.06864 -2.11869 0
M  V30 4741 N 458.211 1.37122 0.776871 0
M  V30 4742 C 459.436 1.354 1.57104 0
M  V30 4743 C 459.861 -0.0595562 1.88006 0
M  V30 4744 O 459.219 -1.03514 1.48844 0
M  V30 4745 C 459.267 2.19472 2.8612 0
M  V30 4746 O 458.371 1.59582 3.80273 0
M  V30 4747 H 457.712 0.462869 0.476076 0
M  V30 4748 H 460.242 1.80577 0.961932 0
M  V30 4749 H 460.252 2.32502 3.35271 0
M  V30 4750 H 458.927 3.22222 2.62956 0
M  V30 4751 H 457.504 1.55564 3.38902 0
M  V30 4752 N 459.689 -1.00246 1.21608 0
M  V30 4753 C 460.652 -2.07233 0.979133 0
M  V30 4754 C 461.652 -1.6072 -0.0508219 0
M  V30 4755 O 462.842 -1.73196 0.186712 0
M  V30 4756 C 459.974 -3.37546 0.477016 0
M  V30 4757 H 461.167 -2.29687 1.92831 0
M  V30 4758 H 458.72 -1.17261 1.03342 0
M  V30 4759 H 459.455 -3.20773 -0.476966 0
M  V30 4760 H 459.24 -3.72638 1.21997 0
M  V30 4761 H 460.73 -4.16285 0.331181 0
M  V30 4762 N 461.167 -1.02423 -1.1978 0
M  V30 4763 C 462.097 -0.62157 -2.25075 0
M  V30 4764 C 463.078 0.367148 -1.6609 0
M  V30 4765 O 464.263 0.250892 -1.92573 0
M  V30 4766 C 461.393 0.0331826 -3.47284 0
M  V30 4767 C 460.347 -0.877323 -4.18912 0
M  V30 4768 C 459.673 -0.0879296 -5.34628 0
M  V30 4769 C 460.973 -2.18892 -4.74219 0
M  V30 4770 H 462.667 -1.50179 -2.59011 0
M  V30 4771 H 460.213 -0.723547 -1.24502 0
M  V30 4772 H 462.166 0.326488 -4.20133 0
M  V30 4773 H 460.89 0.948164 -3.12534 0
M  V30 4774 H 459.549 -1.15475 -3.47938 0
M  V30 4775 H 459.197 0.828941 -4.96123 0
M  V30 4776 H 458.897 -0.694359 -5.83483 0
M  V30 4777 H 460.421 0.198743 -6.10276 0
M  V30 4778 H 461.835 -1.95746 -5.38847 0
M  V30 4779 H 460.232 -2.74686 -5.33542 0
M  V30 4780 H 461.302 -2.84674 -3.92541 0
M  V30 4781 N 462.645 1.35699 -0.801477 0
M  V30 4782 C 463.893 1.9852 -0.37871 0
M  V30 4783 C 464.214 1.63907 1.05638 0
M  V30 4784 O 463.484 0.919013 1.73006 0
M  V30 4785 H 462.064 0.734322 -0.137042 0
M  V30 4786 H 464.726 1.65697 -1.02619 0
M  V30 4787 H 463.822 3.08382 -0.480284 0
M  V30 4788 N 464.123 0.554532 1.47522 0
M  V30 4789 C 465.371 0.0294208 2.02079 0
M  V30 4790 C 465.692 -1.32411 1.43151 0
M  V30 4791 O 464.962 -1.863 0.605728 0
M  V30 4792 H 463.542 0.00788672 0.746958 0
M  V30 4793 H 466.204 0.723934 1.80956 0
M  V30 4794 H 465.3 -0.0606745 3.12041 0
M  V30 4795 N 465.601 -1.54893 0.290851 0
M  V30 4796 C 466.564 -2.21824 -0.576784 0
M  V30 4797 C 467.564 -1.20104 -1.06919 0
M  V30 4798 O 468.754 -1.44906 -0.966843 0
M  V30 4799 C 465.886 -2.89662 -1.79747 0
M  V30 4800 H 467.079 -2.99899 0.00784051 0
M  V30 4801 H 464.632 -1.56245 0.0415934 0
M  V30 4802 H 465.367 -2.15639 -2.42219 0
M  V30 4803 H 465.152 -3.64219 -1.45214 0
M  V30 4804 H 466.642 -3.4075 -2.4141 0
M  V30 4805 N 467.08 -0.0183926 -1.57589 0
M  V30 4806 C 468.305 0.676634 -1.96052 0
M  V30 4807 C 468.73 1.6548 -0.894307 0
M  V30 4808 O 468.088 1.80712 0.145849 0
M  V30 4809 C 468.136 1.36872 -3.33614 0
M  V30 4810 O 467.24 2.48372 -3.29219 0
M  V30 4811 H 466.581 0.1786 -0.63953 0
M  V30 4812 H 469.111 -0.077056 -2.04455 0
M  V30 4813 H 469.121 1.72797 -3.69601 0
M  V30 4814 H 467.796 0.651636 -4.10763 0
M  V30 4815 H 466.373 2.14639 -3.04934 0
M  V30 4816 N 468.558 1.5553 0.254621 0
M  V30 4817 C 469.488 1.9268 1.31897 0
M  V30 4818 C 470.469 0.790797 1.506 0
M  V30 4819 O 471.654 1.05045 1.63337 0
M  V30 4820 C 468.784 2.21477 2.67517 0
M  V30 4821 C 467.738 3.37256 2.63519 0
M  V30 4822 C 467.064 3.51576 4.02862 0
M  V30 4823 C 468.364 4.73157 2.21179 0
M  V30 4824 H 470.058 2.81832 1.01051 0
M  V30 4825 H 467.604 1.35599 0.484662 0
M  V30 4826 H 469.557 2.46055 3.42104 0
M  V30 4827 H 468.281 1.29144 2.99982 0
M  V30 4828 H 466.94 3.12675 1.9139 0
M  V30 4829 H 466.588 2.56676 4.32581 0
M  V30 4830 H 466.288 4.2943 4.01078 0
M  V30 4831 H 467.812 3.78467 4.79161 0
M  V30 4832 H 469.226 4.97158 2.85494 0
M  V30 4833 H 467.623 5.54058 2.30521 0
M  V30 4834 H 468.693 4.70739 1.16332 0
M  V30 4835 N 470.036 -0.519951 1.48776 0
M  V30 4836 C 471.284 -1.2727 1.56993 0
M  V30 4837 C 471.605 -1.9339 0.25004 0
M  V30 4838 O 470.875 -1.81822 -0.729216 0
M  V30 4839 H 469.455 -0.472732 0.578389 0
M  V30 4840 H 472.117 -0.604234 1.85297 0
M  V30 4841 H 471.213 -2.04669 2.3562 0
M  V30 4842 N 471.514 -1.37532 -0.769588 0
M  V30 4843 C 472.477 -1.33292 -1.86456 0
M  V30 4844 C 473.477 -0.236537 -1.59051 0
M  V30 4845 O 474.667 -0.492511 -1.67093 0
M  V30 4846 C 471.799 -1.07118 -3.23633 0
M  V30 4847 H 472.992 -2.30692 -1.91628 0
M  V30 4848 H 470.545 -1.22593 -0.969572 0
M  V30 4849 H 471.28 -0.102578 -3.24138 0
M  V30 4850 H 471.065 -1.86479 -3.44917 0
M  V30 4851 H 472.555 -1.06806 -4.03711 0
M  V30 4852 N 472.992 0.995999 -1.22138 0
M  V30 4853 C 474.408 1.25917 -0.980667 0
M  V30 4854 C 474.608 1.98819 0.327604 0
M  V30 4855 O 473.664 2.29587 1.05101 0
M  V30 4856 C 474.977 2.07399 -2.17729 0
M  V30 4857 C 476.525 2.20594 -2.22052 0
M  V30 4858 C 477 3.05462 -3.41258 0
M  V30 4859 N 478.491 3.13049 -3.41401 0
M  V30 4860 C 479.226 3.78997 -4.30289 0
M  V30 4861 N 478.722 4.46899 -5.2939 0
M  V30 4862 N 480.515 3.75728 -4.18073 0
M  V30 4863 H 472.666 0.507158 -2.06256 0
M  V30 4864 H 474.929 0.28658 -0.903646 0
M  V30 4865 H 474.635 1.61191 -3.12586 0
M  V30 4866 H 474.509 3.08154 -2.17534 0
M  V30 4867 H 476.896 2.66017 -1.27745 0
M  V30 4868 H 476.977 1.1928 -2.26287 0
M  V30 4869 H 476.621 2.60739 -4.35864 0
M  V30 4870 H 476.551 4.06911 -3.34262 0
M  V30 4871 H 479.042 2.64721 -2.69688 0
M  V30 4872 H 479.355 4.94952 -5.935 0
M  V30 4873 H 477.7 4.45657 -5.33306 0
M  V30 4874 H 480.891 3.2184 -3.39907 0
M  V30 4875 H 481.064 4.26845 -4.87553 0
M  V30 4876 N 474.47 1.03057 1.19235 0
M  V30 4877 C 475.42 0.583386 2.2041 0
M  V30 4878 C 476.404 -0.368776 1.56617 0
M  V30 4879 O 477.596 -0.189471 1.75983 0
M  V30 4880 C 474.725 -0.0626534 3.43243 0
M  V30 4881 C 473.811 0.91205 4.14177 0
M  V30 4882 N 474.202 2.07514 4.61272 0
M  V30 4883 C 472.5 0.735859 4.39888 0
M  V30 4884 C 473.201 2.69003 5.15764 0
M  V30 4885 N 472.177 1.96954 5.06666 0
M  V30 4886 H 475.979 1.46988 2.54503 0
M  V30 4887 H 473.493 0.897785 1.35328 0
M  V30 4888 H 475.49 -0.400653 4.1497 0
M  V30 4889 H 474.15 -0.944813 3.1065 0
M  V30 4890 H 475.161 2.45448 4.56043 0
M  V30 4891 H 471.838 -0.0970656 4.17387 0
M  V30 4892 H 473.228 3.67514 5.6248 0
M  V30 4893 N 475.948 -1.35272 0.808662 0
M  V30 4894 C 477.197 -1.97963 0.386483 0
M  V30 4895 C 477.51 -1.64866 -1.05255 0
M  V30 4896 O 478.716 -2.20937 -1.57794 0
M  V30 4897 C 477.172 -3.54162 0.640096 0
M  V30 4898 C 476.78 -3.96166 2.0918 0
M  V30 4899 C 478.524 -4.23553 0.283376 0
M  V30 4900 C 476.431 -5.4522 2.29106 0
M  V30 4901 H 475.361 -0.740742 0.140774 0
M  V30 4902 H 478.012 -1.5431 0.993012 0
M  V30 4903 H 476.394 -3.95983 -0.0364117 0
M  V30 4904 H 477.568 -3.65491 2.80629 0
M  V30 4905 H 475.883 -3.3967 2.40859 0
M  V30 4906 H 478.48 -5.33124 0.410273 0
M  V30 4907 H 478.823 -4.09105 -0.770659 0
M  V30 4908 H 479.356 -3.8716 0.913884 0
M  V30 4909 H 476.095 -5.64638 3.32962 0
M  V30 4910 H 475.615 -5.77457 1.62184 0
M  V30 4911 H 477.294 -6.1171 2.1076 0
M  V30 4912 N 477.426 -0.562348 -1.47226 0
M  V30 4913 C 478.674 -0.0401371 -2.0206 0
M  V30 4914 C 478.995 1.3165 -1.43852 0
M  V30 4915 O 478.265 1.85976 -0.615599 0
M  V30 4916 H 476.845 -0.0118479 -0.746906 0
M  V30 4917 H 479.507 -0.73352 -1.8057 0
M  V30 4918 H 478.603 0.0441254 -3.12069 0
M  V30 4919 N 478.904 1.54736 -0.299062 0
M  V30 4920 C 479.854 2.20155 0.592932 0
M  V30 4921 C 480.838 1.1739 1.10038 0
M  V30 4922 O 482.03 1.43116 1.04147 0
M  V30 4923 C 479.159 2.94437 1.76527 0
M  V30 4924 C 478.245 4.04516 1.27388 0
M  V30 4925 N 478.636 5.03319 0.500339 0
M  V30 4926 C 476.934 4.18022 1.55478 0
M  V30 4927 C 477.635 5.81209 0.238909 0
M  V30 4928 N 476.611 5.37408 0.818163 0
M  V30 4929 H 480.413 2.93899 -0.00563596 0
M  V30 4930 H 477.927 1.62068 -0.103732 0
M  V30 4931 H 479.924 3.3977 2.41582 0
M  V30 4932 H 478.584 2.22209 2.36756 0
M  V30 4933 H 479.595 5.17696 0.145419 0
M  V30 4934 H 476.272 3.56998 2.16469 0
M  V30 4935 H 477.662 6.70812 -0.382223 0
M  V30 4936 N 480.382 0.0267497 1.57577 0
M  V30 4937 C 481.312 -0.954308 2.13108 0
M  V30 4938 C 482.293 -1.34088 1.04663 0
M  V30 4939 O 483.478 -1.41992 1.32484 0
M  V30 4940 C 480.608 -2.23744 2.65624 0
M  V30 4941 C 479.562 -1.99168 3.78835 0
M  V30 4942 C 478.888 -3.33726 4.17769 0
M  V30 4943 C 480.188 -1.33277 5.0501 0
M  V30 4944 H 481.882 -0.491848 2.95332 0
M  V30 4945 H 479.428 -0.23514 1.42067 0
M  V30 4946 H 481.381 -2.92754 3.03106 0
M  V30 4947 H 480.105 -2.72151 1.80558 0
M  V30 4948 H 478.764 -1.32577 3.41788 0
M  V30 4949 H 478.412 -3.79888 3.29688 0
M  V30 4950 H 478.112 -3.18089 4.94058 0
M  V30 4951 H 479.636 -4.04008 4.57832 0
M  V30 4952 H 481.05 -1.92283 5.40093 0
M  V30 4953 H 479.447 -1.28045 5.8628 0
M  V30 4954 H 480.517 -0.305411 4.83937 0
M  V30 4955 N 481.861 -1.55662 -0.24637 0
M  V30 4956 C 482.791 -1.93377 -1.30873 0
M  V30 4957 C 483.772 -0.798773 -1.50179 0
M  V30 4958 O 484.957 -1.0591 -1.62778 0
M  V30 4959 C 482.087 -2.22893 -2.66338 0
M  V30 4960 C 481.041 -3.38649 -2.61727 0
M  V30 4961 C 480.367 -3.53708 -4.00992 0
M  V30 4962 C 481.667 -4.74323 -2.18666 0
M  V30 4963 H 483.361 -2.82363 -0.995552 0
M  V30 4964 H 480.907 -1.35854 -0.477464 0
M  V30 4965 H 482.86 -2.47866 -3.40794 0
M  V30 4966 H 481.584 -1.30733 -2.99293 0
M  V30 4967 H 480.243 -3.13685 -1.89729 0
M  V30 4968 H 479.891 -2.58967 -4.31214 0
M  V30 4969 H 479.591 -4.31551 -3.98795 0
M  V30 4970 H 481.115 -3.81003 -4.77147 0
M  V30 4971 H 482.529 -4.98665 -2.82854 0
M  V30 4972 H 480.926 -5.55273 -2.27579 0
M  V30 4973 H 481.996 -4.71349 -1.13834 0
M  V30 4974 N 483.339 0.512053 -1.4905 0
M  V30 4975 C 484.75 1.09376 -1.51307 0
M  V30 4976 C 485.101 1.94 -0.292971 0
M  V30 4977 O 484.226 2.07965 0.598277 0
M  V30 4978 C 484.821 1.99031 -2.74176 0
M  V30 4979 C 483.38 2.52385 -2.79247 0
M  V30 4980 C 482.527 1.29749 -2.45073 0
M  V30 4981 H 485.478 0.296467 -1.55906 0
M  V30 4982 H 485.499 2.83569 -2.53711 0
M  V30 4983 H 485.011 1.37412 -3.62959 0
M  V30 4984 H 483.112 3.17673 -1.94716 0
M  V30 4985 H 483.225 2.90293 -3.81139 0
M  V30 4986 H 481.589 1.61912 -1.96612 0
M  V30 4987 H 482.372 0.698555 -3.36118 0
M  V30 4988 N 484.817 1.37938 0.762283 0
M  V30 4989 C 485.75 1.2884 1.88349 0
M  V30 4990 C 486.728 0.167084 1.61739 0
M  V30 4991 O 487.912 0.34292 1.85355 0
M  V30 4992 C 485.039 0.994257 3.23778 0
M  V30 4993 C 484.085 2.13376 3.69287 0
M  V30 4994 S 484.918 3.75439 3.81845 0
M  V30 4995 C 486.074 3.48195 5.20107 0
M  V30 4996 H 486.307 2.23736 1.95779 0
M  V30 4997 H 483.84 1.23672 0.924368 0
M  V30 4998 H 485.798 0.83138 4.01993 0
M  V30 4999 H 484.459 0.0626251 3.14038 0
M  V30 5000 H 483.652 1.88319 4.67495 0
M  V30 5001 H 483.254 2.25726 2.98201 0
M  V30 5002 H 485.546 3.0377 6.05583 0
M  V30 5003 H 486.489 4.45765 5.50181 0
M  V30 5004 H 486.897 2.82905 4.88493 0
M  V30 5005 N 486.295 -0.989507 1.22664 0
M  V30 5006 C 487.572 -1.70326 0.961688 0
M  V30 5007 C 487.952 -2.04537 -0.522279 0
M  V30 5008 O 487.3 -1.73136 -1.49118 0
M  V30 5009 C 487.51 -2.95135 1.86269 0
M  V30 5010 C 488.858 -3.67842 2.12078 0
M  V30 5011 O 489.882 -3.0515 1.83745 0
M  V30 5012 O 488.741 -4.80644 2.60083 0
M  V30 5013 H 485.835 -0.743589 0.361946 0
M  V30 5014 H 488.381 -1.04555 1.33665 0
M  V30 5015 H 487.153 -2.66382 2.8663 0
M  V30 5016 H 486.776 -3.68645 1.48952 0
M  V30 5017 N 487.773 -1.03688 -1.18687 0
M  V30 5018 C 489.003 -0.756819 -1.92239 0
M  V30 5019 C 489.411 0.689374 -1.76194 0
M  V30 5020 O 488.754 1.48126 -1.08648 0
M  V30 5021 C 488.816 -1.03851 -3.44173 0
M  V30 5022 C 488.48 -2.47785 -3.83994 0
M  V30 5023 C 489.477 -3.4595 -3.88091 0
M  V30 5024 C 487.162 -2.82397 -4.154 0
M  V30 5025 C 489.156 -4.76779 -4.23038 0
M  V30 5026 C 486.843 -4.13433 -4.50018 0
M  V30 5027 C 487.841 -5.10434 -4.53813 0
M  V30 5028 O 487.529 -6.39122 -4.87625 0
M  V30 5029 H 487.261 -0.275678 -0.617234 0
M  V30 5030 H 489.815 -1.38658 -1.51536 0
M  V30 5031 H 488.045 -0.351612 -3.85098 0
M  V30 5032 H 489.734 -0.746846 -3.9897 0
M  V30 5033 H 490.5 -3.20549 -3.63969 0
M  V30 5034 H 486.379 -2.07568 -4.11627 0
M  V30 5035 H 489.923 -5.52488 -4.25914 0
M  V30 5036 H 485.82 -4.38604 -4.736 0
M  V30 5037 H 486.588 -6.43715 -5.05542 0
M  V30 5038 N 489.251 1.34841 -0.815825 0
M  V30 5039 C 490.476 2.03261 -0.41226 0
M  V30 5040 C 490.901 1.61055 0.971751 0
M  V30 5041 O 490.259 0.7917 1.63101 0
M  V30 5042 C 490.307 3.56914 -0.514289 0
M  V30 5043 O 489.411 4.09728 0.468675 0
M  V30 5044 H 488.752 0.641664 -0.170771 0
M  V30 5045 H 491.282 1.72241 -1.10427 0
M  V30 5046 H 491.292 4.06156 -0.387457 0
M  V30 5047 H 489.967 3.86982 -1.52375 0
M  V30 5048 H 488.544 3.71681 0.301316 0
M  V30 5049 N 490.729 0.570148 1.46925 0
M  V30 5050 C 491.692 -0.159933 2.28641 0
M  V30 5051 C 492.692 -0.830638 1.37685 0
M  V30 5052 O 493.882 -0.684516 1.60187 0
M  V30 5053 C 491.014 -1.2354 3.17727 0
M  V30 5054 H 492.207 0.558035 2.94662 0
M  V30 5055 H 489.76 0.327603 1.52828 0
M  V30 5056 H 490.495 -1.98535 2.56426 0
M  V30 5057 H 490.28 -0.759125 3.84681 0
M  V30 5058 H 491.77 -1.74782 3.79264 0
M  V30 5059 N 492.207 -1.54576 0.307264 0
M  V30 5060 C 493.155 -2.25208 -0.581723 0
M  V30 5061 C 494.149 -1.26031 -1.13192 0
M  V30 5062 O 495.355 -1.43862 -1.08184 0
M  V30 5063 H 491.73 -0.723173 -0.206214 0
M  V30 5064 H 493.701 -2.98378 0.0364663 0
M  V30 5065 C 492.45 -3.01086 -1.73904 0
M  V30 5066 H 491.773 -3.77208 -1.32491 0
M  V30 5067 H 493.213 -3.5378 -2.33701 0
M  V30 5068 C 491.672 -2.08422 -2.64692 0
M  V30 5069 O 492.202 -1.65636 -3.65961 0
M  V30 5070 N 490.408 -1.74247 -2.32564 0
M  V30 5071 H 489.955 -2.09238 -1.50257 0
M  V30 5072 H 489.913 -1.12524 -2.93574 0
M  V30 5073 N 493.685 -0.035106 -1.57561 0
M  V30 5074 C 494.648 0.929819 -2.09492 0
M  V30 5075 C 495.648 1.25026 -1.01119 0
M  V30 5076 O 496.838 1.18961 -1.27255 0
M  V30 5077 C 493.97 2.24457 -2.56577 0
M  V30 5078 H 495.163 0.479935 -2.96035 0
M  V30 5079 H 492.716 0.213033 -1.54841 0
M  V30 5080 H 493.451 2.74061 -1.73382 0
M  V30 5081 H 493.236 2.02508 -3.35757 0
M  V30 5082 H 494.726 2.93607 -2.96959 0
M  V30 5083 N 495.163 1.55791 0.238111 0
M  V30 5084 C 496.412 1.77234 0.962868 0
M  V30 5085 C 496.725 0.600661 1.86149 0
M  V30 5086 O 497.931 0.698315 2.62366 0
M  V30 5087 C 496.387 3.13808 1.76218 0
M  V30 5088 C 495.995 4.3865 0.910518 0
M  V30 5089 C 497.739 3.44585 2.47914 0
M  V30 5090 C 495.646 5.66252 1.70623 0
M  V30 5091 H 494.576 0.660731 0.36325 0
M  V30 5092 H 497.227 1.8221 0.217242 0
M  V30 5093 H 495.609 3.02963 2.55009 0
M  V30 5094 H 496.783 4.60507 0.164316 0
M  V30 5095 H 495.098 4.15271 0.30647 0
M  V30 5096 H 497.695 4.3714 3.07917 0
M  V30 5097 H 498.038 2.66314 3.19973 0
M  V30 5098 H 498.571 3.56685 1.76127 0
M  V30 5099 H 495.31 6.47369 1.02923 0
M  V30 5100 H 494.83 5.48483 2.42748 0
M  V30 5101 H 496.509 6.05829 2.27114 0
M  V30 5102 N 496.642 -0.504142 1.49319 0
M  V30 5103 C 497.605 -1.5883 1.65244 0
M  V30 5104 C 498.605 -1.52009 0.524386 0
M  V30 5105 O 499.795 -1.55218 0.79077 0
M  V30 5106 C 496.927 -2.98481 1.64687 0
M  V30 5107 H 498.12 -1.4604 2.61939 0
M  V30 5108 H 495.673 -0.728144 1.38303 0
M  V30 5109 H 496.408 -3.16751 0.695644 0
M  V30 5110 H 496.193 -3.0484 2.46607 0
M  V30 5111 H 497.683 -3.77256 1.79075 0
M  V30 5112 N 498.12 -1.38341 -0.754957 0
M  V30 5113 C 499.367 -1.34473 -1.51404 0
M  V30 5114 C 499.695 0.0656458 -1.94389 0
M  V30 5115 O 498.95 1.04244 -1.65625 0
M  V30 5116 C 499.249 -2.2452 -2.78075 0
M  V30 5117 C 498.915 -3.72512 -2.54059 0
M  V30 5118 C 497.577 -4.1284 -2.47218 0
M  V30 5119 C 499.929 -4.66197 -2.33044 0
M  V30 5120 C 497.257 -5.44945 -2.17376 0
M  V30 5121 C 499.609 -5.98558 -2.04723 0
M  V30 5122 C 498.273 -6.37972 -1.96337 0
M  V30 5123 H 497.543 -0.492072 -0.554027 0
M  V30 5124 H 500.19 -1.70687 -0.868223 0
M  V30 5125 H 498.495 -1.81357 -3.473 0
M  V30 5126 H 500.192 -2.18832 -3.36026 0
M  V30 5127 H 496.782 -3.40538 -2.60253 0
M  V30 5128 H 500.966 -4.35888 -2.37309 0
M  V30 5129 H 496.222 -5.74426 -2.09391 0
M  V30 5130 H 500.396 -6.70693 -1.87465 0
M  V30 5131 H 498.023 -7.40258 -1.72978 0
M  V30 5132 N 499.598 0.982988 -1.23187 0
M  V30 5133 C 500.828 1.75666 -1.08743 0
M  V30 5134 C 501.236 1.85662 0.364195 0
M  V30 5135 O 500.579 1.33317 1.26382 0
M  V30 5136 C 500.641 3.20144 -1.63549 0
M  V30 5137 C 500.305 3.33665 -3.12277 0
M  V30 5138 C 501.302 3.20194 -4.096 0
M  V30 5139 C 498.987 3.58397 -3.51933 0
M  V30 5140 C 500.981 3.31256 -5.44563 0
M  V30 5141 C 498.668 3.69098 -4.87042 0
M  V30 5142 C 499.666 3.55537 -5.83166 0
M  V30 5143 O 499.354 3.65864 -7.1582 0
M  V30 5144 H 499.086 0.558194 -0.381307 0
M  V30 5145 H 501.64 1.24387 -1.63454 0
M  V30 5146 H 499.87 3.72659 -1.03256 0
M  V30 5147 H 501.559 3.79262 -1.4462 0
M  V30 5148 H 502.325 3.00987 -3.80305 0
M  V30 5149 H 498.204 3.68025 -2.77631 0
M  V30 5150 H 501.748 3.20588 -6.19572 0
M  V30 5151 H 497.645 3.87814 -5.16014 0
M  V30 5152 H 498.413 3.82675 -7.23534 0
M  V30 5153 N 501.076 1.04316 1.18135 0
M  V30 5154 C 502.301 0.768047 1.92655 0
M  V30 5155 C 502.726 -0.66904 1.758 0
M  V30 5156 O 502.084 -1.46372 1.06981 0
M  V30 5157 C 502.132 1.14239 3.42026 0
M  V30 5158 O 501.236 0.269333 4.1152 0
M  V30 5159 H 500.577 0.282436 0.600937 0
M  V30 5160 H 503.107 1.39367 1.49793 0
M  V30 5161 H 503.117 1.10538 3.92741 0
M  V30 5162 H 501.792 2.18928 3.53615 0
M  V30 5163 H 500.369 0.366175 3.71098 0
M  V30 5164 N 502.554 -1.34406 0.822964 0
M  V30 5165 C 503.784 -2.02214 0.423424 0
M  V30 5166 C 504.192 -1.62124 -0.975322 0
M  V30 5167 O 503.535 -0.822452 -1.6426 0
M  V30 5168 C 503.597 -3.56721 0.446107 0
M  V30 5169 C 503.261 -4.20136 1.79819 0
M  V30 5170 C 504.258 -4.4065 2.75904 0
M  V30 5171 C 501.943 -4.56906 2.08669 0
M  V30 5172 C 503.937 -4.9706 3.99012 0
M  V30 5173 C 501.624 -5.13026 3.32036 0
M  V30 5174 C 502.622 -5.33047 4.27024 0
M  V30 5175 O 502.31 -5.87979 5.48211 0
M  V30 5176 H 502.042 -0.654748 0.168169 0
M  V30 5177 H 504.596 -1.72659 1.11257 0
M  V30 5178 H 502.826 -3.85537 -0.299734 0
M  V30 5179 H 504.515 -4.05845 0.0666114 0
M  V30 5180 H 505.281 -4.12607 2.54912 0
M  V30 5181 H 501.16 -4.40626 1.35535 0
M  V30 5182 H 504.704 -5.12603 4.73164 0
M  V30 5183 H 500.601 -5.40498 3.52891 0
M  V30 5184 H 501.369 -6.06413 5.49732 0
M  V30 5185 N 504.032 -0.577932 -1.46621 0
M  V30 5186 C 505.26 -0.0671642 -2.06791 0
M  V30 5187 C 505.675 1.23571 -1.42743 0
M  V30 5188 O 505.032 1.74602 -0.531062 0
M  V30 5189 C 505.083 0.110357 -3.61332 0
M  V30 5190 O 504.804 -1.14095 -4.22982 0
M  V30 5191 C 506.305 0.656025 -4.38419 0
M  V30 5192 H 503.525 -0.0552732 -0.66872 0
M  V30 5193 H 506.069 -0.797242 -1.8832 0
M  V30 5194 H 504.224 0.790637 -3.79246 0
M  V30 5195 H 504.638 -0.951742 -5.15793 0
M  V30 5196 H 506.112 0.729438 -5.47159 0
M  V30 5197 H 506.589 1.67195 -4.06131 0
M  V30 5198 H 507.195 0.0107692 -4.25299 0
M  V30 5199 N 505.51 1.54411 -0.315457 0
M  V30 5200 C 506.757 2.00419 0.289543 0
M  V30 5201 C 507.085 1.20373 1.52776 0
M  V30 5202 O 506.34 0.271769 1.93804 0
M  V30 5203 C 506.639 3.50936 0.676652 0
M  V30 5204 C 506.305 4.48532 -0.461472 0
M  V30 5205 C 504.967 4.74936 -0.773879 0
M  V30 5206 C 507.319 5.06567 -1.22637 0
M  V30 5207 C 504.647 5.56634 -1.85405 0
M  V30 5208 C 506.999 5.89441 -2.29657 0
M  V30 5209 C 505.663 6.1415 -2.61488 0
M  V30 5210 H 504.933 0.733386 0.105951 0
M  V30 5211 H 507.58 1.86434 -0.437554 0
M  V30 5212 H 505.885 3.62606 1.48405 0
M  V30 5213 H 507.582 3.83971 1.15618 0
M  V30 5214 H 504.172 4.28096 -0.207893 0
M  V30 5215 H 508.356 4.86157 -0.998271 0
M  V30 5216 H 503.612 5.74012 -2.10523 0
M  V30 5217 H 507.786 6.33432 -2.89374 0
M  V30 5218 H 505.413 6.77245 -3.45317 0
M  V30 5219 N 506.988 0.0434614 1.5754 0
M  V30 5220 C 508.213 -0.645358 1.97104 0
M  V30 5221 C 508.638 -1.64037 0.920521 0
M  V30 5222 O 507.996 -1.80922 -0.11708 0
M  V30 5223 C 508.044 -1.31547 3.35749 0
M  V30 5224 O 507.148 -2.43103 3.33129 0
M  V30 5225 H 506.489 -0.168403 0.64229 0
M  V30 5226 H 509.019 0.109573 2.04306 0
M  V30 5227 H 509.029 -1.66895 3.72304 0
M  V30 5228 H 507.704 -0.586205 4.11748 0
M  V30 5229 H 506.281 -2.0976 3.0831 0
M  V30 5230 O 508.505 -1.61203 -0.0978465 0
M  V30 5231 H 509.196 -1.79548 -0.726781 0
M  V30 END ATOM
M  V30 BEGIN BOND
M  V30 END BOND
M  V30 END CTAB
M  END
$$$$
