drugbank_target|P0AD64 Beta-lactamase SHV-1 (DB03970; DB08116; DB09060; DB12107)
 OpenBabel12092120483D

  0  0  0     0  0            999 V3000
M  V30 BEGIN CTAB
M  V30 COUNTS 4425 4458 0 0 0
M  V30 BEGIN ATOM
M  V30 1 H -0.908 1.98254 -0.117106 0
M  V30 2 N 0 1.576 0 0
M  V30 3 C 0.933 2.03868 1.02534 0
M  V30 4 C 1.911 0.928543 1.3348 0
M  V30 5 O 3.095 1.19667 1.45644 0
M  V30 6 C 0.222 2.43627 2.35294 0
M  V30 7 C -0.732 3.65373 2.2001 0
M  V30 8 S 0.101 5.13292 1.52614 0
M  V30 9 C 1.257 5.56322 2.86805 0
M  V30 10 H 1.49 2.90518 0.631377 0
M  V30 11 H -0.977 1.52953 0.210867 0
M  V30 12 H 0.981 2.67203 3.11629 0
M  V30 13 H -0.358 1.57376 2.7183 0
M  V30 14 H -1.165 3.90944 3.18086 0
M  V30 15 H -1.563 3.418 1.51819 0
M  V30 16 H 0.729 5.58782 3.83104 0
M  V30 17 H 1.672 6.56266 2.65933 0
M  V30 18 H 2.08 4.83886 2.90714 0
M  V30 19 N 1.4781 -0.272755 1.55222 0
M  V30 20 C 2.8941 -0.619959 1.47067 0
M  V30 21 C 3.0941 -1.895 0.684978 0
M  V30 22 O 2.1501 -2.51675 0.203931 0
M  V30 23 C 3.4631 -0.746693 2.91282 0
M  V30 24 C 5.0111 -0.840731 3.01497 0
M  V30 25 C 5.4861 -0.99924 4.46967 0
M  V30 26 N 6.9771 -1.06476 4.50796 0
M  V30 27 C 7.7121 -1.20621 5.6057 0
M  V30 28 N 7.2081 -1.31483 6.80209 0
M  V30 29 N 9.0011 -1.23733 5.48312 0
M  V30 30 H 1.1521 0.564606 2.04758 0
M  V30 31 H 3.4151 0.191177 0.928523 0
M  V30 32 H 3.1211 0.119753 3.51496 0
M  V30 33 H 2.9951 -1.6269 3.40311 0
M  V30 34 H 5.3821 -1.69764 2.41379 0
M  V30 35 H 5.4631 0.0640874 2.5572 0
M  V30 36 H 5.1071 -0.146984 5.07687 0
M  V30 37 H 5.0371 -1.91871 4.90401 0
M  V30 38 H 7.5281 -0.993196 3.64615 0
M  V30 39 H 7.8411 -1.42111 7.59621 0
M  V30 40 H 6.1861 -1.28487 6.8302 0
M  V30 41 H 9.3771 -1.14877 4.53785 0
M  V30 42 H 9.5501 -1.34412 6.33906 0
M  V30 43 N 2.9562 -1.48159 -0.537278 0
M  V30 44 C 4.1862 -1.59223 -1.3165 0
M  V30 45 C 4.5942 -0.248849 -1.87556 0
M  V30 46 O 3.9372 0.770949 -1.6674 0
M  V30 47 C 3.9992 -2.57365 -2.51005 0
M  V30 48 C 3.6632 -4.02603 -2.16239 0
M  V30 49 C 4.6602 -4.90503 -1.72344 0
M  V30 50 C 2.3452 -4.48088 -2.26986 0
M  V30 51 C 4.3392 -6.21913 -1.39651 0
M  V30 52 C 2.0262 -5.7952 -1.93906 0
M  V30 53 C 3.0242 -6.66255 -1.50309 0
M  V30 54 O 2.7122 -7.95243 -1.17659 0
M  V30 55 H 2.4442 -0.539831 -0.406889 0
M  V30 56 H 4.9982 -1.94655 -0.655641 0
M  V30 57 H 3.2282 -2.1704 -3.20048 0
M  V30 58 H 4.9172 -2.58342 -3.13072 0
M  V30 59 H 5.6832 -4.56604 -1.63517 0
M  V30 60 H 1.5622 -3.80769 -2.59877 0
M  V30 61 H 5.1062 -6.89569 -1.0555 0
M  V30 62 H 1.0032 -6.12957 -2.02371 0
M  V30 63 H 1.7712 -8.0793 -1.31119 0
M  V30 64 N 4.4343 0.785586 -1.36625 0
M  V30 65 C 5.6833 1.53883 -1.30396 0
M  V30 66 C 5.9963 1.95271 0.113452 0
M  V30 67 O 7.2023 2.69858 0.298142 0
M  V30 68 C 5.6583 2.77808 -2.28802 0
M  V30 69 C 5.2663 2.43574 -3.75999 0
M  V30 70 C 7.0103 3.55783 -2.31558 0
M  V30 71 C 4.9173 3.63919 -4.66173 0
M  V30 72 H 3.8473 0.577678 -0.484566 0
M  V30 73 H 6.4983 0.861705 -1.62009 0
M  V30 74 H 4.8803 3.47339 -1.90188 0
M  V30 75 H 6.0543 1.81916 -4.23371 0
M  V30 76 H 4.3693 1.78803 -3.76056 0
M  V30 77 H 6.9663 4.45205 -2.96137 0
M  V30 78 H 7.3093 3.94644 -1.3252 0
M  V30 79 H 7.8423 2.93235 -2.68809 0
M  V30 80 H 4.5813 3.3015 -5.66287 0
M  V30 81 H 4.1013 4.2473 -4.23515 0
M  V30 82 H 5.7803 4.30901 -4.82632 0
M  V30 83 N 5.9124 1.20967 1.01018 0
M  V30 84 C 7.3284 0.965905 1.27053 0
M  V30 85 C 7.5284 -0.350785 1.98423 0
M  V30 86 O 6.5844 -1.07773 2.28344 0
M  V30 87 C 7.8974 2.15294 2.09926 0
M  V30 88 C 9.4454 2.19463 2.23171 0
M  V30 89 C 9.9204 3.3767 3.09424 0
M  V30 90 N 11.4114 3.37724 3.17012 0
M  V30 91 C 12.1464 4.25837 3.83993 0
M  V30 92 N 11.6424 5.24138 4.53047 0
M  V30 93 N 13.4354 4.1366 3.80581 0
M  V30 94 H 5.5864 2.0565 0.531194 0
M  V30 95 H 7.8494 0.90024 0.297106 0
M  V30 96 H 7.5554 3.10684 1.64828 0
M  V30 97 H 7.4294 2.13923 3.10672 0
M  V30 98 H 9.8164 1.24632 2.6749 0
M  V30 99 H 9.8974 2.2488 1.21912 0
M  V30 100 H 9.5414 4.32791 2.65808 0
M  V30 101 H 9.4714 3.29491 4.10784 0
M  V30 102 H 11.9624 2.6658 2.6785 0
M  V30 103 H 12.2754 5.87684 5.01844 0
M  V30 104 H 10.6204 5.28068 4.5185 0
M  V30 105 H 13.8114 3.36127 3.25785 0
M  V30 106 H 13.9844 4.82538 4.32505 0
M  V30 107 N 7.3905 -1.2043 1.01659 0
M  V30 108 C 8.3205 -2.25466 0.607226 0
M  V30 109 C 9.3015 -1.65853 -0.377716 0
M  V30 110 O 10.4865 -1.92409 -0.263149 0
M  V30 111 C 7.6165 -3.47256 -0.0552949 0
M  V30 112 C 6.5705 -4.19462 0.850632 0
M  V30 113 C 5.8965 -5.34673 0.0538859 0
M  V30 114 C 7.1965 -4.75603 2.15868 0
M  V30 115 H 8.8905 -2.59962 1.48526 0
M  V30 116 H 6.4365 -1.2496 0.715605 0
M  V30 117 H 8.3895 -4.19917 -0.353233 0
M  V30 118 H 7.1135 -3.11924 -0.968045 0
M  V30 119 H 5.7725 -3.48667 1.13257 0
M  V30 120 H 5.4205 -4.95585 -0.860514 0
M  V30 121 H 5.1205 -5.83913 0.657192 0
M  V30 122 H 6.6445 -6.10138 -0.237598 0
M  V30 123 H 8.0585 -5.40083 1.92311 0
M  V30 124 H 6.4555 -5.3528 2.71284 0
M  V30 125 H 7.5255 -3.94346 2.82169 0
M  V30 126 N 8.8686 -0.792821 -1.36206 0
M  V30 127 C 10.1086 -0.372238 -2.00982 0
M  V30 128 C 10.4726 1.03749 -1.61555 0
M  V30 129 O 11.6736 1.55934 -2.18948 0
M  V30 130 C 9.9446 -0.534566 -3.5338 0
M  V30 131 S 11.5036 -0.202365 -4.38333 0
M  V30 132 H 8.3216 -0.142044 -0.696667 0
M  V30 133 H 10.9236 -1.03206 -1.66039 0
M  V30 134 H 9.6276 -1.5608 -3.79562 0
M  V30 135 H 9.1586 0.141065 -3.93147 0
M  V30 136 H 11.1736 0.994869 -4.86124 0
M  V30 137 N 10.3467 1.47872 -0.545128 0
M  V30 138 C 11.5957 2.01695 -0.0145033 0
M  V30 139 C 11.9087 1.42609 1.33873 0
M  V30 140 O 13.1147 1.88021 1.95858 0
M  V30 141 C 11.5707 3.59892 0.0245068 0
M  V30 142 C 11.1787 4.27966 -1.32475 0
M  V30 143 C 12.9227 4.21507 0.50316 0
M  V30 144 C 10.8297 5.78136 -1.2455 0
M  V30 145 H 9.7597 0.753998 -0.00165172 0
M  V30 146 H 12.4107 1.69985 -0.691175 0
M  V30 147 H 10.7927 3.88509 0.766575 0
M  V30 148 H 11.9667 4.11003 -2.08357 0
M  V30 149 H 10.2817 3.78286 -1.74036 0
M  V30 150 H 12.8787 5.31538 0.580656 0
M  V30 151 H 13.2217 3.87855 1.51243 0
M  V30 152 H 13.7547 3.97376 -0.183681 0
M  V30 153 H 10.4937 6.16388 -2.23039 0
M  V30 154 H 10.0137 5.97469 -0.528282 0
M  V30 155 H 11.6927 6.40099 -0.942488 0
M  V30 156 N 11.8248 0.280983 1.55075 0
M  V30 157 C 13.0738 -0.334784 1.98902 0
M  V30 158 C 13.3868 -1.56534 1.17288 0
M  V30 159 O 14.5928 -2.25443 1.51287 0
M  V30 160 C 13.0488 -0.646994 3.54037 0
M  V30 161 C 12.6568 0.564085 4.44435 0
M  V30 162 C 14.4008 -1.22506 4.06439 0
M  V30 163 C 12.3078 0.226137 5.90967 0
M  V30 164 H 11.2378 -0.128866 0.742906 0
M  V30 165 H 13.8888 0.386556 1.79382 0
M  V30 166 H 12.2708 -1.42739 3.6938 0
M  V30 167 H 13.4448 1.34082 4.40861 0
M  V30 168 H 11.7598 1.0594 4.02698 0
M  V30 169 H 14.3568 -1.49182 5.13468 0
M  V30 170 H 14.6998 -2.16085 3.55827 0
M  V30 171 H 15.2328 -0.50682 3.94558 0
M  V30 172 H 11.9718 1.12996 6.45687 0
M  V30 173 H 11.4918 -0.513717 5.97596 0
M  V30 174 H 13.1708 -0.179539 6.46751 0
M  V30 175 N 13.3029 -1.57598 0.00835791 0
M  V30 176 C 14.5279 -1.95617 -0.689103 0
M  V30 177 C 14.9529 -0.883753 -1.66046 0
M  V30 178 O 14.3109 0.157352 -1.80616 0
M  V30 179 C 14.3589 -3.32736 -1.38994 0
M  V30 180 O 13.4629 -3.27631 -2.50463 0
M  V30 181 H 12.8039 -0.638379 -0.182668 0
M  V30 182 H 15.3339 -2.045 0.064036 0
M  V30 183 H 15.3439 -3.68494 -1.75147 0
M  V30 184 H 14.0189 -4.1034 -0.677778 0
M  V30 185 H 12.5959 -3.03561 -2.16576 0
M  V30 186 N 14.781 0.264519 -1.55364 0
M  V30 187 C 15.711 1.33121 -1.91836 0
M  V30 188 C 16.692 1.51101 -0.781192 0
M  V30 189 O 17.877 1.64003 -1.04003 0
M  V30 190 C 15.007 2.68921 -2.19769 0
M  V30 191 C 13.961 2.65661 -3.35571 0
M  V30 192 C 13.287 4.05093 -3.49004 0
M  V30 193 C 14.587 2.24187 -4.71739 0
M  V30 194 H 16.281 1.02844 -2.81182 0
M  V30 195 H 13.827 0.493286 -1.35287 0
M  V30 196 H 15.78 3.43663 -2.43872 0
M  V30 197 H 14.504 3.00799 -1.27231 0
M  V30 198 H 13.163 1.93377 -3.1145 0
M  V30 199 H 12.811 4.34206 -2.53917 0
M  V30 200 H 12.511 4.03804 -4.26868 0
M  V30 201 H 14.035 4.81561 -3.75408 0
M  V30 202 H 15.449 2.88654 -4.9533 0
M  V30 203 H 13.846 2.34044 -5.52579 0
M  V30 204 H 14.916 1.19327 -4.69988 0
M  V30 205 N 16.2591 1.48442 0.529413 0
M  V30 206 C 17.1891 1.65902 1.64313 0
M  V30 207 C 18.1701 0.507897 1.6234 0
M  V30 208 O 19.3551 0.740503 1.79528 0
M  V30 209 C 16.4851 1.69911 3.02898 0
M  V30 210 C 15.4391 2.8453 3.19729 0
M  V30 211 C 14.7651 2.73629 4.59381 0
M  V30 212 C 16.0651 4.25821 3.02447 0
M  V30 213 H 17.7591 2.5914 1.49955 0
M  V30 214 H 15.3051 1.24709 0.719982 0
M  V30 215 H 17.2581 1.80715 3.80684 0
M  V30 216 H 15.9821 0.732524 3.18279 0
M  V30 217 H 14.6411 2.73283 2.44361 0
M  V30 218 H 14.2891 1.74938 4.71599 0
M  V30 219 H 13.9891 3.50541 4.71588 0
M  V30 220 H 15.5131 2.86401 5.39265 0
M  V30 221 H 16.9271 4.37898 3.70024 0
M  V30 222 H 15.3241 5.03735 3.26146 0
M  V30 223 H 16.3941 4.42244 1.98867 0
M  V30 224 N 17.7372 -0.778329 1.37039 0
M  V30 225 C 18.7002 -1.87301 1.32102 0
M  V30 226 C 19.7002 -1.59198 0.226405 0
M  V30 227 O 20.8902 -1.67403 0.481861 0
M  V30 228 C 18.0222 -3.24309 1.05055 0
M  V30 229 H 19.2152 -1.93093 2.29467 0
M  V30 230 H 16.7682 -0.977358 1.21973 0
M  V30 231 H 17.5032 -3.24196 0.0819373 0
M  V30 232 H 17.2882 -3.46098 1.84279 0
M  V30 233 H 18.7782 -4.04382 1.04234 0
M  V30 234 N 19.2153 -1.21501 -1.00376 0
M  V30 235 C 20.4433 -1.059 -1.77744 0
M  V30 236 C 20.8583 0.391125 -1.84704 0
M  V30 237 O 20.2153 1.27133 -1.30933 0
M  V30 238 C 20.2663 -1.65111 -3.21591 0
M  V30 239 O 19.9873 -3.0445 -3.15027 0
M  V30 240 C 21.4883 -1.54637 -4.15454 0
M  V30 241 H 18.7083 -0.371825 -0.558558 0
M  V30 242 H 21.2523 -1.60865 -1.26264 0
M  V30 243 H 19.4073 -1.14235 -3.70175 0
M  V30 244 H 19.8213 -3.3278 -4.0541 0
M  V30 245 H 21.2953 -2.00808 -5.14179 0
M  V30 246 H 21.7723 -0.501022 -4.36333 0
M  V30 247 H 22.3783 -2.04767 -3.72761 0
M  V30 248 N 20.6934 1.19889 -1.02296 0
M  V30 249 C 21.6234 2.25141 -0.619174 0
M  V30 250 C 22.6044 1.66051 0.368915 0
M  V30 251 O 23.7894 1.92546 0.252941 0
M  V30 252 C 20.9194 3.4728 0.0368783 0
M  V30 253 C 19.8734 4.19005 -0.872865 0
M  V30 254 C 19.1994 5.34637 -0.0822402 0
M  V30 255 C 20.4994 4.74452 -2.18387 0
M  V30 256 H 22.1934 2.59171 -1.49903 0
M  V30 257 H 19.7394 1.24579 -0.722222 0
M  V30 258 H 21.6924 4.20098 0.330958 0
M  V30 259 H 20.4164 3.12433 0.95149 0
M  V30 260 H 19.0754 3.48061 -1.15105 0
M  V30 261 H 18.7234 4.96034 0.83422 0
M  V30 262 H 18.4234 5.83557 -0.688149 0
M  V30 263 H 19.9474 6.10255 0.205238 0
M  V30 264 H 21.3614 5.39055 -1.95172 0
M  V30 265 H 19.7584 5.33834 -2.74119 0
M  V30 266 H 20.8284 3.92844 -2.84257 0
M  V30 267 N 22.1715 0.800033 1.35784 0
M  V30 268 C 23.5825 0.439142 1.81462 0
M  V30 269 C 23.9335 -1.03813 1.66485 0
M  V30 270 O 23.0585 -1.80626 1.19177 0
M  V30 271 C 23.6535 0.790314 3.29453 0
M  V30 272 C 22.2125 0.482111 3.733 0
M  V30 273 C 21.3595 1.01938 2.57883 0
M  V30 274 H 24.3105 0.992254 1.23855 0
M  V30 275 H 24.3315 0.0853677 3.80404 0
M  V30 276 H 23.8435 1.86554 3.40322 0
M  V30 277 H 21.9445 -0.584652 3.67984 0
M  V30 278 H 22.0575 1.01015 4.6833 0
M  V30 279 H 20.4215 0.442043 2.50835 0
M  V30 280 H 21.2045 2.10059 2.71533 0
M  V30 281 N 23.6496 -1.47581 0.552962 0
M  V30 282 C 24.5796 -2.32762 -0.185451 0
M  V30 283 C 25.5606 -1.43527 -0.912905 0
M  V30 284 O 26.7456 -1.72388 -0.894201 0
M  V30 285 C 23.8756 -3.25219 -1.21859 0
M  V30 286 C 22.8296 -4.23661 -0.607864 0
M  V30 287 C 22.1556 -5.05413 -1.74533 0
M  V30 288 C 23.4556 -5.20481 0.435582 0
M  V30 289 H 25.1496 -2.94749 0.525684 0
M  V30 290 H 22.6956 -1.41738 0.254251 0
M  V30 291 H 24.6486 -3.8365 -1.7433 0
M  V30 292 H 23.3726 -2.61279 -1.95961 0
M  V30 293 H 22.0316 -3.66451 -0.104489 0
M  V30 294 H 21.6796 -4.3788 -2.47529 0
M  V30 295 H 21.3796 -5.72059 -1.34249 0
M  V30 296 H 22.9036 -5.66701 -2.27338 0
M  V30 297 H 24.3176 -5.733 -0.00290157 0
M  V30 298 H 22.7146 -5.95305 0.757067 0
M  V30 299 H 23.7846 -4.66217 1.33303 0
M  V30 300 N 25.1277 -0.289203 -1.54924 0
M  V30 301 C 26.0907 0.579144 -2.21762 0
M  V30 302 C 27.0907 1.07047 -1.1999 0
M  V30 303 O 28.2807 0.968384 -1.44803 0
M  V30 304 C 25.4127 1.80055 -2.8947 0
M  V30 305 H 26.6057 -0.00464908 -2.999 0
M  V30 306 H 24.1587 -0.0399306 -1.56249 0
M  V30 307 H 24.8937 2.42449 -2.15381 0
M  V30 308 H 24.6787 1.45602 -3.64064 0
M  V30 309 H 26.1687 2.41773 -3.40493 0
M  V30 310 N 26.6058 1.57591 -0.0167156 0
M  V30 311 C 27.8518 1.91567 0.665582 0
M  V30 312 C 28.1848 0.892298 1.72487 0
M  V30 313 O 27.4598 -0.0867127 1.94307 0
M  V30 314 C 27.7428 3.36069 1.29342 0
M  V30 315 C 27.5958 4.49135 0.244541 0
M  V30 316 C 28.9148 3.803 2.21495 0
M  V30 317 H 26.0338 0.69666 0.240488 0
M  V30 318 H 28.6758 1.89866 -0.0714356 0
M  V30 319 H 26.8258 3.3765 1.92158 0
M  V30 320 H 28.4978 4.59689 -0.385228 0
M  V30 321 H 26.7408 4.3165 -0.431379 0
M  V30 322 H 27.4118 5.47242 0.723207 0
M  V30 323 H 29.8878 3.80377 1.68678 0
M  V30 324 H 28.7638 4.82127 2.62382 0
M  V30 325 H 29.0248 3.15104 3.101 0
M  V30 326 N 28.0839 -0.256276 1.55502 0
M  V30 327 C 29.0339 -1.31981 1.85916 0
M  V30 328 C 30.0179 -1.43927 0.719296 0
M  V30 329 O 31.2099 -1.47326 0.981019 0
M  V30 330 C 28.3389 -2.67703 2.14918 0
M  V30 331 C 27.4249 -2.59801 3.35208 0
M  V30 332 N 27.8159 -2.21524 4.54709 0
M  V30 333 C 26.1139 -2.90832 3.38131 0
M  V30 334 C 26.8149 -2.24024 5.36832 0
M  V30 335 N 25.7909 -2.63158 4.75656 0
M  V30 336 H 29.5929 -1.01423 2.75845 0
M  V30 337 H 27.1069 -0.464911 1.55603 0
M  V30 338 H 29.1039 -3.44445 2.34869 0
M  V30 339 H 27.7639 -2.99137 1.26282 0
M  V30 340 H 28.7749 -1.93223 4.80505 0
M  V30 341 H 25.4519 -3.26867 2.59739 0
M  V30 342 H 26.8419 -1.9685 6.42417 0
M  V30 343 N 29.562 -1.4872 -0.521534 0
M  V30 344 C 30.525 -1.63379 -1.60748 0
M  V30 345 C 31.525 -0.50661 -1.52611 0
M  V30 346 O 32.715 -0.772601 -1.5613 0
M  V30 347 C 29.847 -1.61192 -3.00383 0
M  V30 348 H 31.04 -2.60217 -1.49087 0
M  V30 349 H 28.593 -1.37444 -0.744235 0
M  V30 350 H 29.328 -0.65863 -3.17541 0
M  V30 351 H 29.113 -2.43032 -3.07698 0
M  V30 352 H 30.603 -1.7466 -3.7932 0
M  V30 353 N 31.0401 0.771051 -1.3745 0
M  V30 354 C 32.2651 1.56529 -1.36065 0
M  V30 355 C 32.6901 1.88029 0.0515859 0
M  V30 356 O 32.0481 1.49282 1.02882 0
M  V30 357 C 32.0961 2.85187 -2.20683 0
M  V30 358 O 31.2001 3.79593 -1.61193 0
M  V30 359 H 30.5411 0.47411 -0.464883 0
M  V30 360 H 33.0711 0.954269 -1.80983 0
M  V30 361 H 33.0811 3.34283 -2.33921 0
M  V30 362 H 31.7561 2.61588 -3.23334 0
M  V30 363 H 30.3331 3.38239 -1.56999 0
M  V30 364 N 32.5182 1.22032 0.997298 0
M  V30 365 C 33.9292 1.0397 1.55071 0
M  V30 366 C 34.2802 -0.398192 1.92117 0
M  V30 367 O 33.4052 -1.28254 1.74298 0
M  V30 368 C 34.0002 1.88109 2.81781 0
M  V30 369 C 32.5592 1.74357 3.33581 0
M  V30 370 C 31.7062 1.84846 2.06706 0
M  V30 371 H 34.6572 1.35941 0.818883 0
M  V30 372 H 34.6782 1.39589 3.53971 0
M  V30 373 H 34.1902 2.92754 2.54787 0
M  V30 374 H 32.2912 0.72427 3.65493 0
M  V30 375 H 32.4042 2.56772 4.04481 0
M  V30 376 H 30.7682 1.28238 2.20062 0
M  V30 377 H 31.5512 2.91014 1.82114 0
M  V30 378 N 33.9963 -1.19345 1.0293 0
M  V30 379 C 34.9283 -2.22036 0.56857 0
M  V30 380 C 35.9413 -1.58865 -0.355779 0
M  V30 381 O 37.1303 -1.77851 -0.152103 0
M  V30 382 C 34.2303 -3.38363 -0.190752 0
M  V30 383 C 33.4033 -4.31118 0.738643 0
M  V30 384 C 32.4623 -5.26194 0.0246497 0
M  V30 385 O 31.4883 -5.65461 0.651354 0
M  V30 386 N 32.6903 -5.66971 -1.24594 0
M  V30 387 H 35.4553 -2.6219 1.45177 0
M  V30 388 H 33.0163 -1.34015 0.908381 0
M  V30 389 H 35.0083 -3.98981 -0.677961 0
M  V30 390 H 33.5783 -2.96994 -0.975366 0
M  V30 391 H 32.7983 -3.68276 1.40593 0
M  V30 392 H 34.0863 -4.90001 1.37029 0
M  V30 393 H 33.4843 -5.37104 -1.77583 0
M  V30 394 H 32.0413 -6.2984 -1.67764 0
M  V30 395 N 35.4744 -0.807222 -1.35358 0
M  V30 396 C 36.8854 -0.44876 -1.81226 0
M  V30 397 C 37.2364 1.02929 -1.67033 0
M  V30 398 O 36.3614 1.79991 -1.20133 0
M  V30 399 C 36.9564 -0.807774 -3.2903 0
M  V30 400 C 35.5154 -0.501901 -3.73039 0
M  V30 401 C 34.6624 -1.03304 -2.57339 0
M  V30 402 H 37.6134 -0.998808 -1.23327 0
M  V30 403 H 37.6344 -0.10554 -3.80354 0
M  V30 404 H 37.1464 -1.88357 -3.39328 0
M  V30 405 H 35.2474 0.565128 -3.68289 0
M  V30 406 H 35.3604 -1.03497 -4.67787 0
M  V30 407 H 33.7244 -0.455339 -2.50597 0
M  V30 408 H 34.5074 -2.11496 -2.70415 0
M  V30 409 N 36.9525 1.47285 -0.560781 0
M  V30 410 C 37.8825 2.32857 0.173105 0
M  V30 411 C 38.8635 1.44009 0.905281 0
M  V30 412 O 40.0485 1.7286 0.885046 0
M  V30 413 C 37.1785 3.25861 1.20133 0
M  V30 414 C 36.1325 4.23978 0.585388 0
M  V30 415 C 35.4585 5.06332 1.7185 0
M  V30 416 C 36.7585 5.20242 -0.463178 0
M  V30 417 H 38.4525 2.94466 -0.541307 0
M  V30 418 H 35.9985 1.41601 -0.261764 0
M  V30 419 H 37.9515 3.84569 1.72293 0
M  V30 420 H 36.6755 2.62315 1.94573 0
M  V30 421 H 35.3345 3.66501 0.085054 0
M  V30 422 H 34.9825 4.39186 2.45203 0
M  V30 423 H 34.6825 5.72762 1.31213 0
M  V30 424 H 36.2065 5.67899 2.24329 0
M  V30 425 H 37.6205 5.73293 -0.027502 0
M  V30 426 H 36.0175 5.94896 -0.788627 0
M  V30 427 H 37.0875 4.65504 -1.35773 0
M  V30 428 N 38.4306 0.297415 1.54768 0
M  V30 429 C 39.3406 -0.58983 2.27064 0
M  V30 430 C 40.3566 -1.15144 1.30453 0
M  V30 431 O 41.5326 -1.17699 1.63428 0
M  V30 432 C 38.5976 -1.74714 2.9946 0
M  V30 433 C 37.6586 -1.21997 4.11601 0
M  V30 434 C 36.8916 -2.32212 4.80535 0
M  V30 435 O 37.1146 -3.52036 4.48806 0
M  V30 436 O 36.0486 -1.99106 5.68014 0
M  V30 437 H 39.8746 -0.00348199 3.037 0
M  V30 438 H 37.4596 0.0640035 1.49263 0
M  V30 439 H 39.3416 -2.42147 3.44881 0
M  V30 440 H 38.0166 -2.32016 2.25722 0
M  V30 441 H 36.9236 -0.511458 3.70587 0
M  V30 442 H 38.2566 -0.692419 4.87305 0
M  V30 443 N 39.9087 -1.5758 0.0250728 0
M  V30 444 C 40.8407 -2.06869 -0.986796 0
M  V30 445 C 41.8537 -0.991332 -1.29137 0
M  V30 446 O 43.0427 -1.26761 -1.25674 0
M  V30 447 C 40.1427 -2.47486 -2.31525 0
M  V30 448 C 39.3157 -3.78253 -2.19643 0
M  V30 449 C 38.3747 -4.05464 -3.35388 0
M  V30 450 O 37.4007 -4.75774 -3.12454 0
M  V30 451 N 38.6027 -3.55321 -4.59051 0
M  V30 452 H 41.3677 -2.94302 -0.566276 0
M  V30 453 H 38.9287 -1.6109 -0.161776 0
M  V30 454 H 40.9207 -2.62785 -3.07776 0
M  V30 455 H 39.4907 -1.65441 -2.65232 0
M  V30 456 H 38.7107 -3.7279 -1.28144 0
M  V30 457 H 39.9987 -4.63936 -2.08903 0
M  V30 458 H 39.3967 -2.98431 -4.80578 0
M  V30 459 H 37.9537 -3.75905 -5.32483 0
M  V30 460 N 41.3868 0.248026 -1.55636 0
M  V30 461 C 42.6358 0.974134 -1.76617 0
M  V30 462 C 42.9488 1.86528 -0.588796 0
M  V30 463 O 44.1548 2.62805 -0.681594 0
M  V30 464 C 42.6108 1.78213 -3.12679 0
M  V30 465 C 42.2188 0.93843 -4.38061 0
M  V30 466 C 43.9628 2.50104 -3.42999 0
M  V30 467 C 41.8698 1.74225 -5.65155 0
M  V30 468 H 40.7998 0.36745 -0.658405 0
M  V30 469 H 43.4508 0.22884 -1.82067 0
M  V30 470 H 41.8328 2.56933 -3.01333 0
M  V30 471 H 43.0068 0.193635 -4.60393 0
M  V30 472 H 41.3218 0.332905 -4.15067 0
M  V30 473 H 43.9188 3.10694 -4.3517 0
M  V30 474 H 44.2618 3.21662 -2.64271 0
M  V30 475 H 44.7948 1.78395 -3.55556 0
M  V30 476 H 41.5338 1.07043 -6.46701 0
M  V30 477 H 41.0538 2.46235 -5.46926 0
M  V30 478 H 42.7328 2.30967 -6.0437 0
M  V30 479 N 42.8649 1.48995 0.513639 0
M  V30 480 C 43.8119 1.6473 1.61656 0
M  V30 481 C 44.7819 0.488984 1.58739 0
M  V30 482 O 45.9669 0.714478 1.76918 0
M  V30 483 C 43.1069 1.7082 2.99858 0
M  V30 484 C 42.2199 2.9787 3.12885 0
M  V30 485 C 41.3549 2.95017 4.41744 0
M  V30 486 C 40.3939 4.16702 4.48359 0
M  V30 487 N 39.5309 4.11832 5.68629 0
M  V30 488 H 44.3709 2.58909 1.47547 0
M  V30 489 H 41.9079 1.28382 0.71808 0
M  V30 490 H 43.8659 1.72331 3.79944 0
M  V30 491 H 42.4959 0.801181 3.12699 0
M  V30 492 H 41.5479 3.06029 2.25944 0
M  V30 493 H 42.8599 3.8786 3.13633 0
M  V30 494 H 42.0139 2.95021 5.30139 0
M  V30 495 H 40.7529 2.02784 4.43542 0
M  V30 496 H 39.7579 4.16955 3.58369 0
M  V30 497 H 40.9829 5.10113 4.48287 0
M  V30 498 H 38.9289 3.22428 5.71293 0
M  V30 499 H 38.8459 4.95543 5.7094 0
M  V30 500 H 40.1139 4.1592 6.59266 0
M  V30 501 N 44.343 -0.763751 1.37857 0
M  V30 502 C 45.273 -1.89103 1.36975 0
M  V30 503 C 46.254 -1.68439 0.237152 0
M  V30 504 O 47.439 -1.8918 0.438713 0
M  V30 505 C 44.569 -3.26496 1.18395 0
M  V30 506 C 43.523 -3.61741 2.28751 0
M  V30 507 C 42.849 -4.97762 1.95286 0
M  V30 508 C 44.149 -3.67665 3.70972 0
M  V30 509 H 45.843 -1.90099 2.31307 0
M  V30 510 H 43.389 -0.91319 1.11341 0
M  V30 511 H 45.342 -4.05003 1.16406 0
M  V30 512 H 44.066 -3.25955 0.205215 0
M  V30 513 H 42.725 -2.85547 2.29909 0
M  V30 514 H 42.373 -4.93769 0.959221 0
M  V30 515 H 42.073 -5.22313 2.69189 0
M  V30 516 H 43.597 -5.7866 1.94898 0
M  V30 517 H 45.011 -4.36307 3.719 0
M  V30 518 H 43.408 -4.03718 4.43995 0
M  V30 519 H 44.478 -2.68134 4.0402 0
M  V30 520 N 45.8211 -1.22559 -0.990812 0
M  V30 521 C 47.0461 -1.07862 -1.77145 0
M  V30 522 C 47.4711 0.366447 -1.84496 0
M  V30 523 O 46.8291 1.26478 -1.29896 0
M  V30 524 C 46.8771 -1.69686 -3.18181 0
M  V30 525 O 45.9811 -0.951946 -4.01263 0
M  V30 526 H 45.3221 -0.378712 -0.545411 0
M  V30 527 H 47.8521 -1.62399 -1.2445 0
M  V30 528 H 47.8621 -1.74496 -3.68802 0
M  V30 529 H 46.5371 -2.74841 -3.12146 0
M  V30 530 H 45.1141 -0.980011 -3.59792 0
M  V30 531 N 47.2992 1.18797 -1.03562 0
M  V30 532 C 48.2092 2.25913 -0.632505 0
M  V30 533 C 49.2252 1.70668 0.338882 0
M  V30 534 O 50.4012 2.00453 0.195076 0
M  V30 535 C 47.4662 3.467 0.00350942 0
M  V30 536 C 46.5272 4.17098 -1.01624 0
M  V30 537 C 45.7602 5.32119 -0.410478 0
M  V30 538 O 45.9832 5.64976 0.784725 0
M  V30 539 O 44.9172 5.9107 -1.13667 0
M  V30 540 H 48.7432 2.62648 -1.52478 0
M  V30 541 H 46.3282 1.25781 -0.806195 0
M  V30 542 H 48.2102 4.19878 0.35781 0
M  V30 543 H 46.8852 3.11798 0.869686 0
M  V30 544 H 45.7922 3.4601 -1.42224 0
M  V30 545 H 47.1252 4.55987 -1.85301 0
M  V30 546 N 48.7773 0.814389 1.34928 0
M  V30 547 C 50.0023 0.410097 2.03305 0
M  V30 548 C 50.4273 -0.973464 1.60951 0
M  V30 549 O 49.7853 -1.63185 0.789964 0
M  V30 550 C 49.8333 0.51049 3.56968 0
M  V30 551 O 48.9373 -0.473035 4.09678 0
M  V30 552 H 48.2783 0.170088 0.641846 0
M  V30 553 H 50.8083 1.10244 1.72358 0
M  V30 554 H 50.8183 0.383135 4.06197 0
M  V30 555 H 49.4933 1.51963 3.87144 0
M  V30 556 H 48.0703 -0.305272 3.71648 0
M  V30 557 N 50.2554 -1.46986 0.568584 0
M  V30 558 C 51.1874 -2.28233 -0.210337 0
M  V30 559 C 52.2004 -1.37682 -0.868767 0
M  V30 560 O 53.3894 -1.62406 -0.740705 0
M  V30 561 C 50.4894 -3.12293 -1.3163 0
M  V30 562 C 49.6624 -4.30878 -0.7525 0
M  V30 563 C 48.7214 -4.96445 -1.74439 0
M  V30 564 O 47.7474 -5.54482 -1.286 0
M  V30 565 N 48.9494 -4.92171 -3.07812 0
M  V30 566 H 51.7144 -2.95723 0.486648 0
M  V30 567 H 49.2754 -1.56742 0.405409 0
M  V30 568 H 51.2674 -3.53022 -1.97883 0
M  V30 569 H 49.8374 -2.46971 -1.91636 0
M  V30 570 H 49.0574 -3.94104 0.0871128 0
M  V30 571 H 50.3454 -5.07558 -0.35536 0
M  V30 572 H 49.7434 -4.46239 -3.47688 0
M  V30 573 H 48.3004 -5.36884 -3.69592 0
M  V30 574 N 51.7335 -0.305618 -1.54608 0
M  V30 575 C 52.6635 0.561482 -2.26649 0
M  V30 576 C 53.6445 1.13415 -1.26772 0
M  V30 577 O 54.8295 1.16262 -1.55553 0
M  V30 578 C 51.9595 1.73122 -3.01075 0
M  V30 579 C 50.9135 1.2887 -4.08138 0
M  V30 580 C 50.2395 2.54396 -4.70305 0
M  V30 581 C 51.5395 0.416578 -5.20636 0
M  V30 582 H 53.2335 -0.0393902 -2.99374 0
M  V30 583 H 50.7795 -0.020385 -1.43986 0
M  V30 584 H 52.7325 2.34396 -3.50195 0
M  V30 585 H 51.4565 2.3584 -2.25936 0
M  V30 586 H 50.1155 0.698991 -3.59875 0
M  V30 587 H 49.7635 3.15439 -3.918 0
M  V30 588 H 49.4635 2.25486 -5.42614 0
M  V30 589 H 50.9875 3.16464 -5.2219 0
M  V30 590 H 52.4015 0.935116 -5.65622 0
M  V30 591 H 50.7985 0.221046 -5.99693 0
M  V30 592 H 51.8685 -0.557162 -4.81688 0
M  V30 593 N 53.2116 1.57565 -0.0334293 0
M  V30 594 C 54.4366 1.96689 0.657895 0
M  V30 595 C 54.8616 0.910057 1.64619 0
M  V30 596 O 54.2196 -0.128598 1.80843 0
M  V30 597 C 54.2676 3.34905 1.33683 0
M  V30 598 O 53.3716 3.31574 2.45219 0
M  V30 599 H 52.7126 0.641205 0.172489 0
M  V30 600 H 55.2426 2.04372 -0.0965621 0
M  V30 601 H 55.2526 3.71234 1.69262 0
M  V30 602 H 53.9276 4.11366 0.612411 0
M  V30 603 H 52.5046 3.06968 2.11719 0
M  V30 604 N 54.6897 -0.239769 1.55765 0
M  V30 605 C 55.9377 -0.964892 1.77579 0
M  V30 606 C 56.2587 -1.85582 0.598699 0
M  V30 607 O 55.5287 -1.92075 -0.385226 0
M  V30 608 H 54.1087 -0.359265 0.654933 0
M  V30 609 H 56.7707 -0.256001 1.93211 0
M  V30 610 H 55.8667 -1.58243 2.69009 0
M  V30 611 N 56.1678 -1.49265 -0.50573 0
M  V30 612 C 57.5838 -1.35923 -0.836486 0
M  V30 613 C 57.7838 -0.388704 -1.97715 0
M  V30 614 O 56.8398 0.181336 -2.51848 0
M  V30 615 C 58.1528 -2.76531 -1.18115 0
M  V30 616 C 59.7008 -2.85197 -1.28964 0
M  V30 617 C 60.1758 -4.26561 -1.66761 0
M  V30 618 N 61.6668 -4.2935 -1.73819 0
M  V30 619 C 62.4018 -5.35693 -2.045 0
M  V30 620 N 61.8978 -6.52287 -2.33438 0
M  V30 621 N 63.6908 -5.23105 -2.05711 0
M  V30 622 H 55.8418 -2.10965 0.246519 0
M  V30 623 H 58.1048 -0.9468 0.0476887 0
M  V30 624 H 57.8108 -3.49226 -0.416398 0
M  V30 625 H 57.6848 -3.11599 -2.1257 0
M  V30 626 H 60.0718 -2.12742 -2.04511 0
M  V30 627 H 60.1528 -2.53718 -0.325704 0
M  V30 628 H 59.7968 -4.99541 -0.917656 0
M  V30 629 H 59.7268 -4.55502 -2.64246 0
M  V30 630 H 62.2178 -3.4526 -1.53635 0
M  V30 631 H 62.5308 -7.29158 -2.56024 0
M  V30 632 H 60.8758 -6.55521 -2.30905 0
M  V30 633 H 64.0668 -4.31026 -1.82577 0
M  V30 634 H 64.2398 -6.06078 -2.29289 0
M  V30 635 N 57.6459 0.756429 -1.3826 0
M  V30 636 C 58.8919 1.51772 -1.34511 0
M  V30 637 C 59.2249 1.94089 0.0656691 0
M  V30 638 O 58.4999 1.65221 1.02626 0
M  V30 639 C 58.7829 2.77226 -2.29821 0
M  V30 640 C 58.6359 2.41065 -3.79747 0
M  V30 641 C 59.9549 3.79236 -2.23312 0
M  V30 642 H 57.0739 0.550578 -0.489931 0
M  V30 643 H 59.7159 0.866607 -1.69086 0
M  V30 644 H 57.8659 3.32784 -2.00467 0
M  V30 645 H 59.5379 1.91303 -4.19763 0
M  V30 646 H 57.7809 1.7356 -3.97567 0
M  V30 647 H 58.4519 3.3081 -4.41892 0
M  V30 648 H 60.9279 3.3321 -2.49219 0
M  V30 649 H 59.8039 4.64714 -2.92116 0
M  V30 650 H 60.0649 4.24615 -1.23102 0
M  V30 651 N 59.124 1.23083 0.984299 0
M  V30 652 C 60.372 1.05848 1.72165 0
M  V30 653 C 60.693 -0.406049 1.90726 0
M  V30 654 O 59.963 -1.29139 1.47309 0
M  V30 655 H 58.543 0.388685 0.637913 0
M  V30 656 H 61.205 1.54736 1.18503 0
M  V30 657 H 60.301 1.54327 2.71274 0
M  V30 658 N 60.6021 -1.18246 1.0419 0
M  V30 659 C 61.5351 -2.20746 0.578474 0
M  V30 660 C 62.5131 -1.57912 -0.387624 0
M  V30 661 O 63.6971 -1.86071 -0.301634 0
M  V30 662 C 60.8241 -3.38346 -0.154762 0
M  V30 663 C 59.8701 -4.19587 0.764782 0
M  V30 664 S 60.7031 -4.86014 2.24835 0
M  V30 665 C 61.8591 -6.07012 1.526 0
M  V30 666 H 62.0921 -2.59715 1.44691 0
M  V30 667 H 59.6251 -1.287 0.85297 0
M  V30 668 H 61.5831 -4.065 -0.571641 0
M  V30 669 H 60.2441 -2.97786 -0.999105 0
M  V30 670 H 59.4371 -5.03611 0.197976 0
M  V30 671 H 59.0391 -3.56818 1.12057 0
M  V30 672 H 61.3311 -6.72523 0.819733 0
M  V30 673 H 62.2741 -6.68202 2.34333 0
M  V30 674 H 62.6821 -5.55249 1.01779 0
M  V30 675 N 62.0802 -0.821533 -1.34494 0
M  V30 676 C 63.3292 -0.405355 -1.97585 0
M  V30 677 C 63.6422 1.03677 -1.65863 0
M  V30 678 O 64.8482 1.55679 -2.22433 0
M  V30 679 C 63.3042 -0.673861 -3.53535 0
M  V30 680 C 62.9122 -2.12951 -3.94152 0
M  V30 681 C 64.6562 -0.32378 -4.23263 0
M  V30 682 C 62.5632 -2.34298 -5.43009 0
M  V30 683 H 61.4932 -0.147836 -0.739365 0
M  V30 684 H 64.1442 -1.00769 -1.53355 0
M  V30 685 H 62.5262 -0.00137554 -3.96 0
M  V30 686 H 63.7002 -2.84104 -3.62797 0
M  V30 687 H 62.0152 -2.44089 -3.37356 0
M  V30 688 H 64.6122 -0.461126 -5.32708 0
M  V30 689 H 64.9552 0.731586 -4.09821 0
M  V30 690 H 65.4882 -0.950786 -3.8627 0
M  V30 691 H 62.2272 -3.38335 -5.61435 0
M  V30 692 H 61.7472 -1.67687 -5.75883 0
M  V30 693 H 63.4262 -2.16588 -6.09671 0
M  V30 694 N 63.5583 1.46682 -0.576371 0
M  V30 695 C 64.4683 2.34032 0.163141 0
M  V30 696 C 65.4843 1.49367 0.892501 0
M  V30 697 O 66.6603 1.82252 0.857106 0
M  V30 698 C 63.7253 3.26435 1.16795 0
M  V30 699 C 62.7863 4.26998 0.443944 0
M  V30 700 C 62.0193 5.14986 1.40088 0
M  V30 701 O 62.2423 5.05785 2.637 0
M  V30 702 O 61.1763 5.94906 0.914917 0
M  V30 703 H 65.0023 2.98607 -0.55388 0
M  V30 704 H 62.5873 1.45554 -0.336821 0
M  V30 705 H 64.4693 3.83459 1.74748 0
M  V30 706 H 63.1443 2.64465 1.86655 0
M  V30 707 H 62.0513 3.7368 -0.177271 0
M  V30 708 H 63.3843 4.91736 -0.213566 0
M  V30 709 N 65.0364 0.313813 1.54444 0
M  V30 710 C 65.9694 -0.598866 2.20202 0
M  V30 711 C 66.9474 -1.12318 1.17573 0
M  V30 712 O 68.1314 -1.18899 1.46271 0
M  V30 713 C 65.2584 -1.82071 2.85601 0
M  V30 714 C 64.3044 -1.42851 4.01865 0
M  V30 715 S 65.1374 -0.473512 5.33402 0
M  V30 716 C 66.2934 -1.70286 6.0229 0
M  V30 717 H 66.5264 -0.0402532 2.97273 0
M  V30 718 H 64.0594 0.0979165 1.54089 0
M  V30 719 H 66.0174 -2.52184 3.23904 0
M  V30 720 H 64.6784 -2.3505 2.08351 0
M  V30 721 H 63.8714 -2.33871 4.46453 0
M  V30 722 H 63.4734 -0.807198 3.65185 0
M  V30 723 H 65.7654 -2.64168 6.23876 0
M  V30 724 H 66.7084 -1.29932 6.96077 0
M  V30 725 H 67.1164 -1.88541 5.32083 0
M  V30 726 N 66.5145 -1.57545 0.0417849 0
M  V30 727 C 67.7915 -1.83642 -0.673433 0
M  V30 728 C 68.1715 -0.928298 -1.89594 0
M  V30 729 O 67.5195 0.0129955 -2.28496 0
M  V30 730 C 67.7295 -3.33155 -1.03964 0
M  V30 731 C 69.0775 -3.99941 -1.42592 0
M  V30 732 O 70.1015 -3.37725 -1.13226 0
M  V30 733 O 68.9605 -5.09619 -1.9736 0
M  V30 734 H 66.0545 -0.757638 -0.331533 0
M  V30 735 H 68.6005 -1.69554 0.070433 0
M  V30 736 H 67.3725 -3.9093 -0.170098 0
M  V30 737 H 66.9955 -3.52396 -1.84126 0
M  V30 738 N 67.9926 0.231505 -1.5589 0
M  V30 739 C 68.9226 1.29022 -1.94617 0
M  V30 740 C 69.9036 1.4941 -0.813067 0
M  V30 741 O 71.0886 1.6176 -1.07459 0
M  V30 742 C 68.2186 2.64199 -2.25424 0
M  V30 743 C 67.1726 2.58484 -3.41131 0
M  V30 744 C 66.4986 3.97599 -3.57518 0
M  V30 745 C 67.7986 2.1413 -4.76388 0
M  V30 746 H 69.4926 0.968563 -2.83301 0
M  V30 747 H 67.0386 0.464479 -1.36303 0
M  V30 748 H 68.9916 3.38413 -2.51107 0
M  V30 749 H 67.7156 2.98032 -1.33583 0
M  V30 750 H 66.3746 1.86727 -3.15481 0
M  V30 751 H 66.0226 4.28723 -2.6307 0
M  V30 752 H 65.7226 3.94659 -4.35337 0
M  V30 753 H 67.2466 4.7349 -3.85538 0
M  V30 754 H 68.6606 2.78083 -5.01341 0
M  V30 755 H 67.0576 2.2227 -5.57419 0
M  V30 756 H 68.1276 1.09331 -4.72414 0
M  V30 757 N 69.4707 1.49531 0.497807 0
M  V30 758 C 70.4337 1.65916 1.58128 0
M  V30 759 C 71.4337 0.530825 1.51786 0
M  V30 760 O 72.6237 0.797342 1.54881 0
M  V30 761 C 69.7557 1.65951 2.9778 0
M  V30 762 H 70.9487 2.62556 1.44929 0
M  V30 763 H 68.5017 1.38611 0.722275 0
M  V30 764 H 69.2367 0.709065 3.16453 0
M  V30 765 H 69.0217 2.47897 3.03792 0
M  V30 766 H 70.5117 1.80673 3.76493 0
M  V30 767 N 70.9488 -0.749086 1.3866 0
M  V30 768 C 72.1738 -1.54344 1.38538 0
M  V30 769 C 72.5988 -1.88088 -0.0216655 0
M  V30 770 O 71.9568 -1.50899 -1.00494 0
M  V30 771 C 72.0048 -2.8164 2.25192 0
M  V30 772 O 71.1088 -3.7698 1.67212 0
M  V30 773 H 70.4498 -0.466654 0.472367 0
M  V30 774 H 72.9798 -0.925355 1.82478 0
M  V30 775 H 72.9898 -3.30519 2.3921 0
M  V30 776 H 71.6648 -2.56411 3.27454 0
M  V30 777 H 70.2418 -3.35699 1.6236 0
M  V30 778 N 72.4269 -1.23603 -0.977757 0
M  V30 779 C 73.6749 -1.06759 -1.71601 0
M  V30 780 C 73.9959 0.395929 -1.90938 0
M  V30 781 O 73.2659 1.28356 -1.47992 0
M  V30 782 H 71.8459 -0.392062 -0.635843 0
M  V30 783 H 74.5079 -1.55362 -1.1768 0
M  V30 784 H 73.6039 -1.55763 -2.70452 0
M  V30 785 N 73.905 1.17692 -1.04816 0
M  V30 786 C 75.321 1.39863 -0.768794 0
M  V30 787 C 75.521 1.91118 0.638451 0
M  V30 788 O 74.577 2.10036 1.40146 0
M  V30 789 C 75.89 2.39274 -1.82122 0
M  V30 790 C 77.438 2.52987 -1.843 0
M  V30 791 C 77.913 3.55669 -2.88555 0
M  V30 792 N 79.404 3.63183 -2.87493 0
M  V30 793 C 80.139 4.42381 -3.64811 0
M  V30 794 N 79.635 5.25125 -4.51903 0
M  V30 795 N 81.428 4.37217 -3.53267 0
M  V30 796 H 73.579 0.82752 -1.95617 0
M  V30 797 H 75.842 0.426123 -0.846831 0
M  V30 798 H 75.548 2.08678 -2.83102 0
M  V30 799 H 75.422 3.38725 -1.65967 0
M  V30 800 H 77.809 2.82896 -0.839869 0
M  V30 801 H 77.89 1.53623 -2.04532 0
M  V30 802 H 77.534 3.26499 -3.89051 0
M  V30 803 H 77.464 4.54728 -2.65575 0
M  V30 804 H 79.955 3.04103 -2.24343 0
M  V30 805 H 80.268 5.82728 -5.07591 0
M  V30 806 H 78.613 5.24519 -4.55966 0
M  V30 807 H 81.804 3.71626 -2.84625 0
M  V30 808 H 81.977 4.98696 -4.13771 0
M  V30 809 N 75.3831 0.828654 1.34056 0
M  V30 810 C 76.6111 0.43262 2.02326 0
M  V30 811 C 77.0261 -0.963147 1.62385 0
M  V30 812 O 76.3831 -1.62425 0.832121 0
M  V30 813 C 76.4341 0.53182 3.57567 0
M  V30 814 O 76.1551 1.87258 3.96063 0
M  V30 815 C 77.6561 0.131422 4.43105 0
M  V30 816 H 74.8761 0.172923 0.648335 0
M  V30 817 H 77.4201 1.1184 1.71208 0
M  V30 818 H 75.5751 -0.105938 3.87255 0
M  V30 819 H 75.9891 1.85087 4.90758 0
M  V30 820 H 77.4631 0.251904 5.51425 0
M  V30 821 H 77.9401 -0.925645 4.29335 0
M  V30 822 H 78.5461 0.743207 4.18756 0
M  V30 823 N 76.8612 -1.46375 0.584142 0
M  V30 824 C 77.7912 -2.33103 -0.136037 0
M  V30 825 C 78.7722 -1.45431 -0.882255 0
M  V30 826 O 79.9572 -1.74246 -0.857434 0
M  V30 827 C 77.0872 -3.27731 -1.14933 0
M  V30 828 C 76.0412 -4.24855 -0.517862 0
M  V30 829 C 75.3672 -5.09001 -1.63773 0
M  V30 830 C 76.6672 -5.19439 0.545886 0
M  V30 831 H 78.3612 -2.93568 0.588086 0
M  V30 832 H 75.9072 -1.41166 0.284259 0
M  V30 833 H 77.8602 -3.87261 -1.66153 0
M  V30 834 H 76.5842 -2.65377 -1.90375 0
M  V30 835 H 75.2432 -3.6659 -0.0267361 0
M  V30 836 H 74.8912 -4.43031 -2.38185 0
M  V30 837 H 74.5912 -5.74777 -1.22085 0
M  V30 838 H 76.1152 -5.71396 -2.15266 0
M  V30 839 H 77.5292 -5.73177 0.118704 0
M  V30 840 H 75.9262 -5.93566 0.88317 0
M  V30 841 H 76.9962 -4.63285 1.43162 0
M  V30 842 N 78.3393 -0.321999 -1.54275 0
M  V30 843 C 79.5673 0.283052 -2.04955 0
M  V30 844 C 79.9823 1.45904 -1.19823 0
M  V30 845 O 79.3393 1.81063 -0.228545 0
M  V30 846 C 79.3903 0.719028 -3.54277 0
M  V30 847 O 79.1113 -0.410175 -4.36176 0
M  V30 848 C 80.6123 1.38705 -4.21041 0
M  V30 849 H 77.8323 0.0584616 -0.668448 0
M  V30 850 H 80.3763 -0.467734 -1.99079 0
M  V30 851 H 78.5313 1.41979 -3.60445 0
M  V30 852 H 78.9453 -0.0669416 -5.24457 0
M  V30 853 H 80.4193 1.64306 -5.2698 0
M  V30 854 H 80.8963 2.33385 -3.72059 0
M  V30 855 H 81.5023 0.728906 -4.19007 0
M  V30 856 N 79.8174 1.5752 -0.0501392 0
M  V30 857 C 80.7804 2.1037 0.909786 0
M  V30 858 C 81.7804 1.02308 1.24056 0
M  V30 859 O 82.9704 1.28385 1.17741 0
M  V30 860 C 80.1024 2.58708 2.21998 0
M  V30 861 H 81.2954 2.96479 0.451665 0
M  V30 862 H 78.8484 1.55038 0.198248 0
M  V30 863 H 79.5834 1.75989 2.72394 0
M  V30 864 H 79.3684 3.37675 1.99295 0
M  V30 865 H 80.8584 2.99747 2.9076 0
M  V30 866 N 81.2955 -0.223234 1.56011 0
M  V30 867 C 82.5415 -0.944891 1.8012 0
M  V30 868 C 82.8965 -1.82039 0.622862 0
M  V30 869 O 82.1895 -1.8773 -0.383143 0
M  V30 870 C 82.3835 -1.81948 3.0762 0
M  V30 871 C 82.2125 -1.03014 4.37742 0
M  V30 872 C 80.9825 -0.72574 5.00061 0
M  V30 873 C 83.1805 -0.396256 5.12771 0
M  V30 874 N 81.1625 0.0851816 6.13841 0
M  V30 875 C 82.5335 0.278137 6.19376 0
M  V30 876 C 84.5885 -0.309117 4.9694 0
M  V30 877 C 83.2915 1.03133 7.11868 0
M  V30 878 C 85.3175 0.430607 5.8983 0
M  V30 879 C 84.6795 1.09355 6.9586 0
M  V30 880 H 80.7785 -0.326081 0.710771 0
M  V30 881 H 83.3625 -0.215914 1.93499 0
M  V30 882 H 81.5335 -2.52029 2.95527 0
M  V30 883 H 83.2655 -2.47848 3.19927 0
M  V30 884 H 80.0205 -1.04335 4.61964 0
M  V30 885 H 80.4445 0.479428 6.753 0
M  V30 886 H 85.0865 -0.807313 4.15021 0
M  V30 887 H 82.8045 1.54105 7.9327 0
M  V30 888 H 86.3905 0.499012 5.79656 0
M  V30 889 H 85.2705 1.65679 7.66499 0
M  V30 890 N 82.7736 -1.49793 -0.48987 0
M  V30 891 C 84.1896 -1.36803 -0.822022 0
M  V30 892 C 84.3896 -0.409652 -1.97292 0
M  V30 893 O 83.4456 0.154614 -2.52026 0
M  V30 894 C 84.7586 -2.77768 -1.15175 0
M  V30 895 C 86.3066 -2.86549 -1.25931 0
M  V30 896 C 86.7816 -4.28306 -1.62228 0
M  V30 897 N 88.2726 -4.31169 -1.69256 0
M  V30 898 C 89.0076 -5.37832 -1.98807 0
M  V30 899 N 88.5036 -6.54726 -2.26507 0
M  V30 900 N 90.2966 -5.25258 -2.00152 0
M  V30 901 H 82.4476 -2.10691 0.268881 0
M  V30 902 H 84.7106 -0.946241 0.057728 0
M  V30 903 H 84.4166 -3.49648 -0.379335 0
M  V30 904 H 84.2906 -3.13836 -2.09253 0
M  V30 905 H 86.6776 -2.14899 -2.02243 0
M  V30 906 H 86.7586 -2.54049 -0.298776 0
M  V30 907 H 86.4026 -5.00486 -0.864622 0
M  V30 908 H 86.3326 -4.58279 -2.594 0
M  V30 909 H 88.8236 -3.4687 -1.49965 0
M  V30 910 H 89.1366 -7.31833 -2.48276 0
M  V30 911 H 87.4816 -6.57933 -2.23939 0
M  V30 912 H 90.6726 -4.32938 -1.77996 0
M  V30 913 H 90.8456 -6.08476 -2.22848 0
M  V30 914 N 84.2517 0.741722 -1.39055 0
M  V30 915 C 85.2147 1.83733 -1.37021 0
M  V30 916 C 86.2147 1.58542 -0.268534 0
M  V30 917 O 87.4047 1.66067 -0.526076 0
M  V30 918 C 84.5367 3.2141 -1.13617 0
M  V30 919 H 85.7297 1.86941 -2.34506 0
M  V30 920 H 83.2827 0.944676 -1.24521 0
M  V30 921 H 84.0177 3.23865 -0.167863 0
M  V30 922 H 83.8027 3.4109 -1.93391 0
M  V30 923 H 85.2927 4.01477 -1.14918 0
M  V30 924 N 85.7298 1.2412 0.971189 0
M  V30 925 C 87.0068 0.986867 1.6888 0
M  V30 926 C 87.3868 -0.491857 2.0529 0
M  V30 927 O 86.7348 -1.46531 1.75331 0
M  V30 928 C 86.9448 1.9063 2.92338 0
M  V30 929 C 88.2928 2.17515 3.64654 0
M  V30 930 O 89.3168 1.88254 3.02388 0
M  V30 931 O 88.1758 2.6719 4.7673 0
M  V30 932 H 85.2698 0.372944 0.738134 0
M  V30 933 H 87.8158 1.35203 1.02559 0
M  V30 934 H 86.5878 2.90552 2.62097 0
M  V30 935 H 86.2108 1.54408 3.66393 0
M  V30 936 N 87.2079 -1.17134 1.05439 0
M  V30 937 C 88.1179 -2.24878 0.668365 0
M  V30 938 C 89.1339 -1.71186 -0.311687 0
M  V30 939 O 90.3099 -2.00738 -0.163161 0
M  V30 940 C 87.3749 -3.46662 0.051648 0
M  V30 941 C 86.4359 -4.15429 1.08246 0
M  V30 942 C 85.6689 -5.31399 0.495082 0
M  V30 943 O 85.8919 -5.66153 -0.694743 0
M  V30 944 O 84.8259 -5.89187 1.23056 0
M  V30 945 H 88.6519 -2.60189 1.56637 0
M  V30 946 H 86.2369 -1.24482 0.826104 0
M  V30 947 H 88.1189 -4.20394 -0.290966 0
M  V30 948 H 86.7939 -3.13142 -0.819971 0
M  V30 949 H 85.7009 -3.43704 1.47711 0
M  V30 950 H 87.0339 -4.52982 1.92532 0
M  V30 951 N 88.686 -0.835752 -1.33615 0
M  V30 952 C 90.102 -0.523139 -1.50783 0
M  V30 953 C 90.302 0.950171 -1.77691 0
M  V30 954 O 89.358 1.73411 -1.83534 0
M  V30 955 C 90.671 -1.39378 -2.66448 0
M  V30 956 C 92.219 -1.39223 -2.80332 0
M  V30 957 C 92.694 -2.24765 -3.99055 0
M  V30 958 N 94.185 -2.22458 -4.06284 0
M  V30 959 C 94.92 -2.85386 -4.97336 0
M  V30 960 N 94.416 -3.57354 -5.93523 0
M  V30 961 N 96.209 -2.74872 -4.90308 0
M  V30 962 H 88.36 -1.78952 -1.14411 0
M  V30 963 H 90.623 -0.763297 -0.562212 0
M  V30 964 H 90.329 -2.44061 -2.53234 0
M  V30 965 H 90.203 -1.0676 -3.61776 0
M  V30 966 H 92.59 -0.353136 -2.92979 0
M  V30 967 H 92.671 -1.75846 -1.85773 0
M  V30 968 H 92.315 -3.28732 -3.87167 0
M  V30 969 H 92.245 -1.85485 -4.92852 0
M  V30 970 H 94.736 -1.70119 -3.37443 0
M  V30 971 H 95.049 -4.02584 -6.59656 0
M  V30 972 H 93.394 -3.61461 -5.93608 0
M  V30 973 H 96.585 -2.18213 -4.14126 0
M  V30 974 H 96.758 -3.24199 -5.61069 0
M  V30 975 N 90.1641 1.46063 -0.591896 0
M  V30 976 C 91.4111 2.02338 -0.0809991 0
M  V30 977 C 91.7391 1.46228 1.28249 0
M  V30 978 O 90.9941 0.620818 1.85592 0
M  V30 979 C 91.2931 3.57391 0.0249813 0
M  V30 980 C 90.9591 4.32583 -1.27211 0
M  V30 981 C 89.6211 4.52844 -1.62745 0
M  V30 982 C 91.9731 4.75687 -2.13005 0
M  V30 983 C 89.3011 5.13462 -2.83855 0
M  V30 984 C 91.6531 5.37644 -3.3335 0
M  V30 985 C 90.3171 5.5613 -3.69155 0
M  V30 986 H 89.5871 0.740407 -0.0296397 0
M  V30 987 H 92.2341 1.75321 -0.770374 0
M  V30 988 H 90.5391 3.83597 0.797537 0
M  V30 989 H 92.2361 3.98621 0.436184 0
M  V30 990 H 88.8261 4.17116 -0.985499 0
M  V30 991 H 93.0101 4.59782 -1.86855 0
M  V30 992 H 88.2661 5.25965 -3.11722 0
M  V30 993 H 92.4401 5.7 -4.00092 0
M  V30 994 H 90.0671 6.0287 -4.63089 0
M  V30 995 N 91.6422 0.330177 1.54103 0
M  V30 996 C 93.0532 -0.15652 1.86043 0
M  V30 997 C 93.4042 -1.51086 1.2517 0
M  V30 998 O 92.5292 -2.09023 0.560217 0
M  V30 999 C 93.1242 -0.290784 3.3755 0
M  V30 1000 C 91.6832 -0.721705 3.69416 0
M  V30 1001 C 90.8302 0.152622 2.7688 0
M  V30 1002 H 93.7812 0.550237 1.48856 0
M  V30 1003 H 93.8022 -1.12058 3.63625 0
M  V30 1004 H 93.3142 0.695068 3.81825 0
M  V30 1005 H 91.4152 -1.71706 3.30678 0
M  V30 1006 H 91.5282 -0.520869 4.7626 0
M  V30 1007 H 89.8922 -0.372894 2.51956 0
M  V30 1008 H 90.6752 1.13536 3.23982 0
M  V30 1009 N 93.1203 -1.57491 0.0584922 0
M  V30 1010 C 94.0533 -2.07533 -0.948969 0
M  V30 1011 C 95.0313 -0.977444 -1.29942 0
M  V30 1012 O 96.2153 -1.2499 -1.41102 0
M  V30 1013 C 93.3423 -2.52192 -2.2609 0
M  V30 1014 C 92.3883 -3.73287 -2.06298 0
M  V30 1015 S 93.2213 -5.18603 -1.33459 0
M  V30 1016 C 94.3773 -5.66583 -2.65959 0
M  V30 1017 H 94.6103 -2.92662 -0.523118 0
M  V30 1018 H 92.1433 -1.53631 -0.153954 0
M  V30 1019 H 94.1013 -2.78585 -3.01498 0
M  V30 1020 H 92.7623 -1.67356 -2.65802 0
M  V30 1021 H 91.9553 -4.0248 -3.03357 0
M  V30 1022 H 91.5573 -3.47199 -1.39029 0
M  V30 1023 H 93.8493 -5.72616 -3.62101 0
M  V30 1024 H 94.7923 -6.65684 -2.41393 0
M  V30 1025 H 95.2003 -4.94342 -2.72554 0
M  V30 1026 N 94.5984 0.214957 -1.56127 0
M  V30 1027 C 95.5314 1.29382 -1.87977 0
M  V30 1028 C 96.5094 1.44897 -0.737807 0
M  V30 1029 O 97.6934 1.60605 -0.986833 0
M  V30 1030 C 94.8204 2.66325 -2.09258 0
M  V30 1031 C 93.8664 2.67789 -3.31951 0
M  V30 1032 S 94.6994 2.21198 -4.8768 0
M  V30 1033 C 95.8554 3.60003 -5.12004 0
M  V30 1034 H 96.0884 1.02173 -2.79192 0
M  V30 1035 H 93.6214 0.417516 -1.48648 0
M  V30 1036 H 95.5794 3.45162 -2.22201 0
M  V30 1037 H 94.2404 2.90755 -1.18829 0
M  V30 1038 H 93.4334 3.68436 -3.43906 0
M  V30 1039 H 93.0354 1.9702 -3.17898 0
M  V30 1040 H 95.3274 4.55739 -5.01307 0
M  V30 1041 H 96.2704 3.52959 -6.13861 0
M  V30 1042 H 96.6784 3.53996 -4.39712 0
M  V30 1043 N 96.0765 1.50051 0.48192 0
M  V30 1044 C 97.3015 1.64508 1.26301 0
M  V30 1045 C 97.7265 0.323851 1.85291 0
M  V30 1046 O 97.0845 -0.710969 1.66778 0
M  V30 1047 C 97.1325 2.7305 2.35533 0
M  V30 1048 O 96.2365 2.3355 3.39895 0
M  V30 1049 H 95.5775 0.549978 0.372048 0
M  V30 1050 H 98.1075 1.9636 0.574786 0
M  V30 1051 H 98.1175 2.95799 2.8101 0
M  V30 1052 H 96.7925 3.68946 1.91967 0
M  V30 1053 H 95.3695 2.21205 3.00204 0
M  V30 1054 N 97.5546 -0.734337 1.39446 0
M  V30 1055 C 98.7826 -1.52358 1.39981 0
M  V30 1056 C 99.1976 -1.88799 -0.0054975 0
M  V30 1057 O 98.5546 -1.54146 -0.976998 0
M  V30 1058 C 98.6056 -2.81072 2.27333 0
M  V30 1059 O 98.3266 -2.46178 3.62392 0
M  V30 1060 C 99.8276 -3.75096 2.36259 0
M  V30 1061 H 97.0476 -0.470806 0.478103 0
M  V30 1062 H 99.5916 -0.907339 1.83269 0
M  V30 1063 H 97.7466 -3.39026 1.87457 0
M  V30 1064 H 98.1606 -3.28866 4.08592 0
M  V30 1065 H 99.6346 -4.62305 3.01626 0
M  V30 1066 H 100.112 -4.16892 1.38194 0
M  V30 1067 H 100.718 -3.23061 2.76608 0
M  V30 1068 N 99.0327 -1.24633 -0.964593 0
M  V30 1069 C 100.28 -1.08788 -1.70796 0
M  V30 1070 C 100.608 0.372783 -1.90894 0
M  V30 1071 O 99.8627 1.29167 -1.47018 0
M  V30 1072 C 100.162 -1.7763 -3.10133 0
M  V30 1073 C 99.8277 -3.27557 -3.09866 0
M  V30 1074 C 98.4897 -3.6846 -3.09501 0
M  V30 1075 C 100.842 -4.23389 -3.03959 0
M  V30 1076 C 98.1697 -5.03624 -3.00965 0
M  V30 1077 C 100.522 -5.58565 -2.96965 0
M  V30 1078 C 99.1857 -5.98809 -2.9493 0
M  V30 1079 H 98.4557 -0.398084 -0.624988 0
M  V30 1080 H 101.103 -1.54777 -1.12767 0
M  V30 1081 H 99.4077 -1.24044 -3.71645 0
M  V30 1082 H 101.105 -1.62832 -3.66451 0
M  V30 1083 H 97.6947 -2.95006 -3.10917 0
M  V30 1084 H 101.879 -3.92787 -3.03368 0
M  V30 1085 H 97.1347 -5.33998 -2.97752 0
M  V30 1086 H 101.309 -6.32523 -2.91354 0
M  V30 1087 H 98.9357 -7.03505 -2.88071 0
M  V30 1088 N 100.511 1.16574 -1.06058 0
M  V30 1089 C 101.458 2.20883 -0.669263 0
M  V30 1090 C 102.428 1.62729 0.332918 0
M  V30 1091 O 103.613 1.895 0.222346 0
M  V30 1092 C 100.753 3.45049 -0.0593572 0
M  V30 1093 C 99.8658 4.17458 -1.11143 0
M  V30 1094 C 99.0008 5.29135 -0.467916 0
M  V30 1095 C 98.0398 5.93343 -1.50369 0
M  V30 1096 N 97.1768 6.96516 -0.883706 0
M  V30 1097 H 102.017 2.53709 -1.5632 0
M  V30 1098 H 99.5538 1.24616 -0.781625 0
M  V30 1099 H 101.512 4.16033 0.311771 0
M  V30 1100 H 100.142 3.12781 0.797992 0
M  V30 1101 H 99.1938 3.45101 -1.60029 0
M  V30 1102 H 100.506 4.61307 -1.89731 0
M  V30 1103 H 99.6598 6.06684 -0.0436871 0
M  V30 1104 H 98.3988 4.86443 0.349864 0
M  V30 1105 H 97.4038 5.14517 -1.93784 0
M  V30 1106 H 98.6288 6.38114 -2.32352 0
M  V30 1107 H 96.5748 6.55943 -0.086595 0
M  V30 1108 H 96.4918 7.38723 -1.607 0
M  V30 1109 H 97.7598 7.77993 -0.484543 0
M  V30 1110 N 101.989 0.842826 1.3317 0
M  V30 1111 C 103.235 0.441099 1.97945 0
M  V30 1112 C 103.568 -0.998024 1.66593 0
M  V30 1113 O 102.843 -1.69839 0.947898 0
M  V30 1114 C 103.126 0.666841 3.53872 0
M  V30 1115 C 102.979 2.15352 3.94897 0
M  V30 1116 C 104.298 0.115544 4.39948 0
M  V30 1117 H 101.417 0.161739 0.719034 0
M  V30 1118 H 104.059 1.05907 1.57746 0
M  V30 1119 H 102.209 0.140828 3.88245 0
M  V30 1120 H 103.881 2.7447 3.70761 0
M  V30 1121 H 102.124 2.63653 3.44484 0
M  V30 1122 H 102.795 2.26221 5.03516 0
M  V30 1123 H 105.271 0.565213 4.12243 0
M  V30 1124 H 104.147 0.303152 5.48062 0
M  V30 1125 H 104.408 -0.980935 4.3108 0
M  V30 1126 N 103.467 -1.45747 0.599634 0
M  V30 1127 C 104.713 -2.02592 0.0918643 0
M  V30 1128 C 105.046 -1.46806 -1.27128 0
M  V30 1129 O 104.321 -0.639658 -1.83681 0
M  V30 1130 C 104.604 -3.60073 0.0443398 0
M  V30 1131 C 104.457 -4.26208 1.43759 0
M  V30 1132 C 105.776 -4.35309 -0.647608 0
M  V30 1133 H 102.895 -0.736175 0.034857 0
M  V30 1134 H 105.537 -1.73694 0.770081 0
M  V30 1135 H 103.687 -3.84823 -0.533224 0
M  V30 1136 H 105.359 -4.12668 2.06162 0
M  V30 1137 H 103.602 -3.84916 2.00056 0
M  V30 1138 H 104.273 -5.35069 1.35665 0
M  V30 1139 H 106.749 -4.15805 -0.156776 0
M  V30 1140 H 105.625 -5.45038 -0.649942 0
M  V30 1141 H 105.886 -4.07598 -1.71219 0
M  V30 1142 N 104.945 -0.338344 -1.53925 0
M  V30 1143 C 105.875 0.51328 -2.27789 0
M  V30 1144 C 106.856 1.107 -1.29149 0
M  V30 1145 O 108.041 1.12937 -1.57984 0
M  V30 1146 C 105.171 1.66697 -3.04679 0
M  V30 1147 C 104.125 1.20183 -4.1078 0
M  V30 1148 C 103.451 2.44363 -4.75595 0
M  V30 1149 C 104.751 0.30605 -5.21403 0
M  V30 1150 H 106.445 -0.102883 -2.99223 0
M  V30 1151 H 103.991 -0.0509219 -1.4391 0
M  V30 1152 H 105.944 2.26915 -3.55088 0
M  V30 1153 H 104.668 2.30995 -2.30887 0
M  V30 1154 H 103.327 0.622499 -3.61276 0
M  V30 1155 H 102.975 3.07057 -3.98403 0
M  V30 1156 H 102.675 2.13925 -5.47275 0
M  V30 1157 H 104.199 3.05317 -5.28786 0
M  V30 1158 H 105.613 0.814929 -5.67478 0
M  V30 1159 H 104.01 0.0937929 -6.00027 0
M  V30 1160 H 105.08 -0.65921 -4.80398 0
M  V30 1161 N 106.423 1.57458 -0.0668435 0
M  V30 1162 C 107.663 1.95175 0.607116 0
M  V30 1163 C 108.027 0.946039 1.67075 0
M  V30 1164 O 109.228 1.2107 2.39991 0
M  V30 1165 C 107.499 3.37582 1.17358 0
M  V30 1166 S 109.058 3.97271 1.86336 0
M  V30 1167 H 105.876 0.682604 0.19893 0
M  V30 1168 H 108.478 1.95002 -0.139519 0
M  V30 1169 H 107.182 4.08566 0.387553 0
M  V30 1170 H 106.713 3.41288 1.95669 0
M  V30 1171 H 108.728 3.83772 3.14537 0
M  V30 1172 N 107.901 -0.206675 1.56239 0
M  V30 1173 C 109.149 -0.927007 1.79586 0
M  V30 1174 C 109.47 -1.8427 0.637929 0
M  V30 1175 O 108.74 -1.92849 -0.344398 0
M  V30 1176 H 107.32 -0.345292 0.662407 0
M  V30 1177 H 109.982 -0.21496 1.93711 0
M  V30 1178 H 109.078 -1.52501 2.72305 0
M  V30 1179 N 109.379 -1.50304 -0.473955 0
M  V30 1180 C 110.342 -1.6841 -1.55469 0
M  V30 1181 C 111.342 -0.554905 -1.50922 0
M  V30 1182 O 112.532 -0.821882 -1.53593 0
M  V30 1183 C 109.664 -1.70667 -2.95102 0
M  V30 1184 H 110.857 -2.64828 -1.40733 0
M  V30 1185 H 108.41 -1.39742 -0.700132 0
M  V30 1186 H 109.145 -0.75932 -3.15285 0
M  V30 1187 H 108.93 -2.52698 -2.9981 0
M  V30 1188 H 110.42 -1.8664 -3.73571 0
M  V30 1189 N 110.857 0.726932 -1.39834 0
M  V30 1190 C 112.103 1.48884 -1.377 0
M  V30 1191 C 112.436 1.94185 0.0244852 0
M  V30 1192 O 111.711 1.67361 0.990986 0
M  V30 1193 C 111.994 2.72288 -2.3565 0
M  V30 1194 C 111.847 2.32956 -3.84775 0
M  V30 1195 C 113.166 3.74414 -2.31306 0
M  V30 1196 H 110.285 0.540062 -0.5015 0
M  V30 1197 H 112.927 0.830547 -1.70886 0
M  V30 1198 H 111.077 3.28457 -2.07481 0
M  V30 1199 H 112.749 1.82356 -4.23726 0
M  V30 1200 H 110.992 1.65088 -4.01159 0
M  V30 1201 H 111.663 3.21362 -4.4881 0
M  V30 1202 H 114.139 3.27849 -2.56231 0
M  V30 1203 H 113.015 4.58414 -3.01907 0
M  V30 1204 H 113.276 4.21909 -1.32081 0
M  V30 1205 N 112.336 1.25143 0.95797 0
M  V30 1206 C 113.266 1.07711 2.07173 0
M  V30 1207 C 114.247 -0.0128462 1.70095 0
M  V30 1208 O 115.432 0.156061 1.93572 0
M  V30 1209 C 112.562 0.691503 3.40346 0
M  V30 1210 C 111.516 1.73132 3.9142 0
M  V30 1211 C 110.842 1.20049 5.21049 0
M  V30 1212 C 112.142 3.1294 4.1817 0
M  V30 1213 H 113.836 2.00873 2.22014 0
M  V30 1214 H 111.382 0.967191 1.06684 0
M  V30 1215 H 113.335 0.556505 4.17709 0
M  V30 1216 H 112.059 -0.275819 3.25433 0
M  V30 1217 H 110.718 1.8547 3.16222 0
M  V30 1218 H 110.366 0.223499 5.02503 0
M  V30 1219 H 110.066 1.89545 5.56189 0
M  V30 1220 H 111.59 1.07782 6.01012 0
M  V30 1221 H 113.004 3.03775 4.86203 0
M  V30 1222 H 111.401 3.79875 4.64559 0
M  V30 1223 H 112.471 3.6025 3.24573 0
M  V30 1224 N 113.814 -1.1601 1.06675 0
M  V30 1225 C 114.777 -2.18724 0.685001 0
M  V30 1226 C 115.777 -1.58496 -0.271246 0
M  V30 1227 O 116.967 -1.74119 -0.0531156 0
M  V30 1228 C 114.099 -3.40899 0.00853648 0
M  V30 1229 H 115.292 -2.54011 1.59431 0
M  V30 1230 H 112.845 -1.30352 0.862441 0
M  V30 1231 H 113.58 -3.11173 -0.913337 0
M  V30 1232 H 113.365 -3.8587 0.696204 0
M  V30 1233 H 114.855 -4.16886 -0.24414 0
M  V30 1234 N 115.292 -0.849877 -1.32721 0
M  V30 1235 C 116.708 -0.539102 -1.50219 0
M  V30 1236 C 116.908 0.931271 -1.78689 0
M  V30 1237 O 115.964 1.71455 -1.85363 0
M  V30 1238 C 117.277 -1.42196 -2.64954 0
M  V30 1239 C 118.825 -1.42189 -2.78839 0
M  V30 1240 C 119.3 -2.28985 -3.96648 0
M  V30 1241 N 120.791 -2.26754 -4.03902 0
M  V30 1242 C 121.526 -2.90644 -4.94281 0
M  V30 1243 N 121.022 -3.63629 -5.897 0
M  V30 1244 N 122.815 -2.80057 -4.87365 0
M  V30 1245 H 114.966 -1.80156 -1.12506 0
M  V30 1246 H 117.229 -0.769217 -0.554085 0
M  V30 1247 H 116.935 -2.46733 -2.50631 0
M  V30 1248 H 116.809 -1.10591 -3.60624 0
M  V30 1249 H 119.196 -0.38419 -2.92588 0
M  V30 1250 H 119.277 -1.77807 -1.83898 0
M  V30 1251 H 118.921 -3.32819 -3.83658 0
M  V30 1252 H 118.851 -1.90702 -4.90857 0
M  V30 1253 H 121.342 -1.73688 -3.3562 0
M  V30 1254 H 121.655 -4.09558 -6.55349 0
M  V30 1255 H 120 -3.67737 -5.89741 0
M  V30 1256 H 123.191 -2.22593 -4.11789 0
M  V30 1257 H 123.364 -3.30132 -5.57599 0
M  V30 1258 N 116.77 1.45427 -0.607355 0
M  V30 1259 C 118.016 2.0254 -0.102607 0
M  V30 1260 C 118.349 1.47478 1.26348 0
M  V30 1261 O 117.624 0.64939 1.83339 0
M  V30 1262 C 117.907 3.60044 -0.0634347 0
M  V30 1263 C 117.76 4.2544 -1.46017 0
M  V30 1264 C 119.079 4.35646 0.624514 0
M  V30 1265 H 116.198 0.73598 -0.0387607 0
M  V30 1266 H 118.84 1.73284 -0.779282 0
M  V30 1267 H 116.99 3.85101 0.512808 0
M  V30 1268 H 118.662 4.11569 -2.08347 0
M  V30 1269 H 116.905 3.83849 -2.02094 0
M  V30 1270 H 117.576 5.34342 -1.385 0
M  V30 1271 H 120.052 4.15882 0.134723 0
M  V30 1272 H 118.928 5.45376 0.621028 0
M  V30 1273 H 119.189 4.08501 1.69055 0
M  V30 1274 N 118.248 0.346503 1.53744 0
M  V30 1275 C 119.525 -0.304532 1.93215 0
M  V30 1276 C 119.905 -1.67993 1.27834 0
M  V30 1277 O 119.253 -2.24411 0.430352 0
M  V30 1278 C 119.463 -0.373852 3.46992 0
M  V30 1279 C 120.811 -0.62329 4.2 0
M  V30 1280 O 121.835 -0.455847 3.53271 0
M  V30 1281 O 120.694 -0.947879 5.38217 0
M  V30 1282 H 117.788 -0.178318 0.807547 0
M  V30 1283 H 120.334 0.397895 1.64969 0
M  V30 1284 H 119.106 0.591224 3.86808 0
M  V30 1285 H 118.729 -1.12294 3.81413 0
M  V30 1286 N 119.726 -1.57421 0.075193 0
M  V30 1287 C 120.689 -2.11791 -0.876203 0
M  V30 1288 C 121.689 -1.04268 -1.22412 0
M  V30 1289 O 122.879 -1.30242 -1.15684 0
M  V30 1290 C 120.011 -2.62207 -2.17854 0
M  V30 1291 H 121.204 -2.9716 -0.40444 0
M  V30 1292 H 118.757 -1.55333 -0.173557 0
M  V30 1293 H 119.492 -1.803 -2.6956 0
M  V30 1294 H 119.277 -3.40802 -1.93897 0
M  V30 1295 H 120.767 -3.04335 -2.85955 0
M  V30 1296 N 121.204 0.198386 -1.56346 0
M  V30 1297 C 122.452 0.91747 -1.80075 0
M  V30 1298 C 122.773 1.83929 -0.647692 0
M  V30 1299 O 122.043 1.93029 0.334166 0
M  V30 1300 H 120.623 0.341774 -0.664228 0
M  V30 1301 H 123.285 0.204684 -1.93822 0
M  V30 1302 H 122.381 1.51055 -2.7311 0
M  V30 1303 N 122.682 1.50554 0.465978 0
M  V30 1304 C 123.959 1.5232 1.22712 0
M  V30 1305 C 124.339 0.270807 2.09356 0
M  V30 1306 O 123.687 -0.745541 2.15995 0
M  V30 1307 C 123.897 2.82175 2.05374 0
M  V30 1308 C 125.245 3.33033 2.6339 0
M  V30 1309 O 126.269 2.83531 2.15612 0
M  V30 1310 O 125.128 4.19336 3.50456 0
M  V30 1311 H 122.222 0.611183 0.557122 0
M  V30 1312 H 124.768 1.62847 0.477381 0
M  V30 1313 H 123.54 3.64797 1.41558 0
M  V30 1314 H 123.163 2.74675 2.87471 0
M  V30 1315 N 124.16 -0.719506 1.40217 0
M  V30 1316 C 125.07 -1.86378 1.42479 0
M  V30 1317 C 126.086 -1.71073 0.317834 0
M  V30 1318 O 127.262 -1.93406 0.561794 0
M  V30 1319 C 124.327 -3.22136 1.28178 0
M  V30 1320 C 123.388 -3.49723 2.48982 0
M  V30 1321 C 122.621 -4.79004 2.35353 0
M  V30 1322 O 122.844 -5.53821 1.36524 0
M  V30 1323 O 121.778 -5.06839 3.2465 0
M  V30 1324 H 125.604 -1.87425 2.38968 0
M  V30 1325 H 123.189 -0.869405 1.21498 0
M  V30 1326 H 125.071 -4.03234 1.22395 0
M  V30 1327 H 123.746 -3.21825 0.347934 0
M  V30 1328 H 122.653 -2.6865 2.60342 0
M  V30 1329 H 123.986 -3.54828 3.41113 0
M  V30 1330 N 125.638 -1.25649 -0.95132 0
M  V30 1331 C 126.57 -1.02112 -2.05197 0
M  V30 1332 C 127.583 0.0150571 -1.62793 0
M  V30 1333 O 128.772 -0.223874 -1.77091 0
M  V30 1334 C 125.872 -0.522361 -3.3485 0
M  V30 1335 C 125.045 -1.62546 -4.06076 0
M  V30 1336 C 124.104 -1.12649 -5.14001 0
M  V30 1337 O 123.13 -1.82156 -5.39266 0
M  V30 1338 N 124.332 0.03047 -5.80492 0
M  V30 1339 H 127.097 -1.96885 -2.25957 0
M  V30 1340 H 124.658 -1.16899 -1.1201 0
M  V30 1341 H 126.65 -0.172961 -4.0433 0
M  V30 1342 H 125.22 0.33151 -3.10837 0
M  V30 1343 H 124.44 -2.14628 -3.30649 0
M  V30 1344 H 125.728 -2.36644 -4.50419 0
M  V30 1345 H 125.126 0.611169 -5.62389 0
M  V30 1346 H 123.683 0.320875 -6.5101 0
M  V30 1347 N 127.117 1.15442 -1.07289 0
M  V30 1348 C 128.047 2.22312 -0.714107 0
M  V30 1349 C 129.028 1.67467 0.298155 0
M  V30 1350 O 130.213 1.93445 0.171048 0
M  V30 1351 C 127.343 3.47124 -0.110448 0
M  V30 1352 C 126.297 4.14926 -1.04979 0
M  V30 1353 C 125.623 5.33807 -0.308924 0
M  V30 1354 C 126.923 4.64762 -2.38314 0
M  V30 1355 H 128.617 2.5258 -1.6076 0
M  V30 1356 H 126.163 1.21404 -0.77441 0
M  V30 1357 H 128.116 4.21124 0.152482 0
M  V30 1358 H 126.84 3.16187 0.81812 0
M  V30 1359 H 125.499 3.42866 -1.29764 0
M  V30 1360 H 125.147 4.99126 0.623084 0
M  V30 1361 H 124.847 5.80113 -0.935036 0
M  V30 1362 H 126.371 6.10576 -0.0537771 0
M  V30 1363 H 127.785 5.30292 -2.1786 0
M  V30 1364 H 126.182 5.21728 -2.96514 0
M  V30 1365 H 127.252 3.80434 -3.00663 0
M  V30 1366 N 128.595 0.856903 1.32268 0
M  V30 1367 C 129.505 0.306131 2.32594 0
M  V30 1368 C 130.521 -0.577209 1.64147 0
M  V30 1369 O 131.697 -0.477043 1.95669 0
M  V30 1370 C 128.762 -0.494561 3.43154 0
M  V30 1371 C 127.823 0.415186 4.27288 0
M  V30 1372 C 127.056 -0.347387 5.32568 0
M  V30 1373 O 127.279 -1.57708 5.48165 0
M  V30 1374 O 126.213 0.287982 6.01211 0
M  V30 1375 H 130.039 1.13737 2.81598 0
M  V30 1376 H 127.624 0.619902 1.35932 0
M  V30 1377 H 129.506 -0.948944 4.10576 0
M  V30 1378 H 128.181 -1.30257 2.96336 0
M  V30 1379 H 127.088 0.917793 3.62667 0
M  V30 1380 H 128.421 1.18844 4.77637 0
M  V30 1381 N 130.073 -1.45103 0.615059 0
M  V30 1382 C 131.489 -1.57137 0.279322 0
M  V30 1383 C 131.689 -1.60523 -1.21797 0
M  V30 1384 O 130.745 -1.53956 -2.00134 0
M  V30 1385 C 132.058 -2.85062 0.957083 0
M  V30 1386 C 133.606 -2.98749 0.933706 0
M  V30 1387 C 134.081 -4.29455 1.59162 0
M  V30 1388 N 135.572 -4.36231 1.55746 0
M  V30 1389 C 136.307 -5.36051 2.0356 0
M  V30 1390 N 135.803 -6.42367 2.59494 0
M  V30 1391 N 137.596 -5.27456 1.94284 0
M  V30 1392 H 129.747 -1.41148 1.58717 0
M  V30 1393 H 132.01 -0.675331 0.665306 0
M  V30 1394 H 131.716 -2.88488 2.01166 0
M  V30 1395 H 131.59 -3.7407 0.48494 0
M  V30 1396 H 133.977 -2.94886 -0.112347 0
M  V30 1397 H 134.058 -2.11132 1.44419 0
M  V30 1398 H 133.702 -4.34077 2.63704 0
M  V30 1399 H 133.632 -5.15901 1.0561 0
M  V30 1400 H 136.123 -3.60011 1.14893 0
M  V30 1401 H 136.436 -7.14793 2.93752 0
M  V30 1402 H 134.781 -6.43097 2.63537 0
M  V30 1403 H 137.972 -4.43308 1.5032 0
M  V30 1404 H 138.145 -6.05099 2.3186 0
M  V30 1405 N 131.551 -0.354651 -1.53558 0
M  V30 1406 C 132.498 0.496968 -2.25386 0
M  V30 1407 C 133.468 1.0865 -1.25636 0
M  V30 1408 O 134.653 1.12104 -1.54394 0
M  V30 1409 C 131.793 1.63637 -3.03837 0
M  V30 1410 C 130.906 1.07307 -4.18461 0
M  V30 1411 C 130.041 2.18068 -4.84376 0
M  V30 1412 C 129.08 1.59147 -5.91049 0
M  V30 1413 N 128.217 2.63695 -6.50699 0
M  V30 1414 H 133.057 -0.122075 -2.9775 0
M  V30 1415 H 130.594 -0.0720154 -1.46924 0
M  V30 1416 H 132.552 2.30734 -3.47589 0
M  V30 1417 H 131.182 2.22623 -2.33749 0
M  V30 1418 H 130.234 0.292708 -3.79272 0
M  V30 1419 H 131.546 0.602193 -4.95152 0
M  V30 1420 H 130.7 2.93007 -5.31255 0
M  V30 1421 H 129.439 2.68504 -4.07133 0
M  V30 1422 H 128.444 0.827175 -5.43542 0
M  V30 1423 H 129.669 1.09549 -6.70206 0
M  V30 1424 H 127.615 3.13365 -5.76315 0
M  V30 1425 H 127.532 2.21263 -7.22896 0
M  V30 1426 H 128.8 3.3837 -7.02229 0
M  V30 1427 N 133.029 1.57378 -0.0835403 0
M  V30 1428 C 134.278 1.93106 0.582498 0
M  V30 1429 C 134.591 0.96651 1.70053 0
M  V30 1430 O 135.797 1.21705 2.42693 0
M  V30 1431 C 134.253 3.43076 1.08751 0
M  V30 1432 C 133.861 4.48 -0.000146404 0
M  V30 1433 C 135.605 3.87785 1.72694 0
M  V30 1434 C 133.512 5.89113 0.519568 0
M  V30 1435 H 132.442 0.720775 0.221358 0
M  V30 1436 H 135.093 1.82821 -0.157675 0
M  V30 1437 H 133.475 3.48474 1.88101 0
M  V30 1438 H 134.649 4.54233 -0.775199 0
M  V30 1439 H 132.964 4.1283 -0.54406 0
M  V30 1440 H 135.561 4.90604 2.1263 0
M  V30 1441 H 135.904 3.25796 2.59158 0
M  V30 1442 H 136.437 3.8504 0.999457 0
M  V30 1443 H 133.176 6.54775 -0.308186 0
M  V30 1444 H 132.696 5.86376 1.26188 0
M  V30 1445 H 134.375 6.39346 0.992237 0
M  V30 1446 N 134.507 -0.190092 1.56449 0
M  V30 1447 C 135.457 -1.23977 1.91347 0
M  V30 1448 C 136.441 -1.40747 0.779693 0
M  V30 1449 O 137.633 -1.43033 1.04262 0
M  V30 1450 C 134.762 -2.58347 2.26079 0
M  V30 1451 C 133.848 -2.4535 3.45925 0
M  V30 1452 N 134.239 -2.02039 4.63696 0
M  V30 1453 C 132.537 -2.76229 3.50162 0
M  V30 1454 C 133.238 -2.01053 5.4585 0
M  V30 1455 N 132.214 -2.42747 4.8639 0
M  V30 1456 H 136.016 -0.896318 2.79899 0
M  V30 1457 H 133.53 -0.398496 1.57435 0
M  V30 1458 H 135.527 -3.34173 2.49267 0
M  V30 1459 H 134.187 -2.93512 1.38856 0
M  V30 1460 H 135.198 -1.7267 4.88268 0
M  V30 1461 H 131.875 -3.15556 2.73369 0
M  V30 1462 H 133.265 -1.69426 6.50188 0
M  V30 1463 N 135.985 -1.50799 -0.457987 0
M  V30 1464 C 137.215 -1.65977 -1.23025 0
M  V30 1465 C 137.623 -0.347918 -1.85974 0
M  V30 1466 O 136.966 0.68148 -1.70592 0
M  V30 1467 C 137.028 -2.70309 -2.3701 0
M  V30 1468 C 136.692 -4.135 -1.94594 0
M  V30 1469 C 137.689 -4.98949 -1.46101 0
M  V30 1470 C 135.374 -4.5949 -2.02915 0
M  V30 1471 C 137.368 -6.28442 -1.06489 0
M  V30 1472 C 135.055 -5.88984 -1.62914 0
M  V30 1473 C 136.053 -6.73286 -1.1478 0
M  V30 1474 O 135.741 -8.00362 -0.75339 0
M  V30 1475 H 135.473 -0.56064 -0.377702 0
M  V30 1476 H 138.027 -1.97857 -0.551537 0
M  V30 1477 H 136.257 -2.337 -3.08093 0
M  V30 1478 H 137.946 -2.74574 -2.98938 0
M  V30 1479 H 138.712 -4.6463 -1.39084 0
M  V30 1480 H 134.591 -3.94009 -2.39328 0
M  V30 1481 H 138.135 -6.94194 -0.688488 0
M  V30 1482 H 134.032 -6.22822 -1.69595 0
M  V30 1483 H 134.8 -8.13744 -0.88108 0
M  V30 1484 N 137.463 0.71206 -1.40597 0
M  V30 1485 C 138.879 1.02058 -1.22704 0
M  V30 1486 C 139.079 2.01228 -0.104729 0
M  V30 1487 O 138.135 2.4674 0.53624 0
M  V30 1488 C 139.448 1.56094 -2.57012 0
M  V30 1489 C 140.996 1.6806 -2.64054 0
M  V30 1490 C 141.471 2.25501 -3.9864 0
M  V30 1491 N 142.962 2.32882 -4.004 0
M  V30 1492 C 143.697 2.78317 -5.01325 0
M  V30 1493 N 143.193 3.23478 -6.12645 0
M  V30 1494 N 144.986 2.77733 -4.88693 0
M  V30 1495 H 137.137 0.0547896 -2.12329 0
M  V30 1496 H 139.4 0.0869027 -0.944008 0
M  V30 1497 H 139.106 0.906865 -3.39807 0
M  V30 1498 H 138.98 2.54564 -2.78347 0
M  V30 1499 H 141.367 2.32583 -1.81629 0
M  V30 1500 H 141.448 0.681802 -2.46546 0
M  V30 1501 H 141.092 1.61598 -4.81506 0
M  V30 1502 H 141.022 3.26102 -4.13479 0
M  V30 1503 H 143.513 2.00991 -3.20017 0
M  V30 1504 H 143.826 3.56725 -6.85542 0
M  V30 1505 H 142.171 3.21429 -6.16205 0
M  V30 1506 H 145.362 2.4179 -4.00818 0
M  V30 1507 H 145.535 3.12826 -5.67489 0
M  V30 1508 N 138.941 1.26152 0.944643 0
M  V30 1509 C 139.873 1.03199 2.04652 0
M  V30 1510 C 140.886 -0.00642356 1.62799 0
M  V30 1511 O 142.075 0.233263 1.76969 0
M  V30 1512 C 139.175 0.540111 3.34568 0
M  V30 1513 C 138.348 1.64697 4.05208 0
M  V30 1514 C 137.407 1.15374 5.13396 0
M  V30 1515 O 136.433 1.85013 5.38293 0
M  V30 1516 N 137.635 0.00031529 5.805 0
M  V30 1517 H 140.4 1.9808 2.2491 0
M  V30 1518 H 137.961 1.17491 1.11389 0
M  V30 1519 H 139.953 0.194401 4.04233 0
M  V30 1520 H 138.523 -0.315021 3.11009 0
M  V30 1521 H 137.743 2.16379 3.29506 0
M  V30 1522 H 139.031 2.3903 4.49157 0
M  V30 1523 H 138.429 -0.581336 5.62705 0
M  V30 1524 H 136.986 -0.286346 6.51171 0
M  V30 1525 N 140.419 -1.14872 1.07899 0
M  V30 1526 C 141.351 -2.19425 0.662231 0
M  V30 1527 C 142.364 -1.60231 -0.288079 0
M  V30 1528 O 143.553 -1.78336 -0.076534 0
M  V30 1529 C 140.653 -3.38867 -0.0470695 0
M  V30 1530 C 139.826 -4.27597 0.920831 0
M  V30 1531 C 138.885 -5.25616 0.247805 0
M  V30 1532 O 137.911 -5.62189 0.890599 0
M  V30 1533 N 139.113 -5.71746 -1.00435 0
M  V30 1534 H 141.878 -2.55797 1.56166 0
M  V30 1535 H 139.439 -1.30042 0.964404 0
M  V30 1536 H 141.431 -4.01497 -0.50813 0
M  V30 1537 H 140.001 -3.00864 -0.848523 0
M  V30 1538 H 139.221 -3.61982 1.56087 0
M  V30 1539 H 140.509 -4.83748 1.57688 0
M  V30 1540 H 139.907 -5.44153 -1.54642 0
M  V30 1541 H 138.464 -6.36389 -1.40899 0
M  V30 1542 N 141.898 -0.863906 -1.31812 0
M  V30 1543 C 143.175 -0.39275 -1.91616 0
M  V30 1544 C 143.555 1.12461 -1.7865 0
M  V30 1545 O 142.903 1.95045 -1.19037 0
M  V30 1546 C 143.113 -0.867385 -3.38049 0
M  V30 1547 C 144.461 -0.889966 -4.15168 0
M  V30 1548 O 145.485 -0.812635 -3.46806 0
M  V30 1549 O 144.344 -1.00079 -5.37258 0
M  V30 1550 H 141.438 -0.116358 -0.818773 0
M  V30 1551 H 143.984 -0.951418 -1.40521 0
M  V30 1552 H 142.756 -1.91081 -3.41473 0
M  V30 1553 H 142.379 -0.286687 -3.96565 0
M  V30 1554 N 143.376 1.44774 -0.622745 0
M  V30 1555 C 144.306 2.33382 0.0741861 0
M  V30 1556 C 145.287 1.47719 0.843387 0
M  V30 1557 O 146.472 1.76458 0.810934 0
M  V30 1558 C 143.602 3.30663 1.06204 0
M  V30 1559 C 142.556 4.26079 0.405037 0
M  V30 1560 C 141.882 5.13165 1.5022 0
M  V30 1561 C 143.182 5.1781 -0.683414 0
M  V30 1562 H 144.876 2.91905 -0.665713 0
M  V30 1563 H 142.422 1.40363 -0.321587 0
M  V30 1564 H 144.375 3.9153 1.55827 0
M  V30 1565 H 143.099 2.70331 1.83272 0
M  V30 1566 H 141.758 3.66532 -0.0704683 0
M  V30 1567 H 141.406 4.49191 2.26355 0
M  V30 1568 H 141.106 5.77812 1.06803 0
M  V30 1569 H 142.63 5.76902 2.00041 0
M  V30 1570 H 144.044 5.72661 -0.270631 0
M  V30 1571 H 142.441 5.91015 -1.04023 0
M  V30 1572 H 143.511 4.59326 -1.55395 0
M  V30 1573 N 144.854 0.36279 1.53368 0
M  V30 1574 C 146.1 -0.228113 2.01513 0
M  V30 1575 C 146.433 -1.48648 1.2497 0
M  V30 1576 O 145.708 -1.91459 0.342616 0
M  V30 1577 C 145.991 -0.522884 3.56284 0
M  V30 1578 C 145.844 0.74892 4.43521 0
M  V30 1579 C 147.163 -1.32461 4.19693 0
M  V30 1580 H 144.282 -0.0814343 0.732487 0
M  V30 1581 H 146.924 0.48713 1.83649 0
M  V30 1582 H 145.074 -1.1322 3.71636 0
M  V30 1583 H 146.746 1.38648 4.39971 0
M  V30 1584 H 144.989 1.36986 4.11603 0
M  V30 1585 H 145.66 0.497667 5.49752 0
M  V30 1586 H 148.136 -0.809203 4.08156 0
M  V30 1587 H 147.012 -1.49961 5.28018 0
M  V30 1588 H 147.273 -2.33232 3.75573 0
M  V30 1589 N 146.332 -1.57332 0.0918853 0
M  V30 1590 C 147.609 -1.85691 -0.614668 0
M  V30 1591 C 147.989 -0.988146 -1.86545 0
M  V30 1592 O 147.337 -0.0597055 -2.28422 0
M  V30 1593 C 147.547 -3.36294 -0.933126 0
M  V30 1594 C 148.895 -4.04275 -1.29796 0
M  V30 1595 O 149.919 -3.41157 -1.02424 0
M  V30 1596 O 148.778 -5.1564 -1.81047 0
M  V30 1597 H 145.872 -0.767802 -0.307261 0
M  V30 1598 H 148.418 -1.69244 0.12434 0
M  V30 1599 H 147.19 -3.91273 -0.0456404 0
M  V30 1600 H 146.813 -3.58076 -1.72822 0
M  V30 1601 N 147.81 0.181792 -1.56548 0
M  V30 1602 C 149.04 0.914618 -1.85252 0
M  V30 1603 C 149.448 1.76791 -0.673914 0
M  V30 1604 O 148.791 1.80009 0.366416 0
M  V30 1605 C 148.853 1.85019 -3.08234 0
M  V30 1606 C 148.517 1.17754 -4.41569 0
M  V30 1607 C 149.514 0.548035 -5.17003 0
M  V30 1608 C 147.199 1.17742 -4.88305 0
M  V30 1609 C 149.193 -0.0726128 -6.37359 0
M  V30 1610 C 146.88 0.552946 -6.08593 0
M  V30 1611 C 147.878 -0.070978 -6.82963 0
M  V30 1612 O 147.566 -0.685635 -8.00971 0
M  V30 1613 H 147.298 0.271695 -0.618998 0
M  V30 1614 H 149.852 0.189944 -2.0452 0
M  V30 1615 H 148.082 2.61491 -2.84885 0
M  V30 1616 H 149.771 2.45195 -3.23472 0
M  V30 1617 H 150.537 0.540174 -4.81982 0
M  V30 1618 H 146.416 1.65246 -4.30366 0
M  V30 1619 H 149.96 -0.560213 -6.95347 0
M  V30 1620 H 145.857 0.558354 -6.43081 0
M  V30 1621 H 146.625 -0.58385 -8.16415 0
M  V30 1622 N 149.288 1.51039 0.449983 0
M  V30 1623 C 150.513 1.6715 1.22783 0
M  V30 1624 C 150.938 0.363081 1.84563 0
M  V30 1625 O 150.296 -0.675433 1.68249 0
M  V30 1626 C 150.344 2.77985 2.29689 0
M  V30 1627 O 149.448 2.40707 3.34864 0
M  V30 1628 H 148.789 0.557746 0.360299 0
M  V30 1629 H 151.319 1.97535 0.533005 0
M  V30 1630 H 151.329 3.01693 2.74673 0
M  V30 1631 H 150.004 3.72935 1.84098 0
M  V30 1632 H 148.581 2.27523 2.95445 0
M  V30 1633 N 150.766 -0.704594 1.40972 0
M  V30 1634 C 152.177 -1.28418 1.3552 0
M  V30 1635 C 152.528 -1.96171 0.0339434 0
M  V30 1636 O 151.653 -1.98231 -0.867944 0
M  V30 1637 C 152.248 -2.33528 2.45459 0
M  V30 1638 C 150.807 -2.87085 2.43433 0
M  V30 1639 C 149.954 -1.61007 2.2577 0
M  V30 1640 H 152.905 -0.499963 1.50619 0
M  V30 1641 H 152.926 -3.14619 2.13998 0
M  V30 1642 H 152.438 -1.84187 3.41609 0
M  V30 1643 H 150.539 -3.40626 1.51013 0
M  V30 1644 H 150.652 -3.3813 3.39419 0
M  V30 1645 H 149.016 -1.86482 1.73483 0
M  V30 1646 H 149.799 -1.13675 3.23933 0
M  V30 1647 N 152.244 -1.26651 -0.937939 0
M  V30 1648 C 153.49 -1.12553 -1.687 0
M  V30 1649 C 153.823 0.329782 -1.91379 0
M  V30 1650 O 153.098 1.24202 -1.4968 0
M  V30 1651 C 153.381 -1.89862 -3.05981 0
M  V30 1652 C 153.234 -3.43318 -2.90607 0
M  V30 1653 C 154.553 -1.69499 -4.0615 0
M  V30 1654 H 151.672 -0.410257 -0.612257 0
M  V30 1655 H 154.314 -1.55685 -1.08913 0
M  V30 1656 H 152.464 -1.53204 -3.57017 0
M  V30 1657 H 154.136 -3.89747 -2.46769 0
M  V30 1658 H 152.379 -3.70179 -2.26164 0
M  V30 1659 H 153.05 -3.92642 -3.8799 0
M  V30 1660 H 155.526 -2.01442 -3.64088 0
M  V30 1661 H 154.402 -2.26002 -5.00214 0
M  V30 1662 H 154.663 -0.640365 -4.37438 0
M  V30 1663 N 153.722 1.14298 -1.08507 0
M  V30 1664 C 154.947 1.8976 -0.837001 0
M  V30 1665 C 155.372 1.78097 0.605228 0
M  V30 1666 O 154.73 1.12188 1.4242 0
M  V30 1667 C 154.778 3.37685 -1.26495 0
M  V30 1668 O 153.882 4.10281 -0.417514 0
M  V30 1669 H 153.223 0.590365 -0.303917 0
M  V30 1670 H 155.753 1.44672 -1.44676 0
M  V30 1671 H 155.763 3.88501 -1.24625 0
M  V30 1672 H 154.438 3.45492 -2.31534 0
M  V30 1673 H 153.015 3.69536 -0.499722 0
M  V30 1674 N 155.201 0.870884 1.31352 0
M  V30 1675 C 156.111 0.330783 2.32256 0
M  V30 1676 C 157.127 -0.559767 1.6475 0
M  V30 1677 O 158.303 -0.456263 1.96164 0
M  V30 1678 C 155.368 -0.458137 3.4366 0
M  V30 1679 C 154.429 0.460482 4.26823 0
M  V30 1680 C 153.662 -0.290881 5.32907 0
M  V30 1681 O 153.885 -1.51885 5.49806 0
M  V30 1682 O 152.819 0.351732 6.00871 0
M  V30 1683 H 156.645 1.16718 2.80376 0
M  V30 1684 H 154.23 0.634285 1.35267 0
M  V30 1685 H 156.112 -0.905343 4.1156 0
M  V30 1686 H 154.787 -1.27106 2.97701 0
M  V30 1687 H 153.694 0.956207 3.61673 0
M  V30 1688 H 155.027 1.23903 4.7635 0
M  V30 1689 N 156.679 -1.44442 0.630414 0
M  V30 1690 C 157.626 -2.30678 -0.0749355 0
M  V30 1691 C 158.596 -1.4344 -0.837502 0
M  V30 1692 O 159.781 -1.72343 -0.818684 0
M  V30 1693 C 156.921 -3.28706 -1.05103 0
M  V30 1694 C 156.034 -4.31046 -0.286954 0
M  V30 1695 C 155.169 -5.16167 -1.2548 0
M  V30 1696 C 154.208 -6.10216 -0.479843 0
M  V30 1697 N 153.345 -6.88039 -1.39811 0
M  V30 1698 H 158.185 -2.90454 0.666386 0
M  V30 1699 H 155.722 -1.43107 0.340404 0
M  V30 1700 H 157.68 -3.84027 -1.63031 0
M  V30 1701 H 156.31 -2.70632 -1.75949 0
M  V30 1702 H 155.362 -3.78203 0.408243 0
M  V30 1703 H 156.674 -4.97794 0.316657 0
M  V30 1704 H 155.828 -5.76002 -1.90544 0
M  V30 1705 H 154.567 -4.49491 -1.89233 0
M  V30 1706 H 153.572 -5.49491 0.184295 0
M  V30 1707 H 154.797 -6.78928 0.152965 0
M  V30 1708 H 152.743 -6.24032 -2.02287 0
M  V30 1709 H 152.66 -7.51223 -0.848508 0
M  V30 1710 H 153.928 -7.52397 -2.03762 0
M  V30 1711 N 158.157 -0.370918 -1.53173 0
M  V30 1712 C 159.107 0.489588 -2.22681 0
M  V30 1713 C 160.091 1.04442 -1.22395 0
M  V30 1714 O 161.283 0.973578 -1.47819 0
M  V30 1715 C 158.412 1.626 -3.02351 0
M  V30 1716 C 157.498 1.08379 -4.10018 0
M  V30 1717 N 157.889 0.265004 -5.05105 0
M  V30 1718 C 156.187 1.35809 -4.2482 0
M  V30 1719 C 156.888 -0.0324755 -5.81691 0
M  V30 1720 N 155.864 0.566581 -5.40639 0
M  V30 1721 H 159.666 -0.142729 -2.93553 0
M  V30 1722 H 157.18 -0.179221 -1.61408 0
M  V30 1723 H 159.177 2.2547 -3.50669 0
M  V30 1724 H 157.837 2.26132 -2.33011 0
M  V30 1725 H 158.848 -0.0962352 -5.17811 0
M  V30 1726 H 155.525 1.9958 -3.66707 0
M  V30 1727 H 156.915 -0.69473 -6.68299 0
M  V30 1728 N 159.635 1.57281 -0.100228 0
M  V30 1729 C 160.565 2.17328 0.853857 0
M  V30 1730 C 161.546 1.10804 1.2906 0
M  V30 1731 O 162.731 1.38963 1.35657 0
M  V30 1732 C 159.861 2.75772 2.11109 0
M  V30 1733 C 158.815 3.87713 1.81279 0
M  V30 1734 C 158.141 4.32882 3.13874 0
M  V30 1735 C 159.441 5.10677 1.09574 0
M  V30 1736 H 161.135 2.97305 0.353545 0
M  V30 1737 H 158.681 1.43009 0.168612 0
M  V30 1738 H 160.634 3.16433 2.78296 0
M  V30 1739 H 159.358 1.93057 2.63432 0
M  V30 1740 H 158.017 3.476 1.16489 0
M  V30 1741 H 157.665 3.47051 3.64095 0
M  V30 1742 H 157.365 5.08358 2.94696 0
M  V30 1743 H 158.889 4.7618 3.82211 0
M  V30 1744 H 160.303 5.48474 1.66879 0
M  V30 1745 H 158.7 5.91615 1.00557 0
M  V30 1746 H 159.77 4.84835 0.0793299 0
M  V30 1747 N 161.113 -0.173488 1.56642 0
M  V30 1748 C 162.076 -1.19859 1.95362 0
M  V30 1749 C 163.076 -1.37296 0.83704 0
M  V30 1750 O 164.266 -1.34739 1.10413 0
M  V30 1751 C 161.398 -2.56405 2.24654 0
M  V30 1752 H 162.591 -0.867062 2.87092 0
M  V30 1753 H 160.144 -0.415853 1.50666 0
M  V30 1754 H 160.879 -2.94576 1.35631 0
M  V30 1755 H 160.664 -2.45115 3.06041 0
M  V30 1756 H 162.154 -3.30287 2.5554 0
M  V30 1757 N 162.591 -1.51276 -0.441967 0
M  V30 1758 C 163.868 -1.54252 -1.20273 0
M  V30 1759 C 164.248 -0.30408 -2.08898 0
M  V30 1760 O 163.596 0.711084 -2.17154 0
M  V30 1761 C 163.806 -2.85406 -2.00859 0
M  V30 1762 C 165.154 -3.37181 -2.58059 0
M  V30 1763 O 166.178 -2.86925 -2.11074 0
M  V30 1764 O 165.037 -4.24858 -3.43741 0
M  V30 1765 H 162.131 -0.619969 -0.547328 0
M  V30 1766 H 164.677 -1.63586 -0.451413 0
M  V30 1767 H 163.449 -3.67003 -1.35736 0
M  V30 1768 H 163.072 -2.79213 -2.83065 0
M  V30 1769 N 164.069 0.697108 -1.41344 0
M  V30 1770 C 165.317 1.45426 -1.40341 0
M  V30 1771 C 165.638 1.94996 -0.0128787 0
M  V30 1772 O 164.908 1.71599 0.945027 0
M  V30 1773 H 163.488 0.539594 -0.516573 0
M  V30 1774 H 166.15 0.825201 -1.76569 0
M  V30 1775 H 165.246 2.31817 -2.08967 0
M  V30 1776 N 165.547 1.27147 0.931209 0
M  V30 1777 C 166.48 1.0389 2.0318 0
M  V30 1778 C 167.458 -0.0395716 1.62552 0
M  V30 1779 O 168.642 0.104867 1.88208 0
M  V30 1780 C 165.769 0.575227 3.3378 0
M  V30 1781 C 164.815 1.64774 3.93385 0
M  V30 1782 S 165.648 3.23933 4.26413 0
M  V30 1783 C 166.804 2.79358 5.60098 0
M  V30 1784 H 167.037 1.97075 2.22596 0
M  V30 1785 H 164.57 1.10938 1.07387 0
M  V30 1786 H 166.528 0.314385 4.09294 0
M  V30 1787 H 165.189 -0.336505 3.12292 0
M  V30 1788 H 164.382 1.27454 4.87618 0
M  V30 1789 H 163.984 1.86048 3.24441 0
M  V30 1790 H 166.276 2.24443 6.39243 0
M  V30 1791 H 167.219 3.72322 6.02314 0
M  V30 1792 H 167.627 2.1861 5.20452 0
M  V30 1793 N 167.025 -1.13721 1.09112 0
M  V30 1794 C 168.253 -1.88773 0.846899 0
M  V30 1795 C 168.668 -1.7896 -0.601572 0
M  V30 1796 O 168.025 -1.15394 -1.41388 0
M  V30 1797 C 168.076 -3.3849 1.26913 0
M  V30 1798 O 167.797 -3.48043 2.66079 0
M  V30 1799 C 169.298 -4.30518 1.05682 0
M  V30 1800 H 166.518 -0.59772 0.304914 0
M  V30 1801 H 169.062 -1.43977 1.45227 0
M  V30 1802 H 167.217 -3.80881 0.707723 0
M  V30 1803 H 167.631 -4.4109 2.83795 0
M  V30 1804 H 169.105 -5.3391 1.40156 0
M  V30 1805 H 169.582 -4.392 -0.00563416 0
M  V30 1806 H 170.188 -3.93893 1.60402 0
M  V30 1807 N 168.503 -0.877838 -1.30888 0
M  V30 1808 C 169.749 -0.493426 -1.96706 0
M  V30 1809 C 170.082 0.953504 -1.6918 0
M  V30 1810 O 169.357 1.67266 -0.992594 0
M  V30 1811 C 169.64 -0.760429 -3.51979 0
M  V30 1812 C 169.493 -2.25747 -3.89048 0
M  V30 1813 C 170.812 -0.232148 -4.39487 0
M  V30 1814 H 167.931 -0.180746 -0.714493 0
M  V30 1815 H 170.573 -1.10052 -1.54882 0
M  V30 1816 H 168.723 -0.243715 -3.87735 0
M  V30 1817 H 170.395 -2.84204 -3.63354 0
M  V30 1818 H 168.638 -2.72694 -3.37373 0
M  V30 1819 H 169.309 -2.39491 -4.97341 0
M  V30 1820 H 171.785 -0.674314 -4.106 0
M  V30 1821 H 170.661 -0.448355 -5.47066 0
M  V30 1822 H 170.922 0.866297 -4.33529 0
M  V30 1823 N 169.982 1.44106 -0.638065 0
M  V30 1824 C 171.23 2.01579 -0.145043 0
M  V30 1825 C 171.551 1.50496 1.24 0
M  V30 1826 O 170.821 0.711374 1.82527 0
M  V30 1827 H 169.401 0.745282 -0.05063 0
M  V30 1828 H 172.063 1.76516 -0.826327 0
M  V30 1829 H 171.159 3.11877 -0.118039 0
M  V30 1830 N 171.46 0.379036 1.52974 0
M  V30 1831 C 172.37 -0.468639 2.29872 0
M  V30 1832 C 173.386 -1.08067 1.36373 0
M  V30 1833 O 174.562 -1.08871 1.69438 0
M  V30 1834 C 171.627 -1.58594 3.083 0
M  V30 1835 C 170.688 -1.00007 4.17489 0
M  V30 1836 C 169.921 -2.06413 4.92168 0
M  V30 1837 O 170.144 -3.27751 4.66835 0
M  V30 1838 O 169.078 -1.68717 5.7777 0
M  V30 1839 H 172.904 0.157508 3.03291 0
M  V30 1840 H 170.489 0.143035 1.48714 0
M  V30 1841 H 172.371 -2.23525 3.57232 0
M  V30 1842 H 171.046 -2.19724 2.37703 0
M  V30 1843 H 169.953 -0.314299 3.72777 0
M  V30 1844 H 171.286 -0.433135 4.90291 0
M  V30 1845 N 172.938 -1.57226 0.108567 0
M  V30 1846 C 173.868 -2.17778 -0.84232 0
M  V30 1847 C 174.849 -1.11487 -1.2847 0
M  V30 1848 O 176.034 -1.39681 -1.34918 0
M  V30 1849 C 173.164 -2.76888 -2.09644 0
M  V30 1850 C 172.118 -3.88669 -1.79221 0
M  V30 1851 C 171.444 -4.34541 -3.11574 0
M  V30 1852 C 172.744 -5.11251 -1.06864 0
M  V30 1853 H 174.438 -2.97489 -0.337774 0
M  V30 1854 H 171.984 -1.43097 -0.161025 0
M  V30 1855 H 173.937 -3.17904 -2.76614 0
M  V30 1856 H 172.661 -1.94451 -2.62405 0
M  V30 1857 H 171.32 -3.48213 -1.14644 0
M  V30 1858 H 170.968 -3.48977 -3.62249 0
M  V30 1859 H 170.668 -5.09914 -2.91996 0
M  V30 1860 H 172.192 -4.782 -3.7968 0
M  V30 1861 H 173.606 -5.49352 -1.63968 0
M  V30 1862 H 172.003 -5.9214 -0.974178 0
M  V30 1863 H 173.073 -4.8487 -0.0536168 0
M  V30 1864 N 174.416 0.165178 -1.56732 0
M  V30 1865 C 175.656 0.887231 -1.8414 0
M  V30 1866 C 176.02 1.79159 -0.690353 0
M  V30 1867 O 177.221 2.55172 -0.845032 0
M  V30 1868 C 175.492 1.65674 -3.16681 0
M  V30 1869 S 177.051 2.42671 -3.6559 0
M  V30 1870 H 173.869 0.297042 -0.645978 0
M  V30 1871 H 176.471 0.148439 -1.94936 0
M  V30 1872 H 175.175 0.983507 -3.98441 0
M  V30 1873 H 174.706 2.43679 -3.08843 0
M  V30 1874 H 176.721 3.67499 -3.33406 0
M  V30 1875 N 175.894 1.51508 0.433938 0
M  V30 1876 C 176.857 1.72473 1.50949 0
M  V30 1877 C 177.857 0.594725 1.49398 0
M  V30 1878 O 179.047 0.862315 1.5136 0
M  V30 1879 C 176.179 1.78431 2.90474 0
M  V30 1880 H 177.372 2.68467 1.33662 0
M  V30 1881 H 174.925 1.41549 0.662836 0
M  V30 1882 H 175.66 0.842645 3.13161 0
M  V30 1883 H 175.445 2.60558 2.93005 0
M  V30 1884 H 176.935 1.96479 3.68491 0
M  V30 1885 N 177.372 -0.689602 1.41712 0
M  V30 1886 C 178.335 -1.78521 1.43746 0
M  V30 1887 C 179.335 -1.57436 0.327191 0
M  V30 1888 O 180.525 -1.64 0.587348 0
M  V30 1889 C 177.657 -3.16971 1.25467 0
M  V30 1890 H 178.85 -1.78108 2.41283 0
M  V30 1891 H 176.403 -0.89781 1.27942 0
M  V30 1892 H 177.138 -3.23019 0.287948 0
M  V30 1893 H 176.923 -3.33678 2.05917 0
M  V30 1894 H 178.413 -3.96935 1.2974 0
M  V30 1895 N 178.85 -1.27639 -0.924453 0
M  V30 1896 C 179.813 -1.10681 -2.00705 0
M  V30 1897 C 180.813 -0.0497823 -1.60723 0
M  V30 1898 O 182.003 -0.294654 -1.7169 0
M  V30 1899 C 179.135 -0.687164 -3.33902 0
M  V30 1900 H 180.328 -2.06817 -2.17179 0
M  V30 1901 H 177.881 -1.10473 -1.10569 0
M  V30 1902 H 178.616 0.275439 -3.23128 0
M  V30 1903 H 178.401 -1.45061 -3.6428 0
M  V30 1904 H 179.891 -0.590853 -4.13399 0
M  V30 1905 N 180.328 1.1314 -1.09713 0
M  V30 1906 C 181.577 1.83838 -0.829851 0
M  V30 1907 C 181.89 1.84599 0.646728 0
M  V30 1908 O 183.096 2.51218 1.02965 0
M  V30 1909 C 181.552 3.30069 -1.43466 0
M  V30 1910 C 181.16 3.37688 -2.94399 0
M  V30 1911 C 182.904 4.05788 -1.24645 0
M  V30 1912 C 180.811 4.78209 -3.47952 0
M  V30 1913 H 179.741 0.68877 -0.306777 0
M  V30 1914 H 182.392 1.27448 -1.3202 0
M  V30 1915 H 180.774 3.8628 -0.871996 0
M  V30 1916 H 181.948 2.91456 -3.56918 0
M  V30 1917 H 180.263 2.75436 -3.12289 0
M  V30 1918 H 182.86 5.09535 -1.62107 0
M  V30 1919 H 183.203 4.15878 -0.187357 0
M  V30 1920 H 183.736 3.55915 -1.77678 0
M  V30 1921 H 180.475 4.73311 -4.53495 0
M  V30 1922 H 179.995 5.24924 -2.90198 0
M  V30 1923 H 181.674 5.47133 -3.45332 0
M  V30 1924 N 181.806 0.884767 1.30421 0
M  V30 1925 C 183.034 0.518044 2.0031 0
M  V30 1926 C 183.449 -0.893408 1.66324 0
M  V30 1927 O 182.806 -1.5875 0.900262 0
M  V30 1928 C 182.857 0.682997 3.54989 0
M  V30 1929 O 182.578 2.03888 3.87764 0
M  V30 1930 C 184.079 0.31924 4.42149 0
M  V30 1931 H 181.299 0.200265 0.640418 0
M  V30 1932 H 183.843 1.19001 1.6631 0
M  V30 1933 H 181.998 0.0584052 3.87356 0
M  V30 1934 H 182.412 2.05735 4.82466 0
M  V30 1935 H 183.886 0.485555 5.4986 0
M  V30 1936 H 184.363 -0.742717 4.32875 0
M  V30 1937 H 184.969 0.920147 4.15227 0
M  V30 1938 N 183.284 -1.43765 0.645699 0
M  V30 1939 C 184.217 -2.2798 -0.100072 0
M  V30 1940 C 185.195 -1.39391 -0.837194 0
M  V30 1941 O 186.379 -1.68833 -0.838306 0
M  V30 1942 C 183.506 -3.18643 -1.14823 0
M  V30 1943 C 182.552 -4.2344 -0.510009 0
M  V30 1944 S 183.385 -5.30761 0.710824 0
M  V30 1945 C 184.541 -6.24992 -0.33699 0
M  V30 1946 H 184.774 -2.90884 0.614322 0
M  V30 1947 H 182.307 -1.48166 0.434304 0
M  V30 1948 H 184.265 -3.71424 -1.74799 0
M  V30 1949 H 182.926 -2.54932 -1.8349 0
M  V30 1950 H 182.119 -4.86948 -1.29991 0
M  V30 1951 H 181.721 -3.73997 0.0154577 0
M  V30 1952 H 184.013 -6.66691 -1.20537 0
M  V30 1953 H 184.956 -7.07612 0.262879 0
M  V30 1954 H 185.364 -5.60517 -0.669425 0
M  V30 1955 N 184.763 -0.387143 -1.52771 0
M  V30 1956 C 185.988 0.198407 -2.06449 0
M  V30 1957 C 186.413 1.39918 -1.25716 0
M  V30 1958 O 185.771 1.79099 -0.281657 0
M  V30 1959 C 185.819 0.548893 -3.56398 0
M  V30 1960 O 184.923 1.64315 -3.78252 0
M  V30 1961 H 184.264 0.0237731 -0.663574 0
M  V30 1962 H 186.794 -0.553989 -1.96957 0
M  V30 1963 H 186.804 0.813812 -3.99801 0
M  V30 1964 H 185.479 -0.329005 -4.14597 0
M  V30 1965 H 184.056 1.37211 -3.46738 0
M  V30 1966 N 186.241 1.57166 -0.116904 0
M  V30 1967 C 187.518 1.86645 0.585049 0
M  V30 1968 C 187.898 1.0177 1.84949 0
M  V30 1969 O 187.246 0.0960379 2.28298 0
M  V30 1970 C 187.456 3.37736 0.879507 0
M  V30 1971 C 188.804 4.06289 1.23348 0
M  V30 1972 O 189.828 3.42743 0.969836 0
M  V30 1973 O 188.687 5.18455 1.7282 0
M  V30 1974 H 185.781 0.772593 0.295007 0
M  V30 1975 H 188.327 1.69025 -0.151249 0
M  V30 1976 H 187.099 3.91296 -0.0166136 0
M  V30 1977 H 186.722 3.6078 1.67103 0
M  V30 1978 N 187.719 -0.156864 1.56817 0
M  V30 1979 C 188.667 -1.21319 1.98455 0
M  V30 1980 C 189.661 -1.45025 0.875444 0
M  V30 1981 O 190.867 -1.45435 1.0606 0
M  V30 1982 H 187.242 -0.408142 0.631605 0
M  V30 1983 H 189.213 -0.835244 2.86472 0
M  V30 1984 C 187.962 -2.54148 2.37285 0
M  V30 1985 H 187.285 -2.36733 3.22176 0
M  V30 1986 H 188.725 -3.26712 2.70251 0
M  V30 1987 C 187.184 -3.13967 1.22173 0
M  V30 1988 O 187.714 -3.98357 0.517149 0
M  V30 1989 N 185.92 -2.7327 0.988536 0
M  V30 1990 H 185.467 -2.04744 1.56326 0
M  V30 1991 H 185.425 -3.13628 0.220209 0
M  V30 1992 N 189.197 -1.51736 -0.425897 0
M  V30 1993 C 190.422 -1.69082 -1.20108 0
M  V30 1994 C 190.847 -0.392398 -1.83962 0
M  V30 1995 O 190.205 0.64858 -1.69302 0
M  V30 1996 C 190.253 -2.81604 -2.25237 0
M  V30 1997 O 189.357 -2.46004 -3.30992 0
M  V30 1998 H 188.698 -0.563408 -0.35138 0
M  V30 1999 H 191.228 -1.98358 -0.501512 0
M  V30 2000 H 191.238 -3.06025 -2.69838 0
M  V30 2001 H 189.913 -3.75817 -1.78142 0
M  V30 2002 H 188.49 -2.32195 -2.91787 0
M  V30 2003 N 190.675 0.682077 -1.42076 0
M  V30 2004 C 191.638 1.77756 -1.44691 0
M  V30 2005 C 192.638 1.5726 -0.335535 0
M  V30 2006 O 193.828 1.63686 -0.596037 0
M  V30 2007 C 190.96 3.16301 -1.27146 0
M  V30 2008 H 192.153 1.76826 -2.42224 0
M  V30 2009 H 189.706 0.891012 -1.28416 0
M  V30 2010 H 190.441 3.22862 -0.305075 0
M  V30 2011 H 190.226 3.32581 -2.07683 0
M  V30 2012 H 191.716 3.96241 -1.31843 0
M  V30 2013 N 192.153 1.28127 0.917671 0
M  V30 2014 C 193.116 1.11744 2.00115 0
M  V30 2015 C 194.116 0.0583052 1.60694 0
M  V30 2016 O 195.306 0.303755 1.71531 0
M  V30 2017 C 192.438 0.704862 3.33533 0
M  V30 2018 H 193.631 2.07966 2.16079 0
M  V30 2019 H 191.184 1.11058 1.09981 0
M  V30 2020 H 191.919 -0.258299 3.2327 0
M  V30 2021 H 191.704 1.4699 3.63505 0
M  V30 2022 H 193.194 0.612768 4.1308 0
M  V30 2023 N 193.631 -1.12557 1.10312 0
M  V30 2024 C 194.579 -2.20325 0.745629 0
M  V30 2025 C 195.573 -1.67429 -0.25763 0
M  V30 2026 O 196.779 -1.79612 -0.118132 0
M  V30 2027 H 193.154 -0.718118 0.223182 0
M  V30 2028 H 195.125 -2.47733 1.66346 0
M  V30 2029 C 193.874 -3.47168 0.192262 0
M  V30 2030 H 193.197 -3.88215 0.955475 0
M  V30 2031 H 194.637 -4.23995 -0.0198274 0
M  V30 2032 C 193.096 -3.19298 -1.07472 0
M  V30 2033 O 193.626 -3.3891 -2.15645 0
M  V30 2034 N 191.832 -2.73113 -0.992847 0
M  V30 2035 H 191.379 -2.57354 -0.112474 0
M  V30 2036 H 191.337 -2.54842 -1.84127 0
M  V30 2037 N 195.109 -0.891671 -1.2995 0
M  V30 2038 C 196.039 -0.379797 -2.30391 0
M  V30 2039 C 197.02 0.540919 -1.6127 0
M  V30 2040 O 198.205 0.453352 -1.88834 0
M  V30 2041 C 195.335 0.400654 -3.44981 0
M  V30 2042 C 194.289 -0.428905 -4.25846 0
M  V30 2043 C 193.615 0.478557 -5.32554 0
M  V30 2044 C 194.915 -1.67458 -4.94727 0
M  V30 2045 H 196.609 -1.21914 -2.73454 0
M  V30 2046 H 194.155 -0.587675 -1.31462 0
M  V30 2047 H 196.108 0.769434 -4.14316 0
M  V30 2048 H 194.832 1.27371 -3.0074 0
M  V30 2049 H 193.491 -0.779911 -3.58208 0
M  V30 2050 H 193.139 1.34951 -4.84559 0
M  V30 2051 H 192.839 -0.0727433 -5.87555 0
M  V30 2052 H 194.363 0.843705 -6.04743 0
M  V30 2053 H 195.777 -1.376 -5.56542 0
M  V30 2054 H 194.174 -2.16659 -5.59624 0
M  V30 2055 H 195.244 -2.41518 -4.20473 0
M  V30 2056 N 196.587 1.43421 -0.653314 0
M  V30 2057 C 197.517 2.33487 0.0246656 0
M  V30 2058 C 198.498 1.49475 0.811863 0
M  V30 2059 O 199.683 1.78139 0.773322 0
M  V30 2060 C 196.813 3.32841 0.99166 0
M  V30 2061 C 195.767 4.26842 0.314568 0
M  V30 2062 C 195.093 5.16236 1.39302 0
M  V30 2063 C 196.393 5.16243 -0.793095 0
M  V30 2064 H 198.087 2.90427 -0.727481 0
M  V30 2065 H 195.633 1.39649 -0.351287 0
M  V30 2066 H 197.586 3.94747 1.47487 0
M  V30 2067 H 196.31 2.74158 1.77497 0
M  V30 2068 H 194.969 3.663 -0.148199 0
M  V30 2069 H 194.617 4.53891 2.16776 0
M  V30 2070 H 194.317 5.79948 0.945223 0
M  V30 2071 H 195.841 5.81015 1.87759 0
M  V30 2072 H 197.255 5.71958 -0.392039 0
M  V30 2073 H 195.652 5.88676 -1.16536 0
M  V30 2074 H 196.722 4.55927 -1.65103 0
M  V30 2075 N 198.065 0.39524 1.52563 0
M  V30 2076 C 198.995 -0.428384 2.29537 0
M  V30 2077 C 199.976 -1.05831 1.33169 0
M  V30 2078 O 201.161 -1.06995 1.62067 0
M  V30 2079 C 198.291 -1.55274 3.10656 0
M  V30 2080 C 197.245 -1.04855 4.14957 0
M  V30 2081 C 196.571 -2.26543 4.84337 0
M  V30 2082 C 197.871 -0.112324 5.22179 0
M  V30 2083 H 199.565 0.213867 2.98635 0
M  V30 2084 H 197.111 0.104298 1.43622 0
M  V30 2085 H 199.064 -2.1358 3.63265 0
M  V30 2086 H 197.788 -2.22266 2.39302 0
M  V30 2087 H 196.447 -0.487985 3.63338 0
M  V30 2088 H 196.095 -2.92059 4.09525 0
M  V30 2089 H 195.795 -1.93466 5.54837 0
M  V30 2090 H 197.319 -2.85481 5.39753 0
M  V30 2091 H 198.733 -0.603752 5.70112 0
M  V30 2092 H 197.13 0.128968 5.99961 0
M  V30 2093 H 198.2 0.837052 4.77621 0
M  V30 2094 N 199.544 -1.57102 0.125237 0
M  V30 2095 C 200.507 -2.14471 -0.80838 0
M  V30 2096 C 201.507 -1.0811 -1.19033 0
M  V30 2097 O 202.697 -1.33856 -1.11482 0
M  V30 2098 C 199.829 -2.69005 -2.09402 0
M  V30 2099 H 201.022 -2.98297 -0.309696 0
M  V30 2100 H 198.575 -1.55807 -0.124051 0
M  V30 2101 H 199.31 -1.88785 -2.63687 0
M  V30 2102 H 199.095 -3.46799 -1.82957 0
M  V30 2103 H 200.585 -3.13278 -2.76128 0
M  V30 2104 N 201.022 0.148545 -1.56898 0
M  V30 2105 C 202.25 0.876389 -1.87422 0
M  V30 2106 C 202.665 1.74809 -0.713256 0
M  V30 2107 O 202.022 1.79725 0.317025 0
M  V30 2108 C 202.073 1.73438 -3.17178 0
M  V30 2109 O 201.794 0.897809 -4.28802 0
M  V30 2110 C 203.295 2.56993 -3.61205 0
M  V30 2111 H 200.515 0.253489 -0.621277 0
M  V30 2112 H 203.059 0.141798 -2.04008 0
M  V30 2113 H 201.214 2.42205 -3.0235 0
M  V30 2114 H 201.628 1.48672 -5.02988 0
M  V30 2115 H 203.102 3.12773 -4.54838 0
M  V30 2116 H 203.579 3.32958 -2.86419 0
M  V30 2117 H 204.185 1.9352 -3.78722 0
M  V30 2118 N 202.5 1.5196 0.417844 0
M  V30 2119 C 203.746 1.65836 1.16732 0
M  V30 2120 C 204.079 0.382881 1.90388 0
M  V30 2121 O 203.354 -0.618368 1.84408 0
M  V30 2122 C 203.637 2.87466 2.16876 0
M  V30 2123 C 203.49 4.25041 1.47174 0
M  V30 2124 C 204.809 3.04613 3.17646 0
M  V30 2125 H 201.928 0.603515 0.423011 0
M  V30 2126 H 204.57 1.84494 0.454105 0
M  V30 2127 H 202.72 2.71689 2.777 0
M  V30 2128 H 204.392 4.52527 0.895376 0
M  V30 2129 H 202.635 4.26843 0.773806 0
M  V30 2130 H 203.306 5.06176 2.20204 0
M  V30 2131 H 205.782 3.1923 2.66892 0
M  V30 2132 H 204.658 3.91247 3.8499 0
M  V30 2133 H 204.919 2.17541 3.84874 0
M  V30 2134 N 203.978 -0.674533 1.42435 0
M  V30 2135 C 205.226 -1.43175 1.42637 0
M  V30 2136 C 205.547 -1.94951 0.0438992 0
M  V30 2137 O 204.817 -1.7308 -0.917607 0
M  V30 2138 H 203.397 -0.531307 0.525092 0
M  V30 2139 H 206.059 -0.797006 1.77859 0
M  V30 2140 H 205.155 -2.28463 2.12629 0
M  V30 2141 N 205.456 -1.28612 -0.910864 0
M  V30 2142 C 206.704 -1.15705 -1.65701 0
M  V30 2143 C 207.025 0.29416 -1.92769 0
M  V30 2144 O 206.295 1.20331 -1.54588 0
M  V30 2145 H 204.875 -0.425216 -0.614167 0
M  V30 2146 H 207.537 -1.61381 -1.0928 0
M  V30 2147 H 206.633 -1.6988 -2.61815 0
M  V30 2148 N 206.934 1.1197 -1.10907 0
M  V30 2149 C 208.345 1.65114 -0.871446 0
M  V30 2150 C 208.696 1.86885 0.597353 0
M  V30 2151 O 207.821 1.59896 1.45816 0
M  V30 2152 C 208.416 2.99944 -1.5754 0
M  V30 2153 C 206.975 3.50018 -1.38435 0
M  V30 2154 C 206.122 2.24941 -1.62164 0
M  V30 2155 H 209.073 0.956851 -1.2661 0
M  V30 2156 H 209.094 3.66651 -1.01721 0
M  V30 2157 H 208.606 2.84067 -2.64438 0
M  V30 2158 H 206.707 3.71071 -0.337214 0
M  V30 2159 H 206.82 4.29165 -2.12965 0
M  V30 2160 H 205.184 2.3229 -1.04467 0
M  V30 2161 H 205.967 2.11612 -2.70324 0
M  V30 2162 N 208.412 0.89855 1.29475 0
M  V30 2163 C 209.375 0.380272 2.26023 0
M  V30 2164 C 210.375 -0.484891 1.53315 0
M  V30 2165 O 211.565 -0.290108 1.71767 0
M  V30 2166 C 208.697 -0.45651 3.3783 0
M  V30 2167 H 209.89 1.23295 2.73383 0
M  V30 2168 H 207.443 0.676589 1.40897 0
M  V30 2169 H 208.178 -1.32922 2.95808 0
M  V30 2170 H 207.963 0.163393 3.91759 0
M  V30 2171 H 209.453 -0.810466 4.0966 0
M  V30 2172 N 209.89 -1.43072 0.660911 0
M  V30 2173 C 211.138 -2.01323 0.177094 0
M  V30 2174 C 211.459 -1.5245 -1.2159 0
M  V30 2175 O 210.729 -0.740322 -1.81373 0
M  V30 2176 H 209.309 -0.744382 0.0624804 0
M  V30 2177 H 211.971 -1.75179 0.854305 0
M  V30 2178 H 211.067 -3.11649 0.167641 0
M  V30 2179 N 211.368 -0.403325 -1.52352 0
M  V30 2180 C 212.298 0.416205 -2.29761 0
M  V30 2181 C 213.279 1.05123 -1.33728 0
M  V30 2182 O 214.464 1.06134 -1.62632 0
M  V30 2183 C 211.594 1.53624 -3.11475 0
M  V30 2184 C 210.548 1.02653 -4.15507 0
M  V30 2185 C 209.874 2.23971 -4.85532 0
M  V30 2186 C 211.174 0.08463 -5.22231 0
M  V30 2187 H 212.868 -0.229701 -2.98518 0
M  V30 2188 H 210.414 -0.111913 -1.43564 0
M  V30 2189 H 212.367 2.1165 -3.64393 0
M  V30 2190 H 211.091 2.20994 -2.40477 0
M  V30 2191 H 209.75 0.46871 -3.63591 0
M  V30 2192 H 209.398 2.89883 -4.11068 0
M  V30 2193 H 209.098 1.90521 -5.55856 0
M  V30 2194 H 210.622 2.82614 -5.41259 0
M  V30 2195 H 212.036 0.573509 -5.70424 0
M  V30 2196 H 210.433 -0.160783 -5.99885 0
M  V30 2197 H 211.503 -0.86237 -4.7717 0
M  V30 2198 N 212.846 1.57033 -0.133567 0
M  V30 2199 C 214.074 2.00044 0.528195 0
M  V30 2200 C 214.489 1.01349 1.59291 0
M  V30 2201 O 213.846 0.00848369 1.82498 0
M  V30 2202 C 213.897 3.43018 1.1411 0
M  V30 2203 O 213.618 4.37939 0.11892 0
M  V30 2204 C 215.119 4.01237 1.88477 0
M  V30 2205 H 212.339 0.656517 0.138661 0
M  V30 2206 H 214.883 2.03267 -0.224196 0
M  V30 2207 H 213.038 3.40688 1.84418 0
M  V30 2208 H 213.452 5.21436 0.56613 0
M  V30 2209 H 214.926 5.03314 2.26669 0
M  V30 2210 H 215.403 3.41193 2.76558 0
M  V30 2211 H 216.009 4.07156 1.22898 0
M  V30 2212 N 214.325 -0.140222 1.56975 0
M  V30 2213 C 215.288 -1.15689 1.97861 0
M  V30 2214 C 216.288 -1.3549 0.865974 0
M  V30 2215 O 217.478 -1.32367 1.13246 0
M  V30 2216 C 214.61 -2.51582 2.30042 0
M  V30 2217 H 215.803 -0.805971 2.88867 0
M  V30 2218 H 213.356 -0.383801 1.51515 0
M  V30 2219 H 214.091 -2.91632 1.41849 0
M  V30 2220 H 213.876 -2.38569 3.11171 0
M  V30 2221 H 215.366 -3.24792 2.62488 0
M  V30 2222 N 215.803 -1.52179 -0.40978 0
M  V30 2223 C 217.05 -1.66206 -1.15679 0
M  V30 2224 C 217.378 -0.391674 -1.90516 0
M  V30 2225 O 216.633 0.62533 -1.8544 0
M  V30 2226 C 216.932 -2.83428 -2.17723 0
M  V30 2227 C 216.598 -4.21672 -1.59699 0
M  V30 2228 C 215.26 -4.59274 -1.43599 0
M  V30 2229 C 217.612 -5.07825 -1.17317 0
M  V30 2230 C 214.94 -5.80709 -0.836328 0
M  V30 2231 C 217.292 -6.29864 -0.587691 0
M  V30 2232 C 215.956 -6.66216 -0.413818 0
M  V30 2233 H 215.226 -0.608192 -0.423301 0
M  V30 2234 H 217.873 -1.86279 -0.444097 0
M  V30 2235 H 216.178 -2.57687 -2.95135 0
M  V30 2236 H 217.875 -2.91477 -2.75394 0
M  V30 2237 H 214.465 -3.9204 -1.73213 0
M  V30 2238 H 218.649 -4.79359 -1.28565 0
M  V30 2239 H 213.905 -6.07498 -0.689626 0
M  V30 2240 H 218.079 -6.95948 -0.250894 0
M  V30 2241 H 215.706 -7.60182 0.0529471 0
M  V30 2242 N 217.281 0.66697 -1.42791 0
M  V30 2243 C 218.211 1.79218 -1.49677 0
M  V30 2244 C 219.192 1.66405 -0.352623 0
M  V30 2245 O 220.377 1.85708 -0.567993 0
M  V30 2246 C 217.507 3.17565 -1.40605 0
M  V30 2247 C 216.461 3.45124 -2.53127 0
M  V30 2248 C 215.787 4.83127 -2.29112 0
M  V30 2249 C 217.087 3.41236 -3.95418 0
M  V30 2250 H 218.781 1.73713 -2.43853 0
M  V30 2251 H 216.327 0.83432 -1.17367 0
M  V30 2252 H 218.28 3.96022 -1.44029 0
M  V30 2253 H 217.004 3.23767 -0.429271 0
M  V30 2254 H 215.663 2.69031 -2.49034 0
M  V30 2255 H 215.311 4.85988 -1.29709 0
M  V30 2256 H 215.011 5.02528 -3.04531 0
M  V30 2257 H 216.535 5.63859 -2.34297 0
M  V30 2258 H 217.949 4.09651 -4.01073 0
M  V30 2259 H 216.346 3.72173 -4.70752 0
M  V30 2260 H 217.416 2.39665 -4.21532 0
M  V30 2261 N 218.759 1.29093 0.90403 0
M  V30 2262 C 220.175 1.07011 1.1841 0
M  V30 2263 C 220.375 -0.181358 2.00682 0
M  V30 2264 O 219.431 -0.880331 2.36657 0
M  V30 2265 C 220.744 2.32311 1.90924 0
M  V30 2266 C 222.292 2.37587 2.03768 0
M  V30 2267 C 222.767 3.62679 2.79693 0
M  V30 2268 N 224.258 3.63376 2.87249 0
M  V30 2269 C 224.993 4.56848 3.46522 0
M  V30 2270 N 224.489 5.60648 4.06996 0
M  V30 2271 N 226.282 4.44426 3.44154 0
M  V30 2272 H 218.433 2.09412 0.354993 0
M  V30 2273 H 220.696 0.922181 0.219742 0
M  V30 2274 H 220.402 3.23536 1.37905 0
M  V30 2275 H 220.276 2.39483 2.91424 0
M  V30 2276 H 222.663 1.46853 2.55965 0
M  V30 2277 H 222.744 2.34403 1.02415 0
M  V30 2278 H 222.388 4.53762 2.28173 0
M  V30 2279 H 222.318 3.63119 3.81381 0
M  V30 2280 H 224.809 2.88321 2.44293 0
M  V30 2281 H 225.122 6.28101 4.50232 0
M  V30 2282 H 223.467 5.64463 4.05471 0
M  V30 2283 H 226.658 3.62529 2.96126 0
M  V30 2284 H 226.831 5.17457 3.90054 0
M  V30 2285 N 220.237 -1.11381 1.11499 0
M  V30 2286 C 221.169 -2.17207 0.731704 0
M  V30 2287 C 222.182 -1.61066 -0.236957 0
M  V30 2288 O 223.371 -1.78489 -0.0197591 0
M  V30 2289 C 220.471 -3.38846 0.0607624 0
M  V30 2290 C 219.644 -4.24451 1.0564 0
M  V30 2291 C 218.703 -5.24562 0.4149 0
M  V30 2292 O 217.729 -5.59071 1.069 0
M  V30 2293 N 218.931 -5.74651 -0.821943 0
M  V30 2294 H 221.696 -2.50699 1.64225 0
M  V30 2295 H 219.257 -1.26908 1.00529 0
M  V30 2296 H 221.249 -4.02911 -0.380139 0
M  V30 2297 H 219.819 -3.03411 -0.752376 0
M  V30 2298 H 219.039 -3.56833 1.67524 0
M  V30 2299 H 220.327 -4.78486 1.72998 0
M  V30 2300 H 219.725 -5.48797 -1.37252 0
M  V30 2301 H 218.282 -6.40549 -1.20582 0
M  V30 2302 N 221.715 -0.905404 -1.28997 0
M  V30 2303 C 222.964 -0.530191 -1.94607 0
M  V30 2304 C 223.277 0.929185 -1.72121 0
M  V30 2305 O 224.483 1.41218 -2.31883 0
M  V30 2306 C 222.939 -0.897333 -3.48534 0
M  V30 2307 C 222.547 -2.37587 -3.79811 0
M  V30 2308 C 224.291 -0.592304 -4.20347 0
M  V30 2309 C 222.198 -2.68357 -5.27009 0
M  V30 2310 H 221.128 -0.194558 -0.728466 0
M  V30 2311 H 223.779 -1.10318 -1.46636 0
M  V30 2312 H 222.161 -0.253214 -3.9519 0
M  V30 2313 H 223.335 -3.06602 -3.43994 0
M  V30 2314 H 221.65 -2.6505 -3.2115 0
M  V30 2315 H 224.247 -0.798975 -5.28697 0
M  V30 2316 H 224.59 0.469474 -4.13644 0
M  V30 2317 H 225.123 -1.19452 -3.79442 0
M  V30 2318 H 221.862 -3.73355 -5.38782 0
M  V30 2319 H 221.382 -2.03971 -5.64053 0
M  V30 2320 H 223.061 -2.54922 -5.94663 0
M  V30 2321 N 223.193 1.4272 -0.668489 0
M  V30 2322 C 224.441 2.01226 -0.187769 0
M  V30 2323 C 224.762 1.53092 1.2078 0
M  V30 2324 O 224.032 0.74993 1.80977 0
M  V30 2325 H 222.612 0.744041 -0.0664272 0
M  V30 2326 H 225.274 1.74723 -0.863583 0
M  V30 2327 H 224.37 3.11556 -0.184166 0
M  V30 2328 N 224.671 0.411399 1.52136 0
M  V30 2329 C 225.948 -0.222308 1.94333 0
M  V30 2330 C 226.328 -1.6242 1.34844 0
M  V30 2331 O 225.676 -2.22384 0.525145 0
M  V30 2332 C 225.886 -0.226345 3.48265 0
M  V30 2333 C 227.234 -0.444592 4.22266 0
M  V30 2334 O 228.258 -0.305602 3.54887 0
M  V30 2335 O 227.117 -0.718749 5.41753 0
M  V30 2336 H 224.211 -0.143907 0.814383 0
M  V30 2337 H 226.757 0.467506 1.63133 0
M  V30 2338 H 225.529 0.75475 3.83952 0
M  V30 2339 H 225.152 -0.960163 3.85832 0
M  V30 2340 N 226.149 -1.5696 0.141893 0
M  V30 2341 C 227.097 -2.17784 -0.816874 0
M  V30 2342 C 228.091 -1.1334 -1.25899 0
M  V30 2343 O 229.297 -1.316 -1.22806 0
M  V30 2344 H 225.672 -0.697278 -0.281615 0
M  V30 2345 H 227.643 -2.97087 -0.279621 0
M  V30 2346 C 226.392 -2.80983 -2.04802 0
M  V30 2347 H 225.715 -3.61062 -1.7168 0
M  V30 2348 H 227.155 -3.2705 -2.69841 0
M  V30 2349 C 225.614 -1.79228 -2.8527 0
M  V30 2350 O 226.144 -1.25962 -3.8144 0
M  V30 2351 N 224.35 -1.48647 -2.49704 0
M  V30 2352 H 223.897 -1.92155 -1.71564 0
M  V30 2353 H 223.855 -0.808115 -3.03837 0
M  V30 2354 N 227.627 0.131896 -1.57047 0
M  V30 2355 C 228.873 0.843179 -1.84441 0
M  V30 2356 C 229.206 1.80129 -0.725749 0
M  V30 2357 O 228.481 1.92624 0.269469 0
M  V30 2358 C 228.764 1.60442 -3.22382 0
M  V30 2359 C 228.617 0.666782 -4.4483 0
M  V30 2360 C 229.936 2.56354 -3.5773 0
M  V30 2361 H 227.055 0.305081 -0.670891 0
M  V30 2362 H 229.697 0.107839 -1.89694 0
M  V30 2363 H 227.847 2.23128 -3.18035 0
M  V30 2364 H 229.519 0.0497646 -4.61273 0
M  V30 2365 H 227.762 -0.022609 -4.33794 0
M  V30 2366 H 228.433 1.23579 -5.37989 0
M  V30 2367 H 230.909 2.0378 -3.62785 0
M  V30 2368 H 229.785 3.06657 -4.5525 0
M  V30 2369 H 230.046 3.38419 -2.84473 0
M  V30 2370 N 229.106 1.52395 0.401703 0
M  V30 2371 C 230.334 1.70676 1.16949 0
M  V30 2372 C 230.749 0.419503 1.8408 0
M  V30 2373 O 230.106 -0.605061 1.72178 0
M  V30 2374 C 230.157 2.84753 2.22706 0
M  V30 2375 O 229.878 4.08495 1.58314 0
M  V30 2376 C 231.379 3.14608 3.12309 0
M  V30 2377 H 228.599 0.571787 0.351142 0
M  V30 2378 H 231.143 1.98987 0.471652 0
M  V30 2379 H 229.298 2.58941 2.88147 0
M  V30 2380 H 229.712 4.72117 2.28485 0
M  V30 2381 H 231.186 3.97923 3.82572 0
M  V30 2382 H 231.663 2.28464 3.75101 0
M  V30 2383 H 232.269 3.42212 2.52529 0
M  V30 2384 N 230.584 -0.659388 1.43143 0
M  V30 2385 C 232 -0.974337 1.26407 0
M  V30 2386 C 232.2 -2.007 0.179341 0
M  V30 2387 O 231.256 -2.4856 -0.444295 0
M  V30 2388 C 232.569 -1.46447 2.62628 0
M  V30 2389 C 234.117 -1.58144 2.7011 0
M  V30 2390 C 234.592 -2.1055 4.06734 0
M  V30 2391 N 236.083 -2.17861 4.08767 0
M  V30 2392 C 236.818 -2.59519 5.1131 0
M  V30 2393 N 236.314 -3.00518 6.24228 0
M  V30 2394 N 238.107 -2.59404 4.98664 0
M  V30 2395 H 230.258 0.0240528 2.12386 0
M  V30 2396 H 232.521 -0.0518065 0.946583 0
M  V30 2397 H 232.227 -0.780123 3.42939 0
M  V30 2398 H 232.101 -2.44058 2.87603 0
M  V30 2399 H 234.488 -2.25682 1.90136 0
M  V30 2400 H 234.569 -0.589828 2.48907 0
M  V30 2401 H 234.213 -1.43616 4.87172 0
M  V30 2402 H 234.143 -3.10531 4.25298 0
M  V30 2403 H 236.634 -1.88975 3.27257 0
M  V30 2404 H 236.947 -3.31036 6.98309 0
M  V30 2405 H 235.292 -2.98337 6.2771 0
M  V30 2406 H 238.483 -2.26747 4.09516 0
M  V30 2407 H 238.656 -2.91548 5.78709 0
M  V30 2408 N 232.062 -1.29571 -0.897171 0
M  V30 2409 C 232.992 -1.17473 -2.01798 0
M  V30 2410 C 233.973 -0.068323 -1.69963 0
M  V30 2411 O 235.158 -0.248239 -1.92607 0
M  V30 2412 C 232.288 -0.853099 -3.36659 0
M  V30 2413 C 231.242 -1.9161 -3.82713 0
M  V30 2414 C 230.568 -1.44773 -5.14728 0
M  V30 2415 C 231.868 -3.32535 -4.02763 0
M  V30 2416 H 233.562 -2.11237 -2.12177 0
M  V30 2417 H 231.108 -1.01699 -1.01948 0
M  V30 2418 H 233.061 -0.755165 -4.14578 0
M  V30 2419 H 231.785 0.120236 -3.26379 0
M  V30 2420 H 230.444 -2.00346 -3.07013 0
M  V30 2421 H 230.092 -0.462995 -5.00865 0
M  V30 2422 H 229.792 -2.15865 -5.46513 0
M  V30 2423 H 231.316 -1.36334 -5.95185 0
M  V30 2424 H 232.73 -3.26626 -4.71156 0
M  V30 2425 H 231.127 -4.01607 -4.45905 0
M  V30 2426 H 232.197 -3.75326 -3.07016 0
M  V30 2427 N 233.54 1.10788 -1.12088 0
M  V30 2428 C 234.817 1.79136 -0.785476 0
M  V30 2429 C 235.197 1.98246 0.725377 0
M  V30 2430 O 234.545 1.57258 1.65778 0
M  V30 2431 C 234.755 3.12375 -1.55636 0
M  V30 2432 C 236.103 3.8731 -1.74001 0
M  V30 2433 O 237.127 3.22085 -1.52117 0
M  V30 2434 O 235.986 5.04369 -2.10415 0
M  V30 2435 H 233.08 0.776226 -0.285311 0
M  V30 2436 H 235.626 1.1747 -1.2247 0
M  V30 2437 H 234.398 2.93863 -2.5838 0
M  V30 2438 H 234.021 3.81758 -1.11114 0
M  V30 2439 N 235.018 0.912232 1.28515 0
M  V30 2440 C 236.434 0.610159 1.47476 0
M  V30 2441 C 236.634 -0.844955 1.82928 0
M  V30 2442 O 235.69 -1.62416 1.93332 0
M  V30 2443 C 237.003 1.54675 2.57868 0
M  V30 2444 C 238.551 1.55331 2.71738 0
M  V30 2445 C 239.026 2.47649 3.85272 0
M  V30 2446 N 240.517 2.45767 3.92623 0
M  V30 2447 C 241.252 3.13896 4.79851 0
M  V30 2448 N 240.748 3.9135 5.71679 0
M  V30 2449 N 242.541 3.02991 4.73448 0
M  V30 2450 H 234.692 1.85318 1.03783 0
M  V30 2451 H 236.955 0.794777 0.516753 0
M  V30 2452 H 236.661 2.5841 2.38574 0
M  V30 2453 H 236.535 1.27671 3.54937 0
M  V30 2454 H 238.922 0.52335 2.90422 0
M  V30 2455 H 239.003 1.86378 1.75205 0
M  V30 2456 H 238.647 3.50745 3.67342 0
M  V30 2457 H 238.577 2.13904 4.81199 0
M  V30 2458 H 241.068 1.89503 3.26951 0
M  V30 2459 H 241.381 4.40359 6.35062 0
M  V30 2460 H 239.726 3.95455 5.71524 0
M  V30 2461 H 242.917 2.41987 4.007 0
M  V30 2462 H 243.09 3.5636 5.41213 0
M  V30 2463 N 236.496 -1.42363 0.676048 0
M  V30 2464 C 237.742 -2.02336 0.207809 0
M  V30 2465 C 238.097 -1.52506 -1.17302 0
M  V30 2466 O 237.39 -0.718048 -1.77636 0
M  V30 2467 C 237.584 -3.56929 0.183431 0
M  V30 2468 C 237.413 -4.21762 1.56036 0
M  V30 2469 C 236.183 -4.56881 2.15842 0
M  V30 2470 C 238.381 -4.49267 2.50327 0
M  V30 2471 N 236.363 -5.069 3.46303 0
M  V30 2472 C 237.734 -5.00851 3.65443 0
M  V30 2473 C 239.789 -4.31257 2.48841 0
M  V30 2474 C 238.492 -5.36317 4.79329 0
M  V30 2475 C 240.518 -4.678 3.61824 0
M  V30 2476 C 239.88 -5.19537 4.75668 0
M  V30 2477 H 235.979 -0.772583 0.120993 0
M  V30 2478 H 238.563 -1.73203 0.889306 0
M  V30 2479 H 236.734 -3.85576 -0.467483 0
M  V30 2480 H 238.466 -4.03603 -0.297808 0
M  V30 2481 H 235.221 -4.4268 1.68319 0
M  V30 2482 H 235.645 -5.36338 4.13123 0
M  V30 2483 H 240.287 -3.90511 1.62051 0
M  V30 2484 H 238.005 -5.75995 5.66794 0
M  V30 2485 H 241.591 -4.55541 3.61903 0
M  V30 2486 H 240.471 -5.47287 5.61646 0
M  V30 2487 N 237.974 -0.419461 -1.51915 0
M  V30 2488 C 238.884 0.407528 -2.31033 0
M  V30 2489 C 239.9 1.04413 -1.3919 0
M  V30 2490 O 241.076 1.0434 -1.72265 0
M  V30 2491 C 238.141 1.50365 -3.12396 0
M  V30 2492 C 237.202 0.889029 -4.19994 0
M  V30 2493 C 236.435 1.93291 -4.97468 0
M  V30 2494 O 236.658 3.15259 -4.75361 0
M  V30 2495 O 235.592 1.53339 -5.8204 0
M  V30 2496 H 239.418 -0.237865 -3.02767 0
M  V30 2497 H 237.003 -0.182413 -1.48282 0
M  V30 2498 H 238.885 2.13975 -3.63032 0
M  V30 2499 H 237.56 2.13345 -2.43445 0
M  V30 2500 H 236.467 0.215353 -3.7348 0
M  V30 2501 H 237.8 0.302991 -4.91267 0
M  V30 2502 N 239.452 1.56882 -0.150215 0
M  V30 2503 C 240.68 2.00593 0.506948 0
M  V30 2504 C 241.095 1.03033 1.58208 0
M  V30 2505 O 240.452 0.0278396 1.82479 0
M  V30 2506 C 240.503 3.44209 1.10465 0
M  V30 2507 O 240.224 4.3804 0.0724636 0
M  V30 2508 C 241.725 4.03214 1.84211 0
M  V30 2509 H 238.945 0.65795 0.13169 0
M  V30 2510 H 241.489 2.03018 -0.245743 0
M  V30 2511 H 239.644 3.42625 1.80795 0
M  V30 2512 H 240.058 5.22007 0.510793 0
M  V30 2513 H 241.532 5.0569 2.21318 0
M  V30 2514 H 242.009 3.44107 2.72923 0
M  V30 2515 H 242.615 4.08437 1.18572 0
M  V30 2516 N 240.93 -0.123565 1.57115 0
M  V30 2517 C 241.84 -1.17074 2.033 0
M  V30 2518 C 242.856 -1.4561 0.952559 0
M  V30 2519 O 244.032 -1.56817 1.26374 0
M  V30 2520 C 241.097 -2.47857 2.42421 0
M  V30 2521 C 240.158 -2.26758 3.64526 0
M  V30 2522 C 239.391 -3.51305 4.01771 0
M  V30 2523 O 239.614 -4.5843 3.39409 0
M  V30 2524 O 238.548 -3.42578 4.94898 0
M  V30 2525 H 242.374 -0.808555 2.92739 0
M  V30 2526 H 239.959 -0.334027 1.45618 0
M  V30 2527 H 241.841 -3.2492 2.68338 0
M  V30 2528 H 240.516 -2.83558 1.5613 0
M  V30 2529 H 239.423 -1.47569 3.43765 0
M  V30 2530 H 240.756 -1.95963 4.51508 0
M  V30 2531 N 242.408 -1.52605 -0.393616 0
M  V30 2532 C 243.338 -1.80022 -1.48709 0
M  V30 2533 C 244.319 -0.651995 -1.57108 0
M  V30 2534 O 245.504 -0.89913 -1.72132 0
M  V30 2535 C 242.634 -1.96492 -2.86371 0
M  V30 2536 C 241.588 -3.12161 -2.92813 0
M  V30 2537 C 240.914 -3.13877 -4.3288 0
M  V30 2538 C 242.214 -4.51322 -2.6288 0
M  V30 2539 H 243.908 -2.71589 -1.26015 0
M  V30 2540 H 241.454 -1.30684 -0.604778 0
M  V30 2541 H 243.407 -2.14255 -3.62867 0
M  V30 2542 H 242.131 -1.01611 -3.10391 0
M  V30 2543 H 240.79 -2.94173 -2.18764 0
M  V30 2544 H 240.438 -2.16687 -4.53933 0
M  V30 2545 H 240.138 -3.91576 -4.38112 0
M  V30 2546 H 241.662 -3.33789 -5.1129 0
M  V30 2547 H 243.076 -4.69435 -3.29096 0
M  V30 2548 H 241.473 -5.31053 -2.79468 0
M  V30 2549 H 242.543 -4.58353 -1.58242 0
M  V30 2550 N 243.887 0.651787 -1.4349 0
M  V30 2551 C 244.835 1.78586 -1.49029 0
M  V30 2552 C 245.829 1.65448 -0.363767 0
M  V30 2553 O 247.035 1.71777 -0.537821 0
M  V30 2554 H 243.41 0.589236 -0.467231 0
M  V30 2555 H 245.381 1.71035 -2.44519 0
M  V30 2556 C 244.13 3.16851 -1.43181 0
M  V30 2557 H 243.453 3.27598 -2.29171 0
M  V30 2558 H 244.893 3.96156 -1.51118 0
M  V30 2559 C 243.352 3.36568 -0.149616 0
M  V30 2560 O 243.882 3.93885 0.788509 0
M  V30 2561 N 242.088 2.90539 -0.0593484 0
M  V30 2562 H 241.635 2.4408 -0.823575 0
M  V30 2563 H 241.593 3.04108 0.797853 0
M  V30 2564 N 245.365 1.30045 0.890287 0
M  V30 2565 C 246.275 1.17885 2.02831 0
M  V30 2566 C 247.291 0.0999609 1.73713 0
M  V30 2567 O 248.467 0.313867 1.98939 0
M  V30 2568 C 245.532 0.866079 3.35708 0
M  V30 2569 C 244.593 2.02979 3.78283 0
M  V30 2570 C 243.826 1.73184 5.0482 0
M  V30 2571 O 244.049 0.657237 5.66601 0
M  V30 2572 O 242.983 2.58267 5.43674 0
M  V30 2573 H 246.809 2.13474 2.16015 0
M  V30 2574 H 244.394 1.09587 1.01543 0
M  V30 2575 H 246.276 0.706623 4.15433 0
M  V30 2576 H 244.951 -0.0599443 3.23644 0
M  V30 2577 H 243.858 2.24454 2.99285 0
M  V30 2578 H 245.191 2.93734 3.94944 0
M  V30 2579 N 246.843 -1.10192 1.12674 0
M  V30 2580 C 247.806 -2.14786 0.799979 0
M  V30 2581 C 248.806 -1.59711 -0.18685 0
M  V30 2582 O 249.996 -1.74156 0.0392558 0
M  V30 2583 C 247.128 -3.40374 0.189228 0
M  V30 2584 H 248.321 -2.45203 1.72671 0
M  V30 2585 H 245.874 -1.25597 0.930326 0
M  V30 2586 H 246.609 -3.15577 -0.747107 0
M  V30 2587 H 246.394 -3.81637 0.899766 0
M  V30 2588 H 247.884 -4.17594 -0.0228143 0
M  V30 2589 N 248.321 -0.919034 -1.28029 0
M  V30 2590 C 249.251 -0.428581 -2.29533 0
M  V30 2591 C 250.232 0.50659 -1.62381 0
M  V30 2592 O 251.417 0.413195 -1.89753 0
M  V30 2593 C 248.547 0.327388 -3.45753 0
M  V30 2594 C 247.501 -0.519137 -4.2484 0
M  V30 2595 C 246.827 0.365486 -5.33449 0
M  V30 2596 C 248.127 -1.77914 -4.91064 0
M  V30 2597 H 249.821 -1.27687 -2.70807 0
M  V30 2598 H 247.367 -0.615428 -1.30186 0
M  V30 2599 H 249.32 0.681378 -4.15855 0
M  V30 2600 H 248.044 1.20963 -3.03374 0
M  V30 2601 H 246.703 -0.855717 -3.56473 0
M  V30 2602 H 246.351 1.24642 -4.87312 0
M  V30 2603 H 246.051 -0.197356 -5.87268 0
M  V30 2604 H 247.575 0.715241 -6.06396 0
M  V30 2605 H 248.989 -1.49374 -5.53498 0
M  V30 2606 H 247.386 -2.2848 -5.54903 0
M  V30 2607 H 248.456 -2.50382 -4.15255 0
M  V30 2608 N 249.799 1.42003 -0.683588 0
M  V30 2609 C 251.21 1.84501 -0.285736 0
M  V30 2610 C 251.561 1.57213 1.17382 0
M  V30 2611 O 250.686 1.03642 1.89966 0
M  V30 2612 C 251.281 3.34912 -0.511821 0
M  V30 2613 C 249.84 3.76025 -0.168005 0
M  V30 2614 C 248.987 2.6551 -0.799983 0
M  V30 2615 H 251.938 1.31724 -0.885119 0
M  V30 2616 H 251.959 3.79784 0.233292 0
M  V30 2617 H 251.471 3.54741 -1.57418 0
M  V30 2618 H 249.572 3.61801 0.890567 0
M  V30 2619 H 249.685 4.75141 -0.614661 0
M  V30 2620 H 248.049 2.53654 -0.230568 0
M  V30 2621 H 248.832 2.8816 -1.86597 0
M  V30 2622 N 251.277 0.427512 1.51691 0
M  V30 2623 C 252.525 -0.141948 2.01601 0
M  V30 2624 C 252.846 -1.44067 1.31414 0
M  V30 2625 O 252.116 -1.90763 0.445658 0
M  V30 2626 H 250.696 -0.0554468 0.744939 0
M  V30 2627 H 253.358 0.567968 1.86441 0
M  V30 2628 H 252.454 -0.324913 3.10404 0
M  V30 2629 N 252.755 -1.56801 0.158532 0
M  V30 2630 C 254.032 -1.88131 -0.535357 0
M  V30 2631 C 254.412 -1.06638 -1.82186 0
M  V30 2632 O 253.76 -0.156533 -2.27963 0
M  V30 2633 C 253.97 -3.39949 -0.789653 0
M  V30 2634 C 255.318 -4.09416 -1.12533 0
M  V30 2635 O 256.342 -3.45194 -0.878622 0
M  V30 2636 O 255.201 -5.22855 -1.59014 0
M  V30 2637 H 252.295 -0.780143 -0.27442 0
M  V30 2638 H 254.841 -1.68564 0.19601 0
M  V30 2639 H 253.613 -3.91115 0.120353 0
M  V30 2640 H 253.236 -3.65084 -1.57479 0
M  V30 2641 N 254.233 0.115231 -1.57178 0
M  V30 2642 C 255.196 1.12526 -1.99676 0
M  V30 2643 C 256.196 1.34095 -0.88742 0
M  V30 2644 O 257.386 1.30548 -1.15337 0
M  V30 2645 C 254.518 2.4789 -2.34015 0
M  V30 2646 H 255.711 0.759912 -2.90113 0
M  V30 2647 H 253.264 0.359648 -1.52106 0
M  V30 2648 H 253.999 2.89339 -1.4647 0
M  V30 2649 H 253.784 2.33588 -3.14927 0
M  V30 2650 H 255.274 3.20575 -2.67622 0
M  V30 2651 N 255.711 1.52812 0.385517 0
M  V30 2652 C 257.127 1.4214 0.725829 0
M  V30 2653 C 257.327 0.544589 1.94001 0
M  V30 2654 O 256.383 0.0193693 2.52493 0
M  V30 2655 C 257.696 2.85042 0.957668 0
M  V30 2656 C 259.244 2.94543 1.05892 0
M  V30 2657 C 259.719 4.38464 1.32337 0
M  V30 2658 N 261.21 4.41804 1.39151 0
M  V30 2659 C 261.945 5.5025 1.61285 0
M  V30 2660 N 261.441 6.68775 1.80866 0
M  V30 2661 N 263.234 5.37798 1.63492 0
M  V30 2662 H 255.385 2.08338 -0.413383 0
M  V30 2663 H 257.648 0.940016 -0.122775 0
M  V30 2664 H 257.354 3.51431 0.137568 0
M  V30 2665 H 257.228 3.27505 1.87137 0
M  V30 2666 H 259.615 2.28321 1.86959 0
M  V30 2667 H 259.696 2.55504 0.123057 0
M  V30 2668 H 259.34 5.05254 0.517793 0
M  V30 2669 H 259.27 4.75059 2.27214 0
M  V30 2670 H 261.761 3.56377 1.25713 0
M  V30 2671 H 262.074 7.47197 1.97271 0
M  V30 2672 H 260.419 6.71797 1.78083 0
M  V30 2673 H 263.61 4.44171 1.47749 0
M  V30 2674 H 263.783 6.22382 1.80402 0
M  V30 2675 N 257.189 -0.644168 1.43834 0
M  V30 2676 C 258.466 -1.40188 1.36406 0
M  V30 2677 C 258.846 -2.11094 0.0163124 0
M  V30 2678 O 258.194 -2.05426 -1.00062 0
M  V30 2679 C 258.404 -2.3791 2.55343 0
M  V30 2680 C 259.752 -3.01637 2.98832 0
M  V30 2681 O 260.776 -2.48237 2.55455 0
M  V30 2682 O 259.635 -3.98477 3.74003 0
M  V30 2683 H 256.729 -0.626773 0.539523 0
M  V30 2684 H 259.275 -0.670317 1.559 0
M  V30 2685 H 258.047 -1.84525 3.4506 0
M  V30 2686 H 257.67 -3.18503 2.37995 0
M  V30 2687 N 258.668 -1.30515 -0.883378 0
M  V30 2688 C 259.896 -1.22359 -1.66841 0
M  V30 2689 C 260.311 0.213296 -1.87591 0
M  V30 2690 O 259.668 1.14075 -1.42454 0
M  V30 2691 C 259.719 -1.95011 -3.04389 0
M  V30 2692 O 259.44 -3.3309 -2.84575 0
M  V30 2693 C 260.941 -1.93532 -3.98824 0
M  V30 2694 H 258.161 -0.423371 -0.520575 0
M  V30 2695 H 260.705 -1.72167 -1.10357 0
M  V30 2696 H 258.86 -1.48997 -3.57601 0
M  V30 2697 H 259.274 -3.69907 -3.71846 0
M  V30 2698 H 260.748 -2.48902 -4.92699 0
M  V30 2699 H 261.225 -0.914627 -4.29571 0
M  V30 2700 H 261.831 -2.39364 -3.51547 0
M  V30 2701 N 260.146 1.09593 -1.13257 0
M  V30 2702 C 261.374 1.855 -0.916378 0
M  V30 2703 C 261.789 1.81069 0.534738 0
M  V30 2704 O 261.146 1.20562 1.37007 0
M  V30 2705 C 261.197 3.33546 -1.39388 0
M  V30 2706 O 260.918 3.37927 -2.78813 0
M  V30 2707 C 262.419 4.26299 -1.21588 0
M  V30 2708 H 259.639 0.585991 -0.326887 0
M  V30 2709 H 262.183 1.38488 -1.5047 0
M  V30 2710 H 260.338 3.77992 -0.848597 0
M  V30 2711 H 260.752 4.30254 -2.9997 0
M  V30 2712 H 262.226 5.28341 -1.59876 0
M  V30 2713 H 262.703 4.38918 -0.157376 0
M  V30 2714 H 263.309 3.87668 -1.7491 0
M  V30 2715 N 261.624 0.925811 1.2754 0
M  V30 2716 C 262.852 0.581509 1.9856 0
M  V30 2717 C 263.267 -0.840041 1.69082 0
M  V30 2718 O 262.624 -1.55805 0.950312 0
M  V30 2719 C 262.675 0.795589 3.52637 0
M  V30 2720 O 262.396 2.16121 3.81082 0
M  V30 2721 C 263.897 0.459744 4.4091 0
M  V30 2722 H 261.117 0.220538 0.633722 0
M  V30 2723 H 263.661 1.24232 1.6244 0
M  V30 2724 H 261.816 0.18161 3.86974 0
M  V30 2725 H 262.23 2.2098 4.75676 0
M  V30 2726 H 263.704 0.660244 5.48037 0
M  V30 2727 H 264.181 -0.604625 4.35018 0
M  V30 2728 H 264.787 1.05178 4.12089 0
M  V30 2729 N 263.102 -1.41638 0.69111 0
M  V30 2730 C 264.513 -1.84346 0.295517 0
M  V30 2731 C 264.864 -1.57833 -1.16547 0
M  V30 2732 O 263.989 -1.04648 -1.89414 0
M  V30 2733 C 264.584 -3.34636 0.529575 0
M  V30 2734 C 263.143 -3.7593 0.187944 0
M  V30 2735 C 262.29 -2.65082 0.814052 0
M  V30 2736 H 265.241 -1.31253 0.892092 0
M  V30 2737 H 265.262 -3.79903 -0.213148 0
M  V30 2738 H 264.774 -3.53901 1.59297 0
M  V30 2739 H 262.875 -3.62268 -0.871367 0
M  V30 2740 H 262.988 -4.74808 0.63985 0
M  V30 2741 H 261.352 -2.53528 0.244017 0
M  V30 2742 H 262.135 -2.87167 1.88123 0
M  V30 2743 N 264.58 -0.43555 -1.51462 0
M  V30 2744 C 265.543 0.365137 -2.26273 0
M  V30 2745 C 266.543 0.951227 -1.29647 0
M  V30 2746 O 267.733 0.825958 -1.53374 0
M  V30 2747 C 264.865 1.51645 -3.05314 0
M  V30 2748 H 266.058 -0.290474 -2.9849 0
M  V30 2749 H 263.611 -0.188676 -1.55157 0
M  V30 2750 H 264.346 2.20816 -2.3751 0
M  V30 2751 H 264.131 1.10238 -3.76284 0
M  V30 2752 H 265.621 2.08218 -3.61987 0
M  V30 2753 N 266.058 1.56714 -0.166846 0
M  V30 2754 C 267.283 2.01557 0.488833 0
M  V30 2755 C 267.708 1.0463 1.56314 0
M  V30 2756 O 267.066 0.0251304 1.81283 0
M  V30 2757 C 267.114 3.4503 1.04818 0
M  V30 2758 O 266.218 3.51163 2.16236 0
M  V30 2759 H 265.559 0.653516 0.117526 0
M  V30 2760 H 268.089 2.02818 -0.269421 0
M  V30 2761 H 268.099 3.84243 1.37191 0
M  V30 2762 H 266.774 4.15077 0.261572 0
M  V30 2763 H 265.351 3.23807 1.84942 0
M  V30 2764 N 267.536 -0.106894 1.57237 0
M  V30 2765 C 268.469 -1.16125 1.96444 0
M  V30 2766 C 269.447 -1.3947 0.835871 0
M  V30 2767 O 270.631 -1.53425 1.09513 0
M  V30 2768 C 267.758 -2.51277 2.27107 0
M  V30 2769 C 266.804 -2.44285 3.4961 0
M  V30 2770 S 267.637 -1.87077 5.01759 0
M  V30 2771 C 268.793 -3.23877 5.35588 0
M  V30 2772 H 269.026 -0.826971 2.85567 0
M  V30 2773 H 266.559 -0.314124 1.51171 0
M  V30 2774 H 268.517 -3.29035 2.45451 0
M  V30 2775 H 267.178 -2.81879 1.38576 0
M  V30 2776 H 266.371 -3.4387 3.68469 0
M  V30 2777 H 265.973 -1.74652 3.30715 0
M  V30 2778 H 268.265 -4.20122 5.31511 0
M  V30 2779 H 269.208 -3.09833 6.36717 0
M  V30 2780 H 269.616 -3.22864 4.63054 0
M  V30 2781 N 269.014 -1.53014 -0.377408 0
M  V30 2782 C 269.977 -1.77957 -1.44444 0
M  V30 2783 C 270.977 -0.649763 -1.47087 0
M  V30 2784 O 272.167 -0.917897 -1.48055 0
M  V30 2785 C 269.299 -1.89089 -2.83651 0
M  V30 2786 H 270.492 -2.73243 -1.23606 0
M  V30 2787 H 268.045 -1.43912 -0.609844 0
M  V30 2788 H 268.78 -0.958293 -3.09818 0
M  V30 2789 H 268.565 -2.71254 -2.83132 0
M  V30 2790 H 270.055 -2.1002 -3.60945 0
M  V30 2791 N 270.492 0.636531 -1.44174 0
M  V30 2792 C 271.455 1.73063 -1.50273 0
M  V30 2793 C 272.455 1.56113 -0.385397 0
M  V30 2794 O 273.645 1.61707 -0.64781 0
M  V30 2795 C 270.777 3.12096 -1.37145 0
M  V30 2796 H 271.97 1.69031 -2.47727 0
M  V30 2797 H 269.523 0.849706 -1.31186 0
M  V30 2798 H 270.258 3.21728 -0.407636 0
M  V30 2799 H 270.043 3.25805 -2.18159 0
M  V30 2800 H 271.533 3.91846 -1.44382 0
M  V30 2801 N 271.97 1.30982 0.876444 0
M  V30 2802 C 273.198 1.23242 1.6619 0
M  V30 2803 C 273.613 -0.203345 1.87702 0
M  V30 2804 O 272.97 -1.13317 1.43057 0
M  V30 2805 C 273.021 1.96623 3.03351 0
M  V30 2806 O 272.742 3.34594 2.82804 0
M  V30 2807 C 274.243 1.95644 3.97792 0
M  V30 2808 H 271.463 0.426126 0.518322 0
M  V30 2809 H 274.007 1.7275 1.09442 0
M  V30 2810 H 272.162 1.50892 3.56806 0
M  V30 2811 H 272.576 3.71873 3.69879 0
M  V30 2812 H 274.05 2.51511 4.91372 0
M  V30 2813 H 274.527 0.937395 4.2908 0
M  V30 2814 H 275.133 2.41225 3.50272 0
M  V30 2815 N 273.449 -1.08991 1.13837 0
M  V30 2816 C 274.379 -2.17771 0.842507 0
M  V30 2817 C 275.36 -1.6892 -0.20001 0
M  V30 2818 O 276.545 -1.94113 -0.0579731 0
M  V30 2819 C 273.675 -3.4589 0.312644 0
M  V30 2820 C 272.629 -4.08099 1.28992 0
M  V30 2821 C 271.955 -5.31098 0.619623 0
M  V30 2822 C 273.255 -4.50077 2.65005 0
M  V30 2823 H 274.949 -2.42777 1.75213 0
M  V30 2824 H 272.495 -1.16682 0.843875 0
M  V30 2825 H 274.448 -4.21297 0.0933043 0
M  V30 2826 H 273.172 -3.20419 -0.632382 0
M  V30 2827 H 271.831 -3.34717 1.49533 0
M  V30 2828 H 271.479 -5.0191 -0.33102 0
M  V30 2829 H 271.179 -5.73674 1.27167 0
M  V30 2830 H 272.703 -6.09224 0.409669 0
M  V30 2831 H 274.117 -5.16688 2.48407 0
M  V30 2832 H 272.514 -5.03553 3.26427 0
M  V30 2833 H 273.584 -3.62257 3.22332 0
M  V30 2834 N 274.927 -0.932562 -1.27047 0
M  V30 2835 C 276.343 -0.633544 -1.46487 0
M  V30 2836 C 276.543 0.815746 -1.84249 0
M  V30 2837 O 275.599 1.59319 -1.95892 0
M  V30 2838 C 276.912 -1.58758 -2.55375 0
M  V30 2839 C 278.46 -1.59634 -2.69232 0
M  V30 2840 C 278.935 -2.53747 -3.81283 0
M  V30 2841 N 280.426 -2.51982 -3.88664 0
M  V30 2842 C 281.161 -3.21491 -4.74796 0
M  V30 2843 N 280.657 -4.00395 -5.65381 0
M  V30 2844 N 282.45 -3.10485 -4.68568 0
M  V30 2845 H 274.601 -1.86946 -1.00821 0
M  V30 2846 H 276.864 -0.802897 -0.504044 0
M  V30 2847 H 276.57 -2.62172 -2.34432 0
M  V30 2848 H 276.444 -1.33301 -3.52861 0
M  V30 2849 H 278.831 -0.569488 -2.89553 0
M  V30 2850 H 278.912 -1.89142 -1.72218 0
M  V30 2851 H 278.556 -3.56545 -3.61715 0
M  V30 2852 H 278.486 -2.21532 -4.77735 0
M  V30 2853 H 280.977 -1.94681 -3.23895 0
M  V30 2854 H 281.29 -4.50406 -6.27976 0
M  V30 2855 H 279.635 -4.04498 -5.65161 0
M  V30 2856 H 282.826 -2.48331 -3.96799 0
M  V30 2857 H 282.999 -3.64925 -5.35475 0
M  V30 2858 N 276.405 1.4127 -0.698611 0
M  V30 2859 C 277.352 2.30773 -0.0352094 0
M  V30 2860 C 278.322 1.47273 0.768111 0
M  V30 2861 O 279.507 1.76053 0.735524 0
M  V30 2862 C 276.647 3.33346 0.893 0
M  V30 2863 C 275.76 4.31924 0.0809695 0
M  V30 2864 C 274.895 5.21566 1.0071 0
M  V30 2865 C 273.934 6.11811 0.188155 0
M  V30 2866 N 273.071 6.93926 1.06825 0
M  V30 2867 H 277.911 2.86943 -0.804207 0
M  V30 2868 H 275.448 1.4132 -0.408294 0
M  V30 2869 H 277.406 3.91368 1.44523 0
M  V30 2870 H 276.036 2.78719 1.62836 0
M  V30 2871 H 275.088 3.75825 -0.588224 0
M  V30 2872 H 276.4 4.95716 -0.553801 0
M  V30 2873 H 275.554 5.84437 1.62845 0
M  V30 2874 H 274.293 4.58008 1.67572 0
M  V30 2875 H 273.298 5.47986 -0.446254 0
M  V30 2876 H 274.523 6.77425 -0.476716 0
M  V30 2877 H 272.469 6.32973 1.72283 0
M  V30 2878 H 272.386 7.54416 0.489123 0
M  V30 2879 H 273.654 7.61262 1.67632 0
M  V30 2880 N 277.883 0.443576 1.51229 0
M  V30 2881 C 278.813 -0.355142 2.30783 0
M  V30 2882 C 279.794 -1.0154 1.36468 0
M  V30 2883 O 280.979 -1.01785 1.65389 0
M  V30 2884 C 278.109 -1.45312 3.15439 0
M  V30 2885 C 277.063 -0.916002 4.18083 0
M  V30 2886 C 276.389 -2.1102 4.91299 0
M  V30 2887 C 277.689 0.0538602 5.22272 0
M  V30 2888 H 279.383 0.308767 2.97804 0
M  V30 2889 H 276.929 0.149937 1.43217 0
M  V30 2890 H 278.882 -2.01914 3.69876 0
M  V30 2891 H 277.606 -2.14541 2.46252 0
M  V30 2892 H 276.265 -0.372145 3.64706 0
M  V30 2893 H 275.913 -2.78882 4.18609 0
M  V30 2894 H 275.613 -1.75717 5.60712 0
M  V30 2895 H 277.137 -2.68164 5.48562 0
M  V30 2896 H 278.551 -0.422069 5.71744 0
M  V30 2897 H 276.948 0.319776 5.99247 0
M  V30 2898 H 278.018 0.98858 4.74716 0
M  V30 2899 N 279.361 -1.56624 0.175154 0
M  V30 2900 C 280.291 -2.21155 -0.749195 0
M  V30 2901 C 281.272 -1.16836 -1.23626 0
M  V30 2902 O 282.457 -1.45277 -1.28873 0
M  V30 2903 C 279.587 -2.8553 -1.97711 0
M  V30 2904 C 278.541 -3.95921 -1.62575 0
M  V30 2905 C 277.867 -4.47365 -2.92864 0
M  V30 2906 C 279.167 -5.15323 -0.850838 0
M  V30 2907 H 280.861 -2.98653 -0.211295 0
M  V30 2908 H 278.407 -1.43651 -0.100188 0
M  V30 2909 H 280.36 -3.2935 -2.62881 0
M  V30 2910 H 279.084 -2.05406 -2.53921 0
M  V30 2911 H 277.743 -3.52762 -0.997719 0
M  V30 2912 H 277.391 -3.64027 -3.47122 0
M  V30 2913 H 277.091 -5.21839 -2.70106 0
M  V30 2914 H 278.615 -4.93873 -3.59056 0
M  V30 2915 H 280.029 -5.55812 -1.40521 0
M  V30 2916 H 278.426 -5.95739 -0.722154 0
M  V30 2917 H 279.496 -4.84661 0.152082 0
M  V30 2918 N 280.839 0.0985539 -1.57292 0
M  V30 2919 C 282.067 0.816318 -1.90115 0
M  V30 2920 C 282.482 1.72451 -0.768509 0
M  V30 2921 O 281.839 1.80643 0.259687 0
M  V30 2922 C 281.89 1.63259 -3.22535 0
M  V30 2923 O 281.611 0.760934 -4.31441 0
M  V30 2924 C 283.112 2.45372 -3.69199 0
M  V30 2925 H 280.332 0.233595 -0.629027 0
M  V30 2926 H 282.876 0.0768229 -2.04356 0
M  V30 2927 H 281.031 2.32463 -3.09903 0
M  V30 2928 H 281.445 1.32595 -5.07463 0
M  V30 2929 H 282.919 2.98144 -4.64558 0
M  V30 2930 H 283.396 3.23677 -2.96867 0
M  V30 2931 H 284.002 1.81373 -3.84687 0
M  V30 2932 N 282.317 1.53212 0.369288 0
M  V30 2933 C 283.542 1.73423 1.1375 0
M  V30 2934 C 283.967 0.460404 1.82378 0
M  V30 2935 O 283.325 -0.585298 1.71592 0
M  V30 2936 C 283.373 2.89769 2.1463 0
M  V30 2937 O 282.477 2.58119 3.21634 0
M  V30 2938 H 281.818 0.576061 0.330227 0
M  V30 2939 H 284.348 2.00083 0.427547 0
M  V30 2940 H 284.358 3.15829 2.58294 0
M  V30 2941 H 283.033 3.8217 1.64071 0
M  V30 2942 H 281.61 2.42864 2.82969 0
M  V30 2943 N 283.795 -0.628877 1.44509 0
M  V30 2944 C 284.727 -1.754 1.47538 0
M  V30 2945 C 285.74 -1.58575 0.368506 0
M  V30 2946 O 286.929 -1.66847 0.634376 0
M  V30 2947 C 284.029 -3.1315 1.29577 0
M  V30 2948 C 283.202 -3.56413 2.53551 0
M  V30 2949 C 282.261 -4.7305 2.30457 0
M  V30 2950 O 281.287 -4.81247 3.03957 0
M  V30 2951 N 282.489 -5.64903 1.3366 0
M  V30 2952 H 285.254 -1.73272 2.44534 0
M  V30 2953 H 282.815 -0.813512 1.39977 0
M  V30 2954 H 284.807 -3.88902 1.11971 0
M  V30 2955 H 283.377 -3.09908 0.409371 0
M  V30 2956 H 282.597 -2.70847 2.86419 0
M  V30 2957 H 283.885 -3.82071 3.36005 0
M  V30 2958 H 283.283 -5.60975 0.729604 0
M  V30 2959 H 281.84 -6.40275 1.22032 0
M  V30 2960 N 285.273 -1.31445 -0.869486 0
M  V30 2961 C 286.689 -1.10113 -1.15531 0
M  V30 2962 C 286.889 0.128087 -2.01092 0
M  V30 2963 O 285.945 0.817276 -2.38908 0
M  V30 2964 C 287.258 -2.37291 -1.84698 0
M  V30 2965 C 288.806 -2.42906 -1.97397 0
M  V30 2966 C 289.281 -3.69967 -2.69979 0
M  V30 2967 N 290.772 -3.70864 -2.77514 0
M  V30 2968 C 291.507 -4.65875 -3.34287 0
M  V30 2969 N 291.003 -5.71242 -3.91988 0
M  V30 2970 N 292.796 -4.53394 -3.3225 0
M  V30 2971 H 284.947 -2.1028 -0.299347 0
M  V30 2972 H 287.21 -0.927683 -0.195214 0
M  V30 2973 H 286.916 -3.27078 -1.29278 0
M  V30 2974 H 286.79 -2.47125 -2.84972 0
M  V30 2975 H 289.177 -1.53588 -2.51982 0
M  V30 2976 H 289.258 -2.37036 -0.961643 0
M  V30 2977 H 288.902 -4.59652 -2.16062 0
M  V30 2978 H 288.832 -3.73103 -3.7162 0
M  V30 2979 H 291.323 -2.94697 -2.36563 0
M  V30 2980 H 291.636 -6.39817 -4.33421 0
M  V30 2981 H 289.981 -5.75015 -3.90362 0
M  V30 2982 H 293.172 -3.70252 -2.8641 0
M  V30 2983 H 293.345 -5.27617 -3.76197 0
M  V30 2984 N 286.751 1.08385 -1.14413 0
M  V30 2985 C 287.681 2.17321 -0.854044 0
M  V30 2986 C 288.662 1.69024 0.191049 0
M  V30 2987 O 289.847 1.94141 0.0476779 0
M  V30 2988 C 286.977 3.45719 -0.330983 0
M  V30 2989 C 285.931 4.07409 -1.31155 0
M  V30 2990 C 285.257 5.30762 -0.64778 0
M  V30 2991 C 286.557 4.48665 -2.67388 0
M  V30 2992 H 288.251 2.41845 -1.76498 0
M  V30 2993 H 285.797 1.16233 -0.850051 0
M  V30 2994 H 287.75 4.21241 -0.115645 0
M  V30 2995 H 286.474 3.2075 0.615381 0
M  V30 2996 H 285.133 3.33919 -1.51306 0
M  V30 2997 H 284.781 5.02078 0.304398 0
M  V30 2998 H 284.481 5.72992 -1.30207 0
M  V30 2999 H 286.005 6.08998 -0.441972 0
M  V30 3000 H 287.419 5.15364 -2.51143 0
M  V30 3001 H 285.816 5.01814 -3.29093 0
M  V30 3002 H 286.886 3.60543 -3.24248 0
M  V30 3003 N 288.23 0.939286 1.26551 0
M  V30 3004 C 289.455 0.602008 1.98471 0
M  V30 3005 C 289.88 -0.815624 1.69497 0
M  V30 3006 O 289.238 -1.54912 0.941905 0
M  V30 3007 C 289.286 0.848407 3.50477 0
M  V30 3008 O 288.39 -0.0804009 4.12322 0
M  V30 3009 H 287.731 0.23049 0.622712 0
M  V30 3010 H 290.261 1.2617 1.61066 0
M  V30 3011 H 290.271 0.768553 4.00696 0
M  V30 3012 H 288.946 1.88171 3.70897 0
M  V30 3013 H 287.523 0.0503508 3.72866 0
M  V30 3014 N 289.708 -1.40897 0.706093 0
M  V30 3015 C 290.671 -2.29131 0.0562841 0
M  V30 3016 C 291.671 -1.44901 -0.697166 0
M  V30 3017 O 292.861 -1.65926 -0.530484 0
M  V30 3018 C 289.993 -3.27957 -0.93043 0
M  V30 3019 H 291.186 -2.88091 0.833284 0
M  V30 3020 H 288.739 -1.4906 0.470192 0
M  V30 3021 H 289.474 -2.73997 -1.73482 0
M  V30 3022 H 289.259 -3.90124 -0.393166 0
M  V30 3023 H 290.749 -3.94049 -1.38256 0
M  V30 3024 N 291.186 -0.45159 -1.50991 0
M  V30 3025 C 292.602 -0.104647 -1.59257 0
M  V30 3026 C 292.802 1.38728 -1.4614 0
M  V30 3027 O 291.858 2.15866 -1.30989 0
M  V30 3028 C 293.171 -0.637468 -2.93865 0
M  V30 3029 C 294.719 -0.599166 -3.07212 0
M  V30 3030 C 295.194 -1.1092 -4.44366 0
M  V30 3031 N 296.685 -1.06778 -4.50725 0
M  V30 3032 C 297.42 -1.43314 -5.55201 0
M  V30 3033 N 296.916 -1.87204 -6.67028 0
M  V30 3034 N 298.709 -1.3504 -5.45638 0
M  V30 3035 H 290.86 -1.42214 -1.57762 0
M  V30 3036 H 293.123 -0.586921 -0.744465 0
M  V30 3037 H 292.829 -1.68187 -3.08879 0
M  V30 3038 H 292.703 -0.0702139 -3.77135 0
M  V30 3039 H 295.09 0.436277 -2.91857 0
M  V30 3040 H 295.171 -1.20299 -2.25747 0
M  V30 3041 H 294.815 -2.14318 -4.60467 0
M  V30 3042 H 294.745 -0.481773 -5.24392 0
M  V30 3043 H 297.236 -0.745643 -3.70471 0
M  V30 3044 H 297.549 -2.13282 -7.42786 0
M  V30 3045 H 295.894 -1.91142 -6.68199 0
M  V30 3046 H 299.085 -1.00607 -4.57161 0
M  V30 3047 H 299.258 -1.63841 -6.26945 0
M  V30 3048 N 292.664 1.56529 -0.183458 0
M  V30 3049 C 293.889 2.02064 0.467428 0
M  V30 3050 C 294.314 1.06282 1.55196 0
M  V30 3051 O 293.672 0.0443565 1.81246 0
M  V30 3052 C 293.72 3.46122 1.01153 0
M  V30 3053 O 292.824 3.53437 2.12499 0
M  V30 3054 H 292.165 0.654726 0.110588 0
M  V30 3055 H 294.695 2.02521 -0.290917 0
M  V30 3056 H 294.705 3.85676 1.33108 0
M  V30 3057 H 293.38 4.15331 0.217533 0
M  V30 3058 H 291.957 3.2575 1.81497 0
M  V30 3059 N 294.142 -0.090211 1.57342 0
M  V30 3060 C 295.074 -1.13541 1.99101 0
M  V30 3061 C 296.087 -1.3604 0.894258 0
M  V30 3062 O 297.276 -1.34606 1.17233 0
M  V30 3063 C 294.376 -2.49001 2.29895 0
M  V30 3064 C 293.549 -2.46712 3.61182 0
M  V30 3065 C 292.608 -3.64136 3.79857 0
M  V30 3066 O 291.634 -3.46405 4.51655 0
M  V30 3067 N 292.836 -4.83802 3.20806 0
M  V30 3068 H 295.601 -0.779942 2.89373 0
M  V30 3069 H 293.162 -0.279125 1.59476 0
M  V30 3070 H 295.154 -3.26166 2.39578 0
M  V30 3071 H 293.724 -2.76619 1.45605 0
M  V30 3072 H 292.944 -1.55058 3.62423 0
M  V30 3073 H 294.232 -2.42265 4.4742 0
M  V30 3074 H 293.63 -5.01112 2.62494 0
M  V30 3075 H 292.187 -5.58543 3.35966 0
M  V30 3076 N 295.62 -1.53406 -0.361157 0
M  V30 3077 C 297.036 -1.43277 -0.703124 0
M  V30 3078 C 297.236 -0.575384 -1.9311 0
M  V30 3079 O 296.292 -0.0595362 -2.5243 0
M  V30 3080 C 297.605 -2.8653 -0.9122 0
M  V30 3081 C 299.153 -2.96191 -1.01193 0
M  V30 3082 C 299.628 -4.40514 -1.25345 0
M  V30 3083 N 301.119 -4.43962 -1.32105 0
M  V30 3084 C 301.854 -5.52746 -1.5251 0
M  V30 3085 N 301.35 -6.71567 -1.70203 0
M  V30 3086 N 303.143 -5.40331 -1.54916 0
M  V30 3087 H 295.294 -2.07654 0.446475 0
M  V30 3088 H 297.557 -0.937944 0.137715 0
M  V30 3089 H 297.263 -3.51605 -0.0816414 0
M  V30 3090 H 297.137 -3.30441 -1.81903 0
M  V30 3091 H 299.524 -2.31266 -1.83303 0
M  V30 3092 H 299.605 -2.55667 -0.0823929 0
M  V30 3093 H 299.249 -5.06014 -0.437346 0
M  V30 3094 H 299.179 -4.78614 -2.19627 0
M  V30 3095 H 301.67 -3.58332 -1.20028 0
M  V30 3096 H 301.983 -7.50241 -1.85359 0
M  V30 3097 H 300.328 -6.74545 -1.67373 0
M  V30 3098 H 303.519 -4.46465 -1.40663 0
M  V30 3099 H 303.692 -6.25173 -1.70477 0
M  V30 3100 N 297.098 0.621204 -1.44841 0
M  V30 3101 C 298.03 1.74615 -1.48466 0
M  V30 3102 C 299.043 1.58377 -0.37691 0
M  V30 3103 O 300.232 1.66508 -0.643215 0
M  V30 3104 C 297.332 3.12459 -1.31236 0
M  V30 3105 C 296.505 3.55064 -2.55438 0
M  V30 3106 C 295.564 4.71821 -2.32963 0
M  V30 3107 O 294.59 4.79628 -3.06505 0
M  V30 3108 N 295.792 5.64186 -1.36654 0
M  V30 3109 H 298.557 1.71973 -2.45449 0
M  V30 3110 H 296.118 0.806077 -1.40407 0
M  V30 3111 H 298.11 3.88302 -1.14032 0
M  V30 3112 H 296.68 3.09686 -0.4258 0
M  V30 3113 H 295.9 2.69324 -2.87851 0
M  V30 3114 H 297.188 3.80284 -3.38026 0
M  V30 3115 H 296.586 5.6058 -0.759344 0
M  V30 3116 H 295.143 6.39618 -1.25425 0
M  V30 3117 N 298.576 1.31904 0.862503 0
M  V30 3118 C 299.506 1.22782 1.98612 0
M  V30 3119 C 300.487 0.113362 1.69722 0
M  V30 3120 O 301.672 0.299218 1.91881 0
M  V30 3121 C 298.802 0.942058 3.34279 0
M  V30 3122 C 297.756 2.0169 3.77499 0
M  V30 3123 C 297.082 1.58369 5.10709 0
M  V30 3124 C 298.382 3.43096 3.93805 0
M  V30 3125 H 300.076 2.16788 2.06502 0
M  V30 3126 H 297.622 1.04366 0.992154 0
M  V30 3127 H 299.575 0.864818 4.1243 0
M  V30 3128 H 298.299 -0.0336603 3.26583 0
M  V30 3129 H 296.958 2.08416 3.01593 0
M  V30 3130 H 296.606 0.595628 4.99461 0
M  V30 3131 H 296.306 2.30279 5.40597 0
M  V30 3132 H 297.83 1.52067 5.91361 0
M  V30 3133 H 299.244 3.39003 4.62331 0
M  V30 3134 H 297.641 4.13288 4.35101 0
M  V30 3135 H 298.711 3.83334 2.96957 0
M  V30 3136 N 300.054 -1.07777 1.14986 0
M  V30 3137 C 300.984 -2.16865 0.865557 0
M  V30 3138 C 301.965 -1.69123 -0.182083 0
M  V30 3139 O 303.15 -1.94164 -0.0373815 0
M  V30 3140 C 300.28 -3.45539 0.349313 0
M  V30 3141 C 299.234 -4.06708 1.33313 0
M  V30 3142 C 298.56 -5.30411 0.675918 0
M  V30 3143 C 299.86 -4.47241 2.69764 0
M  V30 3144 H 301.554 -2.40905 1.77778 0
M  V30 3145 H 299.1 -1.15781 0.856203 0
M  V30 3146 H 301.053 -4.21174 0.137983 0
M  V30 3147 H 299.777 -3.21072 -0.598362 0
M  V30 3148 H 298.436 -3.33112 1.53075 0
M  V30 3149 H 298.084 -5.02232 -0.277767 0
M  V30 3150 H 297.784 -5.72293 1.33244 0
M  V30 3151 H 299.308 -6.08755 0.474262 0
M  V30 3152 H 300.722 -5.14025 2.53873 0
M  V30 3153 H 299.119 -5.00062 3.3175 0
M  V30 3154 H 300.189 -3.58818 3.26156 0
M  V30 3155 N 301.532 -0.945985 -1.26051 0
M  V30 3156 C 302.464 -0.416662 -2.25381 0
M  V30 3157 C 303.477 0.462712 -1.56086 0
M  V30 3158 O 304.666 0.272383 -1.7641 0
M  V30 3159 C 301.766 0.419812 -3.3629 0
M  V30 3160 C 300.939 -0.444531 -4.35135 0
M  V30 3161 C 299.998 0.332305 -5.2515 0
M  V30 3162 O 299.024 -0.266324 -5.68577 0
M  V30 3163 N 300.226 1.62763 -5.57215 0
M  V30 3164 H 302.991 -1.27059 -2.71433 0
M  V30 3165 H 300.552 -0.815392 -1.39868 0
M  V30 3166 H 302.544 0.947013 -3.93464 0
M  V30 3167 H 301.114 1.17456 -2.89694 0
M  V30 3168 H 300.334 -1.15291 -3.76964 0
M  V30 3169 H 301.622 -1.03478 -4.98166 0
M  V30 3170 H 301.02 2.13603 -5.23823 0
M  V30 3171 H 299.577 2.10097 -6.17011 0
M  V30 3172 N 303.011 1.40521 -0.713556 0
M  V30 3173 C 304.257 2.01714 -0.261382 0
M  V30 3174 C 304.612 1.55562 1.13217 0
M  V30 3175 O 303.905 0.764893 1.7567 0
M  V30 3176 C 304.099 3.56317 -0.278 0
M  V30 3177 C 303.928 4.17476 -1.67163 0
M  V30 3178 C 302.698 4.50998 -2.2788 0
M  V30 3179 C 304.896 4.42472 -2.6215 0
M  V30 3180 N 302.878 4.9754 -3.5962 0
M  V30 3181 C 304.249 4.90985 -3.78594 0
M  V30 3182 C 306.304 4.24508 -2.60188 0
M  V30 3183 C 305.007 5.2342 -4.9338 0
M  V30 3184 C 307.033 4.58043 -3.741 0
M  V30 3185 C 306.395 5.06743 -4.89276 0
M  V30 3186 H 302.494 0.769104 -0.141434 0
M  V30 3187 H 305.078 1.70785 -0.934915 0
M  V30 3188 H 303.249 3.8668 0.36509 0
M  V30 3189 H 304.981 4.0425 0.190695 0
M  V30 3190 H 301.736 4.38062 -1.79997 0
M  V30 3191 H 302.16 5.25196 -4.27198 0
M  V30 3192 H 306.802 3.86078 -1.72348 0
M  V30 3193 H 304.52 5.60765 -5.81866 0
M  V30 3194 H 308.106 4.45785 -3.73854 0
M  V30 3195 H 306.986 5.32204 -5.75959 0
M  V30 3196 N 304.489 0.459591 1.5075 0
M  V30 3197 C 305.422 -0.386257 2.24907 0
M  V30 3198 C 306.4 -1.006 1.27744 0
M  V30 3199 O 307.584 -1.04416 1.56938 0
M  V30 3200 C 304.711 -1.54021 3.01654 0
M  V30 3201 C 303.757 -1.03898 4.13651 0
M  V30 3202 S 304.59 0.0370501 5.35487 0
M  V30 3203 C 305.746 -1.12105 6.15779 0
M  V30 3204 H 305.979 0.243272 2.96303 0
M  V30 3205 H 303.512 0.244339 1.52454 0
M  V30 3206 H 305.47 -2.20163 3.46466 0
M  V30 3207 H 304.131 -2.14121 2.29806 0
M  V30 3208 H 303.324 -1.90254 4.66711 0
M  V30 3209 H 302.926 -0.45545 3.71216 0
M  V30 3210 H 305.218 -2.03501 6.46215 0
M  V30 3211 H 306.161 -0.62995 7.05292 0
M  V30 3212 H 306.569 -1.36967 5.47631 0
M  V30 3213 N 305.967 -1.56429 0.191757 0
M  V30 3214 C 307.213 -1.97777 -0.448554 0
M  V30 3215 C 307.546 -1.07847 -1.61501 0
M  V30 3216 O 306.821 -0.129774 -1.94067 0
M  V30 3217 C 307.104 -3.48362 -0.911906 0
M  V30 3218 C 306.957 -4.4907 0.256136 0
M  V30 3219 C 308.276 -4.02561 -1.77857 0
M  V30 3220 H 305.395 -0.719071 -0.161572 0
M  V30 3221 H 308.037 -1.87896 0.282007 0
M  V30 3222 H 306.187 -3.56914 -1.53442 0
M  V30 3223 H 307.859 -4.5256 0.893733 0
M  V30 3224 H 306.102 -4.24181 0.908436 0
M  V30 3225 H 306.773 -5.51889 -0.11053 0
M  V30 3226 H 309.249 -3.96767 -1.25359 0
M  V30 3227 H 308.125 -5.08301 -2.07174 0
M  V30 3228 H 308.386 -3.47616 -2.73158 0
M  V30 3229 N 307.445 0.0818655 -1.57387 0
M  V30 3230 C 308.722 0.815343 -1.77796 0
M  V30 3231 C 309.102 1.96289 -0.77679 0
M  V30 3232 O 308.45 2.27691 0.192106 0
M  V30 3233 C 308.66 1.29765 -3.23978 0
M  V30 3234 C 310.008 1.7351 -3.8753 0
M  V30 3235 O 311.032 1.39356 -3.27808 0
M  V30 3236 O 309.891 2.36708 -4.92576 0
M  V30 3237 H 306.985 0.389914 -0.729312 0
M  V30 3238 H 309.531 0.0627213 -1.69584 0
M  V30 3239 H 308.303 0.47608 -3.88393 0
M  V30 3240 H 307.926 2.11189 -3.36875 0
M  V30 3241 N 308.923 1.53595 0.353017 0
M  V30 3242 C 310.2 1.61002 1.11075 0
M  V30 3243 C 310.58 0.425356 2.0677 0
M  V30 3244 O 309.928 -0.583267 2.2093 0
M  V30 3245 C 310.138 2.96631 1.83877 0
M  V30 3246 C 311.486 3.51653 2.37961 0
M  V30 3247 O 312.51 2.98743 1.93987 0
M  V30 3248 O 311.369 4.44177 3.18386 0
M  V30 3249 H 308.463 0.650825 0.510251 0
M  V30 3250 H 311.009 1.6594 0.35527 0
M  V30 3251 H 309.781 3.74293 1.14108 0
M  V30 3252 H 309.404 2.95242 2.66304 0
M  V30 3253 N 310.401 -0.613514 1.45168 0
M  V30 3254 C 311.817 -0.933629 1.29443 0
M  V30 3255 C 312.017 -2.00028 0.243101 0
M  V30 3256 O 311.073 -2.49848 -0.364992 0
M  V30 3257 C 312.386 -1.38018 2.67155 0
M  V30 3258 C 313.934 -1.49471 2.75004 0
M  V30 3259 C 314.409 -1.97503 4.13227 0
M  V30 3260 N 315.9 -2.04746 4.15491 0
M  V30 3261 C 316.635 -2.43121 5.19307 0
M  V30 3262 N 316.131 -2.80506 6.33473 0
M  V30 3263 N 317.924 -2.43408 5.06664 0
M  V30 3264 H 310.075 0.0916097 2.12202 0
M  V30 3265 H 312.338 -0.0216655 0.947752 0
M  V30 3266 H 312.044 -0.670625 3.45247 0
M  V30 3267 H 311.918 -2.34784 2.95222 0
M  V30 3268 H 314.305 -2.19519 1.9722 0
M  V30 3269 H 314.386 -0.510342 2.50657 0
M  V30 3270 H 314.03 -1.28045 4.91495 0
M  V30 3271 H 313.96 -2.96843 4.34962 0
M  V30 3272 H 316.451 -1.78468 3.33103 0
M  V30 3273 H 316.764 -3.08652 7.08487 0
M  V30 3274 H 315.109 -2.78216 6.36884 0
M  V30 3275 H 318.3 -2.13604 4.16523 0
M  V30 3276 H 318.473 -2.72989 5.87691 0
M  V30 3277 N 311.879 -1.3236 -0.855495 0
M  V30 3278 C 313.125 -1.23054 -1.612 0
M  V30 3279 C 313.458 0.207404 -1.93089 0
M  V30 3280 O 312.733 1.14432 -1.57275 0
M  V30 3281 C 313.016 -2.08937 -2.93287 0
M  V30 3282 C 312.869 -3.61105 -2.68185 0
M  V30 3283 C 314.188 -1.94986 -3.94549 0
M  V30 3284 H 311.307 -0.448364 -0.584926 0
M  V30 3285 H 313.949 -1.62297 -0.987917 0
M  V30 3286 H 312.099 -1.75599 -3.46551 0
M  V30 3287 H 313.771 -4.04652 -2.21483 0
M  V30 3288 H 312.014 -3.83813 -2.02164 0
M  V30 3289 H 312.685 -4.16522 -3.62234 0
M  V30 3290 H 315.161 -2.24189 -3.5054 0
M  V30 3291 H 314.037 -2.57356 -4.84829 0
M  V30 3292 H 314.298 -0.917263 -4.3248 0
M  V30 3293 N 313.357 1.07166 -1.15556 0
M  V30 3294 C 314.32 2.12589 -0.856644 0
M  V30 3295 C 315.32 1.6015 0.14444 0
M  V30 3296 O 316.51 1.7399 -0.0854163 0
M  V30 3297 C 313.642 3.39753 -0.279405 0
M  V30 3298 H 314.835 2.40539 -1.79112 0
M  V30 3299 H 312.388 1.23086 -0.963298 0
M  V30 3300 H 313.123 3.17447 0.663174 0
M  V30 3301 H 312.908 3.79117 -1.00063 0
M  V30 3302 H 314.398 4.17507 -0.0879113 0
M  V30 3303 N 314.835 0.952656 1.25548 0
M  V30 3304 C 316.083 0.605176 1.92826 0
M  V30 3305 C 316.404 -0.860261 1.74999 0
M  V30 3306 O 315.674 -1.6125 1.11244 0
M  V30 3307 H 314.254 0.220832 0.713612 0
M  V30 3308 H 316.916 1.21047 1.52754 0
M  V30 3309 H 316.012 0.832798 3.00784 0
M  V30 3310 N 316.313 -1.40141 0.720998 0
M  V30 3311 C 317.724 -1.83678 0.334553 0
M  V30 3312 C 318.075 -1.6027 -1.13173 0
M  V30 3313 O 317.2 -1.08643 -1.87152 0
M  V30 3314 C 317.795 -3.33437 0.600437 0
M  V30 3315 C 316.354 -3.75447 0.267642 0
M  V30 3316 C 315.501 -2.63296 0.870097 0
M  V30 3317 H 318.452 -1.29331 0.919732 0
M  V30 3318 H 318.473 -3.80269 -0.132517 0
M  V30 3319 H 317.985 -3.50442 1.66768 0
M  V30 3320 H 316.086 -3.64035 -0.794329 0
M  V30 3321 H 316.199 -4.73344 0.74042 0
M  V30 3322 H 314.563 -2.52954 0.297739 0
M  V30 3323 H 315.346 -2.83112 1.94172 0
M  V30 3324 N 317.792 -0.46758 -1.50504 0
M  V30 3325 C 318.722 0.318381 -2.31319 0
M  V30 3326 C 319.703 0.993564 -1.38066 0
M  V30 3327 O 320.888 0.991411 -1.66987 0
M  V30 3328 C 318.018 1.40275 -3.17711 0
M  V30 3329 C 316.972 0.849373 -4.19487 0
M  V30 3330 C 316.298 2.03177 -4.94594 0
M  V30 3331 C 317.598 -0.136942 -5.2212 0
M  V30 3332 H 319.292 -0.356106 -2.97275 0
M  V30 3333 H 316.838 -0.172703 -1.42961 0
M  V30 3334 H 318.791 1.96004 -3.73042 0
M  V30 3335 H 317.515 2.10596 -2.49634 0
M  V30 3336 H 316.174 0.314076 -3.65252 0
M  V30 3337 H 315.822 2.72187 -4.22993 0
M  V30 3338 H 315.522 1.66774 -5.63436 0
M  V30 3339 H 317.046 2.59403 -5.52759 0
M  V30 3340 H 318.46 0.331056 -5.72343 0
M  V30 3341 H 316.857 -0.41507 -5.98663 0
M  V30 3342 H 317.927 -1.06398 -4.73083 0
M  V30 3343 N 319.27 1.56325 -0.20005 0
M  V30 3344 C 320.519 1.96895 0.437652 0
M  V30 3345 C 320.832 1.08999 1.62415 0
M  V30 3346 O 322.038 1.39372 2.32997 0
M  V30 3347 C 320.494 3.50198 0.830025 0
M  V30 3348 C 320.102 4.46765 -0.332461 0
M  V30 3349 C 321.846 3.99526 1.43453 0
M  V30 3350 C 319.753 5.91344 0.0811468 0
M  V30 3351 H 318.683 0.735209 0.167282 0
M  V30 3352 H 321.334 1.81148 -0.292853 0
M  V30 3353 H 319.716 3.61467 1.61734 0
M  V30 3354 H 320.89 4.47231 -1.11 0
M  V30 3355 H 319.205 4.07657 -0.848789 0
M  V30 3356 H 321.802 5.05025 1.75652 0
M  V30 3357 H 322.145 3.44122 2.34277 0
M  V30 3358 H 322.678 3.91393 0.71109 0
M  V30 3359 H 319.417 6.50685 -0.793033 0
M  V30 3360 H 318.937 5.94121 0.823445 0
M  V30 3361 H 320.616 6.44945 0.515252 0
M  V30 3362 N 320.748 -0.0735177 1.57428 0
M  V30 3363 C 322.164 -0.428264 1.53747 0
M  V30 3364 C 322.364 -1.79272 0.91998 0
M  V30 3365 O 321.42 -2.47051 0.521745 0
M  V30 3366 C 322.733 -0.370914 2.98404 0
M  V30 3367 C 324.281 -0.451224 3.0973 0
M  V30 3368 C 324.756 -0.4238 4.56035 0
M  V30 3369 N 326.247 -0.483925 4.60665 0
M  V30 3370 C 326.982 -0.484891 5.71346 0
M  V30 3371 N 326.478 -0.440775 6.91396 0
M  V30 3372 N 328.271 -0.531319 5.59583 0
M  V30 3373 H 320.422 0.819949 1.95935 0
M  V30 3374 H 322.685 0.307493 0.896745 0
M  V30 3375 H 322.391 0.564956 3.47133 0
M  V30 3376 H 322.265 -1.18176 3.5821 0
M  V30 3377 H 324.652 -1.37752 2.60976 0
M  V30 3378 H 324.733 0.388167 2.52838 0
M  V30 3379 H 324.377 0.498638 5.05446 0
M  V30 3380 H 324.307 -1.2807 5.10789 0
M  V30 3381 H 326.798 -0.522338 3.74273 0
M  V30 3382 H 327.111 -0.44539 7.71515 0
M  V30 3383 H 325.456 -0.40749 6.93804 0
M  V30 3384 H 328.647 -0.563464 4.64696 0
M  V30 3385 H 328.82 -0.528603 6.4584 0
M  V30 3386 N 322.226 -1.5378 -0.344866 0
M  V30 3387 C 323.451 -1.75211 -1.10977 0
M  V30 3388 C 323.876 -0.48936 -1.81623 0
M  V30 3389 O 323.234 0.557925 -1.72502 0
M  V30 3390 C 323.282 -2.93147 -2.09993 0
M  V30 3391 O 322.386 -2.63203 -3.17487 0
M  V30 3392 H 321.727 -0.581241 -0.321021 0
M  V30 3393 H 324.257 -2.00738 -0.395661 0
M  V30 3394 H 324.267 -3.19898 -2.53237 0
M  V30 3395 H 322.942 -3.84731 -1.5797 0
M  V30 3396 H 321.519 -2.47336 -2.79069 0
M  V30 3397 N 323.704 0.605807 -1.45491 0
M  V30 3398 C 324.95 1.36679 -1.49823 0
M  V30 3399 C 325.283 1.93693 -0.140175 0
M  V30 3400 O 324.558 1.75158 0.845581 0
M  V30 3401 C 324.841 2.51337 -2.57879 0
M  V30 3402 C 324.694 1.99508 -4.03134 0
M  V30 3403 C 326.013 3.53463 -2.62205 0
M  V30 3404 H 323.132 0.495617 -0.545466 0
M  V30 3405 H 325.774 0.682732 -1.7731 0
M  V30 3406 H 323.924 3.09691 -2.34571 0
M  V30 3407 H 325.596 1.45789 -4.37656 0
M  V30 3408 H 323.839 1.30496 -4.13707 0
M  V30 3409 H 324.51 2.82169 -4.74431 0
M  V30 3410 H 326.986 3.04953 -2.83095 0
M  V30 3411 H 325.862 4.31178 -3.39672 0
M  V30 3412 H 326.123 4.09197 -1.67363 0
M  V30 3413 N 325.182 1.32811 0.848464 0
M  V30 3414 C 326.112 1.24882 1.97299 0
M  V30 3415 C 327.093 0.131357 1.69592 0
M  V30 3416 O 328.278 0.319553 1.91553 0
M  V30 3417 C 325.408 0.97746 3.33261 0
M  V30 3418 C 324.362 2.05682 3.75338 0
M  V30 3419 C 323.688 1.63777 5.09 0
M  V30 3420 C 324.988 3.47254 3.90144 0
M  V30 3421 H 326.682 2.18966 2.04191 0
M  V30 3422 H 324.228 1.05413 0.981029 0
M  V30 3423 H 326.181 0.908513 4.1149 0
M  V30 3424 H 324.905 0.000980011 3.266 0
M  V30 3425 H 323.564 2.11603 2.99366 0
M  V30 3426 H 323.212 0.648569 4.98801 0
M  V30 3427 H 322.912 2.36 5.38124 0
M  V30 3428 H 324.436 1.5833 5.89715 0
M  V30 3429 H 325.85 3.43888 4.58709 0
M  V30 3430 H 324.247 4.1788 4.30693 0
M  V30 3431 H 325.317 3.86462 2.92874 0
M  V30 3432 N 326.66 -1.06551 1.16123 0
M  V30 3433 C 328.071 -1.60768 0.949232 0
M  V30 3434 C 328.422 -1.89523 -0.507508 0
M  V30 3435 O 327.547 -1.66671 -1.38021 0
M  V30 3436 C 328.142 -2.92086 1.71671 0
M  V30 3437 C 326.701 -3.43015 1.54977 0
M  V30 3438 C 325.848 -2.16947 1.72711 0
M  V30 3439 H 328.799 -0.895354 1.31031 0
M  V30 3440 H 328.82 -3.6138 1.19099 0
M  V30 3441 H 328.332 -2.71127 2.7769 0
M  V30 3442 H 326.433 -3.69039 0.513873 0
M  V30 3443 H 326.546 -4.18516 2.33198 0
M  V30 3444 H 324.91 -2.27041 1.15431 0
M  V30 3445 H 325.693 -1.98473 2.80113 0
M  V30 3446 N 328.138 -0.959301 -1.25041 0
M  V30 3447 C 329.101 -0.487677 -2.23952 0
M  V30 3448 C 330.101 0.41119 -1.55454 0
M  V30 3449 O 331.291 0.207825 -1.72956 0
M  V30 3450 C 328.423 0.294807 -3.39623 0
M  V30 3451 H 329.616 -1.36198 -2.67189 0
M  V30 3452 H 327.169 -0.743042 -1.37508 0
M  V30 3453 H 327.904 1.18658 -3.01813 0
M  V30 3454 H 327.689 -0.35012 -3.90534 0
M  V30 3455 H 329.179 0.614089 -4.1306 0
M  V30 3456 N 329.616 1.39756 -0.72842 0
M  V30 3457 C 330.864 2.00248 -0.272946 0
M  V30 3458 C 331.185 1.58077 1.14178 0
M  V30 3459 O 330.455 0.826014 1.77634 0
M  V30 3460 H 329.035 0.740554 -0.0979247 0
M  V30 3461 H 331.697 1.70903 -0.936912 0
M  V30 3462 H 330.793 3.10495 -0.316142 0
M  V30 3463 N 331.094 0.475555 1.50254 0
M  V30 3464 C 332.34 -0.0701075 2.03279 0
M  V30 3465 C 332.695 -1.37007 1.35081 0
M  V30 3466 O 331.988 -1.8577 0.469052 0
M  V30 3467 C 332.182 -0.305114 3.56095 0
M  V30 3468 C 332.011 0.970515 4.39103 0
M  V30 3469 C 330.781 1.51509 4.82051 0
M  V30 3470 C 332.979 1.8671 4.79212 0
M  V30 3471 N 330.961 2.73928 5.49397 0
M  V30 3472 C 332.332 2.93715 5.46014 0
M  V30 3473 C 334.387 1.87695 4.61167 0
M  V30 3474 C 333.09 4.01699 5.96683 0
M  V30 3475 C 335.116 2.94637 5.12779 0
M  V30 3476 C 334.478 4.00361 5.79561 0
M  V30 3477 H 330.577 0.014486 0.781866 0
M  V30 3478 H 333.161 0.644755 1.83714 0
M  V30 3479 H 331.332 -0.989019 3.75597 0
M  V30 3480 H 333.064 -0.845516 3.95769 0
M  V30 3481 H 329.819 1.06367 4.61501 0
M  V30 3482 H 330.243 3.36109 5.87673 0
M  V30 3483 H 334.885 1.07273 4.08965 0
M  V30 3484 H 332.603 4.82934 6.4792 0
M  V30 3485 H 336.189 2.96388 5.00645 0
M  V30 3486 H 335.069 4.81751 6.18778 0
M  V30 3487 N 332.573 -1.56217 0.208337 0
M  V30 3488 C 333.82 -1.97949 -0.42692 0
M  V30 3489 C 334.148 -1.09562 -1.60706 0
M  V30 3490 O 333.403 -0.137616 -1.95216 0
M  V30 3491 C 333.702 -3.45441 -0.916797 0
M  V30 3492 C 333.368 -4.50646 0.151391 0
M  V30 3493 C 332.03 -4.79139 0.444867 0
M  V30 3494 C 334.382 -5.13811 0.874492 0
M  V30 3495 C 331.71 -5.68084 1.46619 0
M  V30 3496 C 334.062 -6.03861 1.88506 0
M  V30 3497 C 332.726 -6.30704 2.18559 0
M  V30 3498 H 331.996 -0.724345 -0.156221 0
M  V30 3499 H 334.643 -1.89006 0.308084 0
M  V30 3500 H 332.948 -3.51521 -1.73032 0
M  V30 3501 H 334.645 -3.75094 -1.41794 0
M  V30 3502 H 331.235 -4.28511 -0.0875068 0
M  V30 3503 H 335.419 -4.91879 0.660996 0
M  V30 3504 H 330.675 -5.87151 1.7048 0
M  V30 3505 H 334.849 -6.51861 2.45051 0
M  V30 3506 H 332.476 -6.99424 2.97843 0
M  V30 3507 N 334.051 0.0651679 -1.57465 0
M  V30 3508 C 335.3 0.761916 -1.86756 0
M  V30 3509 C 335.613 1.78406 -0.801925 0
M  V30 3510 O 336.819 2.53084 -0.982885 0
M  V30 3511 C 335.275 1.40603 -3.31299 0
M  V30 3512 C 334.883 0.422115 -4.46007 0
M  V30 3513 C 336.627 2.08476 -3.69781 0
M  V30 3514 C 334.534 1.07252 -5.81593 0
M  V30 3515 H 333.464 0.288308 -0.696702 0
M  V30 3516 H 336.115 0.015344 -1.83494 0
M  V30 3517 H 334.497 2.20109 -3.29193 0
M  V30 3518 H 335.671 -0.343613 -4.59517 0
M  V30 3519 H 333.986 -0.152527 -4.16121 0
M  V30 3520 H 336.583 2.57925 -4.68379 0
M  V30 3521 H 336.926 2.88712 -2.99919 0
M  V30 3522 H 337.459 1.35792 -3.73905 0
M  V30 3523 H 334.198 0.310342 -6.54765 0
M  V30 3524 H 333.718 1.80895 -5.71872 0
M  V30 3525 H 335.397 1.59043 -6.27148 0
M  V30 3526 N 335.529 1.53961 0.336706 0
M  V30 3527 C 336.492 1.81724 1.39675 0
M  V30 3528 C 337.492 0.688532 1.45313 0
M  V30 3529 O 338.682 0.956829 1.45569 0
M  V30 3530 C 335.814 1.96543 2.78538 0
M  V30 3531 H 337.007 2.76424 1.16318 0
M  V30 3532 H 334.56 1.45478 0.571474 0
M  V30 3533 H 335.295 1.0401 3.07168 0
M  V30 3534 H 335.08 2.78665 2.75841 0
M  V30 3535 H 336.57 2.19516 3.5525 0
M  V30 3536 N 337.007 -0.598083 1.45811 0
M  V30 3537 C 338.284 -1.35777 1.40797 0
M  V30 3538 C 338.664 -2.10935 0.083462 0
M  V30 3539 O 338.012 -2.08505 -0.934763 0
M  V30 3540 C 338.222 -2.29666 2.62783 0
M  V30 3541 C 339.57 -2.91977 3.08277 0
M  V30 3542 O 340.594 -2.39984 2.63223 0
M  V30 3543 O 339.453 -3.86376 3.86491 0
M  V30 3544 H 336.547 -0.609291 0.55919 0
M  V30 3545 H 339.093 -0.620379 1.57954 0
M  V30 3546 H 337.865 -1.73454 3.50756 0
M  V30 3547 H 337.488 -3.1077 2.48008 0
M  V30 3548 N 338.485 -1.33259 -0.841409 0
M  V30 3549 C 339.432 -1.23302 -1.95103 0
M  V30 3550 C 340.402 -0.112204 -1.65721 0
M  V30 3551 O 341.587 -0.290038 -1.88583 0
M  V30 3552 C 338.727 -0.975583 -3.31023 0
M  V30 3553 C 337.84 -2.18243 -3.72819 0
M  V30 3554 C 336.975 -1.85936 -4.97595 0
M  V30 3555 C 336.014 -3.02866 -5.3192 0
M  V30 3556 N 335.151 -2.70565 -6.47873 0
M  V30 3557 H 339.991 -2.18207 -2.02952 0
M  V30 3558 H 337.528 -1.0851 -0.993173 0
M  V30 3559 H 339.486 -0.80677 -4.09325 0
M  V30 3560 H 338.116 -0.0632755 -3.22738 0
M  V30 3561 H 337.168 -2.46107 -2.90061 0
M  V30 3562 H 338.48 -3.05666 -3.94169 0
M  V30 3563 H 337.634 -1.65684 -5.83638 0
M  V30 3564 H 336.373 -0.957452 -4.78209 0
M  V30 3565 H 335.378 -3.23736 -4.44382 0
M  V30 3566 H 336.603 -3.93809 -5.53255 0
M  V30 3567 H 334.549 -1.8293 -6.29978 0
M  V30 3568 H 334.466 -3.51519 -6.69306 0
M  V30 3569 H 335.734 -2.53774 -7.37034 0
M  V30 3570 N 339.963 1.05934 -1.16686 0
M  V30 3571 C 341.191 1.8249 -0.974929 0
M  V30 3572 C 341.606 1.82679 0.476861 0
M  V30 3573 O 340.963 1.2486 1.33103 0
M  V30 3574 C 341.014 3.28943 -1.49929 0
M  V30 3575 O 340.735 3.28886 -2.89423 0
M  V30 3576 C 342.236 4.22215 -1.35089 0
M  V30 3577 H 339.456 0.575295 -0.345365 0
M  V30 3578 H 342 1.33631 -1.548 0
M  V30 3579 H 340.155 3.751 -0.968423 0
M  V30 3580 H 340.569 4.20493 -3.13506 0
M  V30 3581 H 342.043 5.22987 -1.76603 0
M  V30 3582 H 342.52 4.38195 -0.296935 0
M  V30 3583 H 343.126 3.81907 -1.87155 0
M  V30 3584 N 341.441 0.965919 1.2453 0
M  V30 3585 C 342.689 0.625593 1.92174 0
M  V30 3586 C 343.01 -0.841652 1.75901 0
M  V30 3587 O 342.28 -1.60061 1.12948 0
M  V30 3588 H 340.86 0.228388 0.71123 0
M  V30 3589 H 343.522 1.2266 1.51461 0
M  V30 3590 H 342.618 0.864653 2.99884 0
M  V30 3591 N 342.919 -1.39368 0.735821 0
M  V30 3592 C 343.882 -2.2896 0.104874 0
M  V30 3593 C 344.882 -1.46347 -0.666274 0
M  V30 3594 O 346.072 -1.67014 -0.49517 0
M  V30 3595 C 343.204 -3.29857 -0.860656 0
M  V30 3596 H 344.397 -2.86259 0.894205 0
M  V30 3597 H 341.95 -1.48029 0.501704 0
M  V30 3598 H 342.685 -2.77615 -1.67631 0
M  V30 3599 H 342.47 -3.9087 -0.310327 0
M  V30 3600 H 343.96 -3.96893 -1.29867 0
M  V30 3601 N 344.397 -0.483516 -1.5 0
M  V30 3602 C 345.645 0.067027 -2.01989 0
M  V30 3603 C 345.966 1.3909 -1.36671 0
M  V30 3604 O 345.236 1.88978 -0.516152 0
M  V30 3605 H 343.816 0.0277606 -0.746484 0
M  V30 3606 H 346.478 -0.636773 -1.84204 0
M  V30 3607 H 345.574 0.209484 -3.11396 0
M  V30 3608 N 345.875 1.56104 -0.216619 0
M  V30 3609 C 346.785 2.23694 0.706982 0
M  V30 3610 C 347.801 1.24295 1.21765 0
M  V30 3611 O 348.977 1.57094 1.2603 0
M  V30 3612 C 346.042 2.8998 1.90033 0
M  V30 3613 C 345.103 4.04708 1.43213 0
M  V30 3614 C 344.336 4.67824 2.56859 0
M  V30 3615 O 344.559 4.29913 3.74874 0
M  V30 3616 O 343.493 5.56905 2.28343 0
M  V30 3617 H 347.319 3.03272 0.161235 0
M  V30 3618 H 344.904 1.49394 0.0136177 0
M  V30 3619 H 346.786 3.31837 2.59735 0
M  V30 3620 H 345.461 2.13365 2.43428 0
M  V30 3621 H 344.368 3.6743 0.70327 0
M  V30 3622 H 345.701 4.83051 0.944615 0
M  V30 3623 N 347.353 -0.0568162 1.57498 0
M  V30 3624 C 348.769 -0.411933 1.54192 0
M  V30 3625 C 348.969 -1.78287 0.938942 0
M  V30 3626 O 348.025 -2.46483 0.547919 0
M  V30 3627 C 349.338 -0.339244 2.9878 0
M  V30 3628 C 350.886 -0.418348 3.10192 0
M  V30 3629 C 351.361 -0.375407 4.56459 0
M  V30 3630 N 352.852 -0.435038 4.61153 0
M  V30 3631 C 353.587 -0.424265 5.71828 0
M  V30 3632 N 353.083 -0.367418 6.91825 0
M  V30 3633 N 354.876 -0.471938 5.60115 0
M  V30 3634 H 347.027 0.840684 1.95055 0
M  V30 3635 H 349.29 0.316987 0.893433 0
M  V30 3636 H 348.996 0.601742 3.46514 0
M  V30 3637 H 348.87 -1.14371 3.59443 0
M  V30 3638 H 351.257 -1.34976 2.62422 0
M  V30 3639 H 351.338 0.414962 2.52412 0
M  V30 3640 H 350.982 0.552219 5.04889 0
M  V30 3641 H 350.912 -1.22645 5.12119 0
M  V30 3642 H 353.403 -0.482612 3.74806 0
M  V30 3643 H 353.716 -0.363535 7.71944 0
M  V30 3644 H 352.061 -0.333879 6.94198 0
M  V30 3645 H 355.252 -0.514145 4.65268 0
M  V30 3646 H 355.425 -0.460073 6.46365 0
M  V30 3647 N 348.832 -1.54138 -0.328536 0
M  V30 3648 C 350.08 -1.71765 -1.06496 0
M  V30 3649 C 350.401 -0.49149 -1.88704 0
M  V30 3650 O 349.671 0.494539 -1.89555 0
M  V30 3651 H 348.251 -0.633295 -0.396164 0
M  V30 3652 H 350.913 -1.91429 -0.366176 0
M  V30 3653 H 350.009 -2.5951 -1.73381 0
M  V30 3654 N 350.31 0.590341 -1.46126 0
M  V30 3655 C 351.273 1.68194 -1.55703 0
M  V30 3656 C 352.273 1.54808 -0.434868 0
M  V30 3657 O 353.463 1.59564 -0.698928 0
M  V30 3658 C 350.595 3.07575 -1.47005 0
M  V30 3659 H 351.788 1.61064 -2.52979 0
M  V30 3660 H 349.341 0.807541 -1.33823 0
M  V30 3661 H 350.076 3.20268 -0.509785 0
M  V30 3662 H 349.861 3.187 -2.28414 0
M  V30 3663 H 351.351 3.87055 -1.56776 0
M  V30 3664 N 351.788 1.33704 0.83433 0
M  V30 3665 C 353.204 1.13137 1.12571 0
M  V30 3666 C 353.404 -0.0747261 2.01361 0
M  V30 3667 O 352.46 -0.753647 2.4099 0
M  V30 3668 C 353.773 2.42105 1.78342 0
M  V30 3669 C 355.321 2.48054 1.90888 0
M  V30 3670 C 355.796 3.76995 2.60075 0
M  V30 3671 N 357.287 3.78092 2.67584 0
M  V30 3672 C 358.022 4.74574 3.21818 0
M  V30 3673 N 357.518 5.81434 3.76705 0
M  V30 3674 N 359.311 4.62044 3.20112 0
M  V30 3675 H 351.462 2.11 0.243489 0
M  V30 3676 H 353.725 0.932532 0.17055 0
M  V30 3677 H 353.431 3.30391 1.20561 0
M  V30 3678 H 353.305 2.54594 2.7832 0
M  V30 3679 H 355.692 1.60215 2.47821 0
M  V30 3680 H 355.773 2.39502 0.898459 0
M  V30 3681 H 355.417 4.65219 2.03799 0
M  V30 3682 H 355.347 3.82825 3.61597 0
M  V30 3683 H 357.838 3.00865 2.28667 0
M  V30 3684 H 358.151 6.51084 4.16305 0
M  V30 3685 H 356.496 5.85163 3.7498 0
M  V30 3686 H 359.687 3.77716 2.76493 0
M  V30 3687 H 359.86 5.37406 3.62076 0
M  V30 3688 N 353.266 -1.05314 1.17247 0
M  V30 3689 C 354.514 -1.77941 0.958194 0
M  V30 3690 C 354.835 -1.88089 -0.514556 0
M  V30 3691 O 354.105 -1.39676 -1.37359 0
M  V30 3692 H 352.685 -0.659116 0.351533 0
M  V30 3693 H 355.347 -1.27166 1.47699 0
M  V30 3694 H 354.443 -2.79663 1.38546 0
M  V30 3695 N 354.744 -0.972509 -1.24016 0
M  V30 3696 C 355.993 -0.632603 -1.91523 0
M  V30 3697 C 356.306 0.836641 -1.76804 0
M  V30 3698 O 357.512 1.28728 -2.39043 0
M  V30 3699 C 355.968 -1.08082 -3.43287 0
M  V30 3700 C 355.576 -2.57386 -3.66683 0
M  V30 3701 C 357.32 -0.814288 -4.16617 0
M  V30 3702 C 355.227 -2.95915 -5.12043 0
M  V30 3703 H 354.157 -0.232898 -0.717129 0
M  V30 3704 H 356.808 -1.17936 -1.40582 0
M  V30 3705 H 355.19 -0.462339 -3.93292 0
M  V30 3706 H 356.364 -3.24405 -3.27258 0
M  V30 3707 H 354.679 -2.81701 -3.06649 0
M  V30 3708 H 357.276 -1.0781 -5.23718 0
M  V30 3709 H 357.619 0.24955 -4.15551 0
M  V30 3710 H 358.152 -1.39397 -3.72577 0
M  V30 3711 H 354.891 -4.0139 -5.18234 0
M  V30 3712 H 354.411 -2.33584 -5.52448 0
M  V30 3713 H 356.09 -2.86086 -5.80314 0
M  V30 3714 N 356.222 1.38976 -0.743202 0
M  V30 3715 C 357.468 2.0064 -0.295189 0
M  V30 3716 C 357.801 1.5885 1.11716 0
M  V30 3717 O 357.076 0.821181 1.76315 0
M  V30 3718 C 357.359 3.578 -0.406318 0
M  V30 3719 C 357.212 4.09586 -1.85903 0
M  V30 3720 C 358.531 4.39616 0.206439 0
M  V30 3721 H 355.65 0.728935 -0.108733 0
M  V30 3722 H 358.292 1.65067 -0.940897 0
M  V30 3723 H 356.442 3.88235 0.143419 0
M  V30 3724 H 358.114 3.89837 -2.46627 0
M  V30 3725 H 356.357 3.6284 -2.3776 0
M  V30 3726 H 357.028 5.18708 -1.888 0
M  V30 3727 H 359.504 4.15273 -0.262283 0
M  V30 3728 H 358.38 5.48812 0.0983819 0
M  V30 3729 H 358.641 4.22754 1.2935 0
M  V30 3730 N 357.7 0.491464 1.49741 0
M  V30 3731 C 358.663 -0.280906 2.27472 0
M  V30 3732 C 359.663 -0.902454 1.33088 0
M  V30 3733 O 360.853 -0.768465 1.56334 0
M  V30 3734 C 357.985 -1.40209 3.10732 0
M  V30 3735 H 359.178 0.401056 2.97206 0
M  V30 3736 H 356.731 0.246131 1.5435 0
M  V30 3737 H 357.466 -2.11849 2.45541 0
M  V30 3738 H 357.251 -0.961969 3.80117 0
M  V30 3739 H 358.741 -1.9464 3.69466 0
M  V30 3740 N 359.178 -1.55987 0.224894 0
M  V30 3741 C 360.108 -2.23426 -0.678457 0
M  V30 3742 C 361.089 -1.20709 -1.19847 0
M  V30 3743 O 362.274 -1.49304 -1.24186 0
M  V30 3744 C 359.404 -2.91676 -1.88527 0
M  V30 3745 C 358.358 -4.00893 -1.49896 0
M  V30 3746 C 357.684 -4.56455 -2.78483 0
M  V30 3747 C 358.984 -5.17769 -0.686461 0
M  V30 3748 H 360.678 -2.99175 -0.116173 0
M  V30 3749 H 358.224 -1.43897 -0.054436 0
M  V30 3750 H 360.177 -3.37547 -2.5227 0
M  V30 3751 H 358.901 -2.1338 -2.47258 0
M  V30 3752 H 357.56 -3.55758 -0.884985 0
M  V30 3753 H 357.208 -3.74886 -3.35365 0
M  V30 3754 H 356.908 -5.30169 -2.53368 0
M  V30 3755 H 358.432 -5.05047 -3.43162 0
M  V30 3756 H 359.846 -5.60001 -1.22767 0
M  V30 3757 H 358.243 -5.97735 -0.532259 0
M  V30 3758 H 359.313 -4.83932 0.306196 0
M  V30 3759 N 360.656 0.0484629 -1.57525 0
M  V30 3760 C 361.586 1.0549 -2.08313 0
M  V30 3761 C 362.567 1.38929 -0.981463 0
M  V30 3762 O 363.752 1.48151 -1.25558 0
M  V30 3763 C 360.882 2.36162 -2.54646 0
M  V30 3764 C 359.836 2.17016 -3.68901 0
M  V30 3765 C 359.162 3.53278 -4.01371 0
M  V30 3766 C 360.462 1.57219 -4.98076 0
M  V30 3767 H 362.156 0.632195 -2.92649 0
M  V30 3768 H 359.702 0.302654 -1.40784 0
M  V30 3769 H 361.655 3.06882 -2.88793 0
M  V30 3770 H 360.379 2.80456 -1.67368 0
M  V30 3771 H 359.038 1.48733 -3.35073 0
M  V30 3772 H 358.686 3.95185 -3.11188 0
M  V30 3773 H 358.386 3.41299 -4.78318 0
M  V30 3774 H 359.91 4.25391 -4.38035 0
M  V30 3775 H 361.324 2.17832 -5.30304 0
M  V30 3776 H 359.721 1.55871 -5.79503 0
M  V30 3777 H 360.791 0.535956 -4.81929 0
M  V30 3778 N 362.134 1.5431 0.320358 0
M  V30 3779 C 363.382 1.72327 1.05583 0
M  V30 3780 C 363.703 0.50149 1.88441 0
M  V30 3781 O 362.973 -0.48448 1.89815 0
M  V30 3782 H 361.553 0.635387 0.3928 0
M  V30 3783 H 364.215 1.91621 0.356019 0
M  V30 3784 H 363.311 2.60426 1.72003 0
M  V30 3785 N 363.613 -0.582584 1.46437 0
M  V30 3786 C 365.024 -1.1647 1.45916 0
M  V30 3787 C 365.375 -1.95177 0.200077 0
M  V30 3788 O 364.5 -2.04874 -0.696819 0
M  V30 3789 C 365.095 -2.11885 2.64367 0
M  V30 3790 C 363.654 -2.65421 2.66887 0
M  V30 3791 C 362.801 -1.41294 2.38603 0
M  V30 3792 H 365.752 -0.370514 1.54314 0
M  V30 3793 H 365.773 -2.9535 2.39892 0
M  V30 3794 H 365.285 -1.54573 3.5599 0
M  V30 3795 H 363.386 -3.26602 1.79338 0
M  V30 3796 H 363.499 -3.08147 3.66854 0
M  V30 3797 H 361.863 -1.71109 1.88663 0
M  V30 3798 H 362.646 -0.858125 3.32402 0
M  V30 3799 N 365.091 -1.34144 -0.827227 0
M  V30 3800 C 366.039 -1.25364 -1.95925 0
M  V30 3801 C 367.033 -0.152608 -1.68711 0
M  V30 3802 O 368.239 -0.317311 -1.77181 0
M  V30 3803 H 364.614 -0.389342 -0.643364 0
M  V30 3804 H 366.585 -2.21045 -2.00454 0
M  V30 3805 C 365.334 -1.02158 -3.32354 0
M  V30 3806 H 364.657 -1.86111 -3.5384 0
M  V30 3807 H 366.097 -1.00048 -4.12027 0
M  V30 3808 C 364.556 0.275244 -3.35774 0
M  V30 3809 O 365.086 1.27806 -3.80826 0
M  V30 3810 N 363.292 0.306853 -2.88975 0
M  V30 3811 H 362.839 -0.509777 -2.52506 0
M  V30 3812 H 362.797 1.17432 -2.91646 0
M  V30 3813 N 366.569 1.04691 -1.17803 0
M  V30 3814 C 367.517 2.14665 -0.895635 0
M  V30 3815 C 368.511 1.68806 0.141679 0
M  V30 3816 O 369.717 1.79999 -0.00587914 0
M  V30 3817 H 366.092 0.701038 -0.272121 0
M  V30 3818 H 368.063 2.35685 -1.83017 0
M  V30 3819 C 366.812 3.45019 -0.430962 0
M  V30 3820 H 366.135 3.8071 -1.22064 0
M  V30 3821 H 367.575 4.23125 -0.272301 0
M  V30 3822 C 366.034 3.25943 0.852207 0
M  V30 3823 O 366.564 3.5296 1.91786 0
M  V30 3824 N 364.77 2.79304 0.802346 0
M  V30 3825 H 364.317 2.57518 -0.0650788 0
M  V30 3826 H 364.275 2.66921 1.66134 0
M  V30 3827 N 368.047 0.979072 1.23499 0
M  V30 3828 C 368.994 0.517904 2.24914 0
M  V30 3829 C 369.964 -0.442525 1.60097 0
M  V30 3830 O 371.149 -0.350365 1.87556 0
M  V30 3831 C 368.289 -0.174813 3.44657 0
M  V30 3832 C 367.402 0.825721 4.24035 0
M  V30 3833 C 366.537 0.107946 5.3109 0
M  V30 3834 C 365.576 1.09778 6.02175 0
M  V30 3835 N 364.713 0.40925 7.00906 0
M  V30 3836 H 369.553 1.38751 2.63727 0
M  V30 3837 H 367.09 0.695303 1.2963 0
M  V30 3838 H 369.048 -0.593233 4.12961 0
M  V30 3839 H 367.678 -1.0083 3.06648 0
M  V30 3840 H 366.73 1.36253 3.55161 0
M  V30 3841 H 368.042 1.58005 4.73113 0
M  V30 3842 H 367.196 -0.367904 6.05583 0
M  V30 3843 H 365.935 -0.678994 4.8295 0
M  V30 3844 H 364.94 1.5844 5.26476 0
M  V30 3845 H 366.165 1.88536 6.52404 0
M  V30 3846 H 364.111 -0.358506 6.5502 0
M  V30 3847 H 364.028 1.10226 7.47921 0
M  V30 3848 H 365.296 -0.0442557 7.79487 0
M  V30 3849 N 369.525 -1.3858 0.750561 0
M  V30 3850 C 370.488 -2.28836 0.129152 0
M  V30 3851 C 371.488 -1.47045 -0.650714 0
M  V30 3852 O 372.678 -1.6753 -0.477428 0
M  V30 3853 C 369.81 -3.30751 -0.825622 0
M  V30 3854 H 371.003 -2.85294 0.924516 0
M  V30 3855 H 368.556 -1.47489 0.517376 0
M  V30 3856 H 369.291 -2.79378 -1.64677 0
M  V30 3857 H 369.076 -3.91177 -0.268852 0
M  V30 3858 H 370.566 -3.98249 -1.2565 0
M  V30 3859 N 371.003 -0.499398 -1.49478 0
M  V30 3860 C 371.913 0.284489 -2.32869 0
M  V30 3861 C 372.929 0.968885 -1.44529 0
M  V30 3862 O 374.105 0.95062 -1.77553 0
M  V30 3863 C 371.17 1.33594 -3.19928 0
M  V30 3864 C 370.231 0.665149 -4.24116 0
M  V30 3865 C 369.464 1.6665 -5.07014 0
M  V30 3866 O 369.687 2.89618 -4.91404 0
M  V30 3867 O 368.621 1.22271 -5.8935 0
M  V30 3868 H 372.447 -0.39802 -3.01081 0
M  V30 3869 H 370.032 -0.260758 -1.47107 0
M  V30 3870 H 371.914 1.94431 -3.73864 0
M  V30 3871 H 370.589 2.0014 -2.54412 0
M  V30 3872 H 369.496 0.0170769 -3.74096 0
M  V30 3873 H 370.829 0.0421555 -4.92182 0
M  V30 3874 N 372.481 1.55866 -0.233164 0
M  V30 3875 C 373.897 1.59133 0.121988 0
M  V30 3876 C 374.097 1.25016 1.58029 0
M  V30 3877 O 373.153 0.990922 2.32243 0
M  V30 3878 C 374.466 2.99932 -0.214792 0
M  V30 3879 C 376.014 3.12601 -0.157971 0
M  V30 3880 C 376.489 4.55597 -0.46859 0
M  V30 3881 N 377.98 4.61305 -0.418585 0
M  V30 3882 C 378.715 5.69903 -0.63227 0
M  V30 3883 N 378.211 6.86819 -0.90835 0
M  V30 3884 N 380.004 5.59264 -0.563913 0
M  V30 3885 H 372.155 1.76315 -1.18434 0
M  V30 3886 H 374.418 0.820093 -0.475553 0
M  V30 3887 H 374.124 3.29588 -1.22739 0
M  V30 3888 H 373.998 3.74327 0.464691 0
M  V30 3889 H 376.385 2.82735 0.845283 0
M  V30 3890 H 376.466 2.40511 -0.871102 0
M  V30 3891 H 376.11 4.86182 -1.46934 0
M  V30 3892 H 376.04 5.25928 0.265865 0
M  V30 3893 H 378.531 3.77297 -0.213368 0
M  V30 3894 H 378.844 7.65507 -1.05919 0
M  V30 3895 H 377.189 6.88536 -0.945673 0
M  V30 3896 H 380.38 4.66802 -0.348372 0
M  V30 3897 H 380.553 6.43831 -0.733847 0
M  V30 3898 N 373.959 -0.0401083 1.57549 0
M  V30 3899 C 375.208 -0.732108 1.87944 0
M  V30 3900 C 375.521 -1.77107 0.830206 0
M  V30 3901 O 376.727 -2.51488 1.02302 0
M  V30 3902 C 375.183 -1.35315 3.33494 0
M  V30 3903 C 374.791 -0.351105 4.46622 0
M  V30 3904 C 376.535 -2.02566 3.73051 0
M  V30 3905 C 374.442 -0.979859 5.83226 0
M  V30 3906 H 373.372 -0.277188 0.701201 0
M  V30 3907 H 376.023 0.0138501 1.83495 0
M  V30 3908 H 374.405 -2.14844 3.32653 0
M  V30 3909 H 375.579 0.416674 4.58912 0
M  V30 3910 H 373.894 0.218708 4.15825 0
M  V30 3911 H 376.491 -2.50441 4.72423 0
M  V30 3912 H 376.834 -2.83904 3.04474 0
M  V30 3913 H 377.367 -1.29827 3.76018 0
M  V30 3914 H 374.106 -0.206135 6.55176 0
M  V30 3915 H 373.626 -1.71774 5.74677 0
M  V30 3916 H 375.305 -1.49046 6.29599 0
M  V30 3917 N 375.437 -1.54477 -0.31217 0
M  V30 3918 C 376.683 -1.73483 -1.0503 0
M  V30 3919 C 377.016 -0.513125 -1.87298 0
M  V30 3920 O 376.291 0.489864 -1.8823 0
M  V30 3921 C 376.574 -3.01723 -1.96558 0
M  V30 3922 C 376.427 -4.3417 -1.17545 0
M  V30 3923 C 377.746 -3.25772 -2.95907 0
M  V30 3924 H 374.865 -0.631222 -0.380432 0
M  V30 3925 H 377.507 -1.87184 -0.325932 0
M  V30 3926 H 375.657 -2.90174 -2.58324 0
M  V30 3927 H 377.329 -4.5762 -0.581513 0
M  V30 3928 H 375.572 -4.31159 -0.477925 0
M  V30 3929 H 376.243 -5.20143 -1.84811 0
M  V30 3930 H 378.719 -3.36857 -2.44267 0
M  V30 3931 H 377.595 -4.16838 -3.57123 0
M  V30 3932 H 377.856 -2.43537 -3.68974 0
M  V30 3933 N 376.915 0.57481 -1.46744 0
M  V30 3934 C 378.161 1.3347 -1.52688 0
M  V30 3935 C 378.494 1.93353 -0.181229 0
M  V30 3936 O 377.769 1.76912 0.808237 0
M  V30 3937 C 378.052 2.45811 -2.63152 0
M  V30 3938 C 377.905 1.90912 -4.07275 0
M  V30 3939 C 379.224 3.47822 -2.69644 0
M  V30 3940 H 376.343 0.483935 -0.555856 0
M  V30 3941 H 378.985 0.644968 -1.78718 0
M  V30 3942 H 377.135 3.04646 -2.41088 0
M  V30 3943 H 378.807 1.36473 -4.4065 0
M  V30 3944 H 377.05 1.21691 -4.16382 0
M  V30 3945 H 377.721 2.72042 -4.80309 0
M  V30 3946 H 380.197 2.9888 -2.895 0
M  V30 3947 H 379.073 4.23876 -3.48742 0
M  V30 3948 H 379.334 4.05555 -1.76005 0
M  V30 3949 N 378.394 1.34581 0.820102 0
M  V30 3950 C 379.643 1.26437 1.57151 0
M  V30 3951 C 379.956 -0.163111 1.94919 0
M  V30 3952 O 381.162 -0.366722 2.69012 0
M  V30 3953 C 379.618 2.21658 2.83541 0
M  V30 3954 C 379.226 3.69679 2.53065 0
M  V30 3955 C 380.97 2.22428 3.61561 0
M  V30 3956 C 378.877 4.56761 3.75664 0
M  V30 3957 H 377.807 0.469707 0.589823 0
M  V30 3958 H 380.458 1.59763 0.902656 0
M  V30 3959 H 378.84 1.81287 3.52067 0
M  V30 3960 H 380.014 4.18605 1.92631 0
M  V30 3961 H 378.329 3.71384 1.88316 0
M  V30 3962 H 380.926 2.8471 4.52597 0
M  V30 3963 H 381.269 1.22434 3.97889 0
M  V30 3964 H 381.802 2.61259 2.99981 0
M  V30 3965 H 378.541 5.57702 3.44454 0
M  V30 3966 H 378.061 4.12568 4.35371 0
M  V30 3967 H 379.74 4.71509 4.43044 0
M  V30 3968 N 379.872 -1.04064 1.18357 0
M  V30 3969 C 381.102 -1.80654 1.00238 0
M  V30 3970 C 381.51 -1.83713 -0.452362 0
M  V30 3971 O 380.853 -1.27135 -1.32599 0
M  V30 3972 C 380.915 -3.27582 1.48088 0
M  V30 3973 C 380.579 -3.48184 2.96002 0
M  V30 3974 C 381.576 -3.39372 3.93856 0
M  V30 3975 C 379.261 -3.7478 3.34433 0
M  V30 3976 C 381.255 -3.5686 5.28138 0
M  V30 3977 C 378.942 -3.91915 4.68877 0
M  V30 3978 C 379.94 -3.82956 5.65539 0
M  V30 3979 O 379.628 -3.996 6.97549 0
M  V30 3980 H 379.36 -0.575751 0.354241 0
M  V30 3981 H 381.914 -1.32044 1.57333 0
M  V30 3982 H 380.144 -3.77161 0.853588 0
M  V30 3983 H 381.833 -3.8573 1.2636 0
M  V30 3984 H 382.599 -3.18789 3.65511 0
M  V30 3985 H 378.478 -3.80852 2.59756 0
M  V30 3986 H 382.022 -3.49783 6.03571 0
M  V30 3987 H 377.919 -4.11992 4.96923 0
M  V30 3988 H 378.687 -4.1676 7.04452 0
M  V30 3989 N 381.35 -0.985608 -1.22978 0
M  V30 3990 C 382.28 -0.549649 -2.26939 0
M  V30 3991 C 383.261 0.419803 -1.64838 0
M  V30 3992 O 384.446 0.31203 -1.91677 0
M  V30 3993 C 381.576 0.143652 -3.47003 0
M  V30 3994 C 380.53 -0.743606 -4.21491 0
M  V30 3995 C 379.856 0.0822027 -5.34637 0
M  V30 3996 C 381.156 -2.03694 -4.80943 0
M  V30 3997 H 382.85 -1.41862 -2.63658 0
M  V30 3998 H 380.396 -0.683571 -1.26741 0
M  V30 3999 H 382.349 0.459985 -4.18882 0
M  V30 4000 H 381.073 1.04711 -3.09359 0
M  V30 4001 H 379.732 -1.04347 -3.51436 0
M  V30 4002 H 379.38 0.986359 -4.93234 0
M  V30 4003 H 379.08 -0.508377 -5.85397 0
M  V30 4004 H 380.604 0.392797 -6.09335 0
M  V30 4005 H 382.018 -1.78504 -5.44802 0
M  V30 4006 H 380.415 -2.57573 -5.42011 0
M  V30 4007 H 381.485 -2.72042 -4.01399 0
M  V30 4008 N 382.828 1.3818 -0.7579 0
M  V30 4009 C 384.244 1.5353 -0.435972 0
M  V30 4010 C 384.444 1.71961 1.05032 0
M  V30 4011 O 383.5 1.73307 1.83633 0
M  V30 4012 C 384.813 2.73989 -1.23898 0
M  V30 4013 C 386.361 2.87841 -1.22949 0
M  V30 4014 C 386.836 4.11266 -2.01554 0
M  V30 4015 N 388.327 4.18352 -1.98837 0
M  V30 4016 C 389.062 5.12856 -2.5645 0
M  V30 4017 N 388.558 6.13005 -3.22794 0
M  V30 4018 N 390.351 5.05238 -2.46356 0
M  V30 4019 H 382.502 1.24467 -1.7211 0
M  V30 4020 H 384.765 0.604982 -0.729864 0
M  V30 4021 H 384.471 2.66789 -2.29165 0
M  V30 4022 H 384.345 3.67294 -0.858764 0
M  V30 4023 H 386.732 2.9452 -0.184854 0
M  V30 4024 H 386.813 1.95534 -1.64924 0
M  V30 4025 H 386.457 4.05349 -3.06031 0
M  V30 4026 H 386.387 5.02661 -1.5697 0
M  V30 4027 H 388.878 3.46628 -1.50524 0
M  V30 4028 H 389.191 6.81619 -3.64165 0
M  V30 4029 H 387.536 6.13325 -3.2689 0
M  V30 4030 H 390.727 4.25938 -1.9415 0
M  V30 4031 H 390.9 5.78707 -2.91552 0
M  V30 4032 N 384.306 0.507319 1.49211 0
M  V30 4033 C 385.583 -0.0982702 1.95353 0
M  V30 4034 C 385.963 -1.53516 1.449 0
M  V30 4035 O 385.311 -2.18594 0.66551 0
M  V30 4036 C 385.521 -0.00440283 3.49 0
M  V30 4037 C 386.869 -0.175147 4.24239 0
M  V30 4038 O 387.893 -0.0792891 3.56112 0
M  V30 4039 O 386.752 -0.37276 5.45227 0
M  V30 4040 H 383.846 -0.0918236 0.821887 0
M  V30 4041 H 386.392 0.570307 1.5983 0
M  V30 4042 H 385.164 0.997402 3.78375 0
M  V30 4043 H 384.787 -0.712845 3.91158 0
M  V30 4044 N 385.784 -1.5574 0.241426 0
M  V30 4045 C 387.012 -2.03208 -0.389134 0
M  V30 4046 C 387.427 -1.12082 -1.51931 0
M  V30 4047 O 386.784 -0.134183 -1.82006 0
M  V30 4048 C 386.835 -3.50064 -0.902087 0
M  V30 4049 O 386.556 -4.37717 0.18305 0
M  V30 4050 C 388.057 -4.13268 -1.60389 0
M  V30 4051 H 385.277 -0.664509 -0.0931053 0
M  V30 4052 H 387.821 -2.0124 0.36369 0
M  V30 4053 H 385.976 -3.52583 -1.60511 0
M  V30 4054 H 386.39 -5.24097 -0.205579 0
M  V30 4055 H 387.864 -5.17733 -1.91458 0
M  V30 4056 H 388.341 -3.59434 -2.52397 0
M  V30 4057 H 388.947 -4.14655 -0.945576 0
M  V30 4058 N 387.262 0.0317525 -1.57568 0
M  V30 4059 C 388.673 0.578692 -1.77505 0
M  V30 4060 C 389.024 1.75749 -0.872164 0
M  V30 4061 O 388.149 2.16298 -0.0663106 0
M  V30 4062 C 388.744 1.05658 -3.21904 0
M  V30 4063 C 387.303 1.54906 -3.43047 0
M  V30 4064 C 386.45 0.485939 -2.73009 0
M  V30 4065 H 389.401 -0.194475 -1.57504 0
M  V30 4066 H 389.422 1.92404 -3.28269 0
M  V30 4067 H 388.934 0.198422 -3.87592 0
M  V30 4068 H 387.035 2.42915 -2.82529 0
M  V30 4069 H 387.148 1.59841 -4.5165 0
M  V30 4070 H 385.512 0.940354 -2.36705 0
M  V30 4071 H 386.295 -0.362709 -3.41379 0
M  V30 4072 N 388.74 1.54641 0.303973 0
M  V30 4073 C 389.703 1.84646 1.35789 0
M  V30 4074 C 390.703 0.7192 1.4382 0
M  V30 4075 O 391.893 0.987491 1.43507 0
M  V30 4076 C 389.025 2.02407 2.74307 0
M  V30 4077 H 390.218 2.78829 1.10429 0
M  V30 4078 H 387.771 1.46658 0.540487 0
M  V30 4079 H 388.506 1.10502 3.04893 0
M  V30 4080 H 388.291 2.84453 2.69868 0
M  V30 4081 H 389.781 2.27002 3.50514 0
M  V30 4082 N 390.218 -0.567019 1.47046 0
M  V30 4083 C 391.443 -1.3551 1.57009 0
M  V30 4084 C 391.868 -1.86841 0.217259 0
M  V30 4085 O 391.226 -1.62435 -0.805268 0
M  V30 4086 C 391.274 -2.50777 2.5912 0
M  V30 4087 O 390.378 -3.52706 2.13711 0
M  V30 4088 H 389.719 -0.402919 0.52778 0
M  V30 4089 H 392.249 -0.686241 1.92748 0
M  V30 4090 H 392.259 -2.97481 2.79229 0
M  V30 4091 H 390.934 -2.12771 3.57353 0
M  V30 4092 H 389.511 -3.12374 2.03659 0
M  V30 4093 N 391.696 -1.35014 -0.812953 0
M  V30 4094 C 392.629 -1.21761 -1.93001 0
M  V30 4095 C 393.607 -0.10694 -1.62248 0
M  V30 4096 O 394.791 -0.273891 -1.865 0
M  V30 4097 C 391.918 -0.873404 -3.27245 0
M  V30 4098 C 390.964 -1.99523 -3.76952 0
M  V30 4099 S 391.797 -3.61009 -3.95516 0
M  V30 4100 C 392.953 -3.28651 -5.32672 0
M  V30 4101 H 393.186 -2.16315 -2.03948 0
M  V30 4102 H 390.719 -1.20156 -0.969631 0
M  V30 4103 H 392.677 -0.68161 -4.04802 0
M  V30 4104 H 391.338 0.053971 -3.14054 0
M  V30 4105 H 390.531 -1.70838 -4.74163 0
M  V30 4106 H 390.133 -2.14503 -3.06373 0
M  V30 4107 H 392.425 -2.81085 -6.1644 0
M  V30 4108 H 393.368 -4.25039 -5.66346 0
M  V30 4109 H 393.776 -2.6458 -4.98656 0
M  V30 4110 N 393.175 1.03435 -1.18907 0
M  V30 4111 C 394.138 2.09756 -0.923844 0
M  V30 4112 C 395.138 1.60528 0.093416 0
M  V30 4113 O 396.328 1.73631 -0.140727 0
M  V30 4114 C 393.46 3.38692 -0.387354 0
M  V30 4115 H 394.653 2.34719 -1.86674 0
M  V30 4116 H 392.206 1.19959 -1.00197 0
M  V30 4117 H 392.941 3.19396 0.561845 0
M  V30 4118 H 392.726 3.75742 -1.12074 0
M  V30 4119 H 394.216 4.17016 -0.220694 0
M  V30 4120 N 394.653 0.992116 1.22453 0
M  V30 4121 C 395.563 0.55065 2.28046 0
M  V30 4122 C 396.579 -0.400189 1.69335 0
M  V30 4123 O 397.755 -0.267215 1.99619 0
M  V30 4124 C 394.82 -0.128496 3.46462 0
M  V30 4125 C 393.881 0.865208 4.20491 0
M  V30 4126 C 393.114 0.218377 5.33253 0
M  V30 4127 O 393.337 -0.987894 5.6178 0
M  V30 4128 O 392.271 0.922845 5.94783 0
M  V30 4129 H 396.097 1.4291 2.67975 0
M  V30 4130 H 393.682 0.760326 1.28606 0
M  V30 4131 H 395.564 -0.508947 4.18315 0
M  V30 4132 H 394.239 -0.981526 3.0846 0
M  V30 4133 H 393.146 1.29658 3.50913 0
M  V30 4134 H 394.479 1.68741 4.62371 0
M  V30 4135 N 396.131 -1.37776 0.765217 0
M  V30 4136 C 397.547 -1.53297 0.444108 0
M  V30 4137 C 397.747 -1.72515 -1.04119 0
M  V30 4138 O 396.803 -1.74278 -1.82711 0
M  V30 4139 C 398.116 -2.73328 1.25349 0
M  V30 4140 C 399.664 -2.87185 1.24473 0
M  V30 4141 C 400.139 -4.10191 2.03733 0
M  V30 4142 N 401.63 -4.17291 2.01053 0
M  V30 4143 C 402.365 -5.11488 2.59166 0
M  V30 4144 N 401.861 -6.11285 3.26041 0
M  V30 4145 N 403.654 -5.03924 2.49032 0
M  V30 4146 H 395.805 -1.23552 1.72768 0
M  V30 4147 H 398.068 -0.601103 0.733062 0
M  V30 4148 H 397.774 -2.6557 2.30577 0
M  V30 4149 H 397.648 -3.66834 0.87823 0
M  V30 4150 H 400.035 -2.94418 0.20047 0
M  V30 4151 H 400.116 -1.94657 1.65959 0
M  V30 4152 H 399.76 -4.0372 3.08176 0
M  V30 4153 H 399.69 -5.01821 1.59633 0
M  V30 4154 H 402.181 -3.45825 1.5236 0
M  V30 4155 H 402.494 -6.79678 3.67774 0
M  V30 4156 H 400.839 -6.11583 3.30138 0
M  V30 4157 H 404.03 -4.24902 1.96407 0
M  V30 4158 H 404.203 -5.77152 2.94617 0
M  V30 4159 N 397.609 -0.515225 -1.4894 0
M  V30 4160 C 398.557 0.269115 -2.31038 0
M  V30 4161 C 399.551 0.949443 -1.40292 0
M  V30 4162 O 400.757 0.87551 -1.57273 0
M  V30 4163 H 397.132 0.10565 -0.744542 0
M  V30 4164 H 399.103 -0.443096 -2.95092 0
M  V30 4165 C 397.852 1.31213 -3.21991 0
M  V30 4166 H 397.175 0.798034 -3.91754 0
M  V30 4167 H 398.615 1.83263 -3.82349 0
M  V30 4168 C 397.074 2.33791 -2.42576 0
M  V30 4169 O 397.604 3.3995 -2.14003 0
M  V30 4170 N 395.81 2.06625 -2.0434 0
M  V30 4171 H 395.357 1.20314 -2.27777 0
M  V30 4172 H 395.315 2.75483 -1.51514 0
M  V30 4173 N 399.087 1.5561 -0.249682 0
M  V30 4174 C 400.019 2.18834 0.681496 0
M  V30 4175 C 401.032 1.16546 1.1367 0
M  V30 4176 O 402.221 1.43397 1.06299 0
M  V30 4177 C 399.321 2.77992 1.9384 0
M  V30 4178 C 398.494 4.05725 1.63419 0
M  V30 4179 C 397.553 4.49174 2.74096 0
M  V30 4180 O 396.579 5.15492 2.41364 0
M  V30 4181 N 397.781 4.17191 4.03649 0
M  V30 4182 H 400.546 2.9937 0.140514 0
M  V30 4183 H 398.107 1.6175 -0.0697541 0
M  V30 4184 H 400.099 3.04015 2.67127 0
M  V30 4185 H 398.669 2.01596 2.38909 0
M  V30 4186 H 397.889 3.87261 0.736358 0
M  V30 4187 H 399.177 4.88999 1.40562 0
M  V30 4188 H 398.575 3.63955 4.33074 0
M  V30 4189 H 397.132 4.48043 4.73393 0
M  V30 4190 N 400.565 -0.0233959 1.57583 0
M  V30 4191 C 401.497 -1.04994 2.03737 0
M  V30 4192 C 402.51 -1.32125 0.951152 0
M  V30 4193 O 403.699 -1.29512 1.22837 0
M  V30 4194 C 400.799 -2.39026 2.40249 0
M  V30 4195 C 399.972 -2.31171 3.7132 0
M  V30 4196 C 399.031 -3.47698 3.94959 0
M  V30 4197 O 398.057 -3.26937 4.65941 0
M  V30 4198 N 399.259 -4.6976 3.41037 0
M  V30 4199 H 402.024 -0.656507 2.92421 0
M  V30 4200 H 399.585 -0.211235 1.60516 0
M  V30 4201 H 401.577 -3.15712 2.53196 0
M  V30 4202 H 400.147 -2.70194 1.57207 0
M  V30 4203 H 399.367 -1.39547 3.68674 0
M  V30 4204 H 400.655 -2.23071 4.57293 0
M  V30 4205 H 400.053 -4.89528 2.83512 0
M  V30 4206 H 398.61 -5.43791 3.59353 0
M  V30 4207 N 402.043 -1.548 -0.295768 0
M  V30 4208 C 403.292 -1.73538 -1.02798 0
M  V30 4209 C 403.605 -0.531159 -1.8825 0
M  V30 4210 O 404.811 -0.600458 -2.64777 0
M  V30 4211 C 403.267 -3.07051 -1.87744 0
M  V30 4212 C 402.875 -4.34968 -1.07269 0
M  V30 4213 C 404.619 -3.35146 -2.60533 0
M  V30 4214 C 402.526 -5.5953 -1.91521 0
M  V30 4215 H 401.456 -0.646794 -0.387522 0
M  V30 4216 H 404.107 -1.81278 -0.284718 0
M  V30 4217 H 402.489 -2.93289 -2.66078 0
M  V30 4218 H 403.663 -4.5958 -0.335117 0
M  V30 4219 H 401.978 -4.13847 -0.460384 0
M  V30 4220 H 404.575 -4.2541 -3.23929 0
M  V30 4221 H 404.918 -2.54255 -3.29636 0
M  V30 4222 H 405.451 -3.49902 -1.89244 0
M  V30 4223 H 402.19 -6.43103 -1.26878 0
M  V30 4224 H 401.71 -5.39096 -2.62937 0
M  V30 4225 H 403.389 -5.96982 -2.49442 0
M  V30 4226 N 403.521 0.559213 -1.47345 0
M  V30 4227 C 404.484 1.64854 -1.59235 0
M  V30 4228 C 405.484 1.53851 -0.467607 0
M  V30 4229 O 406.674 1.58045 -0.732617 0
M  V30 4230 C 403.806 3.04388 -1.53496 0
M  V30 4231 H 404.999 1.55662 -2.56339 0
M  V30 4232 H 402.552 0.778973 -1.35505 0
M  V30 4233 H 403.287 3.19115 -0.577604 0
M  V30 4234 H 403.072 3.13783 -2.35123 0
M  V30 4235 H 404.562 3.83642 -1.6495 0
M  V30 4236 N 404.999 1.35443 0.805782 0
M  V30 4237 C 406.247 1.28507 1.55982 0
M  V30 4238 C 406.568 -0.140046 1.94496 0
M  V30 4239 O 405.838 -1.07666 1.63661 0
M  V30 4240 H 404.418 0.472676 0.578434 0
M  V30 4241 H 407.08 1.69555 0.961098 0
M  V30 4242 H 406.176 1.90148 2.47488 0
M  V30 4243 N 406.477 -1.02803 1.19454 0
M  V30 4244 C 407.726 -1.7562 0.991996 0
M  V30 4245 C 408.039 -1.89672 -0.477901 0
M  V30 4246 O 409.245 -2.59468 -0.799287 0
M  V30 4247 C 407.701 -3.15812 1.72601 0
M  V30 4248 C 407.309 -3.0981 3.23607 0
M  V30 4249 C 409.053 -3.92918 1.60674 0
M  V30 4250 C 406.96 -4.44939 3.89594 0
M  V30 4251 H 405.89 -0.658352 0.367543 0
M  V30 4252 H 408.541 -1.15044 1.42959 0
M  V30 4253 H 406.923 -3.7686 1.21624 0
M  V30 4254 H 408.097 -2.58138 3.81709 0
M  V30 4255 H 406.412 -2.46201 3.35819 0
M  V30 4256 H 409.009 -4.9287 2.07323 0
M  V30 4257 H 409.352 -4.12502 0.561025 0
M  V30 4258 H 409.885 -3.38472 2.09001 0
M  V30 4259 H 406.624 -4.30559 4.94267 0
M  V30 4260 H 406.144 -4.96664 3.36281 0
M  V30 4261 H 407.823 -5.1382 3.93189 0
M  V30 4262 N 407.956 -0.998596 -1.21925 0
M  V30 4263 C 409.204 -0.676325 -1.90448 0
M  V30 4264 C 409.525 0.794719 -1.78071 0
M  V30 4265 O 408.795 1.5701 -1.17152 0
M  V30 4266 H 407.375 -0.247165 -0.704925 0
M  V30 4267 H 410.037 -1.26633 -1.48156 0
M  V30 4268 H 409.133 -0.943858 -2.97486 0
M  V30 4269 N 409.434 1.37368 -0.772513 0
M  V30 4270 C 410.397 2.28601 -0.165541 0
M  V30 4271 C 411.397 1.48062 0.627238 0
M  V30 4272 O 412.587 1.68268 0.450715 0
M  V30 4273 C 409.719 3.32023 0.772897 0
M  V30 4274 H 410.912 2.83787 -0.969787 0
M  V30 4275 H 408.465 1.46647 -0.540775 0
M  V30 4276 H 409.2 2.81962 1.60212 0
M  V30 4277 H 408.985 3.91555 0.206585 0
M  V30 4278 H 410.475 4.00197 1.19298 0
M  V30 4279 N 410.912 0.523116 1.48665 0
M  V30 4280 C 411.875 -0.232592 2.28017 0
M  V30 4281 C 412.875 -0.874021 1.34972 0
M  V30 4282 O 414.065 -0.735132 1.57929 0
M  V30 4283 C 411.197 -1.33586 3.13636 0
M  V30 4284 H 412.39 0.464008 2.96289 0
M  V30 4285 H 409.943 0.278816 1.53793 0
M  V30 4286 H 410.678 -2.06593 2.4998 0
M  V30 4287 H 410.463 -0.881125 3.82071 0
M  V30 4288 H 411.953 -1.86759 3.73511 0
M  V30 4289 N 412.39 -1.55475 0.257931 0
M  V30 4290 C 413.32 -2.24815 -0.630912 0
M  V30 4291 C 414.301 -1.23224 -1.17259 0
M  V30 4292 O 415.486 -1.51904 -1.20991 0
M  V30 4293 C 412.616 -2.95609 -1.82298 0
M  V30 4294 C 411.57 -4.03982 -1.41359 0
M  V30 4295 C 410.896 -4.6226 -2.68738 0
M  V30 4296 C 412.196 -5.19109 -0.57648 0
M  V30 4297 H 413.89 -2.99354 -0.0526878 0
M  V30 4298 H 411.436 -1.4398 -0.023901 0
M  V30 4299 H 413.389 -3.42822 -2.45054 0
M  V30 4300 H 412.113 -2.18577 -2.42676 0
M  V30 4301 H 410.772 -3.57555 -0.809324 0
M  V30 4302 H 410.42 -3.81915 -3.27338 0
M  V30 4303 H 410.12 -5.35424 -2.42065 0
M  V30 4304 H 411.644 -5.12212 -3.32372 0
M  V30 4305 H 413.058 -5.62479 -1.10861 0
M  V30 4306 H 411.455 -5.98729 -0.405351 0
M  V30 4307 H 412.525 -4.83174 0.408776 0
M  V30 4308 N 413.868 0.0150385 -1.57593 0
M  V30 4309 C 415.117 0.702115 -1.89085 0
M  V30 4310 C 415.43 1.75764 -0.858277 0
M  V30 4311 O 416.636 2.49829 -1.0629 0
M  V30 4312 C 415.092 1.29992 -3.35604 0
M  V30 4313 C 414.7 0.280007 -4.47124 0
M  V30 4314 C 416.444 1.96606 -3.76227 0
M  V30 4315 C 414.351 0.886949 -5.84711 0
M  V30 4316 H 413.281 0.265997 -0.705522 0
M  V30 4317 H 415.932 -0.0430408 -1.8345 0
M  V30 4318 H 414.314 2.09525 -3.36029 0
M  V30 4319 H 415.488 -0.489631 -4.58191 0
M  V30 4320 H 413.803 -0.284835 -4.15425 0
M  V30 4321 H 416.4 2.42893 -4.76347 0
M  V30 4322 H 416.743 2.79024 -3.08952 0
M  V30 4323 H 417.276 1.23828 -3.78036 0
M  V30 4324 H 414.015 0.101876 -6.55421 0
M  V30 4325 H 413.535 1.6261 -5.77337 0
M  V30 4326 H 415.214 1.39011 -6.3189 0
M  V30 4327 N 415.346 1.54954 0.287554 0
M  V30 4328 C 416.256 1.8991 1.37736 0
M  V30 4329 C 417.272 0.794701 1.54792 0
M  V30 4330 O 418.448 1.09243 1.69198 0
M  V30 4331 C 415.513 2.15108 2.71899 0
M  V30 4332 C 414.574 3.38752 2.63715 0
M  V30 4333 C 413.807 3.62739 3.91479 0
M  V30 4334 O 414.03 2.89492 4.91478 0
M  V30 4335 O 412.964 4.56267 3.92561 0
M  V30 4336 H 416.79 2.82652 1.11092 0
M  V30 4337 H 414.375 1.41315 0.484807 0
M  V30 4338 H 416.257 2.32806 3.51254 0
M  V30 4339 H 414.932 1.25551 2.9836 0
M  V30 4340 H 413.839 3.26405 1.82786 0
M  V30 4341 H 415.172 4.28483 2.42205 0
M  V30 4342 N 416.824 -0.551391 1.4764 0
M  V30 4343 C 417.774 -1.65362 1.56969 0
M  V30 4344 C 418.758 -1.55098 0.428189 0
M  V30 4345 O 419.95 -1.63481 0.678441 0
M  V30 4346 C 417.079 -3.04129 1.59249 0
M  V30 4347 C 416.165 -3.19576 2.78804 0
M  V30 4348 N 416.556 -3.05067 4.03445 0
M  V30 4349 C 414.854 -3.50588 2.75688 0
M  V30 4350 C 415.555 -3.2336 4.83543 0
M  V30 4351 N 414.531 -3.4996 4.15968 0
M  V30 4352 H 418.333 -1.52722 2.51104 0
M  V30 4353 H 415.847 -0.756303 1.43714 0
M  V30 4354 H 417.844 -3.83278 1.64024 0
M  V30 4355 H 416.504 -3.17877 0.662148 0
M  V30 4356 H 417.515 -2.82273 4.34215 0
M  V30 4357 H 414.192 -3.70827 1.91817 0
M  V30 4358 H 415.582 -3.17061 5.92387 0
M  V30 4359 N 418.302 -1.35869 -0.798587 0
M  V30 4360 C 419.548 -1.30788 -1.55775 0
M  V30 4361 C 419.903 0.114558 -1.92059 0
M  V30 4362 O 419.196 1.06691 -1.59147 0
M  V30 4363 C 419.39 -2.1556 -2.85077 0
M  V30 4364 C 419.219 -3.65904 -2.61428 0
M  V30 4365 C 417.989 -4.35112 -2.56915 0
M  V30 4366 C 420.187 -4.59375 -2.31255 0
M  V30 4367 N 418.169 -5.71155 -2.25068 0
M  V30 4368 C 419.54 -5.83598 -2.09316 0
M  V30 4369 C 421.595 -4.48035 -2.17185 0
M  V30 4370 C 420.298 -6.97755 -1.74731 0
M  V30 4371 C 422.324 -5.62049 -1.83998 0
M  V30 4372 C 421.686 -6.85305 -1.629 0
M  V30 4373 H 417.785 -0.533855 -0.571422 0
M  V30 4374 H 420.369 -1.7083 -0.934079 0
M  V30 4375 H 418.54 -1.77776 -3.45326 0
M  V30 4376 H 420.272 -2.01938 -3.50718 0
M  V30 4377 H 417.027 -3.87812 -2.71843 0
M  V30 4378 H 417.451 -6.42978 -2.11916 0
M  V30 4379 H 422.093 -3.53338 -2.3219 0
M  V30 4380 H 419.811 -7.92411 -1.58464 0
M  V30 4381 H 423.397 -5.55232 -1.73808 0
M  V30 4382 H 422.277 -7.72034 -1.37596 0
M  V30 4383 N 419.78 1.02168 -1.19998 0
M  V30 4384 C 420.712 2.10705 -0.901994 0
M  V30 4385 C 421.725 1.6244 0.108216 0
M  V30 4386 O 422.914 1.78082 -0.12214 0
M  V30 4387 C 420.014 3.37291 -0.329834 0
M  V30 4388 C 419.187 4.14714 -1.39035 0
M  V30 4389 C 418.246 5.19606 -0.830432 0
M  V30 4390 O 417.272 5.48809 -1.50989 0
M  V30 4391 N 418.474 5.79366 0.362696 0
M  V30 4392 H 421.239 2.36856 -1.83628 0
M  V30 4393 H 418.8 1.18518 -1.10296 0
M  V30 4394 H 420.792 4.04657 0.0587633 0
M  V30 4395 H 419.362 3.0843 0.508891 0
M  V30 4396 H 418.582 3.42392 -1.9535 0
M  V30 4397 H 419.87 4.63226 -2.10474 0
M  V30 4398 H 419.268 5.57968 0.932081 0
M  V30 4399 H 417.825 6.48106 0.69299 0
M  V30 4400 N 421.258 1.00505 1.21394 0
M  V30 4401 C 422.674 0.717873 1.42544 0
M  V30 4402 C 422.874 -0.706936 1.88692 0
M  V30 4403 O 421.93 -1.47627 2.04847 0
M  V30 4404 C 423.243 1.73377 2.45684 0
M  V30 4405 C 424.791 1.75059 2.59467 0
M  V30 4406 C 425.266 2.75545 3.6584 0
M  V30 4407 N 426.757 2.74213 3.73311 0
M  V30 4408 C 427.492 3.48626 4.55245 0
M  V30 4409 N 426.988 4.32678 5.41075 0
M  V30 4410 N 428.781 3.37276 4.49668 0
M  V30 4411 H 420.932 1.92506 0.897503 0
M  V30 4412 H 423.195 0.830919 0.456375 0
M  V30 4413 H 422.901 2.75395 2.18748 0
M  V30 4414 H 422.775 1.53647 3.44489 0
M  V30 4415 H 425.162 0.737337 2.8574 0
M  V30 4416 H 425.243 1.98861 1.60897 0
M  V30 4417 H 424.887 3.77028 3.40313 0
M  V30 4418 H 424.817 2.49009 4.64007 0
M  V30 4419 H 427.308 2.13234 3.11993 0
M  V30 4420 H 427.621 4.86253 6.00648 0
M  V30 4421 H 425.966 4.3676 5.40616 0
M  V30 4422 H 429.157 2.71043 3.81646 0
M  V30 4423 H 429.33 3.95524 5.13288 0
M  V30 4424 O 422.775 -1.32987 0.916334 0
M  V30 4425 H 423.466 -1.86192 0.534057 0
M  V30 END ATOM
M  V30 BEGIN BOND
M  V30 END BOND
M  V30 END CTAB
M  END
$$$$
