drugbank_target|P06988 Histidinol dehydrogenase (DB03366; DB03811; DB04447)
 OpenBabel12092119593D

  0  0  0     0  0            999 V3000
M  V30 BEGIN CTAB
M  V30 COUNTS 6489 6538 0 0 0
M  V30 BEGIN ATOM
M  V30 1 H -0.908 1.98254 -0.117106 0
M  V30 2 N 0 1.576 0 0
M  V30 3 C 0.933 2.03868 1.02534 0
M  V30 4 C 1.911 0.928543 1.3348 0
M  V30 5 O 3.095 1.19667 1.45644 0
M  V30 6 C 0.222 2.43627 2.35294 0
M  V30 7 C -0.732 3.65373 2.2001 0
M  V30 8 S 0.101 5.13292 1.52614 0
M  V30 9 C 1.257 5.56322 2.86805 0
M  V30 10 H 1.49 2.90518 0.631377 0
M  V30 11 H -0.977 1.52953 0.210867 0
M  V30 12 H 0.981 2.67203 3.11629 0
M  V30 13 H -0.358 1.57376 2.7183 0
M  V30 14 H -1.165 3.90944 3.18086 0
M  V30 15 H -1.563 3.418 1.51819 0
M  V30 16 H 0.729 5.58782 3.83104 0
M  V30 17 H 1.672 6.56266 2.65933 0
M  V30 18 H 2.08 4.83886 2.90714 0
M  V30 19 N 1.4781 -0.272755 1.55222 0
M  V30 20 C 2.7031 -1.02683 1.80197 0
M  V30 21 C 3.1281 -1.79142 0.573551 0
M  V30 22 O 2.4861 -1.74917 -0.476849 0
M  V30 23 C 2.5341 -1.9609 3.02624 0
M  V30 24 O 1.6381 -3.04863 2.77727 0
M  V30 25 H 0.9791 -0.293557 0.595584 0
M  V30 26 H 3.5091 -0.30159 2.02365 0
M  V30 27 H 3.5191 -2.38039 3.31363 0
M  V30 28 H 2.1941 -1.39851 3.91682 0
M  V30 29 H 0.7711 -2.67228 2.60084 0
M  V30 30 N 2.9562 -1.48159 -0.537278 0
M  V30 31 C 4.2032 -1.55804 -1.29349 0
M  V30 32 C 4.5312 -0.228802 -1.9315 0
M  V30 33 O 3.7862 0.780242 -1.79473 0
M  V30 34 C 4.0852 -2.63956 -2.40961 0
M  V30 35 C 3.7512 -4.0662 -1.94861 0
M  V30 36 C 2.4132 -4.45452 -1.82006 0
M  V30 37 C 4.7652 -4.96055 -1.59933 0
M  V30 38 C 2.0932 -5.71531 -1.32547 0
M  V30 39 C 4.4452 -6.22617 -1.11939 0
M  V30 40 C 3.1092 -6.60312 -0.976951 0
M  V30 41 H 2.3792 -0.570129 -0.473322 0
M  V30 42 H 5.0262 -1.81845 -0.600372 0
M  V30 43 H 3.3312 -2.31747 -3.15912 0
M  V30 44 H 5.0282 -2.67089 -2.99107 0
M  V30 45 H 1.6182 -3.75949 -2.05815 0
M  V30 46 H 5.8022 -4.66738 -1.68728 0
M  V30 47 H 1.0582 -5.99468 -1.202 0
M  V30 48 H 5.2322 -6.91318 -0.839811 0
M  V30 49 H 2.8592 -7.57895 -0.591501 0
M  V30 50 N 4.4343 0.785586 -1.36625 0
M  V30 51 C 5.3823 1.91978 -1.31329 0
M  V30 52 C 6.3763 1.68162 -0.204416 0
M  V30 53 O 7.5823 1.76122 -0.371645 0
M  V30 54 H 3.9573 0.631087 -0.408942 0
M  V30 55 H 5.9283 1.93562 -2.27104 0
M  V30 56 C 4.6773 3.29055 -1.12329 0
M  V30 57 H 4.0003 3.4795 -1.96903 0
M  V30 58 H 5.4403 4.08756 -1.12671 0
M  V30 59 C 3.8993 3.36461 0.171861 0
M  V30 60 O 4.4293 3.84576 1.16035 0
M  V30 61 N 2.6353 2.89782 0.217846 0
M  V30 62 H 2.1823 2.50819 -0.587183 0
M  V30 63 H 2.1403 2.95119 1.08408 0
M  V30 64 N 5.9124 1.20967 1.01018 0
M  V30 65 C 7.1404 1.04956 1.78303 0
M  V30 66 C 7.5554 -0.400915 1.84494 0
M  V30 67 O 6.9124 -1.27826 1.30257 0
M  V30 68 C 6.9634 1.63403 3.22462 0
M  V30 69 O 6.6844 3.02775 3.16637 0
M  V30 70 C 8.1854 1.52432 4.16268 0
M  V30 71 H 5.4054 0.368858 0.560522 0
M  V30 72 H 7.9494 1.60193 1.27116 0
M  V30 73 H 6.1044 1.1227 3.70775 0
M  V30 74 H 6.5184 3.30626 4.07169 0
M  V30 75 H 7.9924 1.98078 5.15237 0
M  V30 76 H 8.4694 0.477875 4.36592 0
M  V30 77 H 9.0754 2.02787 3.73841 0
M  V30 78 N 7.3905 -1.2043 1.01659 0
M  V30 79 C 8.6395 -1.89118 0.701237 0
M  V30 80 C 8.9525 -1.79705 -0.772358 0
M  V30 81 O 10.1585 -2.43528 -1.20026 0
M  V30 82 C 8.6145 -3.39168 1.20388 0
M  V30 83 C 8.2225 -3.57166 2.70438 0
M  V30 84 C 9.9665 -4.1341 0.963953 0
M  V30 85 C 7.8735 -5.01042 3.14183 0
M  V30 86 H 6.8035 -0.708267 0.2586 0
M  V30 87 H 9.4545 -1.36239 1.22927 0
M  V30 88 H 7.8365 -3.91369 0.603824 0
M  V30 89 H 9.0105 -3.15351 3.35992 0
M  V30 90 H 7.3255 -2.96294 2.92572 0
M  V30 91 H 9.9225 -5.19491 1.26621 0
M  V30 92 H 10.2655 -4.16181 -0.099578 0
M  V30 93 H 10.7985 -3.67309 1.52738 0
M  V30 94 H 7.5375 -5.03426 4.19812 0
M  V30 95 H 7.0575 -5.43668 2.53348 0
M  V30 96 H 8.7365 -5.69623 3.0682 0
M  V30 97 N 8.8686 -0.792821 -1.36206 0
M  V30 98 C 10.1176 -0.363353 -1.984 0
M  V30 99 C 10.4306 1.07172 -1.63626 0
M  V30 100 O 11.6366 1.60362 -2.19081 0
M  V30 101 C 10.0926 -0.59872 -3.54885 0
M  V30 102 C 9.7006 -2.04543 -3.9858 0
M  V30 103 C 11.4446 -0.233926 -4.23855 0
M  V30 104 C 9.3516 -2.22727 -5.47856 0
M  V30 105 H 8.2816 -0.13212 -0.742334 0
M  V30 106 H 10.9326 -0.974935 -1.55458 0
M  V30 107 H 9.3146 0.0826222 -3.95914 0
M  V30 108 H 10.4886 -2.76345 -3.68741 0
M  V30 109 H 8.8036 -2.36879 -3.42458 0
M  V30 110 H 11.4006 -0.348027 -5.33566 0
M  V30 111 H 11.7436 0.818351 -4.08177 0
M  V30 112 H 12.2766 -0.868639 -3.882 0
M  V30 113 H 9.0156 -3.2635 -5.68486 0
M  V30 114 H 8.5356 -1.55434 -5.7931 0
M  V30 115 H 10.2146 -2.03607 -6.14128 0
M  V30 116 N 10.3467 1.47872 -0.545128 0
M  V30 117 C 11.6237 1.9554 0.0485222 0
M  V30 118 C 12.0037 1.4876 1.49779 0
M  V30 119 O 11.3517 0.720925 2.16829 0
M  V30 120 C 11.5617 3.48898 -0.084417 0
M  V30 121 C 12.9097 4.24547 0.0671239 0
M  V30 122 O 13.9337 3.56198 -0.0113649 0
M  V30 123 O 12.7927 5.45999 0.233882 0
M  V30 124 H 9.8867 0.823957 0.0708773 0
M  V30 125 H 12.4327 1.58327 -0.610798 0
M  V30 126 H 11.2047 3.75714 -1.09337 0
M  V30 127 H 10.8277 3.92845 0.613066 0
M  V30 128 N 11.8248 0.280983 1.55075 0
M  V30 129 C 13.0708 -0.327573 2.00745 0
M  V30 130 C 13.4258 -1.53045 1.16598 0
M  V30 131 O 12.7188 -1.90221 0.229451 0
M  V30 132 C 12.9128 -0.754656 3.49342 0
M  V30 133 C 12.7418 0.40529 4.4787 0
M  V30 134 C 11.5118 0.890947 4.97383 0
M  V30 135 C 13.7098 1.24371 4.99035 0
M  V30 136 N 11.6918 2.01975 5.79724 0
M  V30 137 C 13.0628 2.22031 5.7888 0
M  V30 138 C 15.1178 1.27638 4.81262 0
M  V30 139 C 13.8208 3.22709 6.42846 0
M  V30 140 C 15.8468 2.27164 5.46031 0
M  V30 141 C 15.2088 3.23556 6.25692 0
M  V30 142 H 11.3078 -0.0848774 0.77738 0
M  V30 143 H 13.8918 0.406342 1.90413 0
M  V30 144 H 12.0628 -1.45778 3.60005 0
M  V30 145 H 13.7948 -1.34105 3.81835 0
M  V30 146 H 10.5498 0.469262 4.71269 0
M  V30 147 H 10.9738 2.58794 6.25584 0
M  V30 148 H 15.6158 0.544936 4.19274 0
M  V30 149 H 13.3338 3.96784 7.0398 0
M  V30 150 H 16.9198 2.30441 5.34217 0
M  V30 151 H 15.7998 3.99309 6.74924 0
M  V30 152 N 13.3029 -1.57598 0.00835791 0
M  V30 153 C 14.2509 -2.10078 -0.998508 0
M  V30 154 C 15.2449 -1.02262 -1.35051 0
M  V30 155 O 16.4509 -1.20719 -1.33518 0
M  V30 156 H 12.8259 -0.670903 -0.339696 0
M  V30 157 H 14.7969 -2.93648 -0.530398 0
M  V30 158 C 13.5459 -2.62615 -2.27879 0
M  V30 159 H 12.8689 -3.45213 -2.01662 0
M  V30 160 H 14.3089 -3.03004 -2.96588 0
M  V30 161 C 12.7679 -1.54407 -2.99433 0
M  V30 162 O 13.2979 -0.931812 -3.90743 0
M  V30 163 N 11.5039 -1.2695 -2.61404 0
M  V30 164 H 11.0509 -1.76924 -1.87232 0
M  V30 165 H 11.0089 -0.547704 -3.09593 0
M  V30 166 N 14.781 0.264519 -1.55364 0
M  V30 167 C 16.006 1.01726 -1.80739 0
M  V30 168 C 16.431 1.78836 -0.583044 0
M  V30 169 O 15.789 1.75167 0.467566 0
M  V30 170 C 15.837 1.94482 -3.03659 0
M  V30 171 O 14.941 3.03386 -2.7934 0
M  V30 172 H 14.282 0.290395 -0.597132 0
M  V30 173 H 16.812 0.290854 -2.02522 0
M  V30 174 H 16.822 2.36278 -3.32621 0
M  V30 175 H 15.497 1.37772 -3.92418 0
M  V30 176 H 14.074 2.65844 -2.61498 0
M  V30 177 N 16.2591 1.48442 0.529413 0
M  V30 178 C 17.4991 1.58086 1.29569 0
M  V30 179 C 17.8631 0.249302 1.90375 0
M  V30 180 O 19.0641 0.220738 2.67892 0
M  V30 181 C 17.3351 2.68793 2.35552 0
M  V30 182 S 18.8941 2.98207 3.21898 0
M  V30 183 H 15.7121 0.557922 0.440732 0
M  V30 184 H 18.3141 1.85966 0.603059 0
M  V30 185 H 17.0181 3.64102 1.89363 0
M  V30 186 H 16.5491 2.42817 3.09522 0
M  V30 187 H 18.5641 2.37548 4.35644 0
M  V30 188 N 17.7372 -0.778329 1.37039 0
M  V30 189 C 18.9652 -1.56734 1.35063 0
M  V30 190 C 19.3802 -1.88686 -0.0655597 0
M  V30 191 O 18.7372 -1.5096 -1.02554 0
M  V30 192 C 18.7882 -2.88163 2.18276 0
M  V30 193 O 18.5092 -2.57583 3.54376 0
M  V30 194 C 20.0102 -3.82422 2.24206 0
M  V30 195 H 17.2302 -0.485778 0.462883 0
M  V30 196 H 19.7742 -0.965185 1.8029 0
M  V30 197 H 17.9292 -3.44818 1.76576 0
M  V30 198 H 18.3432 -3.41699 3.97922 0
M  V30 199 H 19.8172 -4.71667 2.86765 0
M  V30 200 H 20.2942 -4.21078 1.24861 0
M  V30 201 H 20.9002 -3.31697 2.6619 0
M  V30 202 N 19.2153 -1.21501 -1.00376 0
M  V30 203 C 20.1783 -0.976927 -2.07337 0
M  V30 204 C 21.1783 0.0525322 -1.60714 0
M  V30 205 O 22.3683 -0.184869 -1.73216 0
M  V30 206 C 19.5003 -0.473423 -3.37597 0
M  V30 207 H 20.6933 -1.92587 -2.29892 0
M  V30 208 H 18.2463 -1.03217 -1.17371 0
M  V30 209 H 18.9813 0.480379 -3.20722 0
M  V30 210 H 18.7663 -1.216 -3.72768 0
M  V30 211 H 20.2563 -0.32675 -4.1632 0
M  V30 212 N 20.6934 1.19889 -1.02296 0
M  V30 213 C 21.6034 2.26571 -0.608508 0
M  V30 214 C 22.6194 1.70299 0.356964 0
M  V30 215 O 23.7954 2.00235 0.216326 0
M  V30 216 C 20.8604 3.46677 0.0402814 0
M  V30 217 C 19.9214 4.18153 -0.97194 0
M  V30 218 C 19.1544 5.32525 -0.354016 0
M  V30 219 O 19.3774 5.64112 0.844604 0
M  V30 220 O 18.3114 5.92242 -1.07391 0
M  V30 221 H 22.1374 2.64251 -1.49684 0
M  V30 222 H 19.7224 1.26629 -0.792809 0
M  V30 223 H 21.6044 4.19475 0.402324 0
M  V30 224 H 20.2794 3.10858 0.902707 0
M  V30 225 H 19.1864 3.47499 -1.38546 0
M  V30 226 H 20.5194 4.57927 -1.80454 0
M  V30 227 N 22.1715 0.800033 1.35784 0
M  V30 228 C 23.1035 0.163596 2.28615 0
M  V30 229 C 24.1165 -0.633317 1.49976 0
M  V30 230 O 25.3055 -0.466754 1.72289 0
M  V30 231 C 22.4055 -0.790958 3.29541 0
M  V30 232 C 21.5785 -0.0418255 4.3738 0
M  V30 233 C 20.6375 -0.91389 5.18203 0
M  V30 234 O 19.6635 -0.367234 5.68014 0
M  V30 235 N 20.8655 -2.23682 5.35674 0
M  V30 236 H 23.6305 0.96105 2.83873 0
M  V30 237 H 21.1915 0.654894 1.48063 0
M  V30 238 H 23.1835 -1.37844 3.80501 0
M  V30 239 H 21.7535 -1.48925 2.74846 0
M  V30 240 H 20.9735 0.726813 3.87442 0
M  V30 241 H 22.2615 0.474719 5.06581 0
M  V30 242 H 21.6595 -2.70497 4.96838 0
M  V30 243 H 20.2165 -2.77369 5.89839 0
M  V30 244 N 23.6496 -1.47581 0.552962 0
M  V30 245 C 24.5816 -2.27997 -0.234533 0
M  V30 246 C 25.5946 -1.36753 -0.883321 0
M  V30 247 O 26.7836 -1.61612 -0.757889 0
M  V30 248 C 23.8836 -3.10879 -1.34935 0
M  V30 249 C 23.0566 -4.30056 -0.798158 0
M  V30 250 C 22.1156 -4.94567 -1.79694 0
M  V30 251 O 21.1416 -5.53087 -1.34474 0
M  V30 252 N 22.3436 -4.88878 -3.13015 0
M  V30 253 H 25.1086 -2.96222 0.455255 0
M  V30 254 H 22.6696 -1.57163 0.388761 0
M  V30 255 H 24.6616 -3.50903 -2.01616 0
M  V30 256 H 23.2316 -2.44924 -1.94244 0
M  V30 257 H 22.4516 -3.94174 0.0453079 0
M  V30 258 H 23.7396 -5.07152 -0.409173 0
M  V30 259 H 23.1376 -4.42526 -3.52402 0
M  V30 260 H 21.6946 -5.32934 -3.75266 0
M  V30 261 N 25.1277 -0.289203 -1.54924 0
M  V30 262 C 26.5437 0.0645403 -1.59469 0
M  V30 263 C 26.7437 1.53419 -1.30632 0
M  V30 264 O 25.7997 2.2852 -1.074 0
M  V30 265 C 27.1127 -0.32278 -2.98963 0
M  V30 266 C 28.6607 -0.270564 -3.11828 0
M  V30 267 C 29.1357 -0.632532 -4.53611 0
M  V30 268 N 30.6267 -0.584617 -4.59496 0
M  V30 269 C 31.3617 -0.837314 -5.67254 0
M  V30 270 N 30.8577 -1.15536 -6.83098 0
M  V30 271 N 32.6507 -0.765166 -5.56868 0
M  V30 272 H 24.8017 -1.24714 -1.71931 0
M  V30 273 H 27.0647 -0.504809 -0.802416 0
M  V30 274 H 26.7707 -1.34541 -3.24948 0
M  V30 275 H 26.6447 0.32944 -3.75759 0
M  V30 276 H 29.0317 0.742805 -2.85598 0
M  V30 277 H 29.1127 -0.957242 -2.37214 0
M  V30 278 H 28.7567 -1.64365 -4.80569 0
M  V30 279 H 28.6867 0.07609 -5.26545 0
M  V30 280 H 31.1777 -0.349248 -3.76283 0
M  V30 281 H 31.4907 -1.33447 -7.61191 0
M  V30 282 H 29.8357 -1.19328 -6.84679 0
M  V30 283 H 33.0267 -0.516432 -4.65243 0
M  V30 284 H 33.1997 -0.965477 -6.40767 0
M  V30 285 N 26.6058 1.57591 -0.0167156 0
M  V30 286 C 27.5378 2.06343 0.997753 0
M  V30 287 C 28.5508 0.984469 1.29661 0
M  V30 288 O 29.7398 1.26093 1.26344 0
M  V30 289 C 26.8398 2.46255 2.32834 0
M  V30 290 C 26.0128 3.77083 2.21646 0
M  V30 291 C 25.0718 4.0368 3.37534 0
M  V30 292 O 24.0978 4.7411 3.14973 0
M  V30 293 N 25.2998 3.52881 4.60929 0
M  V30 294 H 28.0648 2.93997 0.581875 0
M  V30 295 H 25.6258 1.61002 0.170316 0
M  V30 296 H 27.6178 2.61149 3.09166 0
M  V30 297 H 26.1878 1.64032 2.66106 0
M  V30 298 H 25.4078 3.72106 1.30119 0
M  V30 299 H 26.6958 4.62822 2.11361 0
M  V30 300 H 26.0938 2.95878 4.82154 0
M  V30 301 H 24.6508 3.73076 5.34469 0
M  V30 302 N 28.0839 -0.256276 1.55502 0
M  V30 303 C 29.0139 -1.32102 1.92539 0
M  V30 304 C 29.9949 -1.50684 0.789194 0
M  V30 305 O 31.1799 -1.63449 1.04872 0
M  V30 306 C 28.3099 -2.67752 2.21192 0
M  V30 307 C 27.2639 -2.63878 3.36975 0
M  V30 308 C 26.5899 -4.03236 3.51147 0
M  V30 309 C 27.8899 -2.21682 4.72921 0
M  V30 310 H 29.5839 -1.01351 2.81724 0
M  V30 311 H 27.1299 -0.486105 1.35547 0
M  V30 312 H 29.0829 -3.42365 2.45691 0
M  V30 313 H 27.8069 -3.0012 1.28824 0
M  V30 314 H 26.4659 -1.91722 3.12471 0
M  V30 315 H 26.1139 -4.32854 2.56216 0
M  V30 316 H 25.8139 -4.01535 4.29003 0
M  V30 317 H 27.3379 -4.79563 3.77957 0
M  V30 318 H 28.7519 -2.86023 4.96854 0
M  V30 319 H 27.1489 -2.3111 5.53812 0
M  V30 320 H 28.2189 -1.16833 4.70615 0
M  V30 321 N 29.562 -1.4872 -0.521534 0
M  V30 322 C 30.492 -1.66771 -1.63431 0
M  V30 323 C 31.473 -0.516499 -1.62069 0
M  V30 324 O 32.658 -0.750013 -1.79132 0
M  V30 325 C 29.788 -1.71515 -3.01993 0
M  V30 326 C 28.742 -2.86222 -3.18216 0
M  V30 327 C 28.068 -2.76061 -4.57924 0
M  V30 328 C 29.368 -4.27419 -3.00184 0
M  V30 329 H 31.062 -2.59932 -1.48579 0
M  V30 330 H 28.608 -1.25089 -0.713358 0
M  V30 331 H 30.561 -1.82731 -3.7972 0
M  V30 332 H 29.285 -0.749393 -3.17886 0
M  V30 333 H 27.944 -2.74575 -2.42908 0
M  V30 334 H 27.592 -1.77437 -4.70665 0
M  V30 335 H 27.292 -3.53037 -4.69722 0
M  V30 336 H 28.816 -2.89256 -5.37739 0
M  V30 337 H 30.23 -4.39855 -3.67697 0
M  V30 338 H 28.627 -5.05458 -3.2347 0
M  V30 339 H 29.697 -4.43293 -1.96518 0
M  V30 340 N 31.0401 0.771051 -1.3745 0
M  V30 341 C 31.9731 1.89166 -1.27638 0
M  V30 342 C 32.9511 1.61842 -0.156782 0
M  V30 343 O 34.1351 1.85569 -0.331111 0
M  V30 344 C 31.2621 3.24405 -0.973621 0
M  V30 345 C 30.3081 3.70638 -2.1102 0
M  V30 346 S 31.1411 3.84228 -3.73 0
M  V30 347 C 32.2971 5.22313 -3.44876 0
M  V30 348 H 32.5301 1.972 -2.22485 0
M  V30 349 H 30.0631 0.932224 -1.23081 0
M  V30 350 H 32.0211 4.02514 -0.805766 0
M  V30 351 H 30.6821 3.14071 -0.0426279 0
M  V30 352 H 29.8751 4.68685 -1.85338 0
M  V30 353 H 29.4771 2.99632 -2.23822 0
M  V30 354 H 31.7691 6.07505 -2.99908 0
M  V30 355 H 32.7121 5.53008 -4.42253 0
M  V30 356 H 33.1201 4.90284 -2.79789 0
M  V30 357 N 32.5182 1.22032 0.997298 0
M  V30 358 C 33.9342 0.979326 1.26021 0
M  V30 359 C 34.1342 -0.32972 1.98784 0
M  V30 360 O 33.1902 -1.05345 2.29475 0
M  V30 361 C 34.5032 2.17509 2.07631 0
M  V30 362 C 36.0512 2.21817 2.2083 0
M  V30 363 C 36.5262 3.40933 3.05825 0
M  V30 364 N 38.0172 3.41067 3.13412 0
M  V30 365 C 38.7522 4.29885 3.79455 0
M  V30 366 N 38.2482 5.28914 4.47462 0
M  V30 367 N 40.0412 4.17673 3.76173 0
M  V30 368 H 32.1922 2.06202 0.509352 0
M  V30 369 H 34.4552 0.90334 0.287541 0
M  V30 370 H 34.1612 3.12415 1.61524 0
M  V30 371 H 34.0352 2.17206 3.08385 0
M  V30 372 H 36.4222 1.27462 2.66153 0
M  V30 373 H 36.5032 2.2616 1.1952 0
M  V30 374 H 36.1472 4.35586 2.61203 0
M  V30 375 H 36.0772 3.33829 4.07266 0
M  V30 376 H 38.5682 2.69406 2.65007 0
M  V30 377 H 38.8812 5.92973 4.95583 0
M  V30 378 H 37.2262 5.32831 4.46224 0
M  V30 379 H 40.4172 3.39564 3.22202 0
M  V30 380 H 40.5902 4.87098 4.27363 0
M  V30 381 N 33.9963 -1.19345 1.0293 0
M  V30 382 C 35.4073 -1.70725 0.755633 0
M  V30 383 C 35.7583 -1.82326 -0.724676 0
M  V30 384 O 34.8833 -1.49471 -1.56484 0
M  V30 385 C 35.4783 -3.10084 1.36503 0
M  V30 386 C 34.0373 -3.58723 1.13994 0
M  V30 387 C 33.1843 -2.35577 1.46283 0
M  V30 388 H 36.1353 -1.0418 1.19718 0
M  V30 389 H 36.1563 -3.72787 0.762217 0
M  V30 390 H 35.6683 -3.01609 2.44241 0
M  V30 391 H 33.7693 -3.72512 0.0807901 0
M  V30 392 H 33.8823 -4.42816 1.82894 0
M  V30 393 H 32.2463 -2.38935 0.88217 0
M  V30 394 H 33.0293 -2.29731 2.55105 0
M  V30 395 N 35.4744 -0.807222 -1.35358 0
M  V30 396 C 36.4374 -0.223665 -2.28106 0
M  V30 397 C 37.4374 0.589354 -1.4961 0
M  V30 398 O 38.6274 0.407745 -1.69361 0
M  V30 399 C 35.7594 0.688149 -3.33882 0
M  V30 400 H 36.9524 -1.04169 -2.81227 0
M  V30 401 H 34.5054 -0.577921 -1.45223 0
M  V30 402 H 35.2404 1.52984 -2.85948 0
M  V30 403 H 35.0254 0.10687 -3.91954 0
M  V30 404 H 36.5154 1.09075 -4.03104 0
M  V30 405 N 36.9525 1.47285 -0.560781 0
M  V30 406 C 38.2015 2.01668 -0.035895 0
M  V30 407 C 38.5145 1.44021 1.32353 0
M  V30 408 O 39.7205 1.90088 1.93853 0
M  V30 409 C 38.1765 3.59897 -0.0136659 0
M  V30 410 C 37.7845 4.26536 -1.37006 0
M  V30 411 C 39.5285 4.22017 0.458425 0
M  V30 412 C 37.4355 5.76782 -1.30675 0
M  V30 413 H 36.3655 0.753938 -0.00964879 0
M  V30 414 H 39.0165 1.69243 -0.709166 0
M  V30 415 H 37.3985 3.89301 0.725325 0
M  V30 416 H 38.5725 4.0877 -2.12705 0
M  V30 417 H 36.8875 3.76419 -1.78038 0
M  V30 418 H 39.4845 5.32124 0.524247 0
M  V30 419 H 39.8275 3.89437 1.4712 0
M  V30 420 H 40.3605 3.97159 -0.225818 0
M  V30 421 H 37.0995 6.13988 -2.29564 0
M  V30 422 H 36.6195 5.96875 -0.591622 0
M  V30 423 H 38.2985 6.39063 -1.01033 0
M  V30 424 N 38.4306 0.297415 1.54768 0
M  V30 425 C 39.6556 -0.318435 2.04941 0
M  V30 426 C 40.0806 -1.4701 1.17345 0
M  V30 427 O 39.4386 -1.80436 0.176758 0
M  V30 428 C 39.4866 -0.755749 3.52592 0
M  V30 429 O 38.5906 -1.86088 3.68028 0
M  V30 430 H 37.9316 -0.062421 0.661059 0
M  V30 431 H 40.4616 0.438215 1.99852 0
M  V30 432 H 40.4716 -1.04552 3.94376 0
M  V30 433 H 39.1466 0.0867233 4.1581 0
M  V30 434 H 37.7236 -1.57193 3.38149 0
M  V30 435 N 39.9087 -1.5758 0.0250728 0
M  V30 436 C 40.8717 -2.08896 -0.943139 0
M  V30 437 C 41.8717 -1.00321 -1.25668 0
M  V30 438 O 43.0617 -1.26495 -1.19769 0
M  V30 439 C 40.1937 -2.55143 -2.26086 0
M  V30 440 H 41.3867 -2.95723 -0.498775 0
M  V30 441 H 38.9397 -1.54703 -0.222888 0
M  V30 442 H 39.6747 -1.71633 -2.75159 0
M  V30 443 H 39.4597 -3.34461 -2.04641 0
M  V30 444 H 40.9497 -2.95083 -2.95492 0
M  V30 445 N 41.3868 0.248026 -1.55636 0
M  V30 446 C 42.6118 0.998028 -1.81808 0
M  V30 447 C 43.0368 1.78207 -0.601979 0
M  V30 448 O 42.3948 1.75653 0.448961 0
M  V30 449 C 42.4428 1.9125 -3.05705 0
M  V30 450 O 41.5468 3.00406 -2.82542 0
M  V30 451 H 40.8878 0.284045 -0.600179 0
M  V30 452 H 43.4178 0.269357 -2.02819 0
M  V30 453 H 43.4278 2.32737 -3.35108 0
M  V30 454 H 42.1028 1.33602 -3.93857 0
M  V30 455 H 40.6798 2.63056 -2.64303 0
M  V30 456 N 42.8649 1.48995 0.513639 0
M  V30 457 C 43.7749 1.67443 1.64317 0
M  V30 458 C 44.7909 0.556947 1.64846 0
M  V30 459 O 45.9669 0.830082 1.83498 0
M  V30 460 C 43.0319 1.72515 3.00732 0
M  V30 461 C 42.0929 2.96009 3.1093 0
M  V30 462 C 41.3259 3.00829 4.40837 0
M  V30 463 O 41.5489 2.13594 5.28898 0
M  V30 464 O 40.4829 3.93168 4.55744 0
M  V30 465 H 44.3089 2.63106 1.51687 0
M  V30 466 H 41.8939 1.32588 0.688543 0
M  V30 467 H 43.7759 1.78277 3.81831 0
M  V30 468 H 42.4509 0.800278 3.13651 0
M  V30 469 H 41.3579 2.9577 2.29065 0
M  V30 470 H 42.6909 3.87934 3.02933 0
M  V30 471 N 44.343 -0.763751 1.37857 0
M  V30 472 C 45.568 -1.55805 1.36893 0
M  V30 473 C 45.993 -1.88054 -0.0416135 0
M  V30 474 O 45.351 -1.49825 -1.02089 0
M  V30 475 C 45.399 -2.84012 2.22192 0
M  V30 476 O 44.503 -3.78732 1.63204 0
M  V30 477 H 43.844 -0.471638 0.46739 0
M  V30 478 H 46.374 -0.944657 1.81487 0
M  V30 479 H 46.384 -3.33037 2.35691 0
M  V30 480 H 45.059 -2.59869 3.24716 0
M  V30 481 H 43.636 -3.37402 1.58791 0
M  V30 482 N 45.8211 -1.22559 -0.990812 0
M  V30 483 C 47.0701 -1.04553 -1.72486 0
M  V30 484 C 47.3831 0.419349 -1.91052 0
M  V30 485 O 48.5891 0.719121 -2.61803 0
M  V30 486 C 47.0451 -1.82231 -3.10355 0
M  V30 487 C 46.6531 -3.32981 -2.99713 0
M  V30 488 C 48.3971 -1.7268 -3.87791 0
M  V30 489 C 46.3041 -4.03091 -4.32748 0
M  V30 490 H 45.2341 -0.387614 -0.646739 0
M  V30 491 H 47.8851 -1.46429 -1.10593 0
M  V30 492 H 46.2671 -1.33155 -3.72942 0
M  V30 493 H 47.4411 -3.89466 -2.46278 0
M  V30 494 H 45.7561 -3.43231 -2.35758 0
M  V30 495 H 48.3531 -2.22381 -4.86262 0
M  V30 496 H 48.6961 -0.687607 -4.10582 0
M  V30 497 H 49.2291 -2.1931 -3.31885 0
M  V30 498 H 45.9681 -5.07273 -4.15156 0
M  V30 499 H 45.4881 -3.51394 -4.86089 0
M  V30 500 H 47.1671 -4.08804 -5.01486 0
M  V30 501 N 47.2992 1.18797 -1.03562 0
M  V30 502 C 48.5272 1.92599 -0.755869 0
M  V30 503 C 48.9422 1.75886 0.686271 0
M  V30 504 O 48.2992 1.08517 1.46732 0
M  V30 505 C 48.3502 3.44159 -1.10619 0
M  V30 506 O 48.0712 3.60341 -2.4917 0
M  V30 507 C 49.5722 4.3507 -0.850214 0
M  V30 508 H 46.7922 0.611587 -0.276048 0
M  V30 509 H 49.3362 1.50742 -1.38192 0
M  V30 510 H 47.4912 3.83823 -0.525194 0
M  V30 511 H 47.9052 4.54128 -2.62427 0
M  V30 512 H 49.3792 5.39989 -1.14523 0
M  V30 513 H 49.8562 4.38673 0.215176 0
M  V30 514 H 50.4622 4.01097 -1.41426 0
M  V30 515 N 48.7773 0.814389 1.34928 0
M  V30 516 C 50.1933 0.499084 1.51596 0
M  V30 517 C 50.3933 -0.978319 1.76157 0
M  V30 518 O 49.4493 -1.76309 1.80752 0
M  V30 519 C 50.7623 1.35121 2.68631 0
M  V30 520 C 52.3103 1.34746 2.82511 0
M  V30 521 C 52.7853 2.18388 4.0258 0
M  V30 522 N 54.2763 2.15966 4.09772 0
M  V30 523 C 55.0113 2.77437 5.01813 0
M  V30 524 N 54.5073 3.47866 5.99134 0
M  V30 525 N 56.3003 2.67037 4.94619 0
M  V30 526 H 48.4513 1.7711 1.17243 0
M  V30 527 H 50.7143 0.754256 0.574284 0
M  V30 528 H 50.4203 2.40001 2.57085 0
M  V30 529 H 50.2943 1.00991 3.63429 0
M  V30 530 H 52.6813 0.30648 2.93504 0
M  V30 531 H 52.7623 1.72869 1.88547 0
M  V30 532 H 52.4063 3.2253 3.92347 0
M  V30 533 H 52.3363 1.77621 4.9574 0
M  V30 534 H 54.8273 1.64729 3.40107 0
M  V30 535 H 55.1403 3.92038 6.65977 0
M  V30 536 H 53.4853 3.51972 5.99284 0
M  V30 537 H 56.6763 2.11597 4.17546 0
M  V30 538 H 56.8493 3.15232 5.66156 0
M  V30 539 N 50.2554 -1.46986 0.568584 0
M  V30 540 C 51.4834 -2.0683 0.0539956 0
M  V30 541 C 51.8984 -1.41953 -1.24478 0
M  V30 542 O 51.2554 -0.519933 -1.74937 0
M  V30 543 C 51.3064 -3.61254 -0.133362 0
M  V30 544 O 51.0274 -4.237 1.11399 0
M  V30 545 C 52.5284 -4.37992 -0.683927 0
M  V30 546 H 49.7484 -0.669058 0.0510141 0
M  V30 547 H 52.2924 -1.88824 0.785234 0
M  V30 548 H 50.4474 -3.78735 -0.81477 0
M  V30 549 H 50.8614 -5.16388 0.91888 0
M  V30 550 H 52.3354 -5.46684 -0.764263 0
M  V30 551 H 52.8124 -4.05058 -1.69778 0
M  V30 552 H 53.4184 -4.25283 -0.0378494 0
M  V30 553 N 51.7335 -0.305618 -1.54608 0
M  V30 554 C 52.9795 0.302746 -2.00528 0
M  V30 555 C 53.3125 1.53184 -1.19367 0
M  V30 556 O 52.5875 1.92598 -0.271321 0
M  V30 557 C 52.8705 0.654756 -3.54097 0
M  V30 558 C 52.7235 -0.583793 -4.45995 0
M  V30 559 C 54.0425 1.47947 -4.14487 0
M  V30 560 H 51.1615 0.108564 -0.72896 0
M  V30 561 H 53.8035 -0.418634 -1.85331 0
M  V30 562 H 51.9535 1.26935 -3.67178 0
M  V30 563 H 53.6255 -1.22224 -4.44814 0
M  V30 564 H 51.8685 -1.21615 -4.16404 0
M  V30 565 H 52.5395 -0.293287 -5.5122 0
M  V30 566 H 55.0155 0.96013 -4.04871 0
M  V30 567 H 53.8915 1.69454 -5.22088 0
M  V30 568 H 54.1525 2.47011 -3.66658 0
M  V30 569 N 53.2116 1.57565 -0.0334293 0
M  V30 570 C 54.1596 2.1164 0.96496 0
M  V30 571 C 55.1536 1.04398 1.33407 0
M  V30 572 O 56.3596 1.22828 1.3158 0
M  V30 573 H 52.7346 0.676222 0.32898 0
M  V30 574 H 54.7056 2.94455 0.483614 0
M  V30 575 C 53.4546 2.66207 2.23672 0
M  V30 576 H 52.7776 3.48378 1.96145 0
M  V30 577 H 54.2176 3.07685 2.9173 0
M  V30 578 C 52.6766 1.59151 2.96939 0
M  V30 579 O 53.2066 0.993858 3.89211 0
M  V30 580 N 51.4126 1.31093 2.59351 0
M  V30 581 H 50.9596 1.7988 1.84393 0
M  V30 582 H 50.9176 0.596889 3.08682 0
M  V30 583 N 54.6897 -0.239769 1.55765 0
M  V30 584 C 55.9667 -0.990056 1.68693 0
M  V30 585 C 56.3467 -2.03107 0.5754 0
M  V30 586 O 55.6947 -2.24604 -0.42017 0
M  V30 587 C 55.9047 -1.61696 3.09282 0
M  V30 588 C 57.2527 -2.11613 3.6811 0
M  V30 589 O 58.2767 -1.71624 3.12127 0
M  V30 590 O 57.1357 -2.85057 4.66267 0
M  V30 591 H 54.2297 -0.461299 0.686391 0
M  V30 592 H 56.7757 -0.232991 1.68093 0
M  V30 593 H 55.5477 -0.864357 3.81634 0
M  V30 594 H 55.1707 -2.44005 3.13923 0
M  V30 595 N 56.1678 -1.49265 -0.50573 0
M  V30 596 C 57.4168 -1.57761 -1.25675 0
M  V30 597 C 57.7298 -0.267371 -1.93764 0
M  V30 598 O 58.9358 -0.230827 -2.70517 0
M  V30 599 C 57.3918 -2.78332 -2.28165 0
M  V30 600 C 56.9998 -4.16096 -1.66037 0
M  V30 601 C 58.7438 -2.96155 -3.04125 0
M  V30 602 C 56.6508 -5.27895 -2.6661 0
M  V30 603 H 55.5808 -0.587391 -0.472745 0
M  V30 604 H 58.2318 -1.75644 -0.53118 0
M  V30 605 H 56.6138 -2.53934 -3.03865 0
M  V30 606 H 57.7878 -4.50612 -0.963622 0
M  V30 607 H 56.1028 -4.03591 -1.02484 0
M  V30 608 H 58.6998 -3.76849 -3.79327 0
M  V30 609 H 59.0428 -2.06534 -3.61455 0
M  V30 610 H 59.5758 -3.2057 -2.35541 0
M  V30 611 H 56.3148 -6.1956 -2.14068 0
M  V30 612 H 55.8348 -4.97839 -3.34539 0
M  V30 613 H 57.5138 -5.57031 -3.29129 0
M  V30 614 N 57.6459 0.756429 -1.3826 0
M  V30 615 C 58.5759 1.88374 -1.37976 0
M  V30 616 C 59.5569 1.68311 -0.246082 0
M  V30 617 O 60.7419 1.88944 -0.44874 0
M  V30 618 C 57.8719 3.25864 -1.20125 0
M  V30 619 C 56.8259 3.60523 -2.30666 0
M  V30 620 C 56.1519 4.9672 -1.97923 0
M  V30 621 C 57.4519 3.65692 -3.72916 0
M  V30 622 H 59.1459 1.88869 -2.32312 0
M  V30 623 H 56.6919 0.907272 -1.11824 0
M  V30 624 H 58.6449 4.0438 -1.18552 0
M  V30 625 H 57.3689 3.25841 -0.222498 0
M  V30 626 H 56.0279 2.84324 -2.3142 0
M  V30 627 H 55.6759 4.93253 -0.985393 0
M  V30 628 H 55.3759 5.20878 -2.71955 0
M  V30 629 H 56.8999 5.77618 -1.97964 0
M  V30 630 H 58.3139 4.34328 -3.74208 0
M  V30 631 H 56.7109 4.01358 -4.4613 0
M  V30 632 H 57.7809 2.65987 -4.05436 0
M  V30 633 N 59.124 1.23083 0.984299 0
M  V30 634 C 60.401 0.9689 1.69917 0
M  V30 635 C 60.781 -0.513604 2.04757 0
M  V30 636 O 60.129 -1.48383 1.73767 0
M  V30 637 C 60.339 1.87518 2.94343 0
M  V30 638 C 61.687 2.13636 3.6694 0
M  V30 639 O 62.711 1.85036 3.04368 0
M  V30 640 O 61.57 2.62119 4.79537 0
M  V30 641 H 58.664 0.365095 0.742048 0
M  V30 642 H 61.21 1.34107 1.03987 0
M  V30 643 H 59.982 2.87756 2.65164 0
M  V30 644 H 59.605 1.50514 3.6801 0
M  V30 645 N 60.6021 -1.18246 1.0419 0
M  V30 646 C 61.5501 -2.23968 0.627792 0
M  V30 647 C 62.5441 -1.65828 -0.346019 0
M  V30 648 O 63.7501 -1.78733 -0.213175 0
M  V30 649 H 60.1251 -0.728939 0.184802 0
M  V30 650 H 62.0961 -2.56202 1.52981 0
M  V30 651 C 60.8451 -3.47699 0.00796591 0
M  V30 652 H 60.1681 -3.92734 0.748347 0
M  V30 653 H 61.6081 -4.23294 -0.24455 0
M  V30 654 C 60.0671 -3.13153 -1.24246 0
M  V30 655 O 60.5971 -3.27003 -2.33307 0
M  V30 656 N 58.8031 -2.67467 -1.13622 0
M  V30 657 H 58.3501 -2.56396 -0.248734 0
M  V30 658 H 58.3081 -2.44724 -1.97377 0
M  V30 659 N 62.0802 -0.821533 -1.34494 0
M  V30 660 C 63.3262 -0.409552 -1.98622 0
M  V30 661 C 63.6592 1.0244 -1.64984 0
M  V30 662 O 62.9342 1.71325 -0.920758 0
M  V30 663 C 63.2172 -0.610458 -3.54888 0
M  V30 664 C 63.0702 -2.09043 -3.98273 0
M  V30 665 C 64.3892 -0.0455379 -4.40076 0
M  V30 666 H 61.5082 -0.15028 -0.721516 0
M  V30 667 H 64.1502 -1.03384 -1.59411 0
M  V30 668 H 62.3002 -0.079044 -3.8842 0
M  V30 669 H 63.9722 -2.68537 -3.75081 0
M  V30 670 H 62.2152 -2.58139 -3.48635 0
M  V30 671 H 62.8862 -2.18182 -5.07051 0
M  V30 672 H 65.3622 -0.499557 -4.1309 0
M  V30 673 H 64.2382 -0.215922 -5.48475 0
M  V30 674 H 64.4992 1.04939 -4.29465 0
M  V30 675 N 63.5583 1.46682 -0.576371 0
M  V30 676 C 64.5053 2.30241 0.160499 0
M  V30 677 C 65.4753 1.40233 0.890162 0
M  V30 678 O 66.6603 1.69186 0.882084 0
M  V30 679 C 63.8003 3.24578 1.1723 0
M  V30 680 C 62.9133 4.29684 0.446736 0
M  V30 681 C 62.0483 5.11154 1.44551 0
M  V30 682 C 61.0873 6.08015 0.70599 0
M  V30 683 N 60.2243 6.82376 1.65251 0
M  V30 684 H 65.0643 2.92727 -0.558127 0
M  V30 685 H 62.6013 1.44272 -0.287056 0
M  V30 686 H 64.5593 3.77711 1.77172 0
M  V30 687 H 63.1893 2.63916 1.85872 0
M  V30 688 H 62.2413 3.79458 -0.267594 0
M  V30 689 H 63.5533 4.98626 -0.131686 0
M  V30 690 H 62.7073 5.68533 2.11791 0
M  V30 691 H 61.4463 4.42158 2.05786 0
M  V30 692 H 60.4513 5.49796 0.0197725 0
M  V30 693 H 61.6763 6.79028 0.09912 0
M  V30 694 H 59.6223 6.16094 2.25308 0
M  V30 695 H 59.5393 7.47556 1.12673 0
M  V30 696 H 60.8073 7.44316 2.31546 0
M  V30 697 N 65.0364 0.313813 1.54444 0
M  V30 698 C 65.9994 -0.54379 2.22656 0
M  V30 699 C 66.9994 -1.05124 1.21678 0
M  V30 700 O 68.1894 -0.945225 1.46325 0
M  V30 701 C 65.3214 -1.75427 2.92298 0
M  V30 702 H 66.5144 0.0523599 2.99854 0
M  V30 703 H 64.0674 0.0647834 1.56166 0
M  V30 704 H 64.8024 -2.38991 2.19211 0
M  V30 705 H 64.5874 -1.39791 3.66334 0
M  V30 706 H 66.0774 -2.36325 3.44297 0
M  V30 707 N 66.5145 -1.57545 0.0417849 0
M  V30 708 C 67.9305 -1.56467 -0.314704 0
M  V30 709 C 68.1305 -1.04859 -1.72066 0
M  V30 710 O 67.1865 -0.700983 -2.42575 0
M  V30 711 C 68.4995 -3.00317 -0.15174 0
M  V30 712 C 70.0475 -3.12201 -0.223553 0
M  V30 713 C 70.5225 -4.57913 -0.0892295 0
M  V30 714 N 72.0135 -4.6297 -0.145808 0
M  V30 715 C 72.7485 -5.73362 -0.0658459 0
M  V30 716 N 72.2445 -6.92769 0.0659282 0
M  V30 717 N 74.0375 -5.6197 -0.12075 0
M  V30 718 H 66.1885 -1.89416 0.961014 0
M  V30 719 H 68.4515 -0.871862 0.372237 0
M  V30 720 H 68.1575 -3.42073 0.817254 0
M  V30 721 H 68.0315 -3.65892 -0.916692 0
M  V30 722 H 70.4185 -2.70349 -1.18301 0
M  V30 723 H 70.4995 -2.49323 0.571994 0
M  V30 724 H 70.1435 -5.00448 0.866867 0
M  V30 725 H 70.0735 -5.18786 -0.903802 0
M  V30 726 H 72.5645 -3.7709 -0.247286 0
M  V30 727 H 72.8775 -7.72707 0.119905 0
M  V30 728 H 71.2225 -6.94927 0.100885 0
M  V30 729 H 74.4135 -4.67572 -0.222187 0
M  V30 730 H 74.5865 -6.47977 -0.0549735 0
M  V30 731 N 67.9926 0.231505 -1.5589 0
M  V30 732 C 69.2406 0.955461 -1.78088 0
M  V30 733 C 69.5616 1.85262 -0.608533 0
M  V30 734 O 68.8316 1.92277 0.375035 0
M  V30 735 H 67.4116 0.355787 -0.656829 0
M  V30 736 H 70.0736 0.245751 -1.93344 0
M  V30 737 H 69.1696 1.56814 -2.69844 0
M  V30 738 N 69.4707 1.49531 0.497807 0
M  V30 739 C 70.7477 1.49682 1.25915 0
M  V30 740 C 71.1277 0.226339 2.09883 0
M  V30 741 O 70.4757 -0.791189 2.14365 0
M  V30 742 C 70.6857 2.77755 2.11313 0
M  V30 743 C 72.0337 3.27371 2.70395 0
M  V30 744 O 73.0577 2.78894 2.21578 0
M  V30 745 O 71.9167 4.11808 3.59272 0
M  V30 746 H 69.0107 0.599228 0.56996 0
M  V30 747 H 71.5567 1.61798 0.511816 0
M  V30 748 H 70.3287 3.61713 1.49264 0
M  V30 749 H 69.9517 2.68515 2.93233 0
M  V30 750 N 70.9488 -0.749086 1.3866 0
M  V30 751 C 71.8588 -1.89358 1.38494 0
M  V30 752 C 72.8748 -1.71708 0.281476 0
M  V30 753 O 74.0508 -1.94554 0.520643 0
M  V30 754 C 71.1158 -3.24782 1.21316 0
M  V30 755 C 70.1768 -3.54926 2.41508 0
M  V30 756 C 69.4098 -4.83888 2.2514 0
M  V30 757 O 69.6328 -5.56592 1.24746 0
M  V30 758 O 68.5668 -5.13612 3.13826 0
M  V30 759 H 72.3928 -1.92452 2.34938 0
M  V30 760 H 69.9778 -0.894981 1.19626 0
M  V30 761 H 71.8598 -4.05739 1.13814 0
M  V30 762 H 70.5348 -3.2249 0.279592 0
M  V30 763 H 69.4418 -2.74112 2.54585 0
M  V30 764 H 70.7748 -3.61983 3.3351 0
M  V30 765 N 72.4269 -1.23603 -0.977757 0
M  V30 766 C 73.3899 -1.02069 -2.05218 0
M  V30 767 C 74.3899 0.0184305 -1.60789 0
M  V30 768 O 75.5799 -0.221569 -1.72785 0
M  V30 769 C 72.7119 -0.544926 -3.36517 0
M  V30 770 H 73.9049 -1.9742 -2.25755 0
M  V30 771 H 71.4579 -1.05684 -1.15155 0
M  V30 772 H 72.1929 0.412241 -3.21669 0
M  V30 773 H 71.9779 -1.2948 -3.70105 0
M  V30 774 H 73.4679 -0.414985 -4.15533 0
M  V30 775 N 73.905 1.17692 -1.04816 0
M  V30 776 C 74.835 2.23777 -0.666791 0
M  V30 777 C 75.816 1.66796 0.33361 0
M  V30 778 O 77.001 1.93039 0.212042 0
M  V30 779 C 74.131 3.47281 -0.0367933 0
M  V30 780 C 73.085 4.17059 -0.961546 0
M  V30 781 C 72.411 5.34342 -0.195626 0
M  V30 782 C 73.711 4.69713 -2.28402 0
M  V30 783 H 75.405 2.55933 -1.55367 0
M  V30 784 H 72.951 1.23019 -0.748484 0
M  V30 785 H 74.904 4.20706 0.241775 0
M  V30 786 H 73.628 3.14381 0.885004 0
M  V30 787 H 72.287 3.45541 -1.22462 0
M  V30 788 H 71.935 4.97692 0.728816 0
M  V30 789 H 71.635 5.81966 -0.811775 0
M  V30 790 H 73.159 6.10553 0.0757473 0
M  V30 791 H 74.573 5.34794 -2.06563 0
M  V30 792 H 72.97 5.279 -2.8538 0
M  V30 793 H 74.04 3.86726 -2.92525 0
M  V30 794 N 75.3831 0.828654 1.34056 0
M  V30 795 C 76.7991 0.515135 1.51058 0
M  V30 796 C 76.9991 -0.959581 1.77184 0
M  V30 797 O 76.0551 -1.74382 1.82612 0
M  V30 798 C 77.3681 1.37963 2.67183 0
M  V30 799 C 78.9161 1.37735 2.81066 0
M  V30 800 C 79.3911 2.22645 4.00241 0
M  V30 801 N 80.8821 2.203 4.07458 0
M  V30 802 C 81.6171 2.82744 4.98842 0
M  V30 803 N 81.1131 3.54201 5.9541 0
M  V30 804 N 82.9061 2.72268 4.91759 0
M  V30 805 H 75.0571 1.78343 1.15358 0
M  V30 806 H 77.3201 0.760304 0.566252 0
M  V30 807 H 77.0261 2.42714 2.54525 0
M  V30 808 H 76.9001 1.0484 3.62338 0
M  V30 809 H 79.2871 0.337593 2.93163 0
M  V30 810 H 79.3681 1.74859 1.86703 0
M  V30 811 H 79.0121 3.26674 3.88905 0
M  V30 812 H 78.9421 1.82869 4.93829 0
M  V30 813 H 81.4331 1.68327 3.38341 0
M  V30 814 H 81.7461 3.9908 6.61782 0
M  V30 815 H 80.0911 3.58308 5.95517 0
M  V30 816 H 83.2821 2.16014 4.15278 0
M  V30 817 H 83.4551 3.21219 5.62781 0
M  V30 818 N 76.8612 -1.46375 0.584142 0
M  V30 819 C 77.7712 -2.34115 -0.150728 0
M  V30 820 C 78.7872 -1.49838 -0.884567 0
M  V30 821 O 79.9632 -1.82704 -0.847429 0
M  V30 822 C 77.0282 -3.2705 -1.15062 0
M  V30 823 C 76.0892 -4.27228 -0.421293 0
M  V30 824 C 75.3222 -5.15722 -1.37355 0
M  V30 825 O 75.5452 -5.07176 -2.61014 0
M  V30 826 O 74.4792 -5.95383 -0.883355 0
M  V30 827 H 78.3052 -2.98309 0.569708 0
M  V30 828 H 75.8902 -1.45373 0.344535 0
M  V30 829 H 77.7722 -3.84381 -1.72712 0
M  V30 830 H 76.4472 -2.65451 -1.8525 0
M  V30 831 H 75.3542 -3.7358 0.197085 0
M  V30 832 H 76.6872 -4.91616 0.239641 0
M  V30 833 N 78.3393 -0.321999 -1.54275 0
M  V30 834 C 79.5693 0.282642 -2.04658 0
M  V30 835 C 79.9773 1.46453 -1.19784 0
M  V30 836 O 79.3203 1.82367 -0.220932 0
M  V30 837 C 79.3823 0.781857 -3.50895 0
M  V30 838 C 79.0463 -0.277517 -4.56157 0
M  V30 839 C 80.0433 -1.11307 -5.07845 0
M  V30 840 C 77.7283 -0.425256 -5.00497 0
M  V30 841 C 79.7223 -2.08211 -6.02434 0
M  V30 842 C 77.4093 -1.39771 -5.94901 0
M  V30 843 C 78.4073 -2.2246 -6.45756 0
M  V30 844 O 78.0953 -3.18054 -7.38307 0
M  V30 845 H 77.8273 0.0622636 -0.673126 0
M  V30 846 H 80.3813 -0.465792 -2.00049 0
M  V30 847 H 78.6113 1.58118 -3.52896 0
M  V30 848 H 80.3003 1.30467 -3.84361 0
M  V30 849 H 81.0663 -1.00991 -4.74369 0
M  V30 850 H 76.9453 0.20847 -4.60528 0
M  V30 851 H 80.4893 -2.72791 -6.42052 0
M  V30 852 H 76.3863 -1.50152 -6.27794 0
M  V30 853 H 77.1543 -3.13275 -7.56175 0
M  V30 854 N 79.8174 1.5752 -0.0501392 0
M  V30 855 C 81.0424 1.97376 0.636997 0
M  V30 856 C 81.4674 0.927466 1.63645 0
M  V30 857 O 80.8254 -0.10941 1.8097 0
M  V30 858 C 80.8734 3.36304 1.30123 0
M  V30 859 O 79.9774 3.34156 2.41689 0
M  V30 860 H 79.3184 0.642998 0.165679 0
M  V30 861 H 81.8484 2.04258 -0.118233 0
M  V30 862 H 81.8584 3.73008 1.65315 0
M  V30 863 H 80.5334 4.11993 0.568746 0
M  V30 864 H 79.1104 3.09196 2.08451 0
M  V30 865 N 81.2955 -0.223234 1.56011 0
M  V30 866 C 82.2585 -1.26014 1.9145 0
M  V30 867 C 83.2585 -1.3989 0.792937 0
M  V30 868 O 84.4485 -1.38184 1.0607 0
M  V30 869 C 81.5805 -2.63422 2.16383 0
M  V30 870 H 82.7735 -0.95796 2.84189 0
M  V30 871 H 80.3265 -0.463576 1.49267 0
M  V30 872 H 81.0615 -2.98741 1.2619 0
M  V30 873 H 80.8465 -2.54728 2.98088 0
M  V30 874 H 82.3365 -3.38249 2.44903 0
M  V30 875 N 82.7736 -1.49793 -0.48987 0
M  V30 876 C 83.7206 -1.67281 -1.59014 0
M  V30 877 C 84.6906 -0.514177 -1.57941 0
M  V30 878 O 85.8756 -0.742533 -1.75759 0
M  V30 879 C 83.0156 -1.75569 -2.97102 0
M  V30 880 C 82.1286 -3.0281 -3.08107 0
M  V30 881 C 81.2636 -3.02008 -4.36995 0
M  V30 882 C 80.3026 -4.23782 -4.41673 0
M  V30 883 N 79.4396 -4.20826 -5.62005 0
M  V30 884 H 84.2796 -2.61224 -1.43409 0
M  V30 885 H 81.8166 -1.29508 -0.697565 0
M  V30 886 H 83.7746 -1.78354 -3.77155 0
M  V30 887 H 82.4046 -0.850827 -3.11385 0
M  V30 888 H 81.4566 -3.09584 -2.21047 0
M  V30 889 H 82.7686 -3.92801 -3.07423 0
M  V30 890 H 81.9226 -3.03418 -5.25378 0
M  V30 891 H 80.6616 -2.09815 -4.4026 0
M  V30 892 H 79.6666 -4.22604 -3.5169 0
M  V30 893 H 80.8916 -5.17181 -4.40115 0
M  V30 894 H 78.8376 -3.31476 -5.66091 0
M  V30 895 H 78.7546 -5.04564 -5.62984 0
M  V30 896 H 80.0226 -4.26355 -6.52565 0
M  V30 897 N 84.2517 0.741722 -1.39055 0
M  V30 898 C 85.4987 1.50114 -1.35912 0
M  V30 899 C 85.8267 1.94443 0.0470937 0
M  V30 900 O 85.0817 1.66612 1.02659 0
M  V30 901 C 85.3807 2.7592 -2.27163 0
M  V30 902 C 85.0467 2.50493 -3.74919 0
M  V30 903 C 83.7087 2.43267 -4.1518 0
M  V30 904 C 86.0607 2.28585 -4.684 0
M  V30 905 C 83.3887 2.12166 -5.46994 0
M  V30 906 C 85.7407 1.99002 -6.00484 0
M  V30 907 C 84.4047 1.90241 -6.39816 0
M  V30 908 H 83.6747 0.549306 -0.497336 0
M  V30 909 H 86.3217 0.851896 -1.71508 0
M  V30 910 H 84.6267 3.45553 -1.84663 0
M  V30 911 H 86.3237 3.33923 -2.22028 0
M  V30 912 H 82.9137 2.56992 -3.43006 0
M  V30 913 H 87.0977 2.33139 -4.38132 0
M  V30 914 H 82.3537 2.03901 -5.76398 0
M  V30 915 H 86.5277 1.81057 -6.72452 0
M  V30 916 H 84.1547 1.65907 -7.41875 0
M  V30 917 N 85.7298 1.2412 0.971189 0
M  V30 918 C 87.0068 0.986867 1.6888 0
M  V30 919 C 87.3868 -0.491857 2.0529 0
M  V30 920 O 86.7348 -1.46531 1.75331 0
M  V30 921 C 86.9448 1.9063 2.92338 0
M  V30 922 C 88.2928 2.17515 3.64654 0
M  V30 923 O 89.3168 1.88254 3.02388 0
M  V30 924 O 88.1758 2.6719 4.7673 0
M  V30 925 H 85.2698 0.372944 0.738134 0
M  V30 926 H 87.8158 1.35203 1.02559 0
M  V30 927 H 86.5878 2.90552 2.62097 0
M  V30 928 H 86.2108 1.54408 3.66393 0
M  V30 929 N 87.2079 -1.17134 1.05439 0
M  V30 930 C 88.1549 -2.21235 0.657539 0
M  V30 931 C 89.1249 -1.62551 -0.341543 0
M  V30 932 O 90.3099 -1.89379 -0.232393 0
M  V30 933 C 87.4499 -3.45076 0.0410575 0
M  V30 934 C 86.5629 -4.18042 1.08927 0
M  V30 935 C 85.6979 -5.29376 0.439848 0
M  V30 936 C 84.7369 -5.94132 1.4722 0
M  V30 937 N 83.8739 -6.96975 0.846756 0
M  V30 938 H 88.7139 -2.54534 1.54972 0
M  V30 939 H 86.2509 -1.25028 0.775006 0
M  V30 940 H 88.2089 -4.15862 -0.33383 0
M  V30 941 H 86.8389 -3.12353 -0.814568 0
M  V30 942 H 85.8909 -3.45945 1.58196 0
M  V30 943 H 87.2029 -4.62306 1.87282 0
M  V30 944 H 86.3569 -6.06699 0.0115125 0
M  V30 945 H 85.0959 -4.86251 -0.375656 0
M  V30 946 H 84.1009 -5.15538 1.91052 0
M  V30 947 H 85.3259 -6.39337 2.28965 0
M  V30 948 H 83.2719 -6.5598 0.0518075 0
M  V30 949 H 83.1889 -7.39565 1.5678 0
M  V30 950 H 84.4569 -7.78239 0.443277 0
M  V30 951 N 88.686 -0.835752 -1.33615 0
M  V30 952 C 89.914 -0.443344 -2.02094 0
M  V30 953 C 90.329 0.954522 -1.62894 0
M  V30 954 O 89.686 1.61982 -0.840723 0
M  V30 955 C 89.737 -0.550775 -3.5728 0
M  V30 956 O 89.458 -1.89356 -3.95065 0
M  V30 957 C 90.959 -0.154919 -4.43029 0
M  V30 958 H 88.179 -0.176359 -0.647409 0
M  V30 959 H 90.723 -1.12746 -1.70612 0
M  V30 960 H 88.878 0.0853997 -3.87306 0
M  V30 961 H 89.292 -1.87687 -4.89769 0
M  V30 962 H 90.766 -0.281144 -5.51284 0
M  V30 963 H 91.243 0.902863 -4.2982 0
M  V30 964 H 91.849 -0.765404 -4.18356 0
M  V30 965 N 90.1641 1.46063 -0.591896 0
M  V30 966 C 91.3921 2.06717 -0.0868936 0
M  V30 967 C 91.8071 1.43916 1.22203 0
M  V30 968 O 91.1641 0.547698 1.74088 0
M  V30 969 C 91.2151 3.6142 0.0758725 0
M  V30 970 O 90.9361 4.21874 -1.18126 0
M  V30 971 C 92.4371 4.39025 0.61416 0
M  V30 972 H 89.6571 0.668162 -0.0616518 0
M  V30 973 H 92.2011 1.8755 -0.815175 0
M  V30 974 H 90.3561 3.79983 0.754413 0
M  V30 975 H 90.7701 5.14861 -1.00092 0
M  V30 976 H 92.2441 5.4783 0.677193 0
M  V30 977 H 92.7211 4.07708 1.63312 0
M  V30 978 H 93.3271 4.2529 -0.0298142 0
M  V30 979 N 91.6422 0.330177 1.54103 0
M  V30 980 C 92.8882 -0.270806 2.00984 0
M  V30 981 C 93.2212 -1.51265 1.21789 0
M  V30 982 O 92.4962 -1.92142 0.301927 0
M  V30 983 C 92.7792 -0.598339 3.55094 0
M  V30 984 C 92.6322 0.654674 4.4501 0
M  V30 985 C 93.9512 -1.41334 4.16789 0
M  V30 986 H 91.0702 -0.0969531 0.730595 0
M  V30 987 H 93.7122 0.448066 1.84641 0
M  V30 988 H 91.8622 -1.21078 3.69151 0
M  V30 989 H 93.5342 1.29285 4.42813 0
M  V30 990 H 91.7772 1.28224 4.14416 0
M  V30 991 H 92.4482 0.380944 5.50684 0
M  V30 992 H 94.9242 -0.895597 4.06347 0
M  V30 993 H 93.8002 -1.61127 5.24718 0
M  V30 994 H 94.0612 -2.41146 3.70541 0
M  V30 995 N 93.1203 -1.57491 0.0584922 0
M  V30 996 C 94.3483 -1.97296 -0.623037 0
M  V30 997 C 94.7633 -0.936338 -1.63946 0
M  V30 998 O 94.1203 0.0785981 -1.82331 0
M  V30 999 C 94.1713 -3.37183 -1.30345 0
M  V30 1000 O 93.8923 -4.36872 -0.32773 0
M  V30 1001 C 95.3933 -3.91788 -2.07406 0
M  V30 1002 H 92.6133 -0.649153 -0.169826 0
M  V30 1003 H 95.1573 -2.04106 0.12696 0
M  V30 1004 H 93.3123 -3.31502 -2.00463 0
M  V30 1005 H 93.7263 -5.18141 -0.814269 0
M  V30 1006 H 95.2003 -4.91926 -2.50425 0
M  V30 1007 H 95.6773 -3.27609 -2.92521 0
M  V30 1008 H 96.2833 -4.00829 -1.42184 0
M  V30 1009 N 94.5984 0.214957 -1.56127 0
M  V30 1010 C 95.5614 1.24997 -1.92116 0
M  V30 1011 C 96.5614 1.39467 -0.800344 0
M  V30 1012 O 97.7514 1.37619 -1.06802 0
M  V30 1013 C 94.8834 2.62271 -2.17777 0
M  V30 1014 H 96.0764 0.942875 -2.84693 0
M  V30 1015 H 93.6294 0.455654 -1.49511 0
M  V30 1016 H 94.3644 2.98068 -1.27773 0
M  V30 1017 H 94.1494 2.53143 -2.99434 0
M  V30 1018 H 95.6394 3.36946 -2.46693 0
M  V30 1019 N 96.0765 1.50051 0.48192 0
M  V30 1020 C 97.0065 1.71046 1.58951 0
M  V30 1021 C 97.9875 0.559288 1.60642 0
M  V30 1022 O 99.1725 0.797243 1.77081 0
M  V30 1023 C 96.3025 1.79462 2.97339 0
M  V30 1024 C 95.2565 2.94558 3.10515 0
M  V30 1025 C 94.5825 2.88105 4.50444 0
M  V30 1026 C 95.8825 4.35227 2.88747 0
M  V30 1027 H 97.5765 2.6378 1.41635 0
M  V30 1028 H 95.1225 1.26936 0.679942 0
M  V30 1029 H 97.0755 1.92734 3.74742 0
M  V30 1030 H 95.7995 0.833412 3.15788 0
M  V30 1031 H 94.4585 2.80918 2.35543 0
M  V30 1032 H 94.1065 1.89853 4.65795 0
M  V30 1033 H 93.8065 3.65366 4.60197 0
M  V30 1034 H 95.3305 3.03412 5.29881 0
M  V30 1035 H 96.7445 4.49449 3.55905 0
M  V30 1036 H 95.1415 5.13856 3.09955 0
M  V30 1037 H 96.2115 4.48347 1.84696 0
M  V30 1038 N 97.5546 -0.734337 1.39446 0
M  V30 1039 C 98.5016 -1.84835 1.38219 0
M  V30 1040 C 99.4716 -1.64331 0.24179 0
M  V30 1041 O 100.657 -1.85728 0.437002 0
M  V30 1042 C 97.7966 -3.22355 1.23212 0
M  V30 1043 C 96.9096 -3.5456 2.46801 0
M  V30 1044 C 96.0446 -4.81485 2.24377 0
M  V30 1045 C 95.0836 -5.06536 3.43639 0
M  V30 1046 N 94.2206 -6.24665 3.20528 0
M  V30 1047 H 99.0606 -1.85219 2.33448 0
M  V30 1048 H 96.5976 -0.905039 1.15963 0
M  V30 1049 H 98.5556 -4.0174 1.12522 0
M  V30 1050 H 97.1856 -3.21248 0.316121 0
M  V30 1051 H 96.2376 -2.69872 2.68092 0
M  V30 1052 H 97.5496 -3.6899 3.3563 0
M  V30 1053 H 96.7036 -5.68852 2.10933 0
M  V30 1054 H 95.4426 -4.6923 1.32944 0
M  V30 1055 H 94.4476 -4.17632 3.5758 0
M  V30 1056 H 95.6726 -5.20676 4.35974 0
M  V30 1057 H 93.6186 -6.13696 2.3176 0
M  V30 1058 H 93.5356 -6.39685 4.02913 0
M  V30 1059 H 94.8036 -7.14868 3.10779 0
M  V30 1060 N 99.0327 -1.24633 -0.964593 0
M  V30 1061 C 100.279 -1.08949 -1.71049 0
M  V30 1062 C 100.612 0.370302 -1.90637 0
M  V30 1063 O 99.8867 1.27349 -1.47011 0
M  V30 1064 C 100.17 -1.83329 -3.0994 0
M  V30 1065 C 100.023 -3.37077 -2.97824 0
M  V30 1066 C 101.342 -1.60846 -4.09654 0
M  V30 1067 H 98.4607 -0.397178 -0.620821 0
M  V30 1068 H 101.103 -1.5334 -1.12191 0
M  V30 1069 H 99.2527 -1.45597 -3.60186 0
M  V30 1070 H 100.925 -3.84425 -2.5498 0
M  V30 1071 H 99.1677 -3.65298 -2.33965 0
M  V30 1072 H 99.8387 -3.84324 -3.96231 0
M  V30 1073 H 102.315 -1.93674 -3.68279 0
M  V30 1074 H 101.191 -2.1534 -5.04896 0
M  V30 1075 H 101.452 -0.547434 -4.38698 0
M  V30 1076 N 100.511 1.16574 -1.06058 0
M  V30 1077 C 101.736 1.91493 -0.796562 0
M  V30 1078 C 102.161 1.76773 0.642868 0
M  V30 1079 O 101.519 1.09142 1.44768 0
M  V30 1080 C 101.567 3.40293 -1.19303 0
M  V30 1081 O 100.671 4.11074 -0.330394 0
M  V30 1082 H 100.012 0.596678 -0.291326 0
M  V30 1083 H 102.542 1.47708 -1.41575 0
M  V30 1084 H 102.552 3.91057 -1.16356 0
M  V30 1085 H 101.227 3.50326 -2.24153 0
M  V30 1086 H 99.8038 3.70513 -0.421225 0
M  V30 1087 N 101.989 0.842826 1.3317 0
M  V30 1088 C 102.952 0.284065 2.27433 0
M  V30 1089 C 103.952 -0.54948 1.5112 0
M  V30 1090 O 105.142 -0.362699 1.70382 0
M  V30 1091 C 102.274 -0.599384 3.35589 0
M  V30 1092 H 103.467 1.11589 2.78366 0
M  V30 1093 H 101.02 0.616221 1.4364 0
M  V30 1094 H 101.755 -1.45349 2.89904 0
M  V30 1095 H 101.54 -0.00291266 3.921 0
M  V30 1096 H 103.03 -0.983488 4.05854 0
M  V30 1097 N 103.467 -1.45747 0.599634 0
M  V30 1098 C 104.377 -2.34262 -0.125888 0
M  V30 1099 C 105.393 -1.50768 -0.868625 0
M  V30 1100 O 106.569 -1.83592 -0.828003 0
M  V30 1101 C 103.634 -3.28252 -1.11587 0
M  V30 1102 C 102.695 -4.27651 -0.375956 0
M  V30 1103 C 101.928 -5.1715 -1.31877 0
M  V30 1104 O 102.151 -5.09916 -2.55621 0
M  V30 1105 O 101.085 -5.96286 -0.820157 0
M  V30 1106 H 104.911 -2.97688 0.601315 0
M  V30 1107 H 102.496 -1.44999 0.359934 0
M  V30 1108 H 104.378 -3.86191 -1.68626 0
M  V30 1109 H 103.053 -2.67401 -1.82424 0
M  V30 1110 H 101.96 -3.7335 0.236698 0
M  V30 1111 H 103.293 -4.91334 0.29177 0
M  V30 1112 N 104.945 -0.338344 -1.53925 0
M  V30 1113 C 105.855 0.529421 -2.28548 0
M  V30 1114 C 106.871 1.11645 -1.3346 0
M  V30 1115 O 108.047 1.13325 -1.66492 0
M  V30 1116 C 105.112 1.66713 -3.03987 0
M  V30 1117 C 104.173 1.11041 -4.14691 0
M  V30 1118 C 103.406 2.19389 -4.86522 0
M  V30 1119 O 103.629 3.40013 -4.57982 0
M  V30 1120 O 102.563 1.83976 -5.73094 0
M  V30 1121 H 106.389 -0.0770399 -3.03602 0
M  V30 1122 H 103.974 -0.103555 -1.49041 0
M  V30 1123 H 105.856 2.32918 -3.5118 0
M  V30 1124 H 104.531 2.25949 -2.31794 0
M  V30 1125 H 103.438 0.413024 -3.71813 0
M  V30 1126 H 104.771 0.562975 -4.8897 0
M  V30 1127 N 106.423 1.57458 -0.0668435 0
M  V30 1128 C 107.672 1.92477 0.602947 0
M  V30 1129 C 107.985 0.948419 1.71068 0
M  V30 1130 O 109.191 1.19124 2.43971 0
M  V30 1131 C 107.647 3.41903 1.12383 0
M  V30 1132 C 107.255 4.47975 0.04737 0
M  V30 1133 C 108.999 3.85931 1.76797 0
M  V30 1134 C 106.906 5.88529 0.582022 0
M  V30 1135 H 105.836 0.718387 0.22899 0
M  V30 1136 H 108.487 1.82978 -0.138276 0
M  V30 1137 H 106.869 3.46459 1.91787 0
M  V30 1138 H 108.043 4.55029 -0.726978 0
M  V30 1139 H 106.358 4.13384 -0.500243 0
M  V30 1140 H 108.955 4.88322 2.17821 0
M  V30 1141 H 109.298 3.23029 2.62599 0
M  V30 1142 H 109.831 3.83958 1.04024 0
M  V30 1143 H 106.57 6.55065 -0.238721 0
M  V30 1144 H 106.09 5.85004 1.324 0
M  V30 1145 H 107.769 6.38258 1.05999 0
M  V30 1146 N 107.901 -0.206675 1.56239 0
M  V30 1147 C 108.864 -1.23976 1.92776 0
M  V30 1148 C 109.864 -1.39041 0.807729 0
M  V30 1149 O 111.054 -1.37051 1.0753 0
M  V30 1150 C 108.186 -2.61112 2.19165 0
M  V30 1151 H 109.379 -0.927764 2.85189 0
M  V30 1152 H 106.932 -0.447718 1.4975 0
M  V30 1153 H 107.667 -2.97386 1.29352 0
M  V30 1154 H 107.452 -2.51552 3.00772 0
M  V30 1155 H 108.942 -3.35633 2.48476 0
M  V30 1156 N 109.379 -1.50304 -0.473955 0
M  V30 1157 C 110.342 -1.6841 -1.55469 0
M  V30 1158 C 111.342 -0.554905 -1.50922 0
M  V30 1159 O 112.532 -0.821882 -1.53593 0
M  V30 1160 C 109.664 -1.70667 -2.95102 0
M  V30 1161 H 110.857 -2.64828 -1.40733 0
M  V30 1162 H 108.41 -1.39742 -0.700132 0
M  V30 1163 H 109.145 -0.75932 -3.15285 0
M  V30 1164 H 108.93 -2.52698 -2.9981 0
M  V30 1165 H 110.42 -1.8664 -3.73571 0
M  V30 1166 N 110.857 0.726932 -1.39834 0
M  V30 1167 C 111.82 1.82269 -1.38962 0
M  V30 1168 C 112.82 1.58248 -0.285334 0
M  V30 1169 O 114.01 1.65499 -0.54366 0
M  V30 1170 C 111.142 3.20186 -1.17019 0
M  V30 1171 H 112.335 1.84443 -2.36476 0
M  V30 1172 H 109.888 0.931416 -1.25516 0
M  V30 1173 H 110.623 3.23669 -0.202204 0
M  V30 1174 H 110.408 3.3902 -1.96998 0
M  V30 1175 H 111.898 4.00235 -1.1917 0
M  V30 1176 N 112.336 1.25143 0.95797 0
M  V30 1177 C 113.561 1.12521 1.74223 0
M  V30 1178 C 113.986 -0.317402 1.85403 0
M  V30 1179 O 113.344 -1.2299 1.33204 0
M  V30 1180 C 113.392 1.78062 3.1357 0
M  V30 1181 O 112.496 1.058 3.98598 0
M  V30 1182 H 111.837 0.39304 0.535178 0
M  V30 1183 H 114.367 1.65641 1.201 0
M  V30 1184 H 114.377 1.84213 3.64046 0
M  V30 1185 H 113.052 2.83021 3.04749 0
M  V30 1186 H 111.629 1.07506 3.57067 0
M  V30 1187 N 113.814 -1.1601 1.06675 0
M  V30 1188 C 114.724 -2.24156 0.692179 0
M  V30 1189 C 115.74 -1.71507 -0.293513 0
M  V30 1190 O 116.916 -2.009 -0.141861 0
M  V30 1191 C 113.981 -3.46587 0.0884131 0
M  V30 1192 C 113.042 -4.14257 1.12646 0
M  V30 1193 C 112.275 -5.30844 0.551416 0
M  V30 1194 O 112.498 -5.66858 -0.634656 0
M  V30 1195 O 111.432 -5.87848 1.29298 0
M  V30 1196 H 115.258 -2.58513 1.59388 0
M  V30 1197 H 112.843 -1.23599 0.83926 0
M  V30 1198 H 114.725 -4.20679 -0.246361 0
M  V30 1199 H 113.4 -3.13994 -0.786712 0
M  V30 1200 H 112.307 -3.42118 1.51348 0
M  V30 1201 H 113.64 -4.50914 1.97325 0
M  V30 1202 N 115.292 -0.849877 -1.32721 0
M  V30 1203 C 116.708 -0.539102 -1.50219 0
M  V30 1204 C 116.908 0.931271 -1.78689 0
M  V30 1205 O 115.964 1.71455 -1.85363 0
M  V30 1206 C 117.277 -1.42196 -2.64954 0
M  V30 1207 C 118.825 -1.42189 -2.78839 0
M  V30 1208 C 119.3 -2.28985 -3.96648 0
M  V30 1209 N 120.791 -2.26754 -4.03902 0
M  V30 1210 C 121.526 -2.90644 -4.94281 0
M  V30 1211 N 121.022 -3.63629 -5.897 0
M  V30 1212 N 122.815 -2.80057 -4.87365 0
M  V30 1213 H 114.966 -1.80156 -1.12506 0
M  V30 1214 H 117.229 -0.769217 -0.554085 0
M  V30 1215 H 116.935 -2.46733 -2.50631 0
M  V30 1216 H 116.809 -1.10591 -3.60624 0
M  V30 1217 H 119.196 -0.38419 -2.92588 0
M  V30 1218 H 119.277 -1.77807 -1.83898 0
M  V30 1219 H 118.921 -3.32819 -3.83658 0
M  V30 1220 H 118.851 -1.90702 -4.90857 0
M  V30 1221 H 121.342 -1.73688 -3.3562 0
M  V30 1222 H 121.655 -4.09558 -6.55349 0
M  V30 1223 H 120 -3.67737 -5.89741 0
M  V30 1224 H 123.191 -2.22593 -4.11789 0
M  V30 1225 H 123.364 -3.30132 -5.57599 0
M  V30 1226 N 116.77 1.45427 -0.607355 0
M  V30 1227 C 117.7 2.3329 0.0989352 0
M  V30 1228 C 118.681 1.46816 0.859007 0
M  V30 1229 O 119.866 1.75588 0.829604 0
M  V30 1230 C 116.996 3.29518 1.09705 0
M  V30 1231 C 115.95 4.25626 0.450206 0
M  V30 1232 C 115.276 5.11542 1.55655 0
M  V30 1233 C 116.576 5.18505 -0.628455 0
M  V30 1234 H 118.27 2.92595 -0.634716 0
M  V30 1235 H 115.816 1.40696 -0.306681 0
M  V30 1236 H 117.769 3.89855 1.59971 0
M  V30 1237 H 116.493 2.68372 1.86129 0
M  V30 1238 H 115.152 3.66586 -0.0315886 0
M  V30 1239 H 114.8 4.46765 2.31107 0
M  V30 1240 H 114.5 5.76647 1.12925 0
M  V30 1241 H 116.024 5.74748 2.06148 0
M  V30 1242 H 117.438 5.72916 -0.209877 0
M  V30 1243 H 115.835 5.92085 -0.977489 0
M  V30 1244 H 116.905 4.60948 -1.50514 0
M  V30 1245 N 118.248 0.346503 1.53744 0
M  V30 1246 C 119.473 -0.253074 2.0585 0
M  V30 1247 C 119.898 -1.43202 1.21962 0
M  V30 1248 O 119.256 -1.79783 0.234073 0
M  V30 1249 C 119.304 -0.643193 3.54817 0
M  V30 1250 O 118.408 -1.74286 3.73762 0
M  V30 1251 H 117.749 -0.0413583 0.662711 0
M  V30 1252 H 120.279 0.501574 1.98357 0
M  V30 1253 H 120.289 -0.919526 3.97503 0
M  V30 1254 H 118.964 0.218966 4.15323 0
M  V30 1255 H 117.541 -1.46356 3.42979 0
M  V30 1256 N 119.726 -1.57421 0.075193 0
M  V30 1257 C 121.003 -1.85029 -0.634329 0
M  V30 1258 C 121.383 -0.968305 -1.87582 0
M  V30 1259 O 120.731 -0.0354749 -2.28472 0
M  V30 1260 C 120.941 -3.35286 -0.968742 0
M  V30 1261 C 122.289 -4.02875 -1.34077 0
M  V30 1262 O 123.313 -3.40051 -1.06037 0
M  V30 1263 O 122.172 -5.13691 -1.86506 0
M  V30 1264 H 119.266 -0.7645 -0.315387 0
M  V30 1265 H 121.812 -1.69366 0.106382 0
M  V30 1266 H 120.584 -3.91203 -0.0871376 0
M  V30 1267 H 120.207 -3.56223 -1.7661 0
M  V30 1268 N 121.204 0.198386 -1.56346 0
M  V30 1269 C 122.114 1.2664 -1.97483 0
M  V30 1270 C 123.13 1.49989 -0.882002 0
M  V30 1271 O 124.306 1.62668 -1.18748 0
M  V30 1272 C 121.371 2.59141 -2.30319 0
M  V30 1273 C 120.432 2.43892 -3.53292 0
M  V30 1274 C 119.665 3.70074 -3.84553 0
M  V30 1275 O 119.888 4.74101 -3.1715 0
M  V30 1276 O 118.822 3.658 -4.7799 0
M  V30 1277 H 122.648 0.947304 -2.88548 0
M  V30 1278 H 120.233 0.403123 -1.43859 0
M  V30 1279 H 122.115 3.37352 -2.5253 0
M  V30 1280 H 120.79 2.90684 -1.42423 0
M  V30 1281 H 119.697 1.63803 -3.36332 0
M  V30 1282 H 121.03 2.17282 -4.41644 0
M  V30 1283 N 122.682 1.50554 0.465978 0
M  V30 1284 C 123.612 1.72722 1.57128 0
M  V30 1285 C 124.593 0.576294 1.6004 0
M  V30 1286 O 125.778 0.81598 1.76225 0
M  V30 1287 C 122.908 1.82605 2.95419 0
M  V30 1288 C 121.862 2.97835 3.07373 0
M  V30 1289 C 121.188 2.92867 4.47363 0
M  V30 1290 C 122.488 4.38265 2.84114 0
M  V30 1291 H 124.182 2.65267 1.38829 0
M  V30 1292 H 121.728 1.2765 0.666441 0
M  V30 1293 H 123.681 1.96698 3.72677 0
M  V30 1294 H 122.405 0.866858 3.14886 0
M  V30 1295 H 121.064 2.83401 2.3255 0
M  V30 1296 H 120.712 1.94783 4.63755 0
M  V30 1297 H 120.412 3.70227 4.56296 0
M  V30 1298 H 121.936 3.09015 5.26633 0
M  V30 1299 H 123.35 4.53198 3.51118 0
M  V30 1300 H 121.747 5.17115 3.04487 0
M  V30 1301 H 122.817 4.50281 1.7993 0
M  V30 1302 N 124.16 -0.719506 1.40217 0
M  V30 1303 C 125.107 -1.83359 1.40172 0
M  V30 1304 C 126.077 -1.64065 0.259206 0
M  V30 1305 O 127.262 -1.85254 0.456677 0
M  V30 1306 C 124.402 -3.2103 1.26624 0
M  V30 1307 C 123.515 -3.51923 2.50548 0
M  V30 1308 C 122.65 -4.79079 2.29471 0
M  V30 1309 C 121.689 -5.02863 3.48992 0
M  V30 1310 N 120.826 -6.2123 3.27135 0
M  V30 1311 H 125.666 -1.82733 2.35399 0
M  V30 1312 H 123.203 -0.892688 1.16917 0
M  V30 1313 H 125.161 -4.00524 1.16776 0
M  V30 1314 H 123.791 -3.20895 0.350176 0
M  V30 1315 H 122.843 -2.67014 2.70939 0
M  V30 1316 H 124.155 -3.6541 3.39525 0
M  V30 1317 H 123.309 -5.66582 2.16955 0
M  V30 1318 H 122.048 -4.67794 1.37913 0
M  V30 1319 H 121.053 -4.13816 3.6199 0
M  V30 1320 H 122.278 -5.16023 4.41472 0
M  V30 1321 H 120.224 -6.11204 2.38256 0
M  V30 1322 H 120.141 -6.35375 4.09675 0
M  V30 1323 H 121.409 -7.11532 3.18344 0
M  V30 1324 N 125.638 -1.25649 -0.95132 0
M  V30 1325 C 126.57 -1.02112 -2.05197 0
M  V30 1326 C 127.583 0.0150571 -1.62793 0
M  V30 1327 O 128.772 -0.223874 -1.77091 0
M  V30 1328 C 125.872 -0.522361 -3.3485 0
M  V30 1329 C 125.045 -1.62546 -4.06076 0
M  V30 1330 C 124.104 -1.12649 -5.14001 0
M  V30 1331 O 123.13 -1.82156 -5.39266 0
M  V30 1332 N 124.332 0.03047 -5.80492 0
M  V30 1333 H 127.097 -1.96885 -2.25957 0
M  V30 1334 H 124.658 -1.16899 -1.1201 0
M  V30 1335 H 126.65 -0.172961 -4.0433 0
M  V30 1336 H 125.22 0.33151 -3.10837 0
M  V30 1337 H 124.44 -2.14628 -3.30649 0
M  V30 1338 H 125.728 -2.36644 -4.50419 0
M  V30 1339 H 125.126 0.611169 -5.62389 0
M  V30 1340 H 123.683 0.320875 -6.5101 0
M  V30 1341 N 127.117 1.15442 -1.07289 0
M  V30 1342 C 128.08 2.18358 -0.696591 0
M  V30 1343 C 129.08 1.58637 0.262837 0
M  V30 1344 O 130.27 1.74145 0.0438809 0
M  V30 1345 C 127.402 3.4089 -0.0266151 0
M  V30 1346 H 128.595 2.53162 -1.60776 0
M  V30 1347 H 126.148 1.29893 -0.869342 0
M  V30 1348 H 126.883 3.11653 0.896822 0
M  V30 1349 H 126.668 3.85495 -0.716657 0
M  V30 1350 H 128.158 4.17009 0.222028 0
M  V30 1351 N 128.595 0.856903 1.32268 0
M  V30 1352 C 129.528 0.247937 2.26849 0
M  V30 1353 C 130.506 -0.615382 1.50505 0
M  V30 1354 O 131.69 -0.571689 1.79622 0
M  V30 1355 C 128.817 -0.650093 3.32403 0
M  V30 1356 C 127.863 0.140138 4.2627 0
M  V30 1357 S 128.696 1.51004 5.13769 0
M  V30 1358 C 129.852 0.61778 6.22844 0
M  V30 1359 H 130.085 1.04971 2.78152 0
M  V30 1360 H 127.618 0.654665 1.39834 0
M  V30 1361 H 129.576 -1.16256 3.93694 0
M  V30 1362 H 128.237 -1.4257 2.7988 0
M  V30 1363 H 127.43 -0.543945 5.01056 0
M  V30 1364 H 127.032 0.584267 3.69408 0
M  V30 1365 H 129.324 -0.177053 6.77269 0
M  V30 1366 H 130.267 1.33636 6.95375 0
M  V30 1367 H 130.675 0.191124 5.64176 0
M  V30 1368 N 130.073 -1.45103 0.615059 0
M  V30 1369 C 131.036 -2.29025 -0.0895485 0
M  V30 1370 C 132.036 -1.40174 -0.787906 0
M  V30 1371 O 133.226 -1.62217 -0.634933 0
M  V30 1372 C 130.358 -3.21376 -1.13711 0
M  V30 1373 H 131.551 -2.92807 0.648382 0
M  V30 1374 H 129.104 -1.51749 0.374444 0
M  V30 1375 H 129.839 -2.6241 -1.90556 0
M  V30 1376 H 129.624 -3.86834 -0.640475 0
M  V30 1377 H 131.114 -3.84459 -1.63036 0
M  V30 1378 N 131.551 -0.354651 -1.53558 0
M  V30 1379 C 132.797 0.238797 -2.01389 0
M  V30 1380 C 133.13 1.49309 -1.2418 0
M  V30 1381 O 132.405 1.91638 -0.332457 0
M  V30 1382 C 132.688 0.541771 -3.56001 0
M  V30 1383 C 132.541 -0.725388 -4.43912 0
M  V30 1384 C 133.86 1.34685 -4.18984 0
M  V30 1385 H 130.979 0.0853177 -0.732045 0
M  V30 1386 H 133.621 -0.477384 -1.83905 0
M  V30 1387 H 131.771 1.15189 -3.71031 0
M  V30 1388 H 133.443 -1.36313 -4.407 0
M  V30 1389 H 131.686 -1.34801 -4.12324 0
M  V30 1390 H 132.357 -0.468505 -5.50008 0
M  V30 1391 H 134.833 0.830837 -4.07721 0
M  V30 1392 H 133.709 1.52759 -5.27215 0
M  V30 1393 H 133.97 2.35221 -3.74331 0
M  V30 1394 N 133.029 1.57378 -0.0835403 0
M  V30 1395 C 133.992 2.12252 0.864959 0
M  V30 1396 C 134.992 1.04916 1.21858 0
M  V30 1397 O 136.182 1.30853 1.14991 0
M  V30 1398 C 133.314 2.63358 2.16461 0
M  V30 1399 H 134.507 2.97371 0.388676 0
M  V30 1400 H 132.06 1.55423 0.165317 0
M  V30 1401 H 132.795 1.81727 2.686 0
M  V30 1402 H 132.58 3.41826 1.92087 0
M  V30 1403 H 134.07 3.05847 2.84337 0
M  V30 1404 N 134.507 -0.190092 1.56449 0
M  V30 1405 C 135.753 -0.911052 1.81184 0
M  V30 1406 C 136.086 -1.82699 0.658396 0
M  V30 1407 O 135.361 -1.91491 -0.340775 0
M  V30 1408 C 135.644 -1.72297 3.16205 0
M  V30 1409 C 135.497 -0.831419 4.42049 0
M  V30 1410 C 136.816 -2.69454 3.47969 0
M  V30 1411 H 133.935 -0.32977 0.659106 0
M  V30 1412 H 136.577 -0.178169 1.89163 0
M  V30 1413 H 134.727 -2.34778 3.09534 0
M  V30 1414 H 136.399 -0.220929 4.60771 0
M  V30 1415 H 134.642 -0.138406 4.33579 0
M  V30 1416 H 135.313 -1.43461 5.33032 0
M  V30 1417 H 137.789 -2.17104 3.54972 0
M  V30 1418 H 136.665 -3.23342 4.43555 0
M  V30 1419 H 136.926 -3.48744 2.71717 0
M  V30 1420 N 135.985 -1.50799 -0.457987 0
M  V30 1421 C 136.932 -1.70617 -1.5543 0
M  V30 1422 C 137.902 -0.547562 -1.56815 0
M  V30 1423 O 139.087 -0.779647 -1.74144 0
M  V30 1424 C 136.227 -1.81831 -2.93311 0
M  V30 1425 C 135.34 -3.09278 -3.01615 0
M  V30 1426 C 134.475 -3.11209 -4.30491 0
M  V30 1427 C 133.514 -4.33055 -4.32585 0
M  V30 1428 N 132.651 -4.32652 -5.52952 0
M  V30 1429 H 137.491 -2.64207 -1.37836 0
M  V30 1430 H 135.028 -1.30959 -0.669937 0
M  V30 1431 H 136.986 -1.86314 -3.73287 0
M  V30 1432 H 135.616 -0.916685 -3.0951 0
M  V30 1433 H 134.668 -3.14203 -2.1443 0
M  V30 1434 H 135.98 -3.99233 -2.99022 0
M  V30 1435 H 135.134 -3.14494 -5.18824 0
M  V30 1436 H 133.873 -2.19106 -4.35711 0
M  V30 1437 H 132.878 -4.29969 -3.42647 0
M  V30 1438 H 134.103 -5.264 -4.29046 0
M  V30 1439 H 132.049 -3.43409 -5.58933 0
M  V30 1440 H 131.966 -5.16392 -5.52155 0
M  V30 1441 H 133.234 -4.40101 -6.43375 0
M  V30 1442 N 137.463 0.71206 -1.40597 0
M  V30 1443 C 138.411 1.84746 -1.41321 0
M  V30 1444 C 139.405 1.66842 -0.293268 0
M  V30 1445 O 140.611 1.73904 -0.464481 0
M  V30 1446 H 136.986 0.608522 -0.441819 0
M  V30 1447 H 138.957 1.81252 -2.37045 0
M  V30 1448 C 137.706 3.22638 -1.29614 0
M  V30 1449 H 137.029 3.37023 -2.15071 0
M  V30 1450 H 138.469 4.02209 -1.3418 0
M  V30 1451 C 136.928 3.36899 -0.00673121 0
M  V30 1452 O 137.458 3.90186 0.954859 0
M  V30 1453 N 135.664 2.9053 0.0639327 0
M  V30 1454 H 135.211 2.47353 -0.719311 0
M  V30 1455 H 135.169 3.0045 0.926118 0
M  V30 1456 N 138.941 1.26152 0.944643 0
M  V30 1457 C 140.19 1.10883 1.68487 0
M  V30 1458 C 140.503 -0.348153 1.92477 0
M  V30 1459 O 141.709 -0.621459 2.64292 0
M  V30 1460 C 140.165 1.93624 3.03377 0
M  V30 1461 C 139.773 3.43875 2.87148 0
M  V30 1462 C 141.517 1.86954 3.81115 0
M  V30 1463 C 139.424 4.18875 4.1749 0
M  V30 1464 H 138.354 0.41135 0.631907 0
M  V30 1465 H 141.005 1.50433 1.05082 0
M  V30 1466 H 139.387 1.46904 3.67743 0
M  V30 1467 H 140.561 3.98338 2.31653 0
M  V30 1468 H 138.876 3.51744 2.22856 0
M  V30 1469 H 141.473 2.40275 4.77673 0
M  V30 1470 H 141.816 0.839518 4.07747 0
M  V30 1471 H 142.349 2.31477 3.23517 0
M  V30 1472 H 139.088 5.22332 3.96043 0
M  V30 1473 H 138.608 3.69193 4.72712 0
M  V30 1474 H 140.287 4.27134 4.85968 0
M  V30 1475 N 140.419 -1.14872 1.07899 0
M  V30 1476 C 141.329 -2.2341 0.715915 0
M  V30 1477 C 142.345 -1.71808 -0.275306 0
M  V30 1478 O 143.521 -2.01039 -0.120545 0
M  V30 1479 C 140.586 -3.46474 0.125168 0
M  V30 1480 C 139.647 -4.13039 1.17034 0
M  V30 1481 C 138.88 -5.30229 0.607688 0
M  V30 1482 O 139.103 -5.675 -0.574497 0
M  V30 1483 O 138.037 -5.86444 1.35526 0
M  V30 1484 H 141.863 -2.56808 1.62121 0
M  V30 1485 H 139.448 -1.22702 0.852322 0
M  V30 1486 H 141.33 -4.20917 -0.201729 0
M  V30 1487 H 140.005 -3.14811 -0.753364 0
M  V30 1488 H 138.912 -3.40493 1.54968 0
M  V30 1489 H 140.245 -4.48796 2.02097 0
M  V30 1490 N 141.898 -0.863906 -1.31812 0
M  V30 1491 C 143.126 -0.486111 -2.01108 0
M  V30 1492 C 143.541 0.919755 -1.64882 0
M  V30 1493 O 142.898 1.60162 -0.874893 0
M  V30 1494 C 142.949 -0.626435 -3.56031 0
M  V30 1495 O 142.67 -1.97693 -3.90959 0
M  V30 1496 C 144.171 -0.248857 -4.42601 0
M  V30 1497 H 141.391 -0.190052 -0.643523 0
M  V30 1498 H 143.935 -1.1634 -1.68182 0
M  V30 1499 H 142.09 0.00322717 -3.874 0
M  V30 1500 H 142.504 -1.98034 -4.85678 0
M  V30 1501 H 143.978 -0.398016 -5.50563 0
M  V30 1502 H 144.455 0.811489 -4.31638 0
M  V30 1503 H 145.061 -0.853971 -4.16638 0
M  V30 1504 N 143.376 1.44774 -0.622745 0
M  V30 1505 C 144.623 2.02121 -0.1239 0
M  V30 1506 C 144.951 1.48915 1.25118 0
M  V30 1507 O 144.206 0.660045 1.84233 0
M  V30 1508 C 144.505 3.57364 -0.0508323 0
M  V30 1509 C 144.171 4.29787 -1.36358 0
M  V30 1510 C 142.833 4.4929 -1.72314 0
M  V30 1511 C 145.185 4.71062 -2.23048 0
M  V30 1512 C 142.513 5.07325 -2.94682 0
M  V30 1513 C 144.865 5.30452 -3.44679 0
M  V30 1514 C 143.529 5.48175 -3.80868 0
M  V30 1515 H 142.799 0.739612 -0.0453381 0
M  V30 1516 H 145.446 1.73648 -0.807389 0
M  V30 1517 H 143.751 3.85202 0.715991 0
M  V30 1518 H 145.448 3.99456 0.351533 0
M  V30 1519 H 142.038 4.14932 -1.07375 0
M  V30 1520 H 146.222 4.55715 -1.96565 0
M  V30 1521 H 141.478 5.19235 -3.22809 0
M  V30 1522 H 145.652 5.61385 -4.12092 0
M  V30 1523 H 143.279 5.92912 -4.75773 0
M  V30 1524 N 144.854 0.36279 1.53368 0
M  V30 1525 C 145.804 -0.501391 2.22419 0
M  V30 1526 C 146.788 -1.0509 1.2184 0
M  V30 1527 O 147.98 -0.981404 1.47301 0
M  V30 1528 C 145.109 -1.64201 3.01484 0
M  V30 1529 C 144.195 -1.10552 4.09438 0
M  V30 1530 N 144.586 -0.291788 5.04958 0
M  V30 1531 C 142.884 -1.3806 4.24094 0
M  V30 1532 C 143.585 0.00162655 5.817 0
M  V30 1533 N 142.561 -0.595244 5.40331 0
M  V30 1534 H 146.363 0.127159 2.93625 0
M  V30 1535 H 143.877 0.170658 1.61501 0
M  V30 1536 H 145.874 -2.27326 3.49469 0
M  V30 1537 H 144.534 -2.27365 2.31809 0
M  V30 1538 H 145.545 0.0687731 5.17854 0
M  V30 1539 H 142.222 -2.01522 3.65644 0
M  V30 1540 H 143.612 0.659278 6.68658 0
M  V30 1541 N 146.332 -1.57332 0.0918853 0
M  V30 1542 C 147.56 -1.98574 -0.581048 0
M  V30 1543 C 147.975 -0.970903 -1.61923 0
M  V30 1544 O 147.332 0.0399054 -1.82456 0
M  V30 1545 C 147.383 -3.39872 -1.23164 0
M  V30 1546 O 147.104 -4.37469 -0.234989 0
M  V30 1547 C 148.605 -3.96099 -1.99049 0
M  V30 1548 H 145.825 -0.65261 -0.156018 0
M  V30 1549 H 148.369 -2.0379 0.170225 0
M  V30 1550 H 146.524 -3.35679 -1.93386 0
M  V30 1551 H 146.938 -5.19751 -0.70418 0
M  V30 1552 H 148.412 -4.97127 -2.39934 0
M  V30 1553 H 148.889 -3.3374 -2.85507 0
M  V30 1554 H 149.495 -4.03755 -1.3365 0
M  V30 1555 N 147.81 0.181792 -1.56548 0
M  V30 1556 C 148.773 1.20894 -1.94724 0
M  V30 1557 C 149.773 1.37738 -0.829747 0
M  V30 1558 O 150.963 1.35323 -1.09697 0
M  V30 1559 C 148.095 2.57593 -2.23291 0
M  V30 1560 H 149.288 0.882275 -2.86629 0
M  V30 1561 H 146.841 0.423838 -1.50444 0
M  V30 1562 H 147.576 2.95291 -1.34067 0
M  V30 1563 H 147.361 2.46735 -3.04736 0
M  V30 1564 H 148.851 3.31637 -2.53785 0
M  V30 1565 N 149.288 1.51039 0.449983 0
M  V30 1566 C 150.22 1.67617 1.56324 0
M  V30 1567 C 151.233 0.557083 1.52972 0
M  V30 1568 O 152.422 0.830989 1.57977 0
M  V30 1569 C 149.522 1.66402 2.95235 0
M  V30 1570 C 148.695 2.9469 3.23229 0
M  V30 1571 C 147.754 2.85832 4.41799 0
M  V30 1572 O 146.78 3.59785 4.41071 0
M  V30 1573 N 147.982 2.00821 5.44657 0
M  V30 1574 H 150.747 2.63648 1.42512 0
M  V30 1575 H 148.308 1.48767 0.638737 0
M  V30 1576 H 150.3 1.58062 3.72557 0
M  V30 1577 H 148.87 0.780182 3.02708 0
M  V30 1578 H 148.09 3.16996 2.34323 0
M  V30 1579 H 149.378 3.79636 3.38754 0
M  V30 1580 H 148.776 1.40091 5.48079 0
M  V30 1581 H 147.333 1.98368 6.20881 0
M  V30 1582 N 150.766 -0.704594 1.40972 0
M  V30 1583 C 151.713 -1.81862 1.42109 0
M  V30 1584 C 152.683 -1.63781 0.276593 0
M  V30 1585 O 153.868 -1.84759 0.4763 0
M  V30 1586 C 151.008 -3.19669 1.30022 0
M  V30 1587 C 150.121 -3.49246 2.54267 0
M  V30 1588 C 149.256 -4.76618 2.3454 0
M  V30 1589 C 148.295 -4.99133 3.54306 0
M  V30 1590 N 147.432 -6.17726 3.33706 0
M  V30 1591 H 152.272 -1.80226 2.37324 0
M  V30 1592 H 149.809 -0.880238 1.17857 0
M  V30 1593 H 151.767 -3.99263 1.21018 0
M  V30 1594 H 150.397 -3.20506 0.384192 0
M  V30 1595 H 149.449 -2.64125 2.73756 0
M  V30 1596 H 150.761 -3.61788 3.43381 0
M  V30 1597 H 149.915 -5.64249 2.22952 0
M  V30 1598 H 148.654 -4.66305 1.42867 0
M  V30 1599 H 147.659 -4.09953 3.66359 0
M  V30 1600 H 148.884 -5.11311 4.4692 0
M  V30 1601 H 146.83 -6.08642 2.44725 0
M  V30 1602 H 146.747 -6.30995 4.16391 0
M  V30 1603 H 148.015 -7.08115 3.25873 0
M  V30 1604 N 152.244 -1.26651 -0.937939 0
M  V30 1605 C 153.174 -1.10993 -2.05433 0
M  V30 1606 C 154.155 -0.0142161 -1.70094 0
M  V30 1607 O 155.34 -0.186837 -1.93299 0
M  V30 1608 C 152.47 -0.745561 -3.39203 0
M  V30 1609 C 151.424 -1.79337 -3.88616 0
M  V30 1610 C 150.75 -1.28324 -5.19073 0
M  V30 1611 C 152.05 -3.19553 -4.13138 0
M  V30 1612 H 153.744 -2.0438 -2.1879 0
M  V30 1613 H 151.29 -0.984041 -1.05131 0
M  V30 1614 H 153.243 -0.622888 -4.16771 0
M  V30 1615 H 151.967 0.22401 -3.25831 0
M  V30 1616 H 150.626 -1.90477 -3.13231 0
M  V30 1617 H 150.274 -0.303414 -5.02084 0
M  V30 1618 H 149.974 -1.98369 -5.53103 0
M  V30 1619 H 151.498 -1.1733 -5.99221 0
M  V30 1620 H 152.912 -3.11471 -4.81309 0
M  V30 1621 H 151.309 -3.87218 -4.58457 0
M  V30 1622 H 152.379 -3.65368 -3.18801 0
M  V30 1623 N 153.722 1.14298 -1.08507 0
M  V30 1624 C 155.133 1.66926 -0.836227 0
M  V30 1625 C 155.484 1.85576 0.63686 0
M  V30 1626 O 154.609 1.56767 1.49175 0
M  V30 1627 C 155.204 3.03219 -1.51142 0
M  V30 1628 C 153.763 3.52876 -1.30979 0
M  V30 1629 C 152.91 2.2833 -1.57356 0
M  V30 1630 H 155.861 0.983491 -1.24552 0
M  V30 1631 H 155.882 3.68726 -0.939211 0
M  V30 1632 H 155.394 2.89612 -2.58353 0
M  V30 1633 H 153.495 3.71703 -0.258429 0
M  V30 1634 H 153.608 4.33586 -2.03814 0
M  V30 1635 H 151.972 2.34454 -0.995164 0
M  V30 1636 H 152.755 2.17298 -2.65775 0
M  V30 1637 N 155.201 0.870884 1.31352 0
M  V30 1638 C 156.612 0.534714 1.78879 0
M  V30 1639 C 156.963 -0.948423 1.71754 0
M  V30 1640 O 156.088 -1.74055 1.28584 0
M  V30 1641 C 156.683 0.963839 3.24801 0
M  V30 1642 C 155.242 0.679311 3.70219 0
M  V30 1643 C 154.389 1.15465 2.52117 0
M  V30 1644 H 157.34 1.05651 1.18421 0
M  V30 1645 H 157.361 0.286892 3.79417 0
M  V30 1646 H 156.873 2.04332 3.29955 0
M  V30 1647 H 154.974 -0.388769 3.70566 0
M  V30 1648 H 155.087 1.25698 4.62317 0
M  V30 1649 H 153.451 0.574383 2.48139 0
M  V30 1650 H 154.234 2.24157 2.60016 0
M  V30 1651 N 156.679 -1.44442 0.630414 0
M  V30 1652 C 157.925 -2.02351 0.134816 0
M  V30 1653 C 158.258 -1.4947 -1.23986 0
M  V30 1654 O 157.533 -0.678475 -1.82283 0
M  V30 1655 C 157.816 -3.59898 0.120707 0
M  V30 1656 C 157.669 -4.23063 1.52767 0
M  V30 1657 C 158.988 -4.36585 -0.555127 0
M  V30 1658 H 156.107 -0.73527 0.0504646 0
M  V30 1659 H 158.749 -1.72022 0.806751 0
M  V30 1660 H 156.899 -3.85868 -0.451477 0
M  V30 1661 H 158.571 -4.08202 2.14869 0
M  V30 1662 H 156.814 -3.80586 2.08175 0
M  V30 1663 H 157.485 -5.32071 1.46984 0
M  V30 1664 H 159.961 -4.16044 -0.0685429 0
M  V30 1665 H 158.837 -5.46294 -0.534185 0
M  V30 1666 H 159.098 -4.11138 -1.62535 0
M  V30 1667 N 158.157 -0.370918 -1.53173 0
M  V30 1668 C 159.434 0.273754 -1.93675 0
M  V30 1669 C 159.814 1.65938 -1.3049 0
M  V30 1670 O 159.162 2.23698 -0.465999 0
M  V30 1671 C 159.372 0.318602 -3.47543 0
M  V30 1672 C 160.72 0.556392 -4.20939 0
M  V30 1673 O 161.744 0.399587 -3.53952 0
M  V30 1674 O 160.603 0.862133 -5.39657 0
M  V30 1675 H 157.697 0.165448 -0.810281 0
M  V30 1676 H 160.243 -0.42409 -1.64315 0
M  V30 1677 H 159.015 -0.652687 -3.85818 0
M  V30 1678 H 158.638 1.06212 -3.83151 0
M  V30 1679 N 159.635 1.57281 -0.100228 0
M  V30 1680 C 160.881 1.94826 0.563101 0
M  V30 1681 C 161.214 0.982475 1.67514 0
M  V30 1682 O 160.489 0.0164069 1.94493 0
M  V30 1683 C 160.772 3.42453 1.11346 0
M  V30 1684 C 160.625 4.498 0.00612081 0
M  V30 1685 C 161.944 3.91506 2.01024 0
M  V30 1686 H 159.063 0.708428 0.203221 0
M  V30 1687 H 161.705 1.8922 -0.171979 0
M  V30 1688 H 159.855 3.47361 1.7399 0
M  V30 1689 H 161.527 4.57 -0.628357 0
M  V30 1690 H 159.77 4.28756 -0.659581 0
M  V30 1691 H 160.441 5.50306 0.432109 0
M  V30 1692 H 162.917 3.88784 1.48278 0
M  V30 1693 H 161.793 4.95358 2.36457 0
M  V30 1694 H 162.054 3.31099 2.92961 0
M  V30 1695 N 161.113 -0.173488 1.56642 0
M  V30 1696 C 162.023 -1.23482 1.99473 0
M  V30 1697 C 163.039 -1.48567 0.905752 0
M  V30 1698 O 164.215 -1.60758 1.21321 0
M  V30 1699 C 161.28 -2.55444 2.34413 0
M  V30 1700 C 160.341 -2.38241 3.57127 0
M  V30 1701 C 159.574 -3.63909 3.90392 0
M  V30 1702 O 159.797 -4.68996 3.24653 0
M  V30 1703 O 158.731 -3.58149 4.83749 0
M  V30 1704 H 162.557 -0.901279 2.90018 0
M  V30 1705 H 160.142 -0.380185 1.44482 0
M  V30 1706 H 162.024 -3.33292 2.57865 0
M  V30 1707 H 160.699 -2.88382 1.4703 0
M  V30 1708 H 159.606 -1.58431 3.38896 0
M  V30 1709 H 160.939 -2.10228 4.45045 0
M  V30 1710 N 162.591 -1.51276 -0.441967 0
M  V30 1711 C 163.819 -1.67516 -1.21434 0
M  V30 1712 C 164.234 -0.37055 -1.85128 0
M  V30 1713 O 163.591 0.650498 -1.70513 0
M  V30 1714 C 163.642 -2.78748 -2.30177 0
M  V30 1715 O 163.363 -4.04154 -1.69089 0
M  V30 1716 C 164.864 -3.06217 -3.20541 0
M  V30 1717 H 162.084 -0.562276 -0.366178 0
M  V30 1718 H 164.628 -1.97666 -0.524244 0
M  V30 1719 H 162.783 -2.5121 -2.94911 0
M  V30 1720 H 163.197 -4.65894 -2.40922 0
M  V30 1721 H 164.671 -3.8764 -3.92987 0
M  V30 1722 H 165.148 -2.18439 -3.81026 0
M  V30 1723 H 165.754 -3.35397 -2.61513 0
M  V30 1724 N 164.069 0.697108 -1.41344 0
M  V30 1725 C 165.001 1.8224 -1.39001 0
M  V30 1726 C 166.014 1.60152 -0.292428 0
M  V30 1727 O 167.203 1.69684 -0.554048 0
M  V30 1728 C 164.303 3.18976 -1.14489 0
M  V30 1729 C 163.476 3.68105 -2.36258 0
M  V30 1730 C 162.535 4.83506 -2.07625 0
M  V30 1731 O 161.561 4.95201 -2.8065 0
M  V30 1732 N 162.763 5.70637 -1.06555 0
M  V30 1733 H 165.528 1.84742 -2.35988 0
M  V30 1734 H 163.089 0.87937 -1.35936 0
M  V30 1735 H 165.081 3.93801 -0.932885 0
M  V30 1736 H 163.651 3.11508 -0.261043 0
M  V30 1737 H 162.871 2.84204 -2.7317 0
M  V30 1738 H 164.159 3.97667 -3.17393 0
M  V30 1739 H 163.557 5.63817 -0.461125 0
M  V30 1740 H 162.114 6.45368 -0.913444 0
M  V30 1741 N 165.547 1.27147 0.931209 0
M  V30 1742 C 166.958 1.12044 1.49342 0
M  V30 1743 C 167.309 -0.295795 1.93957 0
M  V30 1744 O 166.434 -1.18835 1.80852 0
M  V30 1745 C 167.029 2.02781 2.71414 0
M  V30 1746 C 165.588 1.91794 3.2387 0
M  V30 1747 C 164.735 1.95543 1.96617 0
M  V30 1748 H 167.686 1.40091 0.745672 0
M  V30 1749 H 167.707 1.58156 3.46074 0
M  V30 1750 H 167.219 3.05848 2.38911 0
M  V30 1751 H 165.32 0.916992 3.6114 0
M  V30 1752 H 165.433 2.77852 3.90302 0
M  V30 1753 H 163.797 1.39722 2.12955 0
M  V30 1754 H 164.58 3.00259 1.66432 0
M  V30 1755 N 167.025 -1.13721 1.09112 0
M  V30 1756 C 168.273 -1.84559 0.823562 0
M  V30 1757 C 168.594 -1.83754 -0.652658 0
M  V30 1758 O 167.864 -1.29102 -1.47342 0
M  V30 1759 H 166.444 -0.683376 0.301673 0
M  V30 1760 H 169.106 -1.37771 1.37859 0
M  V30 1761 H 168.202 -2.8917 1.17419 0
M  V30 1762 N 168.503 -0.877838 -1.30888 0
M  V30 1763 C 169.749 -0.493426 -1.96706 0
M  V30 1764 C 170.082 0.953504 -1.6918 0
M  V30 1765 O 169.357 1.67266 -0.992594 0
M  V30 1766 C 169.64 -0.760429 -3.51979 0
M  V30 1767 C 169.493 -2.25747 -3.89048 0
M  V30 1768 C 170.812 -0.232148 -4.39487 0
M  V30 1769 H 167.931 -0.180746 -0.714493 0
M  V30 1770 H 170.573 -1.10052 -1.54882 0
M  V30 1771 H 168.723 -0.243715 -3.87735 0
M  V30 1772 H 170.395 -2.84204 -3.63354 0
M  V30 1773 H 168.638 -2.72694 -3.37373 0
M  V30 1774 H 169.309 -2.39491 -4.97341 0
M  V30 1775 H 171.785 -0.674314 -4.106 0
M  V30 1776 H 170.661 -0.448355 -5.47066 0
M  V30 1777 H 170.922 0.866297 -4.33529 0
M  V30 1778 N 169.982 1.44106 -0.638065 0
M  V30 1779 C 171.398 1.56672 -0.304286 0
M  V30 1780 C 171.598 1.6244 1.19228 0
M  V30 1781 O 170.654 1.57121 1.9766 0
M  V30 1782 C 171.967 2.83503 -1.00231 0
M  V30 1783 C 173.515 2.97226 -0.981116 0
M  V30 1784 C 173.99 4.26868 -1.65974 0
M  V30 1785 N 175.481 4.33698 -1.62666 0
M  V30 1786 C 176.216 5.32745 -2.12063 0
M  V30 1787 N 175.712 6.38157 -2.6968 0
M  V30 1788 N 177.505 5.24299 -2.02651 0
M  V30 1789 H 169.656 1.38605 -1.60942 0
M  V30 1790 H 171.919 0.664661 -0.675965 0
M  V30 1791 H 171.625 2.85251 -2.0573 0
M  V30 1792 H 171.499 3.73251 -0.54439 0
M  V30 1793 H 173.886 2.95027 0.0654188 0
M  V30 1794 H 173.967 2.08808 -1.47759 0
M  V30 1795 H 173.611 4.29826 -2.70576 0
M  V30 1796 H 173.541 5.14156 -1.13804 0
M  V30 1797 H 176.032 3.58138 -1.20606 0
M  V30 1798 H 176.345 7.10029 -3.05087 0
M  V30 1799 H 174.69 6.38823 -2.73734 0
M  V30 1800 H 177.881 4.4086 -1.57353 0
M  V30 1801 H 178.054 6.01334 -2.41457 0
M  V30 1802 N 171.46 0.379036 1.52974 0
M  V30 1803 C 172.7 -0.206325 2.03356 0
M  V30 1804 C 173.064 -1.44892 1.25977 0
M  V30 1805 O 174.265 -2.11078 1.66432 0
M  V30 1806 C 172.536 -0.477887 3.54191 0
M  V30 1807 S 174.095 -1.035 4.26419 0
M  V30 1808 H 170.913 -0.0590259 0.708546 0
M  V30 1809 H 173.515 0.525013 1.88319 0
M  V30 1810 H 172.219 0.433745 4.08101 0
M  V30 1811 H 171.75 -1.23793 3.73415 0
M  V30 1812 H 173.765 -2.31821 4.38718 0
M  V30 1813 N 172.938 -1.57226 0.108567 0
M  V30 1814 C 173.87 -2.11809 -0.875752 0
M  V30 1815 C 174.883 -1.05839 -1.23701 0
M  V30 1816 O 176.072 -1.33245 -1.18778 0
M  V30 1817 C 173.172 -2.59411 -2.18081 0
M  V30 1818 C 172.345 -3.89364 -1.99284 0
M  V30 1819 C 171.404 -4.22672 -3.13424 0
M  V30 1820 O 170.43 -4.91668 -2.86795 0
M  V30 1821 N 171.632 -3.79154 -4.3957 0
M  V30 1822 H 174.397 -2.9689 -0.409477 0
M  V30 1823 H 171.958 -1.61721 -0.076158 0
M  V30 1824 H 173.95 -2.7873 -2.93414 0
M  V30 1825 H 172.52 -1.79268 -2.5609 0
M  V30 1826 H 171.74 -3.79059 -1.08203 0
M  V30 1827 H 173.028 -4.74358 -1.84017 0
M  V30 1828 H 172.426 -3.23486 -4.64083 0
M  V30 1829 H 170.983 -4.03602 -5.11809 0
M  V30 1830 N 174.416 0.165178 -1.56732 0
M  V30 1831 C 175.348 1.22911 -1.93457 0
M  V30 1832 C 176.361 1.40152 -0.828333 0
M  V30 1833 O 177.55 1.40046 -1.10677 0
M  V30 1834 C 174.65 2.59686 -2.17753 0
M  V30 1835 C 173.823 2.63663 -3.48999 0
M  V30 1836 C 172.882 3.81845 -3.62051 0
M  V30 1837 O 171.908 3.67559 -4.34613 0
M  V30 1838 N 173.11 4.98557 -2.97357 0
M  V30 1839 H 175.875 0.917118 -2.85323 0
M  V30 1840 H 173.436 0.354895 -1.57962 0
M  V30 1841 H 175.428 3.37225 -2.23743 0
M  V30 1842 H 173.998 2.83251 -1.32242 0
M  V30 1843 H 173.218 1.72173 -3.54612 0
M  V30 1844 H 174.506 2.63336 -4.35352 0
M  V30 1845 H 173.904 5.13065 -2.38287 0
M  V30 1846 H 172.461 5.73936 -3.08934 0
M  V30 1847 N 175.894 1.51508 0.433938 0
M  V30 1848 C 177.14 1.64588 1.18484 0
M  V30 1849 C 177.473 0.362666 1.90784 0
M  V30 1850 O 176.748 -0.637892 1.83742 0
M  V30 1851 C 177.031 2.85149 2.19913 0
M  V30 1852 C 176.884 4.23456 1.51674 0
M  V30 1853 C 178.203 3.01227 3.20858 0
M  V30 1854 H 175.322 0.598994 0.429389 0
M  V30 1855 H 177.964 1.84002 0.473647 0
M  V30 1856 H 176.114 2.68729 2.80566 0
M  V30 1857 H 177.786 4.51552 0.943322 0
M  V30 1858 H 176.029 4.25998 0.819035 0
M  V30 1859 H 176.7 5.03812 2.2556 0
M  V30 1860 H 179.176 3.16382 2.70263 0
M  V30 1861 H 178.052 3.87141 3.89118 0
M  V30 1862 H 178.313 2.13447 3.8716 0
M  V30 1863 N 177.372 -0.689602 1.41712 0
M  V30 1864 C 178.6 -1.47827 1.44758 0
M  V30 1865 C 179.015 -1.88721 0.0545703 0
M  V30 1866 O 178.372 -1.57176 -0.927463 0
M  V30 1867 C 178.423 -2.73698 2.3616 0
M  V30 1868 O 178.144 -2.34524 3.7004 0
M  V30 1869 C 179.645 -3.67389 2.48072 0
M  V30 1870 H 176.865 -0.455357 0.49284 0
M  V30 1871 H 179.409 -0.848574 1.86063 0
M  V30 1872 H 177.564 -3.32891 1.98148 0
M  V30 1873 H 177.978 -3.15701 4.18847 0
M  V30 1874 H 179.452 -4.52475 3.16181 0
M  V30 1875 H 179.929 -4.12284 1.51388 0
M  V30 1876 H 180.535 -3.14097 2.86746 0
M  V30 1877 N 178.85 -1.27639 -0.924453 0
M  V30 1878 C 180.266 -1.05113 -1.20097 0
M  V30 1879 C 180.466 0.213262 -2.00368 0
M  V30 1880 O 179.522 0.91787 -2.35226 0
M  V30 1881 C 180.835 -2.29244 -1.94596 0
M  V30 1882 C 182.383 -2.34315 -2.07522 0
M  V30 1883 C 182.858 -3.58183 -2.85427 0
M  V30 1884 N 184.349 -3.5876 -2.92994 0
M  V30 1885 C 185.084 -4.51277 -3.53746 0
M  V30 1886 N 184.58 -5.54102 -4.15863 0
M  V30 1887 N 186.373 -4.38894 -3.51181 0
M  V30 1888 H 178.524 -2.08821 -0.388264 0
M  V30 1889 H 180.787 -0.918568 -0.234385 0
M  V30 1890 H 180.493 -3.21301 -1.43034 0
M  V30 1891 H 180.367 -2.34816 -2.95197 0
M  V30 1892 H 182.754 -1.42762 -2.58269 0
M  V30 1893 H 182.835 -2.32744 -1.06131 0
M  V30 1894 H 182.479 -4.50074 -2.35363 0
M  V30 1895 H 182.409 -3.57006 -3.8711 0
M  V30 1896 H 184.9 -2.84398 -2.4885 0
M  V30 1897 H 185.213 -6.20859 -4.60168 0
M  V30 1898 H 183.558 -5.57941 -4.144 0
M  V30 1899 H 186.749 -3.57772 -3.01856 0
M  V30 1900 H 186.922 -5.11186 -3.98237 0
M  V30 1901 N 180.328 1.1314 -1.09713 0
M  V30 1902 C 181.739 1.66029 -0.853885 0
M  V30 1903 C 182.09 1.86241 0.617142 0
M  V30 1904 O 181.215 1.5834 1.47503 0
M  V30 1905 C 181.81 3.01599 -1.5435 0
M  V30 1906 C 180.369 3.51467 -1.34714 0
M  V30 1907 C 179.516 2.26648 -1.59769 0
M  V30 1908 H 182.467 0.970226 -1.25588 0
M  V30 1909 H 182.488 3.67709 -0.978267 0
M  V30 1910 H 182 2.86856 -2.6141 0
M  V30 1911 H 180.101 3.71408 -0.297838 0
M  V30 1912 H 180.214 4.314 -2.08401 0
M  V30 1913 H 178.578 2.33385 -1.01998 0
M  V30 1914 H 179.361 2.14467 -2.68065 0
M  V30 1915 N 181.806 0.884767 1.30421 0
M  V30 1916 C 183.052 0.503851 1.96441 0
M  V30 1917 C 183.385 -0.944518 1.69684 0
M  V30 1918 O 182.66 -1.66737 1.00145 0
M  V30 1919 C 182.943 0.779085 3.51571 0
M  V30 1920 C 182.796 2.27807 3.87846 0
M  V30 1921 C 184.115 0.255452 4.39358 0
M  V30 1922 H 181.234 0.184533 0.713524 0
M  V30 1923 H 183.876 1.10872 1.54297 0
M  V30 1924 H 182.026 0.264274 3.876 0
M  V30 1925 H 183.698 2.86127 3.61841 0
M  V30 1926 H 181.941 2.74479 3.35922 0
M  V30 1927 H 182.612 2.42125 4.96064 0
M  V30 1928 H 185.088 0.696079 4.10236 0
M  V30 1929 H 183.964 0.477361 5.4682 0
M  V30 1930 H 184.225 -0.843293 4.33983 0
M  V30 1931 N 183.284 -1.43765 0.645699 0
M  V30 1932 C 184.247 -2.29163 -0.0409488 0
M  V30 1933 C 185.247 -1.41813 -0.757996 0
M  V30 1934 O 186.437 -1.63527 -0.600382 0
M  V30 1935 C 183.569 -3.23716 -1.06869 0
M  V30 1936 H 184.762 -2.91366 0.710345 0
M  V30 1937 H 182.315 -1.5092 0.406547 0
M  V30 1938 H 183.05 -2.66393 -1.84947 0
M  V30 1939 H 182.835 -3.88105 -0.558277 0
M  V30 1940 H 184.325 -3.87831 -1.54845 0
M  V30 1941 N 184.763 -0.387143 -1.52771 0
M  V30 1942 C 185.988 0.198407 -2.06449 0
M  V30 1943 C 186.413 1.39918 -1.25716 0
M  V30 1944 O 185.771 1.79099 -0.281657 0
M  V30 1945 C 185.819 0.548893 -3.56398 0
M  V30 1946 O 184.923 1.64315 -3.78252 0
M  V30 1947 H 184.264 0.0237731 -0.663574 0
M  V30 1948 H 186.794 -0.553989 -1.96957 0
M  V30 1949 H 186.804 0.813812 -3.99801 0
M  V30 1950 H 185.479 -0.329005 -4.14597 0
M  V30 1951 H 184.056 1.37211 -3.46738 0
M  V30 1952 N 186.241 1.57166 -0.116904 0
M  V30 1953 C 187.487 1.95412 0.542405 0
M  V30 1954 C 187.82 1.00019 1.66463 0
M  V30 1955 O 187.095 0.0370346 1.94465 0
M  V30 1956 C 187.378 3.43615 1.07708 0
M  V30 1957 C 187.231 4.49781 -0.0415868 0
M  V30 1958 C 188.55 3.93616 1.96861 0
M  V30 1959 H 185.669 0.710543 0.195696 0
M  V30 1960 H 188.311 1.89027 -0.192038 0
M  V30 1961 H 186.461 3.49187 1.70296 0
M  V30 1962 H 188.133 4.56308 -0.676793 0
M  V30 1963 H 186.376 4.28033 -0.705019 0
M  V30 1964 H 187.047 5.50733 0.373717 0
M  V30 1965 H 189.523 3.90335 1.44146 0
M  V30 1966 H 188.399 4.97838 2.3119 0
M  V30 1967 H 188.66 3.34188 2.89432 0
M  V30 1968 N 187.719 -0.156864 1.56817 0
M  V30 1969 C 188.967 -0.869404 1.82444 0
M  V30 1970 C 189.288 -1.82147 0.69623 0
M  V30 1971 O 188.558 -1.93847 -0.28287 0
M  V30 1972 H 187.138 -0.324043 0.673056 0
M  V30 1973 H 189.8 -0.153224 1.94297 0
M  V30 1974 H 188.896 -1.43761 2.77019 0
M  V30 1975 N 189.197 -1.51736 -0.425897 0
M  V30 1976 C 190.127 -1.76827 -1.52494 0
M  V30 1977 C 191.108 -0.618524 -1.58456 0
M  V30 1978 O 192.293 -0.862416 -1.74 0
M  V30 1979 C 189.423 -1.90374 -2.90474 0
M  V30 1980 C 188.377 -3.0588 -2.99369 0
M  V30 1981 C 187.703 -3.04625 -4.3944 0
M  V30 1982 C 189.003 -4.45644 -2.72394 0
M  V30 1983 H 190.697 -2.68855 -1.31748 0
M  V30 1984 H 188.243 -1.29372 -0.632362 0
M  V30 1985 H 190.196 -2.0651 -3.6733 0
M  V30 1986 H 188.92 -0.95004 -3.12477 0
M  V30 1987 H 187.579 -2.89467 -2.24954 0
M  V30 1988 H 187.227 -2.0701 -4.58428 0
M  V30 1989 H 186.927 -3.82195 -4.46319 0
M  V30 1990 H 188.451 -3.22869 -5.18255 0
M  V30 1991 H 189.865 -4.62348 -3.38979 0
M  V30 1992 H 188.262 -5.25006 -2.9067 0
M  V30 1993 H 189.332 -4.54893 -1.67929 0
M  V30 1994 N 190.675 0.682077 -1.42076 0
M  V30 1995 C 191.905 1.46844 -1.45329 0
M  V30 1996 C 192.313 1.89102 -0.0609328 0
M  V30 1997 O 191.656 1.58238 0.933082 0
M  V30 1998 C 191.718 2.75375 -2.31104 0
M  V30 1999 C 191.382 2.55238 -3.79081 0
M  V30 2000 C 192.379 2.20309 -4.70914 0
M  V30 2001 C 190.064 2.70459 -4.2327 0
M  V30 2002 C 192.058 2.00859 -6.04925 0
M  V30 2003 C 189.745 2.50624 -5.57343 0
M  V30 2004 C 190.743 2.15876 -6.47986 0
M  V30 2005 O 190.431 1.96227 -7.79583 0
M  V30 2006 H 190.163 0.4586 -0.496651 0
M  V30 2007 H 192.717 0.846131 -1.87162 0
M  V30 2008 H 190.947 3.40061 -1.84107 0
M  V30 2009 H 192.636 3.37231 -2.25898 0
M  V30 2010 H 193.402 2.08153 -4.38061 0
M  V30 2011 H 189.281 2.96485 -3.53012 0
M  V30 2012 H 192.825 1.7366 -6.75639 0
M  V30 2013 H 188.722 2.62375 -5.89771 0
M  V30 2014 H 189.49 2.10883 -7.90867 0
M  V30 2015 N 192.153 1.28127 0.917671 0
M  V30 2016 C 193.402 1.14432 1.66097 0
M  V30 2017 C 193.715 -0.307247 1.93172 0
M  V30 2018 O 194.921 -0.565259 2.65551 0
M  V30 2019 C 193.377 2.00015 2.99202 0
M  V30 2020 C 192.985 3.49889 2.79789 0
M  V30 2021 C 194.729 1.94996 3.77064 0
M  V30 2022 C 192.636 4.27636 4.08511 0
M  V30 2023 H 191.566 0.424662 0.62304 0
M  V30 2024 H 194.217 1.52628 1.01868 0
M  V30 2025 H 192.599 1.54672 3.64544 0
M  V30 2026 H 193.773 4.03162 2.23152 0
M  V30 2027 H 192.088 3.56392 2.15345 0
M  V30 2028 H 194.685 2.50354 4.72469 0
M  V30 2029 H 195.028 0.925819 4.05875 0
M  V30 2030 H 195.561 2.38287 3.18534 0
M  V30 2031 H 192.3 5.30615 3.84874 0
M  V30 2032 H 191.82 3.79137 4.64774 0
M  V30 2033 H 193.499 4.37346 4.76799 0
M  V30 2034 N 193.631 -1.12557 1.10312 0
M  V30 2035 C 195.042 -1.65574 0.862678 0
M  V30 2036 C 195.393 -1.86566 -0.607256 0
M  V30 2037 O 194.518 -1.59121 -1.46662 0
M  V30 2038 C 195.113 -3.00776 1.55947 0
M  V30 2039 C 193.672 -3.50748 1.36576 0
M  V30 2040 C 192.819 -2.25797 1.60968 0
M  V30 2041 H 195.77 -0.963552 1.26101 0
M  V30 2042 H 195.791 -3.67185 0.997753 0
M  V30 2043 H 195.303 -2.85465 2.62928 0
M  V30 2044 H 193.404 -3.71245 0.317531 0
M  V30 2045 H 193.517 -4.30289 2.10686 0
M  V30 2046 H 191.881 -2.32841 1.03234 0
M  V30 2047 H 192.664 -2.13043 2.69198 0
M  V30 2048 N 195.109 -0.891671 -1.2995 0
M  V30 2049 C 196.357 -0.512486 -1.95494 0
M  V30 2050 C 196.678 0.942776 -1.70695 0
M  V30 2051 O 195.948 1.66374 -1.03424 0
M  V30 2052 H 194.528 -0.186533 -0.723336 0
M  V30 2053 H 197.19 -1.13621 -1.58355 0
M  V30 2054 H 196.286 -0.688342 -3.04415 0
M  V30 2055 N 196.587 1.43421 -0.653314 0
M  V30 2056 C 197.835 2.01414 -0.166415 0
M  V30 2057 C 198.156 1.51803 1.22397 0
M  V30 2058 O 197.426 0.730693 1.81763 0
M  V30 2059 H 196.006 0.744703 -0.0585319 0
M  V30 2060 H 198.668 1.75629 -0.845003 0
M  V30 2061 H 197.764 3.11734 -0.151111 0
M  V30 2062 N 198.065 0.39524 1.52563 0
M  V30 2063 C 199.29 -0.187456 2.06551 0
M  V30 2064 C 199.715 -1.39249 1.26457 0
M  V30 2065 O 199.073 -1.78947 0.291151 0
M  V30 2066 C 199.121 -0.529985 3.56684 0
M  V30 2067 O 198.225 -1.62307 3.79118 0
M  V30 2068 H 197.566 -0.0202537 0.663691 0
M  V30 2069 H 200.096 0.564426 1.96661 0
M  V30 2070 H 200.106 -0.792598 4.00227 0
M  V30 2071 H 198.781 0.350987 4.14416 0
M  V30 2072 H 197.358 -1.3537 3.47461 0
M  V30 2073 N 199.544 -1.57102 0.125237 0
M  V30 2074 C 200.507 -2.14471 -0.80838 0
M  V30 2075 C 201.507 -1.0811 -1.19033 0
M  V30 2076 O 202.697 -1.33856 -1.11482 0
M  V30 2077 C 199.829 -2.69005 -2.09402 0
M  V30 2078 H 201.022 -2.98297 -0.309696 0
M  V30 2079 H 198.575 -1.55807 -0.124051 0
M  V30 2080 H 199.31 -1.88785 -2.63687 0
M  V30 2081 H 199.095 -3.46799 -1.82957 0
M  V30 2082 H 200.585 -3.13278 -2.76128 0
M  V30 2083 N 201.022 0.148545 -1.56898 0
M  V30 2084 C 202.433 0.708766 -1.72723 0
M  V30 2085 C 202.784 1.81734 -0.739395 0
M  V30 2086 O 201.909 2.16194 0.0943169 0
M  V30 2087 C 202.504 1.29245 -3.13179 0
M  V30 2088 C 201.063 1.79925 -3.30611 0
M  V30 2089 C 200.21 0.687111 -2.68652 0
M  V30 2090 H 203.161 -0.0771063 -1.58513 0
M  V30 2091 H 203.182 2.16224 -3.13093 0
M  V30 2092 H 202.694 0.485382 -3.85053 0
M  V30 2093 H 200.795 2.63203 -2.63732 0
M  V30 2094 H 200.908 1.92903 -4.38549 0
M  V30 2095 H 199.272 1.11335 -2.29078 0
M  V30 2096 H 200.055 -0.108483 -3.43129 0
M  V30 2097 N 202.5 1.5196 0.417844 0
M  V30 2098 C 203.43 1.77634 1.51554 0
M  V30 2099 C 204.411 0.626918 1.58126 0
M  V30 2100 O 205.596 0.871632 1.7354 0
M  V30 2101 C 202.726 1.91911 2.8946 0
M  V30 2102 C 201.68 3.07463 2.97743 0
M  V30 2103 C 201.006 3.06951 4.37819 0
M  V30 2104 C 202.306 4.47082 2.70027 0
M  V30 2105 H 204 2.6955 1.3032 0
M  V30 2106 H 201.546 1.29706 0.625492 0
M  V30 2107 H 203.499 2.08455 3.6623 0
M  V30 2108 H 202.223 0.966598 3.11969 0
M  V30 2109 H 200.882 2.90656 2.23416 0
M  V30 2110 H 200.53 2.09438 4.57323 0
M  V30 2111 H 200.23 3.84556 4.44286 0
M  V30 2112 H 201.754 3.25613 5.16535 0
M  V30 2113 H 203.168 4.6414 3.36522 0
M  V30 2114 H 201.565 5.2654 2.87881 0
M  V30 2115 H 202.635 4.55777 1.65514 0
M  V30 2116 N 203.978 -0.674533 1.42435 0
M  V30 2117 C 205.225 -1.43459 1.42919 0
M  V30 2118 C 205.553 -1.94446 0.0457312 0
M  V30 2119 O 204.808 -1.7132 -0.94593 0
M  V30 2120 C 205.107 -2.64767 2.40069 0
M  V30 2121 C 204.773 -2.3232 3.86443 0
M  V30 2122 C 203.435 -2.23182 4.26314 0
M  V30 2123 C 205.787 -2.05977 4.78773 0
M  V30 2124 C 203.115 -1.85827 5.56494 0
M  V30 2125 C 205.467 -1.70125 6.09295 0
M  V30 2126 C 204.131 -1.59498 6.48164 0
M  V30 2127 H 203.401 -0.524952 0.522978 0
M  V30 2128 H 206.048 -0.769097 1.75377 0
M  V30 2129 H 204.353 -3.36349 2.00939 0
M  V30 2130 H 206.05 -3.22949 2.37707 0
M  V30 2131 H 202.64 -2.40334 3.54877 0
M  V30 2132 H 206.824 -2.11969 4.48757 0
M  V30 2133 H 202.08 -1.76168 5.8547 0
M  V30 2134 H 206.254 -1.48767 6.80324 0
M  V30 2135 H 203.881 -1.30322 7.48946 0
M  V30 2136 N 205.456 -1.28612 -0.910864 0
M  V30 2137 C 206.681 -1.1891 -1.69927 0
M  V30 2138 C 207.106 0.248372 -1.86453 0
M  V30 2139 O 206.464 1.17961 -1.37676 0
M  V30 2140 C 206.512 -1.89578 -3.06745 0
M  V30 2141 O 205.616 -1.20521 -3.94396 0
M  V30 2142 H 204.957 -0.412632 -0.520222 0
M  V30 2143 H 207.487 -1.69985 -1.1387 0
M  V30 2144 H 207.497 -1.97597 -3.56958 0
M  V30 2145 H 206.172 -2.94136 -2.94035 0
M  V30 2146 H 204.749 -1.20684 -3.52831 0
M  V30 2147 N 206.934 1.1197 -1.10907 0
M  V30 2148 C 208.162 1.87402 -0.876824 0
M  V30 2149 C 208.577 1.79894 0.573025 0
M  V30 2150 O 207.934 1.17629 1.39534 0
M  V30 2151 C 207.985 3.36428 -1.32282 0
M  V30 2152 O 207.706 3.43765 -2.71582 0
M  V30 2153 C 209.207 4.28783 -1.12518 0
M  V30 2154 H 206.427 0.592793 -0.314384 0
M  V30 2155 H 208.971 1.41649 -1.47499 0
M  V30 2156 H 207.126 3.79706 -0.768229 0
M  V30 2157 H 207.54 4.3652 -2.90776 0
M  V30 2158 H 209.014 5.31613 -1.48633 0
M  V30 2159 H 209.491 4.39153 -0.0642394 0
M  V30 2160 H 210.097 3.91291 -1.66648 0
M  V30 2161 N 208.412 0.89855 1.29475 0
M  V30 2162 C 209.658 0.524658 1.95896 0
M  V30 2163 C 209.991 -0.926468 1.70676 0
M  V30 2164 O 209.266 -1.65665 1.01908 0
M  V30 2165 C 209.549 0.81633 3.50725 0
M  V30 2166 C 209.402 2.31907 3.85408 0
M  V30 2167 C 210.721 0.302038 4.39062 0
M  V30 2168 H 207.84 0.19209 0.711527 0
M  V30 2169 H 210.482 1.12502 1.53112 0
M  V30 2170 H 208.632 0.305369 3.87298 0
M  V30 2171 H 210.304 2.89949 3.58786 0
M  V30 2172 H 208.547 2.78027 3.32992 0
M  V30 2173 H 209.218 2.47373 4.93468 0
M  V30 2174 H 211.694 0.739551 4.09475 0
M  V30 2175 H 210.57 0.535331 5.46283 0
M  V30 2176 H 210.831 -0.797216 4.34853 0
M  V30 2177 N 209.89 -1.43072 0.660911 0
M  V30 2178 C 210.82 -2.33497 -0.0122829 0
M  V30 2179 C 211.801 -1.49903 -0.803925 0
M  V30 2180 O 212.986 -1.78546 -0.763864 0
M  V30 2181 C 210.116 -3.33363 -0.973994 0
M  V30 2182 C 209.07 -4.27003 -0.291928 0
M  V30 2183 C 208.396 -5.16967 -1.36562 0
M  V30 2184 C 209.696 -5.15816 0.820462 0
M  V30 2185 H 211.39 -2.90038 0.742873 0
M  V30 2186 H 208.936 -1.39461 0.358688 0
M  V30 2187 H 210.889 -3.95524 -1.45392 0
M  V30 2188 H 209.613 -2.75095 -1.7604 0
M  V30 2189 H 208.272 -3.66217 0.167623 0
M  V30 2190 H 207.92 -4.55034 -2.14366 0
M  V30 2191 H 207.62 -5.80441 -0.914454 0
M  V30 2192 H 209.144 -5.82003 -1.84675 0
M  V30 2193 H 210.558 -5.71742 0.422366 0
M  V30 2194 H 208.955 -5.8805 1.19656 0
M  V30 2195 H 210.025 -4.55045 1.67518 0
M  V30 2196 N 211.368 -0.403325 -1.52352 0
M  V30 2197 C 212.301 0.469463 -2.23319 0
M  V30 2198 C 213.279 1.05272 -1.23922 0
M  V30 2199 O 214.463 1.10169 -1.52954 0
M  V30 2200 C 211.59 1.6511 -2.9573 0
M  V30 2201 C 210.636 1.19178 -4.0951 0
M  V30 2202 S 211.469 0.161718 -5.35256 0
M  V30 2203 C 212.625 1.34882 -6.11194 0
M  V30 2204 H 212.858 -0.133134 -2.97002 0
M  V30 2205 H 210.391 -0.187588 -1.53256 0
M  V30 2206 H 212.349 2.3287 -3.38056 0
M  V30 2207 H 211.01 2.22503 -2.21701 0
M  V30 2208 H 210.203 2.07444 -4.59329 0
M  V30 2209 H 209.805 0.592911 -3.6927 0
M  V30 2210 H 212.097 2.27345 -6.38217 0
M  V30 2211 H 213.04 0.89128 -7.02468 0
M  V30 2212 H 213.448 1.57198 -5.42171 0
M  V30 2213 N 212.846 1.57033 -0.133567 0
M  V30 2214 C 213.776 2.1909 0.807567 0
M  V30 2215 C 214.757 1.13517 1.26681 0
M  V30 2216 O 215.942 1.41809 1.32679 0
M  V30 2217 C 213.072 2.80188 2.05212 0
M  V30 2218 C 212.026 3.91471 1.73015 0
M  V30 2219 C 211.352 4.39443 3.04622 0
M  V30 2220 C 212.652 5.12886 0.987168 0
M  V30 2221 H 214.346 2.97988 0.290403 0
M  V30 2222 H 211.892 1.43335 0.138239 0
M  V30 2223 H 213.845 3.22264 2.71521 0
M  V30 2224 H 212.569 1.98601 2.59278 0
M  V30 2225 H 211.228 3.49993 1.0909 0
M  V30 2226 H 210.876 3.54695 3.56651 0
M  V30 2227 H 210.576 5.14495 2.83847 0
M  V30 2228 H 212.1 4.8418 3.72024 0
M  V30 2229 H 213.514 5.51891 1.55208 0
M  V30 2230 H 211.911 5.93615 0.87985 0
M  V30 2231 H 212.981 4.84894 -0.0235286 0
M  V30 2232 N 214.325 -0.140222 1.56975 0
M  V30 2233 C 215.288 -1.15689 1.97861 0
M  V30 2234 C 216.288 -1.3549 0.865974 0
M  V30 2235 O 217.478 -1.32367 1.13246 0
M  V30 2236 C 214.61 -2.51582 2.30042 0
M  V30 2237 H 215.803 -0.805971 2.88867 0
M  V30 2238 H 213.356 -0.383801 1.51515 0
M  V30 2239 H 214.091 -2.91632 1.41849 0
M  V30 2240 H 213.876 -2.38569 3.11171 0
M  V30 2241 H 215.366 -3.24792 2.62488 0
M  V30 2242 N 215.803 -1.52179 -0.40978 0
M  V30 2243 C 217.031 -1.70054 -1.17853 0
M  V30 2244 C 217.446 -0.409735 -1.843 0
M  V30 2245 O 216.803 0.614183 -1.71855 0
M  V30 2246 C 216.854 -2.83568 -2.24213 0
M  V30 2247 O 216.575 -4.0765 -1.60478 0
M  V30 2248 C 218.076 -3.12947 -3.13973 0
M  V30 2249 H 215.296 -0.569917 -0.354169 0
M  V30 2250 H 217.84 -1.98734 -0.482198 0
M  V30 2251 H 215.995 -2.57409 -2.89516 0
M  V30 2252 H 216.409 -4.70899 -2.30986 0
M  V30 2253 H 217.883 -3.95889 -3.84677 0
M  V30 2254 H 218.36 -2.26472 -3.76307 0
M  V30 2255 H 218.966 -3.40868 -2.5434 0
M  V30 2256 N 217.281 0.66697 -1.42791 0
M  V30 2257 C 218.692 1.2478 -1.38877 0
M  V30 2258 C 219.043 1.96012 -0.0859426 0
M  V30 2259 O 218.168 2.00463 0.815081 0
M  V30 2260 C 218.763 2.26938 -2.51564 0
M  V30 2261 C 217.322 2.80529 -2.50959 0
M  V30 2262 C 216.469 1.54965 -2.29959 0
M  V30 2263 H 219.42 0.459853 -1.51892 0
M  V30 2264 H 219.441 3.08834 -2.22265 0
M  V30 2265 H 218.953 1.75065 -3.46372 0
M  V30 2266 H 217.054 3.36502 -1.59991 0
M  V30 2267 H 217.167 3.29012 -3.48265 0
M  V30 2268 H 215.531 1.81817 -1.78366 0
M  V30 2269 H 216.314 1.05047 -3.26833 0
M  V30 2270 N 218.759 1.29093 0.90403 0
M  V30 2271 C 219.722 1.1386 1.98919 0
M  V30 2272 C 220.722 0.0753457 1.60623 0
M  V30 2273 O 221.912 0.321931 1.71199 0
M  V30 2274 C 219.044 0.740198 3.32767 0
M  V30 2275 H 220.237 2.10246 2.13861 0
M  V30 2276 H 217.79 1.12218 1.08797 0
M  V30 2277 H 218.525 -0.223997 3.23525 0
M  V30 2278 H 218.31 1.50838 3.61926 0
M  V30 2279 H 219.8 0.656546 4.12407 0
M  V30 2280 N 220.237 -1.11381 1.11499 0
M  V30 2281 C 221.462 -1.87475 0.887019 0
M  V30 2282 C 221.887 -1.79639 -0.557796 0
M  V30 2283 O 221.245 -1.15924 -1.39396 0
M  V30 2284 C 221.293 -3.34213 1.35403 0
M  V30 2285 O 220.397 -4.0903 0.526146 0
M  V30 2286 H 219.738 -0.582099 0.319463 0
M  V30 2287 H 222.268 -1.40785 1.48461 0
M  V30 2288 H 222.278 -3.8506 1.34881 0
M  V30 2289 H 220.953 -3.39232 2.40612 0
M  V30 2290 H 219.53 -3.68082 0.597522 0
M  V30 2291 N 221.715 -0.905404 -1.28997 0
M  V30 2292 C 222.964 -0.530191 -1.94607 0
M  V30 2293 C 223.277 0.929185 -1.72121 0
M  V30 2294 O 224.483 1.41218 -2.31883 0
M  V30 2295 C 222.939 -0.897333 -3.48534 0
M  V30 2296 C 222.547 -2.37587 -3.79811 0
M  V30 2297 C 224.291 -0.592304 -4.20347 0
M  V30 2298 C 222.198 -2.68357 -5.27009 0
M  V30 2299 H 221.128 -0.194558 -0.728466 0
M  V30 2300 H 223.779 -1.10318 -1.46636 0
M  V30 2301 H 222.161 -0.253214 -3.9519 0
M  V30 2302 H 223.335 -3.06602 -3.43994 0
M  V30 2303 H 221.65 -2.6505 -3.2115 0
M  V30 2304 H 224.247 -0.798975 -5.28697 0
M  V30 2305 H 224.59 0.469474 -4.13644 0
M  V30 2306 H 225.123 -1.19452 -3.79442 0
M  V30 2307 H 221.862 -3.73355 -5.38782 0
M  V30 2308 H 221.382 -2.03971 -5.64053 0
M  V30 2309 H 223.061 -2.54922 -5.94663 0
M  V30 2310 N 223.193 1.4272 -0.668489 0
M  V30 2311 C 224.156 2.292 0.00448567 0
M  V30 2312 C 225.156 1.43001 0.735339 0
M  V30 2313 O 226.346 1.64461 0.57429 0
M  V30 2314 C 223.478 3.25375 1.01705 0
M  V30 2315 H 224.671 2.90199 -0.756608 0
M  V30 2316 H 222.224 1.50254 -0.430506 0
M  V30 2317 H 222.959 2.69301 1.80686 0
M  V30 2318 H 222.744 3.88944 0.496463 0
M  V30 2319 H 224.234 3.90245 1.48655 0
M  V30 2320 N 224.671 0.411399 1.52136 0
M  V30 2321 C 225.919 -0.163322 2.01439 0
M  V30 2322 C 226.24 -1.45453 1.29879 0
M  V30 2323 O 225.51 -1.91225 0.4254 0
M  V30 2324 H 224.09 -0.0633447 0.744309 0
M  V30 2325 H 226.752 0.548161 1.87033 0
M  V30 2326 H 225.848 -0.357817 3.10042 0
M  V30 2327 N 226.149 -1.5696 0.141893 0
M  V30 2328 C 227.389 -1.9785 -0.513304 0
M  V30 2329 C 227.753 -1.02467 -1.62371 0
M  V30 2330 O 228.954 -1.32382 -2.33941 0
M  V30 2331 C 227.225 -3.42797 -1.01118 0
M  V30 2332 S 228.784 -4.05709 -1.67169 0
M  V30 2333 H 225.602 -0.691318 -0.166135 0
M  V30 2334 H 228.204 -1.94114 0.232398 0
M  V30 2335 H 226.908 -4.0995 -0.192179 0
M  V30 2336 H 226.439 -3.50235 -1.79162 0
M  V30 2337 H 228.454 -3.98342 -2.95868 0
M  V30 2338 N 227.627 0.131896 -1.57047 0
M  V30 2339 C 228.574 1.16236 -1.99393 0
M  V30 2340 C 229.544 1.41863 -0.863943 0
M  V30 2341 O 230.729 1.53946 -1.12718 0
M  V30 2342 C 227.869 2.48708 -2.39245 0
M  V30 2343 C 226.982 2.30127 -3.65603 0
M  V30 2344 C 226.117 3.55738 -3.94492 0
M  V30 2345 C 225.156 3.32259 -5.14073 0
M  V30 2346 N 224.293 4.50039 -5.38896 0
M  V30 2347 H 229.133 0.794251 -2.87221 0
M  V30 2348 H 226.67 0.380707 -1.42088 0
M  V30 2349 H 228.628 3.25969 -2.60384 0
M  V30 2350 H 227.258 2.83437 -1.54478 0
M  V30 2351 H 226.31 1.43845 -3.52154 0
M  V30 2352 H 227.622 2.08746 -4.5302 0
M  V30 2353 H 226.776 4.41423 -4.1621 0
M  V30 2354 H 225.515 3.80138 -3.05526 0
M  V30 2355 H 224.52 2.44963 -4.92212 0
M  V30 2356 H 225.745 3.09242 -6.04604 0
M  V30 2357 H 223.691 4.74584 -4.52886 0
M  V30 2358 H 223.608 4.31716 -6.2061 0
M  V30 2359 H 224.876 5.36895 -5.65123 0
M  V30 2360 N 229.106 1.52395 0.401703 0
M  V30 2361 C 230.053 1.76268 1.48991 0
M  V30 2362 C 231.023 0.605386 1.54675 0
M  V30 2363 O 232.208 0.843742 1.7113 0
M  V30 2364 C 229.348 1.92592 2.86361 0
M  V30 2365 C 228.461 3.20259 2.89928 0
M  V30 2366 C 227.596 3.26972 4.18644 0
M  V30 2367 C 226.635 4.48812 4.16214 0
M  V30 2368 N 225.772 4.52877 5.36514 0
M  V30 2369 H 230.612 2.6914 1.27935 0
M  V30 2370 H 228.149 1.33355 0.620871 0
M  V30 2371 H 230.107 2.0004 3.66115 0
M  V30 2372 H 228.737 1.03093 3.05895 0
M  V30 2373 H 227.789 3.21945 2.02621 0
M  V30 2374 H 229.101 4.10056 2.83999 0
M  V30 2375 H 228.255 3.33533 5.06794 0
M  V30 2376 H 226.994 2.35126 4.27278 0
M  V30 2377 H 225.999 4.4239 3.26453 0
M  V30 2378 H 227.224 5.41961 4.09213 0
M  V30 2379 H 225.17 3.63917 5.45802 0
M  V30 2380 H 225.087 5.36529 5.32609 0
M  V30 2381 H 226.355 4.63676 6.26597 0
M  V30 2382 N 230.584 -0.659388 1.43143 0
M  V30 2383 C 231.83 -1.42145 1.44647 0
M  V30 2384 C 232.163 -1.9408 0.0681907 0
M  V30 2385 O 231.438 -1.71899 -0.910007 0
M  V30 2386 C 231.721 -2.60735 2.48373 0
M  V30 2387 C 231.574 -2.14332 3.95451 0
M  V30 2388 C 232.893 -3.62951 2.48906 0
M  V30 2389 H 230.012 -0.51552 0.526696 0
M  V30 2390 H 232.654 -0.748069 1.74654 0
M  V30 2391 H 230.804 -3.18184 2.22916 0
M  V30 2392 H 232.476 -1.61932 4.31944 0
M  V30 2393 H 230.719 -1.4576 4.08578 0
M  V30 2394 H 231.39 -2.99583 4.63631 0
M  V30 2395 H 233.866 -3.1525 2.71582 0
M  V30 2396 H 232.742 -4.43487 3.23435 0
M  V30 2397 H 233.003 -4.15126 1.52061 0
M  V30 2398 N 232.062 -1.29571 -0.897171 0
M  V30 2399 C 233.308 -1.17863 -1.65034 0
M  V30 2400 C 233.641 0.268729 -1.92332 0
M  V30 2401 O 232.916 1.19378 -1.53555 0
M  V30 2402 C 233.199 -1.995 -2.99786 0
M  V30 2403 C 233.052 -3.5239 -2.79538 0
M  V30 2404 C 234.371 -1.82335 -4.00552 0
M  V30 2405 H 231.49 -0.429528 -0.598895 0
M  V30 2406 H 234.132 -1.59072 -1.03905 0
M  V30 2407 H 232.282 -1.64485 -3.51962 0
M  V30 2408 H 233.954 -3.97401 -2.34244 0
M  V30 2409 H 232.197 -3.77187 -2.14273 0
M  V30 2410 H 232.868 -4.04787 -3.75302 0
M  V30 2411 H 235.344 -2.12924 -3.57495 0
M  V30 2412 H 234.22 -2.41801 -4.92771 0
M  V30 2413 H 234.481 -0.779209 -4.35179 0
M  V30 2414 N 233.54 1.10788 -1.12088 0
M  V30 2415 C 234.47 2.19083 -0.807755 0
M  V30 2416 C 235.451 1.6858 0.226859 0
M  V30 2417 O 236.636 1.93997 0.0888475 0
M  V30 2418 C 233.766 3.46344 -0.257576 0
M  V30 2419 C 232.72 4.101 -1.22483 0
M  V30 2420 C 232.046 5.32016 -0.535052 0
M  V30 2421 C 233.346 4.54236 -2.57811 0
M  V30 2422 H 235.04 2.45534 -1.71328 0
M  V30 2423 H 232.586 1.1801 -0.825205 0
M  V30 2424 H 234.539 4.21392 -0.0262679 0
M  V30 2425 H 233.263 3.19373 0.683278 0
M  V30 2426 H 231.922 3.37054 -1.44189 0
M  V30 2427 H 231.57 5.01319 0.410827 0
M  V30 2428 H 231.27 5.75625 -1.18024 0
M  V30 2429 H 232.794 6.09799 -0.312695 0
M  V30 2430 H 234.208 5.20575 -2.40155 0
M  V30 2431 H 232.605 5.08682 -3.18375 0
M  V30 2432 H 233.675 3.6734 -3.16528 0
M  V30 2433 N 235.018 0.912232 1.28515 0
M  V30 2434 C 236.258 0.551677 1.96814 0
M  V30 2435 C 236.622 -0.887825 1.7024 0
M  V30 2436 O 237.823 -1.35588 2.32098 0
M  V30 2437 C 236.094 0.850555 3.47132 0
M  V30 2438 S 237.653 0.59619 4.34731 0
M  V30 2439 H 234.471 0.204191 0.681049 0
M  V30 2440 H 237.073 1.17736 1.56072 0
M  V30 2441 H 235.777 1.8962 3.63968 0
M  V30 2442 H 235.308 0.213471 3.9282 0
M  V30 2443 H 237.323 -0.553154 4.93107 0
M  V30 2444 N 236.496 -1.42363 0.676048 0
M  V30 2445 C 237.721 -2.06377 0.205705 0
M  V30 2446 C 238.146 -1.50463 -1.12883 0
M  V30 2447 O 237.504 -0.623619 -1.70237 0
M  V30 2448 C 237.552 -3.60277 0.152655 0
M  V30 2449 O 236.656 -4.02935 -0.87845 0
M  V30 2450 H 235.997 -0.655588 0.105359 0
M  V30 2451 H 238.527 -1.82475 0.925412 0
M  V30 2452 H 238.537 -4.07993 -0.0230675 0
M  V30 2453 H 237.212 -4.00346 1.12675 0
M  V30 2454 H 235.789 -3.66764 -0.673668 0
M  V30 2455 N 237.974 -0.419461 -1.51915 0
M  V30 2456 C 239.385 0.0477853 -1.86639 0
M  V30 2457 C 239.736 1.43531 -1.33766 0
M  V30 2458 O 238.861 2.05401 -0.68113 0
M  V30 2459 C 239.456 0.0934885 -3.38671 0
M  V30 2460 C 238.015 0.505097 -3.72996 0
M  V30 2461 C 237.162 -0.313792 -2.75519 0
M  V30 2462 H 240.113 -0.636088 -1.45395 0
M  V30 2463 H 240.134 0.906667 -3.6954 0
M  V30 2464 H 239.646 -0.916501 -3.77123 0
M  V30 2465 H 237.747 1.52135 -3.40126 0
M  V30 2466 H 237.86 0.242309 -4.78487 0
M  V30 2467 H 236.224 0.225363 -2.53701 0
M  V30 2468 H 237.007 -1.32232 -3.16812 0
M  V30 2469 N 239.452 1.56882 -0.150215 0
M  V30 2470 C 240.863 1.82995 0.370076 0
M  V30 2471 C 241.214 1.06907 1.64515 0
M  V30 2472 O 240.339 0.315369 2.1409 0
M  V30 2473 C 240.934 3.31942 0.678208 0
M  V30 2474 C 239.493 3.58625 1.14301 0
M  V30 2475 C 238.64 2.76792 0.167778 0
M  V30 2476 H 241.591 1.54209 -0.374858 0
M  V30 2477 H 241.612 3.48272 1.53254 0
M  V30 2478 H 241.124 3.87294 -0.249991 0
M  V30 2479 H 239.225 3.08664 2.08704 0
M  V30 2480 H 239.338 4.67073 1.06676 0
M  V30 2481 H 237.702 2.45972 0.661037 0
M  V30 2482 H 238.485 3.34916 -0.754069 0
M  V30 2483 N 240.93 -0.123565 1.57115 0
M  V30 2484 C 242.341 -0.681198 1.73829 0
M  V30 2485 C 242.692 -1.80535 0.768214 0
M  V30 2486 O 241.817 -2.16317 -0.0599103 0
M  V30 2487 C 242.412 -1.24246 3.15196 0
M  V30 2488 C 240.971 -1.74643 3.33432 0
M  V30 2489 C 240.118 -0.644284 2.69711 0
M  V30 2490 H 243.069 0.102315 1.5837 0
M  V30 2491 H 243.09 -2.11216 3.16493 0
M  V30 2492 H 242.602 -0.424062 3.85776 0
M  V30 2493 H 240.703 -2.58974 2.67886 0
M  V30 2494 H 240.816 -1.85902 4.41562 0
M  V30 2495 H 239.18 -1.07676 2.3082 0
M  V30 2496 H 239.963 0.163058 3.42913 0
M  V30 2497 N 242.408 -1.52605 -0.393616 0
M  V30 2498 C 243.657 -1.66649 -1.13627 0
M  V30 2499 C 243.97 -0.410364 -1.91247 0
M  V30 2500 O 245.176 -0.430854 -2.68059 0
M  V30 2501 C 243.632 -2.9449 -2.06891 0
M  V30 2502 C 243.24 -4.27266 -1.34714 0
M  V30 2503 C 244.984 -3.17899 -2.81319 0
M  V30 2504 C 242.891 -5.46217 -2.26717 0
M  V30 2505 H 241.821 -0.62084 -0.427871 0
M  V30 2506 H 244.472 -1.791 -0.399428 0
M  V30 2507 H 242.854 -2.75774 -2.84191 0
M  V30 2508 H 244.028 -4.56518 -0.626714 0
M  V30 2509 H 242.343 -4.10081 -0.722643 0
M  V30 2510 H 244.94 -4.03949 -3.50328 0
M  V30 2511 H 245.283 -2.32777 -3.45139 0
M  V30 2512 H 245.816 -3.37159 -2.11113 0
M  V30 2513 H 242.555 -6.33733 -1.67521 0
M  V30 2514 H 242.075 -5.21283 -2.96689 0
M  V30 2515 H 243.754 -5.7991 -2.86903 0
M  V30 2516 N 243.887 0.651787 -1.4349 0
M  V30 2517 C 244.85 1.74647 -1.48429 0
M  V30 2518 C 245.85 1.56513 -0.368817 0
M  V30 2519 O 247.04 1.62385 -0.630623 0
M  V30 2520 C 244.172 3.13533 -1.33827 0
M  V30 2521 H 245.365 1.71649 -2.4592 0
M  V30 2522 H 242.918 0.863573 -1.30277 0
M  V30 2523 H 243.653 3.22142 -0.37349 0
M  V30 2524 H 243.438 3.28101 -2.14691 0
M  V30 2525 H 244.928 3.93356 -1.40218 0
M  V30 2526 N 245.365 1.30045 0.890287 0
M  V30 2527 C 246.642 1.09227 1.62262 0
M  V30 2528 C 247.022 -0.360305 2.08002 0
M  V30 2529 O 246.37 -1.35084 1.84295 0
M  V30 2530 C 246.58 2.08835 2.79623 0
M  V30 2531 C 247.928 2.40266 3.50082 0
M  V30 2532 O 248.952 2.07104 2.89804 0
M  V30 2533 O 247.811 2.96967 4.58773 0
M  V30 2534 H 244.905 0.419132 0.712922 0
M  V30 2535 H 247.451 1.41451 0.937529 0
M  V30 2536 H 246.223 3.06633 2.43089 0
M  V30 2537 H 245.846 1.77397 3.55832 0
M  V30 2538 N 246.843 -1.10192 1.12674 0
M  V30 2539 C 247.753 -2.20172 0.810026 0
M  V30 2540 C 248.769 -1.72821 -0.202188 0
M  V30 2541 O 249.945 -2.01369 -0.0351691 0
M  V30 2542 C 247.01 -3.45631 0.272007 0
M  V30 2543 C 246.071 -4.07704 1.34447 0
M  V30 2544 C 245.304 -5.27175 0.832029 0
M  V30 2545 O 245.527 -5.69425 -0.333284 0
M  V30 2546 O 244.461 -5.80168 1.60277 0
M  V30 2547 H 248.287 -2.49701 1.72867 0
M  V30 2548 H 245.872 -1.18977 0.903597 0
M  V30 2549 H 247.754 -4.21394 -0.0230219 0
M  V30 2550 H 246.429 -3.17723 -0.619164 0
M  V30 2551 H 245.336 -3.33614 1.6927 0
M  V30 2552 H 246.669 -4.3982 2.2095 0
M  V30 2553 N 248.321 -0.919034 -1.28029 0
M  V30 2554 C 249.57 -0.550802 -1.94034 0
M  V30 2555 C 249.883 0.910877 -1.73096 0
M  V30 2556 O 251.089 1.3875 -2.33368 0
M  V30 2557 C 249.545 -0.934249 -3.47563 0
M  V30 2558 C 249.153 -2.41602 -3.7727 0
M  V30 2559 C 250.897 -0.636854 -4.19696 0
M  V30 2560 C 248.804 -2.73932 -5.24133 0
M  V30 2561 H 247.734 -0.202273 -0.726362 0
M  V30 2562 H 250.385 -1.11867 -1.45458 0
M  V30 2563 H 248.767 -0.295115 -3.94899 0
M  V30 2564 H 249.941 -3.10233 -3.40723 0
M  V30 2565 H 248.256 -2.68441 -3.18321 0
M  V30 2566 H 250.853 -0.855005 -5.2782 0
M  V30 2567 H 251.196 0.425575 -4.14119 0
M  V30 2568 H 251.729 -1.23469 -3.78154 0
M  V30 2569 H 248.468 -3.79049 -5.34792 0
M  V30 2570 H 247.988 -2.09942 -5.61858 0
M  V30 2571 H 249.667 -2.61215 -5.91925 0
M  V30 2572 N 249.799 1.42003 -0.683588 0
M  V30 2573 C 250.729 2.33487 -0.024866 0
M  V30 2574 C 251.71 1.51163 0.779975 0
M  V30 2575 O 252.895 1.79739 0.735362 0
M  V30 2576 C 250.025 3.3487 0.920836 0
M  V30 2577 C 248.979 4.27414 0.223958 0
M  V30 2578 C 248.305 5.19074 1.2832 0
M  V30 2579 C 249.605 5.14445 -0.90242 0
M  V30 2580 H 251.299 2.88819 -0.788921 0
M  V30 2581 H 248.845 1.38873 -0.38083 0
M  V30 2582 H 250.798 3.97787 1.39081 0
M  V30 2583 H 249.522 2.77861 1.71642 0
M  V30 2584 H 248.181 3.65904 -0.225864 0
M  V30 2585 H 247.829 4.58387 2.071 0
M  V30 2586 H 247.529 5.81822 0.821995 0
M  V30 2587 H 249.053 5.84867 1.75392 0
M  V30 2588 H 250.467 5.70998 -0.513272 0
M  V30 2589 H 248.864 5.86072 -1.28997 0
M  V30 2590 H 249.934 4.52322 -1.74737 0
M  V30 2591 N 251.277 0.427512 1.51691 0
M  V30 2592 C 252.507 -0.140986 2.06118 0
M  V30 2593 C 252.915 -1.37854 1.29588 0
M  V30 2594 O 252.258 -1.80411 0.346036 0
M  V30 2595 C 252.32 -0.538276 3.55447 0
M  V30 2596 C 251.984 0.591095 4.53161 0
M  V30 2597 C 252.981 1.46027 4.98971 0
M  V30 2598 C 250.666 0.769028 4.96378 0
M  V30 2599 C 252.66 2.49216 5.8666 0
M  V30 2600 C 250.347 1.80421 5.83859 0
M  V30 2601 C 251.345 2.66417 6.28897 0
M  V30 2602 O 251.033 3.68159 7.14643 0
M  V30 2603 H 250.765 -0.0157455 0.675817 0
M  V30 2604 H 253.319 0.602495 1.96365 0
M  V30 2605 H 251.549 -1.33432 3.6295 0
M  V30 2606 H 253.238 -1.0368 3.92435 0
M  V30 2607 H 254.004 1.33429 4.66285 0
M  V30 2608 H 249.883 0.109273 4.6087 0
M  V30 2609 H 253.427 3.16372 6.21735 0
M  V30 2610 H 249.324 1.93042 6.15959 0
M  V30 2611 H 250.092 3.64622 7.32798 0
M  V30 2612 N 252.755 -1.56801 0.158532 0
M  V30 2613 C 253.718 -2.16138 -0.762705 0
M  V30 2614 C 254.718 -1.1061 -1.16713 0
M  V30 2615 O 255.908 -1.36191 -1.08617 0
M  V30 2616 C 253.04 -2.73386 -2.03649 0
M  V30 2617 H 254.233 -2.98886 -0.246354 0
M  V30 2618 H 251.786 -1.56035 -0.0909744 0
M  V30 2619 H 252.521 -1.94335 -2.59623 0
M  V30 2620 H 252.306 -3.50601 -1.75559 0
M  V30 2621 H 253.796 -3.19065 -2.6942 0
M  V30 2622 N 254.233 0.115231 -1.57178 0
M  V30 2623 C 255.196 1.12526 -1.99676 0
M  V30 2624 C 256.196 1.34095 -0.88742 0
M  V30 2625 O 257.386 1.30548 -1.15337 0
M  V30 2626 C 254.518 2.4789 -2.34015 0
M  V30 2627 H 255.711 0.759912 -2.90113 0
M  V30 2628 H 253.264 0.359648 -1.52106 0
M  V30 2629 H 253.999 2.89339 -1.4647 0
M  V30 2630 H 253.784 2.33588 -3.14927 0
M  V30 2631 H 255.274 3.20575 -2.67622 0
M  V30 2632 N 255.711 1.52812 0.385517 0
M  V30 2633 C 256.643 1.74096 1.49074 0
M  V30 2634 C 257.656 0.621462 1.50472 0
M  V30 2635 O 258.845 0.897245 1.54311 0
M  V30 2636 C 255.945 1.78774 2.87911 0
M  V30 2637 C 255.118 3.08134 3.10439 0
M  V30 2638 C 254.177 3.04313 4.29278 0
M  V30 2639 O 253.203 3.78168 4.25415 0
M  V30 2640 N 254.405 2.23741 5.35649 0
M  V30 2641 H 257.17 2.69455 1.31202 0
M  V30 2642 H 254.731 1.51343 0.575065 0
M  V30 2643 H 256.723 1.73721 3.65518 0
M  V30 2644 H 255.293 0.907869 2.99126 0
M  V30 2645 H 254.513 3.26649 2.20667 0
M  V30 2646 H 255.801 3.93662 3.22347 0
M  V30 2647 H 255.199 1.63211 5.41645 0
M  V30 2648 H 253.756 2.24524 6.11909 0
M  V30 2649 N 257.189 -0.644168 1.43834 0
M  V30 2650 C 258.119 -1.76814 1.52509 0
M  V30 2651 C 259.1 -1.65823 0.379052 0
M  V30 2652 O 260.285 -1.84781 0.597466 0
M  V30 2653 C 257.415 -3.15288 1.4564 0
M  V30 2654 C 256.369 -3.41053 2.58586 0
M  V30 2655 C 255.695 -4.79421 2.36769 0
M  V30 2656 C 256.995 -3.34902 4.00797 0
M  V30 2657 H 258.689 -1.69812 2.46586 0
M  V30 2658 H 256.235 -0.815542 1.1868 0
M  V30 2659 H 258.188 -3.93681 1.50311 0
M  V30 2660 H 256.912 -3.23043 0.480725 0
M  V30 2661 H 255.571 -2.65035 2.53282 0
M  V30 2662 H 255.219 -4.83863 1.37424 0
M  V30 2663 H 254.919 -4.9762 3.12487 0
M  V30 2664 H 256.443 -5.6006 2.43238 0
M  V30 2665 H 257.857 -4.03218 4.07539 0
M  V30 2666 H 256.254 -3.64637 4.76613 0
M  V30 2667 H 257.324 -2.32928 4.25291 0
M  V30 2668 N 258.668 -1.30515 -0.883378 0
M  V30 2669 C 259.908 -1.20716 -1.64946 0
M  V30 2670 C 260.272 0.234072 -1.90568 0
M  V30 2671 O 261.473 0.455335 -2.64915 0
M  V30 2672 C 259.744 -2.01444 -2.9522 0
M  V30 2673 S 261.303 -2.0836 -3.86175 0
M  V30 2674 H 258.121 -0.430165 -0.566109 0
M  V30 2675 H 260.723 -1.65011 -1.04841 0
M  V30 2676 H 259.427 -3.05268 -2.74298 0
M  V30 2677 H 258.958 -1.57817 -3.60357 0
M  V30 2678 H 260.973 -1.21215 -4.81167 0
M  V30 2679 N 260.146 1.09593 -1.13257 0
M  V30 2680 C 261.394 1.81375 -0.891492 0
M  V30 2681 C 261.715 1.86049 0.584009 0
M  V30 2682 O 260.985 1.34481 1.42449 0
M  V30 2683 H 259.565 0.671708 -0.326828 0
M  V30 2684 H 262.227 1.3256 -1.42877 0
M  V30 2685 H 261.323 2.84612 -1.28071 0
M  V30 2686 N 261.624 0.925811 1.2754 0
M  V30 2687 C 262.87 0.566092 1.94739 0
M  V30 2688 C 263.203 -0.890057 1.72603 0
M  V30 2689 O 262.478 -1.63467 1.05399 0
M  V30 2690 C 262.761 0.89054 3.48915 0
M  V30 2691 C 262.614 2.4003 3.80402 0
M  V30 2692 C 263.933 0.395101 4.38323 0
M  V30 2693 H 261.052 0.20714 0.707292 0
M  V30 2694 H 263.694 1.15725 1.50691 0
M  V30 2695 H 261.844 0.387452 3.86563 0
M  V30 2696 H 263.516 2.97494 3.52555 0
M  V30 2697 H 261.759 2.85028 3.2702 0
M  V30 2698 H 262.43 2.57785 4.8811 0
M  V30 2699 H 264.906 0.826241 4.07814 0
M  V30 2700 H 263.782 0.651086 5.45025 0
M  V30 2701 H 264.043 -0.704798 4.36446 0
M  V30 2702 N 263.102 -1.41638 0.69111 0
M  V30 2703 C 264.034 -2.29194 -0.0161523 0
M  V30 2704 C 265.047 -1.44549 -0.748955 0
M  V30 2705 O 266.236 -1.681 -0.6004 0
M  V30 2706 C 263.336 -3.22325 -1.0469 0
M  V30 2707 C 262.509 -4.35706 -0.384621 0
M  V30 2708 C 261.568 -5.09443 -1.31737 0
M  V30 2709 O 260.594 -5.63386 -0.811451 0
M  V30 2710 N 261.796 -5.16487 -2.64993 0
M  V30 2711 H 264.561 -2.90534 0.735523 0
M  V30 2712 H 262.122 -1.52742 0.53679 0
M  V30 2713 H 264.114 -3.68522 -1.67252 0
M  V30 2714 H 262.684 -2.62323 -1.70015 0
M  V30 2715 H 261.904 -3.91948 0.420804 0
M  V30 2716 H 263.192 -5.08743 0.0760765 0
M  V30 2717 H 262.59 -4.741 -3.08619 0
M  V30 2718 H 261.147 -5.66276 -3.22761 0
M  V30 2719 N 264.58 -0.43555 -1.51462 0
M  V30 2720 C 265.857 0.191364 -1.94662 0
M  V30 2721 C 266.237 1.60254 -1.37411 0
M  V30 2722 O 265.585 2.2152 -0.560458 0
M  V30 2723 C 265.795 0.17091 -3.48581 0
M  V30 2724 C 267.143 0.377357 -4.2292 0
M  V30 2725 O 268.167 0.249104 -3.55328 0
M  V30 2726 O 267.026 0.63247 -5.42828 0
M  V30 2727 H 264.12 0.130932 -0.816569 0
M  V30 2728 H 266.666 -0.4934 -1.62369 0
M  V30 2729 H 265.438 -0.815738 -3.82703 0
M  V30 2730 H 265.061 0.898659 -3.87311 0
M  V30 2731 N 266.058 1.56714 -0.166846 0
M  V30 2732 C 267.304 1.97039 0.479962 0
M  V30 2733 C 267.637 1.05264 1.63197 0
M  V30 2734 O 266.912 0.0988833 1.94248 0
M  V30 2735 C 267.195 3.46867 0.967212 0
M  V30 2736 C 267.048 4.49421 -0.18466 0
M  V30 2737 C 268.367 3.9968 1.84238 0
M  V30 2738 H 265.486 0.71641 0.172992 0
M  V30 2739 H 268.128 1.8832 -0.252079 0
M  V30 2740 H 266.278 3.54428 1.59101 0
M  V30 2741 H 267.95 4.53924 -0.821621 0
M  V30 2742 H 266.193 4.25573 -0.840837 0
M  V30 2743 H 266.864 5.51644 0.198317 0
M  V30 2744 H 269.34 3.94723 1.31655 0
M  V30 2745 H 268.216 5.04941 2.15234 0
M  V30 2746 H 268.477 3.43226 2.78654 0
M  V30 2747 N 267.536 -0.106894 1.57237 0
M  V30 2748 C 268.783 -0.812526 1.85484 0
M  V30 2749 C 269.111 -1.79304 0.753687 0
M  V30 2750 O 268.366 -1.94047 -0.253853 0
M  V30 2751 C 268.665 -1.58628 3.20268 0
M  V30 2752 C 268.331 -0.748967 4.44636 0
M  V30 2753 C 266.993 -0.518104 4.78403 0
M  V30 2754 C 269.345 -0.166122 5.20935 0
M  V30 2755 C 266.673 0.305659 5.85903 0
M  V30 2756 C 269.025 0.644899 6.29304 0
M  V30 2757 C 267.689 0.885965 6.61594 0
M  V30 2758 H 266.959 -0.297324 0.678734 0
M  V30 2759 H 269.606 -0.0744332 1.91355 0
M  V30 2760 H 267.911 -2.39562 3.10028 0
M  V30 2761 H 269.608 -2.13643 3.39349 0
M  V30 2762 H 266.198 -0.939006 4.18187 0
M  V30 2763 H 270.382 -0.33167 4.95191 0
M  V30 2764 H 265.638 0.501528 6.0934 0
M  V30 2765 H 269.812 1.10345 6.87602 0
M  V30 2766 H 267.439 1.52609 7.44725 0
M  V30 2767 N 269.014 -1.53014 -0.377408 0
M  V30 2768 C 269.962 -1.7927 -1.48206 0
M  V30 2769 C 270.956 -0.661195 -1.55963 0
M  V30 2770 O 272.162 -0.843908 -1.58991 0
M  V30 2771 H 268.537 -0.567425 -0.493491 0
M  V30 2772 H 270.508 -2.71753 -1.2326 0
M  V30 2773 C 269.257 -1.98894 -2.85196 0
M  V30 2774 H 268.58 -2.85395 -2.79981 0
M  V30 2775 H 270.02 -2.21249 -3.61698 0
M  V30 2776 C 268.479 -0.764691 -3.28107 0
M  V30 2777 O 269.009 0.0523226 -4.01666 0
M  V30 2778 N 267.215 -0.591493 -2.84517 0
M  V30 2779 H 266.762 -1.25749 -2.24822 0
M  V30 2780 H 266.72 0.226253 -3.13585 0
M  V30 2781 N 270.492 0.636531 -1.44174 0
M  V30 2782 C 271.738 1.39826 -1.4689 0
M  V30 2783 C 272.071 1.93947 -0.0990585 0
M  V30 2784 O 271.346 1.73325 0.882544 0
M  V30 2785 C 271.629 2.56751 -2.5249 0
M  V30 2786 C 271.482 2.08014 -3.98811 0
M  V30 2787 C 272.801 3.58946 -2.54649 0
M  V30 2788 H 269.92 0.507075 -0.53483 0
M  V30 2789 H 272.562 0.720188 -1.75822 0
M  V30 2790 H 270.712 3.14597 -2.2795 0
M  V30 2791 H 272.384 1.5504 -4.34466 0
M  V30 2792 H 270.627 1.39242 -4.10846 0
M  V30 2793 H 271.298 2.92169 -4.68339 0
M  V30 2794 H 273.774 3.1089 -2.76563 0
M  V30 2795 H 272.65 4.38286 -3.3045 0
M  V30 2796 H 272.911 4.12655 -1.58646 0
M  V30 2797 N 271.97 1.30982 0.876444 0
M  V30 2798 C 273.218 1.20058 1.62575 0
M  V30 2799 C 273.539 -0.242947 1.93481 0
M  V30 2800 O 272.809 -1.1619 1.57724 0
M  V30 2801 H 271.389 0.44135 0.602677 0
M  V30 2802 H 274.051 1.64222 1.04962 0
M  V30 2803 H 273.147 1.76762 2.57219 0
M  V30 2804 N 273.449 -1.08991 1.13837 0
M  V30 2805 C 274.697 -1.80899 0.901098 0
M  V30 2806 C 275.018 -1.86356 -0.574134 0
M  V30 2807 O 274.288 -1.35235 -1.41733 0
M  V30 2808 H 272.868 -0.669966 0.330386 0
M  V30 2809 H 275.53 -1.318 1.43578 0
M  V30 2810 H 274.626 -2.83929 1.29578 0
M  V30 2811 N 274.927 -0.932562 -1.27047 0
M  V30 2812 C 275.89 -0.440064 -2.24936 0
M  V30 2813 C 276.89 0.444071 -1.54547 0
M  V30 2814 O 278.08 0.244465 -1.72476 0
M  V30 2815 C 275.212 0.36678 -3.38921 0
M  V30 2816 H 276.405 -1.305 -2.70018 0
M  V30 2817 H 273.958 -0.713707 -1.39054 0
M  V30 2818 H 274.693 1.25033 -2.99228 0
M  V30 2819 H 274.478 -0.267204 -3.91188 0
M  V30 2820 H 275.968 0.701567 -4.11665 0
M  V30 2821 N 276.405 1.4127 -0.698611 0
M  V30 2822 C 277.337 2.292 0.00399731 0
M  V30 2823 C 278.35 1.44944 0.741279 0
M  V30 2824 O 279.539 1.68416 0.591477 0
M  V30 2825 C 276.639 3.22875 1.02979 0
M  V30 2826 C 275.812 4.35904 0.36151 0
M  V30 2827 C 274.871 5.10134 1.29033 0
M  V30 2828 O 273.897 5.63809 0.781562 0
M  V30 2829 N 275.099 5.17885 2.6225 0
M  V30 2830 H 277.864 2.9014 -0.750921 0
M  V30 2831 H 275.425 1.52455 -0.544882 0
M  V30 2832 H 277.417 3.69404 1.65296 0
M  V30 2833 H 275.987 2.63221 1.68622 0
M  V30 2834 H 275.207 3.91719 -0.441584 0
M  V30 2835 H 276.495 5.08696 -0.103055 0
M  V30 2836 H 275.893 4.7573 3.061 0
M  V30 2837 H 274.45 5.6798 3.19754 0
M  V30 2838 N 277.883 0.443576 1.51229 0
M  V30 2839 C 278.846 -0.353132 2.26463 0
M  V30 2840 C 279.846 -0.944338 1.3015 0
M  V30 2841 O 281.036 -0.817813 1.5381 0
M  V30 2842 C 278.168 -1.50023 3.06114 0
M  V30 2843 H 279.361 0.3063 2.98332 0
M  V30 2844 H 276.914 0.196902 1.55055 0
M  V30 2845 H 277.649 -2.19553 2.38677 0
M  V30 2846 H 277.434 -1.08241 3.76864 0
M  V30 2847 H 278.924 -2.06296 3.63087 0
M  V30 2848 N 279.361 -1.56624 0.175154 0
M  V30 2849 C 280.61 -1.96173 -0.468921 0
M  V30 2850 C 280.923 -1.06401 -1.64128 0
M  V30 2851 O 282.129 -1.35648 -2.35185 0
M  V30 2852 C 280.585 -3.48833 -0.885633 0
M  V30 2853 C 280.193 -4.47237 0.261343 0
M  V30 2854 C 281.937 -3.97194 -1.49791 0
M  V30 2855 C 279.844 -5.9114 -0.175214 0
M  V30 2856 H 278.774 -0.732455 -0.178958 0
M  V30 2857 H 281.425 -1.81591 0.263997 0
M  V30 2858 H 279.807 -3.58848 -1.67464 0
M  V30 2859 H 280.981 -4.4894 1.03871 0
M  V30 2860 H 279.296 -4.08956 0.783827 0
M  V30 2861 H 281.893 -5.02167 -1.83665 0
M  V30 2862 H 282.236 -3.40351 -2.39722 0
M  V30 2863 H 282.769 -3.90212 -0.773267 0
M  V30 2864 H 279.508 -6.51865 0.689414 0
M  V30 2865 H 279.028 -5.92735 -0.91786 0
M  V30 2866 H 280.707 -6.44044 -0.617792 0
M  V30 2867 N 280.839 0.0985539 -1.57292 0
M  V30 2868 C 281.802 1.10402 -2.00858 0
M  V30 2869 C 282.802 1.33146 -0.901593 0
M  V30 2870 O 283.992 1.29318 -1.16716 0
M  V30 2871 C 281.124 2.45394 -2.36632 0
M  V30 2872 H 282.317 0.729099 -2.90902 0
M  V30 2873 H 279.87 0.343495 -1.52479 0
M  V30 2874 H 280.605 2.87769 -1.49531 0
M  V30 2875 H 280.39 2.30235 -3.17387 0
M  V30 2876 H 281.88 3.17718 -2.71007 0
M  V30 2877 N 282.317 1.53212 0.369288 0
M  V30 2878 C 283.28 1.7872 1.43498 0
M  V30 2879 C 284.28 0.657554 1.46741 0
M  V30 2880 O 285.47 0.925736 1.47566 0
M  V30 2881 C 282.602 1.90591 2.82645 0
M  V30 2882 H 283.795 2.73894 1.22156 0
M  V30 2883 H 281.348 1.44233 0.602203 0
M  V30 2884 H 282.083 0.974709 3.09306 0
M  V30 2885 H 281.868 2.72751 2.8169 0
M  V30 2886 H 283.358 2.11931 3.59826 0
M  V30 2887 N 283.795 -0.628877 1.44509 0
M  V30 2888 C 284.725 -1.75187 1.54376 0
M  V30 2889 C 285.706 -1.65411 0.396618 0
M  V30 2890 O 286.891 -1.84137 0.617031 0
M  V30 2891 C 284.021 -3.13725 1.48976 0
M  V30 2892 C 282.975 -3.38291 2.62189 0
M  V30 2893 C 282.301 -4.76883 2.41841 0
M  V30 2894 C 283.601 -3.30632 4.04326 0
M  V30 2895 H 285.295 -1.67187 2.48373 0
M  V30 2896 H 282.841 -0.802909 1.19538 0
M  V30 2897 H 284.794 -3.92064 1.54478 0
M  V30 2898 H 283.518 -3.22515 0.514961 0
M  V30 2899 H 282.177 -2.62334 2.56079 0
M  V30 2900 H 281.825 -4.82378 1.42548 0
M  V30 2901 H 281.525 -4.94278 3.17747 0
M  V30 2902 H 283.049 -5.57449 2.49165 0
M  V30 2903 H 284.463 -3.98873 4.11793 0
M  V30 2904 H 282.86 -3.59561 4.80454 0
M  V30 2905 H 283.93 -2.28404 4.27738 0
M  V30 2906 N 285.273 -1.31445 -0.869486 0
M  V30 2907 C 286.236 -1.19094 -1.9583 0
M  V30 2908 C 287.236 -0.117906 -1.60367 0
M  V30 2909 O 288.426 -0.367208 -1.70286 0
M  V30 2910 C 285.558 -0.828165 -3.30688 0
M  V30 2911 H 286.751 -2.15842 -2.08212 0
M  V30 2912 H 284.304 -1.15063 -1.05784 0
M  V30 2913 H 285.039 0.138142 -3.24006 0
M  V30 2914 H 284.824 -1.6038 -3.578 0
M  V30 2915 H 286.314 -0.765658 -4.10521 0
M  V30 2916 N 286.751 1.08385 -1.14413 0
M  V30 2917 C 287.998 1.80776 -0.912482 0
M  V30 2918 C 288.326 1.86236 0.560934 0
M  V30 2919 O 287.581 1.33431 1.43159 0
M  V30 2920 C 287.88 3.26273 -1.45879 0
M  V30 2921 C 287.546 3.4093 -2.95089 0
M  V30 2922 C 286.208 3.44638 -3.35824 0
M  V30 2923 C 288.56 3.44591 -3.91033 0
M  V30 2924 C 285.888 3.49597 -4.71167 0
M  V30 2925 C 288.24 3.51086 -5.26233 0
M  V30 2926 C 286.904 3.53067 -5.6648 0
M  V30 2927 H 286.174 0.661507 -0.333901 0
M  V30 2928 H 288.821 1.27613 -1.42784 0
M  V30 2929 H 287.126 3.82146 -0.864376 0
M  V30 2930 H 288.823 3.80839 -1.2555 0
M  V30 2931 H 285.413 3.38736 -2.62594 0
M  V30 2932 H 289.597 3.40957 -3.60641 0
M  V30 2933 H 284.853 3.49424 -5.0171 0
M  V30 2934 H 289.027 3.52864 -6.00383 0
M  V30 2935 H 286.654 3.56662 -6.71339 0
M  V30 2936 N 288.23 0.939286 1.26551 0
M  V30 2937 C 289.478 0.58469 1.93457 0
M  V30 2938 C 289.799 -0.878774 1.74076 0
M  V30 2939 O 289.069 -1.62421 1.09528 0
M  V30 2940 H 287.649 0.21325 0.715914 0
M  V30 2941 H 290.311 1.1942 1.54029 0
M  V30 2942 H 289.407 0.800849 3.0165 0
M  V30 2943 N 289.708 -1.40897 0.706093 0
M  V30 2944 C 290.936 -2.05373 0.250887 0
M  V30 2945 C 291.351 -1.53172 -1.10381 0
M  V30 2946 O 290.708 -0.684305 -1.69185 0
M  V30 2947 C 290.759 -3.6088 0.211571 0
M  V30 2948 O 290.48 -4.11153 1.51276 0
M  V30 2949 C 291.981 -4.42517 -0.263346 0
M  V30 2950 H 289.201 -0.66115 0.114552 0
M  V30 2951 H 291.745 -1.80479 0.961635 0
M  V30 2952 H 289.9 -3.84777 -0.450073 0
M  V30 2953 H 290.314 -5.05279 1.40689 0
M  V30 2954 H 291.788 -5.51479 -0.239718 0
M  V30 2955 H 292.265 -4.19396 -1.30397 0
M  V30 2956 H 292.871 -4.23708 0.367677 0
M  V30 2957 N 291.186 -0.45159 -1.50991 0
M  V30 2958 C 292.096 0.358431 -2.31846 0
M  V30 2959 C 293.112 1.01438 -1.41373 0
M  V30 2960 O 294.288 1.00663 -1.74439 0
M  V30 2961 C 291.353 1.43704 -3.15515 0
M  V30 2962 C 290.414 0.799742 -4.21785 0
M  V30 2963 C 289.647 1.82696 -5.01456 0
M  V30 2964 O 289.87 3.05105 -4.81941 0
M  V30 2965 O 288.804 1.40958 -5.85162 0
M  V30 2966 H 292.63 -0.302032 -3.02194 0
M  V30 2967 H 290.215 -0.213825 -1.47862 0
M  V30 2968 H 292.097 2.06227 -3.67489 0
M  V30 2969 H 290.772 2.08133 -2.47916 0
M  V30 2970 H 289.679 0.136084 -3.73852 0
M  V30 2971 H 291.012 0.198718 -4.91799 0
M  V30 2972 N 292.664 1.56529 -0.183458 0
M  V30 2973 C 293.889 2.02064 0.467428 0
M  V30 2974 C 294.314 1.06282 1.55196 0
M  V30 2975 O 293.672 0.0443565 1.81246 0
M  V30 2976 C 293.72 3.46122 1.01153 0
M  V30 2977 O 292.824 3.53437 2.12499 0
M  V30 2978 H 292.165 0.654726 0.110588 0
M  V30 2979 H 294.695 2.02521 -0.290917 0
M  V30 2980 H 294.705 3.85676 1.33108 0
M  V30 2981 H 293.38 4.15331 0.217533 0
M  V30 2982 H 291.957 3.2575 1.81497 0
M  V30 2983 N 294.142 -0.090211 1.57342 0
M  V30 2984 C 295.388 -0.793982 1.86611 0
M  V30 2985 C 295.721 -1.78142 0.773252 0
M  V30 2986 O 294.996 -1.93271 -0.218304 0
M  V30 2987 C 295.279 -1.51839 3.26523 0
M  V30 2988 C 295.132 -0.548609 4.46442 0
M  V30 2989 C 296.451 -2.46779 3.64401 0
M  V30 2990 H 293.57 -0.287186 0.678744 0
M  V30 2991 H 296.212 -0.0575076 1.89913 0
M  V30 2992 H 294.362 -2.14617 3.23839 0
M  V30 2993 H 296.034 0.0725513 4.61243 0
M  V30 2994 H 294.277 0.137614 4.33582 0
M  V30 2995 H 294.948 -1.09271 5.41076 0
M  V30 2996 H 297.424 -1.94089 3.68061 0
M  V30 2997 H 296.3 -2.94479 4.63221 0
M  V30 2998 H 296.561 -3.30758 2.93346 0
M  V30 2999 N 295.62 -1.53406 -0.361157 0
M  V30 3000 C 297.031 -1.61442 -0.937728 0
M  V30 3001 C 297.382 -0.48461 -1.90121 0
M  V30 3002 O 296.507 0.388312 -2.12888 0
M  V30 3003 C 297.102 -2.92624 -1.70753 0
M  V30 3004 C 295.661 -3.02981 -2.23337 0
M  V30 3005 C 294.808 -2.5677 -1.04712 0
M  V30 3006 H 297.759 -1.58083 -0.139816 0
M  V30 3007 H 297.78 -2.80675 -2.56908 0
M  V30 3008 H 297.292 -3.74834 -1.00604 0
M  V30 3009 H 295.393 -2.25368 -2.96715 0
M  V30 3010 H 295.506 -4.0814 -2.50916 0
M  V30 3011 H 293.87 -2.11752 -1.41539 0
M  V30 3012 H 294.653 -3.41402 -0.360539 0
M  V30 3013 N 297.098 0.621204 -1.44841 0
M  V30 3014 C 298.045 1.73267 -1.5247 0
M  V30 3015 C 299.015 1.6189 -0.371611 0
M  V30 3016 O 300.2 1.81668 -0.58321 0
M  V30 3017 C 297.34 3.11545 -1.48438 0
M  V30 3018 C 296.453 3.33827 -2.74196 0
M  V30 3019 C 295.588 4.62133 -2.61929 0
M  V30 3020 C 294.627 4.77627 -3.82804 0
M  V30 3021 N 293.764 5.97219 -3.69153 0
M  V30 3022 H 298.604 1.66082 -2.47428 0
M  V30 3023 H 296.141 0.810026 -1.22788 0
M  V30 3024 H 298.099 3.91528 -1.4409 0
M  V30 3025 H 296.729 3.1772 -0.570402 0
M  V30 3026 H 295.781 2.47715 -2.88689 0
M  V30 3027 H 297.093 3.41153 -3.6389 0
M  V30 3028 H 296.247 5.50291 -2.5547 0
M  V30 3029 H 294.986 4.57182 -1.69811 0
M  V30 3030 H 293.991 3.87896 -3.89637 0
M  V30 3031 H 295.216 4.84385 -4.75971 0
M  V30 3032 H 293.162 5.93339 -2.79794 0
M  V30 3033 H 293.079 6.05644 -4.52472 0
M  V30 3034 H 294.347 6.87912 -3.66603 0
M  V30 3035 N 298.576 1.31904 0.862503 0
M  V30 3036 C 299.822 1.22197 1.61851 0
M  V30 3037 C 300.155 -0.217641 1.92977 0
M  V30 3038 O 299.43 -1.15264 1.56666 0
M  V30 3039 C 299.713 2.07378 2.94391 0
M  V30 3040 C 299.566 3.59678 2.70096 0
M  V30 3041 C 300.885 1.92891 3.95577 0
M  V30 3042 H 298.004 0.445255 0.587296 0
M  V30 3043 H 300.646 1.6177 0.99651 0
M  V30 3044 H 298.796 1.73758 3.47477 0
M  V30 3045 H 300.468 4.03472 2.23625 0
M  V30 3046 H 298.711 3.82735 2.04197 0
M  V30 3047 H 299.382 4.14595 3.64438 0
M  V30 3048 H 301.858 2.22327 3.51724 0
M  V30 3049 H 300.734 2.54781 4.86187 0
M  V30 3050 H 300.995 0.894315 4.3296 0
M  V30 3051 N 300.054 -1.07777 1.14986 0
M  V30 3052 C 301.331 -1.7699 0.832695 0
M  V30 3053 C 301.711 -2.001 -0.672561 0
M  V30 3054 O 301.059 -1.61598 -1.6155 0
M  V30 3055 C 301.269 -3.08139 1.63863 0
M  V30 3056 C 302.617 -3.8256 1.84208 0
M  V30 3057 O 303.641 -3.17939 1.60603 0
M  V30 3058 O 302.5 -4.98612 2.23714 0
M  V30 3059 H 299.594 -0.768389 0.305791 0
M  V30 3060 H 302.14 -1.14182 1.25541 0
M  V30 3061 H 300.912 -2.86909 2.6608 0
M  V30 3062 H 300.535 -3.78678 1.21197 0
M  V30 3063 N 301.532 -0.945985 -1.26051 0
M  V30 3064 C 302.479 -0.45809 -2.26208 0
M  V30 3065 C 303.449 0.484816 -1.58867 0
M  V30 3066 O 304.634 0.399969 -1.86561 0
M  V30 3067 C 301.774 0.266131 -3.44072 0
M  V30 3068 C 300.887 -0.713005 -4.26075 0
M  V30 3069 C 300.022 0.0329013 -5.3119 0
M  V30 3070 C 299.061 -0.93774 -6.04874 0
M  V30 3071 N 298.198 -0.223274 -7.01745 0
M  V30 3072 H 303.038 -1.3171 -2.67313 0
M  V30 3073 H 300.575 -0.66069 -1.31428 0
M  V30 3074 H 302.533 0.702514 -4.11243 0
M  V30 3075 H 301.163 1.08925 -3.03867 0
M  V30 3076 H 300.215 -1.26789 -3.58648 0
M  V30 3077 H 301.527 -1.45406 -4.77136 0
M  V30 3078 H 300.681 0.528335 -6.04395 0
M  V30 3079 H 299.42 0.806801 -4.8098 0
M  V30 3080 H 298.425 -1.44425 -5.30492 0
M  V30 3081 H 299.65 -1.71172 -6.57173 0
M  V30 3082 H 297.596 0.532046 -6.53839 0
M  V30 3083 H 297.513 -0.90357 -7.50581 0
M  V30 3084 H 298.781 0.250907 -7.79096 0
M  V30 3085 N 303.011 1.40521 -0.713556 0
M  V30 3086 C 304.26 2.00155 -0.249192 0
M  V30 3087 C 304.573 1.57224 1.16362 0
M  V30 3088 O 305.779 2.09542 1.72639 0
M  V30 3089 C 304.235 3.5773 -0.3946 0
M  V30 3090 C 303.843 4.09635 -1.81392 0
M  V30 3091 C 305.587 4.24499 0.00907364 0
M  V30 3092 C 303.494 5.59707 -1.91003 0
M  V30 3093 H 302.424 0.74868 -0.0894114 0
M  V30 3094 H 305.075 1.60784 -0.884352 0
M  V30 3095 H 303.457 3.94792 0.30911 0
M  V30 3096 H 304.631 3.83955 -2.54785 0
M  V30 3097 H 302.946 3.55456 -2.16888 0
M  V30 3098 H 305.543 5.34683 -0.0420404 0
M  V30 3099 H 305.886 4.02824 1.05065 0
M  V30 3100 H 306.419 3.92536 -0.645007 0
M  V30 3101 H 303.158 5.86234 -2.93275 0
M  V30 3102 H 302.678 5.87258 -1.22019 0
M  V30 3103 H 304.357 6.24776 -1.6812 0
M  V30 3104 N 304.489 0.459591 1.5075 0
M  V30 3105 C 305.736 -0.0993495 2.02256 0
M  V30 3106 C 306.064 -1.40751 1.34237 0
M  V30 3107 O 305.319 -1.90379 0.453228 0
M  V30 3108 C 305.618 -0.342866 3.55752 0
M  V30 3109 C 305.284 0.88218 4.42186 0
M  V30 3110 C 303.946 1.21808 4.65528 0
M  V30 3111 C 306.298 1.69837 4.92752 0
M  V30 3112 C 303.626 2.37045 5.36681 0
M  V30 3113 C 305.978 2.84192 5.65171 0
M  V30 3114 C 304.642 3.1821 5.8677 0
M  V30 3115 H 303.912 -0.0363545 0.740108 0
M  V30 3116 H 306.559 0.611329 1.8148 0
M  V30 3117 H 304.864 -1.13567 3.7498 0
M  V30 3118 H 306.561 -0.789121 3.93159 0
M  V30 3119 H 303.151 0.610467 4.2423 0
M  V30 3120 H 307.335 1.45205 4.74583 0
M  V30 3121 H 302.591 2.63689 5.51614 0
M  V30 3122 H 306.765 3.4779 6.03337 0
M  V30 3123 H 304.392 4.07613 6.41682 0
M  V30 3124 N 305.967 -1.56429 0.191757 0
M  V30 3125 C 307.215 -1.97095 -0.447006 0
M  V30 3126 C 307.536 -1.07967 -1.62383 0
M  V30 3127 O 306.806 -0.150248 -1.95323 0
M  V30 3128 H 305.386 -0.727832 -0.168135 0
M  V30 3129 H 308.048 -1.92911 0.27771 0
M  V30 3130 H 307.144 -3.01848 -0.793371 0
M  V30 3131 N 307.445 0.0818655 -1.57387 0
M  V30 3132 C 308.856 0.634871 -1.75574 0
M  V30 3133 C 309.207 1.78435 -0.815809 0
M  V30 3134 O 308.332 2.164 0.0025366 0
M  V30 3135 C 308.927 1.15845 -3.18379 0
M  V30 3136 C 307.486 1.65741 -3.37945 0
M  V30 3137 C 306.633 0.572549 -2.71325 0
M  V30 3138 H 309.584 -0.144268 -1.58043 0
M  V30 3139 H 309.605 2.02751 -3.21982 0
M  V30 3140 H 309.117 0.321631 -3.86765 0
M  V30 3141 H 307.218 2.51781 -2.74658 0
M  V30 3142 H 307.331 1.74129 -4.46336 0
M  V30 3143 H 305.695 1.01518 -2.33594 0
M  V30 3144 H 306.478 -0.253918 -3.4236 0
M  V30 3145 N 308.923 1.53595 0.353017 0
M  V30 3146 C 310.171 1.70049 1.09215 0
M  V30 3147 C 310.492 0.461406 1.89463 0
M  V30 3148 O 309.762 -0.524633 1.88744 0
M  V30 3149 H 308.342 0.626912 0.40619 0
M  V30 3150 H 311.004 1.90822 0.396585 0
M  V30 3151 H 310.1 2.56718 1.77488 0
M  V30 3152 N 310.401 -0.613514 1.45168 0
M  V30 3153 C 311.349 -1.74572 1.53712 0
M  V30 3154 C 312.343 -1.64426 0.407505 0
M  V30 3155 O 313.549 -1.70291 0.583176 0
M  V30 3156 H 309.924 -0.576641 0.48269 0
M  V30 3157 H 311.895 -1.64492 2.48968 0
M  V30 3158 C 310.644 -3.12943 1.51532 0
M  V30 3159 H 309.967 -3.21407 2.37776 0
M  V30 3160 H 311.407 -3.9201 1.61569 0
M  V30 3161 C 309.866 -3.36053 0.238798 0
M  V30 3162 O 310.396 -3.95837 -0.6838 0
M  V30 3163 N 308.602 -2.9028 0.136359 0
M  V30 3164 H 308.149 -2.41811 0.887999 0
M  V30 3165 H 308.107 -3.06116 -0.716944 0
M  V30 3166 N 311.879 -1.3236 -0.855495 0
M  V30 3167 C 312.842 -1.21164 -1.94556 0
M  V30 3168 C 313.842 -0.134908 -1.60233 0
M  V30 3169 O 315.032 -0.385249 -1.69887 0
M  V30 3170 C 312.164 -0.863192 -3.29791 0
M  V30 3171 H 313.357 -2.18038 -2.05911 0
M  V30 3172 H 310.91 -1.16179 -1.04557 0
M  V30 3173 H 311.645 0.103769 -3.24134 0
M  V30 3174 H 311.43 -1.64166 -3.56078 0
M  V30 3175 H 312.92 -0.809156 -4.09686 0
M  V30 3176 N 313.357 1.07166 -1.15556 0
M  V30 3177 C 314.604 1.79798 -0.931604 0
M  V30 3178 C 314.932 1.8682 0.54115 0
M  V30 3179 O 314.187 1.34942 1.41736 0
M  V30 3180 C 314.486 3.24707 -1.49332 0
M  V30 3181 C 314.152 3.37781 -2.98688 0
M  V30 3182 C 312.814 3.41057 -3.39461 0
M  V30 3183 C 315.166 3.40424 -3.94665 0
M  V30 3184 C 312.494 3.4458 -4.74849 0
M  V30 3185 C 314.846 3.45485 -5.29927 0
M  V30 3186 C 313.51 3.47039 -5.70193 0
M  V30 3187 H 312.78 0.657928 -0.340898 0
M  V30 3188 H 315.427 1.26091 -1.44129 0
M  V30 3189 H 313.732 3.81208 -0.904859 0
M  V30 3190 H 315.429 3.79486 -1.29582 0
M  V30 3191 H 312.019 3.35932 -2.66172 0
M  V30 3192 H 316.203 3.37113 -3.64237 0
M  V30 3193 H 311.459 3.44083 -5.05388 0
M  V30 3194 H 315.633 3.46476 -6.04092 0
M  V30 3195 H 313.26 3.49522 -6.75084 0
M  V30 3196 N 314.835 0.952656 1.25548 0
M  V30 3197 C 316.081 0.607272 1.93494 0
M  V30 3198 C 316.414 -0.853245 1.74452 0
M  V30 3199 O 315.689 -1.61194 1.08843 0
M  V30 3200 C 315.972 0.96435 3.46947 0
M  V30 3201 C 315.825 2.48045 3.75225 0
M  V30 3202 C 317.144 0.487987 4.37386 0
M  V30 3203 H 314.263 0.222096 0.702739 0
M  V30 3204 H 316.905 1.18895 1.48203 0
M  V30 3205 H 315.055 0.469361 3.85654 0
M  V30 3206 H 316.727 3.04905 3.46166 0
M  V30 3207 H 314.97 2.919 3.209 0
M  V30 3208 H 315.641 2.6808 4.82532 0
M  V30 3209 H 318.117 0.912558 4.0597 0
M  V30 3210 H 316.993 0.766547 5.43521 0
M  V30 3211 H 317.254 -0.612063 4.37843 0
M  V30 3212 N 316.313 -1.40141 0.720998 0
M  V30 3213 C 317.541 -2.05096 0.272656 0
M  V30 3214 C 317.956 -1.54334 -1.0875 0
M  V30 3215 O 317.313 -0.702211 -1.6845 0
M  V30 3216 C 317.364 -3.60636 0.249835 0
M  V30 3217 O 317.085 -4.09526 1.55629 0
M  V30 3218 C 318.586 -4.42772 -0.216396 0
M  V30 3219 H 315.806 -0.659897 0.121558 0
M  V30 3220 H 318.35 -1.79449 0.980723 0
M  V30 3221 H 316.505 -3.85232 -0.409237 0
M  V30 3222 H 316.919 -5.03758 1.4604 0
M  V30 3223 H 318.393 -5.51702 -0.181212 0
M  V30 3224 H 318.87 -4.20756 -1.25941 0
M  V30 3225 H 319.476 -4.23294 0.412596 0
M  V30 3226 N 317.792 -0.46758 -1.50504 0
M  V30 3227 C 318.702 0.33382 -2.32213 0
M  V30 3228 C 319.718 0.999323 -1.42441 0
M  V30 3229 O 320.894 0.988068 -1.75497 0
M  V30 3230 C 317.959 1.4035 -3.17022 0
M  V30 3231 C 317.02 0.754961 -4.2261 0
M  V30 3232 C 316.253 1.77367 -5.03365 0
M  V30 3233 O 316.476 2.99976 -4.8515 0
M  V30 3234 O 315.41 1.34744 -5.86624 0
M  V30 3235 H 319.236 -0.334067 -3.01857 0
M  V30 3236 H 316.821 -0.229496 -1.47627 0
M  V30 3237 H 318.703 2.02318 -3.69656 0
M  V30 3238 H 317.378 2.05492 -2.5011 0
M  V30 3239 H 316.285 0.0964244 -3.73976 0
M  V30 3240 H 317.618 0.146545 -4.91982 0
M  V30 3241 N 319.27 1.56325 -0.20005 0
M  V30 3242 C 320.233 2.18084 0.705132 0
M  V30 3243 C 321.233 1.13666 1.1374 0
M  V30 3244 O 322.423 1.39023 1.04968 0
M  V30 3245 C 319.555 2.78689 1.96329 0
M  V30 3246 H 320.748 2.99435 0.167023 0
M  V30 3247 H 318.301 1.56221 0.0495725 0
M  V30 3248 H 319.036 2.0115 2.5438 0
M  V30 3249 H 318.821 3.55133 1.66202 0
M  V30 3250 H 320.311 3.26096 2.60866 0
M  V30 3251 N 320.748 -0.0735177 1.57428 0
M  V30 3252 C 321.695 -1.08756 2.0357 0
M  V30 3253 C 322.665 -1.38559 0.916 0
M  V30 3254 O 323.85 -1.49656 1.18354 0
M  V30 3255 C 320.99 -2.39657 2.48311 0
M  V30 3256 C 320.103 -2.16399 3.73892 0
M  V30 3257 C 319.238 -3.40852 4.07423 0
M  V30 3258 C 318.277 -3.1295 5.2605 0
M  V30 3259 N 317.414 -4.29729 5.55228 0
M  V30 3260 H 322.254 -0.687104 2.8997 0
M  V30 3261 H 319.791 -0.327709 1.43403 0
M  V30 3262 H 321.749 -3.16081 2.72303 0
M  V30 3263 H 320.379 -2.77508 1.64891 0
M  V30 3264 H 319.431 -1.30676 3.57251 0
M  V30 3265 H 320.743 -1.91788 4.60455 0
M  V30 3266 H 319.897 -4.25671 4.32306 0
M  V30 3267 H 318.636 -3.68537 3.19425 0
M  V30 3268 H 317.641 -2.26526 5.00965 0
M  V30 3269 H 318.866 -2.86589 6.15665 0
M  V30 3270 H 316.812 -4.57448 4.70188 0
M  V30 3271 H 316.729 -4.08385 6.36206 0
M  V30 3272 H 317.997 -5.1555 5.84661 0
M  V30 3273 N 322.226 -1.5378 -0.344866 0
M  V30 3274 C 323.642 -1.44015 -0.687888 0
M  V30 3275 C 323.842 -0.595834 -1.92489 0
M  V30 3276 O 322.898 -0.0863064 -2.52352 0
M  V30 3277 C 324.211 -2.87481 -0.881758 0
M  V30 3278 C 325.759 -2.97247 -0.980459 0
M  V30 3279 C 326.234 -4.41819 -1.20665 0
M  V30 3280 N 327.725 -4.45339 -1.27389 0
M  V30 3281 C 328.46 -5.54333 -1.46639 0
M  V30 3282 N 327.956 -6.73335 -1.63071 0
M  V30 3283 N 329.749 -5.41944 -1.49176 0
M  V30 3284 H 321.9 -2.07169 0.468475 0
M  V30 3285 H 324.163 -0.93643 0.147655 0
M  V30 3286 H 323.869 -3.51672 -0.0443444 0
M  V30 3287 H 323.743 -3.32352 -1.78388 0
M  V30 3288 H 326.13 -2.33197 -1.8084 0
M  V30 3289 H 326.211 -2.5574 -0.0552713 0
M  V30 3290 H 325.855 -5.06449 -0.383652 0
M  V30 3291 H 325.785 -4.80917 -2.14539 0
M  V30 3292 H 328.276 -3.59585 -1.1622 0
M  V30 3293 H 328.589 -7.52165 -1.77391 0
M  V30 3294 H 326.934 -6.76282 -1.60209 0
M  V30 3295 H 330.125 -4.47932 -1.3592 0
M  V30 3296 H 330.298 -6.26946 -1.63837 0
M  V30 3297 N 323.704 0.605807 -1.45491 0
M  V30 3298 C 324.636 1.73031 -1.5031 0
M  V30 3299 C 325.649 1.57968 -0.393687 0
M  V30 3300 O 326.838 1.65817 -0.660839 0
M  V30 3301 C 323.938 3.11049 -1.34543 0
M  V30 3302 C 323.111 3.52334 -2.59189 0
M  V30 3303 C 322.17 4.69323 -2.37954 0
M  V30 3304 O 321.196 4.7635 -3.11575 0
M  V30 3305 N 322.398 5.62705 -1.4263 0
M  V30 3306 H 325.163 1.6936 -2.4726 0
M  V30 3307 H 322.724 0.79114 -1.41254 0
M  V30 3308 H 324.716 3.87071 -1.18144 0
M  V30 3309 H 323.286 3.09217 -0.458623 0
M  V30 3310 H 322.506 2.66256 -2.90691 0
M  V30 3311 H 323.794 3.76677 -3.42041 0
M  V30 3312 H 323.192 5.59744 -0.818758 0
M  V30 3313 H 321.749 6.38252 -1.32202 0
M  V30 3314 N 325.182 1.32811 0.848464 0
M  V30 3315 C 326.428 1.23907 1.60546 0
M  V30 3316 C 326.761 -0.197161 1.93197 0
M  V30 3317 O 326.036 -1.13596 1.5788 0
M  V30 3318 C 326.319 2.10489 2.92175 0
M  V30 3319 C 326.172 3.62522 2.66266 0
M  V30 3320 C 327.491 1.97075 3.93509 0
M  V30 3321 H 324.61 0.451459 0.58254 0
M  V30 3322 H 327.252 1.62818 0.979296 0
M  V30 3323 H 325.402 1.77434 3.45614 0
M  V30 3324 H 327.074 4.05821 2.19334 0
M  V30 3325 H 325.317 3.84879 2.00126 0
M  V30 3326 H 325.988 4.18437 3.6002 0
M  V30 3327 H 328.464 2.26045 3.49346 0
M  V30 3328 H 327.34 2.59923 4.83457 0
M  V30 3329 H 327.601 0.940186 4.31987 0
M  V30 3330 N 326.66 -1.06551 1.16123 0
M  V30 3331 C 327.885 -1.83544 0.965735 0
M  V30 3332 C 328.31 -1.81843 -0.481102 0
M  V30 3333 O 327.668 -1.21732 -1.34354 0
M  V30 3334 C 327.716 -3.28169 1.49457 0
M  V30 3335 O 326.82 -4.0643 0.699157 0
M  V30 3336 H 326.161 -0.568026 0.343864 0
M  V30 3337 H 328.691 -1.34362 1.54299 0
M  V30 3338 H 328.701 -3.78992 1.51092 0
M  V30 3339 H 327.376 -3.28722 2.54784 0
M  V30 3340 H 325.953 -3.65216 0.7531 0
M  V30 3341 N 328.138 -0.959301 -1.25041 0
M  V30 3342 C 329.07 -0.440543 -2.24926 0
M  V30 3343 C 330.083 0.446131 -1.56568 0
M  V30 3344 O 331.272 0.253657 -1.76689 0
M  V30 3345 C 328.372 0.38412 -3.36716 0
M  V30 3346 C 327.545 -0.490658 -4.34639 0
M  V30 3347 C 326.604 0.276587 -5.25473 0
M  V30 3348 O 325.63 -0.326614 -5.68262 0
M  V30 3349 N 326.832 1.56844 -5.5891 0
M  V30 3350 H 329.597 -1.29931 -2.70071 0
M  V30 3351 H 327.158 -0.830181 -1.38995 0
M  V30 3352 H 329.15 0.905228 -3.94446 0
M  V30 3353 H 327.72 1.14377 -2.90924 0
M  V30 3354 H 326.94 -1.19282 -3.7572 0
M  V30 3355 H 328.228 -1.08756 -4.97041 0
M  V30 3356 H 327.626 2.08036 -5.26059 0
M  V30 3357 H 326.183 2.03541 -6.19205 0
M  V30 3358 N 329.616 1.39756 -0.72842 0
M  V30 3359 C 331.032 1.5442 -0.403308 0
M  V30 3360 C 331.232 1.69694 1.08656 0
M  V30 3361 O 330.288 1.69373 1.87267 0
M  V30 3362 C 331.601 2.76555 -1.18058 0
M  V30 3363 C 333.149 2.90384 -1.16815 0
M  V30 3364 C 333.624 4.15449 -1.92785 0
M  V30 3365 N 335.115 4.22475 -1.89918 0
M  V30 3366 C 335.85 5.1818 -2.45514 0
M  V30 3367 N 335.346 6.19714 -3.09719 0
M  V30 3368 N 337.139 5.1035 -2.35584 0
M  V30 3369 H 329.29 1.28089 -1.69431 0
M  V30 3370 H 331.553 0.620327 -0.716867 0
M  V30 3371 H 331.259 2.7159 -2.23455 0
M  V30 3372 H 331.133 3.69033 -0.780662 0
M  V30 3373 H 333.52 2.94846 -0.12234 0
M  V30 3374 H 333.601 1.98988 -1.6074 0
M  V30 3375 H 333.245 4.11749 -2.97364 0
M  V30 3376 H 333.175 5.05877 -1.46272 0
M  V30 3377 H 335.666 3.49743 -1.43138 0
M  V30 3378 H 335.979 6.8919 -3.49625 0
M  V30 3379 H 334.324 6.20121 -3.13807 0
M  V30 3380 H 337.515 4.2996 -1.85072 0
M  V30 3381 H 337.688 5.84761 -2.79211 0
M  V30 3382 N 331.094 0.475555 1.50254 0
M  V30 3383 C 332.024 -0.30611 2.31485 0
M  V30 3384 C 333.005 -0.986228 1.38591 0
M  V30 3385 O 334.19 -0.982541 1.67511 0
M  V30 3386 C 331.32 -1.38588 3.1845 0
M  V30 3387 C 330.274 -0.827115 4.19932 0
M  V30 3388 C 329.6 -2.00551 4.95665 0
M  V30 3389 C 330.9 0.16463 5.2204 0
M  V30 3390 H 332.594 0.371866 2.97082 0
M  V30 3391 H 330.14 0.180282 1.42867 0
M  V30 3392 H 332.093 -1.94023 3.74076 0
M  V30 3393 H 330.817 -2.09269 2.50747 0
M  V30 3394 H 329.476 -0.294702 3.65414 0
M  V30 3395 H 329.124 -2.6994 4.2443 0
M  V30 3396 H 328.824 -1.63784 5.64313 0
M  V30 3397 H 330.348 -2.56468 5.54127 0
M  V30 3398 H 331.762 -0.300699 5.72511 0
M  V30 3399 H 330.159 0.446813 5.98434 0
M  V30 3400 H 331.229 1.08905 4.72512 0
M  V30 3401 N 332.573 -1.56217 0.208337 0
M  V30 3402 C 333.85 -1.89739 -0.475234 0
M  V30 3403 C 334.23 -1.1238 -1.78701 0
M  V30 3404 O 333.578 -0.228979 -2.2735 0
M  V30 3405 C 333.788 -3.42289 -0.681101 0
M  V30 3406 C 335.136 -4.12789 -0.994507 0
M  V30 3407 O 336.16 -3.47814 -0.768357 0
M  V30 3408 O 335.019 -5.27649 -1.42299 0
M  V30 3409 H 332.113 -0.788478 -0.249461 0
M  V30 3410 H 334.659 -1.67855 0.249538 0
M  V30 3411 H 333.431 -3.90534 0.244722 0
M  V30 3412 H 333.054 -3.69909 -1.45785 0
M  V30 3413 N 334.051 0.0651679 -1.57465 0
M  V30 3414 C 335.299 0.761555 -1.87202 0
M  V30 3415 C 335.62 1.77778 -0.801243 0
M  V30 3416 O 334.89 1.95166 0.16937 0
M  V30 3417 H 333.47 0.284251 -0.690804 0
M  V30 3418 H 336.132 0.0396827 -1.9486 0
M  V30 3419 H 335.228 1.27365 -2.84929 0
M  V30 3420 N 335.529 1.53961 0.336706 0
M  V30 3421 C 336.492 1.81724 1.39675 0
M  V30 3422 C 337.492 0.688532 1.45313 0
M  V30 3423 O 338.682 0.956829 1.45569 0
M  V30 3424 C 335.814 1.96543 2.78538 0
M  V30 3425 H 337.007 2.76424 1.16318 0
M  V30 3426 H 334.56 1.45478 0.571474 0
M  V30 3427 H 335.295 1.0401 3.07168 0
M  V30 3428 H 335.08 2.78665 2.75841 0
M  V30 3429 H 336.57 2.19516 3.5525 0
M  V30 3430 N 337.007 -0.598083 1.45811 0
M  V30 3431 C 337.97 -1.69018 1.54808 0
M  V30 3432 C 338.97 -1.55037 0.426652 0
M  V30 3433 O 340.16 -1.59932 0.690456 0
M  V30 3434 C 337.292 -3.0835 1.45371 0
M  V30 3435 H 338.485 -1.62403 2.52121 0
M  V30 3436 H 336.038 -0.814626 1.33392 0
M  V30 3437 H 336.773 -3.20534 0.492793 0
M  V30 3438 H 336.558 -3.19907 2.26721 0
M  V30 3439 H 338.048 -3.8788 1.54721 0
M  V30 3440 N 338.485 -1.33259 -0.841409 0
M  V30 3441 C 339.734 -1.23921 -1.59143 0
M  V30 3442 C 340.047 0.1941 -1.94635 0
M  V30 3443 O 341.253 0.409474 -2.68394 0
M  V30 3444 C 339.709 -2.17119 -2.87032 0
M  V30 3445 C 339.317 -3.65606 -2.58914 0
M  V30 3446 C 341.061 -2.16648 -3.65053 0
M  V30 3447 C 338.968 -4.50726 -3.82884 0
M  V30 3448 H 337.898 -0.460264 -0.597221 0
M  V30 3449 H 340.549 -1.58307 -0.927959 0
M  V30 3450 H 338.931 -1.75663 -3.54906 0
M  V30 3451 H 340.105 -4.15487 -1.99267 0
M  V30 3452 H 338.42 -3.68341 -1.942 0
M  V30 3453 H 341.017 -2.77474 -4.57069 0
M  V30 3454 H 341.36 -1.16088 -3.99787 0
M  V30 3455 H 341.893 -2.56453 -3.041 0
M  V30 3456 H 338.632 -5.52151 -3.53283 0
M  V30 3457 H 338.152 -4.0559 -4.41879 0
M  V30 3458 H 339.831 -4.64401 -4.50489 0
M  V30 3459 N 339.963 1.05934 -1.16686 0
M  V30 3460 C 341.24 1.75643 -0.860747 0
M  V30 3461 C 341.62 2.01144 0.640641 0
M  V30 3462 O 340.968 1.64147 1.58959 0
M  V30 3463 C 341.178 3.05493 -1.68745 0
M  V30 3464 C 342.526 3.79581 -1.90271 0
M  V30 3465 O 343.55 3.15344 -1.65641 0
M  V30 3466 O 342.409 4.9499 -2.31618 0
M  V30 3467 H 339.503 0.763426 -0.317977 0
M  V30 3468 H 342.049 1.1217 -1.27342 0
M  V30 3469 H 340.821 2.8264 -2.70611 0
M  V30 3470 H 340.444 3.76702 -1.27206 0
M  V30 3471 N 341.441 0.965919 1.2453 0
M  V30 3472 C 342.374 0.4393 2.23932 0
M  V30 3473 C 343.352 -0.485615 1.55179 0
M  V30 3474 O 344.536 -0.417402 1.83821 0
M  V30 3475 C 341.663 -0.366042 3.36716 0
M  V30 3476 C 340.709 0.5009 4.23548 0
M  V30 3477 S 341.542 1.94002 4.99123 0
M  V30 3478 C 342.698 1.14342 6.15367 0
M  V30 3479 H 342.931 1.28167 2.68254 0
M  V30 3480 H 340.464 0.770819 1.33782 0
M  V30 3481 H 342.422 -0.824724 4.0213 0
M  V30 3482 H 341.083 -1.18337 2.90956 0
M  V30 3483 H 340.276 -0.117341 5.03863 0
M  V30 3484 H 339.878 0.89524 3.63127 0
M  V30 3485 H 342.17 0.397572 6.76332 0
M  V30 3486 H 343.113 1.92089 6.81548 0
M  V30 3487 H 343.521 0.668579 5.60527 0
M  V30 3488 N 342.919 -1.39368 0.735821 0
M  V30 3489 C 344.33 -1.83313 0.354015 0
M  V30 3490 C 344.681 -1.61461 -1.11466 0
M  V30 3491 O 343.806 -1.10621 -1.85989 0
M  V30 3492 C 344.401 -3.32781 0.635769 0
M  V30 3493 C 342.96 -3.75142 0.307448 0
M  V30 3494 C 342.107 -2.62358 0.897974 0
M  V30 3495 H 345.058 -1.28349 0.933398 0
M  V30 3496 H 345.079 -3.80388 -0.0921773 0
M  V30 3497 H 344.591 -3.48654 1.70476 0
M  V30 3498 H 342.692 -3.64857 -0.755674 0
M  V30 3499 H 342.805 -4.72532 0.790583 0
M  V30 3500 H 341.169 -2.52624 0.324551 0
M  V30 3501 H 341.952 -2.81036 1.97164 0
M  V30 3502 N 344.397 -0.483516 -1.5 0
M  V30 3503 C 345.36 0.292965 -2.2732 0
M  V30 3504 C 346.36 0.909499 -1.32608 0
M  V30 3505 O 347.55 0.776745 -1.55924 0
M  V30 3506 C 344.682 1.41854 -3.09984 0
M  V30 3507 H 345.875 -0.385289 -2.97415 0
M  V30 3508 H 343.428 -0.237942 -1.54478 0
M  V30 3509 H 344.163 2.13148 -2.44414 0
M  V30 3510 H 343.948 0.982114 -3.79601 0
M  V30 3511 H 345.438 1.96597 -3.68429 0
M  V30 3512 N 345.875 1.56104 -0.216619 0
M  V30 3513 C 347.123 1.97781 0.415593 0
M  V30 3514 C 347.444 1.10536 1.60645 0
M  V30 3515 O 346.714 0.181303 1.95059 0
M  V30 3516 H 345.294 0.730415 0.156534 0
M  V30 3517 H 347.956 1.92445 -0.308366 0
M  V30 3518 H 347.052 3.03072 0.74525 0
M  V30 3519 N 347.353 -0.0568162 1.57498 0
M  V30 3520 C 348.764 -0.606858 1.76562 0
M  V30 3521 C 349.115 -1.77114 0.844094 0
M  V30 3522 O 348.24 -2.16376 0.0318911 0
M  V30 3523 C 348.835 -1.10766 3.20182 0
M  V30 3524 C 347.394 -1.60344 3.40539 0
M  V30 3525 C 346.541 -0.529311 2.72201 0
M  V30 3526 H 349.492 0.169393 1.57793 0
M  V30 3527 H 349.513 -1.97602 3.25167 0
M  V30 3528 H 349.025 -0.26006 3.87228 0
M  V30 3529 H 347.126 -2.47379 2.78629 0
M  V30 3530 H 347.239 -1.67006 4.4905 0
M  V30 3531 H 345.603 -0.977893 2.35179 0
M  V30 3532 H 346.386 0.308352 3.41912 0
M  V30 3533 N 348.832 -1.54138 -0.328536 0
M  V30 3534 C 350.057 -1.76378 -1.09112 0
M  V30 3535 C 350.482 -0.508596 -1.81094 0
M  V30 3536 O 349.84 0.539598 -1.73084 0
M  V30 3537 C 349.888 -2.95358 -2.06872 0
M  V30 3538 O 348.992 -2.66556 -3.14677 0
M  V30 3539 H 348.333 -0.584614 -0.314838 0
M  V30 3540 H 350.863 -2.01146 -0.374348 0
M  V30 3541 H 350.873 -3.22566 -2.4983 0
M  V30 3542 H 349.548 -3.86385 -1.5388 0
M  V30 3543 H 348.125 -2.50282 -2.7643 0
M  V30 3544 N 350.31 0.590341 -1.46126 0
M  V30 3545 C 351.22 1.72793 -1.58681 0
M  V30 3546 C 352.236 1.67516 -0.470566 0
M  V30 3547 O 353.412 1.87562 -0.733642 0
M  V30 3548 C 350.477 3.09287 -1.5666 0
M  V30 3549 C 349.538 3.25886 -2.79458 0
M  V30 3550 C 348.771 4.55869 -2.77524 0
M  V30 3551 O 348.994 5.3928 -1.85832 0
M  V30 3552 O 347.928 4.75552 -3.68964 0
M  V30 3553 H 351.754 1.65149 -2.54872 0
M  V30 3554 H 349.339 0.756486 -1.28832 0
M  V30 3555 H 351.221 3.90577 -1.58202 0
M  V30 3556 H 349.896 3.17385 -0.636271 0
M  V30 3557 H 348.803 2.44119 -2.83472 0
M  V30 3558 H 350.136 3.22675 -3.71674 0
M  V30 3559 N 351.788 1.33704 0.83433 0
M  V30 3560 C 353.034 1.25603 1.59222 0
M  V30 3561 C 353.367 -0.176659 1.93395 0
M  V30 3562 O 352.642 -1.11915 1.59076 0
M  V30 3563 C 352.925 2.13576 2.89926 0
M  V30 3564 C 352.778 3.65326 2.62406 0
M  V30 3565 C 354.097 2.01238 3.91397 0
M  V30 3566 H 351.216 0.457613 0.577719 0
M  V30 3567 H 353.858 1.63848 0.961972 0
M  V30 3568 H 352.008 1.8109 3.43713 0
M  V30 3569 H 353.68 4.08124 2.15017 0
M  V30 3570 H 351.923 3.8698 1.96033 0
M  V30 3571 H 352.594 4.22232 3.55562 0
M  V30 3572 H 355.07 2.29738 3.46929 0
M  V30 3573 H 353.946 2.65036 4.80673 0
M  V30 3574 H 354.207 0.985951 4.30966 0
M  V30 3575 N 353.266 -1.05314 1.17247 0
M  V30 3576 C 354.196 -2.1498 0.911362 0
M  V30 3577 C 355.177 -1.69471 -0.146169 0
M  V30 3578 O 356.362 -1.942 0.003812 0
M  V30 3579 C 353.492 -3.4472 0.422528 0
M  V30 3580 C 352.446 -4.03789 1.4191 0
M  V30 3581 C 351.772 -5.28858 0.788274 0
M  V30 3582 C 353.072 -4.41418 2.7919 0
M  V30 3583 H 354.766 -2.3708 1.82848 0
M  V30 3584 H 352.312 -1.13938 0.880569 0
M  V30 3585 H 354.265 -4.20787 0.227289 0
M  V30 3586 H 352.989 -3.22269 -0.530123 0
M  V30 3587 H 351.648 -3.2979 1.60106 0
M  V30 3588 H 351.296 -5.02709 -0.171173 0
M  V30 3589 H 350.996 -5.69338 1.45353 0
M  V30 3590 H 352.52 -6.07612 0.603282 0
M  V30 3591 H 353.934 -5.08524 2.64719 0
M  V30 3592 H 352.331 -4.92913 3.42282 0
M  V30 3593 H 353.401 -3.51819 3.33693 0
M  V30 3594 N 354.744 -0.972509 -1.24016 0
M  V30 3595 C 355.99 -0.637978 -1.92504 0
M  V30 3596 C 356.323 0.825383 -1.75787 0
M  V30 3597 O 355.598 1.59442 -1.11393 0
M  V30 3598 C 355.881 -1.01942 -3.45369 0
M  V30 3599 C 355.734 -2.53983 -3.71231 0
M  V30 3600 C 357.053 -0.55751 -4.36555 0
M  V30 3601 H 354.172 -0.233248 -0.699117 0
M  V30 3602 H 356.814 -1.21238 -1.46292 0
M  V30 3603 H 354.964 -0.530656 -3.84859 0
M  V30 3604 H 356.636 -3.10374 -3.41271 0
M  V30 3605 H 354.879 -2.96968 -3.16216 0
M  V30 3606 H 355.55 -2.75723 -4.78206 0
M  V30 3607 H 358.026 -0.977029 -4.04467 0
M  V30 3608 H 356.902 -0.85292 -5.42233 0
M  V30 3609 H 357.163 0.542328 -4.38761 0
M  V30 3610 N 356.222 1.38976 -0.743202 0
M  V30 3611 C 357.471 1.99581 -0.291592 0
M  V30 3612 C 357.784 1.59656 1.13001 0
M  V30 3613 O 358.99 2.13157 1.68156 0
M  V30 3614 C 357.446 3.56813 -0.470391 0
M  V30 3615 C 357.054 4.05695 -1.90041 0
M  V30 3616 C 358.798 4.24423 -0.0809709 0
M  V30 3617 C 356.705 5.5553 -2.02832 0
M  V30 3618 H 355.635 0.746615 -0.105272 0
M  V30 3619 H 358.286 1.58872 -0.918258 0
M  V30 3620 H 356.668 3.95359 0.225299 0
M  V30 3621 H 357.842 3.78464 -2.62872 0
M  V30 3622 H 356.157 3.50775 -2.24379 0
M  V30 3623 H 358.754 5.34474 -0.155445 0
M  V30 3624 H 359.097 4.04962 0.96497 0
M  V30 3625 H 359.63 3.9108 -0.728124 0
M  V30 3626 H 356.369 5.79881 -3.05643 0
M  V30 3627 H 355.889 5.84537 -1.34448 0
M  V30 3628 H 357.568 6.21069 -1.81335 0
M  V30 3629 N 357.7 0.491464 1.49741 0
M  V30 3630 C 358.663 -0.280906 2.27472 0
M  V30 3631 C 359.663 -0.902454 1.33088 0
M  V30 3632 O 360.853 -0.768465 1.56334 0
M  V30 3633 C 357.985 -1.40209 3.10732 0
M  V30 3634 H 359.178 0.401056 2.97206 0
M  V30 3635 H 356.731 0.246131 1.5435 0
M  V30 3636 H 357.466 -2.11849 2.45541 0
M  V30 3637 H 357.251 -0.961969 3.80117 0
M  V30 3638 H 358.741 -1.9464 3.69466 0
M  V30 3639 N 359.178 -1.55987 0.224894 0
M  V30 3640 C 360.455 -1.90232 -0.455083 0
M  V30 3641 C 360.835 -1.14269 -1.77499 0
M  V30 3642 O 360.183 -0.253079 -2.27094 0
M  V30 3643 C 360.393 -3.42993 -0.644758 0
M  V30 3644 C 361.741 -4.13821 -0.950669 0
M  V30 3645 O 362.765 -3.4861 -0.731423 0
M  V30 3646 O 361.624 -5.29128 -1.36695 0
M  V30 3647 H 358.718 -0.79108 -0.241084 0
M  V30 3648 H 361.264 -1.67581 0.267327 0
M  V30 3649 H 360.036 -3.90252 0.28613 0
M  V30 3650 H 359.659 -3.71434 -1.41853 0
M  V30 3651 N 360.656 0.0484629 -1.57525 0
M  V30 3652 C 361.881 0.759177 -1.93006 0
M  V30 3653 C 362.306 1.69125 -0.823317 0
M  V30 3654 O 361.664 1.79931 0.222364 0
M  V30 3655 C 361.712 1.50899 -3.27509 0
M  V30 3656 O 360.816 2.62112 -3.18388 0
M  V30 3657 H 360.157 0.205564 -0.631379 0
M  V30 3658 H 362.687 0.00972959 -2.04598 0
M  V30 3659 H 362.697 1.88317 -3.6194 0
M  V30 3660 H 361.372 0.825269 -4.0763 0
M  V30 3661 H 359.949 2.27379 -2.95556 0
M  V30 3662 N 362.134 1.5431 0.320358 0
M  V30 3663 C 363.382 1.72327 1.05583 0
M  V30 3664 C 363.703 0.50149 1.88441 0
M  V30 3665 O 362.973 -0.48448 1.89815 0
M  V30 3666 H 361.553 0.635387 0.3928 0
M  V30 3667 H 364.215 1.91621 0.356019 0
M  V30 3668 H 363.311 2.60426 1.72003 0
M  V30 3669 N 363.613 -0.582584 1.46437 0
M  V30 3670 C 364.576 -1.67366 1.56592 0
M  V30 3671 C 365.576 -1.54575 0.443072 0
M  V30 3672 O 366.766 -1.59191 0.707381 0
M  V30 3673 C 363.898 -3.06791 1.48634 0
M  V30 3674 H 365.091 -1.5972 2.5383 0
M  V30 3675 H 362.644 -0.800432 1.34249 0
M  V30 3676 H 363.379 -3.19993 0.526763 0
M  V30 3677 H 363.164 -3.17484 2.30101 0
M  V30 3678 H 364.654 -3.86218 1.58826 0
M  V30 3679 N 365.091 -1.34144 -0.827227 0
M  V30 3680 C 366.319 -1.29325 -1.61501 0
M  V30 3681 C 366.734 0.13354 -1.88327 0
M  V30 3682 O 366.091 1.0793 -1.47164 0
M  V30 3683 C 366.142 -2.07746 -2.95844 0
M  V30 3684 O 365.863 -3.4486 -2.70191 0
M  V30 3685 C 367.364 -2.10273 -3.90256 0
M  V30 3686 H 364.584 -0.445069 -0.50215 0
M  V30 3687 H 367.128 -1.76693 -1.02955 0
M  V30 3688 H 365.283 -1.6403 -3.5096 0
M  V30 3689 H 365.697 -3.85345 -3.55822 0
M  V30 3690 H 367.171 -2.69575 -4.81698 0
M  V30 3691 H 367.648 -1.096 -4.25305 0
M  V30 3692 H 368.254 -2.54059 -3.41078 0
M  V30 3693 N 366.569 1.04691 -1.17803 0
M  V30 3694 C 367.98 1.59238 -0.974689 0
M  V30 3695 C 368.331 1.90306 0.477292 0
M  V30 3696 O 367.456 1.68846 1.35352 0
M  V30 3697 C 368.051 2.89318 -1.76296 0
M  V30 3698 C 366.61 3.40506 -1.60414 0
M  V30 3699 C 365.757 2.14172 -1.76141 0
M  V30 3700 H 368.708 0.874395 -1.32439 0
M  V30 3701 H 368.729 3.5944 -1.24833 0
M  V30 3702 H 368.241 2.66675 -2.81968 0
M  V30 3703 H 366.342 3.68175 -0.572519 0
M  V30 3704 H 366.455 4.14753 -2.39827 0
M  V30 3705 H 364.819 2.25176 -1.19028 0
M  V30 3706 H 365.602 1.93992 -2.83235 0
M  V30 3707 N 368.047 0.979072 1.23499 0
M  V30 3708 C 369.324 0.563674 1.87302 0
M  V30 3709 C 369.704 -0.959199 1.88049 0
M  V30 3710 O 369.052 -1.83535 1.36114 0
M  V30 3711 C 369.262 1.16822 3.28867 0
M  V30 3712 C 370.61 1.26014 4.0547 0
M  V30 3713 O 371.634 1.12158 3.38082 0
M  V30 3714 O 370.493 1.48044 5.26066 0
M  V30 3715 H 367.587 0.189602 0.804972 0
M  V30 3716 H 370.133 1.07407 1.31384 0
M  V30 3717 H 368.905 2.21049 3.22883 0
M  V30 3718 H 368.528 0.642564 3.92373 0
M  V30 3719 N 369.525 -1.3858 0.750561 0
M  V30 3720 C 370.772 -2.00184 0.305373 0
M  V30 3721 C 371.1 -1.59575 -1.11203 0
M  V30 3722 O 370.355 -0.823236 -1.77542 0
M  V30 3723 C 370.654 -3.55455 0.372373 0
M  V30 3724 C 370.32 -4.15765 1.745 0
M  V30 3725 C 368.982 -4.31951 2.12065 0
M  V30 3726 C 371.334 -4.49067 2.64553 0
M  V30 3727 C 368.662 -4.78734 3.39162 0
M  V30 3728 C 371.014 -4.97265 3.91038 0
M  V30 3729 C 369.678 -5.11658 4.28676 0
M  V30 3730 H 368.948 -0.732526 0.111744 0
M  V30 3731 H 371.595 -1.65673 0.960451 0
M  V30 3732 H 369.9 -3.90084 -0.366272 0
M  V30 3733 H 371.597 -4.00999 0.00953918 0
M  V30 3734 H 368.187 -4.03579 1.44297 0
M  V30 3735 H 372.371 -4.36166 2.36796 0
M  V30 3736 H 367.627 -4.88062 3.68246 0
M  V30 3737 H 371.801 -5.22003 4.60962 0
M  V30 3738 H 369.428 -5.47668 5.27222 0
M  V30 3739 N 371.003 -0.499398 -1.49478 0
M  V30 3740 C 372.249 0.0457576 -2.02748 0
M  V30 3741 C 372.582 1.36793 -1.37846 0
M  V30 3742 O 371.857 1.87596 -0.513601 0
M  V30 3743 C 372.14 0.199986 -3.59544 0
M  V30 3744 C 371.993 -1.1452 -4.34977 0
M  V30 3745 C 373.312 0.94137 -4.29914 0
M  V30 3746 H 370.431 0.0151552 -0.736844 0
M  V30 3747 H 373.073 -0.650498 -1.78518 0
M  V30 3748 H 371.223 0.793007 -3.8032 0
M  V30 3749 H 372.895 -1.77697 -4.25701 0
M  V30 3750 H 371.138 -1.73488 -3.97598 0
M  V30 3751 H 371.809 -0.990607 -5.43039 0
M  V30 3752 H 374.285 0.43844 -4.13784 0
M  V30 3753 H 373.161 1.01812 -5.39375 0
M  V30 3754 H 373.422 1.98471 -3.95046 0
M  V30 3755 N 372.481 1.55866 -0.233164 0
M  V30 3756 C 373.444 2.1953 0.658715 0
M  V30 3757 C 374.444 1.16053 1.11303 0
M  V30 3758 O 375.634 1.41218 1.01996 0
M  V30 3759 C 372.766 2.82791 1.90373 0
M  V30 3760 H 373.959 2.99721 0.10347 0
M  V30 3761 H 371.512 1.56291 0.0164245 0
M  V30 3762 H 372.247 2.06501 2.50056 0
M  V30 3763 H 372.032 3.58578 1.58632 0
M  V30 3764 H 373.522 3.31556 2.53891 0
M  V30 3765 N 373.959 -0.0401083 1.57549 0
M  V30 3766 C 375.184 -0.748931 1.93406 0
M  V30 3767 C 375.609 -1.68686 0.832274 0
M  V30 3768 O 374.967 -1.80047 -0.212818 0
M  V30 3769 C 375.015 -1.4916 3.28304 0
M  V30 3770 O 374.119 -2.6042 3.19774 0
M  V30 3771 H 373.46 -0.202212 0.63246 0
M  V30 3772 H 375.99 0.00112086 2.046 0
M  V30 3773 H 376 -1.86395 3.62934 0
M  V30 3774 H 374.675 -0.80364 4.08062 0
M  V30 3775 H 373.252 -2.25808 2.96758 0
M  V30 3776 N 375.437 -1.54477 -0.31217 0
M  V30 3777 C 376.714 -1.63891 -1.06767 0
M  V30 3778 C 377.094 -0.480028 -2.0557 0
M  V30 3779 O 376.442 0.524487 -2.22399 0
M  V30 3780 C 376.652 -3.01402 -1.75948 0
M  V30 3781 C 378 -3.57838 -2.28554 0
M  V30 3782 O 379.024 -3.03782 -1.85998 0
M  V30 3783 O 377.883 -4.52462 -3.06497 0
M  V30 3784 H 374.977 -0.664125 -0.492816 0
M  V30 3785 H 377.523 -1.66823 -0.311149 0
M  V30 3786 H 376.295 -3.77187 -1.04144 0
M  V30 3787 H 375.918 -3.02199 -2.58383 0
M  V30 3788 N 376.915 0.57481 -1.46744 0
M  V30 3789 C 377.845 1.69337 -1.60771 0
M  V30 3790 C 378.826 1.63825 -0.457736 0
M  V30 3791 O 380.011 1.8172 -0.684947 0
M  V30 3792 C 377.141 3.0798 -1.60517 0
M  V30 3793 C 376.095 3.28327 -2.74564 0
M  V30 3794 C 375.421 4.67578 -2.59373 0
M  V30 3795 C 376.721 3.15398 -4.16319 0
M  V30 3796 H 378.415 1.57853 -2.54407 0
M  V30 3797 H 375.961 0.75799 -1.22436 0
M  V30 3798 H 377.914 3.86061 -1.68923 0
M  V30 3799 H 376.638 3.20381 -0.634305 0
M  V30 3800 H 375.297 2.52649 -2.65639 0
M  V30 3801 H 374.945 4.76755 -1.60353 0
M  V30 3802 H 374.645 4.82144 -3.35873 0
M  V30 3803 H 376.169 5.47817 -2.69682 0
M  V30 3804 H 377.583 3.83315 -4.26313 0
M  V30 3805 H 375.98 3.41482 -4.93468 0
M  V30 3806 H 377.05 2.12372 -4.3592 0
M  V30 3807 N 378.394 1.34581 0.820102 0
M  V30 3808 C 379.324 1.29038 1.94606 0
M  V30 3809 C 380.305 0.1673 1.69275 0
M  V30 3810 O 381.49 0.360112 1.90832 0
M  V30 3811 C 378.62 1.04793 3.31113 0
M  V30 3812 C 377.574 2.13597 3.70891 0
M  V30 3813 C 376.9 1.74537 5.05412 0
M  V30 3814 C 378.2 3.55451 3.8269 0
M  V30 3815 H 379.894 2.23248 1.99501 0
M  V30 3816 H 377.44 1.0747 0.958449 0
M  V30 3817 H 379.393 0.995592 4.0947 0
M  V30 3818 H 378.117 0.0702565 3.26524 0
M  V30 3819 H 376.776 2.17905 2.9481 0
M  V30 3820 H 376.424 0.754226 4.97313 0
M  V30 3821 H 376.124 2.47361 5.32997 0
M  V30 3822 H 377.648 1.70803 5.86224 0
M  V30 3823 H 379.062 3.5354 4.51312 0
M  V30 3824 H 377.459 4.26922 4.21732 0
M  V30 3825 H 378.529 3.92587 2.84611 0
M  V30 3826 N 379.872 -1.04064 1.18357 0
M  V30 3827 C 381.097 -1.81454 1.00445 0
M  V30 3828 C 381.522 -1.82823 -0.442423 0
M  V30 3829 O 380.88 -1.24555 -1.31741 0
M  V30 3830 C 380.928 -3.24925 1.56384 0
M  V30 3831 O 380.032 -4.04856 0.785209 0
M  V30 3832 H 379.373 -0.560604 0.355835 0
M  V30 3833 H 381.903 -1.31059 1.57114 0
M  V30 3834 H 381.913 -3.75702 1.59097 0
M  V30 3835 H 380.588 -3.23244 2.61699 0
M  V30 3836 H 379.165 -3.63537 0.830399 0
M  V30 3837 N 381.35 -0.985608 -1.22978 0
M  V30 3838 C 382.282 -0.488154 -2.23941 0
M  V30 3839 C 383.295 0.41282 -1.57479 0
M  V30 3840 O 384.484 0.216121 -1.77187 0
M  V30 3841 C 381.584 0.312611 -3.37455 0
M  V30 3842 C 380.757 -0.582741 -4.33501 0
M  V30 3843 C 379.816 0.165064 -5.25941 0
M  V30 3844 O 378.842 -0.447077 -5.67442 0
M  V30 3845 N 380.044 1.44953 -5.62111 0
M  V30 3846 H 382.809 -1.3563 -2.67254 0
M  V30 3847 H 380.37 -0.859477 -1.37203 0
M  V30 3848 H 382.362 0.821357 -3.96277 0
M  V30 3849 H 380.932 1.0818 -2.93285 0
M  V30 3850 H 380.152 -1.27225 -3.73105 0
M  V30 3851 H 381.44 -1.19275 -4.94622 0
M  V30 3852 H 380.838 1.9683 -5.30353 0
M  V30 3853 H 379.395 1.90361 -6.23383 0
M  V30 3854 N 382.828 1.3818 -0.7579 0
M  V30 3855 C 383.791 2.28764 -0.141286 0
M  V30 3856 C 384.791 1.47388 0.642907 0
M  V30 3857 O 385.981 1.67781 0.468536 0
M  V30 3858 C 383.113 3.31184 0.808069 0
M  V30 3859 H 384.306 2.848 -0.939633 0
M  V30 3860 H 381.859 1.47212 -0.525191 0
M  V30 3861 H 382.594 2.80247 1.63193 0
M  V30 3862 H 382.379 3.91314 0.248104 0
M  V30 3863 H 383.869 3.98909 1.23536 0
M  V30 3864 N 384.306 0.507319 1.49211 0
M  V30 3865 C 385.216 -0.272136 2.33016 0
M  V30 3866 C 386.232 -0.961206 1.45041 0
M  V30 3867 O 387.408 -0.941191 1.78055 0
M  V30 3868 C 384.473 -1.31895 3.20631 0
M  V30 3869 C 383.534 -0.642648 4.24463 0
M  V30 3870 C 382.767 -1.63959 5.07891 0
M  V30 3871 O 382.99 -2.87007 4.92933 0
M  V30 3872 O 381.924 -1.19143 5.8999 0
M  V30 3873 H 385.75 0.413982 3.00865 0
M  V30 3874 H 383.335 0.268556 1.46966 0
M  V30 3875 H 385.217 -1.92446 3.7489 0
M  V30 3876 H 383.892 -1.98788 2.5547 0
M  V30 3877 H 382.799 0.00276252 3.741 0
M  V30 3878 H 384.132 -0.0160534 4.92197 0
M  V30 3879 N 385.784 -1.5574 0.241426 0
M  V30 3880 C 386.734 -2.17803 -0.674233 0
M  V30 3881 C 387.718 -1.13225 -1.14319 0
M  V30 3882 O 388.91 -1.39153 -1.09387 0
M  V30 3883 C 386.039 -2.87682 -1.87333 0
M  V30 3884 C 385.125 -3.99509 -1.42313 0
M  V30 3885 N 385.516 -5.01115 -0.686798 0
M  V30 3886 C 383.814 -4.11964 -1.70885 0
M  V30 3887 C 384.515 -5.79922 -0.454456 0
M  V30 3888 N 383.491 -5.34001 -1.01705 0
M  V30 3889 H 387.293 -2.93718 -0.103447 0
M  V30 3890 H 384.807 -1.62342 0.0435095 0
M  V30 3891 H 386.804 -3.3057 -2.54026 0
M  V30 3892 H 385.464 -2.13269 -2.4484 0
M  V30 3893 H 386.475 -5.16799 -0.337459 0
M  V30 3894 H 383.152 -3.48718 -2.2957 0
M  V30 3895 H 384.542 -6.71768 0.132992 0
M  V30 3896 N 387.262 0.0317525 -1.57568 0
M  V30 3897 C 388.51 0.721676 -1.88776 0
M  V30 3898 C 388.831 1.76039 -0.838772 0
M  V30 3899 O 388.101 1.95482 0.127935 0
M  V30 3900 H 386.681 0.269534 -0.696678 0
M  V30 3901 H 389.343 -0.00165879 -1.949 0
M  V30 3902 H 388.439 1.21293 -2.87566 0
M  V30 3903 N 388.74 1.54641 0.303973 0
M  V30 3904 C 390.151 1.64811 0.877163 0
M  V30 3905 C 390.502 0.554838 1.88191 0
M  V30 3906 O 389.627 -0.309033 2.14182 0
M  V30 3907 C 390.222 2.9876 1.59775 0
M  V30 3908 C 388.781 3.11061 2.11938 0
M  V30 3909 C 387.928 2.60479 0.951097 0
M  V30 3910 H 390.879 1.58493 0.0810486 0
M  V30 3911 H 390.9 2.90017 2.46314 0
M  V30 3912 H 390.412 3.7831 0.866226 0
M  V30 3913 H 388.513 2.36225 2.88146 0
M  V30 3914 H 388.626 4.17171 2.35595 0
M  V30 3915 H 386.99 2.16859 1.33583 0
M  V30 3916 H 387.773 3.42504 0.233581 0
M  V30 3917 N 390.218 -0.567019 1.47046 0
M  V30 3918 C 391.495 -1.3276 1.43646 0
M  V30 3919 C 391.875 -2.1071 0.128186 0
M  V30 3920 O 391.223 -2.10441 -0.890326 0
M  V30 3921 C 391.433 -2.2404 2.67595 0
M  V30 3922 C 392.781 -2.85372 3.14401 0
M  V30 3923 O 393.805 -2.34346 2.68254 0
M  V30 3924 O 392.664 -3.78091 3.946 0
M  V30 3925 H 389.758 -0.597293 0.571988 0
M  V30 3926 H 392.304 -0.586735 1.59234 0
M  V30 3927 H 391.076 -1.65975 3.54356 0
M  V30 3928 H 390.699 -3.05439 2.54544 0
M  V30 3929 N 391.696 -1.35014 -0.812953 0
M  V30 3930 C 392.921 -1.31187 -1.60639 0
M  V30 3931 C 393.346 0.109382 -1.87782 0
M  V30 3932 O 392.704 1.07424 -1.46047 0
M  V30 3933 C 392.752 -2.11809 -2.91838 0
M  V30 3934 O 391.856 -1.49444 -3.8437 0
M  V30 3935 H 391.197 -0.450084 -0.488181 0
M  V30 3936 H 393.727 -1.77963 -1.00947 0
M  V30 3937 H 393.737 -2.23531 -3.41318 0
M  V30 3938 H 392.412 -3.15137 -2.71407 0
M  V30 3939 H 390.989 -1.46524 -3.42907 0
M  V30 3940 N 393.175 1.03435 -1.18907 0
M  V30 3941 C 394.107 2.1165 -0.879595 0
M  V30 3942 C 395.12 1.62316 0.125439 0
M  V30 3943 O 396.309 1.78201 -0.103245 0
M  V30 3944 C 393.409 3.37622 -0.294042 0
M  V30 3945 C 392.582 4.16166 -1.34629 0
M  V30 3946 C 391.641 5.20457 -0.775274 0
M  V30 3947 O 390.667 5.50379 -1.4516 0
M  V30 3948 N 391.869 5.78949 0.424126 0
M  V30 3949 H 394.634 2.38791 -1.81105 0
M  V30 3950 H 392.195 1.19681 -1.09032 0
M  V30 3951 H 394.187 4.04572 0.101679 0
M  V30 3952 H 392.757 3.07873 0.541575 0
M  V30 3953 H 391.977 3.44444 -1.91707 0
M  V30 3954 H 393.265 4.65432 -2.05549 0
M  V30 3955 H 392.663 5.56948 0.991209 0
M  V30 3956 H 391.22 6.47334 0.761691 0
M  V30 3957 N 394.653 0.992116 1.22453 0
M  V30 3958 C 395.899 0.668523 1.91464 0
M  V30 3959 C 396.232 -0.797313 1.77078 0
M  V30 3960 O 395.507 -1.5765 1.13916 0
M  V30 3961 C 395.79 1.07424 3.43703 0
M  V30 3962 C 395.643 2.59857 3.67143 0
M  V30 3963 C 396.962 0.626891 4.35612 0
M  V30 3964 H 394.081 0.244341 0.695318 0
M  V30 3965 H 396.723 1.2355 1.44345 0
M  V30 3966 H 394.873 0.591816 3.83966 0
M  V30 3967 H 396.545 3.15764 3.3629 0
M  V30 3968 H 394.788 3.01961 3.11451 0
M  V30 3969 H 395.459 2.83296 4.73759 0
M  V30 3970 H 397.935 1.04125 4.02861 0
M  V30 3971 H 396.811 0.939076 5.40807 0
M  V30 3972 H 397.072 -0.472457 4.39568 0
M  V30 3973 N 396.131 -1.37776 0.765217 0
M  V30 3974 C 397.38 -1.99092 0.323307 0
M  V30 3975 C 397.693 -1.61434 -1.10446 0
M  V30 3976 O 398.899 -2.15805 -1.64743 0
M  V30 3977 C 397.355 -3.56019 0.527098 0
M  V30 3978 C 396.963 -4.0262 1.96471 0
M  V30 3979 C 398.707 -4.2424 0.148483 0
M  V30 3980 C 396.614 -5.52233 2.11644 0
M  V30 3981 H 395.544 -0.744846 0.117137 0
M  V30 3982 H 398.195 -1.57391 0.943417 0
M  V30 3983 H 396.577 -3.95667 -0.162372 0
M  V30 3984 H 397.751 -3.74234 2.68859 0
M  V30 3985 H 396.066 -3.47161 2.29931 0
M  V30 3986 H 398.663 -5.34159 0.240456 0
M  V30 3987 H 399.006 -4.06446 -0.900422 0
M  V30 3988 H 399.539 -3.89872 0.79025 0
M  V30 3989 H 396.278 -5.74945 3.1483 0
M  V30 3990 H 395.798 -5.82324 1.4373 0
M  V30 3991 H 397.477 -6.18106 1.91193 0
M  V30 3992 N 397.609 -0.515225 -1.4894 0
M  V30 3993 C 398.539 0.244628 -2.32215 0
M  V30 3994 C 399.52 0.949136 -1.41157 0
M  V30 3995 O 400.705 0.937783 -1.70057 0
M  V30 3996 C 397.835 1.30096 -3.22013 0
M  V30 3997 C 396.789 0.715486 -4.21977 0
M  V30 3998 C 396.115 1.87339 -5.00808 0
M  V30 3999 C 397.415 -0.302982 -5.2142 0
M  V30 4000 H 399.109 -0.450501 -2.95991 0
M  V30 4001 H 396.655 -0.218098 -1.42339 0
M  V30 4002 H 398.608 1.84037 -3.79089 0
M  V30 4003 H 397.332 2.02547 -2.56207 0
M  V30 4004 H 395.991 0.197715 -3.66066 0
M  V30 4005 H 395.639 2.58592 -4.31438 0
M  V30 4006 H 395.339 1.48764 -5.68457 0
M  V30 4007 H 396.863 2.41686 -5.60732 0
M  V30 4008 H 398.277 0.148802 -5.73107 0
M  V30 4009 H 396.674 -0.60532 -5.97039 0
M  V30 4010 H 397.744 -1.21395 -4.69459 0
M  V30 4011 N 399.087 1.5561 -0.249682 0
M  V30 4012 C 400.017 2.24477 0.642826 0
M  V30 4013 C 400.998 1.22601 1.17911 0
M  V30 4014 O 402.183 1.5126 1.21795 0
M  V30 4015 C 399.313 2.94638 1.83863 0
M  V30 4016 C 398.267 4.03227 1.435 0
M  V30 4017 C 397.593 4.60828 2.71186 0
M  V30 4018 C 398.893 5.18796 0.604002 0
M  V30 4019 H 400.587 2.99321 0.0685625 0
M  V30 4020 H 398.133 1.43965 0.0315363 0
M  V30 4021 H 400.086 3.41517 2.46868 0
M  V30 4022 H 398.81 2.17287 2.43832 0
M  V30 4023 H 397.469 3.57121 0.828275 0
M  V30 4024 H 397.117 3.80174 3.29358 0
M  V30 4025 H 396.817 5.34132 2.44901 0
M  V30 4026 H 398.341 5.10442 3.35084 0
M  V30 4027 H 399.755 5.61883 1.13842 0
M  V30 4028 H 398.152 5.98506 0.437097 0
M  V30 4029 H 399.222 4.83384 -0.383147 0
M  V30 4030 N 400.565 -0.0233959 1.57583 0
M  V30 4031 C 401.793 -0.724682 1.93794 0
M  V30 4032 C 402.208 -1.68588 0.849912 0
M  V30 4033 O 401.565 -1.81676 -0.173204 0
M  V30 4034 C 401.616 -1.47684 3.29957 0
M  V30 4035 O 401.337 -0.554222 4.3458 0
M  V30 4036 C 402.838 -2.27477 3.80485 0
M  V30 4037 H 400.058 -0.203317 0.639455 0
M  V30 4038 H 402.602 0.0207653 2.04489 0
M  V30 4039 H 400.757 -2.17412 3.20641 0
M  V30 4040 H 401.171 -1.08232 5.13212 0
M  V30 4041 H 402.645 -2.7564 4.78254 0
M  V30 4042 H 403.122 -3.09144 3.11972 0
M  V30 4043 H 403.728 -1.62813 3.92902 0
M  V30 4044 N 402.043 -1.548 -0.295768 0
M  V30 4045 C 403.454 -1.65274 -0.868411 0
M  V30 4046 C 403.805 -0.56481 -1.87894 0
M  V30 4047 O 402.93 0.29767 -2.14343 0
M  V30 4048 C 403.525 -2.99603 -1.58188 0
M  V30 4049 C 402.084 -3.12181 -2.10286 0
M  V30 4050 C 401.231 -2.6098 -0.93727 0
M  V30 4051 H 404.182 -1.58534 -0.0726422 0
M  V30 4052 H 404.203 -2.91319 -2.44772 0
M  V30 4053 H 403.715 -3.78764 -0.846151 0
M  V30 4054 H 401.816 -2.3775 -2.8689 0
M  V30 4055 H 401.929 -4.18415 -2.33379 0
M  V30 4056 H 400.293 -2.17564 -1.32431 0
M  V30 4057 H 401.076 -3.42623 -0.215414 0
M  V30 4058 N 403.521 0.559213 -1.47345 0
M  V30 4059 C 404.484 1.64854 -1.59235 0
M  V30 4060 C 405.484 1.53851 -0.467607 0
M  V30 4061 O 406.674 1.58045 -0.732617 0
M  V30 4062 C 403.806 3.04388 -1.53496 0
M  V30 4063 H 404.999 1.55662 -2.56339 0
M  V30 4064 H 402.552 0.778973 -1.35505 0
M  V30 4065 H 403.287 3.19115 -0.577604 0
M  V30 4066 H 403.072 3.13783 -2.35123 0
M  V30 4067 H 404.562 3.83642 -1.6495 0
M  V30 4068 N 404.999 1.35443 0.805782 0
M  V30 4069 C 405.962 1.28301 1.89925 0
M  V30 4070 C 406.962 0.194285 1.59622 0
M  V30 4071 O 408.152 0.448036 1.6834 0
M  V30 4072 C 405.284 0.984997 3.2636 0
M  V30 4073 H 406.477 2.2553 1.97677 0
M  V30 4074 H 404.03 1.19979 1.00173 0
M  V30 4075 H 404.765 0.016603 3.24296 0
M  V30 4076 H 404.55 1.77269 3.4974 0
M  V30 4077 H 406.04 0.960651 4.064 0
M  V30 4078 N 406.477 -1.02803 1.19454 0
M  V30 4079 C 407.754 -1.73299 0.907013 0
M  V30 4080 C 408.134 -2.02772 -0.587086 0
M  V30 4081 O 407.482 -1.68304 -1.54551 0
M  V30 4082 C 407.692 -3.00912 1.76785 0
M  V30 4083 C 409.04 -3.74403 2.00268 0
M  V30 4084 O 410.064 -3.10841 1.73943 0
M  V30 4085 O 408.923 -4.88675 2.4466 0
M  V30 4086 H 406.017 -0.754727 0.338106 0
M  V30 4087 H 408.563 -1.08754 1.30271 0
M  V30 4088 H 407.335 -2.75366 2.7801 0
M  V30 4089 H 406.958 -3.73197 1.37149 0
M  V30 4090 N 407.956 -0.998596 -1.21925 0
M  V30 4091 C 408.889 -0.498517 -2.22688 0
M  V30 4092 C 409.867 0.444301 -1.56412 0
M  V30 4093 O 411.051 0.368518 -1.84863 0
M  V30 4094 C 408.178 0.276639 -3.37568 0
M  V30 4095 C 407.224 -0.61302 -4.22071 0
M  V30 4096 S 408.057 -2.07168 -4.93803 0
M  V30 4097 C 409.213 -1.30617 -6.12119 0
M  V30 4098 H 409.446 -1.35234 -2.64762 0
M  V30 4099 H 406.979 -0.806018 -1.31692 0
M  V30 4100 H 408.937 0.717817 -4.04175 0
M  V30 4101 H 407.598 1.10581 -2.93991 0
M  V30 4102 H 406.791 -0.0162909 -5.03997 0
M  V30 4103 H 406.393 -0.991202 -3.60626 0
M  V30 4104 H 408.685 -0.57675 -6.75041 0
M  V30 4105 H 409.628 -2.10091 -6.76215 0
M  V30 4106 H 410.036 -0.816957 -5.58557 0
M  V30 4107 N 409.434 1.37368 -0.772513 0
M  V30 4108 C 410.397 2.28601 -0.165541 0
M  V30 4109 C 411.397 1.48062 0.627238 0
M  V30 4110 O 412.587 1.68268 0.450715 0
M  V30 4111 C 409.719 3.32023 0.772897 0
M  V30 4112 H 410.912 2.83787 -0.969787 0
M  V30 4113 H 408.465 1.46647 -0.540775 0
M  V30 4114 H 409.2 2.81962 1.60212 0
M  V30 4115 H 408.985 3.91555 0.206585 0
M  V30 4116 H 410.475 4.00197 1.19298 0
M  V30 4117 N 410.912 0.523116 1.48665 0
M  V30 4118 C 412.328 0.180511 1.58576 0
M  V30 4119 C 412.528 -1.31597 1.52592 0
M  V30 4120 O 411.584 -2.0937 1.4114 0
M  V30 4121 C 412.897 0.776949 2.90489 0
M  V30 4122 C 414.445 0.745058 3.04003 0
M  V30 4123 C 414.92 1.31995 4.38567 0
M  V30 4124 N 416.411 1.28162 4.45117 0
M  V30 4125 C 417.146 1.6964 5.47731 0
M  V30 4126 N 416.642 2.18816 6.57337 0
M  V30 4127 N 418.435 1.6092 5.38573 0
M  V30 4128 H 410.586 1.4958 1.50797 0
M  V30 4129 H 412.849 0.621772 0.715614 0
M  V30 4130 H 412.555 1.82732 3.00503 0
M  V30 4131 H 412.429 0.25007 3.7637 0
M  V30 4132 H 414.816 -0.296532 2.93606 0
M  V30 4133 H 414.897 1.30933 2.1975 0
M  V30 4134 H 414.541 2.36043 4.49718 0
M  V30 4135 H 414.471 0.731418 5.21496 0
M  V30 4136 H 416.962 0.92155 3.66491 0
M  V30 4137 H 417.275 2.48478 7.31764 0
M  V30 4138 H 415.62 2.22805 6.58318 0
M  V30 4139 H 418.811 1.22304 4.5184 0
M  V30 4140 H 418.984 1.93567 6.18414 0
M  V30 4141 N 412.39 -1.55475 0.257931 0
M  V30 4142 C 413.806 -1.59307 -0.0966563 0
M  V30 4143 C 414.006 -1.27514 -1.5602 0
M  V30 4144 O 413.062 -1.02774 -2.30637 0
M  V30 4145 C 414.375 -2.99552 0.262481 0
M  V30 4146 C 415.923 -3.1231 0.207683 0
M  V30 4147 C 416.398 -4.54793 0.541012 0
M  V30 4148 N 417.889 -4.6058 0.491921 0
M  V30 4149 C 418.624 -5.68825 0.722857 0
M  V30 4150 N 418.12 -6.85287 1.0175 0
M  V30 4151 N 419.913 -5.58296 0.652815 0
M  V30 4152 H 412.064 -1.74409 1.21224 0
M  V30 4153 H 414.327 -0.812424 0.48854 0
M  V30 4154 H 414.033 -3.27593 1.27967 0
M  V30 4155 H 413.907 -3.75019 -0.40508 0
M  V30 4156 H 416.294 -2.84044 -0.800195 0
M  V30 4157 H 416.375 -2.39095 0.909255 0
M  V30 4158 H 416.019 -4.83783 1.5465 0
M  V30 4159 H 415.949 -5.26285 -0.18216 0
M  V30 4160 H 418.44 -3.7691 0.273366 0
M  V30 4161 H 418.753 -7.63725 1.18084 0
M  V30 4162 H 417.098 -6.86945 1.05509 0
M  V30 4163 H 420.289 -4.66189 0.422592 0
M  V30 4164 H 420.462 -6.42582 0.836182 0
M  V30 4165 N 413.868 0.0150385 -1.57593 0
M  V30 4166 C 415.114 0.704043 -1.90187 0
M  V30 4167 C 415.447 1.74249 -0.857366 0
M  V30 4168 O 414.722 1.94092 0.125843 0
M  V30 4169 C 415.005 1.36087 -3.33395 0
M  V30 4170 C 414.858 0.334981 -4.48551 0
M  V30 4171 C 416.177 2.29112 -3.7576 0
M  V30 4172 H 413.296 0.254475 -0.691673 0
M  V30 4173 H 415.938 -0.0331678 -1.89971 0
M  V30 4174 H 414.088 1.98922 -3.3371 0
M  V30 4175 H 415.76 -0.292534 -4.60372 0
M  V30 4176 H 414.003 -0.344325 -4.32431 0
M  V30 4177 H 414.674 0.833316 -5.45674 0
M  V30 4178 H 417.15 1.76308 -3.76902 0
M  V30 4179 H 416.026 2.72043 -4.76743 0
M  V30 4180 H 416.287 3.16385 -3.08793 0
M  V30 4181 N 415.346 1.54954 0.287554 0
M  V30 4182 C 416.309 1.86076 1.33823 0
M  V30 4183 C 417.309 0.734414 1.43049 0
M  V30 4184 O 418.499 1.00266 1.42452 0
M  V30 4185 C 415.631 2.05305 2.72144 0
M  V30 4186 H 416.824 2.79984 1.07465 0
M  V30 4187 H 414.377 1.47223 0.524902 0
M  V30 4188 H 415.112 1.1373 3.03704 0
M  V30 4189 H 414.897 2.873 2.66836 0
M  V30 4190 H 416.387 2.30706 3.48087 0
M  V30 4191 N 416.824 -0.551391 1.4764 0
M  V30 4192 C 417.734 -1.68525 1.63207 0
M  V30 4193 C 418.75 -1.6621 0.514815 0
M  V30 4194 O 419.926 -1.85551 0.783113 0
M  V30 4195 C 416.991 -3.05025 1.64805 0
M  V30 4196 C 416.052 -3.18362 2.88 0
M  V30 4197 C 415.285 -4.4835 2.89513 0
M  V30 4198 O 415.508 -5.34163 2.00065 0
M  V30 4199 O 414.442 -4.65602 3.81443 0
M  V30 4200 H 418.268 -1.58333 2.59161 0
M  V30 4201 H 415.853 -0.722063 1.30792 0
M  V30 4202 H 417.735 -3.86245 1.68502 0
M  V30 4203 H 416.41 -3.15587 0.720197 0
M  V30 4204 H 415.317 -2.36518 2.89845 0
M  V30 4205 H 416.65 -3.12707 3.80099 0
M  V30 4206 N 418.302 -1.35869 -0.798587 0
M  V30 4207 C 419.265 -1.29307 -1.89242 0
M  V30 4208 C 420.265 -0.202747 -1.59517 0
M  V30 4209 O 421.455 -0.456957 -1.681 0
M  V30 4210 C 418.587 -1.00229 -3.25833 0
M  V30 4211 H 419.78 -2.26576 -1.96478 0
M  V30 4212 H 417.333 -1.20509 -0.995358 0
M  V30 4213 H 418.068 -0.033801 -3.24282 0
M  V30 4214 H 417.853 -1.79121 -3.48795 0
M  V30 4215 H 419.343 -0.98219 -4.05885 0
M  V30 4216 N 419.78 1.02168 -1.19998 0
M  V30 4217 C 421.026 1.75945 -1.00852 0
M  V30 4218 C 421.359 1.88702 0.458828 0
M  V30 4219 O 420.634 1.40911 1.34069 0
M  V30 4220 C 420.917 3.18154 -1.68671 0
M  V30 4221 C 420.77 3.13224 -3.22817 0
M  V30 4222 C 422.089 4.16711 -1.41561 0
M  V30 4223 H 419.208 0.638673 -0.367785 0
M  V30 4224 H 421.85 1.19222 -1.4794 0
M  V30 4225 H 420 3.66586 -1.28636 0
M  V30 4226 H 421.672 2.72635 -3.72112 0
M  V30 4227 H 419.915 2.50751 -3.53986 0
M  V30 4228 H 420.586 4.13728 -3.65422 0
M  V30 4229 H 423.062 3.76913 -1.76284 0
M  V30 4230 H 421.938 5.14391 -1.91553 0
M  V30 4231 H 422.199 4.40774 -0.342193 0
M  V30 4232 N 421.258 1.00505 1.21394 0
M  V30 4233 C 422.168 0.574806 2.27449 0
M  V30 4234 C 423.184 -0.382206 1.6975 0
M  V30 4235 O 424.36 -0.246027 1.99892 0
M  V30 4236 C 421.425 -0.0917414 3.46579 0
M  V30 4237 C 420.486 0.909758 4.1955 0
M  V30 4238 C 419.719 0.274924 5.32991 0
M  V30 4239 O 419.942 -0.928254 5.62796 0
M  V30 4240 O 418.876 0.985877 5.93771 0
M  V30 4241 H 422.702 1.45744 2.66444 0
M  V30 4242 H 420.287 0.773923 1.27792 0
M  V30 4243 H 422.169 -0.464551 4.18832 0
M  V30 4244 H 420.844 -0.948755 3.09484 0
M  V30 4245 H 419.751 1.33372 3.49518 0
M  V30 4246 H 421.084 1.73636 4.60555 0
M  V30 4247 N 422.737 -1.36956 0.779787 0
M  V30 4248 C 424.153 -1.52817 0.460342 0
M  V30 4249 C 424.353 -1.7361 -1.02283 0
M  V30 4250 O 423.409 -1.76207 -1.80852 0
M  V30 4251 C 424.722 -2.71983 1.28241 0
M  V30 4252 C 426.27 -2.85849 1.27512 0
M  V30 4253 C 426.745 -4.08008 2.08072 0
M  V30 4254 N 428.236 -4.15135 2.05467 0
M  V30 4255 C 428.971 -5.08711 2.64577 0
M  V30 4256 N 428.467 -6.07792 3.32506 0
M  V30 4257 N 430.26 -5.01254 2.54363 0
M  V30 4258 H 422.411 -1.21713 1.74068 0
M  V30 4259 H 424.674 -0.593294 0.739396 0
M  V30 4260 H 424.38 -2.63109 2.33381 0
M  V30 4261 H 424.254 -3.65882 0.917088 0
M  V30 4262 H 426.641 -2.94189 0.231686 0
M  V30 4263 H 426.722 -1.92886 1.68014 0
M  V30 4264 H 426.366 -4.00429 3.12441 0
M  V30 4265 H 426.296 -5.001 1.64947 0
M  V30 4266 H 428.787 -3.44189 1.5602 0
M  V30 4267 H 429.1 -6.75739 3.74963 0
M  V30 4268 H 427.445 -6.08047 3.36606 0
M  V30 4269 H 430.636 -4.22795 2.00902 0
M  V30 4270 H 430.809 -5.73995 3.00722 0
M  V30 4271 N 424.215 -0.530993 -1.48385 0
M  V30 4272 C 425.147 0.268353 -2.27624 0
M  V30 4273 C 426.16 0.903525 -1.35426 0
M  V30 4274 O 427.349 0.781796 -1.60469 0
M  V30 4275 C 424.449 1.39535 -3.08842 0
M  V30 4276 C 423.622 0.861913 -4.28824 0
M  V30 4277 C 422.681 1.87016 -4.91845 0
M  V30 4278 O 421.707 1.4267 -5.5103 0
M  V30 4279 N 422.909 3.20238 -4.84178 0
M  V30 4280 H 425.674 -0.41123 -2.96865 0
M  V30 4281 H 423.235 -0.365387 -1.57723 0
M  V30 4282 H 425.227 2.06803 -3.47871 0
M  V30 4283 H 423.797 1.97859 -2.42014 0
M  V30 4284 H 423.017 0.0132126 -3.94198 0
M  V30 4285 H 424.305 0.484415 -5.06489 0
M  V30 4286 H 423.703 3.58932 -4.37246 0
M  V30 4287 H 422.26 3.83136 -5.27305 0
M  V30 4288 N 425.693 1.55336 -0.266172 0
M  V30 4289 C 426.623 2.25146 0.618981 0
M  V30 4290 C 427.604 1.23845 1.16604 0
M  V30 4291 O 428.789 1.52544 1.20183 0
M  V30 4292 C 425.919 2.96572 1.80728 0
M  V30 4293 C 424.873 4.04726 1.39215 0
M  V30 4294 C 424.199 4.63678 2.66283 0
M  V30 4295 C 425.499 5.19407 0.548942 0
M  V30 4296 H 427.193 2.99377 0.0368116 0
M  V30 4297 H 424.739 1.43991 0.0162651 0
M  V30 4298 H 426.692 3.44116 2.43232 0
M  V30 4299 H 425.416 2.19861 2.41514 0
M  V30 4300 H 424.075 3.57979 0.790351 0
M  V30 4301 H 423.723 3.83646 3.25308 0
M  V30 4302 H 423.423 5.367 2.39222 0
M  V30 4303 H 424.947 5.13967 3.29651 0
M  V30 4304 H 426.361 5.63059 1.07876 0
M  V30 4305 H 424.758 5.98936 0.373593 0
M  V30 4306 H 425.828 4.8295 -0.434394 0
M  V30 4307 N 427.171 -0.0066808 1.57599 0
M  V30 4308 C 428.134 -0.985035 2.06953 0
M  V30 4309 C 429.134 -1.27663 0.977687 0
M  V30 4310 O 430.324 -1.22293 1.24057 0
M  V30 4311 C 427.456 -2.3118 2.50536 0
M  V30 4312 H 428.649 -0.558255 2.94658 0
M  V30 4313 H 426.202 -0.254011 1.54222 0
M  V30 4314 H 426.937 -2.78561 1.66054 0
M  V30 4315 H 426.722 -2.11338 3.3027 0
M  V30 4316 H 428.212 -3.01377 2.8907 0
M  V30 4317 N 428.649 -1.55105 -0.279332 0
M  V30 4318 C 429.559 -1.90638 -1.36727 0
M  V30 4319 C 430.575 -0.802899 -1.54368 0
M  V30 4320 O 431.751 -1.10138 -1.68616 0
M  V30 4321 C 428.816 -2.16547 -2.70755 0
M  V30 4322 C 427.877 -3.40146 -2.61915 0
M  V30 4323 C 427.11 -3.6481 -3.8955 0
M  V30 4324 O 427.333 -2.92095 -4.89935 0
M  V30 4325 O 426.267 -4.58343 -3.90135 0
M  V30 4326 H 430.093 -2.83237 -1.09591 0
M  V30 4327 H 427.678 -1.4157 -0.477306 0
M  V30 4328 H 429.56 -2.34665 -3.50014 0
M  V30 4329 H 428.235 -1.27131 -2.9769 0
M  V30 4330 H 427.142 -3.2737 -1.81052 0
M  V30 4331 H 428.475 -4.29761 -2.3993 0
M  V30 4332 N 430.127 0.543554 -1.4793 0
M  V30 4333 C 431.057 1.65888 -1.64327 0
M  V30 4334 C 432.038 1.62818 -0.492383 0
M  V30 4335 O 433.223 1.80226 -0.723338 0
M  V30 4336 C 430.353 3.04506 -1.67013 0
M  V30 4337 C 429.307 3.2243 -2.81466 0
M  V30 4338 C 428.633 4.61972 -2.69233 0
M  V30 4339 C 429.933 3.06496 -4.22915 0
M  V30 4340 H 431.627 1.52421 -2.57698 0
M  V30 4341 H 429.173 0.731849 -1.24016 0
M  V30 4342 H 431.126 3.82391 -1.77074 0
M  V30 4343 H 429.85 3.18964 -0.70212 0
M  V30 4344 H 428.509 2.46957 -2.70938 0
M  V30 4345 H 428.157 4.73247 -1.7043 0
M  V30 4346 H 427.857 4.74911 -3.46025 0
M  V30 4347 H 429.381 5.41974 -2.81242 0
M  V30 4348 H 430.795 3.74186 -4.34348 0
M  V30 4349 H 429.192 3.30938 -5.006 0
M  V30 4350 H 430.262 2.03077 -4.40327 0
M  V30 4351 N 431.605 1.3629 0.791371 0
M  V30 4352 C 433.016 1.27225 1.36641 0
M  V30 4353 C 433.367 -0.0887968 1.95999 0
M  V30 4354 O 432.492 -0.990207 1.92416 0
M  V30 4355 C 433.087 2.30375 2.48421 0
M  V30 4356 C 431.646 2.25004 3.01746 0
M  V30 4357 C 430.793 2.15259 1.7481 0
M  V30 4358 H 433.744 1.47198 0.593173 0
M  V30 4359 H 433.765 1.93905 3.27385 0
M  V30 4360 H 433.277 3.29422 2.05189 0
M  V30 4361 H 431.378 1.29417 3.49403 0
M  V30 4362 H 431.491 3.1761 3.58693 0
M  V30 4363 H 429.855 1.61482 1.96966 0
M  V30 4364 H 430.638 3.16191 1.33709 0
M  V30 4365 N 433.083 -1.0153 1.20538 0
M  V30 4366 C 434.499 -1.27461 0.96051 0
M  V30 4367 C 434.699 -1.98273 -0.359193 0
M  V30 4368 O 433.755 -2.27886 -1.0874 0
M  V30 4369 C 435.068 -2.10837 2.14402 0
M  V30 4370 C 436.616 -2.24099 2.18515 0
M  V30 4371 C 437.091 -3.10852 3.36355 0
M  V30 4372 N 438.582 -3.18441 3.36377 0
M  V30 4373 C 439.317 -3.85795 4.24205 0
M  V30 4374 N 438.813 -4.55264 5.22213 0
M  V30 4375 N 440.606 -3.82331 4.12043 0
M  V30 4376 H 432.757 -0.539907 2.05423 0
M  V30 4377 H 435.02 -0.30092 0.898972 0
M  V30 4378 H 434.726 -1.66144 3.09983 0
M  V30 4379 H 434.6 -3.11576 2.12604 0
M  V30 4380 H 436.987 -2.68016 1.23497 0
M  V30 4381 H 437.068 -1.22865 2.24361 0
M  V30 4382 H 436.712 -2.6764 4.31661 0
M  V30 4383 H 436.642 -4.12177 3.27746 0
M  V30 4384 H 439.133 -2.68978 2.65442 0
M  V30 4385 H 439.446 -5.04331 5.85551 0
M  V30 4386 H 437.791 -4.54085 5.26148 0
M  V30 4387 H 440.982 -3.27207 3.34743 0
M  V30 4388 H 441.155 -4.34547 4.807 0
M  V30 4389 N 434.561 -1.01147 -1.20859 0
M  V30 4390 C 435.524 -0.582224 -2.21682 0
M  V30 4391 C 436.524 0.344887 -1.57058 0
M  V30 4392 O 437.714 0.134281 -1.73682 0
M  V30 4393 C 434.846 0.150496 -3.40568 0
M  V30 4394 H 436.039 -1.47408 -2.61172 0
M  V30 4395 H 433.592 -0.800695 -1.34233 0
M  V30 4396 H 434.327 1.0575 -3.06574 0
M  V30 4397 H 434.112 -0.515444 -3.88697 0
M  V30 4398 H 435.602 0.438344 -4.15293 0
M  V30 4399 N 436.039 1.36541 -0.78704 0
M  V30 4400 C 436.949 2.3387 -0.184896 0
M  V30 4401 C 437.965 1.60927 0.661697 0
M  V30 4402 O 439.141 1.92927 0.57804 0
M  V30 4403 C 436.206 3.40122 0.672145 0
M  V30 4404 C 435.267 4.28867 -0.19267 0
M  V30 4405 C 434.5 5.30045 0.623561 0
M  V30 4406 O 434.723 5.39232 1.8597 0
M  V30 4407 O 433.657 6.01895 0.0247068 0
M  V30 4408 H 437.483 2.87126 -0.989562 0
M  V30 4409 H 435.068 1.38969 -0.548455 0
M  V30 4410 H 436.95 4.05093 1.16094 0
M  V30 4411 H 435.625 2.89169 1.45474 0
M  V30 4412 H 434.532 3.66945 -0.728166 0
M  V30 4413 H 435.865 4.83165 -0.938722 0
M  V30 4414 N 437.518 0.538854 1.48102 0
M  V30 4415 C 438.746 0.0123136 2.06896 0
M  V30 4416 C 439.161 -1.27312 1.39417 0
M  V30 4417 O 438.518 -1.75949 0.484582 0
M  V30 4418 C 438.569 -0.206118 3.60912 0
M  V30 4419 O 438.29 1.0284 4.25859 0
M  V30 4420 C 439.791 -0.772033 4.36526 0
M  V30 4421 H 437.011 0.0375239 0.66995 0
M  V30 4422 H 439.555 0.747032 1.90367 0
M  V30 4423 H 437.71 -0.89091 3.77017 0
M  V30 4424 H 438.124 0.814654 5.18135 0
M  V30 4425 H 439.598 -0.874251 5.45033 0
M  V30 4426 H 440.075 -1.77904 4.01555 0
M  V30 4427 H 440.681 -0.123526 4.25121 0
M  V30 4428 N 438.996 -1.55193 0.274407 0
M  V30 4429 C 439.959 -2.212 -0.600279 0
M  V30 4430 C 440.959 -1.18963 -1.08187 0
M  V30 4431 O 442.149 -1.43873 -0.982158 0
M  V30 4432 C 439.281 -2.87739 -1.82809 0
M  V30 4433 H 440.474 -2.9989 -0.0239682 0
M  V30 4434 H 438.027 -1.5628 0.0250192 0
M  V30 4435 H 438.762 -2.13058 -2.44493 0
M  V30 4436 H 438.547 -3.62658 -1.49069 0
M  V30 4437 H 440.037 -3.38171 -2.45011 0
M  V30 4438 N 440.474 -0.00167713 -1.576 0
M  V30 4439 C 441.89 0.354422 -1.55615 0
M  V30 4440 C 442.09 1.74679 -1.00447 0
M  V30 4441 O 441.146 2.4428 -0.639022 0
M  V30 4442 C 442.459 0.22812 -2.99833 0
M  V30 4443 C 444.007 0.302934 -3.11531 0
M  V30 4444 C 444.482 0.205737 -4.57538 0
M  V30 4445 N 445.973 0.263584 -4.62449 0
M  V30 4446 C 446.708 0.211742 -5.73009 0
M  V30 4447 N 446.204 0.110399 -6.92712 0
M  V30 4448 N 447.997 0.263729 -5.61481 0
M  V30 4449 H 440.148 -0.912498 -1.918 0
M  V30 4450 H 442.411 -0.349928 -0.881053 0
M  V30 4451 H 442.117 -0.729934 -3.44042 0
M  V30 4452 H 441.991 1.00951 -3.6344 0
M  V30 4453 H 444.378 1.25143 -2.67251 0
M  V30 4454 H 444.459 -0.508357 -2.50698 0
M  V30 4455 H 444.103 -0.739225 -5.02492 0
M  V30 4456 H 444.033 1.03554 -5.16318 0
M  V30 4457 H 446.524 0.343173 -3.76339 0
M  V30 4458 H 446.837 0.0767828 -7.72762 0
M  V30 4459 H 445.182 0.0760025 -6.94958 0
M  V30 4460 H 448.373 0.34111 -4.66855 0
M  V30 4461 H 448.546 0.219862 -6.47627 0
M  V30 4462 N 441.952 1.55251 0.271103 0
M  V30 4463 C 442.884 1.84675 1.35749 0
M  V30 4464 C 443.897 0.731366 1.45447 0
M  V30 4465 O 445.086 1.00924 1.4723 0
M  V30 4466 C 442.186 1.99638 2.73857 0
M  V30 4467 C 441.359 3.30312 2.86727 0
M  V30 4468 C 440.418 3.35318 4.05522 0
M  V30 4469 O 439.444 4.08682 3.96191 0
M  V30 4470 N 440.646 2.62857 5.17577 0
M  V30 4471 H 443.411 2.78445 1.10853 0
M  V30 4472 H 440.972 1.55191 0.461218 0
M  V30 4473 H 442.964 2.00355 3.51625 0
M  V30 4474 H 441.534 1.12725 2.91568 0
M  V30 4475 H 440.754 3.42118 1.95829 0
M  V30 4476 H 442.042 4.16488 2.92258 0
M  V30 4477 H 441.44 2.02939 5.28046 0
M  V30 4478 H 439.997 2.69295 5.93568 0
M  V30 4479 N 443.43 -0.535701 1.48216 0
M  V30 4480 C 444.393 -1.623 1.61838 0
M  V30 4481 C 445.393 -1.53087 0.492024 0
M  V30 4482 O 446.583 -1.5686 0.757668 0
M  V30 4483 C 443.715 -3.01907 1.58319 0
M  V30 4484 H 444.908 -1.51564 2.58783 0
M  V30 4485 H 442.461 -0.757317 1.36727 0
M  V30 4486 H 443.196 -3.18155 0.628299 0
M  V30 4487 H 442.981 -3.10003 2.40085 0
M  V30 4488 H 444.471 -3.80969 1.71033 0
M  V30 4489 N 444.908 -1.36708 -0.784132 0
M  V30 4490 C 445.838 -1.34153 -1.91116 0
M  V30 4491 C 446.819 -0.212121 -1.68772 0
M  V30 4492 O 448.004 -0.410581 -1.8981 0
M  V30 4493 C 445.134 -1.13535 -3.28218 0
M  V30 4494 C 444.088 -2.23356 -3.65097 0
M  V30 4495 C 443.414 -1.87875 -5.00607 0
M  V30 4496 C 444.714 -3.65473 -3.73131 0
M  V30 4497 H 446.408 -2.28459 -1.93512 0
M  V30 4498 H 443.954 -1.09973 -0.929618 0
M  V30 4499 H 445.907 -1.10381 -4.06687 0
M  V30 4500 H 444.631 -0.156804 -3.26223 0
M  V30 4501 H 443.29 -2.25645 -2.88929 0
M  V30 4502 H 442.938 -0.885814 -4.95139 0
M  V30 4503 H 442.638 -2.61406 -5.26252 0
M  V30 4504 H 444.162 -1.86286 -5.81489 0
M  V30 4505 H 445.576 -3.65382 -4.41779 0
M  V30 4506 H 443.973 -4.37953 -4.10265 0
M  V30 4507 H 445.043 -3.99995 -2.74102 0
M  V30 4508 N 446.386 1.0089 -1.21074 0
M  V30 4509 C 447.334 2.11707 -0.963476 0
M  V30 4510 C 448.328 1.69172 0.0879032 0
M  V30 4511 O 449.534 1.79889 -0.0631415 0
M  V30 4512 H 445.909 0.692026 -0.294287 0
M  V30 4513 H 447.88 2.29743 -1.90422 0
M  V30 4514 C 446.629 3.43473 -0.540509 0
M  V30 4515 H 445.952 3.76634 -1.34114 0
M  V30 4516 H 447.392 4.22044 -0.406777 0
M  V30 4517 C 445.851 3.2849 0.748079 0
M  V30 4518 O 446.381 3.58883 1.8046 0
M  V30 4519 N 444.587 2.81715 0.713081 0
M  V30 4520 H 444.134 2.5718 -0.146973 0
M  V30 4521 H 444.092 2.72071 1.57558 0
M  V30 4522 N 447.864 1.01787 1.20321 0
M  V30 4523 C 448.827 0.593972 2.2137 0
M  V30 4524 C 449.827 -0.336553 1.57239 0
M  V30 4525 O 451.017 -0.125069 1.7375 0
M  V30 4526 C 448.149 -0.132433 3.40643 0
M  V30 4527 H 449.342 1.48791 2.60387 0
M  V30 4528 H 446.895 0.807803 1.33807 0
M  V30 4529 H 447.63 -1.04123 3.0713 0
M  V30 4530 H 447.415 0.53605 3.88418 0
M  V30 4531 H 448.905 -0.416314 4.1552 0
M  V30 4532 N 449.342 -1.36122 0.79427 0
M  V30 4533 C 450.567 -2.03891 0.379871 0
M  V30 4534 C 450.992 -1.59488 -0.997251 0
M  V30 4535 O 450.35 -0.765652 -1.64339 0
M  V30 4536 C 450.398 -3.57687 0.457442 0
M  V30 4537 O 449.502 -4.08931 -0.5338 0
M  V30 4538 H 448.843 -0.6443 0.160541 0
M  V30 4539 H 451.373 -1.73976 1.07673 0
M  V30 4540 H 451.383 -4.06721 0.322792 0
M  V30 4541 H 450.058 -3.89357 1.46199 0
M  V30 4542 H 448.635 -3.71154 -0.360409 0
M  V30 4543 N 450.82 -0.546701 -1.47814 0
M  V30 4544 C 452.236 -0.205717 -1.58269 0
M  V30 4545 C 452.436 1.29153 -1.54667 0
M  V30 4546 O 451.492 2.07098 -1.44453 0
M  V30 4547 C 452.805 -0.823065 -2.89216 0
M  V30 4548 C 454.353 -0.793328 -3.02779 0
M  V30 4549 C 454.828 -1.38955 -4.36412 0
M  V30 4550 N 456.319 -1.35227 -4.43021 0
M  V30 4551 C 457.054 -1.78333 -5.44963 0
M  V30 4552 N 456.55 -2.29246 -6.53772 0
M  V30 4553 N 458.343 -1.69467 -5.35945 0
M  V30 4554 H 450.494 -1.5196 -1.48398 0
M  V30 4555 H 452.757 -0.633078 -0.705632 0
M  V30 4556 H 452.463 -1.8749 -2.97558 0
M  V30 4557 H 452.337 -0.309915 -3.75925 0
M  V30 4558 H 454.724 0.249784 -2.94041 0
M  V30 4559 H 454.805 -1.34412 -2.17639 0
M  V30 4560 H 454.449 -2.43168 -4.45906 0
M  V30 4561 H 454.379 -0.814291 -5.20266 0
M  V30 4562 H 456.87 -0.979739 -3.64979 0
M  V30 4563 H 457.183 -2.60089 -7.27718 0
M  V30 4564 H 455.528 -2.3325 -6.5469 0
M  V30 4565 H 458.719 -1.29477 -4.49837 0
M  V30 4566 H 458.892 -2.03381 -6.15256 0
M  V30 4567 N 452.299 1.55045 -0.282633 0
M  V30 4568 C 453.229 2.2579 0.595066 0
M  V30 4569 C 454.21 1.25074 1.15284 0
M  V30 4570 O 455.395 1.5381 1.18559 0
M  V30 4571 C 452.525 2.98472 1.77572 0
M  V30 4572 C 451.479 4.0618 1.34914 0
M  V30 4573 C 450.805 4.66477 2.6135 0
M  V30 4574 C 452.105 5.1996 0.493821 0
M  V30 4575 H 453.799 2.994 0.00505653 0
M  V30 4576 H 451.345 1.44 0.000992001 0
M  V30 4577 H 453.298 3.46677 2.39568 0
M  V30 4578 H 452.022 2.2241 2.39168 0
M  V30 4579 H 450.681 3.58797 0.752338 0
M  V30 4580 H 450.329 3.87074 3.2122 0
M  V30 4581 H 450.029 5.39207 2.33516 0
M  V30 4582 H 451.553 5.17435 3.24181 0
M  V30 4583 H 452.967 5.64172 1.01898 0
M  V30 4584 H 451.364 5.99299 0.310047 0
M  V30 4585 H 452.434 4.82462 -0.485593 0
M  V30 4586 N 453.777 0.010035 1.57597 0
M  V30 4587 C 455.026 -0.671945 1.90178 0
M  V30 4588 C 455.339 -1.74376 0.886131 0
M  V30 4589 O 456.545 -2.48107 1.10252 0
M  V30 4590 C 455.001 -1.24636 3.3763 0
M  V30 4591 C 454.609 -0.208838 4.47513 0
M  V30 4592 C 456.353 -1.90595 3.79307 0
M  V30 4593 C 454.26 -0.793814 5.86048 0
M  V30 4594 H 453.19 -0.25474 0.709665 0
M  V30 4595 H 455.841 0.0722206 1.83358 0
M  V30 4596 H 454.223 -2.04152 3.3932 0
M  V30 4597 H 455.397 0.562463 4.57354 0
M  V30 4598 H 453.712 0.350889 4.14919 0
M  V30 4599 H 456.309 -2.35284 4.80151 0
M  V30 4600 H 456.652 -2.74074 3.13352 0
M  V30 4601 H 457.185 -1.17798 3.79958 0
M  V30 4602 H 453.924 0.00240855 6.555 0
M  V30 4603 H 453.444 -1.53404 5.79851 0
M  V30 4604 H 455.123 -1.2894 6.34022 0
M  V30 4605 N 455.255 -1.55392 -0.262866 0
M  V30 4606 C 456.501 -1.76737 -0.99458 0
M  V30 4607 C 456.834 -0.572453 -1.85571 0
M  V30 4608 O 456.109 0.429732 -1.89693 0
M  V30 4609 C 456.392 -3.07824 -1.8686 0
M  V30 4610 C 456.245 -4.3769 -1.03672 0
M  V30 4611 C 457.564 -3.35021 -2.85393 0
M  V30 4612 H 454.683 -0.643005 -0.360157 0
M  V30 4613 H 457.325 -1.88126 -0.266216 0
M  V30 4614 H 455.475 -2.98245 -2.48962 0
M  V30 4615 H 457.147 -4.59238 -0.43563 0
M  V30 4616 H 455.39 -4.32461 -0.340513 0
M  V30 4617 H 456.061 -5.25759 -1.6817 0
M  V30 4618 H 458.537 -3.44458 -2.33426 0
M  V30 4619 H 457.413 -4.27989 -3.43681 0
M  V30 4620 H 457.674 -2.55153 -3.61039 0
M  V30 4621 N 456.733 0.527833 -1.48498 0
M  V30 4622 C 457.961 1.30823 -1.6029 0
M  V30 4623 C 458.376 1.86945 -0.263974 0
M  V30 4624 O 457.733 1.6651 0.747034 0
M  V30 4625 C 457.784 2.45756 -2.65116 0
M  V30 4626 O 457.505 1.91946 -3.93813 0
M  V30 4627 C 459.006 3.37543 -2.87367 0
M  V30 4628 H 456.226 0.397763 -0.540394 0
M  V30 4629 H 458.77 0.636529 -1.94341 0
M  V30 4630 H 456.925 3.08806 -2.33917 0
M  V30 4631 H 457.339 2.67195 -4.51339 0
M  V30 4632 H 458.813 4.14532 -3.6451 0
M  V30 4633 H 459.29 3.92905 -1.9627 0
M  V30 4634 H 459.896 2.80283 -3.19878 0
M  V30 4635 N 458.211 1.37122 0.776871 0
M  V30 4636 C 459.158 1.3247 1.88998 0
M  V30 4637 C 460.128 0.191143 1.64997 0
M  V30 4638 O 461.313 0.379683 1.86984 0
M  V30 4639 C 458.453 1.13241 3.25992 0
M  V30 4640 C 457.566 2.35782 3.61982 0
M  V30 4641 C 456.701 2.09465 4.88158 0
M  V30 4642 C 455.74 3.279 5.16864 0
M  V30 4643 N 454.877 3.01167 6.34226 0
M  V30 4644 H 459.717 2.27642 1.9231 0
M  V30 4645 H 457.254 1.13125 0.94027 0
M  V30 4646 H 459.212 1.00115 4.0501 0
M  V30 4647 H 457.842 0.217186 3.22069 0
M  V30 4648 H 456.894 2.59666 2.77989 0
M  V30 4649 H 458.206 3.24125 3.79137 0
M  V30 4650 H 457.36 1.93341 5.75069 0
M  V30 4651 H 456.099 1.18452 4.73097 0
M  V30 4652 H 455.104 3.44569 4.2843 0
M  V30 4653 H 456.329 4.19757 5.33836 0
M  V30 4654 H 454.275 2.12779 6.20533 0
M  V30 4655 H 454.192 3.83052 6.51772 0
M  V30 4656 H 455.46 2.88649 7.24087 0
M  V30 4657 N 459.689 -1.00246 1.21608 0
M  V30 4658 C 460.966 -1.71336 0.943568 0
M  V30 4659 C 461.346 -2.03972 -0.543943 0
M  V30 4660 O 460.694 -1.71545 -1.50946 0
M  V30 4661 C 460.904 -2.97094 1.83128 0
M  V30 4662 C 462.252 -3.70071 2.08165 0
M  V30 4663 O 463.276 -3.07081 1.80498 0
M  V30 4664 O 462.135 -4.83376 2.54971 0
M  V30 4665 H 459.229 -0.747386 0.354039 0
M  V30 4666 H 461.775 -1.05967 1.32549 0
M  V30 4667 H 460.547 -2.69407 2.83788 0
M  V30 4668 H 460.17 -3.70204 1.45034 0
M  V30 4669 N 461.167 -1.02423 -1.1978 0
M  V30 4670 C 462.097 -0.62157 -2.25075 0
M  V30 4671 C 463.078 0.367148 -1.6609 0
M  V30 4672 O 464.263 0.250892 -1.92573 0
M  V30 4673 C 461.393 0.0331826 -3.47284 0
M  V30 4674 C 460.347 -0.877323 -4.18912 0
M  V30 4675 C 459.673 -0.0879296 -5.34628 0
M  V30 4676 C 460.973 -2.18892 -4.74219 0
M  V30 4677 H 462.667 -1.50179 -2.59011 0
M  V30 4678 H 460.213 -0.723547 -1.24502 0
M  V30 4679 H 462.166 0.326488 -4.20133 0
M  V30 4680 H 460.89 0.948164 -3.12534 0
M  V30 4681 H 459.549 -1.15475 -3.47938 0
M  V30 4682 H 459.197 0.828941 -4.96123 0
M  V30 4683 H 458.897 -0.694359 -5.83483 0
M  V30 4684 H 460.421 0.198743 -6.10276 0
M  V30 4685 H 461.835 -1.95746 -5.38847 0
M  V30 4686 H 460.232 -2.74686 -5.33542 0
M  V30 4687 H 461.302 -2.84674 -3.92541 0
M  V30 4688 N 462.645 1.35699 -0.801477 0
M  V30 4689 C 463.608 2.28199 -0.213994 0
M  V30 4690 C 464.608 1.49359 0.595691 0
M  V30 4691 O 465.798 1.69186 0.414921 0
M  V30 4692 C 462.93 3.33587 0.702297 0
M  V30 4693 H 464.123 2.81666 -1.02976 0
M  V30 4694 H 461.676 1.45467 -0.571759 0
M  V30 4695 H 462.411 2.85297 1.54195 0
M  V30 4696 H 462.196 3.91906 0.123484 0
M  V30 4697 H 463.686 4.02638 1.10783 0
M  V30 4698 N 464.123 0.554532 1.47522 0
M  V30 4699 C 465.055 -0.232106 2.28022 0
M  V30 4700 C 466.068 -0.881865 1.36847 0
M  V30 4701 O 467.257 -0.756168 1.61692 0
M  V30 4702 C 464.357 -1.34604 3.11022 0
M  V30 4703 C 463.53 -0.793582 4.30141 0
M  V30 4704 C 462.589 -1.79168 4.94758 0
M  V30 4705 O 461.615 -1.33886 5.5323 0
M  V30 4706 N 462.817 -3.12495 4.89211 0
M  V30 4707 H 465.582 0.458407 2.96173 0
M  V30 4708 H 463.143 0.390433 1.57122 0
M  V30 4709 H 465.135 -2.01243 3.51118 0
M  V30 4710 H 463.705 -1.93983 2.45131 0
M  V30 4711 H 462.925 0.0495025 3.94169 0
M  V30 4712 H 464.213 -0.403776 5.07195 0
M  V30 4713 H 463.611 -3.51931 4.42901 0
M  V30 4714 H 462.168 -3.74698 5.33333 0
M  V30 4715 N 465.601 -1.54893 0.290851 0
M  V30 4716 C 466.841 -2.01842 -0.322388 0
M  V30 4717 C 467.205 -1.17477 -1.51865 0
M  V30 4718 O 468.406 -1.54077 -2.20258 0
M  V30 4719 C 466.677 -3.50874 -0.679844 0
M  V30 4720 S 468.236 -4.19796 -1.27739 0
M  V30 4721 H 465.054 -0.704005 -0.0994866 0
M  V30 4722 H 467.656 -1.91015 0.416358 0
M  V30 4723 H 466.36 -4.09915 0.199435 0
M  V30 4724 H 465.891 -3.65717 -1.44964 0
M  V30 4725 H 467.906 -4.24729 -2.56554 0
M  V30 4726 N 467.08 -0.0183926 -1.57589 0
M  V30 4727 C 468.326 0.663543 -1.91638 0
M  V30 4728 C 468.659 1.72392 -0.894134 0
M  V30 4729 O 467.934 1.94316 0.0846449 0
M  V30 4730 C 468.217 1.28984 -3.36207 0
M  V30 4731 C 468.07 0.239761 -4.49161 0
M  V30 4732 C 469.389 2.2109 -3.80536 0
M  V30 4733 H 466.508 0.239746 -0.696915 0
M  V30 4734 H 469.15 -0.073456 -1.89858 0
M  V30 4735 H 467.3 1.91799 -3.37854 0
M  V30 4736 H 468.972 -0.390119 -4.59647 0
M  V30 4737 H 467.215 -0.435972 -4.31604 0
M  V30 4738 H 467.886 0.717383 -5.47319 0
M  V30 4739 H 470.362 1.68273 -3.80557 0
M  V30 4740 H 469.238 2.61869 -4.82406 0
M  V30 4741 H 469.499 3.09764 -3.15434 0
M  V30 4742 N 468.558 1.5553 0.254621 0
M  V30 4743 C 469.468 1.92789 1.33677 0
M  V30 4744 C 470.484 0.827356 1.53071 0
M  V30 4745 O 471.66 1.12807 1.66843 0
M  V30 4746 C 468.725 2.20827 2.67275 0
M  V30 4747 C 467.786 3.4427 2.5647 0
M  V30 4748 C 467.019 3.70961 3.83697 0
M  V30 4749 O 467.242 2.99852 4.85227 0
M  V30 4750 O 466.176 4.64491 3.82794 0
M  V30 4751 H 470.002 2.84945 1.05071 0
M  V30 4752 H 467.587 1.42312 0.454723 0
M  V30 4753 H 469.469 2.40204 3.46237 0
M  V30 4754 H 468.144 1.31851 2.9563 0
M  V30 4755 H 467.051 3.30209 1.75821 0
M  V30 4756 H 468.384 4.33524 2.33062 0
M  V30 4757 N 470.036 -0.519951 1.48776 0
M  V30 4758 C 471.285 -1.27175 1.56555 0
M  V30 4759 C 471.598 -1.9401 0.248869 0
M  V30 4760 O 472.804 -2.70725 0.205004 0
M  V30 4761 C 471.26 -2.30811 2.76142 0
M  V30 4762 C 470.868 -1.7 4.14493 0
M  V30 4763 C 472.612 -3.06937 2.9324 0
M  V30 4764 C 470.519 -2.71635 5.25327 0
M  V30 4765 H 469.449 -0.478329 0.582853 0
M  V30 4766 H 472.1 -0.547916 1.75129 0
M  V30 4767 H 470.482 -3.06274 2.51023 0
M  V30 4768 H 471.656 -1.00658 4.49672 0
M  V30 4769 H 469.971 -1.06331 4.02595 0
M  V30 4770 H 472.568 -3.82905 3.73213 0
M  V30 4771 H 472.911 -3.63409 2.03075 0
M  V30 4772 H 473.444 -2.38589 3.18308 0
M  V30 4773 H 470.183 -2.1997 6.1749 0
M  V30 4774 H 469.703 -3.39275 4.94624 0
M  V30 4775 H 471.382 -3.34429 5.53865 0
M  V30 4776 N 471.514 -1.37532 -0.769588 0
M  V30 4777 C 472.739 -1.36231 -1.56384 0
M  V30 4778 C 473.164 0.0495849 -1.88035 0
M  V30 4779 O 472.522 1.02723 -1.49391 0
M  V30 4780 C 472.57 -2.20986 -2.84952 0
M  V30 4781 O 471.674 -1.61597 -3.79421 0
M  V30 4782 H 471.015 -0.465387 -0.473615 0
M  V30 4783 H 473.545 -1.81085 -0.952342 0
M  V30 4784 H 473.555 -2.34277 -3.34034 0
M  V30 4785 H 472.23 -3.23612 -2.61243 0
M  V30 4786 H 470.807 -1.57359 -3.38072 0
M  V30 4787 N 472.992 0.995999 -1.22138 0
M  V30 4788 C 473.94 2.10673 -0.985876 0
M  V30 4789 C 474.934 1.69255 0.0699553 0
M  V30 4790 O 476.14 1.79812 -0.0822176 0
M  V30 4791 H 472.515 0.688865 -0.30161 0
M  V30 4792 H 474.486 2.27711 -1.92848 0
M  V30 4793 C 473.235 3.42881 -0.576909 0
M  V30 4794 H 472.558 3.75191 -1.38101 0
M  V30 4795 H 473.998 4.21589 -0.451518 0
M  V30 4796 C 472.457 3.29265 0.713196 0
M  V30 4797 O 472.987 3.60777 1.76643 0
M  V30 4798 N 471.193 2.82456 0.683162 0
M  V30 4799 H 470.74 2.5701 -0.174242 0
M  V30 4800 H 470.698 2.73727 1.54663 0
M  V30 4801 N 474.47 1.03057 1.19235 0
M  V30 4802 C 475.402 0.570932 2.21975 0
M  V30 4803 C 476.415 -0.354088 1.58903 0
M  V30 4804 O 477.604 -0.150211 1.77867 0
M  V30 4805 C 474.704 -0.187152 3.38383 0
M  V30 4806 C 473.877 0.743231 4.31039 0
M  V30 4807 C 472.936 0.0302493 5.26191 0
M  V30 4808 O 471.962 0.657371 5.65391 0
M  V30 4809 N 473.164 -1.23991 5.67104 0
M  V30 4810 H 475.929 1.45456 2.62036 0
M  V30 4811 H 473.49 0.909807 1.33918 0
M  V30 4812 H 475.482 -0.673715 3.99053 0
M  V30 4813 H 474.052 -0.972205 2.97098 0
M  V30 4814 H 473.272 1.40985 3.68126 0
M  V30 4815 H 474.56 1.3755 4.89854 0
M  V30 4816 H 473.958 -1.77011 5.37293 0
M  V30 4817 H 472.515 -1.67093 6.30018 0
M  V30 4818 N 475.948 -1.35272 0.808662 0
M  V30 4819 C 477.178 -2.02652 0.401953 0
M  V30 4820 C 477.586 -1.6108 -0.992462 0
M  V30 4821 O 476.929 -0.804984 -1.65123 0
M  V30 4822 C 476.991 -3.57174 0.408246 0
M  V30 4823 C 476.655 -4.22019 1.75353 0
M  V30 4824 C 477.652 -4.43552 2.71215 0
M  V30 4825 C 475.337 -4.59093 2.03811 0
M  V30 4826 C 477.331 -5.01264 3.93717 0
M  V30 4827 C 475.018 -5.16519 3.26576 0
M  V30 4828 C 476.016 -5.37546 4.21347 0
M  V30 4829 O 475.704 -5.93761 5.41944 0
M  V30 4830 H 475.436 -0.656495 0.161216 0
M  V30 4831 H 477.99 -1.73829 1.0942 0
M  V30 4832 H 476.22 -3.85197 -0.340608 0
M  V30 4833 H 477.909 -4.05893 0.0235623 0
M  V30 4834 H 478.675 -4.15288 2.50522 0
M  V30 4835 H 474.554 -4.42039 1.30854 0
M  V30 4836 H 478.098 -5.17592 4.67701 0
M  V30 4837 H 473.995 -5.4421 3.47139 0
M  V30 4838 H 474.763 -6.1221 5.43269 0
M  V30 4839 N 477.426 -0.562348 -1.47226 0
M  V30 4840 C 478.674 -0.0401371 -2.0206 0
M  V30 4841 C 478.995 1.3165 -1.43852 0
M  V30 4842 O 478.265 1.85976 -0.615599 0
M  V30 4843 H 476.845 -0.0118479 -0.746906 0
M  V30 4844 H 479.507 -0.73352 -1.8057 0
M  V30 4845 H 478.603 0.0441254 -3.12069 0
M  V30 4846 N 478.904 1.54736 -0.299062 0
M  V30 4847 C 480.315 1.8569 0.193971 0
M  V30 4848 C 480.666 1.22101 1.53577 0
M  V30 4849 O 479.791 0.51799 2.10109 0
M  V30 4850 C 480.386 3.36895 0.358733 0
M  V30 4851 C 478.945 3.67887 0.795986 0
M  V30 4852 C 478.092 2.77131 -0.096807 0
M  V30 4853 H 481.043 1.49934 -0.520134 0
M  V30 4854 H 481.064 3.61294 1.19361 0
M  V30 4855 H 480.576 3.83148 -0.617998 0
M  V30 4856 H 478.677 3.27151 1.78334 0
M  V30 4857 H 478.79 4.75114 0.616718 0
M  V30 4858 H 477.154 2.51153 0.423581 0
M  V30 4859 H 477.937 3.26204 -1.06986 0
M  V30 4860 N 480.382 0.0267497 1.57577 0
M  V30 4861 C 481.292 -0.971633 2.13533 0
M  V30 4862 C 482.308 -1.35868 1.08701 0
M  V30 4863 O 483.484 -1.44058 1.40746 0
M  V30 4864 C 480.549 -2.23622 2.64941 0
M  V30 4865 C 479.61 -1.90982 3.8448 0
M  V30 4866 C 478.843 -3.11411 4.33427 0
M  V30 4867 O 479.066 -4.23992 3.81558 0
M  V30 4868 O 478 -2.93848 5.25297 0
M  V30 4869 H 481.826 -0.525853 2.99113 0
M  V30 4870 H 479.411 -0.193712 1.48139 0
M  V30 4871 H 481.293 -2.97864 2.98086 0
M  V30 4872 H 479.968 -2.67386 1.82446 0
M  V30 4873 H 478.875 -1.14132 3.56265 0
M  V30 4874 H 480.208 -1.52036 4.6813 0
M  V30 4875 N 481.861 -1.55662 -0.24637 0
M  V30 4876 C 482.811 -1.86753 -1.30795 0
M  V30 4877 C 483.795 -0.728445 -1.43466 0
M  V30 4878 O 484.987 -0.99038 -1.46699 0
M  V30 4879 C 482.116 -2.16618 -2.66329 0
M  V30 4880 C 481.202 -3.36855 -2.57661 0
M  V30 4881 N 481.593 -4.56111 -2.18624 0
M  V30 4882 C 479.891 -3.39976 -2.88673 0
M  V30 4883 C 480.592 -5.38247 -2.20601 0
M  V30 4884 N 479.568 -4.77322 -2.60124 0
M  V30 4885 H 483.37 -2.76486 -0.996642 0
M  V30 4886 H 480.884 -1.55896 -0.454994 0
M  V30 4887 H 482.881 -2.37057 -3.42942 0
M  V30 4888 H 481.541 -1.28185 -2.98327 0
M  V30 4889 H 482.552 -4.81726 -1.9016 0
M  V30 4890 H 479.229 -2.61815 -3.25206 0
M  V30 4891 H 480.619 -6.43657 -1.92756 0
M  V30 4892 N 483.339 0.512053 -1.4905 0
M  V30 4893 C 484.269 1.62365 -1.67809 0
M  V30 4894 C 485.25 1.61737 -0.526809 0
M  V30 4895 O 486.435 1.78651 -0.761404 0
M  V30 4896 C 483.565 3.00895 -1.73435 0
M  V30 4897 C 482.519 3.16387 -2.88242 0
M  V30 4898 C 481.845 4.56157 -2.78971 0
M  V30 4899 C 483.145 2.97457 -4.29321 0
M  V30 4900 H 484.839 1.46921 -2.60873 0
M  V30 4901 H 482.385 0.705379 -1.2554 0
M  V30 4902 H 484.338 3.78549 -1.85145 0
M  V30 4903 H 483.062 3.17403 -0.769619 0
M  V30 4904 H 481.721 2.41155 -2.76116 0
M  V30 4905 H 481.369 4.69525 -1.8043 0
M  V30 4906 H 481.069 4.67465 -3.5602 0
M  V30 4907 H 482.593 5.35886 -2.92675 0
M  V30 4908 H 484.007 3.64888 -4.42187 0
M  V30 4909 H 482.404 3.20245 -5.07507 0
M  V30 4910 H 483.474 1.93692 -4.44535 0
M  V30 4911 N 484.817 1.37938 0.762283 0
M  V30 4912 C 486.066 1.32989 1.51647 0
M  V30 4913 C 486.379 -0.0802922 1.95435 0
M  V30 4914 O 487.585 -0.252295 2.70325 0
M  V30 4915 C 486.041 2.33485 2.73885 0
M  V30 4916 C 485.649 3.80079 2.37157 0
M  V30 4917 C 487.393 2.37563 3.51801 0
M  V30 4918 C 485.3 4.72283 3.55954 0
M  V30 4919 H 484.23 0.494301 0.56937 0
M  V30 4920 H 486.881 1.63448 0.834083 0
M  V30 4921 H 485.263 1.96056 3.44061 0
M  V30 4922 H 486.437 4.26398 1.74704 0
M  V30 4923 H 484.752 3.79037 1.72395 0
M  V30 4924 H 487.349 3.0365 4.40114 0
M  V30 4925 H 487.692 1.39199 3.92338 0
M  V30 4926 H 488.225 2.73747 2.8863 0
M  V30 4927 H 484.964 5.7181 3.2049 0
M  V30 4928 H 484.484 4.30663 4.1748 0
M  V30 4929 H 486.163 4.89876 4.22647 0
M  V30 4930 N 486.295 -0.989507 1.22664 0
M  V30 4931 C 487.544 -1.72375 1.04737 0
M  V30 4932 C 487.857 -1.91096 -0.417316 0
M  V30 4933 O 489.063 -2.6188 -0.716334 0
M  V30 4934 C 487.519 -3.10161 1.82561 0
M  V30 4935 C 487.127 -2.99358 3.333 0
M  V30 4936 C 488.871 -3.87607 1.73093 0
M  V30 4937 C 486.778 -4.32319 4.03552 0
M  V30 4938 H 485.708 -0.646326 0.388302 0
M  V30 4939 H 488.359 -1.10437 1.46546 0
M  V30 4940 H 486.741 -3.728 1.33552 0
M  V30 4941 H 487.915 -2.45863 3.89728 0
M  V30 4942 H 486.23 -2.35392 3.43481 0
M  V30 4943 H 488.827 -4.86025 2.22899 0
M  V30 4944 H 489.17 -4.10509 0.691976 0
M  V30 4945 H 489.703 -3.31652 2.19663 0
M  V30 4946 H 486.442 -4.14616 5.07714 0
M  V30 4947 H 485.962 -4.85714 3.51911 0
M  V30 4948 H 487.641 -5.01051 4.09337 0
M  V30 4949 N 487.773 -1.03688 -1.18687 0
M  V30 4950 C 488.705 -0.582696 -2.21669 0
M  V30 4951 C 489.718 0.345656 -1.59088 0
M  V30 4952 O 490.907 0.140776 -1.77944 0
M  V30 4953 C 488.007 0.169204 -3.38477 0
M  V30 4954 C 487.18 -0.766079 -4.30639 0
M  V30 4955 C 486.239 -0.0581541 -5.26168 0
M  V30 4956 O 485.265 -0.687346 -5.65035 0
M  V30 4957 N 486.467 1.20981 -5.67753 0
M  V30 4958 H 489.232 -1.46843 -2.61261 0
M  V30 4959 H 486.793 -0.916896 -1.33434 0
M  V30 4960 H 488.785 0.652543 -3.99405 0
M  V30 4961 H 487.355 0.956435 -2.97609 0
M  V30 4962 H 486.575 -1.42935 -3.67373 0
M  V30 4963 H 487.863 -1.40146 -4.89118 0
M  V30 4964 H 487.261 1.74159 -5.38224 0
M  V30 4965 H 485.818 1.6375 -6.30896 0
M  V30 4966 N 489.251 1.34841 -0.815825 0
M  V30 4967 C 490.479 2.0273 -0.413294 0
M  V30 4968 C 490.894 1.61459 0.978599 0
M  V30 4969 O 490.251 0.816584 1.63212 0
M  V30 4970 C 490.302 3.58058 -0.497676 0
M  V30 4971 O 490.023 3.97832 -1.8347 0
M  V30 4972 C 491.524 4.4321 -0.0891339 0
M  V30 4973 H 488.744 0.649956 -0.166728 0
M  V30 4974 H 491.288 1.72267 -1.10201 0
M  V30 4975 H 489.443 3.87136 0.142886 0
M  V30 4976 H 489.857 4.92501 -1.80396 0
M  V30 4977 H 491.331 5.5164 -0.199274 0
M  V30 4978 H 491.808 4.28432 0.966571 0
M  V30 4979 H 492.414 4.19446 -0.703214 0
M  V30 4980 N 490.729 0.570148 1.46925 0
M  V30 4981 C 492.145 0.23087 1.57921 0
M  V30 4982 C 492.345 -1.26676 1.56702 0
M  V30 4983 O 491.401 -2.04774 1.47729 0
M  V30 4984 C 492.714 0.868973 2.8787 0
M  V30 4985 C 494.262 0.841397 3.01479 0
M  V30 4986 C 494.737 1.45881 4.34146 0
M  V30 4987 N 496.228 1.42258 4.40814 0
M  V30 4988 C 496.963 1.8698 5.42057 0
M  V30 4989 N 496.459 2.39618 6.50042 0
M  V30 4990 N 498.252 1.77972 5.33181 0
M  V30 4991 H 490.403 1.54301 1.45962 0
M  V30 4992 H 492.666 0.644224 0.69547 0
M  V30 4993 H 492.372 1.922 2.94537 0
M  V30 4994 H 492.246 0.369682 3.75384 0
M  V30 4995 H 494.633 -0.202973 2.94401 0
M  V30 4996 H 494.714 1.37858 2.15474 0
M  V30 4997 H 494.358 2.50231 4.4198 0
M  V30 4998 H 494.288 0.896958 5.18905 0
M  V30 4999 H 496.779 1.03768 3.63374 0
M  V30 5000 H 497.092 2.71633 7.23488 0
M  V30 5001 H 495.437 2.43636 6.50897 0
M  V30 5002 H 498.628 1.36617 4.4772 0
M  V30 5003 H 498.801 2.13143 6.11943 0
M  V30 5004 N 492.207 -1.54576 0.307264 0
M  V30 5005 C 493.155 -2.25208 -0.581723 0
M  V30 5006 C 494.149 -1.26031 -1.13192 0
M  V30 5007 O 495.355 -1.43862 -1.08184 0
M  V30 5008 H 491.73 -0.723173 -0.206214 0
M  V30 5009 H 493.701 -2.98378 0.0364663 0
M  V30 5010 C 492.45 -3.01086 -1.73904 0
M  V30 5011 H 491.773 -3.77208 -1.32491 0
M  V30 5012 H 493.213 -3.5378 -2.33701 0
M  V30 5013 C 491.672 -2.08422 -2.64692 0
M  V30 5014 O 492.202 -1.65636 -3.65961 0
M  V30 5015 N 490.408 -1.74247 -2.32564 0
M  V30 5016 H 489.955 -2.09238 -1.50257 0
M  V30 5017 H 489.913 -1.12524 -2.93574 0
M  V30 5018 N 493.685 -0.035106 -1.57561 0
M  V30 5019 C 494.648 0.929819 -2.09492 0
M  V30 5020 C 495.648 1.25026 -1.01119 0
M  V30 5021 O 496.838 1.18961 -1.27255 0
M  V30 5022 C 493.97 2.24457 -2.56577 0
M  V30 5023 H 495.163 0.479935 -2.96035 0
M  V30 5024 H 492.716 0.213033 -1.54841 0
M  V30 5025 H 493.451 2.74061 -1.73382 0
M  V30 5026 H 493.236 2.02508 -3.35757 0
M  V30 5027 H 494.726 2.93607 -2.96959 0
M  V30 5028 N 495.163 1.55791 0.238111 0
M  V30 5029 C 496.579 1.48411 0.587045 0
M  V30 5030 C 496.779 0.72702 1.87927 0
M  V30 5031 O 495.835 0.259942 2.51158 0
M  V30 5032 C 497.148 2.92873 0.681623 0
M  V30 5033 C 498.696 3.03295 0.773363 0
M  V30 5034 C 499.171 4.49082 0.899428 0
M  V30 5035 N 500.662 4.53056 0.964075 0
M  V30 5036 C 501.397 5.63117 1.08104 0
M  V30 5037 N 500.893 6.82969 1.16299 0
M  V30 5038 N 502.686 5.50933 1.11488 0
M  V30 5039 H 494.837 2.0345 -0.610076 0
M  V30 5040 H 497.1 0.924034 -0.211813 0
M  V30 5041 H 496.806 3.51142 -0.19802 0
M  V30 5042 H 496.68 3.43851 1.55069 0
M  V30 5043 H 499.067 2.45101 1.64346 0
M  V30 5044 H 499.148 2.55513 -0.121034 0
M  V30 5045 H 498.792 5.07889 0.0338586 0
M  V30 5046 H 498.722 4.94553 1.809 0
M  V30 5047 H 501.213 3.66737 0.91173 0
M  V30 5048 H 501.526 7.62598 1.25155 0
M  V30 5049 H 499.871 6.85712 1.13241 0
M  V30 5050 H 503.062 4.56231 1.0474 0
M  V30 5051 H 503.235 6.36743 1.20259 0
M  V30 5052 N 496.642 -0.504142 1.49319 0
M  V30 5053 C 497.552 -1.63248 1.68486 0
M  V30 5054 C 498.568 -1.64488 0.567432 0
M  V30 5055 O 499.744 -1.82966 0.841749 0
M  V30 5056 C 496.809 -2.99627 1.74426 0
M  V30 5057 C 495.87 -3.09039 2.97982 0
M  V30 5058 C 495.103 -4.38913 3.0363 0
M  V30 5059 O 495.326 -5.27528 2.16958 0
M  V30 5060 O 494.26 -4.53231 3.96062 0
M  V30 5061 H 498.086 -1.50008 2.64067 0
M  V30 5062 H 495.671 -0.680086 1.33023 0
M  V30 5063 H 497.553 -3.80689 1.80705 0
M  V30 5064 H 496.228 -3.13136 0.820233 0
M  V30 5065 H 495.135 -2.27177 2.97223 0
M  V30 5066 H 496.468 -3.00456 3.89855 0
M  V30 5067 N 498.12 -1.38341 -0.754957 0
M  V30 5068 C 499.05 -1.38176 -1.88227 0
M  V30 5069 C 500.031 -0.247873 -1.68284 0
M  V30 5070 O 501.216 -0.45075 -1.88896 0
M  V30 5071 C 498.346 -1.20471 -3.25736 0
M  V30 5072 C 497.3 -2.3105 -3.60278 0
M  V30 5073 C 496.626 -1.98452 -4.96509 0
M  V30 5074 C 497.926 -3.73305 -3.65295 0
M  V30 5075 H 499.62 -2.32512 -1.88622 0
M  V30 5076 H 497.166 -1.1192 -0.906082 0
M  V30 5077 H 499.119 -1.18982 -4.04254 0
M  V30 5078 H 497.843 -0.225965 -3.25817 0
M  V30 5079 H 496.502 -2.31723 -2.84078 0
M  V30 5080 H 496.15 -0.990641 -4.93148 0
M  V30 5081 H 495.85 -2.7251 -5.20588 0
M  V30 5082 H 497.374 -1.98578 -5.77407 0
M  V30 5083 H 498.788 -3.7467 -4.3393 0
M  V30 5084 H 497.185 -4.46557 -4.00883 0
M  V30 5085 H 498.255 -4.05719 -2.65556 0
M  V30 5086 N 499.598 0.982988 -1.23187 0
M  V30 5087 C 500.844 1.72648 -1.06398 0
M  V30 5088 C 501.177 1.90066 0.398561 0
M  V30 5089 O 500.452 1.45105 1.29518 0
M  V30 5090 C 500.735 3.12627 -1.78707 0
M  V30 5091 C 500.588 3.02795 -3.32618 0
M  V30 5092 C 501.907 4.11997 -1.54747 0
M  V30 5093 H 499.026 0.626649 -0.387918 0
M  V30 5094 H 501.668 1.14455 -1.51658 0
M  V30 5095 H 499.818 3.62308 -1.40234 0
M  V30 5096 H 501.49 2.60659 -3.80598 0
M  V30 5097 H 499.733 2.39362 -3.61785 0
M  V30 5098 H 500.404 4.01893 -3.78399 0
M  V30 5099 H 502.88 3.71114 -1.88186 0
M  V30 5100 H 501.756 5.08037 -2.07821 0
M  V30 5101 H 502.017 4.39462 -0.482249 0
M  V30 5102 N 501.076 1.04316 1.18135 0
M  V30 5103 C 502.353 0.662166 1.84051 0
M  V30 5104 C 502.733 -0.858169 1.9287 0
M  V30 5105 O 502.081 -1.76062 1.45652 0
M  V30 5106 C 502.291 1.3409 3.22212 0
M  V30 5107 C 503.639 1.4733 3.9822 0
M  V30 5108 O 504.663 1.29921 3.31661 0
M  V30 5109 O 503.522 1.75722 5.17479 0
M  V30 5110 H 500.616 0.232005 0.79379 0
M  V30 5111 H 503.162 1.1422 1.25506 0
M  V30 5112 H 501.934 2.37853 3.10711 0
M  V30 5113 H 501.557 0.849649 3.88416 0
M  V30 5114 N 502.554 -1.34406 0.822964 0
M  V30 5115 C 503.779 -2.0304 0.423034 0
M  V30 5116 C 504.204 -1.61568 -0.963196 0
M  V30 5117 O 503.562 -0.800339 -1.62678 0
M  V30 5118 C 503.61 -3.56636 0.53321 0
M  V30 5119 O 502.714 -4.09971 -0.446939 0
M  V30 5120 H 502.055 -0.64075 0.174171 0
M  V30 5121 H 504.585 -1.71653 1.11339 0
M  V30 5122 H 504.595 -4.05945 0.408991 0
M  V30 5123 H 503.27 -3.86168 1.54425 0
M  V30 5124 H 501.847 -3.71835 -0.281601 0
M  V30 5125 N 504.032 -0.577932 -1.46621 0
M  V30 5126 C 505.281 -0.0594281 -2.01612 0
M  V30 5127 C 505.594 1.30663 -1.45556 0
M  V30 5128 O 506.8 1.91621 -1.92337 0
M  V30 5129 C 505.256 -0.0556666 -3.59857 0
M  V30 5130 C 504.864 -1.41975 -4.24908 0
M  V30 5131 C 506.608 0.409143 -4.22524 0
M  V30 5132 C 504.515 -1.37397 -5.75218 0
M  V30 5133 H 503.445 -0.0184469 -0.753774 0
M  V30 5134 H 506.096 -0.728869 -1.68404 0
M  V30 5135 H 504.478 0.679843 -3.90121 0
M  V30 5136 H 505.652 -2.17461 -4.0626 0
M  V30 5137 H 503.967 -1.82419 -3.74316 0
M  V30 5138 H 506.564 0.46211 -5.32699 0
M  V30 5139 H 506.907 1.42565 -3.91128 0
M  V30 5140 H 507.44 -0.272152 -3.96868 0
M  V30 5141 H 504.179 -2.36714 -6.11267 0
M  V30 5142 H 503.699 -0.661239 -5.96144 0
M  V30 5143 H 505.378 -1.08484 -6.3784 0
M  V30 5144 N 505.51 1.54411 -0.315457 0
M  V30 5145 C 506.738 2.04833 0.291738 0
M  V30 5146 C 507.153 1.19203 1.46411 0
M  V30 5147 O 506.51 0.220867 1.81159 0
M  V30 5148 C 506.561 3.53969 0.73404 0
M  V30 5149 O 506.282 4.36346 -0.391682 0
M  V30 5150 C 507.783 4.2045 1.40489 0
M  V30 5151 H 505.003 0.668195 0.0612947 0
M  V30 5152 H 507.547 1.99276 -0.45929 0
M  V30 5153 H 505.702 3.5984 1.43506 0
M  V30 5154 H 506.116 5.24481 -0.0447088 0
M  V30 5155 H 507.59 5.26278 1.66539 0
M  V30 5156 H 508.067 3.71067 2.3496 0
M  V30 5157 H 508.673 4.18694 0.746662 0
M  V30 5158 N 506.988 0.0434614 1.5754 0
M  V30 5159 C 508.213 -0.645358 1.97104 0
M  V30 5160 C 508.638 -1.64037 0.920521 0
M  V30 5161 O 507.996 -1.80922 -0.11708 0
M  V30 5162 C 508.044 -1.31547 3.35749 0
M  V30 5163 O 507.148 -2.43103 3.33129 0
M  V30 5164 H 506.489 -0.168403 0.64229 0
M  V30 5165 H 509.019 0.109573 2.04306 0
M  V30 5166 H 509.029 -1.66895 3.72304 0
M  V30 5167 H 507.704 -0.586205 4.11748 0
M  V30 5168 H 506.281 -2.0976 3.0831 0
M  V30 5169 N 508.466 -1.55915 -0.229846 0
M  V30 5170 C 509.429 -1.90914 -1.26824 0
M  V30 5171 C 510.429 -0.786999 -1.40225 0
M  V30 5172 O 511.619 -1.05484 -1.38632 0
M  V30 5173 C 508.751 -2.15264 -2.64337 0
M  V30 5174 H 509.944 -2.8378 -0.969998 0
M  V30 5175 H 507.497 -1.49069 -0.4699 0
M  V30 5176 H 508.232 -1.24923 -2.99274 0
M  V30 5177 H 508.017 -2.97005 -2.55989 0
M  V30 5178 H 509.507 -2.43467 -3.39284 0
M  V30 5179 N 509.944 0.496216 -1.49584 0
M  V30 5180 C 511.192 1.24756 -1.58998 0
M  V30 5181 C 511.513 1.92968 -0.280775 0
M  V30 5182 O 510.783 1.82959 0.700198 0
M  V30 5183 H 509.363 0.463471 -0.585836 0
M  V30 5184 H 512.025 0.574678 -1.86235 0
M  V30 5185 H 511.121 2.00895 -2.38847 0
M  V30 5186 N 511.423 1.38739 0.74761 0
M  V30 5187 C 512.648 1.38702 1.54197 0
M  V30 5188 C 513.073 -0.019664 1.8809 0
M  V30 5189 O 512.431 -1.00333 1.51006 0
M  V30 5190 C 512.479 2.25492 2.814 0
M  V30 5191 O 511.583 1.67613 3.76802 0
M  V30 5192 H 510.924 0.472863 0.466151 0
M  V30 5193 H 513.454 1.82577 0.923413 0
M  V30 5194 H 513.464 2.39561 3.30264 0
M  V30 5195 H 512.139 3.27727 2.56062 0
M  V30 5196 H 510.716 1.62718 3.35526 0
M  V30 5197 N 512.901 -0.976442 1.23707 0
M  V30 5198 C 514.147 -1.72081 1.07312 0
M  V30 5199 C 514.48 -1.90275 -0.388476 0
M  V30 5200 O 513.755 -1.4579 -1.28746 0
M  V30 5201 C 514.038 -3.11675 1.80363 0
M  V30 5202 C 513.891 -3.01027 3.3422 0
M  V30 5203 C 515.21 -4.1117 1.5693 0
M  V30 5204 H 512.329 -0.624583 0.391236 0
M  V30 5205 H 514.971 -1.13649 1.52263 0
M  V30 5206 H 513.121 -3.61559 1.42153 0
M  V30 5207 H 514.793 -2.58637 3.81975 0
M  V30 5208 H 513.036 -2.3744 3.63049 0
M  V30 5209 H 513.707 -3.9988 3.80525 0
M  V30 5210 H 516.183 -3.7011 1.90151 0
M  V30 5211 H 515.059 -5.06928 2.10513 0
M  V30 5212 H 515.32 -4.392 0.505548 0
M  V30 5213 N 514.379 -1.04941 -1.1758 0
M  V30 5214 C 515.626 -0.757989 -1.87779 0
M  V30 5215 C 515.954 0.714827 -1.80888 0
M  V30 5216 O 515.209 1.53824 -1.20982 0
M  V30 5217 C 515.508 -1.18062 -3.37337 0
M  V30 5218 C 515.174 -2.65521 -3.6443 0
M  V30 5219 C 513.836 -3.05804 -3.71534 0
M  V30 5220 C 516.188 -3.60822 -3.76108 0
M  V30 5221 C 513.516 -4.40256 -3.87803 0
M  V30 5222 C 515.868 -4.95005 -3.93895 0
M  V30 5223 C 514.532 -5.34945 -3.99237 0
M  V30 5224 H 513.802 -0.277368 -0.68713 0
M  V30 5225 H 516.449 -1.31603 -1.39115 0
M  V30 5226 H 514.754 -0.541525 -3.8804 0
M  V30 5227 H 516.451 -0.932368 -3.9001 0
M  V30 5228 H 513.041 -2.33324 -3.59524 0
M  V30 5229 H 517.225 -3.30841 -3.69943 0
M  V30 5230 H 512.481 -4.70707 -3.90186 0
M  V30 5231 H 516.655 -5.68746 -4.01872 0
M  V30 5232 H 514.282 -6.39135 -4.11596 0
M  V30 5233 N 515.857 1.33968 -0.830081 0
M  V30 5234 C 516.787 2.31911 -0.271911 0
M  V30 5235 C 517.768 1.58571 0.61556 0
M  V30 5236 O 518.953 1.86514 0.540946 0
M  V30 5237 C 516.083 3.42737 0.561146 0
M  V30 5238 C 515.037 4.27383 -0.229789 0
M  V30 5239 C 514.363 5.29742 0.726463 0
M  V30 5240 C 515.663 5.02 -1.44197 0
M  V30 5241 H 517.357 2.78844 -1.09025 0
M  V30 5242 H 514.903 1.34061 -0.52571 0
M  V30 5243 H 516.856 4.10276 0.961867 0
M  V30 5244 H 515.58 2.94471 1.41261 0
M  V30 5245 H 514.239 3.61456 -0.611964 0
M  V30 5246 H 513.887 4.77736 1.57408 0
M  V30 5247 H 513.587 5.87255 0.20142 0
M  V30 5248 H 515.111 6.00149 1.12489 0
M  V30 5249 H 516.525 5.62355 -1.11488 0
M  V30 5250 H 514.922 5.69122 -1.90317 0
M  V30 5251 H 515.992 4.31281 -2.2164 0
M  V30 5252 N 517.335 0.585699 1.46312 0
M  V30 5253 C 518.583 0.072278 2.01971 0
M  V30 5254 C 518.904 -1.29345 1.45928 0
M  V30 5255 O 518.174 -1.84973 0.645109 0
M  V30 5256 H 516.754 0.023729 0.746623 0
M  V30 5257 H 519.416 0.762155 1.7938 0
M  V30 5258 H 518.512 0.00552767 3.121 0
M  V30 5259 N 518.813 -1.54241 0.323641 0
M  V30 5260 C 520.09 -1.92741 -0.333181 0
M  V30 5261 C 520.47 -1.25326 -1.69872 0
M  V30 5262 O 519.818 -0.396991 -2.25025 0
M  V30 5263 C 520.028 -3.46399 -0.425322 0
M  V30 5264 C 521.376 -4.19029 -0.68557 0
M  V30 5265 O 522.4 -3.52555 -0.50824 0
M  V30 5266 O 521.259 -5.36751 -1.02767 0
M  V30 5267 H 518.353 -0.804811 -0.190286 0
M  V30 5268 H 520.899 -1.65542 0.373361 0
M  V30 5269 H 519.671 -3.87643 0.533737 0
M  V30 5270 H 519.294 -3.79704 -1.17944 0
M  V30 5271 N 520.291 -0.0518155 -1.57515 0
M  V30 5272 C 521.537 0.616839 -1.93821 0
M  V30 5273 C 521.892 1.68413 -0.930307 0
M  V30 5274 O 521.185 1.91534 0.0504231 0
M  V30 5275 C 521.379 1.25607 -3.34601 0
M  V30 5276 C 521.208 0.252222 -4.48992 0
M  V30 5277 C 519.978 -0.156031 -5.05059 0
M  V30 5278 C 522.176 -0.502613 -5.11838 0
M  V30 5279 N 520.158 -1.15267 -6.02981 0
M  V30 5280 C 521.529 -1.35232 -6.05072 0
M  V30 5281 C 523.584 -0.560855 -4.94731 0
M  V30 5282 C 522.287 -2.25505 -6.83037 0
M  V30 5283 C 524.313 -1.45102 -5.73323 0
M  V30 5284 C 523.675 -2.28845 -6.6619 0
M  V30 5285 H 519.774 0.197344 -0.75669 0
M  V30 5286 H 522.358 -0.124297 -1.94303 0
M  V30 5287 H 520.529 1.96723 -3.34895 0
M  V30 5288 H 522.261 1.88358 -3.58195 0
M  V30 5289 H 519.016 0.22306 -4.73074 0
M  V30 5290 H 519.44 -1.64791 -6.56638 0
M  V30 5291 H 524.082 0.0723639 -4.22738 0
M  V30 5292 H 521.8 -2.89872 -7.54321 0
M  V30 5293 H 525.386 -1.50066 -5.62113 0
M  V30 5294 H 524.266 -2.96608 -7.25943 0
M  V30 5295 N 521.769 1.56035 0.221574 0
M  V30 5296 C 522.994 1.83476 0.967026 0
M  V30 5297 C 523.419 0.632139 1.7716 0
M  V30 5298 O 522.777 -0.419082 1.7639 0
M  V30 5299 C 522.825 3.08907 1.86034 0
M  V30 5300 O 521.929 2.876 2.95567 0
M  V30 5301 H 521.27 0.604913 0.273817 0
M  V30 5302 H 523.8 2.03247 0.234893 0
M  V30 5303 H 523.81 3.3901 2.27016 0
M  V30 5304 H 522.485 3.96068 1.26898 0
M  V30 5305 H 521.062 2.6873 2.58532 0
M  V30 5306 N 523.247 -0.488276 1.49845 0
M  V30 5307 C 524.658 -1.06955 1.53028 0
M  V30 5308 C 525.009 -1.9351 0.323797 0
M  V30 5309 O 524.134 -2.08891 -0.565116 0
M  V30 5310 C 524.729 -1.94643 2.77307 0
M  V30 5311 C 523.288 -2.4791 2.83227 0
M  V30 5312 C 522.435 -1.25833 2.47106 0
M  V30 5313 H 525.386 -0.271626 1.56358 0
M  V30 5314 H 525.407 -2.79496 2.5819 0
M  V30 5315 H 524.919 -1.31621 3.65099 0
M  V30 5316 H 523.02 -3.14535 1.99745 0
M  V30 5317 H 523.133 -2.84193 3.85709 0
M  V30 5318 H 521.497 -1.58764 1.99163 0
M  V30 5319 H 522.28 -0.644993 3.37186 0
M  V30 5320 N 524.725 -1.39134 -0.740242 0
M  V30 5321 C 525.635 -1.39697 -1.88473 0
M  V30 5322 C 526.651 -0.292403 -1.71526 0
M  V30 5323 O 527.827 -0.533021 -1.94219 0
M  V30 5324 C 524.892 -1.23382 -3.24003 0
M  V30 5325 C 523.953 -2.43763 -3.53381 0
M  V30 5326 C 523.186 -2.28216 -4.82445 0
M  V30 5327 O 523.409 -1.28288 -5.55786 0
M  V30 5328 O 522.343 -3.1709 -5.11603 0
M  V30 5329 H 526.169 -2.36159 -1.90952 0
M  V30 5330 H 523.754 -1.20194 -0.887346 0
M  V30 5331 H 525.636 -1.16395 -4.05006 0
M  V30 5332 H 524.311 -0.300121 -3.22306 0
M  V30 5333 H 523.218 -2.56325 -2.72485 0
M  V30 5334 H 524.551 -3.35808 -3.59852 0
M  V30 5335 N 526.204 0.969867 -1.24223 0
M  V30 5336 C 527.429 1.75289 -1.10853 0
M  V30 5337 C 527.854 1.85091 0.335079 0
M  V30 5338 O 527.212 1.32024 1.24255 0
M  V30 5339 C 527.26 3.15255 -1.75062 0
M  V30 5340 O 526.364 3.99589 -1.01992 0
M  V30 5341 H 525.705 0.538904 -0.387915 0
M  V30 5342 H 528.235 1.21675 -1.64488 0
M  V30 5343 H 528.245 3.65787 -1.80731 0
M  V30 5344 H 526.92 3.07436 -2.801 0
M  V30 5345 H 525.497 3.58077 -1.04094 0
M  V30 5346 N 527.682 1.05563 1.17022 0
M  V30 5347 C 528.645 0.664098 2.19368 0
M  V30 5348 C 529.645 -0.286358 1.5823 0
M  V30 5349 O 530.835 -0.069728 1.7406 0
M  V30 5350 C 527.967 -0.0239932 3.40892 0
M  V30 5351 H 529.16 1.57 2.55521 0
M  V30 5352 H 526.713 0.849964 1.31169 0
M  V30 5353 H 527.448 -0.942988 3.10287 0
M  V30 5354 H 527.233 0.659351 3.86516 0
M  V30 5355 H 528.723 -0.283909 4.16634 0
M  V30 5356 N 529.16 -1.33526 0.837174 0
M  V30 5357 C 530.408 -1.97446 0.431211 0
M  V30 5358 C 530.729 -1.6665 -1.01255 0
M  V30 5359 O 529.999 -0.964559 -1.70508 0
M  V30 5360 H 528.579 -0.73043 0.156463 0
M  V30 5361 H 531.241 -1.62918 1.06976 0
M  V30 5362 H 530.337 -3.07001 0.561877 0
M  V30 5363 N 530.638 -0.59345 -1.46 0
M  V30 5364 C 531.915 -0.0157933 -1.95594 0
M  V30 5365 C 532.295 1.44807 -1.53604 0
M  V30 5366 O 531.643 2.14342 -0.791824 0
M  V30 5367 C 531.853 -0.199081 -3.48432 0
M  V30 5368 C 533.201 -0.0724943 -4.24538 0
M  V30 5369 O 534.225 -0.128469 -3.55968 0
M  V30 5370 O 533.084 0.0542426 -5.46473 0
M  V30 5371 H 530.178 0.043749 -0.825842 0
M  V30 5372 H 532.724 -0.662522 -1.56233 0
M  V30 5373 H 531.496 -1.21631 -3.71916 0
M  V30 5374 H 531.119 0.483576 -3.94648 0
M  V30 5375 N 532.116 1.54067 -0.331816 0
M  V30 5376 C 533.346 2.04833 0.269605 0
M  V30 5377 C 533.754 1.20714 1.45687 0
M  V30 5378 O 533.097 0.232539 1.82222 0
M  V30 5379 C 533.159 3.51386 0.759499 0
M  V30 5380 C 532.823 4.55971 -0.306557 0
M  V30 5381 C 533.82 5.07126 -1.14538 0
M  V30 5382 C 531.505 5.00216 -0.457116 0
M  V30 5383 C 533.499 6.01096 -2.12042 0
M  V30 5384 C 531.186 5.93999 -1.43556 0
M  V30 5385 C 532.184 6.44326 -2.26568 0
M  V30 5386 O 531.872 7.36267 -3.22749 0
M  V30 5387 H 531.604 0.673509 0.0579763 0
M  V30 5388 H 534.158 1.99748 -0.478521 0
M  V30 5389 H 532.388 3.53896 1.55867 0
M  V30 5390 H 534.077 3.85184 1.28017 0
M  V30 5391 H 534.843 4.73716 -1.04009 0
M  V30 5392 H 530.722 4.60652 0.179142 0
M  V30 5393 H 534.266 6.40302 -2.76873 0
M  V30 5394 H 530.163 6.26825 -1.54146 0
M  V30 5395 H 530.931 7.54165 -3.18083 0
M  V30 5396 N 533.594 0.0601682 1.57485 0
M  V30 5397 C 534.557 -0.896373 2.10945 0
M  V30 5398 C 535.557 -1.23402 1.03095 0
M  V30 5399 O 536.747 -1.16921 1.29132 0
M  V30 5400 C 533.879 -2.20346 2.60116 0
M  V30 5401 H 535.072 -0.432778 2.96761 0
M  V30 5402 H 532.625 -0.188372 1.55161 0
M  V30 5403 H 533.36 -2.71268 1.7772 0
M  V30 5404 H 533.145 -1.9714 3.38937 0
M  V30 5405 H 534.635 -2.88846 3.01592 0
M  V30 5406 N 535.072 -1.5615 -0.213296 0
M  V30 5407 C 536.297 -1.83986 -0.957282 0
M  V30 5408 C 536.722 -0.641526 -1.76822 0
M  V30 5409 O 536.08 0.409722 -1.7661 0
M  V30 5410 C 536.128 -3.09889 -1.84393 0
M  V30 5411 O 535.232 -2.89163 -2.94038 0
M  V30 5412 H 534.573 -0.606357 -0.270605 0
M  V30 5413 H 537.103 -2.03369 -0.224111 0
M  V30 5414 H 537.113 -3.40209 -2.25215 0
M  V30 5415 H 535.788 -3.96735 -1.24795 0
M  V30 5416 H 534.365 -2.70097 -2.57103 0
M  V30 5417 N 536.55 0.480323 -1.50102 0
M  V30 5418 C 537.798 1.23063 -1.60312 0
M  V30 5419 C 538.119 1.92659 -0.301226 0
M  V30 5420 O 537.389 1.83691 0.680753 0
M  V30 5421 H 535.969 0.457231 -0.590719 0
M  V30 5422 H 538.631 0.554893 -1.86834 0
M  V30 5423 H 537.727 1.9835 -2.40964 0
M  V30 5424 N 538.028 1.39524 0.732853 0
M  V30 5425 C 539.256 1.40143 1.52209 0
M  V30 5426 C 539.671 -0.00348836 1.888 0
M  V30 5427 O 539.028 -0.975357 1.5425 0
M  V30 5428 C 539.079 2.27632 2.8083 0
M  V30 5429 O 538.8 3.62654 2.45792 0
M  V30 5430 C 540.301 2.36658 3.74844 0
M  V30 5431 H 537.521 0.478604 0.470297 0
M  V30 5432 H 540.065 1.83366 0.905388 0
M  V30 5433 H 538.22 1.87818 3.38826 0
M  V30 5434 H 538.634 4.08941 3.28431 0
M  V30 5435 H 540.108 3.02118 4.61984 0
M  V30 5436 H 540.585 1.38638 4.16745 0
M  V30 5437 H 541.191 2.76951 3.22766 0
M  V30 5438 N 539.506 -0.963266 1.24736 0
M  V30 5439 C 540.454 -2.07985 1.04139 0
M  V30 5440 C 541.448 -1.69381 -0.0250556 0
M  V30 5441 O 542.654 -1.79531 0.129863 0
M  V30 5442 H 539.029 -0.680627 0.319768 0
M  V30 5443 H 541 -2.22517 1.98818 0
M  V30 5444 C 539.749 -3.4123 0.667615 0
M  V30 5445 H 539.072 -3.71397 1.48 0
M  V30 5446 H 540.512 -4.20244 0.563136 0
M  V30 5447 C 538.971 -3.3104 -0.625647 0
M  V30 5448 O 539.501 -3.65334 -1.67016 0
M  V30 5449 N 537.707 -2.84168 -0.608033 0
M  V30 5450 H 537.254 -2.56458 0.242323 0
M  V30 5451 H 537.212 -2.77732 -1.47352 0
M  V30 5452 N 540.985 -1.06182 -1.16461 0
M  V30 5453 C 541.935 -0.641619 -2.18786 0
M  V30 5454 C 542.919 0.327122 -1.5754 0
M  V30 5455 O 544.111 0.142746 -1.76423 0
M  V30 5456 C 541.24 -0.0283734 -3.43288 0
M  V30 5457 C 540.326 -1.02154 -4.11613 0
M  V30 5458 N 540.717 -2.19671 -4.55608 0
M  V30 5459 C 539.015 -0.852229 -4.37782 0
M  V30 5460 C 539.716 -2.82583 -5.0845 0
M  V30 5461 N 538.692 -2.10318 -5.01266 0
M  V30 5462 H 542.494 -1.53684 -2.50516 0
M  V30 5463 H 540.008 -0.933349 -1.329 0
M  V30 5464 H 542.005 0.29049 -4.15887 0
M  V30 5465 H 540.665 0.862118 -3.13046 0
M  V30 5466 H 541.676 -2.57453 -4.49375 0
M  V30 5467 H 538.353 -0.0136314 -4.17498 0
M  V30 5468 H 539.743 -3.82298 -5.52538 0
M  V30 5469 N 542.463 1.3308 -0.844243 0
M  V30 5470 C 543.709 1.97898 -0.443206 0
M  V30 5471 C 544.042 1.66699 0.99625 0
M  V30 5472 O 543.317 0.949704 1.69738 0
M  V30 5473 C 543.6 3.53801 -0.670606 0
M  V30 5474 C 543.453 3.94667 -2.15772 0
M  V30 5475 C 544.772 4.39936 -0.120226 0
M  V30 5476 H 541.891 0.718861 -0.162504 0
M  V30 5477 H 544.533 1.57633 -1.06075 0
M  V30 5478 H 542.683 3.88229 -0.14496 0
M  V30 5479 H 544.355 3.70469 -2.74865 0
M  V30 5480 H 542.598 3.44203 -2.6402 0
M  V30 5481 H 543.269 5.03275 -2.26757 0
M  V30 5482 H 545.745 4.12183 -0.5696 0
M  V30 5483 H 544.621 5.4803 -0.308984 0
M  V30 5484 H 544.882 4.31184 0.976347 0
M  V30 5485 N 543.941 0.601185 1.45683 0
M  V30 5486 C 544.871 -0.108824 2.33246 0
M  V30 5487 C 545.852 -0.865223 1.46451 0
M  V30 5488 O 547.037 -0.83704 1.75235 0
M  V30 5489 C 544.167 -1.11101 3.2905 0
M  V30 5490 C 543.121 -0.468244 4.25431 0
M  V30 5491 C 542.447 -1.57822 5.10878 0
M  V30 5492 C 543.747 0.606469 5.18767 0
M  V30 5493 H 545.441 0.622306 2.92861 0
M  V30 5494 H 542.987 0.300714 1.40825 0
M  V30 5495 H 544.94 -1.61622 3.89174 0
M  V30 5496 H 543.664 -1.87265 2.67581 0
M  V30 5497 H 542.323 0.0160484 3.66596 0
M  V30 5498 H 541.971 -2.32998 4.45781 0
M  V30 5499 H 541.671 -1.15369 5.76163 0
M  V30 5500 H 543.195 -2.08583 5.73869 0
M  V30 5501 H 544.609 0.185589 5.73 0
M  V30 5502 H 543.006 0.952381 5.92494 0
M  V30 5503 H 544.076 1.48559 4.61582 0
M  V30 5504 N 545.419 -1.53889 0.339982 0
M  V30 5505 C 546.83 -1.86139 -0.144671 0
M  V30 5506 C 547.181 -1.2613 -1.50285 0
M  V30 5507 O 546.306 -0.573515 -2.08662 0
M  V30 5508 C 546.901 -3.37728 -0.269285 0
M  V30 5509 C 545.46 -3.69868 -0.698168 0
M  V30 5510 C 544.607 -2.76777 0.170249 0
M  V30 5511 H 547.558 -1.48503 0.559704 0
M  V30 5512 H 547.579 -3.64331 -1.0974 0
M  V30 5513 H 547.091 -3.81375 0.719366 0
M  V30 5514 H 545.192 -3.31764 -1.69597 0
M  V30 5515 H 545.305 -4.76582 -0.490533 0
M  V30 5516 H 543.669 -2.52188 -0.356844 0
M  V30 5517 H 544.452 -3.23253 1.15597 0
M  V30 5518 N 546.897 -0.0685191 -1.57451 0
M  V30 5519 C 548.125 0.610462 -1.97689 0
M  V30 5520 C 548.54 1.63346 -0.946758 0
M  V30 5521 O 547.897 1.82377 0.0669868 0
M  V30 5522 C 547.948 1.28196 -3.38006 0
M  V30 5523 O 547.669 0.299906 -4.37072 0
M  V30 5524 C 549.17 2.04907 -3.931 0
M  V30 5525 H 546.39 0.165689 -0.650222 0
M  V30 5526 H 548.934 -0.139953 -2.04021 0
M  V30 5527 H 547.089 1.98348 -3.32771 0
M  V30 5528 H 547.503 0.78126 -5.18649 0
M  V30 5529 H 548.977 2.47287 -4.93511 0
M  V30 5530 H 549.454 2.9043 -3.29465 0
M  V30 5531 H 550.06 1.39629 -4.01726 0
M  V30 5532 N 548.375 1.56261 0.205012 0
M  V30 5533 C 549.605 1.83874 0.942018 0
M  V30 5534 C 550.013 0.647595 1.77772 0
M  V30 5535 O 549.356 -0.393098 1.79445 0
M  V30 5536 C 549.418 3.05453 1.89575 0
M  V30 5537 C 549.082 4.39772 1.24296 0
M  V30 5538 C 550.079 5.16133 0.624724 0
M  V30 5539 C 547.764 4.86504 1.24978 0
M  V30 5540 C 549.758 6.37396 0.0220117 0
M  V30 5541 C 547.445 6.07705 0.643232 0
M  V30 5542 C 548.443 6.82993 0.0304164 0
M  V30 5543 O 548.131 8.019 -0.566654 0
M  V30 5544 H 547.863 0.614896 0.280854 0
M  V30 5545 H 550.417 2.04215 0.220285 0
M  V30 5546 H 548.647 2.80972 2.65691 0
M  V30 5547 H 550.336 3.19797 2.4997 0
M  V30 5548 H 551.102 4.81127 0.611666 0
M  V30 5549 H 546.981 4.27865 1.71616 0
M  V30 5550 H 550.525 6.96102 -0.456926 0
M  V30 5551 H 546.422 6.42181 0.653759 0
M  V30 5552 H 547.19 8.17192 -0.462588 0
M  V30 5553 N 549.853 -0.472356 1.50355 0
M  V30 5554 C 551.101 -1.22211 1.60962 0
M  V30 5555 C 551.422 -1.92497 0.311439 0
M  V30 5556 O 550.692 -1.8405 -0.671002 0
M  V30 5557 H 549.272 -0.454092 0.593135 0
M  V30 5558 H 551.934 -0.544977 1.87126 0
M  V30 5559 H 551.03 -1.9707 2.42012 0
M  V30 5560 N 551.331 -1.39911 -0.725443 0
M  V30 5561 C 552.561 -1.40744 -1.51244 0
M  V30 5562 C 552.969 -0.00275403 -1.892 0
M  V30 5563 O 552.312 0.981299 -1.55294 0
M  V30 5564 C 552.374 -2.22527 -2.82351 0
M  V30 5565 C 552.038 -3.71053 -2.66774 0
M  V30 5566 C 553.035 -4.63916 -2.34686 0
M  V30 5567 C 550.72 -4.14753 -2.83347 0
M  V30 5568 C 552.714 -5.98463 -2.19366 0
M  V30 5569 C 550.401 -5.49372 -2.67644 0
M  V30 5570 C 551.399 -6.41042 -2.357 0
M  V30 5571 O 551.087 -7.73181 -2.20107 0
M  V30 5572 H 550.819 -0.482314 -0.473655 0
M  V30 5573 H 553.373 -1.84472 -0.903284 0
M  V30 5574 H 551.603 -1.73563 -3.45562 0
M  V30 5575 H 553.292 -2.15421 -3.44018 0
M  V30 5576 H 554.058 -4.31453 -2.21525 0
M  V30 5577 H 549.937 -3.43728 -3.072 0
M  V30 5578 H 553.481 -6.69979 -1.94354 0
M  V30 5579 H 549.378 -5.81424 -2.80387 0
M  V30 5580 H 550.146 -7.84008 -2.35103 0
M  V30 5581 N 552.809 0.956637 -1.25245 0
M  V30 5582 C 554.037 1.73571 -1.12608 0
M  V30 5583 C 554.452 1.86063 0.320324 0
M  V30 5584 O 553.809 1.35691 1.22042 0
M  V30 5585 C 553.86 3.15053 -1.77268 0
M  V30 5586 O 553.581 3.03174 -3.16255 0
M  V30 5587 C 555.082 4.09248 -1.70386 0
M  V30 5588 H 552.302 0.543955 -0.392879 0
M  V30 5589 H 554.846 1.20031 -1.65568 0
M  V30 5590 H 553.001 3.65543 -1.28284 0
M  V30 5591 H 553.415 3.9241 -3.48015 0
M  V30 5592 H 554.889 5.06138 -2.20291 0
M  V30 5593 H 555.366 4.34102 -0.667239 0
M  V30 5594 H 555.972 3.64672 -2.18849 0
M  V30 5595 N 554.287 1.06798 1.15896 0
M  V30 5596 C 555.25 0.687328 2.18651 0
M  V30 5597 C 556.25 -0.269559 1.58524 0
M  V30 5598 O 557.44 -0.0512627 1.74125 0
M  V30 5599 C 554.572 0.0121642 3.40898 0
M  V30 5600 H 555.765 1.59701 2.53842 0
M  V30 5601 H 553.318 0.863828 1.3026 0
M  V30 5602 H 554.053 -0.910025 3.1127 0
M  V30 5603 H 553.838 0.700309 3.85795 0
M  V30 5604 H 555.328 -0.239703 4.16911 0
M  V30 5605 N 555.766 -1.3263 0.851289 0
M  V30 5606 C 556.994 -2.01563 0.466899 0
M  V30 5607 C 557.409 -1.63996 -0.935447 0
M  V30 5608 O 556.766 -0.85957 -1.6099 0
M  V30 5609 C 556.817 -3.56613 0.592433 0
M  V30 5610 O 556.538 -3.92828 1.93954 0
M  V30 5611 C 558.039 -4.42818 0.206612 0
M  V30 5612 H 555.259 -0.645307 0.183902 0
M  V30 5613 H 557.803 -1.69285 1.1473 0
M  V30 5614 H 555.958 -3.87379 -0.0401936 0
M  V30 5615 H 556.372 -4.87545 1.9339 0
M  V30 5616 H 557.846 -5.50918 0.345462 0
M  V30 5617 H 558.323 -4.30844 -0.85264 0
M  V30 5618 H 558.929 -4.17434 0.814176 0
M  V30 5619 N 557.244 -0.608902 -1.45362 0
M  V30 5620 C 558.484 -0.10763 -2.04116 0
M  V30 5621 C 558.848 1.23883 -1.46686 0
M  V30 5622 O 560.049 1.83091 -1.96803 0
M  V30 5623 C 558.32 -0.0703351 -3.57331 0
M  V30 5624 S 559.879 0.369554 -4.37241 0
M  V30 5625 H 556.697 -0.0502123 -0.709225 0
M  V30 5626 H 559.299 -0.8073 -1.78053 0
M  V30 5627 H 558.003 -1.05379 -3.9664 0
M  V30 5628 H 557.534 0.651287 -3.87971 0
M  V30 5629 H 559.549 1.61878 -4.69052 0
M  V30 5630 N 558.722 1.53707 -0.348139 0
M  V30 5631 C 559.947 2.05877 0.250883 0
M  V30 5632 C 560.372 1.22115 1.43072 0
M  V30 5633 O 559.73 0.235986 1.79758 0
M  V30 5634 C 559.778 3.54886 0.639416 0
M  V30 5635 O 558.882 3.73948 1.73888 0
M  V30 5636 H 558.223 0.662754 0.040653 0
M  V30 5637 H 560.753 1.98303 -0.503685 0
M  V30 5638 H 560.763 3.97601 0.915295 0
M  V30 5639 H 559.438 4.153 -0.223386 0
M  V30 5640 H 558.015 3.43134 1.45991 0
M  V30 5641 N 560.2 0.0768682 1.57412 0
M  V30 5642 C 561.425 -0.603404 1.98428 0
M  V30 5643 C 561.85 -1.62047 0.955108 0
M  V30 5644 O 561.208 -1.81129 -0.0786778 0
M  V30 5645 C 561.256 -1.24396 3.38464 0
M  V30 5646 O 560.36 -2.35982 3.3821 0
M  V30 5647 H 559.701 -0.154741 0.645718 0
M  V30 5648 H 562.231 0.152885 2.04028 0
M  V30 5649 H 562.241 -1.5896 3.7576 0
M  V30 5650 H 560.916 -0.498735 4.12899 0
M  V30 5651 H 559.493 -2.03173 3.1269 0
M  V30 5652 N 561.678 -1.56367 -0.196722 0
M  V30 5653 C 562.608 -1.97442 -1.24655 0
M  V30 5654 C 563.589 -0.846147 -1.47561 0
M  V30 5655 O 564.774 -1.11035 -1.59326 0
M  V30 5656 C 561.904 -2.31253 -2.59112 0
M  V30 5657 C 560.858 -3.46804 -2.50821 0
M  V30 5658 C 560.184 -3.66286 -3.89536 0
M  V30 5659 C 561.484 -4.8104 -2.03465 0
M  V30 5660 H 563.178 -2.85388 -0.905216 0
M  V30 5661 H 560.724 -1.37304 -0.434002 0
M  V30 5662 H 562.677 -2.58583 -3.32736 0
M  V30 5663 H 561.401 -1.40188 -2.94983 0
M  V30 5664 H 560.06 -3.19563 -1.79653 0
M  V30 5665 H 559.708 -2.72555 -4.22756 0
M  V30 5666 H 559.408 -4.4402 -3.84864 0
M  V30 5667 H 560.932 -3.9599 -4.64784 0
M  V30 5668 H 562.346 -5.07411 -2.66846 0
M  V30 5669 H 560.743 -5.62232 -2.09798 0
M  V30 5670 H 561.813 -4.74732 -0.98781 0
M  V30 5671 N 563.156 0.464375 -1.50603 0
M  V30 5672 C 564.404 1.21356 -1.61608 0
M  V30 5673 C 564.725 1.92329 -0.321643 0
M  V30 5674 O 563.995 1.84403 0.661232 0
M  V30 5675 H 562.575 0.45094 -0.595535 0
M  V30 5676 H 565.237 0.535046 -1.87412 0
M  V30 5677 H 564.333 1.95783 -2.43054 0
M  V30 5678 N 564.634 1.40294 0.718013 0
M  V30 5679 C 565.564 1.43118 1.84498 0
M  V30 5680 C 566.545 0.292403 1.67568 0
M  V30 5681 O 567.73 0.500675 1.87635 0
M  V30 5682 C 564.86 1.29065 3.22427 0
M  V30 5683 C 563.814 2.40521 3.54025 0
M  V30 5684 C 563.14 2.11546 4.91073 0
M  V30 5685 C 564.44 3.82859 3.55269 0
M  V30 5686 H 566.134 2.37432 1.82391 0
M  V30 5687 H 563.68 1.14283 0.87609 0
M  V30 5688 H 565.633 1.29658 4.00957 0
M  V30 5689 H 564.357 0.312271 3.25104 0
M  V30 5690 H 563.016 2.39173 2.77834 0
M  V30 5691 H 562.664 1.12104 4.90348 0
M  V30 5692 H 562.364 2.86216 5.1318 0
M  V30 5693 H 563.888 2.13817 5.71939 0
M  V30 5694 H 565.302 3.86044 4.23843 0
M  V30 5695 H 563.699 4.57029 3.88902 0
M  V30 5696 H 564.769 4.12617 2.54706 0
M  V30 5697 N 566.112 -0.949982 1.2575 0
M  V30 5698 C 567.075 -2.02894 1.06615 0
M  V30 5699 C 568.075 -1.60791 0.0173905 0
M  V30 5700 O 569.265 -1.72249 0.260003 0
M  V30 5701 C 566.397 -3.35219 0.619751 0
M  V30 5702 H 567.59 -2.21302 2.02399 0
M  V30 5703 H 565.143 -1.12772 1.08223 0
M  V30 5704 H 565.878 -3.22508 -0.340486 0
M  V30 5705 H 565.663 -3.67129 1.37692 0
M  V30 5706 H 567.153 -4.14505 0.507443 0
M  V30 5707 N 567.59 -1.07411 -1.15328 0
M  V30 5708 C 568.867 -0.710732 -1.82231 0
M  V30 5709 C 569.247 0.806732 -1.95077 0
M  V30 5710 O 568.595 1.72139 -1.50268 0
M  V30 5711 C 568.805 -1.42586 -3.18544 0
M  V30 5712 C 570.153 -1.57836 -3.94174 0
M  V30 5713 O 571.177 -1.38669 -3.281 0
M  V30 5714 O 570.036 -1.8938 -5.12638 0
M  V30 5715 H 567.13 -0.25297 -0.78736 0
M  V30 5716 H 569.676 -1.17508 -1.22434 0
M  V30 5717 H 568.448 -2.46008 -3.04296 0
M  V30 5718 H 568.071 -0.952332 -3.86026 0
M  V30 5719 N 569.068 1.32177 -0.85831 0
M  V30 5720 C 570.315 1.97125 -0.463484 0
M  V30 5721 C 570.643 1.67907 0.981705 0
M  V30 5722 O 569.898 0.961717 1.70439 0
M  V30 5723 C 570.197 3.51372 -0.653658 0
M  V30 5724 C 569.863 4.00584 -2.06987 0
M  V30 5725 C 568.525 4.13733 -2.4572 0
M  V30 5726 C 570.877 4.26624 -2.99402 0
M  V30 5727 C 568.205 4.50268 -3.76132 0
M  V30 5728 C 570.557 4.64618 -4.29316 0
M  V30 5729 C 569.221 4.75975 -4.67979 0
M  V30 5730 H 568.491 0.72133 -0.169601 0
M  V30 5731 H 571.138 1.57517 -1.08907 0
M  V30 5732 H 569.443 3.91761 0.0551328 0
M  V30 5733 H 571.14 3.99655 -0.328163 0
M  V30 5734 H 567.73 3.90837 -1.75911 0
M  V30 5735 H 571.914 4.1597 -2.70708 0
M  V30 5736 H 567.17 4.57256 -4.05865 0
M  V30 5737 H 571.344 4.83722 -5.00985 0
M  V30 5738 H 568.971 5.04041 -5.69076 0
M  V30 5739 N 570.547 0.616602 1.45037 0
M  V30 5740 C 571.479 -0.135186 2.28801 0
M  V30 5741 C 572.492 -0.82303 1.40464 0
M  V30 5742 O 573.681 -0.686909 1.64754 0
M  V30 5743 C 570.781 -1.21292 3.16451 0
M  V30 5744 C 569.954 -0.61043 4.3312 0
M  V30 5745 C 569.013 -1.58022 5.01912 0
M  V30 5746 O 568.039 -1.10301 5.58411 0
M  V30 5747 N 569.241 -2.91464 5.02025 0
M  V30 5748 H 572.006 0.583612 2.93963 0
M  V30 5749 H 569.567 0.456723 1.55324 0
M  V30 5750 H 571.559 -1.86169 3.59337 0
M  V30 5751 H 570.129 -1.83412 2.53138 0
M  V30 5752 H 569.349 0.216638 3.93604 0
M  V30 5753 H 570.637 -0.188293 5.08451 0
M  V30 5754 H 570.035 -3.32829 4.57429 0
M  V30 5755 H 568.592 -3.51741 5.48745 0
M  V30 5756 N 572.025 -1.5352 0.356285 0
M  V30 5757 C 572.972 -2.25439 -0.494569 0
M  V30 5758 C 573.942 -1.25752 -1.08516 0
M  V30 5759 O 575.127 -1.54513 -1.1194 0
M  V30 5760 C 572.267 -3.04011 -1.63313 0
M  V30 5761 C 571.38 -4.18574 -1.06862 0
M  V30 5762 C 570.515 -4.84607 -2.17552 0
M  V30 5763 C 569.554 -5.91218 -1.58518 0
M  V30 5764 N 568.691 -6.50979 -2.63003 0
M  V30 5765 H 573.531 -2.97737 0.125244 0
M  V30 5766 H 571.068 -1.46916 0.0735789 0
M  V30 5767 H 573.026 -3.47834 -2.30363 0
M  V30 5768 H 571.656 -2.33986 -2.22374 0
M  V30 5769 H 570.708 -3.79303 -0.288672 0
M  V30 5770 H 572.02 -4.95215 -0.596924 0
M  V30 5771 H 571.174 -5.31566 -2.92442 0
M  V30 5772 H 569.913 -4.07418 -2.6807 0
M  V30 5773 H 568.918 -5.4363 -0.821391 0
M  V30 5774 H 570.143 -6.70322 -1.08836 0
M  V30 5775 H 568.089 -5.76648 -3.12751 0
M  V30 5776 H 568.006 -7.23131 -2.20493 0
M  V30 5777 H 569.274 -7.02589 -3.37623 0
M  V30 5778 N 573.503 -0.0852151 -1.57369 0
M  V30 5779 C 574.919 0.271436 -1.57275 0
M  V30 5780 C 575.119 1.69109 -1.09565 0
M  V30 5781 O 574.175 2.40549 -0.767611 0
M  V30 5782 C 575.488 0.0688638 -3.00621 0
M  V30 5783 C 577.036 0.137373 -3.12698 0
M  V30 5784 C 577.511 -0.0370832 -4.57985 0
M  V30 5785 N 579.002 0.0180794 -4.63196 0
M  V30 5786 C 579.737 -0.0922953 -5.73326 0
M  V30 5787 N 579.233 -0.256948 -6.92323 0
M  V30 5788 N 581.026 -0.0342702 -5.6209 0
M  V30 5789 H 573.177 -1.01288 -1.86693 0
M  V30 5790 H 575.44 -0.396138 -0.861266 0
M  V30 5791 H 575.146 -0.911277 -3.39689 0
M  V30 5792 H 575.02 0.815442 -3.6828 0
M  V30 5793 H 577.407 1.10801 -2.73509 0
M  V30 5794 H 577.488 -0.640532 -2.47651 0
M  V30 5795 H 577.132 -1.00455 -4.97867 0
M  V30 5796 H 577.062 0.760392 -5.21081 0
M  V30 5797 H 579.553 0.143202 -3.77629 0
M  V30 5798 H 579.866 -0.332949 -7.72082 0
M  V30 5799 H 578.211 -0.292487 -6.94384 0
M  V30 5800 H 581.402 0.0931605 -4.68007 0
M  V30 5801 H 581.575 -0.12374 -6.47882 0
M  V30 5802 N 574.981 1.5647 0.188427 0
M  V30 5803 C 575.914 1.90146 1.26173 0
M  V30 5804 C 576.892 0.762294 1.43624 0
M  V30 5805 O 578.076 1.01395 1.58907 0
M  V30 5806 C 575.203 2.13748 2.62735 0
M  V30 5807 C 574.249 3.36448 2.62116 0
M  V30 5808 S 575.082 4.91364 2.12889 0
M  V30 5809 C 576.238 5.18041 3.51261 0
M  V30 5810 H 576.471 2.80886 0.974192 0
M  V30 5811 H 574.004 1.49335 0.392226 0
M  V30 5812 H 575.962 2.28028 3.41341 0
M  V30 5813 H 574.623 1.23747 2.88696 0
M  V30 5814 H 573.816 3.50109 3.62546 0
M  V30 5815 H 573.418 3.21196 1.91596 0
M  V30 5816 H 575.71 5.0897 4.47164 0
M  V30 5817 H 576.653 6.19764 3.42489 0
M  V30 5818 H 577.061 4.45657 3.46482 0
M  V30 5819 N 576.459 -0.456382 1.50847 0
M  V30 5820 C 577.687 -1.23026 1.66349 0
M  V30 5821 C 578.102 -1.85473 0.352868 0
M  V30 5822 O 577.459 -1.69885 -0.666739 0
M  V30 5823 C 577.51 -2.32827 2.76539 0
M  V30 5824 O 577.231 -1.72938 4.02522 0
M  V30 5825 C 578.732 -3.23448 3.03144 0
M  V30 5826 H 575.952 -0.371527 0.558756 0
M  V30 5827 H 578.496 -0.543082 1.97157 0
M  V30 5828 H 576.651 -2.97294 2.48384 0
M  V30 5829 H 577.065 -2.45357 4.63573 0
M  V30 5830 H 578.539 -3.96669 3.83872 0
M  V30 5831 H 579.016 -3.83094 2.14793 0
M  V30 5832 H 579.622 -2.64702 3.32886 0
M  V30 5833 N 577.937 -1.40673 -0.710563 0
M  V30 5834 C 579.183 -1.39428 -1.47267 0
M  V30 5835 C 579.516 0.00182129 -1.942 0
M  V30 5836 O 578.791 0.971387 -1.68506 0
M  V30 5837 C 579.074 -2.38812 -2.6952 0
M  V30 5838 C 578.927 -3.87467 -2.28449 0
M  V30 5839 C 580.246 -2.3566 -3.71689 0
M  V30 5840 H 577.365 -0.507768 -0.534173 0
M  V30 5841 H 580.007 -1.71843 -0.810547 0
M  V30 5842 H 578.157 -2.113 -3.26013 0
M  V30 5843 H 579.829 -4.25825 -1.77399 0
M  V30 5844 H 578.072 -4.03058 -1.60395 0
M  V30 5845 H 578.743 -4.5253 -3.16103 0
M  V30 5846 H 581.219 -2.6004 -3.24836 0
M  V30 5847 H 580.095 -3.07237 -4.54859 0
M  V30 5848 H 580.356 -1.36996 -4.20339 0
M  V30 5849 N 579.415 0.9433 -1.26252 0
M  V30 5850 C 580.347 2.04542 -1.03417 0
M  V30 5851 C 581.36 1.62799 0.0046911 0
M  V30 5852 O 582.549 1.76944 -0.235146 0
M  V30 5853 C 579.649 3.34511 -0.543671 0
M  V30 5854 C 578.822 4.05033 -1.65128 0
M  V30 5855 C 577.881 5.13273 -1.1592 0
M  V30 5856 O 576.907 5.38095 -1.85586 0
M  V30 5857 N 578.109 5.805 -0.00649279 0
M  V30 5858 H 580.874 2.24699 -1.98319 0
M  V30 5859 H 578.435 1.11264 -1.1761 0
M  V30 5860 H 580.427 4.04212 -0.198703 0
M  V30 5861 H 578.997 3.11042 0.311711 0
M  V30 5862 H 578.217 3.29275 -2.16729 0
M  V30 5863 H 579.505 4.48903 -2.39508 0
M  V30 5864 H 578.903 5.62767 0.575347 0
M  V30 5865 H 577.46 6.51201 0.279416 0
M  V30 5866 N 580.893 1.08022 1.14757 0
M  V30 5867 C 581.803 0.718292 2.23333 0
M  V30 5868 C 582.819 -0.273477 1.71837 0
M  V30 5869 O 583.995 -0.118406 2.01052 0
M  V30 5870 C 581.06 0.128855 3.4646 0
M  V30 5871 C 580.121 1.17473 4.12915 0
M  V30 5872 C 579.354 0.61333 5.30164 0
M  V30 5873 O 579.577 -0.568458 5.6756 0
M  V30 5874 O 578.511 1.3615 5.86299 0
M  V30 5875 H 582.337 1.62394 2.56636 0
M  V30 5876 H 579.922 0.853628 1.22611 0
M  V30 5877 H 581.804 -0.197249 4.20938 0
M  V30 5878 H 580.479 -0.750014 3.14891 0
M  V30 5879 H 579.386 1.5533 3.40328 0
M  V30 5880 H 580.719 2.02574 4.48581 0
M  V30 5881 N 582.371 -1.3172 0.865308 0
M  V30 5882 C 583.301 -2.31109 0.333302 0
M  V30 5883 C 584.282 -1.60148 -0.573301 0
M  V30 5884 O 585.467 -1.87882 -0.491305 0
M  V30 5885 C 582.597 -3.44104 -0.470078 0
M  V30 5886 C 581.551 -4.26623 0.343021 0
M  V30 5887 C 580.877 -5.31482 -0.585756 0
M  V30 5888 C 582.177 -4.98001 1.57456 0
M  V30 5889 H 583.871 -2.75855 1.1638 0
M  V30 5890 H 581.417 -1.3262 0.561069 0
M  V30 5891 H 583.37 -4.12682 -0.852752 0
M  V30 5892 H 582.094 -2.98112 -1.33404 0
M  V30 5893 H 580.753 -3.59707 0.707583 0
M  V30 5894 H 580.401 -4.81741 -1.44686 0
M  V30 5895 H 580.101 -5.87582 -0.0456494 0
M  V30 5896 H 581.625 -6.0292 -0.965375 0
M  V30 5897 H 583.039 -5.59201 1.26359 0
M  V30 5898 H 581.436 -5.63876 2.05339 0
M  V30 5899 H 582.506 -4.25253 2.32997 0
M  V30 5900 N 583.85 -0.624285 -1.44708 0
M  V30 5901 C 585.075 -0.131171 -2.06985 0
M  V30 5902 C 585.5 1.18234 -1.46295 0
M  V30 5903 O 584.858 1.72375 -0.561842 0
M  V30 5904 C 584.906 -0.0226724 -3.60593 0
M  V30 5905 O 584.01 1.02314 -3.99507 0
M  V30 5906 H 583.351 -0.0816556 -0.65896 0
M  V30 5907 H 585.88 -0.859027 -1.85693 0
M  V30 5908 H 585.891 0.170138 -4.07645 0
M  V30 5909 H 584.566 -0.981685 -4.04148 0
M  V30 5910 H 583.143 0.805452 -3.64097 0
M  V30 5911 N 585.328 1.53329 -0.364422 0
M  V30 5912 C 586.275 2.25698 0.482607 0
M  V30 5913 C 587.245 1.26325 1.07848 0
M  V30 5914 O 588.43 1.55104 1.11119 0
M  V30 5915 C 585.57 3.04873 1.61699 0
M  V30 5916 C 584.683 4.19135 1.0464 0
M  V30 5917 C 583.818 4.85754 2.14979 0
M  V30 5918 C 582.857 5.9205 1.5538 0
M  V30 5919 N 581.994 6.52365 2.59547 0
M  V30 5920 H 586.834 2.97666 -0.141032 0
M  V30 5921 H 584.371 1.46875 -0.0813692 0
M  V30 5922 H 586.329 3.49051 2.28516 0
M  V30 5923 H 584.959 2.35162 2.2113 0
M  V30 5924 H 584.011 3.79451 0.268553 0
M  V30 5925 H 585.323 4.95525 0.570653 0
M  V30 5926 H 584.477 5.3311 2.89619 0
M  V30 5927 H 583.216 4.08834 2.65906 0
M  V30 5928 H 582.221 5.44058 0.792549 0
M  V30 5929 H 583.446 6.7089 1.0528 0
M  V30 5930 H 581.392 5.78298 3.09689 0
M  V30 5931 H 581.309 7.2429 2.16655 0
M  V30 5932 H 582.577 7.0437 3.33892 0
M  V30 5933 N 586.806 0.0935595 1.57322 0
M  V30 5934 C 587.716 -0.880192 2.17462 0
M  V30 5935 C 588.732 -1.31135 1.14366 0
M  V30 5936 O 589.908 -1.37958 1.46729 0
M  V30 5937 C 586.973 -2.12184 2.74188 0
M  V30 5938 C 586.034 -1.74503 3.92234 0
M  V30 5939 C 585.267 -2.92748 4.46245 0
M  V30 5940 O 585.49 -4.07427 3.99198 0
M  V30 5941 O 584.424 -2.71303 5.37288 0
M  V30 5942 H 588.25 -0.398516 3.01074 0
M  V30 5943 H 585.835 -0.130707 1.48827 0
M  V30 5944 H 587.717 -2.84953 3.10451 0
M  V30 5945 H 586.392 -2.59407 1.93623 0
M  V30 5946 H 585.299 -0.989186 3.60785 0
M  V30 5947 H 586.632 -1.32044 4.74157 0
M  V30 5948 N 588.284 -1.56567 -0.180126 0
M  V30 5949 C 589.532 -1.81133 -0.896392 0
M  V30 5950 C 589.853 -0.669114 -1.83161 0
M  V30 5951 O 589.123 0.311616 -1.93406 0
M  V30 5952 H 587.703 -0.668172 -0.333999 0
M  V30 5953 H 590.365 -1.94048 -0.182051 0
M  V30 5954 H 589.461 -2.74854 -1.47857 0
M  V30 5955 N 589.762 0.448376 -1.51087 0
M  V30 5956 C 591.009 1.19872 -1.63209 0
M  V30 5957 C 591.337 1.91451 -0.343062 0
M  V30 5958 O 590.592 1.83789 0.672321 0
M  V30 5959 C 590.891 2.24866 -2.77795 0
M  V30 5960 C 590.557 1.70378 -4.17471 0
M  V30 5961 C 589.219 1.55241 -4.55471 0
M  V30 5962 C 591.571 1.30203 -5.04675 0
M  V30 5963 C 588.899 0.983844 -5.78392 0
M  V30 5964 C 591.251 0.747798 -6.28165 0
M  V30 5965 C 589.915 0.583233 -6.64947 0
M  V30 5966 H 589.185 0.438642 -0.597222 0
M  V30 5967 H 591.832 0.49136 -1.85089 0
M  V30 5968 H 590.137 3.01598 -2.50092 0
M  V30 5969 H 591.834 2.82723 -2.84374 0
M  V30 5970 H 588.424 1.83134 -3.87505 0
M  V30 5971 H 592.608 1.40723 -4.75932 0
M  V30 5972 H 587.864 0.844007 -6.05546 0
M  V30 5973 H 592.038 0.427927 -6.95084 0
M  V30 5974 H 589.665 0.140532 -7.6007 0
M  V30 5975 N 591.24 1.41047 0.703093 0
M  V30 5976 C 592.465 1.43537 1.49706 0
M  V30 5977 C 592.89 0.0401853 1.88057 0
M  V30 5978 O 592.248 -0.954785 1.54122 0
M  V30 5979 C 592.296 2.3433 2.74084 0
M  V30 5980 O 591.4 1.79515 3.71279 0
M  V30 5981 H 590.741 0.487454 0.450871 0
M  V30 5982 H 593.271 1.85422 0.86486 0
M  V30 5983 H 593.281 2.49947 3.22476 0
M  V30 5984 H 591.956 3.35708 2.45506 0
M  V30 5985 H 590.533 1.7331 3.30179 0
M  V30 5986 N 592.718 -0.936591 1.26751 0
M  V30 5987 C 593.681 -2.01752 1.08761 0
M  V30 5988 C 594.681 -1.60763 0.0344435 0
M  V30 5989 O 595.871 -1.71963 0.278258 0
M  V30 5990 C 593.003 -3.34543 0.655271 0
M  V30 5991 H 594.196 -2.19143 2.04735 0
M  V30 5992 H 591.749 -1.11618 1.09413 0
M  V30 5993 H 592.484 -3.22851 -0.30626 0
M  V30 5994 H 592.269 -3.65647 1.41578 0
M  V30 5995 H 593.759 -4.13944 0.551378 0
M  V30 5996 N 594.196 -1.08629 -1.14182 0
M  V30 5997 C 595.126 -0.740003 -2.21464 0
M  V30 5998 C 596.107 0.278591 -1.67803 0
M  V30 5999 O 597.292 0.148461 -1.93632 0
M  V30 6000 C 594.422 -0.150952 -3.46972 0
M  V30 6001 C 593.376 -1.09815 -4.13672 0
M  V30 6002 C 592.702 -0.3712 -5.3341 0
M  V30 6003 C 594.002 -2.43722 -4.61949 0
M  V30 6004 H 595.696 -1.63697 -2.50686 0
M  V30 6005 H 593.242 -0.788526 -1.20492 0
M  V30 6006 H 595.195 0.103325 -4.21273 0
M  V30 6007 H 593.919 0.781164 -3.1712 0
M  V30 6008 H 592.578 -1.33756 -3.41328 0
M  V30 6009 H 592.226 0.564792 -4.99819 0
M  V30 6010 H 591.926 -1.00267 -5.78982 0
M  V30 6011 H 593.45 -0.12503 -6.10472 0
M  V30 6012 H 594.864 -2.24034 -5.27714 0
M  V30 6013 H 593.261 -3.02582 -5.18232 0
M  V30 6014 H 594.331 -3.05082 -3.76899 0
M  V30 6015 N 595.674 1.31259 -0.872281 0
M  V30 6016 C 596.637 2.26744 -0.334656 0
M  V30 6017 C 597.637 1.52307 0.515681 0
M  V30 6018 O 598.827 1.71148 0.324656 0
M  V30 6019 C 595.959 3.36841 0.524482 0
M  V30 6020 H 597.152 2.75812 -1.17762 0
M  V30 6021 H 594.705 1.42232 -0.648064 0
M  V30 6022 H 595.44 2.93069 1.38855 0
M  V30 6023 H 595.225 3.92009 -0.0844299 0
M  V30 6024 H 596.715 4.07944 0.892838 0
M  V30 6025 N 597.152 0.631951 1.44375 0
M  V30 6026 C 598.377 0.142146 2.06912 0
M  V30 6027 C 598.802 -1.17456 1.4692 0
M  V30 6028 O 598.16 -1.72074 0.570975 0
M  V30 6029 C 598.208 0.0417952 3.60576 0
M  V30 6030 O 597.312 -1.00194 4.00044 0
M  V30 6031 H 596.653 0.0851491 0.658518 0
M  V30 6032 H 599.183 0.868863 1.85235 0
M  V30 6033 H 599.193 -0.148517 4.0773 0
M  V30 6034 H 597.868 1.0031 4.03622 0
M  V30 6035 H 596.445 -0.786131 3.64519 0
M  V30 6036 N 598.631 -1.53133 0.372548 0
M  V30 6037 C 599.859 -2.05774 -0.215515 0
M  V30 6038 C 600.274 -1.24555 -1.41886 0
M  V30 6039 O 599.631 -0.287951 -1.80214 0
M  V30 6040 C 599.682 -3.5645 -0.602161 0
M  V30 6041 O 599.403 -4.34591 0.553359 0
M  V30 6042 C 600.904 -4.25374 -1.24787 0
M  V30 6043 H 598.124 -0.670009 -0.0364529 0
M  V30 6044 H 600.668 -1.97434 0.532934 0
M  V30 6045 H 598.823 -3.64918 -1.30052 0
M  V30 6046 H 599.237 -5.23954 0.239336 0
M  V30 6047 H 600.711 -5.32097 -1.46891 0
M  V30 6048 H 601.188 -3.79531 -2.21026 0
M  V30 6049 H 601.794 -4.21177 -0.590752 0
M  V30 6050 N 600.109 -0.101901 -1.5727 0
M  V30 6051 C 601.358 0.559922 -1.93772 0
M  V30 6052 C 601.671 1.68913 -0.98629 0
M  V30 6053 O 602.877 2.41256 -1.24529 0
M  V30 6054 C 601.333 1.04739 -3.44322 0
M  V30 6055 C 600.941 -0.05243 -4.47969 0
M  V30 6056 C 602.685 1.68157 -3.89774 0
M  V30 6057 C 600.592 0.450781 -5.8968 0
M  V30 6058 H 599.522 0.212931 -0.723309 0
M  V30 6059 H 602.173 -0.179001 -1.82625 0
M  V30 6060 H 600.555 1.84021 -3.50645 0
M  V30 6061 H 601.729 -0.828157 -4.53297 0
M  V30 6062 H 600.044 -0.592202 -4.12167 0
M  V30 6063 H 602.641 2.0689 -4.93052 0
M  V30 6064 H 602.984 2.55338 -3.28798 0
M  V30 6065 H 603.517 0.954453 -3.8618 0
M  V30 6066 H 600.256 -0.38458 -6.54371 0
M  V30 6067 H 599.776 1.19336 -5.87809 0
M  V30 6068 H 601.455 0.917555 -6.40461 0
M  V30 6069 N 601.587 1.56661 0.17182 0
M  V30 6070 C 602.497 1.99604 1.2327 0
M  V30 6071 C 603.513 0.907333 1.4847 0
M  V30 6072 O 604.689 1.21492 1.60629 0
M  V30 6073 C 601.754 2.34685 2.55194 0
M  V30 6074 C 600.815 3.57381 2.3786 0
M  V30 6075 C 600.048 3.90779 3.63494 0
M  V30 6076 O 600.271 3.25152 4.6865 0
M  V30 6077 O 599.205 4.84129 3.57634 0
M  V30 6078 H 603.031 2.90114 0.898192 0
M  V30 6079 H 600.616 1.44522 0.378647 0
M  V30 6080 H 602.498 2.5822 3.33017 0
M  V30 6081 H 601.173 1.47336 2.88225 0
M  V30 6082 H 600.08 3.39064 1.5807 0
M  V30 6083 H 601.413 4.45268 2.09754 0
M  V30 6084 N 603.065 -0.440357 1.51323 0
M  V30 6085 C 604.293 -1.21255 1.67645 0
M  V30 6086 C 604.708 -1.85088 0.37252 0
M  V30 6087 O 604.065 -1.70582 -0.648683 0
M  V30 6088 C 604.116 -2.29881 2.78993 0
M  V30 6089 O 603.837 -1.68659 4.04334 0
M  V30 6090 C 605.338 -3.20214 3.06558 0
M  V30 6091 H 602.558 -0.36558 0.562666 0
M  V30 6092 H 605.102 -0.52214 1.97722 0
M  V30 6093 H 603.257 -2.94643 2.51524 0
M  V30 6094 H 603.671 -2.40426 4.6615 0
M  V30 6095 H 605.145 -3.92575 3.88058 0
M  V30 6096 H 605.622 -3.80794 2.18844 0
M  V30 6097 H 606.228 -2.61156 3.35675 0
M  V30 6098 N 604.543 -1.41418 -0.695603 0
M  V30 6099 C 605.473 -1.46035 -1.82197 0
M  V30 6100 C 606.454 -0.319025 -1.67082 0
M  V30 6101 O 607.639 -0.530462 -1.86815 0
M  V30 6102 C 604.769 -1.34179 -3.20333 0
M  V30 6103 C 603.723 -2.46123 -3.50154 0
M  V30 6104 C 603.049 -2.19332 -4.87645 0
M  V30 6105 C 604.349 -3.88463 -3.49133 0
M  V30 6106 H 606.043 -2.40303 -1.78591 0
M  V30 6107 H 603.589 -1.15663 -0.857797 0
M  V30 6108 H 605.542 -1.36021 -3.98844 0
M  V30 6109 H 604.266 -0.363952 -3.24566 0
M  V30 6110 H 602.925 -2.43563 -2.73994 0
M  V30 6111 H 602.573 -1.19891 -4.88503 0
M  V30 6112 H 602.273 -2.94344 -5.08562 0
M  V30 6113 H 603.797 -2.22889 -5.68465 0
M  V30 6114 H 605.211 -3.92738 -4.17648 0
M  V30 6115 H 603.608 -4.63158 -3.81582 0
M  V30 6116 H 604.678 -4.16617 -2.48109 0
M  V30 6117 N 606.021 0.929856 -1.27246 0
M  V30 6118 C 606.984 2.01172 -1.09829 0
M  V30 6119 C 607.984 1.60743 -0.0429687 0
M  V30 6120 O 609.174 1.71813 -0.287373 0
M  V30 6121 C 606.306 3.34191 -0.673003 0
M  V30 6122 H 607.499 2.18054 -2.05895 0
M  V30 6123 H 605.052 1.11036 -1.10003 0
M  V30 6124 H 605.787 3.23009 0.289134 0
M  V30 6125 H 605.572 3.64892 -1.43515 0
M  V30 6126 H 607.062 4.13646 -0.573323 0
M  V30 6127 N 607.499 1.09233 1.13605 0
M  V30 6128 C 608.462 0.733553 2.17144 0
M  V30 6129 C 609.462 -0.235873 1.59061 0
M  V30 6130 O 610.652 -0.0143167 1.74194 0
M  V30 6131 C 607.784 0.084471 3.40795 0
M  V30 6132 H 608.977 1.65049 2.50397 0
M  V30 6133 H 606.53 0.891264 1.28399 0
M  V30 6134 H 607.265 -0.843795 3.1313 0
M  V30 6135 H 607.05 0.781985 3.84223 0
M  V30 6136 H 608.54 -0.151216 4.17326 0
M  V30 6137 N 608.977 -1.30795 0.87923 0
M  V30 6138 C 609.94 -2.26563 0.346676 0
M  V30 6139 C 610.94 -1.52578 -0.507597 0
M  V30 6140 O 612.13 -1.71318 -0.315575 0
M  V30 6141 C 609.262 -3.37115 -0.506611 0
M  V30 6142 H 610.455 -2.75183 1.19223 0
M  V30 6143 H 608.008 -1.41886 0.655598 0
M  V30 6144 H 608.743 -2.93802 -1.37299 0
M  V30 6145 H 608.528 -3.91959 0.105218 0
M  V30 6146 H 610.018 -4.08412 -0.871192 0
M  V30 6147 N 610.455 -0.639598 -1.44038 0
M  V30 6148 C 611.365 0.0612377 -2.3452 0
M  V30 6149 C 612.381 0.826717 -1.53106 0
M  V30 6150 O 613.557 0.777059 -1.85806 0
M  V30 6151 C 610.622 1.02492 -3.31204 0
M  V30 6152 C 609.683 0.25788 -4.28525 0
M  V30 6153 C 608.916 1.17566 -5.2059 0
M  V30 6154 O 609.139 2.41461 -5.16771 0
M  V30 6155 O 608.073 0.655407 -5.98321 0
M  V30 6156 H 611.899 -0.68318 -2.95916 0
M  V30 6157 H 609.484 -0.399784 -1.43952 0
M  V30 6158 H 611.366 1.57911 -3.90694 0
M  V30 6159 H 610.041 1.7498 -2.7233 0
M  V30 6160 H 608.948 -0.339566 -3.72556 0
M  V30 6161 H 610.281 -0.427154 -4.90343 0
M  V30 6162 N 611.933 1.52934 -0.380664 0
M  V30 6163 C 613.349 1.59571 -0.0302429 0
M  V30 6164 C 613.549 1.39509 1.45394 0
M  V30 6165 O 612.605 1.20777 2.21741 0
M  V30 6166 C 613.918 2.96519 -0.499691 0
M  V30 6167 C 615.466 3.09672 -0.455204 0
M  V30 6168 C 615.941 4.49056 -0.900703 0
M  V30 6169 N 617.432 4.55215 -0.856367 0
M  V30 6170 C 618.167 5.61282 -1.17259 0
M  V30 6171 N 617.663 6.75035 -1.55885 0
M  V30 6172 N 619.456 5.51343 -1.0944 0
M  V30 6173 H 611.607 1.64224 -1.347 0
M  V30 6174 H 613.87 0.771033 -0.551554 0
M  V30 6175 H 613.576 3.16388 -1.53595 0
M  V30 6176 H 613.45 3.77052 0.105789 0
M  V30 6177 H 615.837 2.89504 0.571949 0
M  V30 6178 H 615.918 2.31113 -1.09638 0
M  V30 6179 H 615.562 4.69964 -1.92604 0
M  V30 6180 H 615.492 5.26068 -0.236629 0
M  V30 6181 H 617.983 3.73546 -0.572013 0
M  V30 6182 H 618.296 7.51926 -1.784 0
M  V30 6183 H 616.641 6.76388 -1.59764 0
M  V30 6184 H 619.832 4.61356 -0.791713 0
M  V30 6185 H 620.005 6.33905 -1.34417 0
M  V30 6186 N 613.412 0.11024 1.57214 0
M  V30 6187 C 614.342 -0.840002 2.17867 0
M  V30 6188 C 615.323 -1.28352 1.11624 0
M  V30 6189 O 616.508 -1.3477 1.39824 0
M  V30 6190 C 613.638 -2.09349 2.77111 0
M  V30 6191 C 612.592 -1.78807 3.8886 0
M  V30 6192 C 611.918 -3.11112 4.34872 0
M  V30 6193 C 613.218 -1.0632 5.11364 0
M  V30 6194 H 614.912 -0.334608 2.97524 0
M  V30 6195 H 612.458 -0.159502 1.43114 0
M  V30 6196 H 614.411 -2.76275 3.18198 0
M  V30 6197 H 613.135 -2.62198 1.9473 0
M  V30 6198 H 611.794 -1.14273 3.48335 0
M  V30 6199 H 611.442 -3.61877 3.49362 0
M  V30 6200 H 611.142 -2.91453 5.10224 0
M  V30 6201 H 612.666 -3.79171 4.78604 0
M  V30 6202 H 614.08 -1.63383 5.49526 0
M  V30 6203 H 612.477 -0.967876 5.92243 0
M  V30 6204 H 613.547 -0.0484569 4.84876 0
M  V30 6205 N 614.89 -1.56749 -0.16351 0
M  V30 6206 C 616.118 -1.86577 -0.894233 0
M  V30 6207 C 616.533 -0.696543 -1.75481 0
M  V30 6208 O 615.89 0.334161 -1.79415 0
M  V30 6209 C 615.941 -3.15508 -1.76456 0
M  V30 6210 O 615.662 -4.27926 -0.938685 0
M  V30 6211 C 617.163 -3.58737 -2.60428 0
M  V30 6212 H 614.383 -0.618829 -0.259405 0
M  V30 6213 H 616.927 -2.03863 -0.161259 0
M  V30 6214 H 615.082 -3.00025 -2.45079 0
M  V30 6215 H 615.496 -5.01546 -1.53465 0
M  V30 6216 H 616.97 -4.51832 -3.17099 0
M  V30 6217 H 617.447 -2.83229 -3.35675 0
M  V30 6218 H 618.053 -3.76858 -1.97125 0
M  V30 6219 N 616.368 0.432326 -1.51554 0
M  V30 6220 C 617.331 1.50765 -1.72634 0
M  V30 6221 C 618.331 1.49334 -0.596314 0
M  V30 6222 O 619.521 1.51268 -0.863925 0
M  V30 6223 C 616.653 2.90284 -1.7874 0
M  V30 6224 H 617.846 1.33377 -2.68609 0
M  V30 6225 H 615.399 0.661329 -1.4162 0
M  V30 6226 H 616.134 3.13071 -0.845977 0
M  V30 6227 H 615.919 2.92727 -2.6087 0
M  V30 6228 H 617.409 3.68282 -1.96871 0
M  V30 6229 N 617.846 1.41785 0.688094 0
M  V30 6230 C 618.796 1.40684 1.79421 0
M  V30 6231 C 619.78 0.280096 1.58443 0
M  V30 6232 O 620.972 0.521332 1.69148 0
M  V30 6233 C 618.101 1.29874 3.17785 0
M  V30 6234 C 617.187 2.47442 3.44432 0
M  V30 6235 N 617.578 3.72895 3.41736 0
M  V30 6236 C 615.876 2.41416 3.75013 0
M  V30 6237 C 616.577 4.50912 3.67496 0
M  V30 6238 N 615.553 3.81131 3.87608 0
M  V30 6239 H 619.355 2.35591 1.7571 0
M  V30 6240 H 616.869 1.35946 0.888393 0
M  V30 6241 H 618.866 1.27168 3.97031 0
M  V30 6242 H 617.526 0.359587 3.22703 0
M  V30 6243 H 618.537 4.05676 3.21943 0
M  V30 6244 H 615.214 1.56011 3.87256 0
M  V30 6245 H 616.604 5.59865 3.71484 0
M  V30 6246 N 619.324 -0.923095 1.27737 0
M  V30 6247 C 620.271 -2.02432 1.1086 0
M  V30 6248 C 621.241 -1.66098 0.00835195 0
M  V30 6249 O 622.426 -1.90027 0.171542 0
M  V30 6250 C 619.566 -3.36476 0.766671 0
M  V30 6251 C 618.679 -3.85737 1.94501 0
M  V30 6252 C 617.814 -5.08249 1.54455 0
M  V30 6253 C 616.853 -5.49818 2.6901 0
M  V30 6254 N 615.99 -6.63524 2.29521 0
M  V30 6255 H 620.83 -2.16201 2.05089 0
M  V30 6256 H 618.367 -1.05909 1.02087 0
M  V30 6257 H 620.325 -4.13569 0.549223 0
M  V30 6258 H 618.955 -3.22502 -0.13867 0
M  V30 6259 H 618.007 -3.04883 2.27487 0
M  V30 6260 H 619.319 -4.12513 2.80419 0
M  V30 6261 H 618.473 -5.92857 1.28862 0
M  V30 6262 H 617.212 -4.83261 0.656534 0
M  V30 6263 H 616.217 -4.63757 2.95313 0
M  V30 6264 H 617.442 -5.76799 3.5844 0
M  V30 6265 H 615.388 -6.40185 1.43177 0
M  V30 6266 H 615.305 -6.89978 3.08977 0
M  V30 6267 H 616.573 -7.51461 2.07187 0
M  V30 6268 N 620.802 -1.09834 -1.13024 0
M  V30 6269 C 621.75 -0.736283 -2.20639 0
M  V30 6270 C 622.744 0.264725 -1.67319 0
M  V30 6271 O 623.95 0.125745 -1.7956 0
M  V30 6272 H 620.325 -0.220136 -0.719058 0
M  V30 6273 H 622.296 -1.65295 -2.48436 0
M  V30 6274 C 621.045 -0.177544 -3.47246 0
M  V30 6275 H 620.368 -0.939009 -3.88616 0
M  V30 6276 H 621.808 0.0378007 -4.23983 0
M  V30 6277 C 620.267 1.08824 -3.1884 0
M  V30 6278 O 620.797 2.1708 -3.37993 0
M  V30 6279 N 619.003 1.00442 -2.7269 0
M  V30 6280 H 618.55 0.123383 -2.57304 0
M  V30 6281 H 618.508 1.85206 -2.5406 0
M  V30 6282 N 622.28 1.30327 -0.886154 0
M  V30 6283 C 623.243 2.26376 -0.358687 0
M  V30 6284 C 624.243 1.52845 0.499498 0
M  V30 6285 O 625.433 1.71483 0.306485 0
M  V30 6286 C 622.565 3.37379 0.488726 0
M  V30 6287 H 623.758 2.74547 -1.20681 0
M  V30 6288 H 621.311 1.41536 -0.663113 0
M  V30 6289 H 622.046 2.94526 1.35739 0
M  V30 6290 H 621.831 3.91897 -0.126003 0
M  V30 6291 H 623.321 4.08868 0.84952 0
M  V30 6292 N 623.758 0.647228 1.43697 0
M  V30 6293 C 625.004 0.158422 2.0218 0
M  V30 6294 C 625.337 -1.22233 1.50907 0
M  V30 6295 O 624.612 -1.81478 0.699702 0
M  V30 6296 C 624.895 0.1627 3.59732 0
M  V30 6297 C 624.748 1.57694 4.21251 0
M  V30 6298 C 626.067 -0.504138 4.37203 0
M  V30 6299 H 623.186 0.059042 0.734631 0
M  V30 6300 H 625.828 0.826772 1.71069 0
M  V30 6301 H 623.978 -0.406414 3.86368 0
M  V30 6302 H 625.65 2.19618 4.05667 0
M  V30 6303 H 623.893 2.12603 3.7813 0
M  V30 6304 H 624.564 1.53183 5.3032 0
M  V30 6305 H 627.04 -0.0199841 4.16095 0
M  V30 6306 H 625.916 -0.470394 5.46881 0
M  V30 6307 H 626.177 -1.57726 4.13007 0
M  V30 6308 N 625.236 -1.5273 0.388769 0
M  V30 6309 C 626.464 -2.05992 -0.193677 0
M  V30 6310 C 626.879 -1.26053 -1.40557 0
M  V30 6311 O 626.236 -0.307049 -1.79898 0
M  V30 6312 C 626.287 -3.57068 -0.564321 0
M  V30 6313 O 626.008 -4.3398 0.599422 0
M  V30 6314 C 627.509 -4.26674 -1.20269 0
M  V30 6315 H 624.729 -0.670358 -0.0293445 0
M  V30 6316 H 627.273 -1.96857 0.553844 0
M  V30 6317 H 625.428 -3.66277 -1.26174 0
M  V30 6318 H 625.842 -5.2367 0.294895 0
M  V30 6319 H 627.316 -5.33625 -1.4124 0
M  V30 6320 H 627.793 -3.81854 -2.16989 0
M  V30 6321 H 628.399 -4.2178 -0.546047 0
M  V30 6322 N 626.714 -0.118576 -1.57153 0
M  V30 6323 C 627.644 0.828436 -2.1831 0
M  V30 6324 C 628.625 1.27758 -1.12303 0
M  V30 6325 O 629.81 1.34026 -1.40537 0
M  V30 6326 C 626.94 2.07876 -2.78217 0
M  V30 6327 C 625.894 1.76742 -3.89803 0
M  V30 6328 C 625.22 3.08801 -4.36516 0
M  V30 6329 C 626.52 1.03606 -5.11921 0
M  V30 6330 H 628.214 0.318824 -2.97698 0
M  V30 6331 H 625.76 0.151911 -1.43196 0
M  V30 6332 H 627.713 2.74584 -3.19659 0
M  V30 6333 H 626.437 2.61161 -1.96118 0
M  V30 6334 H 625.096 1.12424 -3.48936 0
M  V30 6335 H 624.744 3.6002 -3.51276 0
M  V30 6336 H 624.444 2.88743 -5.11763 0
M  V30 6337 H 625.968 3.76627 -4.80608 0
M  V30 6338 H 627.382 1.60467 -5.50385 0
M  V30 6339 H 625.779 0.936454 -5.92748 0
M  V30 6340 H 626.849 0.0227421 -4.84895 0
M  V30 6341 N 628.193 1.56834 0.155195 0
M  V30 6342 C 629.609 1.51315 0.50755 0
M  V30 6343 C 629.809 0.825614 1.83809 0
M  V30 6344 O 628.865 0.39271 2.49427 0
M  V30 6345 C 630.178 2.96074 0.52542 0
M  V30 6346 C 631.726 3.06968 0.611505 0
M  V30 6347 C 632.201 4.53218 0.660115 0
M  V30 6348 N 633.692 4.5753 0.722564 0
M  V30 6349 C 634.427 5.68056 0.781023 0
M  V30 6350 N 633.923 6.88173 0.799327 0
M  V30 6351 N 635.716 5.56068 0.821278 0
M  V30 6352 H 627.867 1.9993 -0.717063 0
M  V30 6353 H 630.13 0.911507 -0.260496 0
M  V30 6354 H 629.836 3.49599 -0.383875 0
M  V30 6355 H 629.71 3.51587 1.36624 0
M  V30 6356 H 632.097 2.53468 1.51122 0
M  V30 6357 H 632.178 2.54513 -0.256306 0
M  V30 6358 H 631.822 5.07354 -0.23541 0
M  V30 6359 H 631.752 5.03447 1.5443 0
M  V30 6360 H 634.243 3.71054 0.716049 0
M  V30 6361 H 634.556 7.6816 0.845553 0
M  V30 6362 H 632.901 6.90751 0.767337 0
M  V30 6363 H 636.092 4.61142 0.804091 0
M  V30 6364 H 636.265 6.42223 0.863372 0
M  V30 6365 N 629.671 -0.424282 1.51781 0
M  V30 6366 C 630.917 -1.17434 1.6534 0
M  V30 6367 C 631.25 -1.90549 0.374806 0
M  V30 6368 O 630.525 -1.84145 -0.626179 0
M  V30 6369 C 630.808 -2.18093 2.86544 0
M  V30 6370 C 630.661 -1.48975 4.24413 0
M  V30 6371 C 631.98 -3.18934 3.03264 0
M  V30 6372 H 629.099 -0.425566 0.601716 0
M  V30 6373 H 631.741 -0.461921 1.84299 0
M  V30 6374 H 629.891 -2.78849 2.7051 0
M  V30 6375 H 631.563 -0.914551 4.52143 0
M  V30 6376 H 629.806 -0.791893 4.26511 0
M  V30 6377 H 630.477 -2.22347 5.05238 0
M  V30 6378 H 632.953 -2.68243 3.18096 0
M  V30 6379 H 631.829 -3.86645 3.89611 0
M  V30 6380 H 632.09 -3.85793 2.15908 0
M  V30 6381 N 631.149 -1.42148 -0.680565 0
M  V30 6382 C 632.097 -1.45401 -1.81552 0
M  V30 6383 C 633.091 -0.33036 -1.66147 0
M  V30 6384 O 634.297 -0.503103 -1.72826 0
M  V30 6385 H 630.672 -0.455265 -0.59853 0
M  V30 6386 H 632.643 -2.41024 -1.75926 0
M  V30 6387 C 631.392 -1.36769 -3.19671 0
M  V30 6388 H 630.715 -2.22525 -3.32149 0
M  V30 6389 H 632.155 -1.43106 -3.9912 0
M  V30 6390 C 630.614 -0.0817752 -3.36801 0
M  V30 6391 O 631.144 0.867707 -3.92216 0
M  V30 6392 N 629.35 -0.000799811 -2.906 0
M  V30 6393 H 628.897 -0.774231 -2.4569 0
M  V30 6394 H 628.855 0.858961 -3.02439 0
M  V30 6395 N 632.627 0.916307 -1.28225 0
M  V30 6396 C 633.59 1.99996 -1.11957 0
M  V30 6397 C 634.59 1.60688 -0.0600152 0
M  V30 6398 O 635.78 1.71499 -0.30558 0
M  V30 6399 C 632.912 3.33458 -0.708411 0
M  V30 6400 H 634.105 2.15858 -2.08196 0
M  V30 6401 H 631.658 1.09863 -1.11175 0
M  V30 6402 H 632.393 3.23297 0.254859 0
M  V30 6403 H 632.178 3.63349 -1.47377 0
M  V30 6404 H 633.668 4.13014 -0.617164 0
M  V30 6405 N 634.105 1.10431 1.1244 0
M  V30 6406 C 635.035 0.775143 2.20258 0
M  V30 6407 C 636.016 -0.25186 1.68225 0
M  V30 6408 O 637.201 -0.117637 1.93843 0
M  V30 6409 C 634.331 0.206133 3.46688 0
M  V30 6410 C 633.285 1.16382 4.11873 0
M  V30 6411 C 632.611 0.456014 5.32752 0
M  V30 6412 C 633.911 2.5104 4.58013 0
M  V30 6413 H 635.605 1.67665 2.4805 0
M  V30 6414 H 633.151 0.807595 1.19222 0
M  V30 6415 H 635.104 -0.036291 4.21384 0
M  V30 6416 H 633.828 -0.730614 3.18323 0
M  V30 6417 H 632.487 1.39169 3.39157 0
M  V30 6418 H 632.135 -0.485203 5.00654 0
M  V30 6419 H 631.835 1.09466 5.77314 0
M  V30 6420 H 633.359 0.222135 6.10196 0
M  V30 6421 H 634.773 2.32401 5.24083 0
M  V30 6422 H 633.17 3.10789 5.13352 0
M  V30 6423 H 634.24 3.11039 3.71998 0
M  V30 6424 N 635.583 -1.29855 0.893053 0
M  V30 6425 C 636.53 -2.27909 0.364161 0
M  V30 6426 C 637.5 -1.56726 -0.550093 0
M  V30 6427 O 638.685 -1.84747 -0.47677 0
M  V30 6428 C 635.825 -3.42678 -0.408178 0
M  V30 6429 C 634.938 -4.28659 0.536212 0
M  V30 6430 C 634.073 -5.30599 -0.252521 0
M  V30 6431 C 633.112 -6.08234 0.686822 0
M  V30 6432 N 632.249 -7.02068 -0.0670902 0
M  V30 6433 H 637.089 -2.72531 1.20544 0
M  V30 6434 H 634.626 -1.34047 0.605779 0
M  V30 6435 H 636.584 -4.07986 -0.871962 0
M  V30 6436 H 635.214 -2.99103 -1.21397 0
M  V30 6437 H 634.266 -3.63584 1.1185 0
M  V30 6438 H 635.578 -4.8274 1.25552 0
M  V30 6439 H 634.732 -6.01694 -0.777801 0
M  V30 6440 H 633.471 -4.77233 -1.005 0
M  V30 6441 H 632.476 -5.3601 1.22366 0
M  V30 6442 H 633.701 -6.63689 1.43852 0
M  V30 6443 H 631.647 -6.5108 -0.801955 0
M  V30 6444 H 631.564 -7.53675 0.59243 0
M  V30 6445 H 632.832 -7.77392 -0.572851 0
M  V30 6446 N 637.061 -0.65484 -1.43351 0
M  V30 6447 C 637.971 0.0363603 -2.34572 0
M  V30 6448 C 638.987 0.810432 -1.53974 0
M  V30 6449 O 640.163 0.757308 -1.86619 0
M  V30 6450 C 637.228 0.989733 -3.32273 0
M  V30 6451 C 636.289 0.212414 -4.28774 0
M  V30 6452 C 635.522 1.12038 -5.21808 0
M  V30 6453 O 635.745 2.35967 -5.19303 0
M  V30 6454 O 634.679 0.59191 -5.98982 0
M  V30 6455 H 638.505 -0.714527 -2.95175 0
M  V30 6456 H 636.09 -0.415029 -1.4352 0
M  V30 6457 H 637.972 1.53759 -3.92347 0
M  V30 6458 H 636.647 1.72082 -2.74171 0
M  V30 6459 H 635.554 -0.379062 -3.72175 0
M  V30 6460 H 636.887 -0.479138 -4.89862 0
M  V30 6461 N 638.539 1.52521 -0.396863 0
M  V30 6462 C 639.471 2.24333 0.469814 0
M  V30 6463 C 640.484 1.2685 1.02043 0
M  V30 6464 O 641.673 1.52876 0.92147 0
M  V30 6465 C 638.773 2.95202 1.66461 0
M  V30 6466 C 637.946 4.19454 1.24003 0
M  V30 6467 C 637.005 4.73255 2.30036 0
M  V30 6468 O 636.031 5.36151 1.91131 0
M  V30 6469 N 637.233 4.53765 3.62047 0
M  V30 6470 H 639.998 2.99347 -0.145468 0
M  V30 6471 H 637.559 1.60348 -0.223606 0
M  V30 6472 H 639.551 3.28092 2.36934 0
M  V30 6473 H 638.121 2.2345 2.18607 0
M  V30 6474 H 637.341 3.92517 0.363892 0
M  V30 6475 H 638.629 5.0017 0.933135 0
M  V30 6476 H 638.027 4.03576 3.96412 0
M  V30 6477 H 636.584 4.91124 4.28533 0
M  V30 6478 N 640.017 0.126909 1.57088 0
M  V30 6479 C 640.98 -0.806097 2.14557 0
M  V30 6480 C 641.98 -1.18918 1.08236 0
M  V30 6481 O 643.17 -1.11339 1.33975 0
M  V30 6482 C 640.302 -2.09116 2.69227 0
M  V30 6483 H 641.495 -0.306522 2.98329 0
M  V30 6484 H 639.048 -0.122393 1.5582 0
M  V30 6485 H 639.783 -2.63486 1.89065 0
M  V30 6486 H 639.568 -1.82588 3.46993 0
M  V30 6487 H 641.058 -2.75794 3.13572 0
M  V30 6488 O 641.534 -1.61495 -0.0122585 0
M  V30 6489 H 642.225 -1.83148 -0.630585 0
M  V30 END ATOM
M  V30 BEGIN BOND
M  V30 END BOND
M  V30 END CTAB
M  END
$$$$
