drugbank_target|Q96T66 Nicotinamide/nicotinic acid mononucleotide adenylyltransferase 3 (DB02596; DB03227; DB04099)
 OpenBabel12092120003D

  0  0  0     0  0            999 V3000
M  V30 BEGIN CTAB
M  V30 COUNTS 4003 4053 0 0 0
M  V30 BEGIN ATOM
M  V30 1 H -0.908 1.98254 -0.117106 0
M  V30 2 N 0 1.576 0 0
M  V30 3 C 0.933 2.03868 1.02534 0
M  V30 4 C 1.911 0.928543 1.3348 0
M  V30 5 O 3.095 1.19667 1.45644 0
M  V30 6 C 0.222 2.43627 2.35294 0
M  V30 7 C -0.732 3.65373 2.2001 0
M  V30 8 S 0.101 5.13292 1.52614 0
M  V30 9 C 1.257 5.56322 2.86805 0
M  V30 10 H 1.49 2.90518 0.631377 0
M  V30 11 H -0.977 1.52953 0.210867 0
M  V30 12 H 0.981 2.67203 3.11629 0
M  V30 13 H -0.358 1.57376 2.7183 0
M  V30 14 H -1.165 3.90944 3.18086 0
M  V30 15 H -1.563 3.418 1.51819 0
M  V30 16 H 0.729 5.58782 3.83104 0
M  V30 17 H 1.672 6.56266 2.65933 0
M  V30 18 H 2.08 4.83886 2.90714 0
M  V30 19 N 1.4781 -0.272755 1.55222 0
M  V30 20 C 2.4251 -1.33716 1.88119 0
M  V30 21 C 3.3951 -1.49066 0.73271 0
M  V30 22 O 4.5801 -1.63469 0.984002 0
M  V30 23 C 1.7201 -2.69238 2.15882 0
M  V30 24 C 0.8331 -2.62108 3.43399 0
M  V30 25 C -0.0319 -3.89811 3.60861 0
M  V30 26 C -0.9929 -3.77193 4.8207 0
M  V30 27 N -1.8559 -4.9673 4.96189 0
M  V30 28 H 2.9841 -1.04962 2.78903 0
M  V30 29 H 0.5211 -0.507088 1.38083 0
M  V30 30 H 2.4791 -3.48089 2.29978 0
M  V30 31 H 1.1091 -2.96194 1.28331 0
M  V30 32 H 0.1611 -1.74967 3.37773 0
M  V30 33 H 1.4731 -2.48685 4.32386 0
M  V30 34 H 0.6271 -4.77103 3.74777 0
M  V30 35 H -0.6339 -4.06102 2.7006 0
M  V30 36 H -1.6289 -2.88284 4.68159 0
M  V30 37 H -0.4039 -3.62421 5.74307 0
M  V30 38 H -2.4579 -5.13431 4.08319 0
M  V30 39 H -2.5409 -4.85839 5.79221 0
M  V30 40 H -1.2729 -5.85594 5.1449 0
M  V30 41 N 2.9562 -1.48159 -0.537278 0
M  V30 42 C 4.1812 -1.59707 -1.32319 0
M  V30 43 C 4.6062 -0.254859 -1.86365 0
M  V30 44 O 3.9642 0.772378 -1.64024 0
M  V30 45 C 4.0122 -2.6412 -2.45505 0
M  V30 46 O 3.1162 -2.20774 -3.48328 0
M  V30 47 H 2.4572 -0.535791 -0.392204 0
M  V30 48 H 4.9872 -1.94092 -0.647268 0
M  V30 49 H 4.9972 -2.85166 -2.91795 0
M  V30 50 H 3.6722 -3.61567 -2.05528 0
M  V30 51 H 2.2492 -2.09911 -3.08207 0
M  V30 52 N 4.4343 0.785586 -1.36625 0
M  V30 53 C 5.8503 1.08419 -1.17122 0
M  V30 54 C 6.0503 2.015 0.00208491 0
M  V30 55 O 5.1063 2.43551 0.666278 0
M  V30 56 C 6.4193 1.69498 -2.48377 0
M  V30 57 C 7.9673 1.81821 -2.54775 0
M  V30 58 C 8.4423 2.46315 -3.86126 0
M  V30 59 N 9.9333 2.53779 -3.87492 0
M  V30 60 C 10.6683 3.045 -4.85868 0
M  V30 61 N 10.1643 3.55499 -5.94637 0
M  V30 62 N 11.9573 3.03247 -4.73284 0
M  V30 63 H 4.1083 0.167264 -2.1174 0
M  V30 64 H 6.3713 0.13682 -0.938075 0
M  V30 65 H 6.0773 1.08571 -3.34522 0
M  V30 66 H 5.9513 2.6896 -2.64462 0
M  V30 67 H 8.3383 2.41884 -1.69045 0
M  V30 68 H 8.4193 0.811532 -2.42586 0
M  V30 69 H 8.0633 1.86895 -4.72263 0
M  V30 70 H 7.9933 3.47561 -3.95612 0
M  V30 71 H 10.4843 2.17672 -3.08913 0
M  V30 72 H 10.7973 3.92562 -6.65669 0
M  V30 73 H 9.1423 3.5364 -5.98301 0
M  V30 74 H 12.3333 2.62696 -3.87438 0
M  V30 75 H 12.5063 3.42467 -5.50109 0
M  V30 76 N 5.9124 1.20967 1.01018 0
M  V30 77 C 7.1614 1.01796 1.74128 0
M  V30 78 C 7.4744 -0.449691 1.90361 0
M  V30 79 O 8.6804 -0.76068 2.60626 0
M  V30 80 C 7.1364 1.7727 3.13215 0
M  V30 81 C 6.7444 3.28171 3.04972 0
M  V30 82 C 8.4884 1.66489 3.90489 0
M  V30 83 C 6.3954 3.96156 4.39107 0
M  V30 84 H 5.3254 0.377276 0.652824 0
M  V30 85 H 7.9764 1.44651 1.12909 0
M  V30 86 H 6.3584 1.27205 3.75013 0
M  V30 87 H 7.5324 3.85499 2.52443 0
M  V30 88 H 5.8474 3.39437 2.41188 0
M  V30 89 H 8.4444 2.14617 4.89738 0
M  V30 90 H 8.7874 0.6222 4.11624 0
M  V30 91 H 9.3204 2.14003 3.35332 0
M  V30 92 H 6.0594 5.00604 4.23174 0
M  V30 93 H 5.5794 3.43617 4.91617 0
M  V30 94 H 7.2584 4.00774 5.07926 0
M  V30 95 N 7.3905 -1.2043 1.01659 0
M  V30 96 C 8.8015 -1.71517 0.737482 0
M  V30 97 C 9.1525 -1.81547 -0.743973 0
M  V30 98 O 8.2775 -1.47803 -1.58061 0
M  V30 99 C 8.8725 -3.11515 1.33206 0
M  V30 100 C 7.4315 -3.59912 1.10183 0
M  V30 101 C 6.5785 -2.37116 1.43776 0
M  V30 102 H 9.5295 -1.05444 1.18606 0
M  V30 103 H 9.5505 -3.73575 0.722636 0
M  V30 104 H 9.0625 -3.04182 2.41028 0
M  V30 105 H 7.1635 -3.72577 0.0412756 0
M  V30 106 H 7.2765 -4.44731 1.78188 0
M  V30 107 H 5.6405 -2.39857 0.856778 0
M  V30 108 H 6.4235 -2.32424 2.52654 0
M  V30 109 N 8.8686 -0.792821 -1.36206 0
M  V30 110 C 10.1146 -0.36733 -1.99446 0
M  V30 111 C 10.4476 1.05917 -1.62774 0
M  V30 112 O 9.7226 1.7324 -0.88421 0
M  V30 113 C 10.0056 -0.535044 -3.56103 0
M  V30 114 C 9.8586 -2.00548 -4.02617 0
M  V30 115 C 11.1776 0.0478191 -4.40074 0
M  V30 116 H 8.2966 -0.134941 -0.724541 0
M  V30 117 H 10.9386 -0.999794 -1.61568 0
M  V30 118 H 9.0886 0.00336329 -3.885 0
M  V30 119 H 10.7606 -2.60521 -3.80692 0
M  V30 120 H 9.0036 -2.50686 -3.54032 0
M  V30 121 H 9.6746 -2.07377 -5.11565 0
M  V30 122 H 12.1506 -0.411822 -4.14057 0
M  V30 123 H 11.0266 -0.0995336 -5.4881 0
M  V30 124 H 11.2876 1.14025 -4.27142 0
M  V30 125 N 10.3467 1.47872 -0.545128 0
M  V30 126 C 11.5927 2.02793 -0.0166104 0
M  V30 127 C 11.9257 1.41987 1.32489 0
M  V30 128 O 11.2007 0.571045 1.85928 0
M  V30 129 C 11.4837 3.59989 0.0893294 0
M  V30 130 C 11.3367 4.3125 -1.27841 0
M  V30 131 C 12.6557 4.32606 0.808724 0
M  V30 132 H 9.7747 0.736962 -0.00751035 0
M  V30 133 H 12.4167 1.76433 -0.705085 0
M  V30 134 H 10.5667 3.82579 0.675681 0
M  V30 135 H 12.2387 4.20035 -1.90704 0
M  V30 136 H 10.4817 3.92076 -1.85632 0
M  V30 137 H 11.1527 5.39736 -1.15713 0
M  V30 138 H 13.6287 4.14936 0.310992 0
M  V30 139 H 12.5047 5.42251 0.851782 0
M  V30 140 H 12.7657 4.00963 1.86229 0
M  V30 141 N 11.8248 0.280983 1.55075 0
M  V30 142 C 12.7548 -0.597469 2.25727 0
M  V30 143 C 13.7358 -1.15417 1.24952 0
M  V30 144 O 14.9208 -1.18722 1.53684 0
M  V30 145 C 12.0508 -1.7789 2.98283 0
M  V30 146 C 11.0048 -1.35347 4.06036 0
M  V30 147 C 10.3308 -2.61846 4.66198 0
M  V30 148 C 11.6308 -0.499354 5.19907 0
M  V30 149 H 13.3248 -0.00824265 2.99399 0
M  V30 150 H 10.8708 -0.0025244 1.44 0
M  V30 151 H 12.8238 -2.39937 3.46422 0
M  V30 152 H 11.5478 -2.39405 2.22155 0
M  V30 153 H 10.2068 -0.756156 3.58717 0
M  V30 154 H 9.8548 -3.21632 3.86732 0
M  V30 155 H 9.5548 -2.3409 5.38958 0
M  V30 156 H 11.0788 -3.24732 5.1709 0
M  V30 157 H 12.4928 -1.02498 5.64063 0
M  V30 158 H 10.8898 -0.316424 5.99265 0
M  V30 159 H 11.9598 0.480459 4.82514 0
M  V30 160 N 13.3029 -1.57598 0.00835791 0
M  V30 161 C 14.2329 -2.1198 -0.979113 0
M  V30 162 C 15.2139 -1.03091 -1.35301 0
M  V30 163 O 16.3989 -1.30818 -1.43528 0
M  V30 164 C 13.5289 -2.62995 -2.26828 0
M  V30 165 C 12.4829 -3.76485 -2.03576 0
M  V30 166 C 11.8089 -4.13846 -3.38579 0
M  V30 167 C 13.1089 -5.0342 -1.39161 0
M  V30 168 H 14.8029 -2.94738 -0.526281 0
M  V30 169 H 12.3489 -1.41783 -0.251704 0
M  V30 170 H 14.3019 -2.99669 -2.96271 0
M  V30 171 H 13.0259 -1.7737 -2.7424 0
M  V30 172 H 11.6849 -3.40217 -1.36557 0
M  V30 173 H 11.3329 -3.25232 -3.83709 0
M  V30 174 H 11.0329 -4.90312 -3.23834 0
M  V30 175 H 12.5569 -4.53086 -4.09323 0
M  V30 176 H 13.9709 -5.37812 -1.98573 0
M  V30 177 H 12.3679 -5.84746 -1.34878 0
M  V30 178 H 13.4379 -4.83548 -0.361868 0
M  V30 179 N 14.781 0.264519 -1.55364 0
M  V30 180 C 15.744 1.31046 -1.88042 0
M  V30 181 C 16.744 1.41943 -0.755569 0
M  V30 182 O 17.934 1.40947 -1.02369 0
M  V30 183 C 15.066 2.69067 -2.09323 0
M  V30 184 H 16.259 1.03297 -2.81549 0
M  V30 185 H 13.812 0.502989 -1.47986 0
M  V30 186 H 14.547 3.01982 -1.18226 0
M  V30 187 H 14.332 2.62542 -2.91229 0
M  V30 188 H 15.822 3.44623 -2.35848 0
M  V30 189 N 16.2591 1.48442 0.529413 0
M  V30 190 C 17.4991 1.58086 1.29569 0
M  V30 191 C 17.8631 0.249302 1.90375 0
M  V30 192 O 19.0641 0.220738 2.67892 0
M  V30 193 C 17.3351 2.68793 2.35552 0
M  V30 194 S 18.8941 2.98207 3.21898 0
M  V30 195 H 15.7121 0.557922 0.440732 0
M  V30 196 H 18.3141 1.85966 0.603059 0
M  V30 197 H 17.0181 3.64102 1.89363 0
M  V30 198 H 16.5491 2.42817 3.09522 0
M  V30 199 H 18.5641 2.37548 4.35644 0
M  V30 200 N 17.7372 -0.778329 1.37039 0
M  V30 201 C 18.9852 -1.53361 1.31623 0
M  V30 202 C 19.3062 -1.94739 -0.100831 0
M  V30 203 O 18.5762 -1.65797 -1.04347 0
M  V30 204 H 17.1562 -0.568794 0.484234 0
M  V30 205 H 19.8182 -0.926742 1.71457 0
M  V30 206 H 18.9142 -2.43606 1.95096 0
M  V30 207 N 19.2153 -1.21501 -1.00376 0
M  V30 208 C 20.4403 -1.05977 -1.78279 0
M  V30 209 C 20.8653 0.385994 -1.84097 0
M  V30 210 O 20.2233 1.27849 -1.28547 0
M  V30 211 C 20.2713 -1.66302 -3.19963 0
M  V30 212 O 19.3753 -0.909333 -4.0225 0
M  V30 213 H 18.7163 -0.372906 -0.549397 0
M  V30 214 H 21.2463 -1.6107 -1.26165 0
M  V30 215 H 21.2563 -1.70574 -3.70632 0
M  V30 216 H 19.9313 -2.71515 -3.15043 0
M  V30 217 H 18.5083 -0.941795 -3.60811 0
M  V30 218 N 20.6934 1.19889 -1.02296 0
M  V30 219 C 21.9404 1.8942 -0.715972 0
M  V30 220 C 22.2684 1.79251 0.754944 0
M  V30 221 O 21.5234 1.17526 1.56481 0
M  V30 222 C 21.8224 3.39883 -1.10518 0
M  V30 223 C 21.4884 3.70254 -2.57337 0
M  V30 224 C 20.1504 3.78254 -2.97452 0
M  V30 225 C 22.5024 3.84052 -3.52354 0
M  V30 226 C 19.8304 3.97514 -4.31509 0
M  V30 227 C 22.1824 4.04824 -4.86108 0
M  V30 228 C 20.8464 4.11054 -5.25919 0
M  V30 229 H 20.1164 0.693138 -0.261993 0
M  V30 230 H 22.7634 1.42012 -1.28472 0
M  V30 231 H 21.0684 3.8915 -0.454953 0
M  V30 232 H 22.7654 3.9199 -0.845261 0
M  V30 233 H 19.3554 3.64632 -2.25258 0
M  V30 234 H 23.5394 3.77221 -3.22518 0
M  V30 235 H 18.7954 4.00574 -4.61898 0
M  V30 236 H 22.9694 4.14442 -5.59653 0
M  V30 237 H 20.5964 4.2573 -6.29808 0
M  V30 238 N 22.1715 0.800033 1.35784 0
M  V30 239 C 23.1195 0.193851 2.31791 0
M  V30 240 C 24.1135 -0.652744 1.56319 0
M  V30 241 O 25.3195 -0.546641 1.71499 0
M  V30 242 H 21.6945 0.04392 0.750716 0
M  V30 243 H 23.6655 1.01883 2.80468 0
M  V30 244 C 22.4145 -0.648338 3.41602 0
M  V30 245 H 21.7375 -0.00624665 3.998 0
M  V30 246 H 23.1775 -1.03898 4.11073 0
M  V30 247 C 21.6365 -1.8111 2.84079 0
M  V30 248 O 22.1665 -2.90825 2.77099 0
M  V30 249 N 20.3725 -1.62056 2.41218 0
M  V30 250 H 19.9195 -0.728123 2.47095 0
M  V30 251 H 19.8775 -2.40013 2.03079 0
M  V30 252 N 23.6496 -1.47581 0.552962 0
M  V30 253 C 25.0606 -1.86324 0.118463 0
M  V30 254 C 25.4116 -1.46006 -1.3106 0
M  V30 255 O 24.5366 -0.861182 -1.98526 0
M  V30 256 C 25.1316 -3.3816 0.20821 0
M  V30 257 C 23.6906 -3.7601 -0.171226 0
M  V30 258 C 22.8376 -2.71634 0.557686 0
M  V30 259 H 25.7886 -1.39159 0.762928 0
M  V30 260 H 25.8096 -3.76141 -0.574278 0
M  V30 261 H 25.3216 -3.67473 1.24841 0
M  V30 262 H 23.4226 -3.52313 -1.21269 0
M  V30 263 H 23.5356 -4.78745 0.184379 0
M  V30 264 H 21.8996 -2.547 0.00125792 0
M  V30 265 H 22.6826 -3.0379 1.59896 0
M  V30 266 N 25.1277 -0.289203 -1.54924 0
M  V30 267 C 26.3767 0.324231 -1.99077 0
M  V30 268 C 26.6897 1.5591 -1.18117 0
M  V30 269 O 27.8957 2.24637 -1.52481 0
M  V30 270 C 26.3517 0.628209 -3.54375 0
M  V30 271 C 25.9597 -0.587647 -4.44129 0
M  V30 272 C 27.7037 1.20349 -4.07083 0
M  V30 273 C 25.6107 -0.257475 -5.90839 0
M  V30 274 H 24.5407 0.124924 -0.743579 0
M  V30 275 H 27.1917 -0.396063 -1.79175 0
M  V30 276 H 25.5737 1.40778 -3.70132 0
M  V30 277 H 26.7477 -1.36418 -4.40144 0
M  V30 278 H 25.0627 -1.08074 -4.0213 0
M  V30 279 H 27.6597 1.46456 -5.14252 0
M  V30 280 H 28.0027 2.14195 -3.56968 0
M  V30 281 H 28.5357 0.485889 -3.94821 0
M  V30 282 H 25.2747 -1.16419 -6.45079 0
M  V30 283 H 24.7947 0.482018 -5.9786 0
M  V30 284 H 26.4737 0.145238 -6.46837 0
M  V30 285 N 26.6058 1.57591 -0.0167156 0
M  V30 286 C 27.8338 1.95575 0.675128 0
M  V30 287 C 28.2488 0.892542 1.6637 0
M  V30 288 O 27.6058 -0.126912 1.82058 0
M  V30 289 C 27.6568 3.33608 1.39239 0
M  V30 290 O 27.3778 4.3585 0.443444 0
M  V30 291 C 28.8788 3.86151 2.17721 0
M  V30 292 H 26.0988 0.644423 0.186978 0
M  V30 293 H 28.6428 2.0437 -0.0728 0
M  V30 294 H 26.7978 3.2607 2.09182 0
M  V30 295 H 27.2118 5.158 0.951358 0
M  V30 296 H 28.6858 4.85114 2.63379 0
M  V30 297 H 29.1628 3.19738 3.01105 0
M  V30 298 H 29.7688 3.96918 1.52761 0
M  V30 299 N 28.0839 -0.256276 1.55502 0
M  V30 300 C 29.0319 -1.33694 1.90338 0
M  V30 301 C 30.0259 -1.50299 0.781441 0
M  V30 302 O 31.2319 -1.51885 0.965966 0
M  V30 303 H 27.6069 -0.447483 0.60437 0
M  V30 304 H 29.5779 -1.01574 2.8058 0
M  V30 305 C 28.3269 -2.68724 2.20642 0
M  V30 306 H 27.6499 -2.56743 3.06469 0
M  V30 307 H 29.0899 -3.43237 2.48926 0
M  V30 308 C 27.5489 -3.21101 1.01959 0
M  V30 309 O 28.0789 -4.0084 0.262762 0
M  V30 310 N 26.2849 -2.79003 0.812746 0
M  V30 311 H 25.8319 -2.14271 1.42989 0
M  V30 312 H 25.7899 -3.14393 0.0203076 0
M  V30 313 N 29.562 -1.4872 -0.521534 0
M  V30 314 C 30.495 -1.58451 -1.64221 0
M  V30 315 C 31.473 -0.434513 -1.56687 0
M  V30 316 O 32.657 -0.647275 -1.77038 0
M  V30 317 C 29.784 -1.52037 -3.02659 0
M  V30 318 C 28.83 -2.71981 -3.28525 0
M  V30 319 S 29.663 -4.33869 -3.13876 0
M  V30 320 C 30.819 -4.30067 -4.54745 0
M  V30 321 H 31.052 -2.53256 -1.55719 0
M  V30 322 H 28.585 -1.37358 -0.705143 0
M  V30 323 H 30.543 -1.49023 -3.82495 0
M  V30 324 H 29.204 -0.585541 -3.08594 0
M  V30 325 H 28.397 -2.63656 -4.29536 0
M  V30 326 H 27.999 -2.72302 -2.56374 0
M  V30 327 H 30.291 -4.00521 -5.46433 0
M  V30 328 H 31.234 -5.31287 -4.68123 0
M  V30 329 H 31.642 -3.60419 -4.34463 0
M  V30 330 N 31.0401 0.771051 -1.3745 0
M  V30 331 C 31.9901 1.87456 -1.29785 0
M  V30 332 C 32.9741 1.59827 -0.185541 0
M  V30 333 O 34.1661 1.71945 -0.419997 0
M  V30 334 C 31.2951 3.24935 -1.1078 0
M  V30 335 C 30.3811 3.58514 -2.26558 0
M  V30 336 N 30.7721 3.6327 -3.5195 0
M  V30 337 C 29.0701 3.88683 -2.18727 0
M  V30 338 C 29.7711 3.93616 -4.283 0
M  V30 339 N 28.7471 4.09551 -3.57448 0
M  V30 340 H 32.5491 1.89386 -2.24745 0
M  V30 341 H 30.0631 0.967531 -1.30432 0
M  V30 342 H 32.0601 4.03881 -1.03374 0
M  V30 343 H 30.7201 3.24268 -0.16738 0
M  V30 344 H 31.7311 3.45458 -3.85848 0
M  V30 345 H 28.4081 3.95834 -1.32746 0
M  V30 346 H 29.7981 4.04066 -5.36824 0
M  V30 347 N 32.5182 1.22032 0.997298 0
M  V30 348 C 33.4482 1.01065 2.10495 0
M  V30 349 C 34.4292 -0.0669542 1.69968 0
M  V30 350 O 35.6142 0.0943987 1.9397 0
M  V30 351 C 32.7442 0.582874 3.42374 0
M  V30 352 C 31.6982 1.60592 3.96729 0
M  V30 353 C 31.0242 1.03412 5.24605 0
M  V30 354 C 32.3242 2.99478 4.27914 0
M  V30 355 H 34.0182 1.93708 2.28292 0
M  V30 356 H 31.5642 0.932761 1.09707 0
M  V30 357 H 33.5172 0.423332 4.19268 0
M  V30 358 H 32.2412 -0.379213 3.24391 0
M  V30 359 H 30.9002 1.75316 3.21963 0
M  V30 360 H 30.5482 0.063518 5.0296 0
M  V30 361 H 30.2482 1.71754 5.61938 0
M  V30 362 H 31.7722 0.886066 6.04137 0
M  V30 363 H 33.1862 2.88153 4.95622 0
M  V30 364 H 31.5832 3.64903 4.76409 0
M  V30 365 H 32.6532 3.49742 3.3587 0
M  V30 366 N 33.9963 -1.19345 1.0293 0
M  V30 367 C 35.4123 -1.41069 0.746446 0
M  V30 368 C 35.6123 -1.90078 -0.668776 0
M  V30 369 O 34.6683 -2.0778 -1.4347 0
M  V30 370 C 35.9813 -2.42141 1.78292 0
M  V30 371 C 37.5293 -2.55887 1.80252 0
M  V30 372 C 38.0043 -3.60214 2.8286 0
M  V30 373 N 39.4953 -3.67711 2.81679 0
M  V30 374 C 40.2303 -4.48128 3.57727 0
M  V30 375 N 39.7263 -5.32248 4.43491 0
M  V30 376 N 41.5193 -4.42782 3.46267 0
M  V30 377 H 33.6703 -0.858536 1.94275 0
M  V30 378 H 35.9333 -0.439541 0.839945 0
M  V30 379 H 35.6393 -2.13155 2.79746 0
M  V30 380 H 35.5133 -3.41323 1.60557 0
M  V30 381 H 37.9003 -2.84196 0.794757 0
M  V30 382 H 37.9813 -1.56858 2.02062 0
M  V30 383 H 37.6253 -3.32647 3.83807 0
M  V30 384 H 37.5553 -4.58895 2.58307 0
M  V30 385 H 40.0463 -3.07634 2.19476 0
M  V30 386 H 40.3593 -5.90729 4.98256 0
M  V30 387 H 38.7043 -5.31707 4.47564 0
M  V30 388 H 41.8953 -3.76107 2.78677 0
M  V30 389 H 42.0683 -5.05215 4.05785 0
M  V30 390 N 35.4744 -0.807222 -1.35358 0
M  V30 391 C 36.4074 -0.163572 -2.27613 0
M  V30 392 C 37.3854 0.670817 -1.48118 0
M  V30 393 O 38.5694 0.63796 -1.77376 0
M  V30 394 C 35.6964 0.773015 -3.29761 0
M  V30 395 C 34.7424 0.0181653 -4.26496 0
M  V30 396 S 35.5754 -1.31831 -5.19019 0
M  V30 397 C 36.7314 -0.38619 -6.24707 0
M  V30 398 H 36.9644 -0.945757 -2.81856 0
M  V30 399 H 34.4974 -0.602315 -1.42167 0
M  V30 400 H 36.4554 1.30788 -3.89108 0
M  V30 401 H 35.1164 1.52859 -2.74396 0
M  V30 402 H 34.3094 0.729534 -4.98692 0
M  V30 403 H 33.9114 -0.446761 -3.71322 0
M  V30 404 H 36.2034 0.428295 -6.76145 0
M  V30 405 H 37.1464 -1.07736 -6.99856 0
M  V30 406 H 37.5544 0.018398 -5.64497 0
M  V30 407 N 36.9525 1.47285 -0.560781 0
M  V30 408 C 38.1995 2.02464 -0.038062 0
M  V30 409 C 38.5275 1.43474 1.31322 0
M  V30 410 O 37.7825 0.581311 1.86867 0
M  V30 411 C 38.0815 3.57258 0.100784 0
M  V30 412 C 37.7475 4.35184 -1.18007 0
M  V30 413 C 36.4095 4.56194 -1.53103 0
M  V30 414 C 38.7615 4.80098 -2.02867 0
M  V30 415 C 36.0895 5.19367 -2.729 0
M  V30 416 C 38.4415 5.44593 -3.21871 0
M  V30 417 C 37.1055 5.63835 -3.57276 0
M  V30 418 H 36.3755 0.740869 -0.0139279 0
M  V30 419 H 39.0225 1.76916 -0.733012 0
M  V30 420 H 37.3275 3.81819 0.878724 0
M  V30 421 H 39.0245 3.97606 0.520639 0
M  V30 422 H 35.6145 4.19113 -0.8968 0
M  V30 423 H 39.7985 4.63642 -1.7706 0
M  V30 424 H 35.0545 5.32459 -3.00496 0
M  V30 425 H 39.2285 5.78358 -3.87911 0
M  V30 426 H 36.8555 6.12557 -4.50197 0
M  V30 427 N 38.4306 0.297415 1.54768 0
M  V30 428 C 39.3406 -0.58983 2.27064 0
M  V30 429 C 40.3566 -1.15144 1.30453 0
M  V30 430 O 41.5326 -1.17699 1.63428 0
M  V30 431 C 38.5976 -1.74714 2.9946 0
M  V30 432 C 37.6586 -1.21997 4.11601 0
M  V30 433 C 36.8916 -2.32212 4.80535 0
M  V30 434 O 37.1146 -3.52036 4.48806 0
M  V30 435 O 36.0486 -1.99106 5.68014 0
M  V30 436 H 39.8746 -0.00348199 3.037 0
M  V30 437 H 37.4596 0.0640035 1.49263 0
M  V30 438 H 39.3416 -2.42147 3.44881 0
M  V30 439 H 38.0166 -2.32016 2.25722 0
M  V30 440 H 36.9236 -0.511458 3.70587 0
M  V30 441 H 38.2566 -0.692419 4.87305 0
M  V30 442 N 39.9087 -1.5758 0.0250728 0
M  V30 443 C 41.1547 -1.91917 -0.655413 0
M  V30 444 C 41.4877 -0.901433 -1.72011 0
M  V30 445 O 40.7627 0.0764069 -1.9435 0
M  V30 446 C 41.0457 -3.36751 -1.27558 0
M  V30 447 C 40.8987 -4.49258 -0.220719 0
M  V30 448 C 42.2177 -3.81469 -2.19475 0
M  V30 449 H 39.3367 -0.697925 -0.23679 0
M  V30 450 H 41.9787 -1.89825 0.0815036 0
M  V30 451 H 40.1287 -3.38664 -1.90365 0
M  V30 452 H 41.8007 -4.59478 0.409601 0
M  V30 453 H 40.0437 -4.31415 0.454264 0
M  V30 454 H 40.7147 -5.47618 -0.694175 0
M  V30 455 H 43.1907 -3.81266 -1.66659 0
M  V30 456 H 42.0667 -4.83512 -2.59822 0
M  V30 457 H 42.3277 -3.16744 -3.08424 0
M  V30 458 N 41.3868 0.248026 -1.55636 0
M  V30 459 C 42.3498 1.29044 -1.89421 0
M  V30 460 C 43.3498 1.41134 -0.770581 0
M  V30 461 O 44.5398 1.39854 -1.03858 0
M  V30 462 C 41.6718 2.66831 -2.12165 0
M  V30 463 H 42.8648 1.00305 -2.82629 0
M  V30 464 H 40.4178 0.487265 -1.48511 0
M  V30 465 H 41.1528 3.00711 -1.21422 0
M  V30 466 H 40.9378 2.59438 -2.93997 0
M  V30 467 H 42.4278 3.42103 -2.3949 0
M  V30 468 N 42.8649 1.48995 0.513639 0
M  V30 469 C 44.2809 1.35478 0.843682 0
M  V30 470 C 44.4809 0.378213 1.97919 0
M  V30 471 O 43.5369 -0.194689 2.51748 0
M  V30 472 C 44.8499 2.75901 1.1958 0
M  V30 473 C 46.3979 2.84509 1.30474 0
M  V30 474 C 46.8729 4.25671 1.69021 0
M  V30 475 N 48.3639 4.28422 1.76094 0
M  V30 476 C 49.0989 5.34601 2.07338 0
M  V30 477 N 48.5949 6.5104 2.36894 0
M  V30 478 N 50.3879 5.22007 2.08483 0
M  V30 479 H 42.5389 2.11092 -0.235328 0
M  V30 480 H 44.8019 0.947039 -0.0426669 0
M  V30 481 H 44.5079 3.49001 0.434913 0
M  V30 482 H 44.3819 3.10467 2.1422 0
M  V30 483 H 46.7689 2.11655 2.05637 0
M  V30 484 H 46.8499 2.53542 0.339155 0
M  V30 485 H 46.4939 4.99048 0.944135 0
M  V30 486 H 46.4239 4.54094 2.66658 0
M  V30 487 H 48.9149 3.44441 1.55464 0
M  V30 488 H 49.2279 7.2779 2.59887 0
M  V30 489 H 47.5729 6.54287 2.34378 0
M  V30 490 H 50.7639 4.30051 1.84861 0
M  V30 491 H 50.9369 6.04854 2.325 0
M  V30 492 N 44.343 -0.763751 1.37857 0
M  V30 493 C 45.62 -1.51244 1.24035 0
M  V30 494 C 46 -2.10472 -0.162649 0
M  V30 495 O 45.348 -1.96206 -1.17112 0
M  V30 496 C 45.558 -2.58694 2.34261 0
M  V30 497 C 46.906 -3.25878 2.72193 0
M  V30 498 O 47.93 -2.68993 2.33497 0
M  V30 499 O 46.789 -4.2874 3.38887 0
M  V30 500 H 43.883 -0.670243 0.484462 0
M  V30 501 H 46.429 -0.800031 1.49658 0
M  V30 502 H 45.201 -2.13105 3.2818 0
M  V30 503 H 44.824 -3.37527 2.10146 0
M  V30 504 N 45.8211 -1.22559 -0.990812 0
M  V30 505 C 46.7711 -0.964807 -2.0658 0
M  V30 506 C 47.7551 0.0853472 -1.60673 0
M  V30 507 O 48.9471 -0.125443 -1.76555 0
M  V30 508 C 46.0761 -0.546707 -3.38919 0
M  V30 509 C 45.1621 -1.6317 -3.91454 0
M  V30 510 N 45.5531 -2.85985 -4.17189 0
M  V30 511 C 43.8511 -1.50387 -4.19881 0
M  V30 512 C 44.5521 -3.56159 -4.59919 0
M  V30 513 N 43.5281 -2.83637 -4.63736 0
M  V30 514 H 47.3301 -1.89769 -2.24421 0
M  V30 515 H 44.8441 -1.12343 -1.17273 0
M  V30 516 H 46.8411 -0.34119 -4.15502 0
M  V30 517 H 45.5011 0.379254 -3.22478 0
M  V30 518 H 46.5121 -3.22392 -4.05319 0
M  V30 519 H 43.1891 -0.644254 -4.12499 0
M  V30 520 H 44.5791 -4.6139 -4.88435 0
M  V30 521 N 47.2992 1.18797 -1.03562 0
M  V30 522 C 48.2292 2.24472 -0.643019 0
M  V30 523 C 49.2102 1.66433 0.351283 0
M  V30 524 O 50.3952 1.92803 0.232505 0
M  V30 525 C 47.5252 3.473 4.24935e-05 0
M  V30 526 C 46.4792 4.18055 -0.917257 0
M  V30 527 C 45.8052 5.34519 -0.138941 0
M  V30 528 C 47.1052 4.72109 -2.23407 0
M  V30 529 H 48.7992 2.57566 -1.52643 0
M  V30 530 H 46.3452 1.23806 -0.735394 0
M  V30 531 H 48.2982 4.20426 0.286383 0
M  V30 532 H 47.0222 3.13424 0.918299 0
M  V30 533 H 45.6812 3.46821 -1.1879 0
M  V30 534 H 45.3292 4.96891 0.781562 0
M  V30 535 H 45.0292 5.82794 -0.750005 0
M  V30 536 H 46.5532 6.10438 0.1405 0
M  V30 537 H 47.9672 5.36955 -2.00879 0
M  V30 538 H 46.3642 5.30897 -2.79765 0
M  V30 539 H 47.4342 3.89807 -2.88407 0
M  V30 540 N 48.7773 0.814389 1.34928 0
M  V30 541 C 49.7273 0.202752 2.27097 0
M  V30 542 C 50.7113 -0.62799 1.48139 0
M  V30 543 O 51.9033 -0.483969 1.70255 0
M  V30 544 C 49.0323 -0.64146 3.37254 0
M  V30 545 C 48.1183 0.19944 4.23631 0
M  V30 546 N 48.5093 1.26628 4.89693 0
M  V30 547 C 46.8073 -0.0176433 4.45997 0
M  V30 548 C 47.5083 1.78031 5.53787 0
M  V30 549 N 46.4843 1.08553 5.32651 0
M  V30 550 H 50.2863 1.01893 2.75672 0
M  V30 551 H 47.8003 0.656332 1.48546 0
M  V30 552 H 49.7973 -1.09575 4.02243 0
M  V30 553 H 48.4573 -1.4559 2.9023 0
M  V30 554 H 49.4683 1.64901 4.90946 0
M  V30 555 H 46.1453 -0.800601 4.09752 0
M  V30 556 H 47.5353 2.67236 6.16469 0
M  V30 557 N 50.2554 -1.46986 0.568584 0
M  V30 558 C 51.1874 -2.28233 -0.210337 0
M  V30 559 C 52.2004 -1.37682 -0.868767 0
M  V30 560 O 53.3894 -1.62406 -0.740705 0
M  V30 561 C 50.4894 -3.12293 -1.3163 0
M  V30 562 C 49.6624 -4.30878 -0.7525 0
M  V30 563 C 48.7214 -4.96445 -1.74439 0
M  V30 564 O 47.7474 -5.54482 -1.286 0
M  V30 565 N 48.9494 -4.92171 -3.07812 0
M  V30 566 H 51.7144 -2.95723 0.486648 0
M  V30 567 H 49.2754 -1.56742 0.405409 0
M  V30 568 H 51.2674 -3.53022 -1.97883 0
M  V30 569 H 49.8374 -2.46971 -1.91636 0
M  V30 570 H 49.0574 -3.94104 0.0871128 0
M  V30 571 H 50.3454 -5.07558 -0.35536 0
M  V30 572 H 49.7434 -4.46239 -3.47688 0
M  V30 573 H 48.3004 -5.36884 -3.69592 0
M  V30 574 N 51.7335 -0.305618 -1.54608 0
M  V30 575 C 52.9615 0.304775 -2.04643 0
M  V30 576 C 53.3765 1.47167 -1.18268 0
M  V30 577 O 52.7335 1.81296 -0.209328 0
M  V30 578 C 52.7845 0.756564 -3.53495 0
M  V30 579 O 52.5055 -0.36389 -4.36586 0
M  V30 580 C 54.0065 1.43163 -4.19546 0
M  V30 581 H 51.2265 0.0655481 -0.667791 0
M  V30 582 H 53.7705 -0.446592 -1.99564 0
M  V30 583 H 51.9255 1.45794 -3.58919 0
M  V30 584 H 52.3395 -0.0113121 -5.24499 0
M  V30 585 H 53.8135 1.69886 -5.25207 0
M  V30 586 H 54.2905 2.37318 -3.69563 0
M  V30 587 H 54.8965 0.773307 -4.18211 0
M  V30 588 N 53.2116 1.57565 -0.0334293 0
M  V30 589 C 54.4596 1.91598 0.642999 0
M  V30 590 C 54.7806 0.910847 1.7242 0
M  V30 591 O 54.0506 -0.0469931 1.95844 0
M  V30 592 H 52.6306 0.707228 0.240496 0
M  V30 593 H 55.2926 1.94726 -0.0822488 0
M  V30 594 H 54.3886 2.92336 1.09298 0
M  V30 595 N 54.6897 -0.239769 1.55765 0
M  V30 596 C 55.6227 -1.32356 1.85895 0
M  V30 597 C 56.6007 -1.46053 0.714662 0
M  V30 598 O 57.7847 -1.62154 0.961157 0
M  V30 599 C 54.9117 -2.6962 2.04994 0
M  V30 600 C 53.9577 -2.73036 3.27648 0
M  V30 601 S 54.7907 -2.28929 4.84099 0
M  V30 602 C 55.9467 -3.68103 5.06212 0
M  V30 603 H 56.1797 -1.06601 2.77531 0
M  V30 604 H 53.7127 -0.441112 1.47965 0
M  V30 605 H 55.6707 -3.48653 2.16682 0
M  V30 606 H 54.3317 -2.92609 1.14188 0
M  V30 607 H 53.5247 -3.7386 3.38 0
M  V30 608 H 53.1267 -2.02052 3.14723 0
M  V30 609 H 55.4187 -4.63656 4.93993 0
M  V30 610 H 56.3617 -3.6268 6.08168 0
M  V30 611 H 56.7697 -3.60947 4.34025 0
M  V30 612 N 56.1678 -1.49265 -0.50573 0
M  V30 613 C 57.3978 -1.61979 -1.28243 0
M  V30 614 C 57.8058 -0.288576 -1.86986 0
M  V30 615 O 57.1488 0.735408 -1.68337 0
M  V30 616 C 57.2108 -2.62632 -2.45489 0
M  V30 617 C 56.8748 -4.071 -2.07651 0
M  V30 618 C 57.8718 -4.94049 -1.61901 0
M  V30 619 C 55.5568 -4.52801 -2.17431 0
M  V30 620 C 57.5508 -6.24736 -1.26428 0
M  V30 621 C 55.2378 -5.83503 -1.8157 0
M  V30 622 C 56.2358 -6.69294 -1.36142 0
M  V30 623 O 55.9238 -7.9756 -1.00764 0
M  V30 624 H 55.6558 -0.54834 -0.395347 0
M  V30 625 H 58.2098 -1.96002 -0.614204 0
M  V30 626 H 56.4398 -2.2378 -3.15372 0
M  V30 627 H 58.1288 -2.64925 -3.07522 0
M  V30 628 H 58.8948 -4.5997 -1.53795 0
M  V30 629 H 54.7738 -3.86196 -2.51742 0
M  V30 630 H 58.3178 -6.91652 -0.908992 0
M  V30 631 H 54.2148 -6.17112 -1.89324 0
M  V30 632 H 54.9828 -8.10529 -1.13952 0
M  V30 633 N 57.6459 0.756429 -1.3826 0
M  V30 634 C 58.5779 1.87971 -1.31147 0
M  V30 635 C 59.5909 1.61248 -0.224239 0
M  V30 636 O 60.7799 1.71881 -0.481581 0
M  V30 637 C 57.8799 3.23545 -1.00857 0
M  V30 638 C 57.0529 3.77794 -2.20432 0
M  V30 639 C 56.1119 4.91877 -1.86931 0
M  V30 640 O 55.1379 5.06659 -2.59395 0
M  V30 641 N 56.3399 5.74643 -0.822568 0
M  V30 642 H 59.1049 1.94585 -2.2794 0
M  V30 643 H 56.6659 0.936234 -1.32084 0
M  V30 644 H 58.6579 3.97403 -0.765021 0
M  V30 645 H 57.2279 3.12335 -0.128687 0
M  V30 646 H 56.4479 2.95534 -2.6087 0
M  V30 647 H 57.7359 4.10771 -3.00241 0
M  V30 648 H 57.1339 5.65266 -0.221575 0
M  V30 649 H 55.6909 6.48661 -0.638899 0
M  V30 650 N 59.124 1.23083 0.984299 0
M  V30 651 C 60.37 1.06214 1.72761 0
M  V30 652 C 60.703 -0.400584 1.90024 0
M  V30 653 O 59.978 -1.29672 1.44967 0
M  V30 654 C 60.261 1.78375 3.12817 0
M  V30 655 C 60.114 3.32296 3.03149 0
M  V30 656 C 61.433 1.54309 4.12161 0
M  V30 657 H 58.552 0.387251 0.627061 0
M  V30 658 H 61.194 1.51536 1.14616 0
M  V30 659 H 59.344 1.39848 3.62457 0
M  V30 660 H 61.016 3.8032 2.61064 0
M  V30 661 H 59.259 3.6153 2.39747 0
M  V30 662 H 59.93 3.77972 4.02295 0
M  V30 663 H 62.406 1.87791 3.71314 0
M  V30 664 H 61.282 2.07281 5.08258 0
M  V30 665 H 61.543 0.477572 4.39513 0
M  V30 666 N 60.6021 -1.18246 1.0419 0
M  V30 667 C 61.8511 -1.87588 0.741194 0
M  V30 668 C 62.1641 -1.81303 -0.734066 0
M  V30 669 O 63.3701 -2.46019 -1.14834 0
M  V30 670 C 61.8261 -3.36538 1.27555 0
M  V30 671 C 61.4341 -3.51349 2.77953 0
M  V30 672 C 63.1781 -4.11273 1.05143 0
M  V30 673 C 61.0851 -4.94265 3.2474 0
M  V30 674 H 60.0151 -0.702622 0.273565 0
M  V30 675 H 62.6661 -1.33601 1.25789 0
M  V30 676 H 61.0481 -3.9 0.686703 0
M  V30 677 H 62.2221 -3.08153 3.42605 0
M  V30 678 H 60.5371 -2.90022 2.98791 0
M  V30 679 H 63.1341 -5.16689 1.37611 0
M  V30 680 H 63.4771 -4.16298 -0.0112774 0
M  V30 681 H 64.0101 -3.63987 1.60495 0
M  V30 682 H 60.7491 -4.94408 4.30396 0
M  V30 683 H 60.2691 -5.38172 2.64823 0
M  V30 684 H 61.9481 -5.62987 3.18834 0
M  V30 685 N 62.0802 -0.821533 -1.34494 0
M  V30 686 C 63.0122 -0.199946 -2.28326 0
M  V30 687 C 64.0252 0.609377 -1.50965 0
M  V30 688 O 65.2142 0.439285 -1.7301 0
M  V30 689 C 62.3142 0.738431 -3.30757 0
M  V30 690 C 61.4872 -0.0277632 -4.37391 0
M  V30 691 C 60.5462 0.831332 -5.19591 0
M  V30 692 O 59.5722 0.276822 -5.68526 0
M  V30 693 N 60.7742 2.15132 -5.39165 0
M  V30 694 H 63.5392 -1.00609 -2.82308 0
M  V30 695 H 61.1002 -0.678366 -1.47003 0
M  V30 696 H 63.0922 1.31773 -3.82646 0
M  V30 697 H 61.6622 1.44533 -2.7718 0
M  V30 698 H 60.8822 -0.788359 -3.86236 0
M  V30 699 H 62.1702 -0.555251 -5.05761 0
M  V30 700 H 61.5682 2.62559 -5.01078 0
M  V30 701 H 60.1252 2.6795 -5.94177 0
M  V30 702 N 63.5583 1.46682 -0.576371 0
M  V30 703 C 64.8063 2.02013 -0.0594163 0
M  V30 704 C 65.1273 1.45101 1.30271 0
M  V30 705 O 64.3973 0.633317 1.8538 0
M  V30 706 H 62.9773 0.746759 -0.0189745 0
M  V30 707 H 65.6393 1.79862 -0.750717 0
M  V30 708 H 64.7353 3.12097 0.014345 0
M  V30 709 N 65.0364 0.313813 1.54444 0
M  V30 710 C 66.2854 -0.292519 1.99568 0
M  V30 711 C 66.5984 -1.54011 1.20582 0
M  V30 712 O 67.8044 -2.22183 1.56035 0
M  V30 713 C 66.2604 -0.571752 3.55329 0
M  V30 714 C 65.8684 0.658229 4.43138 0
M  V30 715 C 67.6124 -1.13857 4.08946 0
M  V30 716 C 65.5194 0.351439 5.90355 0
M  V30 717 H 64.4494 -0.113079 0.745472 0
M  V30 718 H 67.1004 0.424518 1.78522 0
M  V30 719 H 65.4824 -1.34872 3.72325 0
M  V30 720 H 66.6564 1.43403 4.37918 0
M  V30 721 H 64.9714 1.14458 4.0036 0
M  V30 722 H 67.5684 -1.38257 5.16516 0
M  V30 723 H 67.9114 -2.08489 3.6033 0
M  V30 724 H 68.4444 -0.423015 3.95544 0
M  V30 725 H 65.1834 1.26667 6.43145 0
M  V30 726 H 64.7034 -0.386842 5.98551 0
M  V30 727 H 66.3824 -0.0423134 6.46986 0
M  V30 728 N 66.5145 -1.57545 0.0417849 0
M  V30 729 C 67.7635 -1.91494 -0.633492 0
M  V30 730 C 68.0765 -0.921084 -1.72556 0
M  V30 731 O 69.2825 -1.15228 -2.45835 0
M  V30 732 C 67.7385 -3.40072 -1.17808 0
M  V30 733 C 67.3465 -4.47843 -0.118633 0
M  V30 734 C 69.0905 -3.8307 -1.82915 0
M  V30 735 C 66.9975 -5.87529 -0.675578 0
M  V30 736 H 65.9275 -0.714653 -0.24039 0
M  V30 737 H 68.5785 -1.83175 0.109148 0
M  V30 738 H 66.9605 -3.43364 -1.97274 0
M  V30 739 H 68.1345 -4.56128 0.654494 0
M  V30 740 H 66.4495 -4.14128 0.434414 0
M  V30 741 H 69.0465 -4.84794 -2.25563 0
M  V30 742 H 69.3895 -3.1881 -2.67705 0
M  V30 743 H 69.9225 -3.82255 -1.10119 0
M  V30 744 H 66.6615 -6.55362 0.134475 0
M  V30 745 H 66.1815 -5.82824 -1.4169 0
M  V30 746 H 67.8605 -6.36491 -1.1614 0
M  V30 747 N 67.9926 0.231505 -1.5589 0
M  V30 748 C 69.2176 0.978689 -1.82856 0
M  V30 749 C 69.6426 1.77559 -0.620846 0
M  V30 750 O 69.0006 1.76119 0.430305 0
M  V30 751 C 69.0486 1.87997 -3.07716 0
M  V30 752 O 68.1526 2.97393 -2.85712 0
M  V30 753 H 67.4936 0.277663 -0.603158 0
M  V30 754 H 70.0236 0.24783 -2.03093 0
M  V30 755 H 70.0336 2.2917 -3.37558 0
M  V30 756 H 68.7086 1.29417 -3.95252 0
M  V30 757 H 67.2856 2.60238 -2.67078 0
M  V30 758 N 69.4707 1.49531 0.497807 0
M  V30 759 C 70.8817 1.52344 1.07927 0
M  V30 760 C 71.2327 0.311469 1.93712 0
M  V30 761 O 70.3577 -0.578405 2.08527 0
M  V30 762 C 70.9527 2.76062 1.96405 0
M  V30 763 C 69.5117 2.81643 2.49709 0
M  V30 764 C 68.6587 2.46299 1.27404 0
M  V30 765 H 71.6097 1.56182 0.281576 0
M  V30 766 H 71.6307 2.56405 2.81135 0
M  V30 767 H 71.1427 3.64254 1.33943 0
M  V30 768 H 69.2437 1.97739 3.15801 0
M  V30 769 H 69.3567 3.83891 2.86643 0
M  V30 770 H 67.7207 1.98148 1.60029 0
M  V30 771 H 68.5037 3.36769 0.66645 0
M  V30 772 N 70.9488 -0.749086 1.3866 0
M  V30 773 C 72.1948 -1.51056 1.35314 0
M  V30 774 C 72.5278 -1.94121 -0.0553751 0
M  V30 775 O 71.8028 -1.65763 -1.01749 0
M  V30 776 C 72.0858 -2.76003 2.31288 0
M  V30 777 C 71.9388 -2.39047 3.8102 0
M  V30 778 C 73.2578 -3.78046 2.2532 0
M  V30 779 H 70.3768 -0.547972 0.492844 0
M  V30 780 H 73.0188 -0.857628 1.69543 0
M  V30 781 H 71.1688 -3.31716 2.02229 0
M  V30 782 H 72.8408 -1.89074 4.20771 0
M  V30 783 H 71.0838 -1.71449 3.98482 0
M  V30 784 H 71.7548 -3.28462 4.4364 0
M  V30 785 H 74.2308 -3.31884 2.50983 0
M  V30 786 H 73.1068 -4.63159 2.94576 0
M  V30 787 H 73.3678 -4.23957 1.25352 0
M  V30 788 N 72.4269 -1.23603 -0.977757 0
M  V30 789 C 73.3749 -1.01704 -2.09187 0
M  V30 790 C 74.3689 0.0448214 -1.69341 0
M  V30 791 O 75.5749 -0.108902 -1.7967 0
M  V30 792 H 71.9499 -0.311803 -0.684312 0
M  V30 793 H 73.9209 -1.96207 -2.24823 0
M  V30 794 C 72.6699 -0.627746 -3.41986 0
M  V30 795 H 71.9929 -1.43656 -3.73099 0
M  V30 796 H 73.4329 -0.514053 -4.20872 0
M  V30 797 C 71.8919 0.664238 -3.30287 0
M  V30 798 O 72.4219 1.71268 -3.6336 0
M  V30 799 N 70.6279 0.641156 -2.83439 0
M  V30 800 H 70.1749 -0.212376 -2.56723 0
M  V30 801 H 70.1329 1.50583 -2.75993 0
M  V30 802 N 73.905 1.17692 -1.04816 0
M  V30 803 C 75.182 1.83768 -0.669963 0
M  V30 804 C 75.562 1.93232 0.849986 0
M  V30 805 O 74.91 1.46397 1.75443 0
M  V30 806 C 75.12 3.21641 -1.35455 0
M  V30 807 C 76.468 3.97592 -1.49017 0
M  V30 808 O 77.492 3.31107 -1.31326 0
M  V30 809 O 76.351 5.16729 -1.77914 0
M  V30 810 H 73.445 0.792799 -0.235368 0
M  V30 811 H 75.991 1.25021 -1.14751 0
M  V30 812 H 74.763 3.097 -2.39168 0
M  V30 813 H 74.386 3.88052 -0.866107 0
M  V30 814 N 75.3831 0.828654 1.34056 0
M  V30 815 C 76.6111 0.43262 2.02326 0
M  V30 816 C 77.0261 -0.963147 1.62385 0
M  V30 817 O 76.3831 -1.62425 0.832121 0
M  V30 818 C 76.4341 0.53182 3.57567 0
M  V30 819 O 76.1551 1.87258 3.96063 0
M  V30 820 C 77.6561 0.131422 4.43105 0
M  V30 821 H 74.8761 0.172923 0.648335 0
M  V30 822 H 77.4201 1.1184 1.71208 0
M  V30 823 H 75.5751 -0.105938 3.87255 0
M  V30 824 H 75.9891 1.85087 4.90758 0
M  V30 825 H 77.4631 0.251904 5.51425 0
M  V30 826 H 77.9401 -0.925645 4.29335 0
M  V30 827 H 78.5461 0.743207 4.18756 0
M  V30 828 N 76.8612 -1.46375 0.584142 0
M  V30 829 C 78.0912 -2.06461 0.0758195 0
M  V30 830 C 78.4992 -1.43322 -1.23512 0
M  V30 831 O 77.8422 -0.533216 -1.75791 0
M  V30 832 C 77.9042 -3.59131 -0.162773 0
M  V30 833 C 77.5682 -4.4447 1.06279 0
M  V30 834 C 78.5652 -4.80918 1.97519 0
M  V30 835 C 76.2502 -4.85584 1.28504 0
M  V30 836 C 78.2442 -5.57309 3.09331 0
M  V30 837 C 75.9312 -5.61734 2.4062 0
M  V30 838 C 76.9292 -5.9751 3.30863 0
M  V30 839 O 76.6172 -6.72121 4.41032 0
M  V30 840 H 76.3492 -0.673745 0.0551725 0
M  V30 841 H 78.9032 -1.88969 0.804984 0
M  V30 842 H 77.1332 -3.74936 -0.946565 0
M  V30 843 H 78.8222 -4.0114 -0.619782 0
M  V30 844 H 79.5882 -4.49732 1.81565 0
M  V30 845 H 75.4672 -4.57187 0.591702 0
M  V30 846 H 79.0112 -5.85152 3.79793 0
M  V30 847 H 74.9082 -5.92334 2.56537 0
M  V30 848 H 75.6762 -6.90547 4.39417 0
M  V30 849 N 78.3393 -0.321999 -1.54275 0
M  V30 850 C 79.5873 0.280489 -2.00144 0
M  V30 851 C 79.9083 1.52777 -1.21178 0
M  V30 852 O 79.1783 1.9338 -0.313187 0
M  V30 853 H 77.7583 0.106632 -0.73935 0
M  V30 854 H 80.4203 -0.438184 -1.8991 0
M  V30 855 H 79.5163 0.537972 -3.07428 0
M  V30 856 N 79.8174 1.5752 -0.0501392 0
M  V30 857 C 80.7644 2.1147 0.924603 0
M  V30 858 C 81.7344 1.02182 1.30951 0
M  V30 859 O 82.9194 1.29723 1.39916 0
M  V30 860 C 80.0594 2.66337 2.19451 0
M  V30 861 C 79.1724 3.89708 1.86418 0
M  V30 862 C 78.3074 4.32893 3.07859 0
M  V30 863 C 77.3464 5.48967 2.70742 0
M  V30 864 N 76.4834 5.87211 3.84874 0
M  V30 865 H 81.3234 2.94465 0.457639 0
M  V30 866 H 78.8604 1.45531 0.214266 0
M  V30 867 H 80.8184 2.96247 2.93758 0
M  V30 868 H 79.4484 1.86141 2.63726 0
M  V30 869 H 78.5004 3.66396 1.02264 0
M  V30 870 H 79.8124 4.74074 1.55096 0
M  V30 871 H 78.9664 4.6435 3.90466 0
M  V30 872 H 77.7054 3.47336 3.42358 0
M  V30 873 H 76.7104 5.17183 1.86551 0
M  V30 874 H 77.9354 6.3624 2.37436 0
M  V30 875 H 75.8814 5.04607 4.19175 0
M  V30 876 H 75.7984 6.66266 3.57247 0
M  V30 877 H 77.0664 6.23282 4.68123 0
M  V30 878 N 81.2955 -0.223234 1.56011 0
M  V30 879 C 82.2425 -1.27664 1.92277 0
M  V30 880 C 83.2125 -1.46659 0.779763 0
M  V30 881 O 84.3975 -1.60256 1.03551 0
M  V30 882 C 81.5375 -2.62234 2.24338 0
M  V30 883 C 80.6505 -2.51051 3.51564 0
M  V30 884 C 79.7855 -3.78133 3.7308 0
M  V30 885 C 78.8245 -3.61665 4.93827 0
M  V30 886 N 77.9615 -4.80693 5.11741 0
M  V30 887 H 82.8015 -0.960358 2.82101 0
M  V30 888 H 80.3385 -0.462901 1.39627 0
M  V30 889 H 82.2965 -3.40596 2.40936 0
M  V30 890 H 80.9265 -2.91961 1.3769 0
M  V30 891 H 79.9785 -1.64132 3.43169 0
M  V30 892 H 81.2905 -2.34803 4.40079 0
M  V30 893 H 80.4445 -4.64938 3.89766 0
M  V30 894 H 79.1835 -3.97304 2.82844 0
M  V30 895 H 78.1885 -2.73244 4.77093 0
M  V30 896 H 79.4135 -3.43966 5.85546 0
M  V30 897 H 77.3595 -5.00181 4.24446 0
M  V30 898 H 77.2765 -4.67165 5.94384 0
M  V30 899 H 78.5445 -5.6893 5.3286 0
M  V30 900 N 82.7736 -1.49793 -0.48987 0
M  V30 901 C 84.0506 -1.50348 -1.25119 0
M  V30 902 C 84.4306 -0.237466 -2.0976 0
M  V30 903 O 83.7786 0.77981 -2.14782 0
M  V30 904 C 83.9886 -2.78872 -2.09837 0
M  V30 905 C 85.3366 -3.288 -2.68655 0
M  V30 906 O 86.3606 -2.80065 -2.20096 0
M  V30 907 O 85.2196 -4.13707 -3.57083 0
M  V30 908 H 82.3136 -0.602242 -0.566775 0
M  V30 909 H 84.8596 -1.62067 -0.503229 0
M  V30 910 H 83.6316 -3.62499 -1.47343 0
M  V30 911 H 83.2546 -2.70066 -2.91805 0
M  V30 912 N 84.2517 0.741722 -1.39055 0
M  V30 913 C 85.1817 1.869 -1.39966 0
M  V30 914 C 86.1627 1.6804 -0.26392 0
M  V30 915 O 87.3477 1.88458 -0.468755 0
M  V30 916 C 84.4777 3.24572 -1.23574 0
M  V30 917 C 83.4317 3.58056 -2.34477 0
M  V30 918 C 82.7577 4.94593 -2.0318 0
M  V30 919 C 84.0577 3.61716 -3.76774 0
M  V30 920 H 85.7517 1.86395 -2.34302 0
M  V30 921 H 83.2977 0.895361 -1.1278 0
M  V30 922 H 85.2507 4.031 -1.22834 0
M  V30 923 H 83.9747 3.25587 -0.257045 0
M  V30 924 H 82.6337 2.81854 -2.34423 0
M  V30 925 H 82.2817 4.92181 -1.03765 0
M  V30 926 H 81.9817 5.17964 -2.77465 0
M  V30 927 H 83.5057 5.75486 -2.04079 0
M  V30 928 H 84.9197 4.30335 -3.78794 0
M  V30 929 H 83.3167 3.96603 -4.50362 0
M  V30 930 H 84.3867 2.61672 -4.08235 0
M  V30 931 N 85.7298 1.2412 0.971189 0
M  V30 932 C 86.6928 1.03156 2.04674 0
M  V30 933 C 87.6928 -0.00990322 1.60797 0
M  V30 934 O 88.8828 0.230729 1.72665 0
M  V30 935 C 86.0148 0.562765 3.36223 0
M  V30 936 H 87.2078 1.98614 2.24705 0
M  V30 937 H 84.7608 1.06293 1.14593 0
M  V30 938 H 85.4958 -0.395176 3.21883 0
M  V30 939 H 85.2808 1.31441 3.69413 0
M  V30 940 H 86.7708 0.437015 4.15307 0
M  V30 941 N 87.2079 -1.17134 1.05439 0
M  V30 942 C 88.1709 -2.19439 0.661764 0
M  V30 943 C 89.1709 -1.58199 -0.288042 0
M  V30 944 O 90.3609 -1.74053 -0.0715803 0
M  V30 945 C 87.4929 -3.40889 -0.0276209 0
M  V30 946 H 88.6859 -2.55688 1.56728 0
M  V30 947 H 86.2389 -1.31259 0.848567 0
M  V30 948 H 86.9739 -3.10187 -0.94629 0
M  V30 949 H 86.7589 -3.86586 0.655238 0
M  V30 950 H 88.2489 -4.16603 -0.288342 0
M  V30 951 N 88.686 -0.835752 -1.33615 0
M  V30 952 C 89.911 -0.442389 -2.02627 0
M  V30 953 C 90.336 0.947735 -1.62479 0
M  V30 954 O 89.694 1.61907 -0.815826 0
M  V30 955 C 89.742 -0.567216 -3.56111 0
M  V30 956 O 88.846 0.407799 -4.10379 0
M  V30 957 H 88.187 -0.180278 -0.639059 0
M  V30 958 H 90.717 -1.12972 -1.70583 0
M  V30 959 H 90.727 -0.447708 -4.05536 0
M  V30 960 H 89.402 -1.58103 -3.84677 0
M  V30 961 H 87.979 0.246107 -3.72087 0
M  V30 962 N 90.1641 1.46063 -0.591896 0
M  V30 963 C 91.1141 2.27458 0.157172 0
M  V30 964 C 92.0981 1.3641 0.853301 0
M  V30 965 O 93.2901 1.60517 0.74588 0
M  V30 966 C 90.4191 3.22956 1.16423 0
M  V30 967 C 89.5051 4.2149 0.469742 0
M  V30 968 N 89.8961 5.03519 -0.479839 0
M  V30 969 C 88.1941 4.40161 0.719319 0
M  V30 970 C 88.8951 5.74904 -0.886591 0
M  V30 971 N 87.8711 5.43097 -0.233731 0
M  V30 972 H 91.6731 2.88272 -0.572392 0
M  V30 973 H 89.1871 1.57024 -0.414375 0
M  V30 974 H 91.1841 3.79986 1.71513 0
M  V30 975 H 89.8441 2.63701 1.89451 0
M  V30 976 H 90.8551 5.1078 -0.855823 0
M  V30 977 H 87.5321 3.92046 1.43548 0
M  V30 978 H 88.9221 6.50844 -1.66888 0
M  V30 979 N 91.6422 0.330177 1.54103 0
M  V30 980 C 92.5922 -0.548456 2.21305 0
M  V30 981 C 93.5762 -1.07651 1.19583 0
M  V30 982 O 94.7682 -1.01243 1.45186 0
M  V30 983 C 91.8972 -1.70559 2.97934 0
M  V30 984 C 90.9832 -1.19212 4.07 0
M  V30 985 N 91.3742 -0.398831 5.04225 0
M  V30 986 C 89.6722 -1.47024 4.2107 0
M  V30 987 C 90.3732 -0.121761 5.81573 0
M  V30 988 N 89.3492 -0.709722 5.38947 0
M  V30 989 H 93.1512 0.0648483 2.93828 0
M  V30 990 H 90.6652 0.136363 1.61826 0
M  V30 991 H 92.6622 -2.34688 3.44568 0
M  V30 992 H 91.3222 -2.32231 2.26934 0
M  V30 993 H 92.3332 -0.0410869 5.17884 0
M  V30 994 H 89.0102 -2.09232 3.61287 0
M  V30 995 H 90.4002 0.517298 6.69906 0
M  V30 996 N 93.1203 -1.57491 0.0584922 0
M  V30 997 C 94.5363 -1.56792 -0.298091 0
M  V30 998 C 94.7363 -1.06679 -1.70944 0
M  V30 999 O 93.7923 -0.726672 -2.41818 0
M  V30 1000 C 95.1053 -3.00461 -0.119879 0
M  V30 1001 C 96.6533 -3.1242 -0.190428 0
M  V30 1002 C 97.1283 -4.57982 -0.0406567 0
M  V30 1003 N 98.6193 -4.63099 -0.0966958 0
M  V30 1004 C 99.3543 -5.734 -0.00502943 0
M  V30 1005 N 98.8503 -6.9266 0.139402 0
M  V30 1006 N 100.643 -5.62067 -0.0611391 0
M  V30 1007 H 92.7943 -1.88386 0.98105 0
M  V30 1008 H 95.0573 -0.867865 0.381463 0
M  V30 1009 H 94.7633 -3.41187 0.85349 0
M  V30 1010 H 94.6373 -3.66843 -0.877833 0
M  V30 1011 H 97.0243 -2.71589 -1.15427 0
M  V30 1012 H 97.1053 -2.48702 0.598405 0
M  V30 1013 H 96.7493 -4.995 0.919897 0
M  V30 1014 H 96.6793 -5.19715 -0.848727 0
M  V30 1015 H 99.1703 -3.77331 -0.207277 0
M  V30 1016 H 99.4833 -7.72536 0.201855 0
M  V30 1017 H 97.8283 -6.94781 0.174586 0
M  V30 1018 H 101.019 -4.67782 -0.172583 0
M  V30 1019 H 101.192 -6.47999 0.0137562 0
M  V30 1020 N 94.5984 0.214957 -1.56127 0
M  V30 1021 C 95.8444 0.939762 -1.79712 0
M  V30 1022 C 96.1774 1.83723 -0.629247 0
M  V30 1023 O 95.4524 1.90925 0.371197 0
M  V30 1024 C 95.7354 1.77306 -3.13424 0
M  V30 1025 C 95.5884 0.90164 -4.40671 0
M  V30 1026 C 96.9074 2.74956 -3.43638 0
M  V30 1027 H 94.0264 0.340214 -0.653776 0
M  V30 1028 H 96.6684 0.20824 -1.88855 0
M  V30 1029 H 94.8184 2.39673 -3.0576 0
M  V30 1030 H 96.4904 0.294206 -4.60361 0
M  V30 1031 H 94.7334 0.207368 -4.33304 0
M  V30 1032 H 95.4044 1.51923 -5.30682 0
M  V30 1033 H 97.8804 2.22724 -3.51473 0
M  V30 1034 H 96.7564 3.30358 -4.38355 0
M  V30 1035 H 97.0174 3.53023 -2.66134 0
M  V30 1036 N 96.0765 1.50051 0.48192 0
M  V30 1037 C 97.0395 1.67584 1.5636 0
M  V30 1038 C 98.0395 0.546894 1.51214 0
M  V30 1039 O 99.2295 0.813725 1.54026 0
M  V30 1040 C 96.3615 1.691 2.96003 0
M  V30 1041 H 97.5545 2.64078 1.42136 0
M  V30 1042 H 95.1075 1.39369 0.707533 0
M  V30 1043 H 95.8425 0.742589 3.15684 0
M  V30 1044 H 95.6275 2.51105 3.01146 0
M  V30 1045 H 97.1175 1.84656 3.74556 0
M  V30 1046 N 97.5546 -0.734337 1.39446 0
M  V30 1047 C 98.4876 -1.85715 1.32609 0
M  V30 1048 C 99.4656 -1.6137 0.199636 0
M  V30 1049 O 100.65 -1.84626 0.380195 0
M  V30 1050 C 97.7766 -3.21709 1.05929 0
M  V30 1051 C 96.8226 -3.64913 2.20773 0
M  V30 1052 S 97.6556 -3.74203 3.83056 0
M  V30 1053 C 98.8116 -5.12986 3.58603 0
M  V30 1054 H 99.0446 -1.91232 2.27635 0
M  V30 1055 H 96.5776 -0.899263 1.25509 0
M  V30 1056 H 98.5356 -4.00236 0.912203 0
M  V30 1057 H 97.1966 -3.13848 0.125883 0
M  V30 1058 H 96.3896 -4.63606 1.97699 0
M  V30 1059 H 95.9916 -2.93593 2.31688 0
M  V30 1060 H 98.2836 -5.99339 3.15909 0
M  V30 1061 H 99.2266 -5.41088 4.5676 0
M  V30 1062 H 99.6346 -4.82694 2.9269 0
M  V30 1063 N 99.0327 -1.24633 -0.964593 0
M  V30 1064 C 99.9957 -1.0424 -2.04124 0
M  V30 1065 C 100.996 0.00137563 -1.608 0
M  V30 1066 O 102.186 -0.239883 -1.7254 0
M  V30 1067 C 99.3177 -0.580588 -3.3592 0
M  V30 1068 H 100.511 -1.99803 -2.23649 0
M  V30 1069 H 98.0637 -1.06899 -1.14027 0
M  V30 1070 H 98.7987 0.3781 -3.22088 0
M  V30 1071 H 98.5837 -1.33398 -3.6871 0
M  V30 1072 H 100.074 -0.459034 -4.15069 0
M  V30 1073 N 100.511 1.16574 -1.06058 0
M  V30 1074 C 101.927 1.3904 -0.783585 0
M  V30 1075 C 102.127 1.91784 0.618145 0
M  V30 1076 O 101.183 2.11511 1.37911 0
M  V30 1077 C 102.496 2.37329 -1.84649 0
M  V30 1078 C 104.044 2.51018 -1.86973 0
M  V30 1079 C 104.519 3.52588 -2.92311 0
M  V30 1080 N 106.01 3.60113 -2.91329 0
M  V30 1081 C 106.745 4.38486 -3.69482 0
M  V30 1082 N 106.241 5.20302 -4.57447 0
M  V30 1083 N 108.034 4.33446 -3.57885 0
M  V30 1084 H 100.185 0.806725 -1.96483 0
M  V30 1085 H 102.448 0.417117 -0.851303 0
M  V30 1086 H 102.154 2.05663 -2.85299 0
M  V30 1087 H 102.028 3.36946 -1.6955 0
M  V30 1088 H 104.415 2.81989 -0.869827 0
M  V30 1089 H 104.496 1.51445 -2.0615 0
M  V30 1090 H 104.14 3.22354 -3.92492 0
M  V30 1091 H 104.07 4.51886 -2.70383 0
M  V30 1092 H 106.561 3.01707 -2.27555 0
M  V30 1093 H 106.874 5.77311 -5.13743 0
M  V30 1094 H 105.219 5.19653 -4.61503 0
M  V30 1095 H 108.41 3.68586 -2.88551 0
M  V30 1096 H 108.583 4.94279 -4.19037 0
M  V30 1097 N 101.989 0.842826 1.3317 0
M  V30 1098 C 102.919 0.294028 2.31641 0
M  V30 1099 C 103.9 -0.600401 1.59151 0
M  V30 1100 O 105.085 -0.523124 1.87022 0
M  V30 1101 C 102.215 -0.528416 3.43257 0
M  V30 1102 C 101.169 0.27056 4.27144 0
M  V30 1103 C 100.495 -0.675881 5.30411 0
M  V30 1104 C 101.795 1.48981 5.00602 0
M  V30 1105 H 103.489 1.11681 2.77791 0
M  V30 1106 H 101.035 0.538478 1.33553 0
M  V30 1107 H 102.988 -0.922674 4.11175 0
M  V30 1108 H 101.712 -1.38445 2.95805 0
M  V30 1109 H 100.371 0.646427 3.60856 0
M  V30 1110 H 100.019 -1.52842 4.79216 0
M  V30 1111 H 99.7189 -0.145374 5.8742 0
M  V30 1112 H 101.243 -1.06757 6.01195 0
M  V30 1113 H 102.657 1.16849 5.61266 0
M  V30 1114 H 101.054 1.95739 5.6728 0
M  V30 1115 H 102.124 2.25746 4.29147 0
M  V30 1116 N 103.467 -1.45747 0.599634 0
M  V30 1117 C 104.43 -2.28917 -0.113835 0
M  V30 1118 C 105.43 -1.3933 -0.802729 0
M  V30 1119 O 106.62 -1.61534 -0.652103 0
M  V30 1120 C 103.752 -3.20152 -1.17114 0
M  V30 1121 H 104.945 -2.93478 0.617289 0
M  V30 1122 H 102.498 -1.52137 0.358327 0
M  V30 1123 H 103.233 -2.60374 -1.93329 0
M  V30 1124 H 103.018 -3.86133 -0.681468 0
M  V30 1125 H 104.508 -3.82708 -1.67105 0
M  V30 1126 N 104.945 -0.338344 -1.53925 0
M  V30 1127 C 105.875 0.51328 -2.27789 0
M  V30 1128 C 106.856 1.107 -1.29149 0
M  V30 1129 O 108.041 1.12937 -1.57984 0
M  V30 1130 C 105.171 1.66697 -3.04679 0
M  V30 1131 C 104.125 1.20183 -4.1078 0
M  V30 1132 C 103.451 2.44363 -4.75595 0
M  V30 1133 C 104.751 0.30605 -5.21403 0
M  V30 1134 H 106.445 -0.102883 -2.99223 0
M  V30 1135 H 103.991 -0.0509219 -1.4391 0
M  V30 1136 H 105.944 2.26915 -3.55088 0
M  V30 1137 H 104.668 2.30995 -2.30887 0
M  V30 1138 H 103.327 0.622499 -3.61276 0
M  V30 1139 H 102.975 3.07057 -3.98403 0
M  V30 1140 H 102.675 2.13925 -5.47275 0
M  V30 1141 H 104.199 3.05317 -5.28786 0
M  V30 1142 H 105.613 0.814929 -5.67478 0
M  V30 1143 H 104.01 0.0937929 -6.00027 0
M  V30 1144 H 105.08 -0.65921 -4.80398 0
M  V30 1145 N 106.423 1.57458 -0.0668435 0
M  V30 1146 C 107.355 2.09413 0.931601 0
M  V30 1147 C 108.368 1.02522 1.26464 0
M  V30 1148 O 109.557 1.30049 1.22269 0
M  V30 1149 C 106.657 2.53537 2.24882 0
M  V30 1150 C 105.83 3.83944 2.09537 0
M  V30 1151 C 104.889 4.14214 3.2452 0
M  V30 1152 O 103.915 4.83891 2.9973 0
M  V30 1153 N 105.117 3.67367 4.49469 0
M  V30 1154 H 107.882 2.95699 0.488048 0
M  V30 1155 H 105.443 1.61462 0.119009 0
M  V30 1156 H 107.435 2.70853 3.00701 0
M  V30 1157 H 106.005 1.72415 2.60753 0
M  V30 1158 H 105.225 3.76057 1.18215 0
M  V30 1159 H 106.513 4.69312 1.96529 0
M  V30 1160 H 105.911 3.11068 4.72497 0
M  V30 1161 H 104.468 3.89891 5.2233 0
M  V30 1162 N 107.901 -0.206675 1.56239 0
M  V30 1163 C 109.129 -0.945345 1.8404 0
M  V30 1164 C 109.544 -1.77336 0.647885 0
M  V30 1165 O 108.901 -1.78425 -0.383511 0
M  V30 1166 C 108.952 -1.8509 3.10522 0
M  V30 1167 O 108.673 -1.05634 4.25174 0
M  V30 1168 C 110.174 -2.70222 3.51418 0
M  V30 1169 H 107.394 -0.276372 0.61144 0
M  V30 1170 H 109.938 -0.217417 2.03341 0
M  V30 1171 H 108.093 -2.53259 2.93153 0
M  V30 1172 H 108.507 -1.67238 4.97124 0
M  V30 1173 H 109.981 -3.29438 4.42916 0
M  V30 1174 H 110.458 -3.43358 2.73864 0
M  V30 1175 H 111.064 -2.07443 3.71278 0
M  V30 1176 N 109.379 -1.50304 -0.473955 0
M  V30 1177 C 110.604 -1.65175 -1.25427 0
M  V30 1178 C 111.029 -0.333673 -1.85117 0
M  V30 1179 O 110.387 0.702114 -1.67153 0
M  V30 1180 C 110.435 -2.74295 -2.34082 0
M  V30 1181 O 109.539 -2.35349 -3.38651 0
M  V30 1182 H 108.88 -0.551944 -0.369126 0
M  V30 1183 H 111.41 -1.96662 -0.564364 0
M  V30 1184 H 111.42 -2.97285 -2.79438 0
M  V30 1185 H 110.095 -3.69959 -1.90008 0
M  V30 1186 H 108.672 -2.22794 -2.99027 0
M  V30 1187 N 110.857 0.726932 -1.39834 0
M  V30 1188 C 112.134 1.47902 -1.28001 0
M  V30 1189 C 112.514 2.1083 0.106789 0
M  V30 1190 O 111.862 1.99242 1.11869 0
M  V30 1191 C 112.072 2.52392 -2.41038 0
M  V30 1192 C 113.42 3.18546 -2.80737 0
M  V30 1193 O 114.444 2.62708 -2.40547 0
M  V30 1194 O 113.303 4.19604 -3.50135 0
M  V30 1195 H 110.397 0.657163 -0.502062 0
M  V30 1196 H 112.943 0.760071 -1.51727 0
M  V30 1197 H 111.715 2.04329 -3.33715 0
M  V30 1198 H 111.338 3.31837 -2.19021 0
M  V30 1199 N 112.336 1.25143 0.95797 0
M  V30 1200 C 113.582 1.10863 1.70531 0
M  V30 1201 C 113.937 -0.347391 1.89238 0
M  V30 1202 O 113.23 -1.25262 1.44983 0
M  V30 1203 C 113.424 1.79272 3.09187 0
M  V30 1204 C 113.253 3.31376 3.04006 0
M  V30 1205 C 112.023 4.0062 3.07948 0
M  V30 1206 C 114.221 4.27825 2.8543 0
M  V30 1207 N 112.203 5.39526 2.9289 0
M  V30 1208 C 113.574 5.53794 2.78769 0
M  V30 1209 C 115.629 4.1828 2.70085 0
M  V30 1210 C 114.332 6.7131 2.58331 0
M  V30 1211 C 116.358 5.35485 2.51017 0
M  V30 1212 C 115.72 6.60393 2.45073 0
M  V30 1213 H 111.819 0.460362 0.632132 0
M  V30 1214 H 114.403 1.58196 1.13499 0
M  V30 1215 H 112.574 1.34439 3.64391 0
M  V30 1216 H 114.306 1.57764 3.72683 0
M  V30 1217 H 111.061 3.51855 3.17009 0
M  V30 1218 H 111.485 6.12416 2.88574 0
M  V30 1219 H 116.127 3.22461 2.73457 0
M  V30 1220 H 113.845 7.67243 2.53701 0
M  V30 1221 H 117.431 5.29959 2.40073 0
M  V30 1222 H 116.311 7.49557 2.30509 0
M  V30 1223 N 113.814 -1.1601 1.06675 0
M  V30 1224 C 115.063 -1.85973 0.780818 0
M  V30 1225 C 115.376 -1.82819 -0.695444 0
M  V30 1226 O 116.582 -2.484 -1.09589 0
M  V30 1227 C 115.038 -3.33757 1.34665 0
M  V30 1228 C 114.646 -3.45374 2.85343 0
M  V30 1229 C 116.39 -4.0895 1.13843 0
M  V30 1230 C 114.297 -4.87266 3.35151 0
M  V30 1231 H 113.227 -0.696661 0.288407 0
M  V30 1232 H 115.878 -1.30903 1.28595 0
M  V30 1233 H 114.26 -3.88456 0.769274 0
M  V30 1234 H 115.434 -3.00816 3.49065 0
M  V30 1235 H 113.749 -2.83619 3.04876 0
M  V30 1236 H 116.346 -5.13654 1.4854 0
M  V30 1237 H 116.689 -4.16229 0.0770282 0
M  V30 1238 H 117.222 -3.605 1.68179 0
M  V30 1239 H 113.961 -4.85168 4.40786 0
M  V30 1240 H 113.481 -5.32433 2.76179 0
M  V30 1241 H 115.16 -5.56097 3.30704 0
M  V30 1242 N 115.292 -0.849877 -1.32721 0
M  V30 1243 C 116.708 -0.539102 -1.50219 0
M  V30 1244 C 116.908 0.931271 -1.78689 0
M  V30 1245 O 115.964 1.71455 -1.85363 0
M  V30 1246 C 117.277 -1.42196 -2.64954 0
M  V30 1247 C 118.825 -1.42189 -2.78839 0
M  V30 1248 C 119.3 -2.28985 -3.96648 0
M  V30 1249 N 120.791 -2.26754 -4.03902 0
M  V30 1250 C 121.526 -2.90644 -4.94281 0
M  V30 1251 N 121.022 -3.63629 -5.897 0
M  V30 1252 N 122.815 -2.80057 -4.87365 0
M  V30 1253 H 114.966 -1.80156 -1.12506 0
M  V30 1254 H 117.229 -0.769217 -0.554085 0
M  V30 1255 H 116.935 -2.46733 -2.50631 0
M  V30 1256 H 116.809 -1.10591 -3.60624 0
M  V30 1257 H 119.196 -0.38419 -2.92588 0
M  V30 1258 H 119.277 -1.77807 -1.83898 0
M  V30 1259 H 118.921 -3.32819 -3.83658 0
M  V30 1260 H 118.851 -1.90702 -4.90857 0
M  V30 1261 H 121.342 -1.73688 -3.3562 0
M  V30 1262 H 121.655 -4.09558 -6.55349 0
M  V30 1263 H 120 -3.67737 -5.89741 0
M  V30 1264 H 123.191 -2.22593 -4.11789 0
M  V30 1265 H 123.364 -3.30132 -5.57599 0
M  V30 1266 N 116.77 1.45427 -0.607355 0
M  V30 1267 C 118.016 2.0254 -0.102607 0
M  V30 1268 C 118.349 1.47478 1.26348 0
M  V30 1269 O 117.624 0.64939 1.83339 0
M  V30 1270 C 117.907 3.60044 -0.0634347 0
M  V30 1271 C 117.76 4.2544 -1.46017 0
M  V30 1272 C 119.079 4.35646 0.624514 0
M  V30 1273 H 116.198 0.73598 -0.0387607 0
M  V30 1274 H 118.84 1.73284 -0.779282 0
M  V30 1275 H 116.99 3.85101 0.512808 0
M  V30 1276 H 118.662 4.11569 -2.08347 0
M  V30 1277 H 116.905 3.83849 -2.02094 0
M  V30 1278 H 117.576 5.34342 -1.385 0
M  V30 1279 H 120.052 4.15882 0.134723 0
M  V30 1280 H 118.928 5.45376 0.621028 0
M  V30 1281 H 119.189 4.08501 1.69055 0
M  V30 1282 N 118.248 0.346503 1.53744 0
M  V30 1283 C 119.525 -0.304532 1.93215 0
M  V30 1284 C 119.905 -1.67993 1.27834 0
M  V30 1285 O 119.253 -2.24411 0.430352 0
M  V30 1286 C 119.463 -0.373852 3.46992 0
M  V30 1287 C 120.811 -0.62329 4.2 0
M  V30 1288 O 121.835 -0.455847 3.53271 0
M  V30 1289 O 120.694 -0.947879 5.38217 0
M  V30 1290 H 117.788 -0.178318 0.807547 0
M  V30 1291 H 120.334 0.397895 1.64969 0
M  V30 1292 H 119.106 0.591224 3.86808 0
M  V30 1293 H 118.729 -1.12294 3.81413 0
M  V30 1294 N 119.726 -1.57421 0.075193 0
M  V30 1295 C 121.137 -1.81021 -0.456964 0
M  V30 1296 C 121.488 -0.98936 -1.69429 0
M  V30 1297 O 120.613 -0.212865 -2.15351 0
M  V30 1298 C 121.208 -3.28329 -0.83581 0
M  V30 1299 C 119.767 -3.52764 -1.31281 0
M  V30 1300 C 118.914 -2.75676 -0.299648 0
M  V30 1301 H 121.865 -1.55822 0.300856 0
M  V30 1302 H 121.886 -3.40564 -1.69696 0
M  V30 1303 H 121.398 -3.88046 0.0649238 0
M  V30 1304 H 119.499 -2.98355 -2.23193 0
M  V30 1305 H 119.612 -4.61451 -1.28839 0
M  V30 1306 H 117.976 -2.42538 -0.777641 0
M  V30 1307 H 118.759 -3.38132 0.593417 0
M  V30 1308 N 121.204 0.198386 -1.56346 0
M  V30 1309 C 122.45 0.916115 -1.81601 0
M  V30 1310 C 122.805 1.81025 -0.651744 0
M  V30 1311 O 122.098 1.88316 0.353229 0
M  V30 1312 C 122.292 1.77031 -3.10475 0
M  V30 1313 C 122.121 0.960365 -4.39326 0
M  V30 1314 C 120.891 0.646093 -5.01152 0
M  V30 1315 C 123.089 0.314628 -5.13337 0
M  V30 1316 N 121.071 -0.182828 -6.13628 0
M  V30 1317 C 122.442 -0.37664 -6.18855 0
M  V30 1318 C 124.497 0.230019 -4.97368 0
M  V30 1319 C 123.2 -1.14445 -7.10137 0
M  V30 1320 C 125.226 -0.524389 -5.89071 0
M  V30 1321 C 124.588 -1.20412 -6.94032 0
M  V30 1322 H 120.687 0.314732 -0.715868 0
M  V30 1323 H 123.271 0.185102 -1.93818 0
M  V30 1324 H 121.442 2.47295 -2.99499 0
M  V30 1325 H 123.174 2.42727 -3.2383 0
M  V30 1326 H 119.929 0.969724 -4.63566 0
M  V30 1327 H 120.353 -0.586802 -6.74452 0
M  V30 1328 H 124.995 0.741184 -4.16253 0
M  V30 1329 H 122.713 -1.66706 -7.90718 0
M  V30 1330 H 126.299 -0.591167 -5.78789 0
M  V30 1331 H 125.179 -1.77853 -7.63766 0
M  V30 1332 N 122.682 1.50554 0.465978 0
M  V30 1333 C 123.592 1.72585 1.58907 0
M  V30 1334 C 124.608 0.60911 1.6299 0
M  V30 1335 O 125.784 0.88804 1.80765 0
M  V30 1336 C 122.849 1.81995 2.95091 0
M  V30 1337 C 121.91 3.05751 3.01355 0
M  V30 1338 C 121.143 3.14702 4.31043 0
M  V30 1339 O 121.366 2.30313 5.21835 0
M  V30 1340 O 120.3 4.07468 4.43005 0
M  V30 1341 H 124.126 2.67799 1.43239 0
M  V30 1342 H 121.711 1.34711 0.646013 0
M  V30 1343 H 123.593 1.90335 3.75966 0
M  V30 1344 H 122.268 0.899659 3.10947 0
M  V30 1345 H 121.175 3.02908 2.19539 0
M  V30 1346 H 122.508 3.97375 2.90437 0
M  V30 1347 N 124.16 -0.719506 1.40217 0
M  V30 1348 C 125.385 -1.51371 1.4178 0
M  V30 1349 C 125.81 -1.88091 0.0182355 0
M  V30 1350 O 125.168 -1.52997 -0.972707 0
M  V30 1351 C 125.216 -2.768 2.31115 0
M  V30 1352 O 124.32 -3.73349 1.7517 0
M  V30 1353 H 123.661 -0.456529 0.482159 0
M  V30 1354 H 126.191 -0.88644 1.844 0
M  V30 1355 H 126.201 -3.25371 2.46167 0
M  V30 1356 H 124.876 -2.49407 3.3282 0
M  V30 1357 H 123.453 -3.32179 1.69444 0
M  V30 1358 N 125.638 -1.25649 -0.95132 0
M  V30 1359 C 126.548 -1.08073 -2.08224 0
M  V30 1360 C 127.564 -0.0169666 -1.73992 0
M  V30 1361 O 128.74 -0.218593 -2.0021 0
M  V30 1362 C 125.805 -0.704922 -3.39458 0
M  V30 1363 C 124.866 -1.84699 -3.87537 0
M  V30 1364 C 124.099 -1.48902 -5.12508 0
M  V30 1365 O 124.322 -0.386156 -5.69091 0
M  V30 1366 O 123.256 -2.32033 -5.55378 0
M  V30 1367 H 127.082 -2.02924 -2.25954 0
M  V30 1368 H 124.667 -1.04618 -1.06656 0
M  V30 1369 H 126.549 -0.507609 -4.18332 0
M  V30 1370 H 125.224 0.214291 -3.2299 0
M  V30 1371 H 124.131 -2.09919 -3.09653 0
M  V30 1372 H 125.464 -2.74557 -4.08509 0
M  V30 1373 N 127.117 1.15442 -1.07289 0
M  V30 1374 C 128.049 2.19773 -0.650585 0
M  V30 1375 C 129.062 1.60076 0.296572 0
M  V30 1376 O 130.251 1.78293 0.0859905 0
M  V30 1377 C 127.351 3.38838 0.0650398 0
M  V30 1378 C 126.524 4.2808 -0.898141 0
M  V30 1379 C 125.583 5.2574 -0.219926 0
M  V30 1380 O 124.609 5.62654 -0.860773 0
M  V30 1381 N 125.811 5.71205 1.03466 0
M  V30 1382 H 128.576 2.56622 -1.54808 0
M  V30 1383 H 126.137 1.30551 -0.957494 0
M  V30 1384 H 128.129 4.01222 0.529415 0
M  V30 1385 H 126.699 3.00409 0.864466 0
M  V30 1386 H 125.919 3.62804 -1.54165 0
M  V30 1387 H 127.207 4.84577 -1.5512 0
M  V30 1388 H 126.605 5.43325 1.57526 0
M  V30 1389 H 125.162 6.35633 1.44272 0
M  V30 1390 N 128.595 0.856903 1.32268 0
M  V30 1391 C 129.558 0.308171 2.27119 0
M  V30 1392 C 130.558 -0.533421 1.51695 0
M  V30 1393 O 131.748 -0.344607 1.70757 0
M  V30 1394 C 128.88 -0.563757 3.36206 0
M  V30 1395 H 130.073 1.14535 2.77167 0
M  V30 1396 H 127.626 0.631421 1.42978 0
M  V30 1397 H 128.361 -1.42266 2.91429 0
M  V30 1398 H 128.146 0.0386749 3.92081 0
M  V30 1399 H 129.636 -0.940386 4.06874 0
M  V30 1400 N 130.073 -1.45103 0.615059 0
M  V30 1401 C 131.005 -2.28786 -0.13762 0
M  V30 1402 C 132.018 -1.40376 -0.824525 0
M  V30 1403 O 133.207 -1.64681 -0.688662 0
M  V30 1404 C 130.307 -3.16322 -1.21628 0
M  V30 1405 C 129.48 -4.33054 -0.615039 0
M  V30 1406 C 128.539 -5.01743 -1.58556 0
M  V30 1407 O 127.565 -5.58293 -1.10895 0
M  V30 1408 N 128.767 -5.01714 -2.91998 0
M  V30 1409 H 131.532 -2.94025 0.580483 0
M  V30 1410 H 129.093 -1.55373 0.45507 0
M  V30 1411 H 131.085 -3.59139 -1.86552 0
M  V30 1412 H 129.655 -2.52943 -1.83681 0
M  V30 1413 H 128.875 -3.93627 0.21245 0
M  V30 1414 H 130.163 -5.08431 -0.193704 0
M  V30 1415 H 129.561 -4.57075 -3.33316 0
M  V30 1416 H 128.118 -5.48371 -3.52325 0
M  V30 1417 N 131.551 -0.354651 -1.53558 0
M  V30 1418 C 132.797 0.231422 -2.02079 0
M  V30 1419 C 133.152 1.47308 -1.23767 0
M  V30 1420 O 132.445 1.8891 -0.319947 0
M  V30 1421 C 132.639 0.587121 -3.52545 0
M  V30 1422 C 132.468 -0.618513 -4.45426 0
M  V30 1423 C 131.238 -1.12724 -4.92566 0
M  V30 1424 C 133.436 -1.48039 -4.92533 0
M  V30 1425 N 131.418 -2.29404 -5.69427 0
M  V30 1426 C 132.789 -2.49397 -5.67628 0
M  V30 1427 C 134.844 -1.50454 -4.74624 0
M  V30 1428 C 133.547 -3.53013 -6.26717 0
M  V30 1429 C 135.573 -2.52958 -5.34571 0
M  V30 1430 C 134.935 -3.5304 -6.09543 0
M  V30 1431 H 131.034 0.0476909 -0.780544 0
M  V30 1432 H 133.618 -0.496727 -1.88257 0
M  V30 1433 H 131.789 1.28436 -3.6655 0
M  V30 1434 H 133.521 1.15734 -3.87799 0
M  V30 1435 H 130.276 -0.693577 -4.68494 0
M  V30 1436 H 130.7 -2.88347 -6.12524 0
M  V30 1437 H 135.342 -0.744356 -4.16196 0
M  V30 1438 H 133.06 -4.2992 -6.84247 0
M  V30 1439 H 136.646 -2.55667 -5.22614 0
M  V30 1440 H 135.526 -4.31056 -6.55103 0
M  V30 1441 N 133.029 1.57378 -0.0835403 0
M  V30 1442 C 133.962 2.09016 0.915833 0
M  V30 1443 C 134.94 0.997993 1.2837 0
M  V30 1444 O 136.124 1.27219 1.39096 0
M  V30 1445 C 133.251 2.55757 2.22049 0
M  V30 1446 C 132.297 3.76522 2.00333 0
M  V30 1447 S 133.13 5.20661 1.25191 0
M  V30 1448 C 134.286 5.70743 2.56912 0
M  V30 1449 H 134.519 2.93457 0.476492 0
M  V30 1450 H 132.052 1.53856 0.129493 0
M  V30 1451 H 134.01 2.83346 2.97027 0
M  V30 1452 H 132.671 1.71564 2.63106 0
M  V30 1453 H 131.864 4.07256 2.96916 0
M  V30 1454 H 131.466 3.49367 1.33488 0
M  V30 1455 H 133.758 5.78304 3.52946 0
M  V30 1456 H 134.701 6.6944 2.30772 0
M  V30 1457 H 135.109 4.98616 2.64655 0
M  V30 1458 N 134.507 -0.190092 1.56449 0
M  V30 1459 C 135.417 -1.25591 1.98152 0
M  V30 1460 C 136.433 -1.49519 0.889944 0
M  V30 1461 O 137.609 -1.62036 1.19609 0
M  V30 1462 C 134.674 -2.57916 2.3169 0
M  V30 1463 C 133.735 -2.42015 3.5458 0
M  V30 1464 C 132.968 -3.6803 3.8651 0
M  V30 1465 O 133.191 -4.72413 3.1966 0
M  V30 1466 O 132.125 -3.6326 4.79923 0
M  V30 1467 H 135.951 -0.931988 2.89046 0
M  V30 1468 H 133.536 -0.395488 1.4407 0
M  V30 1469 H 135.418 -3.36008 2.54316 0
M  V30 1470 H 134.093 -2.89925 1.43963 0
M  V30 1471 H 133 -1.62017 3.37196 0
M  V30 1472 H 134.333 -2.14937 4.4279 0
M  V30 1473 N 135.985 -1.50799 -0.457987 0
M  V30 1474 C 137.213 -1.66218 -1.23203 0
M  V30 1475 C 137.628 -0.350894 -1.85511 0
M  V30 1476 O 136.985 0.668546 -1.69814 0
M  V30 1477 C 137.036 -2.76291 -2.33121 0
M  V30 1478 O 136.757 -4.02338 -1.73366 0
M  V30 1479 C 138.258 -3.028 -3.2377 0
M  V30 1480 H 135.478 -0.558361 -0.372121 0
M  V30 1481 H 138.022 -1.97099 -0.545179 0
M  V30 1482 H 136.177 -2.48068 -2.97558 0
M  V30 1483 H 136.591 -4.63312 -2.4585 0
M  V30 1484 H 138.065 -3.8345 -3.97077 0
M  V30 1485 H 138.542 -2.14385 -3.83322 0
M  V30 1486 H 139.148 -3.32604 -2.65056 0
M  V30 1487 N 137.463 0.71206 -1.40597 0
M  V30 1488 C 138.709 1.47416 -1.39271 0
M  V30 1489 C 139.042 1.942 0.00388791 0
M  V30 1490 O 138.317 1.68403 0.973179 0
M  V30 1491 C 138.6 2.69774 -2.38525 0
M  V30 1492 C 138.453 2.28861 -3.87224 0
M  V30 1493 C 139.772 3.71939 -2.35264 0
M  V30 1494 H 136.891 0.534713 -0.5072 0
M  V30 1495 H 139.533 0.812375 -1.71757 0
M  V30 1496 H 137.683 3.26238 -2.10953 0
M  V30 1497 H 139.355 1.77852 -4.25636 0
M  V30 1498 H 137.598 1.60824 -4.02887 0
M  V30 1499 H 138.269 3.16584 -4.52193 0
M  V30 1500 H 140.745 3.25113 -2.59694 0
M  V30 1501 H 139.621 4.55186 -3.06753 0
M  V30 1502 H 139.882 4.20484 -1.36549 0
M  V30 1503 N 138.941 1.26152 0.944643 0
M  V30 1504 C 139.888 1.07408 2.04285 0
M  V30 1505 C 140.858 -0.0198413 1.66088 0
M  V30 1506 O 142.043 0.139264 1.90291 0
M  V30 1507 C 139.183 0.70945 3.37729 0
M  V30 1508 C 138.296 1.87926 3.88983 0
M  V30 1509 C 137.431 1.45807 5.10797 0
M  V30 1510 C 136.47 2.5964 5.54305 0
M  V30 1511 N 135.607 2.18226 6.67324 0
M  V30 1512 H 140.447 2.01389 2.1965 0
M  V30 1513 H 137.984 1.00275 1.07626 0
M  V30 1514 H 139.942 0.478948 4.14442 0
M  V30 1515 H 138.572 -0.193389 3.2222 0
M  V30 1516 H 137.624 2.22279 3.08701 0
M  V30 1517 H 138.936 2.73377 4.17213 0
M  V30 1518 H 138.09 1.18781 5.94959 0
M  V30 1519 H 136.829 0.574414 4.84305 0
M  V30 1520 H 135.834 2.87399 4.68702 0
M  V30 1521 H 137.059 3.48599 5.828 0
M  V30 1522 H 135.005 1.3229 6.42523 0
M  V30 1523 H 134.922 2.97221 6.95123 0
M  V30 1524 H 136.19 1.94403 7.54869 0
M  V30 1525 N 140.419 -1.14872 1.07899 0
M  V30 1526 C 141.665 -1.86064 0.806725 0
M  V30 1527 C 141.998 -1.82434 -0.665706 0
M  V30 1528 O 141.273 -1.25138 -1.48899 0
M  V30 1529 C 141.556 -3.34929 1.32267 0
M  V30 1530 C 141.409 -3.47161 2.86006 0
M  V30 1531 C 142.728 -4.29863 0.943717 0
M  V30 1532 H 139.847 -0.675591 0.294526 0
M  V30 1533 H 142.489 -1.34925 1.33773 0
M  V30 1534 H 140.639 -3.78611 0.870974 0
M  V30 1535 H 142.311 -3.12302 3.39507 0
M  V30 1536 H 140.554 -2.88539 3.23925 0
M  V30 1537 H 141.225 -4.51777 3.17177 0
M  V30 1538 H 143.701 -3.9417 1.33302 0
M  V30 1539 H 142.577 -5.32494 1.33198 0
M  V30 1540 H 142.838 -4.41846 -0.149796 0
M  V30 1541 N 141.898 -0.863906 -1.31812 0
M  V30 1542 C 142.828 -0.330843 -2.31144 0
M  V30 1543 C 143.809 0.575005 -1.60087 0
M  V30 1544 O 144.994 0.493304 -1.8783 0
M  V30 1545 C 142.124 0.47374 -3.44054 0
M  V30 1546 C 141.078 -0.338481 -4.26659 0
M  V30 1547 C 140.404 0.591412 -5.31419 0
M  V30 1548 C 141.704 -1.56926 -4.98168 0
M  V30 1549 H 143.398 -1.16086 -2.75979 0
M  V30 1550 H 140.944 -0.559657 -1.32679 0
M  V30 1551 H 142.897 0.857143 -4.12591 0
M  V30 1552 H 141.621 1.33721 -2.9797 0
M  V30 1553 H 140.28 -0.703754 -3.59782 0
M  V30 1554 H 139.928 1.45199 -4.81587 0
M  V30 1555 H 139.628 0.0519022 -5.87577 0
M  V30 1556 H 141.152 0.97179 -6.02817 0
M  V30 1557 H 142.566 -1.25764 -5.59336 0
M  V30 1558 H 140.963 -2.04739 -5.64094 0
M  V30 1559 H 142.033 -2.32544 -4.25501 0
M  V30 1560 N 143.376 1.44774 -0.622745 0
M  V30 1561 C 144.792 1.56986 -0.287652 0
M  V30 1562 C 144.992 1.61167 1.20944 0
M  V30 1563 O 144.048 1.55015 1.99315 0
M  V30 1564 C 145.361 2.84551 -0.972188 0
M  V30 1565 C 146.909 2.9825 -0.949536 0
M  V30 1566 C 147.384 4.28605 -1.61437 0
M  V30 1567 N 148.875 4.35399 -1.58057 0
M  V30 1568 C 149.61 5.34964 -2.064 0
M  V30 1569 N 149.106 6.40981 -2.62897 0
M  V30 1570 N 150.899 5.26419 -1.97078 0
M  V30 1571 H 143.05 1.40304 -1.59463 0
M  V30 1572 H 145.313 0.671794 -0.668878 0
M  V30 1573 H 145.019 2.87417 -2.02693 0
M  V30 1574 H 144.893 3.73807 -0.504771 0
M  V30 1575 H 147.28 2.94941 0.0967067 0
M  V30 1576 H 147.361 2.10364 -1.45536 0
M  V30 1577 H 147.005 4.32672 -2.66002 0
M  V30 1578 H 146.935 5.15334 -1.08344 0
M  V30 1579 H 149.426 3.59397 -1.16801 0
M  V30 1580 H 149.739 7.13225 -2.97539 0
M  V30 1581 H 148.084 6.4169 -2.66943 0
M  V30 1582 H 151.275 4.42504 -1.52669 0
M  V30 1583 H 151.448 6.03861 -2.35066 0
M  V30 1584 N 144.854 0.36279 1.53368 0
M  V30 1585 C 145.804 -0.501391 2.22419 0
M  V30 1586 C 146.788 -1.0509 1.2184 0
M  V30 1587 O 147.98 -0.981404 1.47301 0
M  V30 1588 C 145.109 -1.64201 3.01484 0
M  V30 1589 C 144.195 -1.10552 4.09438 0
M  V30 1590 N 144.586 -0.291788 5.04958 0
M  V30 1591 C 142.884 -1.3806 4.24094 0
M  V30 1592 C 143.585 0.00162655 5.817 0
M  V30 1593 N 142.561 -0.595244 5.40331 0
M  V30 1594 H 146.363 0.127159 2.93625 0
M  V30 1595 H 143.877 0.170658 1.61501 0
M  V30 1596 H 145.874 -2.27326 3.49469 0
M  V30 1597 H 144.534 -2.27365 2.31809 0
M  V30 1598 H 145.545 0.0687731 5.17854 0
M  V30 1599 H 142.222 -2.01522 3.65644 0
M  V30 1600 H 143.612 0.659278 6.68658 0
M  V30 1601 N 146.332 -1.57332 0.0918853 0
M  V30 1602 C 147.282 -2.10385 -0.87876 0
M  V30 1603 C 148.266 -1.01814 -1.24591 0
M  V30 1604 O 149.458 -1.28093 -1.22152 0
M  V30 1605 C 146.587 -2.68517 -2.13901 0
M  V30 1606 C 145.673 -3.84126 -1.79744 0
M  V30 1607 N 146.064 -4.92288 -1.1613 0
M  V30 1608 C 144.362 -3.93801 -2.09373 0
M  V30 1609 C 145.063 -5.7295 -1.00513 0
M  V30 1610 N 144.039 -5.21876 -1.5214 0
M  V30 1611 H 147.841 -2.91395 -0.38293 0
M  V30 1612 H 145.355 -1.62017 -0.111423 0
M  V30 1613 H 147.352 -3.04852 -2.84378 0
M  V30 1614 H 146.012 -1.88961 -2.64053 0
M  V30 1615 H 147.023 -5.1123 -0.828504 0
M  V30 1616 H 143.7 -3.25249 -2.61762 0
M  V30 1617 H 145.09 -6.69978 -0.507902 0
M  V30 1618 N 147.81 0.181792 -1.56548 0
M  V30 1619 C 148.76 1.22961 -1.92002 0
M  V30 1620 C 149.744 1.40331 -0.787146 0
M  V30 1621 O 150.936 1.42478 -1.05019 0
M  V30 1622 C 148.065 2.57144 -2.27446 0
M  V30 1623 C 147.151 2.43512 -3.47222 0
M  V30 1624 N 147.542 1.99577 -4.64761 0
M  V30 1625 C 145.84 2.74368 -3.51622 0
M  V30 1626 C 146.541 1.98156 -5.46909 0
M  V30 1627 N 145.517 2.40164 -4.8767 0
M  V30 1628 H 149.319 0.881462 -2.8037 0
M  V30 1629 H 146.833 0.390141 -1.57644 0
M  V30 1630 H 148.83 3.32847 -2.51035 0
M  V30 1631 H 147.49 2.92771 -1.40411 0
M  V30 1632 H 148.501 1.70078 -4.89177 0
M  V30 1633 H 145.178 3.14102 -2.75038 0
M  V30 1634 H 146.568 1.65975 -6.51077 0
M  V30 1635 N 149.288 1.51039 0.449983 0
M  V30 1636 C 150.513 1.6715 1.22783 0
M  V30 1637 C 150.938 0.363081 1.84563 0
M  V30 1638 O 150.296 -0.675433 1.68249 0
M  V30 1639 C 150.344 2.77985 2.29689 0
M  V30 1640 O 149.448 2.40707 3.34864 0
M  V30 1641 H 148.789 0.557746 0.360299 0
M  V30 1642 H 151.319 1.97535 0.533005 0
M  V30 1643 H 151.329 3.01693 2.74673 0
M  V30 1644 H 150.004 3.72935 1.84098 0
M  V30 1645 H 148.581 2.27523 2.95445 0
M  V30 1646 N 150.766 -0.704594 1.40972 0
M  V30 1647 C 151.713 -1.81862 1.42109 0
M  V30 1648 C 152.683 -1.63781 0.276593 0
M  V30 1649 O 153.868 -1.84759 0.4763 0
M  V30 1650 C 151.008 -3.19669 1.30022 0
M  V30 1651 C 150.121 -3.49246 2.54267 0
M  V30 1652 C 149.256 -4.76618 2.3454 0
M  V30 1653 C 148.295 -4.99133 3.54306 0
M  V30 1654 N 147.432 -6.17726 3.33706 0
M  V30 1655 H 152.272 -1.80226 2.37324 0
M  V30 1656 H 149.809 -0.880238 1.17857 0
M  V30 1657 H 151.767 -3.99263 1.21018 0
M  V30 1658 H 150.397 -3.20506 0.384192 0
M  V30 1659 H 149.449 -2.64125 2.73756 0
M  V30 1660 H 150.761 -3.61788 3.43381 0
M  V30 1661 H 149.915 -5.64249 2.22952 0
M  V30 1662 H 148.654 -4.66305 1.42867 0
M  V30 1663 H 147.659 -4.09953 3.66359 0
M  V30 1664 H 148.884 -5.11311 4.4692 0
M  V30 1665 H 146.83 -6.08642 2.44725 0
M  V30 1666 H 146.747 -6.30995 4.16391 0
M  V30 1667 H 148.015 -7.08115 3.25873 0
M  V30 1668 N 152.244 -1.26651 -0.937939 0
M  V30 1669 C 153.174 -1.10993 -2.05433 0
M  V30 1670 C 154.155 -0.0142161 -1.70094 0
M  V30 1671 O 155.34 -0.186837 -1.93299 0
M  V30 1672 C 152.47 -0.745561 -3.39203 0
M  V30 1673 C 151.424 -1.79337 -3.88616 0
M  V30 1674 C 150.75 -1.28324 -5.19073 0
M  V30 1675 C 152.05 -3.19553 -4.13138 0
M  V30 1676 H 153.744 -2.0438 -2.1879 0
M  V30 1677 H 151.29 -0.984041 -1.05131 0
M  V30 1678 H 153.243 -0.622888 -4.16771 0
M  V30 1679 H 151.967 0.22401 -3.25831 0
M  V30 1680 H 150.626 -1.90477 -3.13231 0
M  V30 1681 H 150.274 -0.303414 -5.02084 0
M  V30 1682 H 149.974 -1.98369 -5.53103 0
M  V30 1683 H 151.498 -1.1733 -5.99221 0
M  V30 1684 H 152.912 -3.11471 -4.81309 0
M  V30 1685 H 151.309 -3.87218 -4.58457 0
M  V30 1686 H 152.379 -3.65368 -3.18801 0
M  V30 1687 N 153.722 1.14298 -1.08507 0
M  V30 1688 C 154.652 2.21542 -0.737646 0
M  V30 1689 C 155.633 1.67773 0.280377 0
M  V30 1690 O 156.818 1.93616 0.150521 0
M  V30 1691 C 153.948 3.46988 -0.147259 0
M  V30 1692 C 152.902 4.13789 -1.09374 0
M  V30 1693 C 152.228 5.33449 -0.365524 0
M  V30 1694 C 153.528 4.62208 -2.4323 0
M  V30 1695 H 155.222 2.5086 -1.6343 0
M  V30 1696 H 152.768 1.20576 -0.787243 0
M  V30 1697 H 154.721 4.21262 0.107808 0
M  V30 1698 H 153.445 3.17037 0.784538 0
M  V30 1699 H 152.104 3.4147 -1.33393 0
M  V30 1700 H 151.752 4.99759 0.57011 0
M  V30 1701 H 151.452 5.79088 -0.996512 0
M  V30 1702 H 152.976 6.10485 -0.118534 0
M  V30 1703 H 154.39 5.27952 -2.23472 0
M  V30 1704 H 152.787 5.18553 -3.02031 0
M  V30 1705 H 153.857 3.77224 -3.04681 0
M  V30 1706 N 155.201 0.870884 1.31352 0
M  V30 1707 C 156.617 0.562932 1.49343 0
M  V30 1708 C 156.817 -0.902725 1.80148 0
M  V30 1709 O 155.873 -1.68484 1.88067 0
M  V30 1710 C 157.186 1.46393 2.62659 0
M  V30 1711 C 158.734 1.46607 2.76542 0
M  V30 1712 C 159.209 2.35266 3.92955 0
M  V30 1713 N 160.7 2.33151 4.00243 0
M  V30 1714 C 161.435 2.98471 4.89594 0
M  V30 1715 N 160.931 3.72964 5.8384 0
M  V30 1716 N 162.724 2.87775 4.82848 0
M  V30 1717 H 154.875 1.81923 1.09626 0
M  V30 1718 H 157.138 0.777934 0.541777 0
M  V30 1719 H 156.844 2.50689 2.46674 0
M  V30 1720 H 156.718 1.16314 3.58819 0
M  V30 1721 H 159.105 0.43069 2.9194 0
M  V30 1722 H 159.186 1.8071 1.81046 0
M  V30 1723 H 158.83 3.38881 3.78315 0
M  V30 1724 H 158.76 1.98487 4.87761 0
M  V30 1725 H 161.251 1.79006 3.32814 0
M  V30 1726 H 161.564 4.19932 6.4875 0
M  V30 1727 H 159.909 3.77073 5.83816 0
M  V30 1728 H 163.1 2.29116 4.08195 0
M  V30 1729 H 163.273 3.38961 5.52277 0
M  V30 1730 N 156.679 -1.44442 0.630414 0
M  V30 1731 C 157.904 -2.06927 0.139944 0
M  V30 1732 C 158.329 -1.46795 -1.17613 0
M  V30 1733 O 157.687 -0.569144 -1.72135 0
M  V30 1734 C 157.735 -3.6058 0.0379581 0
M  V30 1735 O 156.839 -3.99937 -1.0062 0
M  V30 1736 H 156.18 -0.658608 0.0844483 0
M  V30 1737 H 158.71 -1.85327 0.866891 0
M  V30 1738 H 158.72 -4.07714 -0.152856 0
M  V30 1739 H 157.395 -4.03728 0.998809 0
M  V30 1740 H 155.972 -3.64436 -0.79001 0
M  V30 1741 N 158.157 -0.370918 -1.53173 0
M  V30 1742 C 159.568 0.107139 -1.86392 0
M  V30 1743 C 159.919 1.47714 -1.29132 0
M  V30 1744 O 159.044 2.07464 -0.615439 0
M  V30 1745 C 159.639 0.201187 -3.38202 0
M  V30 1746 C 158.198 0.623507 -3.712 0
M  V30 1747 C 157.345 -0.225978 -2.76378 0
M  V30 1748 H 160.296 -0.58951 -1.47345 0
M  V30 1749 H 160.317 1.02377 -3.66468 0
M  V30 1750 H 159.829 -0.796058 -3.79848 0
M  V30 1751 H 157.93 1.62879 -3.35114 0
M  V30 1752 H 158.043 0.394414 -4.77474 0
M  V30 1753 H 156.407 0.305962 -2.52856 0
M  V30 1754 H 157.19 -1.22086 -3.20858 0
M  V30 1755 N 159.635 1.57281 -0.100228 0
M  V30 1756 C 161.046 1.81725 0.428107 0
M  V30 1757 C 161.397 1.01619 1.67833 0
M  V30 1758 O 160.522 0.247098 2.14985 0
M  V30 1759 C 161.117 3.29617 0.78347 0
M  V30 1760 C 159.676 3.54808 1.25653 0
M  V30 1761 C 158.823 2.76118 0.255752 0
M  V30 1762 H 161.774 1.55324 -0.325608 0
M  V30 1763 H 161.795 3.4322 1.64256 0
M  V30 1764 H 161.307 3.87893 -0.12665 0
M  V30 1765 H 159.408 3.01868 2.18418 0
M  V30 1766 H 159.521 4.63443 1.21482 0
M  V30 1767 H 157.885 2.43745 0.738956 0
M  V30 1768 H 158.668 3.37145 -0.647136 0
M  V30 1769 N 161.113 -0.173488 1.56642 0
M  V30 1770 C 162.045 -1.23935 1.92802 0
M  V30 1771 C 163.058 -1.40589 0.820889 0
M  V30 1772 O 164.247 -1.40631 1.09933 0
M  V30 1773 C 161.347 -2.60837 2.16373 0
M  V30 1774 C 160.52 -2.6551 3.47596 0
M  V30 1775 C 159.579 -3.8376 3.60021 0
M  V30 1776 O 158.605 -3.69859 4.32658 0
M  V30 1777 N 159.807 -5.00127 2.94709 0
M  V30 1778 H 162.572 -0.932236 2.84832 0
M  V30 1779 H 160.133 -0.363268 1.57772 0
M  V30 1780 H 162.125 -3.38407 2.21952 0
M  V30 1781 H 160.695 -2.83948 1.30738 0
M  V30 1782 H 159.915 -1.74052 3.53694 0
M  V30 1783 H 161.203 -2.65641 4.33949 0
M  V30 1784 H 160.601 -5.14322 2.35563 0
M  V30 1785 H 159.158 -5.75567 3.05886 0
M  V30 1786 N 162.591 -1.51276 -0.441967 0
M  V30 1787 C 163.524 -1.66933 -1.55591 0
M  V30 1788 C 164.502 -0.516958 -1.54163 0
M  V30 1789 O 165.686 -0.740209 -1.73358 0
M  V30 1790 C 162.813 -1.67866 -2.94174 0
M  V30 1791 C 161.859 -2.89013 -3.13646 0
M  V30 1792 S 162.692 -4.49897 -2.90436 0
M  V30 1793 C 163.848 -4.53568 -4.31308 0
M  V30 1794 H 164.081 -2.61155 -1.42076 0
M  V30 1795 H 161.614 -1.40902 -0.631341 0
M  V30 1796 H 163.572 -1.69089 -3.74058 0
M  V30 1797 H 162.233 -0.748296 -3.05056 0
M  V30 1798 H 161.426 -2.86054 -4.14957 0
M  V30 1799 H 161.028 -2.85509 -2.4158 0
M  V30 1800 H 163.32 -4.28924 -5.24434 0
M  V30 1801 H 164.263 -5.55355 -4.39303 0
M  V30 1802 H 164.671 -3.82943 -4.14747 0
M  V30 1803 N 164.069 0.697108 -1.41344 0
M  V30 1804 C 164.979 1.84088 -1.45427 0
M  V30 1805 C 165.995 1.70545 -0.34501 0
M  V30 1806 O 167.171 1.92488 -0.592492 0
M  V30 1807 C 164.236 3.20056 -1.33286 0
M  V30 1808 C 163.297 3.45718 -2.54514 0
M  V30 1809 C 162.53 4.75199 -2.42944 0
M  V30 1810 O 162.753 5.51579 -1.45318 0
M  V30 1811 O 161.687 5.0161 -3.32672 0
M  V30 1812 H 165.513 1.836 -2.41919 0
M  V30 1813 H 163.098 0.849966 -1.22866 0
M  V30 1814 H 164.98 4.01236 -1.28794 0
M  V30 1815 H 163.655 3.2123 -0.39909 0
M  V30 1816 H 162.562 2.64474 -2.64583 0
M  V30 1817 H 163.895 3.49356 -3.46715 0
M  V30 1818 N 165.547 1.27147 0.931209 0
M  V30 1819 C 166.795 1.13055 1.6752 0
M  V30 1820 C 167.116 -0.324791 1.92276 0
M  V30 1821 O 166.386 -1.22775 1.52654 0
M  V30 1822 H 164.966 0.415391 0.620854 0
M  V30 1823 H 167.628 1.59623 1.11833 0
M  V30 1824 H 166.724 1.65694 2.64485 0
M  V30 1825 N 167.025 -1.13721 1.09112 0
M  V30 1826 C 168.436 -1.6648 0.845068 0
M  V30 1827 C 168.787 -1.85911 -0.62701 0
M  V30 1828 O 167.912 -1.57556 -1.48341 0
M  V30 1829 C 168.507 -3.02413 1.52748 0
M  V30 1830 C 167.066 -3.52176 1.32849 0
M  V30 1831 C 166.213 -2.27492 1.58564 0
M  V30 1832 H 169.164 -0.976872 1.25072 0
M  V30 1833 H 169.185 -3.68223 0.958752 0
M  V30 1834 H 168.697 -2.88238 2.59885 0
M  V30 1835 H 166.798 -3.7156 0.278137 0
M  V30 1836 H 166.911 -4.32499 2.0611 0
M  V30 1837 H 165.275 -2.33923 1.00758 0
M  V30 1838 H 166.058 -2.15886 2.66924 0
M  V30 1839 N 168.503 -0.877838 -1.30888 0
M  V30 1840 C 169.78 -0.413052 -1.91189 0
M  V30 1841 C 170.16 1.1056 -1.79832 0
M  V30 1842 O 169.508 1.93771 -1.21099 0
M  V30 1843 C 169.718 -0.903191 -3.3711 0
M  V30 1844 C 171.066 -0.93395 -4.14201 0
M  V30 1845 O 172.09 -0.849373 -3.45925 0
M  V30 1846 O 170.949 -1.05772 -5.36167 0
M  V30 1847 H 168.043 -0.125035 -0.817493 0
M  V30 1848 H 170.589 -0.966269 -1.39504 0
M  V30 1849 H 169.361 -1.94692 -3.39427 0
M  V30 1850 H 168.984 -0.328732 -3.96239 0
M  V30 1851 N 169.982 1.44106 -0.638065 0
M  V30 1852 C 170.932 2.27843 0.0847285 0
M  V30 1853 C 171.916 1.39055 0.809471 0
M  V30 1854 O 173.108 1.62808 0.694435 0
M  V30 1855 C 170.237 3.26497 1.06089 0
M  V30 1856 C 169.323 4.22772 0.33541 0
M  V30 1857 N 169.714 5.01737 -0.639787 0
M  V30 1858 C 168.012 4.42227 0.578921 0
M  V30 1859 C 168.713 5.71792 -1.06904 0
M  V30 1860 N 167.689 5.42079 -0.406395 0
M  V30 1861 H 171.491 2.86305 -0.663814 0
M  V30 1862 H 169.005 1.55627 -0.464122 0
M  V30 1863 H 171.002 3.8525 1.59337 0
M  V30 1864 H 169.662 2.69595 1.80966 0
M  V30 1865 H 170.673 5.07799 -1.01789 0
M  V30 1866 H 167.35 3.96415 1.31003 0
M  V30 1867 H 168.74 6.45205 -1.8751 0
M  V30 1868 N 171.46 0.379036 1.52974 0
M  V30 1869 C 172.708 -0.206014 2.01047 0
M  V30 1870 C 173.029 -1.48175 1.26765 0
M  V30 1871 O 172.299 -1.92085 0.384743 0
M  V30 1872 H 170.879 -0.0791184 0.742798 0
M  V30 1873 H 173.541 0.508366 1.88153 0
M  V30 1874 H 172.637 -0.423501 3.09213 0
M  V30 1875 N 172.938 -1.57226 0.108567 0
M  V30 1876 C 173.885 -2.14756 -0.845481 0
M  V30 1877 C 174.855 -1.06971 -1.27068 0
M  V30 1878 O 176.04 -1.34827 -1.35005 0
M  V30 1879 C 173.18 -2.74298 -2.09415 0
M  V30 1880 C 172.293 -3.96358 -1.71826 0
M  V30 1881 C 171.428 -4.44021 -2.9158 0
M  V30 1882 C 170.467 -5.58637 -2.50181 0
M  V30 1883 N 169.604 -6.01091 -3.62814 0
M  V30 1884 H 174.444 -2.95961 -0.348035 0
M  V30 1885 H 171.981 -1.46226 -0.160106 0
M  V30 1886 H 173.939 -3.06945 -2.82561 0
M  V30 1887 H 172.569 -1.95801 -2.56636 0
M  V30 1888 H 171.621 -3.69939 -0.885947 0
M  V30 1889 H 172.933 -4.79504 -1.37394 0
M  V30 1890 H 172.087 -4.78522 -3.72963 0
M  V30 1891 H 170.826 -3.59803 -3.29231 0
M  V30 1892 H 169.831 -5.23751 -1.67228 0
M  V30 1893 H 171.056 -6.44613 -2.13659 0
M  V30 1894 H 169.002 -5.19817 -4.00158 0
M  V30 1895 H 168.919 -6.79066 -3.32273 0
M  V30 1896 H 170.187 -6.40227 -4.44668 0
M  V30 1897 N 174.416 0.165178 -1.56732 0
M  V30 1898 C 175.379 1.18822 -1.95995 0
M  V30 1899 C 176.379 1.3685 -0.84431 0
M  V30 1900 O 177.569 1.34152 -1.11126 0
M  V30 1901 C 174.701 2.5521 -2.26011 0
M  V30 1902 H 175.894 0.851825 -2.87548 0
M  V30 1903 H 173.447 0.407857 -1.50885 0
M  V30 1904 H 174.182 2.93852 -1.37191 0
M  V30 1905 H 173.967 2.43489 -3.07336 0
M  V30 1906 H 175.457 3.28927 -2.57288 0
M  V30 1907 N 175.894 1.51508 0.433938 0
M  V30 1908 C 176.824 1.76016 1.53429 0
M  V30 1909 C 177.805 0.610112 1.58782 0
M  V30 1910 O 178.99 0.853177 1.74455 0
M  V30 1911 C 176.12 1.88831 2.9148 0
M  V30 1912 C 175.074 3.04288 3.00987 0
M  V30 1913 C 174.4 3.0229 4.4105 0
M  V30 1914 C 175.7 4.44193 2.74754 0
M  V30 1915 H 177.394 2.68152 1.33171 0
M  V30 1916 H 174.94 1.29035 0.639214 0
M  V30 1917 H 176.893 2.04559 3.6842 0
M  V30 1918 H 175.617 0.933455 3.12976 0
M  V30 1919 H 174.276 2.8827 2.26486 0
M  V30 1920 H 173.924 2.04576 4.59519 0
M  V30 1921 H 173.624 3.79822 4.4834 0
M  V30 1922 H 175.148 3.20116 5.1996 0
M  V30 1923 H 176.562 4.60544 3.41426 0
M  V30 1924 H 174.959 5.23457 2.9345 0
M  V30 1925 H 176.029 4.53996 1.70339 0
M  V30 1926 N 177.372 -0.689602 1.41712 0
M  V30 1927 C 178.619 -1.44966 1.4139 0
M  V30 1928 C 178.947 -1.94484 0.025105 0
M  V30 1929 O 178.202 -1.70307 -0.964048 0
M  V30 1930 C 178.501 -2.67298 2.37247 0
M  V30 1931 C 178.167 -2.36405 3.83958 0
M  V30 1932 C 176.829 -2.27691 4.23923 0
M  V30 1933 C 179.181 -2.11043 4.76561 0
M  V30 1934 C 176.509 -1.91719 5.54492 0
M  V30 1935 C 178.861 -1.76578 6.07456 0
M  V30 1936 C 177.525 -1.66363 6.46436 0
M  V30 1937 H 176.795 -0.53047 0.517381 0
M  V30 1938 H 179.442 -0.787655 1.74552 0
M  V30 1939 H 177.747 -3.38461 1.9736 0
M  V30 1940 H 179.444 -3.25452 2.34269 0
M  V30 1941 H 176.034 -2.44085 3.52308 0
M  V30 1942 H 180.218 -2.16717 4.46483 0
M  V30 1943 H 175.474 -1.82367 5.83568 0
M  V30 1944 H 179.648 -1.55974 6.78708 0
M  V30 1945 H 177.275 -1.38258 7.47522 0
M  V30 1946 N 178.85 -1.27639 -0.924453 0
M  V30 1947 C 180.075 -1.17101 -1.71179 0
M  V30 1948 C 180.5 0.268134 -1.86179 0
M  V30 1949 O 179.858 1.19415 -1.36418 0
M  V30 1950 C 179.906 -1.86313 -3.08739 0
M  V30 1951 O 179.01 -1.16331 -3.95652 0
M  V30 1952 H 178.351 -0.407091 -0.524569 0
M  V30 1953 H 180.881 -1.68767 -1.15666 0
M  V30 1954 H 180.891 -1.938 -3.59034 0
M  V30 1955 H 179.566 -2.91001 -2.97138 0
M  V30 1956 H 178.143 -1.16935 -3.54091 0
M  V30 1957 N 180.328 1.1314 -1.09713 0
M  V30 1958 C 181.556 1.88321 -0.856898 0
M  V30 1959 C 181.971 1.79276 0.592073 0
M  V30 1960 O 181.328 1.16142 1.40774 0
M  V30 1961 C 181.379 3.37812 -1.28706 0
M  V30 1962 O 181.1 3.46627 -2.67921 0
M  V30 1963 C 182.601 4.29952 -1.07964 0
M  V30 1964 H 179.821 0.596094 -0.308079 0
M  V30 1965 H 182.365 1.43205 -1.45988 0
M  V30 1966 H 180.52 3.805 -0.727912 0
M  V30 1967 H 180.934 4.39579 -2.8613 0
M  V30 1968 H 182.408 5.33159 -1.42986 0
M  V30 1969 H 182.885 4.39196 -0.0176577 0
M  V30 1970 H 183.491 3.93036 -1.62489 0
M  V30 1971 N 181.806 0.884767 1.30421 0
M  V30 1972 C 183.217 0.553656 1.78302 0
M  V30 1973 C 183.568 -0.930153 1.7275 0
M  V30 1974 O 182.693 -1.72681 1.30423 0
M  V30 1975 C 183.288 0.998234 3.2376 0
M  V30 1976 C 181.847 0.71854 3.69478 0
M  V30 1977 C 180.994 1.18132 2.50879 0
M  V30 1978 H 183.945 1.06901 1.17294 0
M  V30 1979 H 183.966 0.327118 3.79091 0
M  V30 1980 H 183.478 2.0782 3.27769 0
M  V30 1981 H 181.579 -0.349444 3.70958 0
M  V30 1982 H 181.692 1.30595 4.60958 0
M  V30 1983 H 180.056 0.600669 2.47516 0
M  V30 1984 H 180.839 2.26902 2.57624 0
M  V30 1985 N 183.284 -1.43765 0.645699 0
M  V30 1986 C 184.247 -2.29163 -0.0409488 0
M  V30 1987 C 185.247 -1.41813 -0.757996 0
M  V30 1988 O 186.437 -1.63527 -0.600382 0
M  V30 1989 C 183.569 -3.23716 -1.06869 0
M  V30 1990 H 184.762 -2.91366 0.710345 0
M  V30 1991 H 182.315 -1.5092 0.406547 0
M  V30 1992 H 183.05 -2.66393 -1.84947 0
M  V30 1993 H 182.835 -3.88105 -0.558277 0
M  V30 1994 H 184.325 -3.87831 -1.54845 0
M  V30 1995 N 184.763 -0.387143 -1.52771 0
M  V30 1996 C 185.726 0.436939 -2.24997 0
M  V30 1997 C 186.726 0.991991 -1.26555 0
M  V30 1998 O 187.916 0.874335 -1.50669 0
M  V30 1999 C 185.048 1.61281 -3.00335 0
M  V30 2000 H 186.241 -0.195365 -2.99263 0
M  V30 2001 H 183.794 -0.139218 -1.55679 0
M  V30 2002 H 184.529 2.2826 -2.30364 0
M  V30 2003 H 184.314 1.22154 -3.72587 0
M  V30 2004 H 185.804 2.19629 -3.5518 0
M  V30 2005 N 186.241 1.57166 -0.116904 0
M  V30 2006 C 187.487 1.95412 0.542405 0
M  V30 2007 C 187.82 1.00019 1.66463 0
M  V30 2008 O 187.095 0.0370346 1.94465 0
M  V30 2009 C 187.378 3.43615 1.07708 0
M  V30 2010 C 187.231 4.49781 -0.0415868 0
M  V30 2011 C 188.55 3.93616 1.96861 0
M  V30 2012 H 185.669 0.710543 0.195696 0
M  V30 2013 H 188.311 1.89027 -0.192038 0
M  V30 2014 H 186.461 3.49187 1.70296 0
M  V30 2015 H 188.133 4.56308 -0.676793 0
M  V30 2016 H 186.376 4.28033 -0.705019 0
M  V30 2017 H 187.047 5.50733 0.373717 0
M  V30 2018 H 189.523 3.90335 1.44146 0
M  V30 2019 H 188.399 4.97838 2.3119 0
M  V30 2020 H 188.66 3.34188 2.89432 0
M  V30 2021 N 187.719 -0.156864 1.56817 0
M  V30 2022 C 189.13 -0.717916 1.72345 0
M  V30 2023 C 189.481 -1.82124 0.729747 0
M  V30 2024 O 188.606 -2.16141 -0.105781 0
M  V30 2025 C 189.201 -1.30904 3.12489 0
M  V30 2026 C 187.76 -1.81676 3.29653 0
M  V30 2027 C 186.907 -0.701349 2.68284 0
M  V30 2028 H 189.858 0.0686989 1.58551 0
M  V30 2029 H 189.879 -2.17882 3.11942 0
M  V30 2030 H 189.391 -0.505796 3.8479 0
M  V30 2031 H 187.492 -2.64598 2.62333 0
M  V30 2032 H 187.605 -1.95226 4.3752 0
M  V30 2033 H 185.969 -1.12548 2.28484 0
M  V30 2034 H 186.752 0.0902846 3.43181 0
M  V30 2035 N 189.197 -1.51736 -0.425897 0
M  V30 2036 C 190.107 -1.76738 -1.54275 0
M  V30 2037 C 191.123 -0.65211 -1.61318 0
M  V30 2038 O 192.299 -0.935654 -1.78346 0
M  V30 2039 C 189.364 -1.89755 -2.90162 0
M  V30 2040 C 188.425 -3.13633 -2.93143 0
M  V30 2041 C 187.658 -3.2602 -4.22548 0
M  V30 2042 O 187.881 -2.44067 -5.15546 0
M  V30 2043 O 186.815 -4.19071 -4.32046 0
M  V30 2044 H 190.641 -2.71502 -1.36089 0
M  V30 2045 H 188.226 -1.36376 -0.610069 0
M  V30 2046 H 190.108 -2.00236 -3.70788 0
M  V30 2047 H 188.783 -0.981785 -3.08452 0
M  V30 2048 H 187.69 -3.08622 -2.11431 0
M  V30 2049 H 189.023 -4.04936 -2.798 0
M  V30 2050 N 190.675 0.682077 -1.42076 0
M  V30 2051 C 191.605 1.80796 -1.47767 0
M  V30 2052 C 192.586 1.6677 -0.334954 0
M  V30 2053 O 193.771 1.863 -0.548264 0
M  V30 2054 C 190.901 3.19038 -1.37229 0
M  V30 2055 C 189.855 3.47789 -2.49453 0
M  V30 2056 C 189.181 4.8553 -2.23975 0
M  V30 2057 C 190.481 3.45411 -3.91776 0
M  V30 2058 H 192.175 1.7629 -2.41997 0
M  V30 2059 H 189.721 0.846721 -1.16476 0
M  V30 2060 H 191.674 3.97528 -1.39821 0
M  V30 2061 H 190.398 3.24204 -0.394907 0
M  V30 2062 H 189.057 2.71657 -2.46166 0
M  V30 2063 H 188.705 4.87337 -1.24547 0
M  V30 2064 H 188.405 5.0573 -2.99184 0
M  V30 2065 H 189.929 5.66312 -2.28304 0
M  V30 2066 H 191.343 4.13882 -3.96705 0
M  V30 2067 H 189.74 3.77145 -4.66778 0
M  V30 2068 H 190.81 2.44122 -4.18966 0
M  V30 2069 N 192.153 1.28127 0.917671 0
M  V30 2070 C 193.1 1.11717 2.0196 0
M  V30 2071 C 194.07 0.0153929 1.66093 0
M  V30 2072 O 195.255 0.179596 1.89953 0
M  V30 2073 C 192.395 0.780927 3.36148 0
M  V30 2074 C 191.508 1.96135 3.84909 0
M  V30 2075 C 190.643 1.56609 5.0759 0
M  V30 2076 C 189.682 2.71339 5.48673 0
M  V30 2077 N 188.819 2.32332 6.62545 0
M  V30 2078 H 193.659 2.06003 2.15329 0
M  V30 2079 H 191.196 1.02535 1.05475 0
M  V30 2080 H 193.154 0.56675 4.13333 0
M  V30 2081 H 191.784 -0.124998 3.22558 0
M  V30 2082 H 190.836 2.28777 3.03916 0
M  V30 2083 H 192.148 2.82165 4.1132 0
M  V30 2084 H 191.302 1.31374 5.92305 0
M  V30 2085 H 190.041 0.677014 4.82978 0
M  V30 2086 H 189.046 2.97276 4.62501 0
M  V30 2087 H 190.271 3.60882 5.75274 0
M  V30 2088 H 188.217 1.45889 6.39572 0
M  V30 2089 H 188.134 3.11899 6.88662 0
M  V30 2090 H 189.402 2.10371 7.50576 0
M  V30 2091 N 193.631 -1.12557 1.10312 0
M  V30 2092 C 194.561 -2.20341 0.772798 0
M  V30 2093 C 195.542 -1.68198 -0.25365 0
M  V30 2094 O 196.727 -1.93831 -0.119699 0
M  V30 2095 C 193.857 -3.46709 0.202443 0
M  V30 2096 C 192.811 -4.11996 1.15943 0
M  V30 2097 C 192.137 -5.328 0.450345 0
M  V30 2098 C 193.437 -4.5828 2.50552 0
M  V30 2099 H 195.131 -2.48229 1.674 0
M  V30 2100 H 192.677 -1.19308 0.806326 0
M  V30 2101 H 194.63 -4.2138 -0.0407752 0
M  V30 2102 H 193.354 -3.18245 -0.734001 0
M  V30 2103 H 192.013 -3.39305 1.38808 0
M  V30 2104 H 191.661 -5.00602 -0.490531 0
M  V30 2105 H 191.361 -5.7743 1.08851 0
M  V30 2106 H 192.885 -6.10219 0.215642 0
M  V30 2107 H 194.299 -5.2433 2.31843 0
M  V30 2108 H 192.696 -5.13683 3.10242 0
M  V30 2109 H 193.766 -3.72329 3.10643 0
M  V30 2110 N 195.109 -0.891671 -1.2995 0
M  V30 2111 C 196.039 -0.379797 -2.30391 0
M  V30 2112 C 197.02 0.540919 -1.6127 0
M  V30 2113 O 198.205 0.453352 -1.88834 0
M  V30 2114 C 195.335 0.400654 -3.44981 0
M  V30 2115 C 194.289 -0.428905 -4.25846 0
M  V30 2116 C 193.615 0.478557 -5.32554 0
M  V30 2117 C 194.915 -1.67458 -4.94727 0
M  V30 2118 H 196.609 -1.21914 -2.73454 0
M  V30 2119 H 194.155 -0.587675 -1.31462 0
M  V30 2120 H 196.108 0.769434 -4.14316 0
M  V30 2121 H 194.832 1.27371 -3.0074 0
M  V30 2122 H 193.491 -0.779911 -3.58208 0
M  V30 2123 H 193.139 1.34951 -4.84559 0
M  V30 2124 H 192.839 -0.0727433 -5.87555 0
M  V30 2125 H 194.363 0.843705 -6.04743 0
M  V30 2126 H 195.777 -1.376 -5.56542 0
M  V30 2127 H 194.174 -2.16659 -5.59624 0
M  V30 2128 H 195.244 -2.41518 -4.20473 0
M  V30 2129 N 196.587 1.43421 -0.653314 0
M  V30 2130 C 197.827 2.03689 -0.170346 0
M  V30 2131 C 198.191 1.50427 1.19314 0
M  V30 2132 O 199.392 2.0234 1.76952 0
M  V30 2133 C 197.663 3.56946 -0.180183 0
M  V30 2134 S 199.222 4.38171 0.234925 0
M  V30 2135 H 196.04 0.707345 -0.0719976 0
M  V30 2136 H 198.642 1.75486 -0.86167 0
M  V30 2137 H 197.346 3.93212 -1.17526 0
M  V30 2138 H 196.877 3.89791 0.531675 0
M  V30 2139 H 198.892 4.73808 1.47378 0
M  V30 2140 N 198.065 0.39524 1.52563 0
M  V30 2141 C 199.313 -0.184678 2.01254 0
M  V30 2142 C 199.634 -1.46822 1.28329 0
M  V30 2143 O 198.904 -1.91666 0.405094 0
M  V30 2144 H 197.484 -0.0712355 0.743596 0
M  V30 2145 H 200.146 0.528293 1.87603 0
M  V30 2146 H 199.242 -0.390681 3.09645 0
M  V30 2147 N 199.544 -1.57102 0.125237 0
M  V30 2148 C 200.507 -2.14471 -0.80838 0
M  V30 2149 C 201.507 -1.0811 -1.19033 0
M  V30 2150 O 202.697 -1.33856 -1.11482 0
M  V30 2151 C 199.829 -2.69005 -2.09402 0
M  V30 2152 H 201.022 -2.98297 -0.309696 0
M  V30 2153 H 198.575 -1.55807 -0.124051 0
M  V30 2154 H 199.31 -1.88785 -2.63687 0
M  V30 2155 H 199.095 -3.46799 -1.82957 0
M  V30 2156 H 200.585 -3.13278 -2.76128 0
M  V30 2157 N 201.022 0.148545 -1.56898 0
M  V30 2158 C 202.299 0.890019 -1.74178 0
M  V30 2159 C 202.679 1.99407 -0.692839 0
M  V30 2160 O 202.027 2.26671 0.288505 0
M  V30 2161 C 202.237 1.43389 -3.18183 0
M  V30 2162 C 203.585 1.89791 -3.79822 0
M  V30 2163 O 204.609 1.53134 -3.21603 0
M  V30 2164 O 203.468 2.57387 -4.82093 0
M  V30 2165 H 200.562 0.420496 -0.712118 0
M  V30 2166 H 203.108 0.134591 -1.69165 0
M  V30 2167 H 201.88 0.640383 -3.86024 0
M  V30 2168 H 201.503 2.25287 -3.27615 0
M  V30 2169 N 202.5 1.5196 0.417844 0
M  V30 2170 C 203.746 1.65836 1.16732 0
M  V30 2171 C 204.079 0.382881 1.90388 0
M  V30 2172 O 203.354 -0.618368 1.84408 0
M  V30 2173 C 203.637 2.87466 2.16876 0
M  V30 2174 C 203.49 4.25041 1.47174 0
M  V30 2175 C 204.809 3.04613 3.17646 0
M  V30 2176 H 201.928 0.603515 0.423011 0
M  V30 2177 H 204.57 1.84494 0.454105 0
M  V30 2178 H 202.72 2.71689 2.777 0
M  V30 2179 H 204.392 4.52527 0.895376 0
M  V30 2180 H 202.635 4.26843 0.773806 0
M  V30 2181 H 203.306 5.06176 2.20204 0
M  V30 2182 H 205.782 3.1923 2.66892 0
M  V30 2183 H 204.658 3.91247 3.8499 0
M  V30 2184 H 204.919 2.17541 3.84874 0
M  V30 2185 N 203.978 -0.674533 1.42435 0
M  V30 2186 C 204.908 -1.80009 1.48724 0
M  V30 2187 C 205.889 -1.6659 0.343793 0
M  V30 2188 O 207.074 -1.86007 0.558137 0
M  V30 2189 C 204.204 -3.18306 1.38919 0
M  V30 2190 C 203.158 -3.46461 2.51294 0
M  V30 2191 C 202.484 -4.84335 2.26547 0
M  V30 2192 C 203.784 -3.43328 3.93603 0
M  V30 2193 H 205.478 -1.75004 2.42928 0
M  V30 2194 H 203.024 -0.840533 1.16923 0
M  V30 2195 H 204.977 -3.9678 1.41927 0
M  V30 2196 H 203.701 -3.2399 0.412094 0
M  V30 2197 H 202.36 -2.70348 2.47604 0
M  V30 2198 H 202.008 -4.86669 1.2713 0
M  V30 2199 H 201.708 -5.04136 3.01861 0
M  V30 2200 H 203.232 -5.65094 2.31304 0
M  V30 2201 H 204.646 -4.11772 3.98894 0
M  V30 2202 H 203.043 -3.74664 4.68771 0
M  V30 2203 H 204.113 -2.41897 4.20255 0
M  V30 2204 N 205.456 -1.28612 -0.910864 0
M  V30 2205 C 206.403 -1.12786 -2.01365 0
M  V30 2206 C 207.373 -0.024201 -1.66082 0
M  V30 2207 O 208.558 -0.189667 -1.89855 0
M  V30 2208 C 205.698 -0.798743 -3.35729 0
M  V30 2209 C 204.811 -1.98173 -3.83864 0
M  V30 2210 C 203.946 -1.59298 -5.06752 0
M  V30 2211 C 202.985 -2.74245 -5.47226 0
M  V30 2212 N 202.122 -2.35842 -6.61304 0
M  V30 2213 H 206.962 -2.07142 -2.14234 0
M  V30 2214 H 204.499 -1.03093 -1.0493 0
M  V30 2215 H 206.457 -0.588662 -4.13026 0
M  V30 2216 H 205.087 0.10789 -3.2262 0
M  V30 2217 H 204.139 -2.30386 -3.02699 0
M  V30 2218 H 205.451 -2.84343 -4.09818 0
M  V30 2219 H 204.605 -1.34513 -5.916 0
M  V30 2220 H 203.344 -0.702618 -4.82612 0
M  V30 2221 H 202.349 -2.99725 -4.60918 0
M  V30 2222 H 203.574 -3.63928 -5.73353 0
M  V30 2223 H 201.52 -1.49279 -6.38789 0
M  V30 2224 H 201.437 -3.15546 -6.86998 0
M  V30 2225 H 202.705 -2.14348 -7.4945 0
M  V30 2226 N 206.934 1.1197 -1.10907 0
M  V30 2227 C 208.162 1.87402 -0.876824 0
M  V30 2228 C 208.577 1.79894 0.573025 0
M  V30 2229 O 207.934 1.17629 1.39534 0
M  V30 2230 C 207.985 3.36428 -1.32282 0
M  V30 2231 O 207.706 3.43765 -2.71582 0
M  V30 2232 C 209.207 4.28783 -1.12518 0
M  V30 2233 H 206.427 0.592793 -0.314384 0
M  V30 2234 H 208.971 1.41649 -1.47499 0
M  V30 2235 H 207.126 3.79706 -0.768229 0
M  V30 2236 H 207.54 4.3652 -2.90776 0
M  V30 2237 H 209.014 5.31613 -1.48633 0
M  V30 2238 H 209.491 4.39153 -0.0642394 0
M  V30 2239 H 210.097 3.91291 -1.66648 0
M  V30 2240 N 208.412 0.89855 1.29475 0
M  V30 2241 C 209.659 0.523882 1.95606 0
M  V30 2242 C 209.987 -0.929608 1.70847 0
M  V30 2243 O 209.242 -1.67401 1.01367 0
M  V30 2244 C 209.541 0.761398 3.49195 0
M  V30 2245 C 209.207 2.19207 3.94029 0
M  V30 2246 C 207.869 2.58326 4.05982 0
M  V30 2247 C 210.221 3.12379 4.17216 0
M  V30 2248 C 207.549 3.898 4.38489 0
M  V30 2249 C 209.901 4.43401 4.51197 0
M  V30 2250 C 208.565 4.82394 4.61359 0
M  V30 2251 H 207.835 0.191702 0.715773 0
M  V30 2252 H 210.482 1.13699 1.54094 0
M  V30 2253 H 208.787 0.0653622 3.91745 0
M  V30 2254 H 210.484 0.450904 3.98457 0
M  V30 2255 H 207.074 1.87846 3.85242 0
M  V30 2256 H 211.258 2.83371 4.07449 0
M  V30 2257 H 206.514 4.19734 4.44559 0
M  V30 2258 H 210.688 5.15623 4.68087 0
M  V30 2259 H 208.315 5.84306 4.86303 0
M  V30 2260 N 209.89 -1.43072 0.660911 0
M  V30 2261 C 210.822 -2.29108 -0.0647641 0
M  V30 2262 C 211.835 -1.42928 -0.779448 0
M  V30 2263 O 213.024 -1.66788 -0.635921 0
M  V30 2264 C 210.124 -3.20032 -1.11503 0
M  V30 2265 C 209.297 -4.34792 -0.476955 0
M  V30 2266 C 208.356 -5.06534 -1.42513 0
M  V30 2267 O 207.382 -5.61538 -0.930771 0
M  V30 2268 N 208.584 -5.1075 -2.75889 0
M  V30 2269 H 211.349 -2.92029 0.673731 0
M  V30 2270 H 208.91 -1.53846 0.50427 0
M  V30 2271 H 210.902 -3.64892 -1.75032 0
M  V30 2272 H 209.472 -2.58658 -1.75541 0
M  V30 2273 H 208.692 -3.92752 0.337572 0
M  V30 2274 H 209.98 -5.0879 -0.0318525 0
M  V30 2275 H 209.378 -4.67447 -3.18606 0
M  V30 2276 H 207.935 -5.59302 -3.347 0
M  V30 2277 N 211.368 -0.403325 -1.52352 0
M  V30 2278 C 212.596 0.174012 -2.06167 0
M  V30 2279 C 213.011 1.39347 -1.27388 0
M  V30 2280 O 212.368 1.79597 -0.324201 0
M  V30 2281 C 212.419 0.530223 -3.5759 0
M  V30 2282 O 212.14 -0.640806 -4.33388 0
M  V30 2283 C 213.641 1.16192 -4.27802 0
M  V30 2284 H 210.861 0.0229464 -0.670608 0
M  V30 2285 H 213.405 -0.572604 -1.9632 0
M  V30 2286 H 211.56 1.22673 -3.67464 0
M  V30 2287 H 211.974 -0.344851 -5.23365 0
M  V30 2288 H 213.448 1.36141 -5.34948 0
M  V30 2289 H 213.925 2.13335 -3.83907 0
M  V30 2290 H 214.531 0.505775 -4.22282 0
M  V30 2291 N 212.846 1.57033 -0.133567 0
M  V30 2292 C 214.257 1.82593 0.389464 0
M  V30 2293 C 214.608 1.05156 1.6564 0
M  V30 2294 O 213.733 0.292644 2.14412 0
M  V30 2295 C 214.328 3.31204 0.713377 0
M  V30 2296 C 212.887 3.57393 1.18098 0
M  V30 2297 C 212.034 2.76598 0.197126 0
M  V30 2298 H 214.985 1.54598 -0.358481 0
M  V30 2299 H 215.006 3.46627 1.56939 0
M  V30 2300 H 214.518 3.87537 -0.2089 0
M  V30 2301 H 212.619 3.06433 2.11966 0
M  V30 2302 H 212.732 4.65915 1.11624 0
M  V30 2303 H 211.096 2.45257 0.687088 0
M  V30 2304 H 211.879 3.35697 -0.718504 0
M  V30 2305 N 214.325 -0.140222 1.56975 0
M  V30 2306 C 215.273 -1.19207 1.99731 0
M  V30 2307 C 216.267 -1.44089 0.890777 0
M  V30 2308 O 217.473 -1.44301 1.07597 0
M  V30 2309 H 213.848 -0.40142 0.635898 0
M  V30 2310 H 215.819 -0.804813 2.87342 0
M  V30 2311 C 214.568 -2.51617 2.39967 0
M  V30 2312 H 213.891 -2.33303 3.24669 0
M  V30 2313 H 215.331 -3.23827 2.73701 0
M  V30 2314 C 213.79 -3.12654 1.25496 0
M  V30 2315 O 214.32 -3.97786 0.559371 0
M  V30 2316 N 212.526 -2.72206 1.01746 0
M  V30 2317 H 212.073 -2.03074 1.58489 0
M  V30 2318 H 212.031 -3.13377 0.253461 0
M  V30 2319 N 215.803 -1.52179 -0.40978 0
M  V30 2320 C 216.733 -1.78435 -1.5061 0
M  V30 2321 C 217.714 -0.635295 -1.57791 0
M  V30 2322 O 218.899 -0.880823 -1.73076 0
M  V30 2323 C 216.029 -1.93444 -2.88439 0
M  V30 2324 C 214.983 -3.09038 -2.96108 0
M  V30 2325 C 214.309 -3.09268 -4.36185 0
M  V30 2326 C 215.609 -4.48508 -2.67652 0
M  V30 2327 H 217.303 -2.70237 -1.28889 0
M  V30 2328 H 214.849 -1.30036 -0.618605 0
M  V30 2329 H 216.802 -2.10394 -3.65119 0
M  V30 2330 H 215.526 -0.983129 -3.11452 0
M  V30 2331 H 214.185 -2.91837 -2.21872 0
M  V30 2332 H 213.833 -2.11861 -4.56206 0
M  V30 2333 H 213.533 -3.86907 -4.42241 0
M  V30 2334 H 215.057 -3.28348 -5.14801 0
M  V30 2335 H 216.471 -4.65918 -3.34056 0
M  V30 2336 H 214.868 -5.28059 -2.85085 0
M  V30 2337 H 215.938 -4.56649 -1.63095 0
M  V30 2338 N 217.281 0.66697 -1.42791 0
M  V30 2339 C 218.527 1.42754 -1.44889 0
M  V30 2340 C 218.882 1.92283 -0.0669755 0
M  V30 2341 O 218.175 1.68494 0.912154 0
M  V30 2342 C 218.369 2.6349 -2.4147 0
M  V30 2343 C 218.198 2.25776 -3.88915 0
M  V30 2344 C 216.968 2.1476 -4.57391 0
M  V30 2345 C 219.166 1.86927 -4.79127 0
M  V30 2346 N 217.148 1.70232 -5.89826 0
M  V30 2347 C 218.519 1.53378 -6.00729 0
M  V30 2348 C 220.574 1.73989 -4.66511 0
M  V30 2349 C 219.277 1.08187 -7.11117 0
M  V30 2350 C 221.303 1.30203 -5.76889 0
M  V30 2351 C 220.665 0.975818 -6.97608 0
M  V30 2352 H 216.764 0.518559 -0.585338 0
M  V30 2353 H 219.348 0.768906 -1.78874 0
M  V30 2354 H 217.519 3.27033 -2.09533 0
M  V30 2355 H 219.251 3.30123 -2.34096 0
M  V30 2356 H 216.006 2.3408 -4.11708 0
M  V30 2357 H 216.43 1.50369 -6.6009 0
M  V30 2358 H 221.072 1.97853 -3.7365 0
M  V30 2359 H 218.79 0.830701 -8.03819 0
M  V30 2360 H 222.376 1.20701 -5.69142 0
M  V30 2361 H 221.256 0.642157 -7.81566 0
M  V30 2362 N 218.759 1.29093 0.90403 0
M  V30 2363 C 219.706 1.13853 2.00764 0
M  V30 2364 C 220.676 0.0330084 1.66067 0
M  V30 2365 O 221.861 0.199733 1.89752 0
M  V30 2366 C 219.001 0.816537 3.35301 0
M  V30 2367 C 218.114 2.00206 3.82807 0
M  V30 2368 C 217.249 1.61983 5.059 0
M  V30 2369 C 216.288 2.77143 5.45764 0
M  V30 2370 N 215.425 2.39346 6.60044 0
M  V30 2371 H 220.265 2.08276 2.13132 0
M  V30 2372 H 217.802 1.03648 1.04381 0
M  V30 2373 H 219.76 0.610557 4.12708 0
M  V30 2374 H 218.39 -0.090779 3.22672 0
M  V30 2375 H 217.442 2.31988 3.01473 0
M  V30 2376 H 218.754 2.86512 4.08304 0
M  V30 2377 H 217.908 1.37649 5.90879 0
M  V30 2378 H 216.647 0.728202 4.82233 0
M  V30 2379 H 215.652 3.02165 4.59322 0
M  V30 2380 H 216.877 3.66964 5.71414 0
M  V30 2381 H 214.823 1.52665 6.37989 0
M  V30 2382 H 214.74 3.19185 6.85315 0
M  V30 2383 H 216.008 2.1832 7.48303 0
M  V30 2384 N 220.237 -1.11381 1.11499 0
M  V30 2385 C 221.514 -1.7955 0.775965 0
M  V30 2386 C 221.894 -1.97859 -0.73588 0
M  V30 2387 O 221.242 -1.56376 -1.66609 0
M  V30 2388 C 221.452 -3.13196 1.53977 0
M  V30 2389 C 222.8 -3.88227 1.71944 0
M  V30 2390 O 223.824 -3.22887 1.50407 0
M  V30 2391 O 222.683 -5.05477 2.07738 0
M  V30 2392 H 219.777 -0.777728 0.28119 0
M  V30 2393 H 222.323 -1.18118 1.21845 0
M  V30 2394 H 221.095 -2.95229 2.56818 0
M  V30 2395 H 220.718 -3.82342 1.09088 0
M  V30 2396 N 221.715 -0.905404 -1.28997 0
M  V30 2397 C 222.678 -0.392253 -2.25819 0
M  V30 2398 C 223.678 0.476753 -1.5357 0
M  V30 2399 O 224.868 0.280994 -1.71919 0
M  V30 2400 C 222 0.438588 -3.38067 0
M  V30 2401 H 223.193 -1.24743 -2.72725 0
M  V30 2402 H 220.746 -0.684051 -1.40536 0
M  V30 2403 H 221.481 1.31352 -2.96508 0
M  V30 2404 H 221.266 -0.184167 -3.91667 0
M  V30 2405 H 222.756 0.78873 -4.10084 0
M  V30 2406 N 223.193 1.4272 -0.668489 0
M  V30 2407 C 224.143 2.27971 0.0363806 0
M  V30 2408 C 225.127 1.40741 0.779794 0
M  V30 2409 O 226.319 1.64245 0.659745 0
M  V30 2410 C 223.448 3.28673 0.991398 0
M  V30 2411 C 222.534 4.23388 0.245658 0
M  V30 2412 N 222.925 5.00267 -0.746069 0
M  V30 2413 C 221.223 4.43355 0.484988 0
M  V30 2414 C 221.924 5.69396 -1.19009 0
M  V30 2415 N 220.9 5.41095 -0.521287 0
M  V30 2416 H 224.702 2.84833 -0.724394 0
M  V30 2417 H 222.216 1.54607 -0.497028 0
M  V30 2418 H 224.213 3.88543 1.51129 0
M  V30 2419 H 222.873 2.73373 1.75207 0
M  V30 2420 H 223.884 5.05525 -1.12537 0
M  V30 2421 H 220.561 3.99104 1.22565 0
M  V30 2422 H 221.951 6.41083 -2.01153 0
M  V30 2423 N 224.671 0.411399 1.52136 0
M  V30 2424 C 225.92 -0.165009 2.01024 0
M  V30 2425 C 226.233 -1.4603 1.30133 0
M  V30 2426 O 227.439 -2.1181 1.69849 0
M  V30 2427 C 225.895 -0.344618 3.58246 0
M  V30 2428 C 225.503 0.938716 4.38055 0
M  V30 2429 C 227.247 -0.876195 4.15359 0
M  V30 2430 C 225.154 0.726172 5.86925 0
M  V30 2431 H 224.084 -0.0654407 0.751155 0
M  V30 2432 H 226.735 0.537192 1.75461 0
M  V30 2433 H 225.117 -1.10921 3.80148 0
M  V30 2434 H 226.291 1.70963 4.27912 0
M  V30 2435 H 224.606 1.39688 3.92271 0
M  V30 2436 H 227.203 -1.05128 5.24263 0
M  V30 2437 H 227.546 -1.85152 3.7286 0
M  V30 2438 H 228.079 -0.170607 3.97434 0
M  V30 2439 H 224.818 1.67312 6.33788 0
M  V30 2440 H 224.338 -0.00540283 5.998 0
M  V30 2441 H 226.017 0.369231 6.45946 0
M  V30 2442 N 226.149 -1.5696 0.141893 0
M  V30 2443 C 227.081 -2.13619 -0.830627 0
M  V30 2444 C 228.094 -1.08439 -1.21428 0
M  V30 2445 O 229.283 -1.35734 -1.15925 0
M  V30 2446 C 226.383 -2.63978 -2.12529 0
M  V30 2447 C 225.556 -3.93504 -1.9098 0
M  V30 2448 C 224.615 -4.29225 -3.04388 0
M  V30 2449 O 223.641 -4.97641 -2.76302 0
M  V30 2450 N 224.843 -3.88393 -4.31429 0
M  V30 2451 H 227.608 -2.97691 -0.34641 0
M  V30 2452 H 225.169 -1.61846 -0.0418375 0
M  V30 2453 H 227.161 -2.84891 -2.87436 0
M  V30 2454 H 225.731 -1.84659 -2.52229 0
M  V30 2455 H 224.951 -3.81269 -1.00139 0
M  V30 2456 H 226.239 -4.78154 -1.73914 0
M  V30 2457 H 225.637 -3.33257 -4.57117 0
M  V30 2458 H 224.194 -4.14368 -5.03133 0
M  V30 2459 N 227.627 0.131896 -1.57047 0
M  V30 2460 C 228.537 1.1815 -2.02676 0
M  V30 2461 C 229.553 1.46113 -0.944824 0
M  V30 2462 O 230.729 1.57485 -1.25541 0
M  V30 2463 C 227.794 2.49139 -2.41103 0
M  V30 2464 C 226.855 2.28688 -3.63318 0
M  V30 2465 C 226.088 3.53431 -3.99903 0
M  V30 2466 O 226.311 4.60223 -3.36973 0
M  V30 2467 O 225.245 3.45198 -4.93074 0
M  V30 2468 H 229.071 0.824069 -2.92306 0
M  V30 2469 H 226.656 0.341745 -1.45439 0
M  V30 2470 H 228.538 3.26338 -2.66611 0
M  V30 2471 H 227.213 2.84382 -1.54624 0
M  V30 2472 H 226.12 1.4939 -3.42977 0
M  V30 2473 H 227.453 1.98355 -4.50462 0
M  V30 2474 N 229.106 1.52395 0.401703 0
M  V30 2475 C 230.355 1.66044 1.14509 0
M  V30 2476 C 230.668 0.400216 1.91462 0
M  V30 2477 O 231.874 0.416632 2.68284 0
M  V30 2478 C 230.33 2.93388 2.0845 0
M  V30 2479 C 229.938 4.26545 1.36978 0
M  V30 2480 C 231.682 3.16402 2.83001 0
M  V30 2481 C 229.589 5.45007 2.29611 0
M  V30 2482 H 228.519 0.618562 0.431158 0
M  V30 2483 H 231.17 1.78886 0.40892 0
M  V30 2484 H 229.552 2.74263 2.8565 0
M  V30 2485 H 230.726 4.56179 0.650916 0
M  V30 2486 H 229.041 4.09692 0.74438 0
M  V30 2487 H 231.638 4.02085 3.52465 0
M  V30 2488 H 231.981 2.30943 3.46368 0
M  V30 2489 H 232.514 3.36034 2.12898 0
M  V30 2490 H 229.253 6.32835 1.70879 0
M  V30 2491 H 228.773 5.19702 2.9945 0
M  V30 2492 H 230.452 5.7838 2.89974 0
M  V30 2493 N 230.584 -0.659388 1.43143 0
M  V30 2494 C 231.83 -1.42145 1.44647 0
M  V30 2495 C 232.163 -1.9408 0.0681907 0
M  V30 2496 O 231.438 -1.71899 -0.910007 0
M  V30 2497 C 231.721 -2.60735 2.48373 0
M  V30 2498 C 231.574 -2.14332 3.95451 0
M  V30 2499 C 232.893 -3.62951 2.48906 0
M  V30 2500 H 230.012 -0.51552 0.526696 0
M  V30 2501 H 232.654 -0.748069 1.74654 0
M  V30 2502 H 230.804 -3.18184 2.22916 0
M  V30 2503 H 232.476 -1.61932 4.31944 0
M  V30 2504 H 230.719 -1.4576 4.08578 0
M  V30 2505 H 231.39 -2.99583 4.63631 0
M  V30 2506 H 233.866 -3.1525 2.71582 0
M  V30 2507 H 232.742 -4.43487 3.23435 0
M  V30 2508 H 233.003 -4.15126 1.52061 0
M  V30 2509 N 232.062 -1.29571 -0.897171 0
M  V30 2510 C 232.972 -1.16808 -2.03453 0
M  V30 2511 C 233.988 -0.0907471 -1.73763 0
M  V30 2512 O 235.164 -0.303312 -1.99103 0
M  V30 2513 C 232.229 -0.848264 -3.36163 0
M  V30 2514 C 231.29 -2.0097 -3.79354 0
M  V30 2515 C 230.523 -1.70505 -5.05731 0
M  V30 2516 O 230.746 -0.62718 -5.66941 0
M  V30 2517 O 229.68 -2.5538 -5.45036 0
M  V30 2518 H 233.506 -2.12325 -2.17144 0
M  V30 2519 H 231.091 -1.09047 -1.02123 0
M  V30 2520 H 232.973 -0.684581 -4.15802 0
M  V30 2521 H 231.648 0.0771071 -3.23608 0
M  V30 2522 H 230.555 -2.22863 -3.00471 0
M  V30 2523 H 231.888 -2.91636 -3.96496 0
M  V30 2524 N 233.54 1.10788 -1.12088 0
M  V30 2525 C 234.487 2.17025 -0.785407 0
M  V30 2526 C 235.457 1.64265 0.246191 0
M  V30 2527 O 236.642 1.90412 0.121584 0
M  V30 2528 C 233.782 3.44249 -0.242177 0
M  V30 2529 C 232.895 4.1098 -1.33115 0
M  V30 2530 C 232.03 5.25911 -0.747741 0
M  V30 2531 C 231.069 5.84538 -1.81609 0
M  V30 2532 N 230.206 6.90853 -1.25167 0
M  V30 2533 H 235.046 2.45066 -1.69548 0
M  V30 2534 H 232.583 1.20297 -0.846582 0
M  V30 2535 H 234.541 4.17101 0.0908026 0
M  V30 2536 H 233.171 3.16571 0.631072 0
M  V30 2537 H 232.223 3.36133 -1.78097 0
M  V30 2538 H 233.535 4.50601 -2.13917 0
M  V30 2539 H 232.689 6.056 -0.365216 0
M  V30 2540 H 231.428 4.87614 0.0915188 0
M  V30 2541 H 230.433 5.03522 -2.20785 0
M  V30 2542 H 231.658 6.249 -2.6585 0
M  V30 2543 H 229.604 6.54562 -0.434174 0
M  V30 2544 H 229.521 7.29166 -1.99633 0
M  V30 2545 H 230.789 7.7433 -0.896259 0
M  V30 2546 N 235.018 0.912232 1.28515 0
M  V30 2547 C 236.265 0.544599 1.95039 0
M  V30 2548 C 236.593 -0.911435 1.71823 0
M  V30 2549 O 235.848 -1.66317 1.03137 0
M  V30 2550 C 236.147 0.798392 3.48368 0
M  V30 2551 C 235.813 2.23374 3.91682 0
M  V30 2552 C 234.475 2.62617 4.03219 0
M  V30 2553 C 236.827 3.16786 4.13879 0
M  V30 2554 C 234.155 3.94429 4.3433 0
M  V30 2555 C 236.507 4.48161 4.46469 0
M  V30 2556 C 235.171 4.8726 4.56217 0
M  V30 2557 H 234.441 0.199283 0.7137 0
M  V30 2558 H 237.088 1.15327 1.52879 0
M  V30 2559 H 235.393 0.106908 3.91654 0
M  V30 2560 H 237.09 0.493141 3.97956 0
M  V30 2561 H 233.68 1.91922 3.83228 0
M  V30 2562 H 237.864 2.87677 4.0442 0
M  V30 2563 H 233.12 4.24426 4.40082 0
M  V30 2564 H 237.294 5.20559 4.62592 0
M  V30 2565 H 234.921 5.89431 4.80078 0
M  V30 2566 N 236.496 -1.42363 0.676048 0
M  V30 2567 C 237.744 -2.01123 0.198437 0
M  V30 2568 C 238.065 -1.53731 -1.19966 0
M  V30 2569 O 237.335 -0.759518 -1.80577 0
M  V30 2570 H 235.915 -0.743678 0.0703721 0
M  V30 2571 H 238.577 -1.74263 0.872837 0
M  V30 2572 H 237.673 -3.11454 0.200686 0
M  V30 2573 N 237.974 -0.419461 -1.51915 0
M  V30 2574 C 238.904 0.391813 -2.30189 0
M  V30 2575 C 239.885 1.03699 -1.34836 0
M  V30 2576 O 241.07 1.04403 -1.63748 0
M  V30 2577 C 238.2 1.50312 -3.13087 0
M  V30 2578 C 237.154 0.9824 -4.16573 0
M  V30 2579 C 236.48 2.18809 -4.8788 0
M  V30 2580 C 237.78 0.0292356 -5.22292 0
M  V30 2581 H 239.474 -0.26135 -2.98257 0
M  V30 2582 H 237.02 -0.127134 -1.43438 0
M  V30 2583 H 238.973 2.07773 -3.66617 0
M  V30 2584 H 237.697 2.18431 -2.42807 0
M  V30 2585 H 236.356 0.430119 -3.64068 0
M  V30 2586 H 236.004 2.85507 -4.14119 0
M  V30 2587 H 235.704 1.84615 -5.57845 0
M  V30 2588 H 237.228 2.76858 -5.44226 0
M  V30 2589 H 238.642 0.512976 -5.71 0
M  V30 2590 H 237.039 -0.2244 -5.9968 0
M  V30 2591 H 238.109 -0.912931 -4.76228 0
M  V30 2592 N 239.452 1.56882 -0.150215 0
M  V30 2593 C 240.698 1.96518 0.500834 0
M  V30 2594 C 241.031 1.03527 1.64304 0
M  V30 2595 O 240.306 0.0782751 1.94342 0
M  V30 2596 C 240.589 3.45822 1.00395 0
M  V30 2597 C 240.442 4.49591 -0.136983 0
M  V30 2598 C 241.761 3.97704 1.88467 0
M  V30 2599 H 238.88 0.714535 0.18058 0
M  V30 2600 H 241.522 1.88577 -0.232091 0
M  V30 2601 H 239.672 3.5272 1.62851 0
M  V30 2602 H 241.344 4.5477 -0.77343 0
M  V30 2603 H 239.587 4.26441 -0.795652 0
M  V30 2604 H 240.258 5.51402 0.256815 0
M  V30 2605 H 242.734 3.93304 1.35834 0
M  V30 2606 H 241.61 5.0263 2.20578 0
M  V30 2607 H 241.871 3.40252 2.82279 0
M  V30 2608 N 240.93 -0.123565 1.57115 0
M  V30 2609 C 242.17 -0.838097 1.86428 0
M  V30 2610 C 242.534 -1.77266 0.737611 0
M  V30 2611 O 243.735 -2.52842 0.912389 0
M  V30 2612 C 242.006 -1.57219 3.20962 0
M  V30 2613 S 243.565 -2.32893 3.71896 0
M  V30 2614 H 240.383 -0.279811 0.653626 0
M  V30 2615 H 242.985 -0.0967034 1.95261 0
M  V30 2616 H 241.689 -0.877522 4.00909 0
M  V30 2617 H 241.22 -2.35405 3.15195 0
M  V30 2618 H 243.235 -3.5853 3.43032 0
M  V30 2619 N 242.408 -1.52605 -0.393616 0
M  V30 2620 C 243.654 -1.67672 -1.14079 0
M  V30 2621 C 243.987 -0.413121 -1.89755 0
M  V30 2622 O 243.262 0.588952 -1.85369 0
M  V30 2623 C 243.545 -2.9088 -2.12276 0
M  V30 2624 C 243.398 -4.27329 -1.40394 0
M  V30 2625 C 244.717 -3.09628 -3.12759 0
M  V30 2626 H 241.836 -0.610168 -0.413356 0
M  V30 2627 H 244.478 -1.85193 -0.424696 0
M  V30 2628 H 242.628 -2.76073 -2.73342 0
M  V30 2629 H 244.3 -4.53894 -0.82327 0
M  V30 2630 H 242.543 -4.2802 -0.705801 0
M  V30 2631 H 243.214 -5.09615 -2.12123 0
M  V30 2632 H 245.69 -3.23436 -2.61779 0
M  V30 2633 H 244.566 -3.97322 -3.78717 0
M  V30 2634 H 244.827 -2.23637 -3.81365 0
M  V30 2635 N 243.887 0.651787 -1.4349 0
M  V30 2636 C 245.135 1.40888 -1.44897 0
M  V30 2637 C 245.456 1.94856 -0.0749086 0
M  V30 2638 O 244.726 1.74518 0.889956 0
M  V30 2639 H 243.306 0.522887 -0.533478 0
M  V30 2640 H 245.968 0.768609 -1.79104 0
M  V30 2641 H 245.064 2.25052 -2.16236 0
M  V30 2642 N 245.365 1.30045 0.890287 0
M  V30 2643 C 246.781 1.08261 1.17268 0
M  V30 2644 C 246.981 -0.160063 2.00863 0
M  V30 2645 O 246.037 -0.855181 2.37577 0
M  V30 2646 C 247.35 2.34323 1.8845 0
M  V30 2647 C 248.898 2.39735 2.01237 0
M  V30 2648 C 249.373 3.65625 2.7583 0
M  V30 2649 N 250.864 3.66402 2.83379 0
M  V30 2650 C 251.599 4.60498 3.41657 0
M  V30 2651 N 251.095 5.64933 4.01026 0
M  V30 2652 N 252.888 4.48051 3.39421 0
M  V30 2653 H 245.039 2.09777 0.332762 0
M  V30 2654 H 247.302 0.92446 0.209948 0
M  V30 2655 H 247.008 3.2498 1.34465 0
M  V30 2656 H 246.882 2.4256 2.88867 0
M  V30 2657 H 249.269 1.4956 2.54393 0
M  V30 2658 H 249.35 2.35476 0.999232 0
M  V30 2659 H 248.994 4.56156 2.23347 0
M  V30 2660 H 248.924 3.67144 3.77509 0
M  V30 2661 H 251.415 2.90896 2.41222 0
M  V30 2662 H 251.728 6.32841 4.43545 0
M  V30 2663 H 250.073 5.68732 3.99461 0
M  V30 2664 H 253.264 3.65649 2.92264 0
M  V30 2665 H 253.437 5.21565 3.84544 0
M  V30 2666 N 246.843 -1.10192 1.12674 0
M  V30 2667 C 248.089 -1.82475 0.884915 0
M  V30 2668 C 248.422 -1.85093 -0.58773 0
M  V30 2669 O 247.697 -1.3134 -1.43457 0
M  V30 2670 C 247.98 -3.29018 1.46353 0
M  V30 2671 C 247.833 -3.34718 3.00473 0
M  V30 2672 C 249.152 -4.25473 1.12519 0
M  V30 2673 H 246.271 -0.662492 0.322915 0
M  V30 2674 H 248.913 -1.2913 1.39375 0
M  V30 2675 H 247.063 -3.74576 1.03077 0
M  V30 2676 H 248.735 -2.97622 3.52447 0
M  V30 2677 H 246.978 -2.74541 3.35872 0
M  V30 2678 H 247.649 -4.37918 3.36053 0
M  V30 2679 H 250.125 -3.88161 1.499 0
M  V30 2680 H 249.001 -5.26365 1.55663 0
M  V30 2681 H 249.262 -4.42084 0.0377407 0
M  V30 2682 N 248.321 -0.919034 -1.28029 0
M  V30 2683 C 249.569 -0.553838 -1.94363 0
M  V30 2684 C 249.89 0.906357 -1.72656 0
M  V30 2685 O 249.16 1.64143 -1.0693 0
M  V30 2686 H 247.74 -0.201834 -0.719216 0
M  V30 2687 H 250.402 -1.16954 -1.55909 0
M  V30 2688 H 249.498 -0.752758 -3.02886 0
M  V30 2689 N 249.799 1.42003 -0.683588 0
M  V30 2690 C 250.749 2.27997 0.0121992 0
M  V30 2691 C 251.733 1.4156 0.764822 0
M  V30 2692 O 252.925 1.64935 0.642287 0
M  V30 2693 C 250.054 3.29706 0.956482 0
M  V30 2694 C 249.14 4.23625 0.200739 0
M  V30 2695 N 249.531 4.99448 -0.799087 0
M  V30 2696 C 247.829 4.43845 0.437937 0
M  V30 2697 C 248.53 5.68102 -1.25041 0
M  V30 2698 N 247.506 5.40511 -0.578648 0
M  V30 2699 H 251.308 2.84048 -0.754564 0
M  V30 2700 H 248.822 1.54071 -0.513398 0
M  V30 2701 H 250.819 3.90124 1.47 0
M  V30 2702 H 249.479 2.75216 1.72297 0
M  V30 2703 H 250.49 5.04303 -1.17893 0
M  V30 2704 H 247.167 4.00382 1.18325 0
M  V30 2705 H 248.557 6.38913 -2.07942 0
M  V30 2706 N 251.277 0.427512 1.51691 0
M  V30 2707 C 252.554 -0.201684 1.94557 0
M  V30 2708 C 252.934 -1.60981 1.36559 0
M  V30 2709 O 252.282 -2.21814 0.548702 0
M  V30 2710 C 252.492 -0.189394 3.48486 0
M  V30 2711 C 253.84 -0.39978 4.22714 0
M  V30 2712 O 254.864 -0.267945 3.55191 0
M  V30 2713 O 253.723 -0.661249 5.42485 0
M  V30 2714 H 250.817 -0.135261 0.815864 0
M  V30 2715 H 253.363 0.484782 1.62628 0
M  V30 2716 H 252.135 0.795431 3.8313 0
M  V30 2717 H 251.758 -0.919187 3.86829 0
M  V30 2718 N 252.755 -1.56801 0.158532 0
M  V30 2719 C 254.166 -1.83189 -0.360366 0
M  V30 2720 C 254.517 -1.07778 -1.63946 0
M  V30 2721 O 253.642 -0.326718 -2.13919 0
M  V30 2722 C 254.237 -3.32297 -0.660595 0
M  V30 2723 C 252.796 -3.59227 -1.12398 0
M  V30 2724 C 251.943 -2.76877 -0.153097 0
M  V30 2725 H 254.894 -1.54008 0.383031 0
M  V30 2726 H 254.915 -3.4908 -1.51405 0
M  V30 2727 H 254.427 -3.87156 0.270527 0
M  V30 2728 H 252.528 -3.09766 -2.07064 0
M  V30 2729 H 252.641 -4.67632 -1.04197 0
M  V30 2730 H 251.005 -2.46319 -0.647983 0
M  V30 2731 H 251.788 -3.34511 0.77182 0
M  V30 2732 N 254.233 0.115231 -1.57178 0
M  V30 2733 C 255.18 1.14115 -2.00615 0
M  V30 2734 C 256.15 1.40939 -0.878941 0
M  V30 2735 O 257.335 1.52741 -1.14345 0
M  V30 2736 C 254.475 2.46156 -2.4187 0
M  V30 2737 C 253.588 2.26236 -3.68024 0
M  V30 2738 C 252.723 3.51534 -3.98243 0
M  V30 2739 C 251.762 3.26787 -5.17568 0
M  V30 2740 N 250.899 4.44298 -5.43639 0
M  V30 2741 H 255.739 0.763743 -2.88047 0
M  V30 2742 H 253.276 0.365615 -1.42484 0
M  V30 2743 H 255.234 3.23189 -2.63827 0
M  V30 2744 H 253.864 2.81783 -1.57475 0
M  V30 2745 H 252.916 1.40102 -3.5366 0
M  V30 2746 H 254.228 2.03929 -4.55208 0
M  V30 2747 H 253.382 4.36984 -4.20868 0
M  V30 2748 H 252.121 3.76876 -3.09541 0
M  V30 2749 H 251.126 2.39729 -4.94783 0
M  V30 2750 H 252.351 3.02812 -6.0785 0
M  V30 2751 H 250.297 4.69754 -4.57895 0
M  V30 2752 H 250.214 4.25109 -6.25154 0
M  V30 2753 H 251.482 5.3087 -5.70786 0
M  V30 2754 N 255.711 1.52812 0.385517 0
M  V30 2755 C 256.959 1.67694 1.12797 0
M  V30 2756 C 257.28 0.421115 1.90399 0
M  V30 2757 O 256.55 -0.564551 1.87589 0
M  V30 2758 H 255.13 0.618155 0.419396 0
M  V30 2759 H 257.792 1.89938 0.436972 0
M  V30 2760 H 256.888 2.52896 1.82894 0
M  V30 2761 N 257.189 -0.644168 1.43834 0
M  V30 2762 C 258.419 -1.42939 1.49171 0
M  V30 2763 C 258.827 -1.88874 0.111048 0
M  V30 2764 O 258.17 -1.60656 -0.8908 0
M  V30 2765 C 258.232 -2.69151 2.38324 0
M  V30 2766 C 257.896 -2.45097 3.85715 0
M  V30 2767 C 258.893 -2.07747 4.76589 0
M  V30 2768 C 256.578 -2.59141 4.30292 0
M  V30 2769 C 258.572 -1.8475 6.10038 0
M  V30 2770 C 256.259 -2.35759 5.63792 0
M  V30 2771 C 257.257 -1.9862 6.53482 0
M  V30 2772 O 256.945 -1.75489 7.84512 0
M  V30 2773 H 256.677 -0.445271 0.508635 0
M  V30 2774 H 259.231 -0.79621 1.8934 0
M  V30 2775 H 257.461 -3.3506 1.93058 0
M  V30 2776 H 259.15 -3.31123 2.3476 0
M  V30 2777 H 259.916 -1.96465 4.43426 0
M  V30 2778 H 255.795 -2.87022 3.60749 0
M  V30 2779 H 259.339 -1.55686 6.80006 0
M  V30 2780 H 255.236 -2.46646 5.9652 0
M  V30 2781 H 256.004 -1.89841 7.9618 0
M  V30 2782 N 258.668 -1.30515 -0.883378 0
M  V30 2783 C 259.917 -1.18795 -1.63005 0
M  V30 2784 C 260.23 0.255923 -1.93919 0
M  V30 2785 O 261.436 0.494654 -2.66956 0
M  V30 2786 C 259.892 -2.07878 -2.93794 0
M  V30 2787 C 259.5 -3.57184 -2.70414 0
M  V30 2788 C 261.244 -2.04924 -3.71761 0
M  V30 2789 C 259.151 -4.38317 -3.97029 0
M  V30 2790 H 258.081 -0.441031 -0.611562 0
M  V30 2791 H 260.732 -1.55275 -0.977854 0
M  V30 2792 H 259.114 -1.64283 -3.60315 0
M  V30 2793 H 260.288 -4.08937 -2.12384 0
M  V30 2794 H 258.603 -3.61976 -2.0582 0
M  V30 2795 H 261.2 -2.62792 -4.65665 0
M  V30 2796 H 261.543 -1.0331 -4.03277 0
M  V30 2797 H 262.076 -2.46649 -3.12104 0
M  V30 2798 H 258.815 -5.40632 -3.70671 0
M  V30 2799 H 258.335 -3.91326 -4.54559 0
M  V30 2800 H 260.014 -4.49834 -4.65036 0
M  V30 2801 N 260.146 1.09593 -1.13257 0
M  V30 2802 C 261.109 2.14359 -0.811358 0
M  V30 2803 C 262.109 1.59808 0.178377 0
M  V30 2804 O 263.299 1.74132 -0.0484911 0
M  V30 2805 C 260.431 3.40269 -0.207276 0
M  V30 2806 H 261.624 2.44284 -1.73969 0
M  V30 2807 H 259.177 1.25102 -0.936973 0
M  V30 2808 H 259.912 3.15969 0.73036 0
M  V30 2809 H 259.697 3.81154 -0.919992 0
M  V30 2810 H 261.187 4.176 0.000667944 0
M  V30 2811 N 261.624 0.925811 1.2754 0
M  V30 2812 C 262.534 0.428993 2.30644 0
M  V30 2813 C 263.55 -0.489387 1.66976 0
M  V30 2814 O 264.726 -0.372653 1.97922 0
M  V30 2815 C 261.791 -0.311967 3.45294 0
M  V30 2816 C 260.852 0.641098 4.24486 0
M  V30 2817 C 260.085 -0.0645955 5.33661 0
M  V30 2818 O 260.308 -1.28429 5.55754 0
M  V30 2819 O 259.242 0.606265 5.98839 0
M  V30 2820 H 263.068 1.28504 2.75173 0
M  V30 2821 H 260.653 0.691086 1.32455 0
M  V30 2822 H 262.535 -0.729972 4.15029 0
M  V30 2823 H 261.21 -1.14365 3.02824 0
M  V30 2824 H 260.117 1.10874 3.57292 0
M  V30 2825 H 261.45 1.43995 4.70666 0
M  V30 2826 N 263.102 -1.41638 0.69111 0
M  V30 2827 C 264.327 -2.06148 0.227583 0
M  V30 2828 C 264.752 -1.51652 -1.11281 0
M  V30 2829 O 264.11 -0.64164 -1.69566 0
M  V30 2830 C 264.158 -3.60095 0.190858 0
M  V30 2831 O 263.262 -4.03845 -0.835664 0
M  V30 2832 H 262.603 -0.654434 0.112306 0
M  V30 2833 H 265.133 -1.81484 0.944714 0
M  V30 2834 H 265.143 -4.07995 0.020207 0
M  V30 2835 H 263.818 -3.99129 1.16915 0
M  V30 2836 H 262.395 -3.67458 -0.63473 0
M  V30 2837 N 264.58 -0.43555 -1.51462 0
M  V30 2838 C 265.991 0.0279871 -1.86679 0
M  V30 2839 C 266.342 1.42104 -1.35281 0
M  V30 2840 O 265.467 2.04667 -0.702878 0
M  V30 2841 C 266.062 0.0575626 -3.38751 0
M  V30 2842 C 264.621 0.465507 -3.7351 0
M  V30 2843 C 263.768 -0.342996 -2.75171 0
M  V30 2844 H 266.719 -0.651473 -1.44712 0
M  V30 2845 H 266.74 0.867421 -3.70481 0
M  V30 2846 H 266.252 -0.956448 -3.7613 0
M  V30 2847 H 264.353 1.48519 -3.41721 0
M  V30 2848 H 264.466 0.191546 -4.78717 0
M  V30 2849 H 262.83 0.198442 -2.53926 0
M  V30 2850 H 263.613 -1.35585 -3.15391 0
M  V30 2851 N 266.058 1.56714 -0.166846 0
M  V30 2852 C 267.307 1.95922 0.479318 0
M  V30 2853 C 267.62 1.05529 1.6469 0
M  V30 2854 O 268.826 1.34399 2.35901 0
M  V30 2855 C 267.282 3.48359 0.90412 0
M  V30 2856 C 266.89 4.47369 -0.237621 0
M  V30 2857 C 268.634 3.96394 1.51896 0
M  V30 2858 C 266.541 5.91039 0.206561 0
M  V30 2859 H 265.471 0.731495 0.18284 0
M  V30 2860 H 268.122 1.81728 -0.254363 0
M  V30 2861 H 266.504 3.57955 1.69365 0
M  V30 2862 H 267.678 4.49485 -1.01489 0
M  V30 2863 H 265.993 4.09366 -0.762128 0
M  V30 2864 H 268.59 5.01186 1.86325 0
M  V30 2865 H 268.933 3.39075 2.41524 0
M  V30 2866 H 269.466 3.89796 0.79395 0
M  V30 2867 H 266.205 6.52221 -0.654834 0
M  V30 2868 H 265.725 5.9224 0.949282 0
M  V30 2869 H 267.404 6.43707 0.651939 0
M  V30 2870 N 267.536 -0.106894 1.57237 0
M  V30 2871 C 268.466 -1.13148 2.04254 0
M  V30 2872 C 269.447 -1.42476 0.929224 0
M  V30 2873 O 270.632 -1.52709 1.19973 0
M  V30 2874 C 267.762 -2.4545 2.45706 0
M  V30 2875 C 266.716 -2.30558 3.60592 0
M  V30 2876 C 266.042 -3.67931 3.87983 0
M  V30 2877 C 267.342 -1.75597 4.91897 0
M  V30 2878 H 269.036 -0.740374 2.90101 0
M  V30 2879 H 266.582 -0.354696 1.39563 0
M  V30 2880 H 268.535 -3.17389 2.77205 0
M  V30 2881 H 267.259 -2.86475 1.56843 0
M  V30 2882 H 265.918 -1.61067 3.29322 0
M  V30 2883 H 265.566 -4.06462 2.96306 0
M  V30 2884 H 265.266 -3.58817 4.65322 0
M  V30 2885 H 266.79 -4.41356 4.21945 0
M  V30 2886 H 268.204 -2.37364 5.21854 0
M  V30 2887 H 266.601 -1.77272 5.73319 0
M  V30 2888 H 267.671 -0.714451 4.79608 0
M  V30 2889 N 269.014 -1.53014 -0.377408 0
M  V30 2890 C 270.43 -1.42523 -0.718281 0
M  V30 2891 C 270.63 -0.55487 -1.9371 0
M  V30 2892 O 269.686 -0.0327593 -2.52479 0
M  V30 2893 C 270.999 -2.85546 -0.942539 0
M  V30 2894 C 272.547 -2.95101 -1.04329 0
M  V30 2895 C 273.022 -4.3916 -1.3001 0
M  V30 2896 N 274.513 -4.42536 -1.36806 0
M  V30 2897 C 275.248 -5.51097 -1.58364 0
M  V30 2898 N 274.744 -6.69724 -1.77317 0
M  V30 2899 N 276.537 -5.38657 -1.60638 0
M  V30 2900 H 268.688 -2.08116 0.424426 0
M  V30 2901 H 270.951 -0.939352 0.127759 0
M  V30 2902 H 270.657 -3.51499 -0.118929 0
M  V30 2903 H 270.531 -3.28493 -1.85397 0
M  V30 2904 H 272.918 -2.29309 -1.85745 0
M  V30 2905 H 272.999 -2.55566 -0.109505 0
M  V30 2906 H 272.643 -5.05521 -0.490991 0
M  V30 2907 H 272.573 -4.76258 -2.24691 0
M  V30 2908 H 275.064 -3.57039 -1.23821 0
M  V30 2909 H 275.377 -7.48233 -1.93306 0
M  V30 2910 H 273.722 -6.72732 -1.74518 0
M  V30 2911 H 276.913 -4.44948 -1.45391 0
M  V30 2912 H 277.086 -6.2333 -1.77098 0
M  V30 2913 N 270.492 0.636531 -1.44174 0
M  V30 2914 C 271.425 1.76139 -1.45087 0
M  V30 2915 C 272.403 1.59611 -0.310326 0
M  V30 2916 O 273.587 1.81568 -0.506477 0
M  V30 2917 C 270.714 3.13648 -1.27839 0
M  V30 2918 C 269.76 3.48838 -2.45386 0
M  V30 2919 S 270.593 3.46927 -4.07924 0
M  V30 2920 C 271.749 4.87064 -3.9309 0
M  V30 2921 H 271.982 1.75096 -2.40268 0
M  V30 2922 H 269.515 0.810666 -1.31406 0
M  V30 2923 H 271.473 3.93002 -1.18575 0
M  V30 2924 H 270.134 3.12235 -0.341787 0
M  V30 2925 H 269.327 4.48886 -2.29167 0
M  V30 2926 H 268.929 2.76935 -2.51362 0
M  V30 2927 H 271.221 5.76153 -3.56446 0
M  V30 2928 H 272.164 5.08337 -4.92949 0
M  V30 2929 H 272.572 4.61384 -3.25246 0
M  V30 2930 N 271.97 1.30982 0.876444 0
M  V30 2931 C 272.92 1.14688 1.97055 0
M  V30 2932 C 273.904 0.0596593 1.60789 0
M  V30 2933 O 275.096 0.283892 1.74708 0
M  V30 2934 C 272.225 0.849627 3.3262 0
M  V30 2935 C 271.311 1.97752 3.75173 0
M  V30 2936 N 271.702 3.22384 3.89746 0
M  V30 2937 C 270 1.8758 4.04635 0
M  V30 2938 C 270.701 3.96121 4.25985 0
M  V30 2939 N 269.677 3.24237 4.36315 0
M  V30 2940 H 273.479 2.09204 2.06424 0
M  V30 2941 H 270.993 1.22445 1.06682 0
M  V30 2942 H 272.99 0.713895 4.10742 0
M  V30 2943 H 271.65 -0.087376 3.24582 0
M  V30 2944 H 272.661 3.57575 3.74647 0
M  V30 2945 H 269.338 1.01303 4.05024 0
M  V30 2946 H 270.728 5.03491 4.44911 0
M  V30 2947 N 273.449 -1.08991 1.13837 0
M  V30 2948 C 274.381 -2.15606 0.777612 0
M  V30 2949 C 275.394 -1.61533 -0.202739 0
M  V30 2950 O 276.583 -1.78491 0.0181055 0
M  V30 2951 C 273.683 -3.3864 0.132623 0
M  V30 2952 C 272.856 -4.22115 1.1462 0
M  V30 2953 C 271.915 -5.23564 0.526074 0
M  V30 2954 O 270.941 -5.56678 1.18735 0
M  V30 2955 N 272.143 -5.76266 -0.699866 0
M  V30 2956 H 274.908 -2.47159 1.69506 0
M  V30 2957 H 272.469 -1.24747 1.03198 0
M  V30 2958 H 274.461 -4.03626 -0.29459 0
M  V30 2959 H 273.031 -3.04938 -0.687849 0
M  V30 2960 H 272.251 -3.53199 1.75055 0
M  V30 2961 H 273.539 -4.74709 1.83109 0
M  V30 2962 H 272.937 -5.51585 -1.25581 0
M  V30 2963 H 271.494 -6.42963 -1.06968 0
M  V30 2964 N 274.927 -0.932562 -1.27047 0
M  V30 2965 C 275.877 -0.406392 -2.24349 0
M  V30 2966 C 276.861 0.492066 -1.53191 0
M  V30 2967 O 278.053 0.328717 -1.73921 0
M  V30 2968 C 275.182 0.335214 -3.41659 0
M  V30 2969 C 274.268 -0.58004 -4.20115 0
M  V30 2970 N 274.659 -1.70203 -4.76303 0
M  V30 2971 C 272.957 -0.383974 -4.44344 0
M  V30 2972 C 273.658 -2.27167 -5.35509 0
M  V30 2973 N 272.634 -1.56068 -5.20715 0
M  V30 2974 H 276.436 -1.26299 -2.65378 0
M  V30 2975 H 273.95 -0.787408 -1.42034 0
M  V30 2976 H 275.947 0.729142 -4.10474 0
M  V30 2977 H 274.607 1.18868 -3.0216 0
M  V30 2978 H 275.618 -2.08433 -4.74106 0
M  V30 2979 H 272.295 0.428436 -4.15296 0
M  V30 2980 H 273.685 -3.21654 -5.89905 0
M  V30 2981 N 276.405 1.4127 -0.698611 0
M  V30 2982 C 277.353 2.32588 -0.023855 0
M  V30 2983 C 278.347 1.51128 0.765292 0
M  V30 2984 O 279.553 1.67043 0.670571 0
M  V30 2985 H 275.928 0.751918 0.0110871 0
M  V30 2986 H 277.899 2.87167 -0.811031 0
M  V30 2987 C 276.648 3.35947 0.896369 0
M  V30 2988 H 275.971 3.98684 0.298548 0
M  V30 2989 H 277.411 4.02376 1.33676 0
M  V30 2990 C 275.87 2.70076 2.01396 0
M  V30 2991 O 276.4 2.55093 3.10307 0
M  V30 2992 N 274.606 2.28724 1.79259 0
M  V30 2993 H 274.153 2.4111 0.906841 0
M  V30 2994 H 274.111 1.84986 2.54219 0
M  V30 2995 N 277.883 0.443576 1.51229 0
M  V30 2996 C 279.132 -0.122332 2.01329 0
M  V30 2997 C 279.445 -1.43237 1.33201 0
M  V30 2998 O 280.651 -2.0816 1.74304 0
M  V30 2999 C 279.107 -0.268551 3.58897 0
M  V30 3000 C 278.715 1.03142 4.35965 0
M  V30 3001 C 280.459 -0.787894 4.17124 0
M  V30 3002 C 278.366 0.850504 5.85252 0
M  V30 3003 H 277.296 -0.0494929 0.752374 0
M  V30 3004 H 279.947 0.574289 1.74282 0
M  V30 3005 H 278.329 -1.02832 3.82415 0
M  V30 3006 H 279.503 1.80001 4.24189 0
M  V30 3007 H 277.818 1.47977 3.89219 0
M  V30 3008 H 280.415 -0.939841 5.26375 0
M  V30 3009 H 280.758 -1.77201 3.76703 0
M  V30 3010 H 281.291 -0.0862669 3.97706 0
M  V30 3011 H 278.03 1.80718 6.30096 0
M  V30 3012 H 277.55 0.121825 5.99676 0
M  V30 3013 H 279.229 0.506163 6.45017 0
M  V30 3014 N 279.361 -1.56624 0.175154 0
M  V30 3015 C 280.311 -2.14747 -0.766004 0
M  V30 3016 C 281.295 -1.08275 -1.19018 0
M  V30 3017 O 282.487 -1.34388 -1.15191 0
M  V30 3018 C 279.616 -2.79478 -1.99366 0
M  V30 3019 C 278.702 -3.93114 -1.5913 0
M  V30 3020 N 279.093 -4.97752 -0.89872 0
M  V30 3021 C 277.391 -4.04345 -1.88204 0
M  V30 3022 C 278.092 -5.77473 -0.700012 0
M  V30 3023 N 277.068 -5.29207 -1.24263 0
M  V30 3024 H 280.87 -2.93015 -0.22793 0
M  V30 3025 H 278.384 -1.6238 -0.0253843 0
M  V30 3026 H 280.381 -3.19498 -2.67818 0
M  V30 3027 H 279.041 -2.02692 -2.53665 0
M  V30 3028 H 280.052 -5.14903 -0.556347 0
M  V30 3029 H 276.729 -3.38667 -2.44153 0
M  V30 3030 H 278.119 -6.71728 -0.152047 0
M  V30 3031 N 280.839 0.0985539 -1.57292 0
M  V30 3032 C 281.769 1.12064 -2.04851 0
M  V30 3033 C 282.75 1.41981 -0.936767 0
M  V30 3034 O 283.935 1.52071 -1.20781 0
M  V30 3035 C 281.065 2.44144 -2.47004 0
M  V30 3036 C 280.019 2.28643 -3.6181 0
M  V30 3037 C 279.345 3.65869 -3.89929 0
M  V30 3038 C 280.645 1.72986 -4.92822 0
M  V30 3039 H 282.339 0.724979 -2.9049 0
M  V30 3040 H 279.885 0.34729 -1.39749 0
M  V30 3041 H 281.838 3.15914 -2.78884 0
M  V30 3042 H 280.562 2.85639 -1.5836 0
M  V30 3043 H 279.221 1.59318 -3.30172 0
M  V30 3044 H 278.869 4.04885 -2.98458 0
M  V30 3045 H 278.569 3.56344 -4.67218 0
M  V30 3046 H 280.093 4.39112 -4.2428 0
M  V30 3047 H 281.507 2.34593 -5.23105 0
M  V30 3048 H 279.904 1.74229 -5.74251 0
M  V30 3049 H 280.974 0.689007 -4.7998 0
M  V30 3050 N 282.317 1.53212 0.369288 0
M  V30 3051 C 283.28 1.7872 1.43498 0
M  V30 3052 C 284.28 0.657554 1.46741 0
M  V30 3053 O 285.47 0.925736 1.47566 0
M  V30 3054 C 282.602 1.90591 2.82645 0
M  V30 3055 H 283.795 2.73894 1.22156 0
M  V30 3056 H 281.348 1.44233 0.602203 0
M  V30 3057 H 282.083 0.974709 3.09306 0
M  V30 3058 H 281.868 2.72751 2.8169 0
M  V30 3059 H 283.358 2.11931 3.59826 0
M  V30 3060 N 283.795 -0.628877 1.44509 0
M  V30 3061 C 284.742 -1.74074 1.51549 0
M  V30 3062 C 285.712 -1.62084 0.363021 0
M  V30 3063 O 286.897 -1.81975 0.573567 0
M  V30 3064 C 284.037 -3.12328 1.46784 0
M  V30 3065 C 283.15 -3.35277 2.72422 0
M  V30 3066 C 282.285 -4.63515 2.59475 0
M  V30 3067 C 281.324 -4.7965 3.80266 0
M  V30 3068 N 280.461 -5.99168 3.65981 0
M  V30 3069 H 285.301 -1.67392 2.46544 0
M  V30 3070 H 282.838 -0.816527 1.22357 0
M  V30 3071 H 284.796 -3.92286 1.42012 0
M  V30 3072 H 283.426 -3.18018 0.553544 0
M  V30 3073 H 282.478 -2.49242 2.87372 0
M  V30 3074 H 283.79 -3.43078 3.62076 0
M  V30 3075 H 282.944 -5.51638 2.52548 0
M  V30 3076 H 281.683 -4.58076 1.67384 0
M  V30 3077 H 280.688 -3.89957 3.87574 0
M  V30 3078 H 281.913 -4.86902 4.73395 0
M  V30 3079 H 279.859 -5.94814 2.76644 0
M  V30 3080 H 279.776 -6.08035 4.49254 0
M  V30 3081 H 281.044 -6.89846 3.6295 0
M  V30 3082 N 285.273 -1.31445 -0.869486 0
M  V30 3083 C 286.183 -1.21097 -2.0093 0
M  V30 3084 C 287.199 -0.127584 -1.73532 0
M  V30 3085 O 288.375 -0.345477 -1.98415 0
M  V30 3086 C 285.44 -0.919378 -3.34288 0
M  V30 3087 C 284.501 -2.08971 -3.75006 0
M  V30 3088 C 283.734 -1.81194 -5.02001 0
M  V30 3089 O 283.957 -0.747296 -5.65484 0
M  V30 3090 O 282.891 -2.66883 -5.39497 0
M  V30 3091 H 286.717 -2.16883 -2.12592 0
M  V30 3092 H 284.302 -1.11189 -0.997868 0
M  V30 3093 H 286.184 -0.772625 -4.14257 0
M  V30 3094 H 284.859 0.00844772 -3.23699 0
M  V30 3095 H 283.766 -2.29187 -2.95676 0
M  V30 3096 H 285.099 -2.9998 -3.90221 0
M  V30 3097 N 286.751 1.08385 -1.14413 0
M  V30 3098 C 288.162 1.62258 -0.923535 0
M  V30 3099 C 288.513 1.88691 0.537595 0
M  V30 3100 O 287.638 1.64454 1.40655 0
M  V30 3101 C 288.233 2.94781 -1.67002 0
M  V30 3102 C 286.792 3.45437 -1.495 0
M  V30 3103 C 285.939 2.19668 -1.69238 0
M  V30 3104 H 288.89 0.916086 -1.2959 0
M  V30 3105 H 288.911 3.63229 -1.13334 0
M  V30 3106 H 288.423 2.7551 -2.73342 0
M  V30 3107 H 286.524 3.6981 -0.455097 0
M  V30 3108 H 286.637 4.22173 -2.2651 0
M  V30 3109 H 285.001 2.28849 -1.11804 0
M  V30 3110 H 285.784 2.02905 -2.7692 0
M  V30 3111 N 288.23 0.939286 1.26551 0
M  V30 3112 C 289.476 0.586715 1.94128 0
M  V30 3113 C 289.809 -0.8717 1.73537 0
M  V30 3114 O 289.084 -1.62339 1.07127 0
M  V30 3115 C 289.367 0.927497 3.4795 0
M  V30 3116 C 289.22 2.44052 3.77834 0
M  V30 3117 C 290.539 0.441569 4.37879 0
M  V30 3118 H 287.658 0.21463 0.705055 0
M  V30 3119 H 290.3 1.17316 1.49455 0
M  V30 3120 H 288.45 0.428431 3.8613 0
M  V30 3121 H 290.122 3.01216 3.4938 0
M  V30 3122 H 288.365 2.8848 3.23978 0
M  V30 3123 H 289.036 2.62947 4.85348 0
M  V30 3124 H 291.512 0.869448 4.06915 0
M  V30 3125 H 290.388 0.708856 5.44304 0
M  V30 3126 H 290.649 -0.658467 4.37169 0
M  V30 3127 N 289.708 -1.40897 0.706093 0
M  V30 3128 C 290.64 -2.29199 0.00815776 0
M  V30 3129 C 291.653 -1.45336 -0.733582 0
M  V30 3130 O 292.842 -1.68727 -0.582537 0
M  V30 3131 C 289.942 -3.23417 -1.01265 0
M  V30 3132 C 289.115 -4.36089 -0.338387 0
M  V30 3133 C 288.174 -5.10811 -1.26326 0
M  V30 3134 O 287.2 -5.64215 -0.751651 0
M  V30 3135 N 288.402 -5.19269 -2.595 0
M  V30 3136 H 291.167 -2.89738 0.766297 0
M  V30 3137 H 288.728 -1.52164 0.55296 0
M  V30 3138 H 290.72 -3.70276 -1.63334 0
M  V30 3139 H 289.29 -2.64112 -1.67223 0
M  V30 3140 H 288.51 -3.91479 0.462352 0
M  V30 3141 H 289.798 -5.08634 0.130031 0
M  V30 3142 H 289.196 -4.77347 -3.03573 0
M  V30 3143 H 287.753 -5.69667 -3.16737 0
M  V30 3144 N 291.186 -0.45159 -1.50991 0
M  V30 3145 C 292.134 0.366864 -2.29689 0
M  V30 3146 C 293.128 1.00809 -1.36139 0
M  V30 3147 O 294.334 0.941427 -1.53418 0
M  V30 3148 H 290.709 0.137133 -0.739391 0
M  V30 3149 H 292.68 -0.317538 -2.96706 0
M  V30 3150 C 291.429 1.44751 -3.16137 0
M  V30 3151 H 290.752 0.963473 -3.88017 0
M  V30 3152 H 292.192 1.99315 -3.74232 0
M  V30 3153 C 290.651 2.43869 -2.32442 0
M  V30 3154 O 291.181 3.4872 -1.99392 0
M  V30 3155 N 289.387 2.15105 -1.95392 0
M  V30 3156 H 288.934 1.29866 -2.22469 0
M  V30 3157 H 288.892 2.81661 -1.39693 0
M  V30 3158 N 292.664 1.56529 -0.183458 0
M  V30 3159 C 293.574 2.22144 0.754272 0
M  V30 3160 C 294.59 1.21684 1.24374 0
M  V30 3161 O 295.766 1.54385 1.29333 0
M  V30 3162 C 292.831 2.85884 1.96141 0
M  V30 3163 C 291.892 4.01579 1.51765 0
M  V30 3164 C 291.125 4.6227 2.66725 0
M  V30 3165 O 291.348 4.21865 3.83909 0
M  V30 3166 O 290.282 5.51936 2.40104 0
M  V30 3167 H 294.108 3.02861 0.225527 0
M  V30 3168 H 291.693 1.49331 0.0453032 0
M  V30 3169 H 293.575 3.26253 2.66715 0
M  V30 3170 H 292.25 2.08154 2.47899 0
M  V30 3171 H 291.157 3.65856 0.781049 0
M  V30 3172 H 292.49 4.80938 1.04686 0
M  V30 3173 N 294.142 -0.090211 1.57342 0
M  V30 3174 C 295.391 -0.791531 1.8552 0
M  V30 3175 C 295.704 -1.79659 0.773441 0
M  V30 3176 O 296.91 -2.54616 0.942497 0
M  V30 3177 C 295.366 -1.45856 3.2902 0
M  V30 3178 C 294.974 -0.493017 4.45279 0
M  V30 3179 C 296.718 -2.14332 3.66418 0
M  V30 3180 C 294.625 -1.16491 5.79814 0
M  V30 3181 H 293.555 -0.299356 0.692027 0
M  V30 3182 H 296.206 -0.0445343 1.83446 0
M  V30 3183 H 294.588 -2.25318 3.2565 0
M  V30 3184 H 295.762 0.270464 4.60006 0
M  V30 3185 H 294.077 0.0863061 4.16311 0
M  V30 3186 H 296.674 -2.65344 4.64216 0
M  V30 3187 H 297.017 -2.93447 2.95287 0
M  V30 3188 H 297.55 -1.41724 3.71698 0
M  V30 3189 H 294.289 -0.41447 6.54188 0
M  V30 3190 H 293.809 -1.8997 5.68921 0
M  V30 3191 H 295.488 -1.69001 6.24538 0
M  V30 3192 N 295.62 -1.53406 -0.361157 0
M  V30 3193 C 296.845 -1.74024 -1.12829 0
M  V30 3194 C 297.27 -0.470069 -1.82132 0
M  V30 3195 O 296.628 0.57619 -1.719 0
M  V30 3196 C 296.676 -2.90903 -2.13091 0
M  V30 3197 O 295.78 -2.59821 -3.20261 0
M  V30 3198 H 295.121 -0.577804 -0.327168 0
M  V30 3199 H 297.651 -2.00307 -0.41693 0
M  V30 3200 H 297.661 -3.17194 -2.56616 0
M  V30 3201 H 296.336 -3.83034 -1.62042 0
M  V30 3202 H 294.913 -2.44362 -2.81677 0
M  V30 3203 N 297.098 0.621204 -1.44841 0
M  V30 3204 C 298.061 1.71459 -1.521 0
M  V30 3205 C 299.061 1.55696 -0.401933 0
M  V30 3206 O 300.251 1.61011 -0.664925 0
M  V30 3207 C 297.383 3.10624 -1.40447 0
M  V30 3208 H 298.576 1.66394 -2.49506 0
M  V30 3209 H 296.129 0.835745 -1.3208 0
M  V30 3210 H 296.864 3.21277 -0.441737 0
M  V30 3211 H 296.649 3.23473 -2.21602 0
M  V30 3212 H 298.139 3.90293 -1.4853 0
M  V30 3213 N 298.576 1.31904 0.862503 0
M  V30 3214 C 299.804 1.24998 1.64873 0
M  V30 3215 C 300.219 -0.183425 1.87907 0
M  V30 3216 O 299.576 -1.11794 1.44251 0
M  V30 3217 C 299.627 1.99829 3.01248 0
M  V30 3218 O 299.348 3.37575 2.79239 0
M  V30 3219 C 300.849 1.99852 3.95694 0
M  V30 3220 H 298.069 0.431599 0.513773 0
M  V30 3221 H 300.613 1.73901 1.07604 0
M  V30 3222 H 298.768 1.54668 3.55185 0
M  V30 3223 H 299.182 3.75776 3.65914 0
M  V30 3224 H 300.656 2.56709 4.88676 0
M  V30 3225 H 301.133 0.982852 4.28062 0
M  V30 3226 H 301.739 2.44926 3.47694 0
M  V30 3227 N 300.054 -1.07777 1.14986 0
M  V30 3228 C 301.284 -1.83752 0.944402 0
M  V30 3229 C 301.692 -1.8218 -0.51058 0
M  V30 3230 O 301.035 -1.22852 -1.36576 0
M  V30 3231 C 301.097 -3.32128 1.37592 0
M  V30 3232 C 300.761 -3.57425 2.84775 0
M  V30 3233 C 301.758 -3.5173 3.8286 0
M  V30 3234 C 299.443 -3.8523 3.2234 0
M  V30 3235 C 301.437 -3.73482 5.16517 0
M  V30 3236 C 299.124 -4.06634 4.56171 0
M  V30 3237 C 300.122 -4.00754 5.53069 0
M  V30 3238 O 299.81 -4.2159 6.84483 0
M  V30 3239 H 299.542 -0.58673 0.335744 0
M  V30 3240 H 302.096 -1.36982 1.53052 0
M  V30 3241 H 300.326 -3.79686 0.733165 0
M  V30 3242 H 302.015 -3.89555 1.14024 0
M  V30 3243 H 302.781 -3.30256 3.55184 0
M  V30 3244 H 298.66 -3.88923 2.47508 0
M  V30 3245 H 302.204 -3.68808 5.92137 0
M  V30 3246 H 298.101 -4.27593 4.83564 0
M  V30 3247 H 298.869 -4.38961 6.90837 0
M  V30 3248 N 301.532 -0.945985 -1.26051 0
M  V30 3249 C 302.781 -0.591836 -1.92822 0
M  V30 3250 C 303.094 0.873956 -1.7499 0
M  V30 3251 O 304.3 1.33769 -2.36259 0
M  V30 3252 C 302.756 -1.00776 -3.45503 0
M  V30 3253 C 302.364 -2.4955 -3.7206 0
M  V30 3254 C 304.108 -0.725735 -4.1825 0
M  V30 3255 C 302.015 -2.84988 -5.18205 0
M  V30 3256 H 300.945 -0.217635 -0.721908 0
M  V30 3257 H 303.596 -1.14927 -1.43052 0
M  V30 3258 H 301.978 -0.378812 -3.94184 0
M  V30 3259 H 303.152 -3.1739 -3.34066 0
M  V30 3260 H 301.467 -2.75133 -3.12555 0
M  V30 3261 H 304.064 -0.966771 -5.25887 0
M  V30 3262 H 304.407 0.337639 -4.14929 0
M  V30 3263 H 304.94 -1.31463 -3.7545 0
M  V30 3264 H 301.679 -3.90307 -5.26631 0
M  V30 3265 H 301.199 -2.21813 -5.57278 0
M  V30 3266 H 302.878 -2.73712 -5.86252 0
M  V30 3267 N 303.011 1.40521 -0.713556 0
M  V30 3268 C 304.427 1.54839 -0.386907 0
M  V30 3269 C 304.627 1.68532 1.1045 0
M  V30 3270 O 303.683 1.67377 1.89053 0
M  V30 3271 C 304.996 2.77792 -1.15118 0
M  V30 3272 C 306.544 2.91607 -1.13729 0
M  V30 3273 C 307.019 4.1747 -1.88368 0
M  V30 3274 N 308.51 4.24466 -1.85427 0
M  V30 3275 C 309.245 5.20755 -2.40004 0
M  V30 3276 N 308.741 6.22965 -3.03129 0
M  V30 3277 N 310.534 5.1282 -2.30158 0
M  V30 3278 H 302.685 1.29879 -1.68063 0
M  V30 3279 H 304.948 0.627896 -0.710247 0
M  V30 3280 H 304.654 2.73944 -2.20561 0
M  V30 3281 H 304.528 3.6984 -0.741477 0
M  V30 3282 H 306.915 2.94959 -0.0910608 0
M  V30 3283 H 306.996 2.00682 -1.5862 0
M  V30 3284 H 306.64 4.1488 -2.9298 0
M  V30 3285 H 306.57 5.074 -1.40898 0
M  V30 3286 H 309.061 3.51241 -1.3942 0
M  V30 3287 H 309.374 6.92859 -3.42295 0
M  V30 3288 H 307.719 6.23415 -3.07212 0
M  V30 3289 H 310.91 4.31899 -1.80501 0
M  V30 3290 H 311.083 5.87689 -2.72993 0
M  V30 3291 N 304.489 0.459591 1.5075 0
M  V30 3292 C 305.905 0.113092 1.59199 0
M  V30 3293 C 306.105 -1.37951 1.46874 0
M  V30 3294 O 305.161 -2.15168 1.32132 0
M  V30 3295 C 306.474 0.653043 2.93523 0
M  V30 3296 C 308.022 0.615449 3.0689 0
M  V30 3297 C 308.497 1.13275 4.43771 0
M  V30 3298 N 309.988 1.09167 4.50152 0
M  V30 3299 C 310.723 1.46256 5.54434 0
M  V30 3300 N 310.219 1.90739 6.66026 0
M  V30 3301 N 312.012 1.37932 5.44914 0
M  V30 3302 H 304.163 1.43049 1.57005 0
M  V30 3303 H 306.426 0.590861 0.741341 0
M  V30 3304 H 306.132 1.69822 3.07983 0
M  V30 3305 H 306.006 0.0902132 3.77092 0
M  V30 3306 H 308.393 -0.420793 2.92084 0
M  V30 3307 H 308.474 1.21495 2.25106 0
M  V30 3308 H 308.118 2.16757 4.59324 0
M  V30 3309 H 308.048 0.509576 5.24129 0
M  V30 3310 H 310.539 0.76528 3.7007 0
M  V30 3311 H 310.852 2.17218 7.41644 0
M  V30 3312 H 309.197 1.94683 6.67176 0
M  V30 3313 H 312.388 1.0303 4.56621 0
M  V30 3314 H 312.561 1.67164 6.26067 0
M  V30 3315 N 305.967 -1.56429 0.191757 0
M  V30 3316 C 306.93 -2.17707 -0.716688 0
M  V30 3317 C 307.93 -1.13061 -1.14341 0
M  V30 3318 O 309.12 -1.38464 -1.05704 0
M  V30 3319 C 306.252 -2.77644 -1.97804 0
M  V30 3320 H 307.445 -2.99342 -0.1829 0
M  V30 3321 H 304.998 -1.56193 -0.0578566 0
M  V30 3322 H 305.733 -1.99799 -2.55443 0
M  V30 3323 H 305.518 -3.54246 -1.68083 0
M  V30 3324 H 307.008 -3.24708 -2.62592 0
M  V30 3325 N 307.445 0.0818655 -1.57387 0
M  V30 3326 C 308.375 1.09885 -2.06028 0
M  V30 3327 C 309.356 1.4098 -0.951774 0
M  V30 3328 O 310.541 1.50781 -1.22387 0
M  V30 3329 C 307.671 2.4151 -2.4958 0
M  V30 3330 C 306.625 2.24792 -3.64215 0
M  V30 3331 C 305.951 3.61712 -3.93787 0
M  V30 3332 C 307.251 1.67749 -4.94629 0
M  V30 3333 H 308.945 0.694128 -2.91243 0
M  V30 3334 H 306.491 0.332448 -1.4011 0
M  V30 3335 H 308.444 3.12939 -2.82219 0
M  V30 3336 H 307.168 2.83943 -1.61381 0
M  V30 3337 H 305.827 1.55807 -3.31843 0
M  V30 3338 H 305.475 4.01697 -3.02735 0
M  V30 3339 H 305.175 3.51368 -4.70971 0
M  V30 3340 H 306.699 4.34587 -4.28913 0
M  V30 3341 H 308.113 2.29032 -5.25564 0
M  V30 3342 H 306.51 1.68128 -5.76067 0
M  V30 3343 H 307.58 0.638059 -4.80684 0
M  V30 3344 N 308.923 1.53595 0.353017 0
M  V30 3345 C 310.171 1.70049 1.09215 0
M  V30 3346 C 310.492 0.461406 1.89463 0
M  V30 3347 O 309.762 -0.524633 1.88744 0
M  V30 3348 H 308.342 0.626912 0.40619 0
M  V30 3349 H 311.004 1.90822 0.396585 0
M  V30 3350 H 310.1 2.56718 1.77488 0
M  V30 3351 N 310.401 -0.613514 1.45168 0
M  V30 3352 C 311.333 -1.73825 1.4939 0
M  V30 3353 C 312.346 -1.58175 0.385304 0
M  V30 3354 O 313.535 -1.66165 0.652036 0
M  V30 3355 C 310.635 -3.11758 1.32891 0
M  V30 3356 C 309.808 -3.53704 2.57317 0
M  V30 3357 C 308.867 -4.70579 2.35462 0
M  V30 3358 O 307.893 -4.77996 3.09044 0
M  V30 3359 N 309.095 -5.63454 1.39644 0
M  V30 3360 H 311.86 -1.70669 2.46358 0
M  V30 3361 H 309.421 -0.79862 1.40832 0
M  V30 3362 H 311.413 -3.87692 1.1609 0
M  V30 3363 H 309.983 -3.09456 0.442218 0
M  V30 3364 H 309.203 -2.67794 2.89275 0
M  V30 3365 H 310.491 -3.78486 3.40038 0
M  V30 3366 H 309.889 -5.6017 0.789062 0
M  V30 3367 H 308.446 -6.38944 1.28816 0
M  V30 3368 N 311.879 -1.3236 -0.855495 0
M  V30 3369 C 313.127 -1.22629 -1.60644 0
M  V30 3370 C 313.448 0.212136 -1.93843 0
M  V30 3371 O 312.718 1.13666 -1.59552 0
M  V30 3372 H 311.298 -0.450882 -0.595579 0
M  V30 3373 H 313.96 -1.65871 -1.02337 0
M  V30 3374 H 313.056 -1.80832 -2.54374 0
M  V30 3375 N 313.357 1.07166 -1.15556 0
M  V30 3376 C 314.289 2.14341 -0.811815 0
M  V30 3377 C 315.302 1.61835 0.177015 0
M  V30 3378 O 316.491 1.78439 -0.0464996 0
M  V30 3379 C 313.591 3.38387 -0.186481 0
M  V30 3380 C 312.764 4.20238 -1.21321 0
M  V30 3381 C 311.823 5.2266 -0.609302 0
M  V30 3382 O 310.849 5.54719 -1.27576 0
M  V30 3383 N 312.051 5.77306 0.608099 0
M  V30 3384 H 314.816 2.44431 -1.73417 0
M  V30 3385 H 312.377 1.23089 -1.0517 0
M  V30 3386 H 314.369 4.04044 0.230339 0
M  V30 3387 H 312.939 3.05994 0.639249 0
M  V30 3388 H 312.159 3.50369 -1.80652 0
M  V30 3389 H 313.447 4.71736 -1.90638 0
M  V30 3390 H 312.845 5.53513 1.1679 0
M  V30 3391 H 311.402 6.44583 0.96725 0
M  V30 3392 N 314.835 0.952656 1.25548 0
M  V30 3393 C 316.06 0.623025 1.97821 0
M  V30 3394 C 316.485 -0.7976 1.70352 0
M  V30 3395 O 315.843 -1.53905 0.958283 0
M  V30 3396 C 315.891 0.885532 3.49558 0
M  V30 3397 O 314.995 -0.0366641 4.12384 0
M  V30 3398 H 314.336 0.237082 0.620232 0
M  V30 3399 H 316.866 1.27871 1.59719 0
M  V30 3400 H 316.876 0.811009 3.99858 0
M  V30 3401 H 315.551 1.92094 3.6888 0
M  V30 3402 H 314.128 0.0898954 3.72792 0
M  V30 3403 N 316.313 -1.40141 0.720998 0
M  V30 3404 C 317.559 -2.01084 0.263231 0
M  V30 3405 C 317.892 -1.57052 -1.14229 0
M  V30 3406 O 317.167 -0.793027 -1.77599 0
M  V30 3407 C 317.45 -3.58401 0.349344 0
M  V30 3408 C 317.303 -4.12491 1.79363 0
M  V30 3409 C 318.622 -4.39231 -0.276351 0
M  V30 3410 H 315.741 -0.730572 0.0971228 0
M  V30 3411 H 318.383 -1.66543 0.914518 0
M  V30 3412 H 316.533 -3.87958 -0.205165 0
M  V30 3413 H 318.205 -3.93711 2.40394 0
M  V30 3414 H 316.448 -3.66576 2.31958 0
M  V30 3415 H 317.119 -5.21646 1.80524 0
M  V30 3416 H 319.595 -4.15637 0.196184 0
M  V30 3417 H 318.471 -5.48586 -0.185681 0
M  V30 3418 H 318.732 -4.20643 -1.36059 0
M  V30 3419 N 317.792 -0.46758 -1.50504 0
M  V30 3420 C 318.739 0.328413 -2.28452 0
M  V30 3421 C 319.709 0.990313 -1.33349 0
M  V30 3422 O 320.894 1.00343 -1.62284 0
M  V30 3423 C 318.034 1.40648 -3.15138 0
M  V30 3424 C 317.147 0.759709 -4.25267 0
M  V30 3425 C 316.282 1.81537 -4.99217 0
M  V30 3426 C 315.321 1.14866 -6.01226 0
M  V30 3427 N 314.458 2.14702 -6.68467 0
M  V30 3428 H 319.298 -0.342603 -2.96024 0
M  V30 3429 H 316.835 -0.180801 -1.45985 0
M  V30 3430 H 318.793 2.04315 -3.63746 0
M  V30 3431 H 317.423 2.04671 -2.49619 0
M  V30 3432 H 316.475 0.0105671 -3.80399 0
M  V30 3433 H 317.787 0.233243 -4.98254 0
M  V30 3434 H 316.941 2.52793 -5.51526 0
M  V30 3435 H 315.68 2.37564 -4.25928 0
M  V30 3436 H 314.685 0.42171 -5.4818 0
M  V30 3437 H 315.91 0.595334 -6.76485 0
M  V30 3438 H 313.856 2.69752 -5.97972 0
M  V30 3439 H 313.773 1.6703 -7.37317 0
M  V30 3440 H 315.041 2.85348 -7.25394 0
M  V30 3441 N 319.27 1.56325 -0.20005 0
M  V30 3442 C 320.5 2.01811 0.442232 0
M  V30 3443 C 320.908 1.07932 1.55394 0
M  V30 3444 O 320.251 0.0772685 1.83537 0
M  V30 3445 C 320.313 3.43685 1.05457 0
M  V30 3446 C 319.977 4.56928 0.0809833 0
M  V30 3447 C 320.974 5.15009 -0.711471 0
M  V30 3448 C 318.659 5.0229 -0.0315364 0
M  V30 3449 C 320.653 6.16904 -1.60336 0
M  V30 3450 C 318.34 6.04028 -0.926981 0
M  V30 3451 C 319.338 6.6121 -1.71146 0
M  V30 3452 O 319.026 7.60971 -2.59189 0
M  V30 3453 H 318.758 0.666173 0.114848 0
M  V30 3454 H 321.312 2.03085 -0.307511 0
M  V30 3455 H 319.542 3.39413 1.85299 0
M  V30 3456 H 321.231 3.72948 1.60201 0
M  V30 3457 H 321.997 4.80827 -0.634873 0
M  V30 3458 H 317.876 4.57476 0.568902 0
M  V30 3459 H 321.42 6.61464 -2.21611 0
M  V30 3460 H 317.317 6.37634 -1.00468 0
M  V30 3461 H 318.085 7.7841 -2.53023 0
M  V30 3462 N 320.748 -0.0735177 1.57428 0
M  V30 3463 C 321.678 -1.0879 2.06608 0
M  V30 3464 C 322.659 -1.40473 0.959237 0
M  V30 3465 O 323.844 -1.5013 1.23185 0
M  V30 3466 C 320.974 -2.40183 2.50857 0
M  V30 3467 C 319.928 -2.22858 3.65402 0
M  V30 3468 C 319.254 -3.59619 3.957 0
M  V30 3469 C 320.554 -1.65123 4.95511 0
M  V30 3470 H 322.248 -0.678673 2.91607 0
M  V30 3471 H 319.794 -0.325013 1.40284 0
M  V30 3472 H 321.747 -3.11437 2.83874 0
M  V30 3473 H 320.471 -2.83083 1.62885 0
M  V30 3474 H 319.13 -1.54045 3.32664 0
M  V30 3475 H 318.778 -4.00086 3.04861 0
M  V30 3476 H 318.478 -3.48866 4.72828 0
M  V30 3477 H 320.002 -4.32306 4.31212 0
M  V30 3478 H 321.416 -2.26241 5.26771 0
M  V30 3479 H 319.813 -1.65071 5.7695 0
M  V30 3480 H 320.883 -0.612559 4.81015 0
M  V30 3481 N 322.226 -1.5378 -0.344866 0
M  V30 3482 C 323.475 -1.7018 -1.08267 0
M  V30 3483 C 323.788 -0.471 -1.89845 0
M  V30 3484 O 324.994 -0.515917 -2.66553 0
M  V30 3485 C 323.45 -3.00923 -1.97417 0
M  V30 3486 C 323.058 -4.31335 -1.21053 0
M  V30 3487 C 324.802 -3.26688 -2.71063 0
M  V30 3488 C 322.709 -5.53153 -2.09225 0
M  V30 3489 H 321.639 -0.634138 -0.407903 0
M  V30 3490 H 324.29 -1.8028 -0.342246 0
M  V30 3491 H 322.672 -2.84676 -2.75274 0
M  V30 3492 H 323.846 -4.58281 -0.481159 0
M  V30 3493 H 322.161 -4.12173 -0.591813 0
M  V30 3494 H 324.758 -4.1489 -3.37299 0
M  V30 3495 H 325.101 -2.43639 -3.37558 0
M  V30 3496 H 325.634 -3.43705 -2.0028 0
M  V30 3497 H 322.373 -6.38741 -1.47274 0
M  V30 3498 H 321.893 -5.30458 -2.79955 0
M  V30 3499 H 323.572 -5.88744 -2.68308 0
M  V30 3500 N 323.704 0.605807 -1.45491 0
M  V30 3501 C 325.115 1.18777 -1.44045 0
M  V30 3502 C 325.466 1.95471 -0.169001 0
M  V30 3503 O 324.591 2.0374 0.729324 0
M  V30 3504 C 325.186 2.16064 -2.60963 0
M  V30 3505 C 323.745 2.69633 -2.62631 0
M  V30 3506 C 322.892 1.45072 -2.36325 0
M  V30 3507 H 325.843 0.395017 -1.53705 0
M  V30 3508 H 325.864 2.9913 -2.35163 0
M  V30 3509 H 325.376 1.60217 -3.53486 0
M  V30 3510 H 323.477 3.29414 -1.74119 0
M  V30 3511 H 323.59 3.13944 -3.61906 0
M  V30 3512 H 321.954 1.74089 -1.85917 0
M  V30 3513 H 322.737 0.910899 -3.30995 0
M  V30 3514 N 325.182 1.32811 0.848464 0
M  V30 3515 C 326.459 1.14334 1.58704 0
M  V30 3516 C 326.839 -0.293948 2.09043 0
M  V30 3517 O 326.187 -1.29153 1.88499 0
M  V30 3518 C 326.397 2.17626 2.72837 0
M  V30 3519 C 327.745 2.51282 3.42261 0
M  V30 3520 O 328.769 2.16219 2.83068 0
M  V30 3521 O 327.628 3.11413 4.49093 0
M  V30 3522 H 324.722 0.441601 0.699226 0
M  V30 3523 H 327.268 1.44362 0.892053 0
M  V30 3524 H 326.04 3.14211 2.3321 0
M  V30 3525 H 325.663 1.88628 3.50008 0
M  V30 3526 N 326.66 -1.06551 1.16123 0
M  V30 3527 C 327.623 -2.12132 0.867906 0
M  V30 3528 C 328.623 -1.60224 -0.135944 0
M  V30 3529 O 329.813 -1.73943 0.0946422 0
M  V30 3530 C 326.945 -3.396 0.297419 0
M  V30 3531 H 328.138 -2.39586 1.80385 0
M  V30 3532 H 325.691 -1.22574 0.969812 0
M  V30 3533 H 326.426 -3.17794 -0.64633 0
M  V30 3534 H 326.211 -3.78581 1.02073 0
M  V30 3535 H 327.701 -4.17455 0.110052 0
M  V30 3536 N 328.138 -0.959301 -1.25041 0
M  V30 3537 C 329.384 -0.617525 -1.9317 0
M  V30 3538 C 329.717 0.843981 -1.74902 0
M  V30 3539 O 328.992 1.60615 -1.09696 0
M  V30 3540 C 329.275 -0.982736 -3.46431 0
M  V30 3541 C 329.128 -2.50032 -3.73904 0
M  V30 3542 C 330.447 -0.511176 -4.37121 0
M  V30 3543 H 327.566 -0.22582 -0.701552 0
M  V30 3544 H 330.208 -1.19679 -1.4757 0
M  V30 3545 H 328.358 -0.489806 -3.854 0
M  V30 3546 H 330.03 -3.06737 -3.44544 0
M  V30 3547 H 328.273 -2.93598 -3.19348 0
M  V30 3548 H 328.944 -2.70635 -4.81103 0
M  V30 3549 H 331.42 -0.934075 -4.0548 0
M  V30 3550 H 330.296 -0.795361 -5.43107 0
M  V30 3551 H 330.557 0.588834 -4.38161 0
M  V30 3552 N 329.616 1.39756 -0.72842 0
M  V30 3553 C 330.865 1.99879 -0.270407 0
M  V30 3554 C 331.178 1.58449 1.14688 0
M  V30 3555 O 332.384 2.11362 1.70407 0
M  V30 3556 C 330.84 3.57292 -0.43252 0
M  V30 3557 C 330.448 4.07688 -1.85727 0
M  V30 3558 C 332.192 4.24485 -0.0359507 0
M  V30 3559 C 330.099 5.5765 -1.96928 0
M  V30 3560 H 329.029 0.747689 -0.0973472 0
M  V30 3561 H 331.68 1.59837 -0.901355 0
M  V30 3562 H 330.062 3.95097 0.267219 0
M  V30 3563 H 331.236 3.81231 -2.58843 0
M  V30 3564 H 329.551 3.53135 -2.20646 0
M  V30 3565 H 332.148 5.34609 -0.0987484 0
M  V30 3566 H 332.491 4.03915 1.00787 0
M  V30 3567 H 333.024 3.9183 -0.686604 0
M  V30 3568 H 329.763 5.8309 -2.99476 0
M  V30 3569 H 329.283 5.8593 -1.28241 0
M  V30 3570 H 330.962 6.22957 -1.74737 0
M  V30 3571 N 331.094 0.475555 1.50254 0
M  V30 3572 C 332.322 -0.0754493 2.06762 0
M  V30 3573 C 332.737 -1.33111 1.33891 0
M  V30 3574 O 332.094 -1.77846 0.40952 0
M  V30 3575 C 332.145 -0.359008 3.59713 0
M  V30 3576 O 331.866 0.846851 4.29837 0
M  V30 3577 C 333.367 -0.956484 4.32858 0
M  V30 3578 H 330.587 0.00907525 0.670939 0
M  V30 3579 H 333.131 0.665618 1.93364 0
M  V30 3580 H 331.286 -1.05001 3.72899 0
M  V30 3581 H 331.7 0.594162 5.21124 0
M  V30 3582 H 333.174 -1.10463 5.40834 0
M  V30 3583 H 333.651 -1.94775 3.93649 0
M  V30 3584 H 334.257 -0.303723 4.24214 0
M  V30 3585 N 332.573 -1.56217 0.208337 0
M  V30 3586 C 333.803 -2.02043 -0.431523 0
M  V30 3587 C 334.211 -1.08755 -1.54819 0
M  V30 3588 O 333.554 -0.0870009 -1.83494 0
M  V30 3589 C 333.616 -3.44239 -1.03633 0
M  V30 3590 C 333.28 -4.56965 -0.0567502 0
M  V30 3591 C 334.277 -5.14624 0.738773 0
M  V30 3592 C 331.962 -5.02266 0.0581736 0
M  V30 3593 C 333.956 -6.16045 1.63605 0
M  V30 3594 C 331.643 -6.03528 0.959001 0
M  V30 3595 C 332.641 -6.60293 1.7465 0
M  V30 3596 O 332.329 -7.59586 2.6322 0
M  V30 3597 H 332.061 -0.666772 -0.111313 0
M  V30 3598 H 334.615 -2.02919 0.318277 0
M  V30 3599 H 332.845 -3.40391 -1.83497 0
M  V30 3600 H 334.534 -3.73793 -1.58221 0
M  V30 3601 H 335.3 -4.80483 0.660364 0
M  V30 3602 H 331.179 -4.57771 -0.544633 0
M  V30 3603 H 334.723 -6.60279 2.25116 0
M  V30 3604 H 330.62 -6.37092 1.03848 0
M  V30 3605 H 331.388 -7.77057 2.57148 0
M  V30 3606 N 334.051 0.0651679 -1.57465 0
M  V30 3607 C 335.3 0.761916 -1.86756 0
M  V30 3608 C 335.613 1.78406 -0.801925 0
M  V30 3609 O 336.819 2.53084 -0.982885 0
M  V30 3610 C 335.275 1.40603 -3.31299 0
M  V30 3611 C 334.883 0.422115 -4.46007 0
M  V30 3612 C 336.627 2.08476 -3.69781 0
M  V30 3613 C 334.534 1.07252 -5.81593 0
M  V30 3614 H 333.464 0.288308 -0.696702 0
M  V30 3615 H 336.115 0.015344 -1.83494 0
M  V30 3616 H 334.497 2.20109 -3.29193 0
M  V30 3617 H 335.671 -0.343613 -4.59517 0
M  V30 3618 H 333.986 -0.152527 -4.16121 0
M  V30 3619 H 336.583 2.57925 -4.68379 0
M  V30 3620 H 336.926 2.88712 -2.99919 0
M  V30 3621 H 337.459 1.35792 -3.73905 0
M  V30 3622 H 334.198 0.310342 -6.54765 0
M  V30 3623 H 333.718 1.80895 -5.71872 0
M  V30 3624 H 335.397 1.59043 -6.27148 0
M  V30 3625 N 335.529 1.53961 0.336706 0
M  V30 3626 C 336.476 1.82428 1.41381 0
M  V30 3627 C 337.446 0.670444 1.51968 0
M  V30 3628 O 338.631 0.915565 1.67398 0
M  V30 3629 C 335.771 2.04564 2.77934 0
M  V30 3630 C 334.884 3.32267 2.76084 0
M  V30 3631 C 334.019 3.44434 4.04399 0
M  V30 3632 C 333.058 4.66061 3.96804 0
M  V30 3633 N 332.195 4.75224 5.16823 0
M  V30 3634 H 337.035 2.74324 1.16405 0
M  V30 3635 H 334.572 1.35869 0.563752 0
M  V30 3636 H 336.53 2.15388 3.57301 0
M  V30 3637 H 335.16 1.15974 3.01247 0
M  V30 3638 H 334.212 3.3025 1.88784 0
M  V30 3639 H 335.524 4.21733 2.66351 0
M  V30 3640 H 334.678 3.54728 4.92192 0
M  V30 3641 H 333.417 2.53037 4.16921 0
M  V30 3642 H 332.422 4.55838 3.07396 0
M  V30 3643 H 333.647 5.58829 3.85858 0
M  V30 3644 H 331.593 3.86739 5.29876 0
M  V30 3645 H 331.51 5.58636 5.09374 0
M  V30 3646 H 332.778 4.89835 6.06367 0
M  V30 3647 N 337.007 -0.598083 1.45811 0
M  V30 3648 C 338.284 -1.35777 1.40797 0
M  V30 3649 C 338.664 -2.10935 0.083462 0
M  V30 3650 O 338.012 -2.08505 -0.934763 0
M  V30 3651 C 338.222 -2.29666 2.62783 0
M  V30 3652 C 339.57 -2.91977 3.08277 0
M  V30 3653 O 340.594 -2.39984 2.63223 0
M  V30 3654 O 339.453 -3.86376 3.86491 0
M  V30 3655 H 336.547 -0.609291 0.55919 0
M  V30 3656 H 339.093 -0.620379 1.57954 0
M  V30 3657 H 337.865 -1.73454 3.50756 0
M  V30 3658 H 337.488 -3.1077 2.48008 0
M  V30 3659 N 338.485 -1.33259 -0.841409 0
M  V30 3660 C 339.435 -1.19872 -1.93945 0
M  V30 3661 C 340.419 -0.102269 -1.60575 0
M  V30 3662 O 341.611 -0.330114 -1.73894 0
M  V30 3663 C 338.74 -0.937517 -3.30251 0
M  V30 3664 C 337.826 -2.07629 -3.69799 0
M  V30 3665 N 338.217 -3.32604 -3.81062 0
M  V30 3666 C 336.515 -1.98242 -3.9952 0
M  V30 3667 C 337.216 -4.07275 -4.15333 0
M  V30 3668 N 336.192 -3.35691 -4.27566 0
M  V30 3669 H 339.994 -2.14604 -2.00805 0
M  V30 3670 H 337.508 -1.2523 -1.03398 0
M  V30 3671 H 339.505 -0.822545 -4.08705 0
M  V30 3672 H 338.165 0.00128798 -3.247 0
M  V30 3673 H 339.176 -3.67382 -3.65035 0
M  V30 3674 H 335.853 -1.12005 -4.02195 0
M  V30 3675 H 337.243 -5.1511 -4.31406 0
M  V30 3676 N 339.963 1.05934 -1.16686 0
M  V30 3677 C 341.211 1.78447 -0.948744 0
M  V30 3678 C 341.532 1.87813 0.524523 0
M  V30 3679 O 340.802 1.38945 1.38098 0
M  V30 3680 H 339.382 0.660971 -0.348033 0
M  V30 3681 H 342.044 1.27947 -1.47022 0
M  V30 3682 H 341.14 2.80394 -1.37061 0
M  V30 3683 N 341.441 0.965919 1.2453 0
M  V30 3684 C 342.371 0.513476 2.27784 0
M  V30 3685 C 343.352 -0.445974 1.6415 0
M  V30 3686 O 344.537 -0.342485 1.91156 0
M  V30 3687 C 341.667 -0.198839 3.4673 0
M  V30 3688 C 340.621 0.676456 4.2262 0
M  V30 3689 C 339.947 -0.167248 5.34438 0
M  V30 3690 C 341.247 1.96017 4.84123 0
M  V30 3691 H 342.941 1.3765 2.65881 0
M  V30 3692 H 340.487 0.663321 1.27813 0
M  V30 3693 H 342.44 -0.526567 4.18097 0
M  V30 3694 H 341.164 -1.0962 3.07654 0
M  V30 3695 H 339.823 0.98743 3.53052 0
M  V30 3696 H 339.471 -1.0647 4.91603 0
M  V30 3697 H 339.171 0.415181 5.86131 0
M  V30 3698 H 340.695 -0.489688 6.08633 0
M  V30 3699 H 342.109 1.69814 5.47573 0
M  V30 3700 H 340.506 2.48918 5.4604 0
M  V30 3701 H 341.576 2.65622 4.05676 0
M  V30 3702 N 342.919 -1.39368 0.735821 0
M  V30 3703 C 344.149 -2.04498 0.293967 0
M  V30 3704 C 344.557 -1.55593 -1.07645 0
M  V30 3705 O 343.9 -0.716324 -1.69158 0
M  V30 3706 C 343.962 -3.58836 0.218342 0
M  V30 3707 C 343.626 -4.30721 1.52736 0
M  V30 3708 C 344.623 -4.57305 2.47322 0
M  V30 3709 C 342.308 -4.69251 1.79189 0
M  V30 3710 C 344.302 -5.21429 3.66593 0
M  V30 3711 C 341.989 -5.33104 2.98737 0
M  V30 3712 C 342.987 -5.59125 3.9226 0
M  V30 3713 O 342.675 -6.21653 5.09708 0
M  V30 3714 H 342.407 -0.664118 0.126189 0
M  V30 3715 H 344.961 -1.79385 1.00051 0
M  V30 3716 H 343.191 -3.8285 -0.544314 0
M  V30 3717 H 344.88 -4.05447 -0.191626 0
M  V30 3718 H 345.646 -4.27983 2.28156 0
M  V30 3719 H 341.525 -4.48354 1.07239 0
M  V30 3720 H 345.069 -5.41656 4.39607 0
M  V30 3721 H 340.966 -5.61846 3.17803 0
M  V30 3722 H 341.734 -6.40146 5.10054 0
M  V30 3723 N 344.397 -0.483516 -1.5 0
M  V30 3724 C 345.625 0.0644831 -2.06799 0
M  V30 3725 C 346.04 1.32399 -1.34596 0
M  V30 3726 O 345.397 1.77626 -0.418946 0
M  V30 3727 C 345.448 0.339927 -3.59898 0
M  V30 3728 O 345.169 -0.869635 -4.29382 0
M  V30 3729 C 346.67 0.933515 -4.33359 0
M  V30 3730 H 343.89 -0.0126333 -0.670881 0
M  V30 3731 H 346.434 -0.675864 -1.93009 0
M  V30 3732 H 344.589 1.03022 -3.7345 0
M  V30 3733 H 345.003 -0.62179 -5.20801 0
M  V30 3734 H 346.477 1.07593 -5.41413 0
M  V30 3735 H 346.954 1.92685 -3.94676 0
M  V30 3736 H 347.56 0.281221 -4.24369 0
M  V30 3737 N 345.875 1.56104 -0.216619 0
M  V30 3738 C 346.822 2.2007 0.695531 0
M  V30 3739 C 347.792 1.15471 1.19397 0
M  V30 3740 O 348.977 1.43807 1.25396 0
M  V30 3741 C 346.117 2.88073 1.90021 0
M  V30 3742 C 345.23 4.07253 1.44113 0
M  V30 3743 C 344.365 4.63052 2.603 0
M  V30 3744 C 343.404 5.74545 2.11103 0
M  V30 3745 N 342.541 6.24656 3.20545 0
M  V30 3746 H 347.381 2.97655 0.143327 0
M  V30 3747 H 344.918 1.46982 0.0589934 0
M  V30 3748 H 346.876 3.25681 2.60745 0
M  V30 3749 H 345.506 2.13015 2.42538 0
M  V30 3750 H 344.558 3.75164 0.628999 0
M  V30 3751 H 345.87 4.8783 1.04036 0
M  V30 3752 H 345.024 5.03078 3.39113 0
M  V30 3753 H 343.763 3.81628 3.03663 0
M  V30 3754 H 342.768 5.34027 1.3075 0
M  V30 3755 H 343.993 6.57801 1.68746 0
M  V30 3756 H 341.939 5.46148 3.63399 0
M  V30 3757 H 341.856 7.00343 2.84704 0
M  V30 3758 H 343.124 6.69338 3.99508 0
M  V30 3759 N 347.353 -0.0568162 1.57498 0
M  V30 3760 C 348.601 -0.751617 1.87604 0
M  V30 3761 C 348.922 -1.77351 0.81066 0
M  V30 3762 O 348.192 -1.95254 -0.159018 0
M  V30 3763 H 346.772 -0.280583 0.692302 0
M  V30 3764 H 349.434 -0.0293483 1.94878 0
M  V30 3765 H 348.53 -1.25852 2.856 0
M  V30 3766 N 348.832 -1.54138 -0.328536 0
M  V30 3767 C 350.057 -1.76378 -1.09112 0
M  V30 3768 C 350.482 -0.508596 -1.81094 0
M  V30 3769 O 349.84 0.539598 -1.73084 0
M  V30 3770 C 349.888 -2.95358 -2.06872 0
M  V30 3771 O 348.992 -2.66556 -3.14677 0
M  V30 3772 H 348.333 -0.584614 -0.314838 0
M  V30 3773 H 350.863 -2.01146 -0.374348 0
M  V30 3774 H 350.873 -3.22566 -2.4983 0
M  V30 3775 H 349.548 -3.86385 -1.5388 0
M  V30 3776 H 348.125 -2.50282 -2.7643 0
M  V30 3777 N 350.31 0.590341 -1.46126 0
M  V30 3778 C 351.538 1.37504 -1.54597 0
M  V30 3779 C 351.953 1.87897 -0.184447 0
M  V30 3780 O 351.31 1.63192 0.816984 0
M  V30 3781 C 351.361 2.56779 -2.54454 0
M  V30 3782 O 351.082 2.08476 -3.85317 0
M  V30 3783 C 352.583 3.49427 -2.72792 0
M  V30 3784 H 349.803 0.420325 -0.523037 0
M  V30 3785 H 352.347 0.718383 -1.91467 0
M  V30 3786 H 350.502 3.1845 -2.20609 0
M  V30 3787 H 350.916 2.86097 -4.396 0
M  V30 3788 H 352.39 4.29619 -3.466 0
M  V30 3789 H 352.867 4.00876 -1.79429 0
M  V30 3790 H 353.473 2.93598 -3.07702 0
M  V30 3791 N 351.788 1.33704 0.83433 0
M  V30 3792 C 353.034 1.26612 1.59188 0
M  V30 3793 C 353.389 -0.165439 1.91687 0
M  V30 3794 O 352.682 -1.10873 1.56262 0
M  V30 3795 C 352.876 2.07926 2.90692 0
M  V30 3796 C 352.705 3.58844 2.71038 0
M  V30 3797 C 351.475 4.28148 2.68361 0
M  V30 3798 C 353.673 4.53082 2.43353 0
M  V30 3799 N 351.655 5.64987 2.40132 0
M  V30 3800 C 353.026 5.77843 2.24716 0
M  V30 3801 C 355.081 4.42119 2.28987 0
M  V30 3802 C 353.784 6.92877 1.9317 0
M  V30 3803 C 355.81 5.56973 1.98835 0
M  V30 3804 C 355.172 6.80745 1.81012 0
M  V30 3805 H 351.271 0.518517 0.585375 0
M  V30 3806 H 353.855 1.68294 0.979044 0
M  V30 3807 H 352.026 1.68558 3.49918 0
M  V30 3808 H 353.758 1.92568 3.55949 0
M  V30 3809 H 350.513 3.80469 2.82029 0
M  V30 3810 H 350.937 6.37133 2.28889 0
M  V30 3811 H 355.579 3.47058 2.41477 0
M  V30 3812 H 353.297 7.87931 1.79418 0
M  V30 3813 H 356.883 5.50428 1.88468 0
M  V30 3814 H 355.763 7.68115 1.58017 0
M  V30 3815 N 353.266 -1.05314 1.17247 0
M  V30 3816 C 354.213 -2.13031 0.888058 0
M  V30 3817 C 355.183 -1.65253 -0.167537 0
M  V30 3818 O 356.368 -1.90775 -0.0305974 0
M  V30 3819 C 353.508 -3.42702 0.406147 0
M  V30 3820 C 352.621 -4.04161 1.52572 0
M  V30 3821 C 351.756 -5.21744 0.997808 0
M  V30 3822 C 350.795 -5.75207 2.09291 0
M  V30 3823 N 349.932 -6.84094 1.57986 0
M  V30 3824 H 354.772 -2.36698 1.81048 0
M  V30 3825 H 352.309 -1.16121 0.903013 0
M  V30 3826 H 354.267 -4.17059 0.108305 0
M  V30 3827 H 352.897 -3.19222 -0.479313 0
M  V30 3828 H 351.949 -3.27253 1.93931 0
M  V30 3829 H 353.261 -4.39881 2.35172 0
M  V30 3830 H 352.415 -6.03168 0.653739 0
M  V30 3831 H 351.154 -4.87495 0.141232 0
M  V30 3832 H 350.159 -4.92414 2.44557 0
M  V30 3833 H 351.384 -6.11505 2.95362 0
M  V30 3834 H 349.33 -6.51745 0.74598 0
M  V30 3835 H 349.247 -7.18811 2.34195 0
M  V30 3836 H 350.515 -7.69172 1.26468 0
M  V30 3837 N 354.744 -0.972509 -1.24016 0
M  V30 3838 C 355.992 -0.635776 -1.91839 0
M  V30 3839 C 356.313 0.832312 -1.76345 0
M  V30 3840 O 355.583 1.5946 -1.13795 0
M  V30 3841 H 354.163 -0.232157 -0.710009 0
M  V30 3842 H 356.825 -1.23462 -1.50809 0
M  V30 3843 H 355.921 -0.880545 -2.99421 0
M  V30 3844 N 356.222 1.38976 -0.743202 0
M  V30 3845 C 357.169 2.30544 -0.10861 0
M  V30 3846 C 358.139 1.49642 0.720869 0
M  V30 3847 O 359.324 1.78304 0.679142 0
M  V30 3848 C 356.464 3.36018 0.786496 0
M  V30 3849 C 355.577 4.31963 -0.0564849 0
M  V30 3850 C 354.712 5.24506 0.840657 0
M  V30 3851 C 353.751 6.121 -0.00658363 0
M  V30 3852 N 352.888 6.96973 0.846943 0
M  V30 3853 H 357.728 2.8424 -0.895088 0
M  V30 3854 H 355.265 1.3995 -0.453048 0
M  V30 3855 H 357.223 3.95768 1.31999 0
M  V30 3856 H 355.853 2.83758 1.53887 0
M  V30 3857 H 354.905 3.73763 -0.707492 0
M  V30 3858 H 356.217 4.93703 -0.711229 0
M  V30 3859 H 355.371 5.89322 1.4417 0
M  V30 3860 H 354.11 4.63107 1.52916 0
M  V30 3861 H 353.115 5.46289 -0.620366 0
M  V30 3862 H 354.34 6.75565 -0.691992 0
M  V30 3863 H 352.286 6.38133 1.52059 0
M  V30 3864 H 352.203 7.5559 0.248864 0
M  V30 3865 H 353.471 7.6621 1.43328 0
M  V30 3866 N 357.7 0.491464 1.49741 0
M  V30 3867 C 358.925 -0.0557177 2.07325 0
M  V30 3868 C 359.35 -1.30925 1.35056 0
M  V30 3869 O 358.708 -1.76733 0.404365 0
M  V30 3870 C 358.756 -0.302074 3.59333 0
M  V30 3871 O 357.86 -1.37868 3.88672 0
M  V30 3872 H 357.201 0.0219956 0.663636 0
M  V30 3873 H 359.731 0.688352 1.92673 0
M  V30 3874 H 359.741 -0.536464 4.04458 0
M  V30 3875 H 358.416 0.61383 4.11345 0
M  V30 3876 H 356.993 -1.12999 3.55367 0
M  V30 3877 N 359.178 -1.55987 0.224894 0
M  V30 3878 C 360.406 -2.02784 -0.410665 0
M  V30 3879 C 360.821 -1.10464 -1.53112 0
M  V30 3880 O 360.178 -0.114871 -1.82138 0
M  V30 3881 C 360.229 -3.49087 -0.939165 0
M  V30 3882 O 359.95 -4.37887 0.136614 0
M  V30 3883 C 361.451 -4.11543 -1.64763 0
M  V30 3884 H 358.671 -0.663484 -0.100148 0
M  V30 3885 H 361.215 -2.01614 0.342326 0
M  V30 3886 H 359.37 -3.50861 -1.64242 0
M  V30 3887 H 359.784 -5.23849 -0.261155 0
M  V30 3888 H 361.258 -5.15673 -1.96939 0
M  V30 3889 H 361.735 -3.56736 -2.56195 0
M  V30 3890 H 362.341 -4.13629 -0.989503 0
M  V30 3891 N 360.656 0.0484629 -1.57525 0
M  V30 3892 C 361.588 1.08222 -2.02041 0
M  V30 3893 C 362.601 1.33621 -0.930012 0
M  V30 3894 O 363.79 1.3145 -1.20761 0
M  V30 3895 C 360.89 2.42818 -2.36416 0
M  V30 3896 C 360.063 2.37049 -3.67596 0
M  V30 3897 C 359.122 3.53937 -3.89378 0
M  V30 3898 O 358.148 3.34308 -4.60681 0
M  V30 3899 N 359.35 4.75126 -3.3352 0
M  V30 3900 H 362.115 0.702946 -2.9134 0
M  V30 3901 H 359.676 0.236745 -1.6016 0
M  V30 3902 H 361.668 3.197 -2.48141 0
M  V30 3903 H 360.238 2.72661 -1.52888 0
M  V30 3904 H 359.458 1.45395 -3.66407 0
M  V30 3905 H 360.746 2.30318 -4.53686 0
M  V30 3906 H 360.144 4.93976 -2.75688 0
M  V30 3907 H 358.701 5.49439 -3.50656 0
M  V30 3908 N 362.134 1.5431 0.320358 0
M  V30 3909 C 363.359 1.76954 1.08175 0
M  V30 3910 C 363.784 0.518193 1.80821 0
M  V30 3911 O 363.142 -0.530411 1.73368 0
M  V30 3912 C 363.19 2.96451 2.05303 0
M  V30 3913 O 362.294 2.68221 3.13259 0
M  V30 3914 H 361.635 0.586275 0.311733 0
M  V30 3915 H 364.165 2.01342 0.363676 0
M  V30 3916 H 364.175 3.23887 2.48116 0
M  V30 3917 H 362.85 3.87196 1.51829 0
M  V30 3918 H 361.427 2.51744 2.75099 0
M  V30 3919 N 363.613 -0.582584 1.46437 0
M  V30 3920 C 364.841 -1.36682 1.55324 0
M  V30 3921 C 365.256 -1.87796 0.194409 0
M  V30 3922 O 364.613 -1.63623 -0.808318 0
M  V30 3923 C 364.664 -2.55426 2.55812 0
M  V30 3924 O 364.385 -2.0643 3.86417 0
M  V30 3925 C 365.886 -3.47976 2.74641 0
M  V30 3926 H 363.106 -0.417545 0.525259 0
M  V30 3927 H 365.65 -0.708219 1.91845 0
M  V30 3928 H 363.805 -3.17275 2.22295 0
M  V30 3929 H 364.219 -2.83762 4.41111 0
M  V30 3930 H 365.693 -4.27775 3.48874 0
M  V30 3931 H 366.17 -3.99919 1.81553 0
M  V30 3932 H 366.776 -2.91962 3.09255 0
M  V30 3933 N 365.091 -1.34144 -0.827227 0
M  V30 3934 C 366.001 -1.27428 -1.96975 0
M  V30 3935 C 367.017 -0.182728 -1.73038 0
M  V30 3936 O 368.193 -0.408426 -1.97215 0
M  V30 3937 C 365.258 -1.02526 -3.31194 0
M  V30 3938 C 364.319 -2.20796 -3.68168 0
M  V30 3939 C 363.552 -1.97073 -4.95982 0
M  V30 3940 O 363.775 -0.926822 -5.6282 0
M  V30 3941 O 362.709 -2.83912 -5.30733 0
M  V30 3942 H 366.535 -2.23537 -2.05584 0
M  V30 3943 H 364.12 -1.14307 -0.961989 0
M  V30 3944 H 366.002 -0.904026 -4.11589 0
M  V30 3945 H 364.677 -0.0945389 -3.23562 0
M  V30 3946 H 363.584 -2.38477 -2.88235 0
M  V30 3947 H 364.917 -3.12243 -3.8048 0
M  V30 3948 N 366.569 1.04691 -1.17803 0
M  V30 3949 C 367.817 1.7743 -0.967617 0
M  V30 3950 C 368.138 1.88359 0.504574 0
M  V30 3951 O 367.408 1.40402 1.36617 0
M  V30 3952 H 365.988 0.657242 -0.355024 0
M  V30 3953 H 368.65 1.2638 -1.48371 0
M  V30 3954 H 367.746 2.78924 -1.40027 0
M  V30 3955 N 368.047 0.979072 1.23499 0
M  V30 3956 C 368.994 0.517904 2.24914 0
M  V30 3957 C 369.964 -0.442525 1.60097 0
M  V30 3958 O 371.149 -0.350365 1.87556 0
M  V30 3959 C 368.289 -0.174813 3.44657 0
M  V30 3960 C 367.402 0.825721 4.24035 0
M  V30 3961 C 366.537 0.107946 5.3109 0
M  V30 3962 C 365.576 1.09778 6.02175 0
M  V30 3963 N 364.713 0.40925 7.00906 0
M  V30 3964 H 369.553 1.38751 2.63727 0
M  V30 3965 H 367.09 0.695303 1.2963 0
M  V30 3966 H 369.048 -0.593233 4.12961 0
M  V30 3967 H 367.678 -1.0083 3.06648 0
M  V30 3968 H 366.73 1.36253 3.55161 0
M  V30 3969 H 368.042 1.58005 4.73113 0
M  V30 3970 H 367.196 -0.367904 6.05583 0
M  V30 3971 H 365.935 -0.678994 4.8295 0
M  V30 3972 H 364.94 1.5844 5.26476 0
M  V30 3973 H 366.165 1.88536 6.52404 0
M  V30 3974 H 364.111 -0.358506 6.5502 0
M  V30 3975 H 364.028 1.10226 7.47921 0
M  V30 3976 H 365.296 -0.0442557 7.79487 0
M  V30 3977 N 369.525 -1.3858 0.750561 0
M  V30 3978 C 370.753 -2.04471 0.316098 0
M  V30 3979 C 371.168 -1.56606 -1.05452 0
M  V30 3980 O 370.525 -0.737784 -1.66922 0
M  V30 3981 C 370.576 -3.60025 0.326275 0
M  V30 3982 O 370.297 -4.06133 1.6428 0
M  V30 3983 C 371.798 -4.43131 -0.122429 0
M  V30 3984 H 369.018 -0.65717 0.135528 0
M  V30 3985 H 371.562 -1.77329 1.01857 0
M  V30 3986 H 369.717 -3.86014 -0.327431 0
M  V30 3987 H 370.131 -5.00547 1.56693 0
M  V30 3988 H 371.605 -5.51963 -0.0641473 0
M  V30 3989 H 372.082 -4.23333 -1.16988 0
M  V30 3990 H 372.688 -4.22323 0.50229 0
M  V30 3991 N 371.003 -0.499398 -1.49478 0
M  V30 3992 C 372.228 0.044722 -2.07352 0
M  V30 3993 C 372.653 1.30207 -1.35749 0
M  V30 3994 O 372.011 1.76516 -0.413732 0
M  V30 3995 C 372.059 0.283013 -3.59488 0
M  V30 3996 O 371.163 1.35804 -3.89398 0
M  V30 3997 H 370.504 -0.0255147 -0.66351 0
M  V30 3998 H 373.034 -0.698561 -1.92305 0
M  V30 3999 H 373.044 0.515007 -4.04737 0
M  V30 4000 H 371.719 -0.635636 -4.11014 0
M  V30 4001 H 370.296 1.11113 -3.55961 0
M  V30 4002 O 372.52 1.5709 -0.374834 0
M  V30 4003 H 373.211 1.9292 0.173648 0
M  V30 END ATOM
M  V30 BEGIN BOND
M  V30 END BOND
M  V30 END CTAB
M  END
$$$$
