drugbank_target|P00797 Renin (DB00212; DB00350; DB00722; DB01844; DB02296; DB02803; DB03024; DB03395; DB03736; DB03968; DB04379; DB04387; DB05203; DB06899; DB06967; DB07059; DB07113; DB07174; DB07244; DB08099; DB09026)
 OpenBabel12092119283D

  0  0  0     0  0            999 V3000
M  V30 BEGIN CTAB
M  V30 COUNTS 6298 6374 0 0 0
M  V30 BEGIN ATOM
M  V30 1 H -0.908 1.98254 -0.117106 0
M  V30 2 N 0 1.576 0 0
M  V30 3 C 0.933 2.03868 1.02534 0
M  V30 4 C 1.911 0.928543 1.3348 0
M  V30 5 O 3.095 1.19667 1.45644 0
M  V30 6 C 0.222 2.43627 2.35294 0
M  V30 7 C -0.732 3.65373 2.2001 0
M  V30 8 S 0.101 5.13292 1.52614 0
M  V30 9 C 1.257 5.56322 2.86805 0
M  V30 10 H 1.49 2.90518 0.631377 0
M  V30 11 H -0.977 1.52953 0.210867 0
M  V30 12 H 0.981 2.67203 3.11629 0
M  V30 13 H -0.358 1.57376 2.7183 0
M  V30 14 H -1.165 3.90944 3.18086 0
M  V30 15 H -1.563 3.418 1.51819 0
M  V30 16 H 0.729 5.58782 3.83104 0
M  V30 17 H 1.672 6.56266 2.65933 0
M  V30 18 H 2.08 4.83886 2.90714 0
M  V30 19 N 1.4781 -0.272755 1.55222 0
M  V30 20 C 2.7551 -1.02562 1.66555 0
M  V30 21 C 3.1351 -2.04282 0.532189 0
M  V30 22 O 2.4831 -2.23662 -0.467717 0
M  V30 23 C 2.6931 -1.6822 3.05782 0
M  V30 24 C 4.0411 -2.19373 3.63539 0
M  V30 25 O 5.0651 -1.78206 3.08417 0
M  V30 26 O 3.9241 -2.94883 4.60115 0
M  V30 27 H 1.0181 -0.475755 0.676451 0
M  V30 28 H 3.5641 -0.268593 1.67561 0
M  V30 29 H 2.3361 -0.945112 3.79715 0
M  V30 30 H 1.9591 -2.50609 3.08676 0
M  V30 31 N 2.9562 -1.48159 -0.537278 0
M  V30 32 C 4.2042 -1.55497 -1.29094 0
M  V30 33 C 4.5252 -0.227454 -1.93669 0
M  V30 34 O 3.7952 0.750386 -1.80959 0
M  V30 35 H 2.3752 -0.572832 -0.47945 0
M  V30 36 H 5.0372 -1.84579 -0.625818 0
M  V30 37 H 4.1332 -2.33216 -2.07405 0
M  V30 38 N 4.4343 0.785586 -1.36625 0
M  V30 39 C 5.6803 1.5452 -1.32269 0
M  V30 40 C 6.0353 1.92159 0.0962266 0
M  V30 41 O 5.3283 1.60158 1.05167 0
M  V30 42 C 5.5223 2.83007 -2.1827 0
M  V30 43 C 5.3513 2.57925 -3.68382 0
M  V30 44 C 4.1213 2.52752 -4.37544 0
M  V30 45 C 6.3193 2.26861 -4.61561 0
M  V30 46 N 4.3013 2.19608 -5.73276 0
M  V30 47 C 5.6723 2.03738 -5.85569 0
M  V30 48 C 7.7273 2.129 -4.50087 0
M  V30 49 C 6.4303 1.68065 -6.9939 0
M  V30 50 C 8.4563 1.78626 -5.63779 0
M  V30 51 C 7.8183 1.56353 -6.86828 0
M  V30 52 H 3.9173 0.566301 -0.539283 0
M  V30 53 H 6.5013 0.917736 -1.71714 0
M  V30 54 H 4.6723 3.43614 -1.81063 0
M  V30 55 H 6.4043 3.48775 -2.05275 0
M  V30 56 H 3.1593 2.6813 -3.90389 0
M  V30 57 H 3.5833 2.05771 -6.44971 0
M  V30 58 H 8.2253 2.28808 -3.55537 0
M  V30 59 H 5.9433 1.50895 -7.93887 0
M  V30 60 H 9.5293 1.68502 -5.56865 0
M  V30 61 H 8.4093 1.30223 -7.73312 0
M  V30 62 N 5.9124 1.20967 1.01018 0
M  V30 63 C 7.3284 0.965905 1.27053 0
M  V30 64 C 7.5284 -0.350785 1.98423 0
M  V30 65 O 6.5844 -1.07773 2.28344 0
M  V30 66 C 7.8974 2.15294 2.09926 0
M  V30 67 C 9.4454 2.19463 2.23171 0
M  V30 68 C 9.9204 3.3767 3.09424 0
M  V30 69 N 11.4114 3.37724 3.17012 0
M  V30 70 C 12.1464 4.25837 3.83993 0
M  V30 71 N 11.6424 5.24138 4.53047 0
M  V30 72 N 13.4354 4.1366 3.80581 0
M  V30 73 H 5.5864 2.0565 0.531194 0
M  V30 74 H 7.8494 0.90024 0.297106 0
M  V30 75 H 7.5554 3.10684 1.64828 0
M  V30 76 H 7.4294 2.13923 3.10672 0
M  V30 77 H 9.8164 1.24632 2.6749 0
M  V30 78 H 9.8974 2.2488 1.21912 0
M  V30 79 H 9.5414 4.32791 2.65808 0
M  V30 80 H 9.4714 3.29491 4.10784 0
M  V30 81 H 11.9624 2.6658 2.6785 0
M  V30 82 H 12.2754 5.87684 5.01844 0
M  V30 83 H 10.6204 5.28068 4.5185 0
M  V30 84 H 13.8114 3.36127 3.25785 0
M  V30 85 H 13.9844 4.82538 4.32505 0
M  V30 86 N 7.3905 -1.2043 1.01659 0
M  V30 87 C 8.8065 -1.41852 0.731442 0
M  V30 88 C 9.0065 -1.89358 -0.688898 0
M  V30 89 O 8.0625 -2.06247 -1.45666 0
M  V30 90 C 9.3755 -2.44019 1.75714 0
M  V30 91 C 10.9235 -2.57785 1.77527 0
M  V30 92 C 11.3985 -3.63194 2.79023 0
M  V30 93 N 12.8895 -3.70678 2.77763 0
M  V30 94 C 13.6245 -4.51897 3.52954 0
M  V30 95 N 13.1205 -5.36921 4.37821 0
M  V30 96 N 14.9135 -4.4643 3.41551 0
M  V30 97 H 7.0645 -0.879093 1.93354 0
M  V30 98 H 9.3275 -0.448425 0.835236 0
M  V30 99 H 9.0335 -2.1611 2.77469 0
M  V30 100 H 8.9075 -3.43007 1.56927 0
M  V30 101 H 11.2945 -2.85023 0.764569 0
M  V30 102 H 11.3755 -1.58992 2.00387 0
M  V30 103 H 11.0195 -3.36699 3.80258 0
M  V30 104 H 10.9495 -4.61609 2.53425 0
M  V30 105 H 13.4405 -3.09944 2.16201 0
M  V30 106 H 13.7535 -5.95981 4.91962 0
M  V30 107 H 12.0985 -5.36424 4.41899 0
M  V30 108 H 15.2895 -3.79042 2.74672 0
M  V30 109 H 15.4625 -5.09491 4.00404 0
M  V30 110 N 8.8686 -0.792821 -1.36206 0
M  V30 111 C 9.8016 -0.139422 -2.27774 0
M  V30 112 C 10.7796 0.68649 -1.47398 0
M  V30 113 O 11.9636 0.656738 -1.7669 0
M  V30 114 C 9.0906 0.807947 -3.28922 0
M  V30 115 C 8.1366 0.0633999 -4.26453 0
M  V30 116 S 8.9696 -1.26319 -5.20388 0
M  V30 117 C 10.1256 -0.31991 -6.25082 0
M  V30 118 H 10.3586 -0.915809 -2.82843 0
M  V30 119 H 7.8916 -0.587203 -1.42798 0
M  V30 120 H 9.8496 1.34908 -3.87699 0
M  V30 121 H 8.5106 1.55761 -2.72759 0
M  V30 122 H 7.7036 0.782386 -4.9789 0
M  V30 123 H 7.3056 -0.407352 -3.71775 0
M  V30 124 H 9.5976 0.499985 -6.75653 0
M  V30 125 H 10.5406 -1.00307 -7.00959 0
M  V30 126 H 10.9486 0.0782694 -5.64446 0
M  V30 127 N 10.3467 1.47872 -0.545128 0
M  V30 128 C 11.7577 1.86384 -0.108581 0
M  V30 129 C 12.1087 1.45309 1.31832 0
M  V30 130 O 11.2337 0.850641 1.9898 0
M  V30 131 C 11.8287 3.38265 -0.190274 0
M  V30 132 C 10.3877 3.75914 0.191164 0
M  V30 133 C 9.5347 2.71926 -0.543273 0
M  V30 134 H 12.4857 1.39561 -0.755537 0
M  V30 135 H 12.5067 3.75831 0.594217 0
M  V30 136 H 12.0187 3.6813 -1.2289 0
M  V30 137 H 10.1197 3.51665 1.23136 0
M  V30 138 H 10.2327 4.78836 -0.158987 0
M  V30 139 H 8.5967 2.54697 0.0122495 0
M  V30 140 H 9.3797 3.04634 -1.58282 0
M  V30 141 N 11.8248 0.280983 1.55075 0
M  V30 142 C 13.2408 -0.0729964 1.59433 0
M  V30 143 C 13.4408 -1.5411 1.29817 0
M  V30 144 O 12.4968 -2.29086 1.06187 0
M  V30 145 C 13.8098 0.306921 2.9913 0
M  V30 146 C 15.3578 0.254023 3.11968 0
M  V30 147 C 15.8328 0.608467 4.5394 0
M  V30 148 N 17.3238 0.560241 4.59799 0
M  V30 149 C 18.0588 0.80722 5.6769 0
M  V30 150 N 17.5548 1.11912 6.83701 0
M  V30 151 N 19.3478 0.735623 5.57266 0
M  V30 152 H 11.4988 1.238 1.7259 0
M  V30 153 H 13.7618 0.500547 0.805082 0
M  V30 154 H 13.4678 1.32816 3.25657 0
M  V30 155 H 13.3418 -0.349363 3.75579 0
M  V30 156 H 15.7288 -0.75794 2.852 0
M  V30 157 H 15.8098 0.944649 2.37718 0
M  V30 158 H 15.4538 1.61814 4.81434 0
M  V30 159 H 15.3838 -0.104013 5.26497 0
M  V30 160 H 17.8748 0.329288 3.76463 0
M  V30 161 H 18.1878 1.29409 7.61888 0
M  V30 162 H 16.5328 1.15695 6.85303 0
M  V30 163 H 19.7238 0.491752 4.6551 0
M  V30 164 H 19.8968 0.931482 6.4127 0
M  V30 165 N 13.3029 -1.57598 0.00835791 0
M  V30 166 C 14.5489 -1.92046 -0.670055 0
M  V30 167 C 14.9039 -0.88351 -1.70915 0
M  V30 168 O 14.1969 0.103223 -1.91322 0
M  V30 169 C 14.3909 -3.3101 -1.34787 0
M  V30 170 C 14.2199 -4.48126 -0.375945 0
M  V30 171 C 12.9899 -5.05297 0.0166914 0
M  V30 172 C 15.1879 -5.1303 0.361272 0
M  V30 173 N 13.1699 -6.05931 0.985952 0
M  V30 174 C 14.5409 -6.08571 1.18495 0
M  V30 175 C 16.5959 -4.9609 0.42421 0
M  V30 176 C 15.2989 -6.88996 2.06584 0
M  V30 177 C 17.3249 -5.77107 1.29236 0
M  V30 178 C 16.6869 -6.72248 2.10386 0
M  V30 179 H 12.7859 -0.75096 -0.218136 0
M  V30 180 H 15.3699 -1.94572 0.0706669 0
M  V30 181 H 13.5409 -3.29342 -2.05884 0
M  V30 182 H 15.2729 -3.52864 -1.98164 0
M  V30 183 H 12.0279 -4.72279 -0.353435 0
M  V30 184 H 12.4519 -6.60932 1.4662 0
M  V30 185 H 17.0939 -4.22378 -0.188915 0
M  V30 186 H 14.8119 -7.62028 2.6896 0
M  V30 187 H 18.3979 -5.66038 1.34508 0
M  V30 188 H 17.2779 -7.33846 2.76476 0
M  V30 189 N 14.781 0.264519 -1.55364 0
M  V30 190 C 16.029 0.993021 -1.76021 0
M  V30 191 C 16.35 1.86511 -0.569099 0
M  V30 192 O 15.62 1.91438 0.415735 0
M  V30 193 H 14.2 0.369639 -0.649135 0
M  V30 194 H 16.862 0.286707 -1.9278 0
M  V30 195 H 15.958 1.62502 -2.66457 0
M  V30 196 N 16.2591 1.48442 0.529413 0
M  V30 197 C 17.1891 1.65902 1.64313 0
M  V30 198 C 18.1701 0.507897 1.6234 0
M  V30 199 O 19.3551 0.740503 1.79528 0
M  V30 200 C 16.4851 1.69911 3.02898 0
M  V30 201 C 15.4391 2.8453 3.19729 0
M  V30 202 C 14.7651 2.73629 4.59381 0
M  V30 203 C 16.0651 4.25821 3.02447 0
M  V30 204 H 17.7591 2.5914 1.49955 0
M  V30 205 H 15.3051 1.24709 0.719982 0
M  V30 206 H 17.2581 1.80715 3.80684 0
M  V30 207 H 15.9821 0.732524 3.18279 0
M  V30 208 H 14.6411 2.73283 2.44361 0
M  V30 209 H 14.2891 1.74938 4.71599 0
M  V30 210 H 13.9891 3.50541 4.71588 0
M  V30 211 H 15.5131 2.86401 5.39265 0
M  V30 212 H 16.9271 4.37898 3.70024 0
M  V30 213 H 15.3241 5.03735 3.26146 0
M  V30 214 H 16.3941 4.42244 1.98867 0
M  V30 215 N 17.7372 -0.778329 1.37039 0
M  V30 216 C 18.6672 -1.90546 1.34962 0
M  V30 217 C 19.6482 -1.68681 0.219274 0
M  V30 218 O 20.8332 -1.89634 0.418624 0
M  V30 219 C 17.9632 -3.27734 1.14925 0
M  V30 220 C 16.9172 -3.64147 2.24902 0
M  V30 221 C 16.2432 -4.99806 1.89996 0
M  V30 222 C 17.5432 -3.71579 3.67051 0
M  V30 223 H 19.2372 -1.92541 2.29277 0
M  V30 224 H 16.7832 -0.924948 1.10366 0
M  V30 225 H 18.7362 -4.06215 1.12104 0
M  V30 226 H 17.4602 -3.26154 0.170631 0
M  V30 227 H 16.1192 -2.8797 2.26868 0
M  V30 228 H 15.7672 -4.94759 0.906796 0
M  V30 229 H 15.4672 -5.25139 2.63634 0
M  V30 230 H 16.9912 -5.80694 1.88749 0
M  V30 231 H 18.4052 -4.40227 3.67251 0
M  V30 232 H 16.8022 -4.08405 4.39688 0
M  V30 233 H 17.8722 -2.72404 4.01154 0
M  V30 234 N 19.2153 -1.21501 -1.00376 0
M  V30 235 C 20.1453 -0.999478 -2.11028 0
M  V30 236 C 21.1263 0.0759671 -1.6993 0
M  V30 237 O 22.3113 -0.0841106 -1.94018 0
M  V30 238 C 19.4413 -0.564709 -3.42678 0
M  V30 239 C 18.3953 -1.58486 -3.97576 0
M  V30 240 C 17.7213 -1.00628 -5.25146 0
M  V30 241 C 19.0213 -2.97204 -4.29496 0
M  V30 242 H 20.7153 -1.92495 -2.29317 0
M  V30 243 H 18.2613 -0.92693 -1.102 0
M  V30 244 H 20.2143 -0.401091 -4.19487 0
M  V30 245 H 18.9383 0.396411 -3.24185 0
M  V30 246 H 17.5973 -1.73606 -3.22888 0
M  V30 247 H 17.2453 -0.0368439 -5.02987 0
M  V30 248 H 16.9453 -1.68771 -5.62841 0
M  V30 249 H 18.4693 -0.854015 -6.04598 0
M  V30 250 H 19.8833 -2.8552 -4.97143 0
M  V30 251 H 18.2803 -3.62372 -4.78338 0
M  V30 252 H 19.3503 -3.47956 -3.3772 0
M  V30 253 N 20.6934 1.19889 -1.02296 0
M  V30 254 C 21.6234 2.25141 -0.619174 0
M  V30 255 C 22.6044 1.66051 0.368915 0
M  V30 256 O 23.7894 1.92546 0.252941 0
M  V30 257 C 20.9194 3.4728 0.0368783 0
M  V30 258 C 19.8734 4.19005 -0.872865 0
M  V30 259 C 19.1994 5.34637 -0.0822402 0
M  V30 260 C 20.4994 4.74452 -2.18387 0
M  V30 261 H 22.1934 2.59171 -1.49903 0
M  V30 262 H 19.7394 1.24579 -0.722222 0
M  V30 263 H 21.6924 4.20098 0.330958 0
M  V30 264 H 20.4164 3.12433 0.95149 0
M  V30 265 H 19.0754 3.48061 -1.15105 0
M  V30 266 H 18.7234 4.96034 0.83422 0
M  V30 267 H 18.4234 5.83557 -0.688149 0
M  V30 268 H 19.9474 6.10255 0.205238 0
M  V30 269 H 21.3614 5.39055 -1.95172 0
M  V30 270 H 19.7584 5.33834 -2.74119 0
M  V30 271 H 20.8284 3.92844 -2.84257 0
M  V30 272 N 22.1715 0.800033 1.35784 0
M  V30 273 C 23.1015 0.220184 2.3246 0
M  V30 274 C 24.0825 -0.65073 1.57161 0
M  V30 275 O 25.2675 -0.582359 1.85263 0
M  V30 276 C 22.3975 -0.637353 3.41402 0
M  V30 277 C 21.3515 0.134531 4.27789 0
M  V30 278 C 20.6775 -0.844285 5.27992 0
M  V30 279 C 21.9775 1.32979 5.05088 0
M  V30 280 H 23.6715 1.02787 2.81203 0
M  V30 281 H 21.2175 0.495717 1.35199 0
M  V30 282 H 23.1705 -1.05302 4.08031 0
M  V30 283 H 21.8945 -1.47785 2.91251 0
M  V30 284 H 20.5535 0.531296 3.6273 0
M  V30 285 H 20.2015 -1.68011 4.74111 0
M  V30 286 H 19.9015 -0.332184 5.8666 0
M  V30 287 H 21.4255 -1.2583 5.97494 0
M  V30 288 H 22.8395 0.98934 5.64699 0
M  V30 289 H 21.2365 1.77593 5.7322 0
M  V30 290 H 22.3065 2.11978 4.36111 0
M  V30 291 N 23.6496 -1.47581 0.552962 0
M  V30 292 C 24.8956 -2.03369 0.0355807 0
M  V30 293 C 25.2506 -1.42016 -1.29805 0
M  V30 294 O 24.5436 -0.564917 -1.83083 0
M  V30 295 C 24.7376 -3.57199 -0.119728 0
M  V30 296 C 24.5666 -4.33468 1.1973 0
M  V30 297 C 23.3366 -4.7353 1.76345 0
M  V30 298 C 25.5346 -4.68866 2.11351 0
M  V30 299 N 23.5166 -5.34426 3.02097 0
M  V30 300 C 24.8876 -5.3002 3.21681 0
M  V30 301 C 26.9426 -4.50795 2.11397 0
M  V30 302 C 25.6456 -5.75011 4.32151 0
M  V30 303 C 27.6716 -4.96782 3.20876 0
M  V30 304 C 27.0336 -5.57981 4.29926 0
M  V30 305 H 23.1326 -0.780058 0.0550806 0
M  V30 306 H 25.7166 -1.80117 0.739315 0
M  V30 307 H 23.8876 -3.80227 -0.792579 0
M  V30 308 H 25.6196 -3.99627 -0.638792 0
M  V30 309 H 22.3746 -4.55352 1.30196 0
M  V30 310 H 22.7986 -5.69421 3.66182 0
M  V30 311 H 27.4406 -4.0284 1.28372 0
M  V30 312 H 25.1586 -6.21959 5.15938 0
M  V30 313 H 28.7446 -4.84573 3.21994 0
M  V30 314 H 27.6246 -5.92918 5.13243 0
M  V30 315 N 25.1277 -0.289203 -1.54924 0
M  V30 316 C 26.3757 0.322879 -1.99504 0
M  V30 317 C 26.6967 1.55313 -1.1791 0
M  V30 318 O 25.9667 1.94001 -0.272097 0
M  V30 319 H 24.5467 0.122291 -0.736922 0
M  V30 320 H 27.2087 -0.397802 -1.90797 0
M  V30 321 H 26.3047 0.603061 -3.06218 0
M  V30 322 N 26.6058 1.57591 -0.0167156 0
M  V30 323 C 27.8308 1.9598 0.67872 0
M  V30 324 C 28.2558 0.892546 1.65575 0
M  V30 325 O 27.6138 -0.147772 1.80697 0
M  V30 326 C 27.6618 3.33468 1.37227 0
M  V30 327 O 26.7658 3.28954 2.48722 0
M  V30 328 H 26.1068 0.639339 0.17928 0
M  V30 329 H 28.6368 2.04463 -0.0748802 0
M  V30 330 H 28.6468 3.69417 1.7319 0
M  V30 331 H 27.3218 4.10694 0.656007 0
M  V30 332 H 25.8988 3.04705 2.14963 0
M  V30 333 N 28.0839 -0.256276 1.55502 0
M  V30 334 C 29.3239 -0.993081 1.78654 0
M  V30 335 C 29.6879 -1.8288 0.584724 0
M  V30 336 O 30.8889 -2.59665 0.694822 0
M  V30 337 C 29.1599 -1.83856 3.06483 0
M  V30 338 S 30.7189 -2.63573 3.5082 0
M  V30 339 H 27.5369 -0.334199 0.62756 0
M  V30 340 H 30.1389 -0.26184 1.93739 0
M  V30 341 H 28.8429 -1.21414 3.92029 0
M  V30 342 H 28.3739 -2.61271 2.94111 0
M  V30 343 H 30.3889 -3.86312 3.11412 0
M  V30 344 N 29.562 -1.4872 -0.521534 0
M  V30 345 C 30.79 -1.60843 -1.30142 0
M  V30 346 C 31.205 -0.271897 -1.86832 0
M  V30 347 O 30.562 0.739969 -1.66825 0
M  V30 348 C 30.613 -2.66155 -2.4463 0
M  V30 349 O 30.334 -3.94623 -1.90275 0
M  V30 350 C 31.835 -2.88795 -3.36322 0
M  V30 351 H 29.055 -0.542075 -0.395468 0
M  V30 352 H 31.599 -1.94609 -0.628285 0
M  V30 353 H 29.754 -2.35224 -3.07812 0
M  V30 354 H 30.168 -4.52468 -2.65279 0
M  V30 355 H 31.642 -3.66264 -4.12983 0
M  V30 356 H 32.119 -1.97934 -3.9207 0
M  V30 357 H 32.725 -3.21063 -2.78924 0
M  V30 358 N 31.0401 0.771051 -1.3745 0
M  V30 359 C 32.2871 1.52963 -1.32697 0
M  V30 360 C 32.6151 1.94299 0.0883274 0
M  V30 361 O 31.8701 1.64397 1.0617 0
M  V30 362 C 32.1691 2.80676 -2.2126 0
M  V30 363 C 31.8351 2.58389 -3.69521 0
M  V30 364 C 30.4971 2.52019 -4.09927 0
M  V30 365 C 32.8491 2.38469 -4.63446 0
M  V30 366 C 30.1771 2.23721 -5.42371 0
M  V30 367 C 32.5291 2.11694 -5.96128 0
M  V30 368 C 31.1931 2.03769 -6.35637 0
M  V30 369 H 30.4631 0.559732 -0.485573 0
M  V30 370 H 33.1101 0.888083 -1.69662 0
M  V30 371 H 31.4151 3.49392 -1.77291 0
M  V30 372 H 33.1121 3.38557 -2.14895 0
M  V30 373 H 29.7021 2.6421 -3.37478 0
M  V30 374 H 33.8861 2.4238 -4.33089 0
M  V30 375 H 29.1421 2.16081 -5.71943 0
M  V30 376 H 33.3161 1.9528 -6.6846 0
M  V30 377 H 30.9431 1.81606 -7.38189 0
M  V30 378 N 32.5182 1.22032 0.997298 0
M  V30 379 C 33.7662 1.04016 1.73278 0
M  V30 380 C 34.0872 -0.426255 1.90284 0
M  V30 381 O 33.3572 -1.30694 1.45931 0
M  V30 382 H 31.9372 0.381897 0.642 0
M  V30 383 H 34.5992 1.5347 1.20137 0
M  V30 384 H 33.6952 1.51441 2.72896 0
M  V30 385 N 33.9963 -1.19345 1.0293 0
M  V30 386 C 34.9263 -2.2481 0.631105 0
M  V30 387 C 35.9073 -1.66245 -0.360104 0
M  V30 388 O 37.0923 -1.92677 -0.242726 0
M  V30 389 C 34.2223 -3.47295 -0.0184607 0
M  V30 390 C 33.1763 -4.18536 0.895073 0
M  V30 391 C 32.5023 -5.34586 0.110592 0
M  V30 392 C 33.8023 -4.73287 2.209 0
M  V30 393 H 35.4963 -2.58372 1.51275 0
M  V30 394 H 33.0423 -1.24194 0.728818 0
M  V30 395 H 34.9953 -4.20268 -0.308675 0
M  V30 396 H 33.7193 -3.12933 -0.934907 0
M  V30 397 H 32.3783 -3.47446 1.16949 0
M  V30 398 H 32.0263 -4.96469 -0.807902 0
M  V30 399 H 31.7263 -5.83183 0.719087 0
M  V30 400 H 33.2503 -6.10355 -0.172871 0
M  V30 401 H 34.6643 -5.38013 1.98028 0
M  V30 402 H 33.0613 -5.32373 2.76946 0
M  V30 403 H 34.1313 -3.91331 2.86336 0
M  V30 404 N 35.4744 -0.807222 -1.35358 0
M  V30 405 C 36.8854 -0.44876 -1.81226 0
M  V30 406 C 37.2364 1.02929 -1.67033 0
M  V30 407 O 36.3614 1.79991 -1.20133 0
M  V30 408 C 36.9564 -0.807774 -3.2903 0
M  V30 409 C 35.5154 -0.501901 -3.73039 0
M  V30 410 C 34.6624 -1.03304 -2.57339 0
M  V30 411 H 37.6134 -0.998808 -1.23327 0
M  V30 412 H 37.6344 -0.10554 -3.80354 0
M  V30 413 H 37.1464 -1.88357 -3.39328 0
M  V30 414 H 35.2474 0.565128 -3.68289 0
M  V30 415 H 35.3604 -1.03497 -4.67787 0
M  V30 416 H 33.7244 -0.455339 -2.50597 0
M  V30 417 H 34.5074 -2.11496 -2.70415 0
M  V30 418 N 36.9525 1.47285 -0.560781 0
M  V30 419 C 38.1805 2.06855 -0.0430262 0
M  V30 420 C 38.5955 1.41291 1.25229 0
M  V30 421 O 37.9525 0.510648 1.7521 0
M  V30 422 C 38.0035 3.61178 0.152518 0
M  V30 423 O 37.7245 4.24285 -1.0915 0
M  V30 424 C 39.2255 4.37624 0.707145 0
M  V30 425 H 36.4455 0.669319 -0.0474652 0
M  V30 426 H 38.9895 1.89237 -0.77521 0
M  V30 427 H 37.1445 3.78298 0.834843 0
M  V30 428 H 37.5585 5.16868 -0.891482 0
M  V30 429 H 39.0325 5.46271 0.793244 0
M  V30 430 H 39.5095 4.04152 1.71923 0
M  V30 431 H 40.1155 4.25257 0.0604027 0
M  V30 432 N 38.4306 0.297415 1.54768 0
M  V30 433 C 39.7076 -0.365847 1.92148 0
M  V30 434 C 40.0876 -1.71975 1.22424 0
M  V30 435 O 39.4356 -2.25666 0.358739 0
M  V30 436 C 39.6456 -0.484056 3.45627 0
M  V30 437 C 40.9936 -0.756594 4.17805 0
M  V30 438 O 42.0176 -0.568007 3.51642 0
M  V30 439 O 40.8766 -1.11863 5.34929 0
M  V30 440 H 37.9706 -0.203919 0.801465 0
M  V30 441 H 40.5166 0.34521 1.66152 0
M  V30 442 H 39.2886 0.467865 3.88493 0
M  V30 443 H 38.9116 -1.24372 3.77647 0
M  V30 444 N 39.9087 -1.5758 0.0250728 0
M  V30 445 C 41.1367 -1.9593 -0.664747 0
M  V30 446 C 41.5517 -0.901352 -1.65895 0
M  V30 447 O 40.9087 0.117255 -1.82123 0
M  V30 448 C 40.9597 -3.34342 -1.37468 0
M  V30 449 O 40.6807 -4.36079 -0.420324 0
M  V30 450 C 42.1817 -3.873 -2.1567 0
M  V30 451 H 39.4017 -0.645405 -0.183557 0
M  V30 452 H 41.9457 -2.04329 0.0836372 0
M  V30 453 H 40.1007 -3.27175 -2.0745 0
M  V30 454 H 40.5147 -5.16297 -0.923991 0
M  V30 455 H 41.9887 -4.86504 -2.60803 0
M  V30 456 H 42.4657 -3.21331 -2.99405 0
M  V30 457 H 43.0717 -3.97723 -1.50654 0
M  V30 458 N 41.3868 0.248026 -1.55636 0
M  V30 459 C 42.6148 0.993808 -1.81469 0
M  V30 460 C 43.0298 1.78991 -0.60064 0
M  V30 461 O 42.3868 1.77345 0.430682 0
M  V30 462 C 42.4378 1.93258 -3.05506 0
M  V30 463 O 42.1588 1.16869 -4.22224 0
M  V30 464 C 43.6598 2.79444 -3.4413 0
M  V30 465 H 40.8798 0.292486 -0.603898 0
M  V30 466 H 43.4238 0.271253 -2.02693 0
M  V30 467 H 41.5788 2.60943 -2.86335 0
M  V30 468 H 41.9928 1.80359 -4.92515 0
M  V30 469 H 43.4668 3.41066 -4.34026 0
M  V30 470 H 43.9438 3.50499 -2.64665 0
M  V30 471 H 44.5498 2.17214 -3.65648 0
M  V30 472 N 42.8649 1.48995 0.513639 0
M  V30 473 C 44.0929 1.61531 1.29288 0
M  V30 474 C 44.5079 0.281801 1.86685 0
M  V30 475 O 43.8649 -0.731111 1.67215 0
M  V30 476 C 43.9159 2.67449 2.43215 0
M  V30 477 O 43.6369 3.95626 1.88179 0
M  V30 478 C 45.1379 2.90575 3.34785 0
M  V30 479 H 42.3579 0.544165 0.392588 0
M  V30 480 H 44.9019 1.9494 0.617956 0
M  V30 481 H 43.0569 2.36853 3.0656 0
M  V30 482 H 43.4709 4.53868 2.62876 0
M  V30 483 H 44.9449 3.68449 4.11035 0
M  V30 484 H 45.4219 2.00011 3.91015 0
M  V30 485 H 46.0279 3.22538 2.77218 0
M  V30 486 N 44.343 -0.763751 1.37857 0
M  V30 487 C 45.59 -1.52257 1.33506 0
M  V30 488 C 45.918 -1.94343 -0.078022 0
M  V30 489 O 45.173 -1.64958 -1.05297 0
M  V30 490 C 45.472 -2.79499 2.22745 0
M  V30 491 C 45.138 -2.56426 3.70886 0
M  V30 492 C 43.8 -2.49842 4.11257 0
M  V30 493 C 46.152 -2.36008 4.64704 0
M  V30 494 C 43.48 -2.20841 5.43549 0
M  V30 495 C 45.832 -2.0853 5.97242 0
M  V30 496 C 44.496 -2.00396 6.36709 0
M  V30 497 H 43.766 -0.557149 0.488534 0
M  V30 498 H 46.413 -0.879073 1.70131 0
M  V30 499 H 44.718 -3.48447 1.79142 0
M  V30 500 H 46.415 -3.37413 2.16688 0
M  V30 501 H 43.005 -2.62416 3.38874 0
M  V30 502 H 47.189 -2.40079 4.34368 0
M  V30 503 H 42.445 -2.13045 5.73081 0
M  V30 504 H 46.619 -1.91732 6.69486 0
M  V30 505 H 44.246 -1.77688 7.39142 0
M  V30 506 N 45.8211 -1.22559 -0.990812 0
M  V30 507 C 46.7681 -0.997519 -2.0813 0
M  V30 508 C 47.7381 0.0814702 -1.659 0
M  V30 509 O 48.9231 -0.0685424 -1.90677 0
M  V30 510 C 46.0631 -0.583615 -3.40129 0
M  V30 511 C 45.1761 -1.7336 -3.9569 0
M  V30 512 C 44.3111 -1.26748 -5.15857 0
M  V30 513 C 43.3501 -2.38888 -5.63559 0
M  V30 514 N 42.4871 -1.93308 -6.74964 0
M  V30 515 H 47.3271 -1.93099 -2.26973 0
M  V30 516 H 44.8641 -0.962114 -1.11273 0
M  V30 517 H 46.8221 -0.324801 -4.15934 0
M  V30 518 H 45.4521 0.312845 -3.2128 0
M  V30 519 H 44.5041 -2.10669 -3.16738 0
M  V30 520 H 45.8161 -2.57704 -4.27071 0
M  V30 521 H 44.9701 -0.966173 -5.98957 0
M  V30 522 H 43.7091 -0.394272 -4.86104 0
M  V30 523 H 42.7141 -2.69805 -4.79046 0
M  V30 524 H 43.9391 -3.26728 -5.95336 0
M  V30 525 H 41.8851 -1.08352 -6.4699 0
M  V30 526 H 41.8021 -2.71217 -7.05675 0
M  V30 527 H 43.0701 -1.66252 -7.61564 0
M  V30 528 N 47.2992 1.18797 -1.03562 0
M  V30 529 C 48.7152 1.40671 -0.753917 0
M  V30 530 C 48.9152 1.9043 0.658686 0
M  V30 531 O 47.9712 2.08538 1.42366 0
M  V30 532 C 49.2842 2.41192 -1.79574 0
M  V30 533 C 50.8322 2.54928 -1.81606 0
M  V30 534 C 51.3072 3.58709 -2.84766 0
M  V30 535 N 52.7982 3.66212 -2.83625 0
M  V30 536 C 53.5332 4.46225 -3.60098 0
M  V30 537 N 53.0292 5.29888 -4.46308 0
M  V30 538 N 54.8222 4.40939 -3.4861 0
M  V30 539 H 46.9732 0.848221 -1.94728 0
M  V30 540 H 49.2362 0.435081 -0.842264 0
M  V30 541 H 48.9422 2.11669 -2.80872 0
M  V30 542 H 48.8162 3.40467 -1.62365 0
M  V30 543 H 51.2032 2.83771 -0.809817 0
M  V30 544 H 51.2842 1.55784 -2.02891 0
M  V30 545 H 50.9282 3.30607 -3.85566 0
M  V30 546 H 50.8582 4.57519 -2.60737 0
M  V30 547 H 53.3492 3.06466 -2.21105 0
M  V30 548 H 53.6622 5.88078 -5.01382 0
M  V30 549 H 52.0072 5.29326 -4.50377 0
M  V30 550 H 55.1982 3.74624 -2.80668 0
M  V30 551 H 55.3712 5.03056 -4.08459 0
M  V30 552 N 48.7773 0.814389 1.34928 0
M  V30 553 C 50.0263 0.394871 1.97797 0
M  V30 554 C 50.3393 -1.04555 1.65311 0
M  V30 555 O 51.5453 -1.56856 2.21604 0
M  V30 556 C 50.0013 0.655103 3.53888 0
M  V30 557 C 49.6093 2.10858 3.95276 0
M  V30 558 C 51.3533 0.301329 4.23429 0
M  V30 559 C 49.2603 2.31415 5.44244 0
M  V30 560 H 48.1903 0.143913 0.740139 0
M  V30 561 H 50.8413 0.999544 1.53888 0
M  V30 562 H 49.2233 -0.0196253 3.95995 0
M  V30 563 H 50.3973 2.82176 3.64298 0
M  V30 564 H 48.7123 2.42297 3.38646 0
M  V30 565 H 51.3093 0.432869 5.32945 0
M  V30 566 H 51.6523 -0.75331 4.09428 0
M  V30 567 H 52.1853 0.930288 3.86769 0
M  V30 568 H 48.9243 3.35353 5.63222 0
M  V30 569 H 48.4443 1.6463 5.76764 0
M  V30 570 H 50.1233 2.13352 6.10811 0
M  V30 571 N 50.2554 -1.46986 0.568584 0
M  V30 572 C 51.5024 -2.02441 0.0487986 0
M  V30 573 C 51.8304 -1.44169 -1.30559 0
M  V30 574 O 51.0854 -0.591213 -1.86556 0
M  V30 575 C 51.3844 -3.57306 -0.081836 0
M  V30 576 C 51.0504 -4.34552 1.20313 0
M  V30 577 C 49.7124 -4.55376 1.5552 0
M  V30 578 C 52.0644 -4.79016 2.05411 0
M  V30 579 C 49.3924 -5.17913 2.7565 0
M  V30 580 C 51.7444 -5.42879 3.24754 0
M  V30 581 C 50.4084 -5.61933 3.60261 0
M  V30 582 H 49.6784 -0.740785 0.0178567 0
M  V30 583 H 52.3254 -1.76525 0.742384 0
M  V30 584 H 50.6304 -3.8228 -0.858463 0
M  V30 585 H 52.3274 -3.97876 -0.499546 0
M  V30 586 H 48.9174 -4.18631 0.919014 0
M  V30 587 H 53.1014 -4.62696 1.79516 0
M  V30 588 H 48.3574 -5.30858 3.03315 0
M  V30 589 H 52.5314 -5.76293 3.90973 0
M  V30 590 H 50.1584 -6.10161 4.53439 0
M  V30 591 N 51.7335 -0.305618 -1.54608 0
M  V30 592 C 52.6635 0.561482 -2.26649 0
M  V30 593 C 53.6445 1.13415 -1.26772 0
M  V30 594 O 54.8295 1.16262 -1.55553 0
M  V30 595 C 51.9595 1.73122 -3.01075 0
M  V30 596 C 50.9135 1.2887 -4.08138 0
M  V30 597 C 50.2395 2.54396 -4.70305 0
M  V30 598 C 51.5395 0.416578 -5.20636 0
M  V30 599 H 53.2335 -0.0393902 -2.99374 0
M  V30 600 H 50.7795 -0.020385 -1.43986 0
M  V30 601 H 52.7325 2.34396 -3.50195 0
M  V30 602 H 51.4565 2.3584 -2.25936 0
M  V30 603 H 50.1155 0.698991 -3.59875 0
M  V30 604 H 49.7635 3.15439 -3.918 0
M  V30 605 H 49.4635 2.25486 -5.42614 0
M  V30 606 H 50.9875 3.16464 -5.2219 0
M  V30 607 H 52.4015 0.935116 -5.65622 0
M  V30 608 H 50.7985 0.221046 -5.99693 0
M  V30 609 H 51.8685 -0.557162 -4.81688 0
M  V30 610 N 53.2116 1.57565 -0.0334293 0
M  V30 611 C 54.1586 2.10478 0.946981 0
M  V30 612 C 55.1286 1.00787 1.32027 0
M  V30 613 O 56.3136 1.28232 1.41284 0
M  V30 614 C 53.4536 2.63994 2.22263 0
M  V30 615 C 52.5666 3.87709 1.90541 0
M  V30 616 C 51.7016 4.29604 3.12433 0
M  V30 617 C 50.7406 5.46065 2.76549 0
M  V30 618 N 49.8776 5.83096 3.9108 0
M  V30 619 H 54.7176 2.93963 0.488846 0
M  V30 620 H 52.2546 1.45296 0.22969 0
M  V30 621 H 54.2126 2.93114 2.96884 0
M  V30 622 H 52.8426 1.83333 2.65685 0
M  V30 623 H 51.8946 3.65291 1.06144 0
M  V30 624 H 53.2066 4.72403 1.60116 0
M  V30 625 H 52.3606 4.60182 3.9537 0
M  V30 626 H 51.0996 3.43685 3.46023 0
M  V30 627 H 50.1046 5.15176 1.92026 0
M  V30 628 H 51.3296 6.33685 2.44171 0
M  V30 629 H 49.2756 5.00132 4.24504 0
M  V30 630 H 49.1926 6.6244 3.64293 0
M  V30 631 H 50.4606 6.18282 4.74708 0
M  V30 632 N 54.6897 -0.239769 1.55765 0
M  V30 633 C 56.1057 -0.588624 1.48349 0
M  V30 634 C 56.3057 -1.88005 0.72502 0
M  V30 635 O 55.3617 -2.51186 0.257269 0
M  V30 636 C 56.6747 -0.68474 2.928 0
M  V30 637 C 58.2227 -0.77659 3.03213 0
M  V30 638 C 58.6977 -0.904207 4.48986 0
M  V30 639 N 60.1887 -0.968896 4.52953 0
M  V30 640 C 60.9237 -1.08703 5.63002 0
M  V30 641 N 60.4197 -1.17026 6.82845 0
M  V30 642 N 62.2127 -1.12074 5.50814 0
M  V30 643 H 54.3637 0.607911 2.03515 0
M  V30 644 H 56.6267 0.21083 0.924259 0
M  V30 645 H 56.3327 0.194284 3.51163 0
M  V30 646 H 56.2067 -1.55435 3.43686 0
M  V30 647 H 58.5937 -1.64606 2.44926 0
M  V30 648 H 58.6747 0.118315 2.55526 0
M  V30 649 H 58.3187 -0.0392633 5.07885 0
M  V30 650 H 58.2487 -1.81426 4.9436 0
M  V30 651 H 60.7397 -0.915633 3.6664 0
M  V30 652 H 61.0527 -1.25966 7.62465 0
M  V30 653 H 59.3977 -1.13971 6.85591 0
M  V30 654 H 62.5887 -1.05226 4.5612 0
M  V30 655 H 62.7617 -1.20936 6.36615 0
M  V30 656 N 56.1678 -1.49265 -0.50573 0
M  V30 657 C 57.1008 -1.60183 -1.62532 0
M  V30 658 C 58.0788 -0.451107 -1.56217 0
M  V30 659 O 59.2628 -0.666016 -1.76342 0
M  V30 660 C 56.3898 -1.55238 -3.01029 0
M  V30 661 C 55.4358 -2.7545 -3.25621 0
M  V30 662 S 56.2688 -4.37174 -3.09256 0
M  V30 663 C 57.4248 -4.34866 -4.50158 0
M  V30 664 H 57.6578 -2.54894 -1.53025 0
M  V30 665 H 55.1908 -1.38098 -0.690535 0
M  V30 666 H 57.1488 -1.53071 -3.80893 0
M  V30 667 H 55.8098 -0.618238 -3.07956 0
M  V30 668 H 55.0028 -2.68197 -4.26716 0
M  V30 669 H 54.6048 -2.75005 -2.53472 0
M  V30 670 H 56.8968 -4.06295 -5.42154 0
M  V30 671 H 57.8398 -5.36223 -4.62462 0
M  V30 672 H 58.2478 -3.65007 -4.30616 0
M  V30 673 N 57.6459 0.756429 -1.3826 0
M  V30 674 C 59.0569 1.33359 -1.30661 0
M  V30 675 C 59.4079 1.96161 0.0388875 0
M  V30 676 O 58.5329 1.94874 0.940918 0
M  V30 677 C 59.1279 2.42477 -2.36622 0
M  V30 678 C 57.6869 2.95922 -2.3261 0
M  V30 679 C 56.8339 1.69275 -2.19639 0
M  V30 680 H 59.7849 0.55552 -1.4866 0
M  V30 681 H 59.8059 3.22345 -2.02174 0
M  V30 682 H 59.3179 1.96739 -3.34538 0
M  V30 683 H 57.4189 3.45996 -1.38267 0
M  V30 684 H 57.5319 3.50494 -3.26636 0
M  V30 685 H 55.8959 1.92793 -1.66442 0
M  V30 686 H 56.6789 1.25619 -3.19491 0
M  V30 687 N 59.124 1.23083 0.984299 0
M  V30 688 C 60.349 1.088 1.76571 0
M  V30 689 C 60.774 -0.356657 1.84688 0
M  V30 690 O 60.132 -1.25788 1.30565 0
M  V30 691 C 60.18 1.71371 3.17277 0
M  V30 692 O 59.284 0.973213 4.00752 0
M  V30 693 H 58.625 0.381599 0.543395 0
M  V30 694 H 61.155 1.63057 1.23587 0
M  V30 695 H 61.165 1.76449 3.67872 0
M  V30 696 H 59.84 2.76493 3.10684 0
M  V30 697 H 58.417 0.999078 3.59267 0
M  V30 698 N 60.6021 -1.18246 1.0419 0
M  V30 699 C 61.8511 -1.87588 0.741194 0
M  V30 700 C 62.1641 -1.81303 -0.734066 0
M  V30 701 O 63.3701 -2.46019 -1.14834 0
M  V30 702 C 61.8261 -3.36538 1.27555 0
M  V30 703 C 61.4341 -3.51349 2.77953 0
M  V30 704 C 63.1781 -4.11273 1.05143 0
M  V30 705 C 61.0851 -4.94265 3.2474 0
M  V30 706 H 60.0151 -0.702622 0.273565 0
M  V30 707 H 62.6661 -1.33601 1.25789 0
M  V30 708 H 61.0481 -3.9 0.686703 0
M  V30 709 H 62.2221 -3.08153 3.42605 0
M  V30 710 H 60.5371 -2.90022 2.98791 0
M  V30 711 H 63.1341 -5.16689 1.37611 0
M  V30 712 H 63.4771 -4.16298 -0.0112774 0
M  V30 713 H 64.0101 -3.63987 1.60495 0
M  V30 714 H 60.7491 -4.94408 4.30396 0
M  V30 715 H 60.2691 -5.38172 2.64823 0
M  V30 716 H 61.9481 -5.62987 3.18834 0
M  V30 717 N 62.0802 -0.821533 -1.34494 0
M  V30 718 C 63.4962 -0.507117 -1.51329 0
M  V30 719 C 63.6962 0.968964 -1.76673 0
M  V30 720 O 62.7522 1.75348 -1.81685 0
M  V30 721 C 64.0652 -1.36544 -2.67911 0
M  V30 722 C 65.6132 -1.36242 -2.81793 0
M  V30 723 C 66.0882 -2.2052 -4.01416 0
M  V30 724 N 67.5792 -2.18136 -4.08621 0
M  V30 725 C 68.3142 -2.80095 -5.00334 0
M  V30 726 N 67.8102 -3.51039 -5.9728 0
M  V30 727 N 69.6032 -2.69656 -4.93196 0
M  V30 728 H 61.7542 -1.77729 -1.16302 0
M  V30 729 H 64.0172 -0.757291 -0.570276 0
M  V30 730 H 63.7232 -2.41361 -2.55808 0
M  V30 731 H 63.5972 -1.02917 -3.62888 0
M  V30 732 H 65.9842 -0.322041 -2.93338 0
M  V30 733 H 66.0652 -1.73866 -1.87628 0
M  V30 734 H 65.7092 -3.24607 -3.90631 0
M  V30 735 H 65.6392 -1.80247 -4.94791 0
M  V30 736 H 68.1302 -1.6653 -3.39229 0
M  V30 737 H 68.4432 -3.95565 -6.63889 0
M  V30 738 H 66.7882 -3.55145 -5.97409 0
M  V30 739 H 69.9792 -2.13808 -4.16418 0
M  V30 740 H 70.1522 -3.1823 -5.64476 0
M  V30 741 N 63.5583 1.46682 -0.576371 0
M  V30 742 C 64.4683 2.34032 0.163141 0
M  V30 743 C 65.4843 1.49367 0.892501 0
M  V30 744 O 66.6603 1.82252 0.857106 0
M  V30 745 C 63.7253 3.26435 1.16795 0
M  V30 746 C 62.7863 4.26998 0.443944 0
M  V30 747 C 62.0193 5.14986 1.40088 0
M  V30 748 O 62.2423 5.05785 2.637 0
M  V30 749 O 61.1763 5.94906 0.914917 0
M  V30 750 H 65.0023 2.98607 -0.55388 0
M  V30 751 H 62.5873 1.45554 -0.336821 0
M  V30 752 H 64.4693 3.83459 1.74748 0
M  V30 753 H 63.1443 2.64465 1.86655 0
M  V30 754 H 62.0513 3.7368 -0.177271 0
M  V30 755 H 63.3843 4.91736 -0.213566 0
M  V30 756 N 65.0364 0.313813 1.54444 0
M  V30 757 C 66.2614 -0.296681 2.05267 0
M  V30 758 C 66.6864 -1.45757 1.18897 0
M  V30 759 O 66.0444 -1.80239 0.195886 0
M  V30 760 C 66.0924 -0.71831 3.53373 0
M  V30 761 O 65.1964 -1.82175 3.69981 0
M  V30 762 H 64.5374 -0.0554061 0.661684 0
M  V30 763 H 67.0674 0.459387 1.99376 0
M  V30 764 H 67.0774 -1.00364 3.95463 0
M  V30 765 H 65.7524 0.130821 4.15694 0
M  V30 766 H 64.3294 -1.53598 3.39797 0
M  V30 767 N 66.5145 -1.57545 0.0417849 0
M  V30 768 C 67.4445 -2.14009 -0.933929 0
M  V30 769 C 68.4255 -1.05938 -1.33083 0
M  V30 770 O 69.6105 -1.33833 -1.40721 0
M  V30 771 C 66.7405 -2.67747 -2.21199 0
M  V30 772 C 65.6945 -3.80718 -1.95544 0
M  V30 773 C 65.0205 -4.20935 -3.29724 0
M  V30 774 C 66.3205 -5.06258 -1.28452 0
M  V30 775 H 68.0145 -2.95788 -0.463645 0
M  V30 776 H 65.5605 -1.42285 -0.221573 0
M  V30 777 H 67.5135 -3.05886 -2.89848 0
M  V30 778 H 66.2375 -1.83147 -2.70416 0
M  V30 779 H 64.8965 -3.43037 -1.2931 0
M  V30 780 H 64.5445 -3.33298 -3.76724 0
M  V30 781 H 64.2445 -4.9707 -3.13361 0
M  V30 782 H 65.7685 -4.61666 -3.9962 0
M  V30 783 H 67.1825 -5.41903 -1.8712 0
M  V30 784 H 65.5795 -5.87475 -1.22445 0
M  V30 785 H 66.6495 -4.84207 -0.259219 0
M  V30 786 N 67.9926 0.231505 -1.5589 0
M  V30 787 C 68.9396 1.28682 -1.91598 0
M  V30 788 C 69.9096 1.47071 -0.771974 0
M  V30 789 O 71.0946 1.60802 -1.027 0
M  V30 790 C 68.2346 2.6342 -2.22944 0
M  V30 791 C 67.3476 2.52912 -3.50228 0
M  V30 792 C 66.4826 3.80106 -3.7107 0
M  V30 793 C 65.5216 3.64279 -4.91902 0
M  V30 794 N 64.6586 4.834 -5.09184 0
M  V30 795 H 69.4986 0.975305 -2.81588 0
M  V30 796 H 67.0356 0.470299 -1.39379 0
M  V30 797 H 68.9936 3.41869 -2.39126 0
M  V30 798 H 67.6236 2.92687 -1.36139 0
M  V30 799 H 66.6756 1.6595 -3.42294 0
M  V30 800 H 67.9876 2.37133 -4.38827 0
M  V30 801 H 67.1416 4.66999 -3.87295 0
M  V30 802 H 65.8806 3.98799 -2.80733 0
M  V30 803 H 64.8856 2.7577 -4.75637 0
M  V30 804 H 66.1106 3.47067 -5.83714 0
M  V30 805 H 64.0566 5.02425 -4.21788 0
M  V30 806 H 63.9736 4.70311 -5.91898 0
M  V30 807 H 65.2416 5.71747 -5.29835 0
M  V30 808 N 69.4707 1.49531 0.497807 0
M  V30 809 C 70.3807 1.69176 1.62532 0
M  V30 810 C 71.3967 0.5744 1.64246 0
M  V30 811 O 72.5727 0.849497 1.82608 0
M  V30 812 C 69.6377 1.75695 2.98885 0
M  V30 813 C 68.6987 2.9929 3.07773 0
M  V30 814 C 67.9317 3.05488 4.37622 0
M  V30 815 O 68.1547 2.19192 5.26603 0
M  V30 816 O 67.0887 3.9798 4.51548 0
M  V30 817 H 70.9147 2.647 1.48887 0
M  V30 818 H 68.4997 1.3331 0.674441 0
M  V30 819 H 70.3817 1.82317 3.79919 0
M  V30 820 H 69.0567 0.8335 3.12785 0
M  V30 821 H 67.9637 2.98183 2.25915 0
M  V30 822 H 69.2967 3.91125 2.98801 0
M  V30 823 N 70.9488 -0.749086 1.3866 0
M  V30 824 C 72.3648 -1.05276 1.19955 0
M  V30 825 C 72.5648 -2.01435 0.05134 0
M  V30 826 O 71.6208 -2.45232 -0.60147 0
M  V30 827 C 72.9338 -1.62853 2.52783 0
M  V30 828 C 74.4818 -1.75002 2.59506 0
M  V30 829 C 74.9568 -2.35991 3.92521 0
M  V30 830 N 76.4478 -2.43416 3.94085 0
M  V30 831 C 77.1828 -2.91511 4.9377 0
M  V30 832 N 76.6788 -3.39608 6.03853 0
M  V30 833 N 78.4718 -2.90592 4.81157 0
M  V30 834 H 70.6228 -0.111066 2.12109 0
M  V30 835 H 72.8858 -0.111901 0.941373 0
M  V30 836 H 72.5918 -0.99664 3.37283 0
M  V30 837 H 72.4658 -2.61854 2.715 0
M  V30 838 H 74.8528 -2.37317 1.75398 0
M  V30 839 H 74.9338 -0.74693 2.44652 0
M  V30 840 H 74.5778 -1.74308 4.77053 0
M  V30 841 H 74.5078 -3.3695 4.04688 0
M  V30 842 H 76.9988 -2.09405 3.14576 0
M  V30 843 H 77.3118 -3.74775 6.75843 0
M  V30 844 H 75.6568 -3.37653 6.07466 0
M  V30 845 H 78.8478 -2.52332 3.94267 0
M  V30 846 H 79.0208 -3.27762 5.58996 0
M  V30 847 N 72.4269 -1.23603 -0.977757 0
M  V30 848 C 73.6749 -1.06759 -1.71601 0
M  V30 849 C 73.9959 0.395929 -1.90938 0
M  V30 850 O 73.2659 1.28356 -1.47992 0
M  V30 851 H 71.8459 -0.392062 -0.635843 0
M  V30 852 H 74.5079 -1.55362 -1.1768 0
M  V30 853 H 73.6039 -1.55763 -2.70452 0
M  V30 854 N 73.905 1.17692 -1.04816 0
M  V30 855 C 75.151 1.88137 -0.75711 0
M  V30 856 C 75.484 1.80604 0.713841 0
M  V30 857 O 74.759 1.21146 1.52164 0
M  V30 858 C 75.042 3.38318 -1.2334 0
M  V30 859 C 74.895 3.54622 -2.76701 0
M  V30 860 C 76.214 4.32214 -0.829415 0
M  V30 861 H 73.333 0.683163 -0.27651 0
M  V30 862 H 75.975 1.38424 -1.30149 0
M  V30 863 H 74.125 3.80787 -0.770286 0
M  V30 864 H 75.797 3.21194 -3.31107 0
M  V30 865 H 74.04 2.97026 -3.16161 0
M  V30 866 H 74.711 4.60028 -3.05088 0
M  V30 867 H 77.187 3.97565 -1.22805 0
M  V30 868 H 76.063 5.35838 -1.19033 0
M  V30 869 H 76.324 4.41294 0.266891 0
M  V30 870 N 75.3831 0.828654 1.34056 0
M  V30 871 C 76.6601 0.341809 1.9259 0
M  V30 872 C 77.0401 -1.17158 1.75605 0
M  V30 873 O 76.3881 -1.98132 1.13824 0
M  V30 874 C 76.5981 0.777453 3.4023 0
M  V30 875 C 77.9461 0.779579 4.17382 0
M  V30 876 O 78.9701 0.7204 3.48839 0
M  V30 877 O 77.8291 0.857996 5.39723 0
M  V30 878 H 74.9231 0.0946085 0.821571 0
M  V30 879 H 77.4691 0.913827 1.42994 0
M  V30 880 H 76.2411 1.8196 3.46419 0
M  V30 881 H 75.8641 0.181444 3.97186 0
M  V30 882 N 76.8612 -1.46375 0.584142 0
M  V30 883 C 77.7942 -2.27351 -0.196676 0
M  V30 884 C 78.7722 -1.35715 -0.895561 0
M  V30 885 O 79.9562 -1.65126 -0.90916 0
M  V30 886 C 77.0832 -3.13486 -1.28235 0
M  V30 887 C 76.1292 -4.20896 -0.689145 0
M  V30 888 S 76.9622 -5.33299 0.48507 0
M  V30 889 C 78.1182 -6.23 -0.601767 0
M  V30 890 H 78.3512 -2.93228 0.490395 0
M  V30 891 H 75.8842 -1.49875 0.371071 0
M  V30 892 H 77.8422 -3.63676 -1.90395 0
M  V30 893 H 76.5032 -2.4692 -1.94138 0
M  V30 894 H 75.6962 -4.80997 -1.50527 0
M  V30 895 H 75.2982 -3.73726 -0.143181 0
M  V30 896 H 77.5902 -6.60979 -1.48705 0
M  V30 897 H 78.5332 -7.0809 -0.0374799 0
M  V30 898 H 78.9412 -5.57173 -0.906557 0
M  V30 899 N 78.3393 -0.321999 -1.54275 0
M  V30 900 C 79.3023 0.531975 -2.22941 0
M  V30 901 C 80.3023 1.04478 -1.22234 0
M  V30 902 O 81.4923 0.937452 -1.46825 0
M  V30 903 C 78.6243 1.73874 -2.93224 0
M  V30 904 H 79.8173 -0.0682612 -2.99822 0
M  V30 905 H 77.3703 -0.0730644 -1.56129 0
M  V30 906 H 78.1053 2.37825 -2.20476 0
M  V30 907 H 77.8903 1.37847 -3.6707 0
M  V30 908 H 79.3803 2.34496 -3.45545 0
M  V30 909 N 79.8174 1.5752 -0.0501392 0
M  V30 910 C 81.2334 1.56631 0.306402 0
M  V30 911 C 81.4334 1.0577 1.71508 0
M  V30 912 O 80.4894 0.713837 2.422 0
M  V30 913 C 81.8024 3.00393 0.135811 0
M  V30 914 C 83.3504 3.12315 0.206993 0
M  V30 915 C 83.8254 4.57954 0.064944 0
M  V30 916 N 85.3164 4.63041 0.121254 0
M  V30 917 C 86.0514 5.73389 0.0354381 0
M  V30 918 N 85.5474 6.92724 -0.102666 0
M  V30 919 N 87.3404 5.62026 0.090946 0
M  V30 920 H 79.4914 1.88903 -0.971046 0
M  V30 921 H 81.7544 0.869876 -0.376855 0
M  V30 922 H 81.4604 3.41635 -0.835384 0
M  V30 923 H 81.3344 3.66373 0.897275 0
M  V30 924 H 83.7214 2.70973 1.16866 0
M  V30 925 H 83.8024 2.49016 -0.585208 0
M  V30 926 H 83.4464 4.99981 -0.893394 0
M  V30 927 H 83.3764 5.19258 0.876277 0
M  V30 928 H 85.8674 3.77216 0.227284 0
M  V30 929 H 86.1804 7.72633 -0.160882 0
M  V30 930 H 84.5254 6.94864 -0.137737 0
M  V30 931 H 87.7164 4.67684 0.197388 0
M  V30 932 H 87.8894 6.47997 0.0206089 0
M  V30 933 N 81.2955 -0.223234 1.56011 0
M  V30 934 C 82.2255 -1.27988 1.95298 0
M  V30 935 C 83.2065 -1.48976 0.820979 0
M  V30 936 O 84.3915 -1.61188 1.08315 0
M  V30 937 C 81.5215 -2.63 2.26822 0
M  V30 938 C 80.4755 -2.56671 3.42497 0
M  V30 939 C 79.8015 -3.95697 3.59622 0
M  V30 940 C 81.1015 -2.11601 4.77517 0
M  V30 941 H 82.7955 -0.953525 2.8381 0
M  V30 942 H 80.3415 -0.457244 1.36548 0
M  V30 943 H 82.2945 -3.37077 2.52898 0
M  V30 944 H 81.0185 -2.9732 1.35161 0
M  V30 945 H 79.6775 -1.85051 3.16467 0
M  V30 946 H 79.3255 -4.27322 2.6534 0
M  V30 947 H 79.0255 -3.92345 4.37424 0
M  V30 948 H 80.5495 -4.71438 3.88044 0
M  V30 949 H 81.9635 -2.7542 5.02809 0
M  V30 950 H 80.3605 -2.19311 5.5859 0
M  V30 951 H 81.4305 -1.06824 4.72987 0
M  V30 952 N 82.7736 -1.49793 -0.48987 0
M  V30 953 C 84.0216 -1.59525 -1.24081 0
M  V30 954 C 84.3426 -0.288953 -1.92847 0
M  V30 955 O 83.6126 0.692436 -1.83254 0
M  V30 956 H 82.1926 -0.587796 -0.460983 0
M  V30 957 H 84.8546 -1.86477 -0.566778 0
M  V30 958 H 83.9506 -2.39696 -1.99881 0
M  V30 959 N 84.2517 0.741722 -1.39055 0
M  V30 960 C 85.6627 1.31966 -1.32068 0
M  V30 961 C 86.0137 1.96192 0.0180797 0
M  V30 962 O 85.1387 1.95861 0.920196 0
M  V30 963 C 85.7337 2.39954 -2.39181 0
M  V30 964 C 84.2927 2.93438 -2.35735 0
M  V30 965 C 83.4397 1.66936 -2.21422 0
M  V30 966 H 86.3907 0.539721 -1.4924 0
M  V30 967 H 86.4117 3.20182 -2.05581 0
M  V30 968 H 85.9237 1.9318 -3.36605 0
M  V30 969 H 84.0247 3.4451 -1.41929 0
M  V30 970 H 84.1377 3.4701 -3.30335 0
M  V30 971 H 82.5017 1.91016 -1.68478 0
M  V30 972 H 83.2847 1.22224 -3.20806 0
M  V30 973 N 85.7298 1.2412 0.971189 0
M  V30 974 C 86.6398 1.04747 2.09917 0
M  V30 975 C 87.6558 -0.0107162 1.73997 0
M  V30 976 O 88.8318 0.186714 2.00533 0
M  V30 977 C 85.8968 0.650828 3.40537 0
M  V30 978 C 84.9578 1.7851 3.90426 0
M  V30 979 C 84.1908 1.40729 5.14812 0
M  V30 980 O 84.4138 0.29557 5.69634 0
M  V30 981 O 83.3478 2.23168 5.58999 0
M  V30 982 H 87.1738 1.99304 2.29154 0
M  V30 983 H 84.7588 1.02908 1.08307 0
M  V30 984 H 86.6408 0.440992 4.19086 0
M  V30 985 H 85.3158 -0.265649 3.22608 0
M  V30 986 H 84.2228 2.04966 3.12953 0
M  V30 987 H 85.5558 2.68023 4.12825 0
M  V30 988 N 87.2079 -1.17134 1.05439 0
M  V30 989 C 88.4539 -1.87979 0.776872 0
M  V30 990 C 88.8089 -1.7965 -0.688751 0
M  V30 991 O 88.1019 -1.19535 -1.4974 0
M  V30 992 C 88.2959 -3.36833 1.19491 0
M  V30 993 C 88.1249 -3.59653 2.69963 0
M  V30 994 C 86.8949 -3.76234 3.37307 0
M  V30 995 C 89.0929 -3.59091 3.68182 0
M  V30 996 N 87.0749 -3.86922 4.76618 0
M  V30 997 C 88.4459 -3.75659 4.93235 0
M  V30 998 C 90.5009 -3.42255 3.61616 0
M  V30 999 C 89.2039 -3.77133 6.12506 0
M  V30 1000 C 91.2299 -3.45018 4.8033 0
M  V30 1001 C 90.5919 -3.62096 6.04207 0
M  V30 1002 H 86.6909 -0.705876 0.336546 0
M  V30 1003 H 89.2749 -1.40602 1.34682 0
M  V30 1004 H 87.4459 -3.82873 0.652884 0
M  V30 1005 H 89.1779 -3.95305 0.866966 0
M  V30 1006 H 85.9329 -3.76193 2.87708 0
M  V30 1007 H 86.3569 -3.96055 5.49062 0
M  V30 1008 H 90.9989 -3.27986 2.66805 0
M  V30 1009 H 88.7169 -3.90186 7.07659 0
M  V30 1010 H 92.3029 -3.33246 4.76905 0
M  V30 1011 H 91.1829 -3.64142 6.94529 0
M  V30 1012 N 88.686 -0.835752 -1.33615 0
M  V30 1013 C 89.911 -0.442389 -2.02627 0
M  V30 1014 C 90.336 0.947735 -1.62479 0
M  V30 1015 O 89.694 1.61907 -0.815826 0
M  V30 1016 C 89.742 -0.567216 -3.56111 0
M  V30 1017 O 88.846 0.407799 -4.10379 0
M  V30 1018 H 88.187 -0.180278 -0.639059 0
M  V30 1019 H 90.717 -1.12972 -1.70583 0
M  V30 1020 H 90.727 -0.447708 -4.05536 0
M  V30 1021 H 89.402 -1.58103 -3.84677 0
M  V30 1022 H 87.979 0.246107 -3.72087 0
M  V30 1023 N 90.1641 1.46063 -0.591896 0
M  V30 1024 C 91.0961 2.28539 0.174001 0
M  V30 1025 C 92.1091 1.39047 0.846753 0
M  V30 1026 O 93.2981 1.63564 0.714774 0
M  V30 1027 C 90.3981 3.14347 1.26645 0
M  V30 1028 C 89.5711 4.32021 0.683856 0
M  V30 1029 C 88.6301 4.99157 1.66518 0
M  V30 1030 O 87.6561 5.56458 1.19763 0
M  V30 1031 N 88.8581 4.97005 2.99943 0
M  V30 1032 H 91.6231 2.94911 -0.533633 0
M  V30 1033 H 89.1841 1.56077 -0.430294 0
M  V30 1034 H 91.1761 3.56125 1.92242 0
M  V30 1035 H 89.7461 2.49988 1.87682 0
M  V30 1036 H 88.9661 3.93915 -0.1498 0
M  V30 1037 H 90.2541 5.08059 0.274567 0
M  V30 1038 H 89.6521 4.51714 3.40545 0
M  V30 1039 H 88.2091 5.42696 3.61004 0
M  V30 1040 N 91.6422 0.330177 1.54103 0
M  V30 1041 C 93.0532 -0.15652 1.86043 0
M  V30 1042 C 93.4042 -1.51086 1.2517 0
M  V30 1043 O 92.5292 -2.09023 0.560217 0
M  V30 1044 C 93.1242 -0.290784 3.3755 0
M  V30 1045 C 91.6832 -0.721705 3.69416 0
M  V30 1046 C 90.8302 0.152622 2.7688 0
M  V30 1047 H 93.7812 0.550237 1.48856 0
M  V30 1048 H 93.8022 -1.12058 3.63625 0
M  V30 1049 H 93.3142 0.695068 3.81825 0
M  V30 1050 H 91.4152 -1.71706 3.30678 0
M  V30 1051 H 91.5282 -0.520869 4.7626 0
M  V30 1052 H 89.8922 -0.372894 2.51956 0
M  V30 1053 H 90.6752 1.13536 3.23982 0
M  V30 1054 N 93.1203 -1.57491 0.0584922 0
M  V30 1055 C 94.0533 -2.07533 -0.948969 0
M  V30 1056 C 95.0313 -0.977444 -1.29942 0
M  V30 1057 O 96.2153 -1.2499 -1.41102 0
M  V30 1058 C 93.3423 -2.52192 -2.2609 0
M  V30 1059 C 92.3883 -3.73287 -2.06298 0
M  V30 1060 S 93.2213 -5.18603 -1.33459 0
M  V30 1061 C 94.3773 -5.66583 -2.65959 0
M  V30 1062 H 94.6103 -2.92662 -0.523118 0
M  V30 1063 H 92.1433 -1.53631 -0.153954 0
M  V30 1064 H 94.1013 -2.78585 -3.01498 0
M  V30 1065 H 92.7623 -1.67356 -2.65802 0
M  V30 1066 H 91.9553 -4.0248 -3.03357 0
M  V30 1067 H 91.5573 -3.47199 -1.39029 0
M  V30 1068 H 93.8493 -5.72616 -3.62101 0
M  V30 1069 H 94.7923 -6.65684 -2.41393 0
M  V30 1070 H 95.2003 -4.94342 -2.72554 0
M  V30 1071 N 94.5984 0.214957 -1.56127 0
M  V30 1072 C 95.5454 1.26642 -1.92952 0
M  V30 1073 C 96.5154 1.46244 -0.78753 0
M  V30 1074 O 97.7004 1.59704 -1.04399 0
M  V30 1075 C 94.8404 2.6104 -2.25726 0
M  V30 1076 C 93.9534 2.49183 -3.52891 0
M  V30 1077 C 93.0884 3.76149 -3.7508 0
M  V30 1078 C 92.1274 3.59041 -4.95738 0
M  V30 1079 N 91.2644 4.77972 -5.14283 0
M  V30 1080 H 96.1044 0.945384 -2.82607 0
M  V30 1081 H 93.6414 0.455489 -1.3987 0
M  V30 1082 H 95.5994 3.39313 -2.42739 0
M  V30 1083 H 94.2294 2.91227 -1.39236 0
M  V30 1084 H 93.2814 1.6231 -3.44034 0
M  V30 1085 H 94.5934 2.32466 -4.41318 0
M  V30 1086 H 93.7474 4.62865 -3.92226 0
M  V30 1087 H 92.4864 3.95799 -2.84947 0
M  V30 1088 H 91.4914 2.7071 -4.78535 0
M  V30 1089 H 92.7164 3.40856 -5.87362 0
M  V30 1090 H 90.6624 4.97923 -4.27093 0
M  V30 1091 H 90.5794 4.64006 -5.96853 0
M  V30 1092 H 91.8474 5.66096 -5.35869 0
M  V30 1093 N 96.0765 1.50051 0.48192 0
M  V30 1094 C 97.4925 1.37237 0.814756 0
M  V30 1095 C 97.6925 0.420109 1.97072 0
M  V30 1096 O 96.7485 -0.141246 2.52105 0
M  V30 1097 C 98.0615 2.78375 1.13701 0
M  V30 1098 C 99.6095 2.87213 1.2441 0
M  V30 1099 C 100.084 4.29161 1.59954 0
M  V30 1100 N 101.575 4.32061 1.66967 0
M  V30 1101 C 102.31 5.38879 1.95952 0
M  V30 1102 N 101.806 6.55918 2.23031 0
M  V30 1103 N 103.599 5.26312 1.97363 0
M  V30 1104 H 95.7505 2.10546 -0.28005 0
M  V30 1105 H 98.0135 0.945921 -0.0627454 0
M  V30 1106 H 97.7195 3.49845 0.360787 0
M  V30 1107 H 97.5935 3.14941 2.07586 0
M  V30 1108 H 99.9805 2.15969 2.01101 0
M  V30 1109 H 100.061 2.54204 0.285299 0
M  V30 1110 H 99.7055 5.00938 0.838067 0
M  V30 1111 H 99.6355 4.59648 2.56966 0
M  V30 1112 H 102.126 3.47661 1.48123 0
M  V30 1113 H 102.439 7.33139 2.44391 0
M  V30 1114 H 100.784 6.59112 2.20447 0
M  V30 1115 H 103.975 4.33876 1.75697 0
M  V30 1116 H 104.148 6.09649 2.19618 0
M  V30 1117 N 97.5546 -0.734337 1.39446 0
M  V30 1118 C 98.4846 -1.86155 1.40955 0
M  V30 1119 C 99.4656 -1.67898 0.272827 0
M  V30 1120 O 100.651 -1.88207 0.478743 0
M  V30 1121 C 97.7806 -3.23912 1.25294 0
M  V30 1122 C 96.7346 -3.56808 2.36373 0
M  V30 1123 C 96.0606 -4.93508 2.058 0
M  V30 1124 C 97.3606 -3.59713 3.78687 0
M  V30 1125 H 99.0546 -1.8515 2.35287 0
M  V30 1126 H 96.6006 -0.889367 1.13253 0
M  V30 1127 H 98.5536 -4.02443 1.2497 0
M  V30 1128 H 97.2776 -3.25446 0.274308 0
M  V30 1129 H 95.9366 -2.80606 2.35914 0
M  V30 1130 H 95.5846 -4.91623 1.06374 0
M  V30 1131 H 95.2846 -5.16486 2.80208 0
M  V30 1132 H 96.8086 -5.74396 2.07128 0
M  V30 1133 H 98.2226 -4.2832 3.81071 0
M  V30 1134 H 96.6196 -3.94209 4.52459 0
M  V30 1135 H 97.6896 -2.59504 4.09617 0
M  V30 1136 N 99.0327 -1.24633 -0.964593 0
M  V30 1137 C 100.261 -1.11501 -1.74285 0
M  V30 1138 C 100.676 0.332165 -1.85855 0
M  V30 1139 O 100.033 1.22903 -1.34911 0
M  V30 1140 C 100.084 -1.75258 -3.16175 0
M  V30 1141 O 99.8047 -3.14318 -3.05182 0
M  V30 1142 C 101.306 -1.67776 -4.10324 0
M  V30 1143 H 98.5257 -0.389407 -0.546446 0
M  V30 1144 H 101.07 -1.64801 -1.21083 0
M  V30 1145 H 99.2247 -1.25954 -3.66353 0
M  V30 1146 H 99.6387 -3.4551 -3.94618 0
M  V30 1147 H 101.113 -2.17064 -5.0753 0
M  V30 1148 H 101.59 -0.639584 -4.34518 0
M  V30 1149 H 102.196 -2.16522 -3.66058 0
M  V30 1150 N 100.511 1.16574 -1.06058 0
M  V30 1151 C 101.441 2.23057 -0.690488 0
M  V30 1152 C 102.422 1.67141 0.315901 0
M  V30 1153 O 103.607 1.93253 0.191556 0
M  V30 1154 C 100.737 3.47222 -0.073625 0
M  V30 1155 C 99.6908 4.16016 -1.00573 0
M  V30 1156 C 99.0168 5.34104 -0.252289 0
M  V30 1157 C 100.317 4.67264 -2.33371 0
M  V30 1158 H 102.011 2.54271 -1.58072 0
M  V30 1159 H 99.5568 1.22218 -0.76149 0
M  V30 1160 H 101.51 4.20939 0.19714 0
M  V30 1161 H 100.234 3.15302 0.85161 0
M  V30 1162 H 98.8928 3.44223 -1.2612 0
M  V30 1163 H 98.5408 4.98437 0.675988 0
M  V30 1164 H 98.2408 5.81072 -0.873455 0
M  V30 1165 H 99.7648 6.10599 0.0109857 0
M  V30 1166 H 101.179 5.32573 -2.12223 0
M  V30 1167 H 99.5758 5.24843 -2.90963 0
M  V30 1168 H 100.646 3.83602 -2.96611 0
M  V30 1169 N 101.989 0.842826 1.3317 0
M  V30 1170 C 103.237 0.439577 1.97262 0
M  V30 1171 C 103.558 -1.00548 1.67078 0
M  V30 1172 O 102.828 -1.70098 0.971779 0
M  V30 1173 H 101.408 0.159558 0.72976 0
M  V30 1174 H 104.07 1.07665 1.62463 0
M  V30 1175 H 103.166 0.574886 3.0676 0
M  V30 1176 N 103.467 -1.45747 0.599634 0
M  V30 1177 C 104.415 -2.322 -0.136426 0
M  V30 1178 C 105.409 -1.45497 -0.867583 0
M  V30 1179 O 106.615 -1.62027 -0.78405 0
M  V30 1180 H 102.99 -0.749368 -0.0628588 0
M  V30 1181 H 104.961 -2.92072 0.611281 0
M  V30 1182 C 103.71 -3.28974 -1.12567 0
M  V30 1183 H 103.033 -3.9568 -0.572484 0
M  V30 1184 H 104.473 -3.92212 -1.61077 0
M  V30 1185 C 102.932 -2.55561 -2.19523 0
M  V30 1186 O 103.462 -2.33111 -3.27143 0
M  V30 1187 N 101.668 -2.15832 -1.94589 0
M  V30 1188 H 101.215 -2.3429 -1.07078 0
M  V30 1189 H 101.173 -1.67034 -2.66359 0
M  V30 1190 N 104.945 -0.338344 -1.53925 0
M  V30 1191 C 106.173 0.261298 -2.05243 0
M  V30 1192 C 106.588 1.44625 -1.21363 0
M  V30 1193 O 105.945 1.80811 -0.247736 0
M  V30 1194 C 105.996 0.681412 -3.5502 0
M  V30 1195 O 105.717 -0.456414 -4.35716 0
M  V30 1196 C 107.218 1.34232 -4.22489 0
M  V30 1197 H 104.438 0.0513685 -0.669031 0
M  V30 1198 H 106.982 -0.488822 -1.98572 0
M  V30 1199 H 105.137 1.38148 -3.61931 0
M  V30 1200 H 105.551 -0.122564 -5.24357 0
M  V30 1201 H 107.025 1.58708 -5.28693 0
M  V30 1202 H 107.502 2.29426 -3.74514 0
M  V30 1203 H 108.108 0.684424 -4.19757 0
M  V30 1204 N 106.423 1.57458 -0.0668435 0
M  V30 1205 C 107.651 1.97624 0.612565 0
M  V30 1206 C 108.066 0.94502 1.63447 0
M  V30 1207 O 107.423 -0.0689276 1.8237 0
M  V30 1208 C 107.474 3.37869 1.28555 0
M  V30 1209 O 107.195 4.3704 0.304557 0
M  V30 1210 C 108.696 3.92882 2.05325 0
M  V30 1211 H 105.916 0.650045 0.166381 0
M  V30 1212 H 108.46 2.04035 -0.137782 0
M  V30 1213 H 106.615 3.3256 1.98702 0
M  V30 1214 H 107.029 5.18565 0.786779 0
M  V30 1215 H 108.503 4.93247 2.47812 0
M  V30 1216 H 108.98 3.29156 2.9078 0
M  V30 1217 H 109.586 4.01577 1.40056 0
M  V30 1218 N 107.901 -0.206675 1.56239 0
M  V30 1219 C 109.126 -0.949474 1.8439 0
M  V30 1220 C 109.551 -1.76549 0.649016 0
M  V30 1221 O 108.909 -1.76782 -0.402231 0
M  V30 1222 C 108.957 -1.83078 3.10668 0
M  V30 1223 O 108.061 -2.9281 2.90407 0
M  V30 1224 H 107.402 -0.268033 0.607499 0
M  V30 1225 H 109.932 -0.215488 2.03462 0
M  V30 1226 H 109.942 -2.2377 3.41161 0
M  V30 1227 H 108.617 -1.23112 3.97261 0
M  V30 1228 H 107.194 -2.55956 2.71184 0
M  V30 1229 N 109.379 -1.50304 -0.473955 0
M  V30 1230 C 110.604 -1.65175 -1.25427 0
M  V30 1231 C 111.029 -0.333673 -1.85117 0
M  V30 1232 O 110.387 0.702114 -1.67153 0
M  V30 1233 C 110.435 -2.74295 -2.34082 0
M  V30 1234 O 109.539 -2.35349 -3.38651 0
M  V30 1235 H 108.88 -0.551944 -0.369126 0
M  V30 1236 H 111.41 -1.96662 -0.564364 0
M  V30 1237 H 111.42 -2.97285 -2.79438 0
M  V30 1238 H 110.095 -3.69959 -1.90008 0
M  V30 1239 H 108.672 -2.22794 -2.99027 0
M  V30 1240 N 110.857 0.726932 -1.39834 0
M  V30 1241 C 112.103 1.48884 -1.377 0
M  V30 1242 C 112.436 1.94185 0.0244852 0
M  V30 1243 O 111.711 1.67361 0.990986 0
M  V30 1244 C 111.994 2.72288 -2.3565 0
M  V30 1245 C 111.847 2.32956 -3.84775 0
M  V30 1246 C 113.166 3.74414 -2.31306 0
M  V30 1247 H 110.285 0.540062 -0.5015 0
M  V30 1248 H 112.927 0.830547 -1.70886 0
M  V30 1249 H 111.077 3.28457 -2.07481 0
M  V30 1250 H 112.749 1.82356 -4.23726 0
M  V30 1251 H 110.992 1.65088 -4.01159 0
M  V30 1252 H 111.663 3.21362 -4.4881 0
M  V30 1253 H 114.139 3.27849 -2.56231 0
M  V30 1254 H 113.015 4.58414 -3.01907 0
M  V30 1255 H 113.276 4.21909 -1.32081 0
M  V30 1256 N 112.336 1.25143 0.95797 0
M  V30 1257 C 113.585 1.0909 1.69654 0
M  V30 1258 C 113.898 -0.368548 1.92097 0
M  V30 1259 O 115.104 -0.649455 2.63618 0
M  V30 1260 C 113.56 1.90395 3.05414 0
M  V30 1261 C 113.168 3.4081 2.90779 0
M  V30 1262 C 114.912 1.82901 3.83076 0
M  V30 1263 C 112.819 4.14423 4.21909 0
M  V30 1264 H 111.749 0.404625 0.636235 0
M  V30 1265 H 114.4 1.4931 1.06672 0
M  V30 1266 H 112.782 1.42996 3.69281 0
M  V30 1267 H 113.956 3.95859 2.35865 0
M  V30 1268 H 112.271 3.49361 2.26575 0
M  V30 1269 H 114.868 2.35196 4.80195 0
M  V30 1270 H 115.211 0.796224 4.08615 0
M  V30 1271 H 115.744 2.28033 3.25954 0
M  V30 1272 H 112.483 5.18102 4.01561 0
M  V30 1273 H 112.003 3.64159 4.76601 0
M  V30 1274 H 113.682 4.21956 4.90471 0
M  V30 1275 N 113.814 -1.1601 1.06675 0
M  V30 1276 C 114.744 -2.22688 0.702307 0
M  V30 1277 C 115.725 -1.67306 -0.307032 0
M  V30 1278 O 116.91 -1.93352 -0.181305 0
M  V30 1279 C 114.04 -3.47178 0.092038 0
M  V30 1280 C 112.994 -4.15477 1.02777 0
M  V30 1281 C 112.32 -5.33963 0.28061 0
M  V30 1282 C 113.62 -4.66019 2.35846 0
M  V30 1283 H 115.314 -2.53429 1.59419 0
M  V30 1284 H 112.86 -1.21813 0.767961 0
M  V30 1285 H 114.813 -4.21037 -0.174814 0
M  V30 1286 H 113.537 -3.15749 -0.834877 0
M  V30 1287 H 112.196 -3.43549 1.27944 0
M  V30 1288 H 111.844 -4.98788 -0.649545 0
M  V30 1289 H 111.544 -5.806 0.904258 0
M  V30 1290 H 113.068 -6.10596 0.021396 0
M  V30 1291 H 114.482 -5.3144 2.15045 0
M  V30 1292 H 112.879 -5.23293 2.93743 0
M  V30 1293 H 113.949 -3.82023 2.98641 0
M  V30 1294 N 115.292 -0.849877 -1.32721 0
M  V30 1295 C 116.52 -0.464754 -2.01613 0
M  V30 1296 C 116.935 0.937191 -1.63897 0
M  V30 1297 O 116.292 1.61081 -0.857856 0
M  V30 1298 C 116.343 -0.588638 -3.56675 0
M  V30 1299 O 116.064 -1.93535 -3.93034 0
M  V30 1300 C 117.565 -0.2019 -4.4284 0
M  V30 1301 H 114.785 -0.183215 -0.645502 0
M  V30 1302 H 117.329 -1.1455 -1.69407 0
M  V30 1303 H 115.484 0.0443159 -3.87375 0
M  V30 1304 H 115.898 -1.92871 -4.87751 0
M  V30 1305 H 117.372 -0.339599 -5.50954 0
M  V30 1306 H 117.849 0.857224 -4.30753 0
M  V30 1307 H 118.455 -0.809733 -4.17521 0
M  V30 1308 N 116.77 1.45427 -0.607355 0
M  V30 1309 C 117.718 2.32269 0.12411 0
M  V30 1310 C 118.712 1.45955 0.859854 0
M  V30 1311 O 119.918 1.6244 0.775447 0
M  V30 1312 H 116.293 0.749691 0.0588839 0
M  V30 1313 H 118.264 2.91743 -0.626762 0
M  V30 1314 C 117.013 3.29567 1.1082 0
M  V30 1315 H 116.336 3.95978 0.551492 0
M  V30 1316 H 117.776 3.93061 1.58995 0
M  V30 1317 C 116.235 2.56722 2.18164 0
M  V30 1318 O 116.765 2.34842 3.25902 0
M  V30 1319 N 114.971 2.16861 1.93442 0
M  V30 1320 H 114.518 2.34855 1.05834 0
M  V30 1321 H 114.476 1.68444 2.65469 0
M  V30 1322 N 118.248 0.346503 1.53744 0
M  V30 1323 C 119.478 -0.250047 2.05081 0
M  V30 1324 C 119.886 -1.44529 1.22098 0
M  V30 1325 O 119.229 -1.81992 0.249917 0
M  V30 1326 C 119.291 -0.725934 3.52094 0
M  V30 1327 C 118.955 0.350053 4.55657 0
M  V30 1328 C 119.952 1.19372 5.0601 0
M  V30 1329 C 117.637 0.504827 4.99757 0
M  V30 1330 C 119.631 2.17768 5.99046 0
M  V30 1331 C 117.318 1.49218 5.92602 0
M  V30 1332 C 118.316 2.32706 6.42135 0
M  V30 1333 O 118.004 3.2976 7.33153 0
M  V30 1334 H 117.736 -0.0515469 0.674032 0
M  V30 1335 H 120.29 0.497559 1.99282 0
M  V30 1336 H 118.52 -1.52483 3.55367 0
M  V30 1337 H 120.209 -1.24336 3.86388 0
M  V30 1338 H 120.975 1.08525 4.72702 0
M  V30 1339 H 116.854 -0.135178 4.60802 0
M  V30 1340 H 120.398 2.82971 6.37631 0
M  V30 1341 H 116.295 1.6012 6.25325 0
M  V30 1342 H 117.063 3.25265 7.51096 0
M  V30 1343 N 119.726 -1.57421 0.075193 0
M  V30 1344 C 120.659 -2.08528 -0.926904 0
M  V30 1345 C 121.637 -0.991171 -1.28898 0
M  V30 1346 O 122.821 -1.26479 -1.39769 0
M  V30 1347 C 119.948 -2.54576 -2.23402 0
M  V30 1348 C 118.994 -3.75454 -2.02327 0
M  V30 1349 S 119.827 -5.19989 -1.27951 0
M  V30 1350 C 120.983 -5.69372 -2.59935 0
M  V30 1351 H 121.216 -2.932 -0.492048 0
M  V30 1352 H 118.749 -1.53785 -0.137651 0
M  V30 1353 H 120.707 -2.81767 -2.98526 0
M  V30 1354 H 119.368 -1.70166 -2.64012 0
M  V30 1355 H 118.561 -4.05675 -2.99071 0
M  V30 1356 H 118.163 -3.48654 -1.35339 0
M  V30 1357 H 120.455 -5.76424 -3.56008 0
M  V30 1358 H 121.398 -6.68207 -2.34319 0
M  V30 1359 H 121.806 -4.97205 -2.67296 0
M  V30 1360 N 121.204 0.198386 -1.56346 0
M  V30 1361 C 122.481 0.944982 -1.71258 0
M  V30 1362 C 122.861 2.0151 -0.629048 0
M  V30 1363 O 122.209 2.25639 0.360473 0
M  V30 1364 C 122.419 1.5344 -3.1346 0
M  V30 1365 C 123.767 2.01778 -3.73591 0
M  V30 1366 O 124.791 1.63288 -3.16568 0
M  V30 1367 O 123.65 2.72594 -4.73661 0
M  V30 1368 H 120.744 0.442939 -0.69838 0
M  V30 1369 H 123.29 0.188342 -1.68652 0
M  V30 1370 H 122.062 0.762869 -3.83792 0
M  V30 1371 H 121.685 2.35596 -3.20282 0
M  V30 1372 N 122.682 1.50554 0.465978 0
M  V30 1373 C 123.91 1.65563 1.24083 0
M  V30 1374 C 124.325 0.341051 1.85694 0
M  V30 1375 O 123.682 -0.677543 1.69457 0
M  V30 1376 C 123.733 2.75051 2.34583 0
M  V30 1377 O 123.454 4.01413 1.75497 0
M  V30 1378 C 124.955 3.01078 3.25372 0
M  V30 1379 H 122.175 0.55638 0.375077 0
M  V30 1380 H 124.719 1.96807 0.555624 0
M  V30 1381 H 122.874 2.46486 2.9887 0
M  V30 1382 H 123.288 4.62002 2.48303 0
M  V30 1383 H 124.762 3.81339 3.99105 0
M  V30 1384 H 125.239 2.12349 3.84453 0
M  V30 1385 H 125.845 3.31194 2.66816 0
M  V30 1386 N 124.16 -0.719506 1.40217 0
M  V30 1387 C 125.092 -1.84428 1.36084 0
M  V30 1388 C 126.105 -1.60597 0.266913 0
M  V30 1389 O 127.294 -1.70544 0.526983 0
M  V30 1390 C 124.394 -3.20757 1.094 0
M  V30 1391 C 123.567 -3.71817 2.30372 0
M  V30 1392 C 122.626 -4.86748 1.99907 0
M  V30 1393 O 121.652 -4.99603 2.72737 0
M  V30 1394 N 122.854 -5.7226 0.974635 0
M  V30 1395 H 125.619 -1.88473 2.33019 0
M  V30 1396 H 123.18 -0.900885 1.3452 0
M  V30 1397 H 125.172 -3.95235 0.870116 0
M  V30 1398 H 123.742 -3.11884 0.211452 0
M  V30 1399 H 122.962 -2.88514 2.68614 0
M  V30 1400 H 124.25 -4.02666 3.11026 0
M  V30 1401 H 123.648 -5.6448 0.371368 0
M  V30 1402 H 122.205 -6.46739 0.810656 0
M  V30 1403 N 125.638 -1.25649 -0.95132 0
M  V30 1404 C 126.868 -1.13179 -1.72841 0
M  V30 1405 C 127.276 0.316827 -1.86528 0
M  V30 1406 O 126.619 1.22948 -1.3649 0
M  V30 1407 C 126.681 -1.71644 -3.15878 0
M  V30 1408 C 126.345 -3.20667 -3.25609 0
M  V30 1409 C 127.342 -4.17616 -3.09666 0
M  V30 1410 C 125.027 -3.6094 -3.49324 0
M  V30 1411 C 127.021 -5.52817 -3.17289 0
M  V30 1412 C 124.708 -4.96278 -3.56584 0
M  V30 1413 C 125.706 -5.92025 -3.40581 0
M  V30 1414 O 125.394 -7.24899 -3.47528 0
M  V30 1415 H 125.126 -0.395389 -0.54831 0
M  V30 1416 H 127.68 -1.66566 -1.20187 0
M  V30 1417 H 125.91 -1.12707 -3.69911 0
M  V30 1418 H 127.599 -1.54225 -3.75459 0
M  V30 1419 H 128.365 -3.87842 -2.91211 0
M  V30 1420 H 124.244 -2.86907 -3.6084 0
M  V30 1421 H 127.788 -6.2753 -3.04716 0
M  V30 1422 H 123.685 -5.25716 -3.74556 0
M  V30 1423 H 124.453 -7.33039 -3.64138 0
M  V30 1424 N 127.117 1.15442 -1.07289 0
M  V30 1425 C 128.347 1.89821 -0.815576 0
M  V30 1426 C 128.755 1.7823 0.634867 0
M  V30 1427 O 128.098 1.13152 1.44715 0
M  V30 1428 C 128.16 3.40817 -1.14385 0
M  V30 1429 C 127.824 3.76193 -2.59476 0
M  V30 1430 C 128.821 3.77269 -3.57721 0
M  V30 1431 C 126.506 4.0652 -2.95037 0
M  V30 1432 C 128.5 4.08176 -4.89562 0
M  V30 1433 C 126.187 4.37092 -4.27076 0
M  V30 1434 C 127.185 4.37902 -5.24148 0
M  V30 1435 O 126.873 4.67741 -6.53815 0
M  V30 1436 H 126.605 0.608465 -0.294528 0
M  V30 1437 H 129.159 1.472 -1.43252 0
M  V30 1438 H 127.389 3.83835 -0.469865 0
M  V30 1439 H 129.078 3.96485 -0.869179 0
M  V30 1440 H 129.844 3.5394 -3.3159 0
M  V30 1441 H 125.723 4.05049 -2.20128 0
M  V30 1442 H 129.267 4.08723 -5.65324 0
M  V30 1443 H 125.164 4.59889 -4.5296 0
M  V30 1444 H 125.932 4.85509 -6.58957 0
M  V30 1445 N 128.595 0.856903 1.32268 0
M  V30 1446 C 129.843 0.460474 1.96784 0
M  V30 1447 C 130.164 -0.987701 1.68135 0
M  V30 1448 O 129.434 -1.69058 0.989765 0
M  V30 1449 H 128.014 0.167289 0.728027 0
M  V30 1450 H 130.676 1.09383 1.61312 0
M  V30 1451 H 129.772 0.60739 3.06133 0
M  V30 1452 N 130.073 -1.45103 0.615059 0
M  V30 1453 C 130.983 -2.34382 -0.101034 0
M  V30 1454 C 131.999 -1.51681 -0.852585 0
M  V30 1455 O 133.175 -1.8446 -0.808484 0
M  V30 1456 C 130.24 -3.29417 -1.08099 0
M  V30 1457 C 129.301 -4.28025 -0.330577 0
M  V30 1458 C 128.534 -5.1852 -1.26385 0
M  V30 1459 O 128.757 -5.12598 -2.50198 0
M  V30 1460 O 127.691 -5.97122 -0.756866 0
M  V30 1461 H 131.517 -2.97033 0.632855 0
M  V30 1462 H 129.102 -1.4461 0.375293 0
M  V30 1463 H 130.984 -3.87958 -1.6452 0
M  V30 1464 H 129.659 -2.69321 -1.79577 0
M  V30 1465 H 128.566 -3.73078 0.276283 0
M  V30 1466 H 129.899 -4.90997 0.343866 0
M  V30 1467 N 131.551 -0.354651 -1.53558 0
M  V30 1468 C 132.8 0.239504 -2.00273 0
M  V30 1469 C 133.113 1.50759 -1.24623 0
M  V30 1470 O 134.319 2.17968 -1.61871 0
M  V30 1471 C 132.775 0.477341 -3.5672 0
M  V30 1472 C 132.383 -0.775488 -4.41237 0
M  V30 1473 C 134.127 1.02975 -4.11821 0
M  V30 1474 C 132.034 -0.507838 -5.89216 0
M  V30 1475 H 130.964 0.0932743 -0.748208 0
M  V30 1476 H 133.615 -0.471701 -1.77334 0
M  V30 1477 H 131.997 1.24953 -3.7577 0
M  V30 1478 H 133.171 -1.54963 -4.33962 0
M  V30 1479 H 131.486 -1.25033 -3.97185 0
M  V30 1480 H 134.083 1.24513 -5.2 0
M  V30 1481 H 134.426 1.98862 -3.65731 0
M  V30 1482 H 134.959 0.317994 -3.96527 0
M  V30 1483 H 131.698 -1.43674 -6.39561 0
M  V30 1484 H 131.218 0.228011 -5.99366 0
M  V30 1485 H 132.897 -0.129238 -6.46871 0
M  V30 1486 N 133.029 1.57378 -0.0835403 0
M  V30 1487 C 134.277 1.93547 0.581718 0
M  V30 1488 C 134.598 0.96524 1.69435 0
M  V30 1489 O 133.868 0.0153369 1.95894 0
M  V30 1490 H 132.448 0.714521 0.217874 0
M  V30 1491 H 135.11 1.94366 -0.144158 0
M  V30 1492 H 134.206 2.95665 0.999423 0
M  V30 1493 N 134.507 -0.190092 1.56449 0
M  V30 1494 C 135.756 -0.907912 1.80111 0
M  V30 1495 C 136.069 -1.84214 0.657619 0
M  V30 1496 O 137.275 -2.60094 0.778663 0
M  V30 1497 C 135.731 -1.66485 3.19078 0
M  V30 1498 C 135.339 -0.7752 4.41242 0
M  V30 1499 C 137.083 -2.37201 3.52045 0
M  V30 1500 C 134.99 -1.53129 5.71231 0
M  V30 1501 H 133.92 -0.34276 0.671589 0
M  V30 1502 H 136.571 -0.161109 1.82791 0
M  V30 1503 H 134.953 -2.45572 3.10661 0
M  V30 1504 H 136.127 -0.0226298 4.60794 0
M  V30 1505 H 134.442 -0.178627 4.16017 0
M  V30 1506 H 137.039 -2.94329 4.46402 0
M  V30 1507 H 137.382 -3.11632 2.76028 0
M  V30 1508 H 137.915 -1.65075 3.61932 0
M  V30 1509 H 134.654 -0.82967 6.50228 0
M  V30 1510 H 134.174 -2.25767 5.55688 0
M  V30 1511 H 135.853 -2.08377 6.12526 0
M  V30 1512 N 135.985 -1.50799 -0.457987 0
M  V30 1513 C 137.233 -1.62121 -1.2067 0
M  V30 1514 C 137.554 -0.329793 -1.92191 0
M  V30 1515 O 136.824 0.653409 -1.84682 0
M  V30 1516 H 135.404 -0.597441 -0.448411 0
M  V30 1517 H 138.066 -1.87637 -0.527096 0
M  V30 1518 H 137.162 -2.43882 -1.94751 0
M  V30 1519 N 137.463 0.71206 -1.40597 0
M  V30 1520 C 138.691 1.50111 -1.42388 0
M  V30 1521 C 139.106 1.88784 -0.0245395 0
M  V30 1522 O 138.463 1.55681 0.952351 0
M  V30 1523 C 138.514 2.7742 -2.31776 0
M  V30 1524 O 138.235 2.40382 -3.66262 0
M  V30 1525 C 139.736 3.7129 -2.42196 0
M  V30 1526 H 136.956 0.46314 -0.485533 0
M  V30 1527 H 139.5 0.878068 -1.8469 0
M  V30 1528 H 137.655 3.36001 -1.92827 0
M  V30 1529 H 138.069 3.22324 -4.13772 0
M  V30 1530 H 139.543 4.57448 -3.08943 0
M  V30 1531 H 140.02 4.14641 -1.44809 0
M  V30 1532 H 140.626 3.18619 -2.81712 0
M  V30 1533 N 138.941 1.26152 0.944643 0
M  V30 1534 C 140.352 1.10454 1.50522 0
M  V30 1535 C 140.703 -0.31635 1.93633 0
M  V30 1536 O 139.828 -1.20746 1.79581 0
M  V30 1537 C 140.423 1.99891 2.73549 0
M  V30 1538 C 138.982 1.88348 3.25886 0
M  V30 1539 C 138.129 1.93447 1.9868 0
M  V30 1540 H 141.08 1.39292 0.760489 0
M  V30 1541 H 141.101 1.54477 3.47732 0
M  V30 1542 H 140.613 3.03297 2.42141 0
M  V30 1543 H 138.714 0.878636 3.62092 0
M  V30 1544 H 138.827 2.73696 3.93227 0
M  V30 1545 H 137.191 1.37456 2.14425 0
M  V30 1546 H 137.974 2.98476 1.69607 0
M  V30 1547 N 140.419 -1.14872 1.07899 0
M  V30 1548 C 141.83 -1.67367 0.827363 0
M  V30 1549 C 142.181 -1.85236 -0.646693 0
M  V30 1550 O 141.306 -1.55974 -1.50004 0
M  V30 1551 C 141.901 -3.04016 1.49532 0
M  V30 1552 C 140.46 -3.53566 1.29106 0
M  V30 1553 C 139.607 -2.29161 1.56143 0
M  V30 1554 H 142.558 -0.990083 1.24028 0
M  V30 1555 H 142.579 -3.69219 0.919643 0
M  V30 1556 H 142.091 -2.90978 2.56814 0
M  V30 1557 H 140.192 -3.71835 0.238713 0
M  V30 1558 H 140.305 -4.34661 2.01511 0
M  V30 1559 H 138.669 -2.34978 0.982717 0
M  V30 1560 H 139.452 -2.18705 2.64619 0
M  V30 1561 N 141.898 -0.863906 -1.31812 0
M  V30 1562 C 142.83 -0.272485 -2.27575 0
M  V30 1563 C 143.843 0.56104 -1.52827 0
M  V30 1564 O 145.032 0.384021 -1.7432 0
M  V30 1565 C 142.132 0.63283 -3.32939 0
M  V30 1566 C 141.305 -0.166902 -4.37081 0
M  V30 1567 C 140.364 0.665608 -5.21973 0
M  V30 1568 O 139.39 0.0958091 -5.69119 0
M  V30 1569 N 140.592 1.9787 -5.45736 0
M  V30 1570 H 143.357 -1.0954 -2.78964 0
M  V30 1571 H 140.918 -0.724791 -1.4477 0
M  V30 1572 H 142.91 1.19532 -3.86645 0
M  V30 1573 H 141.48 1.35642 -2.81638 0
M  V30 1574 H 140.7 -0.910838 -3.83533 0
M  V30 1575 H 141.988 -0.715874 -5.03739 0
M  V30 1576 H 141.386 2.46484 -5.09178 0
M  V30 1577 H 139.943 2.48911 -6.024 0
M  V30 1578 N 143.376 1.44774 -0.622745 0
M  V30 1579 C 144.604 2.06487 -0.130722 0
M  V30 1580 C 145.019 1.46476 1.19123 0
M  V30 1581 O 144.376 0.584502 1.72887 0
M  V30 1582 C 144.427 3.615 -0.000807207 0
M  V30 1583 O 144.148 4.19274 -1.27048 0
M  V30 1584 C 145.649 4.40229 0.520898 0
M  V30 1585 H 142.869 0.666704 -0.0758106 0
M  V30 1586 H 145.413 1.85779 -0.854774 0
M  V30 1587 H 143.568 3.81498 0.673643 0
M  V30 1588 H 143.982 5.12622 -1.1099 0
M  V30 1589 H 145.456 5.49144 0.560838 0
M  V30 1590 H 145.933 4.1108 1.54627 0
M  V30 1591 H 146.539 4.25131 -0.120018 0
M  V30 1592 N 144.854 0.36279 1.53368 0
M  V30 1593 C 146.101 -0.227776 2.01215 0
M  V30 1594 C 146.429 -1.49003 1.25014 0
M  V30 1595 O 145.684 -1.92876 0.331236 0
M  V30 1596 C 145.983 -0.568417 3.52851 0
M  V30 1597 C 145.649 0.59918 4.46901 0
M  V30 1598 C 144.311 0.919559 4.72332 0
M  V30 1599 C 146.663 1.38156 5.02556 0
M  V30 1600 C 143.991 2.02434 5.5067 0
M  V30 1601 C 146.343 2.47674 5.821 0
M  V30 1602 C 145.007 2.8025 6.05819 0
M  V30 1603 H 144.277 -0.083349 0.736297 0
M  V30 1604 H 146.924 0.494677 1.85001 0
M  V30 1605 H 145.229 -1.37185 3.66998 0
M  V30 1606 H 146.926 -1.03756 3.87344 0
M  V30 1607 H 143.516 0.339437 4.27254 0
M  V30 1608 H 147.7 1.14729 4.82857 0
M  V30 1609 H 142.956 2.28075 5.67267 0
M  V30 1610 H 147.13 3.08716 6.24234 0
M  V30 1611 H 144.757 3.65979 6.66306 0
M  V30 1612 N 146.332 -1.57332 0.0918853 0
M  V30 1613 C 147.279 -2.13847 -0.868211 0
M  V30 1614 C 148.249 -1.05618 -1.28196 0
M  V30 1615 O 149.434 -1.33387 -1.36427 0
M  V30 1616 C 146.574 -2.72062 -2.12312 0
M  V30 1617 C 145.687 -3.94514 -1.7602 0
M  V30 1618 C 144.822 -4.40903 -2.96273 0
M  V30 1619 C 143.861 -5.55953 -2.56092 0
M  V30 1620 N 142.998 -5.97209 -3.69169 0
M  V30 1621 H 147.838 -2.95575 -0.379406 0
M  V30 1622 H 145.375 -1.46048 -0.175606 0
M  V30 1623 H 147.333 -3.03931 -2.858 0
M  V30 1624 H 145.963 -1.93068 -2.58698 0
M  V30 1625 H 145.015 -3.68979 -0.925135 0
M  V30 1626 H 146.327 -4.7802 -1.42472 0
M  V30 1627 H 145.481 -4.74539 -3.78018 0
M  V30 1628 H 144.22 -3.56291 -3.33029 0
M  V30 1629 H 143.225 -5.21948 -1.72773 0
M  V30 1630 H 144.45 -6.42311 -2.20484 0
M  V30 1631 H 142.396 -5.15543 -4.05649 0
M  V30 1632 H 142.313 -6.75504 -3.39456 0
M  V30 1633 H 143.581 -6.35475 -4.51434 0
M  V30 1634 N 147.81 0.181792 -1.56548 0
M  V30 1635 C 149.056 0.901431 -1.81665 0
M  V30 1636 C 149.389 1.82347 -0.668075 0
M  V30 1637 O 148.664 1.91669 0.330615 0
M  V30 1638 C 148.947 1.70618 -3.17115 0
M  V30 1639 C 148.8 0.807964 -4.42484 0
M  V30 1640 C 150.119 2.67605 -3.49393 0
M  V30 1641 H 147.238 0.32627 -0.660846 0
M  V30 1642 H 149.88 0.168134 -1.89255 0
M  V30 1643 H 148.03 2.33133 -3.10775 0
M  V30 1644 H 149.702 0.19649 -4.60881 0
M  V30 1645 H 147.945 0.115411 -4.33646 0
M  V30 1646 H 148.616 1.40632 -5.33785 0
M  V30 1647 H 151.092 2.15218 -3.56118 0
M  V30 1648 H 149.968 3.20985 -4.45264 0
M  V30 1649 H 150.229 3.47298 -2.73563 0
M  V30 1650 N 149.288 1.51039 0.449983 0
M  V30 1651 C 150.534 1.63322 1.20223 0
M  V30 1652 C 150.867 0.34241 1.91158 0
M  V30 1653 O 150.142 -0.657344 1.83055 0
M  V30 1654 C 150.425 2.82801 2.22925 0
M  V30 1655 C 150.278 4.21823 1.56157 0
M  V30 1656 C 151.597 2.97807 3.24035 0
M  V30 1657 H 148.716 0.594407 0.435718 0
M  V30 1658 H 151.358 1.83489 0.493136 0
M  V30 1659 H 149.508 2.65738 2.834 0
M  V30 1660 H 151.18 4.50526 0.991162 0
M  V30 1661 H 149.423 4.25105 0.864172 0
M  V30 1662 H 150.094 5.01391 2.30891 0
M  V30 1663 H 152.57 3.13497 2.73603 0
M  V30 1664 H 151.446 3.82992 3.93202 0
M  V30 1665 H 151.707 2.09328 3.89402 0
M  V30 1666 N 150.766 -0.704594 1.40972 0
M  V30 1667 C 152.013 -1.46458 1.39844 0
M  V30 1668 C 152.341 -1.94499 0.00447594 0
M  V30 1669 O 151.596 -1.69275 -0.982057 0
M  V30 1670 C 151.895 -2.698 2.34399 0
M  V30 1671 C 151.561 -2.40464 3.81429 0
M  V30 1672 C 150.223 -2.32174 4.21484 0
M  V30 1673 C 152.575 -2.16086 4.74296 0
M  V30 1674 C 149.903 -1.97589 5.52427 0
M  V30 1675 C 152.255 -1.83011 6.05549 0
M  V30 1676 C 150.919 -1.7321 6.44635 0
M  V30 1677 H 150.189 -0.535927 0.511725 0
M  V30 1678 H 152.836 -0.806124 1.73706 0
M  V30 1679 H 151.141 -3.40536 1.93759 0
M  V30 1680 H 152.838 -3.27919 2.30804 0
M  V30 1681 H 149.428 -2.47808 3.49699 0
M  V30 1682 H 153.612 -2.2144 4.4416 0
M  V30 1683 H 148.868 -1.88547 5.81601 0
M  V30 1684 H 153.042 -1.63164 6.77016 0
M  V30 1685 H 150.669 -1.46179 7.46013 0
M  V30 1686 N 152.244 -1.26651 -0.937939 0
M  V30 1687 C 153.521 -1.0313 -1.66204 0
M  V30 1688 C 153.901 0.437256 -2.06522 0
M  V30 1689 O 153.249 1.41831 -1.79154 0
M  V30 1690 C 153.459 -1.98314 -2.87181 0
M  V30 1691 C 154.807 -2.27107 -3.58758 0
M  V30 1692 O 155.831 -1.96205 -2.97291 0
M  V30 1693 O 154.69 -2.79736 -4.69479 0
M  V30 1694 H 151.784 -0.392384 -0.727986 0
M  V30 1695 H 154.33 -1.37874 -0.989382 0
M  V30 1696 H 153.102 -2.97399 -2.54302 0
M  V30 1697 H 152.725 -1.64068 -3.6217 0
M  V30 1698 N 153.722 1.14298 -1.08507 0
M  V30 1699 C 154.95 1.89219 -0.836876 0
M  V30 1700 C 155.365 1.78638 0.611054 0
M  V30 1701 O 154.722 1.14643 1.41998 0
M  V30 1702 C 154.773 3.39158 -1.25116 0
M  V30 1703 O 154.494 3.49449 -2.64229 0
M  V30 1704 C 155.995 4.31073 -1.03398 0
M  V30 1705 H 153.215 0.599328 -0.301739 0
M  V30 1706 H 155.759 1.44746 -1.44461 0
M  V30 1707 H 153.914 3.81251 -0.687514 0
M  V30 1708 H 154.328 4.42589 -2.81452 0
M  V30 1709 H 155.802 5.34646 -1.37323 0
M  V30 1710 H 156.279 4.3919 0.0289259 0
M  V30 1711 H 156.885 3.94738 -1.58311 0
M  V30 1712 N 155.201 0.870884 1.31352 0
M  V30 1713 C 156.449 0.48132 1.96285 0
M  V30 1714 C 156.77 -0.969813 1.69173 0
M  V30 1715 O 156.04 -1.67998 1.00764 0
M  V30 1716 H 154.62 0.175002 0.726212 0
M  V30 1717 H 157.282 1.11087 1.60143 0
M  V30 1718 H 156.378 0.639825 3.05471 0
M  V30 1719 N 156.679 -1.44442 0.630414 0
M  V30 1720 C 157.904 -2.06927 0.139944 0
M  V30 1721 C 158.329 -1.46795 -1.17613 0
M  V30 1722 O 157.687 -0.569144 -1.72135 0
M  V30 1723 C 157.735 -3.6058 0.0379581 0
M  V30 1724 O 156.839 -3.99937 -1.0062 0
M  V30 1725 H 156.18 -0.658608 0.0844483 0
M  V30 1726 H 158.71 -1.85327 0.866891 0
M  V30 1727 H 158.72 -4.07714 -0.152856 0
M  V30 1728 H 157.395 -4.03728 0.998809 0
M  V30 1729 H 155.972 -3.64436 -0.79001 0
M  V30 1730 N 158.157 -0.370918 -1.53173 0
M  V30 1731 C 159.382 0.220293 -2.06227 0
M  V30 1732 C 159.807 1.41243 -1.24225 0
M  V30 1733 O 159.165 1.79387 -0.262645 0
M  V30 1734 C 159.213 0.586663 -3.55796 0
M  V30 1735 O 158.317 1.68317 -3.76488 0
M  V30 1736 H 157.658 0.0308099 -0.663285 0
M  V30 1737 H 160.188 -0.533068 -1.97534 0
M  V30 1738 H 160.198 0.85617 -3.98916 0
M  V30 1739 H 158.873 -0.285013 -4.14922 0
M  V30 1740 H 157.45 1.40881 -3.45264 0
M  V30 1741 N 159.635 1.57281 -0.100228 0
M  V30 1742 C 160.583 2.15542 0.874328 0
M  V30 1743 C 161.577 1.09962 1.28859 0
M  V30 1744 O 162.783 1.28298 1.26252 0
M  V30 1745 H 159.158 0.689567 0.300003 0
M  V30 1746 H 161.129 2.96241 0.35829 0
M  V30 1747 C 159.878 2.75454 2.1218 0
M  V30 1748 H 159.201 3.56384 1.81193 0
M  V30 1749 H 160.641 3.19781 2.78417 0
M  V30 1750 C 159.1 1.71602 2.89921 0
M  V30 1751 O 159.63 1.15804 3.84646 0
M  V30 1752 N 157.836 1.41975 2.53558 0
M  V30 1753 H 157.383 1.87539 1.76598 0
M  V30 1754 H 157.341 0.727274 3.05873 0
M  V30 1755 N 161.113 -0.173488 1.56642 0
M  V30 1756 C 162.359 -0.891784 1.8214 0
M  V30 1757 C 162.692 -1.8199 0.677736 0
M  V30 1758 O 161.967 -1.91842 -0.320446 0
M  V30 1759 C 162.25 -1.68933 3.18015 0
M  V30 1760 C 162.103 -0.784487 4.42906 0
M  V30 1761 C 163.422 -2.65748 3.50808 0
M  V30 1762 H 160.541 -0.322761 0.662567 0
M  V30 1763 H 163.183 -0.158095 1.89341 0
M  V30 1764 H 161.333 -2.31482 3.12007 0
M  V30 1765 H 163.005 -0.172046 4.60979 0
M  V30 1766 H 161.248 -0.0924117 4.33702 0
M  V30 1767 H 161.919 -1.37799 5.34524 0
M  V30 1768 H 164.395 -2.13327 3.57255 0
M  V30 1769 H 163.271 -3.18619 4.4696 0
M  V30 1770 H 163.532 -3.45842 2.75401 0
M  V30 1771 N 162.591 -1.51276 -0.441967 0
M  V30 1772 C 163.837 -1.6492 -1.1905 0
M  V30 1773 C 164.192 -0.358731 -1.89026 0
M  V30 1774 O 163.485 0.645193 -1.8041 0
M  V30 1775 C 163.679 -2.78746 -2.23686 0
M  V30 1776 C 163.508 -4.18737 -1.63979 0
M  V30 1777 C 162.278 -4.84739 -1.42674 0
M  V30 1778 C 164.476 -5.01988 -1.11858 0
M  V30 1779 N 162.458 -6.08858 -0.785159 0
M  V30 1780 C 163.829 -6.17071 -0.601989 0
M  V30 1781 C 165.884 -4.87551 -1.0099 0
M  V30 1782 C 164.587 -7.19299 0.0126012 0
M  V30 1783 C 166.613 -5.89983 -0.409206 0
M  V30 1784 C 165.975 -7.04333 0.0968651 0
M  V30 1785 H 162.074 -0.657416 -0.423471 0
M  V30 1786 H 164.658 -1.8849 -0.48782 0
M  V30 1787 H 162.829 -2.56848 -2.91348 0
M  V30 1788 H 164.561 -2.81595 -2.90666 0
M  V30 1789 H 161.316 -4.42528 -1.68719 0
M  V30 1790 H 161.74 -6.75282 -0.481942 0
M  V30 1791 H 166.382 -3.99401 -1.38703 0
M  V30 1792 H 164.1 -8.071 0.401879 0
M  V30 1793 H 167.686 -5.8088 -0.327079 0
M  V30 1794 H 166.566 -7.82238 0.554373 0
M  V30 1795 N 164.069 0.697108 -1.41344 0
M  V30 1796 C 165.315 1.4593 -1.40827 0
M  V30 1797 C 165.648 1.94193 -0.0167098 0
M  V30 1798 O 164.923 1.69425 0.955263 0
M  V30 1799 C 165.206 2.67229 -2.41373 0
M  V30 1800 C 165.059 2.24741 -3.8963 0
M  V30 1801 C 166.378 3.69423 -2.39196 0
M  V30 1802 H 163.497 0.529303 -0.512842 0
M  V30 1803 H 166.139 0.794112 -1.72609 0
M  V30 1804 H 164.289 3.23982 -2.14401 0
M  V30 1805 H 165.961 1.73327 -4.27499 0
M  V30 1806 H 164.204 1.56542 -4.0457 0
M  V30 1807 H 164.875 3.1177 -4.55525 0
M  V30 1808 H 167.351 3.2234 -2.63128 0
M  V30 1809 H 166.227 4.51907 -3.11563 0
M  V30 1810 H 166.488 4.19012 -1.41001 0
M  V30 1811 N 165.547 1.27147 0.931209 0
M  V30 1812 C 166.958 1.12044 1.49342 0
M  V30 1813 C 167.309 -0.295795 1.93957 0
M  V30 1814 O 166.434 -1.18835 1.80852 0
M  V30 1815 C 167.029 2.02781 2.71414 0
M  V30 1816 C 165.588 1.91794 3.2387 0
M  V30 1817 C 164.735 1.95543 1.96617 0
M  V30 1818 H 167.686 1.40091 0.745672 0
M  V30 1819 H 167.707 1.58156 3.46074 0
M  V30 1820 H 167.219 3.05848 2.38911 0
M  V30 1821 H 165.32 0.916992 3.6114 0
M  V30 1822 H 165.433 2.77852 3.90302 0
M  V30 1823 H 163.797 1.39722 2.12955 0
M  V30 1824 H 164.58 3.00259 1.66432 0
M  V30 1825 N 167.025 -1.13721 1.09112 0
M  V30 1826 C 168.25 -1.89314 0.847053 0
M  V30 1827 C 168.675 -1.78416 -0.595774 0
M  V30 1828 O 168.033 -1.12942 -1.41823 0
M  V30 1829 C 168.081 -3.3701 1.28284 0
M  V30 1830 O 167.185 -4.10054 0.439267 0
M  V30 1831 H 166.526 -0.588745 0.307044 0
M  V30 1832 H 169.056 -1.43902 1.45442 0
M  V30 1833 H 169.066 -3.87834 1.26683 0
M  V30 1834 H 167.741 -3.4426 2.33363 0
M  V30 1835 H 166.318 -3.69266 0.519312 0
M  V30 1836 N 168.503 -0.877838 -1.30888 0
M  V30 1837 C 169.728 -0.506629 -2.01117 0
M  V30 1838 C 170.153 0.895564 -1.65412 0
M  V30 1839 O 169.511 1.5923 -0.866922 0
M  V30 1840 C 169.559 -0.680223 -3.54126 0
M  V30 1841 O 168.663 0.277033 -4.11468 0
M  V30 1842 H 168.004 -0.200518 -0.633 0
M  V30 1843 H 170.534 -1.18342 -1.66902 0
M  V30 1844 H 170.544 -0.5765 -4.03907 0
M  V30 1845 H 169.219 -1.70261 -3.79452 0
M  V30 1846 H 167.796 0.127606 -3.72682 0
M  V30 1847 N 169.982 1.44106 -0.638065 0
M  V30 1848 C 170.929 2.30715 0.062701 0
M  V30 1849 C 171.899 1.43882 0.829883 0
M  V30 1850 O 173.084 1.72775 0.809532 0
M  V30 1851 C 170.224 3.29258 1.03358 0
M  V30 1852 C 169.337 4.31192 0.26409 0
M  V30 1853 C 168.472 5.16825 1.22741 0
M  V30 1854 C 167.511 6.10462 0.447475 0
M  V30 1855 N 166.648 6.8877 1.36161 0
M  V30 1856 H 171.488 2.90096 -0.681781 0
M  V30 1857 H 169.025 1.42925 -0.347988 0
M  V30 1858 H 170.983 3.84886 1.60992 0
M  V30 1859 H 169.613 2.71562 1.74511 0
M  V30 1860 H 168.665 3.77981 -0.428295 0
M  V30 1861 H 169.977 4.97619 -0.343052 0
M  V30 1862 H 169.131 5.77004 1.87487 0
M  V30 1863 H 167.87 4.50488 1.86847 0
M  V30 1864 H 166.875 5.49386 -0.213433 0
M  V30 1865 H 168.1 6.78837 -0.188968 0
M  V30 1866 H 166.046 6.25096 1.98975 0
M  V30 1867 H 165.963 7.51663 0.808656 0
M  V30 1868 H 167.231 7.53467 1.99769 0
M  V30 1869 N 171.46 0.379036 1.52974 0
M  V30 1870 C 172.7 -0.206325 2.03356 0
M  V30 1871 C 173.064 -1.44892 1.25977 0
M  V30 1872 O 174.265 -2.11078 1.66432 0
M  V30 1873 C 172.536 -0.477887 3.54191 0
M  V30 1874 S 174.095 -1.035 4.26419 0
M  V30 1875 H 170.913 -0.0590259 0.708546 0
M  V30 1876 H 173.515 0.525013 1.88319 0
M  V30 1877 H 172.219 0.433745 4.08101 0
M  V30 1878 H 171.75 -1.23793 3.73415 0
M  V30 1879 H 173.765 -2.31821 4.38718 0
M  V30 1880 N 172.938 -1.57226 0.108567 0
M  V30 1881 C 174.163 -1.99604 -0.563303 0
M  V30 1882 C 174.588 -0.987563 -1.6009 0
M  V30 1883 O 173.946 0.0421687 -1.81251 0
M  V30 1884 C 173.994 -3.40902 -1.17552 0
M  V30 1885 O 173.098 -3.42896 -2.2912 0
M  V30 1886 H 172.439 -0.648704 -0.1417 0
M  V30 1887 H 174.969 -2.03679 0.193961 0
M  V30 1888 H 174.979 -3.78886 -1.51357 0
M  V30 1889 H 173.654 -4.1382 -0.415445 0
M  V30 1890 H 172.231 -3.1672 -1.96832 0
M  V30 1891 N 174.416 0.165178 -1.56732 0
M  V30 1892 C 175.832 0.517174 -1.50988 0
M  V30 1893 C 176.032 1.84331 -0.813894 0
M  V30 1894 O 175.088 2.49672 -0.37682 0
M  V30 1895 C 176.401 0.544261 -2.95733 0
M  V30 1896 C 177.949 0.631039 -3.06573 0
M  V30 1897 C 178.424 0.68896 -4.52788 0
M  V30 1898 N 179.915 0.751683 -4.5706 0
M  V30 1899 C 180.65 0.817177 -5.67547 0
M  V30 1900 N 180.146 0.843129 -6.8765 0
M  V30 1901 N 181.939 0.856668 -5.55534 0
M  V30 1902 H 174.09 -0.704318 -2.00382 0
M  V30 1903 H 176.353 -0.254687 -0.913148 0
M  V30 1904 H 176.059 -0.361607 -3.49836 0
M  V30 1905 H 175.933 1.3886 -3.5071 0
M  V30 1906 H 178.32 1.52733 -2.52501 0
M  V30 1907 H 178.401 -0.240095 -2.54671 0
M  V30 1908 H 178.045 -0.2031 -5.07494 0
M  V30 1909 H 177.975 1.57633 -5.02454 0
M  V30 1910 H 180.466 0.739661 -3.70591 0
M  V30 1911 H 180.779 0.894448 -7.67606 0
M  V30 1912 H 179.124 0.811304 -6.90248 0
M  V30 1913 H 182.315 0.833437 -4.60621 0
M  V30 1914 H 182.488 0.904247 -6.4166 0
M  V30 1915 N 175.894 1.51508 0.433938 0
M  V30 1916 C 176.824 1.76016 1.53429 0
M  V30 1917 C 177.805 0.610112 1.58782 0
M  V30 1918 O 178.99 0.853177 1.74455 0
M  V30 1919 C 176.12 1.88831 2.9148 0
M  V30 1920 C 175.074 3.04288 3.00987 0
M  V30 1921 C 174.4 3.0229 4.4105 0
M  V30 1922 C 175.7 4.44193 2.74754 0
M  V30 1923 H 177.394 2.68152 1.33171 0
M  V30 1924 H 174.94 1.29035 0.639214 0
M  V30 1925 H 176.893 2.04559 3.6842 0
M  V30 1926 H 175.617 0.933455 3.12976 0
M  V30 1927 H 174.276 2.8827 2.26486 0
M  V30 1928 H 173.924 2.04576 4.59519 0
M  V30 1929 H 173.624 3.79822 4.4834 0
M  V30 1930 H 175.148 3.20116 5.1996 0
M  V30 1931 H 176.562 4.60544 3.41426 0
M  V30 1932 H 174.959 5.23457 2.9345 0
M  V30 1933 H 176.029 4.53996 1.70339 0
M  V30 1934 N 177.372 -0.689602 1.41712 0
M  V30 1935 C 178.602 -1.47613 1.44548 0
M  V30 1936 C 179.01 -1.89132 0.0509034 0
M  V30 1937 O 178.353 -1.57741 -0.94146 0
M  V30 1938 C 178.415 -2.76596 2.2964 0
M  V30 1939 C 178.079 -2.57245 3.77722 0
M  V30 1940 C 179.076 -2.22804 4.69739 0
M  V30 1941 C 176.761 -2.727 4.2183 0
M  V30 1942 C 178.755 -2.04064 6.03851 0
M  V30 1943 C 176.442 -2.53576 5.56006 0
M  V30 1944 C 177.44 -2.1931 6.46832 0
M  V30 1945 O 177.128 -2.00359 7.78532 0
M  V30 1946 H 176.86 -0.461227 0.494212 0
M  V30 1947 H 179.414 -0.856045 1.86711 0
M  V30 1948 H 177.644 -3.41033 1.82301 0
M  V30 1949 H 179.333 -3.38424 2.24107 0
M  V30 1950 H 180.099 -2.10473 4.36951 0
M  V30 1951 H 175.978 -2.98353 3.51435 0
M  V30 1952 H 179.522 -1.77241 6.74708 0
M  V30 1953 H 175.419 -2.65499 5.88371 0
M  V30 1954 H 176.187 -2.15075 7.89737 0
M  V30 1955 N 178.85 -1.27639 -0.924453 0
M  V30 1956 C 180.078 -1.16989 -1.70649 0
M  V30 1957 C 180.493 0.272869 -1.86818 0
M  V30 1958 O 179.85 1.18549 -1.38753 0
M  V30 1959 C 179.901 -1.85229 -3.10439 0
M  V30 1960 O 179.622 -3.23868 -2.95028 0
M  V30 1961 C 181.123 -1.80746 -4.04779 0
M  V30 1962 H 178.343 -0.406595 -0.53378 0
M  V30 1963 H 180.887 -1.68569 -1.15778 0
M  V30 1964 H 179.042 -1.37545 -3.6216 0
M  V30 1965 H 179.456 -3.57889 -3.83426 0
M  V30 1966 H 180.93 -2.33101 -5.00368 0
M  V30 1967 H 181.407 -0.777499 -4.32263 0
M  V30 1968 H 182.013 -2.28059 -3.58984 0
M  V30 1969 N 180.328 1.1314 -1.09713 0
M  V30 1970 C 181.291 2.16831 -0.742751 0
M  V30 1971 C 182.291 1.59159 0.229129 0
M  V30 1972 O 183.481 1.74199 0.00693237 0
M  V30 1973 C 180.613 3.40756 -0.0989168 0
M  V30 1974 H 181.806 2.49695 -1.66109 0
M  V30 1975 H 179.359 1.2802 -0.896699 0
M  V30 1976 H 180.094 3.13485 0.830514 0
M  V30 1977 H 179.879 3.83888 -0.798265 0
M  V30 1978 H 181.369 4.17386 0.133524 0
M  V30 1979 N 181.806 0.884767 1.30421 0
M  V30 1980 C 183.046 0.509806 1.9794 0
M  V30 1981 C 183.41 -0.923736 1.68319 0
M  V30 1982 O 184.611 -1.40481 2.29169 0
M  V30 1983 C 182.882 0.776732 3.48858 0
M  V30 1984 S 184.441 0.503843 4.35898 0
M  V30 1985 H 181.259 0.189699 0.685227 0
M  V30 1986 H 183.861 1.14399 1.58535 0
M  V30 1987 H 182.565 1.81857 3.67908 0
M  V30 1988 H 182.096 0.1301 3.93185 0
M  V30 1989 H 184.111 -0.657625 4.91823 0
M  V30 1990 N 183.284 -1.43765 0.645699 0
M  V30 1991 C 184.53 -2.02197 0.156271 0
M  V30 1992 C 184.863 -1.50776 -1.22393 0
M  V30 1993 O 184.138 -0.697771 -1.81553 0
M  V30 1994 C 184.421 -3.59749 0.158872 0
M  V30 1995 C 184.274 -4.21419 1.57245 0
M  V30 1996 C 185.593 -4.37149 -0.50879 0
M  V30 1997 H 182.712 -0.734694 0.0582602 0
M  V30 1998 H 185.354 -1.71157 0.824951 0
M  V30 1999 H 183.504 -3.86325 -0.410525 0
M  V30 2000 H 185.176 -4.059 2.19186 0
M  V30 2001 H 183.419 -3.78356 2.122 0
M  V30 2002 H 184.09 -5.30482 1.52619 0
M  V30 2003 H 186.566 -4.16093 -0.024412 0
M  V30 2004 H 185.442 -5.4683 -0.476213 0
M  V30 2005 H 185.703 -4.12839 -1.58165 0
M  V30 2006 N 184.763 -0.387143 -1.52771 0
M  V30 2007 C 185.993 0.195585 -2.05672 0
M  V30 2008 C 186.401 1.41241 -1.25887 0
M  V30 2009 O 185.744 1.81265 -0.298081 0
M  V30 2010 C 185.806 0.632327 -3.53895 0
M  V30 2011 C 185.47 -0.470739 -4.54569 0
M  V30 2012 C 186.467 -1.32746 -5.02667 0
M  V30 2013 C 184.152 -0.637151 -4.98243 0
M  V30 2014 C 186.146 -2.33574 -5.93061 0
M  V30 2015 C 183.833 -1.64877 -5.88438 0
M  V30 2016 C 184.831 -2.49649 -6.35739 0
M  V30 2017 O 184.519 -3.49082 -7.24153 0
M  V30 2018 H 184.251 0.033658 -0.675162 0
M  V30 2019 H 186.805 -0.550221 -1.97893 0
M  V30 2020 H 185.035 1.43008 -3.59285 0
M  V30 2021 H 186.724 1.14048 -3.89548 0
M  V30 2022 H 187.49 -1.21019 -4.69659 0
M  V30 2023 H 183.369 0.0129567 -4.60998 0
M  V30 2024 H 186.913 -2.99777 -6.29904 0
M  V30 2025 H 182.81 -1.76643 -6.2086 0
M  V30 2026 H 183.578 -3.45065 -7.42208 0
M  V30 2027 N 186.241 1.57166 -0.116904 0
M  V30 2028 C 187.191 2.11756 0.845178 0
M  V30 2029 C 188.175 1.03783 1.22955 0
M  V30 2030 O 189.367 1.3002 1.20099 0
M  V30 2031 C 186.496 2.71886 2.09602 0
M  V30 2032 C 185.582 3.86937 1.7361 0
M  V30 2033 N 185.973 4.94073 1.08284 0
M  V30 2034 C 184.271 3.97082 2.03082 0
M  V30 2035 C 184.972 5.74477 0.913855 0
M  V30 2036 N 183.948 5.2423 1.43818 0
M  V30 2037 H 187.75 2.91967 0.336523 0
M  V30 2038 H 185.264 1.62174 0.0856332 0
M  V30 2039 H 187.261 3.09338 2.79492 0
M  V30 2040 H 185.921 1.93138 2.61013 0
M  V30 2041 H 186.932 5.12483 0.747067 0
M  V30 2042 H 183.609 3.29372 2.56554 0
M  V30 2043 H 184.999 6.70701 0.40125 0
M  V30 2044 N 187.719 -0.156864 1.56817 0
M  V30 2045 C 188.666 -1.19394 1.97519 0
M  V30 2046 C 189.636 -1.4322 0.841265 0
M  V30 2047 O 190.821 -1.55719 1.10255 0
M  V30 2048 C 187.961 -2.52483 2.35258 0
M  V30 2049 C 187.074 -2.35914 3.61896 0
M  V30 2050 C 186.209 -3.61969 3.88782 0
M  V30 2051 C 185.248 -3.40395 5.08722 0
M  V30 2052 N 184.385 -4.58556 5.31668 0
M  V30 2053 H 189.225 -0.839845 2.85921 0
M  V30 2054 H 186.762 -0.403264 1.41464 0
M  V30 2055 H 188.72 -3.30071 2.55165 0
M  V30 2056 H 187.35 -2.85859 1.49949 0
M  V30 2057 H 186.402 -1.49429 3.49821 0
M  V30 2058 H 187.714 -2.15926 4.49641 0
M  V30 2059 H 186.868 -4.47989 4.09135 0
M  V30 2060 H 185.607 -3.84951 2.9944 0
M  V30 2061 H 184.612 -2.52763 4.88253 0
M  V30 2062 H 185.837 -3.18822 5.99608 0
M  V30 2063 H 183.783 -4.81729 4.45279 0
M  V30 2064 H 183.7 -4.41535 6.13664 0
M  V30 2065 H 184.968 -5.45817 5.5651 0
M  V30 2066 N 189.197 -1.51736 -0.425897 0
M  V30 2067 C 190.127 -1.76827 -1.52494 0
M  V30 2068 C 191.108 -0.618524 -1.58456 0
M  V30 2069 O 192.293 -0.862416 -1.74 0
M  V30 2070 C 189.423 -1.90374 -2.90474 0
M  V30 2071 C 188.377 -3.0588 -2.99369 0
M  V30 2072 C 187.703 -3.04625 -4.3944 0
M  V30 2073 C 189.003 -4.45644 -2.72394 0
M  V30 2074 H 190.697 -2.68855 -1.31748 0
M  V30 2075 H 188.243 -1.29372 -0.632362 0
M  V30 2076 H 190.196 -2.0651 -3.6733 0
M  V30 2077 H 188.92 -0.95004 -3.12477 0
M  V30 2078 H 187.579 -2.89467 -2.24954 0
M  V30 2079 H 187.227 -2.0701 -4.58428 0
M  V30 2080 H 186.927 -3.82195 -4.46319 0
M  V30 2081 H 188.451 -3.22869 -5.18255 0
M  V30 2082 H 189.865 -4.62348 -3.38979 0
M  V30 2083 H 188.262 -5.25006 -2.9067 0
M  V30 2084 H 189.332 -4.54893 -1.67929 0
M  V30 2085 N 190.675 0.682077 -1.42076 0
M  V30 2086 C 191.922 1.44215 -1.42156 0
M  V30 2087 C 192.25 1.94468 -0.0354186 0
M  V30 2088 O 191.505 1.70816 0.955002 0
M  V30 2089 C 191.804 2.66036 -2.38662 0
M  V30 2090 C 191.47 2.34366 -3.85206 0
M  V30 2091 C 190.132 2.25439 -4.25124 0
M  V30 2092 C 192.484 2.08513 -4.77673 0
M  V30 2093 C 189.812 1.88775 -5.55501 0
M  V30 2094 C 192.164 1.73354 -6.08384 0
M  V30 2095 C 190.828 1.62933 -6.47309 0
M  V30 2096 H 190.098 0.527718 -0.520187 0
M  V30 2097 H 192.745 0.778387 -1.74967 0
M  V30 2098 H 191.05 3.3741 -1.99152 0
M  V30 2099 H 192.747 3.24205 -2.35991 0
M  V30 2100 H 189.337 2.42213 -3.53597 0
M  V30 2101 H 193.521 2.14346 -4.47626 0
M  V30 2102 H 188.777 1.7927 -5.84527 0
M  V30 2103 H 192.951 1.52373 -6.79526 0
M  V30 2104 H 190.578 1.34292 -7.48244 0
M  V30 2105 N 192.153 1.28127 0.917671 0
M  V30 2106 C 193.43 1.05761 1.64542 0
M  V30 2107 C 193.81 -0.404344 2.07191 0
M  V30 2108 O 193.158 -1.38963 1.81388 0
M  V30 2109 C 193.368 2.02857 2.83989 0
M  V30 2110 C 194.716 2.32786 3.551 0
M  V30 2111 O 195.74 2.0091 2.94132 0
M  V30 2112 O 194.599 2.87169 4.64969 0
M  V30 2113 H 191.693 0.403916 0.721652 0
M  V30 2114 H 194.239 1.39431 0.967322 0
M  V30 2115 H 193.011 3.01407 2.49538 0
M  V30 2116 H 192.634 1.69809 3.59514 0
M  V30 2117 N 193.631 -1.12557 1.10312 0
M  V30 2118 C 194.594 -2.16434 0.75424 0
M  V30 2119 C 195.594 -1.59278 -0.220685 0
M  V30 2120 O 196.784 -1.742 0.00230591 0
M  V30 2121 C 193.916 -3.40699 0.116987 0
M  V30 2122 H 195.109 -2.48811 1.67431 0
M  V30 2123 H 192.662 -1.27542 0.903475 0
M  V30 2124 H 193.397 -3.13921 -0.813877 0
M  V30 2125 H 193.182 -3.83459 0.818613 0
M  V30 2126 H 194.672 -4.17451 -0.111387 0
M  V30 2127 N 195.109 -0.891671 -1.2995 0
M  V30 2128 C 196.334 -0.527932 -2.00568 0
M  V30 2129 C 196.759 0.877969 -1.66353 0
M  V30 2130 O 196.117 1.58301 -0.883762 0
M  V30 2131 C 196.165 -0.717745 -3.53385 0
M  V30 2132 O 195.269 0.233376 -4.11739 0
M  V30 2133 H 194.61 -0.20722 -0.630837 0
M  V30 2134 H 197.14 -1.20105 -1.65638 0
M  V30 2135 H 197.15 -0.619307 -4.03272 0
M  V30 2136 H 195.825 -1.74276 -3.77625 0
M  V30 2137 H 194.402 0.0880706 -3.72796 0
M  V30 2138 N 196.587 1.43421 -0.653314 0
M  V30 2139 C 197.864 1.95361 -0.0966581 0
M  V30 2140 C 198.244 1.59461 1.38331 0
M  V30 2141 O 197.592 0.879777 2.10884 0
M  V30 2142 C 197.802 3.47311 -0.342988 0
M  V30 2143 C 199.15 4.23875 -0.24798 0
M  V30 2144 O 200.174 3.55133 -0.275553 0
M  V30 2145 O 199.033 5.4623 -0.171771 0
M  V30 2146 H 196.127 0.826945 0.00956291 0
M  V30 2147 H 198.673 1.5336 -0.726558 0
M  V30 2148 H 197.445 3.66569 -1.36906 0
M  V30 2149 H 197.068 3.9631 0.319975 0
M  V30 2150 N 198.065 0.39524 1.52563 0
M  V30 2151 C 199.29 -0.187456 2.06551 0
M  V30 2152 C 199.715 -1.39249 1.26457 0
M  V30 2153 O 199.073 -1.78947 0.291151 0
M  V30 2154 C 199.121 -0.529985 3.56684 0
M  V30 2155 O 198.225 -1.62307 3.79118 0
M  V30 2156 H 197.566 -0.0202537 0.663691 0
M  V30 2157 H 200.096 0.564426 1.96661 0
M  V30 2158 H 200.106 -0.792598 4.00227 0
M  V30 2159 H 198.781 0.350987 4.14416 0
M  V30 2160 H 197.358 -1.3537 3.47461 0
M  V30 2161 N 199.544 -1.57102 0.125237 0
M  V30 2162 C 200.769 -2.0019 -0.542101 0
M  V30 2163 C 201.194 -1.00449 -1.59034 0
M  V30 2164 O 200.552 0.0229423 -1.81285 0
M  V30 2165 C 200.6 -3.42129 -1.13929 0
M  V30 2166 O 199.704 -3.45307 -2.2547 0
M  V30 2167 H 199.045 -0.650171 -0.134812 0
M  V30 2168 H 201.575 -2.03461 0.215553 0
M  V30 2169 H 201.585 -3.80471 -1.4733 0
M  V30 2170 H 200.26 -4.14237 -0.371531 0
M  V30 2171 H 198.837 -3.1879 -1.93462 0
M  V30 2172 N 201.022 0.148545 -1.56898 0
M  V30 2173 C 202.247 0.880385 -1.87787 0
M  V30 2174 C 202.672 1.74018 -0.714093 0
M  V30 2175 O 202.03 1.78153 0.336343 0
M  V30 2176 C 202.078 1.71422 -3.17249 0
M  V30 2177 O 201.182 2.8183 -3.01074 0
M  V30 2178 H 200.523 0.245301 -0.617028 0
M  V30 2179 H 203.053 0.139826 -2.04122 0
M  V30 2180 H 203.063 2.10954 -3.49231 0
M  V30 2181 H 201.738 1.08284 -4.01556 0
M  V30 2182 H 200.315 2.45715 -2.80497 0
M  V30 2183 N 202.5 1.5196 0.417844 0
M  V30 2184 C 203.73 1.69181 1.18581 0
M  V30 2185 C 204.138 0.397104 1.84986 0
M  V30 2186 O 203.481 -0.636011 1.72339 0
M  V30 2187 C 203.543 2.76497 2.29759 0
M  V30 2188 C 203.207 4.18514 1.83563 0
M  V30 2189 C 204.204 5.02648 1.32821 0
M  V30 2190 C 201.889 4.64708 1.90661 0
M  V30 2191 C 203.883 6.31044 0.897894 0
M  V30 2192 C 201.57 5.93096 1.47241 0
M  V30 2193 C 202.568 6.76093 0.968891 0
M  V30 2194 O 202.256 8.02078 0.540924 0
M  V30 2195 H 201.988 0.570457 0.362705 0
M  V30 2196 H 204.542 1.99249 0.498885 0
M  V30 2197 H 202.772 2.41786 3.01789 0
M  V30 2198 H 204.461 2.82403 2.91553 0
M  V30 2199 H 205.227 4.68154 1.26716 0
M  V30 2200 H 201.106 4.00216 2.28797 0
M  V30 2201 H 204.65 6.95776 0.504192 0
M  V30 2202 H 200.547 6.271 1.53022 0
M  V30 2203 H 201.315 8.15794 0.66502 0
M  V30 2204 N 203.978 -0.674533 1.42435 0
M  V30 2205 C 204.925 -1.78807 1.45934 0
M  V30 2206 C 205.895 -1.63157 0.311271 0
M  V30 2207 O 207.08 -1.83707 0.515383 0
M  V30 2208 C 204.22 -3.16839 1.36773 0
M  V30 2209 C 203.333 -3.43774 2.61617 0
M  V30 2210 C 202.468 -4.71536 2.44597 0
M  V30 2211 C 201.507 -4.91505 3.64814 0
M  V30 2212 N 200.644 -6.10508 3.46734 0
M  V30 2213 H 205.484 -1.75151 2.41093 0
M  V30 2214 H 203.021 -0.85504 1.19697 0
M  V30 2215 H 204.979 -3.96606 1.29459 0
M  V30 2216 H 203.609 -3.19619 0.452089 0
M  V30 2217 H 202.661 -2.58259 2.79297 0
M  V30 2218 H 203.973 -3.54423 3.50978 0
M  V30 2219 H 203.127 -5.59393 2.3487 0
M  V30 2220 H 201.866 -4.6317 1.52726 0
M  V30 2221 H 200.871 -4.0209 3.74972 0
M  V30 2222 H 202.096 -5.01716 4.57665 0
M  V30 2223 H 200.042 -6.03315 2.5758 0
M  V30 2224 H 199.959 -6.2202 4.29682 0
M  V30 2225 H 201.227 -7.01044 3.40819 0
M  V30 2226 N 205.456 -1.28612 -0.910864 0
M  V30 2227 C 206.406 -1.09423 -2.00026 0
M  V30 2228 C 207.39 -0.0170079 -1.60891 0
M  V30 2229 O 208.582 -0.237472 -1.754 0
M  V30 2230 C 205.711 -0.76114 -3.34756 0
M  V30 2231 C 204.797 -1.87735 -3.80285 0
M  V30 2232 N 205.188 -3.11938 -3.98156 0
M  V30 2233 C 203.486 -1.76786 -4.09467 0
M  V30 2234 C 204.187 -3.84687 -4.36338 0
M  V30 2235 N 203.163 -3.12555 -4.44759 0
M  V30 2236 H 206.965 -2.03658 -2.11898 0
M  V30 2237 H 204.479 -1.19573 -1.09891 0
M  V30 2238 H 206.476 -0.604743 -4.12491 0
M  V30 2239 H 205.136 0.173403 -3.24237 0
M  V30 2240 H 206.147 -3.47516 -3.83996 0
M  V30 2241 H 202.824 -0.905284 -4.07567 0
M  V30 2242 H 204.214 -4.91518 -4.58104 0
M  V30 2243 N 206.934 1.1197 -1.10907 0
M  V30 2244 C 207.882 2.19927 -0.757303 0
M  V30 2245 C 208.876 1.67564 0.248747 0
M  V30 2246 O 210.082 1.79672 0.108605 0
M  V30 2247 H 206.457 0.716925 -0.226987 0
M  V30 2248 H 208.428 2.46847 -1.67658 0
M  V30 2249 C 207.177 3.47061 -0.210671 0
M  V30 2250 H 206.5 3.87703 -0.976049 0
M  V30 2251 H 207.94 4.24 -0.0026584 0
M  V30 2252 C 206.399 3.19864 1.05777 0
M  V30 2253 O 206.929 3.40049 2.13845 0
M  V30 2254 N 205.135 2.73636 0.978349 0
M  V30 2255 H 204.682 2.5741 0.0988246 0
M  V30 2256 H 204.64 2.55815 1.82773 0
M  V30 2257 N 208.412 0.89855 1.29475 0
M  V30 2258 C 209.66 0.522847 1.9522 0
M  V30 2259 C 209.981 -0.93371 1.71192 0
M  V30 2260 O 209.251 -1.65823 1.04305 0
M  V30 2261 H 207.831 0.190366 0.722336 0
M  V30 2262 H 210.493 1.14459 1.5775 0
M  V30 2263 H 209.589 0.704476 3.04045 0
M  V30 2264 N 209.89 -1.43072 0.660911 0
M  V30 2265 C 211.118 -2.06067 0.185422 0
M  V30 2266 C 211.533 -1.49582 -1.15198 0
M  V30 2267 O 210.89 -0.630134 -1.71276 0
M  V30 2268 C 210.941 -3.61371 0.0966523 0
M  V30 2269 O 210.662 -4.15758 1.38119 0
M  V30 2270 C 212.163 -4.41455 -0.403996 0
M  V30 2271 H 209.383 -0.664459 0.0934604 0
M  V30 2272 H 211.927 -1.83447 0.90373 0
M  V30 2273 H 210.082 -3.8315 -0.572259 0
M  V30 2274 H 210.496 -5.09499 1.24542 0
M  V30 2275 H 211.97 -5.50437 -0.415045 0
M  V30 2276 H 212.447 -4.15036 -1.43674 0
M  V30 2277 H 213.053 -4.24663 0.232691 0
M  V30 2278 N 211.368 -0.403325 -1.52352 0
M  V30 2279 C 212.278 0.432009 -2.30588 0
M  V30 2280 C 213.294 1.05884 -1.38075 0
M  V30 2281 O 214.47 1.06161 -1.71148 0
M  V30 2282 C 211.535 1.53669 -3.10784 0
M  V30 2283 C 210.596 0.933525 -4.19027 0
M  V30 2284 C 209.829 1.98557 -4.9539 0
M  V30 2285 O 210.052 3.20283 -4.71991 0
M  V30 2286 O 208.986 1.59504 -5.80381 0
M  V30 2287 H 212.812 -0.205739 -3.03002 0
M  V30 2288 H 210.397 -0.166675 -1.48467 0
M  V30 2289 H 212.279 2.17814 -3.60742 0
M  V30 2290 H 210.954 2.15915 -2.41169 0
M  V30 2291 H 209.861 0.254954 -3.7323 0
M  V30 2292 H 211.194 0.35508 -4.90918 0
M  V30 2293 N 212.846 1.57033 -0.133567 0
M  V30 2294 C 213.776 2.1909 0.807567 0
M  V30 2295 C 214.757 1.13517 1.26681 0
M  V30 2296 O 215.942 1.41809 1.32679 0
M  V30 2297 C 213.072 2.80188 2.05212 0
M  V30 2298 C 212.026 3.91471 1.73015 0
M  V30 2299 C 211.352 4.39443 3.04622 0
M  V30 2300 C 212.652 5.12886 0.987168 0
M  V30 2301 H 214.346 2.97988 0.290403 0
M  V30 2302 H 211.892 1.43335 0.138239 0
M  V30 2303 H 213.845 3.22264 2.71521 0
M  V30 2304 H 212.569 1.98601 2.59278 0
M  V30 2305 H 211.228 3.49993 1.0909 0
M  V30 2306 H 210.876 3.54695 3.56651 0
M  V30 2307 H 210.576 5.14495 2.83847 0
M  V30 2308 H 212.1 4.8418 3.72024 0
M  V30 2309 H 213.514 5.51891 1.55208 0
M  V30 2310 H 211.911 5.93615 0.87985 0
M  V30 2311 H 212.981 4.84894 -0.0235286 0
M  V30 2312 N 214.325 -0.140222 1.56975 0
M  V30 2313 C 215.553 -0.866437 1.87884 0
M  V30 2314 C 215.968 -1.74428 0.722517 0
M  V30 2315 O 215.325 -1.79891 -0.30749 0
M  V30 2316 C 215.376 -1.71753 3.18093 0
M  V30 2317 O 215.097 -0.875056 4.29272 0
M  V30 2318 C 216.598 -2.55074 3.62563 0
M  V30 2319 H 213.818 -0.25019 0.622612 0
M  V30 2320 H 216.362 -0.130977 2.0408 0
M  V30 2321 H 214.517 -2.40598 3.03631 0
M  V30 2322 H 214.931 -1.46002 5.03769 0
M  V30 2323 H 216.405 -3.10356 4.5649 0
M  V30 2324 H 216.882 -3.31434 2.88181 0
M  V30 2325 H 217.488 -1.91509 3.79743 0
M  V30 2326 N 215.803 -1.52179 -0.40978 0
M  V30 2327 C 216.733 -1.78435 -1.5061 0
M  V30 2328 C 217.714 -0.635295 -1.57791 0
M  V30 2329 O 218.899 -0.880823 -1.73076 0
M  V30 2330 C 216.029 -1.93444 -2.88439 0
M  V30 2331 C 214.983 -3.09038 -2.96108 0
M  V30 2332 C 214.309 -3.09268 -4.36185 0
M  V30 2333 C 215.609 -4.48508 -2.67652 0
M  V30 2334 H 217.303 -2.70237 -1.28889 0
M  V30 2335 H 214.849 -1.30036 -0.618605 0
M  V30 2336 H 216.802 -2.10394 -3.65119 0
M  V30 2337 H 215.526 -0.983129 -3.11452 0
M  V30 2338 H 214.185 -2.91837 -2.21872 0
M  V30 2339 H 213.833 -2.11861 -4.56206 0
M  V30 2340 H 213.533 -3.86907 -4.42241 0
M  V30 2341 H 215.057 -3.28348 -5.14801 0
M  V30 2342 H 216.471 -4.65918 -3.34056 0
M  V30 2343 H 214.868 -5.28059 -2.85085 0
M  V30 2344 H 215.938 -4.56649 -1.63095 0
M  V30 2345 N 217.281 0.66697 -1.42791 0
M  V30 2346 C 218.697 0.981027 -1.25889 0
M  V30 2347 C 218.897 2.00793 -0.168695 0
M  V30 2348 O 217.953 2.48321 0.45747 0
M  V30 2349 C 219.266 1.47838 -2.61848 0
M  V30 2350 C 220.814 1.59575 -2.69267 0
M  V30 2351 C 221.289 2.12704 -4.05612 0
M  V30 2352 N 222.78 2.20026 -4.07606 0
M  V30 2353 C 223.515 2.62227 -5.09926 0
M  V30 2354 N 223.011 3.03824 -6.22626 0
M  V30 2355 N 224.804 2.62045 -4.97281 0
M  V30 2356 H 216.955 -0.0127891 -2.12396 0
M  V30 2357 H 219.218 0.0568258 -0.946295 0
M  V30 2358 H 218.924 0.798299 -3.4252 0
M  V30 2359 H 218.798 2.45579 -2.86305 0
M  V30 2360 H 221.185 2.26687 -1.88936 0
M  V30 2361 H 221.266 0.60302 -2.48591 0
M  V30 2362 H 220.91 1.46198 -4.86404 0
M  V30 2363 H 220.84 3.12782 -4.23645 0
M  V30 2364 H 223.331 1.90708 -3.2625 0
M  V30 2365 H 223.644 3.34734 -6.96544 0
M  V30 2366 H 221.989 3.01662 -6.26119 0
M  V30 2367 H 225.18 2.28916 -4.08308 0
M  V30 2368 H 225.353 2.94613 -5.77154 0
M  V30 2369 N 218.759 1.29093 0.90403 0
M  V30 2370 C 219.989 1.19516 1.68522 0
M  V30 2371 C 220.397 -0.24738 1.87576 0
M  V30 2372 O 219.74 -1.17798 1.40959 0
M  V30 2373 C 219.802 1.83249 3.0929 0
M  V30 2374 C 219.466 3.32531 3.13484 0
M  V30 2375 C 220.463 4.28821 2.93953 0
M  V30 2376 C 218.148 3.73656 3.35688 0
M  V30 2377 C 220.142 5.64212 2.96553 0
M  V30 2378 C 217.829 5.0917 3.37919 0
M  V30 2379 C 218.827 6.04258 3.18373 0
M  V30 2380 O 218.515 7.37298 3.20385 0
M  V30 2381 H 218.247 0.415467 0.533257 0
M  V30 2382 H 220.801 1.70912 1.13922 0
M  V30 2383 H 219.031 1.26358 3.65473 0
M  V30 2384 H 220.72 1.68054 3.69476 0
M  V30 2385 H 221.486 3.98382 2.76616 0
M  V30 2386 H 217.365 3.00101 3.49943 0
M  V30 2387 H 220.909 6.38407 2.81216 0
M  V30 2388 H 216.806 5.39256 3.54787 0
M  V30 2389 H 217.574 7.46048 3.36681 0
M  V30 2390 N 220.237 -1.11381 1.11499 0
M  V30 2391 C 221.462 -1.87475 0.887019 0
M  V30 2392 C 221.887 -1.79639 -0.557796 0
M  V30 2393 O 221.245 -1.15924 -1.39396 0
M  V30 2394 C 221.293 -3.34213 1.35403 0
M  V30 2395 O 220.397 -4.0903 0.526146 0
M  V30 2396 H 219.738 -0.582099 0.319463 0
M  V30 2397 H 222.268 -1.40785 1.48461 0
M  V30 2398 H 222.278 -3.8506 1.34881 0
M  V30 2399 H 220.953 -3.39232 2.40612 0
M  V30 2400 H 219.53 -3.68082 0.597522 0
M  V30 2401 N 221.715 -0.905404 -1.28997 0
M  V30 2402 C 222.943 -0.549846 -1.9946 0
M  V30 2403 C 223.358 0.866834 -1.67724 0
M  V30 2404 O 222.715 1.57298 -0.925404 0
M  V30 2405 C 222.766 -0.739387 -3.53858 0
M  V30 2406 O 222.487 -2.10031 -3.84472 0
M  V30 2407 C 223.988 -0.389541 -4.41585 0
M  V30 2408 H 221.208 -0.210429 -0.637151 0
M  V30 2409 H 223.752 -1.21632 -1.64396 0
M  V30 2410 H 221.907 -0.120023 -3.87214 0
M  V30 2411 H 222.321 -2.13385 -4.79132 0
M  V30 2412 H 223.795 -0.572972 -5.49018 0
M  V30 2413 H 224.272 0.673756 -4.34001 0
M  V30 2414 H 224.878 -0.986089 -4.1371 0
M  V30 2415 N 223.193 1.4272 -0.668489 0
M  V30 2416 C 224.441 2.01226 -0.187769 0
M  V30 2417 C 224.762 1.53092 1.2078 0
M  V30 2418 O 224.032 0.74993 1.80977 0
M  V30 2419 H 222.612 0.744041 -0.0664272 0
M  V30 2420 H 225.274 1.74723 -0.863583 0
M  V30 2421 H 224.37 3.11556 -0.184166 0
M  V30 2422 N 224.671 0.411399 1.52136 0
M  V30 2423 C 225.899 -0.163076 2.06256 0
M  V30 2424 C 226.314 -1.3867 1.28125 0
M  V30 2425 O 225.671 -1.79423 0.333721 0
M  V30 2426 C 225.722 -0.511252 3.57867 0
M  V30 2427 O 225.443 0.66378 4.33042 0
M  V30 2428 C 226.944 -1.13921 4.28412 0
M  V30 2429 H 224.164 -0.0193897 0.67072 0
M  V30 2430 H 226.708 0.583007 1.96013 0
M  V30 2431 H 224.863 -1.20723 3.6811 0
M  V30 2432 H 225.277 0.372601 5.23175 0
M  V30 2433 H 226.751 -1.33302 5.35663 0
M  V30 2434 H 227.228 -2.11296 3.85033 0
M  V30 2435 H 227.834 -0.483373 4.22544 0
M  V30 2436 N 226.149 -1.5696 0.141893 0
M  V30 2437 C 227.395 -1.9625 -0.511248 0
M  V30 2438 C 227.728 -1.02654 -1.64851 0
M  V30 2439 O 227.003 -0.0679676 -1.94381 0
M  V30 2440 C 227.286 -3.45285 -1.02227 0
M  V30 2441 C 227.139 -4.49658 0.113138 0
M  V30 2442 C 228.458 -3.96698 -1.90574 0
M  V30 2443 H 225.577 -0.713567 -0.184367 0
M  V30 2444 H 228.219 -1.88698 0.222087 0
M  V30 2445 H 226.369 -3.51852 -1.64719 0
M  V30 2446 H 228.041 -4.55174 0.749302 0
M  V30 2447 H 226.284 -4.26857 0.773026 0
M  V30 2448 H 226.955 -5.51258 -0.286053 0
M  V30 2449 H 229.431 -3.92578 -1.37918 0
M  V30 2450 H 228.307 -5.01453 -2.2324 0
M  V30 2451 H 228.568 -3.3875 -2.84079 0
M  V30 2452 N 227.627 0.131896 -1.57047 0
M  V30 2453 C 228.852 0.860418 -1.8871 0
M  V30 2454 C 229.277 1.73251 -0.73251 0
M  V30 2455 O 228.635 1.785 0.317429 0
M  V30 2456 C 228.683 1.68047 -3.19049 0
M  V30 2457 O 227.787 2.7862 -3.04047 0
M  V30 2458 H 227.128 0.238743 -0.619595 0
M  V30 2459 H 229.658 0.118169 -2.04258 0
M  V30 2460 H 229.668 2.07238 -3.51449 0
M  V30 2461 H 228.343 1.04018 -4.02682 0
M  V30 2462 H 226.92 2.42726 -2.83088 0
M  V30 2463 N 229.106 1.52395 0.401703 0
M  V30 2464 C 230.354 1.66488 1.14569 0
M  V30 2465 C 230.675 0.400897 1.90835 0
M  V30 2466 O 229.945 -0.584415 1.8698 0
M  V30 2467 H 228.525 0.613672 0.425929 0
M  V30 2468 H 231.187 1.89464 0.457093 0
M  V30 2469 H 230.283 2.50942 1.85566 0
M  V30 2470 N 230.584 -0.659388 1.43143 0
M  V30 2471 C 231.831 -1.41935 1.44433 0
M  V30 2472 C 232.159 -1.94387 0.0663522 0
M  V30 2473 O 231.414 -1.72314 -0.927706 0
M  V30 2474 C 231.713 -2.62206 2.42864 0
M  V30 2475 C 231.379 -2.28208 3.88886 0
M  V30 2476 C 230.041 -2.18647 4.28657 0
M  V30 2477 C 232.393 -2.00887 4.8093 0
M  V30 2478 C 229.721 -1.79914 5.58433 0
M  V30 2479 C 232.073 -1.63653 6.11065 0
M  V30 2480 C 230.737 -1.52614 6.49819 0
M  V30 2481 H 230.007 -0.519376 0.528517 0
M  V30 2482 H 232.654 -0.750453 1.76183 0
M  V30 2483 H 230.959 -3.34199 2.04495 0
M  V30 2484 H 232.656 -3.2041 2.41119 0
M  V30 2485 H 229.246 -2.36557 3.57406 0
M  V30 2486 H 233.43 -2.07198 4.5098 0
M  V30 2487 H 228.686 -1.69948 5.87305 0
M  V30 2488 H 232.86 -1.41543 6.81864 0
M  V30 2489 H 230.487 -1.22371 7.50286 0
M  V30 2490 N 232.062 -1.29571 -0.897171 0
M  V30 2491 C 232.992 -1.17473 -2.01798 0
M  V30 2492 C 233.973 -0.068323 -1.69963 0
M  V30 2493 O 235.158 -0.248239 -1.92607 0
M  V30 2494 C 232.288 -0.853099 -3.36659 0
M  V30 2495 C 231.242 -1.9161 -3.82713 0
M  V30 2496 C 230.568 -1.44773 -5.14728 0
M  V30 2497 C 231.868 -3.32535 -4.02763 0
M  V30 2498 H 233.562 -2.11237 -2.12177 0
M  V30 2499 H 231.108 -1.01699 -1.01948 0
M  V30 2500 H 233.061 -0.755165 -4.14578 0
M  V30 2501 H 231.785 0.120236 -3.26379 0
M  V30 2502 H 230.444 -2.00346 -3.07013 0
M  V30 2503 H 230.092 -0.462995 -5.00865 0
M  V30 2504 H 229.792 -2.15865 -5.46513 0
M  V30 2505 H 231.316 -1.36334 -5.95185 0
M  V30 2506 H 232.73 -3.26626 -4.71156 0
M  V30 2507 H 231.127 -4.01607 -4.45905 0
M  V30 2508 H 232.197 -3.75326 -3.07016 0
M  V30 2509 N 233.54 1.10788 -1.12088 0
M  V30 2510 C 234.765 1.87002 -0.896949 0
M  V30 2511 C 235.19 1.79933 0.548261 0
M  V30 2512 O 234.548 1.16662 1.38779 0
M  V30 2513 C 234.596 3.3349 -1.37174 0
M  V30 2514 O 233.7 4.08745 -0.547831 0
M  V30 2515 H 233.041 0.580397 -0.322545 0
M  V30 2516 H 235.571 1.39996 -1.49206 0
M  V30 2517 H 235.581 3.84339 -1.36922 0
M  V30 2518 H 234.256 3.37951 -2.42408 0
M  V30 2519 H 232.833 3.6776 -0.617034 0
M  V30 2520 N 235.018 0.912232 1.28515 0
M  V30 2521 C 235.95 0.35676 2.26406 0
M  V30 2522 C 236.963 -0.503933 1.54804 0
M  V30 2523 O 238.152 -0.319059 1.75625 0
M  V30 2524 C 235.252 -0.508825 3.35058 0
M  V30 2525 C 234.425 0.329007 4.36161 0
M  V30 2526 C 233.484 -0.471422 5.24084 0
M  V30 2527 O 232.51 0.115482 5.69083 0
M  V30 2528 N 233.712 -1.77479 5.52704 0
M  V30 2529 H 236.477 1.19818 2.74707 0
M  V30 2530 H 234.038 0.778022 1.4198 0
M  V30 2531 H 236.03 -1.051 3.90815 0
M  V30 2532 H 234.6 -1.25095 2.86478 0
M  V30 2533 H 233.82 1.05256 3.79888 0
M  V30 2534 H 235.108 0.90234 5.00735 0
M  V30 2535 H 234.506 -2.27417 5.17975 0
M  V30 2536 H 233.063 -2.26382 6.11224 0
M  V30 2537 N 236.496 -1.42363 0.676048 0
M  V30 2538 C 237.773 -1.95183 0.127726 0
M  V30 2539 C 238.153 -1.61641 -1.35777 0
M  V30 2540 O 237.501 -0.913216 -2.09458 0
M  V30 2541 C 237.711 -3.46721 0.398199 0
M  V30 2542 C 239.059 -4.23427 0.315383 0
M  V30 2543 O 240.083 -3.54649 0.332016 0
M  V30 2544 O 238.942 -5.45888 0.25865 0
M  V30 2545 H 236.036 -0.826992 0.00359427 0
M  V30 2546 H 238.582 -1.52184 0.750864 0
M  V30 2547 H 237.354 -3.64344 1.4272 0
M  V30 2548 H 236.977 -3.96769 -0.256885 0
M  V30 2549 N 237.974 -0.419461 -1.51915 0
M  V30 2550 C 239.223 0.154346 -2.01109 0
M  V30 2551 C 239.536 1.45338 -1.30905 0
M  V30 2552 O 240.742 2.10906 -1.7097 0
M  V30 2553 C 239.198 0.325615 -3.58424 0
M  V30 2554 C 238.806 -0.961934 -4.37551 0
M  V30 2555 C 240.55 0.854155 -4.15818 0
M  V30 2556 C 238.457 -0.757287 -5.86531 0
M  V30 2557 H 237.387 0.0614563 -0.751491 0
M  V30 2558 H 240.038 -0.54649 -1.75173 0
M  V30 2559 H 238.42 1.08903 -3.80731 0
M  V30 2560 H 239.594 -1.7323 -4.26999 0
M  V30 2561 H 237.909 -1.41766 -3.91524 0
M  V30 2562 H 240.506 1.02346 -5.24814 0
M  V30 2563 H 240.849 1.83172 -3.73837 0
M  V30 2564 H 241.382 0.149528 -3.97519 0
M  V30 2565 H 238.121 -1.70671 -6.32892 0
M  V30 2566 H 237.641 -0.0264061 -5.99794 0
M  V30 2567 H 239.32 -0.403482 -6.45741 0
M  V30 2568 N 239.452 1.56882 -0.150215 0
M  V30 2569 C 240.701 1.95403 0.500071 0
M  V30 2570 C 241.014 1.03777 1.658 0
M  V30 2571 O 242.22 1.31889 2.37313 0
M  V30 2572 C 240.676 3.4738 0.941018 0
M  V30 2573 C 240.284 4.47596 -0.190158 0
M  V30 2574 C 242.028 3.9476 1.56091 0
M  V30 2575 C 239.935 5.90787 0.269237 0
M  V30 2576 H 238.865 0.729515 0.190588 0
M  V30 2577 H 241.516 1.81988 -0.235074 0
M  V30 2578 H 239.898 3.56138 1.73152 0
M  V30 2579 H 241.072 4.50536 -0.967157 0
M  V30 2580 H 239.387 4.10151 -0.718666 0
M  V30 2581 H 241.984 4.99181 1.9163 0
M  V30 2582 H 242.327 3.36494 2.45107 0
M  V30 2583 H 242.86 3.88932 0.835249 0
M  V30 2584 H 239.599 6.52879 -0.585621 0
M  V30 2585 H 239.119 5.912 1.01204 0
M  V30 2586 H 240.798 6.42979 0.720176 0
M  V30 2587 N 240.93 -0.123565 1.57115 0
M  V30 2588 C 242.158 -0.846461 1.88793 0
M  V30 2589 C 242.573 -1.73652 0.740976 0
M  V30 2590 O 241.93 -1.80207 -0.288393 0
M  V30 2591 C 241.981 -1.6837 3.19897 0
M  V30 2592 O 241.702 -0.829477 4.30176 0
M  V30 2593 C 243.203 -2.51214 3.65248 0
M  V30 2594 H 240.423 -0.243573 0.625231 0
M  V30 2595 H 242.967 -0.109324 2.04208 0
M  V30 2596 H 241.122 -2.37364 3.06165 0
M  V30 2597 H 241.536 -1.40651 5.0529 0
M  V30 2598 H 243.01 -3.05497 4.59756 0
M  V30 2599 H 243.487 -3.28359 2.9168 0
M  V30 2600 H 244.093 -1.8747 3.81752 0
M  V30 2601 N 242.408 -1.52605 -0.393616 0
M  V30 2602 C 243.654 -1.67672 -1.14079 0
M  V30 2603 C 243.987 -0.413121 -1.89755 0
M  V30 2604 O 243.262 0.588952 -1.85369 0
M  V30 2605 C 243.545 -2.9088 -2.12276 0
M  V30 2606 C 243.398 -4.27329 -1.40394 0
M  V30 2607 C 244.717 -3.09628 -3.12759 0
M  V30 2608 H 241.836 -0.610168 -0.413356 0
M  V30 2609 H 244.478 -1.85193 -0.424696 0
M  V30 2610 H 242.628 -2.76073 -2.73342 0
M  V30 2611 H 244.3 -4.53894 -0.82327 0
M  V30 2612 H 242.543 -4.2802 -0.705801 0
M  V30 2613 H 243.214 -5.09615 -2.12123 0
M  V30 2614 H 245.69 -3.23436 -2.61779 0
M  V30 2615 H 244.566 -3.97322 -3.78717 0
M  V30 2616 H 244.827 -2.23637 -3.81365 0
M  V30 2617 N 243.887 0.651787 -1.4349 0
M  V30 2618 C 245.135 1.40888 -1.44897 0
M  V30 2619 C 245.456 1.94856 -0.0749086 0
M  V30 2620 O 244.726 1.74518 0.889956 0
M  V30 2621 H 243.306 0.522887 -0.533478 0
M  V30 2622 H 245.968 0.768609 -1.79104 0
M  V30 2623 H 245.064 2.25052 -2.16236 0
M  V30 2624 N 245.365 1.30045 0.890287 0
M  V30 2625 C 246.613 1.18327 1.63839 0
M  V30 2626 C 246.934 -0.263455 1.93212 0
M  V30 2627 O 246.204 -1.17856 1.56482 0
M  V30 2628 H 244.784 0.434933 0.607324 0
M  V30 2629 H 247.446 1.631 1.06698 0
M  V30 2630 H 246.542 1.74024 2.59079 0
M  V30 2631 N 246.843 -1.10192 1.12674 0
M  V30 2632 C 248.092 -1.81573 0.8783 0
M  V30 2633 C 248.405 -1.86249 -0.597557 0
M  V30 2634 O 249.611 -2.5386 -0.962681 0
M  V30 2635 C 248.067 -3.26149 1.52167 0
M  V30 2636 C 247.675 -3.29763 3.03249 0
M  V30 2637 C 249.419 -4.0234 1.3536 0
M  V30 2638 C 247.326 -4.68815 3.60508 0
M  V30 2639 H 246.256 -0.680394 0.324931 0
M  V30 2640 H 248.907 -1.23902 1.35353 0
M  V30 2641 H 247.289 -3.83832 0.974104 0
M  V30 2642 H 248.463 -2.8189 3.6452 0
M  V30 2643 H 246.778 -2.67059 3.19481 0
M  V30 2644 H 249.375 -5.05058 1.75559 0
M  V30 2645 H 249.718 -4.15235 0.297554 0
M  V30 2646 H 250.251 -3.51079 1.87052 0
M  V30 2647 H 246.99 -4.61121 4.65884 0
M  V30 2648 H 246.51 -5.17045 3.04014 0
M  V30 2649 H 248.189 -5.37785 3.59717 0
M  V30 2650 N 248.321 -0.919034 -1.28029 0
M  V30 2651 C 249.549 -0.570971 -1.98866 0
M  V30 2652 C 249.964 0.848996 -1.68634 0
M  V30 2653 O 249.321 1.56307 -0.942036 0
M  V30 2654 C 249.372 -0.776876 -3.53054 0
M  V30 2655 O 249.093 -2.14097 -3.82222 0
M  V30 2656 C 250.594 -0.436356 -4.41147 0
M  V30 2657 H 247.814 -0.217175 -0.634883 0
M  V30 2658 H 250.358 -1.23368 -1.63097 0
M  V30 2659 H 248.513 -0.161085 -3.87065 0
M  V30 2660 H 248.927 -2.18455 -4.76841 0
M  V30 2661 H 250.401 -0.63117 -5.4838 0
M  V30 2662 H 250.878 0.627686 -4.34692 0
M  V30 2663 H 251.484 -1.02991 -4.12641 0
M  V30 2664 N 249.799 1.42003 -0.683588 0
M  V30 2665 C 251.045 2.01712 -0.209825 0
M  V30 2666 C 251.378 1.53968 1.18353 0
M  V30 2667 O 250.653 0.745661 1.79639 0
M  V30 2668 C 250.936 3.59202 -0.254197 0
M  V30 2669 C 250.789 4.17102 -1.68363 0
M  V30 2670 C 252.108 4.38344 0.392709 0
M  V30 2671 H 249.227 0.732891 -0.0777189 0
M  V30 2672 H 251.869 1.68909 -0.87004 0
M  V30 2673 H 250.019 3.87278 0.307954 0
M  V30 2674 H 251.691 3.99946 -2.29871 0
M  V30 2675 H 249.934 3.72597 -2.22157 0
M  V30 2676 H 250.605 5.26249 -1.6663 0
M  V30 2677 H 253.081 4.16011 -0.0859162 0
M  V30 2678 H 251.957 5.47901 0.331063 0
M  V30 2679 H 252.218 4.16887 1.47164 0
M  V30 2680 N 251.277 0.427512 1.51691 0
M  V30 2681 C 252.505 -0.141191 2.06418 0
M  V30 2682 C 252.92 -1.37303 1.29589 0
M  V30 2683 O 252.277 -1.79059 0.352732 0
M  V30 2684 C 252.328 -0.473266 3.58389 0
M  V30 2685 O 252.049 0.709673 4.32314 0
M  V30 2686 C 253.55 -1.09371 4.29596 0
M  V30 2687 H 250.77 -0.0122747 0.670888 0
M  V30 2688 H 253.314 0.603764 1.95384 0
M  V30 2689 H 251.469 -1.16812 3.69369 0
M  V30 2690 H 251.883 0.42807 5.2275 0
M  V30 2691 H 253.357 -1.27613 5.37046 0
M  V30 2692 H 253.834 -2.072 3.87253 0
M  V30 2693 H 254.44 -0.43853 4.23033 0
M  V30 2694 N 252.755 -1.56801 0.158532 0
M  V30 2695 C 253.687 -2.14488 -0.807923 0
M  V30 2696 C 254.7 -1.09721 -1.20271 0
M  V30 2697 O 255.889 -1.36956 -1.14478 0
M  V30 2698 C 252.989 -2.66217 -2.09718 0
M  V30 2699 C 252.162 -3.95507 -1.86796 0
M  V30 2700 C 251.221 -4.3243 -2.99818 0
M  V30 2701 O 250.247 -5.00543 -2.71008 0
M  V30 2702 N 251.449 -3.92947 -4.27285 0
M  V30 2703 H 254.214 -2.98042 -0.314816 0
M  V30 2704 H 251.775 -1.61881 -0.0246692 0
M  V30 2705 H 253.767 -2.87924 -2.84398 0
M  V30 2706 H 252.337 -1.87324 -2.50257 0
M  V30 2707 H 251.557 -3.82309 -0.96089 0
M  V30 2708 H 252.845 -4.79972 -1.68833 0
M  V30 2709 H 252.243 -3.38087 -4.53557 0
M  V30 2710 H 250.8 -4.19681 -4.9871 0
M  V30 2711 N 254.233 0.115231 -1.57178 0
M  V30 2712 C 255.166 1.17166 -1.95825 0
M  V30 2713 C 256.144 1.39912 -0.828463 0
M  V30 2714 O 257.328 1.54004 -1.08697 0
M  V30 2715 C 254.455 2.52478 -2.25771 0
M  V30 2716 C 253.501 2.46136 -3.48309 0
M  V30 2717 S 254.334 1.89736 -5.0076 0
M  V30 2718 C 255.49 3.26713 -5.33863 0
M  V30 2719 H 255.723 0.842103 -2.85124 0
M  V30 2720 H 253.256 0.322136 -1.51002 0
M  V30 2721 H 255.214 3.30332 -2.43702 0
M  V30 2722 H 253.875 2.82609 -1.37079 0
M  V30 2723 H 253.068 3.45819 -3.66641 0
M  V30 2724 H 252.67 1.76404 -3.29784 0
M  V30 2725 H 254.962 4.22935 -5.29275 0
M  V30 2726 H 255.905 3.13205 -6.35065 0
M  V30 2727 H 256.313 3.25316 -4.61335 0
M  V30 2728 N 255.711 1.52812 0.385517 0
M  V30 2729 C 256.958 1.68026 1.1302 0
M  V30 2730 C 257.286 0.421934 1.89868 0
M  V30 2731 O 256.541 -0.595749 1.86412 0
M  V30 2732 C 256.84 2.86856 2.13187 0
M  V30 2733 C 256.506 4.24159 1.5297 0
M  V30 2734 C 255.168 4.61501 1.36274 0
M  V30 2735 C 257.52 5.09627 1.09223 0
M  V30 2736 C 254.848 5.81966 0.743837 0
M  V30 2737 C 257.2 6.30719 0.487411 0
M  V30 2738 C 255.864 6.6679 0.307777 0
M  V30 2739 H 255.134 0.614849 0.413571 0
M  V30 2740 H 257.781 1.86962 0.414405 0
M  V30 2741 H 256.086 2.6235 2.90998 0
M  V30 2742 H 257.783 2.95821 2.70722 0
M  V30 2743 H 254.373 3.94746 1.66954 0
M  V30 2744 H 258.557 4.81343 1.20922 0
M  V30 2745 H 253.813 6.08519 0.592891 0
M  V30 2746 H 257.987 6.96259 0.140143 0
M  V30 2747 H 255.614 7.60001 -0.173879 0
M  V30 2748 N 257.189 -0.644168 1.43834 0
M  V30 2749 C 258.437 -1.40117 1.45642 0
M  V30 2750 C 258.758 -1.94814 0.0852413 0
M  V30 2751 O 258.028 -1.74988 -0.880688 0
M  V30 2752 H 256.608 -0.52005 0.536243 0
M  V30 2753 H 259.27 -0.7591 1.7951 0
M  V30 2754 H 258.366 -2.23902 2.17427 0
M  V30 2755 N 258.668 -1.30515 -0.883378 0
M  V30 2756 C 259.578 -1.18959 -2.02203 0
M  V30 2757 C 260.594 -0.109172 -1.73657 0
M  V30 2758 O 261.77 -0.324413 -1.9877 0
M  V30 2759 C 258.835 -0.883871 -3.35244 0
M  V30 2760 C 257.896 -2.04982 -3.77201 0
M  V30 2761 C 257.129 -1.75859 -5.03894 0
M  V30 2762 O 257.352 -0.687276 -5.66244 0
M  V30 2763 O 256.286 -2.61146 -5.42297 0
M  V30 2764 H 260.112 -2.14616 -2.1488 0
M  V30 2765 H 257.697 -1.10124 -1.0096 0
M  V30 2766 H 259.579 -0.728644 -4.15053 0
M  V30 2767 H 258.254 0.0427798 -3.23672 0
M  V30 2768 H 257.161 -2.26038 -2.9809 0
M  V30 2769 H 258.494 -2.95825 -3.93381 0
M  V30 2770 N 260.146 1.09593 -1.13257 0
M  V30 2771 C 261.392 1.82003 -0.89458 0
M  V30 2772 C 261.725 1.85402 0.577906 0
M  V30 2773 O 261 1.32099 1.42759 0
M  V30 2774 C 261.283 3.28237 -1.48096 0
M  V30 2775 C 261.136 3.3312 -3.02244 0
M  V30 2776 C 262.455 4.24871 -1.14774 0
M  V30 2777 H 259.574 0.66077 -0.326424 0
M  V30 2778 H 262.216 1.28389 -1.40058 0
M  V30 2779 H 260.366 3.74024 -1.05062 0
M  V30 2780 H 262.038 2.95748 -3.54021 0
M  V30 2781 H 260.281 2.72756 -3.37323 0
M  V30 2782 H 260.952 4.3613 -3.38371 0
M  V30 2783 H 263.428 3.87361 -1.51957 0
M  V30 2784 H 262.304 5.25532 -1.58452 0
M  V30 2785 H 262.565 4.42058 -0.0611849 0
M  V30 2786 N 261.624 0.925811 1.2754 0
M  V30 2787 C 262.852 0.581509 1.9856 0
M  V30 2788 C 263.267 -0.840041 1.69082 0
M  V30 2789 O 262.624 -1.55805 0.950312 0
M  V30 2790 C 262.675 0.795589 3.52637 0
M  V30 2791 O 262.396 2.16121 3.81082 0
M  V30 2792 C 263.897 0.459744 4.4091 0
M  V30 2793 H 261.117 0.220538 0.633722 0
M  V30 2794 H 263.661 1.24232 1.6244 0
M  V30 2795 H 261.816 0.18161 3.86974 0
M  V30 2796 H 262.23 2.2098 4.75676 0
M  V30 2797 H 263.704 0.660244 5.48037 0
M  V30 2798 H 264.181 -0.604625 4.35018 0
M  V30 2799 H 264.787 1.05178 4.12089 0
M  V30 2800 N 263.102 -1.41638 0.69111 0
M  V30 2801 C 264.012 -2.34588 0.0233487 0
M  V30 2802 C 265.028 -1.55987 -0.770984 0
M  V30 2803 O 266.204 -1.88486 -0.709569 0
M  V30 2804 C 263.269 -3.34684 -0.904851 0
M  V30 2805 C 262.33 -4.29176 -0.103225 0
M  V30 2806 C 261.563 -5.2449 -0.987216 0
M  V30 2807 O 261.786 -5.2514 -2.22674 0
M  V30 2808 O 260.72 -6.00295 -0.439281 0
M  V30 2809 H 264.546 -2.93261 0.789416 0
M  V30 2810 H 262.131 -1.42417 0.45142 0
M  V30 2811 H 264.013 -3.96133 -1.43724 0
M  V30 2812 H 262.688 -2.78461 -1.65049 0
M  V30 2813 H 261.595 -3.71089 0.473655 0
M  V30 2814 H 262.928 -4.88484 0.60365 0
M  V30 2815 N 264.58 -0.43555 -1.51462 0
M  V30 2816 C 265.513 0.421989 -2.24264 0
M  V30 2817 C 266.491 1.02619 -1.26127 0
M  V30 2818 O 267.675 1.069 -1.55257 0
M  V30 2819 C 264.802 1.588 -2.99166 0
M  V30 2820 C 263.848 1.10465 -4.11946 0
M  V30 2821 S 264.681 0.048146 -5.35478 0
M  V30 2822 C 265.837 1.21887 -6.13917 0
M  V30 2823 H 266.07 -0.196102 -2.96653 0
M  V30 2824 H 263.603 -0.220054 -1.52824 0
M  V30 2825 H 265.561 2.25647 -3.42919 0
M  V30 2826 H 264.222 2.1775 -2.26371 0
M  V30 2827 H 263.415 1.97654 -4.63626 0
M  V30 2828 H 263.017 0.51445 -3.70445 0
M  V30 2829 H 265.309 2.13756 -6.42895 0
M  V30 2830 H 266.252 0.742076 -7.04201 0
M  V30 2831 H 266.66 1.45663 -5.45383 0
M  V30 2832 N 266.058 1.56714 -0.166846 0
M  V30 2833 C 267.469 1.83378 0.350646 0
M  V30 2834 C 267.82 1.08646 1.63372 0
M  V30 2835 O 266.945 0.338058 2.13743 0
M  V30 2836 C 267.54 3.32643 0.642963 0
M  V30 2837 C 266.099 3.59818 1.10491 0
M  V30 2838 C 265.246 2.76954 0.138411 0
M  V30 2839 H 268.197 1.53803 -0.391193 0
M  V30 2840 H 268.218 3.49878 1.49551 0
M  V30 2841 H 267.73 3.87007 -0.291055 0
M  V30 2842 H 265.831 3.1086 2.05418 0
M  V30 2843 H 265.944 4.68178 1.01716 0
M  V30 2844 H 264.308 2.4666 0.634911 0
M  V30 2845 H 265.091 3.34097 -0.789549 0
M  V30 2846 N 267.536 -0.106894 1.57237 0
M  V30 2847 C 268.499 -1.11466 2.0027 0
M  V30 2848 C 269.499 -1.33623 0.894519 0
M  V30 2849 O 270.689 -1.29935 1.16028 0
M  V30 2850 C 267.821 -2.46646 2.35327 0
M  V30 2851 H 269.014 -0.744516 2.90512 0
M  V30 2852 H 266.567 -0.351576 1.52295 0
M  V30 2853 H 267.302 -2.88558 1.48003 0
M  V30 2854 H 267.087 -2.31915 3.16161 0
M  V30 2855 H 268.577 -3.19151 2.69318 0
M  V30 2856 N 269.014 -1.53014 -0.377408 0
M  V30 2857 C 269.944 -1.81589 -1.46791 0
M  V30 2858 C 270.925 -0.668622 -1.56408 0
M  V30 2859 O 272.11 -0.917337 -1.71168 0
M  V30 2860 C 269.24 -1.99519 -2.8427 0
M  V30 2861 C 268.194 -3.15249 -2.89486 0
M  V30 2862 C 267.52 -3.18451 -4.29527 0
M  V30 2863 C 268.82 -4.54084 -2.58079 0
M  V30 2864 H 270.514 -2.7291 -1.23127 0
M  V30 2865 H 268.06 -1.31319 -0.590883 0
M  V30 2866 H 270.013 -2.18092 -3.60575 0
M  V30 2867 H 268.737 -1.04897 -3.09296 0
M  V30 2868 H 267.396 -2.96477 -2.15631 0
M  V30 2869 H 267.044 -2.2149 -4.5161 0
M  V30 2870 H 266.744 -3.962 -4.33934 0
M  V30 2871 H 268.268 -3.39193 -5.07721 0
M  V30 2872 H 269.682 -4.72899 -3.24098 0
M  V30 2873 H 268.079 -5.33987 -2.7382 0
M  V30 2874 H 269.149 -4.60006 -1.53372 0
M  V30 2875 N 270.492 0.636531 -1.44174 0
M  V30 2876 C 271.903 1.21806 -1.41493 0
M  V30 2877 C 272.254 1.95785 -0.1275 0
M  V30 2878 O 271.379 2.02147 0.772376 0
M  V30 2879 C 271.974 2.21551 -2.56321 0
M  V30 2880 C 270.533 2.75143 -2.56853 0
M  V30 2881 C 269.68 1.50052 -2.33195 0
M  V30 2882 H 272.631 0.427531 -1.52833 0
M  V30 2883 H 272.652 3.0405 -2.28765 0
M  V30 2884 H 272.164 1.67679 -3.50008 0
M  V30 2885 H 270.265 3.33033 -1.67093 0
M  V30 2886 H 270.378 3.2155 -3.55165 0
M  V30 2887 H 268.742 1.77993 -1.82183 0
M  V30 2888 H 269.525 0.980903 -3.28988 0
M  V30 2889 N 271.97 1.30982 0.876444 0
M  V30 2890 C 273.217 1.20296 1.62896 0
M  V30 2891 C 273.545 -0.240395 1.93009 0
M  V30 2892 O 272.8 -1.18733 1.55567 0
M  V30 2893 C 273.099 1.98572 2.9716 0
M  V30 2894 C 272.765 3.48125 2.86566 0
M  V30 2895 C 271.427 3.88905 2.83383 0
M  V30 2896 C 273.779 4.43322 2.74071 0
M  V30 2897 C 271.107 5.2316 2.65556 0
M  V30 2898 C 273.459 5.77695 2.57781 0
M  V30 2899 C 272.123 6.17704 2.52979 0
M  V30 2900 H 271.393 0.440193 0.59608 0
M  V30 2901 H 274.04 1.62177 1.01837 0
M  V30 2902 H 272.345 1.49352 3.62217 0
M  V30 2903 H 274.042 1.8769 3.54364 0
M  V30 2904 H 270.632 3.15723 2.89856 0
M  V30 2905 H 274.816 4.12752 2.75589 0
M  V30 2906 H 270.072 5.53241 2.60259 0
M  V30 2907 H 274.246 6.51091 2.47089 0
M  V30 2908 H 271.873 7.21678 2.38924 0
M  V30 2909 N 273.449 -1.08991 1.13837 0
M  V30 2910 C 274.382 -2.15049 0.763477 0
M  V30 2911 C 275.36 -1.60629 -0.252398 0
M  V30 2912 O 276.544 -1.87958 -0.142853 0
M  V30 2913 C 273.671 -3.38441 0.132545 0
M  V30 2914 C 272.717 -4.11596 1.11763 0
M  V30 2915 S 273.55 -4.6521 2.65216 0
M  V30 2916 C 274.706 -5.91896 2.03495 0
M  V30 2917 H 274.939 -2.46518 1.66182 0
M  V30 2918 H 272.472 -1.21008 0.958976 0
M  V30 2919 H 274.43 -4.09883 -0.225074 0
M  V30 2920 H 273.091 -3.05182 -0.743135 0
M  V30 2921 H 272.284 -5.00121 0.624076 0
M  V30 2922 H 271.886 -3.46038 1.41894 0
M  V30 2923 H 274.178 -6.63156 1.38675 0
M  V30 2924 H 275.121 -6.45938 2.9012 0
M  V30 2925 H 275.529 -5.44625 1.48471 0
M  V30 2926 N 274.927 -0.932562 -1.27047 0
M  V30 2927 C 275.857 -0.452902 -2.29066 0
M  V30 2928 C 276.838 0.489338 -1.62909 0
M  V30 2929 O 278.023 0.393046 -1.90181 0
M  V30 2930 C 275.153 0.290698 -3.46081 0
M  V30 2931 C 274.107 -0.564168 -4.24265 0
M  V30 2932 C 273.433 0.308886 -5.33807 0
M  V30 2933 C 274.733 -1.83112 -4.89149 0
M  V30 2934 H 276.427 -1.30552 -2.69437 0
M  V30 2935 H 273.973 -0.629201 -1.29526 0
M  V30 2936 H 275.926 0.637233 -4.16554 0
M  V30 2937 H 274.65 1.17738 -3.0464 0
M  V30 2938 H 273.309 -0.893477 -3.55545 0
M  V30 2939 H 272.957 1.19467 -4.88607 0
M  V30 2940 H 272.657 -0.259633 -5.87026 0
M  V30 2941 H 274.181 0.650884 -6.07121 0
M  V30 2942 H 275.595 -1.55236 -5.51883 0
M  V30 2943 H 273.992 -2.34353 -5.52448 0
M  V30 2944 H 275.062 -2.54772 -4.12576 0
M  V30 2945 N 276.405 1.4127 -0.698611 0
M  V30 2946 C 277.368 2.29158 -0.044132 0
M  V30 2947 C 278.368 1.44529 0.704841 0
M  V30 2948 O 279.558 1.65643 0.539276 0
M  V30 2949 C 276.69 3.27459 0.947809 0
M  V30 2950 H 277.883 2.88529 -0.817994 0
M  V30 2951 H 275.436 1.49307 -0.46228 0
M  V30 2952 H 276.171 2.73073 1.74933 0
M  V30 2953 H 275.956 3.8991 0.41385 0
M  V30 2954 H 277.446 3.93311 1.40344 0
M  V30 2955 N 277.883 0.443576 1.51229 0
M  V30 2956 C 278.793 -0.370721 2.31652 0
M  V30 2957 C 279.809 -1.02186 1.40833 0
M  V30 2958 O 280.985 -1.01586 1.73903 0
M  V30 2959 C 278.05 -1.45376 3.14749 0
M  V30 2960 C 277.111 -0.822099 4.21355 0
M  V30 2961 C 276.344 -1.85353 5.0048 0
M  V30 2962 O 276.567 -3.07656 4.80316 0
M  V30 2963 O 275.501 -1.4406 5.84406 0
M  V30 2964 H 279.327 0.286002 3.0235 0
M  V30 2965 H 276.912 0.20598 1.47973 0
M  V30 2966 H 278.794 -2.08173 3.66391 0
M  V30 2967 H 277.469 -2.09445 2.46809 0
M  V30 2968 H 276.376 -0.155909 3.73775 0
M  V30 2969 H 277.709 -0.224797 4.91686 0
M  V30 2970 N 279.361 -1.56624 0.175154 0
M  V30 2971 C 280.608 -1.96999 -0.468811 0
M  V30 2972 C 280.936 -1.06129 -1.62994 0
M  V30 2973 O 280.191 -0.0961771 -1.95464 0
M  V30 2974 C 280.49 -3.43419 -0.989864 0
M  V30 2975 C 280.156 -4.50866 0.0557687 0
M  V30 2976 C 278.818 -4.79975 0.343134 0
M  V30 2977 C 281.17 -5.15551 0.765308 0
M  V30 2978 C 278.498 -5.71066 1.34536 0
M  V30 2979 C 280.85 -6.07724 1.75654 0
M  V30 2980 C 279.514 -6.35199 2.05132 0
M  V30 2981 H 278.784 -0.720869 -0.17155 0
M  V30 2982 H 281.431 -1.89616 0.267924 0
M  V30 2983 H 279.736 -3.47772 -1.80449 0
M  V30 2984 H 281.433 -3.72002 -1.49719 0
M  V30 2985 H 278.023 -4.28229 -0.178381 0
M  V30 2986 H 282.207 -4.9317 0.556513 0
M  V30 2987 H 277.463 -5.90635 1.57988 0
M  V30 2988 H 281.637 -6.56912 2.31169 0
M  V30 2989 H 279.264 -7.05584 2.8294 0
M  V30 2990 N 280.839 0.0985539 -1.57292 0
M  V30 2991 C 282.116 0.834155 -1.76921 0
M  V30 2992 C 282.496 1.97101 -0.755928 0
M  V30 2993 O 281.844 2.27474 0.216245 0
M  V30 2994 C 282.054 1.33194 -3.22584 0
M  V30 2995 C 283.402 1.77611 -3.85668 0
M  V30 2996 O 284.426 1.42825 -3.26312 0
M  V30 2997 O 283.285 2.4192 -4.90038 0
M  V30 2998 H 280.379 0.397628 -0.725135 0
M  V30 2999 H 282.925 0.0807044 -1.69508 0
M  V30 3000 H 281.697 0.517248 -3.87866 0
M  V30 3001 H 281.32 2.1475 -3.34616 0
M  V30 3002 N 282.317 1.53212 0.369288 0
M  V30 3003 C 283.565 1.68881 1.11012 0
M  V30 3004 C 283.886 0.441285 1.89941 0
M  V30 3005 O 283.156 -0.544623 1.88177 0
M  V30 3006 H 281.736 0.622569 0.412816 0
M  V30 3007 H 284.398 1.90391 0.416802 0
M  V30 3008 H 283.494 2.54822 1.80201 0
M  V30 3009 N 283.795 -0.628877 1.44509 0
M  V30 3010 C 285.041 -1.39045 1.47629 0
M  V30 3011 C 285.374 -1.93892 0.109343 0
M  V30 3012 O 284.649 -1.7379 -0.87334 0
M  V30 3013 C 284.932 -2.55408 2.53848 0
M  V30 3014 C 284.785 -2.05896 3.99909 0
M  V30 3015 C 286.104 -3.5759 2.56549 0
M  V30 3016 H 283.223 -0.504232 0.537512 0
M  V30 3017 H 285.865 -0.710854 1.76201 0
M  V30 3018 H 284.015 -3.13384 2.29615 0
M  V30 3019 H 285.687 -1.52734 4.35282 0
M  V30 3020 H 283.93 -1.37061 4.11578 0
M  V30 3021 H 284.601 -2.89681 4.69882 0
M  V30 3022 H 287.077 -3.09419 2.78207 0
M  V30 3023 H 285.953 -4.36527 3.32769 0
M  V30 3024 H 286.214 -4.11808 1.60832 0
M  V30 3025 N 285.273 -1.31445 -0.869486 0
M  V30 3026 C 286.519 -1.21337 -1.62496 0
M  V30 3027 C 286.852 0.227872 -1.92858 0
M  V30 3028 O 286.127 1.16094 -1.56053 0
M  V30 3029 C 286.41 -2.05814 -2.95487 0
M  V30 3030 C 286.263 -3.5824 -2.72 0
M  V30 3031 C 287.582 -1.9079 -3.96594 0
M  V30 3032 H 284.701 -0.442135 -0.589649 0
M  V30 3033 H 287.343 -1.6124 -1.00507 0
M  V30 3034 H 285.493 -1.71913 -3.48394 0
M  V30 3035 H 287.165 -4.0228 -2.25762 0
M  V30 3036 H 285.408 -3.81647 -2.06224 0
M  V30 3037 H 286.079 -4.12657 -3.66631 0
M  V30 3038 H 288.555 -2.20459 -3.52898 0
M  V30 3039 H 287.431 -2.52199 -4.87531 0
M  V30 3040 H 287.692 -0.871341 -4.33428 0
M  V30 3041 N 286.751 1.08385 -1.14413 0
M  V30 3042 C 287.999 1.80419 -0.910679 0
M  V30 3043 C 288.32 1.86658 0.564243 0
M  V30 3044 O 287.59 1.35985 1.41014 0
M  V30 3045 H 286.17 0.668204 -0.333934 0
M  V30 3046 H 288.832 1.31037 -1.44275 0
M  V30 3047 H 287.928 2.83238 -1.31082 0
M  V30 3048 N 288.23 0.939286 1.26551 0
M  V30 3049 C 289.163 0.391702 2.24813 0
M  V30 3050 C 290.141 -0.518421 1.54114 0
M  V30 3051 O 291.325 -0.456299 1.82894 0
M  V30 3052 C 288.452 -0.437382 3.35864 0
M  V30 3053 C 287.498 0.410946 4.24516 0
M  V30 3054 S 288.331 1.83372 5.03125 0
M  V30 3055 C 289.487 1.01264 6.17654 0
M  V30 3056 H 289.72 1.22448 2.70913 0
M  V30 3057 H 287.253 0.742269 1.35387 0
M  V30 3058 H 289.211 -0.909837 4.0029 0
M  V30 3059 H 287.872 -1.24482 2.8838 0
M  V30 3060 H 287.065 -0.224191 5.03501 0
M  V30 3061 H 286.667 0.818014 3.64945 0
M  V30 3062 H 288.959 0.254023 6.77024 0
M  V30 3063 H 289.902 1.77589 6.85469 0
M  V30 3064 H 290.31 0.549532 5.61819 0
M  V30 3065 N 289.708 -1.40897 0.706093 0
M  V30 3066 C 290.956 -2.00657 0.241054 0
M  V30 3067 C 291.277 -1.56241 -1.16678 0
M  V30 3068 O 290.547 -0.79765 -1.78926 0
M  V30 3069 H 289.127 -0.742018 0.0861308 0
M  V30 3070 H 291.789 -1.72372 0.909604 0
M  V30 3071 H 290.885 -3.10958 0.266705 0
M  V30 3072 N 291.186 -0.45159 -1.50991 0
M  V30 3073 C 292.433 0.110074 -2.02201 0
M  V30 3074 C 292.761 1.4146 -1.33489 0
M  V30 3075 O 292.016 1.90617 -0.443125 0
M  V30 3076 C 292.315 0.361728 -3.55565 0
M  V30 3077 C 291.981 -0.858717 -4.42648 0
M  V30 3078 C 290.643 -1.19338 -4.66167 0
M  V30 3079 C 292.995 -1.67221 -4.93646 0
M  V30 3080 C 290.323 -2.34195 -5.37931 0
M  V30 3081 C 292.675 -2.8119 -5.6667 0
M  V30 3082 C 291.339 -3.15094 -5.88449 0
M  V30 3083 H 290.609 0.040279 -0.739904 0
M  V30 3084 H 293.256 -0.601696 -1.81802 0
M  V30 3085 H 291.561 1.15554 -3.74372 0
M  V30 3086 H 293.258 0.80996 -3.92735 0
M  V30 3087 H 289.848 -0.58796 -4.24548 0
M  V30 3088 H 294.032 -1.42686 -4.75347 0
M  V30 3089 H 289.288 -2.6076 -5.53005 0
M  V30 3090 H 293.462 -3.44585 -6.05173 0
M  V30 3091 H 291.089 -4.04204 -6.43835 0
M  V30 3092 N 292.664 1.56529 -0.183458 0
M  V30 3093 C 293.913 1.96419 0.458511 0
M  V30 3094 C 294.226 1.0727 1.63562 0
M  V30 3095 O 295.432 1.36893 2.34462 0
M  V30 3096 C 293.888 3.49298 0.867122 0
M  V30 3097 C 293.496 4.47092 -0.285057 0
M  V30 3098 C 295.24 3.97983 1.47683 0
M  V30 3099 C 293.147 5.91225 0.143862 0
M  V30 3100 H 292.077 0.733394 0.175071 0
M  V30 3101 H 294.728 1.81448 -0.273624 0
M  V30 3102 H 293.11 3.59731 1.65559 0
M  V30 3103 H 294.284 4.48383 -1.0625 0
M  V30 3104 H 292.599 4.08535 -0.805503 0
M  V30 3105 H 295.196 5.03134 1.80999 0
M  V30 3106 H 295.539 3.41618 2.37914 0
M  V30 3107 H 296.072 3.90617 0.752562 0
M  V30 3108 H 292.811 6.5149 -0.723974 0
M  V30 3109 H 292.331 5.93214 0.886413 0
M  V30 3110 H 294.01 6.44362 0.583628 0
M  V30 3111 N 294.142 -0.090211 1.57342 0
M  V30 3112 C 295.052 -1.12735 2.05738 0
M  V30 3113 C 296.068 -1.43557 0.983231 0
M  V30 3114 O 297.244 -1.54101 1.29672 0
M  V30 3115 C 294.309 -2.42659 2.47624 0
M  V30 3116 C 293.37 -2.18975 3.69254 0
M  V30 3117 C 292.603 -3.42704 4.09133 0
M  V30 3118 O 292.826 -4.51127 3.49057 0
M  V30 3119 O 291.76 -3.32003 5.02053 0
M  V30 3120 H 295.586 -0.746279 2.94388 0
M  V30 3121 H 293.171 -0.303064 1.46294 0
M  V30 3122 H 295.053 -3.19155 2.7517 0
M  V30 3123 H 293.728 -2.80182 1.62109 0
M  V30 3124 H 292.635 -1.40244 3.46818 0
M  V30 3125 H 293.968 -1.86342 4.55563 0
M  V30 3126 N 295.62 -1.53406 -0.361157 0
M  V30 3127 C 296.552 -1.76446 -1.46286 0
M  V30 3128 C 297.565 -0.645322 -1.49464 0
M  V30 3129 O 298.754 -0.921681 -1.52864 0
M  V30 3130 C 295.854 -1.83332 -2.85031 0
M  V30 3131 C 295.027 -3.13033 -3.05498 0
M  V30 3132 C 294.086 -3.11104 -4.24383 0
M  V30 3133 O 293.112 -3.84888 -4.19344 0
M  V30 3134 N 294.314 -2.32234 -5.32022 0
M  V30 3135 H 297.079 -2.71508 -1.26899 0
M  V30 3136 H 294.64 -1.52238 -0.550915 0
M  V30 3137 H 296.632 -1.79514 -3.62708 0
M  V30 3138 H 295.202 -0.955342 -2.97644 0
M  V30 3139 H 294.422 -3.30119 -2.15442 0
M  V30 3140 H 295.71 -3.9874 -3.16044 0
M  V30 3141 H 295.108 -1.71807 -5.38979 0
M  V30 3142 H 293.665 -2.3423 -6.08259 0
M  V30 3143 N 297.098 0.621204 -1.44841 0
M  V30 3144 C 298.061 1.71459 -1.521 0
M  V30 3145 C 299.061 1.55696 -0.401933 0
M  V30 3146 O 300.251 1.61011 -0.664925 0
M  V30 3147 C 297.383 3.10624 -1.40447 0
M  V30 3148 H 298.576 1.66394 -2.49506 0
M  V30 3149 H 296.129 0.835745 -1.3208 0
M  V30 3150 H 296.864 3.21277 -0.441737 0
M  V30 3151 H 296.649 3.23473 -2.21602 0
M  V30 3152 H 298.139 3.90293 -1.4853 0
M  V30 3153 N 298.576 1.31904 0.862503 0
M  V30 3154 C 299.825 1.21373 1.61094 0
M  V30 3155 C 300.138 -0.22504 1.94301 0
M  V30 3156 O 301.344 -0.452121 2.67709 0
M  V30 3157 C 299.8 2.12525 2.9045 0
M  V30 3158 C 299.408 3.61441 2.64697 0
M  V30 3159 C 301.152 2.10813 3.68454 0
M  V30 3160 C 299.059 4.44578 3.90006 0
M  V30 3161 H 297.989 0.450705 0.604468 0
M  V30 3162 H 300.64 1.56811 0.953027 0
M  V30 3163 H 299.022 1.69994 3.57656 0
M  V30 3164 H 300.196 4.12264 2.05851 0
M  V30 3165 H 298.511 3.65205 2.00036 0
M  V30 3166 H 301.108 2.70167 4.61426 0
M  V30 3167 H 301.451 1.09713 4.01583 0
M  V30 3168 H 301.984 2.51583 3.08141 0
M  V30 3169 H 298.723 5.46461 3.62023 0
M  V30 3170 H 298.243 3.98508 4.48276 0
M  V30 3171 H 299.922 4.57176 4.5782 0
M  V30 3172 N 300.054 -1.07777 1.14986 0
M  V30 3173 C 301.302 -1.79934 0.920235 0
M  V30 3174 C 301.623 -1.86955 -0.554336 0
M  V30 3175 O 300.893 -1.36731 -1.40291 0
M  V30 3176 H 299.473 -0.666424 0.337473 0
M  V30 3177 H 302.135 -1.3027 1.44968 0
M  V30 3178 H 301.231 -2.82539 1.32583 0
M  V30 3179 N 301.532 -0.945985 -1.26051 0
M  V30 3180 C 302.948 -0.649045 -1.45807 0
M  V30 3181 C 303.148 0.796158 -1.85104 0
M  V30 3182 O 302.204 1.57233 -1.97571 0
M  V30 3183 C 303.517 -1.61458 -2.53677 0
M  V30 3184 C 305.065 -1.62481 -2.67524 0
M  V30 3185 C 305.54 -2.57776 -3.7857 0
M  V30 3186 N 307.031 -2.5609 -3.85969 0
M  V30 3187 C 307.766 -3.26508 -4.7136 0
M  V30 3188 N 307.262 -4.0637 -5.61102 0
M  V30 3189 N 309.055 -3.15437 -4.65248 0
M  V30 3190 H 301.206 -1.88005 -0.988328 0
M  V30 3191 H 303.469 -0.808198 -0.4955 0
M  V30 3192 H 303.175 -2.64644 -2.31638 0
M  V30 3193 H 303.049 -1.37036 -3.51427 0
M  V30 3194 H 305.436 -0.600167 -2.88933 0
M  V30 3195 H 305.517 -1.90958 -1.70202 0
M  V30 3196 H 305.161 -3.60361 -3.57913 0
M  V30 3197 H 305.091 -2.26587 -4.75359 0
M  V30 3198 H 307.582 -1.98105 -3.21812 0
M  V30 3199 H 307.895 -4.57042 -6.23164 0
M  V30 3200 H 306.24 -4.10469 -5.60839 0
M  V30 3201 H 309.431 -2.52525 -3.94143 0
M  V30 3202 H 309.604 -3.70584 -5.31575 0
M  V30 3203 N 303.011 1.40521 -0.713556 0
M  V30 3204 C 304.257 2.01221 -0.252564 0
M  V30 3205 C 304.59 1.56444 1.1506 0
M  V30 3206 O 303.865 0.783597 1.78017 0
M  V30 3207 C 304.148 3.58582 -0.330332 0
M  V30 3208 C 304.001 4.13437 -1.77173 0
M  V30 3209 C 305.32 4.39079 0.299641 0
M  V30 3210 H 302.439 0.731077 -0.0932471 0
M  V30 3211 H 305.081 1.67026 -0.905673 0
M  V30 3212 H 303.231 3.87844 0.225737 0
M  V30 3213 H 304.903 3.9498 -2.38303 0
M  V30 3214 H 303.146 3.67801 -2.3001 0
M  V30 3215 H 303.817 5.22597 -1.77755 0
M  V30 3216 H 306.293 4.15735 -0.174139 0
M  V30 3217 H 305.169 5.4848 0.214771 0
M  V30 3218 H 305.43 4.19915 1.38288 0
M  V30 3219 N 304.489 0.459591 1.5075 0
M  V30 3220 C 305.717 -0.0973749 2.06671 0
M  V30 3221 C 306.132 -1.34524 1.32472 0
M  V30 3222 O 305.489 -1.7827 0.390634 0
M  V30 3223 C 305.54 -0.39714 3.59312 0
M  V30 3224 O 305.261 0.801214 4.30711 0
M  V30 3225 C 306.762 -1.00234 4.31819 0
M  V30 3226 H 303.982 0.00195854 0.670997 0
M  V30 3227 H 306.526 0.645072 1.94059 0
M  V30 3228 H 304.681 -1.08951 3.71764 0
M  V30 3229 H 305.095 0.538857 5.21725 0
M  V30 3230 H 306.569 -1.16193 5.39632 0
M  V30 3231 H 307.046 -1.98939 3.91561 0
M  V30 3232 H 307.652 -0.348699 4.23868 0
M  V30 3233 N 305.967 -1.56429 0.191757 0
M  V30 3234 C 307.378 -1.83912 -0.321428 0
M  V30 3235 C 307.729 -1.11231 -1.61623 0
M  V30 3236 O 306.854 -0.37202 -2.13178 0
M  V30 3237 C 307.449 -3.33624 -0.589961 0
M  V30 3238 C 306.008 -3.6153 -1.04753 0
M  V30 3239 C 305.155 -2.7714 -0.0943327 0
M  V30 3240 H 308.106 -1.53161 0.415612 0
M  V30 3241 H 308.127 -3.52213 -1.43966 0
M  V30 3242 H 307.639 -3.86495 0.352588 0
M  V30 3243 H 305.74 -3.14089 -2.00447 0
M  V30 3244 H 305.853 -4.69737 -0.942549 0
M  V30 3245 H 304.217 -2.47638 -0.595589 0
M  V30 3246 H 305 -3.32799 0.842601 0
M  V30 3247 N 307.445 0.0818655 -1.57387 0
M  V30 3248 C 308.694 0.781681 -1.85937 0
M  V30 3249 C 309.007 1.79246 -0.782957 0
M  V30 3250 O 310.213 2.54112 -0.955987 0
M  V30 3251 C 308.669 1.44109 -3.29789 0
M  V30 3252 C 308.277 0.469396 -4.45534 0
M  V30 3253 C 310.021 2.12386 -3.67549 0
M  V30 3254 C 307.928 1.13415 -5.80423 0
M  V30 3255 H 306.858 0.295682 -0.693605 0
M  V30 3256 H 309.509 0.0348051 -1.83467 0
M  V30 3257 H 307.891 2.23588 -3.2684 0
M  V30 3258 H 309.065 -0.294856 -4.59856 0
M  V30 3259 H 307.38 -0.108383 -4.16259 0
M  V30 3260 H 309.977 2.62878 -4.65617 0
M  V30 3261 H 310.32 2.91877 -2.96839 0
M  V30 3262 H 310.853 1.39751 -3.72444 0
M  V30 3263 H 307.592 0.379771 -6.54399 0
M  V30 3264 H 307.112 1.8695 -5.69921 0
M  V30 3265 H 308.791 1.65686 -6.25426 0
M  V30 3266 N 308.923 1.53595 0.353017 0
M  V30 3267 C 310.17 1.70385 1.09431 0
M  V30 3268 C 310.498 0.462113 1.88931 0
M  V30 3269 O 309.753 -0.556074 1.87633 0
M  V30 3270 C 310.052 2.91313 2.07054 0
M  V30 3271 C 309.718 4.27308 1.43939 0
M  V30 3272 C 308.38 4.64287 1.26454 0
M  V30 3273 C 310.732 5.11829 0.983883 0
M  V30 3274 C 308.06 5.83412 0.620226 0
M  V30 3275 C 310.412 6.31611 0.353516 0
M  V30 3276 C 309.076 6.67293 0.166272 0
M  V30 3277 H 308.346 0.623484 0.400436 0
M  V30 3278 H 310.993 1.87799 0.374655 0
M  V30 3279 H 309.298 2.68463 2.85368 0
M  V30 3280 H 310.995 3.01497 2.64387 0
M  V30 3281 H 307.585 3.98198 1.58543 0
M  V30 3282 H 311.769 4.838 1.10685 0
M  V30 3283 H 307.025 6.09639 0.463681 0
M  V30 3284 H 311.199 6.964 -0.00757555 0
M  V30 3285 H 308.826 7.59461 -0.335047 0
M  V30 3286 N 310.401 -0.613514 1.45168 0
M  V30 3287 C 311.678 -1.37263 1.39349 0
M  V30 3288 C 312.058 -2.11012 0.0610848 0
M  V30 3289 O 311.406 -2.07502 -0.956825 0
M  V30 3290 C 311.616 -2.3244 2.60332 0
M  V30 3291 C 312.964 -2.9523 3.05163 0
M  V30 3292 O 313.988 -2.42762 2.60663 0
M  V30 3293 O 312.847 -3.90454 3.82372 0
M  V30 3294 H 309.941 -0.615188 0.552696 0
M  V30 3295 H 312.487 -0.637097 1.57287 0
M  V30 3296 H 311.259 -1.77164 3.48896 0
M  V30 3297 H 310.882 -3.13383 2.44698 0
M  V30 3298 N 311.879 -1.3236 -0.855495 0
M  V30 3299 C 312.827 -1.2118 -1.9854 0
M  V30 3300 C 313.821 -0.116788 -1.68997 0
M  V30 3301 O 315.027 -0.279657 -1.77814 0
M  V30 3302 H 311.402 -0.375608 -0.651477 0
M  V30 3303 H 313.373 -2.16743 -2.05098 0
M  V30 3304 C 312.122 -0.950849 -3.34446 0
M  V30 3305 H 311.445 -1.78563 -3.57708 0
M  V30 3306 H 312.885 -0.912863 -4.14057 0
M  V30 3307 C 311.344 0.346404 -3.35114 0
M  V30 3308 O 311.874 1.35855 -3.7803 0
M  V30 3309 N 310.08 0.36808 -2.88259 0
M  V30 3310 H 309.627 -0.456102 -2.5353 0
M  V30 3311 H 309.585 1.23591 -2.89089 0
M  V30 3312 N 313.357 1.07166 -1.15556 0
M  V30 3313 C 314.606 1.79181 -0.926132 0
M  V30 3314 C 314.919 1.87768 0.547967 0
M  V30 3315 O 316.125 2.56323 0.895036 0
M  V30 3316 C 314.581 3.22 -1.60761 0
M  V30 3317 C 314.189 3.21607 -3.11886 0
M  V30 3318 C 315.933 3.9861 -1.4598 0
M  V30 3319 C 313.84 4.59092 -3.72812 0
M  V30 3320 H 312.77 0.67154 -0.342856 0
M  V30 3321 H 315.421 1.2027 -1.3859 0
M  V30 3322 H 313.803 3.81115 -1.07553 0
M  V30 3323 H 314.977 2.72127 -3.71865 0
M  V30 3324 H 313.292 2.58495 -3.2645 0
M  V30 3325 H 315.889 5.00225 -1.88888 0
M  V30 3326 H 316.232 4.143 -0.407541 0
M  V30 3327 H 316.765 3.45996 -1.96295 0
M  V30 3328 H 313.504 4.48606 -4.77946 0
M  V30 3329 H 313.024 5.08803 -3.17616 0
M  V30 3330 H 314.703 5.28059 -3.73848 0
M  V30 3331 N 314.835 0.952656 1.25548 0
M  V30 3332 C 316.084 0.602053 1.92505 0
M  V30 3333 C 316.397 -0.864663 1.75451 0
M  V30 3334 O 317.603 -1.32514 2.36965 0
M  V30 3335 C 316.059 1.02607 3.44963 0
M  V30 3336 C 315.667 2.51519 3.70732 0
M  V30 3337 C 317.411 0.747905 4.1786 0
M  V30 3338 C 315.318 2.87732 5.16686 0
M  V30 3339 H 314.248 0.22146 0.720744 0
M  V30 3340 H 316.899 1.15684 1.42441 0
M  V30 3341 H 315.281 0.399712 3.93978 0
M  V30 3342 H 316.455 3.19157 3.32378 0
M  V30 3343 H 314.77 2.76786 3.11092 0
M  V30 3344 H 317.367 0.994647 5.25367 0
M  V30 3345 H 317.71 -0.315629 4.15102 0
M  V30 3346 H 318.243 1.33452 3.74747 0
M  V30 3347 H 314.982 3.93095 5.24554 0
M  V30 3348 H 314.502 2.24765 5.56094 0
M  V30 3349 H 316.181 2.76817 5.84792 0
M  V30 3350 N 316.313 -1.40141 0.720998 0
M  V30 3351 C 317.538 -2.05618 0.271258 0
M  V30 3352 C 317.963 -1.53978 -1.08039 0
M  V30 3353 O 317.321 -0.677463 -1.68167 0
M  V30 3354 C 317.369 -3.59609 0.267197 0
M  V30 3355 O 316.473 -4.05526 -0.749814 0
M  V30 3356 H 315.814 -0.651904 0.126162 0
M  V30 3357 H 318.344 -1.79439 0.982997 0
M  V30 3358 H 318.354 -4.0786 0.106744 0
M  V30 3359 H 317.029 -3.96559 1.25354 0
M  V30 3360 H 315.606 -3.68722 -0.556644 0
M  V30 3361 N 317.792 -0.46758 -1.50504 0
M  V30 3362 C 318.724 0.364655 -2.26281 0
M  V30 3363 C 319.737 0.960151 -1.31472 0
M  V30 3364 O 320.926 0.849153 -1.57008 0
M  V30 3365 C 318.026 1.52509 -3.02645 0
M  V30 3366 C 317.199 1.04302 -4.24782 0
M  V30 3367 C 316.258 2.07709 -4.8347 0
M  V30 3368 O 315.284 1.65913 -5.44483 0
M  V30 3369 N 316.486 3.40485 -4.70159 0
M  V30 3370 H 319.251 -0.28495 -2.98342 0
M  V30 3371 H 316.812 -0.298163 -1.59131 0
M  V30 3372 H 318.804 2.21371 -3.38787 0
M  V30 3373 H 317.374 2.07945 -2.33404 0
M  V30 3374 H 316.594 0.180393 -3.93787 0
M  V30 3375 H 317.882 0.698798 -5.03978 0
M  V30 3376 H 317.28 3.77155 -4.21629 0
M  V30 3377 H 315.837 4.05156 -5.1058 0
M  V30 3378 N 319.27 1.56325 -0.20005 0
M  V30 3379 C 320.518 1.97329 0.436547 0
M  V30 3380 C 320.839 1.08826 1.61808 0
M  V30 3381 O 320.109 0.160604 1.95241 0
M  V30 3382 H 318.689 0.728714 0.164272 0
M  V30 3383 H 321.351 1.92761 -0.287937 0
M  V30 3384 H 320.447 3.02264 0.777353 0
M  V30 3385 N 320.748 -0.0735177 1.57428 0
M  V30 3386 C 321.994 -0.774145 1.87443 0
M  V30 3387 C 322.327 -1.77311 0.792103 0
M  V30 3388 O 321.602 -1.93492 -0.197793 0
M  V30 3389 C 321.885 -1.48367 3.28115 0
M  V30 3390 C 321.738 -0.501227 4.46999 0
M  V30 3391 C 323.057 -2.429 3.66998 0
M  V30 3392 H 320.176 -0.279971 0.681752 0
M  V30 3393 H 322.818 -0.0373616 1.89963 0
M  V30 3394 H 320.968 -2.11171 3.26097 0
M  V30 3395 H 322.64 0.121468 4.6114 0
M  V30 3396 H 320.883 0.183593 4.33411 0
M  V30 3397 H 321.554 -1.03526 5.42205 0
M  V30 3398 H 324.03 -1.90175 3.70098 0
M  V30 3399 H 322.906 -2.89549 4.66318 0
M  V30 3400 H 323.167 -3.27628 2.96837 0
M  V30 3401 N 322.226 -1.5378 -0.344866 0
M  V30 3402 C 323.156 -1.84662 -1.42906 0
M  V30 3403 C 324.137 -0.701648 -1.54955 0
M  V30 3404 O 325.322 -0.953438 -1.69184 0
M  V30 3405 C 322.452 -2.05503 -2.79974 0
M  V30 3406 C 321.406 -3.21318 -2.82734 0
M  V30 3407 C 320.732 -3.2749 -4.22675 0
M  V30 3408 C 322.032 -4.59456 -2.48389 0
M  V30 3409 H 323.726 -2.75461 -1.17311 0
M  V30 3410 H 321.272 -1.32542 -0.562896 0
M  V30 3411 H 323.225 -2.25691 -3.55867 0
M  V30 3412 H 321.949 -1.11434 -3.07002 0
M  V30 3413 H 320.608 -3.00984 -2.09294 0
M  V30 3414 H 320.256 -2.31019 -4.4681 0
M  V30 3415 H 319.956 -4.05316 -4.25433 0
M  V30 3416 H 321.48 -3.49887 -5.00412 0
M  V30 3417 H 322.894 -4.79667 -3.13995 0
M  V30 3418 H 321.291 -5.39675 -2.62432 0
M  V30 3419 H 322.361 -4.63155 -1.4358 0
M  V30 3420 N 323.704 0.605807 -1.45491 0
M  V30 3421 C 324.651 1.7164 -1.54299 0
M  V30 3422 C 325.621 1.61486 -0.388761 0
M  V30 3423 O 326.806 1.81039 -0.602445 0
M  V30 3424 C 323.946 3.09953 -1.51734 0
M  V30 3425 C 323.059 3.309 -2.77721 0
M  V30 3426 C 322.194 4.59329 -2.66816 0
M  V30 3427 C 321.233 4.7354 -3.87848 0
M  V30 3428 N 320.37 5.9327 -3.75467 0
M  V30 3429 H 325.21 1.63449 -2.49176 0
M  V30 3430 H 322.747 0.796957 -1.23641 0
M  V30 3431 H 324.705 3.89977 -1.48235 0
M  V30 3432 H 323.335 3.17098 -0.604068 0
M  V30 3433 H 322.387 2.44639 -2.913 0
M  V30 3434 H 323.699 3.37274 -3.67488 0
M  V30 3435 H 322.853 5.4755 -2.61292 0
M  V30 3436 H 321.592 4.55355 -1.74651 0
M  V30 3437 H 320.597 3.83741 -3.93729 0
M  V30 3438 H 321.822 4.79309 -4.81082 0
M  V30 3439 H 319.768 5.90338 -2.86072 0
M  V30 3440 H 319.685 6.00811 -4.5887 0
M  V30 3441 H 320.953 6.83984 -3.73879 0
M  V30 3442 N 325.182 1.32811 0.848464 0
M  V30 3443 C 326.092 1.24278 1.98978 0
M  V30 3444 C 327.108 0.155176 1.73307 0
M  V30 3445 O 328.284 0.376999 1.9784 0
M  V30 3446 C 325.349 0.972444 3.32783 0
M  V30 3447 C 324.41 2.14911 3.71634 0
M  V30 3448 C 323.643 1.89157 4.99054 0
M  V30 3449 O 323.866 0.837165 5.64223 0
M  V30 3450 O 322.8 2.75433 5.35183 0
M  V30 3451 H 326.626 2.20238 2.09115 0
M  V30 3452 H 324.211 1.12762 0.980052 0
M  V30 3453 H 326.093 0.838432 4.12975 0
M  V30 3454 H 324.768 0.043051 3.23671 0
M  V30 3455 H 323.675 2.33862 2.91992 0
M  V30 3456 H 325.008 3.06151 3.85399 0
M  V30 3457 N 326.66 -1.06551 1.16123 0
M  V30 3458 C 327.937 -1.76097 0.85142 0
M  V30 3459 C 328.317 -2.00802 -0.6513 0
M  V30 3460 O 327.665 -1.63302 -1.59827 0
M  V30 3461 C 327.875 -3.06384 1.67122 0
M  V30 3462 C 329.223 -3.80585 1.88255 0
M  V30 3463 O 330.247 -3.16218 1.63966 0
M  V30 3464 O 329.106 -4.96212 2.2899 0
M  V30 3465 H 326.2 -0.765102 0.313923 0
M  V30 3466 H 328.746 -1.12844 1.26745 0
M  V30 3467 H 327.518 -2.84071 2.69108 0
M  V30 3468 H 327.141 -3.77371 1.25206 0
M  V30 3469 N 328.138 -0.959301 -1.25041 0
M  V30 3470 C 329.384 -0.617525 -1.9317 0
M  V30 3471 C 329.717 0.843981 -1.74902 0
M  V30 3472 O 328.992 1.60615 -1.09696 0
M  V30 3473 C 329.275 -0.982736 -3.46431 0
M  V30 3474 C 329.128 -2.50032 -3.73904 0
M  V30 3475 C 330.447 -0.511176 -4.37121 0
M  V30 3476 H 327.566 -0.22582 -0.701552 0
M  V30 3477 H 330.208 -1.19679 -1.4757 0
M  V30 3478 H 328.358 -0.489806 -3.854 0
M  V30 3479 H 330.03 -3.06737 -3.44544 0
M  V30 3480 H 328.273 -2.93598 -3.19348 0
M  V30 3481 H 328.944 -2.70635 -4.81103 0
M  V30 3482 H 331.42 -0.934075 -4.0548 0
M  V30 3483 H 330.296 -0.795361 -5.43107 0
M  V30 3484 H 330.557 0.588834 -4.38161 0
M  V30 3485 N 329.616 1.39756 -0.72842 0
M  V30 3486 C 330.863 2.00645 -0.273487 0
M  V30 3487 C 331.191 1.57786 1.13727 0
M  V30 3488 O 330.446 0.794886 1.7883 0
M  V30 3489 C 330.745 3.56002 -0.315776 0
M  V30 3490 C 330.411 4.18489 -1.67863 0
M  V30 3491 C 329.073 4.3527 -2.05166 0
M  V30 3492 C 331.425 4.53219 -2.57375 0
M  V30 3493 C 328.753 4.84069 -3.31503 0
M  V30 3494 C 331.105 5.03423 -3.83077 0
M  V30 3495 C 329.769 5.18413 -4.20481 0
M  V30 3496 H 329.039 0.734211 -0.100076 0
M  V30 3497 H 331.686 1.6718 -0.933972 0
M  V30 3498 H 329.991 3.89452 0.428285 0
M  V30 3499 H 331.688 4.00963 0.0542575 0
M  V30 3500 H 328.278 4.05824 -1.37858 0
M  V30 3501 H 332.462 4.39878 -2.29827 0
M  V30 3502 H 327.718 4.93859 -3.60435 0
M  V30 3503 H 331.892 5.2927 -4.52599 0
M  V30 3504 H 329.519 5.55987 -5.18443 0
M  V30 3505 N 331.094 0.475555 1.50254 0
M  V30 3506 C 332.319 -0.0777042 2.07254 0
M  V30 3507 C 332.744 -1.3235 1.3366 0
M  V30 3508 O 332.102 -1.77152 0.385597 0
M  V30 3509 C 332.15 -0.340169 3.58992 0
M  V30 3510 O 331.254 -1.41982 3.87188 0
M  V30 3511 H 330.595 0.0149556 0.663832 0
M  V30 3512 H 333.125 0.667878 1.93392 0
M  V30 3513 H 333.135 -0.579332 4.03866 0
M  V30 3514 H 331.81 0.570167 4.11973 0
M  V30 3515 H 330.387 -1.16762 3.54148 0
M  V30 3516 N 332.573 -1.56217 0.208337 0
M  V30 3517 C 333.82 -1.97949 -0.42692 0
M  V30 3518 C 334.148 -1.09562 -1.60706 0
M  V30 3519 O 333.403 -0.137616 -1.95216 0
M  V30 3520 C 333.702 -3.45441 -0.916797 0
M  V30 3521 C 333.368 -4.50646 0.151391 0
M  V30 3522 C 332.03 -4.79139 0.444867 0
M  V30 3523 C 334.382 -5.13811 0.874492 0
M  V30 3524 C 331.71 -5.68084 1.46619 0
M  V30 3525 C 334.062 -6.03861 1.88506 0
M  V30 3526 C 332.726 -6.30704 2.18559 0
M  V30 3527 H 331.996 -0.724345 -0.156221 0
M  V30 3528 H 334.643 -1.89006 0.308084 0
M  V30 3529 H 332.948 -3.51521 -1.73032 0
M  V30 3530 H 334.645 -3.75094 -1.41794 0
M  V30 3531 H 331.235 -4.28511 -0.0875068 0
M  V30 3532 H 335.419 -4.91879 0.660996 0
M  V30 3533 H 330.675 -5.87151 1.7048 0
M  V30 3534 H 334.849 -6.51861 2.45051 0
M  V30 3535 H 332.476 -6.99424 2.97843 0
M  V30 3536 N 334.051 0.0651679 -1.57465 0
M  V30 3537 C 335.281 0.774683 -1.91526 0
M  V30 3538 C 335.689 1.71305 -0.803196 0
M  V30 3539 O 335.032 1.82231 0.231881 0
M  V30 3540 C 335.094 1.61645 -3.21109 0
M  V30 3541 C 334.758 0.846753 -4.49087 0
M  V30 3542 C 335.755 0.163024 -5.19644 0
M  V30 3543 C 333.44 0.811966 -4.95694 0
M  V30 3544 C 335.434 -0.54519 -6.35064 0
M  V30 3545 C 333.121 0.0999836 -6.11018 0
M  V30 3546 C 334.119 -0.577388 -6.80555 0
M  V30 3547 O 333.807 -1.27789 -7.93678 0
M  V30 3548 H 333.539 0.225031 -0.637446 0
M  V30 3549 H 336.093 0.0377134 -2.05365 0
M  V30 3550 H 334.323 2.39638 -3.03497 0
M  V30 3551 H 336.012 2.20525 -3.40769 0
M  V30 3552 H 336.778 0.181163 -4.84662 0
M  V30 3553 H 332.657 1.32867 -4.41438 0
M  V30 3554 H 336.201 -1.07446 -6.89276 0
M  V30 3555 H 332.098 0.0797945 -6.45451 0
M  V30 3556 H 332.866 -1.18784 -8.09835 0
M  V30 3557 N 335.529 1.53961 0.336706 0
M  V30 3558 C 336.759 1.75229 1.09446 0
M  V30 3559 C 337.167 0.494602 1.82621 0
M  V30 3560 O 336.51 -0.543764 1.75468 0
M  V30 3561 C 336.572 2.88288 2.1478 0
M  V30 3562 C 336.236 4.27656 1.6112 0
M  V30 3563 C 337.233 5.08981 1.0599 0
M  V30 3564 C 334.918 4.74161 1.6576 0
M  V30 3565 C 336.912 6.34916 0.562129 0
M  V30 3566 C 334.599 6.00067 1.15595 0
M  V30 3567 C 335.597 6.80278 0.609147 0
M  V30 3568 O 335.285 8.03818 0.114999 0
M  V30 3569 H 335.017 0.588881 0.331956 0
M  V30 3570 H 337.571 2.01614 0.392566 0
M  V30 3571 H 335.801 2.57443 2.88548 0
M  V30 3572 H 337.49 2.97461 2.76174 0
M  V30 3573 H 338.256 4.74213 1.01722 0
M  V30 3574 H 334.135 4.11781 2.07261 0
M  V30 3575 H 337.679 6.9747 0.134668 0
M  V30 3576 H 333.576 6.3433 1.19566 0
M  V30 3577 H 334.344 8.18172 0.231651 0
M  V30 3578 N 337.007 -0.598083 1.45811 0
M  V30 3579 C 337.955 -1.72932 1.55555 0
M  V30 3580 C 338.949 -1.63984 0.424921 0
M  V30 3581 O 340.155 -1.69663 0.601205 0
M  V30 3582 H 336.53 -0.571489 0.488779 0
M  V30 3583 H 338.501 -1.61842 2.50699 0
M  V30 3584 C 337.25 -3.11318 1.54843 0
M  V30 3585 H 336.573 -3.18867 2.41172 0
M  V30 3586 H 338.013 -3.90274 1.65717 0
M  V30 3587 C 336.472 -3.3578 0.274427 0
M  V30 3588 O 337.002 -3.9654 -0.641778 0
M  V30 3589 N 335.208 -2.90119 0.167139 0
M  V30 3590 H 334.755 -2.40855 0.913596 0
M  V30 3591 H 334.713 -3.0686 -0.684435 0
M  V30 3592 N 338.485 -1.33259 -0.841409 0
M  V30 3593 C 339.901 -1.12538 -1.13169 0
M  V30 3594 C 340.101 0.0854037 -2.01319 0
M  V30 3595 O 339.157 0.766417 -2.40587 0
M  V30 3596 C 340.47 -2.41156 -1.79623 0
M  V30 3597 C 342.018 -2.47038 -1.922 0
M  V30 3598 C 342.493 -3.7561 -2.6207 0
M  V30 3599 N 343.984 -3.76667 -2.69585 0
M  V30 3600 C 344.719 -4.72861 -3.2433 0
M  V30 3601 N 344.215 -5.79428 -3.79783 0
M  V30 3602 N 346.008 -4.6034 -3.22558 0
M  V30 3603 H 338.159 -2.10868 -0.254676 0
M  V30 3604 H 340.422 -0.931615 -0.175493 0
M  V30 3605 H 340.128 -3.29747 -1.22311 0
M  V30 3606 H 340.002 -2.53114 -2.79666 0
M  V30 3607 H 342.389 -1.58898 -2.48667 0
M  V30 3608 H 342.47 -2.39022 -0.911148 0
M  V30 3609 H 342.114 -4.64131 -2.06263 0
M  V30 3610 H 342.044 -3.80902 -3.63622 0
M  V30 3611 H 344.535 -2.99648 -2.30259 0
M  V30 3612 H 344.848 -6.48867 -4.19752 0
M  V30 3613 H 343.193 -5.83166 -3.78078 0
M  V30 3614 H 346.384 -3.76244 -2.78492 0
M  V30 3615 H 346.557 -5.35478 -3.64921 0
M  V30 3616 N 339.963 1.05934 -1.16686 0
M  V30 3617 C 341.24 1.75643 -0.860747 0
M  V30 3618 C 341.62 2.01144 0.640641 0
M  V30 3619 O 340.968 1.64147 1.58959 0
M  V30 3620 C 341.178 3.05493 -1.68745 0
M  V30 3621 C 342.526 3.79581 -1.90271 0
M  V30 3622 O 343.55 3.15344 -1.65641 0
M  V30 3623 O 342.409 4.9499 -2.31618 0
M  V30 3624 H 339.503 0.763426 -0.317977 0
M  V30 3625 H 342.049 1.1217 -1.27342 0
M  V30 3626 H 340.821 2.8264 -2.70611 0
M  V30 3627 H 340.444 3.76702 -1.27206 0
M  V30 3628 N 341.441 0.965919 1.2453 0
M  V30 3629 C 342.666 0.643971 1.97149 0
M  V30 3630 C 343.091 -0.779487 1.71189 0
M  V30 3631 O 342.449 -1.5288 0.974553 0
M  V30 3632 C 342.497 0.922557 3.48599 0
M  V30 3633 O 341.601 0.00707672 4.12399 0
M  V30 3634 H 340.942 0.243647 0.617683 0
M  V30 3635 H 343.472 1.29558 1.58353 0
M  V30 3636 H 343.482 0.853373 3.98976 0
M  V30 3637 H 342.157 1.95996 3.66822 0
M  V30 3638 H 340.734 0.12943 3.72675 0
M  V30 3639 N 342.919 -1.39368 0.735821 0
M  V30 3640 C 343.829 -2.34395 0.0979693 0
M  V30 3641 C 344.845 -1.58361 -0.720968 0
M  V30 3642 O 346.021 -1.90648 -0.649245 0
M  V30 3643 C 343.086 -3.37393 -0.797916 0
M  V30 3644 C 342.147 -4.29287 0.0333662 0
M  V30 3645 C 341.38 -5.27365 -0.819854 0
M  V30 3646 O 341.603 -5.31959 -2.05855 0
M  V30 3647 O 340.537 -6.01389 -0.248079 0
M  V30 3648 H 344.363 -2.90601 0.882315 0
M  V30 3649 H 341.948 -1.40909 0.4965 0
M  V30 3650 H 343.83 -4.00505 -1.31048 0
M  V30 3651 H 342.505 -2.83571 -1.56106 0
M  V30 3652 H 341.412 -3.69395 0.591475 0
M  V30 3653 H 342.745 -4.86317 0.758752 0
M  V30 3654 N 344.397 -0.483516 -1.5 0
M  V30 3655 C 345.345 0.318061 -2.30415 0
M  V30 3656 C 346.339 0.978988 -1.38247 0
M  V30 3657 O 347.545 0.908673 -1.55381 0
M  V30 3658 H 343.92 0.121419 -0.742133 0
M  V30 3659 H 345.891 -0.380403 -2.95965 0
M  V30 3660 C 344.64 1.38013 -3.19136 0
M  V30 3661 H 343.963 0.880952 -3.89973 0
M  V30 3662 H 345.403 1.91332 -3.78375 0
M  V30 3663 C 343.862 2.38884 -2.37563 0
M  V30 3664 O 344.392 3.44412 -2.06744 0
M  V30 3665 N 342.598 2.10912 -1.99911 0
M  V30 3666 H 342.145 1.25118 -2.25174 0
M  V30 3667 H 342.103 2.78635 -1.45636 0
M  V30 3668 N 345.875 1.56104 -0.216619 0
M  V30 3669 C 347.1 2.0301 0.424462 0
M  V30 3670 C 347.525 1.0955 1.52907 0
M  V30 3671 O 346.883 0.0827914 1.81111 0
M  V30 3672 C 346.931 3.4819 0.937883 0
M  V30 3673 O 346.035 3.57865 2.04955 0
M  V30 3674 H 345.376 0.656925 0.0966755 0
M  V30 3675 H 347.906 2.01859 -0.33381 0
M  V30 3676 H 347.916 3.88413 1.24897 0
M  V30 3677 H 346.591 4.15699 0.129387 0
M  V30 3678 H 345.168 3.29527 1.74546 0
M  V30 3679 N 347.353 -0.0568162 1.57498 0
M  V30 3680 C 348.285 -1.09292 2.01464 0
M  V30 3681 C 349.298 -1.34112 0.922913 0
M  V30 3682 O 350.487 -1.32089 1.20062 0
M  V30 3683 C 347.587 -2.44068 2.35125 0
M  V30 3684 C 346.76 -2.38995 3.66333 0
M  V30 3685 C 345.819 -3.55997 3.87495 0
M  V30 3686 O 344.845 -3.36746 4.58901 0
M  V30 3687 N 346.047 -4.76888 3.30996 0
M  V30 3688 H 348.812 -0.718386 2.90963 0
M  V30 3689 H 346.373 -0.245235 1.60032 0
M  V30 3690 H 348.365 -3.21011 2.46443 0
M  V30 3691 H 346.935 -2.73468 1.5144 0
M  V30 3692 H 346.155 -1.47336 3.65631 0
M  V30 3693 H 347.443 -2.3272 4.52458 0
M  V30 3694 H 346.841 -4.95431 2.73065 0
M  V30 3695 H 345.398 -5.51291 3.47738 0
M  V30 3696 N 348.832 -1.54138 -0.328536 0
M  V30 3697 C 350.057 -1.76378 -1.09112 0
M  V30 3698 C 350.482 -0.508596 -1.81094 0
M  V30 3699 O 349.84 0.539598 -1.73084 0
M  V30 3700 C 349.888 -2.95358 -2.06872 0
M  V30 3701 O 348.992 -2.66556 -3.14677 0
M  V30 3702 H 348.333 -0.584614 -0.314838 0
M  V30 3703 H 350.863 -2.01146 -0.374348 0
M  V30 3704 H 350.873 -3.22566 -2.4983 0
M  V30 3705 H 349.548 -3.86385 -1.5388 0
M  V30 3706 H 348.125 -2.50282 -2.7643 0
M  V30 3707 N 350.31 0.590341 -1.46126 0
M  V30 3708 C 351.24 1.71032 -1.58966 0
M  V30 3709 C 352.221 1.64302 -0.440335 0
M  V30 3710 O 353.406 1.82436 -0.665634 0
M  V30 3711 C 350.536 3.09665 -1.57241 0
M  V30 3712 C 349.49 3.31221 -2.71066 0
M  V30 3713 C 348.816 4.70303 -2.54399 0
M  V30 3714 C 350.116 3.19796 -4.1295 0
M  V30 3715 H 351.81 1.60543 -2.52718 0
M  V30 3716 H 349.356 0.770933 -1.21625 0
M  V30 3717 H 351.309 3.87831 -1.64819 0
M  V30 3718 H 350.033 3.21036 -0.600289 0
M  V30 3719 H 348.692 2.55452 -2.62944 0
M  V30 3720 H 348.34 4.78429 -1.55288 0
M  V30 3721 H 348.04 4.85679 -3.30741 0
M  V30 3722 H 349.564 5.50647 -2.63857 0
M  V30 3723 H 350.978 3.87815 -4.22223 0
M  V30 3724 H 349.375 3.46696 -4.89818 0
M  V30 3725 H 350.445 2.16983 -4.33643 0
M  V30 3726 N 351.788 1.33704 0.83433 0
M  V30 3727 C 353.036 1.25169 1.58673 0
M  V30 3728 C 353.357 -0.18127 1.94156 0
M  V30 3729 O 352.627 -1.11113 1.6134 0
M  V30 3730 H 351.207 0.4603 0.58833 0
M  V30 3731 H 353.869 1.67478 0.996847 0
M  V30 3732 H 352.965 1.84856 2.51465 0
M  V30 3733 N 353.266 -1.05314 1.17247 0
M  V30 3734 C 354.514 -1.77941 0.958194 0
M  V30 3735 C 354.835 -1.88089 -0.514556 0
M  V30 3736 O 354.105 -1.39676 -1.37359 0
M  V30 3737 H 352.685 -0.659116 0.351533 0
M  V30 3738 H 355.347 -1.27166 1.47699 0
M  V30 3739 H 354.443 -2.79663 1.38546 0
M  V30 3740 N 354.744 -0.972509 -1.24016 0
M  V30 3741 C 355.676 -0.464375 -2.24446 0
M  V30 3742 C 356.689 0.4295 -1.57032 0
M  V30 3743 O 357.878 0.234902 -1.76948 0
M  V30 3744 C 354.978 0.348385 -3.37105 0
M  V30 3745 C 354.151 -0.53673 -4.34094 0
M  V30 3746 C 353.21 0.220838 -5.25736 0
M  V30 3747 O 352.236 -0.386867 -5.67884 0
M  V30 3748 N 353.438 1.50907 -5.60542 0
M  V30 3749 H 356.203 -1.32788 -2.68677 0
M  V30 3750 H 353.764 -0.844877 -1.38107 0
M  V30 3751 H 355.756 0.863341 -3.95384 0
M  V30 3752 H 354.326 1.11285 -2.92121 0
M  V30 3753 H 353.546 -1.23261 -3.74433 0
M  V30 3754 H 354.834 -1.14022 -4.95859 0
M  V30 3755 H 354.232 2.02444 -5.28236 0
M  V30 3756 H 352.789 1.96962 -6.21329 0
M  V30 3757 N 356.222 1.38976 -0.743202 0
M  V30 3758 C 357.471 1.99581 -0.291592 0
M  V30 3759 C 357.784 1.59656 1.13001 0
M  V30 3760 O 358.99 2.13157 1.68156 0
M  V30 3761 C 357.446 3.56813 -0.470391 0
M  V30 3762 C 357.054 4.05695 -1.90041 0
M  V30 3763 C 358.798 4.24423 -0.0809709 0
M  V30 3764 C 356.705 5.5553 -2.02832 0
M  V30 3765 H 355.635 0.746615 -0.105272 0
M  V30 3766 H 358.286 1.58872 -0.918258 0
M  V30 3767 H 356.668 3.95359 0.225299 0
M  V30 3768 H 357.842 3.78464 -2.62872 0
M  V30 3769 H 356.157 3.50775 -2.24379 0
M  V30 3770 H 358.754 5.34474 -0.155445 0
M  V30 3771 H 359.097 4.04962 0.96497 0
M  V30 3772 H 359.63 3.9108 -0.728124 0
M  V30 3773 H 356.369 5.79881 -3.05643 0
M  V30 3774 H 355.889 5.84537 -1.34448 0
M  V30 3775 H 357.568 6.21069 -1.81335 0
M  V30 3776 N 357.7 0.491464 1.49741 0
M  V30 3777 C 358.946 -0.0565092 2.02721 0
M  V30 3778 C 359.279 -1.37522 1.37118 0
M  V30 3779 O 358.554 -1.87866 0.503645 0
M  V30 3780 C 358.837 -0.219051 3.59433 0
M  V30 3781 C 358.69 1.12211 4.35579 0
M  V30 3782 C 360.009 -0.964157 4.29409 0
M  V30 3783 H 357.128 -0.0190627 0.736753 0
M  V30 3784 H 359.77 0.641021 1.7886 0
M  V30 3785 H 357.92 -0.813165 3.79895 0
M  V30 3786 H 359.592 1.75437 4.26637 0
M  V30 3787 H 357.835 1.71377 3.98513 0
M  V30 3788 H 358.506 0.961794 5.43556 0
M  V30 3789 H 360.982 -0.460378 4.13545 0
M  V30 3790 H 359.858 -1.04671 5.38828 0
M  V30 3791 H 360.119 -2.00563 3.93988 0
M  V30 3792 N 359.178 -1.55987 0.224894 0
M  V30 3793 C 360.108 -2.23426 -0.678457 0
M  V30 3794 C 361.089 -1.20709 -1.19847 0
M  V30 3795 O 362.274 -1.49304 -1.24186 0
M  V30 3796 C 359.404 -2.91676 -1.88527 0
M  V30 3797 C 358.358 -4.00893 -1.49896 0
M  V30 3798 C 357.684 -4.56455 -2.78483 0
M  V30 3799 C 358.984 -5.17769 -0.686461 0
M  V30 3800 H 360.678 -2.99175 -0.116173 0
M  V30 3801 H 358.224 -1.43897 -0.054436 0
M  V30 3802 H 360.177 -3.37547 -2.5227 0
M  V30 3803 H 358.901 -2.1338 -2.47258 0
M  V30 3804 H 357.56 -3.55758 -0.884985 0
M  V30 3805 H 357.208 -3.74886 -3.35365 0
M  V30 3806 H 356.908 -5.30169 -2.53368 0
M  V30 3807 H 358.432 -5.05047 -3.43162 0
M  V30 3808 H 359.846 -5.60001 -1.22767 0
M  V30 3809 H 358.243 -5.97735 -0.532259 0
M  V30 3810 H 359.313 -4.83932 0.306196 0
M  V30 3811 N 360.656 0.0484629 -1.57525 0
M  V30 3812 C 361.904 0.741657 -1.88 0
M  V30 3813 C 362.225 1.76918 -0.820054 0
M  V30 3814 O 361.495 1.95335 0.148661 0
M  V30 3815 H 360.075 0.276908 -0.69378 0
M  V30 3816 H 362.737 0.019013 -1.94891 0
M  V30 3817 H 361.833 1.24336 -2.86264 0
M  V30 3818 N 362.134 1.5431 0.320358 0
M  V30 3819 C 363.382 1.72327 1.05583 0
M  V30 3820 C 363.703 0.50149 1.88441 0
M  V30 3821 O 362.973 -0.48448 1.89815 0
M  V30 3822 H 361.553 0.635387 0.3928 0
M  V30 3823 H 364.215 1.91621 0.356019 0
M  V30 3824 H 363.311 2.60426 1.72003 0
M  V30 3825 N 363.613 -0.582584 1.46437 0
M  V30 3826 C 364.838 -1.37168 1.55563 0
M  V30 3827 C 365.263 -1.87061 0.19743 0
M  V30 3828 O 364.621 -1.61572 -0.822451 0
M  V30 3829 C 364.669 -2.53511 2.56446 0
M  V30 3830 O 363.773 -3.54953 2.09958 0
M  V30 3831 H 363.114 -0.408494 0.523477 0
M  V30 3832 H 365.644 -0.706646 1.9201 0
M  V30 3833 H 365.654 -3.00426 2.76058 0
M  V30 3834 H 364.329 -2.16549 3.55076 0
M  V30 3835 H 362.906 -3.14516 2.00334 0
M  V30 3836 N 365.091 -1.34144 -0.827227 0
M  V30 3837 C 366.368 -1.16844 -1.56865 0
M  V30 3838 C 366.748 0.260654 -2.09485 0
M  V30 3839 O 366.096 1.26138 -1.9053 0
M  V30 3840 C 366.306 -2.21939 -2.6934 0
M  V30 3841 C 367.654 -2.56695 -3.3822 0
M  V30 3842 O 368.678 -2.20695 -2.79593 0
M  V30 3843 O 367.537 -3.18518 -4.44082 0
M  V30 3844 H 364.631 -0.452669 -0.692112 0
M  V30 3845 H 367.177 -1.45763 -0.868973 0
M  V30 3846 H 365.949 -3.17882 -2.28182 0
M  V30 3847 H 365.572 -1.94172 -3.46962 0
M  V30 3848 N 366.569 1.04691 -1.17803 0
M  V30 3849 C 367.98 1.59238 -0.974689 0
M  V30 3850 C 368.331 1.90306 0.477292 0
M  V30 3851 O 367.456 1.68846 1.35352 0
M  V30 3852 C 368.051 2.89318 -1.76296 0
M  V30 3853 C 366.61 3.40506 -1.60414 0
M  V30 3854 C 365.757 2.14172 -1.76141 0
M  V30 3855 H 368.708 0.874395 -1.32439 0
M  V30 3856 H 368.729 3.5944 -1.24833 0
M  V30 3857 H 368.241 2.66675 -2.81968 0
M  V30 3858 H 366.342 3.68175 -0.572519 0
M  V30 3859 H 366.455 4.14753 -2.39827 0
M  V30 3860 H 364.819 2.25176 -1.19028 0
M  V30 3861 H 365.602 1.93992 -2.83235 0
M  V30 3862 N 368.047 0.979072 1.23499 0
M  V30 3863 C 368.979 0.476271 2.24197 0
M  V30 3864 C 369.992 -0.421166 1.57258 0
M  V30 3865 O 371.181 -0.225515 1.7707 0
M  V30 3866 C 368.281 -0.330503 3.37285 0
M  V30 3867 C 367.454 0.559744 4.33804 0
M  V30 3868 C 366.513 -0.192954 5.25846 0
M  V30 3869 O 365.539 0.416978 5.67671 0
M  V30 3870 N 366.741 -1.47932 5.61334 0
M  V30 3871 H 369.506 1.34211 2.67969 0
M  V30 3872 H 367.067 0.852189 1.37657 0
M  V30 3873 H 369.059 -0.842361 3.95836 0
M  V30 3874 H 367.629 -1.09734 2.92707 0
M  V30 3875 H 366.849 1.25245 3.73775 0
M  V30 3876 H 368.137 1.1665 4.95248 0
M  V30 3877 H 367.535 -1.9964 5.29302 0
M  V30 3878 H 366.092 -1.93664 6.22364 0
M  V30 3879 N 369.525 -1.3858 0.750561 0
M  V30 3880 C 370.475 -2.27795 0.0965949 0
M  V30 3881 C 371.459 -1.45048 -0.696411 0
M  V30 3882 O 372.651 -1.67812 -0.562863 0
M  V30 3883 C 369.78 -3.33894 -0.798085 0
M  V30 3884 C 368.866 -4.241 0.0016067 0
M  V30 3885 N 369.257 -4.95067 1.03647 0
M  V30 3886 C 367.555 -4.45429 -0.225674 0
M  V30 3887 C 368.256 -5.61489 1.52004 0
M  V30 3888 N 367.232 -5.37135 0.835874 0
M  V30 3889 H 371.034 -2.80125 0.889228 0
M  V30 3890 H 368.548 -1.51446 0.586323 0
M  V30 3891 H 370.545 -3.96693 -1.28219 0
M  V30 3892 H 369.205 -2.83123 -1.5897 0
M  V30 3893 H 370.216 -4.98104 1.41819 0
M  V30 3894 H 366.893 -4.05571 -0.990872 0
M  V30 3895 H 368.283 -6.28264 2.38188 0
M  V30 3896 N 371.003 -0.499398 -1.49478 0
M  V30 3897 C 372.233 0.0424839 -2.06556 0
M  V30 3898 C 372.641 1.31514 -1.36018 0
M  V30 3899 O 371.984 1.78555 -0.431718 0
M  V30 3900 C 372.046 0.368074 -3.57611 0
M  V30 3901 C 371.71 -0.806631 -4.49825 0
M  V30 3902 C 372.707 -1.69667 -4.91436 0
M  V30 3903 C 370.392 -1.00498 -4.92144 0
M  V30 3904 C 372.386 -2.76923 -5.74101 0
M  V30 3905 C 370.073 -2.08072 -5.74586 0
M  V30 3906 C 371.071 -2.96119 -6.15469 0
M  V30 3907 O 370.759 -4.01836 -6.96264 0
M  V30 3908 H 370.491 -0.0165165 -0.675798 0
M  V30 3909 H 373.045 -0.695497 -1.93267 0
M  V30 3910 H 371.275 1.15963 -3.68903 0
M  V30 3911 H 372.964 0.848381 -3.96935 0
M  V30 3912 H 373.73 -1.55524 -4.59388 0
M  V30 3913 H 369.609 -0.329036 -4.59824 0
M  V30 3914 H 373.153 -3.45676 -6.05932 0
M  V30 3915 H 369.05 -2.22211 -6.06047 0
M  V30 3916 H 369.818 -3.9917 -7.14567 0
M  V30 3917 N 372.481 1.55866 -0.233164 0
M  V30 3918 C 373.391 2.24431 0.683217 0
M  V30 3919 C 374.407 1.2558 1.2044 0
M  V30 3920 O 375.583 1.58422 1.24356 0
M  V30 3921 C 372.648 2.91979 1.86947 0
M  V30 3922 C 371.709 4.06204 1.38912 0
M  V30 3923 C 370.942 4.70522 2.51883 0
M  V30 3924 O 371.165 4.33865 3.70293 0
M  V30 3925 O 370.099 5.59296 2.22423 0
M  V30 3926 H 373.925 3.03426 0.129059 0
M  V30 3927 H 371.51 1.494 -0.0022283 0
M  V30 3928 H 373.392 3.34573 2.56201 0
M  V30 3929 H 372.067 2.15935 2.41151 0
M  V30 3930 H 370.974 3.68155 0.664259 0
M  V30 3931 H 372.307 4.84025 0.893328 0
M  V30 3932 N 373.959 -0.0401083 1.57549 0
M  V30 3933 C 375.207 -0.731677 1.8839 0
M  V30 3934 C 375.528 -1.76481 0.829425 0
M  V30 3935 O 374.798 -1.95411 -0.1383 0
M  V30 3936 H 373.378 -0.273225 0.695239 0
M  V30 3937 H 376.04 -0.00867725 1.94898 0
M  V30 3938 H 375.136 -1.22816 2.86919 0
M  V30 3939 N 375.437 -1.54477 -0.31217 0
M  V30 3940 C 376.385 -1.85395 -1.40469 0
M  V30 3941 C 377.379 -0.726749 -1.53019 0
M  V30 3942 O 378.585 -0.910582 -1.55269 0
M  V30 3943 H 374.96 -0.587845 -0.46898 0
M  V30 3944 H 376.931 -2.76736 -1.11623 0
M  V30 3945 C 375.68 -2.10811 -2.76503 0
M  V30 3946 H 375.003 -2.97014 -2.67625 0
M  V30 3947 H 376.443 -2.3639 -3.51988 0
M  V30 3948 C 374.902 -0.903165 -3.24568 0
M  V30 3949 O 375.432 -0.118085 -4.01526 0
M  V30 3950 N 373.638 -0.711634 -2.81752 0
M  V30 3951 H 373.185 -1.35171 -2.19286 0
M  V30 3952 H 373.143 0.0930473 -3.14262 0
M  V30 3953 N 376.915 0.57481 -1.46744 0
M  V30 3954 C 378.162 1.33272 -1.52462 0
M  V30 3955 C 378.49 1.93669 -0.179572 0
M  V30 3956 O 377.745 1.7743 0.825664 0
M  V30 3957 C 378.044 2.476 -2.57738 0
M  V30 3958 C 377.71 2.05146 -4.01529 0
M  V30 3959 C 376.372 1.93284 -4.40676 0
M  V30 3960 C 378.724 1.72506 -4.91824 0
M  V30 3961 C 376.052 1.47049 -5.67973 0
M  V30 3962 C 378.404 1.27748 -6.19567 0
M  V30 3963 C 377.068 1.14468 -6.57612 0
M  V30 3964 H 376.338 0.487678 -0.557899 0
M  V30 3965 H 378.985 0.646456 -1.80259 0
M  V30 3966 H 377.29 3.21708 -2.23632 0
M  V30 3967 H 378.987 3.05807 -2.5939 0
M  V30 3968 H 375.577 2.15316 -3.7059 0
M  V30 3969 H 379.761 1.80552 -4.62293 0
M  V30 3970 H 375.017 1.35417 -5.96215 0
M  V30 3971 H 379.191 1.01547 -6.88957 0
M  V30 3972 H 376.818 0.78419 -7.56145 0
M  V30 3973 N 378.394 1.34581 0.820102 0
M  V30 3974 C 379.344 1.22943 1.92013 0
M  V30 3975 C 380.328 0.127802 1.60392 0
M  V30 3976 O 381.52 0.357737 1.73347 0
M  V30 3977 C 378.649 0.989938 3.28717 0
M  V30 3978 C 377.735 2.13486 3.66449 0
M  V30 3979 N 378.126 3.38625 3.75722 0
M  V30 3980 C 376.424 2.04573 3.96315 0
M  V30 3981 C 377.125 4.13832 4.08801 0
M  V30 3982 N 376.101 3.42451 4.22171 0
M  V30 3983 H 379.903 2.17771 1.97365 0
M  V30 3984 H 377.417 1.2686 1.01392 0
M  V30 3985 H 379.414 0.887462 4.07345 0
M  V30 3986 H 378.074 0.0503691 3.24661 0
M  V30 3987 H 379.085 3.73143 3.59144 0
M  V30 3988 H 375.762 1.1839 4.00362 0
M  V30 3989 H 377.152 5.21909 4.23156 0
M  V30 3990 N 379.872 -1.04064 1.18357 0
M  V30 3991 C 381.102 -1.80654 1.00238 0
M  V30 3992 C 381.51 -1.83713 -0.452362 0
M  V30 3993 O 380.853 -1.27135 -1.32599 0
M  V30 3994 C 380.915 -3.27582 1.48088 0
M  V30 3995 C 380.579 -3.48184 2.96002 0
M  V30 3996 C 381.576 -3.39372 3.93856 0
M  V30 3997 C 379.261 -3.7478 3.34433 0
M  V30 3998 C 381.255 -3.5686 5.28138 0
M  V30 3999 C 378.942 -3.91915 4.68877 0
M  V30 4000 C 379.94 -3.82956 5.65539 0
M  V30 4001 O 379.628 -3.996 6.97549 0
M  V30 4002 H 379.36 -0.575751 0.354241 0
M  V30 4003 H 381.914 -1.32044 1.57333 0
M  V30 4004 H 380.144 -3.77161 0.853588 0
M  V30 4005 H 381.833 -3.8573 1.2636 0
M  V30 4006 H 382.599 -3.18789 3.65511 0
M  V30 4007 H 378.478 -3.80852 2.59756 0
M  V30 4008 H 382.022 -3.49783 6.03571 0
M  V30 4009 H 377.919 -4.11992 4.96923 0
M  V30 4010 H 378.687 -4.1676 7.04452 0
M  V30 4011 N 381.35 -0.985608 -1.22978 0
M  V30 4012 C 382.599 -0.652881 -1.90841 0
M  V30 4013 C 382.912 0.817842 -1.77681 0
M  V30 4014 O 384.118 1.26185 -2.40395 0
M  V30 4015 C 382.574 -1.11717 -3.42122 0
M  V30 4016 C 382.182 -2.6126 -3.63933 0
M  V30 4017 C 383.926 -0.85843 -4.1573 0
M  V30 4018 C 381.833 -3.0133 -5.08876 0
M  V30 4019 H 380.763 -0.240491 -0.714619 0
M  V30 4020 H 383.414 -1.1942 -1.39324 0
M  V30 4021 H 381.796 -0.504027 -3.92779 0
M  V30 4022 H 382.97 -3.27858 -3.23799 0
M  V30 4023 H 381.285 -2.84937 -3.03644 0
M  V30 4024 H 383.882 -1.13359 -5.22546 0
M  V30 4025 H 384.225 0.205461 -4.15793 0
M  V30 4026 H 384.758 -1.43341 -3.71077 0
M  V30 4027 H 381.497 -4.06864 -5.13947 0
M  V30 4028 H 381.017 -2.3943 -5.49939 0
M  V30 4029 H 382.696 -2.92224 -5.77247 0
M  V30 4030 N 382.828 1.3818 -0.7579 0
M  V30 4031 C 383.776 2.32277 -0.122482 0
M  V30 4032 C 384.77 1.54238 0.700505 0
M  V30 4033 O 385.976 1.69737 0.599119 0
M  V30 4034 H 382.351 0.751712 -0.0208143 0
M  V30 4035 H 384.322 2.83469 -0.932099 0
M  V30 4036 C 383.071 3.39447 0.753076 0
M  V30 4037 H 382.394 3.99591 0.129184 0
M  V30 4038 H 383.834 4.07684 1.16489 0
M  V30 4039 C 382.293 2.78375 1.8976 0
M  V30 4040 O 382.823 2.68025 2.99208 0
M  V30 4041 N 381.029 2.36121 1.69397 0
M  V30 4042 H 380.576 2.4474 0.803762 0
M  V30 4043 H 380.534 1.95602 2.46145 0
M  V30 4044 N 384.306 0.507319 1.49211 0
M  V30 4045 C 385.236 -0.256939 2.32082 0
M  V30 4046 C 386.217 -0.956609 1.40652 0
M  V30 4047 O 387.402 -0.946788 1.69557 0
M  V30 4048 C 384.532 -1.31802 3.21318 0
M  V30 4049 C 383.486 -0.737855 4.21592 0
M  V30 4050 C 382.812 -1.89992 4.99807 0
M  V30 4051 C 384.112 0.275325 5.21574 0
M  V30 4052 H 385.806 0.434798 2.96226 0
M  V30 4053 H 383.352 0.210546 1.42452 0
M  V30 4054 H 385.305 -1.86045 3.78107 0
M  V30 4055 H 384.029 -2.03903 2.5513 0
M  V30 4056 H 382.688 -0.217126 3.65956 0
M  V30 4057 H 382.336 -2.60877 4.30061 0
M  V30 4058 H 382.036 -1.51777 5.6766 0
M  V30 4059 H 383.56 -2.44657 5.59442 0
M  V30 4060 H 384.974 -0.179193 5.7302 0
M  V30 4061 H 383.371 0.573649 5.97352 0
M  V30 4062 H 384.441 1.18903 4.70096 0
M  V30 4063 N 385.784 -1.5574 0.241426 0
M  V30 4064 C 387.033 -1.97986 -0.385295 0
M  V30 4065 C 387.346 -1.13267 -1.59468 0
M  V30 4066 O 388.552 -1.45501 -2.2922 0
M  V30 4067 C 387.008 -3.52275 -0.736884 0
M  V30 4068 C 386.616 -4.45726 0.450796 0
M  V30 4069 C 388.36 -4.03189 -1.3281 0
M  V30 4070 C 386.267 -5.91352 0.0756662 0
M  V30 4071 H 385.197 -0.739386 -0.147731 0
M  V30 4072 H 387.848 -1.80308 0.340779 0
M  V30 4073 H 386.23 -3.65628 -1.52094 0
M  V30 4074 H 387.404 -4.44131 1.22819 0
M  V30 4075 H 385.719 -4.05264 0.956573 0
M  V30 4076 H 388.316 -5.09505 -1.62201 0
M  V30 4077 H 388.659 -3.50212 -2.25071 0
M  V30 4078 H 389.192 -3.93141 -0.607069 0
M  V30 4079 H 385.931 -6.48354 0.965272 0
M  V30 4080 H 385.451 -5.96095 -0.665635 0
M  V30 4081 H 387.13 -6.46084 -0.344075 0
M  V30 4082 N 387.262 0.0317525 -1.57568 0
M  V30 4083 C 388.209 1.0332 -2.06382 0
M  V30 4084 C 389.179 1.36082 -0.952414 0
M  V30 4085 O 390.364 1.46466 -1.2228 0
M  V30 4086 C 387.504 2.32989 -2.54578 0
M  V30 4087 C 386.617 2.0641 -3.79498 0
M  V30 4088 C 385.752 3.2993 -4.16317 0
M  V30 4089 C 384.791 2.98893 -5.34162 0
M  V30 4090 N 383.928 4.14857 -5.66426 0
M  V30 4091 H 388.768 0.609982 -2.9169 0
M  V30 4092 H 386.305 0.289573 -1.44222 0
M  V30 4093 H 388.263 3.0875 -2.80587 0
M  V30 4094 H 386.893 2.73039 -1.7219 0
M  V30 4095 H 385.945 1.21158 -3.6059 0
M  V30 4096 H 387.257 1.79513 -4.65378 0
M  V30 4097 H 386.411 4.1406 -4.4344 0
M  V30 4098 H 385.15 3.59938 -3.29083 0
M  V30 4099 H 384.155 2.13164 -5.06795 0
M  V30 4100 H 385.38 2.70165 -6.23047 0
M  V30 4101 H 383.326 4.44821 -4.82151 0
M  V30 4102 H 383.243 3.91374 -6.4681 0
M  V30 4103 H 384.511 4.99868 -5.98124 0
M  V30 4104 N 388.74 1.54641 0.303973 0
M  V30 4105 C 389.968 1.77768 1.05858 0
M  V30 4106 C 390.383 0.535722 1.8104 0
M  V30 4107 O 389.74 -0.494337 1.75677 0
M  V30 4108 C 389.791 2.9834 2.04146 0
M  V30 4109 O 389.512 4.17736 1.32015 0
M  V30 4110 C 391.013 3.33832 2.91669 0
M  V30 4111 H 388.233 0.592961 0.314067 0
M  V30 4112 H 390.777 2.01583 0.344149 0
M  V30 4113 H 388.932 2.76742 2.71096 0
M  V30 4114 H 389.346 4.85693 1.97998 0
M  V30 4115 H 390.82 4.21448 3.56491 0
M  V30 4116 H 391.297 2.51857 3.59812 0
M  V30 4117 H 391.903 3.57579 2.30254 0
M  V30 4118 N 390.218 -0.567019 1.47046 0
M  V30 4119 C 391.466 -1.322 1.52864 0
M  V30 4120 C 391.787 -1.94088 0.188388 0
M  V30 4121 O 391.057 -1.7941 -0.786693 0
M  V30 4122 H 389.637 -0.490894 0.563056 0
M  V30 4123 H 392.299 -0.662879 1.83281 0
M  V30 4124 H 391.395 -2.12062 2.2899 0
M  V30 4125 N 391.696 -1.35014 -0.812953 0
M  V30 4126 C 392.942 -1.2812 -1.57204 0
M  V30 4127 C 393.275 0.145869 -1.93651 0
M  V30 4128 O 392.55 1.0937 -1.60836 0
M  V30 4129 C 392.833 -2.18162 -2.86492 0
M  V30 4130 C 392.686 -3.69454 -2.56561 0
M  V30 4131 C 394.005 -2.07439 -3.88145 0
M  V30 4132 H 391.124 -0.466746 -0.570366 0
M  V30 4133 H 393.766 -1.65357 -0.935783 0
M  V30 4134 H 391.916 -1.86535 -3.40789 0
M  V30 4135 H 393.588 -4.11493 -2.08497 0
M  V30 4136 H 391.831 -3.9005 -1.89851 0
M  V30 4137 H 392.502 -4.27835 -3.48799 0
M  V30 4138 H 394.978 -2.35228 -3.4323 0
M  V30 4139 H 393.854 -2.7265 -4.76396 0
M  V30 4140 H 394.115 -1.05439 -4.29343 0
M  V30 4141 N 393.175 1.03435 -1.18907 0
M  V30 4142 C 394.421 1.7713 -0.99982 0
M  V30 4143 C 394.776 1.86695 0.465049 0
M  V30 4144 O 394.069 1.36866 1.34083 0
M  V30 4145 C 394.263 3.19792 -1.59586 0
M  V30 4146 C 394.092 3.24134 -3.11717 0
M  V30 4147 C 392.862 3.32398 -3.80578 0
M  V30 4148 C 395.06 3.11625 -4.09138 0
M  V30 4149 N 393.042 3.26055 -5.20155 0
M  V30 4150 C 394.413 3.12855 -5.35277 0
M  V30 4151 C 396.468 2.95713 -4.00572 0
M  V30 4152 C 395.171 2.99805 -6.53842 0
M  V30 4153 C 397.197 2.84011 -5.1874 0
M  V30 4154 C 396.559 2.8589 -6.43775 0
M  V30 4155 H 392.658 0.659683 -0.419931 0
M  V30 4156 H 395.242 1.2317 -1.50789 0
M  V30 4157 H 393.413 3.72085 -1.11389 0
M  V30 4158 H 395.145 3.81819 -1.3415 0
M  V30 4159 H 391.9 3.38392 -3.31342 0
M  V30 4160 H 392.324 3.26307 -5.93172 0
M  V30 4161 H 396.966 2.93086 -3.0473 0
M  V30 4162 H 394.684 3.01184 -7.49876 0
M  V30 4163 H 398.27 2.72744 -5.13909 0
M  V30 4164 H 397.15 2.76931 -7.33675 0
M  V30 4165 N 394.653 0.992116 1.22453 0
M  V30 4166 C 395.585 0.500024 2.23679 0
M  V30 4167 C 396.598 -0.404463 1.57696 0
M  V30 4168 O 397.787 -0.206722 1.77299 0
M  V30 4169 C 394.887 -0.294711 3.37616 0
M  V30 4170 C 394.06 0.605723 4.33186 0
M  V30 4171 C 393.119 -0.13717 5.26021 0
M  V30 4172 O 392.145 0.477164 5.67196 0
M  V30 4173 N 393.347 -1.4197 5.62872 0
M  V30 4174 H 396.112 1.37045 2.66531 0
M  V30 4175 H 393.673 0.866741 1.36745 0
M  V30 4176 H 395.665 -0.800329 3.96707 0
M  V30 4177 H 394.235 -1.06623 2.93854 0
M  V30 4178 H 393.455 1.29202 3.72425 0
M  V30 4179 H 394.743 1.21896 4.93983 0
M  V30 4180 H 394.141 -1.94015 5.31389 0
M  V30 4181 H 392.698 -1.87052 6.24383 0
M  V30 4182 N 396.131 -1.37776 0.765217 0
M  V30 4183 C 397.38 -1.99092 0.323307 0
M  V30 4184 C 397.693 -1.61434 -1.10446 0
M  V30 4185 O 398.899 -2.15805 -1.64743 0
M  V30 4186 C 397.355 -3.56019 0.527098 0
M  V30 4187 C 396.963 -4.0262 1.96471 0
M  V30 4188 C 398.707 -4.2424 0.148483 0
M  V30 4189 C 396.614 -5.52233 2.11644 0
M  V30 4190 H 395.544 -0.744846 0.117137 0
M  V30 4191 H 398.195 -1.57391 0.943417 0
M  V30 4192 H 396.577 -3.95667 -0.162372 0
M  V30 4193 H 397.751 -3.74234 2.68859 0
M  V30 4194 H 396.066 -3.47161 2.29931 0
M  V30 4195 H 398.663 -5.34159 0.240456 0
M  V30 4196 H 399.006 -4.06446 -0.900422 0
M  V30 4197 H 399.539 -3.89872 0.79025 0
M  V30 4198 H 396.278 -5.74945 3.1483 0
M  V30 4199 H 395.798 -5.82324 1.4373 0
M  V30 4200 H 397.477 -6.18106 1.91193 0
M  V30 4201 N 397.609 -0.515225 -1.4894 0
M  V30 4202 C 398.541 0.292481 -2.27326 0
M  V30 4203 C 399.554 0.917838 -1.3446 0
M  V30 4204 O 400.743 0.798772 -1.5963 0
M  V30 4205 C 397.843 1.42803 -3.07344 0
M  V30 4206 C 397.016 0.907347 -4.27885 0
M  V30 4207 C 396.075 1.92222 -4.89834 0
M  V30 4208 O 395.101 1.48506 -5.49486 0
M  V30 4209 N 396.303 3.25355 -4.80754 0
M  V30 4210 H 399.068 -0.379721 -2.97285 0
M  V30 4211 H 396.629 -0.348638 -1.58102 0
M  V30 4212 H 398.621 2.10481 -3.45658 0
M  V30 4213 H 397.191 2.00414 -2.39902 0
M  V30 4214 H 396.411 0.0550218 -3.94162 0
M  V30 4215 H 397.699 0.538108 -5.05946 0
M  V30 4216 H 397.097 3.6355 -4.33414 0
M  V30 4217 H 395.654 3.88707 -5.23211 0
M  V30 4218 N 399.087 1.5561 -0.249682 0
M  V30 4219 C 400.02 2.17537 0.689408 0
M  V30 4220 C 400.998 1.12829 1.17083 0
M  V30 4221 O 402.182 1.41229 1.24846 0
M  V30 4222 C 399.309 2.77828 1.93725 0
M  V30 4223 C 398.355 3.95615 1.59346 0
M  V30 4224 S 399.188 5.30988 0.69367 0
M  V30 4225 C 400.344 5.94734 1.95046 0
M  V30 4226 H 400.577 2.96852 0.163142 0
M  V30 4227 H 398.11 1.54362 -0.0341166 0
M  V30 4228 H 400.068 3.13199 2.65361 0
M  V30 4229 H 398.729 1.98454 2.43465 0
M  V30 4230 H 397.922 4.364 2.52132 0
M  V30 4231 H 397.524 3.61535 0.957512 0
M  V30 4232 H 399.816 6.12419 2.89739 0
M  V30 4233 H 400.759 6.90109 1.58604 0
M  V30 4234 H 401.167 5.23832 2.10381 0
M  V30 4235 N 400.565 -0.0233959 1.57583 0
M  V30 4236 C 401.512 -1.02224 2.06927 0
M  V30 4237 C 402.482 -1.35575 0.959617 0
M  V30 4238 O 403.667 -1.45815 1.23055 0
M  V30 4239 C 400.807 -2.31636 2.5581 0
M  V30 4240 C 399.92 -2.04394 3.80588 0
M  V30 4241 C 399.055 -3.27717 4.18061 0
M  V30 4242 C 398.094 -2.96056 5.3574 0
M  V30 4243 N 397.231 -4.11847 5.68618 0
M  V30 4244 H 402.071 -0.594504 2.9201 0
M  V30 4245 H 399.608 -0.281921 1.44373 0
M  V30 4246 H 401.566 -3.07258 2.82221 0
M  V30 4247 H 400.196 -2.72122 1.73636 0
M  V30 4248 H 399.248 -1.19244 3.61227 0
M  V30 4249 H 400.56 -1.77042 4.66323 0
M  V30 4250 H 399.714 -4.11702 4.4563 0
M  V30 4251 H 398.453 -3.58188 3.30988 0
M  V30 4252 H 397.458 -2.10474 5.07918 0
M  V30 4253 H 398.683 -2.66857 6.24471 0
M  V30 4254 H 396.629 -4.42258 4.84504 0
M  V30 4255 H 396.546 -3.87938 6.48876 0
M  V30 4256 H 397.814 -4.96689 6.00766 0
M  V30 4257 N 402.043 -1.548 -0.295768 0
M  V30 4258 C 403.291 -1.73985 -1.02828 0
M  V30 4259 C 403.612 -0.531406 -1.87619 0
M  V30 4260 O 402.882 0.454221 -1.90561 0
M  V30 4261 H 401.462 -0.641556 -0.382642 0
M  V30 4262 H 404.124 -1.92163 -0.325489 0
M  V30 4263 H 403.22 -2.63129 -1.67838 0
M  V30 4264 N 403.521 0.559213 -1.47345 0
M  V30 4265 C 404.767 1.31843 -1.54095 0
M  V30 4266 C 405.1 1.93149 -0.201726 0
M  V30 4267 O 404.375 1.77759 0.789428 0
M  V30 4268 C 404.658 2.43006 -2.65744 0
M  V30 4269 C 404.511 1.86581 -4.09277 0
M  V30 4270 C 405.83 3.44943 -2.73318 0
M  V30 4271 H 402.949 0.478012 -0.560957 0
M  V30 4272 H 405.591 0.625977 -1.79392 0
M  V30 4273 H 403.741 3.02072 -2.44305 0
M  V30 4274 H 405.413 1.31792 -4.42073 0
M  V30 4275 H 403.656 1.17268 -4.17649 0
M  V30 4276 H 404.327 2.66933 -4.83168 0
M  V30 4277 H 406.803 2.95793 -2.92653 0
M  V30 4278 H 405.679 4.20153 -3.53218 0
M  V30 4279 H 405.94 4.03665 -1.80296 0
M  V30 4280 N 404.999 1.35443 0.805782 0
M  V30 4281 C 406.224 1.32037 1.59941 0
M  V30 4282 C 406.649 -0.0994215 1.87837 0
M  V30 4283 O 406.007 -1.06648 1.46615 0
M  V30 4284 C 406.055 2.13354 2.90711 0
M  V30 4285 O 405.159 1.5148 3.83572 0
M  V30 4286 H 404.5 0.452666 0.485787 0
M  V30 4287 H 407.03 1.78496 1.00002 0
M  V30 4288 H 407.04 2.25338 3.40128 0
M  V30 4289 H 405.715 3.16572 2.69732 0
M  V30 4290 H 404.292 1.4834 3.42125 0
M  V30 4291 N 406.477 -1.02803 1.19454 0
M  V30 4292 C 407.723 -1.76478 0.999171 0
M  V30 4293 C 408.056 -1.88456 -0.468828 0
M  V30 4294 O 407.331 -1.40198 -1.34814 0
M  V30 4295 C 407.614 -3.19044 1.66981 0
M  V30 4296 C 407.467 -3.14932 3.21151 0
M  V30 4297 C 408.786 -4.17456 1.39349 0
M  V30 4298 H 405.905 -0.640614 0.364393 0
M  V30 4299 H 408.547 -1.20005 1.47305 0
M  V30 4300 H 406.697 -3.67263 1.2669 0
M  V30 4301 H 408.369 -2.74605 3.70661 0
M  V30 4302 H 406.612 -2.52625 3.52652 0
M  V30 4303 H 407.283 -4.1566 3.63223 0
M  V30 4304 H 409.759 -3.77842 1.74283 0
M  V30 4305 H 408.635 -5.154 1.88823 0
M  V30 4306 H 408.896 -4.40949 0.318813 0
M  V30 4307 N 407.956 -0.998596 -1.21925 0
M  V30 4308 C 409.204 -0.676325 -1.90448 0
M  V30 4309 C 409.525 0.794719 -1.78071 0
M  V30 4310 O 408.795 1.5701 -1.17152 0
M  V30 4311 H 407.375 -0.247165 -0.704925 0
M  V30 4312 H 410.037 -1.26633 -1.48156 0
M  V30 4313 H 409.133 -0.943858 -2.97486 0
M  V30 4314 N 409.434 1.37368 -0.772513 0
M  V30 4315 C 410.659 2.0447 -0.347386 0
M  V30 4316 C 411.084 1.57882 1.0225 0
M  V30 4317 O 410.442 0.73941 1.65537 0
M  V30 4318 C 410.49 3.58369 -0.400479 0
M  V30 4319 O 409.594 4.0803 0.598789 0
M  V30 4320 H 408.935 0.646773 -0.15027 0
M  V30 4321 H 411.465 1.75667 -1.04892 0
M  V30 4322 H 411.475 4.07183 -0.258045 0
M  V30 4323 H 410.15 3.91633 -1.39986 0
M  V30 4324 H 408.727 3.70534 0.419411 0
M  V30 4325 N 410.912 0.523116 1.48665 0
M  V30 4326 C 412.137 -0.0117284 2.07397 0
M  V30 4327 C 412.562 -1.28031 1.37803 0
M  V30 4328 O 411.92 -1.75836 0.441762 0
M  V30 4329 C 411.968 -0.225786 3.59892 0
M  V30 4330 O 411.072 -1.29592 3.91509 0
M  V30 4331 H 410.413 0.0360673 0.66302 0
M  V30 4332 H 412.943 0.729066 1.9117 0
M  V30 4333 H 412.953 -0.450552 4.05505 0
M  V30 4334 H 411.628 0.700944 4.09951 0
M  V30 4335 H 410.205 -1.05436 3.57684 0
M  V30 4336 N 412.39 -1.55475 0.257931 0
M  V30 4337 C 413.618 -2.03609 -0.367559 0
M  V30 4338 C 414.033 -1.13687 -1.50734 0
M  V30 4339 O 413.39 -0.153479 -1.81853 0
M  V30 4340 C 413.441 -3.51001 -0.864908 0
M  V30 4341 O 413.162 -4.37499 0.229465 0
M  V30 4342 C 414.663 -4.14946 -1.55997 0
M  V30 4343 H 411.883 -0.665459 -0.0860521 0
M  V30 4344 H 414.427 -2.00843 0.385014 0
M  V30 4345 H 412.582 -3.54266 -1.56762 0
M  V30 4346 H 412.996 -5.24286 -0.14998 0
M  V30 4347 H 414.47 -5.19735 -1.85956 0
M  V30 4348 H 414.947 -3.6209 -2.4857 0
M  V30 4349 H 415.553 -4.15635 -0.901543 0
M  V30 4350 N 413.868 0.0150385 -1.57593 0
M  V30 4351 C 414.798 1.01047 -2.10503 0
M  V30 4352 C 415.779 1.36816 -1.01071 0
M  V30 4353 O 416.964 1.45455 -1.28672 0
M  V30 4354 C 414.094 2.30708 -2.59598 0
M  V30 4355 C 413.048 2.09142 -3.73421 0
M  V30 4356 C 412.374 3.44685 -4.08774 0
M  V30 4357 C 413.674 1.46619 -5.01298 0
M  V30 4358 H 415.368 0.569978 -2.93925 0
M  V30 4359 H 412.914 0.272724 -1.41394 0
M  V30 4360 H 414.867 3.00687 -2.95238 0
M  V30 4361 H 413.591 2.76843 -1.73279 0
M  V30 4362 H 412.25 1.41592 -3.38153 0
M  V30 4363 H 411.898 3.88495 -3.195 0
M  V30 4364 H 411.598 3.31077 -4.8545 0
M  V30 4365 H 413.122 4.16004 -4.4696 0
M  V30 4366 H 414.536 2.06535 -5.34805 0
M  V30 4367 H 412.933 1.43544 -5.82679 0
M  V30 4368 H 414.003 0.433611 -4.82957 0
M  V30 4369 N 415.346 1.54954 0.287554 0
M  V30 4370 C 416.276 1.89839 1.35954 0
M  V30 4371 C 417.257 0.758675 1.52244 0
M  V30 4372 O 418.442 1.01557 1.65529 0
M  V30 4373 C 415.572 2.15753 2.72154 0
M  V30 4374 C 414.526 3.3159 2.70614 0
M  V30 4375 C 413.852 3.42952 4.10229 0
M  V30 4376 C 415.152 4.68359 2.31165 0
M  V30 4377 H 416.846 2.79625 1.07007 0
M  V30 4378 H 414.392 1.3454 0.513316 0
M  V30 4379 H 416.345 2.38743 3.47246 0
M  V30 4380 H 415.069 1.22752 3.02654 0
M  V30 4381 H 413.728 3.08545 1.97979 0
M  V30 4382 H 413.376 2.47443 4.37928 0
M  V30 4383 H 413.076 4.20826 4.10097 0
M  V30 4384 H 414.6 3.68218 4.87081 0
M  V30 4385 H 416.014 4.9099 2.95976 0
M  V30 4386 H 414.411 5.49044 2.42221 0
M  V30 4387 H 415.481 4.68165 1.26291 0
M  V30 4388 N 416.824 -0.551391 1.4764 0
M  V30 4389 C 418.064 -1.31901 1.56145 0
M  V30 4390 C 418.428 -1.90724 0.221013 0
M  V30 4391 O 419.629 -2.6819 0.180945 0
M  V30 4392 C 417.9 -2.39517 2.65267 0
M  V30 4393 S 419.459 -3.26289 2.93395 0
M  V30 4394 H 416.277 -0.448965 0.551318 0
M  V30 4395 H 418.879 -0.630599 1.85051 0
M  V30 4396 H 417.583 -1.94747 3.6125 0
M  V30 4397 H 417.114 -3.13092 2.38195 0
M  V30 4398 H 419.129 -4.39122 2.31055 0
M  V30 4399 N 418.302 -1.35869 -0.798587 0
M  V30 4400 C 419.212 -1.31578 -1.94228 0
M  V30 4401 C 420.228 -0.21939 -1.72611 0
M  V30 4402 O 421.404 -0.450167 -1.96305 0
M  V30 4403 C 418.469 -1.09528 -3.28944 0
M  V30 4404 C 417.53 -2.28556 -3.63402 0
M  V30 4405 C 416.763 -2.07549 -4.9169 0
M  V30 4406 O 416.986 -1.046 -5.60727 0
M  V30 4407 O 415.92 -2.95106 -5.24591 0
M  V30 4408 H 419.746 -2.27847 -2.00796 0
M  V30 4409 H 417.331 -1.16322 -0.937526 0
M  V30 4410 H 419.213 -0.991127 -4.09579 0
M  V30 4411 H 417.888 -0.16315 -3.23289 0
M  V30 4412 H 416.795 -2.44538 -2.83112 0
M  V30 4413 H 418.128 -3.20244 -3.73771 0
M  V30 4414 N 419.78 1.02168 -1.19998 0
M  V30 4415 C 421.057 1.72816 -0.916191 0
M  V30 4416 C 421.437 2.03081 0.576325 0
M  V30 4417 O 420.785 1.69122 1.53656 0
M  V30 4418 C 420.995 2.9997 -1.78378 0
M  V30 4419 C 422.343 3.73336 -2.02251 0
M  V30 4420 O 423.367 3.09914 -1.75589 0
M  V30 4421 O 422.226 4.87371 -2.47249 0
M  V30 4422 H 419.32 0.752924 -0.342103 0
M  V30 4423 H 421.866 1.08062 -1.30846 0
M  V30 4424 H 420.638 2.73888 -2.79466 0
M  V30 4425 H 420.261 3.72464 -1.39126 0
M  V30 4426 N 421.258 1.00505 1.21394 0
M  V30 4427 C 422.506 0.686415 1.90086 0
M  V30 4428 C 422.827 -0.785264 1.7849 0
M  V30 4429 O 422.097 -1.56387 1.17983 0
M  V30 4430 H 420.677 0.2509 0.703604 0
M  V30 4431 H 423.339 1.27417 1.47482 0
M  V30 4432 H 422.435 0.959621 2.96981 0
M  V30 4433 N 422.737 -1.36956 0.779787 0
M  V30 4434 C 423.977 -2.01328 0.353043 0
M  V30 4435 C 424.341 -1.60558 -1.05286 0
M  V30 4436 O 425.542 -2.1745 -1.58016 0
M  V30 4437 C 423.813 -3.53874 0.500822 0
M  V30 4438 S 425.372 -4.38506 0.16053 0
M  V30 4439 H 422.19 -0.69799 0.13539 0
M  V30 4440 H 424.792 -1.67016 1.01617 0
M  V30 4441 H 423.496 -3.81034 1.52451 0
M  V30 4442 H 423.027 -3.92994 -0.178574 0
M  V30 4443 H 425.042 -4.85153 -1.04121 0
M  V30 4444 N 424.215 -0.530993 -1.48385 0
M  V30 4445 C 425.145 0.219985 -2.32461 0
M  V30 4446 C 426.126 0.934111 -1.42156 0
M  V30 4447 O 427.311 0.919694 -1.71042 0
M  V30 4448 C 424.441 1.26674 -3.23375 0
M  V30 4449 C 423.395 0.67069 -4.22712 0
M  V30 4450 C 422.721 1.82017 -5.02766 0
M  V30 4451 C 424.021 -0.358268 -5.2107 0
M  V30 4452 H 425.715 -0.48187 -2.95497 0
M  V30 4453 H 423.261 -0.233182 -1.42099 0
M  V30 4454 H 425.214 1.80006 -3.81019 0
M  V30 4455 H 423.938 1.99818 -2.58341 0
M  V30 4456 H 422.597 0.158878 -3.66256 0
M  V30 4457 H 422.245 2.54002 -4.34157 0
M  V30 4458 H 421.945 1.42727 -5.70003 0
M  V30 4459 H 423.469 2.35725 -5.63264 0
M  V30 4460 H 424.883 0.0880081 -5.73232 0
M  V30 4461 H 423.28 -0.66861 -5.96364 0
M  V30 4462 H 424.35 -1.26367 -4.68145 0
M  V30 4463 N 425.693 1.55336 -0.266172 0
M  V30 4464 C 426.656 2.20878 0.612001 0
M  V30 4465 C 427.656 1.18388 1.08816 0
M  V30 4466 O 428.846 1.4335 0.989774 0
M  V30 4467 C 425.978 2.86765 1.84332 0
M  V30 4468 H 427.171 2.99873 0.0398718 0
M  V30 4469 H 424.724 1.56291 -0.0167309 0
M  V30 4470 H 425.459 2.11759 2.45619 0
M  V30 4471 H 425.244 3.61862 1.5099 0
M  V30 4472 H 426.734 3.36867 2.46801 0
M  V30 4473 N 427.171 -0.0066808 1.57599 0
M  V30 4474 C 428.101 -0.999296 2.11036 0
M  V30 4475 C 429.082 -1.36278 1.01795 0
M  V30 4476 O 430.267 -1.4477 1.29442 0
M  V30 4477 C 427.397 -2.29328 2.60818 0
M  V30 4478 C 426.351 -2.07159 3.74525 0
M  V30 4479 C 425.677 -3.42512 4.10596 0
M  V30 4480 C 426.977 -1.43959 5.02069 0
M  V30 4481 H 428.671 -0.554382 2.94223 0
M  V30 4482 H 426.217 -0.265221 1.41536 0
M  V30 4483 H 428.17 -2.99117 2.96828 0
M  V30 4484 H 426.894 -2.7592 1.74745 0
M  V30 4485 H 425.553 -1.39797 3.38899 0
M  V30 4486 H 425.201 -3.86795 3.21556 0
M  V30 4487 H 424.901 -3.28498 4.87199 0
M  V30 4488 H 426.425 -4.13628 4.4916 0
M  V30 4489 H 427.839 -2.03696 5.35893 0
M  V30 4490 H 426.236 -1.40452 5.83432 0
M  V30 4491 H 427.306 -0.407992 4.83181 0
M  V30 4492 N 428.649 -1.55105 -0.279332 0
M  V30 4493 C 429.895 -1.75672 -1.01327 0
M  V30 4494 C 430.228 -0.552739 -1.86168 0
M  V30 4495 O 429.503 0.449827 -1.89227 0
M  V30 4496 C 429.786 -3.05825 -1.90114 0
M  V30 4497 C 429.639 -4.36565 -1.08309 0
M  V30 4498 C 430.958 -3.31975 -2.8893 0
M  V30 4499 H 428.077 -0.639149 -0.366957 0
M  V30 4500 H 430.719 -1.87833 -0.286154 0
M  V30 4501 H 428.869 -2.95588 -2.52111 0
M  V30 4502 H 430.541 -4.58751 -0.484314 0
M  V30 4503 H 428.784 -4.32076 -0.386362 0
M  V30 4504 H 429.455 -5.23946 -1.73737 0
M  V30 4505 H 431.931 -3.41963 -2.37067 0
M  V30 4506 H 430.807 -4.2432 -3.48201 0
M  V30 4507 H 431.068 -2.51309 -3.63725 0
M  V30 4508 N 430.127 0.543554 -1.4793 0
M  V30 4509 C 431.404 1.30458 -1.4574 0
M  V30 4510 C 431.784 2.1048 -0.161692 0
M  V30 4511 O 431.132 2.11831 0.856734 0
M  V30 4512 C 431.342 2.19754 -2.71126 0
M  V30 4513 C 432.69 2.80334 -3.18901 0
M  V30 4514 O 433.714 2.30049 -2.71948 0
M  V30 4515 O 432.573 3.71766 -4.00565 0
M  V30 4516 H 429.667 0.588117 -0.581418 0
M  V30 4517 H 432.213 0.561328 -1.60147 0
M  V30 4518 H 430.985 1.60316 -3.56952 0
M  V30 4519 H 430.608 3.01351 -2.59371 0
M  V30 4520 N 431.605 1.3629 0.791371 0
M  V30 4521 C 432.833 1.33562 1.58016 0
M  V30 4522 C 433.248 -0.0835616 1.88615 0
M  V30 4523 O 432.605 -1.0399 1.49974 0
M  V30 4524 C 432.656 2.15517 2.90232 0
M  V30 4525 O 432.377 3.51902 2.60953 0
M  V30 4526 C 433.878 2.20546 3.84544 0
M  V30 4527 H 431.098 0.458226 0.490173 0
M  V30 4528 H 433.642 1.79361 0.982345 0
M  V30 4529 H 431.797 1.73278 3.46487 0
M  V30 4530 H 432.211 3.94644 3.4548 0
M  V30 4531 H 433.685 2.82252 4.74382 0
M  V30 4532 H 434.162 1.20838 4.2225 0
M  V30 4533 H 434.768 2.63013 3.34222 0
M  V30 4534 N 433.083 -1.0153 1.20538 0
M  V30 4535 C 434.331 -1.74803 1.01432 0
M  V30 4536 C 434.652 -1.8963 -0.454456 0
M  V30 4537 O 433.922 -1.43975 -1.32846 0
M  V30 4538 H 432.502 -0.647598 0.372324 0
M  V30 4539 H 435.164 -1.22402 1.5167 0
M  V30 4540 H 434.26 -2.75114 1.47373 0
M  V30 4541 N 434.561 -1.01147 -1.20859 0
M  V30 4542 C 435.524 -0.582224 -2.21682 0
M  V30 4543 C 436.524 0.344887 -1.57058 0
M  V30 4544 O 437.714 0.134281 -1.73682 0
M  V30 4545 C 434.846 0.150496 -3.40568 0
M  V30 4546 H 436.039 -1.47408 -2.61172 0
M  V30 4547 H 433.592 -0.800695 -1.34233 0
M  V30 4548 H 434.327 1.0575 -3.06574 0
M  V30 4549 H 434.112 -0.515444 -3.88697 0
M  V30 4550 H 435.602 0.438344 -4.15293 0
M  V30 4551 N 436.039 1.36541 -0.78704 0
M  V30 4552 C 437.264 2.0409 -0.369053 0
M  V30 4553 C 437.689 1.58957 1.00569 0
M  V30 4554 O 437.047 0.756926 1.64743 0
M  V30 4555 C 437.095 3.57924 -0.438466 0
M  V30 4556 O 436.199 4.08642 0.555479 0
M  V30 4557 H 435.54 0.645142 -0.157122 0
M  V30 4558 H 438.07 1.74545 -1.06749 0
M  V30 4559 H 438.08 4.06887 -0.301218 0
M  V30 4560 H 436.755 3.90127 -1.44132 0
M  V30 4561 H 435.332 3.70958 0.380088 0
M  V30 4562 N 437.518 0.538854 1.48102 0
M  V30 4563 C 438.748 0.0122958 2.06596 0
M  V30 4564 C 439.156 -1.27861 1.39457 0
M  V30 4565 O 438.499 -1.77348 0.478907 0
M  V30 4566 C 438.561 -0.273131 3.58461 0
M  V30 4567 C 438.225 0.92561 4.47528 0
M  V30 4568 C 439.222 1.82637 4.86765 0
M  V30 4569 C 436.907 1.13511 4.89306 0
M  V30 4570 C 438.901 2.92047 5.66558 0
M  V30 4571 C 436.588 2.23233 5.68868 0
M  V30 4572 C 437.586 3.12333 6.07402 0
M  V30 4573 O 437.274 4.20155 6.85365 0
M  V30 4574 H 437.006 0.0344283 0.675123 0
M  V30 4575 H 439.56 0.746494 1.91355 0
M  V30 4576 H 437.79 -1.06141 3.71848 0
M  V30 4577 H 439.479 -0.742842 3.99045 0
M  V30 4578 H 440.245 1.67649 4.55103 0
M  V30 4579 H 436.124 0.450835 4.5879 0
M  V30 4580 H 439.668 3.6162 5.96554 0
M  V30 4581 H 435.565 2.38201 5.99942 0
M  V30 4582 H 436.333 4.17975 7.03732 0
M  V30 4583 N 438.996 -1.55193 0.274407 0
M  V30 4584 C 440.245 -1.98758 -0.343213 0
M  V30 4585 C 440.558 -1.16624 -1.5703 0
M  V30 4586 O 441.764 -1.5033 -2.26082 0
M  V30 4587 C 440.22 -3.53759 -0.661996 0
M  V30 4588 C 439.828 -4.4467 0.54524 0
M  V30 4589 C 441.572 -4.05916 -1.24228 0
M  V30 4590 C 439.479 -5.91058 0.201084 0
M  V30 4591 H 438.409 -0.742353 -0.132014 0
M  V30 4592 H 441.06 -1.79545 0.378948 0
M  V30 4593 H 439.442 -3.68772 -1.44304 0
M  V30 4594 H 440.616 -4.41426 1.32212 0
M  V30 4595 H 438.931 -4.03143 1.04232 0
M  V30 4596 H 441.528 -5.12831 -1.51357 0
M  V30 4597 H 441.871 -3.54908 -2.17592 0
M  V30 4598 H 442.404 -3.9434 -0.523542 0
M  V30 4599 H 439.143 -6.46161 1.10258 0
M  V30 4600 H 438.663 -5.97373 -0.539045 0
M  V30 4601 H 440.342 -6.46669 -0.206954 0
M  V30 4602 N 440.474 -0.00167713 -1.576 0
M  V30 4603 C 441.699 0.69739 -1.95323 0
M  V30 4604 C 442.124 1.6642 -0.876706 0
M  V30 4605 O 441.482 1.80548 0.165007 0
M  V30 4606 C 441.53 1.40403 -3.32144 0
M  V30 4607 O 440.634 2.5185 -3.26566 0
M  V30 4608 H 439.975 0.185373 -0.637599 0
M  V30 4609 H 442.505 -0.0553665 -2.04525 0
M  V30 4610 H 442.515 1.76707 -3.67748 0
M  V30 4611 H 441.19 0.695167 -4.10049 0
M  V30 4612 H 439.767 2.17861 -3.0264 0
M  V30 4613 N 441.952 1.55251 0.271103 0
M  V30 4614 C 443.2 1.75599 1.00047 0
M  V30 4615 C 443.521 0.561188 1.8675 0
M  V30 4616 O 442.791 -0.423846 1.9126 0
M  V30 4617 H 441.371 0.647562 0.372387 0
M  V30 4618 H 444.033 1.92656 0.294876 0
M  V30 4619 H 443.129 2.65766 1.6363 0
M  V30 4620 N 443.43 -0.535701 1.48216 0
M  V30 4621 C 444.655 -1.32149 1.59848 0
M  V30 4622 C 445.08 -1.86338 0.256842 0
M  V30 4623 O 444.438 -1.64107 -0.770632 0
M  V30 4624 C 444.486 -2.45224 2.64381 0
M  V30 4625 O 443.59 -3.48093 2.21144 0
M  V30 4626 H 442.931 -0.391634 0.536208 0
M  V30 4627 H 445.461 -0.645202 1.94161 0
M  V30 4628 H 445.471 -2.91491 2.85476 0
M  V30 4629 H 444.146 -2.05143 3.61786 0
M  V30 4630 H 442.723 -3.07984 2.10239 0
M  V30 4631 N 444.908 -1.36708 -0.784132 0
M  V30 4632 C 446.136 -1.34398 -1.57305 0
M  V30 4633 C 446.551 0.0735577 -1.88657 0
M  V30 4634 O 445.908 1.03193 -1.50524 0
M  V30 4635 C 445.959 -2.17053 -2.89085 0
M  V30 4636 O 445.68 -3.53281 -2.59083 0
M  V30 4637 C 447.181 -2.22583 -3.83369 0
M  V30 4638 H 444.401 -0.460819 -0.487736 0
M  V30 4639 H 446.945 -1.79879 -0.972819 0
M  V30 4640 H 445.1 -1.75113 -3.45564 0
M  V30 4641 H 445.514 -3.9647 -3.43383 0
M  V30 4642 H 446.988 -2.84763 -4.72878 0
M  V30 4643 H 447.465 -1.23075 -4.21603 0
M  V30 4644 H 448.071 -2.64781 -3.32823 0
M  V30 4645 N 446.386 1.0089 -1.21074 0
M  V30 4646 C 447.611 1.78727 -1.05221 0
M  V30 4647 C 448.036 1.83932 0.393795 0
M  V30 4648 O 447.394 1.28004 1.28393 0
M  V30 4649 C 447.442 3.20665 -1.64944 0
M  V30 4650 O 446.546 4.02632 -0.892273 0
M  V30 4651 H 445.887 0.550973 -0.370574 0
M  V30 4652 H 448.417 1.26847 -1.60534 0
M  V30 4653 H 448.427 3.71352 -1.69002 0
M  V30 4654 H 447.102 3.16191 -2.70177 0
M  V30 4655 H 445.679 3.61207 -0.926492 0
M  V30 4656 N 447.864 1.01787 1.20321 0
M  V30 4657 C 449.089 0.727009 1.9424 0
M  V30 4658 C 449.514 -0.706179 1.74341 0
M  V30 4659 O 448.872 -1.48609 1.03852 0
M  V30 4660 C 448.92 1.06958 3.44372 0
M  V30 4661 O 448.024 0.181983 4.11998 0
M  V30 4662 H 447.365 0.269626 0.606793 0
M  V30 4663 H 449.895 1.36158 1.52716 0
M  V30 4664 H 449.905 1.02182 3.94997 0
M  V30 4665 H 448.58 2.11378 3.58179 0
M  V30 4666 H 447.157 0.287378 3.71791 0
M  V30 4667 N 449.342 -1.36122 0.79427 0
M  V30 4668 C 450.591 -1.98361 0.365464 0
M  V30 4669 C 450.904 -1.6374 -1.06997 0
M  V30 4670 O 452.11 -2.19251 -1.60129 0
M  V30 4671 C 450.566 -3.54821 0.602496 0
M  V30 4672 C 450.174 -3.98362 2.04967 0
M  V30 4673 C 451.918 -4.2383 0.238437 0
M  V30 4674 C 449.825 -5.47619 2.2331 0
M  V30 4675 H 448.755 -0.742193 0.13291 0
M  V30 4676 H 451.406 -1.55354 0.976589 0
M  V30 4677 H 449.788 -3.95922 -0.078409 0
M  V30 4678 H 450.962 -3.68447 2.76737 0
M  V30 4679 H 449.277 -3.42206 2.37243 0
M  V30 4680 H 451.874 -5.33529 0.353705 0
M  V30 4681 H 452.217 -4.08264 -0.814006 0
M  V30 4682 H 452.75 -3.88108 0.872769 0
M  V30 4683 H 449.489 -5.68138 3.26955 0
M  V30 4684 H 449.009 -5.79145 1.5605 0
M  V30 4685 H 450.688 -6.13911 2.0426 0
M  V30 4686 N 450.82 -0.546701 -1.47814 0
M  V30 4687 C 451.73 0.21026 -2.33656 0
M  V30 4688 C 452.746 0.922413 -1.47538 0
M  V30 4689 O 453.922 0.893652 -1.80488 0
M  V30 4690 C 450.987 1.23348 -3.24016 0
M  V30 4691 C 450.048 0.529883 -4.26017 0
M  V30 4692 C 449.281 1.50435 -5.12059 0
M  V30 4693 O 449.504 2.73837 -5.00369 0
M  V30 4694 O 448.438 1.03459 -5.92942 0
M  V30 4695 H 452.264 -0.493605 -2.99662 0
M  V30 4696 H 449.849 -0.307427 -1.46203 0
M  V30 4697 H 451.731 1.82438 -3.79861 0
M  V30 4698 H 450.406 1.91945 -2.60651 0
M  V30 4699 H 449.313 -0.101948 -3.73961 0
M  V30 4700 H 450.646 -0.11445 -4.92067 0
M  V30 4701 N 452.299 1.55045 -0.282633 0
M  V30 4702 C 453.246 2.22822 0.601566 0
M  V30 4703 C 454.216 1.20431 1.14392 0
M  V30 4704 O 455.401 1.48996 1.19184 0
M  V30 4705 C 452.541 2.95873 1.77632 0
M  V30 4706 C 451.654 4.12999 1.26711 0
M  V30 4707 C 450.789 4.73676 2.40426 0
M  V30 4708 C 449.828 5.82981 1.86545 0
M  V30 4709 N 448.965 6.3769 2.93762 0
M  V30 4710 H 453.805 2.97995 0.0169528 0
M  V30 4711 H 451.342 1.471 -0.00339964 0
M  V30 4712 H 453.3 3.36447 2.46697 0
M  V30 4713 H 451.93 2.2311 2.33285 0
M  V30 4714 H 450.982 3.77494 0.469314 0
M  V30 4715 H 452.294 4.91803 0.832518 0
M  V30 4716 H 451.448 5.17008 3.17471 0
M  V30 4717 H 450.187 3.94164 2.87203 0
M  V30 4718 H 449.192 5.39092 1.07983 0
M  V30 4719 H 450.417 6.64366 1.40694 0
M  V30 4720 H 448.363 5.61069 3.39908 0
M  V30 4721 H 448.28 7.11788 2.54744 0
M  V30 4722 H 449.548 6.8568 3.7076 0
M  V30 4723 N 453.777 0.010035 1.57597 0
M  V30 4724 C 454.707 -0.976857 2.12084 0
M  V30 4725 C 455.688 -1.35191 1.03235 0
M  V30 4726 O 456.873 -1.43389 1.3097 0
M  V30 4727 C 454.003 -2.26548 2.63236 0
M  V30 4728 C 452.957 -2.03175 3.76701 0
M  V30 4729 C 452.283 -3.38138 4.14206 0
M  V30 4730 C 453.583 -1.38625 5.03568 0
M  V30 4731 H 455.277 -0.523145 2.94794 0
M  V30 4732 H 452.823 -0.250195 1.4181 0
M  V30 4733 H 454.776 -2.95952 2.99984 0
M  V30 4734 H 453.5 -2.74051 1.77661 0
M  V30 4735 H 452.159 -1.36195 3.40362 0
M  V30 4736 H 451.807 -3.83363 3.25641 0
M  V30 4737 H 451.507 -3.23312 4.90656 0
M  V30 4738 H 453.031 -4.08841 4.53521 0
M  V30 4739 H 454.445 -1.98 5.38023 0
M  V30 4740 H 452.842 -1.34256 5.84889 0
M  V30 4741 H 453.912 -0.356722 4.83586 0
M  V30 4742 N 455.255 -1.55392 -0.262866 0
M  V30 4743 C 456.188 -1.8391 -1.35101 0
M  V30 4744 C 457.166 -0.692901 -1.47097 0
M  V30 4745 O 458.35 -0.936979 -1.63563 0
M  V30 4746 C 455.477 -2.00969 -2.72634 0
M  V30 4747 C 454.523 -3.23559 -2.7787 0
M  V30 4748 S 455.356 -4.80647 -2.3609 0
M  V30 4749 C 456.512 -5.00692 -3.75578 0
M  V30 4750 H 456.745 -2.75918 -1.1071 0
M  V30 4751 H 454.278 -1.47294 -0.463029 0
M  V30 4752 H 456.236 -2.11482 -3.51832 0
M  V30 4753 H 454.897 -1.09832 -2.94272 0
M  V30 4754 H 454.09 -3.32413 -3.78837 0
M  V30 4755 H 453.692 -3.11689 -2.06702 0
M  V30 4756 H 455.984 -4.87055 -4.70939 0
M  V30 4757 H 456.927 -6.02717 -3.71669 0
M  V30 4758 H 457.335 -4.28619 -3.6735 0
M  V30 4759 N 456.733 0.527833 -1.48498 0
M  V30 4760 C 457.643 1.65907 -1.65867 0
M  V30 4761 C 458.659 1.6537 -0.541192 0
M  V30 4762 O 459.835 1.84282 -0.812534 0
M  V30 4763 C 456.9 3.02364 -1.69637 0
M  V30 4764 C 455.961 3.1374 -2.93028 0
M  V30 4765 C 455.194 4.43688 -2.96609 0
M  V30 4766 O 455.417 5.30913 -2.08538 0
M  V30 4767 O 454.351 4.59475 -3.88802 0
M  V30 4768 H 458.177 1.5419 -2.61647 0
M  V30 4769 H 455.762 0.701163 -1.31924 0
M  V30 4770 H 457.644 3.83515 -1.74625 0
M  V30 4771 H 456.319 3.14401 -0.770312 0
M  V30 4772 H 455.226 2.31877 -2.93571 0
M  V30 4773 H 456.559 3.06621 -3.85026 0
M  V30 4774 N 458.211 1.37122 0.776871 0
M  V30 4775 C 459.174 1.32301 1.8716 0
M  V30 4776 C 460.174 0.228099 1.59174 0
M  V30 4777 O 461.364 0.483642 1.67352 0
M  V30 4778 C 458.496 1.054 3.24197 0
M  V30 4779 H 459.689 2.29673 1.92848 0
M  V30 4780 H 457.242 1.22077 0.97606 0
M  V30 4781 H 457.977 0.0853872 3.24188 0
M  V30 4782 H 457.762 1.84648 3.45901 0
M  V30 4783 H 459.252 1.04664 4.04271 0
M  V30 4784 N 459.689 -1.00246 1.21608 0
M  V30 4785 C 460.619 -2.10921 1.00172 0
M  V30 4786 C 461.6 -1.69938 -0.0741587 0
M  V30 4787 O 462.785 -1.94009 0.0861753 0
M  V30 4788 C 459.915 -3.42618 0.568355 0
M  V30 4789 C 458.869 -3.97407 1.58909 0
M  V30 4790 C 458.195 -5.25038 1.01187 0
M  V30 4791 C 459.495 -4.2918 2.97661 0
M  V30 4792 H 461.189 -2.29112 1.92739 0
M  V30 4793 H 458.735 -1.10101 0.928102 0
M  V30 4794 H 460.688 -4.19444 0.405555 0
M  V30 4795 H 459.412 -3.24227 -0.392961 0
M  V30 4796 H 458.071 -3.22703 1.73949 0
M  V30 4797 H 457.719 -5.02982 0.0421965 0
M  V30 4798 H 457.419 -5.62661 1.6937 0
M  V30 4799 H 458.943 -6.04507 0.860448 0
M  V30 4800 H 460.357 -4.96839 2.86049 0
M  V30 4801 H 458.754 -4.77952 3.6288 0
M  V30 4802 H 459.824 -3.3735 3.48315 0
M  V30 4803 N 461.167 -1.02423 -1.1978 0
M  V30 4804 C 462.415 -0.716569 -1.8897 0
M  V30 4805 C 462.736 0.756769 -1.79716 0
M  V30 4806 O 462.006 1.5449 -1.20456 0
M  V30 4807 H 460.586 -0.262062 -0.699523 0
M  V30 4808 H 463.248 -1.29747 -1.45436 0
M  V30 4809 H 462.344 -1.00675 -2.95417 0
M  V30 4810 N 462.645 1.35699 -0.801477 0
M  V30 4811 C 463.608 2.28199 -0.213994 0
M  V30 4812 C 464.608 1.49359 0.595691 0
M  V30 4813 O 465.798 1.69186 0.414921 0
M  V30 4814 C 462.93 3.33587 0.702297 0
M  V30 4815 H 464.123 2.81666 -1.02976 0
M  V30 4816 H 461.676 1.45467 -0.571759 0
M  V30 4817 H 462.411 2.85297 1.54195 0
M  V30 4818 H 462.196 3.91906 0.123484 0
M  V30 4819 H 463.686 4.02638 1.10783 0
M  V30 4820 N 464.123 0.554532 1.47522 0
M  V30 4821 C 465.07 -0.19466 2.29978 0
M  V30 4822 C 466.04 -0.910882 1.38896 0
M  V30 4823 O 467.225 -0.907102 1.67858 0
M  V30 4824 C 464.365 -1.22035 3.22802 0
M  V30 4825 C 463.478 -0.510474 4.28973 0
M  V30 4826 C 462.613 -1.52123 5.08952 0
M  V30 4827 C 461.652 -0.796173 6.069 0
M  V30 4828 N 460.789 -1.75363 6.79847 0
M  V30 4829 H 465.629 0.51461 2.93523 0
M  V30 4830 H 463.166 0.265607 1.44682 0
M  V30 4831 H 465.124 -1.8276 3.7504 0
M  V30 4832 H 463.754 -1.89769 2.61127 0
M  V30 4833 H 462.806 0.211234 3.79813 0
M  V30 4834 H 464.118 0.0576503 4.98767 0
M  V30 4835 H 463.272 -2.20207 5.65326 0
M  V30 4836 H 462.011 -2.12327 4.39054 0
M  V30 4837 H 461.016 -0.101388 5.49707 0
M  V30 4838 H 462.241 -0.199911 6.78806 0
M  V30 4839 H 460.187 -2.3443 6.12682 0
M  V30 4840 H 460.104 -1.23759 7.45801 0
M  V30 4841 H 461.372 -2.4257 7.40797 0
M  V30 4842 N 465.601 -1.54893 0.290851 0
M  V30 4843 C 466.548 -2.23138 -0.58974 0
M  V30 4844 C 467.518 -1.21036 -1.13752 0
M  V30 4845 O 468.703 -1.49626 -1.18392 0
M  V30 4846 C 465.843 -2.96811 -1.76061 0
M  V30 4847 C 464.956 -4.13665 -1.24519 0
M  V30 4848 C 464.091 -4.74944 -2.3791 0
M  V30 4849 C 463.13 -5.83963 -1.83451 0
M  V30 4850 N 462.267 -6.39239 -2.90376 0
M  V30 4851 H 467.107 -2.98 -0.00114915 0
M  V30 4852 H 464.644 -1.47096 0.0112006 0
M  V30 4853 H 466.602 -3.37751 -2.44909 0
M  V30 4854 H 465.232 -2.24344 -2.32098 0
M  V30 4855 H 464.284 -3.77737 -0.449288 0
M  V30 4856 H 465.596 -4.92238 -0.806424 0
M  V30 4857 H 464.75 -5.18684 -3.14724 0
M  V30 4858 H 463.489 -3.95682 -2.85109 0
M  V30 4859 H 462.494 -5.39657 -1.05122 0
M  V30 4860 H 463.719 -6.65103 -1.37169 0
M  V30 4861 H 461.665 -5.62864 -3.36927 0
M  V30 4862 H 461.582 -7.13129 -2.50965 0
M  V30 4863 H 462.85 -6.87637 -3.67118 0
M  V30 4864 N 467.08 -0.0183926 -1.57589 0
M  V30 4865 C 468.496 0.337897 -1.55982 0
M  V30 4866 C 468.696 1.73604 -1.02294 0
M  V30 4867 O 467.752 2.43589 -0.664895 0
M  V30 4868 C 469.065 0.196305 -3.00059 0
M  V30 4869 C 470.613 0.269875 -3.11834 0
M  V30 4870 C 471.088 0.157197 -4.5773 0
M  V30 4871 N 472.579 0.214521 -4.62703 0
M  V30 4872 C 473.314 0.150955 -5.73201 0
M  V30 4873 N 472.81 0.0369212 -6.9279 0
M  V30 4874 N 474.603 0.204162 -5.61729 0
M  V30 4875 H 466.754 -0.93279 -1.90821 0
M  V30 4876 H 469.017 -0.359253 -0.877292 0
M  V30 4877 H 468.723 -0.766383 -3.43248 0
M  V30 4878 H 468.597 0.970908 -3.6449 0
M  V30 4879 H 470.984 1.22302 -2.68563 0
M  V30 4880 H 471.065 -0.534918 -2.50144 0
M  V30 4881 H 470.709 -0.792479 -5.01679 0
M  V30 4882 H 470.639 0.980717 -5.17387 0
M  V30 4883 H 473.13 0.303238 -3.76681 0
M  V30 4884 H 473.443 -0.00518321 -7.728 0
M  V30 4885 H 471.788 0.0022886 -6.95 0
M  V30 4886 H 474.979 0.291575 -4.67191 0
M  V30 4887 H 475.152 0.15116 -6.47824 0
M  V30 4888 N 468.558 1.5553 0.254621 0
M  V30 4889 C 469.488 1.9268 1.31897 0
M  V30 4890 C 470.469 0.790797 1.506 0
M  V30 4891 O 471.654 1.05045 1.63337 0
M  V30 4892 C 468.784 2.21477 2.67517 0
M  V30 4893 C 467.738 3.37256 2.63519 0
M  V30 4894 C 467.064 3.51576 4.02862 0
M  V30 4895 C 468.364 4.73157 2.21179 0
M  V30 4896 H 470.058 2.81832 1.01051 0
M  V30 4897 H 467.604 1.35599 0.484662 0
M  V30 4898 H 469.557 2.46055 3.42104 0
M  V30 4899 H 468.281 1.29144 2.99982 0
M  V30 4900 H 466.94 3.12675 1.9139 0
M  V30 4901 H 466.588 2.56676 4.32581 0
M  V30 4902 H 466.288 4.2943 4.01078 0
M  V30 4903 H 467.812 3.78467 4.79161 0
M  V30 4904 H 469.226 4.97158 2.85494 0
M  V30 4905 H 467.623 5.54058 2.30521 0
M  V30 4906 H 468.693 4.70739 1.16332 0
M  V30 4907 N 470.036 -0.519951 1.48776 0
M  V30 4908 C 471.283 -1.27522 1.57303 0
M  V30 4909 C 471.611 -1.92869 0.251328 0
M  V30 4910 O 470.866 -1.80372 -0.759243 0
M  V30 4911 C 471.165 -2.37864 2.6675 0
M  V30 4912 C 470.831 -1.90103 4.08867 0
M  V30 4913 C 469.493 -1.76795 4.47546 0
M  V30 4914 C 471.845 -1.54133 4.97888 0
M  V30 4915 C 469.173 -1.25868 5.73039 0
M  V30 4916 C 471.525 -1.04665 6.23881 0
M  V30 4917 C 470.189 -0.899823 6.61407 0
M  V30 4918 H 469.459 -0.466636 0.575614 0
M  V30 4919 H 472.106 -0.579109 1.82534 0
M  V30 4920 H 470.411 -3.13186 2.35418 0
M  V30 4921 H 472.108 -2.95969 2.70561 0
M  V30 4922 H 468.698 -2.01414 3.78326 0
M  V30 4923 H 472.882 -1.6327 4.68675 0
M  V30 4924 H 468.138 -1.13196 6.0083 0
M  V30 4925 H 472.312 -0.759074 6.92251 0
M  V30 4926 H 469.939 -0.503011 7.58534 0
M  V30 4927 N 471.514 -1.37532 -0.769588 0
M  V30 4928 C 472.791 -1.23392 -1.51768 0
M  V30 4929 C 473.171 0.17157 -2.10402 0
M  V30 4930 O 472.519 1.17943 -1.95708 0
M  V30 4931 C 472.729 -2.33163 -2.59685 0
M  V30 4932 C 474.077 -2.70809 -3.27028 0
M  V30 4933 O 475.101 -2.32355 -2.69981 0
M  V30 4934 O 473.96 -3.37066 -4.30173 0
M  V30 4935 H 471.054 -0.481617 -0.67229 0
M  V30 4936 H 473.6 -1.49318 -0.806368 0
M  V30 4937 H 472.372 -3.27273 -2.14494 0
M  V30 4938 H 471.995 -2.08713 -3.38415 0
M  V30 4939 N 472.992 0.995999 -1.22138 0
M  V30 4940 C 474.222 1.76809 -1.06874 0
M  V30 4941 C 474.63 1.85265 0.383866 0
M  V30 4942 O 473.973 1.31969 1.27789 0
M  V30 4943 C 474.035 3.2186 -1.60144 0
M  V30 4944 C 473.699 3.36958 -3.0872 0
M  V30 4945 C 474.696 3.2452 -4.0618 0
M  V30 4946 C 472.381 3.62109 -3.48112 0
M  V30 4947 C 474.375 3.37013 -5.41019 0
M  V30 4948 C 472.062 3.74243 -4.831 0
M  V30 4949 C 473.06 3.61702 -5.79362 0
M  V30 4950 O 472.748 3.73436 -7.119 0
M  V30 4951 H 472.48 0.562207 -0.375365 0
M  V30 4952 H 475.034 1.26113 -1.62125 0
M  V30 4953 H 473.264 3.73734 -0.992981 0
M  V30 4954 H 474.953 3.80775 -1.40589 0
M  V30 4955 H 475.719 3.05004 -3.77091 0
M  V30 4956 H 471.598 3.70949 -2.73712 0
M  V30 4957 H 475.142 3.27141 -6.16137 0
M  V30 4958 H 471.039 3.93266 -5.11872 0
M  V30 4959 H 471.807 3.90328 -7.19435 0
M  V30 4960 N 474.47 1.03057 1.19235 0
M  V30 4961 C 475.716 0.729098 1.89241 0
M  V30 4962 C 476.049 -0.740573 1.79525 0
M  V30 4963 O 475.324 -1.53946 1.18874 0
M  V30 4964 C 475.607 1.18304 3.40112 0
M  V30 4965 C 475.46 2.71406 3.5869 0
M  V30 4966 C 476.779 0.765161 4.33397 0
M  V30 4967 H 473.898 0.266338 0.687192 0
M  V30 4968 H 476.54 1.28079 1.40341 0
M  V30 4969 H 474.69 0.713672 3.81889 0
M  V30 4970 H 476.362 3.26303 3.26074 0
M  V30 4971 H 474.605 3.11717 3.01687 0
M  V30 4972 H 475.276 2.98225 4.64506 0
M  V30 4973 H 477.752 1.16889 3.99345 0
M  V30 4974 H 476.628 1.11065 5.37546 0
M  V30 4975 H 476.889 -0.332372 4.40849 0
M  V30 4976 N 475.948 -1.35272 0.808662 0
M  V30 4977 C 477.194 -1.99003 0.390581 0
M  V30 4978 C 477.527 -1.63999 -1.0401 0
M  V30 4979 O 476.802 -0.904368 -1.72196 0
M  V30 4980 C 477.085 -3.55454 0.576566 0
M  V30 4981 C 476.938 -4.00249 2.05233 0
M  V30 4982 C 478.257 -4.401 0.00354277 0
M  V30 4983 H 475.376 -0.722917 0.143388 0
M  V30 4984 H 478.018 -1.6039 1.01858 0
M  V30 4985 H 476.168 -3.88477 0.0419766 0
M  V30 4986 H 477.84 -3.77626 2.64946 0
M  V30 4987 H 476.083 -3.51082 2.54801 0
M  V30 4988 H 476.754 -5.0911 2.13333 0
M  V30 4989 H 479.23 -4.13548 0.460117 0
M  V30 4990 H 478.106 -5.48656 0.163575 0
M  V30 4991 H 478.367 -4.28444 -1.09032 0
M  V30 4992 N 477.426 -0.562348 -1.47226 0
M  V30 4993 C 478.373 0.182461 -2.30078 0
M  V30 4994 C 479.343 0.903503 -1.39377 0
M  V30 4995 O 480.528 0.898188 -1.68337 0
M  V30 4996 C 477.668 1.20322 -3.23445 0
M  V30 4997 C 476.781 0.487717 -4.29238 0
M  V30 4998 C 475.916 1.49422 -5.09752 0
M  V30 4999 C 474.955 0.763976 -6.07314 0
M  V30 5000 N 474.092 1.71755 -6.80768 0
M  V30 5001 H 478.932 -0.530169 -2.93246 0
M  V30 5002 H 476.469 -0.273276 -1.44539 0
M  V30 5003 H 478.427 1.80768 -3.76004 0
M  V30 5004 H 477.057 1.88382 -2.6213 0
M  V30 5005 H 476.109 -0.231374 -3.79696 0
M  V30 5006 H 477.421 -0.0841003 -4.98729 0
M  V30 5007 H 476.575 2.17206 -5.66486 0
M  V30 5008 H 475.314 2.09995 -4.40174 0
M  V30 5009 H 474.319 0.0722344 -5.49753 0
M  V30 5010 H 475.544 0.16391 -6.78902 0
M  V30 5011 H 473.49 2.31177 -6.13916 0
M  V30 5012 H 473.407 1.19802 -7.46447 0
M  V30 5013 H 474.675 2.38638 -7.42073 0
M  V30 5014 N 478.904 1.54736 -0.299062 0
M  V30 5015 C 480.144 2.0201 0.31168 0
M  V30 5016 C 480.508 1.18281 1.5124 0
M  V30 5017 O 481.709 1.55243 2.19438 0
M  V30 5018 C 479.98 3.5123 0.661227 0
M  V30 5019 S 481.539 4.20467 1.2551 0
M  V30 5020 H 478.357 0.704523 0.0957517 0
M  V30 5021 H 480.959 1.90791 -0.426482 0
M  V30 5022 H 479.663 4.09804 -0.221171 0
M  V30 5023 H 479.194 3.66481 1.43023 0
M  V30 5024 H 481.209 4.26083 2.54298 0
M  V30 5025 N 480.382 0.0267497 1.57577 0
M  V30 5026 C 481.33 -0.973923 2.11229 0
M  V30 5027 C 482.324 -1.33849 1.03831 0
M  V30 5028 O 483.53 -1.321 1.22269 0
M  V30 5029 H 479.905 -0.331844 0.674821 0
M  V30 5030 H 481.876 -0.496092 2.94247 0
M  V30 5031 C 480.625 -2.24798 2.65257 0
M  V30 5032 H 479.948 -1.9762 3.47543 0
M  V30 5033 H 481.388 -2.93031 3.06445 0
M  V30 5034 C 479.847 -2.97611 1.57891 0
M  V30 5035 O 480.377 -3.89629 0.97735 0
M  V30 5036 N 478.583 -2.59905 1.29992 0
M  V30 5037 H 478.13 -1.85154 1.79097 0
M  V30 5038 H 478.088 -3.08932 0.583798 0
M  V30 5039 N 481.861 -1.55662 -0.24637 0
M  V30 5040 C 482.771 -1.93495 -1.32653 0
M  V30 5041 C 483.787 -0.835462 -1.5263 0
M  V30 5042 O 484.963 -1.1369 -1.66242 0
M  V30 5043 C 482.028 -2.22242 -2.66101 0
M  V30 5044 C 481.089 -3.45625 -2.54641 0
M  V30 5045 C 480.322 -3.72991 -3.81724 0
M  V30 5046 O 480.545 -3.02421 -4.8363 0
M  V30 5047 O 479.479 -4.66515 -3.80325 0
M  V30 5048 H 483.305 -2.85498 -1.03559 0
M  V30 5049 H 480.89 -1.42551 -0.44717 0
M  V30 5050 H 482.772 -2.42037 -3.44958 0
M  V30 5051 H 481.447 -1.33417 -2.94926 0
M  V30 5052 H 480.354 -3.31136 -1.74067 0
M  V30 5053 H 481.687 -4.34754 -2.3076 0
M  V30 5054 N 483.339 0.512053 -1.4905 0
M  V30 5055 C 484.587 1.26436 -1.57665 0
M  V30 5056 C 484.908 1.93255 -0.260293 0
M  V30 5057 O 484.178 1.82206 0.719564 0
M  V30 5058 H 482.758 0.469658 -0.580888 0
M  V30 5059 H 485.42 0.594398 -1.85615 0
M  V30 5060 H 484.516 2.03417 -2.36702 0
M  V30 5061 N 484.817 1.37938 0.762283 0
M  V30 5062 C 486.228 1.30094 1.33912 0
M  V30 5063 C 486.579 -0.0472026 1.96143 0
M  V30 5064 O 485.704 -0.94917 1.94473 0
M  V30 5065 C 486.299 2.35592 2.43478 0
M  V30 5066 C 484.858 2.31353 2.96905 0
M  V30 5067 C 484.005 2.18919 1.70205 0
M  V30 5068 H 486.956 1.48423 0.561816 0
M  V30 5069 H 486.977 2.00806 3.23199 0
M  V30 5070 H 486.489 3.33701 1.98155 0
M  V30 5071 H 484.59 1.36799 3.46579 0
M  V30 5072 H 484.703 3.25147 3.51875 0
M  V30 5073 H 483.067 1.65624 1.93496 0
M  V30 5074 H 483.85 3.18956 1.26973 0
M  V30 5075 N 486.295 -0.989507 1.22664 0
M  V30 5076 C 487.523 -1.76496 1.07967 0
M  V30 5077 C 487.938 -1.85148 -0.369543 0
M  V30 5078 O 487.295 -1.32408 -1.25596 0
M  V30 5079 C 487.346 -3.19642 1.68853 0
M  V30 5080 O 487.067 -3.11453 3.08105 0
M  V30 5081 C 488.568 -4.13621 1.59475 0
M  V30 5082 H 485.788 -0.55418 0.378319 0
M  V30 5083 H 488.332 -1.24378 1.62328 0
M  V30 5084 H 486.487 -3.68816 1.18547 0
M  V30 5085 H 486.901 -4.01499 3.37489 0
M  V30 5086 H 488.375 -5.11801 2.06795 0
M  V30 5087 H 488.852 -4.35718 0.55191 0
M  V30 5088 H 489.458 -3.70346 2.09103 0
M  V30 5089 N 487.773 -1.03688 -1.18687 0
M  V30 5090 C 488.703 -0.645407 -2.24403 0
M  V30 5091 C 489.684 0.349511 -1.66471 0
M  V30 5092 O 490.869 0.230453 -1.92828 0
M  V30 5093 C 487.999 -0.00365337 -3.473 0
M  V30 5094 C 486.953 -0.921705 -4.17958 0
M  V30 5095 C 486.279 -0.144629 -5.34504 0
M  V30 5096 C 487.579 -2.23909 -4.71871 0
M  V30 5097 H 489.273 -1.52917 -2.57404 0
M  V30 5098 H 486.819 -0.736711 -1.23728 0
M  V30 5099 H 488.772 0.281908 -4.20456 0
M  V30 5100 H 487.496 0.914963 -3.13522 0
M  V30 5101 H 486.155 -1.19159 -3.46694 0
M  V30 5102 H 485.803 0.776274 -4.96974 0
M  V30 5103 H 485.503 -0.756206 -5.82714 0
M  V30 5104 H 487.027 0.134004 -6.10453 0
M  V30 5105 H 488.441 -2.0145 -5.36741 0
M  V30 5106 H 486.838 -2.8033 -5.30599 0
M  V30 5107 H 487.908 -2.88822 -3.895 0
M  V30 5108 N 489.251 1.34841 -0.815825 0
M  V30 5109 C 490.662 1.80937 -0.46029 0
M  V30 5110 C 491.013 1.67685 1.01863 0
M  V30 5111 O 490.138 1.21277 1.79223 0
M  V30 5112 C 490.733 3.28509 -0.828708 0
M  V30 5113 C 489.292 3.72712 -0.525644 0
M  V30 5114 C 488.439 2.56676 -1.04941 0
M  V30 5115 H 491.39 1.22688 -1.00664 0
M  V30 5116 H 491.411 3.80279 -0.129757 0
M  V30 5117 H 490.923 3.38122 -1.90513 0
M  V30 5118 H 489.024 3.68642 0.541666 0
M  V30 5119 H 489.137 4.67119 -1.06474 0
M  V30 5120 H 487.501 2.50302 -0.471286 0
M  V30 5121 H 488.284 2.69063 -2.13214 0
M  V30 5122 N 490.729 0.570148 1.46925 0
M  V30 5123 C 492.006 -0.0153259 1.95594 0
M  V30 5124 C 492.386 -1.47232 1.51281 0
M  V30 5125 O 491.734 -2.15574 0.757624 0
M  V30 5126 C 491.944 0.143624 3.48704 0
M  V30 5127 C 493.292 0.00494484 4.246 0
M  V30 5128 O 494.316 0.0718214 3.56128 0
M  V30 5129 O 493.175 -0.141175 5.46318 0
M  V30 5130 H 490.269 -0.0568819 0.825041 0
M  V30 5131 H 492.815 0.637583 1.57267 0
M  V30 5132 H 491.587 1.15699 3.73804 0
M  V30 5133 H 491.21 -0.5463 3.93829 0
M  V30 5134 N 492.207 -1.54576 0.307264 0
M  V30 5135 C 493.456 -1.99442 -0.300976 0
M  V30 5136 C 493.769 -1.19928 -1.5452 0
M  V30 5137 O 494.975 -1.55092 -2.22842 0
M  V30 5138 C 493.431 -3.55084 -0.586809 0
M  V30 5139 C 493.039 -4.43413 0.639438 0
M  V30 5140 C 494.783 -4.0846 -1.1559 0
M  V30 5141 C 492.69 -5.90499 0.326411 0
M  V30 5142 H 491.62 -0.744986 -0.116238 0
M  V30 5143 H 494.271 -1.787 0.416947 0
M  V30 5144 H 492.653 -3.71749 -1.36449 0
M  V30 5145 H 493.827 -4.38522 1.41545 0
M  V30 5146 H 492.142 -4.00842 1.1276 0
M  V30 5147 H 494.739 -5.15926 -1.40445 0
M  V30 5148 H 495.082 -3.59443 -2.10015 0
M  V30 5149 H 495.615 -3.95362 -0.439778 0
M  V30 5150 H 492.354 -6.43676 1.23939 0
M  V30 5151 H 491.874 -5.98382 -0.412212 0
M  V30 5152 H 493.553 -6.46962 -0.0697393 0
M  V30 5153 N 493.685 -0.035106 -1.57561 0
M  V30 5154 C 494.91 0.655802 -1.96759 0
M  V30 5155 C 495.335 1.64523 -0.911809 0
M  V30 5156 O 494.693 1.80857 0.126673 0
M  V30 5157 C 494.741 1.33326 -3.35047 0
M  V30 5158 O 493.845 2.44866 -3.31835 0
M  V30 5159 H 493.186 0.171807 -0.641388 0
M  V30 5160 H 495.716 -0.0987369 -2.04362 0
M  V30 5161 H 495.726 1.68867 -3.71413 0
M  V30 5162 H 494.401 0.608033 -4.11431 0
M  V30 5163 H 492.978 2.11392 -3.07193 0
M  V30 5164 N 495.163 1.55791 0.238111 0
M  V30 5165 C 496.41 1.78033 0.964907 0
M  V30 5166 C 496.738 0.600984 1.84982 0
M  V30 5167 O 495.993 -0.41536 1.91241 0
M  V30 5168 C 496.292 3.05869 1.84875 0
M  V30 5169 C 495.958 4.36808 1.11846 0
M  V30 5170 C 494.62 4.72388 0.916662 0
M  V30 5171 C 496.972 5.17717 0.60151 0
M  V30 5172 C 494.3 5.86406 0.185756 0
M  V30 5173 C 496.652 6.32494 -0.115972 0
M  V30 5174 C 495.316 6.66688 -0.329168 0
M  V30 5175 H 494.586 0.651469 0.353085 0
M  V30 5176 H 497.233 1.90061 0.234318 0
M  V30 5177 H 495.538 2.88891 2.64668 0
M  V30 5178 H 497.235 3.20278 2.41294 0
M  V30 5179 H 493.825 4.08862 1.28569 0
M  V30 5180 H 498.009 4.90678 0.744932 0
M  V30 5181 H 493.265 6.11399 0.0101886 0
M  V30 5182 H 497.439 6.94425 -0.524127 0
M  V30 5183 H 495.066 7.54884 -0.897474 0
M  V30 5184 N 496.642 -0.504142 1.49319 0
M  V30 5185 C 497.592 -1.60284 1.62151 0
M  V30 5186 C 498.576 -1.53657 0.477315 0
M  V30 5187 O 499.768 -1.6124 0.730108 0
M  V30 5188 C 496.897 -2.98909 1.68844 0
M  V30 5189 C 495.983 -3.10544 2.8883 0
M  V30 5190 N 496.374 -2.92078 4.12946 0
M  V30 5191 C 494.672 -3.4164 2.86702 0
M  V30 5192 C 495.373 -3.07812 4.93585 0
M  V30 5193 N 494.349 -3.36549 4.26891 0
M  V30 5194 H 498.151 -1.44656 2.55835 0
M  V30 5195 H 495.665 -0.710198 1.46048 0
M  V30 5196 H 497.662 -3.77865 1.76134 0
M  V30 5197 H 496.322 -3.15609 0.762943 0
M  V30 5198 H 497.333 -2.68316 4.42975 0
M  V30 5199 H 494.01 -3.64537 2.03517 0
M  V30 5200 H 495.4 -2.98054 6.02174 0
M  V30 5201 N 498.12 -1.38341 -0.754957 0
M  V30 5202 C 499.05 -1.38176 -1.88227 0
M  V30 5203 C 500.031 -0.247873 -1.68284 0
M  V30 5204 O 501.216 -0.45075 -1.88896 0
M  V30 5205 C 498.346 -1.20471 -3.25736 0
M  V30 5206 C 497.3 -2.3105 -3.60278 0
M  V30 5207 C 496.626 -1.98452 -4.96509 0
M  V30 5208 C 497.926 -3.73305 -3.65295 0
M  V30 5209 H 499.62 -2.32512 -1.88622 0
M  V30 5210 H 497.166 -1.1192 -0.906082 0
M  V30 5211 H 499.119 -1.18982 -4.04254 0
M  V30 5212 H 497.843 -0.225965 -3.25817 0
M  V30 5213 H 496.502 -2.31723 -2.84078 0
M  V30 5214 H 496.15 -0.990641 -4.93148 0
M  V30 5215 H 495.85 -2.7251 -5.20588 0
M  V30 5216 H 497.374 -1.98578 -5.77407 0
M  V30 5217 H 498.788 -3.7467 -4.3393 0
M  V30 5218 H 497.185 -4.46557 -4.00883 0
M  V30 5219 H 498.255 -4.05719 -2.65556 0
M  V30 5220 N 499.598 0.982988 -1.23187 0
M  V30 5221 C 500.846 1.72052 -1.06031 0
M  V30 5222 C 501.167 1.90769 0.404019 0
M  V30 5223 O 500.437 1.47446 1.28982 0
M  V30 5224 H 499.017 0.637499 -0.389363 0
M  V30 5225 H 501.679 1.18338 -1.54862 0
M  V30 5226 H 500.775 2.7111 -1.54615 0
M  V30 5227 N 501.076 1.04316 1.18135 0
M  V30 5228 C 502.324 0.746542 1.87806 0
M  V30 5229 C 502.645 -0.728082 1.80898 0
M  V30 5230 O 501.915 -1.52554 1.22899 0
M  V30 5231 H 500.495 0.273157 0.695265 0
M  V30 5232 H 503.157 1.32044 1.43354 0
M  V30 5233 H 502.253 1.05362 2.93778 0
M  V30 5234 N 502.554 -1.34406 0.822964 0
M  V30 5235 C 503.501 -2.29519 0.24284 0
M  V30 5236 C 504.471 -1.5359 -0.632397 0
M  V30 5237 O 505.656 -1.8196 -0.57403 0
M  V30 5238 C 502.796 -3.40032 -0.58925 0
M  V30 5239 C 501.909 -4.30899 0.308236 0
M  V30 5240 C 501.044 -5.28515 -0.533425 0
M  V30 5241 C 500.083 -6.1102 0.363444 0
M  V30 5242 N 499.22 -7.00725 -0.439147 0
M  V30 5243 H 504.06 -2.78537 1.05929 0
M  V30 5244 H 501.597 -1.3707 0.533872 0
M  V30 5245 H 503.555 -4.0279 -1.087 0
M  V30 5246 H 502.185 -2.92248 -1.37081 0
M  V30 5247 H 501.237 -3.69002 0.924203 0
M  V30 5248 H 502.549 -4.88717 0.997862 0
M  V30 5249 H 501.703 -5.96725 -1.09565 0
M  V30 5250 H 500.442 -4.71235 -1.25656 0
M  V30 5251 H 499.447 -5.41743 0.937812 0
M  V30 5252 H 500.672 -6.70381 1.08469 0
M  V30 5253 H 498.618 -6.45913 -1.14595 0
M  V30 5254 H 498.535 -7.55756 0.19209 0
M  V30 5255 H 499.803 -7.73263 -0.984124 0
M  V30 5256 N 504.032 -0.577932 -1.46621 0
M  V30 5257 C 504.942 0.160651 -2.34049 0
M  V30 5258 C 505.958 0.890911 -1.49462 0
M  V30 5259 O 507.134 0.855166 -1.82343 0
M  V30 5260 C 504.199 1.16447 -3.26559 0
M  V30 5261 C 503.26 0.4394 -4.27045 0
M  V30 5262 C 502.493 1.3954 -5.15135 0
M  V30 5263 O 502.716 2.63162 -5.06065 0
M  V30 5264 O 501.65 0.908585 -5.95003 0
M  V30 5265 H 505.476 -0.557057 -2.98547 0
M  V30 5266 H 503.061 -0.338369 -1.45518 0
M  V30 5267 H 504.943 1.7434 -3.83645 0
M  V30 5268 H 503.618 1.86373 -2.64663 0
M  V30 5269 H 502.525 -0.181247 -3.73661 0
M  V30 5270 H 503.858 -0.218799 -4.91713 0
M  V30 5271 N 505.51 1.54411 -0.315457 0
M  V30 5272 C 506.74 2.04536 0.291315 0
M  V30 5273 C 507.148 1.19162 1.4696 0
M  V30 5274 O 506.491 0.213199 1.82459 0
M  V30 5275 C 506.553 3.5056 0.796725 0
M  V30 5276 C 506.217 4.5627 -0.258178 0
M  V30 5277 C 507.214 5.08312 -1.09153 0
M  V30 5278 C 504.899 5.00672 -0.404036 0
M  V30 5279 C 506.893 6.03312 -2.05655 0
M  V30 5280 C 504.58 5.95488 -1.37248 0
M  V30 5281 C 505.578 6.46693 -2.19721 0
M  V30 5282 O 505.266 7.39648 -3.14921 0
M  V30 5283 H 504.998 0.672856 0.0651165 0
M  V30 5284 H 507.552 2.00244 -0.457308 0
M  V30 5285 H 505.782 3.52223 1.59612 0
M  V30 5286 H 507.471 3.83804 1.32096 0
M  V30 5287 H 508.237 4.74793 -0.98979 0
M  V30 5288 H 504.116 4.60436 0.22799 0
M  V30 5289 H 507.66 6.43203 -2.70067 0
M  V30 5290 H 503.557 6.28424 -1.47489 0
M  V30 5291 H 504.325 7.57496 -3.10067 0
M  V30 5292 N 506.988 0.0434614 1.5754 0
M  V30 5293 C 508.216 -0.641835 1.96693 0
M  V30 5294 C 508.631 -1.64832 0.920652 0
M  V30 5295 O 507.988 -1.82247 -0.095993 0
M  V30 5296 C 508.039 -1.33557 3.35924 0
M  V30 5297 O 507.76 -0.369403 4.3654 0
M  V30 5298 C 509.261 -2.11135 3.89791 0
M  V30 5299 H 506.481 -0.176013 0.647503 0
M  V30 5300 H 509.025 0.107478 2.04217 0
M  V30 5301 H 507.18 -2.03617 3.29574 0
M  V30 5302 H 507.594 -0.863674 5.1734 0
M  V30 5303 H 509.068 -2.55107 4.89514 0
M  V30 5304 H 509.545 -2.95634 3.24803 0
M  V30 5305 H 510.151 -1.46002 3.99454 0
M  V30 5306 N 508.466 -1.55915 -0.229846 0
M  V30 5307 C 509.396 -1.94754 -1.28815 0
M  V30 5308 C 510.377 -0.814657 -1.49323 0
M  V30 5309 O 511.562 -1.07631 -1.61645 0
M  V30 5310 C 508.692 -2.25705 -2.63959 0
M  V30 5311 C 507.646 -3.41406 -2.5812 0
M  V30 5312 C 506.972 -3.57941 -3.97218 0
M  V30 5313 C 508.272 -4.76616 -2.13623 0
M  V30 5314 H 509.966 -2.83404 -0.965547 0
M  V30 5315 H 507.512 -1.36353 -0.463028 0
M  V30 5316 H 509.465 -2.51467 -3.38146 0
M  V30 5317 H 508.189 -1.339 -2.9789 0
M  V30 5318 H 506.848 -3.1568 -1.86391 0
M  V30 5319 H 506.496 -2.63526 -4.28443 0
M  V30 5320 H 506.196 -4.35757 -3.94195 0
M  V30 5321 H 507.72 -3.86042 -4.73079 0
M  V30 5322 H 509.134 -5.01637 -2.77549 0
M  V30 5323 H 507.531 -5.57655 -2.21677 0
M  V30 5324 H 508.601 -4.7253 -1.08829 0
M  V30 5325 N 509.944 0.496216 -1.49584 0
M  V30 5326 C 511.172 1.27394 -1.63029 0
M  V30 5327 C 511.587 1.86344 -0.303569 0
M  V30 5328 O 510.944 1.68057 0.711547 0
M  V30 5329 C 510.995 2.40077 -2.70269 0
M  V30 5330 O 510.716 1.83549 -3.97796 0
M  V30 5331 C 512.217 3.31372 -2.94462 0
M  V30 5332 H 509.437 0.386211 -0.54871 0
M  V30 5333 H 511.981 0.595163 -1.95648 0
M  V30 5334 H 510.136 3.03775 -2.40415 0
M  V30 5335 H 510.55 2.57561 -4.56905 0
M  V30 5336 H 512.024 4.06707 -3.73221 0
M  V30 5337 H 512.501 3.88654 -2.0456 0
M  V30 5338 H 513.107 2.73435 -3.25751 0
M  V30 5339 N 511.423 1.38739 0.74761 0
M  V30 5340 C 512.648 1.38702 1.54197 0
M  V30 5341 C 513.073 -0.019664 1.8809 0
M  V30 5342 O 512.431 -1.00333 1.51006 0
M  V30 5343 C 512.479 2.25492 2.814 0
M  V30 5344 O 511.583 1.67613 3.76802 0
M  V30 5345 H 510.924 0.472863 0.466151 0
M  V30 5346 H 513.454 1.82577 0.923413 0
M  V30 5347 H 513.464 2.39561 3.30264 0
M  V30 5348 H 512.139 3.27727 2.56062 0
M  V30 5349 H 510.716 1.62718 3.35526 0
M  V30 5350 N 512.901 -0.976442 1.23707 0
M  V30 5351 C 513.864 -2.0511 1.02287 0
M  V30 5352 C 514.864 -1.60791 -0.0167195 0
M  V30 5353 O 516.054 -1.72761 0.223408 0
M  V30 5354 C 513.186 -3.36458 0.548507 0
M  V30 5355 H 514.379 -2.25545 1.9766 0
M  V30 5356 H 511.932 -1.15042 1.05806 0
M  V30 5357 H 512.667 -3.21713 -0.408818 0
M  V30 5358 H 512.452 -3.69967 1.29874 0
M  V30 5359 H 513.942 -4.15489 0.419406 0
M  V30 5360 N 514.379 -1.04941 -1.1758 0
M  V30 5361 C 515.656 -0.671918 -1.83697 0
M  V30 5362 C 516.036 0.847929 -1.93322 0
M  V30 5363 O 515.384 1.75287 -1.46583 0
M  V30 5364 C 515.594 -1.35797 -3.21497 0
M  V30 5365 C 516.942 -1.4944 -3.97433 0
M  V30 5366 O 517.966 -1.31678 -3.30967 0
M  V30 5367 O 516.825 -1.78463 -5.1654 0
M  V30 5368 H 513.919 -0.236212 -0.792548 0
M  V30 5369 H 516.465 -1.14884 -1.24899 0
M  V30 5370 H 515.237 -2.39498 -3.09446 0
M  V30 5371 H 514.86 -0.870236 -3.8796 0
M  V30 5372 N 515.857 1.33968 -0.830081 0
M  V30 5373 C 517.087 2.01987 -0.434142 0
M  V30 5374 C 517.495 1.62639 0.96671 0
M  V30 5375 O 516.838 0.831151 1.63822 0
M  V30 5376 C 516.9 3.5648 -0.465018 0
M  V30 5377 C 516.564 4.19176 -1.82045 0
M  V30 5378 C 517.561 4.39181 -2.78237 0
M  V30 5379 C 515.246 4.55792 -2.11089 0
M  V30 5380 C 517.24 4.94937 -4.01642 0
M  V30 5381 C 514.927 5.11258 -3.34752 0
M  V30 5382 C 515.925 5.30775 -4.29845 0
M  V30 5383 O 515.613 5.85064 -5.51322 0
M  V30 5384 H 515.345 0.653847 -0.171639 0
M  V30 5385 H 517.899 1.72066 -1.12171 0
M  V30 5386 H 516.129 3.8569 0.279284 0
M  V30 5387 H 517.818 4.05804 -0.0881334 0
M  V30 5388 H 518.584 4.11249 -2.57097 0
M  V30 5389 H 514.463 4.39901 -1.3787 0
M  V30 5390 H 518.007 5.10086 -4.75876 0
M  V30 5391 H 513.904 5.38619 -3.55753 0
M  V30 5392 H 514.672 6.03489 -5.5294 0
M  V30 5393 N 517.335 0.585699 1.46312 0
M  V30 5394 C 518.581 0.0725284 2.0267 0
M  V30 5395 C 518.914 -1.28523 1.45586 0
M  V30 5396 O 518.189 -1.84283 0.622101 0
M  V30 5397 C 518.472 0.0099788 3.60099 0
M  V30 5398 C 518.325 1.39685 4.27561 0
M  V30 5399 C 519.644 -0.689117 4.34671 0
M  V30 5400 H 516.763 0.0278307 0.736474 0
M  V30 5401 H 519.405 0.753472 1.74421 0
M  V30 5402 H 517.555 -0.56992 3.84297 0
M  V30 5403 H 519.227 2.02215 4.14617 0
M  V30 5404 H 517.47 1.96374 3.86807 0
M  V30 5405 H 518.141 1.30553 5.36339 0
M  V30 5406 H 520.617 -0.196446 4.15636 0
M  V30 5407 H 519.493 -0.701921 5.44393 0
M  V30 5408 H 519.754 -1.75101 4.05946 0
M  V30 5409 N 518.813 -1.54241 0.323641 0
M  V30 5410 C 520.06 -2.0057 -0.27891 0
M  V30 5411 C 520.388 -1.21181 -1.52136 0
M  V30 5412 O 519.643 -0.282043 -1.93657 0
M  V30 5413 C 519.942 -3.5129 -0.658031 0
M  V30 5414 C 519.608 -4.48281 0.485252 0
M  V30 5415 C 518.27 -4.74519 0.799055 0
M  V30 5416 C 520.622 -5.05909 1.25322 0
M  V30 5417 C 517.95 -5.55643 1.88354 0
M  V30 5418 C 520.302 -5.88215 2.32779 0
M  V30 5419 C 518.966 -6.12755 2.64741 0
M  V30 5420 H 518.236 -0.733938 -0.10206 0
M  V30 5421 H 520.883 -1.862 0.447435 0
M  V30 5422 H 519.188 -3.63388 -1.4648 0
M  V30 5423 H 520.885 -3.84578 -1.1358 0
M  V30 5424 H 517.475 -4.27979 0.230593 0
M  V30 5425 H 521.659 -4.8562 1.02404 0
M  V30 5426 H 516.915 -5.72888 2.13564 0
M  V30 5427 H 521.089 -6.31888 2.92729 0
M  V30 5428 H 518.716 -6.75404 3.48904 0
M  V30 5429 N 520.291 -0.0518155 -1.57515 0
M  V30 5430 C 521.223 0.951542 -2.08515 0
M  V30 5431 C 522.236 1.27436 -1.01311 0
M  V30 5432 O 523.425 1.23504 -1.28876 0
M  V30 5433 C 520.525 2.27291 -2.5138 0
M  V30 5434 C 519.698 2.13191 -3.81927 0
M  V30 5435 C 518.757 3.28458 -4.11098 0
M  V30 5436 O 517.783 3.04334 -4.81009 0
M  V30 5437 N 518.985 4.52954 -3.63061 0
M  V30 5438 H 521.75 0.516242 -2.9522 0
M  V30 5439 H 519.311 0.13441 -1.61341 0
M  V30 5440 H 521.303 3.03272 -2.67971 0
M  V30 5441 H 519.873 2.62386 -1.69919 0
M  V30 5442 H 519.093 1.21798 -3.74912 0
M  V30 5443 H 520.381 2.00999 -4.67415 0
M  V30 5444 H 519.779 4.75444 -3.06545 0
M  V30 5445 H 518.336 5.26026 -3.84889 0
M  V30 5446 N 521.769 1.56035 0.221574 0
M  V30 5447 C 522.679 1.95581 1.29558 0
M  V30 5448 C 523.695 0.859639 1.51282 0
M  V30 5449 O 524.871 1.16321 1.64413 0
M  V30 5450 C 521.936 2.26447 2.62531 0
M  V30 5451 C 520.997 3.49632 2.4911 0
M  V30 5452 C 520.23 3.79017 3.75742 0
M  V30 5453 O 520.453 3.10077 4.78757 0
M  V30 5454 O 519.387 4.72507 3.72855 0
M  V30 5455 H 523.213 2.8711 0.990035 0
M  V30 5456 H 520.798 1.43244 0.424434 0
M  V30 5457 H 522.68 2.47494 3.41064 0
M  V30 5458 H 521.355 1.38092 2.92766 0
M  V30 5459 H 520.262 3.33864 1.68777 0
M  V30 5460 H 521.595 4.3837 2.23814 0
M  V30 5461 N 523.247 -0.488276 1.49845 0
M  V30 5462 C 524.472 -1.26997 1.63971 0
M  V30 5463 C 524.897 -1.85427 0.315994 0
M  V30 5464 O 524.255 -1.66475 -0.718032 0
M  V30 5465 C 524.303 -2.36689 2.72049 0
M  V30 5466 O 523.407 -3.40882 2.32107 0
M  V30 5467 H 522.748 -0.374376 0.548396 0
M  V30 5468 H 525.278 -0.583104 1.96115 0
M  V30 5469 H 525.288 -2.82262 2.94605 0
M  V30 5470 H 523.963 -1.93529 3.68129 0
M  V30 5471 H 522.54 -3.01139 2.19931 0
M  V30 5472 N 524.725 -1.39134 -0.740242 0
M  V30 5473 C 525.955 -1.39132 -1.52728 0
M  V30 5474 C 526.363 0.0173133 -1.89192 0
M  V30 5475 O 525.706 0.997715 -1.54244 0
M  V30 5476 C 525.768 -2.1952 -2.84695 0
M  V30 5477 C 525.432 -3.68203 -2.70695 0
M  V30 5478 C 526.429 -4.61401 -2.39593 0
M  V30 5479 C 524.114 -4.11724 -2.8773 0
M  V30 5480 C 526.108 -5.96102 -2.25701 0
M  V30 5481 C 523.795 -5.46503 -2.73456 0
M  V30 5482 C 524.793 -6.38506 -2.42486 0
M  V30 5483 O 524.481 -7.70803 -2.28295 0
M  V30 5484 H 524.213 -0.477263 -0.478744 0
M  V30 5485 H 526.767 -1.83504 -0.922799 0
M  V30 5486 H 524.997 -1.69888 -3.47383 0
M  V30 5487 H 526.686 -2.1176 -3.46284 0
M  V30 5488 H 527.452 -4.29079 -2.26088 0
M  V30 5489 H 523.331 -3.4045 -3.10829 0
M  V30 5490 H 526.875 -6.6788 -2.0145 0
M  V30 5491 H 522.772 -5.78417 -2.86538 0
M  V30 5492 H 523.54 -7.8147 -2.43405 0
M  V30 5493 N 526.204 0.969867 -1.24223 0
M  V30 5494 C 527.429 1.75289 -1.10853 0
M  V30 5495 C 527.854 1.85091 0.335079 0
M  V30 5496 O 527.212 1.32024 1.24255 0
M  V30 5497 C 527.26 3.15255 -1.75062 0
M  V30 5498 O 526.364 3.99589 -1.01992 0
M  V30 5499 H 525.705 0.538904 -0.387915 0
M  V30 5500 H 528.235 1.21675 -1.64488 0
M  V30 5501 H 528.245 3.65787 -1.80731 0
M  V30 5502 H 526.92 3.07436 -2.801 0
M  V30 5503 H 525.497 3.58077 -1.04094 0
M  V30 5504 N 527.682 1.05563 1.17022 0
M  V30 5505 C 528.907 0.788437 1.91829 0
M  V30 5506 C 529.332 -0.650356 1.76499 0
M  V30 5507 O 528.69 -1.45229 1.08527 0
M  V30 5508 C 528.738 1.1786 3.40795 0
M  V30 5509 O 527.842 0.312965 4.11211 0
M  V30 5510 H 527.183 0.288794 0.597908 0
M  V30 5511 H 529.713 1.40948 1.48307 0
M  V30 5512 H 529.723 1.14697 3.91546 0
M  V30 5513 H 528.398 2.22666 3.51273 0
M  V30 5514 H 526.975 0.405515 3.70689 0
M  V30 5515 N 529.16 -1.33526 0.837174 0
M  V30 5516 C 530.107 -2.29248 0.267169 0
M  V30 5517 C 531.077 -1.54252 -0.616071 0
M  V30 5518 O 532.262 -1.82559 -0.554699 0
M  V30 5519 C 529.402 -3.40638 -0.553152 0
M  V30 5520 C 528.515 -4.30548 0.353921 0
M  V30 5521 C 527.65 -5.29051 -0.477339 0
M  V30 5522 C 526.689 -6.106 0.42823 0
M  V30 5523 N 525.826 -7.01152 -0.364801 0
M  V30 5524 H 530.666 -2.77398 1.08877 0
M  V30 5525 H 528.203 -1.36496 0.54838 0
M  V30 5526 H 530.161 -4.03921 -1.04422 0
M  V30 5527 H 528.791 -2.93685 -1.33973 0
M  V30 5528 H 527.843 -3.68001 0.963289 0
M  V30 5529 H 529.155 -4.87631 1.04964 0
M  V30 5530 H 528.309 -5.97853 -1.0323 0
M  V30 5531 H 527.048 -4.72541 -1.2065 0
M  V30 5532 H 526.053 -5.40718 0.995219 0
M  V30 5533 H 527.278 -6.69193 1.15573 0
M  V30 5534 H 525.224 -6.47092 -1.07738 0
M  V30 5535 H 525.141 -7.5551 0.272238 0
M  V30 5536 H 526.409 -7.74263 -0.902054 0
M  V30 5537 N 530.638 -0.59345 -1.46 0
M  V30 5538 C 531.585 0.133618 -2.30413 0
M  V30 5539 C 532.555 0.873736 -1.41262 0
M  V30 5540 O 533.74 0.862279 -1.70204 0
M  V30 5541 C 530.88 1.13434 -3.25924 0
M  V30 5542 C 529.993 0.39656 -4.30176 0
M  V30 5543 C 529.128 1.38575 -5.12806 0
M  V30 5544 C 528.167 0.634984 -6.08797 0
M  V30 5545 N 527.304 1.57276 -6.84258 0
M  V30 5546 H 532.144 -0.592252 -2.92055 0
M  V30 5547 H 529.681 -0.303874 -1.43927 0
M  V30 5548 H 531.639 1.72752 -3.79753 0
M  V30 5549 H 530.269 1.82779 -2.66067 0
M  V30 5550 H 529.321 -0.311861 -3.79119 0
M  V30 5551 H 530.633 -0.189869 -4.98438 0
M  V30 5552 H 529.787 2.05141 -5.70966 0
M  V30 5553 H 528.526 2.00611 -4.44529 0
M  V30 5554 H 527.531 -0.0443925 -5.49782 0
M  V30 5555 H 528.756 0.0198678 -6.79097 0
M  V30 5556 H 526.702 2.18103 -6.18682 0
M  V30 5557 H 526.619 1.03941 -7.48821 0
M  V30 5558 H 527.887 2.22844 -7.46968 0
M  V30 5559 N 532.116 1.54067 -0.331816 0
M  V30 5560 C 533.046 2.27569 0.522932 0
M  V30 5561 C 534.027 1.28679 1.11247 0
M  V30 5562 O 535.212 1.57504 1.13605 0
M  V30 5563 C 532.342 3.0397 1.67987 0
M  V30 5564 C 531.296 4.10267 1.21924 0
M  V30 5565 C 530.622 4.74555 2.46377 0
M  V30 5566 C 531.922 5.21268 0.32815 0
M  V30 5567 H 533.616 2.99264 -0.0901977 0
M  V30 5568 H 531.162 1.4393 -0.044821 0
M  V30 5569 H 533.115 3.54123 2.28418 0
M  V30 5570 H 531.839 2.29906 2.31971 0
M  V30 5571 H 530.498 3.61009 0.637809 0
M  V30 5572 H 530.146 3.97098 3.08743 0
M  V30 5573 H 529.846 5.46363 2.16243 0
M  V30 5574 H 531.37 5.27487 3.07555 0
M  V30 5575 H 532.784 5.67128 0.838978 0
M  V30 5576 H 531.181 5.99982 0.119228 0
M  V30 5577 H 532.251 4.80673 -0.638839 0
M  V30 5578 N 533.594 0.0601682 1.57485 0
M  V30 5579 C 534.834 -0.615384 1.94916 0
M  V30 5580 C 535.198 -1.67475 0.938948 0
M  V30 5581 O 536.399 -2.40502 1.20051 0
M  V30 5582 C 534.67 -1.18788 3.37082 0
M  V30 5583 S 536.229 -1.88018 3.96478 0
M  V30 5584 H 533.047 -0.201821 0.681754 0
M  V30 5585 H 535.649 0.131252 1.95059 0
M  V30 5586 H 534.353 -0.404869 4.08398 0
M  V30 5587 H 533.884 -1.97114 3.40455 0
M  V30 5588 H 535.899 -3.16161 3.82435 0
M  V30 5589 N 535.072 -1.5615 -0.213296 0
M  V30 5590 C 536.3 -1.83638 -0.953139 0
M  V30 5591 C 536.715 -0.640362 -1.77609 0
M  V30 5592 O 536.072 0.391071 -1.78261 0
M  V30 5593 C 536.123 -3.09735 -1.86405 0
M  V30 5594 O 535.844 -4.24723 -1.07435 0
M  V30 5595 C 537.345 -3.5027 -2.71709 0
M  V30 5596 H 534.565 -0.610263 -0.278962 0
M  V30 5597 H 537.109 -2.03247 -0.226035 0
M  V30 5598 H 535.264 -2.92077 -2.545 0
M  V30 5599 H 535.678 -4.9641 -1.69343 0
M  V30 5600 H 537.152 -4.41515 -3.31313 0
M  V30 5601 H 537.629 -2.72406 -3.44516 0
M  V30 5602 H 538.235 -3.70396 -2.09015 0
M  V30 5603 N 536.55 0.480323 -1.50102 0
M  V30 5604 C 537.48 1.58769 -1.71215 0
M  V30 5605 C 538.461 1.60583 -0.560997 0
M  V30 5606 O 539.646 1.76996 -0.799127 0
M  V30 5607 C 536.776 2.97148 -1.79778 0
M  V30 5608 C 535.73 3.10201 -2.94888 0
M  V30 5609 C 535.056 4.50137 -2.88584 0
M  V30 5610 C 536.356 2.88283 -4.35534 0
M  V30 5611 H 538.05 1.41354 -2.6393 0
M  V30 5612 H 535.596 0.678591 -1.27008 0
M  V30 5613 H 537.549 3.74536 -1.93133 0
M  V30 5614 H 536.273 3.15699 -0.836772 0
M  V30 5615 H 534.932 2.35244 -2.81169 0
M  V30 5616 H 534.58 4.65593 -1.90349 0
M  V30 5617 H 534.28 4.59808 -3.65856 0
M  V30 5618 H 535.804 5.29558 -3.03976 0
M  V30 5619 H 537.218 3.55427 -4.49827 0
M  V30 5620 H 535.615 3.09408 -5.14186 0
M  V30 5621 H 536.685 1.84219 -4.48544 0
M  V30 5622 N 538.028 1.39524 0.732853 0
M  V30 5623 C 538.991 1.38189 1.82857 0
M  V30 5624 C 539.991 0.278624 1.58368 0
M  V30 5625 O 541.181 0.536639 1.65728 0
M  V30 5626 C 538.313 1.15661 3.2068 0
M  V30 5627 H 539.506 2.35692 1.85444 0
M  V30 5628 H 537.059 1.2512 0.936728 0
M  V30 5629 H 537.794 0.188482 3.23752 0
M  V30 5630 H 537.579 1.95559 3.39852 0
M  V30 5631 H 539.069 1.17472 4.00737 0
M  V30 5632 N 539.506 -0.963266 1.24736 0
M  V30 5633 C 540.755 -1.70115 1.08369 0
M  V30 5634 C 541.068 -1.91939 -0.376688 0
M  V30 5635 O 542.274 -2.6334 -0.660624 0
M  V30 5636 C 540.73 -3.06218 1.89099 0
M  V30 5637 C 540.338 -2.92221 3.39574 0
M  V30 5638 C 542.082 -3.83848 1.81275 0
M  V30 5639 C 539.989 -4.23662 4.12631 0
M  V30 5640 H 538.919 -0.637944 0.401924 0
M  V30 5641 H 541.57 -1.07304 1.48856 0
M  V30 5642 H 539.952 -3.69884 1.41429 0
M  V30 5643 H 541.126 -2.37541 3.94856 0
M  V30 5644 H 539.441 -2.28054 3.48397 0
M  V30 5645 H 542.038 -4.81188 2.33158 0
M  V30 5646 H 542.381 -4.08949 0.778895 0
M  V30 5647 H 542.914 -3.26918 2.26649 0
M  V30 5648 H 539.653 -4.03753 5.16395 0
M  V30 5649 H 539.173 -4.78141 3.62135 0
M  V30 5650 H 540.852 -4.92256 4.19873 0
M  V30 5651 N 540.985 -1.06182 -1.16461 0
M  V30 5652 C 541.935 -0.641619 -2.18786 0
M  V30 5653 C 542.919 0.327122 -1.5754 0
M  V30 5654 O 544.111 0.142746 -1.76423 0
M  V30 5655 C 541.24 -0.0283734 -3.43288 0
M  V30 5656 C 540.326 -1.02154 -4.11613 0
M  V30 5657 N 540.717 -2.19671 -4.55608 0
M  V30 5658 C 539.015 -0.852229 -4.37782 0
M  V30 5659 C 539.716 -2.82583 -5.0845 0
M  V30 5660 N 538.692 -2.10318 -5.01266 0
M  V30 5661 H 542.494 -1.53684 -2.50516 0
M  V30 5662 H 540.008 -0.933349 -1.329 0
M  V30 5663 H 542.005 0.29049 -4.15887 0
M  V30 5664 H 540.665 0.862118 -3.13046 0
M  V30 5665 H 541.676 -2.57453 -4.49375 0
M  V30 5666 H 538.353 -0.0136314 -4.17498 0
M  V30 5667 H 539.743 -3.82298 -5.52538 0
M  V30 5668 N 542.463 1.3308 -0.844243 0
M  V30 5669 C 543.426 2.27403 -0.286485 0
M  V30 5670 C 544.426 1.51179 0.547872 0
M  V30 5671 O 545.616 1.70421 0.360886 0
M  V30 5672 C 542.748 3.35653 0.595813 0
M  V30 5673 H 543.941 2.78248 -1.11885 0
M  V30 5674 H 541.494 1.43574 -0.617749 0
M  V30 5675 H 542.229 2.90058 1.4504 0
M  V30 5676 H 542.014 3.921 -0.00125994 0
M  V30 5677 H 543.504 4.05958 0.979168 0
M  V30 5678 N 543.941 0.601185 1.45683 0
M  V30 5679 C 544.874 -0.17013 2.27565 0
M  V30 5680 C 545.852 -0.879661 1.36751 0
M  V30 5681 O 547.036 -0.889827 1.66176 0
M  V30 5682 C 544.163 -1.24568 3.14961 0
M  V30 5683 C 543.209 -0.639978 4.21671 0
M  V30 5684 S 544.042 0.547275 5.32696 0
M  V30 5685 C 545.198 -0.529019 6.2366 0
M  V30 5686 H 545.431 0.524583 2.92635 0
M  V30 5687 H 542.964 0.388537 1.49431 0
M  V30 5688 H 544.922 -1.86138 3.65873 0
M  V30 5689 H 543.583 -1.91243 2.49169 0
M  V30 5690 H 542.776 -1.44903 4.8272 0
M  V30 5691 H 542.378 -0.0995558 3.73867 0
M  V30 5692 H 544.67 -1.40981 6.62669 0
M  V30 5693 H 545.613 0.0451599 7.08086 0
M  V30 5694 H 546.021 -0.84147 5.58193 0
M  V30 5695 N 545.419 -1.53889 0.339982 0
M  V30 5696 C 546.696 -1.93084 -0.312719 0
M  V30 5697 C 547.076 -1.2712 -1.68534 0
M  V30 5698 O 546.424 -0.420835 -2.24591 0
M  V30 5699 C 546.634 -3.4683 -0.388558 0
M  V30 5700 C 547.982 -4.19732 -0.641088 0
M  V30 5701 O 549.006 -3.53075 -0.470818 0
M  V30 5702 O 547.865 -5.3781 -0.970685 0
M  V30 5703 H 544.959 -0.806784 -0.18174 0
M  V30 5704 H 547.505 -1.65137 0.390898 0
M  V30 5705 H 546.277 -3.87055 0.574821 0
M  V30 5706 H 545.9 -3.80933 -1.1391 0
M  V30 5707 N 546.897 -0.0685191 -1.57451 0
M  V30 5708 C 548.146 0.600898 -1.92541 0
M  V30 5709 C 548.459 1.70967 -0.950239 0
M  V30 5710 O 549.665 2.43844 -1.19384 0
M  V30 5711 C 548.121 1.12019 -3.42023 0
M  V30 5712 C 547.729 0.0426028 -4.4798 0
M  V30 5713 C 549.473 1.76386 -3.86119 0
M  V30 5714 C 547.38 0.575759 -5.88591 0
M  V30 5715 H 546.31 0.228225 -0.71863 0
M  V30 5716 H 548.961 -0.140223 -1.82963 0
M  V30 5717 H 547.343 1.91418 -3.46663 0
M  V30 5718 H 548.517 -0.73182 -4.54952 0
M  V30 5719 H 546.832 -0.504642 -4.13331 0
M  V30 5720 H 549.429 2.17302 -4.88553 0
M  V30 5721 H 549.772 2.62255 -3.23308 0
M  V30 5722 H 550.305 1.03615 -3.84069 0
M  V30 5723 H 547.044 -0.245691 -6.55039 0
M  V30 5724 H 546.564 1.31778 -5.85145 0
M  V30 5725 H 548.243 1.0532 -6.3837 0
M  V30 5726 N 548.375 1.56261 0.205012 0
M  V30 5727 C 549.786 1.70056 0.770574 0
M  V30 5728 C 550.137 0.673398 1.84282 0
M  V30 5729 O 549.262 -0.172196 2.15714 0
M  V30 5730 C 549.857 3.08316 1.40451 0
M  V30 5731 C 548.416 3.2391 1.91727 0
M  V30 5732 C 547.563 2.66001 0.783516 0
M  V30 5733 H 550.514 1.58688 -0.019911 0
M  V30 5734 H 550.535 3.05094 2.27371 0
M  V30 5735 H 550.047 3.83053 0.623882 0
M  V30 5736 H 548.148 2.54072 2.7254 0
M  V30 5737 H 548.261 4.3131 2.08588 0
M  V30 5738 H 546.625 2.24915 1.19521 0
M  V30 5739 H 547.408 3.43297 0.0152883 0
M  V30 5740 N 549.853 -0.472356 1.50355 0
M  V30 5741 C 551.264 -1.05326 1.54154 0
M  V30 5742 C 551.615 -1.93155 0.344303 0
M  V30 5743 O 550.74 -2.09479 -0.542928 0
M  V30 5744 C 551.335 -1.91691 2.79356 0
M  V30 5745 C 549.894 -2.44892 2.8584 0
M  V30 5746 C 549.041 -1.23205 2.48426 0
M  V30 5747 H 551.992 -0.255027 1.56637 0
M  V30 5748 H 552.013 -2.76742 2.6114 0
M  V30 5749 H 551.525 -1.27741 3.66475 0
M  V30 5750 H 549.626 -3.12399 2.0307 0
M  V30 5751 H 549.739 -2.80086 3.88701 0
M  V30 5752 H 548.103 -1.56643 2.00836 0
M  V30 5753 H 548.886 -0.609194 3.37852 0
M  V30 5754 N 551.331 -1.39911 -0.725443 0
M  V30 5755 C 552.742 -1.33599 -1.30415 0
M  V30 5756 C 553.093 -0.00481792 -1.96199 0
M  V30 5757 O 552.218 0.897275 -1.96921 0
M  V30 5758 C 552.813 -2.41965 -2.37146 0
M  V30 5759 C 551.372 -2.39144 -2.90667 0
M  V30 5760 C 550.519 -2.23355 -1.64341 0
M  V30 5761 H 553.47 -1.4986 -0.522267 0
M  V30 5762 H 553.491 -2.09304 -3.17761 0
M  V30 5763 H 553.003 -3.38837 -1.89238 0
M  V30 5764 H 551.104 -1.4594 -3.4283 0
M  V30 5765 H 551.217 -3.34362 -3.43131 0
M  V30 5766 H 549.581 -1.70696 -1.89037 0
M  V30 5767 H 550.364 -3.2221 -1.18471 0
M  V30 5768 N 552.809 0.956637 -1.25245 0
M  V30 5769 C 554.037 1.73571 -1.12608 0
M  V30 5770 C 554.452 1.86063 0.320324 0
M  V30 5771 O 553.809 1.35691 1.22042 0
M  V30 5772 C 553.86 3.15053 -1.77268 0
M  V30 5773 O 553.581 3.03174 -3.16255 0
M  V30 5774 C 555.082 4.09248 -1.70386 0
M  V30 5775 H 552.302 0.543955 -0.392879 0
M  V30 5776 H 554.846 1.20031 -1.65568 0
M  V30 5777 H 553.001 3.65543 -1.28284 0
M  V30 5778 H 553.415 3.9241 -3.48015 0
M  V30 5779 H 554.889 5.06138 -2.20291 0
M  V30 5780 H 555.366 4.34102 -0.667239 0
M  V30 5781 H 555.972 3.64672 -2.18849 0
M  V30 5782 N 554.287 1.06798 1.15896 0
M  V30 5783 C 555.535 0.786211 1.8618 0
M  V30 5784 C 555.856 -0.689547 1.82401 0
M  V30 5785 O 555.126 -1.49913 1.26107 0
M  V30 5786 H 553.706 0.287843 0.689315 0
M  V30 5787 H 556.368 1.35055 1.40521 0
M  V30 5788 H 555.464 1.1157 2.91477 0
M  V30 5789 N 555.766 -1.3263 0.851289 0
M  V30 5790 C 557.177 -1.79653 0.5081 0
M  V30 5791 C 557.528 -1.70327 -0.973815 0
M  V30 5792 O 556.653 -1.25986 -1.75944 0
M  V30 5793 C 557.248 -3.26196 0.915515 0
M  V30 5794 C 555.807 -3.71187 0.624277 0
M  V30 5795 C 554.954 -2.53804 1.11709 0
M  V30 5796 H 557.905 -1.19976 1.03882 0
M  V30 5797 H 557.926 -3.79801 0.230535 0
M  V30 5798 H 557.438 -3.32952 1.99411 0
M  V30 5799 H 555.539 -3.69948 -0.443737 0
M  V30 5800 H 555.652 -4.64132 1.18821 0
M  V30 5801 H 554.016 -2.48964 0.537484 0
M  V30 5802 H 554.799 -2.63315 2.20272 0
M  V30 5803 N 557.244 -0.608902 -1.45362 0
M  V30 5804 C 558.472 -0.111013 -2.06602 0
M  V30 5805 C 558.887 1.20516 -1.45332 0
M  V30 5806 O 558.244 1.73437 -0.567978 0
M  V30 5807 C 558.295 0.033688 -3.61484 0
M  V30 5808 O 558.016 -1.23041 -4.20467 0
M  V30 5809 C 559.517 0.562882 -4.39712 0
M  V30 5810 H 556.737 -0.0694453 -0.667397 0
M  V30 5811 H 559.281 -0.837008 -1.86586 0
M  V30 5812 H 557.436 0.710016 -3.80838 0
M  V30 5813 H 557.85 -1.06094 -5.13658 0
M  V30 5814 H 559.324 0.613213 -5.48583 0
M  V30 5815 H 559.801 1.58543 -4.09586 0
M  V30 5816 H 560.407 -0.0794454 -4.25226 0
M  V30 5817 N 558.722 1.53707 -0.348139 0
M  V30 5818 C 559.968 2.01979 0.239986 0
M  V30 5819 C 560.323 1.23141 1.47831 0
M  V30 5820 O 559.616 0.311936 1.89044 0
M  V30 5821 C 559.81 3.52292 0.602061 0
M  V30 5822 C 559.639 4.45684 -0.599625 0
M  V30 5823 C 558.409 4.9304 -1.10635 0
M  V30 5824 C 560.607 4.93156 -1.4595 0
M  V30 5825 N 558.589 5.70394 -2.26988 0
M  V30 5826 C 559.96 5.6868 -2.46988 0
M  V30 5827 C 562.015 4.75257 -1.48441 0
M  V30 5828 C 560.718 6.28208 -3.50353 0
M  V30 5829 C 562.744 5.35639 -2.50689 0
M  V30 5830 C 562.106 6.11034 -3.50453 0
M  V30 5831 H 558.205 0.780335 0.0509992 0
M  V30 5832 H 560.789 1.88466 -0.488742 0
M  V30 5833 H 558.96 3.66002 1.29989 0
M  V30 5834 H 560.692 3.87304 1.17377 0
M  V30 5835 H 557.447 4.68784 -0.67371 0
M  V30 5836 H 557.871 6.13741 -2.85747 0
M  V30 5837 H 562.513 4.16508 -0.726707 0
M  V30 5838 H 560.231 6.86064 -4.27015 0
M  V30 5839 H 563.817 5.23693 -2.53449 0
M  V30 5840 H 562.697 6.56925 -4.28275 0
M  V30 5841 N 560.2 0.0768682 1.57412 0
M  V30 5842 C 561.163 -0.873949 2.11884 0
M  V30 5843 C 562.163 -1.22301 1.04398 0
M  V30 5844 O 563.353 -1.15545 1.30365 0
M  V30 5845 C 560.485 -2.17575 2.62438 0
M  V30 5846 H 561.678 -0.401278 2.97203 0
M  V30 5847 H 559.231 -0.171904 1.55352 0
M  V30 5848 H 559.966 -2.69368 1.80587 0
M  V30 5849 H 559.751 -1.93534 3.41009 0
M  V30 5850 H 561.241 -2.85631 3.04639 0
M  V30 5851 N 561.678 -1.56367 -0.196722 0
M  V30 5852 C 562.608 -1.97442 -1.24655 0
M  V30 5853 C 563.589 -0.846147 -1.47561 0
M  V30 5854 O 564.774 -1.11035 -1.59326 0
M  V30 5855 C 561.904 -2.31253 -2.59112 0
M  V30 5856 C 560.858 -3.46804 -2.50821 0
M  V30 5857 C 560.184 -3.66286 -3.89536 0
M  V30 5858 C 561.484 -4.8104 -2.03465 0
M  V30 5859 H 563.178 -2.85388 -0.905216 0
M  V30 5860 H 560.724 -1.37304 -0.434002 0
M  V30 5861 H 562.677 -2.58583 -3.32736 0
M  V30 5862 H 561.401 -1.40188 -2.94983 0
M  V30 5863 H 560.06 -3.19563 -1.79653 0
M  V30 5864 H 559.708 -2.72555 -4.22756 0
M  V30 5865 H 559.408 -4.4402 -3.84864 0
M  V30 5866 H 560.932 -3.9599 -4.64784 0
M  V30 5867 H 562.346 -5.07411 -2.66846 0
M  V30 5868 H 560.743 -5.62232 -2.09798 0
M  V30 5869 H 561.813 -4.74732 -0.98781 0
M  V30 5870 N 563.156 0.464375 -1.50603 0
M  V30 5871 C 564.404 1.21356 -1.61608 0
M  V30 5872 C 564.725 1.92329 -0.321643 0
M  V30 5873 O 563.995 1.84403 0.661232 0
M  V30 5874 H 562.575 0.45094 -0.595535 0
M  V30 5875 H 565.237 0.535046 -1.87412 0
M  V30 5876 H 564.333 1.95783 -2.43054 0
M  V30 5877 N 564.634 1.40294 0.718013 0
M  V30 5878 C 565.597 1.4012 1.81381 0
M  V30 5879 C 566.597 0.295405 1.58063 0
M  V30 5880 O 567.787 0.554187 1.6515 0
M  V30 5881 C 564.919 1.19056 3.19435 0
M  V30 5882 H 566.112 2.37645 1.82933 0
M  V30 5883 H 563.665 1.26107 0.923405 0
M  V30 5884 H 564.4 0.222809 3.23534 0
M  V30 5885 H 564.185 1.99152 3.37758 0
M  V30 5886 H 565.675 1.21716 3.99468 0
M  V30 5887 N 566.112 -0.949982 1.2575 0
M  V30 5888 C 567.34 -1.72972 1.13527 0
M  V30 5889 C 567.755 -1.8623 -0.310453 0
M  V30 5890 O 567.112 -1.36336 -1.2132 0
M  V30 5891 C 567.163 -3.14108 1.78936 0
M  V30 5892 O 566.884 -3.01493 3.17858 0
M  V30 5893 C 568.385 -4.08338 1.72554 0
M  V30 5894 H 565.605 -0.541864 0.395758 0
M  V30 5895 H 568.149 -1.19151 1.66202 0
M  V30 5896 H 566.304 -3.64858 1.30221 0
M  V30 5897 H 566.718 -3.90559 3.50092 0
M  V30 5898 H 568.192 -5.04963 2.22973 0
M  V30 5899 H 568.669 -4.33742 0.690251 0
M  V30 5900 H 569.275 -3.63506 2.2078 0
M  V30 5901 N 567.59 -1.07411 -1.15328 0
M  V30 5902 C 568.837 -0.797649 -1.86128 0
M  V30 5903 C 569.165 0.676298 -1.82364 0
M  V30 5904 O 568.42 1.51223 -1.24218 0
M  V30 5905 C 568.719 -1.25191 -3.34757 0
M  V30 5906 C 568.385 -2.73191 -3.58716 0
M  V30 5907 C 567.047 -3.13616 -3.64964 0
M  V30 5908 C 569.399 -3.68718 -3.6837 0
M  V30 5909 C 566.727 -4.48383 -3.78377 0
M  V30 5910 C 569.079 -5.03248 -3.83306 0
M  V30 5911 C 567.743 -5.43293 -3.878 0
M  V30 5912 H 567.013 -0.29188 -0.681092 0
M  V30 5913 H 569.66 -1.34524 -1.36292 0
M  V30 5914 H 567.965 -0.623712 -3.86804 0
M  V30 5915 H 569.662 -1.01489 -3.87945 0
M  V30 5916 H 566.252 -2.40898 -3.54494 0
M  V30 5917 H 570.436 -3.38614 -3.62842 0
M  V30 5918 H 565.692 -4.78877 -3.80114 0
M  V30 5919 H 569.866 -5.77142 -3.89718 0
M  V30 5920 H 567.493 -6.47721 -3.97946 0
M  V30 5921 N 569.068 1.32177 -0.85831 0
M  V30 5922 C 570.317 1.96392 -0.459689 0
M  V30 5923 C 570.63 1.68659 0.990632 0
M  V30 5924 O 571.836 2.26641 1.49485 0
M  V30 5925 C 570.292 3.51542 -0.7711 0
M  V30 5926 C 569.9 3.8813 -2.2374 0
M  V30 5927 C 571.644 4.2221 -0.44038 0
M  V30 5928 C 569.551 5.36341 -2.49183 0
M  V30 5929 H 568.481 0.735007 -0.168169 0
M  V30 5930 H 571.132 1.50518 -1.0496 0
M  V30 5931 H 569.514 3.95846 -0.11058 0
M  V30 5932 H 570.688 3.54824 -2.94001 0
M  V30 5933 H 569.003 3.30497 -2.533 0
M  V30 5934 H 571.6 5.31234 -0.607855 0
M  V30 5935 H 571.943 4.11683 0.618291 0
M  V30 5936 H 572.476 3.83502 -1.05695 0
M  V30 5937 H 569.215 5.51892 -3.53689 0
M  V30 5938 H 568.735 5.7104 -1.83504 0
M  V30 5939 H 570.414 6.03466 -2.33318 0
M  V30 5940 N 570.547 0.616602 1.45037 0
M  V30 5941 C 571.963 0.280994 1.57107 0
M  V30 5942 C 572.163 -1.21627 1.60653 0
M  V30 5943 O 571.219 -1.9997 1.54169 0
M  V30 5944 C 572.532 0.960116 2.8496 0
M  V30 5945 C 574.08 0.936884 2.98649 0
M  V30 5946 C 574.555 1.59619 4.29285 0
M  V30 5947 N 576.046 1.5621 4.36065 0
M  V30 5948 C 576.781 2.04131 5.35834 0
M  V30 5949 N 576.277 2.60177 6.4209 0
M  V30 5950 N 578.07 1.94845 5.27249 0
M  V30 5951 H 570.221 1.58867 1.40979 0
M  V30 5952 H 572.484 0.666024 0.674623 0
M  V30 5953 H 572.19 2.01473 2.88273 0
M  V30 5954 H 572.064 0.488921 3.74018 0
M  V30 5955 H 574.451 -0.109209 2.94898 0
M  V30 5956 H 574.532 1.44643 2.10979 0
M  V30 5957 H 574.176 2.64166 4.33796 0
M  V30 5958 H 574.106 1.06159 5.15789 0
M  V30 5959 H 576.597 1.15276 3.59889 0
M  V30 5960 H 576.91 2.94513 7.1448 0
M  V30 5961 H 575.255 2.64221 6.42816 0
M  V30 5962 H 578.446 1.50792 4.43147 0
M  V30 5963 H 578.619 2.32504 6.04852 0
M  V30 5964 N 572.025 -1.5352 0.356285 0
M  V30 5965 C 572.972 -2.25439 -0.494569 0
M  V30 5966 C 573.942 -1.25752 -1.08516 0
M  V30 5967 O 575.127 -1.54513 -1.1194 0
M  V30 5968 C 572.267 -3.04011 -1.63313 0
M  V30 5969 C 571.38 -4.18574 -1.06862 0
M  V30 5970 C 570.515 -4.84607 -2.17552 0
M  V30 5971 C 569.554 -5.91218 -1.58518 0
M  V30 5972 N 568.691 -6.50979 -2.63003 0
M  V30 5973 H 573.531 -2.97737 0.125244 0
M  V30 5974 H 571.068 -1.46916 0.0735789 0
M  V30 5975 H 573.026 -3.47834 -2.30363 0
M  V30 5976 H 571.656 -2.33986 -2.22374 0
M  V30 5977 H 570.708 -3.79303 -0.288672 0
M  V30 5978 H 572.02 -4.95215 -0.596924 0
M  V30 5979 H 571.174 -5.31566 -2.92442 0
M  V30 5980 H 569.913 -4.07418 -2.6807 0
M  V30 5981 H 568.918 -5.4363 -0.821391 0
M  V30 5982 H 570.143 -6.70322 -1.08836 0
M  V30 5983 H 568.089 -5.76648 -3.12751 0
M  V30 5984 H 568.006 -7.23131 -2.20493 0
M  V30 5985 H 569.274 -7.02589 -3.37623 0
M  V30 5986 N 573.503 -0.0852151 -1.57369 0
M  V30 5987 C 574.75 0.580806 -1.93992 0
M  V30 5988 C 575.078 1.68801 -0.966252 0
M  V30 5989 O 574.333 1.95694 0.0158649 0
M  V30 5990 C 574.632 1.18482 -3.3719 0
M  V30 5991 C 574.298 0.2024 -4.50446 0
M  V30 5992 C 572.96 -0.0678318 -4.81152 0
M  V30 5993 C 575.312 -0.46895 -5.19086 0
M  V30 5994 C 572.64 -1.01627 -5.77831 0
M  V30 5995 C 574.992 -1.4058 -6.16782 0
M  V30 5996 C 573.656 -1.68436 -6.45899 0
M  V30 5997 H 572.926 0.212532 -0.709867 0
M  V30 5998 H 575.573 -0.158947 -1.90839 0
M  V30 5999 H 573.878 2.0006 -3.36873 0
M  V30 6000 H 575.575 1.70767 -3.62822 0
M  V30 6001 H 572.165 0.423208 -4.26505 0
M  V30 6002 H 576.349 -0.273307 -4.95547 0
M  V30 6003 H 571.605 -1.2392 -5.9871 0
M  V30 6004 H 575.779 -1.93188 -6.69068 0
M  V30 6005 H 573.406 -2.42088 -7.20623 0
M  V30 6006 N 574.981 1.5647 0.188427 0
M  V30 6007 C 576.211 1.84863 0.922463 0
M  V30 6008 C 576.619 0.666413 1.77075 0
M  V30 6009 O 575.962 -0.374044 1.79852 0
M  V30 6010 C 576.024 3.07447 1.86324 0
M  V30 6011 C 575.688 4.41066 1.19625 0
M  V30 6012 C 576.685 5.16767 0.569946 0
M  V30 6013 C 574.37 4.87802 1.19811 0
M  V30 6014 C 576.364 6.37384 -0.045594 0
M  V30 6015 C 574.051 6.08353 0.57874 0
M  V30 6016 C 575.049 6.82987 -0.0420259 0
M  V30 6017 O 574.737 8.01254 -0.651675 0
M  V30 6018 H 574.469 0.61784 0.274316 0
M  V30 6019 H 577.023 2.04437 0.198613 0
M  V30 6020 H 575.253 2.83774 2.62696 0
M  V30 6021 H 576.942 3.2243 2.46564 0
M  V30 6022 H 577.708 4.81749 0.560601 0
M  V30 6023 H 573.587 4.29662 1.67069 0
M  V30 6024 H 577.131 6.95578 -0.530731 0
M  V30 6025 H 573.028 6.42838 0.58561 0
M  V30 6026 H 573.796 8.16655 -0.549236 0
M  V30 6027 N 576.459 -0.456382 1.50847 0
M  V30 6028 C 577.687 -1.23026 1.66349 0
M  V30 6029 C 578.102 -1.85473 0.352868 0
M  V30 6030 O 577.459 -1.69885 -0.666739 0
M  V30 6031 C 577.51 -2.32827 2.76539 0
M  V30 6032 O 577.231 -1.72938 4.02522 0
M  V30 6033 C 578.732 -3.23448 3.03144 0
M  V30 6034 H 575.952 -0.371527 0.558756 0
M  V30 6035 H 578.496 -0.543082 1.97157 0
M  V30 6036 H 576.651 -2.97294 2.48384 0
M  V30 6037 H 577.065 -2.45357 4.63573 0
M  V30 6038 H 578.539 -3.96669 3.83872 0
M  V30 6039 H 579.016 -3.83094 2.14793 0
M  V30 6040 H 579.622 -2.64702 3.32886 0
M  V30 6041 N 577.937 -1.40673 -0.710563 0
M  V30 6042 C 578.847 -1.43663 -1.85467 0
M  V30 6043 C 579.863 -0.328721 -1.70867 0
M  V30 6044 O 581.039 -0.574098 -1.93044 0
M  V30 6045 C 578.104 -1.30226 -3.21313 0
M  V30 6046 C 577.165 -2.51204 -3.48131 0
M  V30 6047 C 576.398 -2.38398 -4.77495 0
M  V30 6048 O 576.621 -1.40048 -5.5294 0
M  V30 6049 O 575.555 -3.2787 -5.04762 0
M  V30 6050 H 579.381 -2.40156 -1.859 0
M  V30 6051 H 576.966 -1.22049 -0.861652 0
M  V30 6052 H 578.848 -1.2496 -4.02446 0
M  V30 6053 H 577.523 -0.368419 -3.21597 0
M  V30 6054 H 576.43 -2.62048 -2.66987 0
M  V30 6055 H 577.763 -3.43366 -3.52648 0
M  V30 6056 N 579.415 0.9433 -1.26252 0
M  V30 6057 C 580.662 1.68925 -1.11672 0
M  V30 6058 C 580.99 1.91499 0.340329 0
M  V30 6059 O 580.245 1.49189 1.26653 0
M  V30 6060 C 580.544 3.07073 -1.82868 0
M  V30 6061 C 580.21 3.04262 -3.32769 0
M  V30 6062 C 578.872 3.03203 -3.7366 0
M  V30 6063 C 581.224 2.96729 -4.28487 0
M  V30 6064 C 578.552 2.92373 -5.0866 0
M  V30 6065 C 580.904 2.87442 -5.63525 0
M  V30 6066 C 579.568 2.84724 -6.03729 0
M  V30 6067 H 578.838 0.618141 -0.408635 0
M  V30 6068 H 581.485 1.10124 -1.56668 0
M  V30 6069 H 579.79 3.69486 -1.30335 0
M  V30 6070 H 581.487 3.63635 -1.69029 0
M  V30 6071 H 578.077 3.05865 -3.00241 0
M  V30 6072 H 582.261 2.96658 -3.97879 0
M  V30 6073 H 577.517 2.88645 -5.38975 0
M  V30 6074 H 581.691 2.80576 -6.37377 0
M  V30 6075 H 579.318 2.76089 -7.08293 0
M  V30 6076 N 580.893 1.08022 1.14757 0
M  V30 6077 C 582.17 0.720386 1.81851 0
M  V30 6078 C 582.55 -0.796375 1.95502 0
M  V30 6079 O 581.898 -1.71339 1.51179 0
M  V30 6080 C 582.108 1.44273 3.17783 0
M  V30 6081 C 583.456 1.59925 3.93331 0
M  V30 6082 O 584.48 1.40407 3.2736 0
M  V30 6083 O 583.339 1.92096 5.11626 0
M  V30 6084 H 580.433 0.257142 0.786007 0
M  V30 6085 H 582.979 1.18155 1.21809 0
M  V30 6086 H 581.751 2.47618 3.02987 0
M  V30 6087 H 581.374 0.97279 3.85516 0
M  V30 6088 N 582.371 -1.3172 0.865308 0
M  V30 6089 C 583.787 -1.4958 0.556596 0
M  V30 6090 C 583.987 -1.79763 -0.910353 0
M  V30 6091 O 583.043 -1.87351 -1.6928 0
M  V30 6092 C 584.356 -2.63277 1.45279 0
M  V30 6093 C 585.904 -2.77161 1.45433 0
M  V30 6094 C 586.379 -3.93949 2.33598 0
M  V30 6095 N 587.87 -4.01228 2.31453 0
M  V30 6096 C 588.605 -4.90855 2.96393 0
M  V30 6097 N 588.101 -5.85416 3.70486 0
M  V30 6098 N 589.894 -4.84063 2.85726 0
M  V30 6099 H 582.045 -1.10396 1.81456 0
M  V30 6100 H 584.308 -0.54507 0.775631 0
M  V30 6101 H 584.014 -2.47734 2.49641 0
M  V30 6102 H 583.888 -3.59309 1.14792 0
M  V30 6103 H 586.275 -2.9212 0.41831 0
M  V30 6104 H 586.356 -1.8181 1.79941 0
M  V30 6105 H 586 -3.79748 3.37274 0
M  V30 6106 H 585.93 -4.88598 1.96417 0
M  V30 6107 H 588.421 -3.3357 1.77593 0
M  V30 6108 H 588.734 -6.50525 4.17178 0
M  V30 6109 H 587.079 -5.85409 3.74594 0
M  V30 6110 H 590.27 -4.09163 2.27384 0
M  V30 6111 H 590.443 -5.53708 3.36617 0
M  V30 6112 N 583.85 -0.624285 -1.44708 0
M  V30 6113 C 585.266 -0.289322 -1.56956 0
M  V30 6114 C 585.466 1.20773 -1.61295 0
M  V30 6115 O 584.522 1.9915 -1.55227 0
M  V30 6116 C 585.835 -0.975215 -2.84447 0
M  V30 6117 C 587.383 -0.952709 -2.98148 0
M  V30 6118 C 587.858 -1.61893 -4.28433 0
M  V30 6119 N 589.349 -1.5852 -4.35231 0
M  V30 6120 C 590.084 -2.06969 -5.34744 0
M  V30 6121 N 589.58 -2.63579 -6.40701 0
M  V30 6122 N 591.373 -1.97638 -5.26209 0
M  V30 6123 H 583.524 -1.59612 -1.40135 0
M  V30 6124 H 585.787 -0.669592 -0.671081 0
M  V30 6125 H 585.493 -2.02999 -2.87201 0
M  V30 6126 H 585.367 -0.508749 -3.73753 0
M  V30 6127 H 587.754 0.093568 -2.94952 0
M  V30 6128 H 587.835 -1.4576 -2.10209 0
M  V30 6129 H 587.479 -2.66463 -4.32389 0
M  V30 6130 H 587.409 -1.08893 -5.15218 0
M  V30 6131 H 589.899 -1.17183 -3.59272 0
M  V30 6132 H 590.213 -2.98298 -7.12908 0
M  V30 6133 H 588.558 -2.67626 -6.41406 0
M  V30 6134 H 591.749 -1.5314 -4.42341 0
M  V30 6135 H 591.922 -2.35708 -6.03611 0
M  V30 6136 N 585.328 1.53329 -0.364422 0
M  V30 6137 C 586.276 2.27212 0.497737 0
M  V30 6138 C 587.27 1.30146 1.08437 0
M  V30 6139 O 588.476 1.47778 1.0277 0
M  V30 6140 H 584.851 0.730329 0.179232 0
M  V30 6141 H 586.822 2.98037 -0.147182 0
M  V30 6142 C 585.571 3.07333 1.6261 0
M  V30 6143 H 584.894 3.81866 1.184 0
M  V30 6144 H 586.334 3.62209 2.20409 0
M  V30 6145 C 584.793 2.18102 2.56775 0
M  V30 6146 O 585.323 1.79104 3.59562 0
M  V30 6147 N 583.529 1.82759 2.25937 0
M  V30 6148 H 583.076 2.14671 1.42387 0
M  V30 6149 H 583.034 1.23342 2.89196 0
M  V30 6150 N 586.806 0.0935595 1.57322 0
M  V30 6151 C 587.754 -0.883457 2.15169 0
M  V30 6152 C 588.748 -1.29324 1.09415 0
M  V30 6153 O 589.954 -1.26795 1.27762 0
M  V30 6154 H 586.329 -0.302923 0.688289 0
M  V30 6155 H 588.3 -0.370845 2.96087 0
M  V30 6156 C 587.049 -2.13345 2.74552 0
M  V30 6157 H 586.372 -1.82702 3.55612 0
M  V30 6158 H 587.812 -2.7977 3.18598 0
M  V30 6159 C 586.271 -2.90646 1.70371 0
M  V30 6160 O 586.801 -3.85133 1.14173 0
M  V30 6161 N 585.007 -2.54157 1.40899 0
M  V30 6162 H 584.554 -1.77391 1.86789 0
M  V30 6163 H 584.512 -3.06178 0.714301 0
M  V30 6164 N 588.284 -1.56567 -0.180126 0
M  V30 6165 C 589.7 -1.50488 -0.531559 0
M  V30 6166 C 589.9 -0.796267 -1.851 0
M  V30 6167 O 588.956 -0.352978 -2.50021 0
M  V30 6168 C 590.269 -2.95201 -0.572456 0
M  V30 6169 C 591.817 -3.05957 -0.660264 0
M  V30 6170 C 592.292 -4.5211 -0.732135 0
M  V30 6171 N 593.783 -4.56322 -0.795262 0
M  V30 6172 C 594.518 -5.66742 -0.871296 0
M  V30 6173 N 594.014 -6.86815 -0.908708 0
M  V30 6174 N 595.807 -5.54691 -0.909639 0
M  V30 6175 H 587.958 -2.01045 0.685165 0
M  V30 6176 H 590.221 -0.915536 0.245962 0
M  V30 6177 H 589.927 -3.50165 0.328208 0
M  V30 6178 H 589.801 -3.49369 -1.422 0
M  V30 6179 H 592.188 -2.51032 -1.55136 0
M  V30 6180 H 592.269 -2.54888 0.215783 0
M  V30 6181 H 591.913 -5.07664 0.154664 0
M  V30 6182 H 591.843 -5.00926 -1.6242 0
M  V30 6183 H 594.334 -3.69868 -0.77499 0
M  V30 6184 H 594.647 -7.66718 -0.967654 0
M  V30 6185 H 592.992 -6.89443 -0.877132 0
M  V30 6186 H 596.183 -4.59804 -0.877353 0
M  V30 6187 H 596.356 -6.40768 -0.965434 0
M  V30 6188 N 589.762 0.448376 -1.51087 0
M  V30 6189 C 591.011 1.19561 -1.62444 0
M  V30 6190 C 591.324 1.92602 -0.341151 0
M  V30 6191 O 592.53 2.69439 -0.333936 0
M  V30 6192 C 590.986 2.17373 -2.8684 0
M  V30 6193 C 590.594 1.5003 -4.22131 0
M  V30 6194 C 592.338 2.92597 -3.0755 0
M  V30 6195 C 590.245 2.46262 -5.37689 0
M  V30 6196 H 589.175 0.449975 -0.605011 0
M  V30 6197 H 591.826 0.463735 -1.77544 0
M  V30 6198 H 590.208 2.93948 -2.65349 0
M  V30 6199 H 591.382 0.790886 -4.53962 0
M  V30 6200 H 589.697 0.870011 -4.0721 0
M  V30 6201 H 592.294 3.64663 -3.91056 0
M  V30 6202 H 592.637 3.53306 -2.20183 0
M  V30 6203 H 593.17 2.23131 -3.29329 0
M  V30 6204 H 589.909 1.90258 -6.27281 0
M  V30 6205 H 589.429 3.15289 -5.10248 0
M  V30 6206 H 591.108 3.07623 -5.6919 0
M  V30 6207 N 591.24 1.41047 0.703093 0
M  V30 6208 C 592.488 1.39723 1.4602 0
M  V30 6209 C 592.809 0.00461257 1.94999 0
M  V30 6210 O 592.079 -0.952292 1.71196 0
M  V30 6211 H 590.659 0.514281 0.541779 0
M  V30 6212 H 593.321 1.76217 0.832678 0
M  V30 6213 H 592.417 2.07982 2.32701 0
M  V30 6214 N 592.718 -0.936591 1.26751 0
M  V30 6215 C 593.965 -1.68331 1.12566 0
M  V30 6216 C 594.293 -1.91677 -0.330168 0
M  V30 6217 O 593.548 -1.49859 -1.2586 0
M  V30 6218 C 593.847 -3.06099 1.84494 0
M  V30 6219 C 593.513 -3.02493 3.34378 0
M  V30 6220 C 592.175 -3.01217 3.75262 0
M  V30 6221 C 594.527 -2.94453 4.30055 0
M  V30 6222 C 591.855 -2.89672 5.10203 0
M  V30 6223 C 594.207 -2.84449 5.65041 0
M  V30 6224 C 592.871 -2.81518 6.0523 0
M  V30 6225 H 592.141 -0.615965 0.411907 0
M  V30 6226 H 594.788 -1.09292 1.5725 0
M  V30 6227 H 593.093 -3.6879 1.32292 0
M  V30 6228 H 594.79 -3.62733 1.70955 0
M  V30 6229 H 591.38 -3.04269 3.01858 0
M  V30 6230 H 595.564 -2.94544 3.99447 0
M  V30 6231 H 590.82 -2.85783 5.40498 0
M  V30 6232 H 594.994 -2.77192 6.38856 0
M  V30 6233 H 592.621 -2.72329 7.09747 0
M  V30 6234 N 594.196 -1.08629 -1.14182 0
M  V30 6235 C 595.159 -0.722027 -2.1753 0
M  V30 6236 C 596.159 0.244305 -1.58933 0
M  V30 6237 O 597.349 0.0235545 -1.74184 0
M  V30 6238 C 594.481 -0.0663966 -3.40835 0
M  V30 6239 H 595.674 -1.63719 -2.51269 0
M  V30 6240 H 593.227 -0.884442 -1.28869 0
M  V30 6241 H 593.962 0.860389 -3.12678 0
M  V30 6242 H 593.747 -0.761598 -3.84632 0
M  V30 6243 H 595.237 0.173346 -4.1724 0
M  V30 6244 N 595.674 1.31259 -0.872281 0
M  V30 6245 C 596.604 2.30929 -0.345554 0
M  V30 6246 C 597.585 1.60449 0.5648 0
M  V30 6247 O 598.77 1.8814 0.481335 0
M  V30 6248 C 595.9 3.44348 0.451823 0
M  V30 6249 C 594.854 4.26435 -0.365641 0
M  V30 6250 C 594.18 5.31785 0.557562 0
M  V30 6251 C 595.48 4.97159 -1.60095 0
M  V30 6252 H 597.174 2.75234 -1.17841 0
M  V30 6253 H 594.72 1.3232 -0.568094 0
M  V30 6254 H 596.673 4.13128 0.830854 0
M  V30 6255 H 595.397 2.98816 1.31821 0
M  V30 6256 H 594.056 3.59326 -0.726649 0
M  V30 6257 H 593.704 4.82502 1.4213 0
M  V30 6258 H 593.404 5.87598 0.0144878 0
M  V30 6259 H 594.928 6.03424 0.933387 0
M  V30 6260 H 596.342 5.58523 -1.29323 0
M  V30 6261 H 594.739 5.62779 -2.08327 0
M  V30 6262 H 595.809 4.24012 -2.35249 0
M  V30 6263 N 597.152 0.631951 1.44375 0
M  V30 6264 C 598.115 -0.0628142 2.29114 0
M  V30 6265 C 599.115 -0.771494 1.41084 0
M  V30 6266 O 600.305 -0.615959 1.62947 0
M  V30 6267 C 597.437 -1.09953 3.22681 0
M  V30 6268 H 598.63 0.682509 2.92031 0
M  V30 6269 H 596.183 0.392128 1.51301 0
M  V30 6270 H 596.918 -1.87481 2.64616 0
M  V30 6271 H 596.703 -0.595286 3.87555 0
M  V30 6272 H 598.193 -1.58538 3.86336 0
M  V30 6273 N 598.631 -1.53133 0.372548 0
M  V30 6274 C 600.047 -1.59585 0.02178 0
M  V30 6275 C 600.247 -1.38736 -1.46132 0
M  V30 6276 O 599.303 -1.19599 -2.22379 0
M  V30 6277 C 600.616 -2.9678 0.483959 0
M  V30 6278 C 602.164 -3.09909 0.438775 0
M  V30 6279 C 602.639 -4.49527 0.876876 0
M  V30 6280 N 604.13 -4.55663 0.832214 0
M  V30 6281 C 604.865 -5.61896 1.14281 0
M  V30 6282 N 604.361 -6.75852 1.52303 0
M  V30 6283 N 606.154 -5.51916 1.06515 0
M  V30 6284 H 598.305 -1.64936 1.33827 0
M  V30 6285 H 600.568 -0.773947 0.547458 0
M  V30 6286 H 600.274 -3.17198 1.51915 0
M  V30 6287 H 600.148 -3.7699 -0.125784 0
M  V30 6288 H 602.535 -2.89197 -0.587294 0
M  V30 6289 H 602.616 -2.31691 1.0841 0
M  V30 6290 H 602.26 -4.70979 1.90109 0
M  V30 6291 H 602.19 -5.26186 0.208727 0
M  V30 6292 H 604.681 -3.73844 0.552195 0
M  V30 6293 H 604.994 -7.52862 1.7441 0
M  V30 6294 H 603.339 -6.77226 1.56175 0
M  V30 6295 H 606.53 -4.6177 0.767235 0
M  V30 6296 H 606.703 -6.34609 1.31053 0
M  V30 6297 O 600.148 -0.242051 -1.59676 0
M  V30 6298 H 600.839 0.334494 -1.9079 0
M  V30 END ATOM
M  V30 BEGIN BOND
M  V30 END BOND
M  V30 END CTAB
M  END
$$$$
