drugbank_target|P61626 Lysozyme C (DB00128; DB02159; DB02759; DB02772; DB03006; DB03013; DB03120; DB03175; DB03189; DB03487; DB03967; DB04194; DB04268; DB06912)
 OpenBabel12092120383D

  0  0  0     0  0            999 V3000
M  V30 BEGIN CTAB
M  V30 COUNTS 2312 2332 0 0 0
M  V30 BEGIN ATOM
M  V30 1 H -0.908 1.98254 -0.117106 0
M  V30 2 N 0 1.576 0 0
M  V30 3 C 0.933 2.03868 1.02534 0
M  V30 4 C 1.911 0.928543 1.3348 0
M  V30 5 O 3.095 1.19667 1.45644 0
M  V30 6 C 0.222 2.43627 2.35294 0
M  V30 7 C -0.732 3.65373 2.2001 0
M  V30 8 S 0.101 5.13292 1.52614 0
M  V30 9 C 1.257 5.56322 2.86805 0
M  V30 10 H 1.49 2.90518 0.631377 0
M  V30 11 H -0.977 1.52953 0.210867 0
M  V30 12 H 0.981 2.67203 3.11629 0
M  V30 13 H -0.358 1.57376 2.7183 0
M  V30 14 H -1.165 3.90944 3.18086 0
M  V30 15 H -1.563 3.418 1.51819 0
M  V30 16 H 0.729 5.58782 3.83104 0
M  V30 17 H 1.672 6.56266 2.65933 0
M  V30 18 H 2.08 4.83886 2.90714 0
M  V30 19 N 1.4781 -0.272755 1.55222 0
M  V30 20 C 2.4251 -1.33716 1.88119 0
M  V30 21 C 3.3951 -1.49066 0.73271 0
M  V30 22 O 4.5801 -1.63469 0.984002 0
M  V30 23 C 1.7201 -2.69238 2.15882 0
M  V30 24 C 0.8331 -2.62108 3.43399 0
M  V30 25 C -0.0319 -3.89811 3.60861 0
M  V30 26 C -0.9929 -3.77193 4.8207 0
M  V30 27 N -1.8559 -4.9673 4.96189 0
M  V30 28 H 2.9841 -1.04962 2.78903 0
M  V30 29 H 0.5211 -0.507088 1.38083 0
M  V30 30 H 2.4791 -3.48089 2.29978 0
M  V30 31 H 1.1091 -2.96194 1.28331 0
M  V30 32 H 0.1611 -1.74967 3.37773 0
M  V30 33 H 1.4731 -2.48685 4.32386 0
M  V30 34 H 0.6271 -4.77103 3.74777 0
M  V30 35 H -0.6339 -4.06102 2.7006 0
M  V30 36 H -1.6289 -2.88284 4.68159 0
M  V30 37 H -0.4039 -3.62421 5.74307 0
M  V30 38 H -2.4579 -5.13431 4.08319 0
M  V30 39 H -2.5409 -4.85839 5.79221 0
M  V30 40 H -1.2729 -5.85594 5.1449 0
M  V30 41 N 2.9562 -1.48159 -0.537278 0
M  V30 42 C 3.9192 -1.61665 -1.62472 0
M  V30 43 C 4.9192 -0.490395 -1.5314 0
M  V30 44 O 6.1092 -0.755998 -1.5694 0
M  V30 45 C 3.2412 -1.57997 -3.02076 0
M  V30 46 H 4.4342 -2.58621 -1.51839 0
M  V30 47 H 1.9872 -1.36647 -0.758771 0
M  V30 48 H 2.7222 -0.624913 -3.18222 0
M  V30 49 H 2.5072 -2.39755 -3.10258 0
M  V30 50 H 3.9972 -1.70627 -3.81151 0
M  V30 51 N 4.4343 0.785586 -1.36625 0
M  V30 52 C 5.3643 1.91259 -1.33949 0
M  V30 53 C 6.3453 1.68795 -0.210325 0
M  V30 54 O 7.5303 1.89854 -0.408561 0
M  V30 55 C 4.6603 3.28339 -1.13186 0
M  V30 56 C 3.6143 3.65335 -2.22967 0
M  V30 57 C 2.9403 5.00806 -1.87342 0
M  V30 58 C 4.2403 3.7352 -3.65075 0
M  V30 59 H 5.9343 1.93755 -2.28253 0
M  V30 60 H 3.4803 0.930788 -1.09874 0
M  V30 61 H 5.4333 4.06804 -1.09948 0
M  V30 62 H 4.1573 3.2624 -0.153332 0
M  V30 63 H 2.8163 2.89169 -2.25337 0
M  V30 64 H 2.4643 4.95233 -0.880545 0
M  V30 65 H 2.1643 5.26529 -2.60846 0
M  V30 66 H 3.6883 5.81687 -1.85667 0
M  V30 67 H 5.1023 4.42168 -3.64911 0
M  V30 68 H 3.4993 4.10731 -4.37516 0
M  V30 69 H 4.5693 2.74527 -3.99703 0
M  V30 70 N 5.9124 1.20967 1.01018 0
M  V30 71 C 7.1614 1.01796 1.74128 0
M  V30 72 C 7.4744 -0.449691 1.90361 0
M  V30 73 O 8.6804 -0.76068 2.60626 0
M  V30 74 C 7.1364 1.7727 3.13215 0
M  V30 75 C 6.7444 3.28171 3.04972 0
M  V30 76 C 8.4884 1.66489 3.90489 0
M  V30 77 C 6.3954 3.96156 4.39107 0
M  V30 78 H 5.3254 0.377276 0.652824 0
M  V30 79 H 7.9764 1.44651 1.12909 0
M  V30 80 H 6.3584 1.27205 3.75013 0
M  V30 81 H 7.5324 3.85499 2.52443 0
M  V30 82 H 5.8474 3.39437 2.41188 0
M  V30 83 H 8.4444 2.14617 4.89738 0
M  V30 84 H 8.7874 0.6222 4.11624 0
M  V30 85 H 9.3204 2.14003 3.35332 0
M  V30 86 H 6.0594 5.00604 4.23174 0
M  V30 87 H 5.5794 3.43617 4.91617 0
M  V30 88 H 7.2584 4.00774 5.07926 0
M  V30 89 N 7.3905 -1.2043 1.01659 0
M  V30 90 C 8.6365 -1.90079 0.706963 0
M  V30 91 C 8.9695 -1.78648 -0.761474 0
M  V30 92 O 8.2445 -1.17069 -1.55323 0
M  V30 93 C 8.5275 -3.41469 1.14327 0
M  V30 94 C 8.3805 -3.61833 2.67201 0
M  V30 95 C 9.6995 -4.34261 0.714529 0
M  V30 96 H 6.8185 -0.690254 0.2583 0
M  V30 97 H 9.4605 -1.41826 1.26433 0
M  V30 98 H 7.6105 -3.82696 0.669056 0
M  V30 99 H 9.2825 -3.2986 3.22475 0
M  V30 100 H 7.5255 -3.05304 3.08175 0
M  V30 101 H 8.1965 -4.67955 2.92783 0
M  V30 102 H 10.6725 -4.00682 1.12221 0
M  V30 103 H 9.5485 -5.38806 1.04784 0
M  V30 104 H 9.8095 -4.40431 -0.383799 0
M  V30 105 N 8.8686 -0.792821 -1.36206 0
M  V30 106 C 9.7986 -0.207853 -2.32573 0
M  V30 107 C 10.7796 0.659055 -1.56813 0
M  V30 108 O 11.9646 0.592176 -1.84951 0
M  V30 109 C 9.0946 0.655449 -3.41059 0
M  V30 110 C 8.0486 -0.111842 -4.27854 0
M  V30 111 C 7.3746 0.872274 -5.27537 0
M  V30 112 C 8.6746 -1.30299 -5.05786 0
M  V30 113 H 10.3686 -1.01294 -2.81744 0
M  V30 114 H 7.9146 -0.48854 -1.3546 0
M  V30 115 H 9.8676 1.07464 -4.07467 0
M  V30 116 H 8.5916 1.49328 -2.90463 0
M  V30 117 H 7.2506 -0.512053 -3.63006 0
M  V30 118 H 6.8986 1.70523 -4.73214 0
M  V30 119 H 6.5986 0.363291 -5.86476 0
M  V30 120 H 8.1226 1.28996 -5.96818 0
M  V30 121 H 9.5366 -0.959379 -5.65216 0
M  V30 122 H 7.9336 -1.7455 -5.74154 0
M  V30 123 H 9.0036 -2.09663 -4.37229 0
M  V30 124 N 10.3467 1.47872 -0.545128 0
M  V30 125 C 11.5947 2.02093 -0.016553 0
M  V30 126 C 11.9157 1.42305 1.3332 0
M  V30 127 O 11.1857 0.593853 1.86682 0
M  V30 128 H 9.7657 0.746993 -0.00313038 0
M  V30 129 H 12.4277 1.81414 -0.712397 0
M  V30 130 H 11.5237 3.11996 0.0805422 0
M  V30 131 N 11.8248 0.280983 1.55075 0
M  V30 132 C 12.7548 -0.597469 2.25727 0
M  V30 133 C 13.7358 -1.15417 1.24952 0
M  V30 134 O 14.9208 -1.18722 1.53684 0
M  V30 135 C 12.0508 -1.7789 2.98283 0
M  V30 136 C 11.0048 -1.35347 4.06036 0
M  V30 137 C 10.3308 -2.61846 4.66198 0
M  V30 138 C 11.6308 -0.499354 5.19907 0
M  V30 139 H 13.3248 -0.00824265 2.99399 0
M  V30 140 H 10.8708 -0.0025244 1.44 0
M  V30 141 H 12.8238 -2.39937 3.46422 0
M  V30 142 H 11.5478 -2.39405 2.22155 0
M  V30 143 H 10.2068 -0.756156 3.58717 0
M  V30 144 H 9.8548 -3.21632 3.86732 0
M  V30 145 H 9.5548 -2.3409 5.38958 0
M  V30 146 H 11.0788 -3.24732 5.1709 0
M  V30 147 H 12.4928 -1.02498 5.64063 0
M  V30 148 H 10.8898 -0.316424 5.99265 0
M  V30 149 H 11.9598 0.480459 4.82514 0
M  V30 150 N 13.3029 -1.57598 0.00835791 0
M  V30 151 C 14.5489 -1.91211 -0.675732 0
M  V30 152 C 14.8819 -0.883139 -1.72958 0
M  V30 153 O 14.1569 0.097016 -1.94258 0
M  V30 154 C 14.4399 -3.35379 -1.31123 0
M  V30 155 C 14.2929 -4.48999 -0.268356 0
M  V30 156 C 15.6119 -3.7912 -2.23508 0
M  V30 157 H 12.7309 -0.695374 -0.244179 0
M  V30 158 H 15.3729 -1.89901 0.0613655 0
M  V30 159 H 13.5229 -3.36626 -1.93946 0
M  V30 160 H 15.1949 -4.59887 0.360844 0
M  V30 161 H 13.4379 -4.31873 0.408482 0
M  V30 162 H 14.1089 -5.46851 -0.752218 0
M  V30 163 H 16.5849 -3.79477 -1.70693 0
M  V30 164 H 15.4609 -4.80729 -2.64936 0
M  V30 165 H 15.7219 -3.13455 -3.11766 0
M  V30 166 N 14.781 0.264519 -1.55364 0
M  V30 167 C 15.711 1.33121 -1.91836 0
M  V30 168 C 16.692 1.51101 -0.781192 0
M  V30 169 O 17.877 1.64003 -1.04003 0
M  V30 170 C 15.007 2.68921 -2.19769 0
M  V30 171 C 13.961 2.65661 -3.35571 0
M  V30 172 C 13.287 4.05093 -3.49004 0
M  V30 173 C 14.587 2.24187 -4.71739 0
M  V30 174 H 16.281 1.02844 -2.81182 0
M  V30 175 H 13.827 0.493286 -1.35287 0
M  V30 176 H 15.78 3.43663 -2.43872 0
M  V30 177 H 14.504 3.00799 -1.27231 0
M  V30 178 H 13.163 1.93377 -3.1145 0
M  V30 179 H 12.811 4.34206 -2.53917 0
M  V30 180 H 12.511 4.03804 -4.26868 0
M  V30 181 H 14.035 4.81561 -3.75408 0
M  V30 182 H 15.449 2.88654 -4.9533 0
M  V30 183 H 13.846 2.34044 -5.52579 0
M  V30 184 H 14.916 1.19327 -4.69988 0
M  V30 185 N 16.2591 1.48442 0.529413 0
M  V30 186 C 17.1891 1.65902 1.64313 0
M  V30 187 C 18.1701 0.507897 1.6234 0
M  V30 188 O 19.3551 0.740503 1.79528 0
M  V30 189 C 16.4851 1.69911 3.02898 0
M  V30 190 C 15.4391 2.8453 3.19729 0
M  V30 191 C 14.7651 2.73629 4.59381 0
M  V30 192 C 16.0651 4.25821 3.02447 0
M  V30 193 H 17.7591 2.5914 1.49955 0
M  V30 194 H 15.3051 1.24709 0.719982 0
M  V30 195 H 17.2581 1.80715 3.80684 0
M  V30 196 H 15.9821 0.732524 3.18279 0
M  V30 197 H 14.6411 2.73283 2.44361 0
M  V30 198 H 14.2891 1.74938 4.71599 0
M  V30 199 H 13.9891 3.50541 4.71588 0
M  V30 200 H 15.5131 2.86401 5.39265 0
M  V30 201 H 16.9271 4.37898 3.70024 0
M  V30 202 H 15.3241 5.03735 3.26146 0
M  V30 203 H 16.3941 4.42244 1.98867 0
M  V30 204 N 17.7372 -0.778329 1.37039 0
M  V30 205 C 18.9622 -1.57248 1.35233 0
M  V30 206 C 19.3872 -1.87999 -0.0615568 0
M  V30 207 O 18.7452 -1.48734 -1.03672 0
M  V30 208 C 18.7932 -2.86353 2.19167 0
M  V30 209 O 17.8972 -3.80442 1.59178 0
M  V30 210 H 17.2382 -0.476569 0.462362 0
M  V30 211 H 19.7682 -0.963853 1.80474 0
M  V30 212 H 19.7782 -3.35519 2.32145 0
M  V30 213 H 18.4532 -2.63299 3.21942 0
M  V30 214 H 17.0302 -3.39067 1.55203 0
M  V30 215 N 19.2153 -1.21501 -1.00376 0
M  V30 216 C 20.4613 -1.03452 -1.74429 0
M  V30 217 C 20.7943 0.430764 -1.89362 0
M  V30 218 O 20.0693 1.31962 -1.42886 0
M  V30 219 C 20.3523 -1.73375 -3.15615 0
M  V30 220 C 20.2053 -3.27431 -3.08397 0
M  V30 221 C 21.5243 -1.47732 -4.14564 0
M  V30 222 H 18.6433 -0.377226 -0.633143 0
M  V30 223 H 21.2853 -1.49693 -1.17013 0
M  V30 224 H 19.4353 -1.34064 -3.64636 0
M  V30 225 H 21.1073 -3.76119 -2.67081 0
M  V30 226 H 19.3503 -3.5767 -2.45468 0
M  V30 227 H 20.0213 -3.71524 -4.08258 0
M  V30 228 H 22.4973 -1.8186 -3.74254 0
M  V30 229 H 21.3733 -1.99169 -5.11491 0
M  V30 230 H 21.6343 -0.407589 -4.40217 0
M  V30 231 N 20.6934 1.19889 -1.02296 0
M  V30 232 C 21.9214 1.9339 -0.735399 0
M  V30 233 C 22.3364 1.75148 0.704887 0
M  V30 234 O 21.6934 1.06954 1.47875 0
M  V30 235 C 21.7444 3.45313 -1.06962 0
M  V30 236 O 21.4654 3.62964 -2.45334 0
M  V30 237 C 22.9664 4.35948 -0.804021 0
M  V30 238 H 20.1864 0.61448 -0.269546 0
M  V30 239 H 22.7304 1.522 -1.36585 0
M  V30 240 H 20.8854 3.84359 -0.484455 0
M  V30 241 H 21.2994 4.56886 -2.57595 0
M  V30 242 H 22.7734 5.41174 -1.0879 0
M  V30 243 H 23.2504 4.3842 0.261691 0
M  V30 244 H 23.8564 4.02574 -1.37164 0
M  V30 245 N 22.1715 0.800033 1.35784 0
M  V30 246 C 23.4175 0.377901 1.99248 0
M  V30 247 C 23.7505 -1.05052 1.63333 0
M  V30 248 O 23.0255 -1.72768 0.893385 0
M  V30 249 C 23.3085 0.553922 3.55814 0
M  V30 250 C 23.1615 2.0268 4.01548 0
M  V30 251 C 24.4805 -0.0244802 4.40093 0
M  V30 252 H 21.5995 0.138782 0.723815 0
M  V30 253 H 24.2415 1.00835 1.61035 0
M  V30 254 H 22.3915 0.0172398 3.88496 0
M  V30 255 H 24.0635 2.62536 3.79305 0
M  V30 256 H 22.3065 2.5256 3.52698 0
M  V30 257 H 22.9775 2.10087 5.10458 0
M  V30 258 H 25.4535 0.433775 4.13833 0
M  V30 259 H 24.3295 0.128637 5.48749 0
M  V30 260 H 24.5905 -1.11758 4.27741 0
M  V30 261 N 23.6496 -1.47581 0.552962 0
M  V30 262 C 24.5816 -2.27997 -0.234533 0
M  V30 263 C 25.5946 -1.36753 -0.883321 0
M  V30 264 O 26.7836 -1.61612 -0.757889 0
M  V30 265 C 23.8836 -3.10879 -1.34935 0
M  V30 266 C 23.0566 -4.30056 -0.798158 0
M  V30 267 C 22.1156 -4.94567 -1.79694 0
M  V30 268 O 21.1416 -5.53087 -1.34474 0
M  V30 269 N 22.3436 -4.88878 -3.13015 0
M  V30 270 H 25.1086 -2.96222 0.455255 0
M  V30 271 H 22.6696 -1.57163 0.388761 0
M  V30 272 H 24.6616 -3.50903 -2.01616 0
M  V30 273 H 23.2316 -2.44924 -1.94244 0
M  V30 274 H 22.4516 -3.94174 0.0453079 0
M  V30 275 H 23.7396 -5.07152 -0.409173 0
M  V30 276 H 23.1376 -4.42526 -3.52402 0
M  V30 277 H 21.6946 -5.32934 -3.75266 0
M  V30 278 N 25.1277 -0.289203 -1.54924 0
M  V30 279 C 26.3757 0.322879 -1.99504 0
M  V30 280 C 26.6967 1.55313 -1.1791 0
M  V30 281 O 25.9667 1.94001 -0.272097 0
M  V30 282 H 24.5467 0.122291 -0.736922 0
M  V30 283 H 27.2087 -0.397802 -1.90797 0
M  V30 284 H 26.3047 0.603061 -3.06218 0
M  V30 285 N 26.6058 1.57591 -0.0167156 0
M  V30 286 C 27.5528 2.09462 0.969251 0
M  V30 287 C 28.5228 0.99381 1.33089 0
M  V30 288 O 29.7078 1.26726 1.42636 0
M  V30 289 C 26.8478 2.61622 2.25051 0
M  V30 290 C 25.9608 3.85666 1.94642 0
M  V30 291 C 25.0958 4.26266 3.16972 0
M  V30 292 C 24.1348 5.43101 2.82326 0
M  V30 293 N 23.2718 5.78915 3.97243 0
M  V30 294 H 28.1118 2.93428 0.519997 0
M  V30 295 H 25.6488 1.45044 0.245087 0
M  V30 296 H 27.6068 2.89949 2.99976 0
M  V30 297 H 26.2368 1.80505 2.67615 0
M  V30 298 H 25.2888 3.64145 1.10013 0
M  V30 299 H 26.6008 4.70678 1.65117 0
M  V30 300 H 25.7548 4.55963 4.00228 0
M  V30 301 H 24.4938 3.39996 3.49648 0
M  V30 302 H 23.4988 5.1311 1.97479 0
M  V30 303 H 24.7238 6.3106 2.50879 0
M  V30 304 H 22.6698 4.95602 4.29785 0
M  V30 305 H 22.5868 6.58539 3.71299 0
M  V30 306 H 23.8548 6.13212 4.81239 0
M  V30 307 N 28.0839 -0.256276 1.55502 0
M  V30 308 C 29.3299 -0.987079 1.77157 0
M  V30 309 C 29.6629 -1.85327 0.580315 0
M  V30 310 O 28.9379 -1.89874 -0.421686 0
M  V30 311 C 29.2209 -1.85553 3.08613 0
M  V30 312 C 29.0739 -1.01816 4.38125 0
M  V30 313 C 30.3929 -2.8397 3.36228 0
M  V30 314 H 27.5119 -0.357428 0.644526 0
M  V30 315 H 30.1539 -0.258239 1.88237 0
M  V30 316 H 28.3039 -2.47695 2.99298 0
M  V30 317 H 29.9759 -0.416159 4.59419 0
M  V30 318 H 28.2189 -0.322178 4.32602 0
M  V30 319 H 28.8899 -1.65939 5.26468 0
M  V30 320 H 31.3659 -2.31964 3.45445 0
M  V30 321 H 30.2419 -3.41864 4.29442 0
M  V30 322 H 30.5029 -3.59955 2.56681 0
M  V30 323 N 29.562 -1.4872 -0.521534 0
M  V30 324 C 30.809 -1.57168 -1.27689 0
M  V30 325 C 31.137 -0.249275 -1.92896 0
M  V30 326 O 30.392 0.761162 -1.80291 0
M  V30 327 C 30.691 -2.66497 -2.38148 0
M  V30 328 C 30.357 -4.08664 -1.90538 0
M  V30 329 C 29.019 -4.47357 -1.77271 0
M  V30 330 C 31.371 -4.97724 -1.54663 0
M  V30 331 C 28.699 -5.72905 -1.26478 0
M  V30 332 C 31.051 -6.2377 -1.05329 0
M  V30 333 C 29.715 -6.61311 -0.906861 0
M  V30 334 H 28.985 -0.575117 -0.467249 0
M  V30 335 H 31.632 -1.82472 -0.581051 0
M  V30 336 H 29.937 -2.35085 -3.13437 0
M  V30 337 H 31.634 -2.70246 -2.96257 0
M  V30 338 H 28.224 -3.78111 -2.01816 0
M  V30 339 H 32.408 -4.68501 -1.63768 0
M  V30 340 H 27.664 -6.00709 -1.13835 0
M  V30 341 H 31.838 -6.9217 -0.76644 0
M  V30 342 H 29.465 -7.5848 -0.511083 0
M  V30 343 N 31.0401 0.771051 -1.3745 0
M  V30 344 C 31.9501 1.91538 -1.35464 0
M  V30 345 C 32.9661 1.72134 -0.254123 0
M  V30 346 O 34.1421 1.95358 -0.489626 0
M  V30 347 C 31.2071 3.26671 -1.16134 0
M  V30 348 C 30.2681 3.58723 -2.35831 0
M  V30 349 C 29.5011 4.87409 -2.17413 0
M  V30 350 O 29.7241 5.58506 -1.15876 0
M  V30 351 O 28.6581 5.18539 -3.05615 0
M  V30 352 H 32.4841 1.96165 -2.31847 0
M  V30 353 H 30.0691 0.9139 -1.18187 0
M  V30 354 H 31.9511 4.07499 -1.07345 0
M  V30 355 H 30.6261 3.22894 -0.228251 0
M  V30 356 H 29.5331 2.78127 -2.50192 0
M  V30 357 H 30.8661 3.67243 -3.27709 0
M  V30 358 N 32.5182 1.22032 0.997298 0
M  V30 359 C 33.9342 0.979326 1.26021 0
M  V30 360 C 34.1342 -0.32972 1.98784 0
M  V30 361 O 33.1902 -1.05345 2.29475 0
M  V30 362 C 34.5032 2.17509 2.07631 0
M  V30 363 C 36.0512 2.21817 2.2083 0
M  V30 364 C 36.5262 3.40933 3.05825 0
M  V30 365 N 38.0172 3.41067 3.13412 0
M  V30 366 C 38.7522 4.29885 3.79455 0
M  V30 367 N 38.2482 5.28914 4.47462 0
M  V30 368 N 40.0412 4.17673 3.76173 0
M  V30 369 H 32.1922 2.06202 0.509352 0
M  V30 370 H 34.4552 0.90334 0.287541 0
M  V30 371 H 34.1612 3.12415 1.61524 0
M  V30 372 H 34.0352 2.17206 3.08385 0
M  V30 373 H 36.4222 1.27462 2.66153 0
M  V30 374 H 36.5032 2.2616 1.1952 0
M  V30 375 H 36.1472 4.35586 2.61203 0
M  V30 376 H 36.0772 3.33829 4.07266 0
M  V30 377 H 38.5682 2.69406 2.65007 0
M  V30 378 H 38.8812 5.92973 4.95583 0
M  V30 379 H 37.2262 5.32831 4.46224 0
M  V30 380 H 40.4172 3.39564 3.22202 0
M  V30 381 H 40.5902 4.87098 4.27363 0
M  V30 382 N 33.9963 -1.19345 1.0293 0
M  V30 383 C 35.2363 -1.90738 0.734727 0
M  V30 384 C 35.6003 -1.7785 -0.723414 0
M  V30 385 O 36.8013 -2.43844 -1.13108 0
M  V30 386 C 35.0723 -3.37569 1.17396 0
M  V30 387 S 36.6313 -4.27176 1.00329 0
M  V30 388 H 33.4493 -0.658771 0.267474 0
M  V30 389 H 36.0513 -1.4428 1.31922 0
M  V30 390 H 34.7553 -3.44475 2.23081 0
M  V30 391 H 34.2863 -3.8906 0.582772 0
M  V30 392 H 36.3013 -4.96126 -0.0859152 0
M  V30 393 N 35.4744 -0.807222 -1.35358 0
M  V30 394 C 36.3844 -0.219594 -2.3357 0
M  V30 395 C 37.4004 0.637734 -1.61892 0
M  V30 396 O 38.5764 0.549336 -1.93763 0
M  V30 397 C 35.6414 0.62158 -3.41083 0
M  V30 398 C 34.7024 -0.256315 -4.28534 0
M  V30 399 C 33.9354 0.544807 -5.30912 0
M  V30 400 O 34.1584 1.77944 -5.41934 0
M  V30 401 O 33.0924 -0.0646478 -6.01865 0
M  V30 402 H 36.9184 -1.03208 -2.85625 0
M  V30 403 H 34.5034 -0.569025 -1.38139 0
M  V30 404 H 36.3854 1.10067 -4.06772 0
M  V30 405 H 35.0604 1.41165 -2.91297 0
M  V30 406 H 33.9674 -0.782559 -3.65823 0
M  V30 407 H 35.3004 -1.01034 -4.81719 0
M  V30 408 N 36.9525 1.47285 -0.560781 0
M  V30 409 C 37.8825 2.32857 0.173105 0
M  V30 410 C 38.8635 1.44009 0.905281 0
M  V30 411 O 40.0485 1.7286 0.885046 0
M  V30 412 C 37.1785 3.25861 1.20133 0
M  V30 413 C 36.1325 4.23978 0.585388 0
M  V30 414 C 35.4585 5.06332 1.7185 0
M  V30 415 C 36.7585 5.20242 -0.463178 0
M  V30 416 H 38.4525 2.94466 -0.541307 0
M  V30 417 H 35.9985 1.41601 -0.261764 0
M  V30 418 H 37.9515 3.84569 1.72293 0
M  V30 419 H 36.6755 2.62315 1.94573 0
M  V30 420 H 35.3345 3.66501 0.085054 0
M  V30 421 H 34.9825 4.39186 2.45203 0
M  V30 422 H 34.6825 5.72762 1.31213 0
M  V30 423 H 36.2065 5.67899 2.24329 0
M  V30 424 H 37.6205 5.73293 -0.027502 0
M  V30 425 H 36.0175 5.94896 -0.788627 0
M  V30 426 H 37.0875 4.65504 -1.35773 0
M  V30 427 N 38.4306 0.297415 1.54768 0
M  V30 428 C 39.3936 -0.567375 2.22066 0
M  V30 429 C 40.3936 -1.06409 1.20556 0
M  V30 430 O 41.5836 -0.960691 1.45315 0
M  V30 431 C 38.7156 -1.78517 2.90421 0
M  V30 432 H 39.9086 0.0205534 2.99893 0
M  V30 433 H 37.4616 0.0482163 1.56226 0
M  V30 434 H 38.1966 -2.41303 2.16664 0
M  V30 435 H 37.9816 -1.43669 3.64831 0
M  V30 436 H 39.4716 -2.39964 3.41771 0
M  V30 437 N 39.9087 -1.5758 0.0250728 0
M  V30 438 C 41.3247 -1.56124 -0.331282 0
M  V30 439 C 41.5247 -1.03029 -1.73169 0
M  V30 440 O 40.5807 -0.675215 -2.43305 0
M  V30 441 C 41.8937 -3.00139 -0.183584 0
M  V30 442 C 43.4417 -3.11946 -0.256654 0
M  V30 443 C 43.9167 -4.57793 -0.137792 0
M  V30 444 N 45.4077 -4.6279 -0.194904 0
M  V30 445 C 46.1427 -5.7326 -0.126655 0
M  V30 446 N 45.6387 -6.928 -0.00755288 0
M  V30 447 N 47.4317 -5.61811 -0.180348 0
M  V30 448 H 39.5827 -1.90424 0.94087 0
M  V30 449 H 41.8457 -0.875761 0.362968 0
M  V30 450 H 41.5517 -3.4292 0.780927 0
M  V30 451 H 41.4257 -3.64899 -0.955448 0
M  V30 452 H 43.8127 -2.69079 -1.21162 0
M  V30 453 H 43.8937 -2.49915 0.545517 0
M  V30 454 H 43.5377 -5.01339 0.813739 0
M  V30 455 H 43.4677 -5.17798 -0.958775 0
M  V30 456 H 45.9587 -3.76807 -0.287267 0
M  V30 457 H 46.2717 -7.72791 0.0379428 0
M  V30 458 H 44.6167 -6.94995 0.0271731 0
M  V30 459 H 47.8077 -4.6731 -0.271767 0
M  V30 460 H 47.9807 -6.47882 -0.123697 0
M  V30 461 N 41.3868 0.248026 -1.55636 0
M  V30 462 C 42.6148 0.993808 -1.81469 0
M  V30 463 C 43.0298 1.78991 -0.60064 0
M  V30 464 O 42.3868 1.77345 0.430682 0
M  V30 465 C 42.4378 1.93258 -3.05506 0
M  V30 466 O 42.1588 1.16869 -4.22224 0
M  V30 467 C 43.6598 2.79444 -3.4413 0
M  V30 468 H 40.8798 0.292486 -0.603898 0
M  V30 469 H 43.4238 0.271253 -2.02693 0
M  V30 470 H 41.5788 2.60943 -2.86335 0
M  V30 471 H 41.9928 1.80359 -4.92515 0
M  V30 472 H 43.4668 3.41066 -4.34026 0
M  V30 473 H 43.9438 3.50499 -2.64665 0
M  V30 474 H 44.5498 2.17214 -3.65648 0
M  V30 475 N 42.8649 1.48995 0.513639 0
M  V30 476 C 43.7949 1.67636 1.62544 0
M  V30 477 C 44.7759 0.525087 1.61793 0
M  V30 478 O 45.9609 0.759502 1.78732 0
M  V30 479 C 43.0909 1.73114 3.01079 0
M  V30 480 C 42.0449 2.87905 3.16693 0
M  V30 481 C 41.3709 2.78486 4.56453 0
M  V30 482 C 42.6709 4.29005 2.97913 0
M  V30 483 H 44.3649 2.60716 1.47198 0
M  V30 484 H 41.9109 1.25465 0.706714 0
M  V30 485 H 43.8639 1.84742 3.78746 0
M  V30 486 H 42.5879 0.766241 3.17484 0
M  V30 487 H 41.2469 2.75859 2.41448 0
M  V30 488 H 40.8949 1.7993 4.69717 0
M  V30 489 H 40.5949 3.55523 4.67843 0
M  V30 490 H 42.1189 2.92104 5.36197 0
M  V30 491 H 43.5329 4.41798 3.65359 0
M  V30 492 H 41.9299 5.07166 3.20785 0
M  V30 493 H 42.9999 4.44329 1.94165 0
M  V30 494 N 44.343 -0.763751 1.37857 0
M  V30 495 C 45.29 -1.87726 1.34267 0
M  V30 496 C 46.26 -1.64807 0.206879 0
M  V30 497 O 47.445 -1.86613 0.397508 0
M  V30 498 C 44.585 -3.24896 1.16346 0
M  V30 499 C 43.698 -3.59716 2.39225 0
M  V30 500 C 42.833 -4.86137 2.14114 0
M  V30 501 C 41.872 -5.13711 3.32817 0
M  V30 502 N 41.009 -6.31323 3.07206 0
M  V30 503 H 45.849 -1.90129 2.29466 0
M  V30 504 H 43.386 -0.929433 1.14017 0
M  V30 505 H 45.344 -4.04036 1.03975 0
M  V30 506 H 43.974 -3.21847 0.247909 0
M  V30 507 H 43.026 -2.75498 2.62307 0
M  V30 508 H 44.338 -3.76027 3.27728 0
M  V30 509 H 43.492 -5.73198 1.9882 0
M  V30 510 H 42.231 -4.71945 1.22961 0
M  V30 511 H 41.236 -4.25123 3.48641 0
M  V30 512 H 42.461 -5.29807 4.24832 0
M  V30 513 H 40.407 -6.18474 2.1869 0
M  V30 514 H 40.324 -6.48087 3.89254 0
M  V30 515 H 41.592 -7.213 2.95546 0
M  V30 516 N 45.8211 -1.22559 -0.990812 0
M  V30 517 C 47.2371 -0.985996 -1.255 0
M  V30 518 C 47.4371 0.319173 -1.98956 0
M  V30 519 O 46.4931 1.04127 -2.3003 0
M  V30 520 C 47.8061 -2.18607 -2.06474 0
M  V30 521 C 49.3541 -2.22985 -2.19651 0
M  V30 522 C 49.8291 -3.4255 -3.04012 0
M  V30 523 N 51.3201 -3.42725 -3.11599 0
M  V30 524 C 52.0551 -4.31892 -3.7717 0
M  V30 525 N 51.5511 -5.31279 -4.44651 0
M  V30 526 N 53.3441 -4.19662 -3.73952 0
M  V30 527 H 45.4951 -2.06469 -0.49841 0
M  V30 528 H 47.7581 -0.904853 -0.282747 0
M  V30 529 H 47.4641 -3.13267 -1.59865 0
M  V30 530 H 47.3381 -2.18838 -3.07229 0
M  V30 531 H 49.7251 -1.28871 -2.65474 0
M  V30 532 H 49.8061 -2.26791 -1.18319 0
M  V30 533 H 49.4501 -4.36965 -2.58889 0
M  V30 534 H 49.3801 -3.35984 -4.0549 0
M  V30 535 H 51.8711 -2.70807 -2.63575 0
M  V30 536 H 52.1841 -5.95593 -4.92431 0
M  V30 537 H 50.5291 -5.3519 -4.43392 0
M  V30 538 H 53.7201 -3.41268 -3.20396 0
M  V30 539 H 53.8931 -4.89358 -4.24774 0
M  V30 540 N 47.2992 1.18797 -1.03562 0
M  V30 541 C 48.2292 2.24472 -0.643019 0
M  V30 542 C 49.2102 1.66433 0.351283 0
M  V30 543 O 50.3952 1.92803 0.232505 0
M  V30 544 C 47.5252 3.473 4.24935e-05 0
M  V30 545 C 46.4792 4.18055 -0.917257 0
M  V30 546 C 45.8052 5.34519 -0.138941 0
M  V30 547 C 47.1052 4.72109 -2.23407 0
M  V30 548 H 48.7992 2.57566 -1.52643 0
M  V30 549 H 46.3452 1.23806 -0.735394 0
M  V30 550 H 48.2982 4.20426 0.286383 0
M  V30 551 H 47.0222 3.13424 0.918299 0
M  V30 552 H 45.6812 3.46821 -1.1879 0
M  V30 553 H 45.3292 4.96891 0.781562 0
M  V30 554 H 45.0292 5.82794 -0.750005 0
M  V30 555 H 46.5532 6.10438 0.1405 0
M  V30 556 H 47.9672 5.36955 -2.00879 0
M  V30 557 H 46.3642 5.30897 -2.79765 0
M  V30 558 H 47.4342 3.89807 -2.88407 0
M  V30 559 N 48.7773 0.814389 1.34928 0
M  V30 560 C 50.0253 0.397636 1.9815 0
M  V30 561 C 50.3463 -1.04069 1.64908 0
M  V30 562 O 49.6163 -1.72121 0.93548 0
M  V30 563 H 48.1963 0.144043 0.732981 0
M  V30 564 H 50.8583 1.04195 1.6471 0
M  V30 565 H 49.9543 0.509688 3.0791 0
M  V30 566 N 50.2554 -1.46986 0.568584 0
M  V30 567 C 51.1884 -2.27129 -0.220779 0
M  V30 568 C 52.1664 -1.34757 -0.909905 0
M  V30 569 O 53.3504 -1.64152 -0.926622 0
M  V30 570 C 50.4774 -3.12108 -1.31553 0
M  V30 571 C 49.5234 -4.20141 -0.733748 0
M  V30 572 S 50.3564 -5.33783 0.428479 0
M  V30 573 C 51.5124 -6.22327 -0.667811 0
M  V30 574 H 51.7454 -2.93731 0.459267 0
M  V30 575 H 49.2784 -1.5026 0.355154 0
M  V30 576 H 51.2364 -3.61636 -1.94241 0
M  V30 577 H 49.8974 -2.44847 -1.96746 0
M  V30 578 H 49.0904 -4.79373 -1.5562 0
M  V30 579 H 48.6924 -3.73553 -0.182812 0
M  V30 580 H 50.9844 -6.59364 -1.55708 0
M  V30 581 H 51.9274 -7.0801 -0.11258 0
M  V30 582 H 52.3354 -5.5618 -0.965601 0
M  V30 583 N 51.7335 -0.305618 -1.54608 0
M  V30 584 C 53.0105 0.355652 -1.92339 0
M  V30 585 C 53.3905 1.71324 -1.23335 0
M  V30 586 O 52.7385 2.25473 -0.370702 0
M  V30 587 C 52.9485 0.46572 -3.45879 0
M  V30 588 C 54.2965 0.734426 -4.182 0
M  V30 589 O 55.3205 0.54935 -3.51938 0
M  V30 590 O 54.1795 1.09024 -5.35515 0
M  V30 591 H 51.2735 0.199666 -0.802535 0
M  V30 592 H 53.8195 -0.354017 -1.65966 0
M  V30 593 H 52.5915 -0.488461 -3.88239 0
M  V30 594 H 52.2145 1.22367 -3.78301 0
M  V30 595 N 53.2116 1.57565 -0.0334293 0
M  V30 596 C 54.4596 1.91598 0.642999 0
M  V30 597 C 54.7806 0.910847 1.7242 0
M  V30 598 O 54.0506 -0.0469931 1.95844 0
M  V30 599 H 52.6306 0.707228 0.240496 0
M  V30 600 H 55.2926 1.94726 -0.0822488 0
M  V30 601 H 54.3886 2.92336 1.09298 0
M  V30 602 N 54.6897 -0.239769 1.55765 0
M  V30 603 C 55.9197 -0.982743 1.8173 0
M  V30 604 C 56.3277 -1.7917 0.607835 0
M  V30 605 O 55.6707 -1.78525 -0.432973 0
M  V30 606 C 55.7327 -1.96332 3.01155 0
M  V30 607 C 55.3967 -1.34062 4.36894 0
M  V30 608 C 56.3937 -0.739539 5.14613 0
M  V30 609 C 54.0787 -1.35784 4.83599 0
M  V30 610 C 56.0727 -0.163989 6.37189 0
M  V30 611 C 53.7597 -0.778441 6.06122 0
M  V30 612 C 54.7577 -0.182548 6.82756 0
M  V30 613 O 54.4457 0.387887 8.02964 0
M  V30 614 H 54.1777 -0.294481 0.608487 0
M  V30 615 H 56.7317 -0.26572 2.03674 0
M  V30 616 H 54.9617 -2.71884 2.74984 0
M  V30 617 H 56.6507 -2.57032 3.14149 0
M  V30 618 H 57.4167 -0.718687 4.79646 0
M  V30 619 H 53.2957 -1.81105 4.23936 0
M  V30 620 H 56.8397 0.301753 6.96947 0
M  V30 621 H 52.7367 -0.796645 6.40565 0
M  V30 622 H 53.5047 0.28044 8.18019 0
M  V30 623 N 56.1678 -1.49265 -0.50573 0
M  V30 624 C 57.5838 -1.35923 -0.836486 0
M  V30 625 C 57.7838 -0.388704 -1.97715 0
M  V30 626 O 56.8398 0.181336 -2.51848 0
M  V30 627 C 58.1528 -2.76531 -1.18115 0
M  V30 628 C 59.7008 -2.85197 -1.28964 0
M  V30 629 C 60.1758 -4.26561 -1.66761 0
M  V30 630 N 61.6668 -4.2935 -1.73819 0
M  V30 631 C 62.4018 -5.35693 -2.045 0
M  V30 632 N 61.8978 -6.52287 -2.33438 0
M  V30 633 N 63.6908 -5.23105 -2.05711 0
M  V30 634 H 55.8418 -2.10965 0.246519 0
M  V30 635 H 58.1048 -0.9468 0.0476887 0
M  V30 636 H 57.8108 -3.49226 -0.416398 0
M  V30 637 H 57.6848 -3.11599 -2.1257 0
M  V30 638 H 60.0718 -2.12742 -2.04511 0
M  V30 639 H 60.1528 -2.53718 -0.325704 0
M  V30 640 H 59.7968 -4.99541 -0.917656 0
M  V30 641 H 59.7268 -4.55502 -2.64246 0
M  V30 642 H 62.2178 -3.4526 -1.53635 0
M  V30 643 H 62.5308 -7.29158 -2.56024 0
M  V30 644 H 60.8758 -6.55521 -2.30905 0
M  V30 645 H 64.0668 -4.31026 -1.82577 0
M  V30 646 H 64.2398 -6.06078 -2.29289 0
M  V30 647 N 57.6459 0.756429 -1.3826 0
M  V30 648 C 58.8939 1.51248 -1.34047 0
M  V30 649 C 59.2149 1.94875 0.0698372 0
M  V30 650 O 58.4849 1.67436 1.01696 0
M  V30 651 H 57.0649 0.561018 -0.493222 0
M  V30 652 H 59.7269 0.899347 -1.7291 0
M  V30 653 H 58.8229 2.40472 -1.98947 0
M  V30 654 N 59.124 1.23083 0.984299 0
M  V30 655 C 60.373 1.05466 1.71929 0
M  V30 656 C 60.686 -0.409211 1.91272 0
M  V30 657 O 61.892 -0.705226 2.62181 0
M  V30 658 C 60.348 1.83874 3.09384 0
M  V30 659 C 59.956 3.34566 2.97943 0
M  V30 660 C 61.7 1.74734 3.8687 0
M  V30 661 C 59.607 4.05381 4.30605 0
M  V30 662 H 58.537 0.391039 0.644674 0
M  V30 663 H 61.188 1.47013 1.09815 0
M  V30 664 H 59.57 1.35131 3.72231 0
M  V30 665 H 60.744 3.90767 2.44209 0
M  V30 666 H 59.059 3.44476 2.33934 0
M  V30 667 H 61.656 2.24957 4.85076 0
M  V30 668 H 61.999 0.709372 4.10212 0
M  V30 669 H 62.532 2.21067 3.30717 0
M  V30 670 H 59.271 5.09467 4.1246 0
M  V30 671 H 58.791 3.53967 4.84218 0
M  V30 672 H 60.47 4.11458 4.99311 0
M  V30 673 N 60.6021 -1.18246 1.0419 0
M  V30 674 C 61.8271 -1.92736 0.765996 0
M  V30 675 C 62.2521 -1.75728 -0.67091 0
M  V30 676 O 61.6101 -1.06825 -1.46486 0
M  V30 677 C 61.6581 -3.42148 1.13875 0
M  V30 678 O 60.7621 -4.11548 0.264954 0
M  V30 679 H 60.1031 -0.601238 0.281797 0
M  V30 680 H 62.6331 -1.49942 1.39207 0
M  V30 681 H 62.6431 -3.92858 1.1012 0
M  V30 682 H 61.3181 -3.53848 2.18551 0
M  V30 683 H 59.8951 -3.71137 0.362226 0
M  V30 684 N 62.0802 -0.821533 -1.34494 0
M  V30 685 C 63.0102 -0.257138 -2.3208 0
M  V30 686 C 63.9912 0.625645 -1.58176 0
M  V30 687 O 65.1762 0.552811 -1.86166 0
M  V30 688 C 62.3062 0.582958 -3.42372 0
M  V30 689 C 61.2602 -0.202571 -4.2752 0
M  V30 690 C 60.5862 0.760179 -5.29269 0
M  V30 691 C 61.8862 -1.40998 -5.02908 0
M  V30 692 H 63.5802 -1.07247 -2.79532 0
M  V30 693 H 61.1262 -0.517163 -1.34393 0
M  V30 694 H 63.0792 0.987972 -4.09655 0
M  V30 695 H 61.8032 1.43133 -2.93565 0
M  V30 696 H 60.4622 -0.588936 -3.61838 0
M  V30 697 H 60.1102 1.60447 -4.76724 0
M  V30 698 H 59.8102 0.238809 -5.87115 0
M  V30 699 H 61.3342 1.16308 -5.9942 0
M  V30 700 H 62.7482 -1.07905 -5.63054 0
M  V30 701 H 61.1452 -1.86689 -5.70322 0
M  V30 702 H 62.2152 -2.1889 -4.32684 0
M  V30 703 N 63.5583 1.46682 -0.576371 0
M  V30 704 C 64.5213 2.28707 0.150239 0
M  V30 705 C 65.5213 1.38035 0.824794 0
M  V30 706 O 66.7113 1.60476 0.677719 0
M  V30 707 C 63.8433 3.18248 1.22192 0
M  V30 708 H 65.0363 2.94423 -0.570521 0
M  V30 709 H 62.5893 1.52688 -0.334078 0
M  V30 710 H 63.3243 2.57265 1.97447 0
M  V30 711 H 63.1093 3.85 0.742812 0
M  V30 712 H 64.5993 3.80001 1.73172 0
M  V30 713 N 65.0364 0.313813 1.54444 0
M  V30 714 C 65.9844 -0.572171 2.25453 0
M  V30 715 C 66.9784 -1.12657 1.2651 0
M  V30 716 O 68.1844 -1.07573 1.44319 0
M  V30 717 H 64.5594 -0.203146 0.724041 0
M  V30 718 H 66.5304 0.0491145 2.9836 0
M  V30 719 C 65.2794 -1.72626 3.0182 0
M  V30 720 H 64.6024 -1.30891 3.77767 0
M  V30 721 H 66.0424 -2.32199 3.54767 0
M  V30 722 C 64.5014 -2.63806 2.09542 0
M  V30 723 O 65.0314 -3.65256 1.67185 0
M  V30 724 N 63.2374 -2.31824 1.75232 0
M  V30 725 H 62.7844 -1.49368 2.09873 0
M  V30 726 H 62.7424 -2.93095 1.13767 0
M  V30 727 N 66.5145 -1.57545 0.0417849 0
M  V30 728 C 67.7605 -1.93424 -0.629168 0
M  V30 729 C 68.1155 -0.919564 -1.69002 0
M  V30 730 O 67.4085 0.0626178 -1.91498 0
M  V30 731 C 67.6025 -3.33794 -1.27735 0
M  V30 732 C 67.4315 -4.48822 -0.280806 0
M  V30 733 C 66.2015 -5.05148 0.123869 0
M  V30 734 C 68.3995 -5.12148 0.470012 0
M  V30 735 N 66.3815 -6.03703 1.11426 0
M  V30 736 C 67.7525 -6.05921 1.31377 0
M  V30 737 C 69.8075 -4.95078 0.529343 0
M  V30 738 C 68.5105 -6.84459 2.21152 0
M  V30 739 C 70.5365 -5.74235 1.41448 0
M  V30 740 C 69.8985 -6.67634 2.24598 0
M  V30 741 H 65.9975 -0.755418 -0.202158 0
M  V30 742 H 68.5815 -1.94378 0.111923 0
M  V30 743 H 66.7525 -3.33635 -1.98852 0
M  V30 744 H 68.4845 -3.56988 -1.90635 0
M  V30 745 H 65.2395 -4.72923 -0.253178 0
M  V30 746 H 65.6635 -6.57674 1.60607 0
M  V30 747 H 70.3055 -4.22683 -0.0992798 0
M  V30 748 H 68.0235 -7.56151 2.85063 0
M  V30 749 H 71.6095 -5.63057 1.46484 0
M  V30 750 H 70.4895 -7.27817 2.9198 0
M  V30 751 N 67.9926 0.231505 -1.5589 0
M  V30 752 C 68.9256 1.31369 -1.86595 0
M  V30 753 C 69.9036 1.45671 -0.722397 0
M  V30 754 O 71.0876 1.61642 -0.969743 0
M  V30 755 C 68.2146 2.68529 -2.06421 0
M  V30 756 C 67.2606 2.71295 -3.29092 0
M  V30 757 S 68.0936 2.26358 -4.85306 0
M  V30 758 C 69.2496 3.65414 -5.08157 0
M  V30 759 H 69.4826 1.05128 -2.78092 0
M  V30 760 H 67.0156 0.433259 -1.48197 0
M  V30 761 H 68.9736 3.47499 -2.18528 0
M  V30 762 H 67.6346 2.91999 -1.15738 0
M  V30 763 H 66.8276 3.72063 -3.39978 0
M  V30 764 H 66.4296 2.0038 -3.15791 0
M  V30 765 H 68.7216 4.6103 -4.96445 0
M  V30 766 H 69.6646 3.5945 -6.10083 0
M  V30 767 H 70.0726 3.5864 -4.35933 0
M  V30 768 N 69.4707 1.49531 0.497807 0
M  V30 769 C 70.7107 1.60799 1.26187 0
M  V30 770 C 71.0747 0.289627 1.89803 0
M  V30 771 O 72.2757 0.277512 2.67364 0
M  V30 772 C 70.5467 2.73729 2.29798 0
M  V30 773 S 72.1057 3.04968 3.155 0
M  V30 774 H 68.9237 0.567145 0.428798 0
M  V30 775 H 71.5257 1.87204 0.563477 0
M  V30 776 H 70.2297 3.68036 1.81597 0
M  V30 777 H 69.7607 2.49328 3.04301 0
M  V30 778 H 71.7757 2.46735 4.30507 0
M  V30 779 N 70.9488 -0.749086 1.3866 0
M  V30 780 C 71.8788 -1.8764 1.38973 0
M  V30 781 C 72.8598 -1.68178 0.255004 0
M  V30 782 O 74.0448 -1.88704 0.458754 0
M  V30 783 C 71.1748 -3.25222 1.21851 0
M  V30 784 C 70.1288 -3.59295 2.32575 0
M  V30 785 C 69.4548 -4.95663 2.00555 0
M  V30 786 C 70.7548 -3.63709 3.7485 0
M  V30 787 H 72.4488 -1.87635 2.3331 0
M  V30 788 H 69.9948 -0.901329 1.12303 0
M  V30 789 H 71.9478 -4.03746 1.20695 0
M  V30 790 H 70.6718 -3.25719 0.239775 0
M  V30 791 H 69.3308 -2.83093 2.32925 0
M  V30 792 H 68.9788 -4.92724 1.01154 0
M  V30 793 H 68.6788 -5.19429 2.74714 0
M  V30 794 H 70.2028 -5.7656 2.01024 0
M  V30 795 H 71.6168 -4.32338 3.76506 0
M  V30 796 H 70.0138 -3.98986 4.48252 0
M  V30 797 H 71.0838 -2.63834 4.06841 0
M  V30 798 N 72.4269 -1.23603 -0.977757 0
M  V30 799 C 73.3899 -1.02069 -2.05218 0
M  V30 800 C 74.3899 0.0184305 -1.60789 0
M  V30 801 O 75.5799 -0.221569 -1.72785 0
M  V30 802 C 72.7119 -0.544926 -3.36517 0
M  V30 803 H 73.9049 -1.9742 -2.25755 0
M  V30 804 H 71.4579 -1.05684 -1.15155 0
M  V30 805 H 72.1929 0.412241 -3.21669 0
M  V30 806 H 71.9779 -1.2948 -3.70105 0
M  V30 807 H 73.4679 -0.414985 -4.15533 0
M  V30 808 N 73.905 1.17692 -1.04816 0
M  V30 809 C 74.852 2.21581 -0.645797 0
M  V30 810 C 75.822 1.62367 0.350159 0
M  V30 811 O 77.007 1.89254 0.242433 0
M  V30 812 C 74.147 3.45092 -0.0227568 0
M  V30 813 C 73.26 4.18613 -1.06709 0
M  V30 814 C 72.395 5.29602 -0.411767 0
M  V30 815 C 71.434 5.94904 -1.44067 0
M  V30 816 N 70.571 6.97414 -0.809781 0
M  V30 817 H 75.411 2.55353 -1.5362 0
M  V30 818 H 72.948 1.25438 -0.768364 0
M  V30 819 H 74.906 4.15679 0.35588 0
M  V30 820 H 73.536 3.11917 0.831122 0
M  V30 821 H 72.588 3.46779 -1.5636 0
M  V30 822 H 73.9 4.63293 -1.84827 0
M  V30 823 H 73.054 6.06696 0.0206623 0
M  V30 824 H 71.793 4.86045 0.401438 0
M  V30 825 H 70.798 5.16544 -1.88316 0
M  V30 826 H 72.023 6.40542 -2.25571 0
M  V30 827 H 69.969 6.55998 -0.0170186 0
M  V30 828 H 69.886 7.40386 -1.52856 0
M  V30 829 H 71.154 7.78463 -0.401999 0
M  V30 830 N 75.3831 0.828654 1.34056 0
M  V30 831 C 76.6291 0.429279 1.98818 0
M  V30 832 C 76.9841 -0.998011 1.64492 0
M  V30 833 O 76.2771 -1.68652 0.909228 0
M  V30 834 C 76.4711 0.575226 3.52741 0
M  V30 835 C 76.3001 2.01515 4.02022 0
M  V30 836 C 75.0701 2.64825 4.30344 0
M  V30 837 C 77.2681 2.98261 4.18981 0
M  V30 838 N 75.2501 3.99998 4.65698 0
M  V30 839 C 76.6211 4.18356 4.57578 0
M  V30 840 C 78.6761 2.94802 4.01243 0
M  V30 841 C 77.3791 5.35454 4.80293 0
M  V30 842 C 79.4051 4.11121 4.25128 0
M  V30 843 C 78.7671 5.29969 4.64018 0
M  V30 844 H 74.8661 0.205304 0.754569 0
M  V30 845 H 77.4501 1.07457 1.62361 0
M  V30 846 H 75.6211 -0.0401962 3.88379 0
M  V30 847 H 77.3531 0.148292 4.04428 0
M  V30 848 H 74.1081 2.16027 4.21461 0
M  V30 849 H 74.5321 4.69653 4.87601 0
M  V30 850 H 79.1741 2.04054 3.70299 0
M  V30 851 H 76.8921 6.26755 5.10102 0
M  V30 852 H 80.4781 4.0985 4.12934 0
M  V30 853 H 79.3581 6.18479 4.82134 0
M  V30 854 N 76.8612 -1.46375 0.584142 0
M  V30 855 C 77.7712 -2.34115 -0.150728 0
M  V30 856 C 78.7872 -1.49838 -0.884567 0
M  V30 857 O 79.9632 -1.82704 -0.847429 0
M  V30 858 C 77.0282 -3.2705 -1.15062 0
M  V30 859 C 76.0892 -4.27228 -0.421293 0
M  V30 860 C 75.3222 -5.15722 -1.37355 0
M  V30 861 O 75.5452 -5.07176 -2.61014 0
M  V30 862 O 74.4792 -5.95383 -0.883355 0
M  V30 863 H 78.3052 -2.98309 0.569708 0
M  V30 864 H 75.8902 -1.45373 0.344535 0
M  V30 865 H 77.7722 -3.84381 -1.72712 0
M  V30 866 H 76.4472 -2.65451 -1.8525 0
M  V30 867 H 75.3542 -3.7358 0.197085 0
M  V30 868 H 76.6872 -4.91616 0.239641 0
M  V30 869 N 78.3393 -0.321999 -1.54275 0
M  V30 870 C 79.5643 0.285791 -2.05422 0
M  V30 871 C 79.9893 1.45124 -1.19669 0
M  V30 872 O 79.3473 1.80132 -0.205441 0
M  V30 873 C 79.3953 0.69956 -3.53749 0
M  V30 874 O 78.4993 1.8021 -3.70942 0
M  V30 875 H 77.8403 0.0518962 -0.661969 0
M  V30 876 H 80.3703 -0.469954 -1.9913 0
M  V30 877 H 80.3803 0.982649 -3.9599 0
M  V30 878 H 79.0553 -0.152864 -4.15619 0
M  V30 879 H 77.6323 1.51794 -3.40607 0
M  V30 880 N 79.8174 1.5752 -0.0501392 0
M  V30 881 C 81.0654 1.9227 0.622642 0
M  V30 882 C 81.3864 0.929083 1.71444 0
M  V30 883 O 80.6564 -0.0262186 1.95882 0
M  V30 884 H 79.2364 0.709739 0.232981 0
M  V30 885 H 81.8984 1.94628 -0.102898 0
M  V30 886 H 80.9944 2.93479 1.06191 0
M  V30 887 N 81.2955 -0.223234 1.56011 0
M  V30 888 C 82.5255 -0.963413 1.82762 0
M  V30 889 C 82.9335 -1.78516 0.626804 0
M  V30 890 O 82.2765 -1.78974 -0.414014 0
M  V30 891 C 82.3385 -1.93126 3.0322 0
M  V30 892 C 82.0025 -1.2942 4.38291 0
M  V30 893 C 82.9995 -0.684916 5.15369 0
M  V30 894 C 80.6845 -1.30647 4.85012 0
M  V30 895 C 82.6785 -0.0963971 6.37327 0
M  V30 896 C 80.3655 -0.71411 6.06913 0
M  V30 897 C 81.3635 -0.110123 6.82911 0
M  V30 898 O 81.0515 0.47303 8.02507 0
M  V30 899 H 80.7835 -0.288011 0.611576 0
M  V30 900 H 83.3375 -0.244103 2.03944 0
M  V30 901 H 81.5675 -2.68952 2.77852 0
M  V30 902 H 83.2565 -2.53685 3.16857 0
M  V30 903 H 84.0225 -0.667774 4.80381 0
M  V30 904 H 79.9015 -1.76598 4.25833 0
M  V30 905 H 83.4455 0.375657 6.96588 0
M  V30 906 H 79.3425 -0.728659 6.41374 0
M  V30 907 H 80.1105 0.367186 8.17676 0
M  V30 908 N 82.7736 -1.49793 -0.48987 0
M  V30 909 C 83.7216 -1.67783 -1.61095 0
M  V30 910 C 84.7156 -0.543683 -1.60438 0
M  V30 911 O 85.9216 -0.723647 -1.64813 0
M  V30 912 H 82.2966 -0.529255 -0.534222 0
M  V30 913 H 84.2676 -2.61861 -1.43078 0
M  V30 914 C 83.0166 -1.77191 -2.99164 0
M  V30 915 H 82.3396 -2.63841 -3.0038 0
M  V30 916 H 83.7796 -1.93809 -3.77113 0
M  V30 917 C 82.2386 -0.519203 -3.32875 0
M  V30 918 O 82.7686 0.350124 -4.00171 0
M  V30 919 N 80.9746 -0.378816 -2.8812 0
M  V30 920 H 80.5216 -1.08725 -2.33531 0
M  V30 921 H 80.4796 0.458239 -3.11043 0
M  V30 922 N 84.2517 0.741722 -1.39055 0
M  V30 923 C 85.4797 1.53098 -1.39171 0
M  V30 924 C 85.8947 1.88794 0.0155099 0
M  V30 925 O 85.2517 1.53626 0.985159 0
M  V30 926 C 85.3027 2.82274 -2.2584 0
M  V30 927 O 85.0237 2.48097 -3.61081 0
M  V30 928 C 86.5247 3.76343 -2.34266 0
M  V30 929 H 83.7447 0.473335 -0.4756 0
M  V30 930 H 86.2887 0.917045 -1.82785 0
M  V30 931 H 84.4437 3.40015 -1.85656 0
M  V30 932 H 84.8577 3.31029 -4.06842 0
M  V30 933 H 86.3317 4.63898 -2.9917 0
M  V30 934 H 86.8087 4.17619 -1.35982 0
M  V30 935 H 87.4147 3.24523 -2.74891 0
M  V30 936 N 85.7298 1.2412 0.971189 0
M  V30 937 C 87.1458 1.00584 1.23916 0
M  V30 938 C 87.3458 -0.287481 1.99439 0
M  V30 939 O 86.4018 -1.00454 2.31658 0
M  V30 940 C 87.7148 2.21864 2.0297 0
M  V30 941 C 89.2628 2.26452 2.16076 0
M  V30 942 C 89.7378 3.47343 2.98524 0
M  V30 943 N 91.2288 3.47639 3.06107 0
M  V30 944 C 91.9638 4.37837 3.70251 0
M  V30 945 N 91.4598 5.38286 4.36142 0
M  V30 946 N 93.2528 4.25558 3.67228 0
M  V30 947 H 85.4038 2.07236 0.465499 0
M  V30 948 H 87.6668 0.909236 0.268315 0
M  V30 949 H 87.3728 3.15771 1.54861 0
M  V30 950 H 87.2468 2.23698 3.03709 0
M  V30 951 H 89.6338 1.33078 2.6339 0
M  V30 952 H 89.7148 2.28645 1.14696 0
M  V30 953 H 89.3588 4.41029 2.51905 0
M  V30 954 H 89.2888 3.42393 4.00093 0
M  V30 955 H 91.7798 2.74966 2.59233 0
M  V30 956 H 92.0928 6.03352 4.82894 0
M  V30 957 H 90.4378 5.42176 4.34822 0
M  V30 958 H 93.6288 3.46322 3.14927 0
M  V30 959 H 93.8018 4.96054 4.16935 0
M  V30 960 N 87.2079 -1.17134 1.05439 0
M  V30 961 C 88.1709 -2.19439 0.661764 0
M  V30 962 C 89.1709 -1.58199 -0.288042 0
M  V30 963 O 90.3609 -1.74053 -0.0715803 0
M  V30 964 C 87.4929 -3.40889 -0.0276209 0
M  V30 965 H 88.6859 -2.55688 1.56728 0
M  V30 966 H 86.2389 -1.31259 0.848567 0
M  V30 967 H 86.9739 -3.10187 -0.94629 0
M  V30 968 H 86.7589 -3.86586 0.655238 0
M  V30 969 H 88.2489 -4.16603 -0.288342 0
M  V30 970 N 88.686 -0.835752 -1.33615 0
M  V30 971 C 89.914 -0.443344 -2.02094 0
M  V30 972 C 90.329 0.954522 -1.62894 0
M  V30 973 O 89.686 1.61982 -0.840723 0
M  V30 974 C 89.737 -0.550775 -3.5728 0
M  V30 975 O 89.458 -1.89356 -3.95065 0
M  V30 976 C 90.959 -0.154919 -4.43029 0
M  V30 977 H 88.179 -0.176359 -0.647409 0
M  V30 978 H 90.723 -1.12746 -1.70612 0
M  V30 979 H 88.878 0.0853997 -3.87306 0
M  V30 980 H 89.292 -1.87687 -4.89769 0
M  V30 981 H 90.766 -0.281144 -5.51284 0
M  V30 982 H 91.243 0.902863 -4.2982 0
M  V30 983 H 91.849 -0.765404 -4.18356 0
M  V30 984 N 90.1641 1.46063 -0.591896 0
M  V30 985 C 91.1121 2.32124 0.148739 0
M  V30 986 C 92.1061 1.45035 0.875286 0
M  V30 987 O 93.3121 1.61609 0.792632 0
M  V30 988 H 89.6871 0.749024 0.066832 0
M  V30 989 H 91.6581 2.92392 -0.595783 0
M  V30 990 C 90.4071 3.28373 1.1431 0
M  V30 991 H 89.7301 3.95371 0.59346 0
M  V30 992 H 91.1701 3.91352 1.63155 0
M  V30 993 C 89.6291 2.54393 2.20875 0
M  V30 994 O 90.1591 2.31373 3.28374 0
M  V30 995 N 88.3651 2.14797 1.95731 0
M  V30 996 H 87.9121 2.33719 1.08319 0
M  V30 997 H 87.8701 1.65619 2.67241 0
M  V30 998 N 91.6422 0.330177 1.54103 0
M  V30 999 C 92.8722 -0.271784 2.04805 0
M  V30 1000 C 93.2802 -1.45816 1.20559 0
M  V30 1001 O 92.6232 -1.82247 0.2306 0
M  V30 1002 C 92.6852 -0.763238 3.51305 0
M  V30 1003 C 92.3492 0.301705 4.56003 0
M  V30 1004 C 93.3462 1.13999 5.07248 0
M  V30 1005 C 91.0312 0.451793 5.00264 0
M  V30 1006 C 93.0252 2.11402 6.01322 0
M  V30 1007 C 90.7122 1.42924 5.94151 0
M  V30 1008 C 91.7102 2.25882 6.44567 0
M  V30 1009 O 91.3982 3.21965 7.3661 0
M  V30 1010 H 91.1302 -0.058693 0.673447 0
M  V30 1011 H 93.6842 0.476395 1.99799 0
M  V30 1012 H 91.9142 -1.56244 3.5373 0
M  V30 1013 H 93.6032 -1.28427 3.85047 0
M  V30 1014 H 94.3692 1.03505 4.73827 0
M  V30 1015 H 90.2482 -0.184044 4.60632 0
M  V30 1016 H 93.7922 2.76192 6.40596 0
M  V30 1017 H 89.6892 1.53479 6.26988 0
M  V30 1018 H 90.4572 3.17281 7.54503 0
M  V30 1019 N 93.1203 -1.57491 0.0584922 0
M  V30 1020 C 94.0683 -2.13148 -0.931168 0
M  V30 1021 C 95.0623 -1.06507 -1.31729 0
M  V30 1022 O 96.2683 -1.24906 -1.29609 0
M  V30 1023 H 92.6433 -0.68137 -0.31818 0
M  V30 1024 H 94.6143 -2.95187 -0.436707 0
M  V30 1025 C 93.3633 -2.69732 -2.19408 0
M  V30 1026 H 92.6863 -3.51454 -1.90578 0
M  V30 1027 H 94.1263 -3.12287 -2.86798 0
M  V30 1028 C 92.5853 -1.63855 -2.94369 0
M  V30 1029 O 93.1153 -1.05565 -3.87581 0
M  V30 1030 N 91.3213 -1.35202 -2.57233 0
M  V30 1031 H 90.8683 -1.82791 -1.81508 0
M  V30 1032 H 90.8263 -0.645922 -3.07693 0
M  V30 1033 N 94.5984 0.214957 -1.56127 0
M  V30 1034 C 95.5614 1.24997 -1.92116 0
M  V30 1035 C 96.5614 1.39467 -0.800344 0
M  V30 1036 O 97.7514 1.37619 -1.06802 0
M  V30 1037 C 94.8834 2.62271 -2.17777 0
M  V30 1038 H 96.0764 0.942875 -2.84693 0
M  V30 1039 H 93.6294 0.455654 -1.49511 0
M  V30 1040 H 94.3644 2.98068 -1.27773 0
M  V30 1041 H 94.1494 2.53143 -2.99434 0
M  V30 1042 H 95.6394 3.36946 -2.46693 0
M  V30 1043 N 96.0765 1.50051 0.48192 0
M  V30 1044 C 97.3245 1.60181 1.23234 0
M  V30 1045 C 97.6455 0.299176 1.92691 0
M  V30 1046 O 96.9155 -0.682708 1.83619 0
M  V30 1047 H 95.4955 0.590232 0.457859 0
M  V30 1048 H 98.1575 1.86775 0.556881 0
M  V30 1049 H 97.2535 2.40753 1.98607 0
M  V30 1050 N 97.5546 -0.734337 1.39446 0
M  V30 1051 C 98.8316 -1.48579 1.27215 0
M  V30 1052 C 99.2116 -2.1077 -0.117968 0
M  V30 1053 O 98.5596 -1.98646 -1.12924 0
M  V30 1054 C 98.7696 -2.53667 2.39696 0
M  V30 1055 C 100.118 -3.20031 2.79044 0
M  V30 1056 O 101.142 -2.6398 2.39151 0
M  V30 1057 O 100.001 -4.21455 3.47905 0
M  V30 1058 H 97.0946 -0.659816 0.49857 0
M  V30 1059 H 99.6406 -0.768106 1.51322 0
M  V30 1060 H 98.4126 -2.06096 3.32626 0
M  V30 1061 H 98.0356 -3.32994 2.17258 0
M  V30 1062 N 99.0327 -1.24633 -0.964593 0
M  V30 1063 C 100.449 -1.01239 -1.2338 0
M  V30 1064 C 100.649 0.2769 -1.99588 0
M  V30 1065 O 99.7047 0.992241 -2.32187 0
M  V30 1066 C 101.018 -2.22937 -2.01791 0
M  V30 1067 C 102.566 -2.27594 -2.14872 0
M  V30 1068 C 103.041 -3.48921 -2.96678 0
M  V30 1069 N 104.532 -3.49257 -3.04259 0
M  V30 1070 C 105.267 -4.39795 -3.67924 0
M  V30 1071 N 104.763 -5.40591 -4.33281 0
M  V30 1072 N 106.556 -4.275 -3.64966 0
M  V30 1073 H 98.7067 -2.0748 -0.454502 0
M  V30 1074 H 100.97 -0.910647 -0.26349 0
M  V30 1075 H 100.676 -3.16587 -1.53184 0
M  V30 1076 H 100.55 -2.25306 -3.02518 0
M  V30 1077 H 102.937 -1.34473 -2.6268 0
M  V30 1078 H 103.018 -2.2925 -1.13482 0
M  V30 1079 H 102.662 -4.42359 -2.49562 0
M  V30 1080 H 102.592 -3.4451 -3.98272 0
M  V30 1081 H 105.083 -2.76337 -2.57771 0
M  V30 1082 H 105.396 -6.05904 -4.79687 0
M  V30 1083 H 103.741 -5.44475 -4.3194 0
M  V30 1084 H 106.932 -3.47987 -3.13086 0
M  V30 1085 H 107.105 -4.98258 -4.14298 0
M  V30 1086 N 100.511 1.16574 -1.06058 0
M  V30 1087 C 101.736 1.91493 -0.796562 0
M  V30 1088 C 102.161 1.76773 0.642868 0
M  V30 1089 O 101.519 1.09142 1.44768 0
M  V30 1090 C 101.567 3.40293 -1.19303 0
M  V30 1091 O 100.671 4.11074 -0.330394 0
M  V30 1092 H 100.012 0.596678 -0.291326 0
M  V30 1093 H 102.542 1.47708 -1.41575 0
M  V30 1094 H 102.552 3.91057 -1.16356 0
M  V30 1095 H 101.227 3.50326 -2.24153 0
M  V30 1096 H 99.8038 3.70513 -0.421225 0
M  V30 1097 N 101.989 0.842826 1.3317 0
M  V30 1098 C 103.217 0.454055 2.01856 0
M  V30 1099 C 103.632 -0.94587 1.63397 0
M  V30 1100 O 102.989 -1.61534 0.849302 0
M  V30 1101 C 103.04 0.569715 3.56982 0
M  V30 1102 O 102.761 1.91448 3.94055 0
M  V30 1103 C 104.262 0.178412 4.42941 0
M  V30 1104 H 101.482 0.17979 0.646465 0
M  V30 1105 H 104.026 1.1365 1.70012 0
M  V30 1106 H 102.181 -0.0648587 3.87346 0
M  V30 1107 H 102.595 1.90282 4.88767 0
M  V30 1108 H 104.069 0.310376 5.51127 0
M  V30 1109 H 104.546 -0.880056 4.30293 0
M  V30 1110 H 105.152 0.787579 4.17944 0
M  V30 1111 N 103.467 -1.45747 0.599634 0
M  V30 1112 C 104.744 -1.95585 0.0240846 0
M  V30 1113 C 105.124 -1.54217 -1.44154 0
M  V30 1114 O 104.472 -0.800903 -2.14004 0
M  V30 1115 C 104.682 -3.48344 0.21385 0
M  V30 1116 C 106.03 -4.24504 0.0904902 0
M  V30 1117 O 107.054 -3.55911 0.143558 0
M  V30 1118 O 105.913 -5.46491 -0.0310766 0
M  V30 1119 H 103.007 -0.82602 -0.0402478 0
M  V30 1120 H 105.553 -1.55951 0.669139 0
M  V30 1121 H 104.325 -3.71397 1.23206 0
M  V30 1122 H 103.948 -3.9485 -0.466842 0
M  V30 1123 N 104.945 -0.338344 -1.53925 0
M  V30 1124 C 106.175 0.260919 -2.04946 0
M  V30 1125 C 106.583 1.45174 -1.2133 0
M  V30 1126 O 105.926 1.82122 -0.240262 0
M  V30 1127 C 105.988 0.744596 -3.51704 0
M  V30 1128 C 105.652 -0.325883 -4.55837 0
M  V30 1129 C 106.649 -1.16687 -5.06636 0
M  V30 1130 C 104.334 -0.478317 -5.00017 0
M  V30 1131 C 106.328 -2.14588 -6.00192 0
M  V30 1132 C 104.015 -1.46073 -5.93385 0
M  V30 1133 C 105.013 -2.29297 -6.4336 0
M  V30 1134 O 104.701 -3.25867 -7.34892 0
M  V30 1135 H 104.433 0.0551207 -0.673749 0
M  V30 1136 H 106.987 -0.486984 -1.99544 0
M  V30 1137 H 105.217 1.54366 -3.54553 0
M  V30 1138 H 106.906 1.26383 -3.85723 0
M  V30 1139 H 107.672 -1.06016 -4.73271 0
M  V30 1140 H 103.551 0.159613 -4.60724 0
M  V30 1141 H 107.095 -2.79585 -6.39123 0
M  V30 1142 H 102.992 -1.56802 -6.26166 0
M  V30 1143 H 103.76 -3.21278 -7.5281 0
M  V30 1144 N 106.423 1.57458 -0.0668435 0
M  V30 1145 C 107.671 1.92919 0.602214 0
M  V30 1146 C 107.992 0.947215 1.70449 0
M  V30 1147 O 107.262 -0.00544117 1.95899 0
M  V30 1148 H 105.842 0.71217 0.22544 0
M  V30 1149 H 108.504 1.94508 -0.123535 0
M  V30 1150 H 107.6 2.94589 1.03073 0
M  V30 1151 N 107.901 -0.206675 1.56239 0
M  V30 1152 C 109.15 -0.926964 1.79138 0
M  V30 1153 C 109.463 -1.84901 0.638043 0
M  V30 1154 O 110.669 -2.60906 0.751033 0
M  V30 1155 C 109.125 -1.6986 3.17294 0
M  V30 1156 C 108.733 -0.821956 4.40395 0
M  V30 1157 C 110.477 -2.40922 3.4951 0
M  V30 1158 C 108.384 -1.59179 5.69575 0
M  V30 1159 H 107.314 -0.349864 0.667915 0
M  V30 1160 H 109.965 -0.180487 1.8261 0
M  V30 1161 H 108.347 -2.48853 3.08039 0
M  V30 1162 H 109.521 -0.0715019 4.60745 0
M  V30 1163 H 107.836 -0.222741 4.15804 0
M  V30 1164 H 110.433 -2.99047 4.43255 0
M  V30 1165 H 110.776 -3.14542 2.72707 0
M  V30 1166 H 111.309 -1.68905 3.60161 0
M  V30 1167 H 108.048 -0.898589 6.49312 0
M  V30 1168 H 107.568 -2.31648 5.53262 0
M  V30 1169 H 109.247 -2.14862 6.10281 0
M  V30 1170 N 109.379 -1.50304 -0.473955 0
M  V30 1171 C 110.626 -1.6115 -1.22625 0
M  V30 1172 C 110.954 -0.310517 -1.92005 0
M  V30 1173 O 110.209 0.703419 -1.82621 0
M  V30 1174 C 110.508 -2.73938 -2.29549 0
M  V30 1175 C 110.174 -4.14519 -1.7744 0
M  V30 1176 C 108.836 -4.5277 -1.62949 0
M  V30 1177 C 111.188 -5.02392 -1.3875 0
M  V30 1178 C 108.516 -5.76639 -1.08187 0
M  V30 1179 C 110.868 -6.26805 -0.854309 0
M  V30 1180 C 109.532 -6.63861 -0.696011 0
M  V30 1181 H 108.802 -0.589691 -0.448715 0
M  V30 1182 H 111.449 -1.84228 -0.522705 0
M  V30 1183 H 109.754 -2.44937 -3.05799 0
M  V30 1184 H 111.451 -2.79534 -2.87509 0
M  V30 1185 H 108.041 -3.8434 -1.89685 0
M  V30 1186 H 112.225 -4.73474 -1.4878 0
M  V30 1187 H 107.481 -6.04027 -0.946666 0
M  V30 1188 H 111.655 -6.94258 -0.545843 0
M  V30 1189 H 109.282 -7.59722 -0.26952 0
M  V30 1190 N 110.857 0.726932 -1.39834 0
M  V30 1191 C 111.789 1.85147 -1.35104 0
M  V30 1192 C 112.802 1.60736 -0.258392 0
M  V30 1193 O 113.991 1.70821 -0.517931 0
M  V30 1194 C 111.091 3.21332 -1.07697 0
M  V30 1195 C 110.264 3.73033 -2.28396 0
M  V30 1196 C 109.323 4.87802 -1.97322 0
M  V30 1197 O 108.349 5.01043 -2.70083 0
M  V30 1198 N 109.551 5.72768 -0.944273 0
M  V30 1199 H 112.316 1.89706 -2.32017 0
M  V30 1200 H 109.877 0.908006 -1.3404 0
M  V30 1201 H 111.869 3.95691 -0.849144 0
M  V30 1202 H 110.439 3.11992 -0.194909 0
M  V30 1203 H 109.659 2.89934 -2.6708 0
M  V30 1204 H 110.947 4.0431 -3.08887 0
M  V30 1205 H 110.345 5.64669 -0.341427 0
M  V30 1206 H 108.902 6.4716 -0.776346 0
M  V30 1207 N 112.336 1.25143 0.95797 0
M  V30 1208 C 113.585 1.0909 1.69654 0
M  V30 1209 C 113.898 -0.368548 1.92097 0
M  V30 1210 O 115.104 -0.649455 2.63618 0
M  V30 1211 C 113.56 1.90395 3.05414 0
M  V30 1212 C 113.168 3.4081 2.90779 0
M  V30 1213 C 114.912 1.82901 3.83076 0
M  V30 1214 C 112.819 4.14423 4.21909 0
M  V30 1215 H 111.749 0.404625 0.636235 0
M  V30 1216 H 114.4 1.4931 1.06672 0
M  V30 1217 H 112.782 1.42996 3.69281 0
M  V30 1218 H 113.956 3.95859 2.35865 0
M  V30 1219 H 112.271 3.49361 2.26575 0
M  V30 1220 H 114.868 2.35196 4.80195 0
M  V30 1221 H 115.211 0.796224 4.08615 0
M  V30 1222 H 115.744 2.28033 3.25954 0
M  V30 1223 H 112.483 5.18102 4.01561 0
M  V30 1224 H 112.003 3.64159 4.76601 0
M  V30 1225 H 113.682 4.21956 4.90471 0
M  V30 1226 N 113.814 -1.1601 1.06675 0
M  V30 1227 C 114.762 -2.22586 0.675157 0
M  V30 1228 C 115.756 -1.66525 -0.310766 0
M  V30 1229 O 116.962 -1.79145 -0.175215 0
M  V30 1230 H 113.337 -0.724855 0.200223 0
M  V30 1231 H 115.308 -2.52899 1.58381 0
M  V30 1232 C 114.057 -3.47604 0.0817162 0
M  V30 1233 H 113.38 -3.91058 0.831484 0
M  V30 1234 H 114.82 -4.23718 -0.154708 0
M  V30 1235 C 113.279 -3.15718 -1.17576 0
M  V30 1236 O 113.809 -3.31878 -2.26318 0
M  V30 1237 N 112.015 -2.69816 -1.07923 0
M  V30 1238 H 111.562 -2.56866 -0.194293 0
M  V30 1239 H 111.52 -2.48855 -1.92141 0
M  V30 1240 N 115.292 -0.849877 -1.32721 0
M  V30 1241 C 116.517 -0.463856 -2.02146 0
M  V30 1242 C 116.942 0.930449 -1.63476 0
M  V30 1243 O 116.3 1.61033 -0.832952 0
M  V30 1244 C 116.348 -0.604955 -3.55489 0
M  V30 1245 O 115.452 0.36425 -4.10788 0
M  V30 1246 H 114.793 -0.187046 -0.637111 0
M  V30 1247 H 117.323 -1.14775 -1.69375 0
M  V30 1248 H 117.333 -0.490696 -4.05038 0
M  V30 1249 H 116.008 -1.62174 -3.82978 0
M  V30 1250 H 114.585 0.206628 -3.72327 0
M  V30 1251 N 116.77 1.45427 -0.607355 0
M  V30 1252 C 118.186 1.57283 -0.270985 0
M  V30 1253 C 118.386 1.59875 1.22647 0
M  V30 1254 O 117.442 1.52893 2.00948 0
M  V30 1255 C 118.755 2.85566 -0.941952 0
M  V30 1256 C 120.303 2.9924 -0.917849 0
M  V30 1257 C 120.778 4.30293 -1.56882 0
M  V30 1258 N 122.269 4.37051 -1.5343 0
M  V30 1259 C 123.004 5.37123 -2.00715 0
M  V30 1260 N 122.5 6.43734 -2.56084 0
M  V30 1261 N 124.293 5.28479 -1.91484 0
M  V30 1262 H 116.444 1.41988 -1.57966 0
M  V30 1263 H 118.707 0.67885 -0.661715 0
M  V30 1264 H 118.413 2.8955 -1.99633 0
M  V30 1265 H 118.287 3.74322 -0.465096 0
M  V30 1266 H 120.674 2.94822 0.127984 0
M  V30 1267 H 120.755 2.11895 -1.43297 0
M  V30 1268 H 120.399 4.35469 -2.61398 0
M  V30 1269 H 120.329 5.16454 -1.02873 0
M  V30 1270 H 122.82 3.60615 -1.12982 0
M  V30 1271 H 123.133 7.16341 -2.89958 0
M  V30 1272 H 121.478 6.44485 -2.60122 0
M  V30 1273 H 124.669 4.44098 -1.47967 0
M  V30 1274 H 124.842 6.0632 -2.28648 0
M  V30 1275 N 118.248 0.346503 1.53744 0
M  V30 1276 C 119.478 -0.250047 2.05081 0
M  V30 1277 C 119.886 -1.44529 1.22098 0
M  V30 1278 O 119.229 -1.81992 0.249917 0
M  V30 1279 C 119.291 -0.725934 3.52094 0
M  V30 1280 C 118.955 0.350053 4.55657 0
M  V30 1281 C 119.952 1.19372 5.0601 0
M  V30 1282 C 117.637 0.504827 4.99757 0
M  V30 1283 C 119.631 2.17768 5.99046 0
M  V30 1284 C 117.318 1.49218 5.92602 0
M  V30 1285 C 118.316 2.32706 6.42135 0
M  V30 1286 O 118.004 3.2976 7.33153 0
M  V30 1287 H 117.736 -0.0515469 0.674032 0
M  V30 1288 H 120.29 0.497559 1.99282 0
M  V30 1289 H 118.52 -1.52483 3.55367 0
M  V30 1290 H 120.209 -1.24336 3.86388 0
M  V30 1291 H 120.975 1.08525 4.72702 0
M  V30 1292 H 116.854 -0.135178 4.60802 0
M  V30 1293 H 120.398 2.82971 6.37631 0
M  V30 1294 H 116.295 1.6012 6.25325 0
M  V30 1295 H 117.063 3.25265 7.51096 0
M  V30 1296 N 119.726 -1.57421 0.075193 0
M  V30 1297 C 120.972 -1.94716 -0.587998 0
M  V30 1298 C 121.327 -0.955205 -1.67014 0
M  V30 1299 O 120.62 0.0219842 -1.91587 0
M  V30 1300 C 120.814 -3.36428 -1.20626 0
M  V30 1301 C 120.643 -4.49317 -0.185541 0
M  V30 1302 C 119.413 -5.04772 0.23099 0
M  V30 1303 C 121.611 -5.11036 0.57854 0
M  V30 1304 N 119.593 -6.01204 1.24206 0
M  V30 1305 C 120.964 -6.02998 1.44199 0
M  V30 1306 C 123.019 -4.93844 0.634237 0
M  V30 1307 C 121.722 -6.79614 2.3562 0
M  V30 1308 C 123.748 -5.71106 1.53597 0
M  V30 1309 C 123.11 -6.6272 2.38709 0
M  V30 1310 H 119.209 -0.759536 -0.186089 0
M  V30 1311 H 121.793 -1.94097 0.153128 0
M  V30 1312 H 119.964 -3.37778 -1.9173 0
M  V30 1313 H 121.696 -3.60951 -1.8302 0
M  V30 1314 H 118.451 -4.73353 -0.152807 0
M  V30 1315 H 118.875 -6.54119 1.74521 0
M  V30 1316 H 123.517 -4.22799 -0.00960004 0
M  V30 1317 H 121.235 -7.49934 3.01038 0
M  V30 1318 H 124.821 -5.59824 1.58394 0
M  V30 1319 H 123.701 -7.2146 3.07352 0
M  V30 1320 N 121.204 0.198386 -1.56346 0
M  V30 1321 C 122.444 0.92609 -1.82217 0
M  V30 1322 C 122.808 1.80584 -0.652195 0
M  V30 1323 O 124.009 2.56907 -0.790716 0
M  V30 1324 C 122.28 1.72354 -3.13096 0
M  V30 1325 S 123.839 2.50371 -3.6036 0
M  V30 1326 H 120.657 0.310677 -0.639532 0
M  V30 1327 H 123.259 0.189755 -1.94577 0
M  V30 1328 H 121.963 1.0678 -3.96265 0
M  V30 1329 H 121.494 2.50175 -3.03605 0
M  V30 1330 H 123.509 3.74488 -3.25535 0
M  V30 1331 N 122.682 1.50554 0.465978 0
M  V30 1332 C 123.63 1.70324 1.58406 0
M  V30 1333 C 124.624 0.569139 1.59553 0
M  V30 1334 O 125.83 0.749776 1.63641 0
M  V30 1335 H 122.205 0.537688 0.525734 0
M  V30 1336 H 124.176 2.64104 1.38894 0
M  V30 1337 C 122.925 1.81928 2.96307 0
M  V30 1338 H 122.248 2.68586 2.96144 0
M  V30 1339 H 123.688 1.99784 3.73982 0
M  V30 1340 C 122.147 0.572095 3.32007 0
M  V30 1341 O 122.677 -0.286416 4.00678 0
M  V30 1342 N 120.883 0.424606 2.87481 0
M  V30 1343 H 120.43 1.12427 2.31771 0
M  V30 1344 H 120.388 -0.408697 3.11732 0
M  V30 1345 N 124.16 -0.719506 1.40217 0
M  V30 1346 C 125.437 -1.47221 1.28784 0
M  V30 1347 C 125.817 -2.10883 -0.0956067 0
M  V30 1348 O 125.165 -1.99833 -1.10811 0
M  V30 1349 C 125.375 -2.5111 2.42373 0
M  V30 1350 C 126.723 -3.17053 2.82423 0
M  V30 1351 O 127.747 -2.61429 2.41937 0
M  V30 1352 O 126.606 -4.17742 3.52355 0
M  V30 1353 H 123.7 -0.654491 0.50554 0
M  V30 1354 H 126.246 -0.752014 1.52128 0
M  V30 1355 H 125.018 -2.02556 3.34793 0
M  V30 1356 H 124.641 -3.3067 2.20778 0
M  V30 1357 N 125.638 -1.25649 -0.95132 0
M  V30 1358 C 126.886 -1.10375 -1.69298 0
M  V30 1359 C 127.207 0.355339 -1.91735 0
M  V30 1360 O 126.477 1.25188 -1.50681 0
M  V30 1361 H 125.057 -0.405461 -0.627384 0
M  V30 1362 H 127.719 -1.57823 -1.14358 0
M  V30 1363 H 126.815 -1.61465 -2.67087 0
M  V30 1364 N 127.117 1.15442 -1.07289 0
M  V30 1365 C 128.064 2.20161 -0.692653 0
M  V30 1366 C 129.034 1.63073 0.31564 0
M  V30 1367 O 130.219 1.89725 0.202235 0
M  V30 1368 C 127.359 3.44967 -0.0959509 0
M  V30 1369 C 126.472 4.16256 -1.15564 0
M  V30 1370 C 125.607 5.28609 -0.524011 0
M  V30 1371 C 124.646 5.91715 -1.56653 0
M  V30 1372 N 123.783 6.9554 -0.957531 0
M  V30 1373 H 128.623 2.52037 -1.59002 0
M  V30 1374 H 126.16 1.2378 -0.794798 0
M  V30 1375 H 128.118 4.16341 0.267628 0
M  V30 1376 H 126.748 3.1361 0.764772 0
M  V30 1377 H 125.8 3.43385 -1.6368 0
M  V30 1378 H 127.112 4.59268 -1.94613 0
M  V30 1379 H 126.266 6.06604 -0.108032 0
M  V30 1380 H 125.005 4.86787 0.29825 0
M  V30 1381 H 124.01 5.12433 -1.9923 0
M  V30 1382 H 125.235 6.35614 -2.39107 0
M  V30 1383 H 123.181 6.55814 -0.156162 0
M  V30 1384 H 123.098 7.36977 -1.68526 0
M  V30 1385 H 124.366 7.77435 -0.567032 0
M  V30 1386 N 128.595 0.856903 1.32268 0
M  V30 1387 C 129.823 0.475439 2.01363 0
M  V30 1388 C 130.238 -0.928486 1.64392 0
M  V30 1389 O 129.595 -1.60624 0.866387 0
M  V30 1390 C 129.646 0.607545 3.56358 0
M  V30 1391 O 129.367 1.95617 3.92002 0
M  V30 1392 C 130.868 0.225382 4.42727 0
M  V30 1393 H 128.088 0.186636 0.644521 0
M  V30 1394 H 130.632 1.15446 1.68797 0
M  V30 1395 H 128.787 -0.0237719 3.87393 0
M  V30 1396 H 129.201 1.95455 4.86721 0
M  V30 1397 H 130.675 0.368813 5.50767 0
M  V30 1398 H 131.152 -0.834369 4.31202 0
M  V30 1399 H 131.758 0.831864 4.17085 0
M  V30 1400 N 130.073 -1.45103 0.615059 0
M  V30 1401 C 131.484 -1.85654 0.197383 0
M  V30 1402 C 131.835 -1.51433 -1.24749 0
M  V30 1403 O 130.96 -0.944608 -1.94695 0
M  V30 1404 C 131.555 -3.36972 0.351448 0
M  V30 1405 C 130.114 -3.76398 -0.011593 0
M  V30 1406 C 129.261 -2.69024 0.672394 0
M  V30 1407 H 132.212 -1.35797 0.821263 0
M  V30 1408 H 132.233 -3.78239 -0.414227 0
M  V30 1409 H 131.745 -3.61847 1.40314 0
M  V30 1410 H 129.846 -3.5714 -1.06217 0
M  V30 1411 H 129.959 -4.77532 0.387265 0
M  V30 1412 H 128.323 -2.54465 0.109284 0
M  V30 1413 H 129.106 -2.96735 1.72636 0
M  V30 1414 N 131.551 -0.354651 -1.53558 0
M  V30 1415 C 132.799 0.237972 -2.00694 0
M  V30 1416 C 133.12 1.50173 -1.24391 0
M  V30 1417 O 132.39 1.92673 -0.354135 0
M  V30 1418 H 130.97 0.0909256 -0.741446 0
M  V30 1419 H 133.632 -0.478368 -1.88938 0
M  V30 1420 H 132.728 0.47264 -3.085 0
M  V30 1421 N 133.029 1.57378 -0.0835403 0
M  V30 1422 C 133.992 2.12252 0.864959 0
M  V30 1423 C 134.992 1.04916 1.21858 0
M  V30 1424 O 136.182 1.30853 1.14991 0
M  V30 1425 C 133.314 2.63358 2.16461 0
M  V30 1426 H 134.507 2.97371 0.388676 0
M  V30 1427 H 132.06 1.55423 0.165317 0
M  V30 1428 H 132.795 1.81727 2.686 0
M  V30 1429 H 132.58 3.41826 1.92087 0
M  V30 1430 H 134.07 3.05847 2.84337 0
M  V30 1431 N 134.507 -0.190092 1.56449 0
M  V30 1432 C 135.753 -0.911052 1.81184 0
M  V30 1433 C 136.086 -1.82699 0.658396 0
M  V30 1434 O 135.361 -1.91491 -0.340775 0
M  V30 1435 C 135.644 -1.72297 3.16205 0
M  V30 1436 C 135.497 -0.831419 4.42049 0
M  V30 1437 C 136.816 -2.69454 3.47969 0
M  V30 1438 H 133.935 -0.32977 0.659106 0
M  V30 1439 H 136.577 -0.178169 1.89163 0
M  V30 1440 H 134.727 -2.34778 3.09534 0
M  V30 1441 H 136.399 -0.220929 4.60771 0
M  V30 1442 H 134.642 -0.138406 4.33579 0
M  V30 1443 H 135.313 -1.43461 5.33032 0
M  V30 1444 H 137.789 -2.17104 3.54972 0
M  V30 1445 H 136.665 -3.23342 4.43555 0
M  V30 1446 H 136.926 -3.48744 2.71717 0
M  V30 1447 N 135.985 -1.50799 -0.457987 0
M  V30 1448 C 136.933 -1.71162 -1.575 0
M  V30 1449 C 137.927 -0.577592 -1.59249 0
M  V30 1450 O 139.133 -0.758443 -1.63241 0
M  V30 1451 H 135.508 -0.540468 -0.522875 0
M  V30 1452 H 137.479 -2.64837 -1.37492 0
M  V30 1453 C 136.228 -1.83496 -2.95338 0
M  V30 1454 H 135.551 -2.70153 -2.94716 0
M  V30 1455 H 136.991 -2.01765 -3.72917 0
M  V30 1456 C 135.45 -0.589694 -3.31699 0
M  V30 1457 O 135.98 0.265163 -4.00824 0
M  V30 1458 N 134.186 -0.439845 -2.87252 0
M  V30 1459 H 133.733 -1.13655 -2.31172 0
M  V30 1460 H 133.691 0.392159 -3.11945 0
M  V30 1461 N 137.463 0.71206 -1.40597 0
M  V30 1462 C 138.426 1.80785 -1.40888 0
M  V30 1463 C 139.426 1.57937 -0.302103 0
M  V30 1464 O 140.616 1.64913 -0.561182 0
M  V30 1465 C 137.748 3.18927 -1.20409 0
M  V30 1466 H 138.941 1.81924 -2.38419 0
M  V30 1467 H 136.494 0.91805 -1.26497 0
M  V30 1468 H 137.229 3.23436 -0.236522 0
M  V30 1469 H 137.014 3.36911 -2.00582 0
M  V30 1470 H 138.504 3.98949 -1.23408 0
M  V30 1471 N 138.941 1.26152 0.944643 0
M  V30 1472 C 140.181 1.12708 1.70517 0
M  V30 1473 C 140.545 -0.324727 1.89234 0
M  V30 1474 O 141.746 -0.581211 2.62441 0
M  V30 1475 C 140.017 1.8713 3.04495 0
M  V30 1476 S 141.576 1.89698 3.95677 0
M  V30 1477 H 138.394 0.402665 0.585988 0
M  V30 1478 H 140.996 1.59821 1.12594 0
M  V30 1479 H 139.7 2.91833 2.88551 0
M  V30 1480 H 139.231 1.40444 3.67477 0
M  V30 1481 H 141.246 0.981198 4.86402 0
M  V30 1482 N 140.419 -1.14872 1.07899 0
M  V30 1483 C 141.369 -2.17809 0.674027 0
M  V30 1484 C 142.353 -1.58008 -0.303699 0
M  V30 1485 O 143.545 -1.76616 -0.11654 0
M  V30 1486 C 140.674 -3.43208 0.0793318 0
M  V30 1487 C 139.76 -4.10051 1.08253 0
M  V30 1488 N 140.151 -4.52296 2.2641 0
M  V30 1489 C 138.449 -4.36469 0.917124 0
M  V30 1490 C 139.15 -5.04199 2.901 0
M  V30 1491 N 138.126 -4.98088 2.17736 0
M  V30 1492 H 141.928 -2.48207 1.57386 0
M  V30 1493 H 139.442 -1.315 0.952976 0
M  V30 1494 H 141.439 -4.16272 -0.228719 0
M  V30 1495 H 140.099 -3.14291 -0.815551 0
M  V30 1496 H 141.11 -4.45504 2.64096 0
M  V30 1497 H 137.787 -4.17432 0.0756078 0
M  V30 1498 H 139.177 -5.46802 3.90458 0
M  V30 1499 N 141.898 -0.863906 -1.31812 0
M  V30 1500 C 142.828 -0.330843 -2.31144 0
M  V30 1501 C 143.809 0.575005 -1.60087 0
M  V30 1502 O 144.994 0.493304 -1.8783 0
M  V30 1503 C 142.124 0.47374 -3.44054 0
M  V30 1504 C 141.078 -0.338481 -4.26659 0
M  V30 1505 C 140.404 0.591412 -5.31419 0
M  V30 1506 C 141.704 -1.56926 -4.98168 0
M  V30 1507 H 143.398 -1.16086 -2.75979 0
M  V30 1508 H 140.944 -0.559657 -1.32679 0
M  V30 1509 H 142.897 0.857143 -4.12591 0
M  V30 1510 H 141.621 1.33721 -2.9797 0
M  V30 1511 H 140.28 -0.703754 -3.59782 0
M  V30 1512 H 139.928 1.45199 -4.81587 0
M  V30 1513 H 139.628 0.0519022 -5.87577 0
M  V30 1514 H 141.152 0.97179 -6.02817 0
M  V30 1515 H 142.566 -1.25764 -5.59336 0
M  V30 1516 H 140.963 -2.04739 -5.64094 0
M  V30 1517 H 142.033 -2.32544 -4.25501 0
M  V30 1518 N 143.376 1.44774 -0.622745 0
M  V30 1519 C 144.601 2.06999 -0.128968 0
M  V30 1520 C 145.026 1.4617 1.1839 0
M  V30 1521 O 144.384 0.560007 1.72434 0
M  V30 1522 C 144.432 3.60595 -0.0188351 0
M  V30 1523 O 143.536 3.99398 1.02739 0
M  V30 1524 H 142.877 0.659047 -0.0809544 0
M  V30 1525 H 145.407 1.85784 -0.85705 0
M  V30 1526 H 145.417 4.07627 0.174476 0
M  V30 1527 H 144.092 4.04252 -0.977384 0
M  V30 1528 H 142.669 3.64011 0.809326 0
M  V30 1529 N 144.854 0.36279 1.53368 0
M  V30 1530 C 146.094 -0.227882 2.03126 0
M  V30 1531 C 146.458 -1.4622 1.24434 0
M  V30 1532 O 147.659 -2.12831 1.64184 0
M  V30 1533 C 145.93 -0.515427 3.53664 0
M  V30 1534 S 147.489 -1.08017 4.25297 0
M  V30 1535 H 144.307 -0.0665377 0.70788 0
M  V30 1536 H 146.909 0.50501 1.88865 0
M  V30 1537 H 145.613 0.390436 4.08539 0
M  V30 1538 H 145.144 -1.27747 3.72081 0
M  V30 1539 H 147.159 -2.36462 4.36234 0
M  V30 1540 N 146.332 -1.57332 0.0918853 0
M  V30 1541 C 147.557 -1.98995 -0.584442 0
M  V30 1542 C 147.982 -0.970528 -1.61128 0
M  V30 1543 O 147.34 0.0613904 -1.81196 0
M  V30 1544 C 147.388 -3.39636 -1.21161 0
M  V30 1545 O 146.492 -3.40447 -2.32744 0
M  V30 1546 H 145.833 -0.647165 -0.148572 0
M  V30 1547 H 148.363 -2.03873 0.172347 0
M  V30 1548 H 148.373 -3.7726 -1.55367 0
M  V30 1549 H 147.048 -4.13356 -0.459313 0
M  V30 1550 H 145.625 -3.14614 -2.0018 0
M  V30 1551 N 147.81 0.181792 -1.56548 0
M  V30 1552 C 148.773 1.20894 -1.94724 0
M  V30 1553 C 149.773 1.37738 -0.829747 0
M  V30 1554 O 150.963 1.35323 -1.09697 0
M  V30 1555 C 148.095 2.57593 -2.23291 0
M  V30 1556 H 149.288 0.882275 -2.86629 0
M  V30 1557 H 146.841 0.423838 -1.50444 0
M  V30 1558 H 147.576 2.95291 -1.34067 0
M  V30 1559 H 147.361 2.46735 -3.04736 0
M  V30 1560 H 148.851 3.31637 -2.53785 0
M  V30 1561 N 149.288 1.51039 0.449983 0
M  V30 1562 C 150.218 1.74379 1.55288 0
M  V30 1563 C 151.199 0.593236 1.5942 0
M  V30 1564 O 152.384 0.834625 1.7535 0
M  V30 1565 C 149.514 1.85728 2.93466 0
M  V30 1566 C 148.468 3.01078 3.04197 0
M  V30 1567 C 147.794 2.97595 4.44231 0
M  V30 1568 C 149.094 4.41254 2.7945 0
M  V30 1569 H 150.788 2.66725 1.36008 0
M  V30 1570 H 148.334 1.2835 0.652864 0
M  V30 1571 H 150.287 2.0064 3.70569 0
M  V30 1572 H 149.011 0.900207 3.13949 0
M  V30 1573 H 147.67 2.85851 2.29531 0
M  V30 1574 H 147.318 1.99691 4.61663 0
M  V30 1575 H 147.018 3.75046 4.52343 0
M  V30 1576 H 148.542 3.14583 5.23326 0
M  V30 1577 H 149.956 4.56897 3.46292 0
M  V30 1578 H 148.353 5.20315 2.98985 0
M  V30 1579 H 149.423 4.52164 1.75144 0
M  V30 1580 N 150.766 -0.704594 1.40972 0
M  V30 1581 C 151.696 -1.83124 1.44872 0
M  V30 1582 C 152.677 -1.67281 0.30838 0
M  V30 1583 O 153.862 -1.87149 0.518556 0
M  V30 1584 C 150.992 -3.21181 1.32136 0
M  V30 1585 C 149.946 -3.51714 2.43888 0
M  V30 1586 C 149.272 -4.89032 2.16222 0
M  V30 1587 C 150.572 -3.516 3.86232 0
M  V30 1588 H 152.266 -1.80117 2.39161 0
M  V30 1589 H 149.812 -0.865145 1.15114 0
M  V30 1590 H 151.765 -3.99702 1.33479 0
M  V30 1591 H 150.489 -3.24791 0.343279 0
M  V30 1592 H 149.148 -2.75539 2.41813 0
M  V30 1593 H 148.796 -4.89256 1.16778 0
M  V30 1594 H 148.496 -5.10426 2.911 0
M  V30 1595 H 150.02 -5.69873 2.19265 0
M  V30 1596 H 151.434 -4.2014 3.9007 0
M  V30 1597 H 149.831 -3.84523 4.60719 0
M  V30 1598 H 150.901 -2.50757 4.15029 0
M  V30 1599 N 152.244 -1.26651 -0.937939 0
M  V30 1600 C 153.176 -1.04283 -2.04102 0
M  V30 1601 C 154.189 -0.00221014 -1.628 0
M  V30 1602 O 155.378 -0.242645 -1.76843 0
M  V30 1603 C 152.478 -0.557846 -3.34277 0
M  V30 1604 C 151.651 -1.66843 -4.04329 0
M  V30 1605 C 150.71 -1.18095 -5.12777 0
M  V30 1606 O 149.736 -1.87865 -5.37304 0
M  V30 1607 N 150.938 -0.0311006 -5.80492 0
M  V30 1608 H 153.703 -1.9927 -2.23856 0
M  V30 1609 H 151.264 -1.1808 -1.10764 0
M  V30 1610 H 153.256 -0.215836 -4.04124 0
M  V30 1611 H 151.826 0.298523 -3.11171 0
M  V30 1612 H 151.046 -2.18123 -3.28353 0
M  V30 1613 H 152.334 -2.41408 -4.47883 0
M  V30 1614 H 151.732 0.551486 -5.63005 0
M  V30 1615 H 150.289 0.251809 -6.51313 0
M  V30 1616 N 153.722 1.14298 -1.08507 0
M  V30 1617 C 154.999 1.81544 -0.728088 0
M  V30 1618 C 155.379 1.95838 0.78808 0
M  V30 1619 O 154.727 1.51904 1.70697 0
M  V30 1620 C 154.937 3.17169 -1.45619 0
M  V30 1621 C 156.285 3.9265 -1.61591 0
M  V30 1622 O 157.309 3.26762 -1.41793 0
M  V30 1623 O 156.168 5.10807 -1.94263 0
M  V30 1624 H 153.262 0.78491 -0.260471 0
M  V30 1625 H 155.808 1.21307 -1.18671 0
M  V30 1626 H 154.58 3.01934 -2.489 0
M  V30 1627 H 154.203 3.851 -0.989124 0
M  V30 1628 N 155.201 0.870884 1.31352 0
M  V30 1629 C 156.149 0.316445 2.30437 0
M  V30 1630 C 157.143 -0.568965 1.59559 0
M  V30 1631 O 158.349 -0.454964 1.74155 0
M  V30 1632 H 154.724 0.0836521 0.747333 0
M  V30 1633 H 156.695 1.16606 2.74673 0
M  V30 1634 C 155.444 -0.46635 3.44558 0
M  V30 1635 H 154.767 0.205687 3.99271 0
M  V30 1636 H 156.207 -0.819614 4.16003 0
M  V30 1637 C 154.666 -1.65797 2.9328 0
M  V30 1638 O 155.196 -2.75728 2.92125 0
M  V30 1639 N 153.402 -1.49041 2.4947 0
M  V30 1640 H 152.949 -0.59612 2.50608 0
M  V30 1641 H 152.907 -2.28911 2.15516 0
M  V30 1642 N 156.679 -1.44442 0.630414 0
M  V30 1643 C 157.928 -2.01267 0.132073 0
M  V30 1644 C 158.241 -1.50172 -1.25331 0
M  V30 1645 O 159.447 -1.9912 -1.84562 0
M  V30 1646 C 157.903 -3.59422 0.185362 0
M  V30 1647 C 157.511 -4.19514 1.57201 0
M  V30 1648 C 159.255 -4.23724 -0.256553 0
M  V30 1649 C 157.162 -5.69891 1.58045 0
M  V30 1650 H 156.092 -0.752619 0.0456092 0
M  V30 1651 H 158.743 -1.65666 0.789106 0
M  V30 1652 H 157.125 -3.92318 -0.538759 0
M  V30 1653 H 158.299 -3.98156 2.31966 0
M  V30 1654 H 156.614 -3.67496 1.95795 0
M  V30 1655 H 159.211 -5.34019 -0.269767 0
M  V30 1656 H 159.554 -3.96013 -1.28372 0
M  V30 1657 H 160.087 -3.95629 0.41505 0
M  V30 1658 H 156.826 -6.02336 2.58597 0
M  V30 1659 H 156.346 -5.93373 0.875725 0
M  V30 1660 H 158.025 -6.33515 1.31408 0
M  V30 1661 N 158.157 -0.370918 -1.53173 0
M  V30 1662 C 159.12 0.460778 -2.24521 0
M  V30 1663 C 160.12 1.00536 -1.25496 0
M  V30 1664 O 161.31 0.890266 -1.49733 0
M  V30 1665 C 158.442 1.64457 -2.98608 0
M  V30 1666 H 159.635 -0.163613 -2.99453 0
M  V30 1667 H 157.188 -0.122699 -1.55818 0
M  V30 1668 H 157.923 2.30691 -2.2793 0
M  V30 1669 H 157.708 1.26099 -3.7127 0
M  V30 1670 H 159.198 2.23384 -3.5283 0
M  V30 1671 N 159.635 1.57281 -0.100228 0
M  V30 1672 C 160.912 1.86014 0.604812 0
M  V30 1673 C 161.292 0.998025 1.86018 0
M  V30 1674 O 160.64 0.0718184 2.28387 0
M  V30 1675 C 160.85 3.36784 0.915278 0
M  V30 1676 C 162.198 4.04957 1.27651 0
M  V30 1677 O 163.222 3.41695 1.00613 0
M  V30 1678 O 162.081 5.16593 1.7831 0
M  V30 1679 H 159.175 0.76942 0.303185 0
M  V30 1680 H 161.721 1.69176 -0.133313 0
M  V30 1681 H 160.493 3.91292 0.0248896 0
M  V30 1682 H 160.116 3.58987 1.70921 0
M  V30 1683 N 161.113 -0.173488 1.56642 0
M  V30 1684 C 162.076 -1.19859 1.95362 0
M  V30 1685 C 163.076 -1.37296 0.83704 0
M  V30 1686 O 164.266 -1.34739 1.10413 0
M  V30 1687 C 161.398 -2.56405 2.24654 0
M  V30 1688 H 162.591 -0.867062 2.87092 0
M  V30 1689 H 160.144 -0.415853 1.50666 0
M  V30 1690 H 160.879 -2.94576 1.35631 0
M  V30 1691 H 160.664 -2.45115 3.06041 0
M  V30 1692 H 162.154 -3.30287 2.5554 0
M  V30 1693 N 162.591 -1.51276 -0.441967 0
M  V30 1694 C 163.837 -1.63958 -1.19355 0
M  V30 1695 C 164.17 -0.352543 -1.90973 0
M  V30 1696 O 163.445 0.647627 -1.83401 0
M  V30 1697 C 163.728 -2.83979 -2.21422 0
M  V30 1698 C 163.581 -4.22646 -1.53918 0
M  V30 1699 C 164.9 -2.99521 -3.22451 0
M  V30 1700 H 162.019 -0.596709 -0.432559 0
M  V30 1701 H 164.661 -1.83748 -0.483398 0
M  V30 1702 H 162.811 -2.67237 -2.81987 0
M  V30 1703 H 164.483 -4.51045 -0.967256 0
M  V30 1704 H 162.726 -4.25558 -0.841615 0
M  V30 1705 H 163.397 -5.02609 -2.28229 0
M  V30 1706 H 165.873 -3.14944 -2.71937 0
M  V30 1707 H 164.749 -3.85072 -3.91166 0
M  V30 1708 H 165.01 -2.11391 -3.88287 0
M  V30 1709 N 164.069 0.697108 -1.41344 0
M  V30 1710 C 165.032 1.79281 -1.42797 0
M  V30 1711 C 166.032 1.57607 -0.318837 0
M  V30 1712 O 167.222 1.64309 -0.578642 0
M  V30 1713 C 164.354 3.17632 -1.23785 0
M  V30 1714 H 165.547 1.79385 -2.40335 0
M  V30 1715 H 163.1 0.904582 -1.27464 0
M  V30 1716 H 163.835 3.23167 -0.270814 0
M  V30 1717 H 163.62 3.34765 -2.04144 0
M  V30 1718 H 165.11 3.97617 -1.27633 0
M  V30 1719 N 165.547 1.27147 0.931209 0
M  V30 1720 C 166.787 1.14511 1.69312 0
M  V30 1721 C 167.151 -0.304638 1.89568 0
M  V30 1722 O 168.352 -0.553343 2.63043 0
M  V30 1723 C 166.623 1.90349 3.02493 0
M  V30 1724 S 168.182 1.93884 3.93642 0
M  V30 1725 H 165 0.408858 0.581684 0
M  V30 1726 H 167.602 1.61006 1.10893 0
M  V30 1727 H 166.306 2.94877 2.85439 0
M  V30 1728 H 165.837 1.44333 3.65966 0
M  V30 1729 H 167.852 1.03273 4.85334 0
M  V30 1730 N 167.025 -1.13721 1.09112 0
M  V30 1731 C 167.988 -2.17222 0.731241 0
M  V30 1732 C 168.988 -1.59035 -0.237566 0
M  V30 1733 O 170.178 -1.74192 -0.0161704 0
M  V30 1734 C 167.31 -3.40804 0.0808443 0
M  V30 1735 H 168.503 -2.50573 1.64783 0
M  V30 1736 H 166.056 -1.28493 0.889897 0
M  V30 1737 H 166.791 -3.1304 -0.847127 0
M  V30 1738 H 166.576 -3.84306 0.777896 0
M  V30 1739 H 168.066 -4.1731 -0.155657 0
M  V30 1740 N 168.503 -0.877838 -1.30888 0
M  V30 1741 C 169.45 -0.337538 -2.28318 0
M  V30 1742 C 170.42 0.568346 -1.56074 0
M  V30 1743 O 171.605 0.498298 -1.84178 0
M  V30 1744 C 168.745 0.448142 -3.42178 0
M  V30 1745 C 167.858 -0.48615 -4.29256 0
M  V30 1746 C 166.993 0.314427 -5.30269 0
M  V30 1747 C 166.032 -0.615791 -6.08995 0
M  V30 1748 N 165.169 0.14902 -7.01942 0
M  V30 1749 H 170.009 -1.17356 -2.73919 0
M  V30 1750 H 167.546 -0.590094 -1.34745 0
M  V30 1751 H 169.504 0.919517 -4.06941 0
M  V30 1752 H 168.134 1.24879 -2.97666 0
M  V30 1753 H 167.186 -1.076 -3.64865 0
M  V30 1754 H 168.498 -1.19909 -4.84173 0
M  V30 1755 H 167.652 0.847969 -6.00745 0
M  V30 1756 H 166.391 1.06062 -4.76027 0
M  V30 1757 H 165.396 -1.16102 -5.37401 0
M  V30 1758 H 166.621 -1.36097 -6.65323 0
M  V30 1759 H 164.567 0.877884 -6.50099 0
M  V30 1760 H 164.484 -0.504433 -7.54315 0
M  V30 1761 H 165.752 0.663537 -7.76671 0
M  V30 1762 N 169.982 1.44106 -0.638065 0
M  V30 1763 C 171.398 1.56672 -0.304286 0
M  V30 1764 C 171.598 1.6244 1.19228 0
M  V30 1765 O 170.654 1.57121 1.9766 0
M  V30 1766 C 171.967 2.83503 -1.00231 0
M  V30 1767 C 173.515 2.97226 -0.981116 0
M  V30 1768 C 173.99 4.26868 -1.65974 0
M  V30 1769 N 175.481 4.33698 -1.62666 0
M  V30 1770 C 176.216 5.32745 -2.12063 0
M  V30 1771 N 175.712 6.38157 -2.6968 0
M  V30 1772 N 177.505 5.24299 -2.02651 0
M  V30 1773 H 169.656 1.38605 -1.60942 0
M  V30 1774 H 171.919 0.664661 -0.675965 0
M  V30 1775 H 171.625 2.85251 -2.0573 0
M  V30 1776 H 171.499 3.73251 -0.54439 0
M  V30 1777 H 173.886 2.95027 0.0654188 0
M  V30 1778 H 173.967 2.08808 -1.47759 0
M  V30 1779 H 173.611 4.29826 -2.70576 0
M  V30 1780 H 173.541 5.14156 -1.13804 0
M  V30 1781 H 176.032 3.58138 -1.20606 0
M  V30 1782 H 176.345 7.10029 -3.05087 0
M  V30 1783 H 174.69 6.38823 -2.73734 0
M  V30 1784 H 177.881 4.4086 -1.57353 0
M  V30 1785 H 178.054 6.01334 -2.41457 0
M  V30 1786 N 171.46 0.379036 1.52974 0
M  V30 1787 C 172.706 -0.206727 2.01744 0
M  V30 1788 C 173.039 -1.47314 1.26539 0
M  V30 1789 O 172.314 -1.91084 0.362903 0
M  V30 1790 C 172.597 -0.485066 3.56818 0
M  V30 1791 C 172.45 0.795919 4.42702 0
M  V30 1792 C 173.769 -1.28003 4.21074 0
M  V30 1793 H 170.888 -0.0736607 0.73331 0
M  V30 1794 H 173.53 0.506581 1.83122 0
M  V30 1795 H 171.68 -1.09272 3.72816 0
M  V30 1796 H 173.352 1.43307 4.38476 0
M  V30 1797 H 171.595 1.41344 4.10127 0
M  V30 1798 H 172.266 0.555947 5.49193 0
M  V30 1799 H 174.742 -0.765867 4.08991 0
M  V30 1800 H 173.618 -1.44352 5.29579 0
M  V30 1801 H 173.879 -2.29236 3.78026 0
M  V30 1802 N 172.938 -1.57226 0.108567 0
M  V30 1803 C 174.184 -1.95121 -0.552761 0
M  V30 1804 C 174.517 -0.991345 -1.66991 0
M  V30 1805 O 173.792 -0.0267211 -1.94482 0
M  V30 1806 C 174.075 -3.43039 -1.09528 0
M  V30 1807 C 173.928 -4.49797 0.0177332 0
M  V30 1808 C 175.247 -3.92567 -1.98945 0
M  V30 1809 H 172.366 -0.709496 -0.199461 0
M  V30 1810 H 175.008 -1.89126 0.182011 0
M  V30 1811 H 173.158 -3.48279 -1.72146 0
M  V30 1812 H 174.83 -4.56661 0.652584 0
M  V30 1813 H 173.073 -4.284 0.682309 0
M  V30 1814 H 173.744 -5.50528 -0.402919 0
M  V30 1815 H 176.22 -3.89565 -1.46214 0
M  V30 1816 H 175.096 -4.96605 -2.33827 0
M  V30 1817 H 175.357 -3.32648 -2.91201 0
M  V30 1818 N 174.416 0.165178 -1.56732 0
M  V30 1819 C 175.832 0.517174 -1.50988 0
M  V30 1820 C 176.032 1.84331 -0.813894 0
M  V30 1821 O 175.088 2.49672 -0.37682 0
M  V30 1822 C 176.401 0.544261 -2.95733 0
M  V30 1823 C 177.949 0.631039 -3.06573 0
M  V30 1824 C 178.424 0.68896 -4.52788 0
M  V30 1825 N 179.915 0.751683 -4.5706 0
M  V30 1826 C 180.65 0.817177 -5.67547 0
M  V30 1827 N 180.146 0.843129 -6.8765 0
M  V30 1828 N 181.939 0.856668 -5.55534 0
M  V30 1829 H 174.09 -0.704318 -2.00382 0
M  V30 1830 H 176.353 -0.254687 -0.913148 0
M  V30 1831 H 176.059 -0.361607 -3.49836 0
M  V30 1832 H 175.933 1.3886 -3.5071 0
M  V30 1833 H 178.32 1.52733 -2.52501 0
M  V30 1834 H 178.401 -0.240095 -2.54671 0
M  V30 1835 H 178.045 -0.2031 -5.07494 0
M  V30 1836 H 177.975 1.57633 -5.02454 0
M  V30 1837 H 180.466 0.739661 -3.70591 0
M  V30 1838 H 180.779 0.894448 -7.67606 0
M  V30 1839 H 179.124 0.811304 -6.90248 0
M  V30 1840 H 182.315 0.833437 -4.60621 0
M  V30 1841 H 182.488 0.904247 -6.4166 0
M  V30 1842 N 175.894 1.51508 0.433938 0
M  V30 1843 C 177.171 1.54888 1.19453 0
M  V30 1844 C 177.551 0.315154 2.08734 0
M  V30 1845 O 176.899 -0.699558 2.17528 0
M  V30 1846 C 177.109 2.86467 1.99342 0
M  V30 1847 C 178.457 3.38545 2.56267 0
M  V30 1848 O 179.481 2.88041 2.0955 0
M  V30 1849 O 178.34 4.26675 3.41483 0
M  V30 1850 H 175.434 0.622863 0.544032 0
M  V30 1851 H 177.98 1.63823 0.442732 0
M  V30 1852 H 176.752 3.67718 1.33788 0
M  V30 1853 H 176.375 2.8071 2.8158 0
M  V30 1854 N 177.372 -0.689602 1.41712 0
M  V30 1855 C 178.783 -1.26973 1.36875 0
M  V30 1856 C 179.134 -1.96124 0.054748 0
M  V30 1857 O 178.259 -1.99141 -0.84687 0
M  V30 1858 C 178.854 -2.30912 2.47922 0
M  V30 1859 C 177.413 -2.84486 2.46464 0
M  V30 1860 C 176.56 -1.58603 2.27465 0
M  V30 1861 H 179.511 -0.48396 1.51141 0
M  V30 1862 H 179.532 -3.12331 2.17323 0
M  V30 1863 H 179.044 -1.80554 3.43543 0
M  V30 1864 H 177.145 -3.39005 1.54617 0
M  V30 1865 H 177.258 -3.34511 3.42986 0
M  V30 1866 H 175.622 -1.84632 1.75451 0
M  V30 1867 H 176.405 -1.10233 3.25121 0
M  V30 1868 N 178.85 -1.27639 -0.924453 0
M  V30 1869 C 179.782 -1.06442 -2.02985 0
M  V30 1870 C 180.795 -0.0194771 -1.62788 0
M  V30 1871 O 181.984 -0.261388 -1.76576 0
M  V30 1872 C 179.084 -0.59327 -3.33667 0
M  V30 1873 C 178.257 -1.71123 -4.02537 0
M  V30 1874 C 177.316 -1.23527 -5.11495 0
M  V30 1875 O 176.342 -1.93553 -5.35281 0
M  V30 1876 N 177.544 -0.0926678 -5.80426 0
M  V30 1877 H 180.309 -2.01633 -2.2173 0
M  V30 1878 H 177.87 -1.19248 -1.09505 0
M  V30 1879 H 179.862 -0.258686 -4.03872 0
M  V30 1880 H 178.432 0.265502 -3.1147 0
M  V30 1881 H 177.652 -2.21593 -3.26022 0
M  V30 1882 H 178.94 -2.46145 -4.45298 0
M  V30 1883 H 178.338 0.491741 -5.63559 0
M  V30 1884 H 176.895 0.182714 -6.51544 0
M  V30 1885 N 180.328 1.1314 -1.09713 0
M  V30 1886 C 181.576 1.84119 -0.833338 0
M  V30 1887 C 181.897 1.84097 0.642904 0
M  V30 1888 O 181.167 1.29881 1.46655 0
M  V30 1889 H 179.747 0.681766 -0.305293 0
M  V30 1890 H 182.409 1.37038 -1.38588 0
M  V30 1891 H 181.505 2.88543 -1.18951 0
M  V30 1892 N 181.806 0.884767 1.30421 0
M  V30 1893 C 183.055 0.499164 1.95426 0
M  V30 1894 C 183.368 -0.95645 1.70621 0
M  V30 1895 O 184.574 -1.44889 2.29607 0
M  V30 1896 C 183.03 0.84177 3.49917 0
M  V30 1897 C 182.638 2.31514 3.83543 0
M  V30 1898 C 184.382 0.525355 4.21237 0
M  V30 1899 C 182.289 2.59939 5.31212 0
M  V30 1900 H 181.219 0.182944 0.73147 0
M  V30 1901 H 183.87 1.07971 1.48373 0
M  V30 1902 H 182.252 0.190311 3.95542 0
M  V30 1903 H 183.426 3.0109 3.48829 0
M  V30 1904 H 181.741 2.59907 3.25326 0
M  V30 1905 H 184.338 0.714762 5.29901 0
M  V30 1906 H 184.681 -0.535222 4.12845 0
M  V30 1907 H 185.214 1.134 3.81294 0
M  V30 1908 H 181.953 3.64736 5.44654 0
M  V30 1909 H 181.473 1.94972 5.67227 0
M  V30 1910 H 183.152 2.45429 5.98643 0
M  V30 1911 N 183.284 -1.43765 0.645699 0
M  V30 1912 C 184.7 -1.56509 0.312591 0
M  V30 1913 C 184.9 -1.6307 -1.18365 0
M  V30 1914 O 183.956 -1.58167 -1.96824 0
M  V30 1915 C 185.269 -2.82968 1.01733 0
M  V30 1916 C 186.817 -2.96701 0.996865 0
M  V30 1917 C 187.292 -4.25982 1.68236 0
M  V30 1918 N 188.783 -4.32829 1.64964 0
M  V30 1919 C 189.518 -5.31613 2.14885 0
M  V30 1920 N 189.014 -6.36718 2.73061 0
M  V30 1921 N 190.807 -5.23217 2.05428 0
M  V30 1922 H 182.958 -1.3775 1.61675 0
M  V30 1923 H 185.221 -0.661067 0.679481 0
M  V30 1924 H 184.927 -2.84156 2.0724 0
M  V30 1925 H 184.801 -3.72957 0.564177 0
M  V30 1926 H 187.188 -2.95058 -0.0497719 0
M  V30 1927 H 187.269 -2.08022 1.48865 0
M  V30 1928 H 186.913 -4.28386 2.72852 0
M  V30 1929 H 186.843 -5.13545 1.16529 0
M  V30 1930 H 189.334 -3.57493 1.22503 0
M  V30 1931 H 189.647 -7.08401 3.08848 0
M  V30 1932 H 187.992 -6.37362 2.77118 0
M  V30 1933 H 191.183 -4.40019 1.59689 0
M  V30 1934 H 191.356 -6.00045 2.44643 0
M  V30 1935 N 184.763 -0.387143 -1.52771 0
M  V30 1936 C 185.726 0.436939 -2.24997 0
M  V30 1937 C 186.726 0.991991 -1.26555 0
M  V30 1938 O 187.916 0.874335 -1.50669 0
M  V30 1939 C 185.048 1.61281 -3.00335 0
M  V30 1940 H 186.241 -0.195365 -2.99263 0
M  V30 1941 H 183.794 -0.139218 -1.55679 0
M  V30 1942 H 184.529 2.2826 -2.30364 0
M  V30 1943 H 184.314 1.22154 -3.72587 0
M  V30 1944 H 185.804 2.19629 -3.5518 0
M  V30 1945 N 186.241 1.57166 -0.116904 0
M  V30 1946 C 187.487 1.96206 0.536166 0
M  V30 1947 C 187.842 0.99915 1.64422 0
M  V30 1948 O 187.135 0.0288195 1.91578 0
M  V30 1949 C 187.329 3.39508 1.11664 0
M  V30 1950 C 187.158 4.49651 0.0663474 0
M  V30 1951 C 185.928 5.03982 -0.36474 0
M  V30 1952 C 188.126 5.09322 -0.713829 0
M  V30 1953 N 186.108 5.97699 -1.40102 0
M  V30 1954 C 187.479 5.98963 -1.60136 0
M  V30 1955 C 189.534 4.91989 -0.764948 0
M  V30 1956 C 188.237 6.73128 -2.53556 0
M  V30 1957 C 190.263 5.66833 -1.68685 0
M  V30 1958 C 189.625 6.56158 -2.56196 0
M  V30 1959 H 185.724 0.764203 0.165886 0
M  V30 1960 H 188.308 1.93623 -0.204535 0
M  V30 1961 H 186.479 3.42743 1.82707 0
M  V30 1962 H 188.211 3.65677 1.73386 0
M  V30 1963 H 184.966 4.73592 0.027252 0
M  V30 1964 H 185.39 6.49262 -1.91802 0
M  V30 1965 H 190.032 4.22676 -0.102501 0
M  V30 1966 H 187.75 7.41689 -3.20816 0
M  V30 1967 H 191.336 5.55427 -1.73181 0
M  V30 1968 H 190.216 7.13057 -3.26372 0
M  V30 1969 N 187.719 -0.156864 1.56817 0
M  V30 1970 C 188.965 -0.872416 1.83076 0
M  V30 1971 C 189.298 -1.81261 0.697001 0
M  V30 1972 O 188.573 -1.92171 -0.30008 0
M  V30 1973 C 188.856 -1.65551 3.19789 0
M  V30 1974 C 188.709 -0.737467 4.43713 0
M  V30 1975 C 190.028 -2.62012 3.53606 0
M  V30 1976 H 187.147 -0.315715 0.665953 0
M  V30 1977 H 189.789 -0.138004 1.89498 0
M  V30 1978 H 187.939 -2.28159 3.14445 0
M  V30 1979 H 189.611 -0.123143 4.61136 0
M  V30 1980 H 187.854 -0.0464067 4.33775 0
M  V30 1981 H 188.525 -1.32122 5.35955 0
M  V30 1982 H 191.001 -2.09525 3.59497 0
M  V30 1983 H 189.877 -3.13861 4.50314 0
M  V30 1984 H 190.138 -3.42902 2.79053 0
M  V30 1985 N 189.197 -1.51736 -0.425897 0
M  V30 1986 C 190.16 -1.73271 -1.50032 0
M  V30 1987 C 191.16 -0.602639 -1.4908 0
M  V30 1988 O 192.35 -0.87033 -1.509 0
M  V30 1989 C 189.482 -1.79969 -2.89523 0
M  V30 1990 H 190.675 -2.69172 -1.32237 0
M  V30 1991 H 188.228 -1.41899 -0.65532 0
M  V30 1992 H 188.963 -0.859241 -3.1271 0
M  V30 1993 H 188.748 -2.62109 -2.91619 0
M  V30 1994 H 190.238 -1.9843 -3.67444 0
M  V30 1995 N 190.675 0.682077 -1.42076 0
M  V30 1996 C 191.921 1.44283 -1.43366 0
M  V30 1997 C 192.276 1.92344 -0.0465775 0
M  V30 1998 O 191.569 1.67517 0.929973 0
M  V30 1999 C 191.763 2.66036 -2.38662 0
M  V30 2000 C 191.592 2.29889 -3.86499 0
M  V30 2001 C 190.362 2.19599 -4.55087 0
M  V30 2002 C 192.56 1.91999 -4.77117 0
M  V30 2003 N 190.542 1.76478 -5.87987 0
M  V30 2004 C 191.913 1.59741 -5.99068 0
M  V30 2005 C 193.968 1.78927 -4.64639 0
M  V30 2006 C 192.671 1.15723 -7.0993 0
M  V30 2007 C 194.697 1.36314 -5.75476 0
M  V30 2008 C 194.059 1.04975 -6.96534 0
M  V30 2009 H 190.158 0.524739 -0.579805 0
M  V30 2010 H 192.742 0.787834 -1.78048 0
M  V30 2011 H 190.913 3.29237 -2.06053 0
M  V30 2012 H 192.645 3.32588 -2.30581 0
M  V30 2013 H 189.4 2.38433 -4.09202 0
M  V30 2014 H 189.824 1.57362 -6.58458 0
M  V30 2015 H 194.466 2.01805 -3.7153 0
M  V30 2016 H 192.184 0.91591 -8.02893 0
M  V30 2017 H 195.77 1.26731 -5.6783 0
M  V30 2018 H 194.65 0.725017 -7.80841 0
M  V30 2019 N 192.153 1.28127 0.917671 0
M  V30 2020 C 193.569 1.05749 1.19538 0
M  V30 2021 C 193.769 -0.202633 2.00479 0
M  V30 2022 O 192.825 -0.905382 2.3571 0
M  V30 2023 C 194.138 2.30273 1.93378 0
M  V30 2024 C 195.686 2.35412 2.06277 0
M  V30 2025 C 196.161 3.59692 2.83524 0
M  V30 2026 N 197.652 3.60309 2.91087 0
M  V30 2027 C 198.387 4.53147 3.51348 0
M  V30 2028 N 197.883 5.563 4.12919 0
M  V30 2029 N 199.676 4.40751 3.48849 0
M  V30 2030 H 191.827 2.09024 0.377184 0
M  V30 2031 H 194.09 0.919798 0.22951 0
M  V30 2032 H 193.796 3.22055 1.41328 0
M  V30 2033 H 193.67 2.36378 2.93947 0
M  V30 2034 H 196.057 1.4413 2.57508 0
M  V30 2035 H 196.138 2.33304 1.04895 0
M  V30 2036 H 195.782 4.51316 2.32973 0
M  V30 2037 H 195.712 3.59054 3.85211 0
M  V30 2038 H 198.203 2.85714 2.47338 0
M  V30 2039 H 198.516 6.2329 4.56869 0
M  V30 2040 H 196.861 5.60131 4.11435 0
M  V30 2041 H 200.052 3.59367 2.99955 0
M  V30 2042 H 200.225 5.13291 3.9552 0
M  V30 2043 N 193.631 -1.12557 1.10312 0
M  V30 2044 C 194.579 -2.20325 0.745629 0
M  V30 2045 C 195.573 -1.67429 -0.25763 0
M  V30 2046 O 196.779 -1.79612 -0.118132 0
M  V30 2047 H 193.154 -0.718118 0.223182 0
M  V30 2048 H 195.125 -2.47733 1.66346 0
M  V30 2049 C 193.874 -3.47168 0.192262 0
M  V30 2050 H 193.197 -3.88215 0.955475 0
M  V30 2051 H 194.637 -4.23995 -0.0198274 0
M  V30 2052 C 193.096 -3.19298 -1.07472 0
M  V30 2053 O 193.626 -3.3891 -2.15645 0
M  V30 2054 N 191.832 -2.73113 -0.992847 0
M  V30 2055 H 191.379 -2.57354 -0.112474 0
M  V30 2056 H 191.337 -2.54842 -1.84127 0
M  V30 2057 N 195.109 -0.891671 -1.2995 0
M  V30 2058 C 196.525 -0.58662 -1.48428 0
M  V30 2059 C 196.725 0.873951 -1.81561 0
M  V30 2060 O 195.781 1.65471 -1.90724 0
M  V30 2061 C 197.094 -1.50553 -2.60296 0
M  V30 2062 C 198.642 -1.50988 -2.74175 0
M  V30 2063 C 199.117 -2.41488 -3.89163 0
M  V30 2064 N 200.608 -2.39489 -3.96483 0
M  V30 2065 C 201.343 -3.06223 -4.84784 0
M  V30 2066 N 200.839 -3.82206 -5.77833 0
M  V30 2067 N 202.632 -2.95421 -4.78208 0
M  V30 2068 H 194.783 -1.83644 -1.06718 0
M  V30 2069 H 197.046 -0.786455 -0.529332 0
M  V30 2070 H 196.752 -2.54581 -2.42654 0
M  V30 2071 H 196.626 -1.22008 -3.56923 0
M  V30 2072 H 199.013 -0.47708 -2.91218 0
M  V30 2073 H 199.094 -1.83567 -1.78148 0
M  V30 2074 H 198.738 -3.44857 -3.72876 0
M  V30 2075 H 198.668 -2.06222 -4.84541 0
M  V30 2076 H 201.159 -1.84278 -3.29924 0
M  V30 2077 H 201.472 -4.302 -6.41988 0
M  V30 2078 H 199.817 -3.86313 -5.77743 0
M  V30 2079 H 203.008 -2.35581 -4.04499 0
M  V30 2080 H 203.181 -3.47704 -5.46814 0
M  V30 2081 N 196.587 1.43421 -0.653314 0
M  V30 2082 C 197.827 2.03689 -0.170346 0
M  V30 2083 C 198.191 1.50427 1.19314 0
M  V30 2084 O 199.392 2.0234 1.76952 0
M  V30 2085 C 197.663 3.56946 -0.180183 0
M  V30 2086 S 199.222 4.38171 0.234925 0
M  V30 2087 H 196.04 0.707345 -0.0719976 0
M  V30 2088 H 198.642 1.75486 -0.86167 0
M  V30 2089 H 197.346 3.93212 -1.17526 0
M  V30 2090 H 196.877 3.89791 0.531675 0
M  V30 2091 H 198.892 4.73808 1.47378 0
M  V30 2092 N 198.065 0.39524 1.52563 0
M  V30 2093 C 198.997 -0.472201 2.24283 0
M  V30 2094 C 200.01 -1.02178 1.26742 0
M  V30 2095 O 201.199 -0.923097 1.52778 0
M  V30 2096 C 198.299 -1.66775 2.95024 0
M  V30 2097 C 197.472 -1.2445 4.19322 0
M  V30 2098 C 196.531 -2.30539 4.7301 0
M  V30 2099 O 195.557 -1.91702 5.35947 0
M  V30 2100 N 196.759 -3.6253 4.53379 0
M  V30 2101 H 199.524 0.142282 2.99362 0
M  V30 2102 H 197.085 0.2219 1.60372 0
M  V30 2103 H 199.077 -2.37283 3.27839 0
M  V30 2104 H 197.647 -2.18845 2.23217 0
M  V30 2105 H 196.867 -0.368069 3.92478 0
M  V30 2106 H 198.155 -0.938457 5.0007 0
M  V30 2107 H 197.553 -3.96841 4.03154 0
M  V30 2108 H 196.11 -4.29055 4.90668 0
M  V30 2109 N 199.544 -1.57102 0.125237 0
M  V30 2110 C 200.492 -2.16905 -0.839927 0
M  V30 2111 C 201.486 -1.11998 -1.27094 0
M  V30 2112 O 202.692 -1.3029 -1.24195 0
M  V30 2113 H 199.067 -0.694252 -0.288995 0
M  V30 2114 H 201.038 -2.96774 -0.311115 0
M  V30 2115 C 199.787 -2.78795 -2.07771 0
M  V30 2116 H 199.11 -3.59221 -1.755 0
M  V30 2117 H 200.55 -3.2417 -2.73295 0
M  V30 2118 C 199.009 -1.76193 -2.87155 0
M  V30 2119 O 199.539 -1.21909 -3.82755 0
M  V30 2120 N 197.745 -1.45991 -2.51267 0
M  V30 2121 H 197.292 -1.90325 -1.73592 0
M  V30 2122 H 197.25 -0.775844 -3.04677 0
M  V30 2123 N 201.022 0.148545 -1.56898 0
M  V30 2124 C 202.438 0.501131 -1.51528 0
M  V30 2125 C 202.638 1.83458 -0.833399 0
M  V30 2126 O 201.694 2.49259 -0.40328 0
M  V30 2127 C 203.007 0.512864 -2.96294 0
M  V30 2128 C 204.555 0.598487 -3.07225 0
M  V30 2129 C 205.03 0.640897 -4.53494 0
M  V30 2130 N 206.521 0.703163 -4.57832 0
M  V30 2131 C 207.256 0.756935 -5.68382 0
M  V30 2132 N 206.752 0.770147 -6.88506 0
M  V30 2133 N 208.545 0.797698 -5.56411 0
M  V30 2134 H 200.696 -0.725532 -1.99624 0
M  V30 2135 H 202.959 -0.264358 -0.910395 0
M  V30 2136 H 202.665 -0.398691 -3.49433 0
M  V30 2137 H 202.539 1.35133 -3.52163 0
M  V30 2138 H 204.926 1.50046 -2.54106 0
M  V30 2139 H 205.007 -0.267093 -2.54402 0
M  V30 2140 H 204.651 -0.256915 -5.0725 0
M  V30 2141 H 204.581 1.52295 -5.04097 0
M  V30 2142 H 207.072 0.700314 -3.71354 0
M  V30 2143 H 207.385 0.812983 -7.68512 0
M  V30 2144 H 205.73 0.738049 -6.9107 0
M  V30 2145 H 208.921 0.784535 -4.61479 0
M  V30 2146 H 209.094 0.83614 -6.42583 0
M  V30 2147 N 202.5 1.5196 0.417844 0
M  V30 2148 C 203.777 1.56146 1.17803 0
M  V30 2149 C 204.157 0.337275 2.08388 0
M  V30 2150 O 203.505 -0.676447 2.18258 0
M  V30 2151 C 203.715 2.88566 1.96293 0
M  V30 2152 C 205.063 3.41244 2.52662 0
M  V30 2153 O 206.087 2.90247 2.06483 0
M  V30 2154 O 204.946 4.30273 3.36938 0
M  V30 2155 H 202.04 0.628598 0.537395 0
M  V30 2156 H 204.586 1.64283 0.425331 0
M  V30 2157 H 203.358 3.69116 1.2988 0
M  V30 2158 H 202.981 2.83681 2.78587 0
M  V30 2159 N 203.978 -0.674533 1.42435 0
M  V30 2160 C 205.224 -1.43671 1.43131 0
M  V30 2161 C 205.557 -1.94142 0.0476021 0
M  V30 2162 O 204.832 -1.70924 -0.928188 0
M  V30 2163 C 205.115 -2.63355 2.45594 0
M  V30 2164 C 204.968 -2.18514 3.93156 0
M  V30 2165 C 206.287 -3.65571 2.45043 0
M  V30 2166 H 203.406 -0.521077 0.521198 0
M  V30 2167 H 206.048 -0.766551 1.7385 0
M  V30 2168 H 204.198 -3.2053 2.19528 0
M  V30 2169 H 205.87 -1.66504 4.30202 0
M  V30 2170 H 204.113 -1.50086 4.07009 0
M  V30 2171 H 204.784 -3.04484 4.60428 0
M  V30 2172 H 207.26 -3.18113 2.68223 0
M  V30 2173 H 206.136 -4.46893 3.18713 0
M  V30 2174 H 206.397 -4.16716 1.47649 0
M  V30 2175 N 205.456 -1.28612 -0.910864 0
M  V30 2176 C 206.872 -1.06381 -1.18976 0
M  V30 2177 C 207.072 0.191998 -2.00583 0
M  V30 2178 O 206.128 0.892869 -2.36187 0
M  V30 2179 C 207.441 -2.31295 -1.92154 0
M  V30 2180 C 208.989 -2.36503 -2.05025 0
M  V30 2181 C 209.464 -3.61191 -2.81612 0
M  V30 2182 N 210.955 -3.61847 -2.89172 0
M  V30 2183 C 211.69 -4.55004 -3.4894 0
M  V30 2184 N 211.186 -5.58482 -4.09963 0
M  V30 2185 N 212.979 -4.42594 -3.46506 0
M  V30 2186 H 205.13 -2.09221 -0.366094 0
M  V30 2187 H 207.393 -0.921003 -0.224629 0
M  V30 2188 H 207.099 -3.228 -1.39618 0
M  V30 2189 H 206.973 -2.37934 -2.9269 0
M  V30 2190 H 209.36 -1.45494 -2.5674 0
M  V30 2191 H 209.441 -2.33857 -1.03657 0
M  V30 2192 H 209.085 -4.52545 -2.30576 0
M  V30 2193 H 209.015 -3.61092 -3.83302 0
M  V30 2194 H 211.506 -2.87022 -2.45819 0
M  V30 2195 H 211.819 -6.25704 -4.53557 0
M  V30 2196 H 210.164 -5.62305 -4.08459 0
M  V30 2197 H 213.355 -3.60953 -2.98045 0
M  V30 2198 H 213.528 -5.15381 -3.92793 0
M  V30 2199 N 206.934 1.1197 -1.10907 0
M  V30 2200 C 207.866 2.17592 -0.720175 0
M  V30 2201 C 208.879 1.60938 0.245495 0
M  V30 2202 O 210.068 1.78476 0.0292245 0
M  V30 2203 C 207.168 3.38873 -0.0427917 0
M  V30 2204 C 206.341 4.25006 -1.03388 0
M  V30 2205 C 205.4 5.24774 -0.387075 0
M  V30 2206 O 204.426 5.59631 -1.03934 0
M  V30 2207 N 205.628 5.74208 0.852407 0
M  V30 2208 H 208.393 2.51567 -1.62893 0
M  V30 2209 H 205.954 1.27439 -0.998543 0
M  V30 2210 H 207.946 4.02703 0.401501 0
M  V30 2211 H 206.516 3.03007 0.768456 0
M  V30 2212 H 205.736 3.57716 -1.65629 0
M  V30 2213 H 207.024 4.79397 -1.70458 0
M  V30 2214 H 206.422 5.48062 1.40161 0
M  V30 2215 H 204.979 6.39901 1.23977 0
M  V30 2216 N 208.412 0.89855 1.29475 0
M  V30 2217 C 209.642 0.538479 1.99459 0
M  V30 2218 C 210.05 -0.880922 1.67441 0
M  V30 2219 O 209.393 -1.59283 0.915127 0
M  V30 2220 C 209.455 0.649564 3.53583 0
M  V30 2221 C 209.119 2.03573 4.09154 0
M  V30 2222 C 210.116 3.00675 4.24135 0
M  V30 2223 C 207.801 2.3448 4.44212 0
M  V30 2224 C 209.795 4.26809 4.73405 0
M  V30 2225 C 207.482 3.60857 4.93179 0
M  V30 2226 C 208.48 4.56836 5.0773 0
M  V30 2227 O 208.168 5.80969 5.55635 0
M  V30 2228 H 207.9 0.205372 0.644048 0
M  V30 2229 H 210.454 1.20958 1.66007 0
M  V30 2230 H 208.684 -0.0785592 3.8662 0
M  V30 2231 H 210.373 0.29881 4.04799 0
M  V30 2232 H 211.139 2.78112 3.97339 0
M  V30 2233 H 207.018 1.60534 4.32145 0
M  V30 2234 H 210.562 5.0173 4.84678 0
M  V30 2235 H 206.459 3.83251 5.19412 0
M  V30 2236 H 207.227 5.83542 5.73952 0
M  V30 2237 N 209.89 -1.43072 0.660911 0
M  V30 2238 C 211.136 -2.0202 0.177708 0
M  V30 2239 C 211.469 -1.52066 -1.20787 0
M  V30 2240 O 210.744 -0.716987 -1.80802 0
M  V30 2241 C 211.027 -3.59561 0.197019 0
M  V30 2242 C 210.88 -4.19727 1.61706 0
M  V30 2243 C 212.199 -4.37664 -0.462396 0
M  V30 2244 H 209.318 -0.734034 0.0660494 0
M  V30 2245 H 211.96 -1.70272 0.843058 0
M  V30 2246 H 210.11 -3.86739 -0.369527 0
M  V30 2247 H 211.782 -4.03553 2.23479 0
M  V30 2248 H 210.025 -3.76084 2.16201 0
M  V30 2249 H 210.696 -5.28834 1.58237 0
M  V30 2250 H 213.172 -4.16095 0.0197215 0
M  V30 2251 H 212.048 -5.47305 -0.418188 0
M  V30 2252 H 212.309 -4.14493 -1.53778 0
M  V30 2253 N 211.368 -0.403325 -1.52352 0
M  V30 2254 C 212.3 0.4603 -2.2453 0
M  V30 2255 C 213.313 1.01505 -1.27282 0
M  V30 2256 O 214.502 0.914982 -1.53266 0
M  V30 2257 C 211.602 1.65208 -2.95905 0
M  V30 2258 C 210.775 1.22224 -4.19976 0
M  V30 2259 C 209.834 2.28028 -4.74226 0
M  V30 2260 O 208.86 1.88857 -5.36956 0
M  V30 2261 N 210.062 3.6012 -4.55295 0
M  V30 2262 H 212.827 -0.158156 -2.99282 0
M  V30 2263 H 210.388 -0.230402 -1.60252 0
M  V30 2264 H 212.38 2.35541 -3.29093 0
M  V30 2265 H 210.95 2.17658 -2.24374 0
M  V30 2266 H 210.17 0.34725 -3.92668 0
M  V30 2267 H 211.458 0.911924 -5.00561 0
M  V30 2268 H 210.856 3.94698 -4.05253 0
M  V30 2269 H 209.413 4.26447 -4.92936 0
M  V30 2270 N 212.846 1.57033 -0.133567 0
M  V30 2271 C 214.094 1.953 0.519848 0
M  V30 2272 C 214.415 1.01866 1.66278 0
M  V30 2273 O 213.685 0.0776513 1.95746 0
M  V30 2274 H 212.265 0.721091 0.195032 0
M  V30 2275 H 214.927 1.93809 -0.205921 0
M  V30 2276 H 214.023 2.98695 0.904854 0
M  V30 2277 N 214.325 -0.140222 1.56975 0
M  V30 2278 C 215.565 -0.857823 1.85528 0
M  V30 2279 C 215.929 -1.78039 0.718768 0
M  V30 2280 O 217.13 -2.53795 0.885521 0
M  V30 2281 C 215.401 -1.60615 3.19277 0
M  V30 2282 S 216.96 -2.36824 3.69405 0
M  V30 2283 H 213.778 -0.286727 0.650622 0
M  V30 2284 H 216.38 -0.117408 1.95147 0
M  V30 2285 H 215.084 -0.919994 3.99955 0
M  V30 2286 H 214.615 -2.38735 3.12681 0
M  V30 2287 H 216.63 -3.62148 3.3921 0
M  V30 2288 N 215.803 -1.52179 -0.40978 0
M  V30 2289 C 217.051 -1.65878 -1.15451 0
M  V30 2290 C 217.372 -0.390771 -1.91044 0
M  V30 2291 O 216.642 0.594323 -1.86667 0
M  V30 2292 H 215.222 -0.611405 -0.429177 0
M  V30 2293 H 217.884 -1.89219 -0.467134 0
M  V30 2294 H 216.98 -2.49954 -1.86894 0
M  V30 2295 N 217.281 0.66697 -1.42791 0
M  V30 2296 C 218.527 1.4291 -1.43891 0
M  V30 2297 C 218.86 1.94114 -0.0578972 0
M  V30 2298 O 218.135 1.71414 0.91911 0
M  V30 2299 C 218.418 2.62049 -2.46987 0
M  V30 2300 C 218.271 2.16426 -3.94309 0
M  V30 2301 C 219.59 3.64266 -2.46978 0
M  V30 2302 H 216.709 0.518306 -0.523954 0
M  V30 2303 H 219.351 0.757321 -1.74255 0
M  V30 2304 H 217.501 3.19361 -2.21225 0
M  V30 2305 H 219.173 1.64221 -4.31079 0
M  V30 2306 H 217.416 1.47925 -4.078 0
M  V30 2307 H 218.087 3.02038 -4.62036 0
M  V30 2308 H 220.563 3.16686 -2.69906 0
M  V30 2309 H 219.439 4.45196 -3.21079 0
M  V30 2310 H 219.7 4.15927 -1.49857 0
M  V30 2311 O 218.798 1.39735 0.809714 0
M  V30 2312 H 219.489 1.27958 1.45418 0
M  V30 END ATOM
M  V30 BEGIN BOND
M  V30 END BOND
M  V30 END CTAB
M  END
$$$$
