drugbank_target|Q9NVS9 Pyridoxine-5'-phosphate oxidase (DB00114; DB03247; DB03345)
 OpenBabel12092119263D

  0  0  0     0  0            999 V3000
M  V30 BEGIN CTAB
M  V30 COUNTS 4154 4215 0 0 0
M  V30 BEGIN ATOM
M  V30 1 H -0.908 1.98254 -0.117106 0
M  V30 2 N 0 1.576 0 0
M  V30 3 C 0.933 2.03868 1.02534 0
M  V30 4 C 1.911 0.928543 1.3348 0
M  V30 5 O 3.095 1.19667 1.45644 0
M  V30 6 C 0.222 2.43627 2.35294 0
M  V30 7 C -0.732 3.65373 2.2001 0
M  V30 8 S 0.101 5.13292 1.52614 0
M  V30 9 C 1.257 5.56322 2.86805 0
M  V30 10 H 1.49 2.90518 0.631377 0
M  V30 11 H -0.977 1.52953 0.210867 0
M  V30 12 H 0.981 2.67203 3.11629 0
M  V30 13 H -0.358 1.57376 2.7183 0
M  V30 14 H -1.165 3.90944 3.18086 0
M  V30 15 H -1.563 3.418 1.51819 0
M  V30 16 H 0.729 5.58782 3.83104 0
M  V30 17 H 1.672 6.56266 2.65933 0
M  V30 18 H 2.08 4.83886 2.90714 0
M  V30 19 N 1.4781 -0.272755 1.55222 0
M  V30 20 C 2.7061 -1.02255 1.79865 0
M  V30 21 C 3.1211 -1.79924 0.572088 0
M  V30 22 O 2.4781 -1.76638 -0.458842 0
M  V30 23 C 2.5291 -1.98094 3.02392 0
M  V30 24 O 2.2501 -1.23572 4.20311 0
M  V30 25 C 3.7511 -2.84884 3.39641 0
M  V30 26 H 0.9711 -0.302057 0.599168 0
M  V30 27 H 3.5151 -0.303465 2.02236 0
M  V30 28 H 1.6701 -2.65465 2.82147 0
M  V30 29 H 2.0841 -1.88172 4.89583 0
M  V30 30 H 3.5581 -3.47927 4.28545 0
M  V30 31 H 4.0351 -3.54665 2.59055 0
M  V30 32 H 4.6411 -2.23003 3.62146 0
M  V30 33 N 2.9562 -1.48159 -0.537278 0
M  V30 34 C 4.1962 -1.57397 -1.30405 0
M  V30 35 C 4.5602 -0.239202 -1.90504 0
M  V30 36 O 5.7612 -0.206528 -2.68005 0
M  V30 37 C 4.0322 -2.6754 -2.36974 0
M  V30 38 S 5.5912 -2.96496 -3.23475 0
M  V30 39 H 2.4092 -0.555577 -0.443684 0
M  V30 40 H 5.0112 -1.85644 -0.612912 0
M  V30 41 H 3.7152 -3.63092 -1.91291 0
M  V30 42 H 3.2462 -2.41172 -3.10805 0
M  V30 43 H 5.2612 -2.35234 -4.36897 0
M  V30 44 N 4.4343 0.785586 -1.36625 0
M  V30 45 C 5.6803 1.5452 -1.32269 0
M  V30 46 C 6.0353 1.92159 0.0962266 0
M  V30 47 O 5.3283 1.60158 1.05167 0
M  V30 48 C 5.5223 2.83007 -2.1827 0
M  V30 49 C 5.3513 2.57925 -3.68382 0
M  V30 50 C 4.1213 2.52752 -4.37544 0
M  V30 51 C 6.3193 2.26861 -4.61561 0
M  V30 52 N 4.3013 2.19608 -5.73276 0
M  V30 53 C 5.6723 2.03738 -5.85569 0
M  V30 54 C 7.7273 2.129 -4.50087 0
M  V30 55 C 6.4303 1.68065 -6.9939 0
M  V30 56 C 8.4563 1.78626 -5.63779 0
M  V30 57 C 7.8183 1.56353 -6.86828 0
M  V30 58 H 3.9173 0.566301 -0.539283 0
M  V30 59 H 6.5013 0.917736 -1.71714 0
M  V30 60 H 4.6723 3.43614 -1.81063 0
M  V30 61 H 6.4043 3.48775 -2.05275 0
M  V30 62 H 3.1593 2.6813 -3.90389 0
M  V30 63 H 3.5833 2.05771 -6.44971 0
M  V30 64 H 8.2253 2.28808 -3.55537 0
M  V30 65 H 5.9433 1.50895 -7.93887 0
M  V30 66 H 9.5293 1.68502 -5.56865 0
M  V30 67 H 8.4093 1.30223 -7.73312 0
M  V30 68 N 5.9124 1.20967 1.01018 0
M  V30 69 C 6.8424 0.988272 2.11555 0
M  V30 70 C 7.8234 -0.0849778 1.69888 0
M  V30 71 O 9.0084 0.0738202 1.9406 0
M  V30 72 C 6.1384 0.546528 3.42973 0
M  V30 73 C 5.0924 1.56375 3.9841 0
M  V30 74 C 4.4184 0.97842 5.25672 0
M  V30 75 C 5.7184 2.94922 4.31066 0
M  V30 76 H 7.4124 1.91276 2.30334 0
M  V30 77 H 4.9584 0.921073 1.1069 0
M  V30 78 H 6.9114 0.378839 4.19694 0
M  V30 79 H 5.6354 -0.413598 3.23971 0
M  V30 80 H 4.2944 1.71891 3.23804 0
M  V30 81 H 3.9424 0.0101688 5.02999 0
M  V30 82 H 3.6424 1.65784 5.63728 0
M  V30 83 H 5.1664 0.821939 6.05043 0
M  V30 84 H 6.5804 2.8288 4.9865 0
M  V30 85 H 4.9774 3.5983 4.80253 0
M  V30 86 H 6.0474 3.4616 3.39561 0
M  V30 87 N 7.3905 -1.2043 1.01659 0
M  V30 88 C 8.8065 -1.41852 0.731442 0
M  V30 89 C 9.0065 -1.89358 -0.688898 0
M  V30 90 O 8.0625 -2.06247 -1.45666 0
M  V30 91 C 9.3755 -2.44019 1.75714 0
M  V30 92 C 10.9235 -2.57785 1.77527 0
M  V30 93 C 11.3985 -3.63194 2.79023 0
M  V30 94 N 12.8895 -3.70678 2.77763 0
M  V30 95 C 13.6245 -4.51897 3.52954 0
M  V30 96 N 13.1205 -5.36921 4.37821 0
M  V30 97 N 14.9135 -4.4643 3.41551 0
M  V30 98 H 7.0645 -0.879093 1.93354 0
M  V30 99 H 9.3275 -0.448425 0.835236 0
M  V30 100 H 9.0335 -2.1611 2.77469 0
M  V30 101 H 8.9075 -3.43007 1.56927 0
M  V30 102 H 11.2945 -2.85023 0.764569 0
M  V30 103 H 11.3755 -1.58992 2.00387 0
M  V30 104 H 11.0195 -3.36699 3.80258 0
M  V30 105 H 10.9495 -4.61609 2.53425 0
M  V30 106 H 13.4405 -3.09944 2.16201 0
M  V30 107 H 13.7535 -5.95981 4.91962 0
M  V30 108 H 12.0985 -5.36424 4.41899 0
M  V30 109 H 15.2895 -3.79042 2.74672 0
M  V30 110 H 15.4625 -5.09491 4.00404 0
M  V30 111 N 8.8686 -0.792821 -1.36206 0
M  V30 112 C 10.1166 -0.366062 -1.98757 0
M  V30 113 C 10.4376 1.0668 -1.63231 0
M  V30 114 O 9.7076 1.73587 -0.907978 0
M  V30 115 H 8.2876 -0.132364 -0.735179 0
M  V30 116 H 10.9496 -1.01562 -1.66347 0
M  V30 117 H 10.0456 -0.460638 -3.08682 0
M  V30 118 N 10.3467 1.47872 -0.545128 0
M  V30 119 C 11.5927 2.02793 -0.0166104 0
M  V30 120 C 11.9257 1.41987 1.32489 0
M  V30 121 O 11.2007 0.571045 1.85928 0
M  V30 122 C 11.4837 3.59989 0.0893294 0
M  V30 123 C 11.3367 4.3125 -1.27841 0
M  V30 124 C 12.6557 4.32606 0.808724 0
M  V30 125 H 9.7747 0.736962 -0.00751035 0
M  V30 126 H 12.4167 1.76433 -0.705085 0
M  V30 127 H 10.5667 3.82579 0.675681 0
M  V30 128 H 12.2387 4.20035 -1.90704 0
M  V30 129 H 10.4817 3.92076 -1.85632 0
M  V30 130 H 11.1527 5.39736 -1.15713 0
M  V30 131 H 13.6287 4.14936 0.310992 0
M  V30 132 H 12.5047 5.42251 0.851782 0
M  V30 133 H 12.7657 4.00963 1.86229 0
M  V30 134 N 11.8248 0.280983 1.55075 0
M  V30 135 C 13.0528 -0.337293 2.04132 0
M  V30 136 C 13.4678 -1.4903 1.15912 0
M  V30 137 O 12.8248 -1.81606 0.180459 0
M  V30 138 C 12.8758 -0.812706 3.52246 0
M  V30 139 O 12.5968 0.294387 4.3711 0
M  V30 140 C 14.0978 -1.4982 4.17216 0
M  V30 141 H 11.3178 -0.0761638 0.666663 0
M  V30 142 H 13.8618 0.414787 2.00249 0
M  V30 143 H 12.0168 -1.51486 3.56554 0
M  V30 144 H 12.4308 -0.0721325 5.2445 0
M  V30 145 H 13.9048 -1.7822 5.22438 0
M  V30 146 H 14.3818 -2.43168 3.65741 0
M  V30 147 H 14.9878 -0.839742 4.16927 0
M  V30 148 N 13.3029 -1.57598 0.00835791 0
M  V30 149 C 14.2659 -2.07884 -0.965242 0
M  V30 150 C 15.2659 -0.989825 -1.26725 0
M  V30 151 O 16.4559 -1.25218 -1.21104 0
M  V30 152 C 13.5879 -2.52731 -2.28779 0
M  V30 153 H 14.7809 -2.95178 -0.530112 0
M  V30 154 H 12.3339 -1.54458 -0.239283 0
M  V30 155 H 13.0689 -1.68705 -2.76964 0
M  V30 156 H 12.8539 -3.32272 -2.08177 0
M  V30 157 H 14.3439 -2.91933 -2.98605 0
M  V30 158 N 14.781 0.264519 -1.55364 0
M  V30 159 C 16.009 1.013 -1.80405 0
M  V30 160 C 16.424 1.79618 -0.581622 0
M  V30 161 O 15.781 1.76879 0.449468 0
M  V30 162 C 15.832 1.96487 -3.03439 0
M  V30 163 O 15.553 1.21341 -4.20961 0
M  V30 164 C 17.054 2.83079 -3.41147 0
M  V30 165 H 14.274 0.298875 -0.600762 0
M  V30 166 H 16.818 0.292736 -2.02394 0
M  V30 167 H 14.973 2.63965 -2.83551 0
M  V30 168 H 15.387 1.85573 -4.90574 0
M  V30 169 H 16.861 3.4565 -4.30384 0
M  V30 170 H 17.338 3.53286 -2.60932 0
M  V30 171 H 17.944 2.2108 -3.63323 0
M  V30 172 N 16.2591 1.48442 0.529413 0
M  V30 173 C 17.5061 1.56488 1.28521 0
M  V30 174 C 17.8341 0.239042 1.93025 0
M  V30 175 O 17.0891 -0.770713 1.79885 0
M  V30 176 C 17.3881 2.6523 2.39558 0
M  V30 177 C 17.0541 4.07648 1.92702 0
M  V30 178 C 15.7161 4.46411 1.79641 0
M  V30 179 C 18.0681 4.96896 1.573 0
M  V30 180 C 15.3961 5.72226 1.29514 0
M  V30 181 C 17.7481 6.23202 1.08636 0
M  V30 182 C 16.4121 6.60821 0.941919 0
M  V30 183 H 15.6821 0.572631 0.470292 0
M  V30 184 H 18.3291 1.82161 0.59072 0
M  V30 185 H 16.6341 2.33419 3.14679 0
M  V30 186 H 18.3311 2.68671 2.97686 0
M  V30 187 H 14.9211 3.77036 2.03819 0
M  V30 188 H 19.1051 4.67626 1.66251 0
M  V30 189 H 14.3611 6.00097 1.17019 0
M  V30 190 H 18.5351 6.91753 0.803136 0
M  V30 191 H 16.1621 7.58198 0.5513 0
M  V30 192 N 17.7372 -0.778329 1.37039 0
M  V30 193 C 18.9852 -1.53361 1.31623 0
M  V30 194 C 19.3062 -1.94739 -0.100831 0
M  V30 195 O 18.5762 -1.65797 -1.04347 0
M  V30 196 H 17.1562 -0.568794 0.484234 0
M  V30 197 H 19.8182 -0.926742 1.71457 0
M  V30 198 H 18.9142 -2.43606 1.95096 0
M  V30 199 N 19.2153 -1.21501 -1.00376 0
M  V30 200 C 20.6313 -0.972629 -1.26539 0
M  V30 201 C 20.8313 0.340257 -1.98606 0
M  V30 202 O 19.8873 1.06561 -2.28913 0
M  V30 203 C 21.2003 -2.16404 -2.08781 0
M  V30 204 C 22.7483 -2.20643 -2.22004 0
M  V30 205 C 23.2233 -3.39306 -3.07629 0
M  V30 206 N 24.7143 -3.39401 -3.15217 0
M  V30 207 C 25.4493 -4.27867 -3.81729 0
M  V30 208 N 24.9453 -5.26533 -4.5026 0
M  V30 209 N 26.7383 -4.15672 -3.78382 0
M  V30 210 H 18.8893 -2.05929 -0.520281 0
M  V30 211 H 21.1523 -0.901803 -0.292328 0
M  V30 212 H 20.8583 -3.11554 -1.63178 0
M  V30 213 H 20.7323 -2.15567 -3.09533 0
M  V30 214 H 23.1193 -1.26048 -2.66825 0
M  V30 215 H 23.2003 -2.25523 -1.20718 0
M  V30 216 H 22.8443 -4.34195 -2.63509 0
M  V30 217 H 22.7743 -3.31665 -4.09031 0
M  V30 218 H 25.2653 -2.67997 -2.66432 0
M  V30 219 H 25.5783 -5.90337 -4.98721 0
M  V30 220 H 23.9233 -5.30457 -4.49044 0
M  V30 221 H 27.1143 -3.3785 -3.23998 0
M  V30 222 H 27.2873 -4.84825 -4.2994 0
M  V30 223 N 20.6934 1.19889 -1.02296 0
M  V30 224 C 22.1044 1.71124 -0.746568 0
M  V30 225 C 22.4554 1.81939 0.734335 0
M  V30 226 O 21.5804 1.48639 1.57275 0
M  V30 227 C 22.1754 3.10804 -1.34857 0
M  V30 228 C 20.7344 3.59323 -1.1209 0
M  V30 229 C 19.8814 2.3635 -1.45031 0
M  V30 230 H 22.8324 1.04813 -1.19163 0
M  V30 231 H 22.8534 3.73186 -0.742437 0
M  V30 232 H 22.3654 3.029 -2.42638 0
M  V30 233 H 20.4664 3.7255 -0.0610337 0
M  V30 234 H 20.5794 4.4378 -1.80544 0
M  V30 235 H 18.9434 2.39399 -0.869487 0
M  V30 236 H 19.7264 2.31081 -2.53883 0
M  V30 237 N 22.1715 0.800033 1.35784 0
M  V30 238 C 23.1345 0.211565 2.28221 0
M  V30 239 C 24.1345 -0.59728 1.49296 0
M  V30 240 O 25.3245 -0.416721 1.69142 0
M  V30 241 C 22.4565 -0.705846 3.33513 0
M  V30 242 H 23.6495 1.02677 2.81776 0
M  V30 243 H 21.2025 0.570211 1.45528 0
M  V30 244 H 21.9375 -1.54498 2.85133 0
M  V30 245 H 21.7225 -0.127655 3.91892 0
M  V30 246 H 23.2125 -1.11211 4.02519 0
M  V30 247 N 23.6496 -1.47581 0.552962 0
M  V30 248 C 24.5596 -2.33743 -0.200353 0
M  V30 249 C 25.5756 -1.47928 -0.916151 0
M  V30 250 O 26.7516 -1.80865 -0.885993 0
M  V30 251 C 23.8166 -3.24536 -1.21973 0
M  V30 252 C 22.8776 -4.26238 -0.511819 0
M  V30 253 C 22.1106 -5.12693 -1.48263 0
M  V30 254 O 22.3336 -5.01525 -2.71714 0
M  V30 255 O 21.2676 -5.93375 -1.00945 0
M  V30 256 H 25.0936 -2.9945 0.506304 0
M  V30 257 H 22.6786 -1.46071 0.313622 0
M  V30 258 H 24.5606 -3.80631 -1.80827 0
M  V30 259 H 23.2356 -2.61462 -1.90839 0
M  V30 260 H 22.1426 -3.73914 0.117799 0
M  V30 261 H 23.4756 -4.92014 0.135308 0
M  V30 262 N 25.1277 -0.289203 -1.54924 0
M  V30 263 C 26.3737 0.316922 -2.00916 0
M  V30 264 C 26.7287 1.52424 -1.17408 0
M  V30 265 O 26.0217 1.90097 -0.239536 0
M  V30 266 C 26.2157 0.736119 -3.49737 0
M  V30 267 C 26.0447 -0.429036 -4.47649 0
M  V30 268 C 24.8147 -0.917311 -4.96904 0
M  V30 269 C 27.0127 -1.27016 -4.98369 0
M  V30 270 N 24.9947 -2.05046 -5.78644 0
M  V30 271 C 26.3657 -2.25097 -5.77695 0
M  V30 272 C 28.4207 -1.30188 -4.80578 0
M  V30 273 C 27.1237 -3.26114 -6.41126 0
M  V30 274 C 29.1497 -2.30057 -5.44819 0
M  V30 275 C 28.5117 -3.2687 -6.23968 0
M  V30 276 H 24.6107 0.0807535 -0.777819 0
M  V30 277 H 27.1947 -0.416434 -1.90194 0
M  V30 278 H 25.3657 1.43867 -3.60773 0
M  V30 279 H 27.0977 1.32078 -3.82541 0
M  V30 280 H 23.8527 -0.494248 -4.71014 0
M  V30 281 H 24.2767 -2.62108 -6.24202 0
M  V30 282 H 28.9187 -0.567163 -4.18979 0
M  V30 283 H 26.6367 -4.00512 -7.01866 0
M  V30 284 H 30.2227 -2.33271 -5.32988 0
M  V30 285 H 29.1027 -4.02883 -6.72796 0
M  V30 286 N 26.6058 1.57591 -0.0167156 0
M  V30 287 C 28.0168 1.79201 0.523834 0
M  V30 288 C 28.3678 0.925796 1.72984 0
M  V30 289 O 27.4928 0.132792 2.15992 0
M  V30 290 C 28.0878 3.25 0.957091 0
M  V30 291 C 26.6468 3.47648 1.44283 0
M  V30 292 C 25.7938 2.74374 0.401757 0
M  V30 293 H 28.7448 1.56831 -0.242816 0
M  V30 294 H 28.7658 3.34031 1.82219 0
M  V30 295 H 28.2778 3.88019 0.0791415 0
M  V30 296 H 26.3788 2.89866 2.34113 0
M  V30 297 H 26.4918 4.56352 1.45877 0
M  V30 298 H 24.8558 2.39485 0.867121 0
M  V30 299 H 25.6388 3.40102 -0.467513 0
M  V30 300 N 28.0839 -0.256276 1.55502 0
M  V30 301 C 29.3319 -0.983672 1.76545 0
M  V30 302 C 29.6529 -1.86206 0.578982 0
M  V30 303 O 28.9229 -1.91656 -0.405577 0
M  V30 304 H 27.5029 -0.366191 0.651086 0
M  V30 305 H 30.1649 -0.276479 1.92929 0
M  V30 306 H 29.2609 -1.61087 2.67315 0
M  V30 307 N 29.562 -1.4872 -0.521534 0
M  V30 308 C 30.792 -1.6061 -1.29954 0
M  V30 309 C 31.2 -0.268728 -1.87282 0
M  V30 310 O 30.543 0.753221 -1.67548 0
M  V30 311 C 30.605 -2.60013 -2.48261 0
M  V30 312 C 30.269 -4.04874 -2.11957 0
M  V30 313 C 31.266 -4.92304 -1.67132 0
M  V30 314 C 28.951 -4.5047 -2.22221 0
M  V30 315 C 30.945 -6.2336 -1.33047 0
M  V30 316 C 28.632 -5.81544 -1.87748 0
M  V30 317 C 29.63 -6.67812 -1.43234 0
M  V30 318 O 29.318 -7.96446 -1.09217 0
M  V30 319 H 29.05 -0.544116 -0.401141 0
M  V30 320 H 31.604 -1.95339 -0.634958 0
M  V30 321 H 29.834 -2.20422 -3.17728 0
M  V30 322 H 31.523 -2.61648 -3.10315 0
M  V30 323 H 32.289 -4.58312 -1.58665 0
M  V30 324 H 28.168 -3.83504 -2.55823 0
M  V30 325 H 31.712 -6.90649 -0.982299 0
M  V30 326 H 27.609 -6.15069 -1.95858 0
M  V30 327 H 28.377 -8.09275 -1.22542 0
M  V30 328 N 31.0401 0.771051 -1.3745 0
M  V30 329 C 31.9701 1.89827 -1.3597 0
M  V30 330 C 32.9511 1.68562 -0.228216 0
M  V30 331 O 34.1361 1.8941 -0.428675 0
M  V30 332 C 31.2661 3.2712 -1.16662 0
M  V30 333 C 30.2201 3.6295 -2.2683 0
M  V30 334 C 29.5461 4.98791 -1.92644 0
M  V30 335 C 30.8461 3.69627 -3.69017 0
M  V30 336 H 32.5401 1.91323 -2.30295 0
M  V30 337 H 30.0861 0.919082 -1.10855 0
M  V30 338 H 32.0391 4.05615 -1.14256 0
M  V30 339 H 30.7631 3.26059 -0.187926 0
M  V30 340 H 29.4221 2.86763 -2.28392 0
M  V30 341 H 29.0701 4.94271 -0.933021 0
M  V30 342 H 28.7701 5.23733 -2.66416 0
M  V30 343 H 30.2941 5.79685 -1.91826 0
M  V30 344 H 31.7081 4.38273 -3.69581 0
M  V30 345 H 30.1051 4.06067 -4.41848 0
M  V30 346 H 31.1751 2.70273 -4.02592 0
M  V30 347 N 32.5182 1.22032 0.997298 0
M  V30 348 C 33.7432 1.06921 1.77715 0
M  V30 349 C 34.1682 -0.376226 1.84299 0
M  V30 350 O 33.5262 -1.27165 1.29223 0
M  V30 351 C 33.5742 1.67996 3.19076 0
M  V30 352 O 32.6782 0.930653 4.01762 0
M  V30 353 H 32.0192 0.375814 0.547412 0
M  V30 354 H 34.5492 1.61737 1.25309 0
M  V30 355 H 34.5592 1.72538 3.69723 0
M  V30 356 H 33.2342 2.73182 3.13599 0
M  V30 357 H 31.8112 0.960917 3.60307 0
M  V30 358 N 33.9963 -1.19345 1.0293 0
M  V30 359 C 34.9463 -2.20472 0.58104 0
M  V30 360 C 35.9303 -1.56578 -0.370442 0
M  V30 361 O 37.1223 -1.75963 -0.191344 0
M  V30 362 C 34.2513 -3.43236 -0.066306 0
M  V30 363 C 33.3373 -4.14274 0.907642 0
M  V30 364 N 33.7283 -4.61492 2.07023 0
M  V30 365 C 32.0263 -4.39966 0.731177 0
M  V30 366 C 32.7273 -5.1605 2.68454 0
M  V30 367 N 31.7033 -5.06875 1.96414 0
M  V30 368 H 35.5053 -2.54659 1.46717 0
M  V30 369 H 33.0193 -1.35423 0.896345 0
M  V30 370 H 35.0163 -4.14927 -0.405068 0
M  V30 371 H 33.6763 -3.10549 -0.948118 0
M  V30 372 H 34.6873 -4.56304 2.44963 0
M  V30 373 H 31.3643 -4.17377 -0.101507 0
M  V30 374 H 32.7543 -5.6287 3.66915 0
M  V30 375 N 35.4744 -0.807222 -1.35358 0
M  V30 376 C 36.4044 -0.232509 -2.3234 0
M  V30 377 C 37.3854 0.642386 -1.57504 0
M  V30 378 O 38.5704 0.572526 -1.85569 0
M  V30 379 C 35.7004 0.619238 -3.41735 0
M  V30 380 C 34.6544 -0.157215 -4.27711 0
M  V30 381 C 33.9804 0.816273 -5.28433 0
M  V30 382 C 35.2804 -1.35656 -5.04376 0
M  V30 383 H 36.9744 -1.04276 -2.80654 0
M  V30 384 H 34.5204 -0.50288 -1.34934 0
M  V30 385 H 36.4734 1.03137 -4.08584 0
M  V30 386 H 35.1974 1.46239 -2.92031 0
M  V30 387 H 33.8564 -0.550525 -3.62443 0
M  V30 388 H 33.5044 1.65494 -4.74996 0
M  V30 389 H 33.2044 0.301067 -5.86828 0
M  V30 390 H 34.7284 1.22659 -5.98153 0
M  V30 391 H 36.1424 -1.01927 -5.64166 0
M  V30 392 H 34.5394 -1.8063 -5.7227 0
M  V30 393 H 35.6094 -2.14288 -4.34981 0
M  V30 394 N 36.9525 1.47285 -0.560781 0
M  V30 395 C 38.1925 2.0436 -0.0404627 0
M  V30 396 C 38.5565 1.42534 1.28639 0
M  V30 397 O 39.7575 1.90677 1.89462 0
M  V30 398 C 38.0285 3.57369 0.0471856 0
M  V30 399 S 39.5875 4.3579 0.513109 0
M  V30 400 H 36.4055 0.710492 -0.0268674 0
M  V30 401 H 39.0075 1.80611 -0.748323 0
M  V30 402 H 37.7115 3.9989 -0.922817 0
M  V30 403 H 37.2425 3.8562 0.778491 0
M  V30 404 H 39.2575 4.63476 1.77212 0
M  V30 405 N 38.4306 0.297415 1.54768 0
M  V30 406 C 39.6786 -0.312295 1.99673 0
M  V30 407 C 39.9996 -1.54686 1.18732 0
M  V30 408 O 39.2696 -1.93854 0.282382 0
M  V30 409 H 37.8496 -0.118381 0.73756 0
M  V30 410 H 40.5116 0.407915 1.90583 0
M  V30 411 H 39.6076 -0.586813 3.06534 0
M  V30 412 N 39.9087 -1.5758 0.0250728 0
M  V30 413 C 41.3247 -1.56124 -0.331282 0
M  V30 414 C 41.5247 -1.03029 -1.73169 0
M  V30 415 O 40.5807 -0.675215 -2.43305 0
M  V30 416 C 41.8937 -3.00139 -0.183584 0
M  V30 417 C 43.4417 -3.11946 -0.256654 0
M  V30 418 C 43.9167 -4.57793 -0.137792 0
M  V30 419 N 45.4077 -4.6279 -0.194904 0
M  V30 420 C 46.1427 -5.7326 -0.126655 0
M  V30 421 N 45.6387 -6.928 -0.00755288 0
M  V30 422 N 47.4317 -5.61811 -0.180348 0
M  V30 423 H 39.5827 -1.90424 0.94087 0
M  V30 424 H 41.8457 -0.875761 0.362968 0
M  V30 425 H 41.5517 -3.4292 0.780927 0
M  V30 426 H 41.4257 -3.64899 -0.955448 0
M  V30 427 H 43.8127 -2.69079 -1.21162 0
M  V30 428 H 43.8937 -2.49915 0.545517 0
M  V30 429 H 43.5377 -5.01339 0.813739 0
M  V30 430 H 43.4677 -5.17798 -0.958775 0
M  V30 431 H 45.9587 -3.76807 -0.287267 0
M  V30 432 H 46.2717 -7.72791 0.0379428 0
M  V30 433 H 44.6167 -6.94995 0.0271731 0
M  V30 434 H 47.8077 -4.6731 -0.271767 0
M  V30 435 H 47.9807 -6.47882 -0.123697 0
M  V30 436 N 41.3868 0.248026 -1.55636 0
M  V30 437 C 42.6118 0.998028 -1.81808 0
M  V30 438 C 43.0368 1.78207 -0.601979 0
M  V30 439 O 42.3948 1.75653 0.448961 0
M  V30 440 C 42.4428 1.9125 -3.05705 0
M  V30 441 O 41.5468 3.00406 -2.82542 0
M  V30 442 H 40.8878 0.284045 -0.600179 0
M  V30 443 H 43.4178 0.269357 -2.02819 0
M  V30 444 H 43.4278 2.32737 -3.35108 0
M  V30 445 H 42.1028 1.33602 -3.93857 0
M  V30 446 H 40.6798 2.63056 -2.64303 0
M  V30 447 N 42.8649 1.48995 0.513639 0
M  V30 448 C 43.8279 1.64229 1.59879 0
M  V30 449 C 44.8279 0.514696 1.5234 0
M  V30 450 O 46.0179 0.78087 1.55718 0
M  V30 451 C 43.1499 1.62783 2.99524 0
M  V30 452 H 44.3429 2.61004 1.47705 0
M  V30 453 H 41.8959 1.37837 0.736936 0
M  V30 454 H 42.6309 0.675461 3.17188 0
M  V30 455 H 42.4159 2.4466 3.06404 0
M  V30 456 H 43.9059 1.76669 3.78388 0
M  V30 457 N 44.343 -0.763751 1.37857 0
M  V30 458 C 45.306 -1.85889 1.34081 0
M  V30 459 C 46.306 -1.58949 0.243277 0
M  V30 460 O 47.496 -1.66882 0.499589 0
M  V30 461 C 44.628 -3.23176 1.08489 0
M  V30 462 H 45.821 -1.90648 2.31502 0
M  V30 463 H 43.374 -0.964367 1.23003 0
M  V30 464 H 44.109 -3.24091 0.116318 0
M  V30 465 H 43.894 -3.44124 1.8794 0
M  V30 466 H 45.384 -4.03254 1.08517 0
M  V30 467 N 45.8211 -1.22559 -0.990812 0
M  V30 468 C 46.7541 -0.940773 -2.07905 0
M  V30 469 C 47.7321 0.117082 -1.62178 0
M  V30 470 O 48.9161 -0.0149506 -1.88494 0
M  V30 471 C 46.0431 -0.415321 -3.36144 0
M  V30 472 C 45.0891 -1.45818 -4.00799 0
M  V30 473 S 45.9221 -3.03219 -4.41382 0
M  V30 474 C 47.0781 -2.52317 -5.72789 0
M  V30 475 H 47.3111 -1.8623 -2.31745 0
M  V30 476 H 44.8441 -1.05688 -1.12558 0
M  V30 477 H 46.8021 -0.118747 -4.10328 0
M  V30 478 H 45.4631 0.485121 -3.10331 0
M  V30 479 H 44.6561 -1.04044 -4.93144 0
M  V30 480 H 44.2581 -1.70356 -3.32949 0
M  V30 481 H 46.5501 -1.93688 -6.49224 0
M  V30 482 H 47.4931 -3.43161 -6.19392 0
M  V30 483 H 47.9011 -1.93529 -5.30289 0
M  V30 484 N 47.2992 1.18797 -1.03562 0
M  V30 485 C 48.5762 1.84469 -0.650434 0
M  V30 486 C 48.9562 1.92319 0.870433 0
M  V30 487 O 48.3042 1.44528 1.76986 0
M  V30 488 C 48.5142 3.2306 -1.32036 0
M  V30 489 C 49.8622 3.9915 -1.44792 0
M  V30 490 O 50.8862 3.32481 -1.27806 0
M  V30 491 O 49.7452 5.18587 -1.72423 0
M  V30 492 H 46.8392 0.795251 -0.226946 0
M  V30 493 H 49.3852 1.26231 -1.13419 0
M  V30 494 H 48.1572 3.1222 -2.3587 0
M  V30 495 H 47.7802 3.88949 -0.8249 0
M  V30 496 N 48.7773 0.814389 1.34928 0
M  V30 497 C 49.7073 0.244827 2.32213 0
M  V30 498 C 50.6883 -0.634024 1.57842 0
M  V30 499 O 51.8733 -0.562676 1.8587 0
M  V30 500 C 49.0033 -0.601106 3.42058 0
M  V30 501 C 47.9573 0.179896 4.27622 0
M  V30 502 C 47.2833 -0.788237 5.28858 0
M  V30 503 C 48.5833 1.38329 5.03649 0
M  V30 504 H 50.2773 1.05763 2.80097 0
M  V30 505 H 47.8233 0.510029 1.34665 0
M  V30 506 H 49.7763 -1.00968 4.09125 0
M  V30 507 H 48.5003 -1.44688 2.92802 0
M  V30 508 H 47.1593 0.569739 3.62146 0
M  V30 509 H 46.8073 -1.62973 4.75866 0
M  V30 510 H 46.5073 -0.269942 5.8698 0
M  V30 511 H 48.0313 -1.19485 5.98795 0
M  V30 512 H 49.4453 1.04918 5.63618 0
M  V30 513 H 47.8423 1.83662 5.71304 0
M  V30 514 H 48.9123 2.16592 4.33839 0
M  V30 515 N 50.2554 -1.46986 0.568584 0
M  V30 516 C 51.5034 -2.02041 0.0487022 0
M  V30 517 C 51.8244 -1.44408 -1.31039 0
M  V30 518 O 51.0944 -0.623477 -1.85714 0
M  V30 519 H 49.6744 -0.746849 0.015014 0
M  V30 520 H 52.3364 -1.80257 0.741168 0
M  V30 521 H 51.4324 -3.12085 -0.0308961 0
M  V30 522 N 51.7335 -0.305618 -1.54608 0
M  V30 523 C 53.1445 0.186098 -1.8577 0
M  V30 524 C 53.4955 1.53058 -1.22751 0
M  V30 525 O 52.6205 2.09888 -0.526893 0
M  V30 526 C 53.2155 0.344449 -3.37044 0
M  V30 527 C 51.7745 0.780384 -3.68221 0
M  V30 528 C 50.9215 -0.108554 -2.77087 0
M  V30 529 H 53.8725 -0.526485 -1.49712 0
M  V30 530 H 53.8935 1.17828 -3.61796 0
M  V30 531 H 53.4055 -0.634235 -3.82883 0
M  V30 532 H 51.5065 1.76945 -3.27904 0
M  V30 533 H 51.6195 0.596572 -4.75371 0
M  V30 534 H 49.9835 0.412931 -2.5133 0
M  V30 535 H 50.7665 -1.08368 -3.25747 0
M  V30 536 N 53.2116 1.57565 -0.0334293 0
M  V30 537 C 54.1446 2.05997 0.981866 0
M  V30 538 C 55.1226 0.956647 1.3148 0
M  V30 539 O 56.3066 1.22729 1.43073 0
M  V30 540 C 53.4336 2.48564 2.30074 0
M  V30 541 C 52.4796 3.69958 2.12211 0
M  V30 542 S 53.3126 5.16414 1.41692 0
M  V30 543 C 54.4686 5.6228 2.7494 0
M  V30 544 H 54.7016 2.91792 0.569612 0
M  V30 545 H 52.2346 1.53366 0.178376 0
M  V30 546 H 54.1926 2.73753 3.05892 0
M  V30 547 H 52.8536 1.63106 2.68431 0
M  V30 548 H 52.0466 3.97603 3.09722 0
M  V30 549 H 51.6486 3.44943 1.44535 0
M  V30 550 H 53.9406 5.66783 3.71165 0
M  V30 551 H 54.8836 6.61759 2.51953 0
M  V30 552 H 55.2916 4.89944 2.80384 0
M  V30 553 N 54.6897 -0.239769 1.55765 0
M  V30 554 C 56.1057 -0.588624 1.48349 0
M  V30 555 C 56.3057 -1.88005 0.72502 0
M  V30 556 O 55.3617 -2.51186 0.257269 0
M  V30 557 C 56.6747 -0.68474 2.928 0
M  V30 558 C 58.2227 -0.77659 3.03213 0
M  V30 559 C 58.6977 -0.904207 4.48986 0
M  V30 560 N 60.1887 -0.968896 4.52953 0
M  V30 561 C 60.9237 -1.08703 5.63002 0
M  V30 562 N 60.4197 -1.17026 6.82845 0
M  V30 563 N 62.2127 -1.12074 5.50814 0
M  V30 564 H 54.3637 0.607911 2.03515 0
M  V30 565 H 56.6267 0.21083 0.924259 0
M  V30 566 H 56.3327 0.194284 3.51163 0
M  V30 567 H 56.2067 -1.55435 3.43686 0
M  V30 568 H 58.5937 -1.64606 2.44926 0
M  V30 569 H 58.6747 0.118315 2.55526 0
M  V30 570 H 58.3187 -0.0392633 5.07885 0
M  V30 571 H 58.2487 -1.81426 4.9436 0
M  V30 572 H 60.7397 -0.915633 3.6664 0
M  V30 573 H 61.0527 -1.25966 7.62465 0
M  V30 574 H 59.3977 -1.13971 6.85591 0
M  V30 575 H 62.5887 -1.05226 4.5612 0
M  V30 576 H 62.7617 -1.20936 6.36615 0
M  V30 577 N 56.1678 -1.49265 -0.50573 0
M  V30 578 C 57.1148 -1.65585 -1.6078 0
M  V30 579 C 58.0848 -0.497396 -1.58478 0
M  V30 580 O 59.2698 -0.72385 -1.76536 0
M  V30 581 C 56.4098 -1.72408 -2.98948 0
M  V30 582 C 55.5228 -2.99525 -3.11301 0
M  V30 583 C 54.6578 -2.97356 -4.40174 0
M  V30 584 C 53.6968 -4.19074 -4.46143 0
M  V30 585 N 52.8338 -4.14841 -5.66437 0
M  V30 586 H 57.6738 -2.59688 -1.46172 0
M  V30 587 H 55.2108 -1.28761 -0.711261 0
M  V30 588 H 57.1688 -1.74344 -3.79025 0
M  V30 589 H 55.7988 -0.817753 -3.1227 0
M  V30 590 H 54.8508 -3.07222 -2.24318 0
M  V30 591 H 56.1628 -3.89518 -3.11572 0
M  V30 592 H 55.3168 -2.97829 -5.28567 0
M  V30 593 H 54.0558 -2.05133 -4.42461 0
M  V30 594 H 53.0608 -4.1885 -3.56153 0
M  V30 595 H 54.2858 -5.12483 -4.45575 0
M  V30 596 H 52.2318 -3.25453 -5.69575 0
M  V30 597 H 52.1488 -4.98564 -5.68304 0
M  V30 598 H 53.4168 -4.1941 -6.57051 0
M  V30 599 N 57.6459 0.756429 -1.3826 0
M  V30 600 C 58.8709 1.55077 -1.37717 0
M  V30 601 C 59.2959 1.88073 0.03164 0
M  V30 602 O 58.6539 1.50364 1.01293 0
M  V30 603 C 58.7019 2.8283 -2.23695 0
M  V30 604 O 57.8059 3.77862 -1.6521 0
M  V30 605 H 57.1469 0.469152 -0.469885 0
M  V30 606 H 59.6769 0.935019 -1.81985 0
M  V30 607 H 59.6869 3.31783 -2.37453 0
M  V30 608 H 58.3619 2.58144 -3.2609 0
M  V30 609 H 56.9389 3.36555 -1.60578 0
M  V30 610 N 59.124 1.23083 0.984299 0
M  V30 611 C 60.354 1.08556 1.75781 0
M  V30 612 C 60.762 -0.366171 1.85623 0
M  V30 613 O 60.105 -1.26524 1.33182 0
M  V30 614 C 60.167 1.63208 3.20318 0
M  V30 615 C 59.831 3.11922 3.33997 0
M  V30 616 C 60.828 4.09259 3.2063 0
M  V30 617 C 58.513 3.51552 3.58771 0
M  V30 618 C 60.507 5.4421 3.31835 0
M  V30 619 C 58.194 4.86649 3.69616 0
M  V30 620 C 59.192 5.82787 3.56157 0
M  V30 621 O 58.88 7.15431 3.66626 0
M  V30 622 H 58.612 0.380713 0.5586 0
M  V30 623 H 61.166 1.63321 1.2456 0
M  V30 624 H 59.396 1.0286 3.72769 0
M  V30 625 H 61.085 1.44216 3.79416 0
M  V30 626 H 61.851 3.79984 3.01392 0
M  V30 627 H 57.73 2.77239 3.6832 0
M  V30 628 H 61.274 6.1923 3.21247 0
M  V30 629 H 57.171 5.15601 3.88363 0
M  V30 630 H 57.939 7.23127 3.83445 0
M  V30 631 N 60.6021 -1.18246 1.0419 0
M  V30 632 C 62.0181 -1.40269 0.761366 0
M  V30 633 C 62.2181 -1.90777 -0.648578 0
M  V30 634 O 61.2741 -2.0929 -1.41258 0
M  V30 635 C 62.5871 -2.40237 1.8085 0
M  V30 636 C 64.1351 -2.53961 1.82955 0
M  V30 637 C 64.6101 -3.57194 2.86664 0
M  V30 638 N 66.1011 -3.64702 2.85563 0
M  V30 639 C 66.8361 -4.44309 3.6246 0
M  V30 640 N 66.3321 -5.27514 4.49111 0
M  V30 641 N 68.1251 -4.39084 3.50944 0
M  V30 642 H 60.2761 -0.837882 1.95175 0
M  V30 643 H 62.5391 -0.430608 0.84456 0
M  V30 644 H 62.2451 -2.10176 2.81991 0
M  V30 645 H 62.1191 -3.39601 1.64168 0
M  V30 646 H 64.5061 -2.83338 0.824855 0
M  V30 647 H 64.5871 -1.54706 2.03715 0
M  V30 648 H 64.2311 -3.28558 3.87314 0
M  V30 649 H 64.1611 -4.5613 2.6316 0
M  V30 650 H 66.6521 -3.05289 2.22727 0
M  V30 651 H 66.9651 -5.85411 5.04493 0
M  V30 652 H 65.3101 -5.2693 4.53178 0
M  V30 653 H 68.5011 -3.7313 2.82651 0
M  V30 654 H 68.6741 -5.00883 4.11121 0
M  V30 655 N 62.0802 -0.821533 -1.34494 0
M  V30 656 C 63.3282 -0.408139 -1.97936 0
M  V30 657 C 63.6492 1.03193 -1.65457 0
M  V30 658 O 62.9192 1.71622 -0.944595 0
M  V30 659 H 61.4992 -0.147928 -0.732206 0
M  V30 660 H 64.1612 -1.05067 -1.64155 0
M  V30 661 H 63.2572 -0.52601 -3.07635 0
M  V30 662 N 63.5583 1.46682 -0.576371 0
M  V30 663 C 64.8353 1.95599 0.00703437 0
M  V30 664 C 65.2153 1.51904 1.46589 0
M  V30 665 O 64.5633 0.766755 2.15251 0
M  V30 666 C 64.7733 3.4864 -0.158404 0
M  V30 667 C 66.1213 4.24594 -0.0229439 0
M  V30 668 O 67.1453 3.56094 -0.0869173 0
M  V30 669 O 66.0043 5.46373 0.118015 0
M  V30 670 H 63.0983 0.825275 0.053384 0
M  V30 671 H 65.6443 1.56996 -0.644244 0
M  V30 672 H 64.4163 3.7331 -1.17282 0
M  V30 673 H 64.0393 3.94057 0.5296 0
M  V30 674 N 65.0364 0.313813 1.54444 0
M  V30 675 C 66.4524 -0.0391619 1.59552 0
M  V30 676 C 66.6524 -1.51322 1.33056 0
M  V30 677 O 65.7084 -2.26782 1.11022 0
M  V30 678 C 67.0214 0.370302 2.98411 0
M  V30 679 C 68.5694 0.320139 3.11358 0
M  V30 680 C 69.0444 0.704617 4.52547 0
M  V30 681 N 70.5354 0.657645 4.58508 0
M  V30 682 C 71.2704 0.927453 5.6585 0
M  V30 683 N 70.7664 1.26389 6.81174 0
M  V30 684 N 72.5594 0.853662 5.5558 0
M  V30 685 H 64.7104 1.27433 1.69925 0
M  V30 686 H 66.9734 0.517511 0.794284 0
M  V30 687 H 66.6794 1.39694 3.22767 0
M  V30 688 H 66.5534 -0.269619 3.76235 0
M  V30 689 H 68.9404 -0.697275 2.86744 0
M  V30 690 H 69.0214 0.99486 2.35661 0
M  V30 691 H 68.6654 1.7199 4.77893 0
M  V30 692 H 68.5954 0.00768843 5.26599 0
M  V30 693 H 71.0864 0.409067 3.75679 0
M  V30 694 H 71.3994 1.4554 7.58972 0
M  V30 695 H 69.7444 1.30206 6.82694 0
M  V30 696 H 72.9354 0.590383 4.64362 0
M  V30 697 H 73.1084 1.0673 6.3915 0
M  V30 698 N 66.5145 -1.57545 0.0417849 0
M  V30 699 C 67.4245 -2.14451 -0.951213 0
M  V30 700 C 68.4405 -1.09992 -1.34825 0
M  V30 701 O 69.6165 -1.42114 -1.42708 0
M  V30 702 C 66.6815 -2.67063 -2.21084 0
M  V30 703 C 65.7425 -3.86284 -1.87304 0
M  V30 704 C 64.9755 -4.36378 -3.07261 0
M  V30 705 O 65.1985 -3.85587 -4.20332 0
M  V30 706 O 64.1325 -5.28077 -2.88822 0
M  V30 707 H 67.9585 -2.99601 -0.497287 0
M  V30 708 H 65.5435 -1.48317 -0.179567 0
M  V30 709 H 67.4255 -3.00914 -2.95006 0
M  V30 710 H 66.1005 -1.84989 -2.65633 0
M  V30 711 H 65.0075 -3.57338 -1.10727 0
M  V30 712 H 66.3405 -4.6956 -1.47562 0
M  V30 713 N 67.9926 0.231505 -1.5589 0
M  V30 714 C 68.9556 1.27028 -1.90779 0
M  V30 715 C 69.9556 1.40308 -0.785507 0
M  V30 716 O 71.1456 1.38744 -1.05336 0
M  V30 717 C 68.2776 2.64566 -2.14983 0
M  V30 718 H 69.4706 0.973017 -2.83677 0
M  V30 719 H 67.0236 0.471486 -1.49019 0
M  V30 720 H 67.7586 2.99406 -1.24604 0
M  V30 721 H 67.5436 2.56305 -2.96732 0
M  V30 722 H 69.0336 3.39543 -2.43105 0
M  V30 723 N 69.4707 1.49531 0.497807 0
M  V30 724 C 70.7177 1.59179 1.25173 0
M  V30 725 C 71.0457 0.279932 1.92475 0
M  V30 726 O 70.3007 -0.732383 1.81479 0
M  V30 727 C 70.5997 2.70252 2.33878 0
M  V30 728 C 70.2657 4.11644 1.84012 0
M  V30 729 C 68.9277 4.50121 1.70132 0
M  V30 730 C 71.2797 5.00121 1.46725 0
M  V30 731 C 68.6077 5.74845 1.17348 0
M  V30 732 C 70.9597 6.25366 0.95392 0
M  V30 733 C 69.6237 6.6267 0.801538 0
M  V30 734 H 68.8937 0.582478 0.45804 0
M  V30 735 H 71.5407 1.83373 0.551948 0
M  V30 736 H 69.8457 2.40041 3.09657 0
M  V30 737 H 71.5427 2.74925 2.9192 0
M  V30 738 H 68.1327 3.81274 1.95775 0
M  V30 739 H 72.3167 4.71048 1.56294 0
M  V30 740 H 67.5727 6.02444 1.04264 0
M  V30 741 H 71.7467 6.93301 0.656225 0
M  V30 742 H 69.3737 7.59197 0.390351 0
M  V30 743 N 70.9488 -0.749086 1.3866 0
M  V30 744 C 71.8588 -1.89358 1.38494 0
M  V30 745 C 72.8748 -1.71708 0.281476 0
M  V30 746 O 74.0508 -1.94554 0.520643 0
M  V30 747 C 71.1158 -3.24782 1.21316 0
M  V30 748 C 70.1768 -3.54926 2.41508 0
M  V30 749 C 69.4098 -4.83888 2.2514 0
M  V30 750 O 69.6328 -5.56592 1.24746 0
M  V30 751 O 68.5668 -5.13612 3.13826 0
M  V30 752 H 72.3928 -1.92452 2.34938 0
M  V30 753 H 69.9778 -0.894981 1.19626 0
M  V30 754 H 71.8598 -4.05739 1.13814 0
M  V30 755 H 70.5348 -3.2249 0.279592 0
M  V30 756 H 69.4418 -2.74112 2.54585 0
M  V30 757 H 70.7748 -3.61983 3.3351 0
M  V30 758 N 72.4269 -1.23603 -0.977757 0
M  V30 759 C 73.3369 -1.03632 -2.1047 0
M  V30 760 C 74.3529 0.0199435 -1.73989 0
M  V30 761 O 75.5289 -0.176076 -2.00629 0
M  V30 762 C 72.5939 -0.63276 -3.40877 0
M  V30 763 C 71.6549 -1.76437 -3.91367 0
M  V30 764 C 70.8879 -1.37997 -5.15551 0
M  V30 765 O 71.1109 -0.265357 -5.69782 0
M  V30 766 O 70.0449 -2.20201 -5.60174 0
M  V30 767 H 73.8709 -1.98086 -2.30208 0
M  V30 768 H 71.4559 -1.02332 -1.08851 0
M  V30 769 H 73.3379 -0.418761 -4.19314 0
M  V30 770 H 72.0129 0.282754 -3.22463 0
M  V30 771 H 70.9199 -2.03304 -3.14036 0
M  V30 772 H 72.2529 -2.6583 -4.14241 0
M  V30 773 N 73.905 1.17692 -1.04816 0
M  V30 774 C 75.133 1.91786 -0.776254 0
M  V30 775 C 75.548 1.76604 0.667577 0
M  V30 776 O 74.905 1.10067 1.45573 0
M  V30 777 C 74.956 3.42967 -1.14263 0
M  V30 778 O 74.677 3.57678 -2.52978 0
M  V30 779 C 76.178 4.34144 -0.896311 0
M  V30 780 H 73.398 0.608624 -0.282519 0
M  V30 781 H 75.942 1.49268 -1.39783 0
M  V30 782 H 74.097 3.83245 -0.565874 0
M  V30 783 H 74.511 4.51319 -2.67229 0
M  V30 784 H 75.985 5.38744 -1.20244 0
M  V30 785 H 76.462 4.38876 0.168636 0
M  V30 786 H 77.068 3.99574 -1.45672 0
M  V30 787 N 75.3831 0.828654 1.34056 0
M  V30 788 C 76.3331 0.226828 2.26869 0
M  V30 789 C 77.3171 -0.612243 1.48796 0
M  V30 790 O 78.5091 -0.465884 1.70759 0
M  V30 791 C 75.6381 -0.605654 3.37915 0
M  V30 792 C 74.7241 0.244361 4.23395 0
M  V30 793 N 75.1151 1.31815 4.88322 0
M  V30 794 C 73.4131 0.0296616 4.4599 0
M  V30 795 C 74.1141 1.83895 5.51867 0
M  V30 796 N 73.0901 1.14196 5.3147 0
M  V30 797 H 76.8921 1.04811 2.74576 0
M  V30 798 H 74.4061 0.67205 1.47842 0
M  V30 799 H 76.4031 -1.05302 4.03382 0
M  V30 800 H 75.0631 -1.42504 2.91758 0
M  V30 801 H 76.0741 1.70099 4.8917 0
M  V30 802 H 72.7511 -0.757097 4.10578 0
M  V30 803 H 74.1411 2.7376 6.136 0
M  V30 804 N 76.8612 -1.46375 0.584142 0
M  V30 805 C 77.7912 -2.33103 -0.136037 0
M  V30 806 C 78.7722 -1.45431 -0.882255 0
M  V30 807 O 79.9572 -1.74246 -0.857434 0
M  V30 808 C 77.0872 -3.27731 -1.14933 0
M  V30 809 C 76.0412 -4.24855 -0.517862 0
M  V30 810 C 75.3672 -5.09001 -1.63773 0
M  V30 811 C 76.6672 -5.19439 0.545886 0
M  V30 812 H 78.3612 -2.93568 0.588086 0
M  V30 813 H 75.9072 -1.41166 0.284259 0
M  V30 814 H 77.8602 -3.87261 -1.66153 0
M  V30 815 H 76.5842 -2.65377 -1.90375 0
M  V30 816 H 75.2432 -3.6659 -0.0267361 0
M  V30 817 H 74.8912 -4.43031 -2.38185 0
M  V30 818 H 74.5912 -5.74777 -1.22085 0
M  V30 819 H 76.1152 -5.71396 -2.15266 0
M  V30 820 H 77.5292 -5.73177 0.118704 0
M  V30 821 H 75.9262 -5.93566 0.88317 0
M  V30 822 H 76.9962 -4.63285 1.43162 0
M  V30 823 N 78.3393 -0.321999 -1.54275 0
M  V30 824 C 79.5673 0.283052 -2.04955 0
M  V30 825 C 79.9823 1.45904 -1.19823 0
M  V30 826 O 79.3393 1.81063 -0.228545 0
M  V30 827 C 79.3903 0.719028 -3.54277 0
M  V30 828 O 79.1113 -0.410175 -4.36176 0
M  V30 829 C 80.6123 1.38705 -4.21041 0
M  V30 830 H 77.8323 0.0584616 -0.668448 0
M  V30 831 H 80.3763 -0.467734 -1.99079 0
M  V30 832 H 78.5313 1.41979 -3.60445 0
M  V30 833 H 78.9453 -0.0669416 -5.24457 0
M  V30 834 H 80.4193 1.64306 -5.2698 0
M  V30 835 H 80.8963 2.33385 -3.72059 0
M  V30 836 H 81.5023 0.728906 -4.19007 0
M  V30 837 N 79.8174 1.5752 -0.0501392 0
M  V30 838 C 81.0424 1.97376 0.636997 0
M  V30 839 C 81.4674 0.927466 1.63645 0
M  V30 840 O 80.8254 -0.10941 1.8097 0
M  V30 841 C 80.8734 3.36304 1.30123 0
M  V30 842 O 79.9774 3.34156 2.41689 0
M  V30 843 H 79.3184 0.642998 0.165679 0
M  V30 844 H 81.8484 2.04258 -0.118233 0
M  V30 845 H 81.8584 3.73008 1.65315 0
M  V30 846 H 80.5334 4.11993 0.568746 0
M  V30 847 H 79.1104 3.09196 2.08451 0
M  V30 848 N 81.2955 -0.223234 1.56011 0
M  V30 849 C 82.2255 -1.27988 1.95298 0
M  V30 850 C 83.2065 -1.48976 0.820979 0
M  V30 851 O 84.3915 -1.61188 1.08315 0
M  V30 852 C 81.5215 -2.63 2.26822 0
M  V30 853 C 80.4755 -2.56671 3.42497 0
M  V30 854 C 79.8015 -3.95697 3.59622 0
M  V30 855 C 81.1015 -2.11601 4.77517 0
M  V30 856 H 82.7955 -0.953525 2.8381 0
M  V30 857 H 80.3415 -0.457244 1.36548 0
M  V30 858 H 82.2945 -3.37077 2.52898 0
M  V30 859 H 81.0185 -2.9732 1.35161 0
M  V30 860 H 79.6775 -1.85051 3.16467 0
M  V30 861 H 79.3255 -4.27322 2.6534 0
M  V30 862 H 79.0255 -3.92345 4.37424 0
M  V30 863 H 80.5495 -4.71438 3.88044 0
M  V30 864 H 81.9635 -2.7542 5.02809 0
M  V30 865 H 80.3605 -2.19311 5.5859 0
M  V30 866 H 81.4305 -1.06824 4.72987 0
M  V30 867 N 82.7736 -1.49793 -0.48987 0
M  V30 868 C 84.0506 -1.50348 -1.25119 0
M  V30 869 C 84.4306 -0.237466 -2.0976 0
M  V30 870 O 83.7786 0.77981 -2.14782 0
M  V30 871 C 83.9886 -2.78872 -2.09837 0
M  V30 872 C 85.3366 -3.288 -2.68655 0
M  V30 873 O 86.3606 -2.80065 -2.20096 0
M  V30 874 O 85.2196 -4.13707 -3.57083 0
M  V30 875 H 82.3136 -0.602242 -0.566775 0
M  V30 876 H 84.8596 -1.62067 -0.503229 0
M  V30 877 H 83.6316 -3.62499 -1.47343 0
M  V30 878 H 83.2546 -2.70066 -2.91805 0
M  V30 879 N 84.2517 0.741722 -1.39055 0
M  V30 880 C 85.6627 1.31966 -1.32068 0
M  V30 881 C 86.0137 1.96192 0.0180797 0
M  V30 882 O 85.1387 1.95861 0.920196 0
M  V30 883 C 85.7337 2.39954 -2.39181 0
M  V30 884 C 84.2927 2.93438 -2.35735 0
M  V30 885 C 83.4397 1.66936 -2.21422 0
M  V30 886 H 86.3907 0.539721 -1.4924 0
M  V30 887 H 86.4117 3.20182 -2.05581 0
M  V30 888 H 85.9237 1.9318 -3.36605 0
M  V30 889 H 84.0247 3.4451 -1.41929 0
M  V30 890 H 84.1377 3.4701 -3.30335 0
M  V30 891 H 82.5017 1.91016 -1.68478 0
M  V30 892 H 83.2847 1.22224 -3.20806 0
M  V30 893 N 85.7298 1.2412 0.971189 0
M  V30 894 C 86.9758 1.08041 1.71625 0
M  V30 895 C 87.3088 -0.380407 1.90438 0
M  V30 896 O 86.5838 -1.28127 1.46334 0
M  V30 897 C 86.8668 1.81682 3.10908 0
M  V30 898 C 86.7198 3.35493 2.99608 0
M  V30 899 C 88.0388 1.58671 4.10501 0
M  V30 900 H 85.1578 0.39388 0.622919 0
M  V30 901 H 87.7998 1.52743 1.13003 0
M  V30 902 H 85.9498 1.43684 3.60953 0
M  V30 903 H 87.6218 3.83068 2.57015 0
M  V30 904 H 85.8648 3.64052 2.35899 0
M  V30 905 H 86.5358 3.82217 3.98264 0
M  V30 906 H 89.0118 1.91719 3.69301 0
M  V30 907 H 87.8878 2.1266 5.06031 0
M  V30 908 H 88.1488 0.524161 4.38982 0
M  V30 909 N 87.2079 -1.17134 1.05439 0
M  V30 910 C 88.1549 -2.21235 0.657539 0
M  V30 911 C 89.1249 -1.62551 -0.341543 0
M  V30 912 O 90.3099 -1.89379 -0.232393 0
M  V30 913 C 87.4499 -3.45076 0.0410575 0
M  V30 914 C 86.5629 -4.18042 1.08927 0
M  V30 915 C 85.6979 -5.29376 0.439848 0
M  V30 916 C 84.7369 -5.94132 1.4722 0
M  V30 917 N 83.8739 -6.96975 0.846756 0
M  V30 918 H 88.7139 -2.54534 1.54972 0
M  V30 919 H 86.2509 -1.25028 0.775006 0
M  V30 920 H 88.2089 -4.15862 -0.33383 0
M  V30 921 H 86.8389 -3.12353 -0.814568 0
M  V30 922 H 85.8909 -3.45945 1.58196 0
M  V30 923 H 87.2029 -4.62306 1.87282 0
M  V30 924 H 86.3569 -6.06699 0.0115125 0
M  V30 925 H 85.0959 -4.86251 -0.375656 0
M  V30 926 H 84.1009 -5.15538 1.91052 0
M  V30 927 H 85.3259 -6.39337 2.28965 0
M  V30 928 H 83.2719 -6.5598 0.0518075 0
M  V30 929 H 83.1889 -7.39565 1.5678 0
M  V30 930 H 84.4569 -7.78239 0.443277 0
M  V30 931 N 88.686 -0.835752 -1.33615 0
M  V30 932 C 89.618 -0.224151 -2.28101 0
M  V30 933 C 90.631 0.593331 -1.51603 0
M  V30 934 O 91.82 0.420911 -1.73466 0
M  V30 935 C 88.92 0.703309 -3.31522 0
M  V30 936 C 88.093 -0.0741528 -4.37337 0
M  V30 937 C 87.152 0.776176 -5.20444 0
M  V30 938 O 86.178 0.216506 -5.68788 0
M  V30 939 N 87.38 2.09401 -5.41416 0
M  V30 940 H 90.145 -1.03598 -2.81225 0
M  V30 941 H 87.706 -0.69392 -1.46275 0
M  V30 942 H 89.698 1.27707 -3.84022 0
M  V30 943 H 88.268 1.41585 -2.78698 0
M  V30 944 H 87.488 -0.82928 -3.85378 0
M  V30 945 H 88.776 -0.608863 -5.05144 0
M  V30 946 H 88.174 2.57229 -5.03835 0
M  V30 947 H 86.731 2.61633 -5.96985 0
M  V30 948 N 90.1641 1.46063 -0.591896 0
M  V30 949 C 91.4111 2.02338 -0.0809991 0
M  V30 950 C 91.7391 1.46228 1.28249 0
M  V30 951 O 90.9941 0.620818 1.85592 0
M  V30 952 C 91.2931 3.57391 0.0249813 0
M  V30 953 C 90.9591 4.32583 -1.27211 0
M  V30 954 C 89.6211 4.52844 -1.62745 0
M  V30 955 C 91.9731 4.75687 -2.13005 0
M  V30 956 C 89.3011 5.13462 -2.83855 0
M  V30 957 C 91.6531 5.37644 -3.3335 0
M  V30 958 C 90.3171 5.5613 -3.69155 0
M  V30 959 H 89.5871 0.740407 -0.0296397 0
M  V30 960 H 92.2341 1.75321 -0.770374 0
M  V30 961 H 90.5391 3.83597 0.797537 0
M  V30 962 H 92.2361 3.98621 0.436184 0
M  V30 963 H 88.8261 4.17116 -0.985499 0
M  V30 964 H 93.0101 4.59782 -1.86855 0
M  V30 965 H 88.2661 5.25965 -3.11722 0
M  V30 966 H 92.4401 5.7 -4.00092 0
M  V30 967 H 90.0671 6.0287 -4.63089 0
M  V30 968 N 91.6422 0.330177 1.54103 0
M  V30 969 C 92.6052 -0.520144 2.2322 0
M  V30 970 C 93.6052 -1.03828 1.22786 0
M  V30 971 O 94.7952 -0.929652 1.4732 0
M  V30 972 C 91.9272 -1.72317 2.94142 0
M  V30 973 H 93.1202 0.0841605 2.99782 0
M  V30 974 H 90.6732 0.0813433 1.56088 0
M  V30 975 H 91.4082 -2.36653 2.21734 0
M  V30 976 H 91.1932 -1.35898 3.67796 0
M  V30 977 H 92.6832 -2.3266 3.46784 0
M  V30 978 N 93.1203 -1.57491 0.0584922 0
M  V30 979 C 94.0833 -2.1085 -0.898617 0
M  V30 980 C 95.0833 -1.02964 -1.23511 0
M  V30 981 O 96.2733 -1.29007 -1.17059 0
M  V30 982 C 93.4053 -2.59881 -2.20623 0
M  V30 983 H 94.5983 -2.96715 -0.435936 0
M  V30 984 H 92.1513 -1.55141 -0.190023 0
M  V30 985 H 92.8863 -1.77431 -2.71457 0
M  V30 986 H 92.6713 -3.38727 -1.97501 0
M  V30 987 H 94.1613 -3.01285 -2.89166 0
M  V30 988 N 94.5984 0.214957 -1.56127 0
M  V30 989 C 95.8444 0.935325 -1.80619 0
M  V30 990 C 96.1994 1.81706 -0.632507 0
M  V30 991 O 95.4924 1.87931 0.373182 0
M  V30 992 C 95.6864 1.80314 -3.0858 0
M  V30 993 C 95.5154 1.00691 -4.38282 0
M  V30 994 C 94.2854 0.699211 -5.00439 0
M  V30 995 C 96.4834 0.369057 -5.12974 0
M  V30 996 N 94.4654 -0.117734 -6.13787 0
M  V30 997 C 95.8364 -0.310981 -6.1922 0
M  V30 998 C 97.8914 0.282759 -4.97096 0
M  V30 999 C 96.5944 -1.06907 -7.11311 0
M  V30 1000 C 98.6204 -0.461881 -5.89594 0
M  V30 1001 C 97.9824 -1.13044 -6.9527 0
M  V30 1002 H 94.0814 0.322307 -0.71249 0
M  V30 1003 H 96.6654 0.205649 -1.93611 0
M  V30 1004 H 94.8364 2.50458 -2.96859 0
M  V30 1005 H 96.5684 2.46148 -3.21237 0
M  V30 1006 H 93.3234 1.01884 -4.62511 0
M  V30 1007 H 93.7474 -0.515235 -6.75037 0
M  V30 1008 H 98.3894 0.785292 -4.15443 0
M  V30 1009 H 96.1074 -1.5831 -7.92442 0
M  V30 1010 H 99.6934 -0.529746 -5.79383 0
M  V30 1011 H 98.5734 -1.69742 -7.65609 0
M  V30 1012 N 96.0765 1.50051 0.48192 0
M  V30 1013 C 97.3235 1.60498 1.23477 0
M  V30 1014 C 97.6515 0.300331 1.92167 0
M  V30 1015 O 96.9065 -0.713094 1.82246 0
M  V30 1016 C 97.2055 2.72717 2.30998 0
M  V30 1017 C 96.8715 4.13572 1.79636 0
M  V30 1018 C 95.5335 4.519 1.65348 0
M  V30 1019 C 97.8855 5.01649 1.41412 0
M  V30 1020 C 95.2135 5.76057 1.11244 0
M  V30 1021 C 97.5655 6.26343 0.887538 0
M  V30 1022 C 96.2295 6.63483 0.731207 0
M  V30 1023 H 95.4995 0.587303 0.451836 0
M  V30 1024 H 98.1465 1.83948 0.532468 0
M  V30 1025 H 96.4515 2.43312 3.07094 0
M  V30 1026 H 98.1485 2.78006 2.88988 0
M  V30 1027 H 94.7385 3.83329 1.91721 0
M  V30 1028 H 98.9225 4.72679 1.51289 0
M  V30 1029 H 94.1785 6.03516 0.978686 0
M  V30 1030 H 98.3525 6.93958 0.582654 0
M  V30 1031 H 95.9795 7.59568 0.309806 0
M  V30 1032 N 97.5546 -0.734337 1.39446 0
M  V30 1033 C 98.4646 -1.87879 1.40495 0
M  V30 1034 C 99.4806 -1.714 0.299672 0
M  V30 1035 O 100.657 -1.93991 0.541249 0
M  V30 1036 C 97.7216 -3.23477 1.24754 0
M  V30 1037 C 96.7826 -3.52344 2.45259 0
M  V30 1038 C 96.0156 -4.81473 2.30259 0
M  V30 1039 O 96.2386 -5.55237 1.30643 0
M  V30 1040 O 95.1726 -5.10254 3.19256 0
M  V30 1041 H 98.9986 -1.89949 2.36966 0
M  V30 1042 H 96.5836 -0.882243 1.20569 0
M  V30 1043 H 98.4656 -4.04509 1.18111 0
M  V30 1044 H 97.1406 -3.22176 0.313781 0
M  V30 1045 H 96.0476 -2.71396 2.57478 0
M  V30 1046 H 97.3806 -3.58426 3.37331 0
M  V30 1047 N 99.0327 -1.24633 -0.964593 0
M  V30 1048 C 99.9427 -1.05859 -2.09359 0
M  V30 1049 C 100.959 0.00148855 -1.74 0
M  V30 1050 O 102.135 -0.197346 -2.00431 0
M  V30 1051 C 99.1997 -0.668879 -3.40187 0
M  V30 1052 C 98.2607 -1.80578 -3.89474 0
M  V30 1053 C 97.4937 -1.43457 -5.14058 0
M  V30 1054 O 97.7167 -0.325775 -5.69469 0
M  V30 1055 O 96.6507 -2.2613 -5.57807 0
M  V30 1056 H 100.477 -2.00516 -2.28094 0
M  V30 1057 H 98.0617 -1.03481 -1.0776 0
M  V30 1058 H 99.9437 -0.463211 -4.18846 0
M  V30 1059 H 98.6187 0.248536 -3.22744 0
M  V30 1060 H 97.5257 -2.06623 -3.11862 0
M  V30 1061 H 98.8587 -2.70208 -4.11398 0
M  V30 1062 N 100.511 1.16574 -1.06058 0
M  V30 1063 C 101.474 2.19085 -0.673392 0
M  V30 1064 C 102.474 1.5835 0.279648 0
M  V30 1065 O 103.664 1.74088 0.0623488 0
M  V30 1066 C 100.796 3.40899 0.00954234 0
M  V30 1067 H 101.989 2.54853 -1.58081 0
M  V30 1068 H 99.5418 1.30808 -0.855516 0
M  V30 1069 H 100.277 3.10684 0.929826 0
M  V30 1070 H 100.062 3.86233 -0.67573 0
M  V30 1071 H 101.552 4.1675 0.266245 0
M  V30 1072 N 101.989 0.842826 1.3317 0
M  V30 1073 C 103.235 0.441099 1.97945 0
M  V30 1074 C 103.568 -0.998024 1.66593 0
M  V30 1075 O 102.843 -1.69839 0.947898 0
M  V30 1076 C 103.126 0.666841 3.53872 0
M  V30 1077 C 102.979 2.15352 3.94897 0
M  V30 1078 C 104.298 0.115544 4.39948 0
M  V30 1079 H 101.417 0.161739 0.719034 0
M  V30 1080 H 104.059 1.05907 1.57746 0
M  V30 1081 H 102.209 0.140828 3.88245 0
M  V30 1082 H 103.881 2.7447 3.70761 0
M  V30 1083 H 102.124 2.63653 3.44484 0
M  V30 1084 H 102.795 2.26221 5.03516 0
M  V30 1085 H 105.271 0.565213 4.12243 0
M  V30 1086 H 104.147 0.303152 5.48062 0
M  V30 1087 H 104.408 -0.980935 4.3108 0
M  V30 1088 N 103.467 -1.45747 0.599634 0
M  V30 1089 C 104.399 -2.28628 -0.161879 0
M  V30 1090 C 105.412 -1.39494 -0.839367 0
M  V30 1091 O 106.601 -1.63941 -0.706089 0
M  V30 1092 C 103.701 -3.15014 -1.24976 0
M  V30 1093 C 102.874 -4.32378 -0.660935 0
M  V30 1094 C 101.933 -5.00033 -1.63869 0
M  V30 1095 O 100.959 -5.57085 -1.1681 0
M  V30 1096 N 102.161 -4.98589 -2.97303 0
M  V30 1097 H 104.926 -2.94624 0.549265 0
M  V30 1098 H 102.487 -1.55847 0.438565 0
M  V30 1099 H 104.479 -3.5714 -1.9035 0
M  V30 1100 H 103.049 -2.5098 -1.86354 0
M  V30 1101 H 102.269 -3.9383 0.170688 0
M  V30 1102 H 103.557 -5.08197 -0.247619 0
M  V30 1103 H 102.955 -4.53514 -3.38145 0
M  V30 1104 H 101.512 -5.44603 -3.58121 0
M  V30 1105 N 104.945 -0.338344 -1.53925 0
M  V30 1106 C 106.185 0.260168 -2.02737 0
M  V30 1107 C 106.549 1.48181 -1.22092 0
M  V30 1108 O 107.75 2.15416 -1.60777 0
M  V30 1109 C 106.021 0.571627 -3.52799 0
M  V30 1110 S 107.58 1.14769 -4.23525 0
M  V30 1111 H 104.398 0.077791 -0.706732 0
M  V30 1112 H 107 -0.474899 -1.89644 0
M  V30 1113 H 105.704 -0.325392 -4.09108 0
M  V30 1114 H 105.235 1.3365 -3.70002 0
M  V30 1115 H 107.25 2.43372 -4.32417 0
M  V30 1116 N 106.423 1.57458 -0.0668435 0
M  V30 1117 C 107.834 1.80776 0.466558 0
M  V30 1118 C 108.185 0.980361 1.69951 0
M  V30 1119 O 107.31 0.201441 2.1546 0
M  V30 1120 C 107.905 3.27881 0.85321 0
M  V30 1121 C 106.464 3.52062 1.3315 0
M  V30 1122 C 105.611 2.75513 0.314264 0
M  V30 1123 H 108.562 1.5598 -0.292588 0
M  V30 1124 H 108.583 3.39659 1.715 0
M  V30 1125 H 108.095 3.88075 -0.0443439 0
M  V30 1126 H 106.196 2.97167 2.24772 0
M  V30 1127 H 106.309 4.60762 1.31285 0
M  V30 1128 H 104.673 2.42123 0.790492 0
M  V30 1129 H 105.456 3.38442 -0.575477 0
M  V30 1130 N 107.901 -0.206675 1.56239 0
M  V30 1131 C 109.178 -0.954051 1.70755 0
M  V30 1132 C 109.558 -2.01841 0.618353 0
M  V30 1133 O 108.906 -2.25444 -0.372434 0
M  V30 1134 C 109.116 -1.551 3.12642 0
M  V30 1135 C 110.464 -2.03757 3.72516 0
M  V30 1136 O 111.488 -1.64965 3.15698 0
M  V30 1137 O 110.347 -2.75103 4.72208 0
M  V30 1138 H 107.441 -0.446636 0.696021 0
M  V30 1139 H 109.987 -0.197283 1.68549 0
M  V30 1140 H 108.759 -0.783212 3.83382 0
M  V30 1141 H 108.382 -2.37291 3.19028 0
M  V30 1142 N 109.379 -1.50304 -0.473955 0
M  V30 1143 C 110.628 -1.60392 -1.22301 0
M  V30 1144 C 110.941 -0.308411 -1.93153 0
M  V30 1145 O 112.147 -0.288156 -2.69966 0
M  V30 1146 C 110.603 -2.83109 -2.2221 0
M  V30 1147 C 110.211 -4.19524 -1.57173 0
M  V30 1148 C 111.955 -3.0254 -2.97775 0
M  V30 1149 C 109.862 -5.33431 -2.55353 0
M  V30 1150 H 108.792 -0.597286 -0.460179 0
M  V30 1151 H 111.443 -1.76731 -0.493803 0
M  V30 1152 H 109.825 -2.60322 -2.9841 0
M  V30 1153 H 110.999 -4.52554 -0.867824 0
M  V30 1154 H 109.314 -4.05674 -0.939002 0
M  V30 1155 H 111.911 -3.84811 -3.71248 0
M  V30 1156 H 112.254 -2.14154 -3.56992 0
M  V30 1157 H 112.787 -3.25494 -2.28688 0
M  V30 1158 H 109.526 -6.23962 -2.00878 0
M  V30 1159 H 109.046 -5.04823 -3.23904 0
M  V30 1160 H 110.725 -5.63887 -3.17239 0
M  V30 1161 N 110.857 0.726932 -1.39834 0
M  V30 1162 C 112.105 1.4837 -1.37225 0
M  V30 1163 C 112.426 1.94979 0.0284857 0
M  V30 1164 O 111.696 1.69555 0.981213 0
M  V30 1165 H 110.276 0.55043 -0.505011 0
M  V30 1166 H 112.938 0.862468 -1.74778 0
M  V30 1167 H 112.034 2.36198 -2.04003 0
M  V30 1168 N 112.336 1.25143 0.95797 0
M  V30 1169 C 113.246 1.06968 2.08794 0
M  V30 1170 C 114.262 0.00773911 1.73998 0
M  V30 1171 O 115.438 0.207972 2.00323 0
M  V30 1172 C 112.503 0.68691 3.39827 0
M  V30 1173 C 111.564 1.82641 3.88511 0
M  V30 1174 C 110.797 1.46181 5.1329 0
M  V30 1175 O 111.02 0.355971 5.69288 0
M  V30 1176 O 109.954 2.29085 5.566 0
M  V30 1177 H 113.78 2.01723 2.27027 0
M  V30 1178 H 111.365 1.04051 1.07209 0
M  V30 1179 H 113.247 0.485417 4.18595 0
M  V30 1180 H 111.922 -0.231417 3.22872 0
M  V30 1181 H 110.829 2.08274 3.10762 0
M  V30 1182 H 112.162 2.72386 4.09959 0
M  V30 1183 N 113.814 -1.1601 1.06675 0
M  V30 1184 C 114.777 -2.18724 0.685001 0
M  V30 1185 C 115.777 -1.58496 -0.271246 0
M  V30 1186 O 116.967 -1.74119 -0.0531156 0
M  V30 1187 C 114.099 -3.40899 0.00853648 0
M  V30 1188 H 115.292 -2.54011 1.59431 0
M  V30 1189 H 112.845 -1.30352 0.862441 0
M  V30 1190 H 113.58 -3.11173 -0.913337 0
M  V30 1191 H 113.365 -3.8587 0.696204 0
M  V30 1192 H 114.855 -4.16886 -0.24414 0
M  V30 1193 N 115.292 -0.849877 -1.32721 0
M  V30 1194 C 116.24 -0.279745 -2.30912 0
M  V30 1195 C 117.234 0.594278 -1.58634 0
M  V30 1196 O 118.44 0.482613 -1.73409 0
M  V30 1197 H 114.815 -0.0717521 -0.748569 0
M  V30 1198 H 116.786 -1.12222 -2.76494 0
M  V30 1199 C 115.535 0.521108 -3.43773 0
M  V30 1200 H 114.858 -0.142141 -3.99547 0
M  V30 1201 H 116.298 0.885693 -4.14646 0
M  V30 1202 C 114.757 1.70442 -2.90605 0
M  V30 1203 O 115.287 2.8034 -2.87702 0
M  V30 1204 N 113.493 1.52991 -2.47067 0
M  V30 1205 H 113.04 0.635914 -2.49628 0
M  V30 1206 H 112.998 2.32311 -2.11847 0
M  V30 1207 N 116.77 1.45427 -0.607355 0
M  V30 1208 C 117.733 2.28974 0.101693 0
M  V30 1209 C 118.733 1.39754 0.795329 0
M  V30 1210 O 119.923 1.61878 0.643527 0
M  V30 1211 C 117.055 3.20768 1.15414 0
M  V30 1212 H 118.248 2.93147 -0.632844 0
M  V30 1213 H 115.801 1.51945 -0.366391 0
M  V30 1214 H 116.536 2.61395 1.91945 0
M  V30 1215 H 116.321 3.86489 0.66098 0
M  V30 1216 H 117.811 3.83589 1.65073 0
M  V30 1217 N 118.248 0.346503 1.53744 0
M  V30 1218 C 119.181 -0.552023 2.21423 0
M  V30 1219 C 120.159 -1.09798 1.19929 0
M  V30 1220 O 121.343 -1.1577 1.4876 0
M  V30 1221 C 118.47 -1.75972 2.89398 0
M  V30 1222 C 117.516 -1.34295 4.04805 0
M  V30 1223 S 118.349 -0.360263 5.34287 0
M  V30 1224 C 119.505 -1.57473 6.05767 0
M  V30 1225 H 119.738 0.0228119 2.97291 0
M  V30 1226 H 117.271 0.130579 1.53847 0
M  V30 1227 H 119.229 -2.45256 3.2918 0
M  V30 1228 H 117.89 -2.30578 2.1329 0
M  V30 1229 H 117.083 -2.24349 4.51313 0
M  V30 1230 H 116.685 -0.729555 3.66815 0
M  V30 1231 H 118.977 -2.50875 6.29339 0
M  V30 1232 H 119.92 -1.15138 6.98676 0
M  V30 1233 H 120.328 -1.77212 5.35963 0
M  V30 1234 N 119.726 -1.57421 0.075193 0
M  V30 1235 C 120.966 -1.95495 -0.596757 0
M  V30 1236 C 121.33 -0.954886 -1.66571 0
M  V30 1237 O 122.531 -1.22341 -2.39345 0
M  V30 1238 C 120.802 -3.382 -1.15566 0
M  V30 1239 S 122.361 -3.98254 -1.84226 0
M  V30 1240 H 119.179 -0.683649 -0.195307 0
M  V30 1241 H 121.781 -1.94925 0.149859 0
M  V30 1242 H 120.485 -4.08766 -0.36588 0
M  V30 1243 H 120.016 -3.42321 -1.93856 0
M  V30 1244 H 122.031 -3.85435 -3.12497 0
M  V30 1245 N 121.204 0.198386 -1.56346 0
M  V30 1246 C 122.134 1.24865 -1.9731 0
M  V30 1247 C 123.115 1.47651 -0.844576 0
M  V30 1248 O 124.3 1.59444 -1.10866 0
M  V30 1249 C 121.43 2.59358 -2.30977 0
M  V30 1250 C 120.384 2.5119 -3.46537 0
M  V30 1251 C 119.71 3.89926 -3.65871 0
M  V30 1252 C 121.01 2.03977 -4.80823 0
M  V30 1253 H 122.704 0.908252 -2.85291 0
M  V30 1254 H 120.25 0.435462 -1.37258 0
M  V30 1255 H 122.203 3.33011 -2.58228 0
M  V30 1256 H 120.927 2.95132 -1.39874 0
M  V30 1257 H 119.586 1.79993 -3.19371 0
M  V30 1258 H 119.234 4.23046 -2.72105 0
M  V30 1259 H 118.934 3.85336 -4.4361 0
M  V30 1260 H 120.458 4.65205 -3.95495 0
M  V30 1261 H 121.872 2.67386 -5.07127 0
M  V30 1262 H 120.269 2.10397 -5.62008 0
M  V30 1263 H 121.339 0.992861 -4.74626 0
M  V30 1264 N 122.682 1.50554 0.465978 0
M  V30 1265 C 123.645 1.69233 1.54574 0
M  V30 1266 C 124.645 0.562901 1.50626 0
M  V30 1267 O 125.835 0.830016 1.53155 0
M  V30 1268 C 122.967 1.7223 2.94193 0
M  V30 1269 H 124.16 2.65571 1.39327 0
M  V30 1270 H 121.713 1.40111 0.692711 0
M  V30 1271 H 122.448 0.77603 3.14878 0
M  V30 1272 H 122.233 2.54285 2.98466 0
M  V30 1273 H 123.723 1.88618 3.72576 0
M  V30 1274 N 124.16 -0.719506 1.40217 0
M  V30 1275 C 125.388 -1.50864 1.41589 0
M  V30 1276 C 125.803 -1.88794 0.0145275 0
M  V30 1277 O 125.16 -1.55174 -0.960594 0
M  V30 1278 C 125.211 -2.78646 2.30302 0
M  V30 1279 O 124.932 -2.42321 3.64983 0
M  V30 1280 C 126.433 -3.72569 2.40224 0
M  V30 1281 H 123.653 -0.465709 0.48307 0
M  V30 1282 H 126.197 -0.88785 1.84221 0
M  V30 1283 H 124.352 -3.37019 1.91042 0
M  V30 1284 H 124.766 -3.24514 4.12057 0
M  V30 1285 H 126.24 -4.5908 3.06512 0
M  V30 1286 H 126.717 -4.15403 1.42608 0
M  V30 1287 H 127.323 -3.20109 2.80019 0
M  V30 1288 N 125.638 -1.25649 -0.95132 0
M  V30 1289 C 126.878 -1.11802 -1.71113 0
M  V30 1290 C 127.242 0.334758 -1.89059 0
M  V30 1291 O 128.443 0.595121 -2.62129 0
M  V30 1292 C 126.714 -1.85512 -3.05483 0
M  V30 1293 S 128.273 -1.87597 -3.96677 0
M  V30 1294 H 125.091 -0.399552 -0.588115 0
M  V30 1295 H 127.693 -1.59222 -1.1344 0
M  V30 1296 H 126.397 -2.90299 -2.90094 0
M  V30 1297 H 125.928 -1.38493 -3.68216 0
M  V30 1298 H 127.943 -0.955389 -4.86916 0
M  V30 1299 N 127.117 1.15442 -1.07289 0
M  V30 1300 C 128.345 1.90096 -0.81676 0
M  V30 1301 C 128.76 1.7798 0.629966 0
M  V30 1302 O 128.117 1.1313 1.43206 0
M  V30 1303 C 128.168 3.40466 -1.21512 0
M  V30 1304 O 127.889 3.52232 -2.60508 0
M  V30 1305 C 129.39 4.32145 -0.988198 0
M  V30 1306 H 126.61 0.602495 -0.295366 0
M  V30 1307 H 129.154 1.4627 -1.42918 0
M  V30 1308 H 127.309 3.81958 -0.647039 0
M  V30 1309 H 127.723 4.45549 -2.76742 0
M  V30 1310 H 129.197 5.36072 -1.31645 0
M  V30 1311 H 129.674 4.39135 0.0755063 0
M  V30 1312 H 130.28 3.96395 -1.54115 0
M  V30 1313 N 128.595 0.856903 1.32268 0
M  V30 1314 C 130.011 0.547061 1.49931 0
M  V30 1315 C 130.211 -0.921781 1.7918 0
M  V30 1316 O 129.267 -1.70469 1.8627 0
M  V30 1317 C 130.58 1.43599 2.64196 0
M  V30 1318 C 132.128 1.43665 2.78081 0
M  V30 1319 C 132.603 2.31085 3.95428 0
M  V30 1320 N 134.094 2.28893 4.02694 0
M  V30 1321 C 134.829 2.93262 4.92732 0
M  V30 1322 N 134.325 3.66751 5.87763 0
M  V30 1323 N 136.118 2.82638 4.85873 0
M  V30 1324 H 128.269 1.8075 1.11549 0
M  V30 1325 H 130.532 0.772144 0.549997 0
M  V30 1326 H 130.238 2.48058 2.49319 0
M  V30 1327 H 130.112 1.12502 3.60032 0
M  V30 1328 H 132.499 0.399701 2.92381 0
M  V30 1329 H 132.58 1.7878 1.82952 0
M  V30 1330 H 132.224 3.34849 3.81888 0
M  V30 1331 H 132.154 1.93302 4.89839 0
M  V30 1332 H 134.645 1.75466 3.34694 0
M  V30 1333 H 134.958 4.13027 6.53168 0
M  V30 1334 H 133.303 3.70859 5.87783 0
M  V30 1335 H 136.494 2.24774 4.10602 0
M  V30 1336 H 136.667 3.33084 5.55841 0
M  V30 1337 N 130.073 -1.45103 0.615059 0
M  V30 1338 C 131.35 -1.95549 0.0448276 0
M  V30 1339 C 131.73 -1.55737 -1.4251 0
M  V30 1340 O 131.078 -0.823556 -2.13143 0
M  V30 1341 C 131.288 -3.48098 0.250785 0
M  V30 1342 C 132.636 -4.24384 0.135509 0
M  V30 1343 O 133.66 -3.55738 0.181299 0
M  V30 1344 O 132.519 -5.46493 0.0268878 0
M  V30 1345 H 129.613 -0.8264 -0.0314845 0
M  V30 1346 H 132.159 -1.55232 0.685642 0
M  V30 1347 H 130.931 -3.7007 1.27139 0
M  V30 1348 H 130.554 -3.95323 -0.424937 0
M  V30 1349 N 131.551 -0.354651 -1.53558 0
M  V30 1350 C 132.799 0.237972 -2.00694 0
M  V30 1351 C 133.12 1.50173 -1.24391 0
M  V30 1352 O 132.39 1.92673 -0.354135 0
M  V30 1353 H 130.97 0.0909256 -0.741446 0
M  V30 1354 H 133.632 -0.478368 -1.88938 0
M  V30 1355 H 132.728 0.47264 -3.085 0
M  V30 1356 N 133.029 1.57378 -0.0835403 0
M  V30 1357 C 133.976 2.13384 0.879539 0
M  V30 1358 C 134.946 1.04936 1.28754 0
M  V30 1359 O 136.131 1.32662 1.37133 0
M  V30 1360 C 133.271 2.70932 2.13752 0
M  V30 1361 C 132.384 3.93575 1.7811 0
M  V30 1362 C 131.519 4.39326 2.98607 0
M  V30 1363 C 130.558 5.54587 2.59037 0
M  V30 1364 N 129.695 5.95243 3.72331 0
M  V30 1365 H 134.535 2.9537 0.395076 0
M  V30 1366 H 132.072 1.45953 0.183349 0
M  V30 1367 H 134.03 3.02411 2.87408 0
M  V30 1368 H 132.66 1.91693 2.59718 0
M  V30 1369 H 131.712 3.68483 0.94469 0
M  V30 1370 H 133.024 4.77258 1.45005 0
M  V30 1371 H 132.178 4.72528 3.80529 0
M  V30 1372 H 130.917 3.5452 3.34913 0
M  V30 1373 H 129.922 5.21024 1.75539 0
M  V30 1374 H 131.147 6.41133 2.23887 0
M  V30 1375 H 129.093 5.13385 4.08378 0
M  V30 1376 H 129.01 6.73694 3.43034 0
M  V30 1377 H 130.278 6.33072 4.54797 0
M  V30 1378 N 134.507 -0.190092 1.56449 0
M  V30 1379 C 135.918 -0.754312 1.70784 0
M  V30 1380 C 136.269 -1.83631 0.690951 0
M  V30 1381 O 135.394 -2.15868 -0.151604 0
M  V30 1382 C 135.989 -1.37503 3.09642 0
M  V30 1383 C 134.548 -1.88628 3.25725 0
M  V30 1384 C 133.695 -0.758098 2.66736 0
M  V30 1385 H 136.646 0.0350524 1.58661 0
M  V30 1386 H 136.667 -2.2445 3.0725 0
M  V30 1387 H 136.179 -0.587302 3.83631 0
M  V30 1388 H 134.28 -2.70103 2.56661 0
M  V30 1389 H 134.393 -2.04462 4.3328 0
M  V30 1390 H 132.757 -1.17369 2.26046 0
M  V30 1391 H 133.54 0.0174705 3.43296 0
M  V30 1392 N 135.985 -1.50799 -0.457987 0
M  V30 1393 C 137.21 -1.66496 -1.23668 0
M  V30 1394 C 137.635 -0.353288 -1.84752 0
M  V30 1395 O 136.993 0.684346 -1.67888 0
M  V30 1396 C 137.041 -2.76763 -2.3116 0
M  V30 1397 O 136.145 -2.38928 -3.36136 0
M  V30 1398 H 135.486 -0.555828 -0.363252 0
M  V30 1399 H 138.016 -1.9725 -0.543474 0
M  V30 1400 H 138.026 -3.00232 -2.76269 0
M  V30 1401 H 136.701 -3.71954 -1.86073 0
M  V30 1402 H 135.278 -2.25953 -2.96647 0
M  V30 1403 N 137.463 0.71206 -1.40597 0
M  V30 1404 C 138.426 1.80785 -1.40888 0
M  V30 1405 C 139.426 1.57937 -0.302103 0
M  V30 1406 O 140.616 1.64913 -0.561182 0
M  V30 1407 C 137.748 3.18927 -1.20409 0
M  V30 1408 H 138.941 1.81924 -2.38419 0
M  V30 1409 H 136.494 0.91805 -1.26497 0
M  V30 1410 H 137.229 3.23436 -0.236522 0
M  V30 1411 H 137.014 3.36911 -2.00582 0
M  V30 1412 H 138.504 3.98949 -1.23408 0
M  V30 1413 N 138.941 1.26152 0.944643 0
M  V30 1414 C 140.357 1.03189 1.21754 0
M  V30 1415 C 140.557 -0.245112 2.00004 0
M  V30 1416 O 139.613 -0.955176 2.33736 0
M  V30 1417 C 140.926 2.26119 1.98219 0
M  V30 1418 C 142.474 2.30984 2.11224 0
M  V30 1419 C 142.949 3.53597 2.91089 0
M  V30 1420 N 144.44 3.54053 2.98664 0
M  V30 1421 C 145.175 4.45593 3.60881 0
M  V30 1422 N 144.671 5.47416 4.24626 0
M  V30 1423 N 146.464 4.33252 3.58119 0
M  V30 1424 H 138.615 2.08177 0.421437 0
M  V30 1425 H 140.878 0.914723 0.248969 0
M  V30 1426 H 140.584 3.18984 1.48128 0
M  V30 1427 H 140.458 2.3009 2.98895 0
M  V30 1428 H 142.845 1.38635 2.60508 0
M  V30 1429 H 142.926 2.31026 1.09821 0
M  V30 1430 H 142.57 4.46273 2.42493 0
M  V30 1431 H 142.5 3.50802 3.92741 0
M  V30 1432 H 144.991 2.80403 2.53343 0
M  V30 1433 H 145.304 6.13459 4.69987 0
M  V30 1434 H 143.649 5.51278 4.23223 0
M  V30 1435 H 146.84 3.52924 3.0751 0
M  V30 1436 H 147.013 5.04786 4.06319 0
M  V30 1437 N 140.419 -1.14872 1.07899 0
M  V30 1438 C 141.352 -2.18794 0.64841 0
M  V30 1439 C 142.33 -1.59065 -0.337189 0
M  V30 1440 O 143.514 -1.86936 -0.242284 0
M  V30 1441 C 140.641 -3.38667 -0.0470417 0
M  V30 1442 C 139.687 -4.16942 0.897884 0
M  V30 1443 S 140.52 -4.78615 2.40183 0
M  V30 1444 C 141.676 -6.0185 1.71834 0
M  V30 1445 H 141.909 -2.5498 1.52881 0
M  V30 1446 H 139.442 -1.25922 0.893484 0
M  V30 1447 H 141.4 -4.08113 -0.442027 0
M  V30 1448 H 140.061 -3.00814 -0.903861 0
M  V30 1449 H 139.254 -5.02726 0.358096 0
M  V30 1450 H 138.856 -3.53073 1.23352 0
M  V30 1451 H 141.148 -6.69574 1.03328 0
M  V30 1452 H 142.091 -6.60408 2.55473 0
M  V30 1453 H 142.499 -5.5173 1.19392 0
M  V30 1454 N 141.898 -0.863906 -1.31812 0
M  V30 1455 C 142.828 -0.330843 -2.31144 0
M  V30 1456 C 143.809 0.575005 -1.60087 0
M  V30 1457 O 144.994 0.493304 -1.8783 0
M  V30 1458 C 142.124 0.47374 -3.44054 0
M  V30 1459 C 141.078 -0.338481 -4.26659 0
M  V30 1460 C 140.404 0.591412 -5.31419 0
M  V30 1461 C 141.704 -1.56926 -4.98168 0
M  V30 1462 H 143.398 -1.16086 -2.75979 0
M  V30 1463 H 140.944 -0.559657 -1.32679 0
M  V30 1464 H 142.897 0.857143 -4.12591 0
M  V30 1465 H 141.621 1.33721 -2.9797 0
M  V30 1466 H 140.28 -0.703754 -3.59782 0
M  V30 1467 H 139.928 1.45199 -4.81587 0
M  V30 1468 H 139.628 0.0519022 -5.87577 0
M  V30 1469 H 141.152 0.97179 -6.02817 0
M  V30 1470 H 142.566 -1.25764 -5.59336 0
M  V30 1471 H 140.963 -2.04739 -5.64094 0
M  V30 1472 H 142.033 -2.32544 -4.25501 0
M  V30 1473 N 143.376 1.44774 -0.622745 0
M  V30 1474 C 144.306 2.33382 0.0741861 0
M  V30 1475 C 145.287 1.47719 0.843387 0
M  V30 1476 O 146.472 1.76458 0.810934 0
M  V30 1477 C 143.602 3.30663 1.06204 0
M  V30 1478 C 142.556 4.26079 0.405037 0
M  V30 1479 C 141.882 5.13165 1.5022 0
M  V30 1480 C 143.182 5.1781 -0.683414 0
M  V30 1481 H 144.876 2.91905 -0.665713 0
M  V30 1482 H 142.422 1.40363 -0.321587 0
M  V30 1483 H 144.375 3.9153 1.55827 0
M  V30 1484 H 143.099 2.70331 1.83272 0
M  V30 1485 H 141.758 3.66532 -0.0704683 0
M  V30 1486 H 141.406 4.49191 2.26355 0
M  V30 1487 H 141.106 5.77812 1.06803 0
M  V30 1488 H 142.63 5.76902 2.00041 0
M  V30 1489 H 144.044 5.72661 -0.270631 0
M  V30 1490 H 142.441 5.91015 -1.04023 0
M  V30 1491 H 143.511 4.59326 -1.55395 0
M  V30 1492 N 144.854 0.36279 1.53368 0
M  V30 1493 C 145.784 -0.476976 2.28576 0
M  V30 1494 C 146.765 -1.08631 1.30894 0
M  V30 1495 O 147.95 -1.10409 1.59761 0
M  V30 1496 C 145.08 -1.61828 3.07293 0
M  V30 1497 C 144.034 -1.13633 4.1264 0
M  V30 1498 C 143.36 -2.36766 4.79423 0
M  V30 1499 C 144.66 -0.223061 5.21823 0
M  V30 1500 H 146.354 0.150474 2.99022 0
M  V30 1501 H 143.9 0.0738103 1.43811 0
M  V30 1502 H 145.853 -2.21237 3.58653 0
M  V30 1503 H 144.577 -2.27292 2.34533 0
M  V30 1504 H 143.236 -0.564945 3.62221 0
M  V30 1505 H 142.884 -3.0068 4.03238 0
M  V30 1506 H 142.584 -2.05192 5.50609 0
M  V30 1507 H 144.108 -2.96865 5.33576 0
M  V30 1508 H 145.522 -0.724545 5.68703 0
M  V30 1509 H 143.919 0.001678 6.001 0
M  V30 1510 H 144.989 0.735553 4.79289 0
M  V30 1511 N 146.332 -1.57332 0.0918853 0
M  V30 1512 C 147.279 -2.13847 -0.868211 0
M  V30 1513 C 148.249 -1.05618 -1.28196 0
M  V30 1514 O 149.434 -1.33387 -1.36427 0
M  V30 1515 C 146.574 -2.72062 -2.12312 0
M  V30 1516 C 145.687 -3.94514 -1.7602 0
M  V30 1517 C 144.822 -4.40903 -2.96273 0
M  V30 1518 C 143.861 -5.55953 -2.56092 0
M  V30 1519 N 142.998 -5.97209 -3.69169 0
M  V30 1520 H 147.838 -2.95575 -0.379406 0
M  V30 1521 H 145.375 -1.46048 -0.175606 0
M  V30 1522 H 147.333 -3.03931 -2.858 0
M  V30 1523 H 145.963 -1.93068 -2.58698 0
M  V30 1524 H 145.015 -3.68979 -0.925135 0
M  V30 1525 H 146.327 -4.7802 -1.42472 0
M  V30 1526 H 145.481 -4.74539 -3.78018 0
M  V30 1527 H 144.22 -3.56291 -3.33029 0
M  V30 1528 H 143.225 -5.21948 -1.72773 0
M  V30 1529 H 144.45 -6.42311 -2.20484 0
M  V30 1530 H 142.396 -5.15543 -4.05649 0
M  V30 1531 H 142.313 -6.75504 -3.39456 0
M  V30 1532 H 143.581 -6.35475 -4.51434 0
M  V30 1533 N 147.81 0.181792 -1.56548 0
M  V30 1534 C 149.058 0.89832 -1.81038 0
M  V30 1535 C 149.379 1.83232 -0.667164 0
M  V30 1536 O 148.649 1.93372 0.313673 0
M  V30 1537 H 147.229 0.33471 -0.667816 0
M  V30 1538 H 149.891 0.184116 -1.94028 0
M  V30 1539 H 148.987 1.4815 -2.74696 0
M  V30 1540 N 149.288 1.51039 0.449983 0
M  V30 1541 C 150.535 1.63081 1.20045 0
M  V30 1542 C 150.863 0.341024 1.91487 0
M  V30 1543 O 150.118 -0.674276 1.83717 0
M  V30 1544 C 150.417 2.77556 2.25161 0
M  V30 1545 C 150.083 4.17289 1.70823 0
M  V30 1546 C 148.745 4.55305 1.55725 0
M  V30 1547 C 151.097 5.04536 1.3074 0
M  V30 1548 C 148.425 5.78287 0.989999 0
M  V30 1549 C 150.777 6.28085 0.754482 0
M  V30 1550 C 149.441 6.64885 0.590308 0
M  V30 1551 H 148.711 0.596755 0.439277 0
M  V30 1552 H 151.358 1.85037 0.49333 0
M  V30 1553 H 149.663 2.49771 3.01863 0
M  V30 1554 H 151.36 2.84073 2.83026 0
M  V30 1555 H 147.95 3.8731 1.83546 0
M  V30 1556 H 152.134 4.75782 1.41229 0
M  V30 1557 H 147.39 6.05456 0.850451 0
M  V30 1558 H 151.564 6.95038 0.435324 0
M  V30 1559 H 149.191 7.60055 0.14862 0
M  V30 1560 N 150.766 -0.704594 1.40972 0
M  V30 1561 C 152.014 -1.46169 1.39568 0
M  V30 1562 C 152.335 -1.95 0.00253745 0
M  V30 1563 O 151.605 -1.71095 -0.954114 0
M  V30 1564 H 150.185 -0.542326 0.513704 0
M  V30 1565 H 152.847 -0.834553 1.76128 0
M  V30 1566 H 151.943 -2.32922 2.07735 0
M  V30 1567 N 152.244 -1.26651 -0.937939 0
M  V30 1568 C 153.191 -1.0849 -2.03712 0
M  V30 1569 C 154.161 0.011033 -1.66096 0
M  V30 1570 O 155.346 -0.149353 -1.90215 0
M  V30 1571 C 152.486 -0.72735 -3.37348 0
M  V30 1572 C 151.599 -1.89986 -3.87981 0
M  V30 1573 C 150.734 -1.48513 -5.10017 0
M  V30 1574 C 149.773 -2.62575 -5.5292 0
M  V30 1575 N 148.91 -2.21762 -6.66158 0
M  V30 1576 H 153.75 -2.02551 -2.18579 0
M  V30 1577 H 151.287 -1.00844 -1.07093 0
M  V30 1578 H 153.245 -0.50092 -4.14182 0
M  V30 1579 H 151.875 0.176298 -3.22318 0
M  V30 1580 H 150.927 -2.23913 -3.07518 0
M  V30 1581 H 152.239 -2.75586 -4.15757 0
M  V30 1582 H 151.393 -1.21934 -5.94321 0
M  V30 1583 H 150.132 -0.60009 -4.83994 0
M  V30 1584 H 149.137 -2.8988 -4.67172 0
M  V30 1585 H 150.362 -3.51685 -5.80943 0
M  V30 1586 H 148.308 -1.35696 -6.41812 0
M  V30 1587 H 148.225 -3.00903 -6.93537 0
M  V30 1588 H 149.493 -1.98403 -7.53828 0
M  V30 1589 N 153.722 1.14298 -1.08507 0
M  V30 1590 C 154.999 1.81544 -0.728088 0
M  V30 1591 C 155.379 1.95838 0.78808 0
M  V30 1592 O 154.727 1.51904 1.70697 0
M  V30 1593 C 154.937 3.17169 -1.45619 0
M  V30 1594 C 156.285 3.9265 -1.61591 0
M  V30 1595 O 157.309 3.26762 -1.41793 0
M  V30 1596 O 156.168 5.10807 -1.94263 0
M  V30 1597 H 153.262 0.78491 -0.260471 0
M  V30 1598 H 155.808 1.21307 -1.18671 0
M  V30 1599 H 154.58 3.01934 -2.489 0
M  V30 1600 H 154.203 3.851 -0.989124 0
M  V30 1601 N 155.201 0.870884 1.31352 0
M  V30 1602 C 156.449 0.48132 1.96285 0
M  V30 1603 C 156.77 -0.969813 1.69173 0
M  V30 1604 O 156.04 -1.67998 1.00764 0
M  V30 1605 H 154.62 0.175002 0.726212 0
M  V30 1606 H 157.282 1.11087 1.60143 0
M  V30 1607 H 156.378 0.639825 3.05471 0
M  V30 1608 N 156.679 -1.44442 0.630414 0
M  V30 1609 C 157.926 -2.02052 0.134617 0
M  V30 1610 C 158.254 -1.49576 -1.24327 0
M  V30 1611 O 157.509 -0.669806 -1.83881 0
M  V30 1612 C 157.808 -3.57332 0.0697835 0
M  V30 1613 C 157.474 -4.29058 1.38635 0
M  V30 1614 C 156.136 -4.4837 1.74694 0
M  V30 1615 C 158.488 -4.69872 2.25543 0
M  V30 1616 C 155.816 -5.05756 2.97369 0
M  V30 1617 C 158.168 -5.28616 3.47487 0
M  V30 1618 C 156.832 -5.46147 3.8377 0
M  V30 1619 H 156.102 -0.739361 0.0492598 0
M  V30 1620 H 158.749 -1.73217 0.816586 0
M  V30 1621 H 157.054 -3.85577 -0.695553 0
M  V30 1622 H 158.751 -3.99637 -0.330344 0
M  V30 1623 H 155.341 -4.14357 1.09574 0
M  V30 1624 H 159.525 -4.54666 1.98979 0
M  V30 1625 H 154.781 -5.17515 3.25558 0
M  V30 1626 H 158.955 -5.59192 4.15063 0
M  V30 1627 H 156.582 -5.9038 4.7891 0
M  V30 1628 N 158.157 -0.370918 -1.53173 0
M  V30 1629 C 159.573 -0.0200818 -1.59587 0
M  V30 1630 C 159.773 1.46279 -1.38581 0
M  V30 1631 O 158.829 2.22506 -1.19363 0
M  V30 1632 C 160.142 -0.4808 -2.96831 0
M  V30 1633 C 161.69 -0.435477 -3.09956 0
M  V30 1634 C 162.165 -0.872092 -4.4962 0
M  V30 1635 N 163.656 -0.827364 -4.55751 0
M  V30 1636 C 164.391 -1.13683 -5.62018 0
M  V30 1637 N 163.887 -1.51584 -6.76014 0
M  V30 1638 N 165.68 -1.05927 -5.52029 0
M  V30 1639 H 157.831 -1.33652 -1.65079 0
M  V30 1640 H 160.094 -0.546634 -0.774529 0
M  V30 1641 H 159.8 -1.51577 -3.1736 0
M  V30 1642 H 159.674 0.129796 -3.76977 0
M  V30 1643 H 162.061 0.590371 -2.89134 0
M  V30 1644 H 162.142 -1.08164 -2.31806 0
M  V30 1645 H 161.786 -1.89608 -4.71181 0
M  V30 1646 H 161.716 -0.203127 -5.26208 0
M  V30 1647 H 164.207 -0.548216 -3.73902 0
M  V30 1648 H 164.52 -1.73609 -7.53047 0
M  V30 1649 H 162.865 -1.55454 -6.77391 0
M  V30 1650 H 166.056 -0.762321 -4.61851 0
M  V30 1651 H 166.229 -1.30378 -6.34749 0
M  V30 1652 N 159.635 1.57281 -0.100228 0
M  V30 1653 C 160.882 1.94537 0.562268 0
M  V30 1654 C 161.21 0.982315 1.67871 0
M  V30 1655 O 160.465 0.00280936 1.957 0
M  V30 1656 C 160.764 3.38305 1.15259 0
M  V30 1657 C 160.43 4.50618 0.159409 0
M  V30 1658 C 159.092 4.81066 -0.113741 0
M  V30 1659 C 161.444 5.18615 -0.518461 0
M  V30 1660 C 158.772 5.76835 -1.07137 0
M  V30 1661 C 161.124 6.15412 -1.46459 0
M  V30 1662 C 159.788 6.44262 -1.74592 0
M  V30 1663 H 159.058 0.711863 0.205748 0
M  V30 1664 H 161.705 1.90679 -0.17715 0
M  V30 1665 H 160.01 3.38766 1.96836 0
M  V30 1666 H 161.707 3.64435 1.67297 0
M  V30 1667 H 158.297 4.2689 0.382491 0
M  V30 1668 H 162.481 4.95264 -0.320581 0
M  V30 1669 H 157.737 5.975 -1.29628 0
M  V30 1670 H 161.911 6.67194 -1.99564 0
M  V30 1671 H 159.538 7.1828 -2.48953 0
M  V30 1672 N 161.113 -0.173488 1.56642 0
M  V30 1673 C 162.36 -0.890465 1.81871 0
M  V30 1674 C 162.688 -1.82339 0.67696 0
M  V30 1675 O 161.943 -1.92795 -0.335926 0
M  V30 1676 C 162.242 -1.72069 3.13252 0
M  V30 1677 C 161.908 -0.936878 4.41059 0
M  V30 1678 C 160.57 -0.720545 4.75775 0
M  V30 1679 C 162.922 -0.386919 5.19762 0
M  V30 1680 C 160.25 0.0568829 5.86672 0
M  V30 1681 C 162.602 0.37741 6.31473 0
M  V30 1682 C 161.266 0.604563 6.64757 0
M  V30 1683 H 160.536 -0.325844 0.665512 0
M  V30 1684 H 163.183 -0.155527 1.90867 0
M  V30 1685 H 161.488 -2.52496 2.99588 0
M  V30 1686 H 163.185 -2.27844 3.29982 0
M  V30 1687 H 159.775 -1.11553 4.13828 0
M  V30 1688 H 163.959 -0.541398 4.93338 0
M  V30 1689 H 159.215 0.242635 6.10918 0
M  V30 1690 H 163.389 0.810825 6.91664 0
M  V30 1691 H 161.016 1.20885 7.50527 0
M  V30 1692 N 162.591 -1.51276 -0.441967 0
M  V30 1693 C 163.819 -1.67516 -1.21434 0
M  V30 1694 C 164.234 -0.37055 -1.85128 0
M  V30 1695 O 163.591 0.650498 -1.70513 0
M  V30 1696 C 163.642 -2.78748 -2.30177 0
M  V30 1697 O 163.363 -4.04154 -1.69089 0
M  V30 1698 C 164.864 -3.06217 -3.20541 0
M  V30 1699 H 162.084 -0.562276 -0.366178 0
M  V30 1700 H 164.628 -1.97666 -0.524244 0
M  V30 1701 H 162.783 -2.5121 -2.94911 0
M  V30 1702 H 163.197 -4.65894 -2.40922 0
M  V30 1703 H 164.671 -3.8764 -3.92987 0
M  V30 1704 H 165.148 -2.18439 -3.81026 0
M  V30 1705 H 165.754 -3.35397 -2.61513 0
M  V30 1706 N 164.069 0.697108 -1.41344 0
M  V30 1707 C 165.017 1.83237 -1.43272 0
M  V30 1708 C 166.011 1.66522 -0.310947 0
M  V30 1709 O 167.217 1.73402 -0.482899 0
M  V30 1710 H 163.592 0.603802 -0.448249 0
M  V30 1711 H 165.563 1.78727 -2.38954 0
M  V30 1712 C 164.312 3.21245 -1.33029 0
M  V30 1713 H 163.635 3.34723 -2.18633 0
M  V30 1714 H 165.075 4.00763 -1.38439 0
M  V30 1715 C 163.534 3.36873 -0.0424635 0
M  V30 1716 O 164.064 3.91177 0.913421 0
M  V30 1717 N 162.27 2.90581 0.0331145 0
M  V30 1718 H 161.817 2.46577 -0.745506 0
M  V30 1719 H 161.775 3.01416 0.894199 0
M  V30 1720 N 165.547 1.27147 0.931209 0
M  V30 1721 C 166.794 1.13278 1.67852 0
M  V30 1722 C 167.122 -0.32204 1.91815 0
M  V30 1723 O 166.377 -1.25224 1.50391 0
M  V30 1724 C 166.676 1.8579 3.05314 0
M  V30 1725 C 166.342 3.35657 3.01073 0
M  V30 1726 C 165.004 3.76536 2.99623 0
M  V30 1727 C 167.356 4.31299 2.92627 0
M  V30 1728 C 164.684 5.11426 2.87506 0
M  V30 1729 C 167.036 5.66242 2.82051 0
M  V30 1730 C 165.7 6.06418 2.7895 0
M  V30 1731 H 164.97 0.414515 0.614214 0
M  V30 1732 H 167.617 1.57712 1.08624 0
M  V30 1733 H 165.922 1.33854 3.68226 0
M  V30 1734 H 167.619 1.72491 3.62005 0
M  V30 1735 H 164.209 3.03146 3.02986 0
M  V30 1736 H 168.393 4.00692 2.92848 0
M  V30 1737 H 163.649 5.41705 2.83489 0
M  V30 1738 H 167.823 6.40026 2.74481 0
M  V30 1739 H 165.45 7.10895 2.69318 0
M  V30 1740 N 167.025 -1.13721 1.09112 0
M  V30 1741 C 167.935 -2.22638 0.73957 0
M  V30 1742 C 168.951 -1.72091 -0.257068 0
M  V30 1743 O 170.127 -2.01155 -0.0992154 0
M  V30 1744 C 167.192 -3.46322 0.16191 0
M  V30 1745 C 166.253 -4.11775 1.21408 0
M  V30 1746 C 165.486 -5.29555 0.663891 0
M  V30 1747 O 165.709 -5.68077 -0.514274 0
M  V30 1748 O 164.643 -5.84973 1.41738 0
M  V30 1749 H 168.469 -2.55074 1.64836 0
M  V30 1750 H 166.054 -1.21791 0.865289 0
M  V30 1751 H 167.936 -4.21107 -0.157073 0
M  V30 1752 H 166.611 -3.15593 -0.719932 0
M  V30 1753 H 165.518 -3.3883 1.58571 0
M  V30 1754 H 166.851 -4.46627 2.06845 0
M  V30 1755 N 168.503 -0.877838 -1.30888 0
M  V30 1756 C 169.728 -0.506629 -2.01117 0
M  V30 1757 C 170.153 0.895564 -1.65412 0
M  V30 1758 O 169.511 1.5923 -0.866922 0
M  V30 1759 C 169.559 -0.680223 -3.54126 0
M  V30 1760 O 168.663 0.277033 -4.11468 0
M  V30 1761 H 168.004 -0.200518 -0.633 0
M  V30 1762 H 170.534 -1.18342 -1.66902 0
M  V30 1763 H 170.544 -0.5765 -4.03907 0
M  V30 1764 H 169.219 -1.70261 -3.79452 0
M  V30 1765 H 167.796 0.127606 -3.72682 0
M  V30 1766 N 169.982 1.44106 -0.638065 0
M  V30 1767 C 171.398 1.56672 -0.304286 0
M  V30 1768 C 171.598 1.6244 1.19228 0
M  V30 1769 O 170.654 1.57121 1.9766 0
M  V30 1770 C 171.967 2.83503 -1.00231 0
M  V30 1771 C 173.515 2.97226 -0.981116 0
M  V30 1772 C 173.99 4.26868 -1.65974 0
M  V30 1773 N 175.481 4.33698 -1.62666 0
M  V30 1774 C 176.216 5.32745 -2.12063 0
M  V30 1775 N 175.712 6.38157 -2.6968 0
M  V30 1776 N 177.505 5.24299 -2.02651 0
M  V30 1777 H 169.656 1.38605 -1.60942 0
M  V30 1778 H 171.919 0.664661 -0.675965 0
M  V30 1779 H 171.625 2.85251 -2.0573 0
M  V30 1780 H 171.499 3.73251 -0.54439 0
M  V30 1781 H 173.886 2.95027 0.0654188 0
M  V30 1782 H 173.967 2.08808 -1.47759 0
M  V30 1783 H 173.611 4.29826 -2.70576 0
M  V30 1784 H 173.541 5.14156 -1.13804 0
M  V30 1785 H 176.032 3.58138 -1.20606 0
M  V30 1786 H 176.345 7.10029 -3.05087 0
M  V30 1787 H 174.69 6.38823 -2.73734 0
M  V30 1788 H 177.881 4.4086 -1.57353 0
M  V30 1789 H 178.054 6.01334 -2.41457 0
M  V30 1790 N 171.46 0.379036 1.52974 0
M  V30 1791 C 172.407 -0.461048 2.26148 0
M  V30 1792 C 173.377 -1.06637 1.27349 0
M  V30 1793 O 174.562 -1.09633 1.56157 0
M  V30 1794 C 171.702 -1.58782 3.06402 0
M  V30 1795 C 170.815 -1.00636 4.20115 0
M  V30 1796 C 169.95 -2.10334 4.87784 0
M  V30 1797 C 168.989 -1.49724 5.93506 0
M  V30 1798 N 168.126 -2.5331 6.54812 0
M  V30 1799 H 172.966 0.169429 2.97518 0
M  V30 1800 H 170.503 0.0953806 1.4679 0
M  V30 1801 H 172.461 -2.25174 3.51215 0
M  V30 1802 H 171.091 -2.18876 2.37261 0
M  V30 1803 H 170.143 -0.232332 3.7969 0
M  V30 1804 H 171.455 -0.523343 4.96047 0
M  V30 1805 H 170.609 -2.84519 5.35849 0
M  V30 1806 H 169.348 -2.61992 4.11353 0
M  V30 1807 H 168.353 -0.740598 5.44789 0
M  V30 1808 H 169.578 -0.988732 6.71864 0
M  V30 1809 H 167.524 -3.04156 5.81227 0
M  V30 1810 H 167.441 -2.09734 7.26325 0
M  V30 1811 H 168.709 -3.27155 7.07524 0
M  V30 1812 N 172.938 -1.57226 0.108567 0
M  V30 1813 C 174.186 -1.94448 -0.550853 0
M  V30 1814 C 174.507 -0.992074 -1.67878 0
M  V30 1815 O 173.777 -0.0465 -1.95845 0
M  V30 1816 H 172.357 -0.717897 -0.206479 0
M  V30 1817 H 175.019 -1.94112 0.175062 0
M  V30 1818 H 174.115 -2.97218 -0.952259 0
M  V30 1819 N 174.416 0.165178 -1.56732 0
M  V30 1820 C 175.363 1.2044 -1.96883 0
M  V30 1821 C 176.333 1.43664 -0.833657 0
M  V30 1822 O 177.518 1.56302 -1.09427 0
M  V30 1823 C 174.658 2.53727 -2.33916 0
M  V30 1824 C 173.771 2.3783 -3.6064 0
M  V30 1825 C 172.906 3.64026 -3.86857 0
M  V30 1826 C 171.945 3.43088 -5.06909 0
M  V30 1827 N 171.082 4.61369 -5.29229 0
M  V30 1828 H 175.922 0.854996 -2.85471 0
M  V30 1829 H 173.459 0.41076 -1.41249 0
M  V30 1830 H 175.417 3.31419 -2.53411 0
M  V30 1831 H 174.047 2.8665 -1.48431 0
M  V30 1832 H 173.099 1.51282 -3.49024 0
M  V30 1833 H 174.411 2.18308 -4.4849 0
M  V30 1834 H 173.565 4.50152 -4.06753 0
M  V30 1835 H 172.304 3.86533 -2.97394 0
M  V30 1836 H 171.309 2.55349 -4.86906 0
M  V30 1837 H 172.534 3.21997 -5.97909 0
M  V30 1838 H 170.48 4.84084 -4.42718 0
M  V30 1839 H 170.397 4.44783 -6.11313 0
M  V30 1840 H 171.665 5.48761 -5.53608 0
M  V30 1841 N 175.894 1.51508 0.433938 0
M  V30 1842 C 176.804 1.75917 1.5521 0
M  V30 1843 C 177.82 0.643545 1.61662 0
M  V30 1844 O 178.996 0.926183 1.7884 0
M  V30 1845 C 176.061 1.88213 2.91164 0
M  V30 1846 C 175.122 3.12074 2.94802 0
M  V30 1847 C 174.355 3.23774 4.24271 0
M  V30 1848 O 174.578 2.4133 5.16833 0
M  V30 1849 O 173.512 4.16774 4.34262 0
M  V30 1850 H 177.338 2.70777 1.37527 0
M  V30 1851 H 174.923 1.36051 0.617293 0
M  V30 1852 H 176.805 1.98267 3.71845 0
M  V30 1853 H 175.48 0.965413 3.08968 0
M  V30 1854 H 174.387 3.07497 2.13065 0
M  V30 1855 H 175.72 4.03446 2.81943 0
M  V30 1856 N 177.372 -0.689602 1.41712 0
M  V30 1857 C 178.302 -1.81577 1.46806 0
M  V30 1858 C 179.283 -1.66945 0.326105 0
M  V30 1859 O 180.468 -1.86588 0.538377 0
M  V30 1860 C 177.598 -3.19762 1.35535 0
M  V30 1861 C 176.552 -3.49107 2.47605 0
M  V30 1862 C 175.878 -4.86711 2.21397 0
M  V30 1863 C 177.178 -3.47483 3.89939 0
M  V30 1864 H 178.872 -1.7757 2.41058 0
M  V30 1865 H 176.418 -0.852887 1.16025 0
M  V30 1866 H 178.371 -3.98263 1.3771 0
M  V30 1867 H 177.095 -3.24409 0.377708 0
M  V30 1868 H 175.754 -2.72959 2.44722 0
M  V30 1869 H 175.402 -4.8799 1.21961 0
M  V30 1870 H 175.102 -5.0731 2.96497 0
M  V30 1871 H 176.626 -5.67515 2.25297 0
M  V30 1872 H 178.04 -4.1598 3.94505 0
M  V30 1873 H 176.437 -3.79615 4.64771 0
M  V30 1874 H 177.507 -2.46341 4.17665 0
M  V30 1875 N 178.85 -1.27639 -0.924453 0
M  V30 1876 C 180.127 -1.04887 -1.651 0
M  V30 1877 C 180.507 0.415327 -2.06974 0
M  V30 1878 O 179.855 1.39923 -1.80648 0
M  V30 1879 C 180.065 -2.01348 -2.85061 0
M  V30 1880 C 181.413 -2.30899 -3.56329 0
M  V30 1881 O 182.437 -1.99348 -2.95193 0
M  V30 1882 O 181.296 -2.84699 -4.66485 0
M  V30 1883 H 178.39 -0.400083 -0.723784 0
M  V30 1884 H 180.936 -1.38916 -0.974703 0
M  V30 1885 H 179.708 -3.0008 -2.51133 0
M  V30 1886 H 179.331 -1.679 -3.6041 0
M  V30 1887 N 180.328 1.1314 -1.09713 0
M  V30 1888 C 181.553 1.88862 -0.857081 0
M  V30 1889 C 181.978 1.78729 0.586304 0
M  V30 1890 O 181.336 1.13692 1.41222 0
M  V30 1891 C 181.384 3.36325 -1.30069 0
M  V30 1892 O 180.488 4.09815 -0.461007 0
M  V30 1893 H 179.829 0.587108 -0.310162 0
M  V30 1894 H 182.359 1.43129 -1.46203 0
M  V30 1895 H 182.369 3.87157 -1.28738 0
M  V30 1896 H 181.044 3.43017 -2.35185 0
M  V30 1897 H 179.621 3.68986 -0.538888 0
M  V30 1898 N 181.806 0.884767 1.30421 0
M  V30 1899 C 182.754 0.340869 2.30089 0
M  V30 1900 C 183.748 -0.55201 1.60154 0
M  V30 1901 O 184.954 -0.436467 1.74628 0
M  V30 1902 H 181.329 0.0915739 0.746404 0
M  V30 1903 H 183.3 1.19513 2.73421 0
M  V30 1904 C 182.049 -0.429779 3.45034 0
M  V30 1905 H 181.372 0.248024 3.9903 0
M  V30 1906 H 182.812 -0.775445 4.16849 0
M  V30 1907 C 181.271 -1.62677 2.95022 0
M  V30 1908 O 181.801 -2.72614 2.95033 0
M  V30 1909 N 180.007 -1.46387 2.51036 0
M  V30 1910 H 179.554 -0.569506 2.51226 0
M  V30 1911 H 179.512 -2.26612 2.17932 0
M  V30 1912 N 183.284 -1.43765 0.645699 0
M  V30 1913 C 184.695 -1.85193 0.236719 0
M  V30 1914 C 185.046 -1.54045 -1.21509 0
M  V30 1915 O 184.171 -0.985694 -1.92647 0
M  V30 1916 C 184.766 -3.36151 0.422845 0
M  V30 1917 C 183.325 -3.76338 0.0682492 0
M  V30 1918 C 182.472 -2.67538 0.729306 0
M  V30 1919 H 185.423 -1.34025 0.849883 0
M  V30 1920 H 185.444 -3.79032 -0.333904 0
M  V30 1921 H 184.956 -3.5879 1.47958 0
M  V30 1922 H 183.057 -3.59312 -0.986179 0
M  V30 1923 H 183.17 -4.76603 0.488469 0
M  V30 1924 H 181.534 -2.54176 0.163235 0
M  V30 1925 H 182.317 -2.93006 1.78892 0
M  V30 1926 N 184.763 -0.387143 -1.52771 0
M  V30 1927 C 186.01 0.195735 -2.01552 0
M  V30 1928 C 186.338 1.46995 -1.27369 0
M  V30 1929 O 185.593 1.92325 -0.361879 0
M  V30 1930 C 185.892 0.512209 -3.53711 0
M  V30 1931 C 185.558 -0.670202 -4.45891 0
M  V30 1932 C 184.22 -0.994586 -4.70809 0
M  V30 1933 C 186.572 -1.46134 -5.00294 0
M  V30 1934 C 183.9 -2.11169 -5.4738 0
M  V30 1935 C 186.252 -2.56903 -5.78086 0
M  V30 1936 C 184.916 -2.89852 -6.01284 0
M  V30 1937 H 184.186 0.0716246 -0.73753 0
M  V30 1938 H 186.833 -0.524046 -1.8419 0
M  V30 1939 H 185.138 1.31329 -3.69134 0
M  V30 1940 H 186.835 0.975804 -3.88946 0
M  V30 1941 H 183.425 -0.407366 -4.2666 0
M  V30 1942 H 187.609 -1.22397 -4.80971 0
M  V30 1943 H 182.865 -2.3707 -5.63567 0
M  V30 1944 H 187.039 -3.18608 -6.19243 0
M  V30 1945 H 184.666 -3.76533 -6.60399 0
M  V30 1946 N 186.241 1.57166 -0.116904 0
M  V30 1947 C 187.204 2.14039 0.819742 0
M  V30 1948 C 188.204 1.07477 1.19605 0
M  V30 1949 O 189.394 1.33263 1.1219 0
M  V30 1950 C 186.526 2.67891 2.10826 0
M  V30 1951 H 187.719 2.98128 0.325511 0
M  V30 1952 H 185.272 1.55739 0.132312 0
M  V30 1953 H 186.007 1.87384 2.64685 0
M  V30 1954 H 185.792 3.45823 1.84793 0
M  V30 1955 H 187.282 3.11809 2.77785 0
M  V30 1956 N 187.719 -0.156864 1.56817 0
M  V30 1957 C 188.944 -0.890331 1.87318 0
M  V30 1958 C 189.369 -1.74394 0.704855 0
M  V30 1959 O 188.727 -1.77972 -0.345786 0
M  V30 1960 C 188.775 -1.73102 3.16336 0
M  V30 1961 O 187.879 -2.83422 2.99576 0
M  V30 1962 H 187.22 -0.24857 0.615718 0
M  V30 1963 H 189.75 -0.150649 2.04045 0
M  V30 1964 H 189.76 -2.12803 3.48107 0
M  V30 1965 H 188.435 -1.10412 4.00976 0
M  V30 1966 H 187.012 -2.47199 2.7919 0
M  V30 1967 N 189.197 -1.51736 -0.425897 0
M  V30 1968 C 190.127 -1.76827 -1.52494 0
M  V30 1969 C 191.108 -0.618524 -1.58456 0
M  V30 1970 O 192.293 -0.862416 -1.74 0
M  V30 1971 C 189.423 -1.90374 -2.90474 0
M  V30 1972 C 188.377 -3.0588 -2.99369 0
M  V30 1973 C 187.703 -3.04625 -4.3944 0
M  V30 1974 C 189.003 -4.45644 -2.72394 0
M  V30 1975 H 190.697 -2.68855 -1.31748 0
M  V30 1976 H 188.243 -1.29372 -0.632362 0
M  V30 1977 H 190.196 -2.0651 -3.6733 0
M  V30 1978 H 188.92 -0.95004 -3.12477 0
M  V30 1979 H 187.579 -2.89467 -2.24954 0
M  V30 1980 H 187.227 -2.0701 -4.58428 0
M  V30 1981 H 186.927 -3.82195 -4.46319 0
M  V30 1982 H 188.451 -3.22869 -5.18255 0
M  V30 1983 H 189.865 -4.62348 -3.38979 0
M  V30 1984 H 188.262 -5.25006 -2.9067 0
M  V30 1985 H 189.332 -4.54893 -1.67929 0
M  V30 1986 N 190.675 0.682077 -1.42076 0
M  V30 1987 C 191.921 1.44428 -1.42367 0
M  V30 1988 C 192.254 1.94164 -0.0373056 0
M  V30 1989 O 191.529 1.70429 0.937239 0
M  V30 1990 C 191.812 2.64654 -2.44194 0
M  V30 1991 C 191.665 2.20596 -3.91991 0
M  V30 1992 C 192.984 3.66865 -2.431 0
M  V30 1993 H 190.103 0.523834 -0.518428 0
M  V30 1994 H 192.745 0.77576 -1.73442 0
M  V30 1995 H 190.895 3.2169 -2.17826 0
M  V30 1996 H 192.567 1.68783 -4.29313 0
M  V30 1997 H 190.81 1.52242 -4.06208 0
M  V30 1998 H 191.481 3.06921 -4.58807 0
M  V30 1999 H 193.957 3.19531 -2.66532 0
M  V30 2000 H 192.833 4.48577 -3.16339 0
M  V30 2001 H 193.094 4.17493 -1.45437 0
M  V30 2002 N 192.153 1.28127 0.917671 0
M  V30 2003 C 193.4 1.15052 1.66641 0
M  V30 2004 C 193.728 -0.301677 1.92146 0
M  V30 2005 O 192.983 -1.23622 1.51711 0
M  V30 2006 C 193.282 1.89018 3.03327 0
M  V30 2007 C 192.948 3.38832 2.97496 0
M  V30 2008 C 191.61 3.79693 2.95613 0
M  V30 2009 C 193.962 4.34378 2.88036 0
M  V30 2010 C 191.29 5.14447 2.82066 0
M  V30 2011 C 193.642 5.69201 2.7603 0
M  V30 2012 C 192.306 6.09343 2.72502 0
M  V30 2013 H 191.576 0.421006 0.609783 0
M  V30 2014 H 194.223 1.58855 1.06945 0
M  V30 2015 H 192.528 1.37752 3.66785 0
M  V30 2016 H 194.225 1.76321 3.60156 0
M  V30 2017 H 190.815 3.06342 2.99754 0
M  V30 2018 H 194.999 4.03775 2.88581 0
M  V30 2019 H 190.255 5.44681 2.77728 0
M  V30 2020 H 194.429 6.42901 2.67678 0
M  V30 2021 H 192.056 7.13712 2.61762 0
M  V30 2022 N 193.631 -1.12557 1.10312 0
M  V30 2023 C 194.861 -1.87592 0.865617 0
M  V30 2024 C 195.269 -1.79851 -0.587389 0
M  V30 2025 O 194.612 -1.16949 -1.41664 0
M  V30 2026 C 194.674 -3.37665 1.23381 0
M  V30 2027 C 194.338 -3.69181 2.69359 0
M  V30 2028 C 195.335 -3.67652 3.67597 0
M  V30 2029 C 193.02 -3.98555 3.05711 0
M  V30 2030 C 195.014 -3.95053 5.00212 0
M  V30 2031 C 192.701 -4.25616 4.38514 0
M  V30 2032 C 193.699 -4.23851 5.35574 0
M  V30 2033 O 193.387 -4.50242 6.65986 0
M  V30 2034 H 193.119 -0.600442 0.310557 0
M  V30 2035 H 195.673 -1.4335 1.47105 0
M  V30 2036 H 193.903 -3.82454 0.571467 0
M  V30 2037 H 195.592 -3.94041 0.973994 0
M  V30 2038 H 196.358 -3.45024 3.40857 0
M  V30 2039 H 192.237 -3.99071 2.30789 0
M  V30 2040 H 195.781 -3.93591 5.75962 0
M  V30 2041 H 191.678 -4.47718 4.64994 0
M  V30 2042 H 192.446 -4.67867 6.71597 0
M  V30 2043 N 195.109 -0.891671 -1.2995 0
M  V30 2044 C 196.355 -0.523649 -1.96544 0
M  V30 2045 C 196.71 0.918394 -1.69066 0
M  V30 2046 O 196.003 1.64122 -0.988659 0
M  V30 2047 C 196.197 -0.742868 -3.49594 0
M  V30 2048 C 196.026 -2.20467 -3.9195 0
M  V30 2049 C 194.796 -2.85055 -4.17219 0
M  V30 2050 C 196.994 -3.17912 -4.04273 0
M  V30 2051 N 194.976 -4.21762 -4.46083 0
M  V30 2052 C 196.347 -4.39712 -4.37097 0
M  V30 2053 C 198.402 -3.1361 -3.86721 0
M  V30 2054 C 197.105 -5.5776 -4.54199 0
M  V30 2055 C 199.131 -4.30936 -4.05028 0
M  V30 2056 C 198.493 -5.51504 -4.38204 0
M  V30 2057 H 194.592 -0.241072 -0.743914 0
M  V30 2058 H 197.176 -1.15081 -1.5705 0
M  V30 2059 H 195.347 -0.14515 -3.88129 0
M  V30 2060 H 197.079 -0.341081 -4.0326 0
M  V30 2061 H 193.834 -2.35889 -4.10674 0
M  V30 2062 H 194.258 -4.92382 -4.64638 0
M  V30 2063 H 198.9 -2.21489 -3.60142 0
M  V30 2064 H 196.618 -6.50379 -4.79618 0
M  V30 2065 H 200.204 -4.29085 -3.92909 0
M  V30 2066 H 199.084 -6.40778 -4.52077 0
M  V30 2067 N 196.587 1.43421 -0.653314 0
M  V30 2068 C 197.497 2.34568 0.0388565 0
M  V30 2069 C 198.513 1.53888 0.81207 0
M  V30 2070 O 199.689 1.86539 0.759294 0
M  V30 2071 C 196.754 3.32167 0.993269 0
M  V30 2072 C 195.815 4.28751 0.216977 0
M  V30 2073 C 195.048 5.21688 1.12593 0
M  V30 2074 O 195.271 5.19052 2.36519 0
M  V30 2075 O 194.205 5.98919 0.598284 0
M  V30 2076 H 198.031 2.95251 -0.711386 0
M  V30 2077 H 195.616 1.43564 -0.413502 0
M  V30 2078 H 197.498 3.92183 1.54176 0
M  V30 2079 H 196.173 2.73987 1.72374 0
M  V30 2080 H 195.08 3.72215 -0.375101 0
M  V30 2081 H 196.413 4.89913 -0.473924 0
M  V30 2082 N 198.065 0.39524 1.52563 0
M  V30 2083 C 199.476 -0.0774719 1.86539 0
M  V30 2084 C 199.827 -1.45641 1.31466 0
M  V30 2085 O 198.952 -2.06459 0.648367 0
M  V30 2086 C 199.547 -0.147356 3.38479 0
M  V30 2087 C 198.106 -0.564373 3.72145 0
M  V30 2088 C 197.253 0.269919 2.75983 0
M  V30 2089 H 200.204 0.612876 1.46388 0
M  V30 2090 H 200.225 -0.965343 3.68051 0
M  V30 2091 H 199.737 0.856387 3.78534 0
M  V30 2092 H 197.838 -1.57527 3.37663 0
M  V30 2093 H 197.951 -0.318402 4.78041 0
M  V30 2094 H 196.315 -0.265696 2.5331 0
M  V30 2095 H 197.098 1.27175 3.18875 0
M  V30 2096 N 199.544 -1.57102 0.125237 0
M  V30 2097 C 200.474 -2.18659 -0.819174 0
M  V30 2098 C 201.455 -1.12843 -1.27281 0
M  V30 2099 O 202.64 -1.41104 -1.33429 0
M  V30 2100 C 199.77 -2.79096 -2.06695 0
M  V30 2101 C 198.724 -3.90548 -1.75088 0
M  V30 2102 C 198.05 -4.37821 -3.06948 0
M  V30 2103 C 199.35 -5.12356 -1.01435 0
M  V30 2104 H 201.044 -2.9783 -0.306202 0
M  V30 2105 H 198.59 -1.4326 -0.145839 0
M  V30 2106 H 200.543 -3.2082 -2.73226 0
M  V30 2107 H 199.267 -1.97223 -2.60328 0
M  V30 2108 H 197.926 -3.49409 -1.10944 0
M  V30 2109 H 197.574 -3.52799 -3.58527 0
M  V30 2110 H 197.274 -5.12982 -2.86571 0
M  V30 2111 H 198.798 -4.822 -3.74587 0
M  V30 2112 H 200.212 -5.5106 -1.58132 0
M  V30 2113 H 198.609 -5.9314 -0.911319 0
M  V30 2114 H 199.679 -4.849 -0.00218681 0
M  V30 2115 N 201.022 0.148545 -1.56898 0
M  V30 2116 C 201.97 1.20265 -1.99096 0
M  V30 2117 C 202.964 1.44559 -0.883123 0
M  V30 2118 O 204.17 1.4487 -1.0683 0
M  V30 2119 H 200.545 0.404786 -0.63376 0
M  V30 2120 H 202.516 0.82004 -2.86911 0
M  V30 2121 C 201.265 2.52886 -2.3863 0
M  V30 2122 H 200.588 2.35021 -3.23427 0
M  V30 2123 H 202.028 3.25274 -2.7198 0
M  V30 2124 C 200.487 3.13315 -1.23837 0
M  V30 2125 O 201.017 3.98077 -0.538268 0
M  V30 2126 N 199.223 2.72742 -1.00301 0
M  V30 2127 H 198.77 2.03912 -1.5741 0
M  V30 2128 H 198.728 3.13507 -0.236838 0
M  V30 2129 N 202.5 1.5196 0.417844 0
M  V30 2130 C 203.916 1.40569 0.755816 0
M  V30 2131 C 204.116 0.503316 1.95113 0
M  V30 2132 O 203.172 -0.0341925 2.52477 0
M  V30 2133 C 204.485 2.82947 1.01791 0
M  V30 2134 C 206.033 2.92231 1.12116 0
M  V30 2135 C 206.508 4.35559 1.41608 0
M  V30 2136 N 207.999 4.38753 1.48491 0
M  V30 2137 C 208.734 5.46705 1.7292 0
M  V30 2138 N 208.23 6.64788 1.95011 0
M  V30 2139 N 210.023 5.34209 1.74863 0
M  V30 2140 H 202.174 2.09168 -0.369098 0
M  V30 2141 H 204.437 0.942409 -0.102809 0
M  V30 2142 H 204.143 3.5106 0.212081 0
M  V30 2143 H 204.017 3.23462 1.94042 0
M  V30 2144 H 206.404 2.24304 1.9176 0
M  V30 2145 H 206.485 2.55185 0.177225 0
M  V30 2146 H 206.129 5.04042 0.624848 0
M  V30 2147 H 206.059 4.70133 2.37239 0
M  V30 2148 H 208.55 3.5363 1.33244 0
M  V30 2149 H 208.863 7.42845 2.13076 0
M  V30 2150 H 207.208 6.67869 1.92293 0
M  V30 2151 H 210.399 4.40937 1.57137 0
M  V30 2152 H 210.572 6.18415 1.93563 0
M  V30 2153 N 203.978 -0.674533 1.42435 0
M  V30 2154 C 204.91 -1.80005 1.41883 0
M  V30 2155 C 205.923 -1.59667 0.31787 0
M  V30 2156 O 207.112 -1.68781 0.580973 0
M  V30 2157 C 204.212 -3.17114 1.19549 0
M  V30 2158 C 203.385 -3.64299 2.42084 0
M  V30 2159 C 202.444 -4.80142 2.15291 0
M  V30 2160 O 201.47 -4.90673 2.88493 0
M  V30 2161 N 202.672 -5.68869 1.1562 0
M  V30 2162 H 205.437 -1.80964 2.38898 0
M  V30 2163 H 202.998 -0.857633 1.37318 0
M  V30 2164 H 204.99 -3.92267 0.995417 0
M  V30 2165 H 203.56 -3.11053 0.310569 0
M  V30 2166 H 202.78 -2.79822 2.77657 0
M  V30 2167 H 204.068 -3.92567 3.23679 0
M  V30 2168 H 203.466 -5.63012 0.550765 0
M  V30 2169 H 202.023 -6.43833 1.016 0
M  V30 2170 N 205.456 -1.28612 -0.910864 0
M  V30 2171 C 206.702 -1.16106 -1.66274 0
M  V30 2172 C 207.035 0.289113 -1.92036 0
M  V30 2173 O 206.31 1.21 -1.52281 0
M  V30 2174 C 206.593 -1.96309 -3.01885 0
M  V30 2175 C 206.446 -3.49405 -2.8326 0
M  V30 2176 C 207.765 -1.78076 -4.02463 0
M  V30 2177 H 204.884 -0.423152 -0.603417 0
M  V30 2178 H 207.526 -1.57961 -1.05586 0
M  V30 2179 H 205.676 -1.60742 -3.53687 0
M  V30 2180 H 207.348 -3.94894 -2.38446 0
M  V30 2181 H 205.591 -3.74893 -2.18261 0
M  V30 2182 H 206.262 -4.00784 -3.79574 0
M  V30 2183 H 208.738 -2.0912 -3.59733 0
M  V30 2184 H 207.614 -2.36561 -4.95308 0
M  V30 2185 H 207.875 -0.733008 -4.35981 0
M  V30 2186 N 206.934 1.1197 -1.10907 0
M  V30 2187 C 208.35 1.35591 -0.841852 0
M  V30 2188 C 208.55 1.94233 0.536246 0
M  V30 2189 O 207.606 2.1717 1.28816 0
M  V30 2190 C 208.919 2.29284 -1.94549 0
M  V30 2191 C 210.467 2.42862 -1.97451 0
M  V30 2192 C 210.942 3.39873 -3.07002 0
M  V30 2193 N 212.433 3.47433 -3.06341 0
M  V30 2194 C 213.168 4.22421 -3.87748 0
M  V30 2195 N 212.664 5.00432 -4.79103 0
M  V30 2196 N 214.457 4.17876 -3.75946 0
M  V30 2197 H 206.608 0.722664 -1.99728 0
M  V30 2198 H 208.871 0.380635 -0.868229 0
M  V30 2199 H 208.577 1.93378 -2.93765 0
M  V30 2200 H 208.451 3.29452 -1.83688 0
M  V30 2201 H 210.838 2.78046 -0.988645 0
M  V30 2202 H 210.919 1.42566 -2.12388 0
M  V30 2203 H 210.563 3.05417 -4.05811 0
M  V30 2204 H 210.493 4.40011 -2.89306 0
M  V30 2205 H 212.984 2.91784 -2.40147 0
M  V30 2206 H 213.297 5.55002 -5.37766 0
M  V30 2207 H 211.642 4.99612 -4.83128 0
M  V30 2208 H 214.833 3.56016 -3.03924 0
M  V30 2209 H 215.006 4.76061 -4.39624 0
M  V30 2210 N 208.412 0.89855 1.29475 0
M  V30 2211 C 209.658 0.524658 1.95896 0
M  V30 2212 C 209.991 -0.926468 1.70676 0
M  V30 2213 O 209.266 -1.65665 1.01908 0
M  V30 2214 C 209.549 0.81633 3.50725 0
M  V30 2215 C 209.402 2.31907 3.85408 0
M  V30 2216 C 210.721 0.302038 4.39062 0
M  V30 2217 H 207.84 0.19209 0.711527 0
M  V30 2218 H 210.482 1.12502 1.53112 0
M  V30 2219 H 208.632 0.305369 3.87298 0
M  V30 2220 H 210.304 2.89949 3.58786 0
M  V30 2221 H 208.547 2.78027 3.32992 0
M  V30 2222 H 209.218 2.47373 4.93468 0
M  V30 2223 H 211.694 0.739551 4.09475 0
M  V30 2224 H 210.57 0.535331 5.46283 0
M  V30 2225 H 210.831 -0.797216 4.34853 0
M  V30 2226 N 209.89 -1.43072 0.660911 0
M  V30 2227 C 210.8 -2.34585 -0.0264163 0
M  V30 2228 C 211.816 -1.54316 -0.803898 0
M  V30 2229 O 212.992 -1.86939 -0.749391 0
M  V30 2230 C 210.057 -3.32689 -0.975639 0
M  V30 2231 C 209.118 -4.2886 -0.194236 0
M  V30 2232 C 208.351 -5.22278 -1.09825 0
M  V30 2233 O 208.574 -5.20299 -2.33763 0
M  V30 2234 O 207.508 -5.99228 -0.566513 0
M  V30 2235 H 211.334 -2.94869 0.727034 0
M  V30 2236 H 208.919 -1.43342 0.42111 0
M  V30 2237 H 210.801 -3.92995 -1.52094 0
M  V30 2238 H 209.476 -2.74898 -1.70918 0
M  V30 2239 H 208.383 -3.72011 0.394835 0
M  V30 2240 H 209.716 -4.89655 0.499899 0
M  V30 2241 N 211.368 -0.403325 -1.52352 0
M  V30 2242 C 212.616 0.174003 -2.0135 0
M  V30 2243 C 212.937 1.46139 -1.29106 0
M  V30 2244 O 212.207 1.91448 -0.415253 0
M  V30 2245 H 210.787 0.0672911 -0.743963 0
M  V30 2246 H 213.449 -0.538235 -1.87321 0
M  V30 2247 H 212.545 0.374254 -3.09848 0
M  V30 2248 N 212.846 1.57033 -0.133567 0
M  V30 2249 C 214.257 1.82593 0.389464 0
M  V30 2250 C 214.608 1.05156 1.6564 0
M  V30 2251 O 213.733 0.292644 2.14412 0
M  V30 2252 C 214.328 3.31204 0.713377 0
M  V30 2253 C 212.887 3.57393 1.18098 0
M  V30 2254 C 212.034 2.76598 0.197126 0
M  V30 2255 H 214.985 1.54598 -0.358481 0
M  V30 2256 H 215.006 3.46627 1.56939 0
M  V30 2257 H 214.518 3.87537 -0.2089 0
M  V30 2258 H 212.619 3.06433 2.11966 0
M  V30 2259 H 212.732 4.65915 1.11624 0
M  V30 2260 H 211.096 2.45257 0.687088 0
M  V30 2261 H 211.879 3.35697 -0.718504 0
M  V30 2262 N 214.325 -0.140222 1.56975 0
M  V30 2263 C 215.571 -0.852949 1.83991 0
M  V30 2264 C 215.904 -1.80512 0.716187 0
M  V30 2265 O 215.179 -1.92479 -0.279681 0
M  V30 2266 C 215.462 -1.6215 3.21527 0
M  V30 2267 C 215.315 -0.690363 4.4447 0
M  V30 2268 C 216.634 -2.58247 3.56366 0
M  V30 2269 H 213.753 -0.308634 0.669264 0
M  V30 2270 H 216.395 -0.117898 1.89634 0
M  V30 2271 H 214.545 -2.24812 3.16847 0
M  V30 2272 H 216.217 -0.0742264 4.6124 0
M  V30 2273 H 214.46 -0.000396433 4.338 0
M  V30 2274 H 215.131 -1.2643 5.37326 0
M  V30 2275 H 217.607 -2.05701 3.61699 0
M  V30 2276 H 216.483 -3.09067 4.53617 0
M  V30 2277 H 216.744 -3.39923 2.82674 0
M  V30 2278 N 215.803 -1.52179 -0.40978 0
M  V30 2279 C 216.75 -1.75475 -1.49924 0
M  V30 2280 C 217.72 -0.597175 -1.54994 0
M  V30 2281 O 218.905 -0.834655 -1.71575 0
M  V30 2282 C 216.045 -1.9107 -2.87378 0
M  V30 2283 C 215.158 -3.18717 -2.91622 0
M  V30 2284 C 214.293 -3.24747 -4.20372 0
M  V30 2285 C 213.332 -4.46598 -4.18588 0
M  V30 2286 N 212.469 -4.50025 -5.38908 0
M  V30 2287 H 217.309 -2.68458 -1.29361 0
M  V30 2288 H 214.846 -1.33024 -0.627934 0
M  V30 2289 H 216.804 -1.98096 -3.6717 0
M  V30 2290 H 215.434 -1.01469 -3.06437 0
M  V30 2291 H 214.486 -3.20866 -2.04326 0
M  V30 2292 H 215.798 -4.08544 -2.86169 0
M  V30 2293 H 214.952 -3.30841 -5.08556 0
M  V30 2294 H 213.691 -2.32857 -4.28519 0
M  V30 2295 H 212.696 -4.40652 -3.28794 0
M  V30 2296 H 213.921 -5.39783 -4.12081 0
M  V30 2297 H 211.867 -3.61017 -5.47725 0
M  V30 2298 H 211.784 -5.33697 -5.35447 0
M  V30 2299 H 213.052 -4.60347 -6.29048 0
M  V30 2300 N 217.281 0.66697 -1.42791 0
M  V30 2301 C 218.228 1.7803 -1.4688 0
M  V30 2302 C 219.198 1.6299 -0.319919 0
M  V30 2303 O 220.383 1.83432 -0.525118 0
M  V30 2304 C 217.523 3.1611 -1.38451 0
M  V30 2305 C 216.636 3.42381 -2.63437 0
M  V30 2306 C 215.771 4.70232 -2.47094 0
M  V30 2307 C 214.81 4.89564 -3.67415 0
M  V30 2308 N 213.947 6.08661 -3.49966 0
M  V30 2309 H 218.787 1.7387 -2.42019 0
M  V30 2310 H 216.324 0.84868 -1.20149 0
M  V30 2311 H 218.282 3.95914 -1.31561 0
M  V30 2312 H 216.912 3.19374 -0.469033 0
M  V30 2313 H 215.964 2.56774 -2.80662 0
M  V30 2314 H 217.276 3.52557 -3.52853 0
M  V30 2315 H 216.43 5.5814 -2.37834 0
M  V30 2316 H 215.169 4.62353 -1.5518 0
M  V30 2317 H 214.174 4.00096 -3.77099 0
M  V30 2318 H 215.399 4.99282 -4.6032 0
M  V30 2319 H 213.345 6.0194 -2.60776 0
M  V30 2320 H 213.262 6.19733 -4.32975 0
M  V30 2321 H 214.53 6.99226 -3.44532 0
M  V30 2322 N 218.759 1.29093 0.90403 0
M  V30 2323 C 219.689 1.16401 2.02418 0
M  V30 2324 C 220.67 0.0593085 1.69997 0
M  V30 2325 O 221.855 0.238021 1.92736 0
M  V30 2326 C 218.985 0.835233 3.37107 0
M  V30 2327 C 217.939 1.89578 3.83724 0
M  V30 2328 C 217.265 1.42041 5.15489 0
M  V30 2329 C 218.565 3.30394 4.04521 0
M  V30 2330 H 220.259 2.10109 2.13295 0
M  V30 2331 H 217.805 1.01157 1.02486 0
M  V30 2332 H 219.758 0.733169 4.14973 0
M  V30 2333 H 218.482 -0.137543 3.2631 0
M  V30 2334 H 217.141 1.98715 3.08071 0
M  V30 2335 H 216.789 0.436426 5.01103 0
M  V30 2336 H 216.489 2.12964 5.4765 0
M  V30 2337 H 218.013 1.33176 5.959 0
M  V30 2338 H 219.427 3.24123 4.72882 0
M  V30 2339 H 217.824 3.99237 4.48029 0
M  V30 2340 H 218.894 3.73692 3.09002 0
M  V30 2341 N 220.237 -1.11381 1.11499 0
M  V30 2342 C 221.648 -1.6465 0.880191 0
M  V30 2343 C 221.999 -1.87199 -0.587434 0
M  V30 2344 O 221.124 -1.60667 -1.44966 0
M  V30 2345 C 221.719 -2.99105 1.59128 0
M  V30 2346 C 220.278 -3.49279 1.40289 0
M  V30 2347 C 219.425 -2.24077 1.63354 0
M  V30 2348 H 222.376 -0.950123 1.27116 0
M  V30 2349 H 222.397 -3.66107 1.03664 0
M  V30 2350 H 221.909 -2.82661 2.65941 0
M  V30 2351 H 220.01 -3.70887 0.356888 0
M  V30 2352 H 220.123 -4.2803 2.15238 0
M  V30 2353 H 218.487 -2.31733 1.05698 0
M  V30 2354 H 219.27 -2.10175 2.71443 0
M  V30 2355 N 221.715 -0.905404 -1.28997 0
M  V30 2356 C 222.625 -0.392246 -2.31298 0
M  V30 2357 C 223.641 0.515889 -1.66176 0
M  V30 2358 O 224.817 0.404093 -1.97304 0
M  V30 2359 C 221.882 0.36686 -3.44754 0
M  V30 2360 C 220.943 -0.573485 -4.25452 0
M  V30 2361 C 220.176 0.149488 -5.33491 0
M  V30 2362 O 220.399 1.37255 -5.5364 0
M  V30 2363 O 219.333 -0.510919 -5.99728 0
M  V30 2364 H 223.159 -1.2411 -2.77183 0
M  V30 2365 H 220.744 -0.669926 -1.33538 0
M  V30 2366 H 222.626 0.795907 -4.13816 0
M  V30 2367 H 221.301 1.19169 -3.00966 0
M  V30 2368 H 220.208 -1.05176 -3.59011 0
M  V30 2369 H 221.541 -1.36489 -4.72897 0
M  V30 2370 N 223.193 1.4272 -0.668489 0
M  V30 2371 C 224.103 2.34596 0.0139753 0
M  V30 2372 C 225.119 1.5474 0.795703 0
M  V30 2373 O 226.295 1.87334 0.739466 0
M  V30 2374 C 223.36 3.33202 0.957982 0
M  V30 2375 C 222.421 4.28957 0.17149 0
M  V30 2376 C 221.654 5.22853 1.07053 0
M  V30 2377 O 221.877 5.21531 2.31001 0
M  V30 2378 O 220.811 5.9952 0.534727 0
M  V30 2379 H 224.637 2.9448 -0.742661 0
M  V30 2380 H 222.222 1.43117 -0.428705 0
M  V30 2381 H 224.104 3.93796 1.50008 0
M  V30 2382 H 222.779 2.758 1.69458 0
M  V30 2383 H 221.686 3.71796 -0.414558 0
M  V30 2384 H 223.019 4.89383 -0.52586 0
M  V30 2385 N 224.671 0.411399 1.52136 0
M  V30 2386 C 225.581 -0.419774 2.30814 0
M  V30 2387 C 226.597 -1.0515 1.38634 0
M  V30 2388 O 227.773 -1.05252 1.71709 0
M  V30 2389 C 224.838 -1.52019 3.11594 0
M  V30 2390 C 223.899 -0.91129 4.19516 0
M  V30 2391 C 223.132 -1.95927 4.96436 0
M  V30 2392 O 223.355 -3.17775 4.73683 0
M  V30 2393 O 222.289 -1.56423 5.81219 0
M  V30 2394 H 226.115 0.221805 3.02889 0
M  V30 2395 H 223.7 0.174547 1.48377 0
M  V30 2396 H 225.582 -2.15898 3.61892 0
M  V30 2397 H 224.257 -2.14633 2.42311 0
M  V30 2398 H 223.164 -0.235157 3.7336 0
M  V30 2399 H 224.497 -0.32904 4.91099 0
M  V30 2400 N 226.149 -1.5696 0.141893 0
M  V30 2401 C 227.112 -2.15316 -0.785587 0
M  V30 2402 C 228.112 -1.09366 -1.1788 0
M  V30 2403 O 229.302 -1.35031 -1.10056 0
M  V30 2404 C 226.434 -2.71211 -2.06537 0
M  V30 2405 H 227.627 -2.98608 -0.278041 0
M  V30 2406 H 225.18 -1.5593 -0.107519 0
M  V30 2407 H 225.915 -1.91571 -2.6167 0
M  V30 2408 H 225.7 -3.4872 -1.79268 0
M  V30 2409 H 227.19 -3.16189 -2.72789 0
M  V30 2410 N 227.627 0.131896 -1.57047 0
M  V30 2411 C 228.537 1.1815 -2.02676 0
M  V30 2412 C 229.553 1.46113 -0.944824 0
M  V30 2413 O 230.729 1.57485 -1.25541 0
M  V30 2414 C 227.794 2.49139 -2.41103 0
M  V30 2415 C 226.855 2.28688 -3.63318 0
M  V30 2416 C 226.088 3.53431 -3.99903 0
M  V30 2417 O 226.311 4.60223 -3.36973 0
M  V30 2418 O 225.245 3.45198 -4.93074 0
M  V30 2419 H 229.071 0.824069 -2.92306 0
M  V30 2420 H 226.656 0.341745 -1.45439 0
M  V30 2421 H 228.538 3.26338 -2.66611 0
M  V30 2422 H 227.213 2.84382 -1.54624 0
M  V30 2423 H 226.12 1.4939 -3.42977 0
M  V30 2424 H 227.453 1.98355 -4.50462 0
M  V30 2425 N 229.106 1.52395 0.401703 0
M  V30 2426 C 230.346 1.68498 1.15705 0
M  V30 2427 C 230.71 0.409748 1.87577 0
M  V30 2428 O 231.911 0.446983 2.65058 0
M  V30 2429 C 230.182 2.87789 2.11924 0
M  V30 2430 S 231.741 3.24415 2.95466 0
M  V30 2431 H 228.559 0.593267 0.391862 0
M  V30 2432 H 231.161 1.90408 0.443282 0
M  V30 2433 H 229.865 3.7884 1.57824 0
M  V30 2434 H 229.396 2.68175 2.87829 0
M  V30 2435 H 231.411 2.73614 4.13944 0
M  V30 2436 N 230.584 -0.659388 1.43143 0
M  V30 2437 C 231.814 -1.44513 1.47646 0
M  V30 2438 C 232.222 -1.88981 0.0910095 0
M  V30 2439 O 231.565 -1.59702 -0.907789 0
M  V30 2440 C 231.627 -2.71663 2.35456 0
M  V30 2441 C 231.291 -2.49175 3.83094 0
M  V30 2442 C 232.288 -2.1279 4.74359 0
M  V30 2443 C 229.973 -2.63691 4.27519 0
M  V30 2444 C 231.967 -1.9121 6.08044 0
M  V30 2445 C 229.654 -2.41726 5.61259 0
M  V30 2446 C 230.652 -2.0554 6.51339 0
M  V30 2447 O 230.34 -1.838 7.82606 0
M  V30 2448 H 230.072 -0.45064 0.503884 0
M  V30 2449 H 232.626 -0.816248 1.88485 0
M  V30 2450 H 230.856 -3.37089 1.89493 0
M  V30 2451 H 232.545 -3.33595 2.31235 0
M  V30 2452 H 233.311 -2.01157 4.41317 0
M  V30 2453 H 229.19 -2.90832 3.57684 0
M  V30 2454 H 232.734 -1.62889 6.78316 0
M  V30 2455 H 228.631 -2.52959 5.9387 0
M  V30 2456 H 229.399 -1.98275 7.94122 0
M  V30 2457 N 232.062 -1.29571 -0.897171 0
M  V30 2458 C 233.309 -1.17689 -1.6479 0
M  V30 2459 C 233.637 0.27107 -1.92602 0
M  V30 2460 O 232.892 1.21193 -1.53658 0
M  V30 2461 C 233.191 -1.9382 -3.00281 0
M  V30 2462 C 232.857 -3.43522 -2.92068 0
M  V30 2463 C 231.519 -3.84348 -2.89535 0
M  V30 2464 C 233.871 -4.38906 -2.81089 0
M  V30 2465 C 231.199 -5.18869 -2.73846 0
M  V30 2466 C 233.551 -5.73521 -2.66939 0
M  V30 2467 C 232.215 -6.13601 -2.62774 0
M  V30 2468 H 231.485 -0.430654 -0.603008 0
M  V30 2469 H 234.132 -1.60536 -1.04404 0
M  V30 2470 H 232.437 -1.4357 -3.64547 0
M  V30 2471 H 234.134 -1.82028 -3.57305 0
M  V30 2472 H 230.724 -3.11072 -2.94842 0
M  V30 2473 H 234.908 -4.08315 -2.82121 0
M  V30 2474 H 230.164 -5.4903 -2.69027 0
M  V30 2475 H 234.338 -6.47078 -2.57416 0
M  V30 2476 H 231.965 -7.17786 -2.50375 0
M  V30 2477 N 233.54 1.10788 -1.12088 0
M  V30 2478 C 234.49 2.15158 -0.754401 0
M  V30 2479 C 235.474 1.59026 0.244846 0
M  V30 2480 O 236.666 1.76927 0.0509097 0
M  V30 2481 C 233.795 3.42677 -0.206657 0
M  V30 2482 C 232.881 4.05751 -1.23398 0
M  V30 2483 N 233.272 4.43582 -2.43041 0
M  V30 2484 C 231.57 4.32764 -1.07848 0
M  V30 2485 C 232.271 4.93085 -3.08613 0
M  V30 2486 N 231.247 4.89664 -2.36072 0
M  V30 2487 H 235.049 2.42195 -1.6649 0
M  V30 2488 H 232.563 1.27872 -1.00112 0
M  V30 2489 H 234.56 4.16834 0.0740646 0
M  V30 2490 H 233.22 3.17101 0.698342 0
M  V30 2491 H 234.231 4.35395 -2.80449 0
M  V30 2492 H 230.908 4.16863 -0.230483 0
M  V30 2493 H 232.298 5.31933 -4.10483 0
M  V30 2494 N 235.018 0.912232 1.28515 0
M  V30 2495 C 236.243 0.559774 1.99703 0
M  V30 2496 C 236.668 -0.851393 1.67729 0
M  V30 2497 O 236.026 -1.56875 0.908834 0
M  V30 2498 C 236.074 0.773874 3.52198 0
M  V30 2499 O 235.178 -0.167842 4.12058 0
M  V30 2500 H 234.519 0.21723 0.627461 0
M  V30 2501 H 237.049 1.22725 1.63706 0
M  V30 2502 H 237.059 0.683386 4.02236 0
M  V30 2503 H 235.734 1.80261 3.74805 0
M  V30 2504 H 234.311 -0.0287509 3.72889 0
M  V30 2505 N 236.496 -1.42363 0.676048 0
M  V30 2506 C 237.912 -1.55811 0.345718 0
M  V30 2507 C 238.112 -1.65544 -1.14879 0
M  V30 2508 O 237.168 -1.62306 -1.93424 0
M  V30 2509 C 238.481 -2.80746 1.07713 0
M  V30 2510 C 240.029 -2.9452 1.05958 0
M  V30 2511 C 240.504 -4.22318 1.77233 0
M  V30 2512 N 241.995 -4.29233 1.74108 0
M  V30 2513 C 242.73 -5.26935 2.26113 0
M  V30 2514 N 242.226 -6.30783 2.86505 0
M  V30 2515 N 244.019 -5.18741 2.1648 0
M  V30 2516 H 236.17 -1.34289 1.6456 0
M  V30 2517 H 238.433 -0.646506 0.69335 0
M  V30 2518 H 238.139 -2.79696 2.13221 0
M  V30 2519 H 238.013 -3.71676 0.64316 0
M  V30 2520 H 240.4 -2.95097 0.0128255 0
M  V30 2521 H 240.481 -2.04817 1.53244 0
M  V30 2522 H 240.125 -4.22502 2.81877 0
M  V30 2523 H 240.055 -5.10958 1.27396 0
M  V30 2524 H 242.546 -3.54814 1.30059 0
M  V30 2525 H 242.859 -7.01691 3.23805 0
M  V30 2526 H 241.204 -6.31341 2.90575 0
M  V30 2527 H 244.395 -4.36533 1.68987 0
M  V30 2528 H 244.568 -5.94721 2.57316 0
M  V30 2529 N 237.974 -0.419461 -1.51915 0
M  V30 2530 C 239.385 0.0477853 -1.86639 0
M  V30 2531 C 239.736 1.43531 -1.33766 0
M  V30 2532 O 238.861 2.05401 -0.68113 0
M  V30 2533 C 239.456 0.0934885 -3.38671 0
M  V30 2534 C 238.015 0.505097 -3.72996 0
M  V30 2535 C 237.162 -0.313792 -2.75519 0
M  V30 2536 H 240.113 -0.636088 -1.45395 0
M  V30 2537 H 240.134 0.906667 -3.6954 0
M  V30 2538 H 239.646 -0.916501 -3.77123 0
M  V30 2539 H 237.747 1.52135 -3.40126 0
M  V30 2540 H 237.86 0.242309 -4.78487 0
M  V30 2541 H 236.224 0.225363 -2.53701 0
M  V30 2542 H 237.007 -1.32232 -3.16812 0
M  V30 2543 N 239.452 1.56882 -0.150215 0
M  V30 2544 C 240.399 2.16922 0.788244 0
M  V30 2545 C 241.369 1.10303 1.24187 0
M  V30 2546 O 242.554 1.38359 1.31383 0
M  V30 2547 C 239.694 2.79754 2.02068 0
M  V30 2548 C 238.807 4.00775 1.61257 0
M  V30 2549 C 237.942 4.51595 2.79705 0
M  V30 2550 C 236.981 5.65074 2.35282 0
M  V30 2551 N 236.118 6.10499 3.4675 0
M  V30 2552 H 240.958 2.96779 0.269444 0
M  V30 2553 H 238.495 1.46599 0.12128 0
M  V30 2554 H 240.453 3.14329 2.74323 0
M  V30 2555 H 239.083 2.02536 2.51354 0
M  V30 2556 H 238.135 3.72158 0.787553 0
M  V30 2557 H 239.447 4.82978 1.24633 0
M  V30 2558 H 238.601 4.88242 3.60145 0
M  V30 2559 H 237.34 3.68406 3.19576 0
M  V30 2560 H 236.345 5.28 1.53283 0
M  V30 2561 H 237.57 6.50052 1.96493 0
M  V30 2562 H 235.516 5.30243 3.86236 0
M  V30 2563 H 235.433 6.87637 3.14152 0
M  V30 2564 H 236.701 6.51791 4.27537 0
M  V30 2565 N 240.93 -0.123565 1.57115 0
M  V30 2566 C 242.155 -0.850398 1.89164 0
M  V30 2567 C 242.58 -1.7286 0.741688 0
M  V30 2568 O 241.938 -1.78665 -0.307958 0
M  V30 2569 C 241.986 -1.66353 3.19936 0
M  V30 2570 O 241.09 -2.77004 3.0552 0
M  V30 2571 H 240.431 -0.235454 0.620852 0
M  V30 2572 H 242.961 -0.107335 2.04318 0
M  V30 2573 H 242.971 -2.05372 3.52543 0
M  V30 2574 H 241.646 -1.01881 4.03228 0
M  V30 2575 H 240.223 -2.41221 2.84371 0
M  V30 2576 N 242.408 -1.52605 -0.393616 0
M  V30 2577 C 243.633 -1.71592 -1.16495 0
M  V30 2578 C 244.058 -0.43133 -1.83088 0
M  V30 2579 O 243.416 0.612523 -1.7064 0
M  V30 2580 C 243.464 -2.86318 -2.19213 0
M  V30 2581 O 242.568 -2.52969 -3.257 0
M  V30 2582 H 241.909 -0.570734 -0.33935 0
M  V30 2583 H 244.439 -1.99377 -0.459324 0
M  V30 2584 H 244.449 -3.1168 -2.63286 0
M  V30 2585 H 243.124 -3.79511 -1.7013 0
M  V30 2586 H 241.701 -2.38332 -2.86797 0
M  V30 2587 N 243.887 0.651787 -1.4349 0
M  V30 2588 C 244.819 1.77725 -1.44729 0
M  V30 2589 C 245.832 1.59141 -0.343231 0
M  V30 2590 O 247.021 1.67835 -0.607751 0
M  V30 2591 C 244.121 3.15172 -1.24579 0
M  V30 2592 C 243.294 3.60402 -2.47849 0
M  V30 2593 C 242.353 4.76656 -2.22902 0
M  V30 2594 O 241.379 4.86022 -2.96263 0
M  V30 2595 N 242.581 5.66958 -1.24656 0
M  V30 2596 H 245.346 1.77141 -2.41746 0
M  V30 2597 H 242.907 0.835678 -1.38665 0
M  V30 2598 H 244.899 3.90634 -1.0577 0
M  V30 2599 H 243.469 3.1052 -0.360015 0
M  V30 2600 H 242.689 2.75369 -2.82073 0
M  V30 2601 H 243.977 3.87368 -3.29884 0
M  V30 2602 H 243.375 5.62065 -0.640265 0
M  V30 2603 H 241.932 6.42135 -1.1183 0
M  V30 2604 N 245.365 1.30045 0.890287 0
M  V30 2605 C 246.614 1.17929 1.63633 0
M  V30 2606 C 246.927 -0.266204 1.9378 0
M  V30 2607 O 248.133 -0.508804 2.6669 0
M  V30 2608 C 246.589 2.06317 2.94892 0
M  V30 2609 C 246.197 3.55745 2.72305 0
M  V30 2610 C 247.941 2.0295 3.72843 0
M  V30 2611 C 245.848 4.36205 3.99348 0
M  V30 2612 H 244.778 0.437782 0.613892 0
M  V30 2613 H 247.429 1.54754 0.986075 0
M  V30 2614 H 245.811 1.6237 3.61182 0
M  V30 2615 H 246.985 4.07805 2.1455 0
M  V30 2616 H 245.3 3.6088 2.07737 0
M  V30 2617 H 247.897 2.60319 4.67053 0
M  V30 2618 H 248.24 1.0117 4.0382 0
M  V30 2619 H 248.773 2.4499 3.13408 0
M  V30 2620 H 245.512 5.38659 3.73533 0
M  V30 2621 H 245.032 3.8891 4.56628 0
M  V30 2622 H 246.711 4.47362 4.67415 0
M  V30 2623 N 246.843 -1.10192 1.12674 0
M  V30 2624 C 248.091 -1.81845 0.881861 0
M  V30 2625 C 248.412 -1.85737 -0.593867 0
M  V30 2626 O 247.682 -1.33724 -1.4316 0
M  V30 2627 H 246.262 -0.673432 0.323261 0
M  V30 2628 H 248.924 -1.33316 1.42172 0
M  V30 2629 H 248.02 -2.85288 1.2656 0
M  V30 2630 N 248.321 -0.919034 -1.28029 0
M  V30 2631 C 249.284 -0.416182 -2.2539 0
M  V30 2632 C 250.284 0.460438 -1.54067 0
M  V30 2633 O 251.474 0.262744 -1.72207 0
M  V30 2634 C 248.606 0.402707 -3.38513 0
M  V30 2635 H 249.799 -1.27629 -2.71387 0
M  V30 2636 H 247.352 -0.698919 -1.39803 0
M  V30 2637 H 248.087 1.282 -2.97885 0
M  V30 2638 H 247.872 -0.225698 -3.9145 0
M  V30 2639 H 249.362 0.745191 -4.10897 0
M  V30 2640 N 249.799 1.42003 -0.683588 0
M  V30 2641 C 251.045 2.01712 -0.209825 0
M  V30 2642 C 251.378 1.53968 1.18353 0
M  V30 2643 O 250.653 0.745661 1.79639 0
M  V30 2644 C 250.936 3.59202 -0.254197 0
M  V30 2645 C 250.789 4.17102 -1.68363 0
M  V30 2646 C 252.108 4.38344 0.392709 0
M  V30 2647 H 249.227 0.732891 -0.0777189 0
M  V30 2648 H 251.869 1.68909 -0.87004 0
M  V30 2649 H 250.019 3.87278 0.307954 0
M  V30 2650 H 251.691 3.99946 -2.29871 0
M  V30 2651 H 249.934 3.72597 -2.22157 0
M  V30 2652 H 250.605 5.26249 -1.6663 0
M  V30 2653 H 253.081 4.16011 -0.0859162 0
M  V30 2654 H 251.957 5.47901 0.331063 0
M  V30 2655 H 252.218 4.16887 1.47164 0
M  V30 2656 N 251.277 0.427512 1.51691 0
M  V30 2657 C 252.523 -0.142439 2.02299 0
M  V30 2658 C 252.856 -1.43214 1.31162 0
M  V30 2659 O 252.131 -1.89833 0.423511 0
M  V30 2660 C 252.414 -0.371301 3.58181 0
M  V30 2661 C 252.267 0.936358 4.39946 0
M  V30 2662 C 253.586 -1.14542 4.24933 0
M  V30 2663 H 250.705 -0.0502937 0.735282 0
M  V30 2664 H 253.347 0.564584 1.81418 0
M  V30 2665 H 251.497 -0.973559 3.76104 0
M  V30 2666 H 253.169 1.57184 4.33694 0
M  V30 2667 H 251.412 1.5432 4.05423 0
M  V30 2668 H 252.083 0.730388 5.47147 0
M  V30 2669 H 254.559 -0.635362 4.11221 0
M  V30 2670 H 253.435 -1.27431 5.33903 0
M  V30 2671 H 253.696 -2.17093 3.85127 0
M  V30 2672 N 252.755 -1.56801 0.158532 0
M  V30 2673 C 253.98 -2.01295 -0.499516 0
M  V30 2674 C 254.405 -1.03799 -1.56867 0
M  V30 2675 O 253.763 -0.0155162 -1.81293 0
M  V30 2676 C 253.811 -3.44469 -1.06647 0
M  V30 2677 O 252.915 -3.50012 -2.18095 0
M  V30 2678 H 252.256 -0.652884 -0.12099 0
M  V30 2679 H 254.786 -2.02958 0.258661 0
M  V30 2680 H 254.796 -3.8351 -1.39227 0
M  V30 2681 H 253.471 -4.14932 -0.283581 0
M  V30 2682 H 252.048 -3.22822 -1.86656 0
M  V30 2683 N 254.233 0.115231 -1.57178 0
M  V30 2684 C 255.183 1.14707 -1.97044 0
M  V30 2685 C 256.167 1.36866 -0.845957 0
M  V30 2686 O 257.359 1.37895 -1.10968 0
M  V30 2687 C 254.488 2.47266 -2.38148 0
M  V30 2688 C 253.574 2.28566 -3.57237 0
M  V30 2689 N 253.965 1.79685 -4.72807 0
M  V30 2690 C 252.263 2.59208 -3.62943 0
M  V30 2691 C 252.964 1.74781 -5.54821 0
M  V30 2692 N 251.94 2.19264 -4.97417 0
M  V30 2693 H 255.742 0.761754 -2.83857 0
M  V30 2694 H 253.256 0.322928 -1.59157 0
M  V30 2695 H 255.253 3.219 -2.64927 0
M  V30 2696 H 253.913 2.86552 -1.52702 0
M  V30 2697 H 254.924 1.49177 -4.9595 0
M  V30 2698 H 251.601 3.02154 -2.88113 0
M  V30 2699 H 252.991 1.38212 -6.57531 0
M  V30 2700 N 255.711 1.52812 0.385517 0
M  V30 2701 C 256.643 1.74096 1.49074 0
M  V30 2702 C 257.656 0.621462 1.50472 0
M  V30 2703 O 258.845 0.897245 1.54311 0
M  V30 2704 C 255.945 1.78774 2.87911 0
M  V30 2705 C 255.118 3.08134 3.10439 0
M  V30 2706 C 254.177 3.04313 4.29278 0
M  V30 2707 O 253.203 3.78168 4.25415 0
M  V30 2708 N 254.405 2.23741 5.35649 0
M  V30 2709 H 257.17 2.69455 1.31202 0
M  V30 2710 H 254.731 1.51343 0.575065 0
M  V30 2711 H 256.723 1.73721 3.65518 0
M  V30 2712 H 255.293 0.907869 2.99126 0
M  V30 2713 H 254.513 3.26649 2.20667 0
M  V30 2714 H 255.801 3.93662 3.22347 0
M  V30 2715 H 255.199 1.63211 5.41645 0
M  V30 2716 H 253.756 2.24524 6.11909 0
M  V30 2717 N 257.189 -0.644168 1.43834 0
M  V30 2718 C 258.414 -1.43642 1.49605 0
M  V30 2719 C 258.839 -1.8773 0.117913 0
M  V30 2720 O 258.197 -1.57938 -0.890239 0
M  V30 2721 C 258.245 -2.6416 2.45463 0
M  V30 2722 O 257.349 -3.63538 1.94714 0
M  V30 2723 H 256.69 -0.430329 0.50568 0
M  V30 2724 H 259.22 -0.787448 1.8884 0
M  V30 2725 H 259.23 -3.11864 2.63068 0
M  V30 2726 H 257.905 -2.31414 3.45572 0
M  V30 2727 H 256.482 -3.2273 1.86814 0
M  V30 2728 N 258.668 -1.30515 -0.883378 0
M  V30 2729 C 259.893 -1.22487 -1.67367 0
M  V30 2730 C 260.318 0.208767 -1.86938 0
M  V30 2731 O 259.676 1.15015 -1.40148 0
M  V30 2732 C 259.724 -1.96041 -3.02655 0
M  V30 2733 O 258.828 -1.28859 -3.91751 0
M  V30 2734 H 258.169 -0.423573 -0.511353 0
M  V30 2735 H 260.699 -1.72362 -1.10239 0
M  V30 2736 H 260.709 -2.05124 -3.52687 0
M  V30 2737 H 259.384 -3.00307 -2.8773 0
M  V30 2738 H 257.961 -1.28141 -3.50192 0
M  V30 2739 N 260.146 1.09593 -1.13257 0
M  V30 2740 C 261.392 1.82003 -0.89458 0
M  V30 2741 C 261.725 1.85402 0.577906 0
M  V30 2742 O 261 1.32099 1.42759 0
M  V30 2743 C 261.283 3.28237 -1.48096 0
M  V30 2744 C 261.136 3.3312 -3.02244 0
M  V30 2745 C 262.455 4.24871 -1.14774 0
M  V30 2746 H 259.574 0.66077 -0.326424 0
M  V30 2747 H 262.216 1.28389 -1.40058 0
M  V30 2748 H 260.366 3.74024 -1.05062 0
M  V30 2749 H 262.038 2.95748 -3.54021 0
M  V30 2750 H 260.281 2.72756 -3.37323 0
M  V30 2751 H 260.952 4.3613 -3.38371 0
M  V30 2752 H 263.428 3.87361 -1.51957 0
M  V30 2753 H 262.304 5.25532 -1.58452 0
M  V30 2754 H 262.565 4.42058 -0.0611849 0
M  V30 2755 N 261.624 0.925811 1.2754 0
M  V30 2756 C 262.873 0.561084 1.93739 0
M  V30 2757 C 263.186 -0.901685 1.73577 0
M  V30 2758 O 264.392 -1.37511 2.34101 0
M  V30 2759 C 262.848 0.952668 3.47062 0
M  V30 2760 C 262.456 2.43599 3.75983 0
M  V30 2761 C 264.2 0.659103 4.19352 0
M  V30 2762 C 262.107 2.76707 5.22673 0
M  V30 2763 H 261.037 0.206122 0.725279 0
M  V30 2764 H 263.688 1.12637 1.44863 0
M  V30 2765 H 262.07 0.316053 3.94737 0
M  V30 2766 H 263.244 3.12035 3.39073 0
M  V30 2767 H 261.559 2.70125 3.16893 0
M  V30 2768 H 264.156 0.882985 5.27359 0
M  V30 2769 H 264.499 -0.403607 4.14339 0
M  V30 2770 H 265.032 1.25473 3.77494 0
M  V30 2771 H 261.771 3.8188 5.32774 0
M  V30 2772 H 261.291 2.12919 5.60737 0
M  V30 2773 H 262.97 2.6435 5.90532 0
M  V30 2774 N 263.102 -1.41638 0.69111 0
M  V30 2775 C 264.513 -1.84346 0.295517 0
M  V30 2776 C 264.864 -1.57833 -1.16547 0
M  V30 2777 O 263.989 -1.04648 -1.89414 0
M  V30 2778 C 264.584 -3.34636 0.529575 0
M  V30 2779 C 263.143 -3.7593 0.187944 0
M  V30 2780 C 262.29 -2.65082 0.814052 0
M  V30 2781 H 265.241 -1.31253 0.892092 0
M  V30 2782 H 265.262 -3.79903 -0.213148 0
M  V30 2783 H 264.774 -3.53901 1.59297 0
M  V30 2784 H 262.875 -3.62268 -0.871367 0
M  V30 2785 H 262.988 -4.74808 0.63985 0
M  V30 2786 H 261.352 -2.53528 0.244017 0
M  V30 2787 H 262.135 -2.87167 1.88123 0
M  V30 2788 N 264.58 -0.43555 -1.51462 0
M  V30 2789 C 265.857 0.191364 -1.94662 0
M  V30 2790 C 266.237 1.60254 -1.37411 0
M  V30 2791 O 265.585 2.2152 -0.560458 0
M  V30 2792 C 265.795 0.17091 -3.48581 0
M  V30 2793 C 267.143 0.377357 -4.2292 0
M  V30 2794 O 268.167 0.249104 -3.55328 0
M  V30 2795 O 267.026 0.63247 -5.42828 0
M  V30 2796 H 264.12 0.130932 -0.816569 0
M  V30 2797 H 266.666 -0.4934 -1.62369 0
M  V30 2798 H 265.438 -0.815738 -3.82703 0
M  V30 2799 H 265.061 0.898659 -3.87311 0
M  V30 2800 N 266.058 1.56714 -0.166846 0
M  V30 2801 C 267.474 1.58473 0.189372 0
M  V30 2802 C 267.674 1.18201 1.63189 0
M  V30 2803 O 266.73 0.891528 2.36237 0
M  V30 2804 C 268.043 3.00573 -0.0873872 0
M  V30 2805 C 269.591 3.1299 -0.0252443 0
M  V30 2806 C 270.066 4.57174 -0.274934 0
M  V30 2807 N 271.557 4.62665 -0.222553 0
M  V30 2808 C 272.292 5.72072 -0.389985 0
M  V30 2809 N 271.788 6.90054 -0.616229 0
M  V30 2810 N 273.581 5.61153 -0.326202 0
M  V30 2811 H 265.732 1.8118 -1.10849 0
M  V30 2812 H 267.995 0.839525 -0.440342 0
M  V30 2813 H 267.701 3.34497 -1.0865 0
M  V30 2814 H 267.575 3.72019 0.623037 0
M  V30 2815 H 269.962 2.78895 0.96444 0
M  V30 2816 H 270.043 2.43989 -0.768309 0
M  V30 2817 H 269.687 4.91976 -1.26181 0
M  V30 2818 H 269.617 5.24328 0.48869 0
M  V30 2819 H 272.108 3.77863 -0.0531512 0
M  V30 2820 H 272.421 7.69311 -0.733559 0
M  V30 2821 H 270.766 6.91927 -0.652791 0
M  V30 2822 H 273.957 4.67859 -0.150072 0
M  V30 2823 H 274.13 6.46364 -0.460116 0
M  V30 2824 N 267.536 -0.106894 1.57237 0
M  V30 2825 C 268.446 -1.14911 2.0453 0
M  V30 2826 C 269.462 -1.44592 0.96795 0
M  V30 2827 O 270.638 -1.55468 1.2803 0
M  V30 2828 C 267.703 -2.45272 2.45036 0
M  V30 2829 C 266.764 -2.22879 3.66911 0
M  V30 2830 C 265.997 -3.47024 4.05475 0
M  V30 2831 O 266.22 -4.54804 3.44252 0
M  V30 2832 O 265.154 -3.3731 4.98504 0
M  V30 2833 H 268.98 -0.777461 2.9358 0
M  V30 2834 H 266.565 -0.318563 1.45964 0
M  V30 2835 H 268.447 -3.22055 2.71769 0
M  V30 2836 H 267.122 -2.81886 1.59129 0
M  V30 2837 H 266.029 -1.43915 3.45311 0
M  V30 2838 H 267.362 -1.91163 4.53561 0
M  V30 2839 N 269.014 -1.53014 -0.377408 0
M  V30 2840 C 270.244 -1.72265 -1.14054 0
M  V30 2841 C 270.652 -0.44601 -1.83868 0
M  V30 2842 O 269.995 0.590095 -1.73964 0
M  V30 2843 C 270.057 -2.82492 -2.22348 0
M  V30 2844 C 269.721 -4.23233 -1.72402 0
M  V30 2845 C 270.718 -5.05992 -1.19448 0
M  V30 2846 C 268.403 -4.696 -1.78273 0
M  V30 2847 C 270.397 -6.33203 -0.730268 0
M  V30 2848 C 268.084 -5.96792 -1.31464 0
M  V30 2849 C 269.082 -6.78424 -0.789297 0
M  V30 2850 O 268.77 -8.0323 -0.328077 0
M  V30 2851 H 268.502 -0.579873 -0.347453 0
M  V30 2852 H 271.056 -2.00502 -0.445882 0
M  V30 2853 H 269.286 -2.49702 -2.95272 0
M  V30 2854 H 270.975 -2.90034 -2.83963 0
M  V30 2855 H 271.741 -4.71349 -1.14259 0
M  V30 2856 H 267.62 -4.06142 -2.18106 0
M  V30 2857 H 271.164 -6.96868 -0.319542 0
M  V30 2858 H 267.061 -6.30937 -1.36342 0
M  V30 2859 H 267.829 -8.1727 -0.448493 0
M  V30 2860 N 270.492 0.636531 -1.44174 0
M  V30 2861 C 271.422 1.76003 -1.53444 0
M  V30 2862 C 272.403 1.65619 -0.387841 0
M  V30 2863 O 273.588 1.84461 -0.607257 0
M  V30 2864 C 270.718 3.14511 -1.4731 0
M  V30 2865 C 269.672 3.39677 -2.60391 0
M  V30 2866 C 268.998 4.78159 -2.39308 0
M  V30 2867 C 270.298 3.32772 -4.02567 0
M  V30 2868 H 271.992 1.68501 -2.47483 0
M  V30 2869 H 269.538 0.809237 -1.19111 0
M  V30 2870 H 271.491 3.92878 -1.52397 0
M  V30 2871 H 270.215 3.22783 -0.49785 0
M  V30 2872 H 268.874 2.63688 -2.54684 0
M  V30 2873 H 268.522 4.83128 -1.39988 0
M  V30 2874 H 268.222 4.95956 -3.15122 0
M  V30 2875 H 269.746 5.58762 -2.46205 0
M  V30 2876 H 271.16 4.01051 -4.09672 0
M  V30 2877 H 269.557 3.62104 -4.7854 0
M  V30 2878 H 270.627 2.30669 -4.2652 0
M  V30 2879 N 271.97 1.30982 0.876444 0
M  V30 2880 C 273.386 1.09498 1.16113 0
M  V30 2881 C 273.586 -0.13875 2.01022 0
M  V30 2882 O 272.642 -0.829935 2.38471 0
M  V30 2883 C 273.955 2.36308 1.85954 0
M  V30 2884 C 275.503 2.41856 1.98683 0
M  V30 2885 C 275.978 3.6853 2.71937 0
M  V30 2886 N 277.469 3.69387 2.79477 0
M  V30 2887 C 278.204 4.64096 3.36753 0
M  V30 2888 N 277.7 5.69155 3.95012 0
M  V30 2889 N 279.493 4.51626 3.3465 0
M  V30 2890 H 271.644 2.10118 0.310494 0
M  V30 2891 H 273.907 0.926634 0.200131 0
M  V30 2892 H 273.613 3.26388 1.31011 0
M  V30 2893 H 273.487 2.4561 2.86278 0
M  V30 2894 H 275.874 1.52249 2.52793 0
M  V30 2895 H 275.955 2.36523 0.9742 0
M  V30 2896 H 275.599 4.58499 2.18496 0
M  V30 2897 H 275.529 3.71127 3.73593 0
M  V30 2898 H 278.02 2.93438 2.38123 0
M  V30 2899 H 278.333 6.3751 4.36808 0
M  V30 2900 H 276.678 5.72937 3.93406 0
M  V30 2901 H 279.869 3.68728 2.8837 0
M  V30 2902 H 280.042 5.25614 3.7899 0
M  V30 2903 N 273.449 -1.08991 1.13837 0
M  V30 2904 C 274.396 -2.15748 0.819835 0
M  V30 2905 C 275.366 -1.64636 -0.220026 0
M  V30 2906 O 276.551 -1.90582 -0.0912757 0
M  V30 2907 C 273.691 -3.4382 0.296913 0
M  V30 2908 C 272.804 -4.0881 1.39636 0
M  V30 2909 C 271.939 -5.24655 0.831314 0
M  V30 2910 C 270.978 -5.81575 1.90886 0
M  V30 2911 N 270.115 -6.88774 1.36142 0
M  V30 2912 H 274.955 -2.42338 1.73426 0
M  V30 2913 H 272.492 -1.18935 0.865613 0
M  V30 2914 H 274.45 -4.17193 -0.0244339 0
M  V30 2915 H 273.08 -3.17535 -0.580628 0
M  V30 2916 H 272.132 -3.33258 1.83422 0
M  V30 2917 H 273.444 -4.47141 2.21058 0
M  V30 2918 H 272.598 -6.04942 0.461515 0
M  V30 2919 H 271.337 -4.87698 -0.013932 0
M  V30 2920 H 270.342 -4.99946 2.28767 0
M  V30 2921 H 271.567 -6.20592 2.75758 0
M  V30 2922 H 269.513 -6.53788 0.538254 0
M  V30 2923 H 269.43 -7.25898 2.11208 0
M  V30 2924 H 270.698 -7.72806 1.01933 0
M  V30 2925 N 274.927 -0.932562 -1.27047 0
M  V30 2926 C 275.874 -0.434072 -2.26681 0
M  V30 2927 C 276.844 0.501639 -1.58344 0
M  V30 2928 O 278.029 0.419734 -1.86126 0
M  V30 2929 C 275.169 0.30261 -3.43771 0
M  V30 2930 C 274.282 -0.667774 -4.26808 0
M  V30 2931 C 273.417 0.0892393 -5.31125 0
M  V30 2932 C 272.456 -0.873532 -6.05835 0
M  V30 2933 N 271.593 -0.148832 -7.01942 0
M  V30 2934 H 276.433 -1.28868 -2.68695 0
M  V30 2935 H 273.97 -0.646713 -1.32121 0
M  V30 2936 H 275.928 0.746092 -4.10474 0
M  V30 2937 H 274.558 1.12142 -3.02695 0
M  V30 2938 H 273.61 -1.22978 -3.59973 0
M  V30 2939 H 274.922 -1.40337 -4.78651 0
M  V30 2940 H 274.076 0.592409 -6.03801 0
M  V30 2941 H 272.815 0.85777 -4.80097 0
M  V30 2942 H 271.82 -1.38791 -5.31994 0
M  V30 2943 H 273.045 -1.64193 -6.58952 0
M  V30 2944 H 270.991 0.601365 -6.53238 0
M  V30 2945 H 270.908 -0.82391 -7.51497 0
M  V30 2946 H 272.176 0.333527 -7.78786 0
M  V30 2947 N 276.405 1.4127 -0.698611 0
M  V30 2948 C 277.353 2.32588 -0.023855 0
M  V30 2949 C 278.347 1.51128 0.765292 0
M  V30 2950 O 279.553 1.67043 0.670571 0
M  V30 2951 H 275.928 0.751918 0.0110871 0
M  V30 2952 H 277.899 2.87167 -0.811031 0
M  V30 2953 C 276.648 3.35947 0.896369 0
M  V30 2954 H 275.971 3.98684 0.298548 0
M  V30 2955 H 277.411 4.02376 1.33676 0
M  V30 2956 C 275.87 2.70076 2.01396 0
M  V30 2957 O 276.4 2.55093 3.10307 0
M  V30 2958 N 274.606 2.28724 1.79259 0
M  V30 2959 H 274.153 2.4111 0.906841 0
M  V30 2960 H 274.111 1.84986 2.54219 0
M  V30 2961 N 277.883 0.443576 1.51229 0
M  V30 2962 C 278.793 -0.370721 2.31652 0
M  V30 2963 C 279.809 -1.02186 1.40833 0
M  V30 2964 O 280.985 -1.01586 1.73903 0
M  V30 2965 C 278.05 -1.45376 3.14749 0
M  V30 2966 C 277.111 -0.822099 4.21355 0
M  V30 2967 C 276.344 -1.85353 5.0048 0
M  V30 2968 O 276.567 -3.07656 4.80316 0
M  V30 2969 O 275.501 -1.4406 5.84406 0
M  V30 2970 H 279.327 0.286002 3.0235 0
M  V30 2971 H 276.912 0.20598 1.47973 0
M  V30 2972 H 278.794 -2.08173 3.66391 0
M  V30 2973 H 277.469 -2.09445 2.46809 0
M  V30 2974 H 276.376 -0.155909 3.73775 0
M  V30 2975 H 277.709 -0.224797 4.91686 0
M  V30 2976 N 279.361 -1.56624 0.175154 0
M  V30 2977 C 280.271 -2.21741 -0.766042 0
M  V30 2978 C 281.287 -1.21023 -1.25018 0
M  V30 2979 O 282.463 -1.53697 -1.3015 0
M  V30 2980 C 279.528 -2.84839 -1.97655 0
M  V30 2981 C 278.589 -4.00769 -1.53892 0
M  V30 2982 C 277.822 -4.60849 -2.69173 0
M  V30 2983 O 278.045 -4.19823 -3.86141 0
M  V30 2984 O 276.979 -5.50655 -2.43028 0
M  V30 2985 H 280.805 -3.02738 -0.241585 0
M  V30 2986 H 278.39 -1.49305 -0.053222 0
M  V30 2987 H 280.272 -3.24834 -2.68442 0
M  V30 2988 H 278.947 -2.06836 -2.48999 0
M  V30 2989 H 277.854 -3.65436 -0.80044 0
M  V30 2990 H 279.187 -4.80376 -1.07236 0
M  V30 2991 N 280.839 0.0985539 -1.57292 0
M  V30 2992 C 281.769 1.12064 -2.04851 0
M  V30 2993 C 282.75 1.41981 -0.936767 0
M  V30 2994 O 283.935 1.52071 -1.20781 0
M  V30 2995 C 281.065 2.44144 -2.47004 0
M  V30 2996 C 280.019 2.28643 -3.6181 0
M  V30 2997 C 279.345 3.65869 -3.89929 0
M  V30 2998 C 280.645 1.72986 -4.92822 0
M  V30 2999 H 282.339 0.724979 -2.9049 0
M  V30 3000 H 279.885 0.34729 -1.39749 0
M  V30 3001 H 281.838 3.15914 -2.78884 0
M  V30 3002 H 280.562 2.85639 -1.5836 0
M  V30 3003 H 279.221 1.59318 -3.30172 0
M  V30 3004 H 278.869 4.04885 -2.98458 0
M  V30 3005 H 278.569 3.56344 -4.67218 0
M  V30 3006 H 280.093 4.39112 -4.2428 0
M  V30 3007 H 281.507 2.34593 -5.23105 0
M  V30 3008 H 279.904 1.74229 -5.74251 0
M  V30 3009 H 280.974 0.689007 -4.7998 0
M  V30 3010 N 282.317 1.53212 0.369288 0
M  V30 3011 C 283.227 1.82342 1.47609 0
M  V30 3012 C 284.243 0.711532 1.58787 0
M  V30 3013 O 285.419 1.0012 1.74751 0
M  V30 3014 C 282.484 2.00393 2.8292 0
M  V30 3015 C 281.545 3.24297 2.81301 0
M  V30 3016 C 280.778 3.41478 4.10157 0
M  V30 3017 O 281.001 2.63033 5.06132 0
M  V30 3018 O 279.935 4.34817 4.16194 0
M  V30 3019 H 283.761 2.76366 1.25918 0
M  V30 3020 H 281.346 1.38547 0.559034 0
M  V30 3021 H 283.228 2.13859 3.63101 0
M  V30 3022 H 281.903 1.09559 3.04596 0
M  V30 3023 H 280.81 3.16257 1.99831 0
M  V30 3024 H 282.143 4.15041 2.64578 0
M  V30 3025 N 283.795 -0.628877 1.44509 0
M  V30 3026 C 284.727 -1.754 1.47538 0
M  V30 3027 C 285.74 -1.58575 0.368506 0
M  V30 3028 O 286.929 -1.66847 0.634376 0
M  V30 3029 C 284.029 -3.1315 1.29577 0
M  V30 3030 C 283.202 -3.56413 2.53551 0
M  V30 3031 C 282.261 -4.7305 2.30457 0
M  V30 3032 O 281.287 -4.81247 3.03957 0
M  V30 3033 N 282.489 -5.64903 1.3366 0
M  V30 3034 H 285.254 -1.73272 2.44534 0
M  V30 3035 H 282.815 -0.813512 1.39977 0
M  V30 3036 H 284.807 -3.88902 1.11971 0
M  V30 3037 H 283.377 -3.09908 0.409371 0
M  V30 3038 H 282.597 -2.70847 2.86419 0
M  V30 3039 H 283.885 -3.82071 3.36005 0
M  V30 3040 H 283.283 -5.60975 0.729604 0
M  V30 3041 H 281.84 -6.40275 1.22032 0
M  V30 3042 N 285.273 -1.31445 -0.869486 0
M  V30 3043 C 286.203 -1.21727 -1.99261 0
M  V30 3044 C 287.184 -0.104359 -1.6978 0
M  V30 3045 O 288.369 -0.289038 -1.92037 0
M  V30 3046 C 285.499 -0.924317 -3.34774 0
M  V30 3047 C 284.453 -1.99685 -3.78563 0
M  V30 3048 C 283.779 -1.55658 -5.11541 0
M  V30 3049 C 285.079 -3.41003 -3.95619 0
M  V30 3050 H 286.773 -2.1569 -2.07649 0
M  V30 3051 H 284.319 -1.03839 -0.997675 0
M  V30 3052 H 286.272 -0.842934 -4.12883 0
M  V30 3053 H 284.996 0.0509793 -3.2656 0
M  V30 3054 H 283.655 -2.06813 -3.02694 0
M  V30 3055 H 283.303 -0.569132 -4.9977 0
M  V30 3056 H 283.003 -2.27409 -5.41811 0
M  V30 3057 H 284.527 -1.48928 -5.92159 0
M  V30 3058 H 285.941 -3.36547 -4.64122 0
M  V30 3059 H 284.338 -4.10975 -4.37286 0
M  V30 3060 H 285.408 -3.81754 -2.98985 0
M  V30 3061 N 286.751 1.08385 -1.14413 0
M  V30 3062 C 287.981 1.8425 -0.934644 0
M  V30 3063 C 288.389 1.81907 0.520234 0
M  V30 3064 O 287.732 1.22126 1.37226 0
M  V30 3065 C 287.794 3.32853 -1.35828 0
M  V30 3066 C 287.458 3.5893 -2.82875 0
M  V30 3067 C 288.455 3.53756 -3.80989 0
M  V30 3068 C 286.14 3.86934 -3.20293 0
M  V30 3069 C 288.134 3.76216 -5.14529 0
M  V30 3070 C 285.821 4.09047 -4.54008 0
M  V30 3071 C 286.819 4.03682 -5.50936 0
M  V30 3072 O 286.507 4.25214 -6.82238 0
M  V30 3073 H 286.239 0.588502 -0.332628 0
M  V30 3074 H 288.793 1.37792 -1.52324 0
M  V30 3075 H 287.023 3.8007 -0.713019 0
M  V30 3076 H 288.712 3.90154 -1.11957 0
M  V30 3077 H 289.478 3.32135 -3.53428 0
M  V30 3078 H 285.357 3.9023 -2.45442 0
M  V30 3079 H 288.901 3.71943 -5.90173 0
M  V30 3080 H 284.798 4.30151 -4.8129 0
M  V30 3081 H 285.566 4.42619 -6.88499 0
M  V30 3082 N 288.23 0.939286 1.26551 0
M  V30 3083 C 289.162 0.404704 2.25599 0
M  V30 3084 C 290.175 -0.470983 1.55838 0
M  V30 3085 O 291.364 -0.281734 1.76263 0
M  V30 3086 C 288.464 -0.43764 3.36062 0
M  V30 3087 C 287.637 0.421449 4.35365 0
M  V30 3088 C 286.696 -0.36015 5.24966 0
M  V30 3089 O 285.722 0.236167 5.6871 0
M  V30 3090 N 286.924 -1.65715 5.56344 0
M  V30 3091 H 289.689 1.25618 2.72103 0
M  V30 3092 H 287.25 0.807963 1.40298 0
M  V30 3093 H 289.242 -0.967866 3.92956 0
M  V30 3094 H 287.812 -1.18991 2.89067 0
M  V30 3095 H 287.032 1.1329 3.7757 0
M  V30 3096 H 288.32 1.00835 4.98708 0
M  V30 3097 H 287.718 -2.16378 5.22682 0
M  V30 3098 H 286.275 -2.13366 6.15888 0
M  V30 3099 N 289.708 -1.40897 0.706093 0
M  V30 3100 C 290.985 -1.94868 0.169099 0
M  V30 3101 C 291.365 -1.64485 -1.32318 0
M  V30 3102 O 290.713 -0.95744 -2.07474 0
M  V30 3103 C 290.923 -3.45798 0.471654 0
M  V30 3104 C 292.271 -4.22663 0.405127 0
M  V30 3105 O 293.295 -3.53865 0.407168 0
M  V30 3106 O 292.154 -5.45216 0.374383 0
M  V30 3107 H 289.248 -0.82673 0.0211352 0
M  V30 3108 H 291.794 -1.50558 0.782976 0
M  V30 3109 H 290.566 -3.61235 1.50416 0
M  V30 3110 H 290.189 -3.97225 -0.172666 0
M  V30 3111 N 291.186 -0.45159 -1.50991 0
M  V30 3112 C 292.118 0.388634 -2.25881 0
M  V30 3113 C 293.131 0.974041 -1.30446 0
M  V30 3114 O 294.32 0.865758 -1.56099 0
M  V30 3115 C 291.42 1.5571 -3.01011 0
M  V30 3116 C 290.593 1.08801 -4.23652 0
M  V30 3117 C 289.652 2.12825 -4.8124 0
M  V30 3118 O 288.678 1.71678 -5.42693 0
M  V30 3119 N 289.88 3.45453 -4.66522 0
M  V30 3120 H 292.645 -0.25329 -2.98628 0
M  V30 3121 H 290.206 -0.281268 -1.59438 0
M  V30 3122 H 292.198 2.24952 -3.3642 0
M  V30 3123 H 290.768 2.10409 -2.31186 0
M  V30 3124 H 289.988 0.22215 -3.93574 0
M  V30 3125 H 291.276 0.752213 -5.03209 0
M  V30 3126 H 290.674 3.81605 -4.17605 0
M  V30 3127 H 289.231 4.10549 -5.06254 0
M  V30 3128 N 292.664 1.56529 -0.183458 0
M  V30 3129 C 293.574 2.22144 0.754272 0
M  V30 3130 C 294.59 1.21684 1.24374 0
M  V30 3131 O 295.766 1.54385 1.29333 0
M  V30 3132 C 292.831 2.85884 1.96141 0
M  V30 3133 C 291.892 4.01579 1.51765 0
M  V30 3134 C 291.125 4.6227 2.66725 0
M  V30 3135 O 291.348 4.21865 3.83909 0
M  V30 3136 O 290.282 5.51936 2.40104 0
M  V30 3137 H 294.108 3.02861 0.225527 0
M  V30 3138 H 291.693 1.49331 0.0453032 0
M  V30 3139 H 293.575 3.26253 2.66715 0
M  V30 3140 H 292.25 2.08154 2.47899 0
M  V30 3141 H 291.157 3.65856 0.781049 0
M  V30 3142 H 292.49 4.80938 1.04686 0
M  V30 3143 N 294.142 -0.090211 1.57342 0
M  V30 3144 C 295.388 -0.793982 1.86611 0
M  V30 3145 C 295.721 -1.78142 0.773252 0
M  V30 3146 O 294.996 -1.93271 -0.218304 0
M  V30 3147 C 295.279 -1.51839 3.26523 0
M  V30 3148 C 295.132 -0.548609 4.46442 0
M  V30 3149 C 296.451 -2.46779 3.64401 0
M  V30 3150 H 293.57 -0.287186 0.678744 0
M  V30 3151 H 296.212 -0.0575076 1.89913 0
M  V30 3152 H 294.362 -2.14617 3.23839 0
M  V30 3153 H 296.034 0.0725513 4.61243 0
M  V30 3154 H 294.277 0.137614 4.33582 0
M  V30 3155 H 294.948 -1.09271 5.41076 0
M  V30 3156 H 297.424 -1.94089 3.68061 0
M  V30 3157 H 296.3 -2.94479 4.63221 0
M  V30 3158 H 296.561 -3.30758 2.93346 0
M  V30 3159 N 295.62 -1.53406 -0.361157 0
M  V30 3160 C 297.031 -1.61442 -0.937728 0
M  V30 3161 C 297.382 -0.48461 -1.90121 0
M  V30 3162 O 296.507 0.388312 -2.12888 0
M  V30 3163 C 297.102 -2.92624 -1.70753 0
M  V30 3164 C 295.661 -3.02981 -2.23337 0
M  V30 3165 C 294.808 -2.5677 -1.04712 0
M  V30 3166 H 297.759 -1.58083 -0.139816 0
M  V30 3167 H 297.78 -2.80675 -2.56908 0
M  V30 3168 H 297.292 -3.74834 -1.00604 0
M  V30 3169 H 295.393 -2.25368 -2.96715 0
M  V30 3170 H 295.506 -4.0814 -2.50916 0
M  V30 3171 H 293.87 -2.11752 -1.41539 0
M  V30 3172 H 294.653 -3.41402 -0.360539 0
M  V30 3173 N 297.098 0.621204 -1.44841 0
M  V30 3174 C 298.045 1.73267 -1.5247 0
M  V30 3175 C 299.015 1.6189 -0.371611 0
M  V30 3176 O 300.2 1.81668 -0.58321 0
M  V30 3177 C 297.34 3.11545 -1.48438 0
M  V30 3178 C 296.453 3.33827 -2.74196 0
M  V30 3179 C 295.588 4.62133 -2.61929 0
M  V30 3180 C 294.627 4.77627 -3.82804 0
M  V30 3181 N 293.764 5.97219 -3.69153 0
M  V30 3182 H 298.604 1.66082 -2.47428 0
M  V30 3183 H 296.141 0.810026 -1.22788 0
M  V30 3184 H 298.099 3.91528 -1.4409 0
M  V30 3185 H 296.729 3.1772 -0.570402 0
M  V30 3186 H 295.781 2.47715 -2.88689 0
M  V30 3187 H 297.093 3.41153 -3.6389 0
M  V30 3188 H 296.247 5.50291 -2.5547 0
M  V30 3189 H 294.986 4.57182 -1.69811 0
M  V30 3190 H 293.991 3.87896 -3.89637 0
M  V30 3191 H 295.216 4.84385 -4.75971 0
M  V30 3192 H 293.162 5.93339 -2.79794 0
M  V30 3193 H 293.079 6.05644 -4.52472 0
M  V30 3194 H 294.347 6.87912 -3.66603 0
M  V30 3195 N 298.576 1.31904 0.862503 0
M  V30 3196 C 299.987 1.19803 1.43193 0
M  V30 3197 C 300.338 -0.192567 1.95253 0
M  V30 3198 O 299.463 -1.09081 1.86896 0
M  V30 3199 C 300.058 2.16883 2.60283 0
M  V30 3200 C 298.617 2.08692 3.13248 0
M  V30 3201 C 297.764 2.05691 1.85975 0
M  V30 3202 H 300.715 1.43846 0.670365 0
M  V30 3203 H 300.736 1.76278 3.37204 0
M  V30 3204 H 300.248 3.18083 2.22363 0
M  V30 3205 H 298.349 1.10713 3.55771 0
M  V30 3206 H 298.462 2.9815 3.75025 0
M  V30 3207 H 296.826 1.50814 2.05249 0
M  V30 3208 H 297.609 3.08659 1.50282 0
M  V30 3209 N 300.054 -1.07777 1.14986 0
M  V30 3210 C 301.001 -2.14867 0.842672 0
M  V30 3211 C 301.971 -1.6486 -0.202552 0
M  V30 3212 O 303.156 -1.90668 -0.0710568 0
M  V30 3213 C 300.296 -3.43486 0.333363 0
M  V30 3214 C 299.409 -4.07306 1.43965 0
M  V30 3215 C 298.544 -5.23744 0.886914 0
M  V30 3216 C 297.583 -5.79517 1.97043 0
M  V30 3217 N 296.72 -6.87291 1.4344 0
M  V30 3218 H 301.56 -2.40485 1.75986 0
M  V30 3219 H 299.097 -1.1801 0.878179 0
M  V30 3220 H 301.055 -4.17195 0.0198163 0
M  V30 3221 H 299.685 -3.18133 -0.546916 0
M  V30 3222 H 298.737 -3.31293 1.86946 0
M  V30 3223 H 300.049 -4.44771 2.25788 0
M  V30 3224 H 299.203 -6.04419 0.525651 0
M  V30 3225 H 297.942 -4.87685 0.0377957 0
M  V30 3226 H 296.947 -4.97491 2.34057 0
M  V30 3227 H 298.172 -6.17632 2.82325 0
M  V30 3228 H 296.118 -6.5318 0.607567 0
M  V30 3229 H 296.035 -7.23617 2.18895 0
M  V30 3230 H 297.303 -7.71682 1.10124 0
M  V30 3231 N 301.532 -0.945985 -1.26051 0
M  V30 3232 C 302.757 -0.612525 -1.98149 0
M  V30 3233 C 303.182 0.806623 -1.69927 0
M  V30 3234 O 302.54 1.54411 -0.950108 0
M  V30 3235 C 302.588 -0.866981 -3.50023 0
M  V30 3236 O 301.692 0.0585333 -4.12358 0
M  V30 3237 H 301.033 -0.23379 -0.621481 0
M  V30 3238 H 303.563 -1.27023 -1.60395 0
M  V30 3239 H 303.573 -0.789792 -4.00283 0
M  V30 3240 H 302.248 -1.90135 -3.69894 0
M  V30 3241 H 300.825 -0.0701241 -3.72834 0
M  V30 3242 N 303.011 1.40521 -0.713556 0
M  V30 3243 C 304.257 2.01714 -0.261382 0
M  V30 3244 C 304.612 1.55562 1.13217 0
M  V30 3245 O 303.905 0.764893 1.7567 0
M  V30 3246 C 304.099 3.56317 -0.278 0
M  V30 3247 C 303.928 4.17476 -1.67163 0
M  V30 3248 C 302.698 4.50998 -2.2788 0
M  V30 3249 C 304.896 4.42472 -2.6215 0
M  V30 3250 N 302.878 4.9754 -3.5962 0
M  V30 3251 C 304.249 4.90985 -3.78594 0
M  V30 3252 C 306.304 4.24508 -2.60188 0
M  V30 3253 C 305.007 5.2342 -4.9338 0
M  V30 3254 C 307.033 4.58043 -3.741 0
M  V30 3255 C 306.395 5.06743 -4.89276 0
M  V30 3256 H 302.494 0.769104 -0.141434 0
M  V30 3257 H 305.078 1.70785 -0.934915 0
M  V30 3258 H 303.249 3.8668 0.36509 0
M  V30 3259 H 304.981 4.0425 0.190695 0
M  V30 3260 H 301.736 4.38062 -1.79997 0
M  V30 3261 H 302.16 5.25196 -4.27198 0
M  V30 3262 H 306.802 3.86078 -1.72348 0
M  V30 3263 H 304.52 5.60765 -5.81866 0
M  V30 3264 H 308.106 4.45785 -3.73854 0
M  V30 3265 H 306.986 5.32204 -5.75959 0
M  V30 3266 N 304.489 0.459591 1.5075 0
M  V30 3267 C 305.737 -0.0991532 2.01857 0
M  V30 3268 C 306.058 -1.41247 1.34441 0
M  V30 3269 O 305.328 -1.89775 0.486022 0
M  V30 3270 H 303.908 -0.039633 0.745948 0
M  V30 3271 H 306.57 0.607387 1.85194 0
M  V30 3272 H 305.666 -0.258998 3.11023 0
M  V30 3273 N 305.967 -1.56429 0.191757 0
M  V30 3274 C 307.215 -1.97095 -0.447006 0
M  V30 3275 C 307.536 -1.07967 -1.62383 0
M  V30 3276 O 306.806 -0.150248 -1.95323 0
M  V30 3277 H 305.386 -0.727832 -0.168135 0
M  V30 3278 H 308.048 -1.92911 0.27771 0
M  V30 3279 H 307.144 -3.01848 -0.793371 0
M  V30 3280 N 307.445 0.0818655 -1.57387 0
M  V30 3281 C 308.675 0.794954 -1.90694 0
M  V30 3282 C 309.083 1.72147 -0.784982 0
M  V30 3283 O 308.426 1.81974 0.251196 0
M  V30 3284 C 308.488 1.65042 -3.19376 0
M  V30 3285 C 308.152 0.894337 -4.48164 0
M  V30 3286 C 309.149 0.21813 -5.19442 0
M  V30 3287 C 306.834 0.864495 -4.94805 0
M  V30 3288 C 308.828 -0.477802 -6.35607 0
M  V30 3289 C 306.515 0.164785 -6.10878 0
M  V30 3290 C 307.513 -0.505173 -6.81129 0
M  V30 3291 O 307.201 -1.19363 -7.94989 0
M  V30 3292 H 306.933 0.231779 -0.635023 0
M  V30 3293 H 309.487 0.059493 -2.05314 0
M  V30 3294 H 307.717 2.42844 -3.00938 0
M  V30 3295 H 309.406 2.24127 -3.38411 0
M  V30 3296 H 310.172 0.232558 -4.84442 0
M  V30 3297 H 306.051 1.37542 -4.40004 0
M  V30 3298 H 309.595 -1.00129 -6.90377 0
M  V30 3299 H 305.492 0.148249 -6.4533 0
M  V30 3300 H 306.26 -1.10188 -8.11049 0
M  V30 3301 N 308.923 1.53595 0.353017 0
M  V30 3302 C 310.169 1.70638 1.09593 0
M  V30 3303 C 310.502 0.463286 1.88593 0
M  V30 3304 O 309.777 -0.539597 1.86865 0
M  V30 3305 C 310.06 2.96406 2.04489 0
M  V30 3306 C 309.913 4.30901 1.29014 0
M  V30 3307 C 311.232 3.17812 3.0444 0
M  V30 3308 H 308.351 0.620913 0.397034 0
M  V30 3309 H 310.993 1.86254 0.375446 0
M  V30 3310 H 309.143 2.83223 2.65927 0
M  V30 3311 H 310.815 4.55917 0.702638 0
M  V30 3312 H 309.058 4.29741 0.592071 0
M  V30 3313 H 309.729 5.1506 1.98537 0
M  V30 3314 H 312.205 3.30263 2.53112 0
M  V30 3315 H 311.081 4.07223 3.6805 0
M  V30 3316 H 311.342 2.33669 3.75301 0
M  V30 3317 N 310.401 -0.613514 1.45168 0
M  V30 3318 C 311.331 -1.7354 1.56225 0
M  V30 3319 C 312.312 -1.64981 0.41414 0
M  V30 3320 O 313.497 -1.83472 0.636526 0
M  V30 3321 C 310.627 -3.12128 1.52295 0
M  V30 3322 C 309.581 -3.35491 2.65762 0
M  V30 3323 C 308.907 -4.74291 2.46885 0
M  V30 3324 C 310.207 -3.26325 4.0781 0
M  V30 3325 H 311.901 -1.64543 2.50132 0
M  V30 3326 H 309.447 -0.790185 1.20383 0
M  V30 3327 H 311.4 -3.90404 1.58628 0
M  V30 3328 H 310.124 -3.2195 0.549139 0
M  V30 3329 H 308.783 -2.59603 2.58847 0
M  V30 3330 H 308.431 -4.80839 1.47657 0
M  V30 3331 H 308.131 -4.9088 3.22972 0
M  V30 3332 H 309.655 -5.54775 2.55063 0
M  V30 3333 H 311.069 -3.94483 4.16 0
M  V30 3334 H 309.466 -3.54445 4.8424 0
M  V30 3335 H 310.536 -2.23855 4.30136 0
M  V30 3336 N 311.879 -1.3236 -0.855495 0
M  V30 3337 C 313.109 -1.25688 -1.6397 0
M  V30 3338 C 313.517 0.177592 -1.88365 0
M  V30 3339 O 312.86 1.12485 -1.45234 0
M  V30 3340 C 312.922 -1.94602 -3.02275 0
M  V30 3341 C 312.586 -3.43937 -3.00926 0
M  V30 3342 C 313.583 -4.39435 -2.77835 0
M  V30 3343 C 311.268 -3.85858 -3.21588 0
M  V30 3344 C 313.262 -5.74829 -2.75409 0
M  V30 3345 C 310.949 -5.21361 -3.18789 0
M  V30 3346 C 311.947 -6.15658 -2.95727 0
M  V30 3347 O 311.635 -7.48681 -2.928 0
M  V30 3348 H 311.367 -0.434972 -0.51747 0
M  V30 3349 H 313.921 -1.75023 -1.075 0
M  V30 3350 H 312.151 -1.39836 -3.60531 0
M  V30 3351 H 313.84 -1.81651 -3.62985 0
M  V30 3352 H 314.606 -4.08374 -2.6164 0
M  V30 3353 H 310.485 -3.12883 -3.38564 0
M  V30 3354 H 314.029 -6.48404 -2.57328 0
M  V30 3355 H 309.926 -5.52052 -3.34528 0
M  V30 3356 H 310.694 -7.5803 -3.0876 0
M  V30 3357 N 313.357 1.07166 -1.15556 0
M  V30 3358 C 314.768 1.6127 -0.940693 0
M  V30 3359 C 315.119 1.89251 0.517551 0
M  V30 3360 O 314.244 1.65937 1.38903 0
M  V30 3361 C 314.839 2.92993 -1.7012 0
M  V30 3362 C 313.398 3.43832 -1.53156 0
M  V30 3363 C 312.545 2.1786 -1.71558 0
M  V30 3364 H 315.496 0.90229 -1.30554 0
M  V30 3365 H 315.517 3.62007 -1.17181 0
M  V30 3366 H 315.029 2.72596 -2.76248 0
M  V30 3367 H 313.13 3.69307 -0.494294 0
M  V30 3368 H 313.243 4.19747 -2.30975 0
M  V30 3369 H 311.607 2.2765 -1.14225 0
M  V30 3370 H 312.39 1.99956 -2.79056 0
M  V30 3371 N 314.835 0.952656 1.25548 0
M  V30 3372 C 315.767 0.428609 2.25157 0
M  V30 3373 C 316.78 -0.454428 1.56329 0
M  V30 3374 O 317.969 -0.263023 1.76552 0
M  V30 3375 C 315.069 -0.401972 3.36508 0
M  V30 3376 C 314.242 0.467601 4.34893 0
M  V30 3377 C 313.301 -0.30445 5.25319 0
M  V30 3378 O 312.327 0.296473 5.68427 0
M  V30 3379 N 313.529 -1.59805 5.5807 0
M  V30 3380 H 316.294 1.28497 2.70756 0
M  V30 3381 H 313.855 0.822798 1.39433 0
M  V30 3382 H 315.847 -0.926134 3.9396 0
M  V30 3383 H 314.417 -1.15918 2.90313 0
M  V30 3384 H 313.637 1.17288 3.76347 0
M  V30 3385 H 314.925 1.06119 4.97611 0
M  V30 3386 H 314.323 -2.10823 5.24948 0
M  V30 3387 H 312.88 -2.06822 6.18116 0
M  V30 3388 N 316.313 -1.40141 0.720998 0
M  V30 3389 C 317.559 -2.01084 0.263231 0
M  V30 3390 C 317.892 -1.57052 -1.14229 0
M  V30 3391 O 317.167 -0.793027 -1.77599 0
M  V30 3392 C 317.45 -3.58401 0.349344 0
M  V30 3393 C 317.303 -4.12491 1.79363 0
M  V30 3394 C 318.622 -4.39231 -0.276351 0
M  V30 3395 H 315.741 -0.730572 0.0971228 0
M  V30 3396 H 318.383 -1.66543 0.914518 0
M  V30 3397 H 316.533 -3.87958 -0.205165 0
M  V30 3398 H 318.205 -3.93711 2.40394 0
M  V30 3399 H 316.448 -3.66576 2.31958 0
M  V30 3400 H 317.119 -5.21646 1.80524 0
M  V30 3401 H 319.595 -4.15637 0.196184 0
M  V30 3402 H 318.471 -5.48586 -0.185681 0
M  V30 3403 H 318.732 -4.20643 -1.36059 0
M  V30 3404 N 317.792 -0.46758 -1.50504 0
M  V30 3405 C 318.725 0.374324 -2.25109 0
M  V30 3406 C 319.703 0.99921 -1.28275 0
M  V30 3407 O 320.887 1.03583 -1.57489 0
M  V30 3408 C 318.014 1.52419 -3.02467 0
M  V30 3409 C 317.06 1.01702 -4.14197 0
M  V30 3410 S 317.893 -0.0654477 -5.3546 0
M  V30 3411 C 319.049 1.08837 -6.16365 0
M  V30 3412 H 319.282 -0.258983 -2.9617 0
M  V30 3413 H 316.815 -0.252421 -1.52323 0
M  V30 3414 H 318.773 2.18322 -3.47628 0
M  V30 3415 H 317.434 2.129 -2.30938 0
M  V30 3416 H 316.627 1.87776 -4.67714 0
M  V30 3417 H 316.229 0.435757 -3.71453 0
M  V30 3418 H 318.521 2.00071 -6.47285 0
M  V30 3419 H 319.464 0.592538 -7.05616 0
M  V30 3420 H 319.872 1.34061 -5.4835 0
M  V30 3421 N 319.27 1.56325 -0.20005 0
M  V30 3422 C 320.18 2.22931 0.730668 0
M  V30 3423 C 321.196 1.22997 1.23076 0
M  V30 3424 O 322.372 1.55748 1.27689 0
M  V30 3425 C 319.437 2.87948 1.93098 0
M  V30 3426 C 318.498 4.03166 1.47497 0
M  V30 3427 C 317.731 4.65073 2.61807 0
M  V30 3428 O 317.954 4.25913 3.79413 0
M  V30 3429 O 316.888 5.54452 2.34237 0
M  V30 3430 H 320.714 3.03084 0.193391 0
M  V30 3431 H 318.299 1.49371 0.0294621 0
M  V30 3432 H 320.181 3.29063 2.6324 0
M  V30 3433 H 318.856 2.10771 2.45677 0
M  V30 3434 H 317.763 3.66664 0.742201 0
M  V30 3435 H 319.096 4.82022 0.995796 0
M  V30 3436 N 320.748 -0.0735177 1.57428 0
M  V30 3437 C 321.995 -0.772999 1.87166 0
M  V30 3438 C 322.323 -1.77665 0.791551 0
M  V30 3439 O 321.578 -1.94541 -0.212636 0
M  V30 3440 C 321.877 -1.51799 3.23561 0
M  V30 3441 C 321.543 -0.654484 4.46125 0
M  V30 3442 C 320.205 -0.416511 4.79394 0
M  V30 3443 C 322.557 -0.0555862 5.2117 0
M  V30 3444 C 319.885 0.429869 5.85123 0
M  V30 3445 C 322.237 0.778239 6.27795 0
M  V30 3446 C 320.901 1.0261 6.59566 0
M  V30 3447 H 320.171 -0.282861 0.684888 0
M  V30 3448 H 322.818 -0.0338272 1.9147 0
M  V30 3449 H 321.123 -2.32932 3.1504 0
M  V30 3450 H 322.82 -2.06397 3.43804 0
M  V30 3451 H 319.41 -0.850091 4.20085 0
M  V30 3452 H 323.594 -0.226558 4.95783 0
M  V30 3453 H 318.85 0.630665 6.08139 0
M  V30 3454 H 323.024 1.24906 6.85107 0
M  V30 3455 H 320.651 1.68371 7.4132 0
M  V30 3456 N 322.226 -1.5378 -0.344866 0
M  V30 3457 C 323.472 -1.72158 -1.0832 0
M  V30 3458 C 323.827 -0.478218 -1.86362 0
M  V30 3459 O 323.12 0.529152 -1.84148 0
M  V30 3460 C 323.314 -2.92407 -2.05506 0
M  V30 3461 C 323.143 -4.28318 -1.37017 0
M  V30 3462 C 321.913 -4.92832 -1.11558 0
M  V30 3463 C 324.111 -5.08086 -0.797071 0
M  V30 3464 N 322.093 -6.12619 -0.396358 0
M  V30 3465 C 323.464 -6.1965 -0.208336 0
M  V30 3466 C 325.519 -4.92986 -0.697787 0
M  V30 3467 C 324.222 -7.17763 0.470023 0
M  V30 3468 C 326.248 -5.91391 -0.033171 0
M  V30 3469 C 325.61 -7.02292 0.544599 0
M  V30 3470 H 321.709 -0.683017 -0.380805 0
M  V30 3471 H 324.293 -1.91211 -0.366961 0
M  V30 3472 H 322.464 -2.74857 -2.74423 0
M  V30 3473 H 324.196 -2.9951 -2.72169 0
M  V30 3474 H 320.951 -4.52362 -1.40234 0
M  V30 3475 H 321.375 -6.7698 -0.0515119 0
M  V30 3476 H 326.017 -4.07414 -1.13022 0
M  V30 3477 H 323.735 -8.0291 0.914351 0
M  V30 3478 H 327.321 -5.81784 0.0430009 0
M  V30 3479 H 326.201 -7.77129 1.05073 0
M  V30 3480 N 323.704 0.605807 -1.45491 0
M  V30 3481 C 324.636 1.73031 -1.5031 0
M  V30 3482 C 325.649 1.57968 -0.393687 0
M  V30 3483 O 326.838 1.65817 -0.660839 0
M  V30 3484 C 323.938 3.11049 -1.34543 0
M  V30 3485 C 323.111 3.52334 -2.59189 0
M  V30 3486 C 322.17 4.69323 -2.37954 0
M  V30 3487 O 321.196 4.7635 -3.11575 0
M  V30 3488 N 322.398 5.62705 -1.4263 0
M  V30 3489 H 325.163 1.6936 -2.4726 0
M  V30 3490 H 322.724 0.79114 -1.41254 0
M  V30 3491 H 324.716 3.87071 -1.18144 0
M  V30 3492 H 323.286 3.09217 -0.458623 0
M  V30 3493 H 322.506 2.66256 -2.90691 0
M  V30 3494 H 323.794 3.76677 -3.42041 0
M  V30 3495 H 323.192 5.59744 -0.818758 0
M  V30 3496 H 321.749 6.38252 -1.32202 0
M  V30 3497 N 325.182 1.32811 0.848464 0
M  V30 3498 C 326.43 1.23479 1.59991 0
M  V30 3499 C 326.751 -0.201853 1.93952 0
M  V30 3500 O 326.021 -1.12818 1.60153 0
M  V30 3501 H 324.601 0.454034 0.593179 0
M  V30 3502 H 327.263 1.66412 1.01455 0
M  V30 3503 H 326.359 1.82178 2.53412 0
M  V30 3504 N 326.66 -1.06551 1.16123 0
M  V30 3505 C 327.592 -2.13908 0.823171 0
M  V30 3506 C 328.605 -1.61926 -0.16843 0
M  V30 3507 O 329.794 -1.78412 0.055962 0
M  V30 3508 C 326.894 -3.38283 0.204424 0
M  V30 3509 C 326.067 -4.19589 1.23548 0
M  V30 3510 C 325.126 -5.2233 0.637011 0
M  V30 3511 O 324.152 -5.54034 1.30516 0
M  V30 3512 N 325.354 -5.77621 -0.577474 0
M  V30 3513 H 328.119 -2.43508 1.74711 0
M  V30 3514 H 325.68 -1.2253 1.05821 0
M  V30 3515 H 327.672 -4.0416 -0.208909 0
M  V30 3516 H 326.242 -3.06329 -0.623012 0
M  V30 3517 H 325.462 -3.49406 1.82507 0
M  V30 3518 H 326.75 -4.70718 1.93137 0
M  V30 3519 H 326.148 -5.54125 -1.13853 0
M  V30 3520 H 324.705 -6.45087 -0.933053 0
M  V30 3521 N 328.138 -0.959301 -1.25041 0
M  V30 3522 C 329.366 -0.633949 -1.96948 0
M  V30 3523 C 329.781 0.794916 -1.7125 0
M  V30 3524 O 329.138 1.53231 -0.991287 0
M  V30 3525 C 329.189 -0.888805 -3.50403 0
M  V30 3526 O 328.91 -2.26149 -3.75218 0
M  V30 3527 C 330.411 -0.576482 -4.39536 0
M  V30 3528 H 327.631 -0.237263 -0.627652 0
M  V30 3529 H 330.175 -1.28495 -1.59089 0
M  V30 3530 H 328.33 -0.284145 -3.86357 0
M  V30 3531 H 328.744 -2.33514 -4.6965 0
M  V30 3532 H 330.218 -0.805314 -5.46094 0
M  V30 3533 H 330.695 0.489075 -4.36468 0
M  V30 3534 H 331.301 -1.16067 -4.09156 0
M  V30 3535 N 329.616 1.39756 -0.72842 0
M  V30 3536 C 330.564 2.32485 -0.0731849 0
M  V30 3537 C 331.558 1.52717 0.733063 0
M  V30 3538 O 332.764 1.68428 0.634988 0
M  V30 3539 H 329.139 0.751984 -0.00486469 0
M  V30 3540 H 331.11 2.85382 -0.871761 0
M  V30 3541 C 329.859 3.37773 0.824908 0
M  V30 3542 H 329.182 3.99227 0.213915 0
M  V30 3543 H 330.622 4.05121 1.25111 0
M  V30 3544 C 329.081 2.74287 1.95622 0
M  V30 3545 O 329.611 2.61618 3.04826 0
M  V30 3546 N 327.817 2.32475 1.74367 0
M  V30 3547 H 327.364 2.4298 0.855494 0
M  V30 3548 H 327.322 1.90337 2.50238 0
M  V30 3549 N 331.094 0.475555 1.50254 0
M  V30 3550 C 332.51 0.12997 1.5907 0
M  V30 3551 C 332.71 -1.36385 1.48328 0
M  V30 3552 O 331.766 -2.13754 1.34407 0
M  V30 3553 C 333.079 0.684139 2.92814 0
M  V30 3554 C 334.627 0.647965 3.0622 0
M  V30 3555 C 335.102 1.17975 4.42545 0
M  V30 3556 N 336.593 1.13936 4.48969 0
M  V30 3557 C 337.328 1.52129 5.52851 0
M  V30 3558 N 336.824 1.97793 6.63965 0
M  V30 3559 N 338.617 1.43704 5.4342 0
M  V30 3560 H 330.768 1.44706 1.55479 0
M  V30 3561 H 333.031 0.598691 0.735033 0
M  V30 3562 H 332.737 1.73079 3.06164 0
M  V30 3563 H 332.611 0.130204 3.76975 0
M  V30 3564 H 334.998 -0.38979 2.92514 0
M  V30 3565 H 335.079 1.23876 2.23805 0
M  V30 3566 H 334.723 2.21616 4.57 0
M  V30 3567 H 334.653 0.565138 5.23559 0
M  V30 3568 H 337.144 0.804488 3.69238 0
M  V30 3569 H 337.457 2.25072 7.39299 0
M  V30 3570 H 335.802 2.01749 6.65073 0
M  V30 3571 H 338.993 1.07867 4.55502 0
M  V30 3572 H 339.166 1.73794 6.24259 0
M  V30 3573 N 332.573 -1.56217 0.208337 0
M  V30 3574 C 333.503 -2.22694 -0.702116 0
M  V30 3575 C 334.484 -1.19432 -1.2112 0
M  V30 3576 O 335.669 -1.47978 -1.25762 0
M  V30 3577 C 332.799 -2.8966 -1.9161 0
M  V30 3578 C 331.753 -3.9928 -1.5414 0
M  V30 3579 C 331.079 -4.53476 -2.83308 0
M  V30 3580 C 332.379 -5.17012 -0.741339 0
M  V30 3581 H 334.073 -2.99034 -0.147898 0
M  V30 3582 H 331.619 -1.43831 -0.0696951 0
M  V30 3583 H 333.572 -3.34852 -2.55836 0
M  V30 3584 H 332.296 -2.10746 -2.49507 0
M  V30 3585 H 330.955 -3.54799 -0.922668 0
M  V30 3586 H 330.603 -3.71308 -3.39322 0
M  V30 3587 H 330.303 -5.27451 -2.58976 0
M  V30 3588 H 331.827 -5.01378 -3.485 0
M  V30 3589 H 333.241 -5.58667 -1.28699 0
M  V30 3590 H 331.638 -5.97137 -0.595627 0
M  V30 3591 H 332.708 -4.8423 0.254851 0
M  V30 3592 N 334.051 0.0651679 -1.57465 0
M  V30 3593 C 335.001 1.0838 -2.00594 0
M  V30 3594 C 335.985 1.34106 -0.889071 0
M  V30 3595 O 337.177 1.34295 -1.15299 0
M  V30 3596 C 334.306 2.39565 -2.45894 0
M  V30 3597 C 333.392 2.17085 -3.64328 0
M  V30 3598 N 333.783 1.64553 -4.78285 0
M  V30 3599 C 332.081 2.4753 -3.71006 0
M  V30 3600 C 332.782 1.57042 -5.60101 0
M  V30 3601 N 331.758 2.03328 -5.04141 0
M  V30 3602 H 335.56 0.671062 -2.86136 0
M  V30 3603 H 333.074 0.27213 -1.60104 0
M  V30 3604 H 335.071 3.13308 -2.75034 0
M  V30 3605 H 333.731 2.81549 -1.61741 0
M  V30 3606 H 334.742 1.33323 -5.00445 0
M  V30 3607 H 331.419 2.92835 -2.9758 0
M  V30 3608 H 332.809 1.17223 -6.61595 0
M  V30 3609 N 335.529 1.53961 0.336706 0
M  V30 3610 C 336.806 1.62171 1.09361 0
M  V30 3611 C 337.186 0.447263 2.06307 0
M  V30 3612 O 336.534 -0.559802 2.21537 0
M  V30 3613 C 336.744 2.98565 1.80721 0
M  V30 3614 C 338.092 3.54157 2.34218 0
M  V30 3615 O 339.116 3.00784 1.90807 0
M  V30 3616 O 337.975 4.47528 3.13657 0
M  V30 3617 H 335.069 0.6562 0.503319 0
M  V30 3618 H 337.615 1.66307 0.33765 0
M  V30 3619 H 336.387 3.75482 1.10132 0
M  V30 3620 H 336.01 2.9805 2.63158 0
M  V30 3621 N 337.007 -0.598083 1.45811 0
M  V30 3622 C 338.423 -0.919847 1.30426 0
M  V30 3623 C 338.623 -1.99759 0.264303 0
M  V30 3624 O 337.679 -2.50221 -0.338472 0
M  V30 3625 C 338.992 -1.35176 2.68603 0
M  V30 3626 C 340.54 -1.46546 2.76574 0
M  V30 3627 C 341.015 -1.9311 4.15298 0
M  V30 3628 N 342.506 -2.00328 4.1764 0
M  V30 3629 C 343.241 -2.37599 5.21856 0
M  V30 3630 N 342.737 -2.73771 6.36413 0
M  V30 3631 N 344.53 -2.38021 5.09218 0
M  V30 3632 H 336.681 0.114111 2.12093 0
M  V30 3633 H 338.944 -0.0116121 0.947929 0
M  V30 3634 H 338.65 -0.633969 3.45939 0
M  V30 3635 H 338.524 -2.3164 2.97696 0
M  V30 3636 H 340.911 -2.17415 1.99537 0
M  V30 3637 H 340.992 -0.483727 2.51185 0
M  V30 3638 H 340.636 -1.22824 4.92825 0
M  V30 3639 H 340.566 -2.92213 4.38086 0
M  V30 3640 H 343.057 -1.74925 3.34977 0
M  V30 3641 H 343.37 -3.0112 7.11721 0
M  V30 3642 H 341.715 -2.71445 6.39799 0
M  V30 3643 H 344.906 -2.09174 4.18765 0
M  V30 3644 H 345.079 -2.66741 5.90554 0
M  V30 3645 N 338.485 -1.33259 -0.841409 0
M  V30 3646 C 339.734 -1.23921 -1.59143 0
M  V30 3647 C 340.047 0.1941 -1.94635 0
M  V30 3648 O 341.253 0.409474 -2.68394 0
M  V30 3649 C 339.709 -2.17119 -2.87032 0
M  V30 3650 C 339.317 -3.65606 -2.58914 0
M  V30 3651 C 341.061 -2.16648 -3.65053 0
M  V30 3652 C 338.968 -4.50726 -3.82884 0
M  V30 3653 H 337.898 -0.460264 -0.597221 0
M  V30 3654 H 340.549 -1.58307 -0.927959 0
M  V30 3655 H 338.931 -1.75663 -3.54906 0
M  V30 3656 H 340.105 -4.15487 -1.99267 0
M  V30 3657 H 338.42 -3.68341 -1.942 0
M  V30 3658 H 341.017 -2.77474 -4.57069 0
M  V30 3659 H 341.36 -1.16088 -3.99787 0
M  V30 3660 H 341.893 -2.56453 -3.041 0
M  V30 3661 H 338.632 -5.52151 -3.53283 0
M  V30 3662 H 338.152 -4.0559 -4.41879 0
M  V30 3663 H 339.831 -4.64401 -4.50489 0
M  V30 3664 N 339.963 1.05934 -1.16686 0
M  V30 3665 C 341.209 1.79065 -0.95203 0
M  V30 3666 C 341.542 1.87147 0.518629 0
M  V30 3667 O 340.817 1.36574 1.38484 0
M  V30 3668 C 341.1 3.23359 -1.58464 0
M  V30 3669 C 340.953 3.23336 -3.12689 0
M  V30 3670 C 342.272 4.21004 -1.28232 0
M  V30 3671 H 339.391 0.65005 -0.34728 0
M  V30 3672 H 342.033 1.23868 -1.44072 0
M  V30 3673 H 340.183 3.70493 -1.16908 0
M  V30 3674 H 341.855 2.84336 -3.6325 0
M  V30 3675 H 340.098 2.61886 -3.4583 0
M  V30 3676 H 340.769 4.25144 -3.52075 0
M  V30 3677 H 343.245 3.8233 -1.64203 0
M  V30 3678 H 342.121 5.20225 -1.75092 0
M  V30 3679 H 342.382 4.41639 -0.201791 0
M  V30 3680 N 341.441 0.965919 1.2453 0
M  V30 3681 C 342.688 0.626831 1.92554 0
M  V30 3682 C 343.016 -0.837739 1.75534 0
M  V30 3683 O 342.271 -1.61793 1.10098 0
M  V30 3684 C 342.57 0.945428 3.44669 0
M  V30 3685 C 342.236 2.39785 3.81856 0
M  V30 3686 C 340.898 2.79483 3.91718 0
M  V30 3687 C 343.25 3.34055 4.00071 0
M  V30 3688 C 340.578 4.12496 4.1721 0
M  V30 3689 C 342.93 4.66694 4.27059 0
M  V30 3690 C 341.594 5.06172 4.3514 0
M  V30 3691 H 340.864 0.229374 0.704605 0
M  V30 3692 H 343.511 1.21707 1.4785 0
M  V30 3693 H 341.816 0.272926 3.90848 0
M  V30 3694 H 343.513 0.661484 3.95507 0
M  V30 3695 H 340.103 2.08003 3.74743 0
M  V30 3696 H 344.287 3.04571 3.91855 0
M  V30 3697 H 339.543 4.42709 4.21685 0
M  V30 3698 H 343.717 5.3971 4.40097 0
M  V30 3699 H 341.344 6.09262 4.54646 0
M  V30 3700 N 342.919 -1.39368 0.735821 0
M  V30 3701 C 344.335 -1.54204 0.411492 0
M  V30 3702 C 344.535 -1.70268 -1.07755 0
M  V30 3703 O 343.591 -1.70364 -1.86366 0
M  V30 3704 C 344.904 -2.75925 1.19523 0
M  V30 3705 C 346.452 -2.89761 1.18354 0
M  V30 3706 C 346.927 -4.14421 1.94986 0
M  V30 3707 N 348.418 -4.21462 1.92156 0
M  V30 3708 C 349.153 -5.16871 2.48258 0
M  V30 3709 N 348.649 -6.18063 3.13001 0
M  V30 3710 N 350.442 -5.09093 2.38287 0
M  V30 3711 H 342.593 -1.27189 1.70108 0
M  V30 3712 H 344.856 -0.616517 0.720147 0
M  V30 3713 H 344.562 -2.70401 2.24892 0
M  V30 3714 H 344.436 -3.68614 0.800222 0
M  V30 3715 H 346.823 -2.94777 0.137975 0
M  V30 3716 H 346.904 -1.98133 1.61793 0
M  V30 3717 H 346.548 -4.10166 2.99543 0
M  V30 3718 H 346.478 -5.05095 1.48953 0
M  V30 3719 H 348.969 -3.48979 1.44991 0
M  V30 3720 H 349.282 -6.87326 3.53275 0
M  V30 3721 H 347.627 -6.18448 3.17091 0
M  V30 3722 H 350.818 -4.28973 1.8735 0
M  V30 3723 H 350.991 -5.83272 2.82308 0
M  V30 3724 N 344.397 -0.483516 -1.5 0
M  V30 3725 C 345.813 -0.138404 -1.58999 0
M  V30 3726 C 346.013 1.35597 -1.4905 0
M  V30 3727 O 345.069 2.13039 -1.35539 0
M  V30 3728 C 346.382 -0.699658 -2.92447 0
M  V30 3729 C 347.93 -0.664195 -3.05872 0
M  V30 3730 C 348.405 -1.20321 -4.41913 0
M  V30 3731 N 349.896 -1.16315 -4.48358 0
M  V30 3732 C 350.631 -1.55058 -5.52037 0
M  V30 3733 N 350.127 -2.01311 -6.62907 0
M  V30 3734 N 351.92 -1.46584 -5.42651 0
M  V30 3735 H 344.071 -1.45529 -1.5471 0
M  V30 3736 H 346.334 -0.60258 -0.731848 0
M  V30 3737 H 346.04 -1.747 -3.05242 0
M  V30 3738 H 345.914 -0.150194 -3.76901 0
M  V30 3739 H 348.301 0.374272 -2.92717 0
M  V30 3740 H 348.382 -1.25061 -2.23144 0
M  V30 3741 H 348.026 -2.24037 -4.55818 0
M  V30 3742 H 347.956 -0.592896 -5.23252 0
M  V30 3743 H 350.447 -0.824058 -3.68806 0
M  V30 3744 H 350.76 -2.2899 -7.38095 0
M  V30 3745 H 349.105 -2.05273 -6.63994 0
M  V30 3746 H 352.296 -1.10281 -4.54924 0
M  V30 3747 H 352.469 -1.77103 -6.23329 0
M  V30 3748 N 345.875 1.56104 -0.216619 0
M  V30 3749 C 347.123 1.97781 0.415593 0
M  V30 3750 C 347.444 1.10536 1.60645 0
M  V30 3751 O 346.714 0.181303 1.95059 0
M  V30 3752 H 345.294 0.730415 0.156534 0
M  V30 3753 H 347.956 1.92445 -0.308366 0
M  V30 3754 H 347.052 3.03072 0.74525 0
M  V30 3755 N 347.353 -0.0568162 1.57498 0
M  V30 3756 C 348.283 -1.06593 2.0775 0
M  V30 3757 C 349.264 -1.39448 0.974082 0
M  V30 3758 O 350.449 -1.48815 1.24771 0
M  V30 3759 C 347.579 -2.37509 2.5339 0
M  V30 3760 C 346.533 -2.1897 3.67745 0
M  V30 3761 C 345.859 -3.55402 3.99492 0
M  V30 3762 C 347.159 -1.59859 4.97235 0
M  V30 3763 H 348.853 -0.647706 2.9231 0
M  V30 3764 H 346.399 -0.310116 1.40621 0
M  V30 3765 H 348.352 -3.08409 2.87162 0
M  V30 3766 H 347.076 -2.8134 1.65878 0
M  V30 3767 H 345.735 -1.50508 3.3428 0
M  V30 3768 H 345.383 -3.9683 3.09088 0
M  V30 3769 H 345.083 -3.43831 4.76502 0
M  V30 3770 H 346.607 -4.27708 4.35773 0
M  V30 3771 H 348.021 -2.20642 5.29141 0
M  V30 3772 H 346.418 -1.58942 5.78669 0
M  V30 3773 H 347.488 -0.561506 4.81638 0
M  V30 3774 N 348.832 -1.54138 -0.328536 0
M  V30 3775 C 350.243 -1.63395 -0.903272 0
M  V30 3776 C 350.594 -0.524828 -1.8905 0
M  V30 3777 O 349.719 0.343068 -2.13663 0
M  V30 3778 C 350.314 -2.9618 -1.64507 0
M  V30 3779 C 348.873 -3.0765 -2.1686 0
M  V30 3780 C 348.02 -2.58933 -0.992416 0
M  V30 3781 H 350.971 -1.58344 -0.106253 0
M  V30 3782 H 350.992 -2.86061 -2.50897 0
M  V30 3783 H 350.504 -3.76884 -0.926302 0
M  V30 3784 H 348.605 -2.31611 -2.91868 0
M  V30 3785 H 348.718 -4.1337 -2.42202 0
M  V30 3786 H 347.082 -2.14706 -1.37016 0
M  V30 3787 H 347.865 -3.42089 -0.288041 0
M  V30 3788 N 350.31 0.590341 -1.46126 0
M  V30 3789 C 351.538 1.37504 -1.54597 0
M  V30 3790 C 351.953 1.87897 -0.184447 0
M  V30 3791 O 351.31 1.63192 0.816984 0
M  V30 3792 C 351.361 2.56779 -2.54454 0
M  V30 3793 O 351.082 2.08476 -3.85317 0
M  V30 3794 C 352.583 3.49427 -2.72792 0
M  V30 3795 H 349.803 0.420325 -0.523037 0
M  V30 3796 H 352.347 0.718383 -1.91467 0
M  V30 3797 H 350.502 3.1845 -2.20609 0
M  V30 3798 H 350.916 2.86097 -4.396 0
M  V30 3799 H 352.39 4.29619 -3.466 0
M  V30 3800 H 352.867 4.00876 -1.79429 0
M  V30 3801 H 353.473 2.93598 -3.07702 0
M  V30 3802 N 351.788 1.33704 0.83433 0
M  V30 3803 C 353.036 1.25169 1.58673 0
M  V30 3804 C 353.357 -0.18127 1.94156 0
M  V30 3805 O 352.627 -1.11113 1.6134 0
M  V30 3806 H 351.207 0.4603 0.58833 0
M  V30 3807 H 353.869 1.67478 0.996847 0
M  V30 3808 H 352.965 1.84856 2.51465 0
M  V30 3809 N 353.266 -1.05314 1.17247 0
M  V30 3810 C 354.543 -1.75184 0.87005 0
M  V30 3811 C 354.923 -2.01481 -0.629965 0
M  V30 3812 O 354.271 -1.64988 -1.58086 0
M  V30 3813 C 354.481 -3.04594 1.70363 0
M  V30 3814 C 355.829 -3.78567 1.92281 0
M  V30 3815 O 356.853 -3.14461 1.67311 0
M  V30 3816 O 355.712 -4.93755 2.3424 0
M  V30 3817 H 352.806 -0.761729 0.322021 0
M  V30 3818 H 355.352 -1.11493 1.27935 0
M  V30 3819 H 354.124 -2.81201 2.72106 0
M  V30 3820 H 353.747 -3.76022 1.29202 0
M  V30 3821 N 354.744 -0.972509 -1.24016 0
M  V30 3822 C 355.969 -0.654417 -1.96805 0
M  V30 3823 C 356.394 0.770398 -1.716 0
M  V30 3824 O 355.752 1.52361 -0.982647 0
M  V30 3825 C 355.8 -0.941031 -3.48105 0
M  V30 3826 O 354.904 -0.0289472 -4.1239 0
M  V30 3827 H 354.245 -0.24692 -0.616382 0
M  V30 3828 H 356.775 -1.30396 -1.57664 0
M  V30 3829 H 356.785 -0.87452 -3.98517 0
M  V30 3830 H 355.46 -1.97939 -3.65777 0
M  V30 3831 H 354.037 -0.149192 -3.72601 0
M  V30 3832 N 356.222 1.38976 -0.743202 0
M  V30 3833 C 357.633 1.83123 -0.363732 0
M  V30 3834 C 357.984 1.6205 1.10609 0
M  V30 3835 O 357.109 1.11606 1.854 0
M  V30 3836 C 357.704 3.32439 -0.653408 0
M  V30 3837 C 356.263 3.74974 -0.327338 0
M  V30 3838 C 355.41 2.61878 -0.911875 0
M  V30 3839 H 358.361 1.27852 -0.940191 0
M  V30 3840 H 358.382 3.80432 0.0720031 0
M  V30 3841 H 357.894 3.47745 -1.72323 0
M  V30 3842 H 355.995 3.65252 0.736314 0
M  V30 3843 H 356.108 4.72106 -0.815631 0
M  V30 3844 H 354.472 2.52448 -0.337944 0
M  V30 3845 H 355.255 2.79987 -1.98651 0
M  V30 3846 N 357.7 0.491464 1.49741 0
M  V30 3847 C 358.63 -0.28154 2.31796 0
M  V30 3848 C 359.611 -0.971473 1.3963 0
M  V30 3849 O 360.796 -0.964719 1.68543 0
M  V30 3850 C 357.926 -1.35203 3.19902 0
M  V30 3851 C 356.88 -0.782529 4.20786 0
M  V30 3852 C 356.206 -1.95283 4.97764 0
M  V30 3853 C 357.506 0.21999 5.21837 0
M  V30 3854 H 359.2 0.403355 2.96671 0
M  V30 3855 H 356.746 0.195425 1.42668 0
M  V30 3856 H 358.699 -1.90045 3.76113 0
M  V30 3857 H 357.423 -2.06598 2.52953 0
M  V30 3858 H 356.082 -0.255928 3.65706 0
M  V30 3859 H 355.73 -2.65423 4.2727 0
M  V30 3860 H 355.43 -1.57789 5.66018 0
M  V30 3861 H 356.954 -2.50577 5.56816 0
M  V30 3862 H 358.368 -0.23996 5.72798 0
M  V30 3863 H 356.765 0.51026 5.97927 0
M  V30 3864 H 357.835 1.13911 4.7133 0
M  V30 3865 N 359.178 -1.55987 0.224894 0
M  V30 3866 C 360.426 -1.97998 -0.405099 0
M  V30 3867 C 360.747 -1.11387 -1.60056 0
M  V30 3868 O 360.017 -0.191645 -1.9496 0
M  V30 3869 H 358.597 -0.731235 -0.152658 0
M  V30 3870 H 361.259 -1.92279 0.318567 0
M  V30 3871 H 360.355 -3.03463 -0.729167 0
M  V30 3872 N 360.656 0.0484629 -1.57525 0
M  V30 3873 C 362.067 0.597486 -1.76881 0
M  V30 3874 C 362.418 1.76664 -0.853475 0
M  V30 3875 O 361.543 2.16357 -0.0433656 0
M  V30 3876 C 362.138 1.09066 -3.20765 0
M  V30 3877 C 360.697 1.58535 -3.41385 0
M  V30 3878 C 359.844 0.514868 -2.72478 0
M  V30 3879 H 362.795 -0.177758 -1.57701 0
M  V30 3880 H 362.816 1.95875 -3.2621 0
M  V30 3881 H 362.328 0.239521 -3.8736 0
M  V30 3882 H 360.429 2.45898 -2.79937 0
M  V30 3883 H 360.542 1.64622 -4.49929 0
M  V30 3884 H 358.906 0.965407 -2.35695 0
M  V30 3885 H 359.689 -0.32648 -3.41744 0
M  V30 3886 N 362.134 1.5431 0.320358 0
M  V30 3887 C 363.067 1.78769 1.41834 0
M  V30 3888 C 364.045 0.63783 1.49568 0
M  V30 3889 O 365.229 0.875628 1.66928 0
M  V30 3890 C 362.356 1.90712 2.79905 0
M  V30 3891 C 361.402 3.13023 2.89687 0
M  V30 3892 S 362.235 4.71554 2.53766 0
M  V30 3893 C 363.391 4.86408 3.93902 0
M  V30 3894 H 363.624 2.71619 1.20874 0
M  V30 3895 H 361.157 1.45474 0.517377 0
M  V30 3896 H 363.115 1.98279 3.59438 0
M  V30 3897 H 361.776 0.988343 2.98145 0
M  V30 3898 H 360.969 3.18124 3.90913 0
M  V30 3899 H 360.571 3.03803 2.18128 0
M  V30 3900 H 362.863 4.69241 4.88691 0
M  V30 3901 H 363.806 5.88508 3.93782 0
M  V30 3902 H 364.214 4.14689 3.83005 0
M  V30 3903 N 363.613 -0.582584 1.46437 0
M  V30 3904 C 364.841 -1.36682 1.55324 0
M  V30 3905 C 365.256 -1.87796 0.194409 0
M  V30 3906 O 364.613 -1.63623 -0.808318 0
M  V30 3907 C 364.664 -2.55426 2.55812 0
M  V30 3908 O 364.385 -2.0643 3.86417 0
M  V30 3909 C 365.886 -3.47976 2.74641 0
M  V30 3910 H 363.106 -0.417545 0.525259 0
M  V30 3911 H 365.65 -0.708219 1.91845 0
M  V30 3912 H 363.805 -3.17275 2.22295 0
M  V30 3913 H 364.219 -2.83762 4.41111 0
M  V30 3914 H 365.693 -4.27775 3.48874 0
M  V30 3915 H 366.17 -3.99919 1.81553 0
M  V30 3916 H 366.776 -2.91962 3.09255 0
M  V30 3917 N 365.091 -1.34144 -0.827227 0
M  V30 3918 C 366.041 -1.21923 -1.92663 0
M  V30 3919 C 367.025 -0.119294 -1.60457 0
M  V30 3920 O 368.217 -0.348539 -1.73534 0
M  V30 3921 C 365.346 -0.972492 -3.29238 0
M  V30 3922 C 364.432 -2.1154 -3.67576 0
M  V30 3923 N 364.823 -3.36627 -3.77512 0
M  V30 3924 C 363.121 -2.02468 -3.97395 0
M  V30 3925 C 363.822 -4.11658 -4.1099 0
M  V30 3926 N 362.798 -3.40207 -4.23981 0
M  V30 3927 H 366.6 -2.16721 -1.98517 0
M  V30 3928 H 364.114 -1.2632 -1.02064 0
M  V30 3929 H 366.111 -0.865847 -4.0781 0
M  V30 3930 H 364.771 -0.0331509 -3.24683 0
M  V30 3931 H 365.782 -3.71234 -3.61118 0
M  V30 3932 H 362.459 -1.16265 -4.00985 0
M  V30 3933 H 363.849 -5.19657 -4.25918 0
M  V30 3934 N 366.569 1.04691 -1.17803 0
M  V30 3935 C 367.985 1.29963 -0.926379 0
M  V30 3936 C 368.185 1.97251 0.411635 0
M  V30 3937 O 367.241 2.24922 1.14744 0
M  V30 3938 C 368.554 2.16447 -2.08737 0
M  V30 3939 C 370.102 2.29814 -2.12496 0
M  V30 3940 C 370.577 3.19661 -3.27995 0
M  V30 3941 N 372.068 3.27247 -3.27816 0
M  V30 3942 C 372.803 3.96906 -4.13827 0
M  V30 3943 N 372.299 4.6895 -5.09959 0
M  V30 3944 N 374.092 3.93122 -4.01761 0
M  V30 3945 H 366.243 0.594182 -2.0392 0
M  V30 3946 H 368.506 0.324649 -0.890678 0
M  V30 3947 H 368.212 1.74304 -3.05469 0
M  V30 3948 H 368.086 3.17103 -2.04268 0
M  V30 3949 H 370.473 2.71196 -1.16347 0
M  V30 3950 H 370.554 1.2877 -2.21025 0
M  V30 3951 H 370.198 2.78991 -4.24413 0
M  V30 3952 H 370.128 4.20722 -3.16703 0
M  V30 3953 H 372.619 2.75921 -2.58217 0
M  V30 3954 H 372.932 5.19679 -5.71974 0
M  V30 3955 H 371.277 4.67875 -5.13924 0
M  V30 3956 H 374.468 3.35967 -3.2595 0
M  V30 3957 H 374.641 4.47139 -4.6901 0
M  V30 3958 N 368.047 0.979072 1.23499 0
M  V30 3959 C 369.295 0.645941 1.91499 0
M  V30 3960 C 369.616 -0.822948 1.76784 0
M  V30 3961 O 368.886 -1.58854 1.14639 0
M  V30 3962 H 367.466 0.235919 0.708767 0
M  V30 3963 H 370.128 1.2426 1.50152 0
M  V30 3964 H 369.224 0.896411 2.9895 0
M  V30 3965 N 369.525 -1.3858 0.750561 0
M  V30 3966 C 370.435 -2.34278 0.122825 0
M  V30 3967 C 371.451 -1.59116 -0.704131 0
M  V30 3968 O 372.627 -1.91326 -0.628987 0
M  V30 3969 C 369.692 -3.38221 -0.762086 0
M  V30 3970 C 368.753 -4.29227 0.078896 0
M  V30 3971 C 367.986 -5.28205 -0.763874 0
M  V30 3972 O 368.209 -5.34112 -2.00201 0
M  V30 3973 O 367.143 -6.01618 -0.18428 0
M  V30 3974 H 370.969 -2.89649 0.913088 0
M  V30 3975 H 368.554 -1.40374 0.511417 0
M  V30 3976 H 370.436 -4.01872 -1.26793 0
M  V30 3977 H 369.111 -2.85211 -1.5309 0
M  V30 3978 H 368.018 -3.68747 0.630621 0
M  V30 3979 H 369.351 -4.85484 0.810289 0
M  V30 3980 N 371.003 -0.499398 -1.49478 0
M  V30 3981 C 371.913 0.284489 -2.32869 0
M  V30 3982 C 372.929 0.968885 -1.44529 0
M  V30 3983 O 374.105 0.95062 -1.77553 0
M  V30 3984 C 371.17 1.33594 -3.19928 0
M  V30 3985 C 370.231 0.665149 -4.24116 0
M  V30 3986 C 369.464 1.6665 -5.07014 0
M  V30 3987 O 369.687 2.89618 -4.91404 0
M  V30 3988 O 368.621 1.22271 -5.8935 0
M  V30 3989 H 372.447 -0.39802 -3.01081 0
M  V30 3990 H 370.032 -0.260758 -1.47107 0
M  V30 3991 H 371.914 1.94431 -3.73864 0
M  V30 3992 H 370.589 2.0014 -2.54412 0
M  V30 3993 H 369.496 0.0170769 -3.74096 0
M  V30 3994 H 370.829 0.0421555 -4.92182 0
M  V30 3995 N 372.481 1.55866 -0.233164 0
M  V30 3996 C 373.758 1.90471 0.444988 0
M  V30 3997 C 374.138 1.15209 1.7689 0
M  V30 3998 O 373.486 0.265119 2.26957 0
M  V30 3999 C 373.696 3.4333 0.626559 0
M  V30 4000 C 375.044 4.14319 0.92871 0
M  V30 4001 O 376.068 3.48993 0.712926 0
M  V30 4002 O 374.927 5.29846 1.33887 0
M  V30 4003 H 372.021 0.792347 0.236885 0
M  V30 4004 H 374.567 1.67437 -0.276211 0
M  V30 4005 H 373.339 3.90095 -0.306822 0
M  V30 4006 H 372.962 3.72181 1.39881 0
M  V30 4007 N 373.959 -0.0401083 1.57549 0
M  V30 4008 C 375.205 -0.728793 1.89895 0
M  V30 4009 C 375.56 -1.73551 0.830535 0
M  V30 4010 O 374.853 -1.90914 -0.162007 0
M  V30 4011 C 375.047 -1.44902 3.26708 0
M  V30 4012 C 374.876 -0.513568 4.46758 0
M  V30 4013 C 373.646 -0.138698 5.0511 0
M  V30 4014 C 375.844 0.203341 5.13898 0
M  V30 4015 N 373.826 0.799159 6.08676 0
M  V30 4016 C 375.197 0.997246 6.11927 0
M  V30 4017 C 377.252 0.271459 4.97159 0
M  V30 4018 C 375.955 1.85299 6.95023 0
M  V30 4019 C 377.981 1.11429 5.80808 0
M  V30 4020 C 377.343 1.89615 6.78399 0
M  V30 4021 H 373.442 -0.241125 0.743897 0
M  V30 4022 H 376.026 0.0108016 1.94697 0
M  V30 4023 H 374.197 -2.15914 3.22856 0
M  V30 4024 H 375.929 -2.08921 3.46603 0
M  V30 4025 H 372.684 -0.498496 4.70969 0
M  V30 4026 H 373.108 1.26227 6.65128 0
M  V30 4027 H 377.75 -0.318709 4.21597 0
M  V30 4028 H 375.468 2.454 7.69938 0
M  V30 4029 H 379.054 1.17038 5.69906 0
M  V30 4030 H 377.934 2.53779 7.42001 0
M  V30 4031 N 375.437 -1.54477 -0.31217 0
M  V30 4032 C 376.367 -1.87652 -1.38957 0
M  V30 4033 C 377.348 -0.734358 -1.53431 0
M  V30 4034 O 378.533 -0.98911 -1.67123 0
M  V30 4035 C 375.663 -2.11396 -2.75552 0
M  V30 4036 C 374.617 -3.27243 -2.75855 0
M  V30 4037 C 373.943 -3.36382 -4.15633 0
M  V30 4038 C 375.243 -4.64622 -2.38587 0
M  V30 4039 H 376.937 -2.77887 -1.11442 0
M  V30 4040 H 374.483 -1.33707 -0.534655 0
M  V30 4041 H 376.436 -2.33189 -3.51 0
M  V30 4042 H 375.16 -1.17921 -3.04569 0
M  V30 4043 H 373.819 -3.05356 -2.02863 0
M  V30 4044 H 373.467 -2.40445 -4.41809 0
M  V30 4045 H 373.167 -4.14249 -4.1674 0
M  V30 4046 H 374.691 -3.60422 -4.92877 0
M  V30 4047 H 376.105 -4.86219 -3.03749 0
M  V30 4048 H 374.502 -5.45121 -2.50925 0
M  V30 4049 H 375.572 -4.66097 -1.33723 0
M  V30 4050 N 376.915 0.57481 -1.46744 0
M  V30 4051 C 378.145 1.35659 -1.55821 0
M  V30 4052 C 378.553 1.88129 -0.201036 0
M  V30 4053 O 377.896 1.64723 0.813134 0
M  V30 4054 C 377.958 2.57473 -2.50894 0
M  V30 4055 C 377.622 2.26415 -3.9697 0
M  V30 4056 C 378.619 1.84771 -4.85958 0
M  V30 4057 C 376.304 2.38316 -4.42166 0
M  V30 4058 C 378.298 1.55434 -6.18158 0
M  V30 4059 C 375.985 2.08591 -5.74398 0
M  V30 4060 C 376.983 1.67216 -6.62214 0
M  V30 4061 O 376.671 1.37859 -7.91991 0
M  V30 4062 H 376.403 0.420496 -0.529301 0
M  V30 4063 H 378.957 0.704967 -1.92923 0
M  V30 4064 H 377.187 3.25468 -2.08824 0
M  V30 4065 H 378.876 3.19546 -2.50291 0
M  V30 4066 H 379.642 1.75085 -4.52295 0
M  V30 4067 H 375.521 2.69483 -3.74032 0
M  V30 4068 H 379.065 1.23065 -6.86659 0
M  V30 4069 H 374.962 2.17905 -6.07608 0
M  V30 4070 H 375.73 1.51638 -8.04331 0
M  V30 4071 N 378.394 1.34581 0.820102 0
M  V30 4072 C 379.304 1.28471 1.96297 0
M  V30 4073 C 380.32 0.191902 1.72939 0
M  V30 4074 O 381.496 0.418879 1.96996 0
M  V30 4075 C 378.561 1.04281 3.30645 0
M  V30 4076 C 377.622 2.22745 3.66992 0
M  V30 4077 C 376.855 1.997 4.9493 0
M  V30 4078 O 377.078 0.956656 5.6232 0
M  V30 4079 O 376.012 2.86723 5.2922 0
M  V30 4080 H 379.838 2.24624 2.04396 0
M  V30 4081 H 377.423 1.14816 0.955913 0
M  V30 4082 H 379.305 0.925841 4.11104 0
M  V30 4083 H 377.98 0.111697 3.23507 0
M  V30 4084 H 376.887 2.40003 2.86966 0
M  V30 4085 H 378.22 3.14257 3.78819 0
M  V30 4086 N 379.872 -1.04064 1.18357 0
M  V30 4087 C 381.288 -1.2947 0.933258 0
M  V30 4088 C 381.488 -1.97466 -0.401169 0
M  V30 4089 O 380.544 -2.25528 -1.13549 0
M  V30 4090 C 381.857 -2.15337 2.09882 0
M  V30 4091 C 383.405 -2.28683 2.13712 0
M  V30 4092 C 383.88 -3.17917 3.29686 0
M  V30 4093 N 385.371 -3.25504 3.29547 0
M  V30 4094 C 386.106 -3.94706 4.15926 0
M  V30 4095 N 385.602 -4.66239 5.12439 0
M  V30 4096 N 387.395 -3.90986 4.0384 0
M  V30 4097 H 379.546 -0.583359 2.04232 0
M  V30 4098 H 381.809 -0.319921 0.892387 0
M  V30 4099 H 381.515 -1.72682 3.06389 0
M  V30 4100 H 381.389 -3.16015 2.05947 0
M  V30 4101 H 383.776 -2.70575 1.17784 0
M  V30 4102 H 383.857 -1.27596 2.21705 0
M  V30 4103 H 383.501 -2.76736 4.25887 0
M  V30 4104 H 383.431 -4.19036 3.1893 0
M  V30 4105 H 385.922 -2.74547 2.59677 0
M  V30 4106 H 386.235 -5.16638 5.74722 0
M  V30 4107 H 384.58 -4.65143 5.16398 0
M  V30 4108 H 387.771 -3.34234 3.27727 0
M  V30 4109 H 387.944 -4.44646 4.71375 0
M  V30 4110 N 381.35 -0.985608 -1.22978 0
M  V30 4111 C 382.28 -0.549649 -2.26939 0
M  V30 4112 C 383.261 0.419803 -1.64838 0
M  V30 4113 O 384.446 0.31203 -1.91677 0
M  V30 4114 C 381.576 0.143652 -3.47003 0
M  V30 4115 C 380.53 -0.743606 -4.21491 0
M  V30 4116 C 379.856 0.0822027 -5.34637 0
M  V30 4117 C 381.156 -2.03694 -4.80943 0
M  V30 4118 H 382.85 -1.41862 -2.63658 0
M  V30 4119 H 380.396 -0.683571 -1.26741 0
M  V30 4120 H 382.349 0.459985 -4.18882 0
M  V30 4121 H 381.073 1.04711 -3.09359 0
M  V30 4122 H 379.732 -1.04347 -3.51436 0
M  V30 4123 H 379.38 0.986359 -4.93234 0
M  V30 4124 H 379.08 -0.508377 -5.85397 0
M  V30 4125 H 380.604 0.392797 -6.09335 0
M  V30 4126 H 382.018 -1.78504 -5.44802 0
M  V30 4127 H 380.415 -2.57573 -5.42011 0
M  V30 4128 H 381.485 -2.72042 -4.01399 0
M  V30 4129 N 382.828 1.3818 -0.7579 0
M  V30 4130 C 383.791 2.28764 -0.141286 0
M  V30 4131 C 384.791 1.47388 0.642907 0
M  V30 4132 O 385.981 1.67781 0.468536 0
M  V30 4133 C 383.113 3.31184 0.808069 0
M  V30 4134 H 384.306 2.848 -0.939633 0
M  V30 4135 H 381.859 1.47212 -0.525191 0
M  V30 4136 H 382.594 2.80247 1.63193 0
M  V30 4137 H 382.379 3.91314 0.248104 0
M  V30 4138 H 383.869 3.98909 1.23536 0
M  V30 4139 N 384.306 0.507319 1.49211 0
M  V30 4140 C 385.717 0.0611118 1.866 0
M  V30 4141 C 386.068 -1.35488 1.41907 0
M  V30 4142 O 385.193 -2.0108 0.799726 0
M  V30 4143 C 385.788 0.104125 3.3864 0
M  V30 4144 C 384.347 -0.28677 3.75306 0
M  V30 4145 C 383.494 0.473893 2.73221 0
M  V30 4146 H 386.445 0.719775 1.41439 0
M  V30 4147 H 386.466 -0.689672 3.74198 0
M  V30 4148 H 385.978 1.13482 3.71138 0
M  V30 4149 H 384.079 -1.32046 3.48417 0
M  V30 4150 H 384.192 0.0370745 4.79086 0
M  V30 4151 H 382.556 -0.0770644 2.54583 0
M  V30 4152 H 383.339 1.50478 3.08563 0
M  V30 4153 O 385.823 -1.56889 0.38316 0
M  V30 4154 H 386.514 -1.93009 -0.163415 0
M  V30 END ATOM
M  V30 BEGIN BOND
M  V30 END BOND
M  V30 END CTAB
M  END
$$$$
