drugbank_target|P26951 Interleukin-3 receptor subunit alpha (DB00020; DB14731)
 OpenBabel12092119463D

  0  0  0     0  0            999 V3000
M  V30 BEGIN CTAB
M  V30 COUNTS 6074 6148 0 0 0
M  V30 BEGIN ATOM
M  V30 1 H -0.908 1.98254 -0.117106 0
M  V30 2 N 0 1.576 0 0
M  V30 3 C 0.933 2.03868 1.02534 0
M  V30 4 C 1.911 0.928543 1.3348 0
M  V30 5 O 3.095 1.19667 1.45644 0
M  V30 6 C 0.222 2.43627 2.35294 0
M  V30 7 C -0.732 3.65373 2.2001 0
M  V30 8 S 0.101 5.13292 1.52614 0
M  V30 9 C 1.257 5.56322 2.86805 0
M  V30 10 H 1.49 2.90518 0.631377 0
M  V30 11 H -0.977 1.52953 0.210867 0
M  V30 12 H 0.981 2.67203 3.11629 0
M  V30 13 H -0.358 1.57376 2.7183 0
M  V30 14 H -1.165 3.90944 3.18086 0
M  V30 15 H -1.563 3.418 1.51819 0
M  V30 16 H 0.729 5.58782 3.83104 0
M  V30 17 H 1.672 6.56266 2.65933 0
M  V30 18 H 2.08 4.83886 2.90714 0
M  V30 19 N 1.4781 -0.272755 1.55222 0
M  V30 20 C 2.7241 -1.00581 1.761 0
M  V30 21 C 3.0571 -1.85932 0.560625 0
M  V30 22 O 2.3321 -1.89416 -0.441801 0
M  V30 23 C 2.6151 -1.88816 3.06628 0
M  V30 24 C 2.4681 -1.06457 4.37021 0
M  V30 25 C 3.7871 -2.8752 3.33197 0
M  V30 26 H 0.9061 -0.364244 0.640699 0
M  V30 27 H 3.5481 -0.278189 1.87952 0
M  V30 28 H 1.6981 -2.50856 2.96654 0
M  V30 29 H 3.3701 -0.464863 4.58952 0
M  V30 30 H 1.6131 -0.368043 4.32236 0
M  V30 31 H 2.2841 -1.71514 5.24678 0
M  V30 32 H 4.7601 -2.35615 3.42965 0
M  V30 33 H 3.6361 -3.46399 4.25792 0
M  V30 34 H 3.8971 -3.62657 2.52849 0
M  V30 35 N 2.9562 -1.48159 -0.537278 0
M  V30 36 C 3.8862 -1.65029 -1.6519 0
M  V30 37 C 4.8672 -0.499281 -1.62607 0
M  V30 38 O 6.0522 -0.730972 -1.79918 0
M  V30 39 C 3.1822 -1.68303 -3.03795 0
M  V30 40 C 2.1362 -2.8283 -3.21234 0
M  V30 41 C 1.4622 -2.71189 -4.60826 0
M  V30 42 C 2.7622 -4.24211 -3.04701 0
M  V30 43 H 4.4562 -2.58341 -1.51328 0
M  V30 44 H 2.0022 -1.24325 -0.726585 0
M  V30 45 H 3.9552 -1.78693 -3.81637 0
M  V30 46 H 2.6792 -0.715635 -3.18663 0
M  V30 47 H 1.3382 -2.71983 -2.45807 0
M  V30 48 H 0.9862 -1.72435 -4.7252 0
M  V30 49 H 0.6862 -3.48035 -4.7344 0
M  V30 50 H 2.2102 -2.83537 -5.40777 0
M  V30 51 H 3.6242 -4.3593 -3.72341 0
M  V30 52 H 2.0212 -5.01998 -3.28813 0
M  V30 53 H 3.0912 -4.41184 -2.01209 0
M  V30 54 N 4.4343 0.785586 -1.36625 0
M  V30 55 C 5.3643 1.91259 -1.33949 0
M  V30 56 C 6.3453 1.68795 -0.210325 0
M  V30 57 O 7.5303 1.89854 -0.408561 0
M  V30 58 C 4.6603 3.28339 -1.13186 0
M  V30 59 C 3.6143 3.65335 -2.22967 0
M  V30 60 C 2.9403 5.00806 -1.87342 0
M  V30 61 C 4.2403 3.7352 -3.65075 0
M  V30 62 H 5.9343 1.93755 -2.28253 0
M  V30 63 H 3.4803 0.930788 -1.09874 0
M  V30 64 H 5.4333 4.06804 -1.09948 0
M  V30 65 H 4.1573 3.2624 -0.153332 0
M  V30 66 H 2.8163 2.89169 -2.25337 0
M  V30 67 H 2.4643 4.95233 -0.880545 0
M  V30 68 H 2.1643 5.26529 -2.60846 0
M  V30 69 H 3.6883 5.81687 -1.85667 0
M  V30 70 H 5.1023 4.42168 -3.64911 0
M  V30 71 H 3.4993 4.10731 -4.37516 0
M  V30 72 H 4.5693 2.74527 -3.99703 0
M  V30 73 N 5.9124 1.20967 1.01018 0
M  V30 74 C 7.1584 1.0353 1.7508 0
M  V30 75 C 7.5134 -0.42734 1.87594 0
M  V30 76 O 6.8064 -1.31298 1.3954 0
M  V30 77 C 7.0004 1.65997 3.16512 0
M  V30 78 C 6.8294 3.18184 3.17788 0
M  V30 79 C 5.5994 3.87198 3.24662 0
M  V30 80 C 7.7974 4.15334 3.03319 0
M  V30 81 N 5.7794 5.26618 3.15509 0
M  V30 82 C 7.1504 5.41472 3.02007 0
M  V30 83 C 9.2054 4.06449 2.87583 0
M  V30 84 C 7.9084 6.5975 2.86571 0
M  V30 85 C 9.9344 5.24357 2.73503 0
M  V30 86 C 9.2964 6.49404 2.72862 0
M  V30 87 H 5.3954 0.433137 0.651089 0
M  V30 88 H 7.9794 1.5324 1.20107 0
M  V30 89 H 6.1504 1.18863 3.69765 0
M  V30 90 H 7.8824 1.41816 3.79039 0
M  V30 91 H 4.6374 3.38093 3.31648 0
M  V30 92 H 5.0614 5.99626 3.14289 0
M  V30 93 H 9.7034 3.10573 2.86887 0
M  V30 94 H 7.4214 7.55792 2.86015 0
M  V30 95 H 11.0074 5.19299 2.62334 0
M  V30 96 H 9.8874 7.39105 2.62093 0
M  V30 97 N 7.3905 -1.2043 1.01659 0
M  V30 98 C 8.3205 -2.25466 0.607226 0
M  V30 99 C 9.3015 -1.65853 -0.377716 0
M  V30 100 O 10.4865 -1.92409 -0.263149 0
M  V30 101 C 7.6165 -3.47256 -0.0552949 0
M  V30 102 C 6.5705 -4.19462 0.850632 0
M  V30 103 C 5.8965 -5.34673 0.0538859 0
M  V30 104 C 7.1965 -4.75603 2.15868 0
M  V30 105 H 8.8905 -2.59962 1.48526 0
M  V30 106 H 6.4365 -1.2496 0.715605 0
M  V30 107 H 8.3895 -4.19917 -0.353233 0
M  V30 108 H 7.1135 -3.11924 -0.968045 0
M  V30 109 H 5.7725 -3.48667 1.13257 0
M  V30 110 H 5.4205 -4.95585 -0.860514 0
M  V30 111 H 5.1205 -5.83913 0.657192 0
M  V30 112 H 6.6445 -6.10138 -0.237598 0
M  V30 113 H 8.0585 -5.40083 1.92311 0
M  V30 114 H 6.4555 -5.3528 2.71284 0
M  V30 115 H 7.5255 -3.94346 2.82169 0
M  V30 116 N 8.8686 -0.792821 -1.36206 0
M  V30 117 C 10.0966 -0.378825 -2.03402 0
M  V30 118 C 10.5116 1.00586 -1.59774 0
M  V30 119 O 9.8686 1.64574 -0.788764 0
M  V30 120 C 9.9196 -0.43683 -3.58851 0
M  V30 121 O 9.6406 -1.76691 -4.00889 0
M  V30 122 C 11.1416 -0.0138943 -4.43298 0
M  V30 123 H 8.3616 -0.155673 -0.652692 0
M  V30 124 H 10.9056 -1.07261 -1.74113 0
M  V30 125 H 9.0606 0.208575 -3.86838 0
M  V30 126 H 9.4746 -1.72011 -4.95492 0
M  V30 127 H 10.9486 -0.105615 -5.51899 0
M  V30 128 H 11.4256 1.03915 -4.2673 0
M  V30 129 H 12.0316 -0.63192 -4.20579 0
M  V30 130 N 10.3467 1.47872 -0.545128 0
M  V30 131 C 11.2767 2.32661 0.197793 0
M  V30 132 C 12.2577 1.43041 0.920504 0
M  V30 133 O 13.4427 1.71912 0.90333 0
M  V30 134 C 10.5727 3.24569 1.23582 0
M  V30 135 C 9.5267 4.23333 0.630323 0
M  V30 136 C 8.8527 5.0448 1.77211 0
M  V30 137 C 10.1527 5.20704 -0.407974 0
M  V30 138 H 11.8467 2.95024 -0.510045 0
M  V30 139 H 9.3927 1.4187 -0.246731 0
M  V30 140 H 11.3457 3.8272 1.76362 0
M  V30 141 H 10.0697 2.60236 1.97344 0
M  V30 142 H 8.7287 3.6639 0.123922 0
M  V30 143 H 8.3767 4.36561 2.49847 0
M  V30 144 H 8.0767 5.71339 1.37281 0
M  V30 145 H 9.6007 5.65487 2.3034 0
M  V30 146 H 11.0147 5.7329 0.033305 0
M  V30 147 H 9.4117 5.95699 -0.725486 0
M  V30 148 H 10.4817 4.66917 -1.30828 0
M  V30 149 N 11.8248 0.280983 1.55075 0
M  V30 150 C 12.7548 -0.597469 2.25727 0
M  V30 151 C 13.7358 -1.15417 1.24952 0
M  V30 152 O 14.9208 -1.18722 1.53684 0
M  V30 153 C 12.0508 -1.7789 2.98283 0
M  V30 154 C 11.0048 -1.35347 4.06036 0
M  V30 155 C 10.3308 -2.61846 4.66198 0
M  V30 156 C 11.6308 -0.499354 5.19907 0
M  V30 157 H 13.3248 -0.00824265 2.99399 0
M  V30 158 H 10.8708 -0.0025244 1.44 0
M  V30 159 H 12.8238 -2.39937 3.46422 0
M  V30 160 H 11.5478 -2.39405 2.22155 0
M  V30 161 H 10.2068 -0.756156 3.58717 0
M  V30 162 H 9.8548 -3.21632 3.86732 0
M  V30 163 H 9.5548 -2.3409 5.38958 0
M  V30 164 H 11.0788 -3.24732 5.1709 0
M  V30 165 H 12.4928 -1.02498 5.64063 0
M  V30 166 H 10.8898 -0.316424 5.99265 0
M  V30 167 H 11.9598 0.480459 4.82514 0
M  V30 168 N 13.3029 -1.57598 0.00835791 0
M  V30 169 C 14.2329 -2.1198 -0.979113 0
M  V30 170 C 15.2139 -1.03091 -1.35301 0
M  V30 171 O 16.3989 -1.30818 -1.43528 0
M  V30 172 C 13.5289 -2.62995 -2.26828 0
M  V30 173 C 12.4829 -3.76485 -2.03576 0
M  V30 174 C 11.8089 -4.13846 -3.38579 0
M  V30 175 C 13.1089 -5.0342 -1.39161 0
M  V30 176 H 14.8029 -2.94738 -0.526281 0
M  V30 177 H 12.3489 -1.41783 -0.251704 0
M  V30 178 H 14.3019 -2.99669 -2.96271 0
M  V30 179 H 13.0259 -1.7737 -2.7424 0
M  V30 180 H 11.6849 -3.40217 -1.36557 0
M  V30 181 H 11.3329 -3.25232 -3.83709 0
M  V30 182 H 11.0329 -4.90312 -3.23834 0
M  V30 183 H 12.5569 -4.53086 -4.09323 0
M  V30 184 H 13.9709 -5.37812 -1.98573 0
M  V30 185 H 12.3679 -5.84746 -1.34878 0
M  V30 186 H 13.4379 -4.83548 -0.361868 0
M  V30 187 N 14.781 0.264519 -1.55364 0
M  V30 188 C 16.03 0.992812 -1.75574 0
M  V30 189 C 16.343 1.87142 -0.568979 0
M  V30 190 O 17.549 2.63513 -0.653682 0
M  V30 191 C 16.005 1.81519 -3.10771 0
M  V30 192 C 15.613 0.984839 -4.37041 0
M  V30 193 C 17.357 2.53727 -3.40327 0
M  V30 194 C 15.264 1.80209 -5.63275 0
M  V30 195 H 14.194 0.374412 -0.65447 0
M  V30 196 H 16.845 0.248138 -1.81815 0
M  V30 197 H 15.227 2.60115 -2.98591 0
M  V30 198 H 16.401 0.242455 -4.60162 0
M  V30 199 H 14.716 0.37691 -4.14691 0
M  V30 200 H 17.313 3.15292 -4.3185 0
M  V30 201 H 17.656 3.24447 -2.60845 0
M  V30 202 H 18.189 1.82156 -3.53644 0
M  V30 203 H 14.928 1.13896 -6.45529 0
M  V30 204 H 14.448 2.52022 -5.44284 0
M  V30 205 H 16.127 2.37364 -6.01887 0
M  V30 206 N 16.2591 1.48442 0.529413 0
M  V30 207 C 17.2221 1.62524 1.61612 0
M  V30 208 C 18.2221 0.498509 1.52877 0
M  V30 209 O 19.4121 0.76431 1.56537 0
M  V30 210 C 16.5441 1.59597 3.01233 0
M  V30 211 H 17.7371 2.59423 1.50465 0
M  V30 212 H 15.2901 1.37047 0.751514 0
M  V30 213 H 16.0251 0.641781 3.17886 0
M  V30 214 H 15.8101 2.41397 3.08982 0
M  V30 215 H 17.3001 1.72646 3.80241 0
M  V30 216 N 17.7372 -0.778329 1.37039 0
M  V30 217 C 18.6672 -1.90546 1.34962 0
M  V30 218 C 19.6482 -1.68681 0.219274 0
M  V30 219 O 20.8332 -1.89634 0.418624 0
M  V30 220 C 17.9632 -3.27734 1.14925 0
M  V30 221 C 16.9172 -3.64147 2.24902 0
M  V30 222 C 16.2432 -4.99806 1.89996 0
M  V30 223 C 17.5432 -3.71579 3.67051 0
M  V30 224 H 19.2372 -1.92541 2.29277 0
M  V30 225 H 16.7832 -0.924948 1.10366 0
M  V30 226 H 18.7362 -4.06215 1.12104 0
M  V30 227 H 17.4602 -3.26154 0.170631 0
M  V30 228 H 16.1192 -2.8797 2.26868 0
M  V30 229 H 15.7672 -4.94759 0.906796 0
M  V30 230 H 15.4672 -5.25139 2.63634 0
M  V30 231 H 16.9912 -5.80694 1.88749 0
M  V30 232 H 18.4052 -4.40227 3.67251 0
M  V30 233 H 16.8022 -4.08405 4.39688 0
M  V30 234 H 17.8722 -2.72404 4.01154 0
M  V30 235 N 19.2153 -1.21501 -1.00376 0
M  V30 236 C 20.6263 -1.03146 -1.55621 0
M  V30 237 C 20.9773 0.408375 -1.91903 0
M  V30 238 O 20.1023 1.29177 -1.73616 0
M  V30 239 C 20.6973 -1.86612 -2.82775 0
M  V30 240 C 19.2563 -1.72586 -3.34501 0
M  V30 241 C 18.4033 -1.83747 -2.07683 0
M  V30 242 H 21.3543 -1.35505 -0.826081 0
M  V30 243 H 21.3753 -1.3771 -3.54706 0
M  V30 244 H 20.8873 -2.91399 -2.56336 0
M  V30 245 H 18.9883 -0.704877 -3.65872 0
M  V30 246 H 19.1013 -2.54623 -4.05837 0
M  V30 247 H 17.4653 -1.27069 -2.20739 0
M  V30 248 H 18.2483 -2.90044 -1.83655 0
M  V30 249 N 20.6934 1.19889 -1.02296 0
M  V30 250 C 21.9334 1.91125 -0.724602 0
M  V30 251 C 22.2974 1.77464 0.732835 0
M  V30 252 O 23.4984 2.43241 1.144 0
M  V30 253 C 21.7694 3.38187 -1.15604 0
M  V30 254 S 23.3284 4.27702 -0.980621 0
M  V30 255 H 20.1464 0.66018 -0.263976 0
M  V30 256 H 22.7484 1.44978 -1.31155 0
M  V30 257 H 21.4524 3.45653 -2.21251 0
M  V30 258 H 20.9834 3.89363 -0.562131 0
M  V30 259 H 22.9984 4.96073 0.112225 0
M  V30 260 N 22.1715 0.800033 1.35784 0
M  V30 261 C 23.1015 0.220184 2.3246 0
M  V30 262 C 24.0825 -0.65073 1.57161 0
M  V30 263 O 25.2675 -0.582359 1.85263 0
M  V30 264 C 22.3975 -0.637353 3.41402 0
M  V30 265 C 21.3515 0.134531 4.27789 0
M  V30 266 C 20.6775 -0.844285 5.27992 0
M  V30 267 C 21.9775 1.32979 5.05088 0
M  V30 268 H 23.6715 1.02787 2.81203 0
M  V30 269 H 21.2175 0.495717 1.35199 0
M  V30 270 H 23.1705 -1.05302 4.08031 0
M  V30 271 H 21.8945 -1.47785 2.91251 0
M  V30 272 H 20.5535 0.531296 3.6273 0
M  V30 273 H 20.2015 -1.68011 4.74111 0
M  V30 274 H 19.9015 -0.332184 5.8666 0
M  V30 275 H 21.4255 -1.2583 5.97494 0
M  V30 276 H 22.8395 0.98934 5.64699 0
M  V30 277 H 21.2365 1.77593 5.7322 0
M  V30 278 H 22.3065 2.11978 4.36111 0
M  V30 279 N 23.6496 -1.47581 0.552962 0
M  V30 280 C 24.5796 -2.32762 -0.185451 0
M  V30 281 C 25.5606 -1.43527 -0.912905 0
M  V30 282 O 26.7456 -1.72388 -0.894201 0
M  V30 283 C 23.8756 -3.25219 -1.21859 0
M  V30 284 C 22.8296 -4.23661 -0.607864 0
M  V30 285 C 22.1556 -5.05413 -1.74533 0
M  V30 286 C 23.4556 -5.20481 0.435582 0
M  V30 287 H 25.1496 -2.94749 0.525684 0
M  V30 288 H 22.6956 -1.41738 0.254251 0
M  V30 289 H 24.6486 -3.8365 -1.7433 0
M  V30 290 H 23.3726 -2.61279 -1.95961 0
M  V30 291 H 22.0316 -3.66451 -0.104489 0
M  V30 292 H 21.6796 -4.3788 -2.47529 0
M  V30 293 H 21.3796 -5.72059 -1.34249 0
M  V30 294 H 22.9036 -5.66701 -2.27338 0
M  V30 295 H 24.3176 -5.733 -0.00290157 0
M  V30 296 H 22.7146 -5.95305 0.757067 0
M  V30 297 H 23.7846 -4.66217 1.33303 0
M  V30 298 N 25.1277 -0.289203 -1.54924 0
M  V30 299 C 26.0597 0.625583 -2.20497 0
M  V30 300 C 27.0727 1.10667 -1.19402 0
M  V30 301 O 28.2617 1.02615 -1.46056 0
M  V30 302 C 25.3617 1.86702 -2.82835 0
M  V30 303 C 24.5347 1.5304 -4.09753 0
M  V30 304 C 23.5937 2.62576 -4.56005 0
M  V30 305 O 22.6197 2.28167 -5.21468 0
M  V30 306 N 23.8217 3.92901 -4.27328 0
M  V30 307 H 26.5867 0.0642801 -2.99631 0
M  V30 308 H 24.1477 -0.110896 -1.6152 0
M  V30 309 H 26.1397 2.59304 -3.10715 0
M  V30 310 H 24.7097 2.33702 -2.07611 0
M  V30 311 H 23.9297 0.637564 -3.8901 0
M  V30 312 H 25.2177 1.28072 -4.92418 0
M  V30 313 H 24.6157 4.23671 -3.74859 0
M  V30 314 H 23.1727 4.61837 -4.59946 0
M  V30 315 N 26.6058 1.57591 -0.0167156 0
M  V30 316 C 27.8338 1.95575 0.675128 0
M  V30 317 C 28.2488 0.892542 1.6637 0
M  V30 318 O 27.6058 -0.126912 1.82058 0
M  V30 319 C 27.6568 3.33608 1.39239 0
M  V30 320 O 27.3778 4.3585 0.443444 0
M  V30 321 C 28.8788 3.86151 2.17721 0
M  V30 322 H 26.0988 0.644423 0.186978 0
M  V30 323 H 28.6428 2.0437 -0.0728 0
M  V30 324 H 26.7978 3.2607 2.09182 0
M  V30 325 H 27.2118 5.158 0.951358 0
M  V30 326 H 28.6858 4.85114 2.63379 0
M  V30 327 H 29.1628 3.19738 3.01105 0
M  V30 328 H 29.7688 3.96918 1.52761 0
M  V30 329 N 28.0839 -0.256276 1.55502 0
M  V30 330 C 29.0309 -1.31714 1.89526 0
M  V30 331 C 30.0009 -1.4828 0.748479 0
M  V30 332 O 31.1859 -1.62416 1.00128 0
M  V30 333 C 28.3259 -2.66933 2.18725 0
M  V30 334 C 27.4389 -2.58452 3.4616 0
M  V30 335 C 26.5739 -3.85961 3.64976 0
M  V30 336 C 25.6129 -3.72059 4.86044 0
M  V30 337 N 24.7499 -4.9144 5.01429 0
M  V30 338 H 29.5899 -1.01998 2.80001 0
M  V30 339 H 27.1269 -0.492413 1.38613 0
M  V30 340 H 29.0849 -3.4563 2.33657 0
M  V30 341 H 27.7149 -2.94816 1.31466 0
M  V30 342 H 26.7669 -1.71374 3.3961 0
M  V30 343 H 28.0789 -2.44085 4.34999 0
M  V30 344 H 27.2329 -4.73101 3.79816 0
M  V30 345 H 25.9719 -4.03215 2.74353 0
M  V30 346 H 24.9769 -2.83302 4.7119 0
M  V30 347 H 26.2019 -3.56309 5.78118 0
M  V30 348 H 24.1479 -5.09072 4.13741 0
M  V30 349 H 24.0649 -4.79668 5.84341 0
M  V30 350 H 25.3329 -5.80104 5.20672 0
M  V30 351 N 29.562 -1.4872 -0.521534 0
M  V30 352 C 30.472 -1.66569 -1.65203 0
M  V30 353 C 31.488 -0.548197 -1.65139 0
M  V30 354 O 32.664 -0.820339 -1.83936 0
M  V30 355 C 29.729 -1.70917 -3.01642 0
M  V30 356 C 28.79 -2.94356 -3.12495 0
M  V30 357 C 28.023 -2.98487 -4.42426 0
M  V30 358 O 28.246 -2.10786 -5.30024 0
M  V30 359 O 27.18 -3.90746 -4.57822 0
M  V30 360 H 31.006 -2.62298 -1.5308 0
M  V30 361 H 28.591 -1.3222 -0.695565 0
M  V30 362 H 30.473 -1.7625 -3.82771 0
M  V30 363 H 29.148 -0.783633 -3.14071 0
M  V30 364 H 28.055 -2.94552 -2.3063 0
M  V30 365 H 29.388 -3.86322 -3.04986 0
M  V30 366 N 31.0401 0.771051 -1.3745 0
M  V30 367 C 32.3171 1.519 -1.23231 0
M  V30 368 C 32.6971 2.10383 0.173809 0
M  V30 369 O 32.0451 1.95583 1.18151 0
M  V30 370 C 32.2551 2.59933 -2.32886 0
M  V30 371 C 33.6031 3.27316 -2.70461 0
M  V30 372 O 34.6271 2.70228 -2.32068 0
M  V30 373 O 33.4861 4.30531 -3.36608 0
M  V30 374 H 30.5801 0.672803 -0.480901 0
M  V30 375 H 33.1261 0.807957 -1.49232 0
M  V30 376 H 31.8981 2.14842 -3.27045 0
M  V30 377 H 31.5211 3.38637 -2.08353 0
M  V30 378 N 32.5182 1.22032 0.997298 0
M  V30 379 C 33.9292 1.0397 1.55071 0
M  V30 380 C 34.2802 -0.398192 1.92117 0
M  V30 381 O 33.4052 -1.28254 1.74298 0
M  V30 382 C 34.0002 1.88109 2.81781 0
M  V30 383 C 32.5592 1.74357 3.33581 0
M  V30 384 C 31.7062 1.84846 2.06706 0
M  V30 385 H 34.6572 1.35941 0.818883 0
M  V30 386 H 34.6782 1.39589 3.53971 0
M  V30 387 H 34.1902 2.92754 2.54787 0
M  V30 388 H 32.2912 0.72427 3.65493 0
M  V30 389 H 32.4042 2.56772 4.04481 0
M  V30 390 H 30.7682 1.28238 2.20062 0
M  V30 391 H 31.5512 2.91014 1.82114 0
M  V30 392 N 33.9963 -1.19345 1.0293 0
M  V30 393 C 34.9443 -2.24621 0.604001 0
M  V30 394 C 35.9383 -1.65452 -0.363587 0
M  V30 395 O 37.1443 -1.78497 -0.23212 0
M  V30 396 H 33.5193 -0.730858 0.177061 0
M  V30 397 H 35.4903 -2.5781 1.50255 0
M  V30 398 C 34.2393 -3.47688 -0.0289127 0
M  V30 399 H 33.5623 -3.93505 0.706651 0
M  V30 400 H 35.0023 -4.23011 -0.289432 0
M  V30 401 C 33.4613 -3.11817 -1.2756 0
M  V30 402 O 33.9913 -3.2451 -2.36762 0
M  V30 403 N 32.1973 -2.66246 -1.16453 0
M  V30 404 H 31.7443 -2.56118 -0.275914 0
M  V30 405 H 31.7023 -2.42617 -1.99961 0
M  V30 406 N 35.4744 -0.807222 -1.35358 0
M  V30 407 C 36.8854 -0.44876 -1.81226 0
M  V30 408 C 37.2364 1.02929 -1.67033 0
M  V30 409 O 36.3614 1.79991 -1.20133 0
M  V30 410 C 36.9564 -0.807774 -3.2903 0
M  V30 411 C 35.5154 -0.501901 -3.73039 0
M  V30 412 C 34.6624 -1.03304 -2.57339 0
M  V30 413 H 37.6134 -0.998808 -1.23327 0
M  V30 414 H 37.6344 -0.10554 -3.80354 0
M  V30 415 H 37.1464 -1.88357 -3.39328 0
M  V30 416 H 35.2474 0.565128 -3.68289 0
M  V30 417 H 35.3604 -1.03497 -4.67787 0
M  V30 418 H 33.7244 -0.455339 -2.50597 0
M  V30 419 H 34.5074 -2.11496 -2.70415 0
M  V30 420 N 36.9525 1.47285 -0.560781 0
M  V30 421 C 38.3635 1.86258 -0.128343 0
M  V30 422 C 38.7145 1.46699 1.30284 0
M  V30 423 O 37.8395 0.871698 1.98067 0
M  V30 424 C 38.4345 3.38044 -0.22614 0
M  V30 425 C 36.9935 3.76096 0.151283 0
M  V30 426 C 36.1405 2.71335 -0.572084 0
M  V30 427 H 39.0915 1.38752 -0.770297 0
M  V30 428 H 39.1125 3.76441 0.554322 0
M  V30 429 H 38.6245 3.66806 -1.26788 0
M  V30 430 H 36.7255 3.52951 1.19399 0
M  V30 431 H 36.8385 4.78641 -0.209765 0
M  V30 432 H 35.2025 2.54696 -0.0147653 0
M  V30 433 H 35.9855 3.02938 -1.61504 0
M  V30 434 N 38.4306 0.297415 1.54768 0
M  V30 435 C 39.6796 -0.313669 1.99246 0
M  V30 436 C 39.9926 -1.55281 1.18942 0
M  V30 437 O 41.1986 -2.23825 1.5367 0
M  V30 438 C 39.6546 -0.609407 3.54703 0
M  V30 439 C 39.2626 0.611192 4.43811 0
M  V30 440 C 41.0066 -1.18188 4.07715 0
M  V30 441 C 38.9136 0.288805 5.90694 0
M  V30 442 H 37.8436 -0.120979 0.744231 0
M  V30 443 H 40.4946 0.40556 1.78962 0
M  V30 444 H 38.8766 -1.38813 3.70873 0
M  V30 445 H 40.0506 1.3875 4.39414 0
M  V30 446 H 38.3656 1.10205 4.01552 0
M  V30 447 H 40.9626 -1.43727 5.15021 0
M  V30 448 H 41.3056 -2.12299 3.58099 0
M  V30 449 H 41.8386 -0.464944 3.95074 0
M  V30 450 H 38.5776 1.19838 6.44453 0
M  V30 451 H 38.0976 -0.450305 5.98107 0
M  V30 452 H 39.7766 -0.110933 6.46905 0
M  V30 453 N 39.9087 -1.5758 0.0250728 0
M  V30 454 C 41.1367 -1.9593 -0.664747 0
M  V30 455 C 41.5517 -0.901352 -1.65895 0
M  V30 456 O 40.9087 0.117255 -1.82123 0
M  V30 457 C 40.9597 -3.34342 -1.37468 0
M  V30 458 O 40.6807 -4.36079 -0.420324 0
M  V30 459 C 42.1817 -3.873 -2.1567 0
M  V30 460 H 39.4017 -0.645405 -0.183557 0
M  V30 461 H 41.9457 -2.04329 0.0836372 0
M  V30 462 H 40.1007 -3.27175 -2.0745 0
M  V30 463 H 40.5147 -5.16297 -0.923991 0
M  V30 464 H 41.9887 -4.86504 -2.60803 0
M  V30 465 H 42.4657 -3.21331 -2.99405 0
M  V30 466 H 43.0717 -3.97723 -1.50654 0
M  V30 467 N 41.3868 0.248026 -1.55636 0
M  V30 468 C 42.3348 1.32683 -1.91045 0
M  V30 469 C 43.3288 1.49883 -0.789401 0
M  V30 470 O 44.5348 1.51371 -0.974007 0
M  V30 471 H 40.9098 0.444272 -0.606734 0
M  V30 472 H 42.8808 1.00085 -2.81115 0
M  V30 473 C 41.6298 2.6755 -2.22064 0
M  V30 474 H 40.9528 2.55114 -3.07826 0
M  V30 475 H 42.3928 3.41912 -2.50743 0
M  V30 476 C 40.8518 3.20556 -1.0366 0
M  V30 477 O 41.3818 4.00695 -0.284016 0
M  V30 478 N 39.5878 2.78568 -0.82753 0
M  V30 479 H 39.1348 2.1351 -1.44123 0
M  V30 480 H 39.0928 3.14378 -0.0369803 0
M  V30 481 N 42.8649 1.48995 0.513639 0
M  V30 482 C 43.7949 1.67636 1.62544 0
M  V30 483 C 44.7759 0.525087 1.61793 0
M  V30 484 O 45.9609 0.759502 1.78732 0
M  V30 485 C 43.0909 1.73114 3.01079 0
M  V30 486 C 42.0449 2.87905 3.16693 0
M  V30 487 C 41.3709 2.78486 4.56453 0
M  V30 488 C 42.6709 4.29005 2.97913 0
M  V30 489 H 44.3649 2.60716 1.47198 0
M  V30 490 H 41.9109 1.25465 0.706714 0
M  V30 491 H 43.8639 1.84742 3.78746 0
M  V30 492 H 42.5879 0.766241 3.17484 0
M  V30 493 H 41.2469 2.75859 2.41448 0
M  V30 494 H 40.8949 1.7993 4.69717 0
M  V30 495 H 40.5949 3.55523 4.67843 0
M  V30 496 H 42.1189 2.92104 5.36197 0
M  V30 497 H 43.5329 4.41798 3.65359 0
M  V30 498 H 41.9299 5.07166 3.20785 0
M  V30 499 H 42.9999 4.44329 1.94165 0
M  V30 500 N 44.343 -0.763751 1.37857 0
M  V30 501 C 45.759 -1.06542 1.18832 0
M  V30 502 C 45.959 -2.01478 0.0299722 0
M  V30 503 O 45.015 -2.4458 -0.627447 0
M  V30 504 C 46.328 -1.65525 2.51042 0
M  V30 505 C 47.876 -1.77745 2.57635 0
M  V30 506 C 48.351 -2.4014 3.89996 0
M  V30 507 N 49.842 -2.47582 3.91481 0
M  V30 508 C 50.577 -2.96732 4.9065 0
M  V30 509 N 50.073 -3.45993 6.00217 0
M  V30 510 N 51.866 -2.95679 4.78048 0
M  V30 511 H 44.017 -0.133556 2.1198 0
M  V30 512 H 46.28 -0.121879 0.940133 0
M  V30 513 H 45.986 -1.03236 3.36207 0
M  V30 514 H 45.86 -2.64719 2.68707 0
M  V30 515 H 48.247 -2.39164 1.72872 0
M  V30 516 H 48.328 -0.772836 2.43846 0
M  V30 517 H 47.972 -1.79358 4.75177 0
M  V30 518 H 47.902 -3.41223 4.01092 0
M  V30 519 H 50.393 -2.1273 3.12337 0
M  V30 520 H 50.706 -3.81922 6.7183 0
M  V30 521 H 49.051 -3.44077 6.03851 0
M  V30 522 H 52.242 -2.56499 3.91568 0
M  V30 523 H 52.415 -3.33672 5.55488 0
M  V30 524 N 45.8211 -1.22559 -0.990812 0
M  V30 525 C 46.7541 -0.940773 -2.07905 0
M  V30 526 C 47.7321 0.117082 -1.62178 0
M  V30 527 O 48.9161 -0.0149506 -1.88494 0
M  V30 528 C 46.0431 -0.415321 -3.36144 0
M  V30 529 C 45.0891 -1.45818 -4.00799 0
M  V30 530 S 45.9221 -3.03219 -4.41382 0
M  V30 531 C 47.0781 -2.52317 -5.72789 0
M  V30 532 H 47.3111 -1.8623 -2.31745 0
M  V30 533 H 44.8441 -1.05688 -1.12558 0
M  V30 534 H 46.8021 -0.118747 -4.10328 0
M  V30 535 H 45.4631 0.485121 -3.10331 0
M  V30 536 H 44.6561 -1.04044 -4.93144 0
M  V30 537 H 44.2581 -1.70356 -3.32949 0
M  V30 538 H 46.5501 -1.93688 -6.49224 0
M  V30 539 H 47.4931 -3.43161 -6.19392 0
M  V30 540 H 47.9011 -1.93529 -5.30289 0
M  V30 541 N 47.2992 1.18797 -1.03562 0
M  V30 542 C 48.2462 2.22253 -0.622259 0
M  V30 543 C 49.2162 1.61987 0.36736 0
M  V30 544 O 50.4012 1.88986 0.262492 0
M  V30 545 C 47.5412 3.45097 0.0138462 0
M  V30 546 C 46.6542 4.19722 -1.02263 0
M  V30 547 C 45.7892 5.30009 -0.355573 0
M  V30 548 C 44.8282 5.96399 -1.37749 0
M  V30 549 N 43.9652 6.98234 -0.735766 0
M  V30 550 H 48.8052 2.56968 -1.50903 0
M  V30 551 H 46.3422 1.26245 -0.755017 0
M  V30 552 H 48.3002 4.15279 0.399948 0
M  V30 553 H 46.9302 3.11018 0.864158 0
M  V30 554 H 45.9822 3.48418 -1.52673 0
M  V30 555 H 47.2942 4.65227 -1.79903 0
M  V30 556 H 46.4482 6.0664 0.0850095 0
M  V30 557 H 45.1872 4.85592 0.452967 0
M  V30 558 H 44.1922 5.18512 -1.82826 0
M  V30 559 H 45.4172 6.42899 -2.18764 0
M  V30 560 H 43.3632 6.55979 0.0525597 0
M  V30 561 H 43.2802 7.41965 -1.44995 0
M  V30 562 H 44.5482 7.78845 -0.31941 0
M  V30 563 N 48.7773 0.814389 1.34928 0
M  V30 564 C 49.7403 0.235759 2.27984 0
M  V30 565 C 50.7403 -0.581412 1.49921 0
M  V30 566 O 51.9303 -0.398758 1.69575 0
M  V30 567 C 49.0623 -0.670433 3.34242 0
M  V30 568 H 50.2553 1.05659 2.80671 0
M  V30 569 H 47.8083 0.585614 1.44915 0
M  V30 570 H 48.5433 -1.51466 2.86755 0
M  V30 571 H 48.3283 -0.0860822 3.92005 0
M  V30 572 H 49.8183 -1.06935 4.03676 0
M  V30 573 N 50.2554 -1.46986 0.568584 0
M  V30 574 C 51.2024 -2.30153 -0.172707 0
M  V30 575 C 52.1724 -1.39759 -0.897586 0
M  V30 576 O 53.3574 -1.68716 -0.891044 0
M  V30 577 C 50.4974 -3.23952 -1.1895 0
M  V30 578 C 49.6104 -4.29441 -0.469517 0
M  V30 579 C 48.7454 -5.1038 -1.47259 0
M  V30 580 C 47.7844 -6.07632 -0.738225 0
M  V30 581 N 46.9214 -6.8149 -1.68868 0
M  V30 582 H 51.7614 -2.93019 0.542596 0
M  V30 583 H 49.2984 -1.44422 0.279401 0
M  V30 584 H 51.2564 -3.76767 -1.79173 0
M  V30 585 H 49.8864 -2.62926 -1.87269 0
M  V30 586 H 48.9384 -3.79594 0.247467 0
M  V30 587 H 50.2504 -4.98689 0.105241 0
M  V30 588 H 49.4044 -5.67402 -2.14803 0
M  V30 589 H 48.1434 -4.4106 -2.08128 0
M  V30 590 H 47.1484 -5.49778 -0.0489293 0
M  V30 591 H 48.3734 -6.78966 -0.135129 0
M  V30 592 H 46.3194 -6.14891 -2.28573 0
M  V30 593 H 46.2364 -7.46948 -1.16636 0
M  V30 594 H 47.5044 -7.43078 -2.3549 0
M  V30 595 N 51.7335 -0.305618 -1.54608 0
M  V30 596 C 52.6965 0.555591 -2.22364 0
M  V30 597 C 53.6965 1.05768 -1.21119 0
M  V30 598 O 54.8865 0.952972 -1.45822 0
M  V30 599 C 52.0185 1.76974 -2.91364 0
M  V30 600 H 53.2115 -0.0364572 -2.99878 0
M  V30 601 H 50.7645 -0.0565007 -1.56198 0
M  V30 602 H 51.4995 2.40151 -2.17941 0
M  V30 603 H 51.2845 1.41732 -3.65588 0
M  V30 604 H 52.7745 2.38148 -3.43038 0
M  V30 605 N 53.2116 1.57565 -0.0334293 0
M  V30 606 C 54.1436 2.0739 0.975811 0
M  V30 607 C 55.1566 0.998166 1.2861 0
M  V30 608 O 56.3456 1.27426 1.25 0
M  V30 609 C 53.4456 2.4871 2.30209 0
M  V30 610 C 52.6186 3.79413 2.17634 0
M  V30 611 C 51.6776 4.07237 3.33233 0
M  V30 612 O 50.7036 4.77425 3.09927 0
M  V30 613 N 51.9056 3.5775 4.5716 0
M  V30 614 H 54.6706 2.94598 0.55066 0
M  V30 615 H 52.2316 1.61173 0.15323 0
M  V30 616 H 54.2236 2.64413 3.06378 0
M  V30 617 H 52.7936 1.66845 2.64351 0
M  V30 618 H 52.0136 3.73465 1.26165 0
M  V30 619 H 53.3016 4.65038 2.0644 0
M  V30 620 H 52.6996 3.00976 4.78989 0
M  V30 621 H 51.2566 3.78724 5.30482 0
M  V30 622 N 54.6897 -0.239769 1.55765 0
M  V30 623 C 55.6217 -1.32001 1.87372 0
M  V30 624 C 56.6347 -1.43944 0.760522 0
M  V30 625 O 57.8237 -1.45167 1.0387 0
M  V30 626 C 54.9237 -2.69779 2.05115 0
M  V30 627 C 54.0967 -2.80014 3.36022 0
M  V30 628 C 53.1557 -3.98684 3.4342 0
M  V30 629 O 52.1817 -3.87877 4.16582 0
M  V30 630 N 53.3837 -5.12176 2.73232 0
M  V30 631 H 56.1487 -1.0522 2.80622 0
M  V30 632 H 53.7097 -0.429857 1.56089 0
M  V30 633 H 55.7017 -3.47517 2.07399 0
M  V30 634 H 54.2717 -2.89237 1.18577 0
M  V30 635 H 53.4917 -1.88896 3.45994 0
M  V30 636 H 54.7797 -2.83808 4.22292 0
M  V30 637 H 54.1777 -5.2385 2.13536 0
M  V30 638 H 52.7347 -5.88022 2.81199 0
M  V30 639 N 56.1678 -1.49265 -0.50573 0
M  V30 640 C 57.0978 -1.68495 -1.61653 0
M  V30 641 C 58.0788 -0.53366 -1.61512 0
M  V30 642 O 59.2638 -0.76897 -1.78327 0
M  V30 643 C 56.3938 -1.74709 -3.00157 0
M  V30 644 C 55.3478 -2.89581 -3.15162 0
M  V30 645 C 54.6738 -2.80903 -4.5497 0
M  V30 646 C 55.9738 -4.30578 -2.95634 0
M  V30 647 H 57.6678 -2.61493 -1.45814 0
M  V30 648 H 55.2138 -1.25838 -0.70005 0
M  V30 649 H 57.1668 -1.86748 -3.77761 0
M  V30 650 H 55.8908 -0.783067 -3.17074 0
M  V30 651 H 54.5498 -2.77136 -2.39982 0
M  V30 652 H 54.1978 -1.82419 -4.68756 0
M  V30 653 H 53.8978 -3.57999 -4.65951 0
M  V30 654 H 55.4218 -2.94944 -5.34641 0
M  V30 655 H 56.8358 -4.4373 -3.63011 0
M  V30 656 H 55.2328 -5.0886 -3.18091 0
M  V30 657 H 56.3028 -4.45352 -1.91806 0
M  V30 658 N 57.6459 0.756429 -1.3826 0
M  V30 659 C 58.8739 1.54565 -1.3754 0
M  V30 660 C 59.2889 1.88767 0.0355331 0
M  V30 661 O 58.6459 1.52572 1.0014 0
M  V30 662 C 58.6969 2.84654 -2.22833 0
M  V30 663 O 58.4179 2.51912 -3.5843 0
M  V30 664 C 59.9189 3.78807 -2.30261 0
M  V30 665 H 57.1389 0.478353 -0.470553 0
M  V30 666 H 59.6829 0.936381 -1.81803 0
M  V30 667 H 57.8379 3.41965 -1.8204 0
M  V30 668 H 58.2519 3.35325 -4.03308 0
M  V30 669 H 59.7259 4.67045 -2.94233 0
M  V30 670 H 60.2029 4.19038 -1.31545 0
M  V30 671 H 60.8089 3.2742 -2.71433 0
M  V30 672 N 59.124 1.23083 0.984299 0
M  V30 673 C 60.37 1.07221 1.72845 0
M  V30 674 C 60.725 -0.387453 1.88458 0
M  V30 675 O 60.018 -1.28309 1.42293 0
M  V30 676 C 60.212 1.72673 3.1292 0
M  V30 677 C 60.041 3.24853 3.10967 0
M  V30 678 C 58.811 3.93998 3.16376 0
M  V30 679 C 61.009 4.21674 2.94441 0
M  V30 680 N 58.991 5.33192 3.04268 0
M  V30 681 C 60.362 5.47756 2.90453 0
M  V30 682 C 62.417 4.12457 2.78897 0
M  V30 683 C 61.12 6.6568 2.72512 0
M  V30 684 C 63.146 5.3004 2.62319 0
M  V30 685 C 62.508 6.55046 2.59026 0
M  V30 686 H 58.607 0.44685 0.641755 0
M  V30 687 H 61.191 1.55753 1.16829 0
M  V30 688 H 59.362 1.26679 3.67161 0
M  V30 689 H 61.094 1.49824 3.75945 0
M  V30 690 H 57.849 3.45052 3.24401 0
M  V30 691 H 58.273 6.06157 3.015 0
M  V30 692 H 62.915 3.16588 2.80235 0
M  V30 693 H 60.633 7.61689 2.69919 0
M  V30 694 H 64.219 5.24747 2.5126 0
M  V30 695 H 63.099 7.44498 2.46357 0
M  V30 696 N 60.6021 -1.18246 1.0419 0
M  V30 697 C 61.8791 -1.84121 0.660208 0
M  V30 698 C 62.2591 -1.92778 -0.860221 0
M  V30 699 O 61.6071 -1.45464 -1.76217 0
M  V30 700 C 61.8171 -3.22355 1.33747 0
M  V30 701 C 63.1651 -3.98376 1.46906 0
M  V30 702 O 64.1891 -3.31799 1.29568 0
M  V30 703 O 63.0481 -5.17665 1.75171 0
M  V30 704 H 60.1421 -0.794036 0.231161 0
M  V30 705 H 62.6881 -1.25628 1.14087 0
M  V30 706 H 61.4601 -3.10964 2.37522 0
M  V30 707 H 61.0831 -3.88506 0.845515 0
M  V30 708 N 62.0802 -0.821533 -1.34494 0
M  V30 709 C 63.0102 -0.257138 -2.3208 0
M  V30 710 C 63.9912 0.625645 -1.58176 0
M  V30 711 O 65.1762 0.552811 -1.86166 0
M  V30 712 C 62.3062 0.582958 -3.42372 0
M  V30 713 C 61.2602 -0.202571 -4.2752 0
M  V30 714 C 60.5862 0.760179 -5.29269 0
M  V30 715 C 61.8862 -1.40998 -5.02908 0
M  V30 716 H 63.5802 -1.07247 -2.79532 0
M  V30 717 H 61.1262 -0.517163 -1.34393 0
M  V30 718 H 63.0792 0.987972 -4.09655 0
M  V30 719 H 61.8032 1.43133 -2.93565 0
M  V30 720 H 60.4622 -0.588936 -3.61838 0
M  V30 721 H 60.1102 1.60447 -4.76724 0
M  V30 722 H 59.8102 0.238809 -5.87115 0
M  V30 723 H 61.3342 1.16308 -5.9942 0
M  V30 724 H 62.7482 -1.07905 -5.63054 0
M  V30 725 H 61.1452 -1.86689 -5.70322 0
M  V30 726 H 62.2152 -2.1889 -4.32684 0
M  V30 727 N 63.5583 1.46682 -0.576371 0
M  V30 728 C 64.5063 2.31953 0.17335 0
M  V30 729 C 65.5003 1.44098 0.89062 0
M  V30 730 O 66.7063 1.60759 0.809728 0
M  V30 731 H 63.0813 0.748273 0.0747727 0
M  V30 732 H 65.0523 2.93007 -0.564738 0
M  V30 733 C 63.8013 3.27142 1.17786 0
M  V30 734 H 63.1243 3.94719 0.635361 0
M  V30 735 H 64.5643 3.896 1.67296 0
M  V30 736 C 63.0233 2.52036 2.23561 0
M  V30 737 O 63.5533 2.27877 3.3081 0
M  V30 738 N 61.7593 2.12709 1.97998 0
M  V30 739 H 61.3063 2.32557 1.10792 0
M  V30 740 H 61.2643 1.62776 2.68982 0
M  V30 741 N 65.0364 0.313813 1.54444 0
M  V30 742 C 66.4524 -0.0391619 1.59552 0
M  V30 743 C 66.6524 -1.51322 1.33056 0
M  V30 744 O 65.7084 -2.26782 1.11022 0
M  V30 745 C 67.0214 0.370302 2.98411 0
M  V30 746 C 68.5694 0.320139 3.11358 0
M  V30 747 C 69.0444 0.704617 4.52547 0
M  V30 748 N 70.5354 0.657645 4.58508 0
M  V30 749 C 71.2704 0.927453 5.6585 0
M  V30 750 N 70.7664 1.26389 6.81174 0
M  V30 751 N 72.5594 0.853662 5.5558 0
M  V30 752 H 64.7104 1.27433 1.69925 0
M  V30 753 H 66.9734 0.517511 0.794284 0
M  V30 754 H 66.6794 1.39694 3.22767 0
M  V30 755 H 66.5534 -0.269619 3.76235 0
M  V30 756 H 68.9404 -0.697275 2.86744 0
M  V30 757 H 69.0214 0.99486 2.35661 0
M  V30 758 H 68.6654 1.7199 4.77893 0
M  V30 759 H 68.5954 0.00768843 5.26599 0
M  V30 760 H 71.0864 0.409067 3.75679 0
M  V30 761 H 71.3994 1.4554 7.58972 0
M  V30 762 H 69.7444 1.30206 6.82694 0
M  V30 763 H 72.9354 0.590383 4.64362 0
M  V30 764 H 73.1084 1.0673 6.3915 0
M  V30 765 N 66.5145 -1.57545 0.0417849 0
M  V30 766 C 67.4625 -2.12148 -0.953723 0
M  V30 767 C 68.4565 -1.05104 -1.32852 0
M  V30 768 O 69.6625 -1.23524 -1.30927 0
M  V30 769 H 66.0375 -0.677957 -0.325389 0
M  V30 770 H 68.0085 -2.94707 -0.467991 0
M  V30 771 C 66.7575 -2.6739 -2.22257 0
M  V30 772 H 66.0805 -3.49413 -1.94295 0
M  V30 773 H 67.5205 -3.09227 -2.90094 0
M  V30 774 C 65.9795 -1.60723 -2.96091 0
M  V30 775 O 66.5095 -1.01449 -3.88679 0
M  V30 776 N 64.7155 -1.32466 -2.58652 0
M  V30 777 H 64.2625 -1.80856 -1.83437 0
M  V30 778 H 64.2205 -0.61325 -3.08361 0
M  V30 779 N 67.9926 0.231505 -1.5589 0
M  V30 780 C 69.2386 0.95877 -1.78705 0
M  V30 781 C 69.5716 1.8438 -0.609725 0
M  V30 782 O 68.8466 1.90521 0.391426 0
M  V30 783 C 69.1296 1.8062 -3.11526 0
M  V30 784 C 68.9826 0.948328 -4.39689 0
M  V30 785 C 70.3016 2.78585 -3.40703 0
M  V30 786 H 67.4206 0.347129 -0.650131 0
M  V30 787 H 70.0626 0.228259 -1.88624 0
M  V30 788 H 68.2126 2.42902 -3.03201 0
M  V30 789 H 69.8846 0.343016 -4.60023 0
M  V30 790 H 68.1276 0.253314 -4.3306 0
M  V30 791 H 68.7986 1.57543 -5.29041 0
M  V30 792 H 71.2746 2.26439 -3.49091 0
M  V30 793 H 70.1506 3.34988 -4.34826 0
M  V30 794 H 70.4116 3.55825 -2.62375 0
M  V30 795 N 69.4707 1.49531 0.497807 0
M  V30 796 C 70.6987 1.62893 1.27567 0
M  V30 797 C 71.1137 0.301585 1.86376 0
M  V30 798 O 70.4707 -0.713335 1.67982 0
M  V30 799 C 70.5217 2.70013 2.40364 0
M  V30 800 O 70.2427 3.976 1.83972 0
M  V30 801 C 71.7437 2.94109 3.31685 0
M  V30 802 H 68.9637 0.548298 0.386794 0
M  V30 803 H 71.5077 1.95584 0.597245 0
M  V30 804 H 69.6627 2.40092 3.04031 0
M  V30 805 H 70.0767 4.56631 2.58047 0
M  V30 806 H 71.5507 3.72788 4.07104 0
M  V30 807 H 72.0277 2.04147 3.88871 0
M  V30 808 H 72.6337 3.2546 2.73781 0
M  V30 809 N 70.9488 -0.749086 1.3866 0
M  V30 810 C 72.2258 -1.4992 1.25632 0
M  V30 811 C 72.6058 -2.10633 -0.140317 0
M  V30 812 O 71.9538 -1.97437 -1.15025 0
M  V30 813 C 72.1638 -2.56195 2.36992 0
M  V30 814 C 73.5118 -3.22972 2.75634 0
M  V30 815 O 74.5358 -2.66502 2.36337 0
M  V30 816 O 73.3948 -4.25122 3.43415 0
M  V30 817 H 70.4888 -0.665067 0.491544 0
M  V30 818 H 73.0348 -0.784113 1.50498 0
M  V30 819 H 71.8068 -2.09612 3.30422 0
M  V30 820 H 71.4298 -3.35279 2.13714 0
M  V30 821 N 72.4269 -1.23603 -0.977757 0
M  V30 822 C 73.6759 -1.06377 -1.71368 0
M  V30 823 C 73.9889 0.399062 -1.91486 0
M  V30 824 O 75.1949 0.691312 -2.62551 0
M  V30 825 C 73.6509 -1.85512 -3.08404 0
M  V30 826 C 73.2589 -3.36141 -2.96164 0
M  V30 827 C 75.0029 -1.76783 -3.85938 0
M  V30 828 C 72.9099 -4.07659 -4.28449 0
M  V30 829 H 71.8399 -0.394452 -0.642591 0
M  V30 830 H 74.4909 -1.47594 -1.09034 0
M  V30 831 H 72.8729 -1.37103 -3.71509 0
M  V30 832 H 74.0469 -3.92056 -2.42133 0
M  V30 833 H 72.3619 -3.45712 -2.32104 0
M  V30 834 H 74.9589 -2.27526 -4.83876 0
M  V30 835 H 75.3019 -0.731116 -4.0983 0
M  V30 836 H 75.8349 -2.22818 -3.2954 0
M  V30 837 H 72.5739 -5.11648 -4.09752 0
M  V30 838 H 72.0939 -3.5653 -4.82334 0
M  V30 839 H 73.7729 -4.141 -4.97122 0
M  V30 840 N 73.905 1.17692 -1.04816 0
M  V30 841 C 74.815 2.25229 -0.65643 0
M  V30 842 C 75.831 1.71018 0.320761 0
M  V30 843 O 77.007 2.00649 0.173805 0
M  V30 844 C 74.072 3.46684 -0.0332629 0
M  V30 845 C 73.133 4.15997 -1.06042 0
M  V30 846 C 72.366 5.31654 -0.466893 0
M  V30 847 O 72.589 5.65777 0.724758 0
M  V30 848 O 71.523 5.89831 -1.1993 0
M  V30 849 H 75.349 2.61016 -1.55255 0
M  V30 850 H 72.934 1.24919 -0.81949 0
M  V30 851 H 74.816 4.20234 0.313256 0
M  V30 852 H 73.491 3.12703 0.836566 0
M  V30 853 H 72.398 3.44482 -1.45886 0
M  V30 854 H 73.731 4.53996 -1.90127 0
M  V30 855 N 75.3831 0.828654 1.34056 0
M  V30 856 C 76.6231 0.425394 1.99924 0
M  V30 857 C 76.9871 -0.994294 1.64249 0
M  V30 858 O 78.1881 -1.50074 2.23005 0
M  V30 859 C 76.4591 0.628071 3.51838 0
M  V30 860 S 78.0181 0.318511 4.37642 0
M  V30 861 H 74.8361 0.160465 0.692656 0
M  V30 862 H 77.4381 1.07572 1.63244 0
M  V30 863 H 76.1421 1.66089 3.7529 0
M  V30 864 H 75.6731 -0.0367799 3.93383 0
M  V30 865 H 77.6881 -0.865632 4.88591 0
M  V30 866 N 76.8612 -1.46375 0.584142 0
M  V30 867 C 78.1072 -2.02678 0.0703716 0
M  V30 868 C 78.4402 -1.4545 -1.28678 0
M  V30 869 O 77.7152 -0.62014 -1.84349 0
M  V30 870 C 77.9982 -3.60099 0.00614674 0
M  V30 871 C 77.8512 -4.27709 1.3923 0
M  V30 872 C 79.1702 -4.34598 -0.693742 0
M  V30 873 H 76.2892 -0.736504 0.027047 0
M  V30 874 H 78.9312 -1.74501 0.751615 0
M  V30 875 H 77.0812 -3.84236 -0.574009 0
M  V30 876 H 78.7532 -4.14832 2.01773 0
M  V30 877 H 76.9962 -3.87016 1.95962 0
M  V30 878 H 77.6672 -5.36478 1.29982 0
M  V30 879 H 80.1432 -4.15615 -0.200869 0
M  V30 880 H 79.0192 -5.44318 -0.707714 0
M  V30 881 H 79.2802 -4.05759 -1.75533 0
M  V30 882 N 78.3393 -0.321999 -1.54275 0
M  V30 883 C 79.2863 0.544664 -2.24281 0
M  V30 884 C 80.2563 1.1129 -1.23303 0
M  V30 885 O 81.4413 1.15354 -1.51981 0
M  V30 886 C 78.5813 1.70045 -3.00298 0
M  V30 887 C 77.6943 1.16159 -4.1609 0
M  V30 888 C 76.8293 2.28293 -4.79641 0
M  V30 889 C 75.8683 1.71648 -5.8754 0
M  V30 890 N 75.0053 2.77438 -6.44959 0
M  V30 891 H 79.8453 -0.0588907 -2.97942 0
M  V30 892 H 77.3823 -0.0408345 -1.47043 0
M  V30 893 H 79.3403 2.38054 -3.42616 0
M  V30 894 H 77.9703 2.27531 -2.28975 0
M  V30 895 H 77.0223 0.373092 -3.78566 0
M  V30 896 H 78.3343 0.707087 -4.93763 0
M  V30 897 H 77.4883 3.0421 -5.2492 0
M  V30 898 H 76.2273 2.77079 -4.01346 0
M  V30 899 H 75.2323 0.942282 -5.41665 0
M  V30 900 H 76.4573 1.23741 -6.67731 0
M  V30 901 H 74.4033 3.25519 -5.69538 0
M  V30 902 H 74.3203 2.36547 -7.1804 0
M  V30 903 H 75.5883 3.53189 -6.94894 0
M  V30 904 N 79.8174 1.5752 -0.0501392 0
M  V30 905 C 81.0944 1.83996 0.663685 0
M  V30 906 C 81.4744 0.938339 1.89099 0
M  V30 907 O 80.8224 -0.00087759 2.285 0
M  V30 908 C 81.0324 3.33702 1.02196 0
M  V30 909 C 82.3804 4.00691 1.40469 0
M  V30 910 O 83.4044 3.38321 1.11433 0
M  V30 911 O 82.2634 5.10658 1.94654 0
M  V30 912 H 79.3574 0.759385 0.32751 0
M  V30 913 H 81.9034 1.69514 -0.0794238 0
M  V30 914 H 80.6754 3.91015 0.149364 0
M  V30 915 H 80.2984 3.53368 1.82255 0
M  V30 916 N 81.2955 -0.223234 1.56011 0
M  V30 917 C 82.2585 -1.26014 1.9145 0
M  V30 918 C 83.2585 -1.3989 0.792937 0
M  V30 919 O 84.4485 -1.38184 1.0607 0
M  V30 920 C 81.5805 -2.63422 2.16383 0
M  V30 921 H 82.7735 -0.95796 2.84189 0
M  V30 922 H 80.3265 -0.463576 1.49267 0
M  V30 923 H 81.0615 -2.98741 1.2619 0
M  V30 924 H 80.8465 -2.54728 2.98088 0
M  V30 925 H 82.3365 -3.38249 2.44903 0
M  V30 926 N 82.7736 -1.49793 -0.48987 0
M  V30 927 C 84.0506 -1.50348 -1.25119 0
M  V30 928 C 84.4306 -0.237466 -2.0976 0
M  V30 929 O 83.7786 0.77981 -2.14782 0
M  V30 930 C 83.9886 -2.78872 -2.09837 0
M  V30 931 C 85.3366 -3.288 -2.68655 0
M  V30 932 O 86.3606 -2.80065 -2.20096 0
M  V30 933 O 85.2196 -4.13707 -3.57083 0
M  V30 934 H 82.3136 -0.602242 -0.566775 0
M  V30 935 H 84.8596 -1.62067 -0.503229 0
M  V30 936 H 83.6316 -3.62499 -1.47343 0
M  V30 937 H 83.2546 -2.70066 -2.91805 0
M  V30 938 N 84.2517 0.741722 -1.39055 0
M  V30 939 C 85.4817 1.52876 -1.3897 0
M  V30 940 C 85.8897 1.8919 0.0193266 0
M  V30 941 O 85.2327 1.54138 0.999356 0
M  V30 942 C 85.2947 2.84929 -2.19216 0
M  V30 943 C 84.9587 2.71086 -3.67915 0
M  V30 944 C 85.9557 2.40084 -4.61146 0
M  V30 945 C 83.6407 2.88168 -4.11418 0
M  V30 946 C 85.6347 2.26335 -5.95862 0
M  V30 947 C 83.3217 2.74037 -5.46211 0
M  V30 948 C 84.3197 2.43166 -6.38247 0
M  V30 949 O 84.0077 2.29115 -7.70559 0
M  V30 950 H 83.7397 0.479252 -0.476753 0
M  V30 951 H 86.2937 0.924751 -1.83405 0
M  V30 952 H 84.5237 3.47564 -1.69518 0
M  V30 953 H 86.2127 3.46509 -2.11392 0
M  V30 954 H 86.9787 2.26545 -4.28838 0
M  V30 955 H 82.8577 3.11191 -3.40119 0
M  V30 956 H 86.4017 2.0216 -6.67665 0
M  V30 957 H 82.2987 2.87153 -5.78112 0
M  V30 958 H 83.0667 2.44237 -7.81211 0
M  V30 959 N 85.7298 1.2412 0.971189 0
M  V30 960 C 86.9548 1.10667 1.75407 0
M  V30 961 C 87.3798 -0.337048 1.85056 0
M  V30 962 O 86.7378 -1.24396 1.31892 0
M  V30 963 C 86.7858 1.74726 3.15441 0
M  V30 964 O 85.8898 1.01566 3.99697 0
M  V30 965 H 85.2308 0.387341 0.539317 0
M  V30 966 H 87.7608 1.64358 1.2185 0
M  V30 967 H 87.7708 1.80341 3.6598 0
M  V30 968 H 86.4458 2.79773 3.07734 0
M  V30 969 H 85.0228 1.03713 3.58187 0
M  V30 970 N 87.2079 -1.17134 1.05439 0
M  V30 971 C 88.1409 -2.2012 0.601855 0
M  V30 972 C 89.1189 -1.58314 -0.370854 0
M  V30 973 O 90.3029 -1.8638 -0.281882 0
M  V30 974 C 87.4299 -3.38491 -0.118868 0
M  V30 975 C 86.4759 -4.18752 0.809242 0
M  V30 976 S 87.3089 -4.83602 2.29977 0
M  V30 977 C 88.4649 -6.0536 1.59029 0
M  V30 978 H 88.6979 -2.58165 1.47438 0
M  V30 979 H 86.2309 -1.27788 0.866573 0
M  V30 980 H 88.1889 -4.07084 -0.528495 0
M  V30 981 H 86.8499 -2.98829 -0.967465 0
M  V30 982 H 86.0429 -5.03373 0.251379 0
M  V30 983 H 85.6449 -3.5561 1.15835 0
M  V30 984 H 87.9369 -6.71615 0.891017 0
M  V30 985 H 88.8799 -6.65679 2.41407 0
M  V30 986 H 89.2879 -5.54138 1.07663 0
M  V30 987 N 88.686 -0.835752 -1.33615 0
M  V30 988 C 90.097 -0.487099 -1.80234 0
M  V30 989 C 90.448 0.993627 -1.69179 0
M  V30 990 O 89.573 1.77403 -1.23924 0
M  V30 991 C 90.168 -0.877385 -3.27242 0
M  V30 992 C 88.727 -0.580915 -3.7189 0
M  V30 993 C 87.874 -1.0874 -2.5509 0
M  V30 994 H 90.825 -1.02474 -1.2118 0
M  V30 995 H 90.846 -0.186195 -3.80044 0
M  V30 996 H 90.358 -1.95512 -3.35256 0
M  V30 997 H 88.459 0.486881 -3.69405 0
M  V30 998 H 88.572 -1.13396 -4.65487 0
M  V30 999 H 86.936 -0.508392 -2.49575 0
M  V30 1000 H 87.719 -2.17184 -2.65868 0
M  V30 1001 N 90.1641 1.46063 -0.591896 0
M  V30 1002 C 91.1271 2.28854 0.125973 0
M  V30 1003 C 92.1271 1.38903 0.810107 0
M  V30 1004 O 93.3171 1.61186 0.66066 0
M  V30 1005 C 90.4491 3.19526 1.1881 0
M  V30 1006 H 91.6421 2.93802 -0.601717 0
M  V30 1007 H 89.1951 1.52325 -0.350254 0
M  V30 1008 H 89.9301 2.59345 1.94707 0
M  V30 1009 H 89.7151 3.85766 0.701936 0
M  V30 1010 H 91.2051 3.81817 1.69132 0
M  V30 1011 N 91.6422 0.330177 1.54103 0
M  V30 1012 C 92.8882 -0.270806 2.00984 0
M  V30 1013 C 93.2212 -1.51265 1.21789 0
M  V30 1014 O 92.4962 -1.92142 0.301927 0
M  V30 1015 C 92.7792 -0.598339 3.55094 0
M  V30 1016 C 92.6322 0.654674 4.4501 0
M  V30 1017 C 93.9512 -1.41334 4.16789 0
M  V30 1018 H 91.0702 -0.0969531 0.730595 0
M  V30 1019 H 93.7122 0.448066 1.84641 0
M  V30 1020 H 91.8622 -1.21078 3.69151 0
M  V30 1021 H 93.5342 1.29285 4.42813 0
M  V30 1022 H 91.7772 1.28224 4.14416 0
M  V30 1023 H 92.4482 0.380944 5.50684 0
M  V30 1024 H 94.9242 -0.895597 4.06347 0
M  V30 1025 H 93.8002 -1.61127 5.24718 0
M  V30 1026 H 94.0612 -2.41146 3.70541 0
M  V30 1027 N 93.1203 -1.57491 0.0584922 0
M  V30 1028 C 94.0683 -2.13148 -0.931168 0
M  V30 1029 C 95.0623 -1.06507 -1.31729 0
M  V30 1030 O 96.2683 -1.24906 -1.29609 0
M  V30 1031 H 92.6433 -0.68137 -0.31818 0
M  V30 1032 H 94.6143 -2.95187 -0.436707 0
M  V30 1033 C 93.3633 -2.69732 -2.19408 0
M  V30 1034 H 92.6863 -3.51454 -1.90578 0
M  V30 1035 H 94.1263 -3.12287 -2.86798 0
M  V30 1036 C 92.5853 -1.63855 -2.94369 0
M  V30 1037 O 93.1153 -1.05565 -3.87581 0
M  V30 1038 N 91.3213 -1.35202 -2.57233 0
M  V30 1039 H 90.8683 -1.82791 -1.81508 0
M  V30 1040 H 90.8263 -0.645922 -3.07693 0
M  V30 1041 N 94.5984 0.214957 -1.56127 0
M  V30 1042 C 95.5464 1.28601 -1.93816 0
M  V30 1043 C 96.5404 1.48175 -0.821016 0
M  V30 1044 O 97.7464 1.49271 -1.0059 0
M  V30 1045 H 94.1214 0.431302 -0.616022 0
M  V30 1046 H 96.0924 0.940991 -2.83175 0
M  V30 1047 C 94.8414 2.62779 -2.27689 0
M  V30 1048 H 94.1644 2.48527 -3.13168 0
M  V30 1049 H 95.6044 3.36517 -2.57939 0
M  V30 1050 C 94.0634 3.18285 -1.10436 0
M  V30 1051 O 94.5934 4.00002 -0.368945 0
M  V30 1052 N 92.7994 2.7675 -0.886433 0
M  V30 1053 H 92.3464 2.10404 -1.48619 0
M  V30 1054 H 92.3044 3.14229 -0.103656 0
M  V30 1055 N 96.0765 1.50051 0.48192 0
M  V30 1056 C 97.3015 1.64508 1.26301 0
M  V30 1057 C 97.7265 0.323851 1.85291 0
M  V30 1058 O 97.0845 -0.710969 1.66778 0
M  V30 1059 C 97.1325 2.7305 2.35533 0
M  V30 1060 O 96.2365 2.3355 3.39895 0
M  V30 1061 H 95.5775 0.549978 0.372048 0
M  V30 1062 H 98.1075 1.9636 0.574786 0
M  V30 1063 H 98.1175 2.95799 2.8101 0
M  V30 1064 H 96.7925 3.68946 1.91967 0
M  V30 1065 H 95.3695 2.21205 3.00204 0
M  V30 1066 N 97.5546 -0.734337 1.39446 0
M  V30 1067 C 98.7846 -1.52137 1.39778 0
M  V30 1068 C 99.1926 -1.89198 -0.00929312 0
M  V30 1069 O 98.5356 -1.54666 -0.991168 0
M  V30 1070 C 98.5976 -2.83762 2.20724 0
M  V30 1071 C 98.2616 -2.69131 3.69347 0
M  V30 1072 C 99.2586 -2.37635 4.62413 0
M  V30 1073 C 96.9436 -2.85982 4.1294 0
M  V30 1074 C 98.9376 -2.23172 5.97054 0
M  V30 1075 C 96.6246 -2.71137 5.47657 0
M  V30 1076 C 97.6226 -2.39777 6.39528 0
M  V30 1077 O 97.3106 -2.25026 7.71763 0
M  V30 1078 H 97.0426 -0.476717 0.479288 0
M  V30 1079 H 99.5966 -0.915012 1.83893 0
M  V30 1080 H 97.8266 -3.4666 1.71359 0
M  V30 1081 H 99.5156 -3.45383 2.13226 0
M  V30 1082 H 100.282 -2.24267 4.30034 0
M  V30 1083 H 96.1606 -3.09383 3.41765 0
M  V30 1084 H 99.7046 -1.98617 6.68728 0
M  V30 1085 H 95.6016 -2.84083 5.79626 0
M  V30 1086 H 96.3696 -2.40091 7.82495 0
M  V30 1087 N 99.0327 -1.24633 -0.964593 0
M  V30 1088 C 100.273 -1.09981 -1.72289 0
M  V30 1089 C 100.637 0.354792 -1.88693 0
M  V30 1090 O 101.838 0.62289 -2.61483 0
M  V30 1091 C 100.109 -1.82262 -3.07434 0
M  V30 1092 S 101.668 -1.83379 -3.98645 0
M  V30 1093 H 98.4857 -0.393292 -0.59232 0
M  V30 1094 H 101.088 -1.58009 -1.15123 0
M  V30 1095 H 99.7917 -2.87206 -2.93157 0
M  V30 1096 H 99.3227 -1.3458 -3.69664 0
M  V30 1097 H 101.338 -0.903691 -4.87901 0
M  V30 1098 N 100.511 1.16574 -1.06058 0
M  V30 1099 C 101.443 2.2045 -0.627239 0
M  V30 1100 C 102.456 1.59752 0.313534 0
M  V30 1101 O 103.645 1.78192 0.104896 0
M  V30 1102 C 100.745 3.3875 0.100974 0
M  V30 1103 C 99.9178 4.29008 -0.852687 0
M  V30 1104 C 98.9768 5.25944 -0.164152 0
M  V30 1105 O 98.0028 5.63535 -0.801047 0
M  V30 1106 N 99.2048 5.70075 1.09518 0
M  V30 1107 H 101.97 2.58249 -1.52077 0
M  V30 1108 H 99.5308 1.3156 -0.943594 0
M  V30 1109 H 101.523 4.00638 0.57194 0
M  V30 1110 H 100.093 2.99476 0.89628 0
M  V30 1111 H 99.3128 3.64419 -1.50308 0
M  V30 1112 H 100.601 4.86195 -1.49972 0
M  V30 1113 H 99.9988 5.41624 1.6328 0
M  V30 1114 H 98.5558 6.34067 1.51006 0
M  V30 1115 N 101.989 0.842826 1.3317 0
M  V30 1116 C 103.236 0.440447 1.97652 0
M  V30 1117 C 103.564 -1.00123 1.6675 0
M  V30 1118 O 102.819 -1.7155 0.941761 0
M  V30 1119 C 103.118 0.612607 3.52111 0
M  V30 1120 C 102.784 2.02297 4.02972 0
M  V30 1121 C 101.446 2.40874 4.16573 0
M  V30 1122 C 103.798 2.94402 4.30089 0
M  V30 1123 C 101.126 3.70852 4.54627 0
M  V30 1124 C 103.478 4.23865 4.69597 0
M  V30 1125 C 102.142 4.62392 4.81404 0
M  V30 1126 H 101.412 0.161171 0.72326 0
M  V30 1127 H 104.059 1.07061 1.58777 0
M  V30 1128 H 102.364 -0.100849 3.9167 0
M  V30 1129 H 104.061 0.2815 4.00011 0
M  V30 1130 H 100.651 1.71338 3.92863 0
M  V30 1131 H 104.835 2.65835 4.19101 0
M  V30 1132 H 100.091 4.00501 4.61962 0
M  V30 1133 H 104.265 4.95306 4.89536 0
M  V30 1134 H 101.892 5.63154 5.10648 0
M  V30 1135 N 103.467 -1.45747 0.599634 0
M  V30 1136 C 104.715 -2.01893 0.0915472 0
M  V30 1137 C 105.036 -1.47155 -1.27946 0
M  V30 1138 O 104.306 -0.66273 -1.84349 0
M  V30 1139 H 102.886 -0.746363 0.0308524 0
M  V30 1140 H 105.548 -1.78645 0.779237 0
M  V30 1141 H 104.644 -3.1208 0.0353086 0
M  V30 1142 N 104.945 -0.338344 -1.53925 0
M  V30 1143 C 105.908 0.508299 -2.23493 0
M  V30 1144 C 106.908 1.03175 -1.23335 0
M  V30 1145 O 108.098 0.921826 -1.47811 0
M  V30 1146 C 105.23 1.70754 -2.95052 0
M  V30 1147 H 106.423 -0.100058 -2.99733 0
M  V30 1148 H 103.976 -0.0896198 -1.56043 0
M  V30 1149 H 104.711 2.35474 -2.22986 0
M  V30 1150 H 104.496 1.33946 -3.68512 0
M  V30 1151 H 105.986 2.30818 -3.48013 0
M  V30 1152 N 106.423 1.57458 -0.0668435 0
M  V30 1153 C 107.672 1.92477 0.602947 0
M  V30 1154 C 107.985 0.948419 1.71068 0
M  V30 1155 O 109.191 1.19124 2.43971 0
M  V30 1156 C 107.647 3.41903 1.12383 0
M  V30 1157 C 107.255 4.47975 0.04737 0
M  V30 1158 C 108.999 3.85931 1.76797 0
M  V30 1159 C 106.906 5.88529 0.582022 0
M  V30 1160 H 105.836 0.718387 0.22899 0
M  V30 1161 H 108.487 1.82978 -0.138276 0
M  V30 1162 H 106.869 3.46459 1.91787 0
M  V30 1163 H 108.043 4.55029 -0.726978 0
M  V30 1164 H 106.358 4.13384 -0.500243 0
M  V30 1165 H 108.955 4.88322 2.17821 0
M  V30 1166 H 109.298 3.23029 2.62599 0
M  V30 1167 H 109.831 3.83958 1.04024 0
M  V30 1168 H 106.57 6.55065 -0.238721 0
M  V30 1169 H 106.09 5.85004 1.324 0
M  V30 1170 H 107.769 6.38258 1.05999 0
M  V30 1171 N 107.901 -0.206675 1.56239 0
M  V30 1172 C 109.126 -0.949474 1.8439 0
M  V30 1173 C 109.551 -1.76549 0.649016 0
M  V30 1174 O 108.909 -1.76782 -0.402231 0
M  V30 1175 C 108.957 -1.83078 3.10668 0
M  V30 1176 O 108.061 -2.9281 2.90407 0
M  V30 1177 H 107.402 -0.268033 0.607499 0
M  V30 1178 H 109.932 -0.215488 2.03462 0
M  V30 1179 H 109.942 -2.2377 3.41161 0
M  V30 1180 H 108.617 -1.23112 3.97261 0
M  V30 1181 H 107.194 -2.55956 2.71184 0
M  V30 1182 N 109.379 -1.50304 -0.473955 0
M  V30 1183 C 110.309 -1.71886 -1.58042 0
M  V30 1184 C 111.29 -0.567799 -1.60344 0
M  V30 1185 O 112.475 -0.806623 -1.76656 0
M  V30 1186 C 109.605 -1.81036 -2.96384 0
M  V30 1187 C 108.559 -2.962 -3.08949 0
M  V30 1188 C 107.885 -2.9049 -4.48909 0
M  V30 1189 C 109.185 -4.36752 -2.86434 0
M  V30 1190 H 110.879 -2.64527 -1.40234 0
M  V30 1191 H 108.425 -1.27295 -0.673201 0
M  V30 1192 H 110.378 -1.94719 -3.73714 0
M  V30 1193 H 109.102 -0.850147 -3.15341 0
M  V30 1194 H 107.761 -2.82164 -2.3405 0
M  V30 1195 H 107.409 -1.92321 -4.64781 0
M  V30 1196 H 107.109 -3.67802 -4.58253 0
M  V30 1197 H 108.633 -3.06218 -5.28264 0
M  V30 1198 H 110.047 -4.5133 -3.53517 0
M  V30 1199 H 108.444 -5.15493 -3.07225 0
M  V30 1200 H 109.514 -4.49321 -1.82316 0
M  V30 1201 N 110.857 0.726932 -1.39834 0
M  V30 1202 C 112.097 1.4992 -1.38936 0
M  V30 1203 C 112.461 1.91996 0.0126883 0
M  V30 1204 O 113.662 2.68399 0.146715 0
M  V30 1205 C 111.933 2.70013 -2.34153 0
M  V30 1206 S 113.492 3.59563 -2.51515 0
M  V30 1207 H 110.31 0.51271 -0.492595 0
M  V30 1208 H 112.912 0.85107 -1.76003 0
M  V30 1209 H 111.616 2.37254 -3.34871 0
M  V30 1210 H 111.147 3.39748 -1.98331 0
M  V30 1211 H 113.162 4.63973 -1.75909 0
M  V30 1212 N 112.336 1.25143 0.95797 0
M  V30 1213 C 113.246 1.06968 2.08794 0
M  V30 1214 C 114.262 0.00773911 1.73998 0
M  V30 1215 O 115.438 0.207972 2.00323 0
M  V30 1216 C 112.503 0.68691 3.39827 0
M  V30 1217 C 111.564 1.82641 3.88511 0
M  V30 1218 C 110.797 1.46181 5.1329 0
M  V30 1219 O 111.02 0.355971 5.69288 0
M  V30 1220 O 109.954 2.29085 5.566 0
M  V30 1221 H 113.78 2.01723 2.27027 0
M  V30 1222 H 111.365 1.04051 1.07209 0
M  V30 1223 H 113.247 0.485417 4.18595 0
M  V30 1224 H 111.922 -0.231417 3.22872 0
M  V30 1225 H 110.829 2.08274 3.10762 0
M  V30 1226 H 112.162 2.72386 4.09959 0
M  V30 1227 N 113.814 -1.1601 1.06675 0
M  V30 1228 C 115.06 -1.86909 0.786945 0
M  V30 1229 C 115.393 -1.81717 -0.685018 0
M  V30 1230 O 114.668 -1.23551 -1.50218 0
M  V30 1231 C 114.951 -3.36313 1.28707 0
M  V30 1232 C 114.804 -3.50175 2.82308 0
M  V30 1233 C 116.123 -4.3084 0.898071 0
M  V30 1234 H 113.242 -0.678677 0.287343 0
M  V30 1235 H 115.884 -1.36336 1.32334 0
M  V30 1236 H 114.034 -3.79513 0.830768 0
M  V30 1237 H 115.706 -3.15886 3.36175 0
M  V30 1238 H 113.949 -2.91959 3.20847 0
M  V30 1239 H 114.62 -4.55116 3.12368 0
M  V30 1240 H 117.096 -3.95561 1.29114 0
M  V30 1241 H 115.972 -5.33876 1.27543 0
M  V30 1242 H 116.233 -4.41662 -0.196651 0
M  V30 1243 N 115.292 -0.849877 -1.32721 0
M  V30 1244 C 116.52 -0.464754 -2.01613 0
M  V30 1245 C 116.935 0.937191 -1.63897 0
M  V30 1246 O 116.292 1.61081 -0.857856 0
M  V30 1247 C 116.343 -0.588638 -3.56675 0
M  V30 1248 O 116.064 -1.93535 -3.93034 0
M  V30 1249 C 117.565 -0.2019 -4.4284 0
M  V30 1250 H 114.785 -0.183215 -0.645502 0
M  V30 1251 H 117.329 -1.1455 -1.69407 0
M  V30 1252 H 115.484 0.0443159 -3.87375 0
M  V30 1253 H 115.898 -1.92871 -4.87751 0
M  V30 1254 H 117.372 -0.339599 -5.50954 0
M  V30 1255 H 117.849 0.857224 -4.30753 0
M  V30 1256 H 118.455 -0.809733 -4.17521 0
M  V30 1257 N 116.77 1.45427 -0.607355 0
M  V30 1258 C 117.718 2.32269 0.12411 0
M  V30 1259 C 118.712 1.45955 0.859854 0
M  V30 1260 O 119.918 1.6244 0.775447 0
M  V30 1261 H 116.293 0.749691 0.0588839 0
M  V30 1262 H 118.264 2.91743 -0.626762 0
M  V30 1263 C 117.013 3.29567 1.1082 0
M  V30 1264 H 116.336 3.95978 0.551492 0
M  V30 1265 H 117.776 3.93061 1.58995 0
M  V30 1266 C 116.235 2.56722 2.18164 0
M  V30 1267 O 116.765 2.34842 3.25902 0
M  V30 1268 N 114.971 2.16861 1.93442 0
M  V30 1269 H 114.518 2.34855 1.05834 0
M  V30 1270 H 114.476 1.68444 2.65469 0
M  V30 1271 N 118.248 0.346503 1.53744 0
M  V30 1272 C 119.478 -0.250047 2.05081 0
M  V30 1273 C 119.886 -1.44529 1.22098 0
M  V30 1274 O 119.229 -1.81992 0.249917 0
M  V30 1275 C 119.291 -0.725934 3.52094 0
M  V30 1276 C 118.955 0.350053 4.55657 0
M  V30 1277 C 119.952 1.19372 5.0601 0
M  V30 1278 C 117.637 0.504827 4.99757 0
M  V30 1279 C 119.631 2.17768 5.99046 0
M  V30 1280 C 117.318 1.49218 5.92602 0
M  V30 1281 C 118.316 2.32706 6.42135 0
M  V30 1282 O 118.004 3.2976 7.33153 0
M  V30 1283 H 117.736 -0.0515469 0.674032 0
M  V30 1284 H 120.29 0.497559 1.99282 0
M  V30 1285 H 118.52 -1.52483 3.55367 0
M  V30 1286 H 120.209 -1.24336 3.86388 0
M  V30 1287 H 120.975 1.08525 4.72702 0
M  V30 1288 H 116.854 -0.135178 4.60802 0
M  V30 1289 H 120.398 2.82971 6.37631 0
M  V30 1290 H 116.295 1.6012 6.25325 0
M  V30 1291 H 117.063 3.25265 7.51096 0
M  V30 1292 N 119.726 -1.57421 0.075193 0
M  V30 1293 C 120.954 -1.97946 -0.602076 0
M  V30 1294 C 121.369 -0.953674 -1.62943 0
M  V30 1295 O 120.726 0.0592551 -1.82404 0
M  V30 1296 C 120.777 -3.38546 -1.26762 0
M  V30 1297 O 120.498 -4.37195 -0.281376 0
M  V30 1298 C 121.999 -3.93966 -2.03239 0
M  V30 1299 H 119.219 -0.650918 -0.162931 0
M  V30 1300 H 121.763 -2.03959 0.148601 0
M  V30 1301 H 119.918 -3.33609 -1.96936 0
M  V30 1302 H 120.332 -5.18975 -0.759267 0
M  V30 1303 H 121.806 -4.94555 -2.45193 0
M  V30 1304 H 122.283 -3.30693 -2.8903 0
M  V30 1305 H 122.889 -4.02315 -1.37924 0
M  V30 1306 N 121.204 0.198386 -1.56346 0
M  V30 1307 C 122.45 0.920648 -1.80698 0
M  V30 1308 C 122.783 1.83045 -0.648697 0
M  V30 1309 O 122.058 1.91308 0.350925 0
M  V30 1310 C 122.341 1.73971 -3.15287 0
M  V30 1311 C 122.194 0.85485 -4.41602 0
M  V30 1312 C 123.513 2.71296 -3.46535 0
M  V30 1313 H 120.632 0.333261 -0.657348 0
M  V30 1314 H 123.274 0.188198 -1.89066 0
M  V30 1315 H 121.424 2.36416 -3.08285 0
M  V30 1316 H 123.096 0.245362 -4.60647 0
M  V30 1317 H 121.339 0.161398 -4.335 0
M  V30 1318 H 122.01 1.46286 -5.32264 0
M  V30 1319 H 124.486 2.18983 -3.53816 0
M  V30 1320 H 123.362 3.2569 -4.41834 0
M  V30 1321 H 123.623 3.5018 -2.69864 0
M  V30 1322 N 122.682 1.50554 0.465978 0
M  V30 1323 C 124.098 1.38093 0.800154 0
M  V30 1324 C 124.298 0.440988 1.96615 0
M  V30 1325 O 123.354 -0.114499 2.5224 0
M  V30 1326 C 124.667 2.79565 1.10742 0
M  V30 1327 C 126.215 2.88516 1.21357 0
M  V30 1328 C 126.69 4.30833 1.55393 0
M  V30 1329 N 128.181 4.33807 1.62375 0
M  V30 1330 C 128.916 5.40927 1.90225 0
M  V30 1331 N 128.412 6.58247 2.16062 0
M  V30 1332 N 130.205 5.28376 1.9177 0
M  V30 1333 H 122.356 2.10237 -0.302366 0
M  V30 1334 H 124.619 0.945203 -0.0727746 0
M  V30 1335 H 124.325 3.50208 0.323661 0
M  V30 1336 H 124.199 3.17125 2.04234 0
M  V30 1337 H 126.586 2.1809 1.98799 0
M  V30 1338 H 126.667 2.54492 0.258321 0
M  V30 1339 H 126.311 5.01799 0.784889 0
M  V30 1340 H 126.241 4.62347 2.52076 0
M  V30 1341 H 128.732 3.49212 1.44427 0
M  V30 1342 H 129.045 7.3569 2.36601 0
M  V30 1343 H 127.39 6.61413 2.13444 0
M  V30 1344 H 130.581 4.35715 1.71085 0
M  V30 1345 H 130.754 6.11944 2.13139 0
M  V30 1346 N 124.16 -0.719506 1.40217 0
M  V30 1347 C 125.406 -1.48152 1.38488 0
M  V30 1348 C 125.739 -1.94195 -0.0141867 0
M  V30 1349 O 125.014 -1.67884 -0.982096 0
M  V30 1350 C 125.297 -2.71035 2.37091 0
M  V30 1351 C 125.15 -2.30912 3.86005 0
M  V30 1352 C 126.469 -3.73182 2.33288 0
M  V30 1353 H 123.588 -0.537395 0.504357 0
M  V30 1354 H 126.23 -0.821472 1.71324 0
M  V30 1355 H 124.38 -3.27352 2.0922 0
M  V30 1356 H 126.052 -1.80107 4.24687 0
M  V30 1357 H 124.295 -1.62958 4.02029 0
M  V30 1358 H 124.966 -3.18978 4.50508 0
M  V30 1359 H 127.442 -3.26485 2.57966 0
M  V30 1360 H 126.318 -4.56806 3.04334 0
M  V30 1361 H 126.579 -4.21202 1.34317 0
M  V30 1362 N 125.638 -1.25649 -0.95132 0
M  V30 1363 C 126.601 -1.06399 -2.03007 0
M  V30 1364 C 127.601 -0.0156794 -1.60792 0
M  V30 1365 O 128.791 -0.25817 -1.72276 0
M  V30 1366 C 125.923 -0.616184 -3.35285 0
M  V30 1367 H 127.116 -2.02164 -2.21517 0
M  V30 1368 H 124.669 -1.08103 -1.12887 0
M  V30 1369 H 125.404 0.343917 -3.22471 0
M  V30 1370 H 125.189 -1.37301 -3.67275 0
M  V30 1371 H 126.679 -0.503032 -4.14559 0
M  V30 1372 N 127.117 1.15442 -1.07289 0
M  V30 1373 C 128.065 2.22225 -0.686952 0
M  V30 1374 C 129.059 1.66688 0.30193 0
M  V30 1375 O 130.265 1.79236 0.165712 0
M  V30 1376 H 126.64 0.723783 -0.204064 0
M  V30 1377 H 128.611 2.52056 -1.5972 0
M  V30 1378 C 127.36 3.47556 -0.100149 0
M  V30 1379 H 126.683 3.90612 -0.852211 0
M  V30 1380 H 128.123 4.23794 0.132235 0
M  V30 1381 C 126.582 3.16337 1.159 0
M  V30 1382 O 127.112 3.33074 2.24555 0
M  V30 1383 N 125.318 2.70385 1.06491 0
M  V30 1384 H 124.865 2.56966 0.180668 0
M  V30 1385 H 124.823 2.49871 1.90819 0
M  V30 1386 N 128.595 0.856903 1.32268 0
M  V30 1387 C 130.006 0.515711 1.79436 0
M  V30 1388 C 130.357 -0.966586 1.70738 0
M  V30 1389 O 129.482 -1.75409 1.26731 0
M  V30 1390 C 130.077 0.929335 3.25805 0
M  V30 1391 C 128.636 0.640006 3.70919 0
M  V30 1392 C 127.783 1.12784 2.53328 0
M  V30 1393 H 130.734 1.04389 1.19535 0
M  V30 1394 H 130.755 0.246633 3.797 0
M  V30 1395 H 130.267 2.00821 3.32103 0
M  V30 1396 H 128.368 -0.428051 3.70133 0
M  V30 1397 H 128.481 1.20788 4.63624 0
M  V30 1398 H 126.845 0.548033 2.48734 0
M  V30 1399 H 127.628 2.21387 2.62379 0
M  V30 1400 N 130.073 -1.45103 0.615059 0
M  V30 1401 C 131.484 -1.85654 0.197383 0
M  V30 1402 C 131.835 -1.51433 -1.24749 0
M  V30 1403 O 130.96 -0.944608 -1.94695 0
M  V30 1404 C 131.555 -3.36972 0.351448 0
M  V30 1405 C 130.114 -3.76398 -0.011593 0
M  V30 1406 C 129.261 -2.69024 0.672394 0
M  V30 1407 H 132.212 -1.35797 0.821263 0
M  V30 1408 H 132.233 -3.78239 -0.414227 0
M  V30 1409 H 131.745 -3.61847 1.40314 0
M  V30 1410 H 129.846 -3.5714 -1.06217 0
M  V30 1411 H 129.959 -4.77532 0.387265 0
M  V30 1412 H 128.323 -2.54465 0.109284 0
M  V30 1413 H 129.106 -2.96735 1.72636 0
M  V30 1414 N 131.551 -0.354651 -1.53558 0
M  V30 1415 C 132.798 0.238443 -2.01091 0
M  V30 1416 C 133.126 1.49663 -1.24222 0
M  V30 1417 O 132.381 1.93049 -0.321003 0
M  V30 1418 C 132.68 0.587121 -3.52545 0
M  V30 1419 C 132.346 -0.575472 -4.47213 0
M  V30 1420 C 131.008 -0.894497 -4.72813 0
M  V30 1421 C 133.36 -1.35489 -5.03281 0
M  V30 1422 C 130.688 -1.99511 -5.51736 0
M  V30 1423 C 133.04 -2.44583 -5.83405 0
M  V30 1424 C 131.704 -2.77033 -6.07296 0
M  V30 1425 H 130.974 0.0872526 -0.735845 0
M  V30 1426 H 133.621 -0.484859 -1.8526 0
M  V30 1427 H 131.926 1.39129 -3.66265 0
M  V30 1428 H 133.623 1.05809 -3.86789 0
M  V30 1429 H 130.213 -0.316774 -4.27428 0
M  V30 1430 H 134.397 -1.12167 -4.83459 0
M  V30 1431 H 129.653 -2.25063 -5.68469 0
M  V30 1432 H 133.827 -3.05401 -6.25862 0
M  V30 1433 H 131.454 -3.6244 -6.68237 0
M  V30 1434 N 133.029 1.57378 -0.0835403 0
M  V30 1435 C 134.254 1.98682 0.594987 0
M  V30 1436 C 134.679 0.961969 1.61641 0
M  V30 1437 O 134.037 -0.0709989 1.81161 0
M  V30 1438 C 134.085 3.38988 1.2296 0
M  V30 1439 O 133.189 3.39208 2.34546 0
M  V30 1440 H 132.53 0.646368 0.152002 0
M  V30 1441 H 135.06 2.03961 -0.161533 0
M  V30 1442 H 135.07 3.76431 1.57366 0
M  V30 1443 H 133.745 4.13107 0.481228 0
M  V30 1444 H 132.322 3.13548 2.01846 0
M  V30 1445 N 134.507 -0.190092 1.56449 0
M  V30 1446 C 135.735 -0.925772 1.85033 0
M  V30 1447 C 136.15 -1.76638 0.666658 0
M  V30 1448 O 135.507 -1.78822 -0.364565 0
M  V30 1449 C 135.558 -1.81786 3.12468 0
M  V30 1450 O 135.279 -1.01118 4.26271 0
M  V30 1451 C 136.78 -2.6648 3.54265 0
M  V30 1452 H 134 -0.269872 0.614337 0
M  V30 1453 H 136.544 -0.195837 2.0356 0
M  V30 1454 H 134.699 -2.50136 2.95822 0
M  V30 1455 H 135.113 -1.61956 4.98869 0
M  V30 1456 H 136.587 -3.24722 4.46385 0
M  V30 1457 H 137.064 -3.40434 2.77491 0
M  V30 1458 H 137.67 -2.03493 3.73458 0
M  V30 1459 N 135.985 -1.50799 -0.457987 0
M  V30 1460 C 137.231 -1.63648 -1.20792 0
M  V30 1461 C 137.586 -0.338662 -1.89396 0
M  V30 1462 O 136.879 0.664291 -1.79716 0
M  V30 1463 C 137.073 -2.76358 -2.2663 0
M  V30 1464 C 136.902 -4.16974 -1.68411 0
M  V30 1465 C 135.672 -4.83199 -1.47807 0
M  V30 1466 C 137.87 -5.00774 -1.17176 0
M  V30 1467 N 135.852 -6.07991 -0.849692 0
M  V30 1468 C 137.223 -6.16397 -0.667403 0
M  V30 1469 C 139.278 -4.86452 -1.06155 0
M  V30 1470 C 137.981 -7.19272 -0.0636908 0
M  V30 1471 C 140.007 -5.89515 -0.471759 0
M  V30 1472 C 139.369 -7.04397 0.0221557 0
M  V30 1473 H 135.468 -0.652888 -0.43042 0
M  V30 1474 H 138.052 -1.87962 -0.507785 0
M  V30 1475 H 136.223 -2.53744 -2.94056 0
M  V30 1476 H 137.955 -2.78496 -2.93636 0
M  V30 1477 H 134.71 -4.40714 -1.73403 0
M  V30 1478 H 135.134 -6.74733 -0.553537 0
M  V30 1479 H 139.776 -3.97907 -1.42932 0
M  V30 1480 H 137.494 -8.07481 0.316253 0
M  V30 1481 H 141.08 -5.805 -0.388671 0
M  V30 1482 H 139.96 -7.82782 0.471375 0
M  V30 1483 N 137.463 0.71206 -1.40597 0
M  V30 1484 C 138.712 1.46754 -1.38369 0
M  V30 1485 C 139.025 1.95598 0.0097839 0
M  V30 1486 O 140.231 2.71059 0.154677 0
M  V30 1487 C 138.687 2.65289 -2.43207 0
M  V30 1488 C 138.295 2.23301 -3.88382 0
M  V30 1489 C 140.039 3.43008 -2.50091 0
M  V30 1490 C 137.946 3.38696 -4.84808 0
M  V30 1491 H 136.876 0.55118 -0.514506 0
M  V30 1492 H 139.527 0.774616 -1.66349 0
M  V30 1493 H 137.909 3.36769 -2.08332 0
M  V30 1494 H 139.083 1.59218 -4.32419 0
M  V30 1495 H 137.398 1.58618 -3.85006 0
M  V30 1496 H 139.995 4.28881 -3.1932 0
M  V30 1497 H 140.338 3.87065 -1.53253 0
M  V30 1498 H 140.871 2.78574 -2.83974 0
M  V30 1499 H 137.61 2.99668 -5.82992 0
M  V30 1500 H 137.13 4.01683 -4.45433 0
M  V30 1501 H 138.809 4.04712 -5.04794 0
M  V30 1502 N 138.941 1.26152 0.944643 0
M  V30 1503 C 139.871 1.09902 2.06019 0
M  V30 1504 C 140.852 0.00519538 1.70099 0
M  V30 1505 O 142.037 0.176583 1.93396 0
M  V30 1506 C 139.167 0.727562 3.39594 0
M  V30 1507 C 138.121 1.77274 3.89561 0
M  V30 1508 C 137.447 1.25569 5.19747 0
M  V30 1509 C 138.747 3.17357 4.14827 0
M  V30 1510 H 140.441 2.03217 2.19871 0
M  V30 1511 H 137.987 0.978452 1.05652 0
M  V30 1512 H 139.94 0.600777 4.17095 0
M  V30 1513 H 138.664 -0.241287 3.25707 0
M  V30 1514 H 137.323 1.88814 3.14237 0
M  V30 1515 H 136.971 0.276783 5.02238 0
M  V30 1516 H 136.671 1.95433 5.54148 0
M  V30 1517 H 138.195 1.1415 5.99835 0
M  V30 1518 H 139.609 3.08914 4.82954 0
M  V30 1519 H 138.006 3.84781 4.60504 0
M  V30 1520 H 139.076 3.63673 3.20734 0
M  V30 1521 N 140.419 -1.14872 1.07899 0
M  V30 1522 C 141.666 -1.85789 0.805532 0
M  V30 1523 C 141.994 -1.82649 -0.668561 0
M  V30 1524 O 141.249 -1.24858 -1.50695 0
M  V30 1525 C 141.548 -3.34223 1.26609 0
M  V30 1526 C 141.214 -3.57555 2.74709 0
M  V30 1527 C 139.876 -3.63631 3.1516 0
M  V30 1528 C 142.228 -3.66803 3.70277 0
M  V30 1529 C 139.556 -3.76473 4.49983 0
M  V30 1530 C 141.908 -3.8117 5.04869 0
M  V30 1531 C 140.572 -3.85494 5.44932 0
M  V30 1532 H 139.842 -0.679849 0.294765 0
M  V30 1533 H 142.489 -1.3572 1.35101 0
M  V30 1534 H 140.794 -3.86536 0.640103 0
M  V30 1535 H 142.491 -3.87511 1.03132 0
M  V30 1536 H 139.081 -3.5347 2.42398 0
M  V30 1537 H 143.265 -3.61404 3.40149 0
M  V30 1538 H 138.521 -3.7808 4.80484 0
M  V30 1539 H 142.695 -3.87268 5.78789 0
M  V30 1540 H 140.322 -3.95197 6.49403 0
M  V30 1541 N 141.898 -0.863906 -1.31812 0
M  V30 1542 C 143.309 -0.52522 -1.7916 0
M  V30 1543 C 143.66 0.957518 -1.71248 0
M  V30 1544 O 142.785 1.74734 -1.27659 0
M  V30 1545 C 143.38 -0.9466 -3.25307 0
M  V30 1546 C 141.939 -0.659668 -3.70574 0
M  V30 1547 C 141.086 -1.14126 -2.52726 0
M  V30 1548 H 144.037 -1.05022 -1.1898 0
M  V30 1549 H 144.058 -0.266766 -3.79564 0
M  V30 1550 H 143.57 -2.02579 -3.31034 0
M  V30 1551 H 141.671 0.408416 -3.70355 0
M  V30 1552 H 141.784 -1.23245 -4.62977 0
M  V30 1553 H 140.148 -0.561216 -2.4844 0
M  V30 1554 H 140.931 -2.22775 -2.61201 0
M  V30 1555 N 143.376 1.44774 -0.622745 0
M  V30 1556 C 144.286 2.34433 0.0886031 0
M  V30 1557 C 145.302 1.52131 0.844529 0
M  V30 1558 O 146.478 1.84886 0.798691 0
M  V30 1559 C 143.543 3.29986 1.0635 0
M  V30 1560 C 142.604 4.28195 0.307873 0
M  V30 1561 C 141.837 5.19183 1.23633 0
M  V30 1562 O 142.06 5.13918 2.47476 0
M  V30 1563 O 140.994 5.97515 0.725189 0
M  V30 1564 H 144.82 2.96693 -0.648599 0
M  V30 1565 H 142.405 1.44408 -0.382957 0
M  V30 1566 H 144.287 3.88825 1.6246 0
M  V30 1567 H 142.962 2.70269 1.78146 0
M  V30 1568 H 141.869 3.72927 -0.296064 0
M  V30 1569 H 143.202 4.90808 -0.3699 0
M  V30 1570 N 144.854 0.36279 1.53368 0
M  V30 1571 C 145.802 -0.500155 2.27159 0
M  V30 1572 C 146.796 -1.08575 1.3003 0
M  V30 1573 O 148.002 -1.02927 1.47668 0
M  V30 1574 H 144.377 -0.180009 0.730138 0
M  V30 1575 H 146.348 0.14401 2.98052 0
M  V30 1576 C 145.097 -1.62937 3.07159 0
M  V30 1577 H 144.42 -1.18806 3.8174 0
M  V30 1578 H 145.86 -2.20795 3.61975 0
M  V30 1579 C 144.319 -2.57007 2.17829 0
M  V30 1580 O 144.849 -3.59752 1.78721 0
M  V30 1581 N 143.055 -2.26131 1.82518 0
M  V30 1582 H 142.602 -1.42616 2.14519 0
M  V30 1583 H 142.56 -2.89327 1.23034 0
M  V30 1584 N 146.332 -1.57332 0.0918853 0
M  V30 1585 C 147.557 -1.98995 -0.584442 0
M  V30 1586 C 147.982 -0.970528 -1.61128 0
M  V30 1587 O 147.34 0.0613904 -1.81196 0
M  V30 1588 C 147.388 -3.39636 -1.21161 0
M  V30 1589 O 146.492 -3.40447 -2.32744 0
M  V30 1590 H 145.833 -0.647165 -0.148572 0
M  V30 1591 H 148.363 -2.03873 0.172347 0
M  V30 1592 H 148.373 -3.7726 -1.55367 0
M  V30 1593 H 147.048 -4.13356 -0.459313 0
M  V30 1594 H 145.625 -3.14614 -2.0018 0
M  V30 1595 N 147.81 0.181792 -1.56548 0
M  V30 1596 C 149.058 0.89832 -1.81038 0
M  V30 1597 C 149.379 1.83232 -0.667164 0
M  V30 1598 O 148.649 1.93372 0.313673 0
M  V30 1599 H 147.229 0.33471 -0.667816 0
M  V30 1600 H 149.891 0.184116 -1.94028 0
M  V30 1601 H 148.987 1.4815 -2.74696 0
M  V30 1602 N 149.288 1.51039 0.449983 0
M  V30 1603 C 150.235 1.71439 1.54523 0
M  V30 1604 C 151.205 0.555871 1.56522 0
M  V30 1605 O 152.39 0.788871 1.73728 0
M  V30 1606 C 149.53 1.83384 2.92343 0
M  V30 1607 C 148.643 3.10873 2.9997 0
M  V30 1608 C 147.778 3.13488 4.28834 0
M  V30 1609 C 146.817 4.35343 4.30282 0
M  V30 1610 N 145.954 4.35579 5.5065 0
M  V30 1611 H 150.794 2.64934 1.36433 0
M  V30 1612 H 148.331 1.31312 0.662982 0
M  V30 1613 H 150.289 1.88291 3.72293 0
M  V30 1614 H 148.919 0.933086 3.0902 0
M  V30 1615 H 147.971 3.15336 2.12761 0
M  V30 1616 H 149.283 4.00814 2.96901 0
M  V30 1617 H 148.437 3.17241 5.17149 0
M  V30 1618 H 147.176 2.21414 4.34543 0
M  V30 1619 H 146.181 4.3178 3.40362 0
M  V30 1620 H 147.406 5.28668 4.26248 0
M  V30 1621 H 145.352 3.46369 5.57104 0
M  V30 1622 H 145.269 5.19313 5.49409 0
M  V30 1623 H 146.537 4.43507 6.41032 0
M  V30 1624 N 150.766 -0.704594 1.40972 0
M  V30 1625 C 152.177 -1.28418 1.3552 0
M  V30 1626 C 152.528 -1.96171 0.0339434 0
M  V30 1627 O 151.653 -1.98231 -0.867944 0
M  V30 1628 C 152.248 -2.33528 2.45459 0
M  V30 1629 C 150.807 -2.87085 2.43433 0
M  V30 1630 C 149.954 -1.61007 2.2577 0
M  V30 1631 H 152.905 -0.499963 1.50619 0
M  V30 1632 H 152.926 -3.14619 2.13998 0
M  V30 1633 H 152.438 -1.84187 3.41609 0
M  V30 1634 H 150.539 -3.40626 1.51013 0
M  V30 1635 H 150.652 -3.3813 3.39419 0
M  V30 1636 H 149.016 -1.86482 1.73483 0
M  V30 1637 H 149.799 -1.13675 3.23933 0
M  V30 1638 N 152.244 -1.26651 -0.937939 0
M  V30 1639 C 153.49 -1.13562 -1.68746 0
M  V30 1640 C 153.845 0.317241 -1.89767 0
M  V30 1641 O 153.138 1.22939 -1.46957 0
M  V30 1642 C 153.332 -1.84168 -3.06295 0
M  V30 1643 C 153.161 -3.36171 -2.98696 0
M  V30 1644 C 151.931 -4.05468 -3.01535 0
M  V30 1645 C 154.129 -4.32312 -2.78588 0
M  V30 1646 N 152.111 -5.44118 -2.84269 0
M  V30 1647 C 153.482 -5.58159 -2.69924 0
M  V30 1648 C 155.537 -4.22524 -2.63396 0
M  V30 1649 C 154.24 -6.75335 -2.47618 0
M  V30 1650 C 156.266 -5.39411 -2.42466 0
M  V30 1651 C 155.628 -6.64208 -2.34536 0
M  V30 1652 H 151.727 -0.470361 -0.624728 0
M  V30 1653 H 154.311 -1.59982 -1.10968 0
M  V30 1654 H 152.482 -1.40219 -3.62206 0
M  V30 1655 H 154.214 -1.63674 -3.70126 0
M  V30 1656 H 150.969 -3.56854 -3.11372 0
M  V30 1657 H 151.393 -6.1693 -2.78795 0
M  V30 1658 H 156.035 -3.26771 -2.68292 0
M  V30 1659 H 153.753 -7.71182 -2.41463 0
M  V30 1660 H 157.339 -5.33711 -2.31611 0
M  V30 1661 H 156.219 -7.53129 -2.18555 0
M  V30 1662 N 153.722 1.14298 -1.08507 0
M  V30 1663 C 154.685 2.17607 -0.719711 0
M  V30 1664 C 155.685 1.58907 0.245997 0
M  V30 1665 O 156.875 1.74181 0.0254081 0
M  V30 1666 C 154.007 3.40842 -0.0627695 0
M  V30 1667 H 155.2 2.51443 -1.63452 0
M  V30 1668 H 152.753 1.28963 -0.88307 0
M  V30 1669 H 153.488 3.12587 0.863716 0
M  V30 1670 H 153.273 3.84713 -0.757504 0
M  V30 1671 H 154.763 4.17221 0.177786 0
M  V30 1672 N 155.201 0.870884 1.31352 0
M  V30 1673 C 156.449 0.48132 1.96285 0
M  V30 1674 C 156.77 -0.969813 1.69173 0
M  V30 1675 O 156.04 -1.67998 1.00764 0
M  V30 1676 H 154.62 0.175002 0.726212 0
M  V30 1677 H 157.282 1.11087 1.60143 0
M  V30 1678 H 156.378 0.639825 3.05471 0
M  V30 1679 N 156.679 -1.44442 0.630414 0
M  V30 1680 C 157.642 -2.29107 -0.0652523 0
M  V30 1681 C 158.642 -1.41002 -0.772995 0
M  V30 1682 O 159.832 -1.62881 -0.617692 0
M  V30 1683 C 156.964 -3.22564 -1.10296 0
M  V30 1684 H 158.157 -2.92103 0.679401 0
M  V30 1685 H 155.71 -1.51343 0.390517 0
M  V30 1686 H 156.445 -2.64416 -1.87762 0
M  V30 1687 H 156.23 -3.87491 -0.59941 0
M  V30 1688 H 157.72 -3.86167 -1.5895 0
M  V30 1689 N 158.157 -0.370918 -1.53173 0
M  V30 1690 C 159.067 0.480823 -2.2962 0
M  V30 1691 C 160.083 1.08789 -1.35798 0
M  V30 1692 O 161.259 1.09768 -1.68858 0
M  V30 1693 C 158.324 1.60227 -3.07454 0
M  V30 1694 C 157.385 1.0222 -4.16953 0
M  V30 1695 C 156.618 2.0902 -4.91066 0
M  V30 1696 O 156.841 3.30222 -4.65091 0
M  V30 1697 O 155.775 1.71778 -5.76867 0
M  V30 1698 H 159.601 -0.141421 -3.03371 0
M  V30 1699 H 157.186 -0.135146 -1.48787 0
M  V30 1700 H 159.068 2.25417 -3.56041 0
M  V30 1701 H 157.743 2.20982 -2.36535 0
M  V30 1702 H 156.65 0.334064 -3.72605 0
M  V30 1703 H 157.983 0.459131 -4.90054 0
M  V30 1704 N 159.635 1.57281 -0.100228 0
M  V30 1705 C 160.583 2.15542 0.874328 0
M  V30 1706 C 161.577 1.09962 1.28859 0
M  V30 1707 O 162.783 1.28298 1.26252 0
M  V30 1708 H 159.158 0.689567 0.300003 0
M  V30 1709 H 161.129 2.96241 0.35829 0
M  V30 1710 C 159.878 2.75454 2.1218 0
M  V30 1711 H 159.201 3.56384 1.81193 0
M  V30 1712 H 160.641 3.19781 2.78417 0
M  V30 1713 C 159.1 1.71602 2.89921 0
M  V30 1714 O 159.63 1.15804 3.84646 0
M  V30 1715 N 157.836 1.41975 2.53558 0
M  V30 1716 H 157.383 1.87539 1.76598 0
M  V30 1717 H 157.341 0.727274 3.05873 0
M  V30 1718 N 161.113 -0.173488 1.56642 0
M  V30 1719 C 162.043 -1.2171 1.99271 0
M  V30 1720 C 163.024 -1.46289 0.867959 0
M  V30 1721 O 164.209 -1.5766 1.13388 0
M  V30 1722 C 161.339 -2.55651 2.35074 0
M  V30 1723 C 160.293 -2.45645 3.50489 0
M  V30 1724 C 159.619 -3.84056 3.72028 0
M  V30 1725 C 160.919 -1.96302 4.84007 0
M  V30 1726 H 162.613 -0.86275 2.867 0
M  V30 1727 H 160.159 -0.413571 1.37933 0
M  V30 1728 H 162.112 -3.2886 2.63494 0
M  V30 1729 H 160.836 -2.92869 1.44552 0
M  V30 1730 H 159.495 -1.7489 3.22194 0
M  V30 1731 H 159.143 -4.18664 2.788 0
M  V30 1732 H 158.843 -3.7823 4.49684 0
M  V30 1733 H 160.367 -4.58854 4.02846 0
M  V30 1734 H 161.781 -2.59284 5.11317 0
M  V30 1735 H 160.178 -2.01429 5.65284 0
M  V30 1736 H 161.248 -0.917226 4.76146 0
M  V30 1737 N 162.591 -1.51276 -0.441967 0
M  V30 1738 C 163.819 -1.67516 -1.21434 0
M  V30 1739 C 164.234 -0.37055 -1.85128 0
M  V30 1740 O 163.591 0.650498 -1.70513 0
M  V30 1741 C 163.642 -2.78748 -2.30177 0
M  V30 1742 O 163.363 -4.04154 -1.69089 0
M  V30 1743 C 164.864 -3.06217 -3.20541 0
M  V30 1744 H 162.084 -0.562276 -0.366178 0
M  V30 1745 H 164.628 -1.97666 -0.524244 0
M  V30 1746 H 162.783 -2.5121 -2.94911 0
M  V30 1747 H 163.197 -4.65894 -2.40922 0
M  V30 1748 H 164.671 -3.8764 -3.92987 0
M  V30 1749 H 165.148 -2.18439 -3.81026 0
M  V30 1750 H 165.754 -3.35397 -2.61513 0
M  V30 1751 N 164.069 0.697108 -1.41344 0
M  V30 1752 C 165.309 1.46939 -1.42085 0
M  V30 1753 C 165.673 1.9198 -0.0280397 0
M  V30 1754 O 166.874 2.6865 0.0897504 0
M  V30 1755 C 165.145 2.64985 -2.39828 0
M  V30 1756 S 166.704 3.54147 -2.59085 0
M  V30 1757 H 163.522 0.502146 -0.503359 0
M  V30 1758 H 166.124 0.813546 -1.77769 0
M  V30 1759 H 164.828 2.30098 -3.39828 0
M  V30 1760 H 164.359 3.35464 -2.05493 0
M  V30 1761 H 166.374 4.60137 -1.85711 0
M  V30 1762 N 165.547 1.27147 0.931209 0
M  V30 1763 C 166.793 1.14455 1.68141 0
M  V30 1764 C 167.148 -0.307172 1.89932 0
M  V30 1765 O 166.441 -1.22158 1.47607 0
M  V30 1766 C 166.635 1.8579 3.05314 0
M  V30 1767 C 166.464 3.3775 2.96909 0
M  V30 1768 C 165.234 4.07062 2.99381 0
M  V30 1769 C 167.432 4.33783 2.76291 0
M  V30 1770 N 165.414 5.45618 2.8138 0
M  V30 1771 C 166.785 5.59582 2.6696 0
M  V30 1772 C 168.84 4.23915 2.61152 0
M  V30 1773 C 167.543 6.76639 2.44033 0
M  V30 1774 C 169.569 5.40689 2.39602 0
M  V30 1775 C 168.931 6.65443 2.3101 0
M  V30 1776 H 165.03 0.473667 0.622225 0
M  V30 1777 H 167.614 1.60568 1.10118 0
M  V30 1778 H 165.785 1.42138 3.61457 0
M  V30 1779 H 167.517 1.65634 3.69253 0
M  V30 1780 H 164.272 3.585 3.09475 0
M  V30 1781 H 164.696 6.184 2.75519 0
M  V30 1782 H 169.338 3.28189 2.66555 0
M  V30 1783 H 167.056 7.72451 2.3737 0
M  V30 1784 H 170.642 5.34932 2.28778 0
M  V30 1785 H 169.522 7.54277 2.14558 0
M  V30 1786 N 167.025 -1.13721 1.09112 0
M  V30 1787 C 168.274 -1.84275 0.82009 0
M  V30 1788 C 168.587 -1.84253 -0.656509 0
M  V30 1789 O 169.793 -2.50668 -1.04296 0
M  V30 1790 C 168.249 -3.30825 1.41714 0
M  V30 1791 C 167.857 -3.39244 2.92605 0
M  V30 1792 C 169.601 -4.06443 1.22492 0
M  V30 1793 C 167.508 -4.80047 3.45411 0
M  V30 1794 H 166.438 -0.690387 0.30312 0
M  V30 1795 H 169.089 -1.28146 1.31343 0
M  V30 1796 H 167.471 -3.86737 0.851498 0
M  V30 1797 H 168.645 -2.93344 3.55367 0
M  V30 1798 H 166.96 -2.77088 3.10823 0
M  V30 1799 H 169.557 -5.10387 1.59402 0
M  V30 1800 H 169.9 -4.15972 0.165299 0
M  V30 1801 H 170.433 -3.56852 1.75788 0
M  V30 1802 H 167.172 -4.75709 4.50978 0
M  V30 1803 H 166.692 -5.26455 2.87411 0
M  V30 1804 H 168.371 -5.48957 3.42425 0
M  V30 1805 N 168.503 -0.877838 -1.30888 0
M  V30 1806 C 169.453 -0.310872 -2.25871 0
M  V30 1807 C 170.437 0.556596 -1.50966 0
M  V30 1808 O 171.629 0.402187 -1.7237 0
M  V30 1809 C 168.758 0.479821 -3.3993 0
M  V30 1810 C 167.844 -0.401333 -4.22197 0
M  V30 1811 N 168.235 -1.49848 -4.83093 0
M  V30 1812 C 166.533 -0.195167 -4.45573 0
M  V30 1813 C 167.234 -2.0425 -5.44662 0
M  V30 1814 N 166.21 -1.33843 -5.26865 0
M  V30 1815 H 170.012 -1.1493 -2.70496 0
M  V30 1816 H 167.526 -0.726458 -1.45246 0
M  V30 1817 H 169.523 0.902582 -4.07012 0
M  V30 1818 H 168.183 1.31577 -2.96846 0
M  V30 1819 H 169.194 -1.88137 -4.82519 0
M  V30 1820 H 165.871 0.604192 -4.13105 0
M  V30 1821 H 167.261 -2.96345 -6.03017 0
M  V30 1822 N 169.982 1.44106 -0.638065 0
M  V30 1823 C 171.259 1.95453 -0.0759321 0
M  V30 1824 C 171.639 1.57984 1.40015 0
M  V30 1825 O 170.987 0.857361 2.11806 0
M  V30 1826 C 171.197 3.47655 -0.306132 0
M  V30 1827 C 172.545 4.24114 -0.203008 0
M  V30 1828 O 173.569 3.55405 -0.237871 0
M  V30 1829 O 172.428 5.46381 -0.113827 0
M  V30 1830 H 169.522 0.826797 0.0183332 0
M  V30 1831 H 172.068 1.54122 -0.710251 0
M  V30 1832 H 170.84 3.68 -1.3301 0
M  V30 1833 H 170.463 3.95949 0.361991 0
M  V30 1834 N 171.46 0.379036 1.52974 0
M  V30 1835 C 172.706 -0.206727 2.01744 0
M  V30 1836 C 173.039 -1.47314 1.26539 0
M  V30 1837 O 172.314 -1.91084 0.362903 0
M  V30 1838 C 172.597 -0.485066 3.56818 0
M  V30 1839 C 172.45 0.795919 4.42702 0
M  V30 1840 C 173.769 -1.28003 4.21074 0
M  V30 1841 H 170.888 -0.0736607 0.73331 0
M  V30 1842 H 173.53 0.506581 1.83122 0
M  V30 1843 H 171.68 -1.09272 3.72816 0
M  V30 1844 H 173.352 1.43307 4.38476 0
M  V30 1845 H 171.595 1.41344 4.10127 0
M  V30 1846 H 172.266 0.555947 5.49193 0
M  V30 1847 H 174.742 -0.765867 4.08991 0
M  V30 1848 H 173.618 -1.44352 5.29579 0
M  V30 1849 H 173.879 -2.29236 3.78026 0
M  V30 1850 N 172.938 -1.57226 0.108567 0
M  V30 1851 C 174.215 -1.86333 -0.594939 0
M  V30 1852 C 174.595 -1.00788 -1.85486 0
M  V30 1853 O 173.943 -0.0839293 -2.28346 0
M  V30 1854 C 174.153 -3.37265 -0.897405 0
M  V30 1855 C 175.501 -4.05629 -1.25501 0
M  V30 1856 O 176.525 -3.42224 -0.987998 0
M  V30 1857 O 175.384 -5.17531 -1.75567 0
M  V30 1858 H 172.478 -0.771018 -0.2991 0
M  V30 1859 H 175.024 -1.69102 0.142283 0
M  V30 1860 H 173.796 -3.913 -0.00413806 0
M  V30 1861 H 173.419 -3.59889 -1.69014 0
M  V30 1862 N 174.416 0.165178 -1.56732 0
M  V30 1863 C 175.663 0.880807 -1.8234 0
M  V30 1864 C 175.991 1.81977 -0.686621 0
M  V30 1865 O 175.246 1.92971 0.325697 0
M  V30 1866 C 175.545 1.70405 -3.1416 0
M  V30 1867 C 175.211 0.913475 -4.4155 0
M  V30 1868 C 173.873 0.695303 -4.7615 0
M  V30 1869 C 176.225 0.359349 -5.1996 0
M  V30 1870 C 173.553 -0.0879947 -5.86634 0
M  V30 1871 C 175.905 -0.410893 -6.31264 0
M  V30 1872 C 174.569 -0.639808 -6.64427 0
M  V30 1873 H 173.839 0.32231 -0.667231 0
M  V30 1874 H 176.486 0.145402 -1.90947 0
M  V30 1875 H 174.791 2.50903 -3.00923 0
M  V30 1876 H 176.488 2.26091 -3.31186 0
M  V30 1877 H 173.078 1.09357 -4.14414 0
M  V30 1878 H 177.262 0.515228 -4.93618 0
M  V30 1879 H 172.518 -0.27503 -6.10781 0
M  V30 1880 H 176.692 -0.847494 -6.91224 0
M  V30 1881 H 174.319 -1.24864 -7.49875 0
M  V30 1882 N 175.894 1.51508 0.433938 0
M  V30 1883 C 176.824 1.76016 1.53429 0
M  V30 1884 C 177.805 0.610112 1.58782 0
M  V30 1885 O 178.99 0.853177 1.74455 0
M  V30 1886 C 176.12 1.88831 2.9148 0
M  V30 1887 C 175.074 3.04288 3.00987 0
M  V30 1888 C 174.4 3.0229 4.4105 0
M  V30 1889 C 175.7 4.44193 2.74754 0
M  V30 1890 H 177.394 2.68152 1.33171 0
M  V30 1891 H 174.94 1.29035 0.639214 0
M  V30 1892 H 176.893 2.04559 3.6842 0
M  V30 1893 H 175.617 0.933455 3.12976 0
M  V30 1894 H 174.276 2.8827 2.26486 0
M  V30 1895 H 173.924 2.04576 4.59519 0
M  V30 1896 H 173.624 3.79822 4.4834 0
M  V30 1897 H 175.148 3.20116 5.1996 0
M  V30 1898 H 176.562 4.60544 3.41426 0
M  V30 1899 H 174.959 5.23457 2.9345 0
M  V30 1900 H 176.029 4.53996 1.70339 0
M  V30 1901 N 177.372 -0.689602 1.41712 0
M  V30 1902 C 178.597 -1.48329 1.44959 0
M  V30 1903 C 179.022 -1.8801 0.0581283 0
M  V30 1904 O 178.38 -1.55026 -0.940035 0
M  V30 1905 C 178.428 -2.71835 2.36935 0
M  V30 1906 O 177.532 -3.69549 1.8305 0
M  V30 1907 H 176.873 -0.446199 0.491734 0
M  V30 1908 H 179.403 -0.847127 1.86239 0
M  V30 1909 H 179.413 -3.20076 2.53013 0
M  V30 1910 H 178.088 -2.42291 3.38035 0
M  V30 1911 H 176.665 -3.2851 1.76452 0
M  V30 1912 N 178.85 -1.27639 -0.924453 0
M  V30 1913 C 180.09 -1.15407 -1.68703 0
M  V30 1914 C 180.454 0.294581 -1.89727 0
M  V30 1915 O 181.655 0.539385 -2.63333 0
M  V30 1916 C 179.926 -1.9195 -3.0148 0
M  V30 1917 S 181.485 -1.95969 -3.92609 0
M  V30 1918 H 178.303 -0.411937 -0.579507 0
M  V30 1919 H 180.905 -1.61592 -1.10038 0
M  V30 1920 H 179.609 -2.96387 -2.83871 0
M  V30 1921 H 179.14 -1.46272 -3.65196 0
M  V30 1922 H 181.155 -1.05846 -4.84779 0
M  V30 1923 N 180.328 1.1314 -1.09713 0
M  V30 1924 C 181.553 1.88862 -0.857081 0
M  V30 1925 C 181.978 1.78729 0.586304 0
M  V30 1926 O 181.336 1.13692 1.41222 0
M  V30 1927 C 181.384 3.36325 -1.30069 0
M  V30 1928 O 180.488 4.09815 -0.461007 0
M  V30 1929 H 179.829 0.587108 -0.310162 0
M  V30 1930 H 182.359 1.43129 -1.46203 0
M  V30 1931 H 182.369 3.87157 -1.28738 0
M  V30 1932 H 181.044 3.43017 -2.35185 0
M  V30 1933 H 179.621 3.68986 -0.538888 0
M  V30 1934 N 181.806 0.884767 1.30421 0
M  V30 1935 C 183.052 0.513218 1.96819 0
M  V30 1936 C 183.407 -0.927347 1.68577 0
M  V30 1937 O 182.7 -1.64644 0.979941 0
M  V30 1938 C 182.894 0.724318 3.49983 0
M  V30 1939 C 182.723 2.18385 3.93113 0
M  V30 1940 C 181.493 2.82839 4.18725 0
M  V30 1941 C 183.691 3.15763 4.05953 0
M  V30 1942 N 181.673 4.1939 4.48314 0
M  V30 1943 C 183.044 4.37387 4.39423 0
M  V30 1944 C 185.099 3.11555 3.88379 0
M  V30 1945 C 183.802 5.55343 4.5715 0
M  V30 1946 C 185.828 4.28782 4.07308 0
M  V30 1947 C 185.19 5.49172 4.41123 0
M  V30 1948 H 181.289 0.237123 0.745182 0
M  V30 1949 H 183.873 1.14246 1.57658 0
M  V30 1950 H 182.044 0.124565 3.882 0
M  V30 1951 H 183.776 0.31969 4.03435 0
M  V30 1952 H 180.531 2.33708 4.11919 0
M  V30 1953 H 180.955 4.89911 4.67243 0
M  V30 1954 H 185.597 2.19576 3.61312 0
M  V30 1955 H 183.315 6.47826 4.8306 0
M  V30 1956 H 186.901 4.26995 3.95179 0
M  V30 1957 H 185.781 6.38371 4.55469 0
M  V30 1958 N 183.284 -1.43765 0.645699 0
M  V30 1959 C 184.247 -2.29163 -0.0409488 0
M  V30 1960 C 185.247 -1.41813 -0.757996 0
M  V30 1961 O 186.437 -1.63527 -0.600382 0
M  V30 1962 C 183.569 -3.23716 -1.06869 0
M  V30 1963 H 184.762 -2.91366 0.710345 0
M  V30 1964 H 182.315 -1.5092 0.406547 0
M  V30 1965 H 183.05 -2.66393 -1.84947 0
M  V30 1966 H 182.835 -3.88105 -0.558277 0
M  V30 1967 H 184.325 -3.87831 -1.54845 0
M  V30 1968 N 184.763 -0.387143 -1.52771 0
M  V30 1969 C 186.009 0.196025 -2.0185 0
M  V30 1970 C 186.342 1.46641 -1.27319 0
M  V30 1971 O 185.617 1.90889 -0.373032 0
M  V30 1972 C 185.9 0.466136 -3.5707 0
M  V30 1973 C 185.753 -0.819385 -4.42274 0
M  V30 1974 C 187.072 1.25768 -4.21747 0
M  V30 1975 H 184.191 0.0697708 -0.73369 0
M  V30 1976 H 186.833 -0.516286 -1.82851 0
M  V30 1977 H 184.983 1.07293 -3.7339 0
M  V30 1978 H 186.655 -1.4563 -4.37709 0
M  V30 1979 H 184.898 -1.43517 -4.09372 0
M  V30 1980 H 185.569 -0.585065 -5.48891 0
M  V30 1981 H 188.045 0.744167 -4.09391 0
M  V30 1982 H 186.921 1.41541 -5.30337 0
M  V30 1983 H 187.182 2.27228 -3.79236 0
M  V30 1984 N 186.241 1.57166 -0.116904 0
M  V30 1985 C 187.489 1.94737 0.540533 0
M  V30 1986 C 187.81 1.00096 1.67349 0
M  V30 1987 O 187.08 0.0568854 1.95817 0
M  V30 1988 H 185.66 0.718981 0.202669 0
M  V30 1989 H 188.322 1.94017 -0.185353 0
M  V30 1990 H 187.418 2.97719 0.936483 0
M  V30 1991 N 187.719 -0.156864 1.56817 0
M  V30 1992 C 189.13 -0.717916 1.72345 0
M  V30 1993 C 189.481 -1.82124 0.729747 0
M  V30 1994 O 188.606 -2.16141 -0.105781 0
M  V30 1995 C 189.201 -1.30904 3.12489 0
M  V30 1996 C 187.76 -1.81676 3.29653 0
M  V30 1997 C 186.907 -0.701349 2.68284 0
M  V30 1998 H 189.858 0.0686989 1.58551 0
M  V30 1999 H 189.879 -2.17882 3.11942 0
M  V30 2000 H 189.391 -0.505796 3.8479 0
M  V30 2001 H 187.492 -2.64598 2.62333 0
M  V30 2002 H 187.605 -1.95226 4.3752 0
M  V30 2003 H 185.969 -1.12548 2.28484 0
M  V30 2004 H 186.752 0.0902846 3.43181 0
M  V30 2005 N 189.197 -1.51736 -0.425897 0
M  V30 2006 C 190.445 -1.64644 -1.17204 0
M  V30 2007 C 190.766 -0.370486 -1.91448 0
M  V30 2008 O 190.036 0.614088 -1.86026 0
M  V30 2009 H 188.616 -0.606819 -0.435638 0
M  V30 2010 H 191.278 -1.88713 -0.487177 0
M  V30 2011 H 190.374 -2.47958 -1.89534 0
M  V30 2012 N 190.675 0.682077 -1.42076 0
M  V30 2013 C 191.638 1.77756 -1.44691 0
M  V30 2014 C 192.638 1.5726 -0.335535 0
M  V30 2015 O 193.828 1.63686 -0.596037 0
M  V30 2016 C 190.96 3.16301 -1.27146 0
M  V30 2017 H 192.153 1.76826 -2.42224 0
M  V30 2018 H 189.706 0.891012 -1.28416 0
M  V30 2019 H 190.441 3.22862 -0.305075 0
M  V30 2020 H 190.226 3.32581 -2.07683 0
M  V30 2021 H 191.716 3.96241 -1.31843 0
M  V30 2022 N 192.153 1.28127 0.917671 0
M  V30 2023 C 193.564 1.13622 1.48145 0
M  V30 2024 C 193.915 -0.275207 1.9426 0
M  V30 2025 O 193.04 -1.1691 1.82102 0
M  V30 2026 C 193.635 2.05648 2.69248 0
M  V30 2027 C 192.194 1.95219 3.21818 0
M  V30 2028 C 191.341 1.97618 1.94532 0
M  V30 2029 H 194.292 1.40874 0.730772 0
M  V30 2030 H 194.313 1.61818 3.44377 0
M  V30 2031 H 193.825 3.08365 2.35653 0
M  V30 2032 H 191.926 0.955244 3.60147 0
M  V30 2033 H 192.039 2.81976 3.87333 0
M  V30 2034 H 190.403 1.41973 2.11461 0
M  V30 2035 H 191.186 3.02007 1.63238 0
M  V30 2036 N 193.631 -1.12557 1.10312 0
M  V30 2037 C 194.594 -2.16434 0.75424 0
M  V30 2038 C 195.594 -1.59278 -0.220685 0
M  V30 2039 O 196.784 -1.742 0.00230591 0
M  V30 2040 C 193.916 -3.40699 0.116987 0
M  V30 2041 H 195.109 -2.48811 1.67431 0
M  V30 2042 H 192.662 -1.27542 0.903475 0
M  V30 2043 H 193.397 -3.13921 -0.813877 0
M  V30 2044 H 193.182 -3.83459 0.818613 0
M  V30 2045 H 194.672 -4.17451 -0.111387 0
M  V30 2046 N 195.109 -0.891671 -1.2995 0
M  V30 2047 C 196.386 -0.433307 -1.9074 0
M  V30 2048 C 196.766 1.08646 -1.80995 0
M  V30 2049 O 196.114 1.92476 -1.23147 0
M  V30 2050 C 196.324 -0.938895 -3.36134 0
M  V30 2051 C 197.672 -0.977829 -4.13187 0
M  V30 2052 O 198.696 -0.886015 -3.45005 0
M  V30 2053 O 197.555 -1.11453 -5.35015 0
M  V30 2054 H 194.649 -0.133699 -0.816121 0
M  V30 2055 H 197.195 -0.981011 -1.38471 0
M  V30 2056 H 195.967 -1.98281 -3.37343 0
M  V30 2057 H 195.59 -0.37074 -3.95868 0
M  V30 2058 N 196.587 1.43421 -0.653314 0
M  V30 2059 C 197.833 2.02111 -0.166992 0
M  V30 2060 C 198.166 1.51423 1.21592 0
M  V30 2061 O 197.441 0.707389 1.8118 0
M  V30 2062 C 197.724 3.5966 -0.177948 0
M  V30 2063 C 197.577 4.20579 -1.59478 0
M  V30 2064 C 198.896 4.37413 0.4856 0
M  V30 2065 H 196.015 0.734374 -0.0621557 0
M  V30 2066 H 198.657 1.70717 -0.834016 0
M  V30 2067 H 196.807 3.86537 0.390032 0
M  V30 2068 H 198.479 4.04732 -2.21336 0
M  V30 2069 H 196.722 3.77226 -2.14204 0
M  V30 2070 H 197.393 5.29665 -1.5543 0
M  V30 2071 H 199.869 4.161 0.00234528 0
M  V30 2072 H 198.745 5.47075 0.447207 0
M  V30 2073 H 199.006 4.13672 1.55974 0
M  V30 2074 N 198.065 0.39524 1.52563 0
M  V30 2075 C 198.997 -0.472201 2.24283 0
M  V30 2076 C 200.01 -1.02178 1.26742 0
M  V30 2077 O 201.199 -0.923097 1.52778 0
M  V30 2078 C 198.299 -1.66775 2.95024 0
M  V30 2079 C 197.472 -1.2445 4.19322 0
M  V30 2080 C 196.531 -2.30539 4.7301 0
M  V30 2081 O 195.557 -1.91702 5.35947 0
M  V30 2082 N 196.759 -3.6253 4.53379 0
M  V30 2083 H 199.524 0.142282 2.99362 0
M  V30 2084 H 197.085 0.2219 1.60372 0
M  V30 2085 H 199.077 -2.37283 3.27839 0
M  V30 2086 H 197.647 -2.18845 2.23217 0
M  V30 2087 H 196.867 -0.368069 3.92478 0
M  V30 2088 H 198.155 -0.938457 5.0007 0
M  V30 2089 H 197.553 -3.96841 4.03154 0
M  V30 2090 H 196.11 -4.29055 4.90668 0
M  V30 2091 N 199.544 -1.57102 0.125237 0
M  V30 2092 C 200.774 -1.99472 -0.538015 0
M  V30 2093 C 201.182 -1.00395 -1.60366 0
M  V30 2094 O 200.525 0.0103875 -1.83697 0
M  V30 2095 C 200.587 -3.38262 -1.21734 0
M  V30 2096 C 200.251 -4.56021 -0.298897 0
M  V30 2097 C 201.248 -5.17817 0.464943 0
M  V30 2098 C 198.933 -5.01869 -0.208149 0
M  V30 2099 C 200.927 -6.23852 1.3072 0
M  V30 2100 C 198.614 -6.07763 0.637736 0
M  V30 2101 C 199.612 -6.68622 1.39403 0
M  V30 2102 O 199.3 -7.7247 2.22586 0
M  V30 2103 H 199.032 -0.659934 -0.146501 0
M  V30 2104 H 201.586 -2.04321 0.210267 0
M  V30 2105 H 199.816 -3.30185 -2.01282 0
M  V30 2106 H 201.505 -3.6488 -1.77813 0
M  V30 2107 H 202.271 -4.83308 0.404741 0
M  V30 2108 H 198.15 -4.54241 -0.786522 0
M  V30 2109 H 201.694 -6.71284 1.898 0
M  V30 2110 H 197.591 -6.41701 0.699309 0
M  V30 2111 H 198.359 -7.89595 2.15596 0
M  V30 2112 N 201.022 0.148545 -1.56898 0
M  V30 2113 C 202.299 0.890019 -1.74178 0
M  V30 2114 C 202.679 1.99407 -0.692839 0
M  V30 2115 O 202.027 2.26671 0.288505 0
M  V30 2116 C 202.237 1.43389 -3.18183 0
M  V30 2117 C 203.585 1.89791 -3.79822 0
M  V30 2118 O 204.609 1.53134 -3.21603 0
M  V30 2119 O 203.468 2.57387 -4.82093 0
M  V30 2120 H 200.562 0.420496 -0.712118 0
M  V30 2121 H 203.108 0.134591 -1.69165 0
M  V30 2122 H 201.88 0.640383 -3.86024 0
M  V30 2123 H 201.503 2.25287 -3.27615 0
M  V30 2124 N 202.5 1.5196 0.417844 0
M  V30 2125 C 203.43 1.77634 1.51554 0
M  V30 2126 C 204.411 0.626918 1.58126 0
M  V30 2127 O 205.596 0.871632 1.7354 0
M  V30 2128 C 202.726 1.91911 2.8946 0
M  V30 2129 C 201.68 3.07463 2.97743 0
M  V30 2130 C 201.006 3.06951 4.37819 0
M  V30 2131 C 202.306 4.47082 2.70027 0
M  V30 2132 H 204 2.6955 1.3032 0
M  V30 2133 H 201.546 1.29706 0.625492 0
M  V30 2134 H 203.499 2.08455 3.6623 0
M  V30 2135 H 202.223 0.966598 3.11969 0
M  V30 2136 H 200.882 2.90656 2.23416 0
M  V30 2137 H 200.53 2.09438 4.57323 0
M  V30 2138 H 200.23 3.84556 4.44286 0
M  V30 2139 H 201.754 3.25613 5.16535 0
M  V30 2140 H 203.168 4.6414 3.36522 0
M  V30 2141 H 201.565 5.2654 2.87881 0
M  V30 2142 H 202.635 4.55777 1.65514 0
M  V30 2143 N 203.978 -0.674533 1.42435 0
M  V30 2144 C 205.208 -1.46071 1.46105 0
M  V30 2145 C 205.616 -1.89067 0.0709605 0
M  V30 2146 O 204.959 -1.58731 -0.924677 0
M  V30 2147 C 205.021 -2.74145 2.32561 0
M  V30 2148 C 204.685 -2.53224 3.8043 0
M  V30 2149 C 205.682 -2.17809 4.72075 0
M  V30 2150 C 203.367 -2.6821 4.24698 0
M  V30 2151 C 205.361 -1.97648 6.05982 0
M  V30 2152 C 203.048 -2.47665 5.58664 0
M  V30 2153 C 204.046 -2.12437 6.49122 0
M  V30 2154 O 203.734 -1.9209 7.80613 0
M  V30 2155 H 203.466 -0.455959 0.499076 0
M  V30 2156 H 206.02 -0.836193 1.87609 0
M  V30 2157 H 204.25 -3.3908 1.85908 0
M  V30 2158 H 205.939 -3.36028 2.27683 0
M  V30 2159 H 206.705 -2.05826 4.39159 0
M  V30 2160 H 202.584 -2.94609 3.54579 0
M  V30 2161 H 206.128 -1.70075 6.7655 0
M  V30 2162 H 202.025 -2.59244 5.91154 0
M  V30 2163 H 202.793 -2.06686 7.91974 0
M  V30 2164 N 205.456 -1.28612 -0.910864 0
M  V30 2165 C 206.386 -1.15326 -2.03032 0
M  V30 2166 C 207.367 -0.0502924 -1.70026 0
M  V30 2167 O 208.552 -0.227797 -1.92859 0
M  V30 2168 C 205.682 -0.817343 -3.37545 0
M  V30 2169 C 204.636 -1.8754 -3.84724 0
M  V30 2170 C 203.962 -1.39305 -5.16235 0
M  V30 2171 C 205.262 -3.28244 -4.06267 0
M  V30 2172 H 206.956 -2.08975 -2.14406 0
M  V30 2173 H 204.502 -1.00612 -1.03021 0
M  V30 2174 H 206.455 -0.711151 -4.15356 0
M  V30 2175 H 205.179 0.154846 -3.26233 0
M  V30 2176 H 203.838 -1.97079 -3.09121 0
M  V30 2177 H 203.486 -0.409846 -5.01328 0
M  V30 2178 H 203.186 -2.10057 -5.48771 0
M  V30 2179 H 204.71 -1.30014 -5.96598 0
M  V30 2180 H 206.124 -3.21611 -4.74594 0
M  V30 2181 H 204.521 -3.96855 -4.5014 0
M  V30 2182 H 205.591 -3.72048 -3.10979 0
M  V30 2183 N 206.934 1.1197 -1.10907 0
M  V30 2184 C 207.882 2.19927 -0.757303 0
M  V30 2185 C 208.876 1.67564 0.248747 0
M  V30 2186 O 210.082 1.79672 0.108605 0
M  V30 2187 H 206.457 0.716925 -0.226987 0
M  V30 2188 H 208.428 2.46847 -1.67658 0
M  V30 2189 C 207.177 3.47061 -0.210671 0
M  V30 2190 H 206.5 3.87703 -0.976049 0
M  V30 2191 H 207.94 4.24 -0.0026584 0
M  V30 2192 C 206.399 3.19864 1.05777 0
M  V30 2193 O 206.929 3.40049 2.13845 0
M  V30 2194 N 205.135 2.73636 0.978349 0
M  V30 2195 H 204.682 2.5741 0.0988246 0
M  V30 2196 H 204.64 2.55815 1.82773 0
M  V30 2197 N 208.412 0.89855 1.29475 0
M  V30 2198 C 209.658 0.524658 1.95896 0
M  V30 2199 C 209.991 -0.926468 1.70676 0
M  V30 2200 O 209.266 -1.65665 1.01908 0
M  V30 2201 C 209.549 0.81633 3.50725 0
M  V30 2202 C 209.402 2.31907 3.85408 0
M  V30 2203 C 210.721 0.302038 4.39062 0
M  V30 2204 H 207.84 0.19209 0.711527 0
M  V30 2205 H 210.482 1.12502 1.53112 0
M  V30 2206 H 208.632 0.305369 3.87298 0
M  V30 2207 H 210.304 2.89949 3.58786 0
M  V30 2208 H 208.547 2.78027 3.32992 0
M  V30 2209 H 209.218 2.47373 4.93468 0
M  V30 2210 H 211.694 0.739551 4.09475 0
M  V30 2211 H 210.57 0.535331 5.46283 0
M  V30 2212 H 210.831 -0.797216 4.34853 0
M  V30 2213 N 209.89 -1.43072 0.660911 0
M  V30 2214 C 210.853 -2.29194 -0.0166406 0
M  V30 2215 C 211.853 -1.42609 -0.742912 0
M  V30 2216 O 213.043 -1.64155 -0.583004 0
M  V30 2217 C 210.175 -3.24831 -1.0343 0
M  V30 2218 H 211.368 -2.90596 0.741208 0
M  V30 2219 H 208.921 -1.5048 0.422532 0
M  V30 2220 H 209.656 -2.68339 -1.82111 0
M  V30 2221 H 209.441 -3.88676 -0.517082 0
M  V30 2222 H 210.931 -3.89451 -1.50723 0
M  V30 2223 N 211.368 -0.403325 -1.52352 0
M  V30 2224 C 212.316 0.439752 -2.28405 0
M  V30 2225 C 213.31 1.05089 -1.32863 0
M  V30 2226 O 214.516 0.989759 -1.50345 0
M  V30 2227 H 210.891 0.160587 -0.734653 0
M  V30 2228 H 212.862 -0.222983 -2.97566 0
M  V30 2229 C 211.611 1.54736 -3.11371 0
M  V30 2230 H 210.934 1.08643 -3.84755 0
M  V30 2231 H 212.374 2.1112 -3.67701 0
M  V30 2232 C 210.833 2.51141 -2.24566 0
M  V30 2233 O 211.363 3.54887 -1.88196 0
M  V30 2234 N 209.569 2.21213 -1.8845 0
M  V30 2235 H 209.116 1.36878 -2.18225 0
M  V30 2236 H 209.074 2.85963 -1.30662 0
M  V30 2237 N 212.846 1.57033 -0.133567 0
M  V30 2238 C 214.262 1.58035 0.222944 0
M  V30 2239 C 214.462 1.14713 1.6566 0
M  V30 2240 O 213.518 0.841218 2.38075 0
M  V30 2241 C 214.831 3.00691 -0.0236116 0
M  V30 2242 C 216.379 3.12973 0.0411512 0
M  V30 2243 C 216.854 4.57654 -0.177899 0
M  V30 2244 N 218.345 4.63033 -0.124365 0
M  V30 2245 C 219.08 5.72771 -0.268553 0
M  V30 2246 N 218.576 6.91206 -0.46972 0
M  V30 2247 N 220.369 5.61718 -0.2071 0
M  V30 2248 H 212.52 1.8349 -1.06981 0
M  V30 2249 H 214.783 0.848677 -0.422436 0
M  V30 2250 H 214.489 3.36726 -1.0153 0
M  V30 2251 H 214.363 3.70614 0.701808 0
M  V30 2252 H 216.75 2.76787 1.02338 0
M  V30 2253 H 216.831 2.45564 -0.716383 0
M  V30 2254 H 216.475 4.94542 -1.15717 0
M  V30 2255 H 216.405 5.23173 0.599797 0
M  V30 2256 H 218.896 3.7789 0.027011 0
M  V30 2257 H 219.209 7.70693 -0.570212 0
M  V30 2258 H 217.554 6.93156 -0.505876 0
M  V30 2259 H 220.745 4.68072 -0.0507986 0
M  V30 2260 H 220.918 6.47195 -0.322909 0
M  V30 2261 N 214.325 -0.140222 1.56975 0
M  V30 2262 C 215.741 -0.493088 1.51792 0
M  V30 2263 C 215.941 -1.83013 0.843116 0
M  V30 2264 O 214.997 -2.49041 0.416493 0
M  V30 2265 C 216.31 -0.497144 2.96562 0
M  V30 2266 C 217.858 -0.582186 3.07538 0
M  V30 2267 C 218.333 -0.616838 4.53827 0
M  V30 2268 N 219.824 -0.678873 4.58198 0
M  V30 2269 C 220.559 -0.726782 5.68775 0
M  V30 2270 N 220.055 -0.733623 6.88905 0
M  V30 2271 N 221.848 -0.768179 5.56826 0
M  V30 2272 H 213.999 0.736108 1.99237 0
M  V30 2273 H 216.262 0.269182 0.90898 0
M  V30 2274 H 215.968 0.417217 3.49217 0
M  V30 2275 H 215.842 -1.33263 3.52875 0
M  V30 2276 H 218.229 -1.48697 2.54899 0
M  V30 2277 H 218.31 0.280581 2.54257 0
M  V30 2278 H 217.954 0.283812 5.07106 0
M  V30 2279 H 217.884 -1.49619 5.04898 0
M  V30 2280 H 220.375 -0.68061 3.7172 0
M  V30 2281 H 220.688 -0.772215 7.68932 0
M  V30 2282 H 219.033 -0.701389 6.91452 0
M  V30 2283 H 222.224 -0.760051 4.61888 0
M  V30 2284 H 222.397 -0.80205 6.43017 0
M  V30 2285 N 215.803 -1.52179 -0.40978 0
M  V30 2286 C 216.735 -1.71703 -1.51825 0
M  V30 2287 C 217.748 -0.597445 -1.51441 0
M  V30 2288 O 218.937 -0.872582 -1.55719 0
M  V30 2289 C 216.037 -1.74171 -2.90719 0
M  V30 2290 C 215.21 -3.03156 -3.15302 0
M  V30 2291 C 214.269 -2.97445 -4.34065 0
M  V30 2292 O 213.295 -3.71352 -4.31377 0
M  V30 2293 N 214.497 -2.15191 -5.39141 0
M  V30 2294 H 217.262 -2.67334 -1.35472 0
M  V30 2295 H 214.823 -1.50409 -0.599069 0
M  V30 2296 H 216.815 -1.67884 -3.68235 0
M  V30 2297 H 215.385 -0.860166 -3.00533 0
M  V30 2298 H 214.605 -3.23097 -2.25836 0
M  V30 2299 H 215.893 -3.88484 -3.28569 0
M  V30 2300 H 215.291 -1.54573 -5.44173 0
M  V30 2301 H 213.848 -2.1476 -6.15403 0
M  V30 2302 N 217.281 0.66697 -1.42791 0
M  V30 2303 C 218.213 1.7925 -1.42836 0
M  V30 2304 C 219.226 1.59496 -0.326333 0
M  V30 2305 O 220.415 1.6847 -0.589916 0
M  V30 2306 C 217.515 3.16476 -1.21229 0
M  V30 2307 C 216.688 3.63011 -2.44013 0
M  V30 2308 C 215.747 4.78993 -2.17834 0
M  V30 2309 O 214.773 4.89137 -2.91091 0
M  V30 2310 N 215.975 5.68248 -1.18635 0
M  V30 2311 H 218.74 1.79695 -2.39854 0
M  V30 2312 H 216.301 0.850338 -1.37771 0
M  V30 2313 H 218.293 3.91734 -1.01621 0
M  V30 2314 H 216.863 3.10884 -0.32706 0
M  V30 2315 H 216.083 2.78346 -2.79137 0
M  V30 2316 H 217.371 3.90845 -3.25757 0
M  V30 2317 H 216.769 5.62712 -0.580615 0
M  V30 2318 H 215.326 6.43285 -1.05013 0
M  V30 2319 N 218.759 1.29093 0.90403 0
M  V30 2320 C 219.989 1.19516 1.68522 0
M  V30 2321 C 220.397 -0.24738 1.87576 0
M  V30 2322 O 219.74 -1.17798 1.40959 0
M  V30 2323 C 219.802 1.83249 3.0929 0
M  V30 2324 C 219.466 3.32531 3.13484 0
M  V30 2325 C 220.463 4.28821 2.93953 0
M  V30 2326 C 218.148 3.73656 3.35688 0
M  V30 2327 C 220.142 5.64212 2.96553 0
M  V30 2328 C 217.829 5.0917 3.37919 0
M  V30 2329 C 218.827 6.04258 3.18373 0
M  V30 2330 O 218.515 7.37298 3.20385 0
M  V30 2331 H 218.247 0.415467 0.533257 0
M  V30 2332 H 220.801 1.70912 1.13922 0
M  V30 2333 H 219.031 1.26358 3.65473 0
M  V30 2334 H 220.72 1.68054 3.69476 0
M  V30 2335 H 221.486 3.98382 2.76616 0
M  V30 2336 H 217.365 3.00101 3.49943 0
M  V30 2337 H 220.909 6.38407 2.81216 0
M  V30 2338 H 216.806 5.39256 3.54787 0
M  V30 2339 H 217.574 7.46048 3.36681 0
M  V30 2340 N 220.237 -1.11381 1.11499 0
M  V30 2341 C 221.147 -2.21019 0.786628 0
M  V30 2342 C 222.163 -1.72597 -0.220507 0
M  V30 2343 O 223.339 -2.01321 -0.0565251 0
M  V30 2344 C 220.404 -3.459 0.235333 0
M  V30 2345 C 219.465 -4.09107 1.30115 0
M  V30 2346 C 218.698 -5.28027 0.776068 0
M  V30 2347 O 218.921 -5.6904 -0.393661 0
M  V30 2348 O 217.855 -5.81835 1.54114 0
M  V30 2349 H 221.681 -2.51521 1.70209 0
M  V30 2350 H 219.266 -1.19928 0.890928 0
M  V30 2351 H 221.148 -4.21346 -0.067715 0
M  V30 2352 H 219.823 -3.17049 -0.652828 0
M  V30 2353 H 218.73 -3.35391 1.65722 0
M  V30 2354 H 220.063 -4.42139 2.16273 0
M  V30 2355 N 221.715 -0.905404 -1.28997 0
M  V30 2356 C 222.955 -0.541232 -1.97104 0
M  V30 2357 C 223.319 0.896841 -1.69767 0
M  V30 2358 O 224.52 1.36817 -2.31375 0
M  V30 2359 C 222.791 -0.832134 -3.47578 0
M  V30 2360 S 224.35 -0.573127 -4.35041 0
M  V30 2361 H 221.168 -0.200576 -0.682122 0
M  V30 2362 H 223.77 -1.16906 -1.56694 0
M  V30 2363 H 222.474 -1.87687 -3.64968 0
M  V30 2364 H 222.005 -0.192636 -3.92928 0
M  V30 2365 H 224.02 0.579297 -4.92807 0
M  V30 2366 N 223.193 1.4272 -0.668489 0
M  V30 2367 C 224.123 2.335 -0.000100175 0
M  V30 2368 C 225.104 1.50328 0.795964 0
M  V30 2369 O 226.289 1.78949 0.754385 0
M  V30 2370 C 223.419 3.33874 0.956302 0
M  V30 2371 C 222.373 4.27152 0.269278 0
M  V30 2372 C 221.699 5.17684 1.33818 0
M  V30 2373 C 222.999 5.15373 -0.847805 0
M  V30 2374 H 224.693 2.89639 -0.758244 0
M  V30 2375 H 222.239 1.39269 -0.366079 0
M  V30 2376 H 224.192 3.9629 1.43292 0
M  V30 2377 H 222.916 2.76025 1.74579 0
M  V30 2378 H 221.575 3.66123 -0.187042 0
M  V30 2379 H 221.223 4.56165 2.1195 0
M  V30 2380 H 220.923 5.80918 0.883659 0
M  V30 2381 H 222.447 5.82974 1.81586 0
M  V30 2382 H 223.861 5.7151 -0.452681 0
M  V30 2383 H 222.258 5.87407 -1.22773 0
M  V30 2384 H 223.328 4.5415 -1.69929 0
M  V30 2385 N 224.671 0.411399 1.52136 0
M  V30 2386 C 225.621 -0.430376 2.23901 0
M  V30 2387 C 226.605 -1.0116 1.25121 0
M  V30 2388 O 227.797 -0.934044 1.50348 0
M  V30 2389 C 224.926 -1.54527 3.06556 0
M  V30 2390 C 224.012 -0.9747 4.12747 0
M  V30 2391 N 224.403 -0.130991 5.0563 0
M  V30 2392 C 222.701 -1.24497 4.28271 0
M  V30 2393 C 223.402 0.186689 5.814 0
M  V30 2394 N 222.378 -0.42304 5.41951 0
M  V30 2395 H 226.18 0.220509 2.93072 0
M  V30 2396 H 223.694 0.221952 1.60876 0
M  V30 2397 H 225.691 -2.16093 3.56524 0
M  V30 2398 H 224.351 -2.19875 2.38925 0
M  V30 2399 H 225.362 0.23349 5.17373 0
M  V30 2400 H 222.039 -1.89787 3.7187 0
M  V30 2401 H 223.429 0.871673 6.66222 0
M  V30 2402 N 226.149 -1.5696 0.141893 0
M  V30 2403 C 227.379 -2.00031 -0.516828 0
M  V30 2404 C 227.787 -1.02091 -1.59293 0
M  V30 2405 O 227.13 -0.00909657 -1.83698 0
M  V30 2406 C 227.192 -3.39534 -1.1814 0
M  V30 2407 C 226.856 -4.56313 -0.250513 0
M  V30 2408 C 227.853 -5.17295 0.519839 0
M  V30 2409 C 225.538 -5.02061 -0.154907 0
M  V30 2410 C 227.532 -6.2243 1.3733 0
M  V30 2411 C 225.219 -6.07053 0.702161 0
M  V30 2412 C 226.217 -6.67106 1.46487 0
M  V30 2413 O 225.905 -7.70066 2.30767 0
M  V30 2414 H 225.637 -0.661451 -0.139493 0
M  V30 2415 H 228.191 -2.04086 0.231926 0
M  V30 2416 H 226.421 -3.32302 -1.97769 0
M  V30 2417 H 228.11 -3.66745 -1.73933 0
M  V30 2418 H 228.876 -4.82852 0.45598 0
M  V30 2419 H 224.755 -4.5505 -0.7383 0
M  V30 2420 H 228.299 -6.69233 1.96909 0
M  V30 2421 H 224.196 -6.40923 0.76733 0
M  V30 2422 H 224.964 -7.87264 2.23959 0
M  V30 2423 N 227.627 0.131896 -1.57047 0
M  V30 2424 C 228.574 1.16236 -1.99393 0
M  V30 2425 C 229.544 1.41863 -0.863943 0
M  V30 2426 O 230.729 1.53946 -1.12718 0
M  V30 2427 C 227.869 2.48708 -2.39245 0
M  V30 2428 C 226.982 2.30127 -3.65603 0
M  V30 2429 C 226.117 3.55738 -3.94492 0
M  V30 2430 C 225.156 3.32259 -5.14073 0
M  V30 2431 N 224.293 4.50039 -5.38896 0
M  V30 2432 H 229.133 0.794251 -2.87221 0
M  V30 2433 H 226.67 0.380707 -1.42088 0
M  V30 2434 H 228.628 3.25969 -2.60384 0
M  V30 2435 H 227.258 2.83437 -1.54478 0
M  V30 2436 H 226.31 1.43845 -3.52154 0
M  V30 2437 H 227.622 2.08746 -4.5302 0
M  V30 2438 H 226.776 4.41423 -4.1621 0
M  V30 2439 H 225.515 3.80138 -3.05526 0
M  V30 2440 H 224.52 2.44963 -4.92212 0
M  V30 2441 H 225.745 3.09242 -6.04604 0
M  V30 2442 H 223.691 4.74584 -4.52886 0
M  V30 2443 H 223.608 4.31716 -6.2061 0
M  V30 2444 H 224.876 5.36895 -5.65123 0
M  V30 2445 N 229.106 1.52395 0.401703 0
M  V30 2446 C 230.334 1.70676 1.16949 0
M  V30 2447 C 230.749 0.419503 1.8408 0
M  V30 2448 O 230.106 -0.605061 1.72178 0
M  V30 2449 C 230.157 2.84753 2.22706 0
M  V30 2450 O 229.878 4.08495 1.58314 0
M  V30 2451 C 231.379 3.14608 3.12309 0
M  V30 2452 H 228.599 0.571787 0.351142 0
M  V30 2453 H 231.143 1.98987 0.471652 0
M  V30 2454 H 229.298 2.58941 2.88147 0
M  V30 2455 H 229.712 4.72117 2.28485 0
M  V30 2456 H 231.186 3.97923 3.82572 0
M  V30 2457 H 231.663 2.28464 3.75101 0
M  V30 2458 H 232.269 3.42212 2.52529 0
M  V30 2459 N 230.584 -0.659388 1.43143 0
M  V30 2460 C 231.861 -1.41627 1.34912 0
M  V30 2461 C 232.241 -2.11099 -0.00607785 0
M  V30 2462 O 231.589 -2.04353 -1.02236 0
M  V30 2463 C 231.799 -2.40604 2.52805 0
M  V30 2464 C 233.147 -3.04789 2.95616 0
M  V30 2465 O 234.171 -2.50932 2.52807 0
M  V30 2466 O 233.03 -4.02421 3.69756 0
M  V30 2467 H 230.124 -0.63246 0.532844 0
M  V30 2468 H 232.67 -0.686814 1.5518 0
M  V30 2469 H 231.442 -1.88174 3.43083 0
M  V30 2470 H 231.065 -3.21009 2.34604 0
M  V30 2471 N 232.062 -1.29571 -0.897171 0
M  V30 2472 C 233.025 -1.14913 -1.98312 0
M  V30 2473 C 234.025 -0.0838629 -1.60581 0
M  V30 2474 O 235.215 -0.331006 -1.71026 0
M  V30 2475 C 232.347 -0.757835 -3.3237 0
M  V30 2476 H 233.54 -2.11377 -2.12743 0
M  V30 2477 H 231.093 -1.12793 -1.08201 0
M  V30 2478 H 231.828 0.206837 -3.2364 0
M  V30 2479 H 231.613 -1.52755 -3.61121 0
M  V30 2480 H 233.103 -0.678408 -4.12053 0
M  V30 2481 N 233.54 1.10788 -1.12088 0
M  V30 2482 C 234.472 2.16816 -0.743213 0
M  V30 2483 C 235.485 1.6119 0.228412 0
M  V30 2484 O 236.674 1.78497 0.0102931 0
M  V30 2485 C 233.774 3.38809 -0.0787313 0
M  V30 2486 C 232.947 4.23885 -1.0789 0
M  V30 2487 C 232.006 5.24334 -0.442713 0
M  V30 2488 O 231.032 5.58497 -1.09864 0
M  V30 2489 N 232.234 5.75079 0.791457 0
M  V30 2490 H 234.999 2.49825 -1.65552 0
M  V30 2491 H 232.56 1.26373 -1.012 0
M  V30 2492 H 234.552 4.03107 0.358766 0
M  V30 2493 H 233.122 3.03805 0.736275 0
M  V30 2494 H 232.342 3.55939 -1.69414 0
M  V30 2495 H 233.63 4.77562 -1.75533 0
M  V30 2496 H 233.028 5.49517 1.3434 0
M  V30 2497 H 231.585 6.4118 1.17183 0
M  V30 2498 N 235.018 0.912232 1.28515 0
M  V30 2499 C 236.266 0.543523 1.94654 0
M  V30 2500 C 236.587 -0.9155 1.72173 0
M  V30 2501 O 235.857 -1.64708 1.06058 0
M  V30 2502 H 234.437 0.198017 0.720277 0
M  V30 2503 H 237.099 1.16126 1.56527 0
M  V30 2504 H 236.195 0.736684 3.03281 0
M  V30 2505 N 236.496 -1.42363 0.676048 0
M  V30 2506 C 237.724 -2.05859 0.207268 0
M  V30 2507 C 238.139 -1.50796 -1.13605 0
M  V30 2508 O 237.496 -0.648265 -1.70598 0
M  V30 2509 C 237.547 -3.61248 0.134975 0
M  V30 2510 O 237.268 -4.1427 1.42521 0
M  V30 2511 C 238.769 -4.41859 -0.357151 0
M  V30 2512 H 235.989 -0.663431 0.100503 0
M  V30 2513 H 238.533 -1.82479 0.923136 0
M  V30 2514 H 236.688 -3.83735 -0.531588 0
M  V30 2515 H 237.102 -5.0815 1.29939 0
M  V30 2516 H 238.576 -5.50847 -0.356641 0
M  V30 2517 H 239.053 -4.16536 -1.39264 0
M  V30 2518 H 239.659 -4.24392 0.27772 0
M  V30 2519 N 237.974 -0.419461 -1.51915 0
M  V30 2520 C 239.39 -0.0708431 -1.59443 0
M  V30 2521 C 239.59 1.41796 -1.43164 0
M  V30 2522 O 238.646 2.18596 -1.26381 0
M  V30 2523 C 239.959 -0.574991 -2.95151 0
M  V30 2524 C 241.507 -0.533867 -3.08413 0
M  V30 2525 C 241.982 -1.01469 -4.46618 0
M  V30 2526 N 243.473 -0.971939 -4.52888 0
M  V30 2527 C 244.208 -1.31505 -5.58116 0
M  V30 2528 N 243.704 -1.73014 -6.70849 0
M  V30 2529 N 245.497 -1.23436 -5.48379 0
M  V30 2530 H 237.648 -1.38836 -1.60743 0
M  V30 2531 H 239.911 -0.570998 -0.756747 0
M  V30 2532 H 239.617 -1.61597 -3.12377 0
M  V30 2533 H 239.491 0.00979777 -3.77199 0
M  V30 2534 H 241.878 0.498086 -2.90866 0
M  V30 2535 H 241.959 -1.15484 -2.28248 0
M  V30 2536 H 241.603 -2.04502 -4.6491 0
M  V30 2537 H 241.533 -0.370433 -5.25295 0
M  V30 2538 H 244.024 -0.666893 -3.71969 0
M  V30 2539 H 244.337 -1.97479 -7.47143 0
M  V30 2540 H 242.682 -1.76926 -6.72103 0
M  V30 2541 H 245.873 -0.908869 -4.59192 0
M  V30 2542 H 246.046 -1.50506 -6.30279 0
M  V30 2543 N 239.452 1.56882 -0.150215 0
M  V30 2544 C 240.701 1.95403 0.500071 0
M  V30 2545 C 241.014 1.03777 1.658 0
M  V30 2546 O 242.22 1.31889 2.37313 0
M  V30 2547 C 240.676 3.4738 0.941018 0
M  V30 2548 C 240.284 4.47596 -0.190158 0
M  V30 2549 C 242.028 3.9476 1.56091 0
M  V30 2550 C 239.935 5.90787 0.269237 0
M  V30 2551 H 238.865 0.729515 0.190588 0
M  V30 2552 H 241.516 1.81988 -0.235074 0
M  V30 2553 H 239.898 3.56138 1.73152 0
M  V30 2554 H 241.072 4.50536 -0.967157 0
M  V30 2555 H 239.387 4.10151 -0.718666 0
M  V30 2556 H 241.984 4.99181 1.9163 0
M  V30 2557 H 242.327 3.36494 2.45107 0
M  V30 2558 H 242.86 3.88932 0.835249 0
M  V30 2559 H 239.599 6.52879 -0.585621 0
M  V30 2560 H 239.119 5.912 1.01204 0
M  V30 2561 H 240.798 6.42979 0.720176 0
M  V30 2562 N 240.93 -0.123565 1.57115 0
M  V30 2563 C 242.178 -0.83051 1.84247 0
M  V30 2564 C 242.499 -1.80629 0.73471 0
M  V30 2565 O 241.769 -1.94403 -0.241688 0
M  V30 2566 H 240.349 -0.309694 0.679778 0
M  V30 2567 H 243.011 -0.111976 1.94578 0
M  V30 2568 H 242.107 -1.37852 2.80006 0
M  V30 2569 N 242.408 -1.52605 -0.393616 0
M  V30 2570 C 243.648 -1.6911 -1.1481 0
M  V30 2571 C 244.012 -0.41969 -1.87357 0
M  V30 2572 O 245.213 -0.461034 -2.64817 0
M  V30 2573 C 243.484 -2.88909 -2.10395 0
M  V30 2574 S 245.043 -3.25977 -2.93742 0
M  V30 2575 H 241.861 -0.595337 -0.38871 0
M  V30 2576 H 244.463 -1.90641 -0.433178 0
M  V30 2577 H 243.167 -3.79672 -1.55812 0
M  V30 2578 H 242.698 -2.69698 -2.86403 0
M  V30 2579 H 244.713 -2.75806 -4.12487 0
M  V30 2580 N 243.887 0.651787 -1.4349 0
M  V30 2581 C 245.303 0.96762 -1.26922 0
M  V30 2582 C 245.503 2.00602 -0.189982 0
M  V30 2583 O 244.559 2.48793 0.431107 0
M  V30 2584 C 245.872 1.45052 -2.63401 0
M  V30 2585 C 247.42 1.5671 -2.70945 0
M  V30 2586 C 247.895 2.0839 -4.07845 0
M  V30 2587 N 249.386 2.1569 -4.09917 0
M  V30 2588 C 250.121 2.56804 -5.12679 0
M  V30 2589 N 249.617 2.97203 -6.25813 0
M  V30 2590 N 251.41 2.56756 -5.00033 0
M  V30 2591 H 243.561 -0.0353158 -2.12371 0
M  V30 2592 H 245.824 0.0467858 -0.946845 0
M  V30 2593 H 245.53 0.761926 -3.43348 0
M  V30 2594 H 245.404 2.42529 -2.88894 0
M  V30 2595 H 247.791 2.2467 -1.9133 0
M  V30 2596 H 247.872 0.57662 -2.49216 0
M  V30 2597 H 247.516 1.41031 -4.87927 0
M  V30 2598 H 247.446 3.08271 -4.26938 0
M  V30 2599 H 249.937 1.87237 -3.28254 0
M  V30 2600 H 250.25 3.27328 -7.00055 0
M  V30 2601 H 248.595 2.95004 -6.29283 0
M  V30 2602 H 251.786 2.24572 -4.10713 0
M  V30 2603 H 251.959 2.88475 -5.80247 0
M  V30 2604 N 245.365 1.30045 0.890287 0
M  V30 2605 C 246.612 1.18561 1.64163 0
M  V30 2606 C 246.94 -0.260852 1.92743 0
M  V30 2607 O 246.195 -1.20376 1.54299 0
M  V30 2608 C 246.494 1.95409 2.99249 0
M  V30 2609 C 246.16 3.45066 2.90242 0
M  V30 2610 C 244.822 3.85878 2.87492 0
M  V30 2611 C 247.174 4.4039 2.78758 0
M  V30 2612 C 244.502 5.20314 2.7109 0
M  V30 2613 C 246.854 5.74928 2.63894 0
M  V30 2614 C 245.518 6.14986 2.59516 0
M  V30 2615 H 244.788 0.433846 0.600715 0
M  V30 2616 H 247.435 1.61088 1.03552 0
M  V30 2617 H 245.74 1.45501 3.63781 0
M  V30 2618 H 247.437 1.8392 3.56334 0
M  V30 2619 H 244.027 3.12631 2.93189 0
M  V30 2620 H 248.211 4.09806 2.79952 0
M  V30 2621 H 243.467 5.50449 2.66112 0
M  V30 2622 H 247.641 6.48434 2.53981 0
M  V30 2623 H 245.268 7.19104 2.46565 0
M  V30 2624 N 246.843 -1.10192 1.12674 0
M  V30 2625 C 248.12 -1.78717 0.794965 0
M  V30 2626 C 248.5 -1.98628 -0.714853 0
M  V30 2627 O 247.848 -1.58135 -1.64941 0
M  V30 2628 C 248.058 -3.11546 1.5729 0
M  V30 2629 C 249.406 -3.86382 1.76052 0
M  V30 2630 O 250.43 -3.21274 1.53823 0
M  V30 2631 O 249.289 -5.03246 2.13087 0
M  V30 2632 H 246.383 -0.774702 0.289423 0
M  V30 2633 H 248.929 -1.16819 1.23091 0
M  V30 2634 H 247.701 -2.92489 2.59935 0
M  V30 2635 H 247.324 -3.81164 1.13137 0
M  V30 2636 N 248.321 -0.919034 -1.28029 0
M  V30 2637 C 249.598 -0.473668 -1.89778 0
M  V30 2638 C 249.978 1.04783 -1.83259 0
M  V30 2639 O 249.326 1.8982 -1.27202 0
M  V30 2640 C 249.536 -1.00998 -3.34066 0
M  V30 2641 C 250.884 -1.06525 -4.1102 0
M  V30 2642 O 251.908 -0.958996 -3.43048 0
M  V30 2643 O 250.767 -1.22776 -5.3253 0
M  V30 2644 H 247.861 -0.15098 -0.813101 0
M  V30 2645 H 250.407 -1.01016 -1.36359 0
M  V30 2646 H 249.179 -2.05392 -3.33061 0
M  V30 2647 H 248.802 -0.454626 -3.94992 0
M  V30 2648 N 249.799 1.42003 -0.683588 0
M  V30 2649 C 251.048 2.00638 -0.206681 0
M  V30 2650 C 251.361 1.5472 1.19671 0
M  V30 2651 O 252.567 2.05833 1.77045 0
M  V30 2652 C 251.023 3.58487 -0.318632 0
M  V30 2653 C 250.631 4.1339 -1.72663 0
M  V30 2654 C 252.375 4.24384 0.0991141 0
M  V30 2655 C 250.282 5.63633 -1.79087 0
M  V30 2656 H 249.212 0.750408 -0.0735107 0
M  V30 2657 H 251.863 1.62624 -0.850048 0
M  V30 2658 H 250.245 3.94047 0.392781 0
M  V30 2659 H 251.419 3.89273 -2.46583 0
M  V30 2660 H 249.734 3.59976 -2.09299 0
M  V30 2661 H 252.331 5.34652 0.0713833 0
M  V30 2662 H 252.674 4.00505 1.13586 0
M  V30 2663 H 253.207 3.93816 -0.561599 0
M  V30 2664 H 249.946 5.92323 -2.80774 0
M  V30 2665 H 249.466 5.89714 -1.09535 0
M  V30 2666 H 251.145 6.28201 -1.5483 0
M  V30 2667 N 251.277 0.427512 1.51691 0
M  V30 2668 C 252.502 -0.143601 2.06902 0
M  V30 2669 C 252.927 -1.36536 1.29382 0
M  V30 2670 O 252.285 -1.78289 0.329043 0
M  V30 2671 C 252.333 -0.454207 3.57728 0
M  V30 2672 O 251.437 -1.54228 3.82475 0
M  V30 2673 H 250.778 -0.00617128 0.663971 0
M  V30 2674 H 253.308 0.606014 1.95419 0
M  V30 2675 H 253.318 -0.707525 4.01818 0
M  V30 2676 H 251.993 0.438812 4.13579 0
M  V30 2677 H 250.57 -1.2797 3.50254 0
M  V30 2678 N 252.755 -1.56801 0.158532 0
M  V30 2679 C 254.171 -1.5837 -0.197774 0
M  V30 2680 C 254.371 -1.17334 -1.63814 0
M  V30 2681 O 253.427 -0.878988 -2.36707 0
M  V30 2682 C 254.74 -3.00615 0.0714459 0
M  V30 2683 C 256.288 -3.12999 0.00864533 0
M  V30 2684 C 256.763 -4.57313 0.250685 0
M  V30 2685 N 258.254 -4.62777 0.198014 0
M  V30 2686 C 258.989 -5.72271 0.359642 0
M  V30 2687 N 258.485 -6.90371 0.579625 0
M  V30 2688 N 260.278 -5.61318 0.296438 0
M  V30 2689 H 252.429 -1.81765 1.09887 0
M  V30 2690 H 254.692 -0.841849 0.435884 0
M  V30 2691 H 254.398 -3.35068 1.06874 0
M  V30 2692 H 254.272 -3.71683 -0.642757 0
M  V30 2693 H 256.659 -2.7838 -0.979217 0
M  V30 2694 H 256.74 -2.44393 0.755359 0
M  V30 2695 H 256.384 -4.92639 1.2357 0
M  V30 2696 H 256.314 -5.24061 -0.516489 0
M  V30 2697 H 258.805 -3.77885 0.0331115 0
M  V30 2698 H 259.118 -7.69689 0.69275 0
M  V30 2699 H 257.463 -6.92264 0.616087 0
M  V30 2700 H 260.654 -4.67932 0.125258 0
M  V30 2701 H 260.827 -6.46599 0.425831 0
M  V30 2702 N 254.233 0.115231 -1.57178 0
M  V30 2703 C 255.163 1.1423 -2.03651 0
M  V30 2704 C 256.144 1.42967 -0.921655 0
M  V30 2705 O 257.329 1.53343 -1.19162 0
M  V30 2706 C 254.459 2.4675 -2.44401 0
M  V30 2707 C 253.413 2.32467 -3.59365 0
M  V30 2708 C 252.739 3.69984 -3.86026 0
M  V30 2709 C 254.039 1.78203 -4.90959 0
M  V30 2710 H 255.733 0.755749 -2.89705 0
M  V30 2711 H 253.279 0.362093 -1.39373 0
M  V30 2712 H 255.232 3.18854 -2.75517 0
M  V30 2713 H 253.956 2.87302 -1.55322 0
M  V30 2714 H 252.615 1.62811 -3.28463 0
M  V30 2715 H 252.263 4.08028 -2.94147 0
M  V30 2716 H 251.963 3.61279 -4.63412 0
M  V30 2717 H 253.487 4.43587 -4.19599 0
M  V30 2718 H 254.901 2.40128 -5.20587 0
M  V30 2719 H 253.298 1.8031 -5.72371 0
M  V30 2720 H 254.368 0.739876 -4.79222 0
M  V30 2721 N 255.711 1.52812 0.385517 0
M  V30 2722 C 256.936 1.72207 1.15583 0
M  V30 2723 C 257.361 0.441034 1.82857 0
M  V30 2724 O 256.719 -0.603465 1.70962 0
M  V30 2725 C 256.767 2.87476 2.17692 0
M  V30 2726 O 255.871 2.54693 3.24354 0
M  V30 2727 H 255.212 0.572526 0.336319 0
M  V30 2728 H 257.742 1.99618 0.448744 0
M  V30 2729 H 257.752 3.13072 2.6163 0
M  V30 2730 H 256.427 3.80408 1.68115 0
M  V30 2731 H 255.004 2.3985 2.85529 0
M  V30 2732 N 257.189 -0.644168 1.43834 0
M  V30 2733 C 258.414 -1.43642 1.49605 0
M  V30 2734 C 258.839 -1.8773 0.117913 0
M  V30 2735 O 258.197 -1.57938 -0.890239 0
M  V30 2736 C 258.245 -2.6416 2.45463 0
M  V30 2737 O 257.349 -3.63538 1.94714 0
M  V30 2738 H 256.69 -0.430329 0.50568 0
M  V30 2739 H 259.22 -0.787448 1.8884 0
M  V30 2740 H 259.23 -3.11864 2.63068 0
M  V30 2741 H 257.905 -2.31414 3.45572 0
M  V30 2742 H 256.482 -3.2273 1.86814 0
M  V30 2743 N 258.668 -1.30515 -0.883378 0
M  V30 2744 C 259.916 -1.19194 -1.63209 0
M  V30 2745 C 260.237 0.253205 -1.93349 0
M  V30 2746 O 259.507 1.17025 -1.57105 0
M  V30 2747 H 258.087 -0.438148 -0.605009 0
M  V30 2748 H 260.749 -1.63663 -1.05832 0
M  V30 2749 H 259.845 -1.75396 -2.58153 0
M  V30 2750 N 260.146 1.09593 -1.13257 0
M  V30 2751 C 261.371 1.8604 -0.916732 0
M  V30 2752 C 261.796 1.80504 0.529146 0
M  V30 2753 O 261.154 1.18127 1.37534 0
M  V30 2754 C 261.202 3.32017 -1.40703 0
M  V30 2755 O 260.306 4.08141 -0.591153 0
M  V30 2756 H 259.647 0.576943 -0.328683 0
M  V30 2757 H 262.177 1.38405 -1.50682 0
M  V30 2758 H 262.187 3.82865 -1.4099 0
M  V30 2759 H 260.862 3.35361 -2.45979 0
M  V30 2760 H 259.439 3.67084 -0.656005 0
M  V30 2761 N 261.624 0.925811 1.2754 0
M  V30 2762 C 262.556 0.380753 2.26015 0
M  V30 2763 C 263.569 -0.487485 1.5533 0
M  V30 2764 O 264.758 -0.300413 1.75954 0
M  V30 2765 C 261.858 -0.473259 3.35579 0
M  V30 2766 C 261.031 0.375249 4.35787 0
M  V30 2767 C 260.09 -0.415809 5.24555 0
M  V30 2768 O 259.116 0.175834 5.68928 0
M  V30 2769 N 260.318 -1.71607 5.54555 0
M  V30 2770 H 263.083 1.22725 2.73421 0
M  V30 2771 H 260.644 0.793037 1.41147 0
M  V30 2772 H 262.636 -1.00949 3.91907 0
M  V30 2773 H 261.206 -1.2205 2.87789 0
M  V30 2774 H 260.426 1.09279 3.7875 0
M  V30 2775 H 261.714 0.955399 4.99749 0
M  V30 2776 H 261.112 -2.2191 5.20358 0
M  V30 2777 H 259.669 -2.19887 6.1359 0
M  V30 2778 N 263.102 -1.41638 0.69111 0
M  V30 2779 C 264.327 -2.06148 0.227583 0
M  V30 2780 C 264.752 -1.51652 -1.11281 0
M  V30 2781 O 264.11 -0.64164 -1.69566 0
M  V30 2782 C 264.158 -3.60095 0.190858 0
M  V30 2783 O 263.262 -4.03845 -0.835664 0
M  V30 2784 H 262.603 -0.654434 0.112306 0
M  V30 2785 H 265.133 -1.81484 0.944714 0
M  V30 2786 H 265.143 -4.07995 0.020207 0
M  V30 2787 H 263.818 -3.99129 1.16915 0
M  V30 2788 H 262.395 -3.67458 -0.63473 0
M  V30 2789 N 264.58 -0.43555 -1.51462 0
M  V30 2790 C 265.805 0.132627 -2.06976 0
M  V30 2791 C 266.23 1.35848 -1.30104 0
M  V30 2792 O 265.588 1.78112 -0.338493 0
M  V30 2793 C 265.636 0.43523 -3.57964 0
M  V30 2794 O 264.74 1.52198 -3.83288 0
M  V30 2795 H 264.081 0.00265 -0.663995 0
M  V30 2796 H 266.611 -0.616369 -1.95095 0
M  V30 2797 H 266.621 0.686206 -4.02188 0
M  V30 2798 H 265.296 -0.460739 -4.1334 0
M  V30 2799 H 263.873 1.2611 -3.50928 0
M  V30 2800 N 266.058 1.56714 -0.166846 0
M  V30 2801 C 267.008 2.14338 0.777382 0
M  V30 2802 C 267.992 1.07642 1.19591 0
M  V30 2803 O 269.184 1.33775 1.15902 0
M  V30 2804 C 266.313 2.78417 2.00846 0
M  V30 2805 C 265.399 3.92264 1.61212 0
M  V30 2806 N 265.79 4.97268 0.925104 0
M  V30 2807 C 264.088 4.03342 1.90346 0
M  V30 2808 C 264.789 5.77093 0.730627 0
M  V30 2809 N 263.765 5.2854 1.27067 0
M  V30 2810 H 267.567 2.9289 0.243466 0
M  V30 2811 H 265.081 1.62364 0.0339954 0
M  V30 2812 H 267.078 3.18073 2.69509 0
M  V30 2813 H 265.738 2.01344 2.54736 0
M  V30 2814 H 266.749 5.14601 0.583646 0
M  V30 2815 H 263.426 3.37368 2.45946 0
M  V30 2816 H 264.816 6.71638 0.187668 0
M  V30 2817 N 267.536 -0.106894 1.57237 0
M  V30 2818 C 268.785 -0.811163 1.8467 0
M  V30 2819 C 269.098 -1.80469 0.754342 0
M  V30 2820 O 270.304 -2.55601 0.915439 0
M  V30 2821 C 268.76 -1.49337 3.27454 0
M  V30 2822 C 268.368 -0.540217 4.44731 0
M  V30 2823 C 270.112 -2.18206 3.64124 0
M  V30 2824 C 268.019 -1.22634 5.78545 0
M  V30 2825 H 266.949 -0.306679 0.688813 0
M  V30 2826 H 269.6 -0.0639887 1.83388 0
M  V30 2827 H 267.982 -2.2876 3.23241 0
M  V30 2828 H 269.156 0.221659 4.60267 0
M  V30 2829 H 267.471 0.042146 4.16379 0
M  V30 2830 H 270.068 -2.70253 4.61376 0
M  V30 2831 H 270.411 -2.96562 2.92158 0
M  V30 2832 H 270.944 -1.45658 3.70174 0
M  V30 2833 H 267.683 -0.483832 6.53712 0
M  V30 2834 H 267.203 -1.95993 5.66874 0
M  V30 2835 H 268.882 -1.75615 6.2271 0
M  V30 2836 N 269.014 -1.53014 -0.377408 0
M  V30 2837 C 269.944 -1.81589 -1.46791 0
M  V30 2838 C 270.925 -0.668622 -1.56408 0
M  V30 2839 O 272.11 -0.917337 -1.71168 0
M  V30 2840 C 269.24 -1.99519 -2.8427 0
M  V30 2841 C 268.194 -3.15249 -2.89486 0
M  V30 2842 C 267.52 -3.18451 -4.29527 0
M  V30 2843 C 268.82 -4.54084 -2.58079 0
M  V30 2844 H 270.514 -2.7291 -1.23127 0
M  V30 2845 H 268.06 -1.31319 -0.590883 0
M  V30 2846 H 270.013 -2.18092 -3.60575 0
M  V30 2847 H 268.737 -1.04897 -3.09296 0
M  V30 2848 H 267.396 -2.96477 -2.15631 0
M  V30 2849 H 267.044 -2.2149 -4.5161 0
M  V30 2850 H 266.744 -3.962 -4.33934 0
M  V30 2851 H 268.268 -3.39193 -5.07721 0
M  V30 2852 H 269.682 -4.72899 -3.24098 0
M  V30 2853 H 268.079 -5.33987 -2.7382 0
M  V30 2854 H 269.149 -4.60006 -1.53372 0
M  V30 2855 N 270.492 0.636531 -1.44174 0
M  V30 2856 C 271.738 1.39826 -1.4689 0
M  V30 2857 C 272.071 1.93947 -0.0990585 0
M  V30 2858 O 271.346 1.73325 0.882544 0
M  V30 2859 C 271.629 2.56751 -2.5249 0
M  V30 2860 C 271.482 2.08014 -3.98811 0
M  V30 2861 C 272.801 3.58946 -2.54649 0
M  V30 2862 H 269.92 0.507075 -0.53483 0
M  V30 2863 H 272.562 0.720188 -1.75822 0
M  V30 2864 H 270.712 3.14597 -2.2795 0
M  V30 2865 H 272.384 1.5504 -4.34466 0
M  V30 2866 H 270.627 1.39242 -4.10846 0
M  V30 2867 H 271.298 2.92169 -4.68339 0
M  V30 2868 H 273.774 3.1089 -2.76563 0
M  V30 2869 H 272.65 4.38286 -3.3045 0
M  V30 2870 H 272.911 4.12655 -1.58646 0
M  V30 2871 N 271.97 1.30982 0.876444 0
M  V30 2872 C 273.386 1.09498 1.16113 0
M  V30 2873 C 273.586 -0.13875 2.01022 0
M  V30 2874 O 272.642 -0.829935 2.38471 0
M  V30 2875 C 273.955 2.36308 1.85954 0
M  V30 2876 C 275.503 2.41856 1.98683 0
M  V30 2877 C 275.978 3.6853 2.71937 0
M  V30 2878 N 277.469 3.69387 2.79477 0
M  V30 2879 C 278.204 4.64096 3.36753 0
M  V30 2880 N 277.7 5.69155 3.95012 0
M  V30 2881 N 279.493 4.51626 3.3465 0
M  V30 2882 H 271.644 2.10118 0.310494 0
M  V30 2883 H 273.907 0.926634 0.200131 0
M  V30 2884 H 273.613 3.26388 1.31011 0
M  V30 2885 H 273.487 2.4561 2.86278 0
M  V30 2886 H 275.874 1.52249 2.52793 0
M  V30 2887 H 275.955 2.36523 0.9742 0
M  V30 2888 H 275.599 4.58499 2.18496 0
M  V30 2889 H 275.529 3.71127 3.73593 0
M  V30 2890 H 278.02 2.93438 2.38123 0
M  V30 2891 H 278.333 6.3751 4.36808 0
M  V30 2892 H 276.678 5.72937 3.93406 0
M  V30 2893 H 279.869 3.68728 2.8837 0
M  V30 2894 H 280.042 5.25614 3.7899 0
M  V30 2895 N 273.449 -1.08991 1.13837 0
M  V30 2896 C 274.697 -1.80899 0.901098 0
M  V30 2897 C 275.018 -1.86356 -0.574134 0
M  V30 2898 O 274.288 -1.35235 -1.41733 0
M  V30 2899 H 272.868 -0.669966 0.330386 0
M  V30 2900 H 275.53 -1.318 1.43578 0
M  V30 2901 H 274.626 -2.83929 1.29578 0
M  V30 2902 N 274.927 -0.932562 -1.27047 0
M  V30 2903 C 276.343 -0.633544 -1.46487 0
M  V30 2904 C 276.543 0.815746 -1.84249 0
M  V30 2905 O 275.599 1.59319 -1.95892 0
M  V30 2906 C 276.912 -1.58758 -2.55375 0
M  V30 2907 C 278.46 -1.59634 -2.69232 0
M  V30 2908 C 278.935 -2.53747 -3.81283 0
M  V30 2909 N 280.426 -2.51982 -3.88664 0
M  V30 2910 C 281.161 -3.21491 -4.74796 0
M  V30 2911 N 280.657 -4.00395 -5.65381 0
M  V30 2912 N 282.45 -3.10485 -4.68568 0
M  V30 2913 H 274.601 -1.86946 -1.00821 0
M  V30 2914 H 276.864 -0.802897 -0.504044 0
M  V30 2915 H 276.57 -2.62172 -2.34432 0
M  V30 2916 H 276.444 -1.33301 -3.52861 0
M  V30 2917 H 278.831 -0.569488 -2.89553 0
M  V30 2918 H 278.912 -1.89142 -1.72218 0
M  V30 2919 H 278.556 -3.56545 -3.61715 0
M  V30 2920 H 278.486 -2.21532 -4.77735 0
M  V30 2921 H 280.977 -1.94681 -3.23895 0
M  V30 2922 H 281.29 -4.50406 -6.27976 0
M  V30 2923 H 279.635 -4.04498 -5.65161 0
M  V30 2924 H 282.826 -2.48331 -3.96799 0
M  V30 2925 H 282.999 -3.64925 -5.35475 0
M  V30 2926 N 276.405 1.4127 -0.698611 0
M  V30 2927 C 277.63 2.06024 -0.238512 0
M  V30 2928 C 278.055 1.5224 1.10475 0
M  V30 2929 O 277.413 0.650623 1.69223 0
M  V30 2930 C 277.461 3.59988 -0.209952 0
M  V30 2931 O 276.565 4.04282 0.814235 0
M  V30 2932 H 275.906 0.653829 -0.115775 0
M  V30 2933 H 278.436 1.8098 -0.954326 0
M  V30 2934 H 278.446 4.07979 -0.0418436 0
M  V30 2935 H 277.121 3.98503 -1.1903 0
M  V30 2936 H 275.698 3.6779 0.615234 0
M  V30 2937 N 277.883 0.443576 1.51229 0
M  V30 2938 C 278.846 -0.353132 2.26463 0
M  V30 2939 C 279.846 -0.944338 1.3015 0
M  V30 2940 O 281.036 -0.817813 1.5381 0
M  V30 2941 C 278.168 -1.50023 3.06114 0
M  V30 2942 H 279.361 0.3063 2.98332 0
M  V30 2943 H 276.914 0.196902 1.55055 0
M  V30 2944 H 277.649 -2.19553 2.38677 0
M  V30 2945 H 277.434 -1.08241 3.76864 0
M  V30 2946 H 278.924 -2.06296 3.63087 0
M  V30 2947 N 279.361 -1.56624 0.175154 0
M  V30 2948 C 280.324 -2.16934 -0.739738 0
M  V30 2949 C 281.324 -1.11842 -1.15533 0
M  V30 2950 O 282.514 -1.37335 -1.07167 0
M  V30 2951 C 279.646 -2.75531 -2.00738 0
M  V30 2952 H 280.839 -2.99131 -0.214639 0
M  V30 2953 H 278.392 -1.56123 -0.0744197 0
M  V30 2954 H 279.127 -1.97078 -2.57548 0
M  V30 2955 H 278.912 -3.52444 -1.71831 0
M  V30 2956 H 280.402 -3.21904 -2.66021 0
M  V30 2957 N 280.839 0.0985539 -1.57292 0
M  V30 2958 C 282.086 0.802678 -1.85912 0
M  V30 2959 C 282.414 1.78901 -0.763186 0
M  V30 2960 O 281.669 1.94178 0.243559 0
M  V30 2961 C 281.968 1.56927 -3.21105 0
M  V30 2962 C 281.634 0.725376 -4.45027 0
M  V30 2963 C 280.296 0.492726 -4.78671 0
M  V30 2964 C 282.648 0.138493 -5.21016 0
M  V30 2965 C 279.976 -0.336727 -5.85733 0
M  V30 2966 C 282.328 -0.678264 -6.28953 0
M  V30 2967 C 280.992 -0.921039 -6.61115 0
M  V30 2968 H 280.262 0.293721 -0.680301 0
M  V30 2969 H 282.909 0.0642841 -1.91392 0
M  V30 2970 H 281.214 2.37914 -3.11294 0
M  V30 2971 H 282.911 2.11841 -3.40477 0
M  V30 2972 H 279.501 0.916815 -4.18679 0
M  V30 2973 H 283.685 0.305404 -4.95359 0
M  V30 2974 H 278.941 -0.533836 -6.09065 0
M  V30 2975 H 283.115 -1.1399 -6.87007 0
M  V30 2976 H 280.742 -1.56556 -7.43905 0
M  V30 2977 N 282.317 1.53212 0.369288 0
M  V30 2978 C 283.565 1.68881 1.11012 0
M  V30 2979 C 283.886 0.441285 1.89941 0
M  V30 2980 O 283.156 -0.544623 1.88177 0
M  V30 2981 H 281.736 0.622569 0.412816 0
M  V30 2982 H 284.398 1.90391 0.416802 0
M  V30 2983 H 283.494 2.54822 1.80201 0
M  V30 2984 N 283.795 -0.628877 1.44509 0
M  V30 2985 C 285.044 -1.38437 1.4669 0
M  V30 2986 C 285.357 -1.95322 0.104272 0
M  V30 2987 O 286.563 -2.715 0.00362163 0
M  V30 2988 C 285.019 -2.50659 2.5826 0
M  V30 2989 C 284.627 -2.00277 4.0074 0
M  V30 2990 C 286.371 -3.27844 2.69664 0
M  V30 2991 C 284.278 -3.09854 5.0373 0
M  V30 2992 H 283.208 -0.520245 0.545766 0
M  V30 2993 H 285.859 -0.676313 1.70582 0
M  V30 2994 H 284.241 -3.2405 2.27612 0
M  V30 2995 H 285.415 -1.33736 4.40966 0
M  V30 2996 H 283.73 -1.35901 3.93599 0
M  V30 2997 H 286.327 -4.09534 3.43781 0
M  V30 2998 H 286.67 -3.77471 1.75559 0
M  V30 2999 H 287.203 -2.61543 2.99733 0
M  V30 3000 H 283.942 -2.65168 5.99472 0
M  V30 3001 H 283.462 -3.7503 4.68095 0
M  V30 3002 H 285.141 -3.74592 5.27532 0
M  V30 3003 N 285.273 -1.31445 -0.869486 0
M  V30 3004 C 286.684 -1.19042 -1.43826 0
M  V30 3005 C 287.035 0.202919 -1.95148 0
M  V30 3006 O 286.16 1.10071 -1.86315 0
M  V30 3007 C 286.755 -2.15499 -2.6143 0
M  V30 3008 C 285.314 -2.07028 -3.14351 0
M  V30 3009 C 284.461 -2.04701 -1.87063 0
M  V30 3010 H 287.412 -1.43489 -0.677984 0
M  V30 3011 H 287.433 -1.74488 -3.38134 0
M  V30 3012 H 286.945 -3.16899 -2.24046 0
M  V30 3013 H 285.046 -1.08825 -3.56354 0
M  V30 3014 H 285.159 -2.96157 -3.766 0
M  V30 3015 H 283.523 -1.49724 -2.06046 0
M  V30 3016 H 284.306 -3.07857 -1.51917 0
M  V30 3017 N 286.751 1.08385 -1.14413 0
M  V30 3018 C 287.991 1.8238 -0.922868 0
M  V30 3019 C 288.355 1.84225 0.540842 0
M  V30 3020 O 289.556 2.53985 0.880058 0
M  V30 3021 C 287.827 3.24048 -1.50757 0
M  V30 3022 S 289.386 4.14917 -1.4279 0
M  V30 3023 H 286.204 0.628524 -0.332384 0
M  V30 3024 H 288.806 1.30278 -1.45766 0
M  V30 3025 H 287.51 3.20288 -2.56601 0
M  V30 3026 H 287.041 3.81224 -0.971178 0
M  V30 3027 H 289.056 4.94473 -0.413582 0
M  V30 3028 N 288.23 0.939286 1.26551 0
M  V30 3029 C 289.458 0.602536 1.97932 0
M  V30 3030 C 289.873 -0.82206 1.69964 0
M  V30 3031 O 289.23 -1.54789 0.966784 0
M  V30 3032 C 289.281 0.832946 3.51773 0
M  V30 3033 O 289.002 2.20151 3.78768 0
M  V30 3034 C 290.503 0.506483 4.40397 0
M  V30 3035 H 287.723 0.227248 0.631347 0
M  V30 3036 H 290.267 1.25948 1.61113 0
M  V30 3037 H 288.422 0.222644 3.8676 0
M  V30 3038 H 288.836 2.26013 4.73306 0
M  V30 3039 H 290.31 0.718333 5.47306 0
M  V30 3040 H 290.787 -0.558451 4.35635 0
M  V30 3041 H 291.393 1.09543 4.10951 0
M  V30 3042 N 289.708 -1.40897 0.706093 0
M  V30 3043 C 290.985 -1.94868 0.169099 0
M  V30 3044 C 291.365 -1.64485 -1.32318 0
M  V30 3045 O 290.713 -0.95744 -2.07474 0
M  V30 3046 C 290.923 -3.45798 0.471654 0
M  V30 3047 C 292.271 -4.22663 0.405127 0
M  V30 3048 O 293.295 -3.53865 0.407168 0
M  V30 3049 O 292.154 -5.45216 0.374383 0
M  V30 3050 H 289.248 -0.82673 0.0211352 0
M  V30 3051 H 291.794 -1.50558 0.782976 0
M  V30 3052 H 290.566 -3.61235 1.50416 0
M  V30 3053 H 290.189 -3.97225 -0.172666 0
M  V30 3054 N 291.186 -0.45159 -1.50991 0
M  V30 3055 C 292.133 0.352625 -2.2809 0
M  V30 3056 C 293.103 1.0044 -1.32291 0
M  V30 3057 O 294.288 1.02058 -1.6121 0
M  V30 3058 C 291.428 1.43983 -3.13629 0
M  V30 3059 C 290.541 0.804772 -4.24438 0
M  V30 3060 C 289.676 1.86822 -4.97263 0
M  V30 3061 C 288.715 1.21236 -5.99973 0
M  V30 3062 N 287.852 2.2178 -6.66152 0
M  V30 3063 H 292.692 -0.311186 -2.96371 0
M  V30 3064 H 290.229 -0.165308 -1.46168 0
M  V30 3065 H 292.187 2.08161 -3.61559 0
M  V30 3066 H 290.817 2.07307 -2.47434 0
M  V30 3067 H 289.869 0.0509129 -3.80366 0
M  V30 3068 H 291.181 0.286076 -4.97979 0
M  V30 3069 H 290.335 2.58628 -5.48813 0
M  V30 3070 H 289.074 2.42068 -4.23385 0
M  V30 3071 H 288.079 0.479828 -5.47702 0
M  V30 3072 H 289.304 0.667051 -6.75816 0
M  V30 3073 H 287.25 2.76079 -5.95077 0
M  V30 3074 H 287.167 1.74841 -7.35504 0
M  V30 3075 H 288.435 2.93026 -7.22327 0
M  V30 3076 N 292.664 1.56529 -0.183458 0
M  V30 3077 C 293.911 1.97244 0.458357 0
M  V30 3078 C 294.239 1.06992 1.62428 0
M  V30 3079 O 293.494 0.106542 1.9541 0
M  V30 3080 C 293.793 3.43939 0.971637 0
M  V30 3081 C 293.459 4.5083 -0.0796784 0
M  V30 3082 C 292.121 4.79786 -0.368584 0
M  V30 3083 C 294.473 5.15138 -0.792638 0
M  V30 3084 C 291.801 5.70345 -1.37563 0
M  V30 3085 C 294.153 6.06784 -1.78875 0
M  V30 3086 C 292.817 6.34102 -2.08497 0
M  V30 3087 H 292.087 0.721768 0.167725 0
M  V30 3088 H 294.734 1.89472 -0.277976 0
M  V30 3089 H 293.039 3.48724 1.78602 0
M  V30 3090 H 294.736 3.72791 1.47744 0
M  V30 3091 H 291.326 4.28317 0.155668 0
M  V30 3092 H 295.51 4.92868 -0.582659 0
M  V30 3093 H 290.766 5.89789 -1.61118 0
M  V30 3094 H 294.94 6.55677 -2.3465 0
M  V30 3095 H 292.567 7.04074 -2.86678 0
M  V30 3096 N 294.142 -0.090211 1.57342 0
M  V30 3097 C 295.388 -0.793982 1.86611 0
M  V30 3098 C 295.721 -1.78142 0.773252 0
M  V30 3099 O 294.996 -1.93271 -0.218304 0
M  V30 3100 C 295.279 -1.51839 3.26523 0
M  V30 3101 C 295.132 -0.548609 4.46442 0
M  V30 3102 C 296.451 -2.46779 3.64401 0
M  V30 3103 H 293.57 -0.287186 0.678744 0
M  V30 3104 H 296.212 -0.0575076 1.89913 0
M  V30 3105 H 294.362 -2.14617 3.23839 0
M  V30 3106 H 296.034 0.0725513 4.61243 0
M  V30 3107 H 294.277 0.137614 4.33582 0
M  V30 3108 H 294.948 -1.09271 5.41076 0
M  V30 3109 H 297.424 -1.94089 3.68061 0
M  V30 3110 H 296.3 -2.94479 4.63221 0
M  V30 3111 H 296.561 -3.30758 2.93346 0
M  V30 3112 N 295.62 -1.53406 -0.361157 0
M  V30 3113 C 296.866 -1.70054 -1.10496 0
M  V30 3114 C 297.199 -0.453278 -1.88836 0
M  V30 3115 O 296.474 0.5495 -1.86576 0
M  V30 3116 C 296.757 -2.95317 -2.06058 0
M  V30 3117 C 296.61 -4.3021 -1.31298 0
M  V30 3118 C 297.929 -3.16193 -3.06121 0
M  V30 3119 H 295.048 -0.618799 -0.400321 0
M  V30 3120 H 297.69 -1.86052 -0.385318 0
M  V30 3121 H 295.84 -2.81809 -2.67425 0
M  V30 3122 H 297.512 -4.55538 -0.726807 0
M  V30 3123 H 295.755 -4.29421 -0.614853 0
M  V30 3124 H 296.426 -5.14 -2.01265 0
M  V30 3125 H 298.902 -3.28916 -2.5486 0
M  V30 3126 H 297.778 -4.05266 -3.70204 0
M  V30 3127 H 298.039 -2.31676 -3.76535 0
M  V30 3128 N 297.098 0.621204 -1.44841 0
M  V30 3129 C 298.345 1.38055 -1.48145 0
M  V30 3130 C 298.673 1.94143 -0.117867 0
M  V30 3131 O 297.928 1.74713 0.881694 0
M  V30 3132 C 298.227 2.55675 -2.4973 0
M  V30 3133 C 297.893 2.17817 -3.94799 0
M  V30 3134 C 296.555 2.07205 -4.34303 0
M  V30 3135 C 298.907 1.88065 -4.86087 0
M  V30 3136 C 296.235 1.65045 -5.63007 0
M  V30 3137 C 298.587 1.47394 -6.15189 0
M  V30 3138 C 297.251 1.35331 -6.53637 0
M  V30 3139 H 296.521 0.505181 -0.542101 0
M  V30 3140 H 299.168 0.703477 -1.78111 0
M  V30 3141 H 297.473 3.2866 -2.13284 0
M  V30 3142 H 299.17 3.13904 -2.4953 0
M  V30 3143 H 295.76 2.26998 -3.63552 0
M  V30 3144 H 299.944 1.95168 -4.56315 0
M  V30 3145 H 295.2 1.54317 -5.91605 0
M  V30 3146 H 299.374 1.23415 -6.85377 0
M  V30 3147 H 297.001 1.02435 -7.53267 0
M  V30 3148 N 298.576 1.31904 0.862503 0
M  V30 3149 C 299.801 1.25135 1.65397 0
M  V30 3150 C 300.226 -0.179 1.87246 0
M  V30 3151 O 299.584 -1.1277 1.4196 0
M  V30 3152 C 299.632 2.00832 2.99498 0
M  V30 3153 O 298.736 1.35075 3.89652 0
M  V30 3154 H 298.077 0.431655 0.504549 0
M  V30 3155 H 300.607 1.74094 1.07483 0
M  V30 3156 H 300.617 2.10709 3.49379 0
M  V30 3157 H 299.292 3.04847 2.82916 0
M  V30 3158 H 297.869 1.33696 3.48109 0
M  V30 3159 N 300.054 -1.07777 1.14986 0
M  V30 3160 C 300.986 -2.14769 0.800436 0
M  V30 3161 C 301.999 -1.61739 -0.185595 0
M  V30 3162 O 303.188 -1.78462 0.0370358 0
M  V30 3163 C 300.288 -3.38481 0.168533 0
M  V30 3164 C 299.461 -4.20876 1.1909 0
M  V30 3165 C 298.52 -5.22976 0.581575 0
M  V30 3166 O 297.546 -5.55388 1.24633 0
M  V30 3167 N 298.748 -5.76976 -0.638706 0
M  V30 3168 H 301.513 -2.45348 1.72118 0
M  V30 3169 H 299.074 -1.23645 1.04515 0
M  V30 3170 H 301.066 -4.03916 -0.251764 0
M  V30 3171 H 299.636 -3.05651 -0.655467 0
M  V30 3172 H 298.856 -3.51322 1.78791 0
M  V30 3173 H 300.144 -4.7274 1.88133 0
M  V30 3174 H 299.542 -5.52886 -1.19723 0
M  V30 3175 H 298.099 -6.44061 -1.00142 0
M  V30 3176 N 301.532 -0.945985 -1.26051 0
M  V30 3177 C 302.781 -0.591836 -1.92822 0
M  V30 3178 C 303.094 0.873956 -1.7499 0
M  V30 3179 O 304.3 1.33769 -2.36259 0
M  V30 3180 C 302.756 -1.00776 -3.45503 0
M  V30 3181 C 302.364 -2.4955 -3.7206 0
M  V30 3182 C 304.108 -0.725735 -4.1825 0
M  V30 3183 C 302.015 -2.84988 -5.18205 0
M  V30 3184 H 300.945 -0.217635 -0.721908 0
M  V30 3185 H 303.596 -1.14927 -1.43052 0
M  V30 3186 H 301.978 -0.378812 -3.94184 0
M  V30 3187 H 303.152 -3.1739 -3.34066 0
M  V30 3188 H 301.467 -2.75133 -3.12555 0
M  V30 3189 H 304.064 -0.966771 -5.25887 0
M  V30 3190 H 304.407 0.337639 -4.14929 0
M  V30 3191 H 304.94 -1.31463 -3.7545 0
M  V30 3192 H 301.679 -3.90307 -5.26631 0
M  V30 3193 H 301.199 -2.21813 -5.57278 0
M  V30 3194 H 302.878 -2.73712 -5.86252 0
M  V30 3195 N 303.011 1.40521 -0.713556 0
M  V30 3196 C 303.921 2.34522 -0.0606667 0
M  V30 3197 C 304.937 1.57193 0.74607 0
M  V30 3198 O 306.113 1.89591 0.679493 0
M  V30 3199 C 303.178 3.36081 0.851491 0
M  V30 3200 C 302.239 4.29286 0.0349339 0
M  V30 3201 C 301.472 5.25994 0.903649 0
M  V30 3202 O 301.695 5.28616 2.14292 0
M  V30 3203 O 300.629 6.00918 0.343723 0
M  V30 3204 H 304.455 2.91968 -0.835972 0
M  V30 3205 H 302.04 1.41681 -0.47402 0
M  V30 3206 H 303.922 3.98369 1.37404 0
M  V30 3207 H 302.597 2.81052 1.60598 0
M  V30 3208 H 301.504 3.70289 -0.532633 0
M  V30 3209 H 302.837 4.87462 -0.681287 0
M  V30 3210 N 304.489 0.459591 1.5075 0
M  V30 3211 C 305.738 -0.100971 2.01447 0
M  V30 3212 C 306.051 -1.41816 1.34713 0
M  V30 3213 O 307.257 -2.06299 1.76502 0
M  V30 3214 C 305.713 -0.23047 3.59161 0
M  V30 3215 C 305.321 1.0776 4.34847 0
M  V30 3216 C 307.065 -0.743608 4.17936 0
M  V30 3217 C 304.972 0.91253 5.84317 0
M  V30 3218 H 303.902 -0.0415102 0.752856 0
M  V30 3219 H 306.553 0.592742 1.73663 0
M  V30 3220 H 304.935 -0.987703 3.83485 0
M  V30 3221 H 306.109 1.8449 4.22256 0
M  V30 3222 H 304.424 1.52097 3.87628 0
M  V30 3223 H 307.021 -0.883959 5.27343 0
M  V30 3224 H 307.364 -1.73196 3.78562 0
M  V30 3225 H 307.897 -0.04408 3.97776 0
M  V30 3226 H 304.636 1.87391 6.28144 0
M  V30 3227 H 304.156 0.185422 5.99513 0
M  V30 3228 H 305.835 0.574547 6.44444 0
M  V30 3229 N 305.967 -1.56429 0.191757 0
M  V30 3230 C 306.897 -2.21937 -0.725696 0
M  V30 3231 C 307.878 -1.1814 -1.2238 0
M  V30 3232 O 309.063 -1.46636 -1.27325 0
M  V30 3233 C 306.193 -2.87611 -1.94672 0
M  V30 3234 C 305.147 -3.97623 -1.58366 0
M  V30 3235 C 304.473 -4.50446 -2.88102 0
M  V30 3236 C 305.773 -5.16197 -0.796133 0
M  V30 3237 H 307.467 -2.98861 -0.179606 0
M  V30 3238 H 305.013 -1.43749 -0.0849464 0
M  V30 3239 H 306.966 -3.3212 -2.59373 0
M  V30 3240 H 305.69 -2.08087 -2.51728 0
M  V30 3241 H 304.349 -3.53801 -0.960247 0
M  V30 3242 H 303.997 -3.67688 -3.43241 0
M  V30 3243 H 303.697 -5.24675 -2.64556 0
M  V30 3244 H 305.221 -4.97654 -3.53798 0
M  V30 3245 H 306.635 -5.57271 -1.34618 0
M  V30 3246 H 305.032 -5.96471 -0.658928 0
M  V30 3247 H 306.102 -4.84473 0.203478 0
M  V30 3248 N 307.445 0.0818655 -1.57387 0
M  V30 3249 C 308.673 0.796108 -1.9097 0
M  V30 3250 C 309.088 1.71626 -0.786757 0
M  V30 3251 O 308.445 1.80908 0.240513 0
M  V30 3252 C 308.496 1.59829 -3.24248 0
M  V30 3253 O 308.217 0.715131 -4.32224 0
M  V30 3254 C 309.718 2.41442 -3.7178 0
M  V30 3255 H 306.938 0.22691 -0.631469 0
M  V30 3256 H 309.482 0.0551439 -2.04426 0
M  V30 3257 H 307.637 2.29163 -3.12351 0
M  V30 3258 H 308.051 1.27205 -5.08841 0
M  V30 3259 H 309.525 2.932 -4.67694 0
M  V30 3260 H 310.002 3.2051 -3.00283 0
M  V30 3261 H 310.608 1.77283 -3.86589 0
M  V30 3262 N 308.923 1.53595 0.353017 0
M  V30 3263 C 310.334 1.61937 0.929153 0
M  V30 3264 C 310.685 0.494686 1.89861 0
M  V30 3265 O 309.81 -0.377017 2.1309 0
M  V30 3266 C 310.405 2.93526 1.69199 0
M  V30 3267 C 308.964 3.04161 2.21727 0
M  V30 3268 C 308.111 2.57322 1.03348 0
M  V30 3269 H 311.062 1.58155 0.131431 0
M  V30 3270 H 311.083 2.82034 2.55416 0
M  V30 3271 H 310.595 3.75362 0.986144 0
M  V30 3272 H 308.696 2.26938 2.95516 0
M  V30 3273 H 308.809 4.09465 2.48748 0
M  V30 3274 H 307.173 2.12499 1.40414 0
M  V30 3275 H 307.956 3.41588 0.342428 0
M  V30 3276 N 310.401 -0.613514 1.45168 0
M  V30 3277 C 311.812 -1.19539 1.43413 0
M  V30 3278 C 312.163 -1.95558 0.158632 0
M  V30 3279 O 311.288 -2.0335 -0.740119 0
M  V30 3280 C 311.883 -2.17445 2.59813 0
M  V30 3281 C 310.442 -2.71022 2.61197 0
M  V30 3282 C 309.589 -1.46323 2.35552 0
M  V30 3283 H 312.54 -0.403163 1.53494 0
M  V30 3284 H 312.561 -3.00373 2.33574 0
M  V30 3285 H 312.073 -1.62089 3.52631 0
M  V30 3286 H 310.174 -3.30332 1.7237 0
M  V30 3287 H 310.287 -3.15859 3.60236 0
M  V30 3288 H 308.651 -1.75072 1.84992 0
M  V30 3289 H 309.434 -0.92844 3.30507 0
M  V30 3290 N 311.879 -1.3236 -0.855495 0
M  V30 3291 C 312.827 -1.2118 -1.9854 0
M  V30 3292 C 313.821 -0.116788 -1.68997 0
M  V30 3293 O 315.027 -0.279657 -1.77814 0
M  V30 3294 H 311.402 -0.375608 -0.651477 0
M  V30 3295 H 313.373 -2.16743 -2.05098 0
M  V30 3296 C 312.122 -0.950849 -3.34446 0
M  V30 3297 H 311.445 -1.78563 -3.57708 0
M  V30 3298 H 312.885 -0.912863 -4.14057 0
M  V30 3299 C 311.344 0.346404 -3.35114 0
M  V30 3300 O 311.874 1.35855 -3.7803 0
M  V30 3301 N 310.08 0.36808 -2.88259 0
M  V30 3302 H 309.627 -0.456102 -2.5353 0
M  V30 3303 H 309.585 1.23591 -2.89089 0
M  V30 3304 N 313.357 1.07166 -1.15556 0
M  V30 3305 C 314.29 2.13808 -0.797593 0
M  V30 3306 C 315.268 1.6101 0.226812 0
M  V30 3307 O 316.452 1.88161 0.112932 0
M  V30 3308 C 313.579 3.38187 -0.186371 0
M  V30 3309 C 312.625 4.09766 -1.18297 0
M  V30 3310 S 313.458 4.60932 -2.72584 0
M  V30 3311 C 314.614 5.88583 -2.12886 0
M  V30 3312 H 314.847 2.43843 -1.70083 0
M  V30 3313 H 312.38 1.19467 -0.978106 0
M  V30 3314 H 314.338 4.10189 0.159837 0
M  V30 3315 H 312.999 3.06326 0.694489 0
M  V30 3316 H 312.192 4.99065 -0.703562 0
M  V30 3317 H 311.794 3.43736 -1.47381 0
M  V30 3318 H 314.086 6.60866 -1.49208 0
M  V30 3319 H 315.029 6.41241 -3.0036 0
M  V30 3320 H 315.437 5.42194 -1.57116 0
M  V30 3321 N 314.835 0.952656 1.25548 0
M  V30 3322 C 316.063 0.623496 1.97282 0
M  V30 3323 C 316.478 -0.803987 1.70826 0
M  V30 3324 O 315.835 -1.53755 0.983147 0
M  V30 3325 C 315.886 0.870209 3.5087 0
M  V30 3326 O 315.607 2.24156 3.76412 0
M  V30 3327 C 317.108 0.553164 4.39835 0
M  V30 3328 H 314.328 0.233931 0.628902 0
M  V30 3329 H 316.872 1.27649 1.59768 0
M  V30 3330 H 315.027 0.263652 3.86502 0
M  V30 3331 H 315.441 2.31021 4.70882 0
M  V30 3332 H 316.915 0.776342 5.46513 0
M  V30 3333 H 317.392 -0.512215 4.36203 0
M  V30 3334 H 317.998 1.13896 4.09766 0
M  V30 3335 N 316.313 -1.40141 0.720998 0
M  V30 3336 C 317.276 -2.29058 0.0805834 0
M  V30 3337 C 318.276 -1.45632 -0.681758 0
M  V30 3338 O 319.466 -1.6648 -0.512856 0
M  V30 3339 C 316.598 -3.28925 -0.895593 0
M  V30 3340 H 317.791 -2.87191 0.863793 0
M  V30 3341 H 315.344 -1.48553 0.485975 0
M  V30 3342 H 316.079 -2.75822 -1.70566 0
M  V30 3343 H 315.864 -3.90519 -0.351766 0
M  V30 3344 H 317.354 -3.95494 -1.34069 0
M  V30 3345 N 317.792 -0.46758 -1.50504 0
M  V30 3346 C 318.739 0.328413 -2.28452 0
M  V30 3347 C 319.709 0.990313 -1.33349 0
M  V30 3348 O 320.894 1.00343 -1.62284 0
M  V30 3349 C 318.034 1.40648 -3.15138 0
M  V30 3350 C 317.147 0.759709 -4.25267 0
M  V30 3351 C 316.282 1.81537 -4.99217 0
M  V30 3352 C 315.321 1.14866 -6.01226 0
M  V30 3353 N 314.458 2.14702 -6.68467 0
M  V30 3354 H 319.298 -0.342603 -2.96024 0
M  V30 3355 H 316.835 -0.180801 -1.45985 0
M  V30 3356 H 318.793 2.04315 -3.63746 0
M  V30 3357 H 317.423 2.04671 -2.49619 0
M  V30 3358 H 316.475 0.0105671 -3.80399 0
M  V30 3359 H 317.787 0.233243 -4.98254 0
M  V30 3360 H 316.941 2.52793 -5.51526 0
M  V30 3361 H 315.68 2.37564 -4.25928 0
M  V30 3362 H 314.685 0.42171 -5.4818 0
M  V30 3363 H 315.91 0.595334 -6.76485 0
M  V30 3364 H 313.856 2.69752 -5.97972 0
M  V30 3365 H 313.773 1.6703 -7.37317 0
M  V30 3366 H 315.041 2.85348 -7.25394 0
M  V30 3367 N 319.27 1.56325 -0.20005 0
M  V30 3368 C 320.51 1.99619 0.439519 0
M  V30 3369 C 320.874 1.08423 1.58456 0
M  V30 3370 O 322.075 1.40973 2.28867 0
M  V30 3371 C 320.346 3.46314 0.883258 0
M  V30 3372 S 321.905 4.11634 1.51997 0
M  V30 3373 H 318.723 0.697007 0.140363 0
M  V30 3374 H 321.325 1.93118 -0.304282 0
M  V30 3375 H 320.029 4.10381 0.0398967 0
M  V30 3376 H 319.56 3.56643 1.6604 0
M  V30 3377 H 321.575 4.09049 2.8088 0
M  V30 3378 N 320.748 -0.0735177 1.57428 0
M  V30 3379 C 321.696 -1.10628 2.04607 0
M  V30 3380 C 322.69 -1.40181 0.951088 0
M  V30 3381 O 323.896 -1.39608 1.1362 0
M  V30 3382 H 320.271 -0.374088 0.652351 0
M  V30 3383 H 322.242 -0.682218 2.90497 0
M  V30 3384 C 320.991 -2.41212 2.50423 0
M  V30 3385 H 320.314 -2.19322 3.34272 0
M  V30 3386 H 321.754 -3.11927 2.87189 0
M  V30 3387 C 320.213 -3.0705 1.38644 0
M  V30 3388 O 320.743 -3.95056 0.727582 0
M  V30 3389 N 318.949 -2.67645 1.132 0
M  V30 3390 H 318.496 -1.96169 1.66959 0
M  V30 3391 H 318.454 -3.1202 0.386147 0
M  V30 3392 N 322.226 -1.5378 -0.344866 0
M  V30 3393 C 323.173 -1.81676 -1.42346 0
M  V30 3394 C 324.143 -0.662376 -1.52321 0
M  V30 3395 O 325.328 -0.906675 -1.67881 0
M  V30 3396 C 322.468 -2.03087 -2.79015 0
M  V30 3397 C 321.581 -3.30799 -2.77842 0
M  V30 3398 C 320.716 -3.42285 -4.0622 0
M  V30 3399 C 319.755 -4.6395 -3.9927 0
M  V30 3400 N 318.892 -4.72477 -5.19336 0
M  V30 3401 H 323.732 -2.73703 -1.17858 0
M  V30 3402 H 321.269 -1.35568 -0.570949 0
M  V30 3403 H 323.227 -2.1349 -3.58438 0
M  V30 3404 H 321.857 -1.14375 -3.01858 0
M  V30 3405 H 320.909 -3.29244 -1.90533 0
M  V30 3406 H 322.221 -4.20314 -2.68584 0
M  V30 3407 H 321.375 -3.52113 -4.94066 0
M  V30 3408 H 320.114 -2.50823 -4.18258 0
M  V30 3409 H 319.119 -4.54201 -3.09809 0
M  V30 3410 H 320.344 -5.56775 -3.88817 0
M  V30 3411 H 318.29 -3.83924 -5.3192 0
M  V30 3412 H 318.207 -5.55927 -5.12329 0
M  V30 3413 H 319.475 -4.86613 -6.08957 0
M  V30 3414 N 323.704 0.605807 -1.45491 0
M  V30 3415 C 324.932 1.39136 -1.5313 0
M  V30 3416 C 325.347 1.88082 -0.164507 0
M  V30 3417 O 324.704 1.62316 0.834247 0
M  V30 3418 C 324.755 2.59463 -2.51716 0
M  V30 3419 O 324.476 2.12551 -3.83084 0
M  V30 3420 C 325.977 3.52301 -2.6907 0
M  V30 3421 H 323.197 0.425849 -0.51855 0
M  V30 3422 H 325.741 0.73865 -1.90694 0
M  V30 3423 H 323.896 3.20772 -2.17219 0
M  V30 3424 H 324.31 2.90744 -4.36541 0
M  V30 3425 H 325.784 4.33271 -3.42024 0
M  V30 3426 H 326.261 4.02757 -1.75167 0
M  V30 3427 H 326.867 2.96845 -3.04571 0
M  V30 3428 N 325.182 1.32811 0.848464 0
M  V30 3429 C 326.132 1.18842 1.94578 0
M  V30 3430 C 327.116 0.0937517 1.60627 0
M  V30 3431 O 328.308 0.320887 1.74067 0
M  V30 3432 C 325.437 0.91999 3.30743 0
M  V30 3433 C 324.523 2.05665 3.70894 0
M  V30 3434 N 324.914 3.30579 3.8282 0
M  V30 3435 C 323.212 1.9612 4.00566 0
M  V30 3436 C 323.913 4.05067 4.17487 0
M  V30 3437 N 322.889 3.33419 4.2934 0
M  V30 3438 H 326.691 2.13536 2.0194 0
M  V30 3439 H 324.205 1.2468 1.0406 0
M  V30 3440 H 326.202 0.800859 4.09136 0
M  V30 3441 H 324.862 -0.0185076 3.24695 0
M  V30 3442 H 325.873 3.65441 3.66978 0
M  V30 3443 H 322.55 1.09871 4.02784 0
M  V30 3444 H 323.94 5.12815 4.34131 0
M  V30 3445 N 326.66 -1.06551 1.16123 0
M  V30 3446 C 327.885 -1.83544 0.965735 0
M  V30 3447 C 328.31 -1.81843 -0.481102 0
M  V30 3448 O 327.668 -1.21732 -1.34354 0
M  V30 3449 C 327.716 -3.28169 1.49457 0
M  V30 3450 O 326.82 -4.0643 0.699157 0
M  V30 3451 H 326.161 -0.568026 0.343864 0
M  V30 3452 H 328.691 -1.34362 1.54299 0
M  V30 3453 H 328.701 -3.78992 1.51092 0
M  V30 3454 H 327.376 -3.28722 2.54784 0
M  V30 3455 H 325.953 -3.65216 0.7531 0
M  V30 3456 N 328.138 -0.959301 -1.25041 0
M  V30 3457 C 329.385 -0.616611 -1.92884 0
M  V30 3458 C 329.713 0.847036 -1.75087 0
M  V30 3459 O 328.968 1.62374 -1.09239 0
M  V30 3460 C 329.267 -0.927136 -3.45165 0
M  V30 3461 C 328.933 -2.37757 -3.83122 0
M  V30 3462 C 327.595 -2.77402 -3.93194 0
M  V30 3463 C 329.947 -3.31929 -4.01836 0
M  V30 3464 C 327.275 -4.10277 -4.19392 0
M  V30 3465 C 329.627 -4.64423 -4.29528 0
M  V30 3466 C 328.291 -5.03857 -4.37818 0
M  V30 3467 H 327.561 -0.225634 -0.705812 0
M  V30 3468 H 330.208 -1.20921 -1.48493 0
M  V30 3469 H 328.513 -0.252195 -3.90987 0
M  V30 3470 H 330.21 -0.6405 -3.95852 0
M  V30 3471 H 326.8 -2.06013 -3.75841 0
M  V30 3472 H 330.984 -3.02488 -3.93465 0
M  V30 3473 H 326.24 -4.40467 -4.24027 0
M  V30 3474 H 330.414 -5.37369 -4.42953 0
M  V30 3475 H 328.041 -6.06843 -4.57871 0
M  V30 3476 N 329.616 1.39756 -0.72842 0
M  V30 3477 C 330.549 2.28176 -0.0330172 0
M  V30 3478 C 331.527 1.44035 0.754501 0
M  V30 3479 O 332.711 1.73434 0.738445 0
M  V30 3480 C 329.838 3.24795 0.960504 0
M  V30 3481 C 328.884 4.25693 0.262264 0
M  V30 3482 S 329.717 5.25714 -1.01906 0
M  V30 3483 C 330.873 6.25894 -0.0279717 0
M  V30 3484 H 331.106 2.86807 -0.78287 0
M  V30 3485 H 328.639 1.45382 -0.519951 0
M  V30 3486 H 330.597 3.80983 1.52846 0
M  V30 3487 H 329.258 2.65196 1.68315 0
M  V30 3488 H 328.451 4.93699 1.01379 0
M  V30 3489 H 328.053 3.7327 -0.233482 0
M  V30 3490 H 330.345 6.72585 0.814621 0
M  V30 3491 H 331.288 7.04876 -0.67499 0
M  V30 3492 H 331.696 5.63466 0.341489 0
M  V30 3493 N 331.094 0.475555 1.50254 0
M  V30 3494 C 332.044 -0.335025 2.25525 0
M  V30 3495 C 333.028 -0.957625 1.29299 0
M  V30 3496 O 334.22 -0.869436 1.54175 0
M  V30 3497 C 331.349 -1.41385 3.12834 0
M  V30 3498 C 330.435 -0.798762 4.1651 0
M  V30 3499 N 330.826 0.0835815 5.05731 0
M  V30 3500 C 329.124 -1.06221 4.33166 0
M  V30 3501 C 329.825 0.433113 5.80085 0
M  V30 3502 N 328.801 -0.1928 5.43258 0
M  V30 3503 H 332.603 0.344612 2.91873 0
M  V30 3504 H 330.117 0.289986 1.5979 0
M  V30 3505 H 332.114 -2.00777 3.65368 0
M  V30 3506 H 330.774 -2.09543 2.48036 0
M  V30 3507 H 331.785 0.452715 5.15918 0
M  V30 3508 H 328.462 -1.73844 3.79585 0
M  V30 3509 H 329.852 1.15346 6.61925 0
M  V30 3510 N 332.573 -1.56217 0.208337 0
M  V30 3511 C 333.819 -1.98998 -0.42086 0
M  V30 3512 C 334.174 -1.09331 -1.58317 0
M  V30 3513 O 333.467 -0.140466 -1.91084 0
M  V30 3514 C 333.661 -3.45441 -0.916797 0
M  V30 3515 C 333.49 -4.49273 0.195925 0
M  V30 3516 C 332.26 -5.00998 0.657956 0
M  V30 3517 C 334.458 -5.04294 1.00956 0
M  V30 3518 N 332.44 -5.88514 1.74712 0
M  V30 3519 C 333.811 -5.88607 1.94785 0
M  V30 3520 C 335.866 -4.86692 1.05049 0
M  V30 3521 C 334.569 -6.572 2.9237 0
M  V30 3522 C 336.595 -5.56034 2.01446 0
M  V30 3523 C 335.957 -6.40105 2.94016 0
M  V30 3524 H 332.056 -0.772574 -0.121048 0
M  V30 3525 H 334.64 -1.92101 0.317075 0
M  V30 3526 H 332.811 -3.52812 -1.62413 0
M  V30 3527 H 334.543 -3.75164 -1.51771 0
M  V30 3528 H 331.298 -4.72945 0.248912 0
M  V30 3529 H 331.722 -6.36975 2.2933 0
M  V30 3530 H 336.364 -4.21359 0.348759 0
M  V30 3531 H 334.082 -7.21723 3.63512 0
M  V30 3532 H 337.668 -5.44385 2.0527 0
M  V30 3533 H 336.548 -6.92816 3.6739 0
M  V30 3534 N 334.051 0.0651679 -1.57465 0
M  V30 3535 C 334.998 1.07675 -2.04144 0
M  V30 3536 C 335.968 1.38071 -0.923335 0
M  V30 3537 O 337.153 1.49026 -1.19146 0
M  V30 3538 C 334.293 2.38337 -2.49579 0
M  V30 3539 C 333.406 2.14413 -3.75035 0
M  V30 3540 C 332.541 3.38686 -4.09225 0
M  V30 3541 C 331.58 3.10156 -5.27702 0
M  V30 3542 N 330.717 4.26778 -5.57499 0
M  V30 3543 H 335.557 0.671716 -2.90331 0
M  V30 3544 H 333.094 0.3201 -1.43575 0
M  V30 3545 H 335.052 3.14632 -2.73975 0
M  V30 3546 H 333.682 2.7663 -1.6636 0
M  V30 3547 H 332.734 1.2878 -3.57939 0
M  V30 3548 H 334.046 1.89344 -4.61466 0
M  V30 3549 H 333.2 4.23373 -4.34558 0
M  V30 3550 H 331.939 3.66837 -3.21374 0
M  V30 3551 H 330.944 2.23866 -5.02159 0
M  V30 3552 H 332.169 2.8332 -6.17176 0
M  V30 3553 H 330.115 4.54948 -4.72608 0
M  V30 3554 H 330.032 4.05005 -6.38362 0
M  V30 3555 H 331.3 5.12443 -5.87386 0
M  V30 3556 N 335.529 1.53961 0.336706 0
M  V30 3557 C 336.462 1.77255 1.43722 0
M  V30 3558 C 337.44 0.62193 1.50236 0
M  V30 3559 O 338.624 0.857874 1.67847 0
M  V30 3560 C 335.751 1.87733 2.81912 0
M  V30 3561 C 334.797 3.09933 2.92991 0
M  V30 3562 S 335.63 4.68836 2.58753 0
M  V30 3563 C 336.786 4.82202 3.99039 0
M  V30 3564 H 337.019 2.70322 1.23748 0
M  V30 3565 H 334.552 1.44917 0.532777 0
M  V30 3566 H 336.51 1.94455 3.61521 0
M  V30 3567 H 335.171 0.956666 2.99177 0
M  V30 3568 H 334.364 3.1396 3.94265 0
M  V30 3569 H 333.966 3.01472 2.21338 0
M  V30 3570 H 336.258 4.64032 4.9364 0
M  V30 3571 H 337.201 5.84298 4.00002 0
M  V30 3572 H 337.609 4.10604 3.87382 0
M  V30 3573 N 337.007 -0.598083 1.45811 0
M  V30 3574 C 338.423 -0.919847 1.30426 0
M  V30 3575 C 338.623 -1.99759 0.264303 0
M  V30 3576 O 337.679 -2.50221 -0.338472 0
M  V30 3577 C 338.992 -1.35176 2.68603 0
M  V30 3578 C 340.54 -1.46546 2.76574 0
M  V30 3579 C 341.015 -1.9311 4.15298 0
M  V30 3580 N 342.506 -2.00328 4.1764 0
M  V30 3581 C 343.241 -2.37599 5.21856 0
M  V30 3582 N 342.737 -2.73771 6.36413 0
M  V30 3583 N 344.53 -2.38021 5.09218 0
M  V30 3584 H 336.681 0.114111 2.12093 0
M  V30 3585 H 338.944 -0.0116121 0.947929 0
M  V30 3586 H 338.65 -0.633969 3.45939 0
M  V30 3587 H 338.524 -2.3164 2.97696 0
M  V30 3588 H 340.911 -2.17415 1.99537 0
M  V30 3589 H 340.992 -0.483727 2.51185 0
M  V30 3590 H 340.636 -1.22824 4.92825 0
M  V30 3591 H 340.566 -2.92213 4.38086 0
M  V30 3592 H 343.057 -1.74925 3.34977 0
M  V30 3593 H 343.37 -3.0112 7.11721 0
M  V30 3594 H 341.715 -2.71445 6.39799 0
M  V30 3595 H 344.906 -2.09174 4.18765 0
M  V30 3596 H 345.079 -2.66741 5.90554 0
M  V30 3597 N 338.485 -1.33259 -0.841409 0
M  V30 3598 C 339.71 -1.2775 -1.63385 0
M  V30 3599 C 340.135 0.149188 -1.87507 0
M  V30 3600 O 339.493 1.10498 -1.43736 0
M  V30 3601 C 339.541 -2.05571 -2.96265 0
M  V30 3602 O 338.645 -1.41257 -3.87453 0
M  V30 3603 H 337.986 -0.439627 -0.497618 0
M  V30 3604 H 340.516 -1.75782 -1.04699 0
M  V30 3605 H 340.526 -2.16241 -3.45982 0
M  V30 3606 H 339.201 -3.09309 -2.7803 0
M  V30 3607 H 337.778 -1.39217 -3.45938 0
M  V30 3608 N 339.963 1.05934 -1.16686 0
M  V30 3609 C 340.913 2.11764 -0.844978 0
M  V30 3610 C 341.897 1.59922 0.177178 0
M  V30 3611 O 343.089 1.76983 -0.0241768 0
M  V30 3612 C 340.218 3.41493 -0.351812 0
M  V30 3613 C 339.304 4.00152 -1.40496 0
M  V30 3614 N 339.695 4.32874 -2.61636 0
M  V30 3615 C 337.993 4.278 -1.26106 0
M  V30 3616 C 338.694 4.79552 -3.29249 0
M  V30 3617 N 337.67 4.79211 -2.56628 0
M  V30 3618 H 341.472 2.34916 -1.76612 0
M  V30 3619 H 338.986 1.23511 -1.05446 0
M  V30 3620 H 340.983 4.16773 -0.102796 0
M  V30 3621 H 339.643 3.19778 0.56322 0
M  V30 3622 H 340.654 4.23109 -2.98663 0
M  V30 3623 H 337.331 4.15511 -0.407081 0
M  V30 3624 H 338.721 5.14045 -4.32675 0
M  V30 3625 N 341.441 0.965919 1.2453 0
M  V30 3626 C 342.688 0.626831 1.92554 0
M  V30 3627 C 343.016 -0.837739 1.75534 0
M  V30 3628 O 342.271 -1.61793 1.10098 0
M  V30 3629 C 342.57 0.945428 3.44669 0
M  V30 3630 C 342.236 2.39785 3.81856 0
M  V30 3631 C 340.898 2.79483 3.91718 0
M  V30 3632 C 343.25 3.34055 4.00071 0
M  V30 3633 C 340.578 4.12496 4.1721 0
M  V30 3634 C 342.93 4.66694 4.27059 0
M  V30 3635 C 341.594 5.06172 4.3514 0
M  V30 3636 H 340.864 0.229374 0.704605 0
M  V30 3637 H 343.511 1.21707 1.4785 0
M  V30 3638 H 341.816 0.272926 3.90848 0
M  V30 3639 H 343.513 0.661484 3.95507 0
M  V30 3640 H 340.103 2.08003 3.74743 0
M  V30 3641 H 344.287 3.04571 3.91855 0
M  V30 3642 H 339.543 4.42709 4.21685 0
M  V30 3643 H 343.717 5.3971 4.40097 0
M  V30 3644 H 341.344 6.09262 4.54646 0
M  V30 3645 N 342.919 -1.39368 0.735821 0
M  V30 3646 C 343.867 -2.32443 0.0855131 0
M  V30 3647 C 344.861 -1.53104 -0.724954 0
M  V30 3648 O 346.067 -1.68762 -0.626047 0
M  V30 3649 H 342.442 -0.751948 0.00885257 0
M  V30 3650 H 344.413 -2.84916 0.886883 0
M  V30 3651 C 343.162 -3.38206 -0.806983 0
M  V30 3652 H 342.485 -3.99335 -0.19274 0
M  V30 3653 H 343.925 -4.05779 -1.2296 0
M  V30 3654 C 342.384 -2.75321 -1.94165 0
M  V30 3655 O 342.914 -2.63231 -3.03435 0
M  V30 3656 N 341.12 -2.33396 -1.73132 0
M  V30 3657 H 340.667 -2.4343 -0.842596 0
M  V30 3658 H 340.625 -1.91661 -2.49225 0
M  V30 3659 N 344.397 -0.483516 -1.5 0
M  V30 3660 C 345.813 -0.138404 -1.58999 0
M  V30 3661 C 346.013 1.35597 -1.4905 0
M  V30 3662 O 345.069 2.13039 -1.35539 0
M  V30 3663 C 346.382 -0.699658 -2.92447 0
M  V30 3664 C 347.93 -0.664195 -3.05872 0
M  V30 3665 C 348.405 -1.20321 -4.41913 0
M  V30 3666 N 349.896 -1.16315 -4.48358 0
M  V30 3667 C 350.631 -1.55058 -5.52037 0
M  V30 3668 N 350.127 -2.01311 -6.62907 0
M  V30 3669 N 351.92 -1.46584 -5.42651 0
M  V30 3670 H 344.071 -1.45529 -1.5471 0
M  V30 3671 H 346.334 -0.60258 -0.731848 0
M  V30 3672 H 346.04 -1.747 -3.05242 0
M  V30 3673 H 345.914 -0.150194 -3.76901 0
M  V30 3674 H 348.301 0.374272 -2.92717 0
M  V30 3675 H 348.382 -1.25061 -2.23144 0
M  V30 3676 H 348.026 -2.24037 -4.55818 0
M  V30 3677 H 347.956 -0.592896 -5.23252 0
M  V30 3678 H 350.447 -0.824058 -3.68806 0
M  V30 3679 H 350.76 -2.2899 -7.38095 0
M  V30 3680 H 349.105 -2.05273 -6.63994 0
M  V30 3681 H 352.296 -1.10281 -4.54924 0
M  V30 3682 H 352.469 -1.77103 -6.23329 0
M  V30 3683 N 345.875 1.56104 -0.216619 0
M  V30 3684 C 346.822 2.2007 0.695531 0
M  V30 3685 C 347.792 1.15471 1.19397 0
M  V30 3686 O 348.977 1.43807 1.25396 0
M  V30 3687 C 346.117 2.88073 1.90021 0
M  V30 3688 C 345.23 4.07253 1.44113 0
M  V30 3689 C 344.365 4.63052 2.603 0
M  V30 3690 C 343.404 5.74545 2.11103 0
M  V30 3691 N 342.541 6.24656 3.20545 0
M  V30 3692 H 347.381 2.97655 0.143327 0
M  V30 3693 H 344.918 1.46982 0.0589934 0
M  V30 3694 H 346.876 3.25681 2.60745 0
M  V30 3695 H 345.506 2.13015 2.42538 0
M  V30 3696 H 344.558 3.75164 0.628999 0
M  V30 3697 H 345.87 4.8783 1.04036 0
M  V30 3698 H 345.024 5.03078 3.39113 0
M  V30 3699 H 343.763 3.81628 3.03663 0
M  V30 3700 H 342.768 5.34027 1.3075 0
M  V30 3701 H 343.993 6.57801 1.68746 0
M  V30 3702 H 341.939 5.46148 3.63399 0
M  V30 3703 H 341.856 7.00343 2.84704 0
M  V30 3704 H 343.124 6.69338 3.99508 0
M  V30 3705 N 347.353 -0.0568162 1.57498 0
M  V30 3706 C 348.6 -0.753104 1.87975 0
M  V30 3707 C 348.928 -1.76815 0.81035 0
M  V30 3708 O 348.183 -1.94756 -0.19199 0
M  V30 3709 C 348.482 -1.48359 3.25153 0
M  V30 3710 C 348.148 -0.60713 4.46794 0
M  V30 3711 C 346.81 -0.365642 4.79809 0
M  V30 3712 C 349.162 -0.000305978 5.212 0
M  V30 3713 C 346.49 0.491905 5.84634 0
M  V30 3714 C 348.842 0.844781 6.26934 0
M  V30 3715 C 347.506 1.096 6.58441 0
M  V30 3716 H 346.776 -0.27558 0.687849 0
M  V30 3717 H 349.423 -0.0135173 1.91495 0
M  V30 3718 H 347.728 -2.29577 3.17492 0
M  V30 3719 H 349.425 -2.02739 3.45974 0
M  V30 3720 H 346.015 -0.805487 4.20963 0
M  V30 3721 H 350.199 -0.173961 4.95995 0
M  V30 3722 H 345.455 0.695131 6.07436 0
M  V30 3723 H 349.629 1.32165 6.83744 0
M  V30 3724 H 347.256 1.76224 7.39492 0
M  V30 3725 N 348.832 -1.54138 -0.328536 0
M  V30 3726 C 350.248 -1.44736 -0.672574 0
M  V30 3727 C 350.448 -0.616217 -1.91846 0
M  V30 3728 O 349.504 -0.113067 -2.52247 0
M  V30 3729 C 350.817 -2.884 -0.851217 0
M  V30 3730 C 352.365 -2.98271 -0.948877 0
M  V30 3731 C 352.84 -4.43074 -1.15973 0
M  V30 3732 N 354.331 -4.46665 -1.22658 0
M  V30 3733 C 355.066 -5.55857 -1.40751 0
M  V30 3734 N 354.562 -6.75026 -1.5592 0
M  V30 3735 N 356.355 -5.43495 -1.4342 0
M  V30 3736 H 348.506 -2.06661 0.490421 0
M  V30 3737 H 350.769 -0.934812 0.157579 0
M  V30 3738 H 350.475 -3.51699 -0.00704236 0
M  V30 3739 H 350.349 -3.34225 -1.74853 0
M  V30 3740 H 352.736 -2.35102 -1.78356 0
M  V30 3741 H 352.817 -2.55785 -0.0281435 0
M  V30 3742 H 352.461 -5.06827 -0.329915 0
M  V30 3743 H 352.391 -4.83165 -2.09426 0
M  V30 3744 H 354.882 -3.60797 -1.124 0
M  V30 3745 H 355.195 -7.54004 -1.69404 0
M  V30 3746 H 353.54 -6.77944 -1.53027 0
M  V30 3747 H 356.731 -4.49349 -1.31162 0
M  V30 3748 H 356.904 -6.28649 -1.57178 0
M  V30 3749 N 350.31 0.590341 -1.46126 0
M  V30 3750 C 351.54 1.37304 -1.54373 0
M  V30 3751 C 351.948 1.88332 -0.181071 0
M  V30 3752 O 351.291 1.63852 0.830559 0
M  V30 3753 C 351.353 2.6012 -2.48149 0
M  V30 3754 C 351.017 2.30613 -3.94546 0
M  V30 3755 C 352.014 1.89915 -4.83971 0
M  V30 3756 C 349.699 2.42993 -4.39613 0
M  V30 3757 C 351.693 1.61981 -6.16475 0
M  V30 3758 C 349.38 2.14672 -5.72153 0
M  V30 3759 C 350.378 1.7423 -6.60404 0
M  V30 3760 O 350.066 1.46251 -7.90485 0
M  V30 3761 H 349.798 0.426086 -0.524811 0
M  V30 3762 H 352.352 0.72539 -1.92165 0
M  V30 3763 H 350.582 3.27664 -2.05361 0
M  V30 3764 H 352.271 3.22182 -2.46887 0
M  V30 3765 H 353.037 1.79872 -4.50412 0
M  V30 3766 H 348.916 2.73435 -3.71153 0
M  V30 3767 H 352.46 1.30341 -6.85315 0
M  V30 3768 H 348.357 2.24337 -6.05263 0
M  V30 3769 H 349.125 1.6016 -8.02677 0
M  V30 3770 N 351.788 1.33704 0.83433 0
M  V30 3771 C 352.698 1.26382 1.97648 0
M  V30 3772 C 353.714 0.173548 1.73132 0
M  V30 3773 O 354.89 0.397962 1.97429 0
M  V30 3774 C 351.955 1.00769 3.31733 0
M  V30 3775 C 351.016 2.1884 3.69334 0
M  V30 3776 C 350.249 1.9444 4.9702 0
M  V30 3777 O 350.472 0.896961 5.63303 0
M  V30 3778 O 349.406 2.81093 5.32231 0
M  V30 3779 H 353.232 2.22444 2.06767 0
M  V30 3780 H 350.817 1.13795 0.968037 0
M  V30 3781 H 352.699 0.882186 4.12062 0
M  V30 3782 H 351.374 0.0773783 3.23608 0
M  V30 3783 H 350.281 2.36946 2.89495 0
M  V30 3784 H 351.614 3.10221 3.82131 0
M  V30 3785 N 353.266 -1.05314 1.17247 0
M  V30 3786 C 354.196 -2.1498 0.911362 0
M  V30 3787 C 355.177 -1.69471 -0.146169 0
M  V30 3788 O 356.362 -1.942 0.003812 0
M  V30 3789 C 353.492 -3.4472 0.422528 0
M  V30 3790 C 352.446 -4.03789 1.4191 0
M  V30 3791 C 351.772 -5.28858 0.788274 0
M  V30 3792 C 353.072 -4.41418 2.7919 0
M  V30 3793 H 354.766 -2.3708 1.82848 0
M  V30 3794 H 352.312 -1.13938 0.880569 0
M  V30 3795 H 354.265 -4.20787 0.227289 0
M  V30 3796 H 352.989 -3.22269 -0.530123 0
M  V30 3797 H 351.648 -3.2979 1.60106 0
M  V30 3798 H 351.296 -5.02709 -0.171173 0
M  V30 3799 H 350.996 -5.69338 1.45353 0
M  V30 3800 H 352.52 -6.07612 0.603282 0
M  V30 3801 H 353.934 -5.08524 2.64719 0
M  V30 3802 H 352.331 -4.92913 3.42282 0
M  V30 3803 H 353.401 -3.51819 3.33693 0
M  V30 3804 N 354.744 -0.972509 -1.24016 0
M  V30 3805 C 355.676 -0.464375 -2.24446 0
M  V30 3806 C 356.689 0.4295 -1.57032 0
M  V30 3807 O 357.878 0.234902 -1.76948 0
M  V30 3808 C 354.978 0.348385 -3.37105 0
M  V30 3809 C 354.151 -0.53673 -4.34094 0
M  V30 3810 C 353.21 0.220838 -5.25736 0
M  V30 3811 O 352.236 -0.386867 -5.67884 0
M  V30 3812 N 353.438 1.50907 -5.60542 0
M  V30 3813 H 356.203 -1.32788 -2.68677 0
M  V30 3814 H 353.764 -0.844877 -1.38107 0
M  V30 3815 H 355.756 0.863341 -3.95384 0
M  V30 3816 H 354.326 1.11285 -2.92121 0
M  V30 3817 H 353.546 -1.23261 -3.74433 0
M  V30 3818 H 354.834 -1.14022 -4.95859 0
M  V30 3819 H 354.232 2.02444 -5.28236 0
M  V30 3820 H 352.789 1.96962 -6.21329 0
M  V30 3821 N 356.222 1.38976 -0.743202 0
M  V30 3822 C 357.471 1.99581 -0.291592 0
M  V30 3823 C 357.784 1.59656 1.13001 0
M  V30 3824 O 358.99 2.13157 1.68156 0
M  V30 3825 C 357.446 3.56813 -0.470391 0
M  V30 3826 C 357.054 4.05695 -1.90041 0
M  V30 3827 C 358.798 4.24423 -0.0809709 0
M  V30 3828 C 356.705 5.5553 -2.02832 0
M  V30 3829 H 355.635 0.746615 -0.105272 0
M  V30 3830 H 358.286 1.58872 -0.918258 0
M  V30 3831 H 356.668 3.95359 0.225299 0
M  V30 3832 H 357.842 3.78464 -2.62872 0
M  V30 3833 H 356.157 3.50775 -2.24379 0
M  V30 3834 H 358.754 5.34474 -0.155445 0
M  V30 3835 H 359.097 4.04962 0.96497 0
M  V30 3836 H 359.63 3.9108 -0.728124 0
M  V30 3837 H 356.369 5.79881 -3.05643 0
M  V30 3838 H 355.889 5.84537 -1.34448 0
M  V30 3839 H 357.568 6.21069 -1.81335 0
M  V30 3840 N 357.7 0.491464 1.49741 0
M  V30 3841 C 358.632 -0.328609 2.26832 0
M  V30 3842 C 359.645 -0.939113 1.32983 0
M  V30 3843 O 360.834 -0.824067 1.58339 0
M  V30 3844 C 357.934 -1.47675 3.05033 0
M  V30 3845 C 357.107 -0.975305 4.26388 0
M  V30 3846 C 356.166 -1.99991 4.86714 0
M  V30 3847 O 355.192 -1.57229 5.47054 0
M  V30 3848 N 356.394 -3.32962 4.75517 0
M  V30 3849 H 359.159 0.332377 2.97851 0
M  V30 3850 H 356.72 0.323441 1.58636 0
M  V30 3851 H 358.712 -2.15954 3.42266 0
M  V30 3852 H 357.282 -2.04206 2.36683 0
M  V30 3853 H 356.502 -0.117723 3.94024 0
M  V30 3854 H 357.79 -0.618531 5.05026 0
M  V30 3855 H 357.188 -3.70399 4.27576 0
M  V30 3856 H 355.745 -3.96982 5.16961 0
M  V30 3857 N 359.178 -1.55987 0.224894 0
M  V30 3858 C 360.125 -2.20436 -0.68385 0
M  V30 3859 C 361.095 -1.16102 -1.18783 0
M  V30 3860 O 362.28 -1.4447 -1.24632 0
M  V30 3861 C 359.42 -2.89076 -1.88491 0
M  V30 3862 C 358.533 -4.08012 -1.41951 0
M  V30 3863 C 357.668 -4.64426 -2.5784 0
M  V30 3864 C 356.707 -5.75656 -2.08053 0
M  V30 3865 N 355.844 -6.26347 -3.17227 0
M  V30 3866 H 360.684 -2.97727 -0.12754 0
M  V30 3867 H 358.221 -1.47011 -0.0511978 0
M  V30 3868 H 360.179 -3.27059 -2.59014 0
M  V30 3869 H 358.809 -2.14298 -2.41405 0
M  V30 3870 H 357.861 -3.75492 -0.609095 0
M  V30 3871 H 359.173 -4.88375 -1.01447 0
M  V30 3872 H 358.327 -5.04869 -3.3644 0
M  V30 3873 H 357.066 -3.83233 -3.01635 0
M  V30 3874 H 356.071 -5.34712 -1.27916 0
M  V30 3875 H 357.296 -6.58686 -1.65255 0
M  V30 3876 H 355.242 -5.48067 -3.60497 0
M  V30 3877 H 355.159 -7.01843 -2.80986 0
M  V30 3878 H 356.427 -6.71447 -3.95953 0
M  V30 3879 N 360.656 0.0484629 -1.57525 0
M  V30 3880 C 362.072 0.40375 -1.54409 0
M  V30 3881 C 362.272 1.77786 -0.948384 0
M  V30 3882 O 361.328 2.46189 -0.560983 0
M  V30 3883 C 362.641 0.323394 -2.98956 0
M  V30 3884 C 364.189 0.401892 -3.10409 0
M  V30 3885 C 364.664 0.351195 -4.56652 0
M  V30 3886 N 366.155 0.410576 -4.61377 0
M  V30 3887 C 366.89 0.393933 -5.72045 0
M  V30 3888 N 366.386 0.330724 -6.9201 0
M  V30 3889 N 368.179 0.442227 -5.60358 0
M  V30 3890 H 360.33 -0.851016 -1.94606 0
M  V30 3891 H 362.593 -0.321721 -0.89174 0
M  V30 3892 H 362.299 -0.62011 -3.4619 0
M  V30 3893 H 362.173 1.12463 -3.60044 0
M  V30 3894 H 364.56 1.33582 -2.63134 0
M  V30 3895 H 364.641 -0.428342 -2.52188 0
M  V30 3896 H 364.285 -0.578987 -5.04589 0
M  V30 3897 H 364.215 1.19928 -5.12762 0
M  V30 3898 H 366.706 0.462729 -3.75056 0
M  V30 3899 H 367.019 0.322592 -7.72126 0
M  V30 3900 H 365.364 0.29706 -6.94365 0
M  V30 3901 H 368.555 0.489464 -4.65534 0
M  V30 3902 H 368.728 0.425788 -6.466 0
M  V30 3903 N 362.134 1.5431 0.320358 0
M  V30 3904 C 363.067 1.78769 1.41834 0
M  V30 3905 C 364.045 0.63783 1.49568 0
M  V30 3906 O 365.229 0.875628 1.66928 0
M  V30 3907 C 362.356 1.90712 2.79905 0
M  V30 3908 C 361.402 3.13023 2.89687 0
M  V30 3909 S 362.235 4.71554 2.53766 0
M  V30 3910 C 363.391 4.86408 3.93902 0
M  V30 3911 H 363.624 2.71619 1.20874 0
M  V30 3912 H 361.157 1.45474 0.517377 0
M  V30 3913 H 363.115 1.98279 3.59438 0
M  V30 3914 H 361.776 0.988343 2.98145 0
M  V30 3915 H 360.969 3.18124 3.90913 0
M  V30 3916 H 360.571 3.03803 2.18128 0
M  V30 3917 H 362.863 4.69241 4.88691 0
M  V30 3918 H 363.806 5.88508 3.93782 0
M  V30 3919 H 364.214 4.14689 3.83005 0
M  V30 3920 N 363.613 -0.582584 1.46437 0
M  V30 3921 C 364.545 -1.70618 1.53043 0
M  V30 3922 C 365.558 -1.57322 0.418769 0
M  V30 3923 O 366.747 -1.64744 0.687136 0
M  V30 3924 C 363.847 -3.08869 1.39474 0
M  V30 3925 C 363.02 -3.48166 2.64762 0
M  V30 3926 C 362.079 -4.65478 2.4539 0
M  V30 3927 O 361.105 -4.71333 3.19114 0
M  V30 3928 N 362.307 -5.60365 1.51564 0
M  V30 3929 H 365.072 -1.65405 2.49923 0
M  V30 3930 H 362.633 -0.768567 1.42494 0
M  V30 3931 H 364.625 -3.85143 1.24287 0
M  V30 3932 H 363.195 -3.08449 0.507758 0
M  V30 3933 H 362.415 -2.61598 2.9489 0
M  V30 3934 H 363.703 -3.71188 3.4799 0
M  V30 3935 H 363.101 -5.5837 0.907705 0
M  V30 3936 H 361.658 -6.36068 1.4234 0
M  V30 3937 N 365.091 -1.34144 -0.827227 0
M  V30 3938 C 366.502 -1.23557 -1.39966 0
M  V30 3939 C 366.853 0.140731 -1.95695 0
M  V30 3940 O 365.978 1.04087 -1.89723 0
M  V30 3941 C 366.573 -2.23708 -2.54441 0
M  V30 3942 C 365.132 -2.16924 -3.07605 0
M  V30 3943 C 364.279 -2.10549 -1.80456 0
M  V30 3944 H 367.23 -1.45573 -0.631991 0
M  V30 3945 H 367.251 -1.85157 -3.32411 0
M  V30 3946 H 366.763 -3.23866 -2.13851 0
M  V30 3947 H 364.864 -1.20107 -3.52711 0
M  V30 3948 H 364.977 -3.07988 -3.66988 0
M  V30 3949 H 363.341 -1.56203 -2.01178 0
M  V30 3950 H 364.124 -3.12535 -1.42046 0
M  V30 3951 N 366.569 1.04691 -1.17803 0
M  V30 3952 C 367.815 1.78045 -0.970969 0
M  V30 3953 C 368.148 1.87686 0.498751 0
M  V30 3954 O 367.423 1.38035 1.37027 0
M  V30 3955 C 367.706 3.2166 -1.61884 0
M  V30 3956 C 367.559 3.20001 -3.161 0
M  V30 3957 C 368.878 4.1962 -1.3269 0
M  V30 3958 H 365.997 0.64633 -0.354155 0
M  V30 3959 H 368.639 1.22333 -1.45378 0
M  V30 3960 H 366.789 3.69232 -1.20831 0
M  V30 3961 H 368.461 2.80467 -3.66246 0
M  V30 3962 H 366.704 2.58203 -3.48588 0
M  V30 3963 H 367.375 4.21386 -3.56564 0
M  V30 3964 H 369.851 3.80567 -1.68249 0
M  V30 3965 H 368.727 5.18339 -1.80599 0
M  V30 3966 H 368.988 4.414 -0.248622 0
M  V30 3967 N 368.047 0.979072 1.23499 0
M  V30 3968 C 369.296 0.642751 1.91185 0
M  V30 3969 C 369.609 -0.827253 1.77245 0
M  V30 3970 O 370.815 -1.27458 2.39722 0
M  V30 3971 C 369.271 1.09901 3.42709 0
M  V30 3972 C 368.879 2.59327 3.65313 0
M  V30 3973 C 370.623 0.836371 4.16179 0
M  V30 3974 C 368.53 2.98627 5.10467 0
M  V30 3975 H 367.46 0.236698 0.715884 0
M  V30 3976 H 370.111 1.1868 1.39955 0
M  V30 3977 H 368.493 0.48319 3.93041 0
M  V30 3978 H 369.667 3.26136 3.25533 0
M  V30 3979 H 367.982 2.83323 3.05151 0
M  V30 3980 H 370.579 1.10586 5.23139 0
M  V30 3981 H 370.922 -0.227509 4.15678 0
M  V30 3982 H 371.455 1.41371 3.71832 0
M  V30 3983 H 368.194 4.04133 5.16098 0
M  V30 3984 H 367.714 2.3651 5.51201 0
M  V30 3985 H 369.393 2.89159 5.78788 0
M  V30 3986 N 369.525 -1.3858 0.750561 0
M  V30 3987 C 370.753 -2.04471 0.316098 0
M  V30 3988 C 371.168 -1.56606 -1.05452 0
M  V30 3989 O 370.525 -0.737784 -1.66922 0
M  V30 3990 C 370.576 -3.60025 0.326275 0
M  V30 3991 O 370.297 -4.06133 1.6428 0
M  V30 3992 C 371.798 -4.43131 -0.122429 0
M  V30 3993 H 369.018 -0.65717 0.135528 0
M  V30 3994 H 371.562 -1.77329 1.01857 0
M  V30 3995 H 369.717 -3.86014 -0.327431 0
M  V30 3996 H 370.131 -5.00547 1.56693 0
M  V30 3997 H 371.605 -5.51963 -0.0641473 0
M  V30 3998 H 372.082 -4.23333 -1.16988 0
M  V30 3999 H 372.688 -4.22323 0.50229 0
M  V30 4000 N 371.003 -0.499398 -1.49478 0
M  V30 4001 C 371.913 0.284489 -2.32869 0
M  V30 4002 C 372.929 0.968885 -1.44529 0
M  V30 4003 O 374.105 0.95062 -1.77553 0
M  V30 4004 C 371.17 1.33594 -3.19928 0
M  V30 4005 C 370.231 0.665149 -4.24116 0
M  V30 4006 C 369.464 1.6665 -5.07014 0
M  V30 4007 O 369.687 2.89618 -4.91404 0
M  V30 4008 O 368.621 1.22271 -5.8935 0
M  V30 4009 H 372.447 -0.39802 -3.01081 0
M  V30 4010 H 370.032 -0.260758 -1.47107 0
M  V30 4011 H 371.914 1.94431 -3.73864 0
M  V30 4012 H 370.589 2.0014 -2.54412 0
M  V30 4013 H 369.496 0.0170769 -3.74096 0
M  V30 4014 H 370.829 0.0421555 -4.92182 0
M  V30 4015 N 372.481 1.55866 -0.233164 0
M  V30 4016 C 373.413 2.18099 0.704668 0
M  V30 4017 C 374.426 1.15334 1.14899 0
M  V30 4018 O 375.615 1.42262 1.07814 0
M  V30 4019 C 372.715 2.7592 1.96777 0
M  V30 4020 C 371.888 4.03969 1.67713 0
M  V30 4021 C 370.947 4.46242 2.78845 0
M  V30 4022 O 369.973 5.12903 2.46818 0
M  V30 4023 N 371.175 4.12886 4.08051 0
M  V30 4024 H 373.94 2.99205 0.172258 0
M  V30 4025 H 371.501 1.61815 -0.0525945 0
M  V30 4026 H 373.493 3.01165 2.70337 0
M  V30 4027 H 372.063 1.99051 2.41034 0
M  V30 4028 H 371.283 3.86459 0.777391 0
M  V30 4029 H 372.571 4.8748 1.4574 0
M  V30 4030 H 371.969 3.59342 4.3691 0
M  V30 4031 H 370.526 4.42997 4.78118 0
M  V30 4032 N 373.959 -0.0401083 1.57549 0
M  V30 4033 C 375.205 -0.734211 1.89043 0
M  V30 4034 C 375.538 -1.75591 0.829535 0
M  V30 4035 O 374.813 -1.93868 -0.156706 0
M  V30 4036 C 375.096 -1.41374 3.31188 0
M  V30 4037 C 374.949 -0.406299 4.47961 0
M  V30 4038 C 376.268 -2.35061 3.72068 0
M  V30 4039 H 373.387 -0.265447 0.687537 0
M  V30 4040 H 376.029 0.00294087 1.9 0
M  V30 4041 H 374.179 -2.04206 3.30503 0
M  V30 4042 H 375.851 0.219255 4.60779 0
M  V30 4043 H 374.094 0.275485 4.32924 0
M  V30 4044 H 374.765 -0.920022 5.44279 0
M  V30 4045 H 377.241 -1.82282 3.74049 0
M  V30 4046 H 376.117 -2.79593 4.72355 0
M  V30 4047 H 376.378 -3.21258 3.0372 0
M  V30 4048 N 375.437 -1.54477 -0.31217 0
M  V30 4049 C 376.853 -1.45442 -0.657185 0
M  V30 4050 C 377.053 -0.63653 -1.91182 0
M  V30 4051 O 376.109 -0.139815 -2.52113 0
M  V30 4052 C 377.422 -2.89287 -0.82058 0
M  V30 4053 C 378.97 -2.9926 -0.917188 0
M  V30 4054 C 379.445 -4.44279 -1.11267 0
M  V30 4055 N 380.936 -4.4794 -1.17914 0
M  V30 4056 C 381.671 -5.57318 -1.34848 0
M  V30 4057 N 381.167 -6.76642 -1.48752 0
M  V30 4058 N 382.96 -5.44986 -1.37647 0
M  V30 4059 H 375.111 -2.06129 0.512313 0
M  V30 4060 H 377.374 -0.933088 0.167485 0
M  V30 4061 H 377.08 -3.51687 0.0302604 0
M  V30 4062 H 376.954 -3.36061 -1.71298 0
M  V30 4063 H 379.341 -2.36981 -1.75852 0
M  V30 4064 H 379.422 -2.558 -0.00101257 0
M  V30 4065 H 379.066 -5.07149 -0.27614 0
M  V30 4066 H 378.996 -4.85359 -2.04289 0
M  V30 4067 H 381.487 -3.61969 -1.08567 0
M  V30 4068 H 381.8 -7.55758 -1.61397 0
M  V30 4069 H 380.145 -6.79529 -1.45828 0
M  V30 4070 H 383.336 -4.50715 -1.26388 0
M  V30 4071 H 383.509 -6.3028 -1.50501 0
M  V30 4072 N 376.915 0.57481 -1.46744 0
M  V30 4073 C 378.192 1.3352 -1.4294 0
M  V30 4074 C 378.572 2.10775 -0.117009 0
M  V30 4075 O 377.92 2.09966 0.901474 0
M  V30 4076 C 378.13 2.25456 -2.66403 0
M  V30 4077 C 379.478 2.87035 -3.12883 0
M  V30 4078 O 380.502 2.35766 -2.67007 0
M  V30 4079 O 379.361 3.80179 -3.92589 0
M  V30 4080 H 376.455 0.600318 -0.568812 0
M  V30 4081 H 379.001 0.595171 -1.58921 0
M  V30 4082 H 377.773 1.67851 -3.53471 0
M  V30 4083 H 377.396 3.06785 -2.52921 0
M  V30 4084 N 378.394 1.34581 0.820102 0
M  V30 4085 C 379.81 1.14325 1.11364 0
M  V30 4086 C 380.01 -0.0533648 2.01429 0
M  V30 4087 O 379.066 -0.728044 2.41776 0
M  V30 4088 C 380.379 2.43983 1.75764 0
M  V30 4089 C 381.927 2.50065 1.88246 0
M  V30 4090 C 382.402 3.79732 2.56061 0
M  V30 4091 N 383.893 3.80908 2.63558 0
M  V30 4092 C 384.628 4.77961 3.16766 0
M  V30 4093 N 384.124 5.85397 3.70517 0
M  V30 4094 N 385.917 4.65413 3.15194 0
M  V30 4095 H 378.068 2.11246 0.221096 0
M  V30 4096 H 380.331 0.934289 0.160649 0
M  V30 4097 H 380.037 3.31651 1.1705 0
M  V30 4098 H 379.911 2.57531 2.75604 0
M  V30 4099 H 382.298 1.62834 2.46108 0
M  V30 4100 H 382.379 2.40442 0.873006 0
M  V30 4101 H 382.023 4.67354 1.98853 0
M  V30 4102 H 381.953 3.86639 3.57516 0
M  V30 4103 H 384.444 3.03274 2.25463 0
M  V30 4104 H 384.757 6.55463 4.09376 0
M  V30 4105 H 383.102 5.89107 3.68752 0
M  V30 4106 H 386.293 3.80627 2.72471 0
M  V30 4107 H 386.466 5.41216 3.56356 0
M  V30 4108 N 379.872 -1.04064 1.18357 0
M  V30 4109 C 381.1 -1.80916 1.00384 0
M  V30 4110 C 381.515 -1.83414 -0.447738 0
M  V30 4111 O 380.872 -1.26962 -1.31099 0
M  V30 4112 C 380.923 -3.26516 1.55144 0
M  V30 4113 O 380.644 -3.2424 2.94618 0
M  V30 4114 C 382.145 -4.20013 1.41789 0
M  V30 4115 H 379.365 -0.569728 0.354474 0
M  V30 4116 H 381.909 -1.31151 1.56906 0
M  V30 4117 H 380.064 -3.73512 1.02798 0
M  V30 4118 H 380.478 -4.15452 3.20156 0
M  V30 4119 H 381.952 -5.20111 1.84901 0
M  V30 4120 H 382.429 -4.37667 0.36661 0
M  V30 4121 H 383.035 -3.78881 1.93207 0
M  V30 4122 N 381.35 -0.985608 -1.22978 0
M  V30 4123 C 382.575 -0.675254 -1.961 0
M  V30 4124 C 383 0.752154 -1.72407 0
M  V30 4125 O 382.358 1.5131 -0.998751 0
M  V30 4126 C 382.406 -0.977899 -3.47087 0
M  V30 4127 O 381.51 -0.072685 -4.12336 0
M  V30 4128 H 380.851 -0.253443 -0.613728 0
M  V30 4129 H 383.381 -1.32061 -1.56272 0
M  V30 4130 H 383.391 -0.916739 -3.97567 0
M  V30 4131 H 382.066 -2.01807 -3.63657 0
M  V30 4132 H 380.643 -0.188703 -3.72422 0
M  V30 4133 N 382.828 1.3818 -0.7579 0
M  V30 4134 C 384.075 2.00019 -0.315985 0
M  V30 4135 C 384.403 1.60163 1.10355 0
M  V30 4136 O 383.658 0.83264 1.77103 0
M  V30 4137 C 383.957 3.55252 -0.391218 0
M  V30 4138 C 383.623 4.14834 -1.76702 0
M  V30 4139 C 382.285 4.30821 -2.14353 0
M  V30 4140 C 384.637 4.47658 -2.66931 0
M  V30 4141 C 381.965 4.76928 -3.41696 0
M  V30 4142 C 384.317 4.95184 -3.93669 0
M  V30 4143 C 382.981 5.09377 -4.31383 0
M  V30 4144 H 382.251 0.731923 -0.115627 0
M  V30 4145 H 384.898 1.65161 -0.969223 0
M  V30 4146 H 383.203 3.90273 0.34558 0
M  V30 4147 H 384.9 4.00988 -0.030805 0
M  V30 4148 H 381.49 4.02808 -1.46435 0
M  V30 4149 H 385.674 4.34904 -2.39106 0
M  V30 4150 H 380.93 4.86103 -3.70829 0
M  V30 4151 H 385.104 5.19551 -4.63724 0
M  V30 4152 H 382.731 5.44865 -5.30119 0
M  V30 4153 N 384.306 0.507319 1.49211 0
M  V30 4154 C 385.238 -0.304532 2.27168 0
M  V30 4155 C 386.251 -0.924956 1.33972 0
M  V30 4156 O 387.44 -0.807227 1.59205 0
M  V30 4157 C 384.54 -1.44431 3.06583 0
M  V30 4158 C 383.713 -0.930026 4.27398 0
M  V30 4159 C 382.772 -1.94817 4.88807 0
M  V30 4160 O 381.798 -1.51418 5.4869 0
M  V30 4161 N 383 -3.279 4.79022 0
M  V30 4162 H 385.765 0.36395 2.97482 0
M  V30 4163 H 383.326 0.340249 1.58284 0
M  V30 4164 H 385.318 -2.12311 3.44537 0
M  V30 4165 H 383.888 -2.01684 2.38835 0
M  V30 4166 H 383.108 -0.0759244 3.94127 0
M  V30 4167 H 384.396 -0.564932 5.05654 0
M  V30 4168 H 383.794 -3.65843 4.3148 0
M  V30 4169 H 382.351 -3.91476 5.21142 0
M  V30 4170 N 385.784 -1.5574 0.241426 0
M  V30 4171 C 386.714 -2.24133 -0.654722 0
M  V30 4172 C 387.695 -1.21974 -1.1856 0
M  V30 4173 O 388.88 -1.50612 -1.22595 0
M  V30 4174 C 386.01 -2.93659 -1.85423 0
M  V30 4175 C 384.964 -4.0246 -1.45636 0
M  V30 4176 C 384.29 -4.59383 -2.73626 0
M  V30 4177 C 385.59 -5.18468 -0.631506 0
M  V30 4178 H 387.284 -2.99281 -0.0844353 0
M  V30 4179 H 384.83 -1.43947 -0.0391707 0
M  V30 4180 H 386.783 -3.40203 -2.48676 0
M  V30 4181 H 385.507 -2.15991 -2.44981 0
M  V30 4182 H 384.166 -3.56676 -0.847202 0
M  V30 4183 H 383.814 -3.78422 -3.3137 0
M  V30 4184 H 383.514 -5.32826 -2.4773 0
M  V30 4185 H 385.038 -5.08658 -3.37786 0
M  V30 4186 H 386.452 -5.61272 -1.1682 0
M  V30 4187 H 384.849 -5.98266 -0.468831 0
M  V30 4188 H 385.919 -4.8358 0.357506 0
M  V30 4189 N 387.262 0.0317525 -1.57568 0
M  V30 4190 C 388.192 1.03274 -2.0942 0
M  V30 4191 C 389.173 1.3788 -0.996143 0
M  V30 4192 O 390.358 1.46811 -1.27122 0
M  V30 4193 C 387.488 2.33448 -2.57137 0
M  V30 4194 C 386.442 2.13091 -3.71182 0
M  V30 4195 C 385.768 3.49001 -4.05095 0
M  V30 4196 C 387.068 1.51928 -4.99715 0
M  V30 4197 H 388.762 0.60112 -2.93303 0
M  V30 4198 H 386.308 0.287705 -1.41097 0
M  V30 4199 H 388.261 3.03802 -2.92032 0
M  V30 4200 H 386.985 2.78665 -1.70333 0
M  V30 4201 H 385.644 1.45171 -3.36632 0
M  V30 4202 H 385.292 3.91862 -3.15362 0
M  V30 4203 H 384.992 3.36207 -4.81911 0
M  V30 4204 H 386.516 4.20721 -4.42522 0
M  V30 4205 H 387.93 2.12196 -5.32584 0
M  V30 4206 H 386.327 1.49716 -5.81124 0
M  V30 4207 H 387.397 0.484811 -4.8247 0
M  V30 4208 N 388.74 1.54641 0.303973 0
M  V30 4209 C 389.688 1.86137 1.39484 0
M  V30 4210 C 390.682 0.734854 1.52631 0
M  V30 4211 O 391.888 0.918803 1.54784 0
M  V30 4212 H 388.263 0.590324 0.465856 0
M  V30 4213 H 390.234 2.77324 1.10154 0
M  V30 4214 C 388.983 2.12274 2.75382 0
M  V30 4215 H 388.306 2.98429 2.66046 0
M  V30 4216 H 389.746 2.38254 3.5073 0
M  V30 4217 C 388.205 0.920365 3.24085 0
M  V30 4218 O 388.735 0.139377 4.01458 0
M  V30 4219 N 386.941 0.726566 2.81371 0
M  V30 4220 H 386.488 1.36332 2.18567 0
M  V30 4221 H 386.446 -0.0763799 3.14307 0
M  V30 4222 N 390.218 -0.567019 1.47046 0
M  V30 4223 C 391.629 -1.14916 1.47143 0
M  V30 4224 C 391.98 -1.94954 0.220767 0
M  V30 4225 O 391.105 -2.05602 -0.67505 0
M  V30 4226 C 391.7 -2.09069 2.666 0
M  V30 4227 C 390.259 -2.62575 2.69687 0
M  V30 4228 C 389.406 -1.38755 2.40088 0
M  V30 4229 H 392.357 -0.354126 1.54699 0
M  V30 4230 H 392.378 -2.92789 2.43011 0
M  V30 4231 H 391.89 -1.50789 3.57609 0
M  V30 4232 H 389.991 -3.24681 1.82792 0
M  V30 4233 H 390.104 -3.04239 3.70102 0
M  V30 4234 H 388.468 -1.69098 1.90468 0
M  V30 4235 H 389.251 -0.822822 3.33293 0
M  V30 4236 N 391.696 -1.35014 -0.812953 0
M  V30 4237 C 392.944 -1.27678 -1.56661 0
M  V30 4238 C 393.265 0.150359 -1.94419 0
M  V30 4239 O 392.535 1.08532 -1.63088 0
M  V30 4240 H 391.115 -0.469602 -0.580933 0
M  V30 4241 H 393.777 -1.69043 -0.970076 0
M  V30 4242 H 392.873 -1.88833 -2.48492 0
M  V30 4243 N 393.175 1.03435 -1.18907 0
M  V30 4244 C 394.403 1.80381 -1.01342 0
M  V30 4245 C 394.818 1.83649 0.438005 0
M  V30 4246 O 394.175 1.27655 1.30424 0
M  V30 4247 C 394.226 3.25689 -1.56873 0
M  V30 4248 O 393.947 3.22673 -2.96334 0
M  V30 4249 C 395.448 4.19255 -1.44014 0
M  V30 4250 H 392.668 0.56784 -0.35749 0
M  V30 4251 H 395.212 1.30317 -1.576 0
M  V30 4252 H 393.367 3.72962 -1.04777 0
M  V30 4253 H 393.781 4.13748 -3.22355 0
M  V30 4254 H 395.255 5.19123 -1.87657 0
M  V30 4255 H 395.732 4.37467 -0.389815 0
M  V30 4256 H 396.338 3.77851 -1.95214 0
M  V30 4257 N 394.653 0.992116 1.22453 0
M  V30 4258 C 395.883 0.684949 1.94915 0
M  V30 4259 C 396.291 -0.754292 1.73514 0
M  V30 4260 O 395.634 -1.52056 1.03076 0
M  V30 4261 C 395.696 0.910054 3.47791 0
M  V30 4262 C 395.36 2.33363 3.92926 0
M  V30 4263 C 396.357 3.31308 4.00663 0
M  V30 4264 C 394.042 2.66785 4.25595 0
M  V30 4265 C 396.036 4.6075 4.40441 0
M  V30 4266 C 393.723 3.96446 4.65053 0
M  V30 4267 C 394.721 4.9324 4.72444 0
M  V30 4268 O 394.409 6.20584 5.1101 0
M  V30 4269 H 394.141 0.25258 0.62704 0
M  V30 4270 H 396.695 1.32939 1.56577 0
M  V30 4271 H 394.925 0.208443 3.86138 0
M  V30 4272 H 396.614 0.598257 4.01467 0
M  V30 4273 H 397.38 3.0682 3.75615 0
M  V30 4274 H 393.259 1.92148 4.19047 0
M  V30 4275 H 396.803 5.363 4.46126 0
M  V30 4276 H 392.7 4.20724 4.89552 0
M  V30 4277 H 393.468 6.24509 5.29085 0
M  V30 4278 N 396.131 -1.37776 0.765217 0
M  V30 4279 C 397.359 -2.04124 0.337767 0
M  V30 4280 C 397.774 -1.57715 -1.03785 0
M  V30 4281 O 397.131 -0.755447 -1.6613 0
M  V30 4282 C 397.182 -3.59658 0.364442 0
M  V30 4283 O 396.903 -4.04367 1.68579 0
M  V30 4284 C 398.404 -4.43236 -0.0754221 0
M  V30 4285 H 395.624 -0.655696 0.142491 0
M  V30 4286 H 398.168 -1.76238 1.03732 0
M  V30 4287 H 396.323 -3.86339 -0.286471 0
M  V30 4288 H 396.737 -4.98857 1.61993 0
M  V30 4289 H 398.211 -5.52 -0.00560067 0
M  V30 4290 H 398.688 -4.2455 -1.12491 0
M  V30 4291 H 399.294 -4.21767 0.547055 0
M  V30 4292 N 397.609 -0.515225 -1.4894 0
M  V30 4293 C 398.855 0.0242508 -2.02785 0
M  V30 4294 C 399.188 1.35323 -1.39289 0
M  V30 4295 O 398.463 1.87041 -0.533469 0
M  V30 4296 C 398.746 0.16184 -3.59736 0
M  V30 4297 C 398.599 -1.19127 -4.33738 0
M  V30 4298 C 399.918 0.895719 -4.30888 0
M  V30 4299 H 397.037 0.00733914 -0.736963 0
M  V30 4300 H 399.679 -0.669395 -1.77818 0
M  V30 4301 H 397.829 0.752624 -3.8114 0
M  V30 4302 H 399.501 -1.82202 -4.23792 0
M  V30 4303 H 397.744 -1.77695 -3.95736 0
M  V30 4304 H 398.415 -1.04815 -5.41957 0
M  V30 4305 H 400.891 0.394528 -4.14225 0
M  V30 4306 H 399.767 0.960859 -5.40425 0
M  V30 4307 H 400.028 1.9427 -3.97129 0
M  V30 4308 N 399.087 1.5561 -0.249682 0
M  V30 4309 C 400.019 2.18834 0.681496 0
M  V30 4310 C 401.032 1.16546 1.1367 0
M  V30 4311 O 402.221 1.43397 1.06299 0
M  V30 4312 C 399.321 2.77992 1.9384 0
M  V30 4313 C 398.494 4.05725 1.63419 0
M  V30 4314 C 397.553 4.49174 2.74096 0
M  V30 4315 O 396.579 5.15492 2.41364 0
M  V30 4316 N 397.781 4.17191 4.03649 0
M  V30 4317 H 400.546 2.9937 0.140514 0
M  V30 4318 H 398.107 1.6175 -0.0697541 0
M  V30 4319 H 400.099 3.04015 2.67127 0
M  V30 4320 H 398.669 2.01596 2.38909 0
M  V30 4321 H 397.889 3.87261 0.736358 0
M  V30 4322 H 399.177 4.88999 1.40562 0
M  V30 4323 H 398.575 3.63955 4.33074 0
M  V30 4324 H 397.132 4.48043 4.73393 0
M  V30 4325 N 400.565 -0.0233959 1.57583 0
M  V30 4326 C 401.814 -0.712133 1.8871 0
M  V30 4327 C 402.127 -1.76217 0.848944 0
M  V30 4328 O 403.333 -2.50389 1.04964 0
M  V30 4329 C 401.789 -1.3177 3.3491 0
M  V30 4330 C 401.397 -0.303715 4.46969 0
M  V30 4331 C 403.141 -1.98598 3.75179 0
M  V30 4332 C 401.048 -0.917945 5.84233 0
M  V30 4333 H 399.978 -0.269735 0.704101 0
M  V30 4334 H 402.629 0.0333114 1.8347 0
M  V30 4335 H 401.011 -2.11304 3.34913 0
M  V30 4336 H 402.185 0.465325 4.58445 0
M  V30 4337 H 400.5 0.2628 4.1557 0
M  V30 4338 H 403.097 -2.45416 4.75053 0
M  V30 4339 H 403.44 -2.80659 3.07468 0
M  V30 4340 H 403.973 -1.25831 3.77374 0
M  V30 4341 H 400.712 -0.136633 6.55358 0
M  V30 4342 H 400.232 -1.65669 5.76467 0
M  V30 4343 H 401.911 -1.4236 6.31144 0
M  V30 4344 N 402.043 -1.548 -0.295768 0
M  V30 4345 C 403.459 -1.4613 -0.641722 0
M  V30 4346 C 403.659 -0.656771 -1.90496 0
M  V30 4347 O 402.715 -0.166547 -2.5195 0
M  V30 4348 C 404.028 -2.90141 -0.789852 0
M  V30 4349 C 405.576 -3.00216 -0.885396 0
M  V30 4350 C 406.051 -4.45434 -1.06548 0
M  V30 4351 N 407.542 -4.49166 -1.13156 0
M  V30 4352 C 408.277 -5.58717 -1.28929 0
M  V30 4353 N 407.773 -6.78182 -1.41567 0
M  V30 4354 N 409.566 -5.46415 -1.31859 0
M  V30 4355 H 401.717 -2.05574 0.534147 0
M  V30 4356 H 403.98 -0.931259 0.177372 0
M  V30 4357 H 403.686 -3.51635 0.0675598 0
M  V30 4358 H 403.56 -3.37859 -1.67724 0
M  V30 4359 H 405.947 -2.38833 -1.73329 0
M  V30 4360 H 406.028 -2.55787 0.0261185 0
M  V30 4361 H 405.672 -5.07413 -0.222335 0
M  V30 4362 H 405.602 -4.87499 -1.9913 0
M  V30 4363 H 408.093 -3.631 -1.04721 0
M  V30 4364 H 408.406 -7.57428 -1.53372 0
M  V30 4365 H 406.751 -6.81037 -1.38613 0
M  V30 4366 H 409.942 -4.5203 -1.21601 0
M  V30 4367 H 410.115 -6.31841 -1.43808 0
M  V30 4368 N 403.521 0.559213 -1.47345 0
M  V30 4369 C 404.484 1.64854 -1.59235 0
M  V30 4370 C 405.484 1.53851 -0.467607 0
M  V30 4371 O 406.674 1.58045 -0.732617 0
M  V30 4372 C 403.806 3.04388 -1.53496 0
M  V30 4373 H 404.999 1.55662 -2.56339 0
M  V30 4374 H 402.552 0.778973 -1.35505 0
M  V30 4375 H 403.287 3.19115 -0.577604 0
M  V30 4376 H 403.072 3.13783 -2.35123 0
M  V30 4377 H 404.562 3.83642 -1.6495 0
M  V30 4378 N 404.999 1.35443 0.805782 0
M  V30 4379 C 406.415 1.15499 1.10146 0
M  V30 4380 C 406.615 -0.0319975 2.01475 0
M  V30 4381 O 405.671 -0.70236 2.42535 0
M  V30 4382 C 406.984 2.45833 1.73166 0
M  V30 4383 C 408.532 2.52047 1.85583 0
M  V30 4384 C 409.007 3.82427 2.52019 0
M  V30 4385 N 410.498 3.83682 2.59504 0
M  V30 4386 C 411.233 4.81294 3.11679 0
M  V30 4387 N 410.729 5.89294 3.64287 0
M  V30 4388 N 412.522 4.6873 3.1024 0
M  V30 4389 H 404.673 2.11469 0.198678 0
M  V30 4390 H 406.936 0.93594 0.150731 0
M  V30 4391 H 406.642 3.32874 1.13526 0
M  V30 4392 H 406.516 2.6044 2.72857 0
M  V30 4393 H 408.903 1.65435 2.44367 0
M  V30 4394 H 408.984 2.41354 0.847455 0
M  V30 4395 H 408.628 4.69437 1.93885 0
M  V30 4396 H 408.558 3.90409 3.53395 0
M  V30 4397 H 411.049 3.05648 2.22234 0
M  V30 4398 H 411.362 6.59768 4.02401 0
M  V30 4399 H 409.707 5.92985 3.62483 0
M  V30 4400 H 412.898 3.83496 2.68419 0
M  V30 4401 H 413.071 5.44965 3.50596 0
M  V30 4402 N 406.477 -1.02803 1.19454 0
M  V30 4403 C 407.387 -2.14575 0.948408 0
M  V30 4404 C 408.403 -1.73757 -0.091871 0
M  V30 4405 O 409.579 -2.01185 0.0929654 0
M  V30 4406 C 406.644 -3.43202 0.491265 0
M  V30 4407 C 405.705 -3.98328 1.60103 0
M  V30 4408 C 404.938 -5.20816 1.16561 0
M  V30 4409 O 405.161 -5.70392 0.0295238 0
M  V30 4410 O 404.095 -5.68801 1.96849 0
M  V30 4411 H 407.921 -2.38202 1.88397 0
M  V30 4412 H 405.506 -1.12989 0.977433 0
M  V30 4413 H 407.388 -4.20687 0.245015 0
M  V30 4414 H 406.063 -3.21018 -0.415851 0
M  V30 4415 H 404.97 -3.22174 1.90144 0
M  V30 4416 H 406.303 -4.24879 2.48473 0
M  V30 4417 N 407.956 -0.998596 -1.21925 0
M  V30 4418 C 409.372 -0.710303 -1.42923 0
M  V30 4419 C 409.572 0.716933 -1.88314 0
M  V30 4420 O 408.628 1.48712 -2.04062 0
M  V30 4421 C 409.941 -1.72072 -2.466 0
M  V30 4422 C 411.489 -1.73681 -2.60392 0
M  V30 4423 C 411.964 -2.73601 -3.67296 0
M  V30 4424 N 413.455 -2.7223 -3.7476 0
M  V30 4425 C 414.19 -3.46206 -4.57087 0
M  V30 4426 N 413.686 -4.29802 -5.43362 0
M  V30 4427 N 415.479 -3.34886 -4.51451 0
M  V30 4428 H 407.63 -1.92028 -0.9077 0
M  V30 4429 H 409.893 -0.828487 -0.460775 0
M  V30 4430 H 409.599 -2.74231 -2.20206 0
M  V30 4431 H 409.473 -1.51818 -3.45299 0
M  V30 4432 H 411.86 -0.722173 -2.86127 0
M  V30 4433 H 411.941 -1.98005 -1.61949 0
M  V30 4434 H 411.585 -3.75217 -3.42307 0
M  V30 4435 H 411.515 -2.46545 -4.65321 0
M  V30 4436 H 414.006 -2.11576 -3.1312 0
M  V30 4437 H 414.319 -4.83061 -6.03218 0
M  V30 4438 H 412.664 -4.33887 -5.42925 0
M  V30 4439 H 415.855 -2.69015 -3.83078 0
M  V30 4440 H 416.028 -3.92796 -5.15379 0
M  V30 4441 N 409.434 1.37368 -0.772513 0
M  V30 4442 C 410.68 1.99969 -0.337681 0
M  V30 4443 C 411.013 1.61184 1.08321 0
M  V30 4444 O 410.288 0.858395 1.74533 0
M  V30 4445 C 410.571 3.56858 -0.482121 0
M  V30 4446 C 410.424 4.0555 -1.94549 0
M  V30 4447 C 411.743 4.39955 0.113143 0
M  V30 4448 H 408.862 0.726464 -0.124171 0
M  V30 4449 H 411.504 1.63034 -0.975699 0
M  V30 4450 H 409.654 3.88452 0.0610361 0
M  V30 4451 H 411.326 3.84518 -2.54841 0
M  V30 4452 H 409.569 3.57715 -2.45403 0
M  V30 4453 H 410.24 5.14587 -1.9976 0
M  V30 4454 H 412.716 4.14623 -0.35031 0
M  V30 4455 H 411.592 5.48897 -0.0180514 0
M  V30 4456 H 411.853 4.25403 1.20354 0
M  V30 4457 N 410.912 0.523116 1.48665 0
M  V30 4458 C 412.142 -0.00961724 2.06598 0
M  V30 4459 C 412.55 -1.29333 1.38093 0
M  V30 4460 O 411.893 -1.77846 0.46007 0
M  V30 4461 C 411.955 -0.311135 3.58151 0
M  V30 4462 C 411.619 0.878092 4.48485 0
M  V30 4463 C 412.616 1.77464 4.88674 0
M  V30 4464 C 410.301 1.08315 4.90483 0
M  V30 4465 C 412.295 2.86021 5.69623 0
M  V30 4466 C 409.982 2.17187 5.71203 0
M  V30 4467 C 410.98 3.05873 6.10681 0
M  V30 4468 O 410.668 4.12862 6.89783 0
M  V30 4469 H 410.4 0.0272658 0.67545 0
M  V30 4470 H 412.954 0.726156 1.92136 0
M  V30 4471 H 411.184 -1.10079 3.70701 0
M  V30 4472 H 412.873 -0.785125 3.98234 0
M  V30 4473 H 413.639 1.62813 4.56855 0
M  V30 4474 H 409.518 0.402149 4.59243 0
M  V30 4475 H 413.062 3.55272 6.00356 0
M  V30 4476 H 408.959 2.31824 6.02435 0
M  V30 4477 H 409.727 4.10487 7.08126 0
M  V30 4478 N 412.39 -1.55475 0.257931 0
M  V30 4479 C 413.3 -2.2549 -0.647425 0
M  V30 4480 C 414.316 -1.2748 -1.18427 0
M  V30 4481 O 415.492 -1.6038 -1.2182 0
M  V30 4482 C 412.557 -2.94916 -1.82278 0
M  V30 4483 C 411.618 -4.08363 -1.32432 0
M  V30 4484 C 410.851 -4.74469 -2.44366 0
M  V30 4485 O 411.074 -4.39701 -3.63344 0
M  V30 4486 O 410.008 -5.62763 -2.13497 0
M  V30 4487 H 413.834 -3.03593 -0.0807707 0
M  V30 4488 H 411.419 -1.49377 0.0259962 0
M  V30 4489 H 413.301 -3.38606 -2.50846 0
M  V30 4490 H 411.976 -2.19744 -2.37685 0
M  V30 4491 H 410.883 -3.69166 -0.605605 0
M  V30 4492 H 412.216 -4.85385 -0.816211 0
M  V30 4493 N 413.868 0.0150385 -1.57593 0
M  V30 4494 C 415.115 0.703001 -1.89906 0
M  V30 4495 C 415.443 1.74604 -0.856944 0
M  V30 4496 O 414.698 1.95197 0.140287 0
M  V30 4497 C 414.997 1.39686 -3.28972 0
M  V30 4498 C 414.663 0.488457 -4.48246 0
M  V30 4499 C 413.325 0.2383 -4.8061 0
M  V30 4500 C 415.677 -0.137881 -5.21018 0
M  V30 4501 C 413.005 -0.646738 -5.83125 0
M  V30 4502 C 415.357 -1.0107 -6.24474 0
M  V30 4503 C 414.021 -1.27019 -6.55303 0
M  V30 4504 H 413.291 0.257246 -0.694914 0
M  V30 4505 H 415.938 -0.037259 -1.91464 0
M  V30 4506 H 414.243 2.21079 -3.23468 0
M  V30 4507 H 415.94 1.93495 -3.51227 0
M  V30 4508 H 412.53 0.693593 -4.22951 0
M  V30 4509 H 416.714 0.0423953 -4.96282 0
M  V30 4510 H 411.97 -0.855937 -6.05379 0
M  V30 4511 H 416.144 -1.50247 -6.79999 0
M  V30 4512 H 413.771 -1.95769 -7.3456 0
M  V30 4513 N 415.346 1.54954 0.287554 0
M  V30 4514 C 416.276 1.89839 1.35954 0
M  V30 4515 C 417.257 0.758675 1.52244 0
M  V30 4516 O 418.442 1.01557 1.65529 0
M  V30 4517 C 415.572 2.15753 2.72154 0
M  V30 4518 C 414.526 3.3159 2.70614 0
M  V30 4519 C 413.852 3.42952 4.10229 0
M  V30 4520 C 415.152 4.68359 2.31165 0
M  V30 4521 H 416.846 2.79625 1.07007 0
M  V30 4522 H 414.392 1.3454 0.513316 0
M  V30 4523 H 416.345 2.38743 3.47246 0
M  V30 4524 H 415.069 1.22752 3.02654 0
M  V30 4525 H 413.728 3.08545 1.97979 0
M  V30 4526 H 413.376 2.47443 4.37928 0
M  V30 4527 H 413.076 4.20826 4.10097 0
M  V30 4528 H 414.6 3.68218 4.87081 0
M  V30 4529 H 416.014 4.9099 2.95976 0
M  V30 4530 H 414.411 5.49044 2.42221 0
M  V30 4531 H 415.481 4.68165 1.26291 0
M  V30 4532 N 416.824 -0.551391 1.4764 0
M  V30 4533 C 418.049 -1.33837 1.58437 0
M  V30 4534 C 418.474 -1.866 0.237063 0
M  V30 4535 O 417.832 -1.6328 -0.787994 0
M  V30 4536 C 417.88 -2.48014 2.61766 0
M  V30 4537 O 416.984 -3.50419 2.1744 0
M  V30 4538 H 416.325 -0.397299 0.532024 0
M  V30 4539 H 418.855 -0.665759 1.93465 0
M  V30 4540 H 418.865 -2.94503 2.82369 0
M  V30 4541 H 417.54 -2.08969 3.5959 0
M  V30 4542 H 416.117 -3.10196 2.06961 0
M  V30 4543 N 418.302 -1.35869 -0.798587 0
M  V30 4544 C 419.265 -1.29307 -1.89242 0
M  V30 4545 C 420.265 -0.202747 -1.59517 0
M  V30 4546 O 421.455 -0.456957 -1.681 0
M  V30 4547 C 418.587 -1.00229 -3.25833 0
M  V30 4548 H 419.78 -2.26576 -1.96478 0
M  V30 4549 H 417.333 -1.20509 -0.995358 0
M  V30 4550 H 418.068 -0.033801 -3.24282 0
M  V30 4551 H 417.853 -1.79121 -3.48795 0
M  V30 4552 H 419.343 -0.98219 -4.05885 0
M  V30 4553 N 419.78 1.02168 -1.19998 0
M  V30 4554 C 421.026 1.7606 -1.01855 0
M  V30 4555 C 421.381 1.87178 0.445222 0
M  V30 4556 O 420.674 1.3828 1.32624 0
M  V30 4557 C 420.868 3.18081 -1.62969 0
M  V30 4558 C 420.697 3.20809 -3.15137 0
M  V30 4559 C 419.467 3.28342 -3.84083 0
M  V30 4560 C 421.665 3.07268 -4.1242 0
M  V30 4561 N 419.647 3.2052 -5.23584 0
M  V30 4562 C 421.018 3.0716 -5.38566 0
M  V30 4563 C 423.073 2.91448 -4.03686 0
M  V30 4564 C 421.776 2.92853 -6.56985 0
M  V30 4565 C 423.802 2.78494 -5.21723 0
M  V30 4566 C 423.164 2.79046 -6.46771 0
M  V30 4567 H 419.263 0.655192 -0.426905 0
M  V30 4568 H 421.847 1.21564 -1.52087 0
M  V30 4569 H 420.018 3.70882 -1.15329 0
M  V30 4570 H 421.75 3.80375 -1.38192 0
M  V30 4571 H 418.505 3.34859 -3.34913 0
M  V30 4572 H 418.929 3.19997 -5.96599 0
M  V30 4573 H 423.571 2.89838 -3.07821 0
M  V30 4574 H 421.289 2.93213 -7.53028 0
M  V30 4575 H 424.875 2.67278 -5.16773 0
M  V30 4576 H 423.755 2.69134 -7.36571 0
M  V30 4577 N 421.258 1.00505 1.21394 0
M  V30 4578 C 422.483 0.706367 1.95001 0
M  V30 4579 C 422.908 -0.72463 1.73582 0
M  V30 4580 O 422.266 -1.49702 1.0227 0
M  V30 4581 C 422.314 1.03299 3.45487 0
M  V30 4582 O 421.418 0.138275 4.12168 0
M  V30 4583 H 420.759 0.263175 0.609619 0
M  V30 4584 H 423.289 1.34531 1.54151 0
M  V30 4585 H 423.299 0.979872 3.96059 0
M  V30 4586 H 421.974 2.07567 3.60401 0
M  V30 4587 H 420.551 0.247928 3.72075 0
M  V30 4588 N 422.737 -1.36956 0.779787 0
M  V30 4589 C 423.965 -2.03755 0.359398 0
M  V30 4590 C 424.38 -1.58807 -1.02106 0
M  V30 4591 O 423.737 -0.773024 -1.6532 0
M  V30 4592 C 423.788 -3.59251 0.402568 0
M  V30 4593 O 423.509 -4.02557 1.72858 0
M  V30 4594 C 425.01 -4.43291 -0.0284068 0
M  V30 4595 H 422.23 -0.654148 0.149437 0
M  V30 4596 H 424.774 -1.75128 1.05595 0
M  V30 4597 H 422.929 -3.86621 -0.245478 0
M  V30 4598 H 423.343 -4.97111 1.67275 0
M  V30 4599 H 424.817 -5.51975 0.0529466 0
M  V30 4600 H 425.294 -4.25719 -1.07982 0
M  V30 4601 H 425.9 -4.21163 0.591758 0
M  V30 4602 N 424.215 -0.530993 -1.48385 0
M  V30 4603 C 425.626 -0.0907905 -1.86479 0
M  V30 4604 C 425.977 1.33213 -1.44044 0
M  V30 4605 O 425.102 1.99783 -0.831615 0
M  V30 4606 C 425.697 -0.157987 -3.38431 0
M  V30 4607 C 424.256 0.227026 -3.75715 0
M  V30 4608 C 423.403 -0.5173 -2.72432 0
M  V30 4609 H 426.354 -0.742186 -1.40276 0
M  V30 4610 H 426.375 0.630053 -3.75247 0
M  V30 4611 H 425.887 -1.19372 -3.69286 0
M  V30 4612 H 423.988 1.26486 -3.50474 0
M  V30 4613 H 424.101 -0.113288 -4.78966 0
M  V30 4614 H 422.465 0.0365527 -2.54674 0
M  V30 4615 H 423.248 -1.55368 -3.0613 0
M  V30 4616 N 425.693 1.55336 -0.266172 0
M  V30 4617 C 426.625 2.19544 0.658247 0
M  V30 4618 C 427.638 1.17746 1.12427 0
M  V30 4619 O 428.827 1.44517 1.04772 0
M  V30 4620 C 425.927 2.80032 1.9088 0
M  V30 4621 C 425.1 4.07436 1.59106 0
M  V30 4622 C 424.159 4.52056 2.69317 0
M  V30 4623 O 423.185 5.18023 2.35883 0
M  V30 4624 N 424.387 4.21448 3.99201 0
M  V30 4625 H 427.152 2.99503 0.108754 0
M  V30 4626 H 424.713 1.61667 -0.0869059 0
M  V30 4627 H 426.705 3.06831 2.63888 0
M  V30 4628 H 425.275 2.04119 2.36758 0
M  V30 4629 H 424.495 3.88021 0.695243 0
M  V30 4630 H 425.783 4.90462 1.35367 0
M  V30 4631 H 425.181 3.68528 4.29189 0
M  V30 4632 H 423.738 4.53039 4.68614 0
M  V30 4633 N 427.171 -0.0066808 1.57599 0
M  V30 4634 C 428.587 -0.36267 1.55425 0
M  V30 4635 C 428.787 -1.75209 0.995187 0
M  V30 4636 O 427.843 -2.44616 0.626058 0
M  V30 4637 C 429.156 -0.244017 2.99708 0
M  V30 4638 C 430.704 -0.319451 3.11366 0
M  V30 4639 C 431.179 -0.229998 4.57422 0
M  V30 4640 N 432.67 -0.288105 4.62303 0
M  V30 4641 C 433.405 -0.242127 5.72889 0
M  V30 4642 N 432.901 -0.147133 6.92644 0
M  V30 4643 N 434.694 -0.293502 5.61333 0
M  V30 4644 H 426.845 0.902314 1.92281 0
M  V30 4645 H 429.108 0.34525 0.882896 0
M  V30 4646 H 428.814 0.711678 3.44424 0
M  V30 4647 H 428.688 -1.02877 3.629 0
M  V30 4648 H 431.075 -1.26559 2.66584 0
M  V30 4649 H 431.156 0.495055 2.50964 0
M  V30 4650 H 430.8 0.712566 5.02877 0
M  V30 4651 H 430.73 -1.0629 5.15761 0
M  V30 4652 H 433.221 -0.363126 3.76151 0
M  V30 4653 H 433.534 -0.117763 7.7271 0
M  V30 4654 H 431.879 -0.112857 6.94908 0
M  V30 4655 H 435.07 -0.365864 4.66668 0
M  V30 4656 H 435.243 -0.254204 6.47501 0
M  V30 4657 N 428.649 -1.55105 -0.279332 0
M  V30 4658 C 429.896 -1.75412 -1.01177 0
M  V30 4659 C 430.224 -0.551728 -1.86511 0
M  V30 4660 O 429.479 0.465919 -1.90073 0
M  V30 4661 C 429.778 -3.0086 -1.92919 0
M  V30 4662 C 429.444 -4.33689 -1.23387 0
M  V30 4663 C 428.106 -4.69792 -1.04159 0
M  V30 4664 C 430.458 -5.15941 -0.738562 0
M  V30 4665 C 427.786 -5.85707 -0.341166 0
M  V30 4666 C 430.138 -6.32579 -0.0517636 0
M  V30 4667 C 428.802 -6.67326 0.152292 0
M  V30 4668 H 428.072 -0.641879 -0.370233 0
M  V30 4669 H 430.719 -1.89373 -0.284627 0
M  V30 4670 H 429.024 -2.81773 -2.72234 0
M  V30 4671 H 430.721 -3.13768 -2.49701 0
M  V30 4672 H 427.311 -4.05309 -1.39364 0
M  V30 4673 H 431.495 -4.8853 -0.874764 0
M  V30 4674 H 426.751 -6.11157 -0.172287 0
M  V30 4675 H 430.925 -6.9557 0.339828 0
M  V30 4676 H 428.552 -7.56998 0.697014 0
M  V30 4677 N 430.127 0.543554 -1.4793 0
M  V30 4678 C 431.037 1.67657 -1.64098 0
M  V30 4679 C 432.053 1.65934 -0.523622 0
M  V30 4680 O 433.229 1.85133 -0.792943 0
M  V30 4681 C 430.294 3.04146 -1.66421 0
M  V30 4682 C 429.355 3.16831 -2.89684 0
M  V30 4683 C 428.588 4.46809 -2.91886 0
M  V30 4684 O 428.811 5.33095 -2.02895 0
M  V30 4685 O 427.745 4.63573 -3.83906 0
M  V30 4686 H 431.571 1.56957 -2.59997 0
M  V30 4687 H 429.156 0.715116 -1.31173 0
M  V30 4688 H 431.038 3.85346 -1.70548 0
M  V30 4689 H 429.713 3.152 -0.736923 0
M  V30 4690 H 428.62 2.34977 -2.91095 0
M  V30 4691 H 429.953 3.10687 -3.81752 0
M  V30 4692 N 431.605 1.3629 0.791371 0
M  V30 4693 C 432.845 1.31792 1.56238 0
M  V30 4694 C 433.209 -0.102237 1.91728 0
M  V30 4695 O 434.41 -0.271759 2.67423 0
M  V30 4696 C 432.681 2.21303 2.80642 0
M  V30 4697 S 434.24 2.34468 3.70904 0
M  V30 4698 H 431.058 0.468141 0.535131 0
M  V30 4699 H 433.66 1.71841 0.932246 0
M  V30 4700 H 432.364 3.23439 2.52617 0
M  V30 4701 H 431.895 1.82266 3.4863 0
M  V30 4702 H 433.91 1.54074 4.71673 0
M  V30 4703 N 433.083 -1.0153 1.20538 0
M  V30 4704 C 434.36 -1.72327 0.925343 0
M  V30 4705 C 434.74 -2.03383 -0.565547 0
M  V30 4706 O 434.088 -1.69934 -1.52757 0
M  V30 4707 C 434.298 -2.9902 1.79967 0
M  V30 4708 C 435.646 -3.72258 2.04228 0
M  V30 4709 O 436.67 -3.08979 1.77231 0
M  V30 4710 O 435.529 -4.86053 2.4983 0
M  V30 4711 H 432.623 -0.751099 0.346092 0
M  V30 4712 H 435.169 -1.07366 1.31417 0
M  V30 4713 H 433.941 -2.72402 2.80915 0
M  V30 4714 H 433.564 -3.71721 1.41099 0
M  V30 4715 N 434.561 -1.01147 -1.20859 0
M  V30 4716 C 435.493 -0.535546 -2.22855 0
M  V30 4717 C 436.506 0.379323 -1.58319 0
M  V30 4718 O 437.695 0.178489 -1.77605 0
M  V30 4719 C 434.795 0.240962 -3.38042 0
M  V30 4720 C 433.968 -0.674562 -4.32167 0
M  V30 4721 C 433.027 0.053467 -5.26173 0
M  V30 4722 O 432.053 -0.567339 -5.66366 0
M  V30 4723 N 433.255 1.32997 -5.65059 0
M  V30 4724 H 436.02 -1.41268 -2.64317 0
M  V30 4725 H 433.581 -0.888386 -1.35349 0
M  V30 4726 H 435.573 0.737115 -3.97931 0
M  V30 4727 H 434.143 1.01935 -2.95513 0
M  V30 4728 H 433.363 -1.35111 -3.70322 0
M  V30 4729 H 434.651 -1.2974 -4.91981 0
M  V30 4730 H 434.049 1.85536 -5.34409 0
M  V30 4731 H 432.606 1.77095 -6.2728 0
M  V30 4732 N 436.039 1.36541 -0.78704 0
M  V30 4733 C 436.949 2.3387 -0.184896 0
M  V30 4734 C 437.965 1.60927 0.661697 0
M  V30 4735 O 439.141 1.92927 0.57804 0
M  V30 4736 C 436.206 3.40122 0.672145 0
M  V30 4737 C 435.267 4.28867 -0.19267 0
M  V30 4738 C 434.5 5.30045 0.623561 0
M  V30 4739 O 434.723 5.39232 1.8597 0
M  V30 4740 O 433.657 6.01895 0.0247068 0
M  V30 4741 H 437.483 2.87126 -0.989562 0
M  V30 4742 H 435.068 1.38969 -0.548455 0
M  V30 4743 H 436.95 4.05093 1.16094 0
M  V30 4744 H 435.625 2.89169 1.45474 0
M  V30 4745 H 434.532 3.66945 -0.728166 0
M  V30 4746 H 435.865 4.83165 -0.938722 0
M  V30 4747 N 437.518 0.538854 1.48102 0
M  V30 4748 C 438.428 -0.222648 2.33541 0
M  V30 4749 C 439.444 -0.930225 1.47047 0
M  V30 4750 O 440.62 -0.903211 1.80011 0
M  V30 4751 C 437.685 -1.25064 3.23357 0
M  V30 4752 C 436.746 -0.552469 4.2573 0
M  V30 4753 C 435.979 -1.53149 5.11254 0
M  V30 4754 O 436.202 -2.76487 4.9891 0
M  V30 4755 O 435.136 -1.06602 5.92385 0
M  V30 4756 H 438.962 0.477707 2.99919 0
M  V30 4757 H 436.547 0.299669 1.46364 0
M  V30 4758 H 438.429 -1.8445 3.78888 0
M  V30 4759 H 437.104 -1.93325 2.59629 0
M  V30 4760 H 436.011 0.082114 3.7401 0
M  V30 4761 H 437.344 0.0883526 4.92121 0
M  V30 4762 N 438.996 -1.55193 0.274407 0
M  V30 4763 C 440.244 -1.99187 -0.341902 0
M  V30 4764 C 440.565 -1.16422 -1.56431 0
M  V30 4765 O 439.835 -0.253573 -1.94252 0
M  V30 4766 H 438.415 -0.735721 -0.129317 0
M  V30 4767 H 441.077 -1.91168 0.379578 0
M  V30 4768 H 440.173 -3.05629 -0.632253 0
M  V30 4769 N 440.474 -0.00167713 -1.576 0
M  V30 4770 C 441.437 0.974046 -2.07473 0
M  V30 4771 C 442.437 1.27143 -0.984444 0
M  V30 4772 O 443.627 1.21633 -1.24703 0
M  V30 4773 C 440.759 2.29849 -2.51759 0
M  V30 4774 H 441.952 0.54262 -2.9495 0
M  V30 4775 H 439.505 0.245829 -1.54355 0
M  V30 4776 H 440.24 2.77677 -1.67529 0
M  V30 4777 H 440.025 2.09584 -3.31386 0
M  V30 4778 H 441.515 2.9984 -2.90664 0
M  V30 4779 N 441.952 1.55251 0.271103 0
M  V30 4780 C 442.9 1.89054 1.35504 0
M  V30 4781 C 443.894 0.767064 1.51038 0
M  V30 4782 O 445.1 0.951429 1.528 0
M  V30 4783 H 441.475 0.600072 0.45323 0
M  V30 4784 H 443.446 2.79598 1.04247 0
M  V30 4785 C 442.195 2.18068 2.70817 0
M  V30 4786 H 441.518 3.04005 2.59656 0
M  V30 4787 H 442.958 2.4564 3.45597 0
M  V30 4788 C 441.417 0.988901 3.2206 0
M  V30 4789 O 441.947 0.224501 4.01072 0
M  V30 4790 N 440.153 0.786085 2.79766 0
M  V30 4791 H 439.7 1.40937 2.15626 0
M  V30 4792 H 439.658 -0.00969349 3.14399 0
M  V30 4793 N 443.43 -0.535701 1.48216 0
M  V30 4794 C 444.658 -1.31671 1.59594 0
M  V30 4795 C 445.073 -1.87083 0.254056 0
M  V30 4796 O 444.43 -1.66112 -0.755854 0
M  V30 4797 C 444.481 -2.47158 2.63809 0
M  V30 4798 O 444.202 -1.94032 3.92789 0
M  V30 4799 C 445.703 -3.39062 2.85573 0
M  V30 4800 H 442.923 -0.400623 0.538277 0
M  V30 4801 H 445.467 -0.646827 1.94001 0
M  V30 4802 H 443.622 -3.10043 2.32276 0
M  V30 4803 H 444.036 -2.69585 4.49916 0
M  V30 4804 H 445.51 -4.16459 3.62306 0
M  V30 4805 H 445.987 -3.93941 1.94184 0
M  V30 4806 H 446.593 -2.81975 3.18387 0
M  V30 4807 N 444.908 -1.36708 -0.784132 0
M  V30 4808 C 446.324 -1.17237 -1.08294 0
M  V30 4809 C 446.524 -5.93947e-05 -2.015 0
M  V30 4810 O 445.58 0.663686 -2.43622 0
M  V30 4811 C 446.893 -2.48557 -1.69233 0
M  V30 4812 C 448.441 -2.54968 -1.8155 0
M  V30 4813 C 448.916 -3.86388 -2.45904 0
M  V30 4814 N 450.407 -3.87762 -2.53367 0
M  V30 4815 C 451.142 -4.86191 -3.03983 0
M  V30 4816 N 450.638 -5.95015 -3.54866 0
M  V30 4817 N 452.431 -4.73606 -3.02743 0
M  V30 4818 H 444.582 -2.11758 -0.16501 0
M  V30 4819 H 446.845 -0.93822 -0.135822 0
M  V30 4820 H 446.551 -3.34638 -1.08215 0
M  V30 4821 H 446.425 -2.64748 -2.68679 0
M  V30 4822 H 448.812 -1.69302 -2.41704 0
M  V30 4823 H 448.893 -2.42672 -0.80895 0
M  V30 4824 H 448.537 -4.72462 -1.86392 0
M  V30 4825 H 448.467 -3.95982 -3.4714 0
M  V30 4826 H 450.958 -3.09145 -2.17343 0
M  V30 4827 H 451.271 -6.66086 -3.91854 0
M  V30 4828 H 449.616 -5.98676 -3.53003 0
M  V30 4829 H 452.807 -3.87717 -2.62284 0
M  V30 4830 H 452.98 -5.50473 -3.41881 0
M  V30 4831 N 446.386 1.0089 -1.21074 0
M  V30 4832 C 447.349 2.0775 -0.968129 0
M  V30 4833 C 448.349 1.6069 0.0593445 0
M  V30 4834 O 449.539 1.73293 -0.177525 0
M  V30 4835 C 446.671 3.37794 -0.459108 0
M  V30 4836 H 447.864 2.30707 -1.9161 0
M  V30 4837 H 445.417 1.17807 -1.02719 0
M  V30 4838 H 446.152 3.20516 0.49397 0
M  V30 4839 H 445.937 3.7328 -1.20019 0
M  V30 4840 H 447.427 4.16454 -0.309099 0
M  V30 4841 N 447.864 1.01787 1.20321 0
M  V30 4842 C 449.11 0.718699 1.90279 0
M  V30 4843 C 449.465 -0.743669 1.77447 0
M  V30 4844 O 448.758 -1.53345 1.14874 0
M  V30 4845 C 448.952 1.09076 3.40349 0
M  V30 4846 C 448.781 2.58775 3.67784 0
M  V30 4847 C 447.551 3.25578 3.86428 0
M  V30 4848 C 449.749 3.56966 3.70243 0
M  V30 4849 N 447.731 4.64495 4.01395 0
M  V30 4850 C 449.102 4.8145 3.90649 0
M  V30 4851 C 451.157 3.5092 3.53213 0
M  V30 4852 C 449.86 6.00619 3.95789 0
M  V30 4853 C 451.886 4.69493 3.59625 0
M  V30 4854 C 451.248 5.92786 3.80505 0
M  V30 4855 H 447.347 0.31468 0.715891 0
M  V30 4856 H 449.931 1.30295 1.44677 0
M  V30 4857 H 448.102 0.534839 3.847 0
M  V30 4858 H 449.834 0.744997 3.97784 0
M  V30 4859 H 446.589 2.76003 3.84862 0
M  V30 4860 H 447.013 5.36624 4.12752 0
M  V30 4861 H 451.655 2.56593 3.36035 0
M  V30 4862 H 449.373 6.95326 4.11762 0
M  V30 4863 H 452.959 4.66432 3.47754 0
M  V30 4864 H 451.839 6.83003 3.85327 0
M  V30 4865 N 449.342 -1.36122 0.79427 0
M  V30 4866 C 450.758 -1.5232 0.476525 0
M  V30 4867 C 450.958 -1.74685 -1.00436 0
M  V30 4868 O 450.014 -1.78115 -1.78973 0
M  V30 4869 C 451.327 -2.70607 1.31119 0
M  V30 4870 C 452.875 -2.8448 1.30537 0
M  V30 4871 C 453.35 -4.05778 2.12387 0
M  V30 4872 N 454.841 -4.12933 2.09859 0
M  V30 4873 C 455.576 -5.05876 2.69957 0
M  V30 4874 N 455.072 -6.04232 3.38934 0
M  V30 4875 N 456.865 -4.98528 2.59665 0
M  V30 4876 H 449.016 -1.1986 1.75349 0
M  V30 4877 H 451.279 -0.585418 0.745647 0
M  V30 4878 H 450.985 -2.60619 2.36158 0
M  V30 4879 H 450.859 -3.64888 0.955843 0
M  V30 4880 H 453.246 -2.93927 0.262876 0
M  V30 4881 H 453.327 -1.91093 1.70051 0
M  V30 4882 H 452.971 -3.97092 3.1667 0
M  V30 4883 H 452.901 -4.98323 1.70242 0
M  V30 4884 H 455.392 -3.42515 1.59662 0
M  V30 4885 H 455.705 -6.71724 3.82109 0
M  V30 4886 H 454.05 -6.04443 3.43036 0
M  V30 4887 H 457.241 -4.20641 2.05375 0
M  V30 4888 H 457.414 -5.70773 3.06793 0
M  V30 4889 N 450.82 -0.546701 -1.47814 0
M  V30 4890 C 452.048 -0.0232857 -2.06887 0
M  V30 4891 C 452.463 1.26571 -1.4009 0
M  V30 4892 O 451.82 1.7569 -0.493906 0
M  V30 4893 C 451.871 0.186975 -3.61016 0
M  V30 4894 O 451.592 -1.05097 -4.25307 0
M  V30 4895 C 453.093 0.748872 -4.36929 0
M  V30 4896 H 450.313 -0.0410763 -0.669742 0
M  V30 4897 H 452.857 -0.757117 -1.89968 0
M  V30 4898 H 451.012 0.870903 -3.77484 0
M  V30 4899 H 451.426 -0.842121 -5.17695 0
M  V30 4900 H 452.9 0.845334 -5.45489 0
M  V30 4901 H 453.377 1.75772 -4.02493 0
M  V30 4902 H 453.983 0.100979 -4.2518 0
M  V30 4903 N 452.299 1.55045 -0.282633 0
M  V30 4904 C 453.524 2.04628 0.337977 0
M  V30 4905 C 453.949 1.15937 1.48123 0
M  V30 4906 O 453.307 0.159532 1.80597 0
M  V30 4907 C 453.355 3.51854 0.78936 0
M  V30 4908 O 452.459 3.66236 1.89592 0
M  V30 4909 H 451.8 0.660434 0.0687261 0
M  V30 4910 H 454.33 2.00261 -0.419124 0
M  V30 4911 H 454.34 3.93361 1.08311 0
M  V30 4912 H 453.015 4.15873 -0.0470419 0
M  V30 4913 H 451.592 3.36633 1.60413 0
M  V30 4914 N 453.777 0.010035 1.57597 0
M  V30 4915 C 454.707 -0.976857 2.12084 0
M  V30 4916 C 455.688 -1.35191 1.03235 0
M  V30 4917 O 456.873 -1.43389 1.3097 0
M  V30 4918 C 454.003 -2.26548 2.63236 0
M  V30 4919 C 452.957 -2.03175 3.76701 0
M  V30 4920 C 452.283 -3.38138 4.14206 0
M  V30 4921 C 453.583 -1.38625 5.03568 0
M  V30 4922 H 455.277 -0.523145 2.94794 0
M  V30 4923 H 452.823 -0.250195 1.4181 0
M  V30 4924 H 454.776 -2.95952 2.99984 0
M  V30 4925 H 453.5 -2.74051 1.77661 0
M  V30 4926 H 452.159 -1.36195 3.40362 0
M  V30 4927 H 451.807 -3.83363 3.25641 0
M  V30 4928 H 451.507 -3.23312 4.90656 0
M  V30 4929 H 453.031 -4.08841 4.53521 0
M  V30 4930 H 454.445 -1.98 5.38023 0
M  V30 4931 H 452.842 -1.34256 5.84889 0
M  V30 4932 H 453.912 -0.356722 4.83586 0
M  V30 4933 N 455.255 -1.55392 -0.262866 0
M  V30 4934 C 456.185 -1.91978 -1.32917 0
M  V30 4935 C 457.166 -0.7828 -1.51017 0
M  V30 4936 O 458.351 -1.04178 -1.63892 0
M  V30 4937 C 455.481 -2.20055 -2.68687 0
M  V30 4938 C 454.435 -3.35854 -2.65304 0
M  V30 4939 C 453.761 -3.49435 -4.04721 0
M  V30 4940 C 455.061 -4.71977 -2.23685 0
M  V30 4941 H 456.755 -2.81292 -1.02544 0
M  V30 4942 H 454.301 -1.3534 -0.491846 0
M  V30 4943 H 456.254 -2.44237 -3.43404 0
M  V30 4944 H 454.978 -1.27551 -3.00663 0
M  V30 4945 H 453.637 -3.11655 -1.93045 0
M  V30 4946 H 453.285 -2.54379 -4.33936 0
M  V30 4947 H 452.985 -4.27297 -4.0335 0
M  V30 4948 H 454.509 -3.7592 -4.81161 0
M  V30 4949 H 455.923 -4.95637 -2.88127 0
M  V30 4950 H 454.32 -5.52828 -2.33456 0
M  V30 4951 H 455.39 -4.70115 -1.18827 0
M  V30 4952 N 456.733 0.527833 -1.48498 0
M  V30 4953 C 457.982 1.28003 -1.55878 0
M  V30 4954 C 458.295 1.9414 -0.238577 0
M  V30 4955 O 459.501 2.7083 -0.190643 0
M  V30 4956 C 457.957 2.32272 -2.74914 0
M  V30 4957 C 457.565 1.72196 -4.13585 0
M  V30 4958 C 459.309 3.08488 -2.91608 0
M  V30 4959 C 457.216 2.74417 -5.23879 0
M  V30 4960 H 456.146 0.481413 -0.580308 0
M  V30 4961 H 458.797 0.557195 -1.74836 0
M  V30 4962 H 457.179 3.07601 -2.49395 0
M  V30 4963 H 458.353 1.03041 -4.49132 0
M  V30 4964 H 456.668 1.08464 -4.02025 0
M  V30 4965 H 459.265 3.84879 -3.71177 0
M  V30 4966 H 459.608 3.64481 -2.01145 0
M  V30 4967 H 460.141 2.40274 -3.17038 0
M  V30 4968 H 456.88 2.23242 -6.16314 0
M  V30 4969 H 456.4 3.41893 -4.92818 0
M  V30 4970 H 458.079 3.37362 -5.52083 0
M  V30 4971 N 458.211 1.37122 0.776871 0
M  V30 4972 C 459.174 1.32301 1.8716 0
M  V30 4973 C 460.174 0.228099 1.59174 0
M  V30 4974 O 461.364 0.483642 1.67352 0
M  V30 4975 C 458.496 1.054 3.24197 0
M  V30 4976 H 459.689 2.29673 1.92848 0
M  V30 4977 H 457.242 1.22077 0.97606 0
M  V30 4978 H 457.977 0.0853872 3.24188 0
M  V30 4979 H 457.762 1.84648 3.45901 0
M  V30 4980 H 459.252 1.04664 4.04271 0
M  V30 4981 N 459.689 -1.00246 1.21608 0
M  V30 4982 C 460.619 -2.10921 1.00172 0
M  V30 4983 C 461.6 -1.69938 -0.0741587 0
M  V30 4984 O 462.785 -1.94009 0.0861753 0
M  V30 4985 C 459.915 -3.42618 0.568355 0
M  V30 4986 C 458.869 -3.97407 1.58909 0
M  V30 4987 C 458.195 -5.25038 1.01187 0
M  V30 4988 C 459.495 -4.2918 2.97661 0
M  V30 4989 H 461.189 -2.29112 1.92739 0
M  V30 4990 H 458.735 -1.10101 0.928102 0
M  V30 4991 H 460.688 -4.19444 0.405555 0
M  V30 4992 H 459.412 -3.24227 -0.392961 0
M  V30 4993 H 458.071 -3.22703 1.73949 0
M  V30 4994 H 457.719 -5.02982 0.0421965 0
M  V30 4995 H 457.419 -5.62661 1.6937 0
M  V30 4996 H 458.943 -6.04507 0.860448 0
M  V30 4997 H 460.357 -4.96839 2.86049 0
M  V30 4998 H 458.754 -4.77952 3.6288 0
M  V30 4999 H 459.824 -3.3735 3.48315 0
M  V30 5000 N 461.167 -1.02423 -1.1978 0
M  V30 5001 C 462.415 -0.716569 -1.8897 0
M  V30 5002 C 462.736 0.756769 -1.79716 0
M  V30 5003 O 462.006 1.5449 -1.20456 0
M  V30 5004 H 460.586 -0.262062 -0.699523 0
M  V30 5005 H 463.248 -1.29747 -1.45436 0
M  V30 5006 H 462.344 -1.00675 -2.95417 0
M  V30 5007 N 462.645 1.35699 -0.801477 0
M  V30 5008 C 463.873 2.03157 -0.391768 0
M  V30 5009 C 464.288 1.60412 0.995668 0
M  V30 5010 O 463.645 0.799228 1.64069 0
M  V30 5011 C 463.696 3.58566 -0.459671 0
M  V30 5012 O 463.417 3.99756 -1.7924 0
M  V30 5013 C 464.918 4.4328 -0.0421205 0
M  V30 5014 H 462.138 0.651688 -0.159825 0
M  V30 5015 H 464.682 1.73426 -1.08368 0
M  V30 5016 H 462.837 3.86963 0.183939 0
M  V30 5017 H 463.251 4.94387 -1.75162 0
M  V30 5018 H 464.725 5.51821 -0.140754 0
M  V30 5019 H 465.202 4.27383 1.01196 0
M  V30 5020 H 465.808 4.20168 -0.658687 0
M  V30 5021 N 464.123 0.554532 1.47522 0
M  V30 5022 C 465.053 -0.182974 2.32782 0
M  V30 5023 C 466.034 -0.911377 1.43624 0
M  V30 5024 O 467.219 -0.892366 1.72483 0
M  V30 5025 C 464.349 -1.21513 3.25349 0
M  V30 5026 C 463.303 -0.603355 4.23726 0
M  V30 5027 C 462.629 -1.73995 5.05598 0
M  V30 5028 C 463.929 0.441121 5.20434 0
M  V30 5029 H 465.623 0.52882 2.94693 0
M  V30 5030 H 463.169 0.255759 1.41711 0
M  V30 5031 H 465.122 -1.73922 3.83835 0
M  V30 5032 H 463.846 -1.95683 2.61487 0
M  V30 5033 H 462.505 -0.10059 3.66462 0
M  V30 5034 H 462.153 -2.47063 4.38143 0
M  V30 5035 H 461.853 -1.3364 5.72201 0
M  V30 5036 H 463.377 -2.26735 5.66942 0
M  V30 5037 H 464.791 0.00319931 5.733 0
M  V30 5038 H 463.188 0.763402 5.95224 0
M  V30 5039 H 464.258 1.33799 4.66075 0
M  V30 5040 N 465.601 -1.54893 0.290851 0
M  V30 5041 C 466.531 -2.26103 -0.583084 0
M  V30 5042 C 467.512 -1.25684 -1.14619 0
M  V30 5043 O 468.697 -1.54436 -1.17741 0
M  V30 5044 C 465.827 -2.99409 -1.75987 0
M  V30 5045 C 464.781 -4.0689 -1.32758 0
M  V30 5046 C 464.107 -4.67856 -2.58872 0
M  V30 5047 C 465.407 -5.20215 -0.46624 0
M  V30 5048 H 467.101 -2.99398 0.0108214 0
M  V30 5049 H 464.647 -1.43998 0.00664468 0
M  V30 5050 H 466.6 -3.47943 -2.37727 0
M  V30 5051 H 465.324 -2.23675 -2.37985 0
M  V30 5052 H 463.983 -3.59191 -0.733299 0
M  V30 5053 H 463.631 -3.88772 -3.19163 0
M  V30 5054 H 463.331 -5.40438 -2.30653 0
M  V30 5055 H 464.855 -5.19147 -3.21433 0
M  V30 5056 H 466.269 -5.64704 -0.989047 0
M  V30 5057 H 464.666 -5.99455 -0.27826 0
M  V30 5058 H 465.736 -4.82198 0.511173 0
M  V30 5059 N 467.08 -0.0183926 -1.57589 0
M  V30 5060 C 468.043 0.951986 -2.08494 0
M  V30 5061 C 469.043 1.26092 -0.997874 0
M  V30 5062 O 470.233 1.20304 -1.25987 0
M  V30 5063 C 467.365 2.27165 -2.54182 0
M  V30 5064 H 468.558 0.511307 -2.95509 0
M  V30 5065 H 466.111 0.229444 -1.54607 0
M  V30 5066 H 466.846 2.75884 -1.70465 0
M  V30 5067 H 466.631 2.06057 -3.33591 0
M  V30 5068 H 468.121 2.9674 -2.93828 0
M  V30 5069 N 468.558 1.5553 0.254621 0
M  V30 5070 C 469.488 1.9268 1.31897 0
M  V30 5071 C 470.469 0.790797 1.506 0
M  V30 5072 O 471.654 1.05045 1.63337 0
M  V30 5073 C 468.784 2.21477 2.67517 0
M  V30 5074 C 467.738 3.37256 2.63519 0
M  V30 5075 C 467.064 3.51576 4.02862 0
M  V30 5076 C 468.364 4.73157 2.21179 0
M  V30 5077 H 470.058 2.81832 1.01051 0
M  V30 5078 H 467.604 1.35599 0.484662 0
M  V30 5079 H 469.557 2.46055 3.42104 0
M  V30 5080 H 468.281 1.29144 2.99982 0
M  V30 5081 H 466.94 3.12675 1.9139 0
M  V30 5082 H 466.588 2.56676 4.32581 0
M  V30 5083 H 466.288 4.2943 4.01078 0
M  V30 5084 H 467.812 3.78467 4.79161 0
M  V30 5085 H 469.226 4.97158 2.85494 0
M  V30 5086 H 467.623 5.54058 2.30521 0
M  V30 5087 H 468.693 4.70739 1.16332 0
M  V30 5088 N 470.036 -0.519951 1.48776 0
M  V30 5089 C 471.282 -1.27711 1.57536 0
M  V30 5090 C 471.615 -1.92547 0.252866 0
M  V30 5091 O 470.89 -1.7979 -0.742021 0
M  V30 5092 C 471.173 -2.35875 2.72094 0
M  V30 5093 C 471.026 -1.75664 4.1408 0
M  V30 5094 C 472.345 -3.37575 2.82367 0
M  V30 5095 H 469.464 -0.462971 0.573434 0
M  V30 5096 H 472.106 -0.578194 1.80989 0
M  V30 5097 H 470.256 -2.95488 2.52228 0
M  V30 5098 H 471.928 -1.20025 4.45412 0
M  V30 5099 H 470.171 -1.06154 4.20611 0
M  V30 5100 H 470.842 -2.54029 4.90075 0
M  V30 5101 H 473.318 -2.87929 3.00393 0
M  V30 5102 H 472.194 -4.1064 3.64233 0
M  V30 5103 H 472.455 -3.98743 1.90936 0
M  V30 5104 N 471.514 -1.37532 -0.769588 0
M  V30 5105 C 472.754 -1.34261 -1.54122 0
M  V30 5106 C 473.118 0.0717222 -1.91866 0
M  V30 5107 O 474.319 0.22918 -2.67821 0
M  V30 5108 C 472.59 -2.2574 -2.77086 0
M  V30 5109 S 474.149 -2.40339 -3.67127 0
M  V30 5110 H 470.967 -0.476595 -0.527615 0
M  V30 5111 H 473.569 -1.73303 -0.90479 0
M  V30 5112 H 472.273 -3.27417 -2.4744 0
M  V30 5113 H 471.804 -1.87789 -3.45686 0
M  V30 5114 H 473.819 -1.61558 -4.69163 0
M  V30 5115 N 472.992 0.995999 -1.22138 0
M  V30 5116 C 474.238 1.73767 -1.04561 0
M  V30 5117 C 474.571 1.89633 0.418698 0
M  V30 5118 O 473.846 1.43723 1.3105 0
M  V30 5119 C 474.129 3.14505 -1.75382 0
M  V30 5120 C 473.982 3.06306 -3.29388 0
M  V30 5121 C 475.301 4.13615 -1.50369 0
M  V30 5122 H 472.42 0.630728 -0.38125 0
M  V30 5123 H 475.062 1.16057 -1.50435 0
M  V30 5124 H 473.212 3.63775 -1.36383 0
M  V30 5125 H 474.884 2.64681 -3.77812 0
M  V30 5126 H 473.127 2.43186 -3.59226 0
M  V30 5127 H 473.798 4.05884 -3.74116 0
M  V30 5128 H 476.274 3.73089 -1.84239 0
M  V30 5129 H 475.15 5.10212 -2.02421 0
M  V30 5130 H 475.411 4.39949 -0.435611 0
M  V30 5131 N 474.47 1.03057 1.19235 0
M  V30 5132 C 475.717 0.728019 1.88961 0
M  V30 5133 C 476.045 -0.743515 1.79728 0
M  V30 5134 O 475.3 -1.55729 1.1852 0
M  V30 5135 C 475.599 1.1268 3.39172 0
M  V30 5136 C 475.265 2.5969 3.68608 0
M  V30 5137 C 473.927 2.99854 3.76352 0
M  V30 5138 C 476.279 3.54793 3.81801 0
M  V30 5139 C 473.607 4.34031 3.94758 0
M  V30 5140 C 475.959 4.88675 4.0172 0
M  V30 5141 C 474.623 5.28526 4.07697 0
M  V30 5142 H 473.893 0.266401 0.691456 0
M  V30 5143 H 476.54 1.29373 1.41191 0
M  V30 5144 H 474.845 0.479722 3.88852 0
M  V30 5145 H 476.542 0.870203 3.91444 0
M  V30 5146 H 473.132 2.27575 3.63191 0
M  V30 5147 H 477.316 3.24914 3.7516 0
M  V30 5148 H 472.572 4.6444 3.97625 0
M  V30 5149 H 476.746 5.6228 4.1087 0
M  V30 5150 H 474.373 6.32506 4.21712 0
M  V30 5151 N 475.948 -1.35272 0.808662 0
M  V30 5152 C 477.194 -1.99003 0.390581 0
M  V30 5153 C 477.527 -1.63999 -1.0401 0
M  V30 5154 O 476.802 -0.904368 -1.72196 0
M  V30 5155 C 477.085 -3.55454 0.576566 0
M  V30 5156 C 476.938 -4.00249 2.05233 0
M  V30 5157 C 478.257 -4.401 0.00354277 0
M  V30 5158 H 475.376 -0.722917 0.143388 0
M  V30 5159 H 478.018 -1.6039 1.01858 0
M  V30 5160 H 476.168 -3.88477 0.0419766 0
M  V30 5161 H 477.84 -3.77626 2.64946 0
M  V30 5162 H 476.083 -3.51082 2.54801 0
M  V30 5163 H 476.754 -5.0911 2.13333 0
M  V30 5164 H 479.23 -4.13548 0.460117 0
M  V30 5165 H 478.106 -5.48656 0.163575 0
M  V30 5166 H 478.367 -4.28444 -1.09032 0
M  V30 5167 N 477.426 -0.562348 -1.47226 0
M  V30 5168 C 478.675 -0.038041 -2.01664 0
M  V30 5169 C 478.988 1.32199 -1.44162 0
M  V30 5170 O 480.194 1.9365 -1.90294 0
M  V30 5171 C 478.65 -0.0174958 -3.59896 0
M  V30 5172 C 478.258 -1.3746 -4.2639 0
M  V30 5173 C 480.002 0.453934 -4.22066 0
M  V30 5174 C 477.909 -1.31289 -5.76643 0
M  V30 5175 H 476.839 -0.0104511 -0.753928 0
M  V30 5176 H 479.49 -0.710966 -1.69167 0
M  V30 5177 H 477.872 0.721182 -3.89378 0
M  V30 5178 H 479.046 -2.1314 -4.08544 0
M  V30 5179 H 477.361 -1.78438 -3.7623 0
M  V30 5180 H 479.958 0.518584 -5.32179 0
M  V30 5181 H 480.301 1.46706 -3.89594 0
M  V30 5182 H 480.834 -0.230044 -3.97134 0
M  V30 5183 H 477.573 -2.30217 -6.13743 0
M  V30 5184 H 477.093 -0.597973 -5.96812 0
M  V30 5185 H 478.772 -1.01713 -6.38955 0
M  V30 5186 N 478.904 1.54736 -0.299062 0
M  V30 5187 C 480.144 2.0201 0.31168 0
M  V30 5188 C 480.508 1.18281 1.5124 0
M  V30 5189 O 481.709 1.55243 2.19438 0
M  V30 5190 C 479.98 3.5123 0.661227 0
M  V30 5191 S 481.539 4.20467 1.2551 0
M  V30 5192 H 478.357 0.704523 0.0957517 0
M  V30 5193 H 480.959 1.90791 -0.426482 0
M  V30 5194 H 479.663 4.09804 -0.221171 0
M  V30 5195 H 479.194 3.66481 1.43023 0
M  V30 5196 H 481.209 4.26083 2.54298 0
M  V30 5197 N 480.382 0.0267497 1.57577 0
M  V30 5198 C 481.798 -0.32962 1.56159 0
M  V30 5199 C 481.998 -1.73059 1.03213 0
M  V30 5200 O 481.054 -2.43233 0.677804 0
M  V30 5201 C 482.367 -0.18039 3.00158 0
M  V30 5202 C 483.915 -0.253334 3.11973 0
M  V30 5203 C 484.39 -0.132921 4.57807 0
M  V30 5204 N 485.881 -0.189979 4.6281 0
M  V30 5205 C 486.616 -0.120554 5.73273 0
M  V30 5206 N 486.112 -0.000180315 6.928 0
M  V30 5207 N 487.905 -0.174369 5.61829 0
M  V30 5208 H 480.056 0.942896 1.90324 0
M  V30 5209 H 482.319 0.3639 0.875375 0
M  V30 5210 H 482.025 0.784576 3.42837 0
M  V30 5211 H 481.899 -0.951565 3.65 0
M  V30 5212 H 484.286 -1.20876 2.69208 0
M  V30 5213 H 484.367 0.548177 2.49857 0
M  V30 5214 H 484.011 0.819073 5.01252 0
M  V30 5215 H 483.941 -0.953264 5.179 0
M  V30 5216 H 486.432 -0.283257 3.76837 0
M  V30 5217 H 486.745 0.0461666 7.72786 0
M  V30 5218 H 485.09 0.034569 6.94991 0
M  V30 5219 H 488.281 -0.266794 4.67339 0
M  V30 5220 H 488.454 -0.116802 6.47895 0
M  V30 5221 N 481.861 -1.55662 -0.24637 0
M  V30 5222 C 483.277 -1.48098 -0.594907 0
M  V30 5223 C 483.477 -0.717044 -1.8831 0
M  V30 5224 O 482.533 -0.246618 -2.51293 0
M  V30 5225 C 483.846 -2.92507 -0.697146 0
M  V30 5226 C 485.394 -3.02881 -0.789436 0
M  V30 5227 C 485.869 -4.48598 -0.923232 0
M  V30 5228 N 487.36 -4.52538 -0.988088 0
M  V30 5229 C 488.095 -5.62536 -1.11089 0
M  V30 5230 N 487.591 -6.82342 -1.19919 0
M  V30 5231 N 489.384 -5.50334 -1.14408 0
M  V30 5232 H 481.535 -2.0377 0.599278 0
M  V30 5233 H 483.798 -0.925145 0.20691 0
M  V30 5234 H 483.504 -3.51242 0.179396 0
M  V30 5235 H 483.378 -3.43024 -1.5689 0
M  V30 5236 H 485.765 -2.44226 -1.65643 0
M  V30 5237 H 485.846 -2.55574 0.107482 0
M  V30 5238 H 485.49 -5.07864 -0.0607927 0
M  V30 5239 H 485.42 -4.93587 -1.8352 0
M  V30 5240 H 487.911 -3.66248 -0.931167 0
M  V30 5241 H 488.224 -7.61924 -1.29197 0
M  V30 5242 H 486.569 -6.85102 -1.16876 0
M  V30 5243 H 489.76 -4.5567 -1.07158 0
M  V30 5244 H 489.933 -6.36096 -1.23634 0
M  V30 5245 N 483.339 0.512053 -1.4905 0
M  V30 5246 C 484.569 1.28928 -1.61434 0
M  V30 5247 C 484.977 1.87107 -0.280647 0
M  V30 5248 O 484.32 1.68024 0.742537 0
M  V30 5249 C 484.382 2.466 -2.61588 0
M  V30 5250 C 484.046 2.09375 -4.06216 0
M  V30 5251 C 485.043 1.63994 -4.93358 0
M  V30 5252 C 482.728 2.19348 -4.51876 0
M  V30 5253 C 484.722 1.29076 -6.24194 0
M  V30 5254 C 482.409 1.84041 -5.82728 0
M  V30 5255 C 483.407 1.38978 -6.68711 0
M  V30 5256 O 483.095 1.04144 -7.97126 0
M  V30 5257 H 482.827 0.397668 -0.546659 0
M  V30 5258 H 485.381 0.622507 -1.9574 0
M  V30 5259 H 483.611 3.16318 -2.22441 0
M  V30 5260 H 485.3 3.08642 -2.63619 0
M  V30 5261 H 486.066 1.55744 -4.59313 0
M  V30 5262 H 481.945 2.53376 -3.85125 0
M  V30 5263 H 485.489 0.938303 -6.91261 0
M  V30 5264 H 481.386 1.91938 -6.16304 0
M  V30 5265 H 482.154 1.17387 -8.10039 0
M  V30 5266 N 484.817 1.37938 0.762283 0
M  V30 5267 C 485.747 1.37176 1.88958 0
M  V30 5268 C 486.728 0.238945 1.68413 0
M  V30 5269 O 487.913 0.440726 1.89133 0
M  V30 5270 C 485.043 1.18742 3.2637 0
M  V30 5271 C 483.997 2.29136 3.61498 0
M  V30 5272 C 483.323 1.95816 4.97554 0
M  V30 5273 C 484.623 3.71363 3.6727 0
M  V30 5274 H 486.317 2.31509 1.89853 0
M  V30 5275 H 483.863 1.11438 0.912005 0
M  V30 5276 H 485.816 1.16837 4.04879 0
M  V30 5277 H 484.54 0.208683 3.25933 0
M  V30 5278 H 483.199 2.30213 2.85303 0
M  V30 5279 H 482.847 0.964475 4.93667 0
M  V30 5280 H 482.547 2.69745 5.22026 0
M  V30 5281 H 484.071 1.95513 5.78452 0
M  V30 5282 H 485.485 3.72364 4.35911 0
M  V30 5283 H 483.882 4.44425 4.03245 0
M  V30 5284 H 484.952 4.04305 2.67704 0
M  V30 5285 N 486.295 -0.989507 1.22664 0
M  V30 5286 C 487.541 -1.7321 1.05481 0
M  V30 5287 C 487.874 -1.89852 -0.408635 0
M  V30 5288 O 487.149 -1.44416 -1.30285 0
M  V30 5289 C 487.432 -3.1357 1.77047 0
M  V30 5290 C 487.285 -3.04555 3.31008 0
M  V30 5291 C 488.604 -4.12812 1.5256 0
M  V30 5292 H 485.723 -0.628697 0.384589 0
M  V30 5293 H 488.365 -1.15258 1.51049 0
M  V30 5294 H 486.515 -3.63046 1.3831 0
M  V30 5295 H 488.187 -2.62674 3.7921 0
M  V30 5296 H 486.43 -2.41278 3.6051 0
M  V30 5297 H 487.101 -4.03894 3.76263 0
M  V30 5298 H 489.577 -3.72106 1.86215 0
M  V30 5299 H 488.453 -5.09132 2.05124 0
M  V30 5300 H 488.714 -4.39711 0.458936 0
M  V30 5301 N 487.773 -1.03688 -1.18687 0
M  V30 5302 C 488.706 -0.569112 -2.2099 0
M  V30 5303 C 489.684 0.394315 -1.57746 0
M  V30 5304 O 490.868 0.309519 -1.85941 0
M  V30 5305 C 487.995 0.169104 -3.38278 0
M  V30 5306 C 487.041 -0.746989 -4.19908 0
M  V30 5307 S 487.874 -2.22773 -4.86963 0
M  V30 5308 C 489.03 -1.50025 -6.07654 0
M  V30 5309 H 489.263 -1.43589 -2.60326 0
M  V30 5310 H 486.796 -0.847507 -1.29061 0
M  V30 5311 H 488.754 0.588868 -4.06254 0
M  V30 5312 H 487.415 1.01172 -2.9736 0
M  V30 5313 H 486.608 -0.176626 -5.0369 0
M  V30 5314 H 486.21 -1.10543 -3.5729 0
M  V30 5315 H 488.502 -0.791217 -6.72864 0
M  V30 5316 H 489.445 -2.31498 -6.69189 0
M  V30 5317 H 489.853 -0.994245 -5.55675 0
M  V30 5318 N 489.251 1.34841 -0.815825 0
M  V30 5319 C 490.183 2.28409 -0.190265 0
M  V30 5320 C 491.196 1.50705 0.615771 0
M  V30 5321 O 492.385 1.72822 0.446616 0
M  V30 5322 C 489.485 3.30441 0.752446 0
M  V30 5323 C 488.658 4.37399 -0.00922152 0
M  V30 5324 C 487.717 5.19234 0.853351 0
M  V30 5325 O 486.743 5.68404 0.300919 0
M  V30 5326 N 487.945 5.38248 2.17416 0
M  V30 5327 H 490.71 2.82732 -0.994114 0
M  V30 5328 H 488.271 1.47289 -0.672129 0
M  V30 5329 H 490.263 3.82084 1.33394 0
M  V30 5330 H 488.833 2.76565 1.45707 0
M  V30 5331 H 488.053 3.86567 -0.771979 0
M  V30 5332 H 489.341 5.05992 -0.533807 0
M  V30 5333 H 488.739 4.99961 2.6468 0
M  V30 5334 H 487.296 5.93035 2.70467 0
M  V30 5335 N 490.729 0.570148 1.46925 0
M  V30 5336 C 492.145 0.23087 1.57921 0
M  V30 5337 C 492.345 -1.26676 1.56702 0
M  V30 5338 O 491.401 -2.04774 1.47729 0
M  V30 5339 C 492.714 0.868973 2.8787 0
M  V30 5340 C 494.262 0.841397 3.01479 0
M  V30 5341 C 494.737 1.45881 4.34146 0
M  V30 5342 N 496.228 1.42258 4.40814 0
M  V30 5343 C 496.963 1.8698 5.42057 0
M  V30 5344 N 496.459 2.39618 6.50042 0
M  V30 5345 N 498.252 1.77972 5.33181 0
M  V30 5346 H 490.403 1.54301 1.45962 0
M  V30 5347 H 492.666 0.644224 0.69547 0
M  V30 5348 H 492.372 1.922 2.94537 0
M  V30 5349 H 492.246 0.369682 3.75384 0
M  V30 5350 H 494.633 -0.202973 2.94401 0
M  V30 5351 H 494.714 1.37858 2.15474 0
M  V30 5352 H 494.358 2.50231 4.4198 0
M  V30 5353 H 494.288 0.896958 5.18905 0
M  V30 5354 H 496.779 1.03768 3.63374 0
M  V30 5355 H 497.092 2.71633 7.23488 0
M  V30 5356 H 495.437 2.43636 6.50897 0
M  V30 5357 H 498.628 1.36617 4.4772 0
M  V30 5358 H 498.801 2.13143 6.11943 0
M  V30 5359 N 492.207 -1.54576 0.307264 0
M  V30 5360 C 493.137 -2.26708 -0.55907 0
M  V30 5361 C 494.118 -1.26893 -1.1328 0
M  V30 5362 O 495.303 -1.55677 -1.16097 0
M  V30 5363 C 492.433 -3.01259 -1.72801 0
M  V30 5364 C 491.387 -4.08275 -1.28435 0
M  V30 5365 C 490.713 -4.70575 -2.53895 0
M  V30 5366 C 492.013 -5.2068 -0.411038 0
M  V30 5367 H 493.707 -2.9937 0.042576 0
M  V30 5368 H 491.253 -1.43983 0.0219173 0
M  V30 5369 H 493.206 -3.50444 -2.34023 0
M  V30 5370 H 491.93 -2.26187 -2.356 0
M  V30 5371 H 490.589 -3.59949 -0.695161 0
M  V30 5372 H 490.237 -3.92136 -3.15021 0
M  V30 5373 H 489.937 -5.42854 -2.24908 0
M  V30 5374 H 491.461 -5.22527 -3.15908 0
M  V30 5375 H 492.875 -5.65721 -0.929097 0
M  V30 5376 H 491.272 -5.99716 -0.214664 0
M  V30 5377 H 492.342 -4.81629 0.562287 0
M  V30 5378 N 493.685 -0.035106 -1.57561 0
M  V30 5379 C 494.932 0.642229 -1.92046 0
M  V30 5380 C 495.26 1.7179 -0.91206 0
M  V30 5381 O 494.515 1.95544 0.0781153 0
M  V30 5382 C 494.814 1.29149 -3.3325 0
M  V30 5383 C 494.48 0.345604 -4.49574 0
M  V30 5384 C 493.142 0.0852775 -4.81124 0
M  V30 5385 C 495.494 -0.303569 -5.20315 0
M  V30 5386 C 492.822 -0.831927 -5.80772 0
M  V30 5387 C 495.174 -1.20886 -6.20942 0
M  V30 5388 C 493.838 -1.47802 -6.50931 0
M  V30 5389 H 493.108 0.235008 -0.702746 0
M  V30 5390 H 495.755 -0.0981529 -1.91248 0
M  V30 5391 H 494.06 2.10676 -3.30337 0
M  V30 5392 H 495.757 1.82223 -3.57205 0
M  V30 5393 H 492.347 0.558683 -4.24943 0
M  V30 5394 H 496.531 -0.115515 -4.96166 0
M  V30 5395 H 491.787 -1.0481 -6.02349 0
M  V30 5396 H 495.961 -1.71804 -6.74875 0
M  V30 5397 H 493.588 -2.19039 -7.2796 0
M  V30 5398 N 495.163 1.55791 0.238111 0
M  V30 5399 C 496.574 1.68383 0.806472 0
M  V30 5400 C 496.925 0.634157 1.85669 0
M  V30 5401 O 496.05 -0.217913 2.153 0
M  V30 5402 C 496.645 3.05268 1.46959 0
M  V30 5403 C 495.204 3.1977 1.98555 0
M  V30 5404 C 494.351 2.64279 0.839763 0
M  V30 5405 H 497.302 1.58694 0.0137535 0
M  V30 5406 H 497.323 3.00203 2.33792 0
M  V30 5407 H 496.835 3.81643 0.704993 0
M  V30 5408 H 494.936 2.48234 2.77868 0
M  V30 5409 H 495.049 4.26788 2.17689 0
M  V30 5410 H 493.413 2.22329 1.24265 0
M  V30 5411 H 494.196 3.43187 0.0881032 0
M  V30 5412 N 496.642 -0.504142 1.49319 0
M  V30 5413 C 498.058 -0.835039 1.36012 0
M  V30 5414 C 498.258 -1.97674 0.390808 0
M  V30 5415 O 497.314 -2.51867 -0.178655 0
M  V30 5416 C 498.627 -1.17821 2.76656 0
M  V30 5417 C 500.175 -1.2866 2.85334 0
M  V30 5418 C 500.65 -1.66307 4.26739 0
M  V30 5419 N 502.141 -1.73362 4.29534 0
M  V30 5420 C 502.876 -2.0393 5.35911 0
M  V30 5421 N 502.372 -2.32744 6.52535 0
M  V30 5422 N 504.165 -2.05155 5.23324 0
M  V30 5423 H 496.316 0.248764 2.10938 0
M  V30 5424 H 498.579 0.0486962 0.946748 0
M  V30 5425 H 498.285 -0.412682 3.4927 0
M  V30 5426 H 498.159 -2.12239 3.11825 0
M  V30 5427 H 500.546 -2.04285 2.1296 0
M  V30 5428 H 500.627 -0.323004 2.53752 0
M  V30 5429 H 500.271 -0.91234 4.99639 0
M  V30 5430 H 500.201 -2.63761 4.55782 0
M  V30 5431 H 502.692 -1.53268 3.45424 0
M  V30 5432 H 503.005 -2.55248 7.2943 0
M  V30 5433 H 501.35 -2.30207 6.55767 0
M  V30 5434 H 504.541 -1.82119 4.3122 0
M  V30 5435 H 504.714 -2.28644 6.06322 0
M  V30 5436 N 498.12 -1.38341 -0.754957 0
M  V30 5437 C 499.369 -1.33791 -1.5094 0
M  V30 5438 C 499.682 0.0699267 -1.95475 0
M  V30 5439 O 500.888 0.237956 -2.70455 0
M  V30 5440 C 499.344 -2.34934 -2.72643 0
M  V30 5441 C 498.952 -3.81332 -2.35138 0
M  V30 5442 C 500.696 -2.39425 -3.50536 0
M  V30 5443 C 498.603 -4.74164 -3.53444 0
M  V30 5444 H 497.533 -0.497314 -0.566741 0
M  V30 5445 H 500.184 -1.63888 -0.825403 0
M  V30 5446 H 498.566 -1.97878 -3.43017 0
M  V30 5447 H 499.74 -4.27319 -1.7244 0
M  V30 5448 H 498.055 -3.79946 -1.70382 0
M  V30 5449 H 500.652 -3.0598 -4.38498 0
M  V30 5450 H 500.995 -1.41278 -3.91594 0
M  V30 5451 H 501.528 -2.75274 -2.87174 0
M  V30 5452 H 498.267 -5.73501 -3.17453 0
M  V30 5453 H 497.787 -4.3287 -4.15191 0
M  V30 5454 H 499.466 -4.92111 -4.20043 0
M  V30 5455 N 499.598 0.982988 -1.23187 0
M  V30 5456 C 501.009 1.53847 -1.05773 0
M  V30 5457 C 501.36 1.92568 0.375744 0
M  V30 5458 O 500.485 1.75783 1.26211 0
M  V30 5459 C 501.08 2.79567 -1.91384 0
M  V30 5460 C 499.639 3.31524 -1.78238 0
M  V30 5461 C 498.786 2.04534 -1.87246 0
M  V30 5462 H 501.737 0.802962 -1.36888 0
M  V30 5463 H 501.758 3.52317 -1.43711 0
M  V30 5464 H 501.27 2.51353 -2.95708 0
M  V30 5465 H 499.371 3.64623 -0.766875 0
M  V30 5466 H 499.484 4.01457 -2.61475 0
M  V30 5467 H 497.848 2.1855 -1.30797 0
M  V30 5468 H 498.631 1.78706 -2.9312 0
M  V30 5469 N 501.076 1.04316 1.18135 0
M  V30 5470 C 502.026 0.606731 2.19779 0
M  V30 5471 C 503.01 -0.352144 1.56999 0
M  V30 5472 O 504.202 -0.170795 1.76174 0
M  V30 5473 C 501.331 -0.0262443 3.4329 0
M  V30 5474 C 500.417 0.955928 4.13186 0
M  V30 5475 N 500.808 2.12395 4.59045 0
M  V30 5476 C 499.106 0.782473 4.39082 0
M  V30 5477 C 499.807 2.74458 5.12882 0
M  V30 5478 N 498.783 2.02316 5.04548 0
M  V30 5479 H 502.585 1.49679 2.5293 0
M  V30 5480 H 500.099 0.912088 1.34368 0
M  V30 5481 H 502.096 -0.356617 4.15372 0
M  V30 5482 H 500.756 -0.911811 3.11635 0
M  V30 5483 H 501.767 2.50272 4.53414 0
M  V30 5484 H 498.444 -0.0527906 4.17467 0
M  V30 5485 H 499.834 3.73459 5.5855 0
M  V30 5486 N 502.554 -1.34406 0.822964 0
M  V30 5487 C 503.487 -2.27407 0.190124 0
M  V30 5488 C 504.465 -1.4889 -0.653486 0
M  V30 5489 O 505.649 -1.78109 -0.617216 0
M  V30 5490 C 502.776 -3.3064 -0.734477 0
M  V30 5491 C 501.822 -4.26488 0.0316099 0
M  V30 5492 S 502.655 -5.17445 1.3788 0
M  V30 5493 C 503.811 -6.24214 0.45907 0
M  V30 5494 H 504.044 -2.80733 0.978586 0
M  V30 5495 H 501.577 -1.41455 0.618866 0
M  V30 5496 H 503.535 -3.90607 -1.26238 0
M  V30 5497 H 502.196 -2.76161 -1.49646 0
M  V30 5498 H 501.389 -4.9951 -0.671285 0
M  V30 5499 H 500.991 -3.70775 0.490066 0
M  V30 5500 H 503.283 -6.76599 -0.349357 0
M  V30 5501 H 504.226 -6.98551 1.15896 0
M  V30 5502 H 504.634 -5.6448 0.0474825 0
M  V30 5503 N 504.032 -0.577932 -1.46621 0
M  V30 5504 C 504.979 0.158048 -2.30258 0
M  V30 5505 C 505.949 0.888669 -1.40328 0
M  V30 5506 O 507.134 0.880283 -1.6928 0
M  V30 5507 C 504.274 1.16884 -3.24703 0
M  V30 5508 C 503.387 0.442163 -4.29731 0
M  V30 5509 C 502.522 1.44007 -5.11308 0
M  V30 5510 C 501.561 0.69952 -6.0809 0
M  V30 5511 N 500.698 1.64525 -6.82551 0
M  V30 5512 H 505.538 -0.561242 -2.92667 0
M  V30 5513 H 503.075 -0.288591 -1.44241 0
M  V30 5514 H 505.033 1.7677 -3.779 0
M  V30 5515 H 503.663 1.85591 -2.64113 0
M  V30 5516 H 502.715 -0.271632 -3.79429 0
M  V30 5517 H 504.027 -0.136992 -4.98612 0
M  V30 5518 H 503.181 2.11186 -5.68758 0
M  V30 5519 H 501.92 2.05315 -4.42377 0
M  V30 5520 H 500.925 0.0139217 -5.49798 0
M  V30 5521 H 502.15 0.091894 -6.79038 0
M  V30 5522 H 500.096 2.24653 -6.16334 0
M  V30 5523 H 500.013 1.11878 -7.47676 0
M  V30 5524 H 501.281 2.30754 -7.44562 0
M  V30 5525 N 505.51 1.54411 -0.315457 0
M  V30 5526 C 506.787 1.92562 0.343398 0
M  V30 5527 C 507.167 1.24423 1.70535 0
M  V30 5528 O 506.515 0.385051 2.25232 0
M  V30 5529 C 506.725 3.46168 0.443687 0
M  V30 5530 C 508.073 4.18659 0.707783 0
M  V30 5531 O 509.097 3.52281 0.52693 0
M  V30 5532 O 507.956 5.36198 1.05612 0
M  V30 5533 H 505.05 0.80379 0.194552 0
M  V30 5534 H 507.596 1.65738 -0.364577 0
M  V30 5535 H 506.368 3.8792 -0.513172 0
M  V30 5536 H 505.991 3.79073 1.19956 0
M  V30 5537 N 506.988 0.0434614 1.5754 0
M  V30 5538 C 508.399 -0.493343 1.80064 0
M  V30 5539 C 508.75 -1.71388 0.955023 0
M  V30 5540 O 507.875 -2.15736 0.169434 0
M  V30 5541 C 508.47 -0.90179 3.26578 0
M  V30 5542 C 507.029 -1.38362 3.50047 0
M  V30 5543 C 506.176 -0.355129 2.75017 0
M  V30 5544 H 509.127 0.2694 1.56397 0
M  V30 5545 H 509.148 -1.76523 3.37075 0
M  V30 5546 H 508.66 -0.013271 3.88098 0
M  V30 5547 H 506.761 -2.29159 2.93798 0
M  V30 5548 H 506.874 -1.3811 4.58762 0
M  V30 5549 H 505.238 -0.826348 2.40922 0
M  V30 5550 H 506.021 0.525172 3.39259 0
M  V30 5551 N 508.466 -1.55915 -0.229846 0
M  V30 5552 C 509.715 -1.77742 -0.953455 0
M  V30 5553 C 510.028 -0.610524 -1.85828 0
M  V30 5554 O 511.234 -0.712219 -2.61992 0
M  V30 5555 C 509.69 -3.14738 -1.74551 0
M  V30 5556 C 509.298 -4.39126 -0.887242 0
M  V30 5557 C 511.042 -3.45895 -2.46084 0
M  V30 5558 C 508.949 -5.67149 -1.67617 0
M  V30 5559 H 507.879 -0.662648 -0.359741 0
M  V30 5560 H 510.53 -1.82322 -0.207576 0
M  V30 5561 H 508.912 -3.04311 -2.53399 0
M  V30 5562 H 510.086 -4.60588 -0.139892 0
M  V30 5563 H 508.401 -4.15427 -0.284443 0
M  V30 5564 H 510.998 -4.38767 -3.05594 0
M  V30 5565 H 511.341 -2.68007 -3.18556 0
M  V30 5566 H 511.874 -3.57614 -1.74233 0
M  V30 5567 H 508.613 -6.47906 -0.994881 0
M  V30 5568 H 508.133 -5.49763 -2.39836 0
M  V30 5569 H 509.812 -6.07025 -2.23898 0
M  V30 5570 N 509.944 0.496216 -1.49584 0
M  V30 5571 C 511.192 1.24756 -1.58998 0
M  V30 5572 C 511.513 1.92968 -0.280775 0
M  V30 5573 O 510.783 1.82959 0.700198 0
M  V30 5574 H 509.363 0.463471 -0.585836 0
M  V30 5575 H 512.025 0.574678 -1.86235 0
M  V30 5576 H 511.121 2.00895 -2.38847 0
M  V30 5577 N 511.423 1.38739 0.74761 0
M  V30 5578 C 512.7 1.25791 1.49786 0
M  V30 5579 C 513.08 -0.138075 2.10648 0
M  V30 5580 O 512.428 -1.14815 1.9756 0
M  V30 5581 C 512.638 2.37265 2.55942 0
M  V30 5582 C 513.986 2.75978 3.22679 0
M  V30 5583 O 515.01 2.36621 2.6625 0
M  V30 5584 O 513.869 3.43867 4.24756 0
M  V30 5585 H 510.963 0.492251 0.664543 0
M  V30 5586 H 513.509 1.50582 0.782511 0
M  V30 5587 H 512.281 3.30644 2.0926 0
M  V30 5588 H 511.904 2.14071 3.35051 0
M  V30 5589 N 512.901 -0.976442 1.23707 0
M  V30 5590 C 514.126 -1.75875 1.09922 0
M  V30 5591 C 514.551 -1.84911 -0.34489 0
M  V30 5592 O 513.909 -1.31363 -1.24954 0
M  V30 5593 C 513.957 -3.16179 1.73388 0
M  V30 5594 O 513.061 -4.00124 0.99871 0
M  V30 5595 H 512.402 -0.540954 0.385052 0
M  V30 5596 H 514.932 -1.22546 1.6384 0
M  V30 5597 H 514.942 -3.66741 1.78788 0
M  V30 5598 H 513.617 -3.08917 2.78466 0
M  V30 5599 H 512.194 -3.58624 1.02193 0
M  V30 5600 N 514.379 -1.04941 -1.1758 0
M  V30 5601 C 515.626 -0.757989 -1.87779 0
M  V30 5602 C 515.954 0.714827 -1.80888 0
M  V30 5603 O 515.209 1.53824 -1.20982 0
M  V30 5604 C 515.508 -1.18062 -3.37337 0
M  V30 5605 C 515.174 -2.65521 -3.6443 0
M  V30 5606 C 513.836 -3.05804 -3.71534 0
M  V30 5607 C 516.188 -3.60822 -3.76108 0
M  V30 5608 C 513.516 -4.40256 -3.87803 0
M  V30 5609 C 515.868 -4.95005 -3.93895 0
M  V30 5610 C 514.532 -5.34945 -3.99237 0
M  V30 5611 H 513.802 -0.277368 -0.68713 0
M  V30 5612 H 516.449 -1.31603 -1.39115 0
M  V30 5613 H 514.754 -0.541525 -3.8804 0
M  V30 5614 H 516.451 -0.932368 -3.9001 0
M  V30 5615 H 513.041 -2.33324 -3.59524 0
M  V30 5616 H 517.225 -3.30841 -3.69943 0
M  V30 5617 H 512.481 -4.70707 -3.90186 0
M  V30 5618 H 516.655 -5.68746 -4.01872 0
M  V30 5619 H 514.282 -6.39135 -4.11596 0
M  V30 5620 N 515.857 1.33968 -0.830081 0
M  V30 5621 C 516.789 2.28194 -0.21448 0
M  V30 5622 C 517.802 1.5135 0.599752 0
M  V30 5623 O 518.991 1.73286 0.42826 0
M  V30 5624 C 516.091 3.31221 0.717356 0
M  V30 5625 C 515.264 4.37365 -0.055613 0
M  V30 5626 C 514.323 5.2011 0.798231 0
M  V30 5627 O 513.349 5.68691 0.240616 0
M  V30 5628 N 514.551 5.40523 2.11695 0
M  V30 5629 H 517.316 2.81662 -1.02405 0
M  V30 5630 H 514.877 1.46568 -0.687713 0
M  V30 5631 H 516.869 3.83477 1.29334 0
M  V30 5632 H 515.439 2.78095 1.42765 0
M  V30 5633 H 514.659 3.85727 -0.812936 0
M  V30 5634 H 515.947 5.05397 -0.587444 0
M  V30 5635 H 515.345 5.0274 2.59363 0
M  V30 5636 H 513.902 5.95871 2.64162 0
M  V30 5637 N 517.335 0.585699 1.46312 0
M  V30 5638 C 518.283 -0.158577 2.32059 0
M  V30 5639 C 519.277 -0.881427 1.44662 0
M  V30 5640 O 520.483 -0.799476 1.61271 0
M  V30 5641 H 516.858 -0.0700066 0.748734 0
M  V30 5642 H 518.829 0.583383 2.92642 0
M  V30 5643 C 517.578 -1.15701 3.27885 0
M  V30 5644 H 516.901 -0.610215 3.95116 0
M  V30 5645 H 518.341 -1.64812 3.90657 0
M  V30 5646 C 516.8 -2.21951 2.53455 0
M  V30 5647 O 517.33 -3.29352 2.29978 0
M  V30 5648 N 515.536 -1.9664 2.13965 0
M  V30 5649 H 515.083 -1.09309 2.33258 0
M  V30 5650 H 515.041 -2.6794 1.64485 0
M  V30 5651 N 518.813 -1.54241 0.323641 0
M  V30 5652 C 520.09 -1.92741 -0.333181 0
M  V30 5653 C 520.47 -1.25326 -1.69872 0
M  V30 5654 O 519.818 -0.396991 -2.25025 0
M  V30 5655 C 520.028 -3.46399 -0.425322 0
M  V30 5656 C 521.376 -4.19029 -0.68557 0
M  V30 5657 O 522.4 -3.52555 -0.50824 0
M  V30 5658 O 521.259 -5.36751 -1.02767 0
M  V30 5659 H 518.353 -0.804811 -0.190286 0
M  V30 5660 H 520.899 -1.65542 0.373361 0
M  V30 5661 H 519.671 -3.87643 0.533737 0
M  V30 5662 H 519.294 -3.79704 -1.17944 0
M  V30 5663 N 520.291 -0.0518155 -1.57515 0
M  V30 5664 C 521.238 0.922352 -2.11569 0
M  V30 5665 C 522.208 1.30842 -1.02321 0
M  V30 5666 O 523.393 1.39778 -1.29872 0
M  V30 5667 C 520.533 2.19167 -2.6657 0
M  V30 5668 C 519.646 1.86003 -3.89906 0
M  V30 5669 C 518.781 3.07398 -4.33221 0
M  V30 5670 C 517.82 2.70158 -5.49255 0
M  V30 5671 N 516.957 3.84248 -5.8762 0
M  V30 5672 H 521.797 0.454506 -2.94514 0
M  V30 5673 H 519.334 0.212718 -1.45554 0
M  V30 5674 H 521.292 2.93443 -2.96559 0
M  V30 5675 H 519.922 2.63528 -1.86421 0
M  V30 5676 H 518.974 1.01874 -3.66505 0
M  V30 5677 H 520.286 1.54592 -4.74239 0
M  V30 5678 H 519.44 3.89972 -4.64765 0
M  V30 5679 H 518.179 3.41988 -3.477 0
M  V30 5680 H 517.184 1.86001 -5.17382 0
M  V30 5681 H 518.409 2.36759 -6.36492 0
M  V30 5682 H 516.355 4.18638 -5.05053 0
M  V30 5683 H 516.272 3.56538 -6.66646 0
M  V30 5684 H 517.54 4.6746 -6.2378 0
M  V30 5685 N 521.769 1.56035 0.221574 0
M  V30 5686 C 522.699 1.95434 1.2778 0
M  V30 5687 C 523.68 0.822564 1.48889 0
M  V30 5688 O 524.865 1.08486 1.61072 0
M  V30 5689 C 521.995 2.27102 2.62759 0
M  V30 5690 C 520.949 3.4277 2.56306 0
M  V30 5691 C 520.275 3.60043 3.95314 0
M  V30 5692 C 521.575 4.77742 2.11093 0
M  V30 5693 H 523.269 2.83912 0.950504 0
M  V30 5694 H 520.815 1.36596 0.455791 0
M  V30 5695 H 522.768 2.53256 3.36807 0
M  V30 5696 H 521.492 1.35478 2.97176 0
M  V30 5697 H 520.151 3.16664 1.84715 0
M  V30 5698 H 519.799 2.65794 4.27039 0
M  V30 5699 H 519.499 4.37841 3.91879 0
M  V30 5700 H 521.023 3.88545 4.71025 0
M  V30 5701 H 522.437 5.03102 2.74885 0
M  V30 5702 H 520.834 5.58823 2.18716 0
M  V30 5703 H 521.904 4.731 1.06321 0
M  V30 5704 N 523.247 -0.488276 1.49845 0
M  V30 5705 C 524.493 -1.24341 1.6021 0
M  V30 5706 C 524.826 -1.91967 0.293651 0
M  V30 5707 O 524.101 -1.81323 -0.703718 0
M  V30 5708 C 524.384 -2.3005 2.77036 0
M  V30 5709 C 524.237 -1.66842 4.17713 0
M  V30 5710 C 525.556 -3.31509 2.89464 0
M  V30 5711 H 522.675 -0.450704 0.583125 0
M  V30 5712 H 525.317 -0.539673 1.82174 0
M  V30 5713 H 523.467 -2.90071 2.58439 0
M  V30 5714 H 525.139 -1.1055 4.47858 0
M  V30 5715 H 523.382 -0.972079 4.22768 0
M  V30 5716 H 524.053 -2.43576 4.95353 0
M  V30 5717 H 526.529 -2.81493 3.06433 0
M  V30 5718 H 525.405 -4.02822 3.72861 0
M  V30 5719 H 525.666 -3.94603 1.99351 0
M  V30 5720 N 524.725 -1.39134 -0.740242 0
M  V30 5721 C 525.971 -1.36273 -1.50192 0
M  V30 5722 C 526.304 0.0430136 -1.94152 0
M  V30 5723 O 525.579 1.00691 -1.66408 0
M  V30 5724 C 525.862 -2.33041 -2.74525 0
M  V30 5725 C 525.715 -3.82535 -2.36617 0
M  V30 5726 C 527.034 -2.27723 -3.76604 0
M  V30 5727 H 524.153 -0.496323 -0.544823 0
M  V30 5728 H 526.795 -1.70085 -0.846815 0
M  V30 5729 H 524.945 -2.04337 -3.30422 0
M  V30 5730 H 526.617 -4.21967 -1.86391 0
M  V30 5731 H 524.86 -3.99565 -1.68909 0
M  V30 5732 H 525.531 -4.45723 -3.2563 0
M  V30 5733 H 528.007 -2.53091 -3.30279 0
M  V30 5734 H 526.883 -2.97519 -4.61274 0
M  V30 5735 H 527.144 -1.28049 -4.2315 0
M  V30 5736 N 526.204 0.969867 -1.24223 0
M  V30 5737 C 527.45 1.71582 -1.09231 0
M  V30 5738 C 527.805 1.88898 0.365432 0
M  V30 5739 O 527.098 1.43781 1.2664 0
M  V30 5740 C 527.292 3.10883 -1.76314 0
M  V30 5741 C 527.121 3.07155 -3.2846 0
M  V30 5742 C 525.891 3.11757 -3.97663 0
M  V30 5743 C 528.089 2.895 -4.25082 0
M  V30 5744 N 526.071 2.98025 -5.36707 0
M  V30 5745 C 527.442 2.84041 -5.51109 0
M  V30 5746 C 529.497 2.74064 -4.15684 0
M  V30 5747 C 528.2 2.64725 -6.68815 0
M  V30 5748 C 530.226 2.56115 -5.33066 0
M  V30 5749 C 529.588 2.51363 -6.58024 0
M  V30 5750 H 525.687 0.636496 -0.454309 0
M  V30 5751 H 528.271 1.15004 -1.57106 0
M  V30 5752 H 526.442 3.65657 -1.30955 0
M  V30 5753 H 528.174 3.74171 -1.54201 0
M  V30 5754 H 524.929 3.20352 -3.48814 0
M  V30 5755 H 525.353 2.94405 -6.09635 0
M  V30 5756 H 529.995 2.76521 -3.19837 0
M  V30 5757 H 527.713 2.61011 -7.64787 0
M  V30 5758 H 531.299 2.45119 -5.27644 0
M  V30 5759 H 530.179 2.37651 -7.47323 0
M  V30 5760 N 527.682 1.05563 1.17022 0
M  V30 5761 C 528.592 0.670758 2.24807 0
M  V30 5762 C 529.608 -0.309865 1.71219 0
M  V30 5763 O 530.784 -0.161025 2.00755 0
M  V30 5764 C 527.849 0.055337 3.46656 0
M  V30 5765 C 526.91 1.08688 4.15314 0
M  V30 5766 C 526.143 0.500736 5.31346 0
M  V30 5767 O 526.366 -0.688718 5.66227 0
M  V30 5768 O 525.3 1.23683 5.89055 0
M  V30 5769 H 529.126 1.56914 2.60023 0
M  V30 5770 H 526.711 0.827428 1.24395 0
M  V30 5771 H 528.593 -0.286492 4.20425 0
M  V30 5772 H 527.268 -0.816638 3.13229 0
M  V30 5773 H 526.175 1.48077 3.43546 0
M  V30 5774 H 527.508 1.93014 4.52777 0
M  V30 5775 N 529.16 -1.33526 0.837174 0
M  V30 5776 C 530.123 -2.27551 0.274421 0
M  V30 5777 C 531.123 -1.50886 -0.555881 0
M  V30 5778 O 532.313 -1.70227 -0.369918 0
M  V30 5779 C 529.445 -3.35332 -0.613605 0
M  V30 5780 H 530.638 -2.78837 1.10408 0
M  V30 5781 H 528.191 -1.439 0.610126 0
M  V30 5782 H 528.926 -2.89285 -1.46577 0
M  V30 5783 H 528.711 -3.92095 -0.0195341 0
M  V30 5784 H 530.201 -4.05433 -1.00068 0
M  V30 5785 N 530.638 -0.59345 -1.46 0
M  V30 5786 C 531.886 -0.082988 -2.0193 0
M  V30 5787 C 532.207 1.28569 -1.46612 0
M  V30 5788 O 531.477 1.84629 -0.654909 0
M  V30 5789 H 530.057 -0.0276882 -0.746487 0
M  V30 5790 H 532.719 -0.771657 -1.78973 0
M  V30 5791 H 531.815 -0.022079 -3.12092 0
M  V30 5792 N 532.116 1.54067 -0.331816 0
M  V30 5793 C 533.063 2.24623 0.530372 0
M  V30 5794 C 534.033 1.24009 1.10503 0
M  V30 5795 O 535.218 1.52712 1.14384 0
M  V30 5796 C 532.358 3.01374 1.68129 0
M  V30 5797 C 531.471 4.16821 1.13507 0
M  V30 5798 C 530.606 4.81085 2.25234 0
M  V30 5799 C 529.645 5.88621 1.67903 0
M  V30 5800 N 528.782 6.46713 2.73326 0
M  V30 5801 H 533.622 2.97898 -0.0778607 0
M  V30 5802 H 531.159 1.47014 -0.0501965 0
M  V30 5803 H 533.117 3.44125 2.35868 0
M  V30 5804 H 531.747 2.30419 2.26069 0
M  V30 5805 H 530.799 3.78796 0.348979 0
M  V30 5806 H 532.111 4.94203 0.675633 0
M  V30 5807 H 531.265 5.26846 3.00862 0
M  V30 5808 H 530.004 4.03102 2.74518 0
M  V30 5809 H 529.009 5.42254 0.907773 0
M  V30 5810 H 530.234 6.68506 1.19487 0
M  V30 5811 H 528.18 5.71599 3.21886 0
M  V30 5812 H 528.097 7.19532 2.3197 0
M  V30 5813 H 529.365 6.97129 3.48758 0
M  V30 5814 N 533.594 0.0601682 1.57485 0
M  V30 5815 C 534.557 -0.896373 2.10945 0
M  V30 5816 C 535.557 -1.23402 1.03095 0
M  V30 5817 O 536.747 -1.16921 1.29132 0
M  V30 5818 C 533.879 -2.20346 2.60116 0
M  V30 5819 H 535.072 -0.432778 2.96761 0
M  V30 5820 H 532.625 -0.188372 1.55161 0
M  V30 5821 H 533.36 -2.71268 1.7772 0
M  V30 5822 H 533.145 -1.9714 3.38937 0
M  V30 5823 H 534.635 -2.88846 3.01592 0
M  V30 5824 N 535.072 -1.5615 -0.213296 0
M  V30 5825 C 536.32 -1.79191 -0.934612 0
M  V30 5826 C 536.641 -0.630112 -1.84539 0
M  V30 5827 O 535.911 0.35257 -1.92701 0
M  V30 5828 H 534.491 -0.660937 -0.348097 0
M  V30 5829 H 537.153 -1.93618 -0.22317 0
M  V30 5830 H 536.249 -2.71656 -1.53654 0
M  V30 5831 N 536.55 0.480323 -1.50102 0
M  V30 5832 C 537.48 1.58769 -1.71215 0
M  V30 5833 C 538.461 1.60583 -0.560997 0
M  V30 5834 O 539.646 1.76996 -0.799127 0
M  V30 5835 C 536.776 2.97148 -1.79778 0
M  V30 5836 C 535.73 3.10201 -2.94888 0
M  V30 5837 C 535.056 4.50137 -2.88584 0
M  V30 5838 C 536.356 2.88283 -4.35534 0
M  V30 5839 H 538.05 1.41354 -2.6393 0
M  V30 5840 H 535.596 0.678591 -1.27008 0
M  V30 5841 H 537.549 3.74536 -1.93133 0
M  V30 5842 H 536.273 3.15699 -0.836772 0
M  V30 5843 H 534.932 2.35244 -2.81169 0
M  V30 5844 H 534.58 4.65593 -1.90349 0
M  V30 5845 H 534.28 4.59808 -3.65856 0
M  V30 5846 H 535.804 5.29558 -3.03976 0
M  V30 5847 H 537.218 3.55427 -4.49827 0
M  V30 5848 H 535.615 3.09408 -5.14186 0
M  V30 5849 H 536.685 1.84219 -4.48544 0
M  V30 5850 N 538.028 1.39524 0.732853 0
M  V30 5851 C 538.938 1.40695 1.87729 0
M  V30 5852 C 539.954 0.301496 1.71368 0
M  V30 5853 O 541.13 0.543313 1.93933 0
M  V30 5854 C 538.195 1.25098 3.23344 0
M  V30 5855 C 537.256 2.45634 3.52083 0
M  V30 5856 C 536.489 2.30772 4.81228 0
M  V30 5857 O 536.712 1.31233 5.55098 0
M  V30 5858 O 535.646 3.19799 5.09914 0
M  V30 5859 H 539.472 2.37168 1.89697 0
M  V30 5860 H 537.057 1.20663 0.880959 0
M  V30 5861 H 538.939 1.18541 4.04383 0
M  V30 5862 H 537.614 0.317209 3.22142 0
M  V30 5863 H 536.521 2.57767 2.71122 0
M  V30 5864 H 537.854 3.37712 3.58066 0
M  V30 5865 N 539.506 -0.963266 1.24736 0
M  V30 5866 C 540.416 -2.09246 1.06082 0
M  V30 5867 C 541.432 -1.74 0.000363101 0
M  V30 5868 O 542.608 -2.0041 0.199479 0
M  V30 5869 C 539.673 -3.40115 0.672498 0
M  V30 5870 C 538.734 -3.89282 1.80993 0
M  V30 5871 C 537.967 -5.13905 1.44004 0
M  V30 5872 O 538.19 -5.69434 0.331835 0
M  V30 5873 O 537.124 -5.57566 2.26723 0
M  V30 5874 H 540.95 -2.27881 2.00759 0
M  V30 5875 H 538.535 -1.07649 1.03595 0
M  V30 5876 H 540.417 -4.18797 0.467668 0
M  V30 5877 H 539.092 -3.22771 -0.245102 0
M  V30 5878 H 537.999 -3.11642 2.06955 0
M  V30 5879 H 539.332 -4.1111 2.70646 0
M  V30 5880 N 540.985 -1.06182 -1.16461 0
M  V30 5881 C 542.225 -0.787048 -1.8864 0
M  V30 5882 C 542.589 0.674093 -1.79778 0
M  V30 5883 O 543.79 1.06341 -2.46871 0
M  V30 5884 C 542.061 -1.2666 -3.34203 0
M  V30 5885 S 543.62 -1.12071 -4.24247 0
M  V30 5886 H 540.438 -0.285539 -0.651144 0
M  V30 5887 H 543.04 -1.35851 -1.40587 0
M  V30 5888 H 541.744 -2.32496 -3.38192 0
M  V30 5889 H 541.275 -0.689841 -3.87304 0
M  V30 5890 H 543.29 -0.0509341 -4.96174 0
M  V30 5891 N 542.463 1.3308 -0.844243 0
M  V30 5892 C 543.393 2.3161 -0.296493 0
M  V30 5893 C 544.374 1.59215 0.598707 0
M  V30 5894 O 545.559 1.87077 0.521134 0
M  V30 5895 C 542.689 3.43313 0.524762 0
M  V30 5896 C 541.643 4.27115 -0.275106 0
M  V30 5897 C 540.969 5.30483 0.670236 0
M  V30 5898 C 542.269 5.00443 -1.49514 0
M  V30 5899 H 543.963 2.77672 -1.11976 0
M  V30 5900 H 541.509 1.33496 -0.539899 0
M  V30 5901 H 543.462 4.11273 0.918298 0
M  V30 5902 H 542.186 2.95952 1.3813 0
M  V30 5903 H 540.845 3.60787 -0.650267 0
M  V30 5904 H 540.493 4.79379 1.52332 0
M  V30 5905 H 540.193 5.87435 0.139123 0
M  V30 5906 H 541.717 6.01308 1.06117 0
M  V30 5907 H 543.131 5.61141 -1.17447 0
M  V30 5908 H 541.528 5.67071 -1.96343 0
M  V30 5909 H 542.598 4.28906 -2.26202 0
M  V30 5910 N 543.941 0.601185 1.45683 0
M  V30 5911 C 545.187 0.0940202 2.02582 0
M  V30 5912 C 545.52 -1.26972 1.46941 0
M  V30 5913 O 544.795 -1.83613 0.641612 0
M  V30 5914 C 545.078 0.0481715 3.60068 0
M  V30 5915 C 544.931 1.44212 4.26055 0
M  V30 5916 C 546.25 -0.642975 4.35378 0
M  V30 5917 H 543.369 0.0356404 0.736138 0
M  V30 5918 H 546.011 0.771929 1.73612 0
M  V30 5919 H 544.161 -0.529128 3.8488 0
M  V30 5920 H 545.833 2.06601 4.12449 0
M  V30 5921 H 544.076 2.00465 3.84703 0
M  V30 5922 H 544.747 1.36234 5.34925 0
M  V30 5923 H 547.223 -0.152351 4.15821 0
M  V30 5924 H 546.099 -0.644141 5.45107 0
M  V30 5925 H 546.36 -1.70785 4.0778 0
M  V30 5926 N 545.419 -1.53889 0.339982 0
M  V30 5927 C 546.647 -2.05271 -0.259114 0
M  V30 5928 C 547.062 -1.21517 -1.44496 0
M  V30 5929 O 546.419 -0.24966 -1.80784 0
M  V30 5930 C 546.47 -3.55092 -0.677634 0
M  V30 5931 O 546.191 -4.35667 0.461051 0
M  V30 5932 C 547.692 -4.22631 -1.33782 0
M  V30 5933 H 544.912 -0.669085 -0.0506566 0
M  V30 5934 H 547.456 -1.9852 0.490935 0
M  V30 5935 H 545.611 -3.62077 -1.37763 0
M  V30 5936 H 546.025 -5.24343 0.128144 0
M  V30 5937 H 547.499 -5.28861 -1.58145 0
M  V30 5938 H 547.976 -3.74758 -2.29027 0
M  V30 5939 H 548.582 -4.19829 -0.679957 0
M  V30 5940 N 546.897 -0.0685191 -1.57451 0
M  V30 5941 C 547.807 0.914677 -2.16034 0
M  V30 5942 C 548.823 1.32938 -1.12265 0
M  V30 5943 O 549.999 1.40275 -1.44516 0
M  V30 5944 C 547.064 2.16519 -2.70777 0
M  V30 5945 C 546.125 1.80721 -3.89408 0
M  V30 5946 C 545.358 2.9981 -4.41531 0
M  V30 5947 O 545.581 4.13727 -3.92666 0
M  V30 5948 O 544.515 2.79817 -5.32903 0
M  V30 5949 H 548.341 0.446364 -3.00402 0
M  V30 5950 H 545.926 0.154367 -1.486 0
M  V30 5951 H 547.808 2.89856 -3.05878 0
M  V30 5952 H 546.483 2.62454 -1.89471 0
M  V30 5953 H 545.39 1.04646 -3.59166 0
M  V30 5954 H 546.723 1.39571 -4.71997 0
M  V30 5955 N 548.375 1.56261 0.205012 0
M  V30 5956 C 549.621 1.80306 0.9283 0
M  V30 5957 C 549.954 0.640932 1.83319 0
M  V30 5958 O 549.229 -0.359032 1.91158 0
M  V30 5959 C 549.512 3.14547 1.75306 0
M  V30 5960 C 549.365 4.41236 0.873562 0
M  V30 5961 C 550.684 3.45382 2.72762 0
M  V30 5962 H 547.803 0.655929 0.336044 0
M  V30 5963 H 550.445 1.88984 0.196211 0
M  V30 5964 H 548.595 3.0728 2.37721 0
M  V30 5965 H 550.267 4.60539 0.264887 0
M  V30 5966 H 548.51 4.33427 0.179773 0
M  V30 5967 H 549.181 5.31639 1.48541 0
M  V30 5968 H 551.657 3.52884 2.20481 0
M  V30 5969 H 550.533 4.40449 3.2756 0
M  V30 5970 H 550.794 2.68377 3.51321 0
M  V30 5971 N 549.853 -0.472356 1.50355 0
M  V30 5972 C 550.785 -1.58795 1.65278 0
M  V30 5973 C 551.798 -1.53782 0.534313 0
M  V30 5974 O 552.987 -1.59193 0.807446 0
M  V30 5975 C 550.087 -2.97672 1.62001 0
M  V30 5976 C 549.26 -3.27568 2.89859 0
M  V30 5977 C 548.319 -4.45993 2.79242 0
M  V30 5978 O 547.345 -4.46364 3.53197 0
M  V30 5979 N 548.547 -5.47578 1.92713 0
M  V30 5980 H 551.312 -1.46411 2.61503 0
M  V30 5981 H 548.873 -0.660751 1.47803 0
M  V30 5982 H 550.865 -3.74862 1.52513 0
M  V30 5983 H 549.435 -3.03832 0.735159 0
M  V30 5984 H 548.655 -2.39003 3.13483 0
M  V30 5985 H 549.943 -3.44352 3.74565 0
M  V30 5986 H 549.341 -5.50099 1.31939 0
M  V30 5987 H 547.898 -6.23757 1.8913 0
M  V30 5988 N 551.331 -1.39911 -0.725443 0
M  V30 5989 C 552.577 -1.37858 -1.48738 0
M  V30 5990 C 552.91 0.0224187 -1.94187 0
M  V30 5991 O 552.185 0.989204 -1.67466 0
M  V30 5992 C 552.468 -2.3594 -2.72038 0
M  V30 5993 C 552.321 -3.85023 -2.32546 0
M  V30 5994 C 553.64 -2.31704 -3.74167 0
M  V30 5995 H 550.759 -0.502074 -0.539528 0
M  V30 5996 H 553.401 -1.70974 -0.828728 0
M  V30 5997 H 551.551 -2.0783 -3.28236 0
M  V30 5998 H 553.223 -4.2392 -1.81905 0
M  V30 5999 H 551.466 -4.01334 -1.64661 0
M  V30 6000 H 552.137 -4.49152 -3.20884 0
M  V30 6001 H 554.613 -2.5658 -3.27576 0
M  V30 6002 H 553.489 -3.02395 -4.58092 0
M  V30 6003 H 553.75 -1.3253 -4.21768 0
M  V30 6004 N 552.809 0.956637 -1.25245 0
M  V30 6005 C 554.055 1.70352 -1.10036 0
M  V30 6006 C 554.388 1.90869 0.358156 0
M  V30 6007 O 553.663 1.47819 1.26411 0
M  V30 6008 C 553.946 3.08766 -1.85298 0
M  V30 6009 C 553.799 2.95672 -3.38966 0
M  V30 6010 C 555.118 4.08622 -1.63451 0
M  V30 6011 H 552.237 0.618279 -0.401123 0
M  V30 6012 H 554.879 1.11212 -1.54051 0
M  V30 6013 H 553.029 3.59252 -1.47887 0
M  V30 6014 H 554.701 2.52527 -3.86041 0
M  V30 6015 H 552.944 2.31634 -3.6678 0
M  V30 6016 H 553.615 3.93776 -3.86839 0
M  V30 6017 H 556.091 3.67038 -1.96015 0
M  V30 6018 H 554.967 5.03514 -2.18551 0
M  V30 6019 H 555.228 4.3834 -0.575357 0
M  V30 6020 N 554.287 1.06798 1.15896 0
M  V30 6021 C 555.219 0.641263 2.20046 0
M  V30 6022 C 556.232 -0.303355 1.59949 0
M  V30 6023 O 557.421 -0.0935478 1.78255 0
M  V30 6024 C 554.521 -0.0794029 3.38807 0
M  V30 6025 C 553.694 0.879986 4.28457 0
M  V30 6026 C 552.753 0.197638 5.25829 0
M  V30 6027 O 551.779 0.836913 5.63014 0
M  V30 6028 N 552.981 -1.05886 5.70761 0
M  V30 6029 H 555.746 1.53718 2.57276 0
M  V30 6030 H 553.307 0.951951 1.30956 0
M  V30 6031 H 555.299 -0.546418 4.00994 0
M  V30 6032 H 553.869 -0.877193 3.0004 0
M  V30 6033 H 553.089 1.52625 3.63454 0
M  V30 6034 H 554.377 1.53065 4.8523 0
M  V30 6035 H 553.775 -1.59828 5.42652 0
M  V30 6036 H 552.332 -1.46965 6.35015 0
M  V30 6037 N 555.766 -1.3263 0.851289 0
M  V30 6038 C 556.713 -2.28952 0.291469 0
M  V30 6039 C 557.683 -1.54897 -0.599676 0
M  V30 6040 O 558.868 -1.83137 -0.535305 0
M  V30 6041 C 556.008 -3.41206 -0.516992 0
M  V30 6042 C 555.121 -4.30148 0.399566 0
M  V30 6043 C 554.256 -5.29527 -0.4212 0
M  V30 6044 C 553.295 -6.10112 0.492969 0
M  V30 6045 N 552.432 -7.01499 -0.290414 0
M  V30 6046 H 557.272 -2.76228 1.11813 0
M  V30 6047 H 554.809 -1.35907 0.562826 0
M  V30 6048 H 556.767 -4.05005 -1.00132 0
M  V30 6049 H 555.397 -2.9509 -1.30851 0
M  V30 6050 H 554.449 -3.66959 1.00227 0
M  V30 6051 H 555.761 -4.8649 1.1013 0
M  V30 6052 H 554.915 -5.98914 -0.968832 0
M  V30 6053 H 553.654 -4.73794 -1.15632 0
M  V30 6054 H 552.659 -5.39632 1.05251 0
M  V30 6055 H 553.884 -6.6793 1.22664 0
M  V30 6056 H 551.83 -6.48199 -1.00868 0
M  V30 6057 H 551.747 -7.55178 0.352354 0
M  V30 6058 H 553.015 -7.75176 -0.819882 0
M  V30 6059 N 557.244 -0.608902 -1.45362 0
M  V30 6060 C 558.472 -0.111013 -2.06602 0
M  V30 6061 C 558.887 1.20516 -1.45332 0
M  V30 6062 O 558.244 1.73437 -0.567978 0
M  V30 6063 C 558.295 0.033688 -3.61484 0
M  V30 6064 O 558.016 -1.23041 -4.20467 0
M  V30 6065 C 559.517 0.562882 -4.39712 0
M  V30 6066 H 556.737 -0.0694453 -0.667397 0
M  V30 6067 H 559.281 -0.837008 -1.86586 0
M  V30 6068 H 557.436 0.710016 -3.80838 0
M  V30 6069 H 557.85 -1.06094 -5.13658 0
M  V30 6070 H 559.324 0.613213 -5.48583 0
M  V30 6071 H 559.801 1.58543 -4.09586 0
M  V30 6072 H 560.407 -0.0794454 -4.25226 0
M  V30 6073 O 558.761 1.53877 -0.490327 0
M  V30 6074 H 559.452 1.93677 0.0300664 0
M  V30 END ATOM
M  V30 BEGIN BOND
M  V30 END BOND
M  V30 END CTAB
M  END
$$$$
