drugbank_target|P09211 Glutathione S-transferase P (DB00143; DB00197; DB00363; DB00903; DB01242; DB01834; DB01915; DB02633; DB03003; DB03619; DB03686; DB03814; DB04132; DB04339; DB04972; DB05460; DB06246; DB07849; DB08370; DB11672; DB11831; DB13014; DB14635)
 OpenBabel12092119403D

  0  0  0     0  0            999 V3000
M  V30 BEGIN CTAB
M  V30 COUNTS 3298 3333 0 0 0
M  V30 BEGIN ATOM
M  V30 1 H -0.908 1.98254 -0.117106 0
M  V30 2 N 0 1.576 0 0
M  V30 3 C 0.933 2.03868 1.02534 0
M  V30 4 C 1.911 0.928543 1.3348 0
M  V30 5 O 3.095 1.19667 1.45644 0
M  V30 6 C 0.222 2.43627 2.35294 0
M  V30 7 C -0.732 3.65373 2.2001 0
M  V30 8 S 0.101 5.13292 1.52614 0
M  V30 9 C 1.257 5.56322 2.86805 0
M  V30 10 H 1.49 2.90518 0.631377 0
M  V30 11 H -0.977 1.52953 0.210867 0
M  V30 12 H 0.981 2.67203 3.11629 0
M  V30 13 H -0.358 1.57376 2.7183 0
M  V30 14 H -1.165 3.90944 3.18086 0
M  V30 15 H -1.563 3.418 1.51819 0
M  V30 16 H 0.729 5.58782 3.83104 0
M  V30 17 H 1.672 6.56266 2.65933 0
M  V30 18 H 2.08 4.83886 2.90714 0
M  V30 19 N 1.4781 -0.272755 1.55222 0
M  V30 20 C 2.8891 -0.84378 1.66545 0
M  V30 21 C 3.2401 -1.87035 0.592641 0
M  V30 22 O 2.3651 -2.14761 -0.265818 0
M  V30 23 C 2.9601 -1.53723 3.01918 0
M  V30 24 C 1.5191 -2.05628 3.15268 0
M  V30 25 C 0.6661 -0.898424 2.62343 0
M  V30 26 H 3.6171 -0.0490998 1.58624 0
M  V30 27 H 3.6381 -2.40421 2.94921 0
M  V30 28 H 3.1501 -0.78983 3.79978 0
M  V30 29 H 1.2511 -2.83329 2.41983 0
M  V30 30 H 1.3641 -2.27142 4.21833 0
M  V30 31 H -0.2719 -1.29186 2.19506 0
M  V30 32 H 0.5111 -0.164528 3.42906 0
M  V30 33 N 2.9562 -1.48159 -0.537278 0
M  V30 34 C 4.3672 -1.49429 -1.11928 0
M  V30 35 C 4.7182 -0.26 -1.9447 0
M  V30 36 O 3.8432 0.633489 -2.0692 0
M  V30 37 C 4.4382 -2.70758 -2.03656 0
M  V30 38 C 2.9972 -2.74923 -2.57088 0
M  V30 39 C 2.1442 -2.42835 -1.3389 0
M  V30 40 H 5.0952 -1.55381 -0.322886 0
M  V30 41 H 5.1162 -2.48861 -2.87834 0
M  V30 42 H 4.6282 -3.60575 -1.43553 0
M  V30 43 H 2.7292 -1.89296 -3.20933 0
M  V30 44 H 2.8422 -3.76157 -2.9672 0
M  V30 45 H 1.2062 -1.93836 -1.65226 0
M  V30 46 H 1.9892 -3.34884 -0.755504 0
M  V30 47 N 4.4343 0.785586 -1.36625 0
M  V30 48 C 5.6643 1.5722 -1.34036 0
M  V30 49 C 6.0723 1.89033 0.0795062 0
M  V30 50 O 5.4153 1.50881 1.04789 0
M  V30 51 C 5.4773 2.91759 -2.10041 0
M  V30 52 C 5.1413 2.82654 -3.59104 0
M  V30 53 C 6.1383 2.54634 -4.53274 0
M  V30 54 C 3.8233 3.01111 -4.02042 0
M  V30 55 C 5.8173 2.45177 -5.88359 0
M  V30 56 C 3.5043 2.91276 -5.37216 0
M  V30 57 C 4.5023 2.63348 -6.30188 0
M  V30 58 O 4.1903 2.53514 -7.6288 0
M  V30 59 H 3.9223 0.494177 -0.461265 0
M  V30 60 H 6.4763 0.982632 -1.8037 0
M  V30 61 H 4.7063 3.52781 -1.58375 0
M  V30 62 H 6.3953 3.53059 -2.00261 0
M  V30 63 H 7.1613 2.40073 -4.21414 0
M  V30 64 H 3.0403 3.21854 -3.30047 0
M  V30 65 H 6.5843 2.23299 -6.60896 0
M  V30 66 H 2.4813 3.054 -5.68684 0
M  V30 67 H 3.2493 2.68967 -7.73045 0
M  V30 68 N 5.9124 1.20967 1.01018 0
M  V30 69 C 7.1404 1.04956 1.78303 0
M  V30 70 C 7.5554 -0.400915 1.84494 0
M  V30 71 O 6.9124 -1.27826 1.30257 0
M  V30 72 C 6.9634 1.63403 3.22462 0
M  V30 73 O 6.6844 3.02775 3.16637 0
M  V30 74 C 8.1854 1.52432 4.16268 0
M  V30 75 H 5.4054 0.368858 0.560522 0
M  V30 76 H 7.9494 1.60193 1.27116 0
M  V30 77 H 6.1044 1.1227 3.70775 0
M  V30 78 H 6.5184 3.30626 4.07169 0
M  V30 79 H 7.9924 1.98078 5.15237 0
M  V30 80 H 8.4694 0.477875 4.36592 0
M  V30 81 H 9.0754 2.02787 3.73841 0
M  V30 82 N 7.3905 -1.2043 1.01659 0
M  V30 83 C 8.6365 -1.90079 0.706963 0
M  V30 84 C 8.9695 -1.78648 -0.761474 0
M  V30 85 O 8.2445 -1.17069 -1.55323 0
M  V30 86 C 8.5275 -3.41469 1.14327 0
M  V30 87 C 8.3805 -3.61833 2.67201 0
M  V30 88 C 9.6995 -4.34261 0.714529 0
M  V30 89 H 6.8185 -0.690254 0.2583 0
M  V30 90 H 9.4605 -1.41826 1.26433 0
M  V30 91 H 7.6105 -3.82696 0.669056 0
M  V30 92 H 9.2825 -3.2986 3.22475 0
M  V30 93 H 7.5255 -3.05304 3.08175 0
M  V30 94 H 8.1965 -4.67955 2.92783 0
M  V30 95 H 10.6725 -4.00682 1.12221 0
M  V30 96 H 9.5485 -5.38806 1.04784 0
M  V30 97 H 9.8095 -4.40431 -0.383799 0
M  V30 98 N 8.8686 -0.792821 -1.36206 0
M  V30 99 C 10.1146 -0.36733 -1.99446 0
M  V30 100 C 10.4476 1.05917 -1.62774 0
M  V30 101 O 9.7226 1.7324 -0.88421 0
M  V30 102 C 10.0056 -0.535044 -3.56103 0
M  V30 103 C 9.8586 -2.00548 -4.02617 0
M  V30 104 C 11.1776 0.0478191 -4.40074 0
M  V30 105 H 8.2966 -0.134941 -0.724541 0
M  V30 106 H 10.9386 -0.999794 -1.61568 0
M  V30 107 H 9.0886 0.00336329 -3.885 0
M  V30 108 H 10.7606 -2.60521 -3.80692 0
M  V30 109 H 9.0036 -2.50686 -3.54032 0
M  V30 110 H 9.6746 -2.07377 -5.11565 0
M  V30 111 H 12.1506 -0.411822 -4.14057 0
M  V30 112 H 11.0266 -0.0995336 -5.4881 0
M  V30 113 H 11.2876 1.14025 -4.27142 0
M  V30 114 N 10.3467 1.47872 -0.545128 0
M  V30 115 C 11.5767 2.06589 -0.0210534 0
M  V30 116 C 11.9847 1.39997 1.27269 0
M  V30 117 O 11.3277 0.486421 1.77143 0
M  V30 118 C 11.3897 3.58574 0.257933 0
M  V30 119 C 11.0537 4.47132 -0.944573 0
M  V30 120 C 12.0507 4.85986 -1.84699 0
M  V30 121 C 9.7357 4.88821 -1.15584 0
M  V30 122 C 11.7297 5.65314 -2.94446 0
M  V30 123 C 9.4167 5.67916 -2.25642 0
M  V30 124 C 10.4147 6.06073 -3.14905 0
M  V30 125 O 10.1027 6.83578 -4.23057 0
M  V30 126 H 9.8347 0.674971 -0.0372899 0
M  V30 127 H 12.3887 1.91037 -0.754599 0
M  V30 128 H 10.6187 3.72295 1.04564 0
M  V30 129 H 12.3077 3.99356 0.72592 0
M  V30 130 H 13.0737 4.54388 -1.69577 0
M  V30 131 H 8.9527 4.58595 -0.470279 0
M  V30 132 H 12.4967 5.95016 -3.64145 0
M  V30 133 H 8.3937 5.98927 -2.40742 0
M  V30 134 H 9.1617 7.01954 -4.20954 0
M  V30 135 N 11.8248 0.280983 1.55075 0
M  V30 136 C 13.0718 -0.334115 1.99725 0
M  V30 137 C 13.3998 -1.5542 1.1694 0
M  V30 138 O 12.6548 -1.94361 0.228531 0
M  V30 139 C 12.9538 -0.754656 3.49342 0
M  V30 140 C 12.6198 0.361445 4.49449 0
M  V30 141 C 11.2818 0.667893 4.76542 0
M  V30 142 C 13.6338 1.11322 5.09173 0
M  V30 143 C 10.9618 1.7296 5.60626 0
M  V30 144 C 13.3138 2.1647 5.9441 0
M  V30 145 C 11.9778 2.47742 6.19822 0
M  V30 146 H 11.2478 -0.122261 0.730844 0
M  V30 147 H 13.8948 0.395917 1.87363 0
M  V30 148 H 12.1998 -1.56446 3.5921 0
M  V30 149 H 13.8968 -1.24142 3.813 0
M  V30 150 H 10.4868 0.112481 4.28452 0
M  V30 151 H 14.6708 0.88973 4.8826 0
M  V30 152 H 9.9268 1.97684 5.78559 0
M  V30 153 H 14.1008 2.75193 6.3972 0
M  V30 154 H 11.7278 3.30145 6.84769 0
M  V30 155 N 13.3029 -1.57598 0.00835791 0
M  V30 156 C 14.7139 -1.7892 -0.53333 0
M  V30 157 C 15.0649 -0.916609 -1.73473 0
M  V30 158 O 14.1899 -0.121336 -2.1606 0
M  V30 159 C 14.7849 -3.24488 -0.974313 0
M  V30 160 C 13.3439 -3.46878 -1.46125 0
M  V30 161 C 12.4909 -2.74157 -0.416302 0
M  V30 162 H 15.4419 -1.56958 0.234495 0
M  V30 163 H 15.4629 -3.3306 -1.83988 0
M  V30 164 H 14.9749 -3.87972 -0.099718 0
M  V30 165 H 13.0759 -2.8862 -2.35646 0
M  V30 166 H 13.1889 -4.55572 -1.48295 0
M  V30 167 H 11.5529 -2.39022 -0.87981 0
M  V30 168 H 12.3359 -3.40345 0.44947 0
M  V30 169 N 14.781 0.264519 -1.55364 0
M  V30 170 C 16.027 0.99646 -1.76631 0
M  V30 171 C 16.36 1.85632 -0.570478 0
M  V30 172 O 15.635 1.89647 0.43175 0
M  V30 173 C 15.918 1.87187 -3.07625 0
M  V30 174 C 15.771 1.04138 -4.37579 0
M  V30 175 C 17.09 2.85749 -3.34717 0
M  V30 176 H 14.209 0.360841 -0.642622 0
M  V30 177 H 16.851 0.268218 -1.88097 0
M  V30 178 H 15.001 2.49279 -2.9798 0
M  V30 179 H 16.673 0.440517 -4.59192 0
M  V30 180 H 14.916 0.345115 -4.32425 0
M  V30 181 H 15.587 1.68729 -5.2558 0
M  V30 182 H 18.063 2.33793 -3.4421 0
M  V30 183 H 16.939 3.44136 -4.27623 0
M  V30 184 H 17.2 3.61311 -2.54768 0
M  V30 185 N 16.2591 1.48442 0.529413 0
M  V30 186 C 17.6751 1.34575 0.858004 0
M  V30 187 C 17.8751 0.3572 1.98309 0
M  V30 188 O 16.9311 -0.221379 2.51528 0
M  V30 189 C 18.2441 2.74617 1.22499 0
M  V30 190 C 19.7921 2.83109 1.33484 0
M  V30 191 C 20.2671 4.23854 1.73526 0
M  V30 192 N 21.7581 4.2653 1.80628 0
M  V30 193 C 22.4931 5.32372 2.12997 0
M  V30 194 N 21.9891 6.48491 2.43786 0
M  V30 195 N 23.7821 5.19766 2.14008 0
M  V30 196 H 15.9331 2.1133 -0.212925 0
M  V30 197 H 18.1961 0.947439 -0.0326199 0
M  V30 198 H 17.9021 3.4852 0.471905 0
M  V30 199 H 17.7761 3.08177 2.17501 0
M  V30 200 H 20.1631 2.09462 2.0787 0
M  V30 201 H 20.2441 2.53168 0.366027 0
M  V30 202 H 19.8881 4.98018 0.997013 0
M  V30 203 H 19.8181 4.5124 2.71459 0
M  V30 204 H 22.3091 3.42772 1.59108 0
M  V30 205 H 22.6221 7.24993 2.67592 0
M  V30 206 H 20.9671 6.51765 2.41304 0
M  V30 207 H 24.1581 4.28066 1.89412 0
M  V30 208 H 24.3311 6.02354 2.38902 0
M  V30 209 N 17.7372 -0.778329 1.37039 0
M  V30 210 C 18.9852 -1.53361 1.31623 0
M  V30 211 C 19.3062 -1.94739 -0.100831 0
M  V30 212 O 18.5762 -1.65797 -1.04347 0
M  V30 213 H 17.1562 -0.568794 0.484234 0
M  V30 214 H 19.8182 -0.926742 1.71457 0
M  V30 215 H 18.9142 -2.43606 1.95096 0
M  V30 216 N 19.2153 -1.21501 -1.00376 0
M  V30 217 C 20.6313 -0.972629 -1.26539 0
M  V30 218 C 20.8313 0.340257 -1.98606 0
M  V30 219 O 19.8873 1.06561 -2.28913 0
M  V30 220 C 21.2003 -2.16404 -2.08781 0
M  V30 221 C 22.7483 -2.20643 -2.22004 0
M  V30 222 C 23.2233 -3.39306 -3.07629 0
M  V30 223 N 24.7143 -3.39401 -3.15217 0
M  V30 224 C 25.4493 -4.27867 -3.81729 0
M  V30 225 N 24.9453 -5.26533 -4.5026 0
M  V30 226 N 26.7383 -4.15672 -3.78382 0
M  V30 227 H 18.8893 -2.05929 -0.520281 0
M  V30 228 H 21.1523 -0.901803 -0.292328 0
M  V30 229 H 20.8583 -3.11554 -1.63178 0
M  V30 230 H 20.7323 -2.15567 -3.09533 0
M  V30 231 H 23.1193 -1.26048 -2.66825 0
M  V30 232 H 23.2003 -2.25523 -1.20718 0
M  V30 233 H 22.8443 -4.34195 -2.63509 0
M  V30 234 H 22.7743 -3.31665 -4.09031 0
M  V30 235 H 25.2653 -2.67997 -2.66432 0
M  V30 236 H 25.5783 -5.90337 -4.98721 0
M  V30 237 H 23.9233 -5.30457 -4.49044 0
M  V30 238 H 27.1143 -3.3785 -3.23998 0
M  V30 239 H 27.2873 -4.84825 -4.2994 0
M  V30 240 N 20.6934 1.19889 -1.02296 0
M  V30 241 C 21.9334 1.91125 -0.724602 0
M  V30 242 C 22.2974 1.77464 0.732835 0
M  V30 243 O 23.4984 2.43241 1.144 0
M  V30 244 C 21.7694 3.38187 -1.15604 0
M  V30 245 S 23.3284 4.27702 -0.980621 0
M  V30 246 H 20.1464 0.66018 -0.263976 0
M  V30 247 H 22.7484 1.44978 -1.31155 0
M  V30 248 H 21.4524 3.45653 -2.21251 0
M  V30 249 H 20.9834 3.89363 -0.562131 0
M  V30 250 H 22.9984 4.96073 0.112225 0
M  V30 251 N 22.1715 0.800033 1.35784 0
M  V30 252 C 23.1345 0.211565 2.28221 0
M  V30 253 C 24.1345 -0.59728 1.49296 0
M  V30 254 O 25.3245 -0.416721 1.69142 0
M  V30 255 C 22.4565 -0.705846 3.33513 0
M  V30 256 H 23.6495 1.02677 2.81776 0
M  V30 257 H 21.2025 0.570211 1.45528 0
M  V30 258 H 21.9375 -1.54498 2.85133 0
M  V30 259 H 21.7225 -0.127655 3.91892 0
M  V30 260 H 23.2125 -1.11211 4.02519 0
M  V30 261 N 23.6496 -1.47581 0.552962 0
M  V30 262 C 24.6126 -2.28439 -0.186605 0
M  V30 263 C 25.6126 -1.36706 -0.84665 0
M  V30 264 O 26.8026 -1.59378 -0.703164 0
M  V30 265 C 23.9346 -3.16264 -1.2724 0
M  V30 266 H 25.1276 -2.95294 0.523609 0
M  V30 267 H 22.6806 -1.532 0.309745 0
M  V30 268 H 23.4156 -2.54091 -2.01514 0
M  V30 269 H 23.2006 -3.83769 -0.803968 0
M  V30 270 H 24.6906 -3.77198 -1.79196 0
M  V30 271 N 25.1277 -0.289203 -1.54924 0
M  V30 272 C 26.0577 0.58549 -2.2604 0
M  V30 273 C 27.0387 1.14753 -1.25562 0
M  V30 274 O 28.2237 1.17906 -1.54311 0
M  V30 275 C 25.3537 1.76305 -2.99222 0
M  V30 276 C 24.3077 1.33191 -4.06748 0
M  V30 277 C 23.6337 2.5937 -4.6758 0
M  V30 278 C 24.9337 0.471775 -5.20165 0
M  V30 279 H 26.6277 -0.00763532 -2.99399 0
M  V30 280 H 24.1737 -0.00511229 -1.43999 0
M  V30 281 H 26.1267 2.38097 -3.47689 0
M  V30 282 H 24.8507 2.38223 -2.23422 0
M  V30 283 H 23.5097 0.737121 -3.59113 0
M  V30 284 H 23.1577 3.19576 -3.88433 0
M  V30 285 H 22.8577 2.31228 -5.40192 0
M  V30 286 H 24.3817 3.21985 -5.18804 0
M  V30 287 H 25.7957 0.995056 -5.64599 0
M  V30 288 H 24.1927 0.284639 -5.99425 0
M  V30 289 H 25.2627 -0.506041 -4.82252 0
M  V30 290 N 26.6058 1.57591 -0.0167156 0
M  V30 291 C 28.0218 1.55946 0.339557 0
M  V30 292 C 28.2218 1.02109 1.73713 0
M  V30 293 O 27.2778 0.662303 2.43659 0
M  V30 294 C 28.5908 3.00037 0.199499 0
M  V30 295 C 30.1388 3.11805 0.273193 0
M  V30 296 C 30.6138 4.57713 0.162068 0
M  V30 297 N 32.1048 4.6268 0.219444 0
M  V30 298 C 32.8398 5.73185 0.157054 0
M  V30 299 N 32.3358 6.92786 0.0442936 0
M  V30 300 N 34.1288 5.61707 0.21014 0
M  V30 301 H 26.2798 1.90921 -0.930758 0
M  V30 302 H 28.5428 0.877674 -0.358319 0
M  V30 303 H 28.2488 3.4333 -0.76273 0
M  V30 304 H 28.1228 3.64387 0.974786 0
M  V30 305 H 30.5098 2.68433 1.22587 0
M  V30 306 H 30.5908 2.50201 -0.532256 0
M  V30 307 H 30.2348 5.01763 -0.78714 0
M  V30 308 H 30.1648 5.17283 0.986222 0
M  V30 309 H 32.6558 3.76649 0.307246 0
M  V30 310 H 32.9688 7.728 0.00304069 0
M  V30 311 H 31.3138 6.94999 0.00968457 0
M  V30 312 H 34.5048 4.6716 0.296546 0
M  V30 313 H 34.6778 6.47807 0.158054 0
M  V30 314 N 28.0839 -0.256276 1.55502 0
M  V30 315 C 29.0169 -1.34321 1.84481 0
M  V30 316 C 29.9949 -1.46802 0.699131 0
M  V30 317 O 31.1789 -1.63165 0.943904 0
M  V30 318 C 28.3059 -2.71779 2.02123 0
M  V30 319 C 27.3519 -2.76496 3.24734 0
M  V30 320 S 28.1849 -2.3405 4.81644 0
M  V30 321 C 29.3409 -3.73452 5.02279 0
M  V30 322 H 29.5739 -1.09539 2.76385 0
M  V30 323 H 27.1069 -0.45678 1.47489 0
M  V30 324 H 29.0649 -3.50932 2.12972 0
M  V30 325 H 27.7259 -2.93803 1.11078 0
M  V30 326 H 26.9189 -3.77424 3.34016 0
M  V30 327 H 26.5209 -2.05379 3.12563 0
M  V30 328 H 28.8129 -4.6887 4.89047 0
M  V30 329 H 29.7559 -3.6911 6.04287 0
M  V30 330 H 30.1639 -3.6553 4.30172 0
M  V30 331 N 29.562 -1.4872 -0.521534 0
M  V30 332 C 30.492 -1.66771 -1.63431 0
M  V30 333 C 31.473 -0.516499 -1.62069 0
M  V30 334 O 32.658 -0.750013 -1.79132 0
M  V30 335 C 29.788 -1.71515 -3.01993 0
M  V30 336 C 28.742 -2.86222 -3.18216 0
M  V30 337 C 28.068 -2.76061 -4.57924 0
M  V30 338 C 29.368 -4.27419 -3.00184 0
M  V30 339 H 31.062 -2.59932 -1.48579 0
M  V30 340 H 28.608 -1.25089 -0.713358 0
M  V30 341 H 30.561 -1.82731 -3.7972 0
M  V30 342 H 29.285 -0.749393 -3.17886 0
M  V30 343 H 27.944 -2.74575 -2.42908 0
M  V30 344 H 27.592 -1.77437 -4.70665 0
M  V30 345 H 27.292 -3.53037 -4.69722 0
M  V30 346 H 28.816 -2.89256 -5.37739 0
M  V30 347 H 30.23 -4.39855 -3.67697 0
M  V30 348 H 28.627 -5.05458 -3.2347 0
M  V30 349 H 29.697 -4.43293 -1.96518 0
M  V30 350 N 31.0401 0.771051 -1.3745 0
M  V30 351 C 31.9701 1.89827 -1.3597 0
M  V30 352 C 32.9511 1.68562 -0.228216 0
M  V30 353 O 34.1361 1.8941 -0.428675 0
M  V30 354 C 31.2661 3.2712 -1.16662 0
M  V30 355 C 30.2201 3.6295 -2.2683 0
M  V30 356 C 29.5461 4.98791 -1.92644 0
M  V30 357 C 30.8461 3.69627 -3.69017 0
M  V30 358 H 32.5401 1.91323 -2.30295 0
M  V30 359 H 30.0861 0.919082 -1.10855 0
M  V30 360 H 32.0391 4.05615 -1.14256 0
M  V30 361 H 30.7631 3.26059 -0.187926 0
M  V30 362 H 29.4221 2.86763 -2.28392 0
M  V30 363 H 29.0701 4.94271 -0.933021 0
M  V30 364 H 28.7701 5.23733 -2.66416 0
M  V30 365 H 30.2941 5.79685 -1.91826 0
M  V30 366 H 31.7081 4.38273 -3.69581 0
M  V30 367 H 30.1051 4.06067 -4.41848 0
M  V30 368 H 31.1751 2.70273 -4.02592 0
M  V30 369 N 32.5182 1.22032 0.997298 0
M  V30 370 C 33.4812 0.987909 2.06816 0
M  V30 371 C 34.4812 -0.0440084 1.6074 0
M  V30 372 O 35.6712 0.194053 1.73116 0
M  V30 373 C 32.8032 0.49132 3.37341 0
M  V30 374 H 33.9962 1.93803 2.28868 0
M  V30 375 H 31.5492 1.03838 1.16822 0
M  V30 376 H 32.2842 -0.463364 3.20973 0
M  V30 377 H 32.0692 1.23575 3.72118 0
M  V30 378 H 33.5592 0.348824 4.16141 0
M  V30 379 N 33.9963 -1.19345 1.0293 0
M  V30 380 C 35.2733 -1.84811 0.640642 0
M  V30 381 C 35.6533 -1.91855 -0.88062 0
M  V30 382 O 35.0013 -1.43587 -1.7775 0
M  V30 383 C 35.2113 -3.23755 1.30321 0
M  V30 384 C 36.5593 -3.99912 1.42673 0
M  V30 385 O 37.5833 -3.33155 1.26041 0
M  V30 386 O 36.4423 -5.19494 1.6967 0
M  V30 387 H 33.5363 -0.796443 0.222726 0
M  V30 388 H 36.0823 -1.26831 1.12748 0
M  V30 389 H 34.8543 -3.13466 2.34211 0
M  V30 390 H 34.4773 -3.89381 0.804261 0
M  V30 391 N 35.4744 -0.807222 -1.35358 0
M  V30 392 C 36.4064 -0.175717 -2.28525 0
M  V30 393 C 37.4194 0.625354 -1.5031 0
M  V30 394 O 38.6084 0.457611 -1.72535 0
M  V30 395 C 35.7084 0.773471 -3.29956 0
M  V30 396 C 34.8814 0.0186296 -4.37396 0
M  V30 397 C 33.9404 0.886395 -5.18681 0
M  V30 398 O 32.9664 0.337106 -5.68201 0
M  V30 399 N 34.1684 2.20839 -5.36852 0
M  V30 400 H 36.9334 -0.976091 -2.83359 0
M  V30 401 H 34.4944 -0.662737 -1.47714 0
M  V30 402 H 36.4864 1.35824 -3.81227 0
M  V30 403 H 35.0564 1.47465 -2.75632 0
M  V30 404 H 34.2764 -0.747349 -3.87051 0
M  V30 405 H 35.5644 -0.501577 -5.06322 0
M  V30 406 H 34.9624 2.67858 -4.98265 0
M  V30 407 H 33.5194 2.74237 -5.91301 0
M  V30 408 N 36.9525 1.47285 -0.560781 0
M  V30 409 C 38.2005 2.02064 -0.0379868 0
M  V30 410 C 38.5215 1.43711 1.31803 0
M  V30 411 O 37.7915 0.61362 1.86042 0
M  V30 412 H 36.3715 0.746918 -0.0110531 0
M  V30 413 H 39.0335 1.80648 -0.731598 0
M  V30 414 H 38.1295 3.12064 0.0474463 0
M  V30 415 N 38.4306 0.297415 1.54768 0
M  V30 416 C 39.3626 -0.613881 2.20826 0
M  V30 417 C 40.3756 -1.10032 1.19987 0
M  V30 418 O 41.5646 -1.01839 1.46598 0
M  V30 419 C 38.6646 -1.852 2.83821 0
M  V30 420 C 37.8376 -1.50865 4.10559 0
M  V30 421 C 36.8966 -2.60154 4.57391 0
M  V30 422 O 35.9226 -2.25398 5.2267 0
M  V30 423 N 37.1246 -3.90629 4.29406 0
M  V30 424 H 39.8896 -0.048389 2.99661 0
M  V30 425 H 37.4506 0.11946 1.61459 0
M  V30 426 H 39.4426 -2.57652 3.12086 0
M  V30 427 H 38.0126 -2.32597 2.08847 0
M  V30 428 H 37.2326 -0.616925 3.89343 0
M  V30 429 H 38.5206 -1.25458 4.9309 0
M  V30 430 H 37.9186 -4.21677 3.77101 0
M  V30 431 H 36.4756 -4.59391 4.62388 0
M  V30 432 N 39.9087 -1.5758 0.0250728 0
M  V30 433 C 41.1337 -1.96337 -0.668317 0
M  V30 434 C 41.5587 -0.901314 -1.651 0
M  V30 435 O 40.9167 0.138187 -1.80773 0
M  V30 436 C 40.9647 -3.34191 -1.35457 0
M  V30 437 O 40.0687 -3.30269 -2.46974 0
M  V30 438 H 39.4097 -0.640281 -0.175887 0
M  V30 439 H 41.9397 -2.0442 0.0857224 0
M  V30 440 H 41.9497 -3.70331 -1.71228 0
M  V30 441 H 40.6247 -4.11036 -0.634218 0
M  V30 442 H 39.2017 -3.05841 -2.13344 0
M  V30 443 N 41.3868 0.248026 -1.55636 0
M  V30 444 C 42.6328 0.973427 -1.78594 0
M  V30 445 C 42.9878 1.83007 -0.593823 0
M  V30 446 O 42.2808 1.87097 0.412961 0
M  V30 447 C 42.4748 1.86819 -3.04686 0
M  V30 448 C 42.3038 1.09965 -4.36048 0
M  V30 449 C 41.0738 0.805204 -4.98843 0
M  V30 450 C 43.2718 0.477783 -5.12076 0
M  V30 451 N 41.2538 0.0124859 -6.13899 0
M  V30 452 C 42.6248 -0.179565 -6.1974 0
M  V30 453 C 44.6798 0.388136 -4.96385 0
M  V30 454 C 43.3828 -0.91795 -7.13419 0
M  V30 455 C 45.4088 -0.336716 -5.90441 0
M  V30 456 C 44.7708 -0.982705 -6.97511 0
M  V30 457 H 40.8698 0.337348 -0.705493 0
M  V30 458 H 43.4538 0.24667 -1.93131 0
M  V30 459 H 41.6248 2.56698 -2.9148 0
M  V30 460 H 43.3568 2.52907 -3.15944 0
M  V30 461 H 40.1118 1.11671 -4.60246 0
M  V30 462 H 40.5358 -0.371933 -6.75978 0
M  V30 463 H 45.1778 0.873237 -4.13684 0
M  V30 464 H 42.8958 -1.41466 -7.95621 0
M  V30 465 H 46.4818 -0.406731 -5.80377 0
M  V30 466 H 45.3618 -1.53464 -7.69037 0
M  V30 467 N 42.8649 1.48995 0.513639 0
M  V30 468 C 43.8119 1.6473 1.61656 0
M  V30 469 C 44.7819 0.488984 1.58739 0
M  V30 470 O 45.9669 0.714478 1.76918 0
M  V30 471 C 43.1069 1.7082 2.99858 0
M  V30 472 C 42.2199 2.9787 3.12885 0
M  V30 473 C 41.3549 2.95017 4.41744 0
M  V30 474 C 40.3939 4.16702 4.48359 0
M  V30 475 N 39.5309 4.11832 5.68629 0
M  V30 476 H 44.3709 2.58909 1.47547 0
M  V30 477 H 41.9079 1.28382 0.71808 0
M  V30 478 H 43.8659 1.72331 3.79944 0
M  V30 479 H 42.4959 0.801181 3.12699 0
M  V30 480 H 41.5479 3.06029 2.25944 0
M  V30 481 H 42.8599 3.8786 3.13633 0
M  V30 482 H 42.0139 2.95021 5.30139 0
M  V30 483 H 40.7529 2.02784 4.43542 0
M  V30 484 H 39.7579 4.16955 3.58369 0
M  V30 485 H 40.9829 5.10113 4.48287 0
M  V30 486 H 38.9289 3.22428 5.71293 0
M  V30 487 H 38.8459 4.95543 5.7094 0
M  V30 488 H 40.1139 4.1592 6.59266 0
M  V30 489 N 44.343 -0.763751 1.37857 0
M  V30 490 C 45.253 -1.90817 1.36478 0
M  V30 491 C 46.269 -1.71997 0.263248 0
M  V30 492 O 47.445 -1.95095 0.499979 0
M  V30 493 C 44.51 -3.2605 1.17864 0
M  V30 494 C 43.571 -3.57467 2.3773 0
M  V30 495 C 42.804 -4.86249 2.19995 0
M  V30 496 O 43.027 -5.57884 1.18836 0
M  V30 497 O 41.961 -5.16911 3.08361 0
M  V30 498 H 45.787 -1.94933 2.32884 0
M  V30 499 H 43.372 -0.907619 1.1867 0
M  V30 500 H 45.254 -4.06924 1.09504 0
M  V30 501 H 43.929 -3.22769 0.245372 0
M  V30 502 H 42.836 -2.76796 2.51664 0
M  V30 503 H 44.169 -3.655 3.29652 0
M  V30 504 N 45.8211 -1.22559 -0.990812 0
M  V30 505 C 46.7311 -1.01394 -2.11557 0
M  V30 506 C 47.7471 0.0383962 -1.73958 0
M  V30 507 O 48.9231 -0.154787 -2.00804 0
M  V30 508 C 45.9881 -0.596569 -3.41529 0
M  V30 509 C 45.0491 -1.72276 -3.93217 0
M  V30 510 C 44.2821 -1.32521 -5.16985 0
M  V30 511 O 44.5051 -0.204909 -5.70032 0
M  V30 512 O 43.4391 -2.14247 -5.62478 0
M  V30 513 H 47.2651 -1.95633 -2.32296 0
M  V30 514 H 44.8501 -1.01172 -1.0993 0
M  V30 515 H 46.7321 -0.374263 -4.19735 0
M  V30 516 H 45.4071 0.316939 -3.22145 0
M  V30 517 H 44.3141 -1.99961 -3.16174 0
M  V30 518 H 45.6471 -2.61421 -4.17037 0
M  V30 519 N 47.2992 1.18797 -1.03562 0
M  V30 520 C 48.5452 1.8893 -0.737113 0
M  V30 521 C 48.8782 1.79837 0.732956 0
M  V30 522 O 48.1532 1.19525 1.5344 0
M  V30 523 C 48.4362 3.39607 -1.19745 0
M  V30 524 C 48.2892 3.57537 -2.72924 0
M  V30 525 C 49.6082 4.33069 -0.783526 0
M  V30 526 H 46.7272 0.686057 -0.269249 0
M  V30 527 H 49.3692 1.39797 -1.28673 0
M  V30 528 H 47.5192 3.81583 -0.729855 0
M  V30 529 H 49.1912 3.24688 -3.27682 0
M  V30 530 H 47.4342 3.00363 -3.12993 0
M  V30 531 H 48.1052 4.63238 -3.00191 0
M  V30 532 H 50.5812 3.98846 -1.18581 0
M  V30 533 H 49.4572 5.3707 -1.13343 0
M  V30 534 H 49.7182 4.40986 0.313681 0
M  V30 535 N 48.7773 0.814389 1.34928 0
M  V30 536 C 50.0233 0.399013 1.98836 0
M  V30 537 C 50.3563 -1.03314 1.64438 0
M  V30 538 O 49.6313 -1.71811 0.911659 0
M  V30 539 C 49.9143 0.591629 3.55207 0
M  V30 540 C 49.7673 2.06928 3.99376 0
M  V30 541 C 51.0863 0.022199 4.40094 0
M  V30 542 H 48.2053 0.146451 0.722303 0
M  V30 543 H 50.8473 1.02537 1.59957 0
M  V30 544 H 48.9973 0.0584441 3.88456 0
M  V30 545 H 50.6693 2.66544 3.76499 0
M  V30 546 H 48.9123 2.56287 3.49999 0
M  V30 547 H 49.5833 2.1549 5.08201 0
M  V30 548 H 52.0593 0.477643 4.13349 0
M  V30 549 H 50.9353 0.186832 5.48582 0
M  V30 550 H 51.1963 -1.07215 4.28902 0
M  V30 551 N 50.2554 -1.46986 0.568584 0
M  V30 552 C 51.4834 -2.0683 0.0539956 0
M  V30 553 C 51.8984 -1.41953 -1.24478 0
M  V30 554 O 51.2554 -0.519933 -1.74937 0
M  V30 555 C 51.3064 -3.61254 -0.133362 0
M  V30 556 O 51.0274 -4.237 1.11399 0
M  V30 557 C 52.5284 -4.37992 -0.683927 0
M  V30 558 H 49.7484 -0.669058 0.0510141 0
M  V30 559 H 52.2924 -1.88824 0.785234 0
M  V30 560 H 50.4474 -3.78735 -0.81477 0
M  V30 561 H 50.8614 -5.16388 0.91888 0
M  V30 562 H 52.3354 -5.46684 -0.764263 0
M  V30 563 H 52.8124 -4.05058 -1.69778 0
M  V30 564 H 53.4184 -4.25283 -0.0378494 0
M  V30 565 N 51.7335 -0.305618 -1.54608 0
M  V30 566 C 52.9795 0.302746 -2.00528 0
M  V30 567 C 53.3125 1.53184 -1.19367 0
M  V30 568 O 52.5875 1.92598 -0.271321 0
M  V30 569 C 52.8705 0.654756 -3.54097 0
M  V30 570 C 52.7235 -0.583793 -4.45995 0
M  V30 571 C 54.0425 1.47947 -4.14487 0
M  V30 572 H 51.1615 0.108564 -0.72896 0
M  V30 573 H 53.8035 -0.418634 -1.85331 0
M  V30 574 H 51.9535 1.26935 -3.67178 0
M  V30 575 H 53.6255 -1.22224 -4.44814 0
M  V30 576 H 51.8685 -1.21615 -4.16404 0
M  V30 577 H 52.5395 -0.293287 -5.5122 0
M  V30 578 H 55.0155 0.96013 -4.04871 0
M  V30 579 H 53.8915 1.69454 -5.22088 0
M  V30 580 H 54.1525 2.47011 -3.66658 0
M  V30 581 N 53.2116 1.57565 -0.0334293 0
M  V30 582 C 54.1216 2.13943 0.962572 0
M  V30 583 C 55.1376 1.09276 1.35406 0
M  V30 584 O 56.3136 1.41355 1.4346 0
M  V30 585 C 53.3786 2.65887 2.22497 0
M  V30 586 C 52.4396 3.85286 1.8935 0
M  V30 587 C 51.6726 4.34743 3.09571 0
M  V30 588 O 51.8956 3.83352 4.22371 0
M  V30 589 O 50.8296 5.26538 2.91618 0
M  V30 590 H 54.6556 2.99333 0.513169 0
M  V30 591 H 52.2406 1.4822 0.18743 0
M  V30 592 H 54.1226 2.99346 2.96598 0
M  V30 593 H 52.7976 1.83578 2.6661 0
M  V30 594 H 51.7046 3.56746 1.1262 0
M  V30 595 H 53.0376 4.68771 1.5005 0
M  V30 596 N 54.6897 -0.239769 1.55765 0
M  V30 597 C 55.9177 -0.98417 1.81994 0
M  V30 598 C 56.3327 -1.7867 0.610124 0
M  V30 599 O 55.6897 -1.77571 -0.421271 0
M  V30 600 C 55.7407 -1.91635 3.06526 0
M  V30 601 O 55.4617 -1.14629 4.22838 0
M  V30 602 C 56.9627 -2.77616 3.45607 0
M  V30 603 H 54.1827 -0.28928 0.605441 0
M  V30 604 H 56.7267 -0.260499 2.02834 0
M  V30 605 H 54.8817 -2.5942 2.87715 0
M  V30 606 H 55.2957 -1.77745 4.93464 0
M  V30 607 H 56.7697 -3.38759 4.35828 0
M  V30 608 H 57.2467 -3.4909 2.6652 0
M  V30 609 H 57.8527 -2.15271 3.66795 0
M  V30 610 N 56.1678 -1.49265 -0.50573 0
M  V30 611 C 57.4138 -1.59723 -1.25937 0
M  V30 612 C 57.7688 -0.278236 -1.90378 0
M  V30 613 O 57.0618 0.72113 -1.77511 0
M  V30 614 C 57.2558 -2.69008 -2.35308 0
M  V30 615 C 57.0848 -4.11405 -1.81592 0
M  V30 616 C 55.8548 -4.78252 -1.63105 0
M  V30 617 C 58.0528 -4.96792 -1.33048 0
M  V30 618 N 56.0348 -6.0498 -1.04269 0
M  V30 619 C 57.4058 -6.13962 -0.863168 0
M  V30 620 C 59.4608 -4.82828 -1.21577 0
M  V30 621 C 58.1638 -7.18705 -0.292489 0
M  V30 622 C 60.1898 -5.87716 -0.65907 0
M  V30 623 C 59.5518 -7.0411 -0.201954 0
M  V30 624 H 55.6508 -0.638864 -0.450973 0
M  V30 625 H 58.2348 -1.86251 -0.567326 0
M  V30 626 H 56.4058 -2.4426 -3.01979 0
M  V30 627 H 58.1378 -2.69013 -3.02348 0
M  V30 628 H 54.8928 -4.34974 -1.87336 0
M  V30 629 H 55.3168 -6.72631 -0.767919 0
M  V30 630 H 59.9588 -3.93159 -1.55518 0
M  V30 631 H 57.6768 -8.08078 0.0591987 0
M  V30 632 H 61.2628 -5.7897 -0.573156 0
M  V30 633 H 60.1428 -7.83885 0.222101 0
M  V30 634 N 57.6459 0.756429 -1.3826 0
M  V30 635 C 58.5779 1.87971 -1.31147 0
M  V30 636 C 59.5909 1.61248 -0.224239 0
M  V30 637 O 60.7799 1.71881 -0.481581 0
M  V30 638 C 57.8799 3.23545 -1.00857 0
M  V30 639 C 57.0529 3.77794 -2.20432 0
M  V30 640 C 56.1119 4.91877 -1.86931 0
M  V30 641 O 55.1379 5.06659 -2.59395 0
M  V30 642 N 56.3399 5.74643 -0.822568 0
M  V30 643 H 59.1049 1.94585 -2.2794 0
M  V30 644 H 56.6659 0.936234 -1.32084 0
M  V30 645 H 58.6579 3.97403 -0.765021 0
M  V30 646 H 57.2279 3.12335 -0.128687 0
M  V30 647 H 56.4479 2.95534 -2.6087 0
M  V30 648 H 57.7359 4.10771 -3.00241 0
M  V30 649 H 57.1339 5.65266 -0.221575 0
M  V30 650 H 55.6909 6.48661 -0.638899 0
M  V30 651 N 59.124 1.23083 0.984299 0
M  V30 652 C 60.034 1.02515 2.11016 0
M  V30 653 C 61.05 -0.0291702 1.73976 0
M  V30 654 O 62.226 0.165434 2.00719 0
M  V30 655 C 59.291 0.614673 3.41208 0
M  V30 656 C 58.352 1.74359 3.92297 0
M  V30 657 C 57.585 1.35261 5.16275 0
M  V30 658 O 57.808 0.235136 5.69915 0
M  V30 659 O 56.742 2.17227 5.61334 0
M  V30 660 H 60.568 1.96862 2.31255 0
M  V30 661 H 58.153 1.01753 1.09392 0
M  V30 662 H 60.035 0.396518 4.1953 0
M  V30 663 H 58.71 -0.299851 3.22308 0
M  V30 664 H 57.617 2.01635 3.1511 0
M  V30 665 H 58.95 2.63629 4.15645 0
M  V30 666 N 60.6021 -1.18246 1.0419 0
M  V30 667 C 61.8501 -1.87886 0.744543 0
M  V30 668 C 62.1711 -1.8082 -0.730006 0
M  V30 669 O 61.4411 -1.22736 -1.52685 0
M  V30 670 H 60.0211 -0.695556 0.272417 0
M  V30 671 H 62.6831 -1.43494 1.31892 0
M  V30 672 H 61.7791 -2.9389 1.05049 0
M  V30 673 N 62.0802 -0.821533 -1.34494 0
M  V30 674 C 63.3052 -0.420873 -2.03085 0
M  V30 675 C 63.7302 0.964915 -1.61465 0
M  V30 676 O 63.0882 1.62763 -0.798607 0
M  V30 677 C 63.1362 -0.529414 -3.56693 0
M  V30 678 O 62.2402 0.451302 -4.09923 0
M  V30 679 H 61.5812 -0.173489 -0.640935 0
M  V30 680 H 64.1112 -1.11157 -1.71771 0
M  V30 681 H 64.1212 -0.404671 -4.05988 0
M  V30 682 H 62.7962 -1.54014 -3.86332 0
M  V30 683 H 61.3732 0.285558 -3.71805 0
M  V30 684 N 63.5583 1.46682 -0.576371 0
M  V30 685 C 64.4883 2.33028 0.148397 0
M  V30 686 C 65.4693 1.44961 0.889956 0
M  V30 687 O 66.6543 1.73789 0.866662 0
M  V30 688 C 63.7843 3.27117 1.1667 0
M  V30 689 C 62.7383 4.24575 0.540386 0
M  V30 690 C 62.0643 5.08126 1.6647 0
M  V30 691 C 63.3643 5.19722 -0.518331 0
M  V30 692 H 65.0583 2.93875 -0.572509 0
M  V30 693 H 62.6043 1.41315 -0.276768 0
M  V30 694 H 64.5573 3.86374 1.68204 0
M  V30 695 H 63.2813 2.64364 1.9178 0
M  V30 696 H 61.9403 3.66571 0.0461769 0
M  V30 697 H 61.5883 4.41762 2.40531 0
M  V30 698 H 61.2883 5.74122 1.25131 0
M  V30 699 H 62.8123 5.70246 2.18293 0
M  V30 700 H 64.2263 5.73232 -0.0883058 0
M  V30 701 H 62.6233 5.94026 -0.851679 0
M  V30 702 H 63.6933 4.64037 -1.40703 0
M  V30 703 N 65.0364 0.313813 1.54444 0
M  V30 704 C 65.9834 -0.55655 2.23989 0
M  V30 705 C 66.9534 -1.11943 1.22711 0
M  V30 706 O 68.1384 -1.16158 1.51367 0
M  V30 707 C 65.2784 -1.71635 2.99392 0
M  V30 708 C 64.3914 -1.18364 4.15468 0
M  V30 709 C 63.5264 -2.30834 4.78424 0
M  V30 710 C 62.5654 -1.74762 5.86622 0
M  V30 711 N 61.7024 -2.80855 6.43479 0
M  V30 712 H 66.5424 0.0430893 2.97969 0
M  V30 713 H 64.0794 0.0330359 1.47063 0
M  V30 714 H 66.0374 -2.39868 3.41349 0
M  V30 715 H 64.6674 -2.28742 2.27765 0
M  V30 716 H 63.7194 -0.393163 3.78363 0
M  V30 717 H 65.0314 -0.733262 4.93381 0
M  V30 718 H 64.1854 -3.0699 5.23299 0
M  V30 719 H 62.9244 -2.79204 3.99871 0
M  V30 720 H 61.9294 -0.970995 5.41158 0
M  V30 721 H 63.1544 -1.2728 6.67066 0
M  V30 722 H 61.1004 -3.28535 5.67804 0
M  V30 723 H 61.0174 -2.40351 7.16776 0
M  V30 724 H 62.2854 -3.5687 6.93011 0
M  V30 725 N 66.5145 -1.57545 0.0417849 0
M  V30 726 C 67.4775 -2.09885 -0.92093 0
M  V30 727 C 68.4775 -1.01648 -1.24596 0
M  V30 728 O 69.6675 -1.27759 -1.1842 0
M  V30 729 C 66.7995 -2.57527 -2.23367 0
M  V30 730 H 67.9925 -2.96236 -0.467382 0
M  V30 731 H 65.5455 -1.5493 -0.206467 0
M  V30 732 H 66.2805 -1.74542 -2.73323 0
M  V30 733 H 66.0655 -3.36613 -2.01083 0
M  V30 734 H 67.5555 -2.98201 -2.92346 0
M  V30 735 N 67.9926 0.231505 -1.5589 0
M  V30 736 C 69.2176 0.978689 -1.82856 0
M  V30 737 C 69.6426 1.77559 -0.620846 0
M  V30 738 O 69.0006 1.76119 0.430305 0
M  V30 739 C 69.0486 1.87997 -3.07716 0
M  V30 740 O 68.1526 2.97393 -2.85712 0
M  V30 741 H 67.4936 0.277663 -0.603158 0
M  V30 742 H 70.0236 0.24783 -2.03093 0
M  V30 743 H 70.0336 2.2917 -3.37558 0
M  V30 744 H 68.7086 1.29417 -3.95252 0
M  V30 745 H 67.2856 2.60238 -2.67078 0
M  V30 746 N 69.4707 1.49531 0.497807 0
M  V30 747 C 70.7107 1.60799 1.26187 0
M  V30 748 C 71.0747 0.289627 1.89803 0
M  V30 749 O 72.2757 0.277512 2.67364 0
M  V30 750 C 70.5467 2.73729 2.29798 0
M  V30 751 S 72.1057 3.04968 3.155 0
M  V30 752 H 68.9237 0.567145 0.428798 0
M  V30 753 H 71.5257 1.87204 0.563477 0
M  V30 754 H 70.2297 3.68036 1.81597 0
M  V30 755 H 69.7607 2.49328 3.04301 0
M  V30 756 H 71.7757 2.46735 4.30507 0
M  V30 757 N 70.9488 -0.749086 1.3866 0
M  V30 758 C 71.8788 -1.8764 1.38973 0
M  V30 759 C 72.8598 -1.68178 0.255004 0
M  V30 760 O 74.0448 -1.88704 0.458754 0
M  V30 761 C 71.1748 -3.25222 1.21851 0
M  V30 762 C 70.1288 -3.59295 2.32575 0
M  V30 763 C 69.4548 -4.95663 2.00555 0
M  V30 764 C 70.7548 -3.63709 3.7485 0
M  V30 765 H 72.4488 -1.87635 2.3331 0
M  V30 766 H 69.9948 -0.901329 1.12303 0
M  V30 767 H 71.9478 -4.03746 1.20695 0
M  V30 768 H 70.6718 -3.25719 0.239775 0
M  V30 769 H 69.3308 -2.83093 2.32925 0
M  V30 770 H 68.9788 -4.92724 1.01154 0
M  V30 771 H 68.6788 -5.19429 2.74714 0
M  V30 772 H 70.2028 -5.7656 2.01024 0
M  V30 773 H 71.6168 -4.32338 3.76506 0
M  V30 774 H 70.0138 -3.98986 4.48252 0
M  V30 775 H 71.0838 -2.63834 4.06841 0
M  V30 776 N 72.4269 -1.23603 -0.977757 0
M  V30 777 C 73.6569 -1.09487 -1.75203 0
M  V30 778 C 74.0649 0.356321 -1.85814 0
M  V30 779 O 73.4079 1.25816 -1.33851 0
M  V30 780 C 73.4699 -1.64905 -3.19447 0
M  V30 781 C 73.1339 -3.13688 -3.32338 0
M  V30 782 C 74.1309 -4.10953 -3.18455 0
M  V30 783 C 71.8159 -3.53449 -3.56902 0
M  V30 784 C 73.8099 -5.45962 -3.28944 0
M  V30 785 C 71.4969 -4.88602 -3.6703 0
M  V30 786 C 72.4949 -5.84668 -3.53062 0
M  V30 787 O 72.1829 -7.17365 -3.62826 0
M  V30 788 H 71.9149 -0.38367 -0.556573 0
M  V30 789 H 74.4689 -1.6398 -1.23693 0
M  V30 790 H 72.6989 -1.04835 -3.72218 0
M  V30 791 H 74.3879 -1.46226 -3.78646 0
M  V30 792 H 75.1539 -3.81577 -2.99372 0
M  V30 793 H 71.0329 -2.79188 -3.66844 0
M  V30 794 H 74.5769 -6.20925 -3.17958 0
M  V30 795 H 70.4739 -5.17653 -3.85623 0
M  V30 796 H 71.2419 -7.2515 -3.79605 0
M  V30 797 N 73.905 1.17692 -1.04816 0
M  V30 798 C 75.153 1.87488 -0.754497 0
M  V30 799 C 75.474 1.81205 0.720407 0
M  V30 800 O 74.744 1.23544 1.52032 0
M  V30 801 H 73.324 0.694101 -0.276102 0
M  V30 802 H 75.986 1.42793 -1.32651 0
M  V30 803 H 75.082 2.93328 -1.06606 0
M  V30 804 N 75.3831 0.828654 1.34056 0
M  V30 805 C 76.3151 0.212052 2.28217 0
M  V30 806 C 77.3281 -0.601362 1.51286 0
M  V30 807 O 78.5171 -0.430104 1.73241 0
M  V30 808 C 75.6171 -0.72088 3.31144 0
M  V30 809 C 74.7901 0.0509587 4.3737 0
M  V30 810 C 73.8491 -0.803766 5.20025 0
M  V30 811 O 72.8751 -0.246667 5.68665 0
M  V30 812 N 74.0771 -2.1227 5.40298 0
M  V30 813 H 76.8421 1.02105 2.81771 0
M  V30 814 H 74.4031 0.686153 1.46641 0
M  V30 815 H 76.3951 -1.29742 3.8334 0
M  V30 816 H 74.9651 -1.43061 2.77943 0
M  V30 817 H 74.1851 0.808831 3.85813 0
M  V30 818 H 75.4731 0.582065 5.0546 0
M  V30 819 H 74.8711 -2.59898 5.02464 0
M  V30 820 H 73.4281 -2.64796 5.95589 0
M  V30 821 N 76.8612 -1.46375 0.584142 0
M  V30 822 C 77.7912 -2.33103 -0.136037 0
M  V30 823 C 78.7722 -1.45431 -0.882255 0
M  V30 824 O 79.9572 -1.74246 -0.857434 0
M  V30 825 C 77.0872 -3.27731 -1.14933 0
M  V30 826 C 76.0412 -4.24855 -0.517862 0
M  V30 827 C 75.3672 -5.09001 -1.63773 0
M  V30 828 C 76.6672 -5.19439 0.545886 0
M  V30 829 H 78.3612 -2.93568 0.588086 0
M  V30 830 H 75.9072 -1.41166 0.284259 0
M  V30 831 H 77.8602 -3.87261 -1.66153 0
M  V30 832 H 76.5842 -2.65377 -1.90375 0
M  V30 833 H 75.2432 -3.6659 -0.0267361 0
M  V30 834 H 74.8912 -4.43031 -2.38185 0
M  V30 835 H 74.5912 -5.74777 -1.22085 0
M  V30 836 H 76.1152 -5.71396 -2.15266 0
M  V30 837 H 77.5292 -5.73177 0.118704 0
M  V30 838 H 75.9262 -5.93566 0.88317 0
M  V30 839 H 76.9962 -4.63285 1.43162 0
M  V30 840 N 78.3393 -0.321999 -1.54275 0
M  V30 841 C 79.7503 0.166384 -1.85957 0
M  V30 842 C 80.1013 1.51747 -1.24367 0
M  V30 843 O 79.2263 2.09317 -0.549124 0
M  V30 844 C 79.8213 0.308681 -3.37391 0
M  V30 845 C 78.3803 0.741286 -3.69028 0
M  V30 846 C 77.5273 -0.137937 -2.76957 0
M  V30 847 H 80.4783 -0.542335 -1.49146 0
M  V30 848 H 80.4993 1.13984 -3.63026 0
M  V30 849 H 80.0113 -0.674809 -3.82188 0
M  V30 850 H 78.1123 1.73458 -3.29762 0
M  V30 851 H 78.2253 0.546118 -4.75977 0
M  V30 852 H 76.5893 0.386251 -2.51754 0
M  V30 853 H 77.3723 -1.11816 -3.2458 0
M  V30 854 N 79.8174 1.5752 -0.0501392 0
M  V30 855 C 80.7644 2.1147 0.924603 0
M  V30 856 C 81.7344 1.02182 1.30951 0
M  V30 857 O 82.9194 1.29723 1.39916 0
M  V30 858 C 80.0594 2.66337 2.19451 0
M  V30 859 C 79.1724 3.89708 1.86418 0
M  V30 860 C 78.3074 4.32893 3.07859 0
M  V30 861 C 77.3464 5.48967 2.70742 0
M  V30 862 N 76.4834 5.87211 3.84874 0
M  V30 863 H 81.3234 2.94465 0.457639 0
M  V30 864 H 78.8604 1.45531 0.214266 0
M  V30 865 H 80.8184 2.96247 2.93758 0
M  V30 866 H 79.4484 1.86141 2.63726 0
M  V30 867 H 78.5004 3.66396 1.02264 0
M  V30 868 H 79.8124 4.74074 1.55096 0
M  V30 869 H 78.9664 4.6435 3.90466 0
M  V30 870 H 77.7054 3.47336 3.42358 0
M  V30 871 H 76.7104 5.17183 1.86551 0
M  V30 872 H 77.9354 6.3624 2.37436 0
M  V30 873 H 75.8814 5.04607 4.19175 0
M  V30 874 H 75.7984 6.66266 3.57247 0
M  V30 875 H 77.0664 6.23282 4.68123 0
M  V30 876 N 81.2955 -0.223234 1.56011 0
M  V30 877 C 82.5425 -0.947875 1.78946 0
M  V30 878 C 82.8705 -1.844 0.618608 0
M  V30 879 O 82.1255 -1.91629 -0.397093 0
M  V30 880 C 82.4245 -1.81948 3.0762 0
M  V30 881 C 82.0905 -1.07672 4.37856 0
M  V30 882 C 80.7525 -0.871544 4.73242 0
M  V30 883 C 83.1045 -0.552081 5.18268 0
M  V30 884 C 80.4325 -0.129791 5.86556 0
M  V30 885 C 82.7845 0.17632 6.32354 0
M  V30 886 C 81.4485 0.39277 6.66343 0
M  V30 887 H 80.7185 -0.346852 0.654809 0
M  V30 888 H 83.3655 -0.216171 1.90276 0
M  V30 889 H 81.6705 -2.61899 2.91404 0
M  V30 890 H 83.3675 -2.38227 3.22566 0
M  V30 891 H 79.9575 -1.24662 4.1007 0
M  V30 892 H 84.1415 -0.698076 4.91366 0
M  V30 893 H 79.3975 0.048153 6.11381 0
M  V30 894 H 83.5715 0.590367 6.93893 0
M  V30 895 H 81.1985 0.969466 7.53993 0
M  V30 896 N 82.7736 -1.49793 -0.48987 0
M  V30 897 C 83.7056 -1.63413 -1.60713 0
M  V30 898 C 84.7186 -0.516329 -1.54395 0
M  V30 899 O 85.9076 -0.788812 -1.60125 0
M  V30 900 C 83.0076 -1.58516 -2.99543 0
M  V30 901 C 82.1806 -2.86016 -3.30928 0
M  V30 902 C 81.2396 -2.74018 -4.49222 0
M  V30 903 O 80.2656 -3.47964 -4.50455 0
M  V30 904 N 81.4676 -1.86309 -5.4979 0
M  V30 905 H 84.2326 -2.59777 -1.49452 0
M  V30 906 H 81.7936 -1.47022 -0.677955 0
M  V30 907 H 83.7856 -1.48128 -3.76617 0
M  V30 908 H 82.3556 -0.69965 -3.0467 0
M  V30 909 H 81.5756 -3.10672 -2.42645 0
M  V30 910 H 82.8636 -3.70521 -3.487 0
M  V30 911 H 82.2616 -1.2551 -5.51601 0
M  V30 912 H 80.8186 -1.81837 -6.25922 0
M  V30 913 N 84.2517 0.741722 -1.39055 0
M  V30 914 C 85.5287 1.49252 -1.26425 0
M  V30 915 C 85.9087 2.10705 0.129144 0
M  V30 916 O 85.2567 1.98045 1.13976 0
M  V30 917 C 85.4667 2.54934 -2.38347 0
M  V30 918 C 86.8147 3.21506 -2.77343 0
M  V30 919 O 87.8387 2.65245 -2.37747 0
M  V30 920 O 86.6977 4.23294 -3.45665 0
M  V30 921 H 83.7917 0.662451 -0.495064 0
M  V30 922 H 86.3377 0.776121 -1.50912 0
M  V30 923 H 85.1097 2.07857 -3.31529 0
M  V30 924 H 84.7327 3.34141 -2.15489 0
M  V30 925 N 85.7298 1.2412 0.971189 0
M  V30 926 C 86.9778 1.07668 1.71032 0
M  V30 927 C 87.2988 -0.385797 1.91146 0
M  V30 928 O 86.5688 -1.27569 1.4867 0
M  V30 929 H 85.1488 0.395429 0.633755 0
M  V30 930 H 87.8108 1.55984 1.16855 0
M  V30 931 H 86.9068 1.57195 2.69622 0
M  V30 932 N 87.2079 -1.17134 1.05439 0
M  V30 933 C 88.4849 -1.83411 0.679699 0
M  V30 934 C 88.8649 -1.9368 -0.839726 0
M  V30 935 O 88.2129 -1.47325 -1.74664 0
M  V30 936 C 88.4229 -3.20918 1.37159 0
M  V30 937 C 89.7709 -3.96796 1.51123 0
M  V30 938 O 90.7949 -3.30406 1.3308 0
M  V30 939 O 89.6539 -5.15778 1.80651 0
M  V30 940 H 86.7479 -0.79154 0.239569 0
M  V30 941 H 89.2939 -1.24411 1.15413 0
M  V30 942 H 88.0659 -3.08428 2.40807 0
M  V30 943 H 87.6889 -3.87587 0.886674 0
M  V30 944 N 88.686 -0.835752 -1.33615 0
M  V30 945 C 89.616 -0.281739 -2.31794 0
M  V30 946 C 90.597 0.608833 -1.58831 0
M  V30 947 O 91.782 0.533035 -1.86741 0
M  V30 948 C 88.912 0.546612 -3.42971 0
M  V30 949 C 87.866 -0.247904 -4.27281 0
M  V30 950 C 87.192 0.704001 -5.30045 0
M  V30 951 C 88.492 -1.46324 -5.01385 0
M  V30 952 H 90.186 -1.10206 -2.78379 0
M  V30 953 H 87.732 -0.531388 -1.33837 0
M  V30 954 H 89.685 0.944467 -4.1068 0
M  V30 955 H 88.409 1.40011 -2.95067 0
M  V30 956 H 87.068 -0.627281 -3.61194 0
M  V30 957 H 86.716 1.55381 -4.78399 0
M  V30 958 H 86.416 0.176524 -5.87335 0
M  V30 959 H 87.94 1.09944 -6.0062 0
M  V30 960 H 89.354 -1.13871 -5.61877 0
M  V30 961 H 87.751 -1.92728 -5.6831 0
M  V30 962 H 88.821 -2.23467 -4.30338 0
M  V30 963 N 90.1641 1.46063 -0.591896 0
M  V30 964 C 91.3921 2.06717 -0.0868936 0
M  V30 965 C 91.8071 1.43916 1.22203 0
M  V30 966 O 91.1641 0.547698 1.74088 0
M  V30 967 C 91.2151 3.6142 0.0758725 0
M  V30 968 O 90.9361 4.21874 -1.18126 0
M  V30 969 C 92.4371 4.39025 0.61416 0
M  V30 970 H 89.6571 0.668162 -0.0616518 0
M  V30 971 H 92.2011 1.8755 -0.815175 0
M  V30 972 H 90.3561 3.79983 0.754413 0
M  V30 973 H 90.7701 5.14861 -1.00092 0
M  V30 974 H 92.2441 5.4783 0.677193 0
M  V30 975 H 92.7211 4.07708 1.63312 0
M  V30 976 H 93.3271 4.2529 -0.0298142 0
M  V30 977 N 91.6422 0.330177 1.54103 0
M  V30 978 C 92.5722 -0.525353 2.27513 0
M  V30 979 C 93.5532 -1.11383 1.2856 0
M  V30 980 O 94.7382 -1.13773 1.57383 0
M  V30 981 C 91.8682 -1.6831 3.03791 0
M  V30 982 C 90.8222 -1.2236 4.10137 0
M  V30 983 C 90.1482 -2.46882 4.74293 0
M  V30 984 C 91.4482 -0.333697 5.21233 0
M  V30 985 H 93.1422 0.087013 2.99274 0
M  V30 986 H 90.6882 0.0432893 1.43935 0
M  V30 987 H 92.6412 -2.28795 3.5388 0
M  V30 988 H 91.3652 -2.32216 2.29659 0
M  V30 989 H 90.0242 -0.64165 3.60941 0
M  V30 990 H 89.6722 -3.09165 3.96769 0
M  V30 991 H 89.3722 -2.16825 5.46133 0
M  V30 992 H 90.8962 -3.08117 5.27159 0
M  V30 993 H 92.3102 -0.845013 5.67038 0
M  V30 994 H 90.7072 -0.125612 5.99969 0
M  V30 995 H 91.7772 0.633724 4.80741 0
M  V30 996 N 93.1203 -1.57491 0.0584922 0
M  V30 997 C 94.3503 -1.9701 -0.622134 0
M  V30 998 C 94.7583 -0.935034 -1.6448 0
M  V30 999 O 94.1013 0.0882904 -1.83488 0
M  V30 1000 C 94.1633 -3.32794 -1.35972 0
M  V30 1001 C 93.8273 -4.54343 -0.492043 0
M  V30 1002 C 94.8243 -5.19323 0.244901 0
M  V30 1003 C 92.5093 -5.00534 -0.420821 0
M  V30 1004 C 94.5033 -6.28835 1.04143 0
M  V30 1005 C 92.1903 -6.09921 0.379389 0
M  V30 1006 C 93.1883 -6.73933 1.10919 0
M  V30 1007 O 92.8763 -7.81216 1.89623 0
M  V30 1008 H 92.6083 -0.653127 -0.174359 0
M  V30 1009 H 95.1623 -2.05029 0.123418 0
M  V30 1010 H 93.3923 -3.21351 -2.15105 0
M  V30 1011 H 95.0813 -3.5701 -1.93129 0
M  V30 1012 H 95.8473 -4.8459 0.19939 0
M  V30 1013 H 91.7263 -4.50496 -0.978474 0
M  V30 1014 H 95.2703 -6.7873 1.61157 0
M  V30 1015 H 91.1673 -6.44089 0.426512 0
M  V30 1016 H 91.9353 -7.98029 1.81913 0
M  V30 1017 N 94.5984 0.214957 -1.56127 0
M  V30 1018 C 95.5304 1.29004 -1.89448 0
M  V30 1019 C 96.5434 1.42716 -0.783326 0
M  V30 1020 O 97.7324 1.43496 -1.06166 0
M  V30 1021 C 94.8324 2.66482 -2.09381 0
M  V30 1022 C 94.0054 2.74633 -3.40434 0
M  V30 1023 C 93.0644 3.9317 -3.49719 0
M  V30 1024 O 92.0904 3.812 -4.227 0
M  V30 1025 N 93.2924 5.07765 -2.81346 0
M  V30 1026 H 96.0574 1.00743 -2.82261 0
M  V30 1027 H 93.6184 0.40497 -1.56753 0
M  V30 1028 H 95.6104 3.44173 -2.12901 0
M  V30 1029 H 94.1804 2.87314 -1.23163 0
M  V30 1030 H 93.4004 1.83368 -3.48955 0
M  V30 1031 H 94.6884 2.77054 -4.26754 0
M  V30 1032 H 94.0864 5.20386 -2.21843 0
M  V30 1033 H 92.6434 5.83474 -2.90519 0
M  V30 1034 N 96.0765 1.50051 0.48192 0
M  V30 1035 C 97.3015 1.64508 1.26301 0
M  V30 1036 C 97.7265 0.323851 1.85291 0
M  V30 1037 O 97.0845 -0.710969 1.66778 0
M  V30 1038 C 97.1325 2.7305 2.35533 0
M  V30 1039 O 96.2365 2.3355 3.39895 0
M  V30 1040 H 95.5775 0.549978 0.372048 0
M  V30 1041 H 98.1075 1.9636 0.574786 0
M  V30 1042 H 98.1175 2.95799 2.8101 0
M  V30 1043 H 96.7925 3.68946 1.91967 0
M  V30 1044 H 95.3695 2.21205 3.00204 0
M  V30 1045 N 97.5546 -0.734337 1.39446 0
M  V30 1046 C 98.5026 -1.86971 1.38364 0
M  V30 1047 C 99.4966 -1.67288 0.266687 0
M  V30 1048 O 100.703 -1.74621 0.436755 0
M  V30 1049 H 97.0776 -0.615474 0.432082 0
M  V30 1050 H 99.0486 -1.85 2.34132 0
M  V30 1051 C 97.7976 -3.2466 1.24465 0
M  V30 1052 H 97.1206 -3.40402 2.09682 0
M  V30 1053 H 98.5606 -4.04292 1.27764 0
M  V30 1054 C 97.0196 -3.36867 -0.0468674 0
M  V30 1055 O 97.5496 -3.88618 -1.01681 0
M  V30 1056 N 95.7556 -2.90391 -0.110145 0
M  V30 1057 H 95.3026 -2.48466 0.679868 0
M  V30 1058 H 95.2606 -2.98939 -0.973799 0
M  V30 1059 N 99.0327 -1.24633 -0.964593 0
M  V30 1060 C 100.261 -1.11501 -1.74285 0
M  V30 1061 C 100.676 0.332165 -1.85855 0
M  V30 1062 O 100.033 1.22903 -1.34911 0
M  V30 1063 C 100.084 -1.75258 -3.16175 0
M  V30 1064 O 99.8047 -3.14318 -3.05182 0
M  V30 1065 C 101.306 -1.67776 -4.10324 0
M  V30 1066 H 98.5257 -0.389407 -0.546446 0
M  V30 1067 H 101.07 -1.64801 -1.21083 0
M  V30 1068 H 99.2247 -1.25954 -3.66353 0
M  V30 1069 H 99.6387 -3.4551 -3.94618 0
M  V30 1070 H 101.113 -2.17064 -5.0753 0
M  V30 1071 H 101.59 -0.639584 -4.34518 0
M  V30 1072 H 102.196 -2.16522 -3.66058 0
M  V30 1073 N 100.511 1.16574 -1.06058 0
M  V30 1074 C 101.76 1.86385 -0.770944 0
M  V30 1075 C 102.073 1.82448 0.705129 0
M  V30 1076 O 103.279 2.47815 1.10905 0
M  V30 1077 C 101.735 3.34466 -1.32893 0
M  V30 1078 C 101.343 3.46883 -2.83507 0
M  V30 1079 C 103.087 4.09548 -1.11672 0
M  V30 1080 C 100.994 4.89036 -3.32562 0
M  V30 1081 H 99.9238 0.698181 -0.284709 0
M  V30 1082 H 102.575 1.31583 -1.27899 0
M  V30 1083 H 100.957 3.88859 -0.748662 0
M  V30 1084 H 102.131 3.02663 -3.47465 0
M  V30 1085 H 100.446 2.85232 -3.03368 0
M  V30 1086 H 103.043 5.14434 -1.45814 0
M  V30 1087 H 103.386 4.16264 -0.0549535 0
M  V30 1088 H 103.919 3.61387 -1.66265 0
M  V30 1089 H 100.658 4.87499 -4.38207 0
M  V30 1090 H 100.178 5.3389 -2.73351 0
M  V30 1091 H 101.857 5.57843 -3.2775 0
M  V30 1092 N 101.989 0.842826 1.3317 0
M  V30 1093 C 102.919 0.294028 2.31641 0
M  V30 1094 C 103.9 -0.600401 1.59151 0
M  V30 1095 O 105.085 -0.523124 1.87022 0
M  V30 1096 C 102.215 -0.528416 3.43257 0
M  V30 1097 C 101.169 0.27056 4.27144 0
M  V30 1098 C 100.495 -0.675881 5.30411 0
M  V30 1099 C 101.795 1.48981 5.00602 0
M  V30 1100 H 103.489 1.11681 2.77791 0
M  V30 1101 H 101.035 0.538478 1.33553 0
M  V30 1102 H 102.988 -0.922674 4.11175 0
M  V30 1103 H 101.712 -1.38445 2.95805 0
M  V30 1104 H 100.371 0.646427 3.60856 0
M  V30 1105 H 100.019 -1.52842 4.79216 0
M  V30 1106 H 99.7189 -0.145374 5.8742 0
M  V30 1107 H 101.243 -1.06757 6.01195 0
M  V30 1108 H 102.657 1.16849 5.61266 0
M  V30 1109 H 101.054 1.95739 5.6728 0
M  V30 1110 H 102.124 2.25746 4.29147 0
M  V30 1111 N 103.467 -1.45747 0.599634 0
M  V30 1112 C 104.883 -1.57424 0.26264 0
M  V30 1113 C 105.083 -1.59222 -1.23493 0
M  V30 1114 O 104.139 -1.51825 -2.01756 0
M  V30 1115 C 105.452 -2.86061 0.926795 0
M  V30 1116 C 107 -2.99722 0.901967 0
M  V30 1117 C 107.475 -4.31119 1.54598 0
M  V30 1118 N 108.966 -4.37858 1.5111 0
M  V30 1119 C 109.701 -5.3818 1.97863 0
M  V30 1120 N 109.197 -6.45083 2.52666 0
M  V30 1121 N 110.99 -5.29487 1.88679 0
M  V30 1122 H 103.141 -1.42823 1.57211 0
M  V30 1123 H 105.404 -0.68235 0.658105 0
M  V30 1124 H 105.11 -2.90605 1.98095 0
M  V30 1125 H 104.984 -3.74563 0.445238 0
M  V30 1126 H 107.371 -2.9475 -0.143617 0
M  V30 1127 H 107.452 -2.12652 1.42171 0
M  V30 1128 H 107.096 -4.36849 2.59085 0
M  V30 1129 H 107.026 -5.16992 1.00132 0
M  V30 1130 H 109.517 -3.61209 1.11068 0
M  V30 1131 H 109.83 -7.17869 2.86155 0
M  V30 1132 H 108.175 -6.45856 2.56701 0
M  V30 1133 H 111.366 -4.44877 1.4561 0
M  V30 1134 H 111.539 -6.07524 2.25429 0
M  V30 1135 N 104.945 -0.338344 -1.53925 0
M  V30 1136 C 105.895 0.536712 -2.21593 0
M  V30 1137 C 106.879 1.07015 -1.20153 0
M  V30 1138 O 108.071 1.00471 -1.45721 0
M  V30 1139 C 105.2 1.68977 -2.98834 0
M  V30 1140 C 104.286 1.17052 -4.07627 0
M  V30 1141 N 104.677 0.372085 -5.0443 0
M  V30 1142 C 102.975 1.44789 -4.21844 0
M  V30 1143 C 103.676 0.0909171 -5.81629 0
M  V30 1144 N 102.652 0.681131 -5.39316 0
M  V30 1145 H 106.454 -0.0804298 -2.9379 0
M  V30 1146 H 103.968 -0.144943 -1.61752 0
M  V30 1147 H 105.965 2.32857 -3.45808 0
M  V30 1148 H 104.625 2.31024 -2.28162 0
M  V30 1149 H 105.636 0.0136217 -5.17898 0
M  V30 1150 H 102.313 2.07313 -3.62391 0
M  V30 1151 H 103.703 -0.552817 -6.69622 0
M  V30 1152 N 106.423 1.57458 -0.0668435 0
M  V30 1153 C 107.353 2.15468 0.899764 0
M  V30 1154 C 108.334 1.08042 1.31381 0
M  V30 1155 O 109.519 1.36054 1.38574 0
M  V30 1156 C 106.649 2.71232 2.16911 0
M  V30 1157 C 105.603 3.83781 1.89463 0
M  V30 1158 C 104.929 4.26127 3.22986 0
M  V30 1159 C 106.229 5.08238 1.20381 0
M  V30 1160 H 107.923 2.96488 0.416529 0
M  V30 1161 H 105.469 1.4262 0.198908 0
M  V30 1162 H 107.422 3.10458 2.84945 0
M  V30 1163 H 106.146 1.87426 2.67468 0
M  V30 1164 H 104.805 3.45051 1.23836 0
M  V30 1165 H 104.453 3.39249 3.71374 0
M  V30 1166 H 104.153 5.01993 3.05413 0
M  V30 1167 H 105.677 4.67966 3.92225 0
M  V30 1168 H 107.091 5.44811 1.78475 0
M  V30 1169 H 105.488 5.89349 1.13083 0
M  V30 1170 H 106.558 4.84558 0.182153 0
M  V30 1171 N 107.901 -0.206675 1.56239 0
M  V30 1172 C 109.149 -0.927007 1.79586 0
M  V30 1173 C 109.47 -1.8427 0.637929 0
M  V30 1174 O 108.74 -1.92849 -0.344398 0
M  V30 1175 H 107.32 -0.345292 0.662407 0
M  V30 1176 H 109.982 -0.21496 1.93711 0
M  V30 1177 H 109.078 -1.52501 2.72305 0
M  V30 1178 N 109.379 -1.50304 -0.473955 0
M  V30 1179 C 110.795 -1.37667 -0.807466 0
M  V30 1180 C 110.995 -0.430555 -1.96846 0
M  V30 1181 O 110.051 0.127874 -2.52176 0
M  V30 1182 C 111.364 -2.78974 -1.12223 0
M  V30 1183 C 112.912 -2.87868 -1.22885 0
M  V30 1184 C 113.387 -4.30003 -1.57676 0
M  V30 1185 N 114.878 -4.3294 -1.64673 0
M  V30 1186 C 115.613 -5.3991 -1.93091 0
M  V30 1187 N 115.109 -6.57092 -2.1955 0
M  V30 1188 N 116.902 -5.27351 -1.94569 0
M  V30 1189 H 109.053 -2.10394 0.291212 0
M  V30 1190 H 111.316 -0.945575 0.0677609 0
M  V30 1191 H 111.022 -3.50031 -0.342229 0
M  V30 1192 H 110.896 -3.16038 -2.05913 0
M  V30 1193 H 113.283 -2.17032 -1.99953 0
M  V30 1194 H 113.364 -2.54352 -0.271814 0
M  V30 1195 H 113.008 -5.01375 -0.81149 0
M  V30 1196 H 112.938 -4.61004 -2.54525 0
M  V30 1197 H 115.429 -3.48441 -1.46277 0
M  V30 1198 H 115.742 -7.34425 -2.405 0
M  V30 1199 H 114.087 -6.60272 -2.16948 0
M  V30 1200 H 117.278 -4.34801 -1.73394 0
M  V30 1201 H 117.451 -6.10805 -2.16381 0
M  V30 1202 N 110.857 0.726932 -1.39834 0
M  V30 1203 C 112.085 1.51613 -1.40787 0
M  V30 1204 C 112.5 1.88799 -0.00451505 0
M  V30 1205 O 111.857 1.54662 0.968809 0
M  V30 1206 C 111.908 2.79863 -2.28821 0
M  V30 1207 O 111.629 2.44253 -3.63692 0
M  V30 1208 C 113.13 3.73837 -2.38245 0
M  V30 1209 H 110.35 0.468264 -0.480593 0
M  V30 1210 H 112.894 0.897607 -1.83748 0
M  V30 1211 H 111.049 3.38027 -1.89252 0
M  V30 1212 H 111.463 3.26695 -4.1033 0
M  V30 1213 H 112.937 4.60699 -3.04073 0
M  V30 1214 H 113.414 4.16153 -1.40403 0
M  V30 1215 H 114.02 3.21589 -2.78317 0
M  V30 1216 N 112.336 1.25143 0.95797 0
M  V30 1217 C 113.266 1.07711 2.07173 0
M  V30 1218 C 114.247 -0.0128462 1.70095 0
M  V30 1219 O 115.432 0.156061 1.93572 0
M  V30 1220 C 112.562 0.691503 3.40346 0
M  V30 1221 C 111.516 1.73132 3.9142 0
M  V30 1222 C 110.842 1.20049 5.21049 0
M  V30 1223 C 112.142 3.1294 4.1817 0
M  V30 1224 H 113.836 2.00873 2.22014 0
M  V30 1225 H 111.382 0.967191 1.06684 0
M  V30 1226 H 113.335 0.556505 4.17709 0
M  V30 1227 H 112.059 -0.275819 3.25433 0
M  V30 1228 H 110.718 1.8547 3.16222 0
M  V30 1229 H 110.366 0.223499 5.02503 0
M  V30 1230 H 110.066 1.89545 5.56189 0
M  V30 1231 H 111.59 1.07782 6.01012 0
M  V30 1232 H 113.004 3.03775 4.86203 0
M  V30 1233 H 111.401 3.79875 4.64559 0
M  V30 1234 H 112.471 3.6025 3.24573 0
M  V30 1235 N 113.814 -1.1601 1.06675 0
M  V30 1236 C 115.062 -1.86264 0.784229 0
M  V30 1237 C 115.383 -1.82328 -0.691488 0
M  V30 1238 O 114.653 -1.25947 -1.50047 0
M  V30 1239 H 113.233 -0.689621 0.28711 0
M  V30 1240 H 115.895 -1.40664 1.34906 0
M  V30 1241 H 114.991 -2.91595 1.11259 0
M  V30 1242 N 115.292 -0.849877 -1.32721 0
M  V30 1243 C 116.222 -0.306308 -2.31482 0
M  V30 1244 C 117.203 0.591952 -1.59468 0
M  V30 1245 O 118.388 0.513199 -1.87296 0
M  V30 1246 C 115.518 0.510204 -3.43532 0
M  V30 1247 C 114.472 -0.293209 -4.26994 0
M  V30 1248 C 113.798 0.647743 -5.30762 0
M  V30 1249 C 115.098 -1.51634 -4.99804 0
M  V30 1250 H 116.792 -1.13153 -2.77195 0
M  V30 1251 H 114.338 -0.545553 -1.33266 0
M  V30 1252 H 116.291 0.900856 -4.11658 0
M  V30 1253 H 115.015 1.36874 -2.96535 0
M  V30 1254 H 113.674 -0.665555 -3.60508 0
M  V30 1255 H 113.322 1.50299 -4.8002 0
M  V30 1256 H 113.022 0.11422 -5.87489 0
M  V30 1257 H 114.546 1.03567 -6.01753 0
M  V30 1258 H 115.96 -1.19824 -5.60638 0
M  V30 1259 H 114.357 -1.98745 -5.66234 0
M  V30 1260 H 115.427 -2.28018 -4.27943 0
M  V30 1261 N 116.77 1.45427 -0.607355 0
M  V30 1262 C 118 2.06314 -0.108656 0
M  V30 1263 C 118.408 1.45269 1.21217 0
M  V30 1264 O 117.751 0.561115 1.74921 0
M  V30 1265 C 117.813 3.59345 0.105618 0
M  V30 1266 C 117.477 4.42723 -1.13337 0
M  V30 1267 C 118.474 4.77715 -2.05145 0
M  V30 1268 C 116.159 4.83478 -1.36213 0
M  V30 1269 C 118.153 5.52317 -3.18158 0
M  V30 1270 C 115.84 5.57835 -2.49527 0
M  V30 1271 C 116.838 5.92171 -3.40327 0
M  V30 1272 O 116.526 6.65019 -4.51669 0
M  V30 1273 H 116.258 0.672782 -0.0658842 0
M  V30 1274 H 118.812 1.87664 -0.834945 0
M  V30 1275 H 117.042 3.76394 0.886796 0
M  V30 1276 H 118.731 4.02076 0.555886 0
M  V30 1277 H 119.497 4.46787 -1.88697 0
M  V30 1278 H 115.376 4.56188 -0.664362 0
M  V30 1279 H 118.92 5.79036 -3.89054 0
M  V30 1280 H 114.817 5.88177 -2.65928 0
M  V30 1281 H 115.585 6.83469 -4.50348 0
M  V30 1282 N 118.248 0.346503 1.53744 0
M  V30 1283 C 119.496 -0.248612 2.00565 0
M  V30 1284 C 119.817 -1.5083 1.23593 0
M  V30 1285 O 119.087 -1.92858 0.343912 0
M  V30 1286 H 117.667 -0.0948564 0.740953 0
M  V30 1287 H 120.329 0.468341 1.89189 0
M  V30 1288 H 119.425 -0.488994 3.08245 0
M  V30 1289 N 119.726 -1.57421 0.075193 0
M  V30 1290 C 120.673 -2.12915 -0.890843 0
M  V30 1291 C 121.643 -1.04252 -1.29309 0
M  V30 1292 O 122.828 -1.31933 -1.37834 0
M  V30 1293 C 119.968 -2.69795 -2.15186 0
M  V30 1294 C 119.081 -3.92624 -1.80194 0
M  V30 1295 C 118.216 -4.37736 -3.00933 0
M  V30 1296 C 117.255 -5.53205 -2.61974 0
M  V30 1297 N 116.392 -5.9326 -3.75483 0
M  V30 1298 H 121.232 -2.95156 -0.410735 0
M  V30 1299 H 118.769 -1.45854 -0.191086 0
M  V30 1300 H 120.727 -3.00883 -2.89008 0
M  V30 1301 H 119.357 -1.90313 -2.60731 0
M  V30 1302 H 118.409 -3.67977 -0.964218 0
M  V30 1303 H 119.721 -4.76482 -1.47534 0
M  V30 1304 H 118.875 -4.70503 -3.8303 0
M  V30 1305 H 117.614 -3.52739 -3.36789 0
M  V30 1306 H 116.619 -5.20086 -1.783 0
M  V30 1307 H 117.844 -6.39936 -2.27284 0
M  V30 1308 H 115.79 -5.11212 -4.11094 0
M  V30 1309 H 115.707 -6.71865 -3.46602 0
M  V30 1310 H 116.975 -6.30651 -4.58148 0
M  V30 1311 N 121.204 0.198386 -1.56346 0
M  V30 1312 C 122.481 0.944982 -1.71258 0
M  V30 1313 C 122.861 2.0151 -0.629048 0
M  V30 1314 O 122.209 2.25639 0.360473 0
M  V30 1315 C 122.419 1.5344 -3.1346 0
M  V30 1316 C 123.767 2.01778 -3.73591 0
M  V30 1317 O 124.791 1.63288 -3.16568 0
M  V30 1318 O 123.65 2.72594 -4.73661 0
M  V30 1319 H 120.744 0.442939 -0.69838 0
M  V30 1320 H 123.29 0.188342 -1.68652 0
M  V30 1321 H 122.062 0.762869 -3.83792 0
M  V30 1322 H 121.685 2.35596 -3.20282 0
M  V30 1323 N 122.682 1.50554 0.465978 0
M  V30 1324 C 123.614 1.65949 1.58093 0
M  V30 1325 C 124.627 0.540827 1.53554 0
M  V30 1326 O 125.816 0.814187 1.5885 0
M  V30 1327 C 122.916 1.63261 2.96983 0
M  V30 1328 C 122.089 2.91245 3.26336 0
M  V30 1329 C 121.148 2.8113 4.44806 0
M  V30 1330 O 120.174 3.55086 4.44862 0
M  V30 1331 N 121.376 1.95032 5.46756 0
M  V30 1332 H 124.141 2.62122 1.45301 0
M  V30 1333 H 121.702 1.48082 0.65448 0
M  V30 1334 H 123.694 1.54101 3.74212 0
M  V30 1335 H 122.264 0.748032 3.03518 0
M  V30 1336 H 121.484 3.14493 2.37672 0
M  V30 1337 H 122.772 3.76022 3.42761 0
M  V30 1338 H 122.17 1.3427 5.49534 0
M  V30 1339 H 120.727 1.91772 6.2295 0
M  V30 1340 N 124.16 -0.719506 1.40217 0
M  V30 1341 C 125.092 -1.84428 1.36084 0
M  V30 1342 C 126.105 -1.60597 0.266913 0
M  V30 1343 O 127.294 -1.70544 0.526983 0
M  V30 1344 C 124.394 -3.20757 1.094 0
M  V30 1345 C 123.567 -3.71817 2.30372 0
M  V30 1346 C 122.626 -4.86748 1.99907 0
M  V30 1347 O 121.652 -4.99603 2.72737 0
M  V30 1348 N 122.854 -5.7226 0.974635 0
M  V30 1349 H 125.619 -1.88473 2.33019 0
M  V30 1350 H 123.18 -0.900885 1.3452 0
M  V30 1351 H 125.172 -3.95235 0.870116 0
M  V30 1352 H 123.742 -3.11884 0.211452 0
M  V30 1353 H 122.962 -2.88514 2.68614 0
M  V30 1354 H 124.25 -4.02666 3.11026 0
M  V30 1355 H 123.648 -5.6448 0.371368 0
M  V30 1356 H 122.205 -6.46739 0.810656 0
M  V30 1357 N 125.638 -1.25649 -0.95132 0
M  V30 1358 C 126.548 -1.08073 -2.08224 0
M  V30 1359 C 127.564 -0.0169666 -1.73992 0
M  V30 1360 O 128.74 -0.218593 -2.0021 0
M  V30 1361 C 125.805 -0.704922 -3.39458 0
M  V30 1362 C 124.866 -1.84699 -3.87537 0
M  V30 1363 C 124.099 -1.48902 -5.12508 0
M  V30 1364 O 124.322 -0.386156 -5.69091 0
M  V30 1365 O 123.256 -2.32033 -5.55378 0
M  V30 1366 H 127.082 -2.02924 -2.25954 0
M  V30 1367 H 124.667 -1.04618 -1.06656 0
M  V30 1368 H 126.549 -0.507609 -4.18332 0
M  V30 1369 H 125.224 0.214291 -3.2299 0
M  V30 1370 H 124.131 -2.09919 -3.09653 0
M  V30 1371 H 125.464 -2.74557 -4.08509 0
M  V30 1372 N 127.117 1.15442 -1.07289 0
M  V30 1373 C 128.08 2.18358 -0.696591 0
M  V30 1374 C 129.08 1.58637 0.262837 0
M  V30 1375 O 130.27 1.74145 0.0438809 0
M  V30 1376 C 127.402 3.4089 -0.0266151 0
M  V30 1377 H 128.595 2.53162 -1.60776 0
M  V30 1378 H 126.148 1.29893 -0.869342 0
M  V30 1379 H 126.883 3.11653 0.896822 0
M  V30 1380 H 126.668 3.85495 -0.716657 0
M  V30 1381 H 128.158 4.17009 0.222028 0
M  V30 1382 N 128.595 0.856903 1.32268 0
M  V30 1383 C 129.558 0.308171 2.27119 0
M  V30 1384 C 130.558 -0.533421 1.51695 0
M  V30 1385 O 131.748 -0.344607 1.70757 0
M  V30 1386 C 128.88 -0.563757 3.36206 0
M  V30 1387 H 130.073 1.14535 2.77167 0
M  V30 1388 H 127.626 0.631421 1.42978 0
M  V30 1389 H 128.361 -1.42266 2.91429 0
M  V30 1390 H 128.146 0.0386749 3.92081 0
M  V30 1391 H 129.636 -0.940386 4.06874 0
M  V30 1392 N 130.073 -1.45103 0.615059 0
M  V30 1393 C 131.003 -2.33339 -0.0865619 0
M  V30 1394 C 131.984 -1.4727 -0.851209 0
M  V30 1395 O 133.169 -1.76026 -0.820281 0
M  V30 1396 C 130.299 -3.30095 -1.07956 0
M  V30 1397 C 129.253 -4.25858 -0.427628 0
M  V30 1398 C 128.579 -5.12361 -1.5294 0
M  V30 1399 C 129.879 -5.18165 0.655944 0
M  V30 1400 H 131.573 -2.92254 0.650224 0
M  V30 1401 H 129.119 -1.40532 0.314138 0
M  V30 1402 H 131.072 -3.90698 -1.57901 0
M  V30 1403 H 129.796 -2.69355 -1.84703 0
M  V30 1404 H 128.455 -3.66564 0.0510292 0
M  V30 1405 H 128.103 -4.47984 -2.28734 0
M  V30 1406 H 127.803 -5.77238 -1.09865 0
M  V30 1407 H 129.327 -5.75833 -2.03098 0
M  V30 1408 H 130.741 -5.72796 0.240257 0
M  V30 1409 H 129.138 -5.91559 1.00888 0
M  V30 1410 H 130.208 -4.60144 1.52957 0
M  V30 1411 N 131.551 -0.354651 -1.53558 0
M  V30 1412 C 132.797 0.238797 -2.01389 0
M  V30 1413 C 133.13 1.49309 -1.2418 0
M  V30 1414 O 132.405 1.91638 -0.332457 0
M  V30 1415 C 132.688 0.541771 -3.56001 0
M  V30 1416 C 132.541 -0.725388 -4.43912 0
M  V30 1417 C 133.86 1.34685 -4.18984 0
M  V30 1418 H 130.979 0.0853177 -0.732045 0
M  V30 1419 H 133.621 -0.477384 -1.83905 0
M  V30 1420 H 131.771 1.15189 -3.71031 0
M  V30 1421 H 133.443 -1.36313 -4.407 0
M  V30 1422 H 131.686 -1.34801 -4.12324 0
M  V30 1423 H 132.357 -0.468505 -5.50008 0
M  V30 1424 H 134.833 0.830837 -4.07721 0
M  V30 1425 H 133.709 1.52759 -5.27215 0
M  V30 1426 H 133.97 2.35221 -3.74331 0
M  V30 1427 N 133.029 1.57378 -0.0835403 0
M  V30 1428 C 134.306 1.85363 0.624507 0
M  V30 1429 C 134.686 0.978239 1.87066 0
M  V30 1430 O 134.034 0.0475908 2.2845 0
M  V30 1431 C 134.244 3.35795 0.950947 0
M  V30 1432 C 135.592 4.03581 1.31939 0
M  V30 1433 O 136.616 3.40609 1.04232 0
M  V30 1434 O 135.475 5.14672 1.83779 0
M  V30 1435 H 132.569 0.766162 0.311329 0
M  V30 1436 H 135.115 1.69307 -0.115362 0
M  V30 1437 H 133.887 3.91244 0.0663899 0
M  V30 1438 H 133.51 3.57154 1.74719 0
M  V30 1439 N 134.507 -0.190092 1.56449 0
M  V30 1440 C 135.44 -1.26375 1.90012 0
M  V30 1441 C 136.418 -1.43705 0.760765 0
M  V30 1442 O 137.602 -1.59014 1.01226 0
M  V30 1443 C 134.729 -2.62962 2.13468 0
M  V30 1444 C 133.775 -2.62474 3.36169 0
M  V30 1445 S 134.608 -2.13412 4.91137 0
M  V30 1446 C 135.764 -3.51812 5.17667 0
M  V30 1447 H 135.997 -0.977181 2.80782 0
M  V30 1448 H 133.53 -0.393814 1.49293 0
M  V30 1449 H 135.488 -3.41583 2.27664 0
M  V30 1450 H 134.149 -2.88828 1.23439 0
M  V30 1451 H 133.342 -3.62918 3.49723 0
M  V30 1452 H 132.944 -1.91937 3.20992 0
M  V30 1453 H 135.236 -4.47706 5.08494 0
M  V30 1454 H 136.179 -3.43148 6.19399 0
M  V30 1455 H 136.587 -3.46956 4.45288 0
M  V30 1456 N 135.985 -1.50799 -0.457987 0
M  V30 1457 C 137.231 -1.62683 -1.21088 0
M  V30 1458 C 137.564 -0.332268 -1.91336 0
M  V30 1459 O 136.839 0.667043 -1.82704 0
M  V30 1460 C 137.122 -2.81615 -2.24422 0
M  V30 1461 C 136.975 -4.20989 -1.58392 0
M  V30 1462 C 138.294 -2.96085 -3.2561 0
M  V30 1463 H 135.413 -0.592087 -0.438864 0
M  V30 1464 H 138.055 -1.83225 -0.50286 0
M  V30 1465 H 136.205 -2.64231 -2.84806 0
M  V30 1466 H 137.877 -4.49994 -1.01504 0
M  V30 1467 H 136.12 -4.24641 -0.886704 0
M  V30 1468 H 136.791 -5.0016 -2.33547 0
M  V30 1469 H 139.267 -3.12042 -2.75262 0
M  V30 1470 H 138.143 -3.80902 -3.95228 0
M  V30 1471 H 138.404 -2.0726 -3.90507 0
M  V30 1472 N 137.463 0.71206 -1.40597 0
M  V30 1473 C 138.411 1.84746 -1.41321 0
M  V30 1474 C 139.405 1.66842 -0.293268 0
M  V30 1475 O 140.611 1.73904 -0.464481 0
M  V30 1476 H 136.986 0.608522 -0.441819 0
M  V30 1477 H 138.957 1.81252 -2.37045 0
M  V30 1478 C 137.706 3.22638 -1.29614 0
M  V30 1479 H 137.029 3.37023 -2.15071 0
M  V30 1480 H 138.469 4.02209 -1.3418 0
M  V30 1481 C 136.928 3.36899 -0.00673121 0
M  V30 1482 O 137.458 3.90186 0.954859 0
M  V30 1483 N 135.664 2.9053 0.0639327 0
M  V30 1484 H 135.211 2.47353 -0.719311 0
M  V30 1485 H 135.169 3.0045 0.926118 0
M  V30 1486 N 138.941 1.26152 0.944643 0
M  V30 1487 C 140.218 1.02247 1.66748 0
M  V30 1488 C 140.598 -0.448202 2.06287 0
M  V30 1489 O 139.946 -1.42779 1.78399 0
M  V30 1490 C 140.156 1.96788 2.88228 0
M  V30 1491 C 141.504 2.25201 3.59958 0
M  V30 1492 O 142.528 1.94626 2.98327 0
M  V30 1493 O 141.387 2.77242 4.70956 0
M  V30 1494 H 138.481 0.388517 0.730057 0
M  V30 1495 H 141.027 1.37348 0.99668 0
M  V30 1496 H 139.799 2.96047 2.55875 0
M  V30 1497 H 139.422 1.62145 3.63035 0
M  V30 1498 N 140.419 -1.14872 1.07899 0
M  V30 1499 C 141.667 -1.85422 0.803941 0
M  V30 1500 C 141.988 -1.83051 -0.67211 0
M  V30 1501 O 141.258 -1.27532 -1.48703 0
M  V30 1502 H 139.838 -0.686537 0.294408 0
M  V30 1503 H 142.5 -1.39226 1.3639 0
M  V30 1504 H 141.596 -2.90399 1.14346 0
M  V30 1505 N 141.898 -0.863906 -1.31812 0
M  V30 1506 C 143.144 -0.472535 -1.97218 0
M  V30 1507 C 143.477 0.971394 -1.68159 0
M  V30 1508 O 142.752 1.68309 -0.974798 0
M  V30 1509 C 143.035 -0.723054 -3.52766 0
M  V30 1510 C 142.888 -2.21608 -3.91421 0
M  V30 1511 C 144.207 -0.185522 -4.39709 0
M  V30 1512 H 141.326 -0.173158 -0.71637 0
M  V30 1513 H 143.968 -1.08403 -1.56041 0
M  V30 1514 H 142.118 -0.202577 -3.87971 0
M  V30 1515 H 143.79 -2.80334 -3.66347 0
M  V30 1516 H 142.033 -2.691 -3.40246 0
M  V30 1517 H 142.704 -2.34203 -4.99853 0
M  V30 1518 H 145.18 -0.630726 -4.11292 0
M  V30 1519 H 144.056 -0.390306 -5.47511 0
M  V30 1520 H 144.317 0.912229 -4.32586 0
M  V30 1521 N 143.376 1.44774 -0.622745 0
M  V30 1522 C 144.286 2.34433 0.0886031 0
M  V30 1523 C 145.302 1.52131 0.844529 0
M  V30 1524 O 146.478 1.84886 0.798691 0
M  V30 1525 C 143.543 3.29986 1.0635 0
M  V30 1526 C 142.604 4.28195 0.307873 0
M  V30 1527 C 141.837 5.19183 1.23633 0
M  V30 1528 O 142.06 5.13918 2.47476 0
M  V30 1529 O 140.994 5.97515 0.725189 0
M  V30 1530 H 144.82 2.96693 -0.648599 0
M  V30 1531 H 142.405 1.44408 -0.382957 0
M  V30 1532 H 144.287 3.88825 1.6246 0
M  V30 1533 H 142.962 2.70269 1.78146 0
M  V30 1534 H 141.869 3.72927 -0.296064 0
M  V30 1535 H 143.202 4.90808 -0.3699 0
M  V30 1536 N 144.854 0.36279 1.53368 0
M  V30 1537 C 146.131 -0.284021 1.93527 0
M  V30 1538 C 146.511 -1.66628 1.29608 0
M  V30 1539 O 145.859 -2.23942 0.45413 0
M  V30 1540 C 146.069 -0.337028 3.47369 0
M  V30 1541 C 147.417 -0.578708 4.20638 0
M  V30 1542 O 148.441 -0.418352 3.53735 0
M  V30 1543 O 147.3 -0.89074 5.39192 0
M  V30 1544 H 144.394 -0.169743 0.809393 0
M  V30 1545 H 146.94 0.41537 1.64538 0
M  V30 1546 H 145.712 0.632217 3.86159 0
M  V30 1547 H 145.335 -1.08243 3.82582 0
M  V30 1548 N 146.332 -1.57332 0.0918853 0
M  V30 1549 C 147.262 -2.16872 -0.865371 0
M  V30 1550 C 148.243 -1.10118 -1.29646 0
M  V30 1551 O 149.428 -1.38242 -1.36392 0
M  V30 1552 C 146.558 -2.74649 -2.12569 0
M  V30 1553 C 145.512 -3.86747 -1.83333 0
M  V30 1554 C 144.838 -4.31212 -3.16166 0
M  V30 1555 C 146.138 -5.10089 -1.1228 0
M  V30 1556 H 147.832 -2.97114 -0.369307 0
M  V30 1557 H 145.378 -1.42918 -0.176194 0
M  V30 1558 H 147.331 -3.14952 -2.7997 0
M  V30 1559 H 146.055 -1.91657 -2.64452 0
M  V30 1560 H 144.714 -3.46978 -1.18331 0
M  V30 1561 H 144.362 -3.45115 -3.6593 0
M  V30 1562 H 144.062 -5.06788 -2.97388 0
M  V30 1563 H 145.586 -4.74146 -3.84731 0
M  V30 1564 H 147 -5.47582 -1.69785 0
M  V30 1565 H 145.397 -5.91073 -1.03693 0
M  V30 1566 H 146.467 -4.84786 -0.105041 0
M  V30 1567 N 147.81 0.181792 -1.56548 0
M  V30 1568 C 149.226 0.53316 -1.50431 0
M  V30 1569 C 149.426 1.85184 -0.794297 0
M  V30 1570 O 148.482 2.50058 -0.350318 0
M  V30 1571 C 149.795 0.575597 -2.9514 0
M  V30 1572 C 151.343 0.663519 -3.05886 0
M  V30 1573 C 151.818 0.736946 -4.52032 0
M  V30 1574 N 153.309 0.800118 -4.56237 0
M  V30 1575 C 154.044 0.877327 -5.66649 0
M  V30 1576 N 153.54 0.916016 -6.86718 0
M  V30 1577 N 155.333 0.915542 -5.54594 0
M  V30 1578 H 147.484 -0.683025 -2.01118 0
M  V30 1579 H 149.747 -0.244988 -0.915797 0
M  V30 1580 H 149.453 -0.324482 -3.502 0
M  V30 1581 H 149.327 1.42572 -3.49218 0
M  V30 1582 H 151.714 1.55403 -2.50867 0
M  V30 1583 H 151.795 -0.21307 -2.54911 0
M  V30 1584 H 151.439 -0.149262 -5.07681 0
M  V30 1585 H 151.369 1.62953 -5.00753 0
M  V30 1586 H 153.86 0.778926 -3.69785 0
M  V30 1587 H 154.173 0.975813 -7.66614 0
M  V30 1588 H 152.518 0.884469 -6.89349 0
M  V30 1589 H 155.709 0.882245 -4.59711 0
M  V30 1590 H 155.882 0.972253 -6.40665 0
M  V30 1591 N 149.288 1.51039 0.449983 0
M  V30 1592 C 150.528 1.64732 1.21007 0
M  V30 1593 C 150.892 0.349865 1.88785 0
M  V30 1594 O 152.093 0.362431 2.66345 0
M  V30 1595 C 150.364 2.80902 2.20973 0
M  V30 1596 S 151.923 3.14851 3.05638 0
M  V30 1597 H 148.741 0.5805 0.410538 0
M  V30 1598 H 151.343 1.88901 0.503634 0
M  V30 1599 H 150.047 3.73627 1.69796 0
M  V30 1600 H 149.578 2.58882 2.96215 0
M  V30 1601 H 151.593 2.60306 4.22439 0
M  V30 1602 N 150.766 -0.704594 1.40972 0
M  V30 1603 C 151.713 -1.81862 1.42109 0
M  V30 1604 C 152.683 -1.63781 0.276593 0
M  V30 1605 O 153.868 -1.84759 0.4763 0
M  V30 1606 C 151.008 -3.19669 1.30022 0
M  V30 1607 C 150.121 -3.49246 2.54267 0
M  V30 1608 C 149.256 -4.76618 2.3454 0
M  V30 1609 C 148.295 -4.99133 3.54306 0
M  V30 1610 N 147.432 -6.17726 3.33706 0
M  V30 1611 H 152.272 -1.80226 2.37324 0
M  V30 1612 H 149.809 -0.880238 1.17857 0
M  V30 1613 H 151.767 -3.99263 1.21018 0
M  V30 1614 H 150.397 -3.20506 0.384192 0
M  V30 1615 H 149.449 -2.64125 2.73756 0
M  V30 1616 H 150.761 -3.61788 3.43381 0
M  V30 1617 H 149.915 -5.64249 2.22952 0
M  V30 1618 H 148.654 -4.66305 1.42867 0
M  V30 1619 H 147.659 -4.09953 3.66359 0
M  V30 1620 H 148.884 -5.11311 4.4692 0
M  V30 1621 H 146.83 -6.08642 2.44725 0
M  V30 1622 H 146.747 -6.30995 4.16391 0
M  V30 1623 H 148.015 -7.08115 3.25873 0
M  V30 1624 N 152.244 -1.26651 -0.937939 0
M  V30 1625 C 153.474 -1.15006 -1.71631 0
M  V30 1626 C 153.882 0.297026 -1.86854 0
M  V30 1627 O 153.225 1.21493 -1.37786 0
M  V30 1628 C 153.287 -1.74984 -3.14039 0
M  V30 1629 C 152.951 -3.24103 -3.2219 0
M  V30 1630 C 153.948 -4.20877 -3.05219 0
M  V30 1631 C 151.633 -3.64625 -3.45476 0
M  V30 1632 C 153.627 -5.56151 -3.11408 0
M  V30 1633 C 151.314 -5.00032 -3.513 0
M  V30 1634 C 152.312 -5.95604 -3.34282 0
M  V30 1635 O 152 -7.28545 -3.3982 0
M  V30 1636 H 151.732 -0.401183 -0.544085 0
M  V30 1637 H 154.286 -1.67832 -1.18413 0
M  V30 1638 H 152.516 -1.16624 -3.68695 0
M  V30 1639 H 154.205 -1.58199 -3.73802 0
M  V30 1640 H 154.971 -3.90908 -2.87081 0
M  V30 1641 H 150.85 -2.90718 -3.57777 0
M  V30 1642 H 154.394 -6.30727 -2.98043 0
M  V30 1643 H 150.291 -5.29659 -3.68959 0
M  V30 1644 H 151.059 -7.3686 -3.56343 0
M  V30 1645 N 153.722 1.14298 -1.08507 0
M  V30 1646 C 154.971 1.84708 -0.810305 0
M  V30 1647 C 155.284 1.83903 0.666271 0
M  V30 1648 O 156.49 2.50112 1.05624 0
M  V30 1649 C 154.946 3.31572 -1.39957 0
M  V30 1650 C 154.554 3.40791 -2.90801 0
M  V30 1651 C 156.298 4.07087 -1.20334 0
M  V30 1652 C 154.205 4.81872 -3.4286 0
M  V30 1653 H 153.135 0.691985 -0.299454 0
M  V30 1654 H 155.786 1.28841 -1.30661 0
M  V30 1655 H 154.168 3.87183 -0.830976 0
M  V30 1656 H 155.342 2.95225 -3.53806 0
M  V30 1657 H 153.657 2.78732 -3.0935 0
M  V30 1658 H 156.254 5.11225 -1.56693 0
M  V30 1659 H 156.597 4.16054 -0.143237 0
M  V30 1660 H 157.13 3.57779 -1.73893 0
M  V30 1661 H 153.869 4.78094 -4.48449 0
M  V30 1662 H 153.389 5.27972 -2.84615 0
M  V30 1663 H 155.068 5.50765 -3.39509 0
M  V30 1664 N 155.201 0.870884 1.31352 0
M  V30 1665 C 156.426 0.495957 2.01383 0
M  V30 1666 C 156.851 -0.904324 1.64935 0
M  V30 1667 O 156.209 -1.59687 0.858466 0
M  V30 1668 C 156.257 0.661433 3.54482 0
M  V30 1669 O 155.361 -0.298851 4.11316 0
M  V30 1670 H 154.702 0.197158 0.634054 0
M  V30 1671 H 157.232 1.17455 1.67527 0
M  V30 1672 H 157.242 0.555072 4.04207 0
M  V30 1673 H 155.917 1.68246 3.8035 0
M  V30 1674 H 154.494 -0.147368 3.72609 0
M  V30 1675 N 156.679 -1.44442 0.630414 0
M  V30 1676 C 157.609 -2.33418 -0.0618083 0
M  V30 1677 C 158.59 -1.48165 -0.835541 0
M  V30 1678 O 159.775 -1.76886 -0.801564 0
M  V30 1679 C 156.905 -3.31222 -1.04449 0
M  V30 1680 C 155.859 -4.26288 -0.382436 0
M  V30 1681 C 155.185 -5.13954 -1.47497 0
M  V30 1682 C 156.485 -5.1744 0.710865 0
M  V30 1683 H 158.179 -2.91548 0.681184 0
M  V30 1684 H 155.725 -1.40191 0.329026 0
M  V30 1685 H 157.678 -3.92351 -1.53748 0
M  V30 1686 H 156.402 -2.71299 -1.81836 0
M  V30 1687 H 155.061 -3.6649 0.0899054 0
M  V30 1688 H 154.709 -4.50385 -2.2397 0
M  V30 1689 H 154.409 -5.7837 -1.03737 0
M  V30 1690 H 155.933 -5.77955 -1.96979 0
M  V30 1691 H 157.347 -5.72509 0.300996 0
M  V30 1692 H 155.744 -5.90455 1.07156 0
M  V30 1693 H 156.814 -4.58496 1.57829 0
M  V30 1694 N 158.157 -0.370918 -1.53173 0
M  V30 1695 C 159.406 0.218249 -2.00516 0
M  V30 1696 C 159.719 1.49429 -1.26215 0
M  V30 1697 O 160.925 2.16239 -1.64174 0
M  V30 1698 C 159.381 0.43948 -3.57207 0
M  V30 1699 C 158.989 -0.822244 -4.4039 0
M  V30 1700 C 160.733 0.986012 -4.1289 0
M  V30 1701 C 158.64 -0.570304 -5.88644 0
M  V30 1702 H 157.57 0.0853333 -0.749156 0
M  V30 1703 H 160.221 -0.490483 -1.76823 0
M  V30 1704 H 158.603 1.20961 -3.77074 0
M  V30 1705 H 159.777 -1.59557 -4.32294 0
M  V30 1706 H 158.092 -1.29238 -3.95836 0
M  V30 1707 H 160.689 1.18991 -5.21292 0
M  V30 1708 H 161.032 1.94972 -3.6782 0
M  V30 1709 H 161.565 0.27592 -3.96842 0
M  V30 1710 H 158.304 -1.50449 -6.38001 0
M  V30 1711 H 157.824 0.164427 -5.99575 0
M  V30 1712 H 159.503 -0.19784 -6.46697 0
M  V30 1713 N 159.635 1.57281 -0.100228 0
M  V30 1714 C 160.865 1.98591 0.569681 0
M  V30 1715 C 161.273 0.978315 1.61943 0
M  V30 1716 O 160.616 -0.0396108 1.83657 0
M  V30 1717 C 160.678 3.36282 1.271 0
M  V30 1718 C 160.342 4.55488 0.371409 0
M  V30 1719 C 161.339 5.18491 -0.382504 0
M  V30 1720 C 159.024 5.01474 0.287965 0
M  V30 1721 C 161.018 6.25852 -1.20779 0
M  V30 1722 C 158.705 6.08701 -0.540965 0
M  V30 1723 C 159.703 6.70755 -1.28749 0
M  V30 1724 O 159.391 7.75914 -2.10269 0
M  V30 1725 H 159.123 0.65752 0.156982 0
M  V30 1726 H 161.677 2.0463 -0.177734 0
M  V30 1727 H 159.907 3.26941 2.0651 0
M  V30 1728 H 161.596 3.62005 1.83595 0
M  V30 1729 H 162.362 4.83891 -0.3278 0
M  V30 1730 H 158.241 4.52932 0.858689 0
M  V30 1731 H 161.785 6.74218 -1.79096 0
M  V30 1732 H 157.682 6.42732 -0.597131 0
M  V30 1733 H 158.45 7.92925 -2.03007 0
M  V30 1734 N 161.113 -0.173488 1.56642 0
M  V30 1735 C 162.341 -0.906095 1.86004 0
M  V30 1736 C 162.756 -1.75921 0.685355 0
M  V30 1737 O 162.113 -1.79198 -0.345578 0
M  V30 1738 C 162.164 -1.78462 3.14378 0
M  V30 1739 O 161.885 -0.965914 4.27319 0
M  V30 1740 C 163.386 -2.62707 3.57071 0
M  V30 1741 H 160.606 -0.263341 0.617165 0
M  V30 1742 H 163.15 -0.174236 2.03756 0
M  V30 1743 H 161.305 -2.46984 2.98459 0
M  V30 1744 H 161.719 -1.56655 5.00559 0
M  V30 1745 H 163.193 -3.19969 4.49804 0
M  V30 1746 H 163.67 -3.37472 2.81086 0
M  V30 1747 H 164.276 -1.99521 3.75595 0
M  V30 1748 N 162.591 -1.51276 -0.441967 0
M  V30 1749 C 163.539 -1.72823 -1.55676 0
M  V30 1750 C 164.533 -0.59445 -1.58627 0
M  V30 1751 O 165.739 -0.775715 -1.62427 0
M  V30 1752 H 162.114 -0.545983 -0.517113 0
M  V30 1753 H 164.085 -2.6628 -1.34675 0
M  V30 1754 C 162.834 -1.86619 -2.93375 0
M  V30 1755 H 162.157 -2.73264 -2.91834 0
M  V30 1756 H 163.597 -2.05709 -3.70756 0
M  V30 1757 C 162.056 -0.624842 -3.31055 0
M  V30 1758 O 162.586 0.222636 -4.01083 0
M  V30 1759 N 160.792 -0.470288 -2.86769 0
M  V30 1760 H 160.339 -1.161 -2.29953 0
M  V30 1761 H 160.297 0.359051 -3.12343 0
M  V30 1762 N 164.069 0.697108 -1.41344 0
M  V30 1763 C 165.299 1.48377 -1.43763 0
M  V30 1764 C 165.707 1.89156 -0.0408726 0
M  V30 1765 O 165.05 1.57239 0.949812 0
M  V30 1766 C 165.112 2.7781 -2.2817 0
M  V30 1767 C 164.776 2.59244 -3.76353 0
M  V30 1768 C 165.773 2.25292 -4.68551 0
M  V30 1769 C 163.458 2.74933 -4.20378 0
M  V30 1770 C 165.452 2.07264 -6.02761 0
M  V30 1771 C 163.139 2.56521 -5.54653 0
M  V30 1772 C 164.137 2.22737 -6.4566 0
M  V30 1773 O 163.825 2.04485 -7.77458 0
M  V30 1774 H 163.557 0.463842 -0.491759 0
M  V30 1775 H 166.111 0.865934 -1.86255 0
M  V30 1776 H 164.341 3.41995 -1.8049 0
M  V30 1777 H 166.03 3.39608 -2.22309 0
M  V30 1778 H 166.796 2.12787 -4.35829 0
M  V30 1779 H 162.675 3.00213 -3.49848 0
M  V30 1780 H 166.219 1.80817 -6.73759 0
M  V30 1781 H 162.116 2.68616 -5.86955 0
M  V30 1782 H 162.884 2.1926 -7.88586 0
M  V30 1783 N 165.547 1.27147 0.931209 0
M  V30 1784 C 166.457 1.11372 2.06478 0
M  V30 1785 C 167.473 0.044645 1.73943 0
M  V30 1786 O 168.649 0.250417 1.99837 0
M  V30 1787 C 165.714 0.758838 3.38294 0
M  V30 1788 C 164.775 1.90841 3.84549 0
M  V30 1789 C 164.008 1.57036 5.10074 0
M  V30 1790 O 164.231 0.476645 5.68405 0
M  V30 1791 O 163.165 2.40839 5.51616 0
M  V30 1792 H 166.991 2.06493 2.22698 0
M  V30 1793 H 164.576 1.06301 1.04978 0
M  V30 1794 H 166.458 0.574098 4.17471 0
M  V30 1795 H 165.133 -0.162879 3.2329 0
M  V30 1796 H 164.04 2.14819 3.06274 0
M  V30 1797 H 165.373 2.81021 4.04089 0
M  V30 1798 N 167.025 -1.13721 1.09112 0
M  V30 1799 C 167.988 -2.17222 0.731241 0
M  V30 1800 C 168.988 -1.59035 -0.237566 0
M  V30 1801 O 170.178 -1.74192 -0.0161704 0
M  V30 1802 C 167.31 -3.40804 0.0808443 0
M  V30 1803 H 168.503 -2.50573 1.64783 0
M  V30 1804 H 166.056 -1.28493 0.889897 0
M  V30 1805 H 166.791 -3.1304 -0.847127 0
M  V30 1806 H 166.576 -3.84306 0.777896 0
M  V30 1807 H 168.066 -4.1731 -0.155657 0
M  V30 1808 N 168.503 -0.877838 -1.30888 0
M  V30 1809 C 169.751 -0.491723 -1.96027 0
M  V30 1810 C 170.072 0.960827 -1.69685 0
M  V30 1811 O 169.342 1.67462 -1.01654 0
M  V30 1812 H 167.922 -0.17885 -0.725273 0
M  V30 1813 H 170.584 -1.11935 -1.59551 0
M  V30 1814 H 169.68 -0.656016 -3.05128 0
M  V30 1815 N 169.982 1.44106 -0.638065 0
M  V30 1816 C 170.929 2.30715 0.062701 0
M  V30 1817 C 171.899 1.43882 0.829883 0
M  V30 1818 O 173.084 1.72775 0.809532 0
M  V30 1819 C 170.224 3.29258 1.03358 0
M  V30 1820 C 169.337 4.31192 0.26409 0
M  V30 1821 C 168.472 5.16825 1.22741 0
M  V30 1822 C 167.511 6.10462 0.447475 0
M  V30 1823 N 166.648 6.8877 1.36161 0
M  V30 1824 H 171.488 2.90096 -0.681781 0
M  V30 1825 H 169.025 1.42925 -0.347988 0
M  V30 1826 H 170.983 3.84886 1.60992 0
M  V30 1827 H 169.613 2.71562 1.74511 0
M  V30 1828 H 168.665 3.77981 -0.428295 0
M  V30 1829 H 169.977 4.97619 -0.343052 0
M  V30 1830 H 169.131 5.77004 1.87487 0
M  V30 1831 H 167.87 4.50488 1.86847 0
M  V30 1832 H 166.875 5.49386 -0.213433 0
M  V30 1833 H 168.1 6.78837 -0.188968 0
M  V30 1834 H 166.046 6.25096 1.98975 0
M  V30 1835 H 165.963 7.51663 0.808656 0
M  V30 1836 H 167.231 7.53467 1.99769 0
M  V30 1837 N 171.46 0.379036 1.52974 0
M  V30 1838 C 172.737 -0.263479 1.93817 0
M  V30 1839 C 173.117 -1.65244 1.31368 0
M  V30 1840 O 172.465 -2.23448 0.477856 0
M  V30 1841 C 172.675 -0.300166 3.47707 0
M  V30 1842 C 174.023 -0.534061 4.21228 0
M  V30 1843 O 175.047 -0.38081 3.54159 0
M  V30 1844 O 173.906 -0.833501 5.40106 0
M  V30 1845 H 171 -0.161149 0.811147 0
M  V30 1846 H 173.546 0.432798 1.64088 0
M  V30 1847 H 172.318 0.673138 3.85467 0
M  V30 1848 H 171.941 -1.04179 3.83709 0
M  V30 1849 N 172.938 -1.57226 0.108567 0
M  V30 1850 C 174.215 -1.86333 -0.594939 0
M  V30 1851 C 174.595 -1.00788 -1.85486 0
M  V30 1852 O 173.943 -0.0839293 -2.28346 0
M  V30 1853 C 174.153 -3.37265 -0.897405 0
M  V30 1854 C 175.501 -4.05629 -1.25501 0
M  V30 1855 O 176.525 -3.42224 -0.987998 0
M  V30 1856 O 175.384 -5.17531 -1.75567 0
M  V30 1857 H 172.478 -0.771018 -0.2991 0
M  V30 1858 H 175.024 -1.69102 0.142283 0
M  V30 1859 H 173.796 -3.913 -0.00413806 0
M  V30 1860 H 173.419 -3.59889 -1.69014 0
M  V30 1861 N 174.416 0.165178 -1.56732 0
M  V30 1862 C 175.646 0.894919 -1.86212 0
M  V30 1863 C 176.054 1.76066 -0.692627 0
M  V30 1864 O 175.397 1.80387 0.347303 0
M  V30 1865 C 175.459 1.8174 -3.10179 0
M  V30 1866 C 175.123 1.13064 -4.42793 0
M  V30 1867 C 176.12 0.493169 -5.17556 0
M  V30 1868 C 173.805 1.12556 -4.89527 0
M  V30 1869 C 175.799 -0.140209 -6.37246 0
M  V30 1870 C 173.486 0.488366 -6.09145 0
M  V30 1871 C 174.484 -0.143411 -6.82849 0
M  V30 1872 O 174.172 -0.77055 -8.00199 0
M  V30 1873 H 173.904 0.265114 -0.621844 0
M  V30 1874 H 176.458 0.168242 -2.0471 0
M  V30 1875 H 174.688 2.58455 -2.87642 0
M  V30 1876 H 176.377 2.4175 -3.26055 0
M  V30 1877 H 177.143 0.489023 -4.82528 0
M  V30 1878 H 173.022 1.60672 -4.32094 0
M  V30 1879 H 176.566 -0.633932 -6.94714 0
M  V30 1880 H 172.463 0.490116 -6.43637 0
M  V30 1881 H 173.231 -0.670408 -8.1575 0
M  V30 1882 N 175.894 1.51508 0.433938 0
M  V30 1883 C 177.14 1.64588 1.18484 0
M  V30 1884 C 177.473 0.362666 1.90784 0
M  V30 1885 O 176.748 -0.637892 1.83742 0
M  V30 1886 C 177.031 2.85149 2.19913 0
M  V30 1887 C 176.884 4.23456 1.51674 0
M  V30 1888 C 178.203 3.01227 3.20858 0
M  V30 1889 H 175.322 0.598994 0.429389 0
M  V30 1890 H 177.964 1.84002 0.473647 0
M  V30 1891 H 176.114 2.68729 2.80566 0
M  V30 1892 H 177.786 4.51552 0.943322 0
M  V30 1893 H 176.029 4.25998 0.819035 0
M  V30 1894 H 176.7 5.03812 2.2556 0
M  V30 1895 H 179.176 3.16382 2.70263 0
M  V30 1896 H 178.052 3.87141 3.89118 0
M  V30 1897 H 178.313 2.13447 3.8716 0
M  V30 1898 N 177.372 -0.689602 1.41712 0
M  V30 1899 C 178.319 -1.80345 1.44029 0
M  V30 1900 C 179.289 -1.63478 0.293948 0
M  V30 1901 O 180.474 -1.84244 0.495869 0
M  V30 1902 C 177.614 -3.18272 1.33405 0
M  V30 1903 C 176.727 -3.46529 2.57956 0
M  V30 1904 C 175.862 -4.74103 2.39582 0
M  V30 1905 C 174.901 -4.95347 3.5958 0
M  V30 1906 N 174.038 -6.14151 3.40239 0
M  V30 1907 H 178.878 -1.77698 2.39222 0
M  V30 1908 H 176.415 -0.867688 1.18784 0
M  V30 1909 H 178.373 -3.97956 1.25246 0
M  V30 1910 H 177.003 -3.2008 0.418164 0
M  V30 1911 H 176.055 -2.61207 2.76542 0
M  V30 1912 H 177.367 -3.58126 3.47199 0
M  V30 1913 H 176.521 -5.61853 2.28924 0
M  V30 1914 H 175.26 -4.64763 1.47805 0
M  V30 1915 H 174.265 -4.06044 3.70686 0
M  V30 1916 H 175.49 -5.06542 4.52318 0
M  V30 1917 H 173.436 -6.06013 2.51167 0
M  V30 1918 H 173.353 -6.26543 4.23061 0
M  V30 1919 H 174.621 -7.04619 3.33365 0
M  V30 1920 N 178.85 -1.27639 -0.924453 0
M  V30 1921 C 179.813 -1.10681 -2.00705 0
M  V30 1922 C 180.813 -0.0497823 -1.60723 0
M  V30 1923 O 182.003 -0.294654 -1.7169 0
M  V30 1924 C 179.135 -0.687164 -3.33902 0
M  V30 1925 H 180.328 -2.06817 -2.17179 0
M  V30 1926 H 177.881 -1.10473 -1.10569 0
M  V30 1927 H 178.616 0.275439 -3.23128 0
M  V30 1928 H 178.401 -1.45061 -3.6428 0
M  V30 1929 H 179.891 -0.590853 -4.13399 0
M  V30 1930 N 180.328 1.1314 -1.09713 0
M  V30 1931 C 181.258 2.20748 -0.761102 0
M  V30 1932 C 182.239 1.68061 0.262566 0
M  V30 1933 O 183.424 1.93765 0.129977 0
M  V30 1934 C 180.554 3.46812 -0.184054 0
M  V30 1935 C 179.508 4.12606 -1.13757 0
M  V30 1936 C 178.834 5.33031 -0.422083 0
M  V30 1937 C 180.134 4.59603 -2.48118 0
M  V30 1938 H 181.828 2.49113 -1.66082 0
M  V30 1939 H 179.374 1.19734 -0.799987 0
M  V30 1940 H 181.327 4.21353 0.0631215 0
M  V30 1941 H 180.051 3.17851 0.750868 0
M  V30 1942 H 178.71 3.40036 -1.37007 0
M  V30 1943 H 178.358 5.00335 0.517072 0
M  V30 1944 H 178.058 5.77999 -1.05788 0
M  V30 1945 H 179.582 6.10325 -0.183277 0
M  V30 1946 H 180.996 5.25552 -2.29059 0
M  V30 1947 H 179.393 5.15321 -3.07514 0
M  V30 1948 H 180.463 3.73971 -3.08665 0
M  V30 1949 N 181.806 0.884767 1.30421 0
M  V30 1950 C 183.217 0.553656 1.78302 0
M  V30 1951 C 183.568 -0.930153 1.7275 0
M  V30 1952 O 182.693 -1.72681 1.30423 0
M  V30 1953 C 183.288 0.998234 3.2376 0
M  V30 1954 C 181.847 0.71854 3.69478 0
M  V30 1955 C 180.994 1.18132 2.50879 0
M  V30 1956 H 183.945 1.06901 1.17294 0
M  V30 1957 H 183.966 0.327118 3.79091 0
M  V30 1958 H 183.478 2.0782 3.27769 0
M  V30 1959 H 181.579 -0.349444 3.70958 0
M  V30 1960 H 181.692 1.30595 4.60958 0
M  V30 1961 H 180.056 0.600669 2.47516 0
M  V30 1962 H 180.839 2.26902 2.57624 0
M  V30 1963 N 183.284 -1.43765 0.645699 0
M  V30 1964 C 184.532 -2.01499 0.155731 0
M  V30 1965 C 184.853 -1.51151 -1.232 0
M  V30 1966 O 184.123 -0.721044 -1.82148 0
M  V30 1967 H 182.703 -0.745003 0.0545817 0
M  V30 1968 H 185.365 -1.76075 0.835677 0
M  V30 1969 H 184.461 -3.1181 0.134577 0
M  V30 1970 N 184.763 -0.387143 -1.52771 0
M  V30 1971 C 185.695 0.484089 -2.2403 0
M  V30 1972 C 186.708 1.02849 -1.26198 0
M  V30 1973 O 187.897 0.931186 -1.52286 0
M  V30 1974 C 184.997 1.68337 -2.94136 0
M  V30 1975 C 184.17 1.26672 -4.18656 0
M  V30 1976 C 183.229 2.33045 -4.7178 0
M  V30 1977 O 182.255 1.94541 -5.34923 0
M  V30 1978 N 183.457 3.64929 -4.5145 0
M  V30 1979 H 186.222 -0.126404 -2.99433 0
M  V30 1980 H 183.783 -0.213392 -1.60488 0
M  V30 1981 H 185.775 2.39019 -3.26577 0
M  V30 1982 H 184.345 2.20025 -2.22053 0
M  V30 1983 H 183.565 0.388878 -3.92277 0
M  V30 1984 H 184.853 0.964964 -4.99566 0
M  V30 1985 H 184.251 3.98974 -4.01044 0
M  V30 1986 H 182.808 4.31651 -4.88386 0
M  V30 1987 N 186.241 1.57166 -0.116904 0
M  V30 1988 C 187.171 2.18222 0.830759 0
M  V30 1989 C 188.152 1.12167 1.27877 0
M  V30 1990 O 189.337 1.40394 1.34176 0
M  V30 1991 C 186.467 2.77996 2.08172 0
M  V30 1992 C 185.421 3.89614 1.77157 0
M  V30 1993 C 184.747 4.36187 3.09265 0
M  V30 1994 C 186.047 5.1181 1.04151 0
M  V30 1995 H 187.741 2.97664 0.321992 0
M  V30 1996 H 185.287 1.4318 0.153434 0
M  V30 1997 H 187.24 3.19366 2.74924 0
M  V30 1998 H 185.964 1.9584 2.6137 0
M  V30 1999 H 184.623 3.48816 1.12796 0
M  V30 2000 H 184.271 3.50893 3.60393 0
M  V30 2001 H 183.971 5.11455 2.89288 0
M  V30 2002 H 185.495 4.80207 3.77139 0
M  V30 2003 H 186.909 5.50214 1.61052 0
M  V30 2004 H 185.306 5.92648 0.942762 0
M  V30 2005 H 186.376 4.84892 0.0279022 0
M  V30 2006 N 187.719 -0.156864 1.56817 0
M  V30 2007 C 188.666 -1.19394 1.97519 0
M  V30 2008 C 189.636 -1.4322 0.841265 0
M  V30 2009 O 190.821 -1.55719 1.10255 0
M  V30 2010 C 187.961 -2.52483 2.35258 0
M  V30 2011 C 187.074 -2.35914 3.61896 0
M  V30 2012 C 186.209 -3.61969 3.88782 0
M  V30 2013 C 185.248 -3.40395 5.08722 0
M  V30 2014 N 184.385 -4.58556 5.31668 0
M  V30 2015 H 189.225 -0.839845 2.85921 0
M  V30 2016 H 186.762 -0.403264 1.41464 0
M  V30 2017 H 188.72 -3.30071 2.55165 0
M  V30 2018 H 187.35 -2.85859 1.49949 0
M  V30 2019 H 186.402 -1.49429 3.49821 0
M  V30 2020 H 187.714 -2.15926 4.49641 0
M  V30 2021 H 186.868 -4.47989 4.09135 0
M  V30 2022 H 185.607 -3.84951 2.9944 0
M  V30 2023 H 184.612 -2.52763 4.88253 0
M  V30 2024 H 185.837 -3.18822 5.99608 0
M  V30 2025 H 183.783 -4.81729 4.45279 0
M  V30 2026 H 183.7 -4.41535 6.13664 0
M  V30 2027 H 184.968 -5.45817 5.5651 0
M  V30 2028 N 189.197 -1.51736 -0.425897 0
M  V30 2029 C 190.608 -1.5732 -1.00536 0
M  V30 2030 C 190.959 -0.403537 -1.92005 0
M  V30 2031 O 190.084 0.478256 -2.11049 0
M  V30 2032 C 190.679 -2.85119 -1.8301 0
M  V30 2033 C 189.238 -2.93236 -2.35987 0
M  V30 2034 C 188.385 -2.52098 -1.15508 0
M  V30 2035 H 191.336 -1.57348 -0.206739 0
M  V30 2036 H 191.357 -2.69526 -2.68581 0
M  V30 2037 H 190.869 -3.7023 -1.16411 0
M  V30 2038 H 188.97 -2.12581 -3.06007 0
M  V30 2039 H 189.083 -3.9713 -2.68001 0
M  V30 2040 H 187.447 -2.05558 -1.50393 0
M  V30 2041 H 188.23 -3.39565 -0.505014 0
M  V30 2042 N 190.675 0.682077 -1.42076 0
M  V30 2043 C 191.922 1.44215 -1.42156 0
M  V30 2044 C 192.25 1.94468 -0.0354186 0
M  V30 2045 O 191.505 1.70816 0.955002 0
M  V30 2046 C 191.804 2.66036 -2.38662 0
M  V30 2047 C 191.47 2.34366 -3.85206 0
M  V30 2048 C 190.132 2.25439 -4.25124 0
M  V30 2049 C 192.484 2.08513 -4.77673 0
M  V30 2050 C 189.812 1.88775 -5.55501 0
M  V30 2051 C 192.164 1.73354 -6.08384 0
M  V30 2052 C 190.828 1.62933 -6.47309 0
M  V30 2053 H 190.098 0.527718 -0.520187 0
M  V30 2054 H 192.745 0.778387 -1.74967 0
M  V30 2055 H 191.05 3.3741 -1.99152 0
M  V30 2056 H 192.747 3.24205 -2.35991 0
M  V30 2057 H 189.337 2.42213 -3.53597 0
M  V30 2058 H 193.521 2.14346 -4.47626 0
M  V30 2059 H 188.777 1.7927 -5.84527 0
M  V30 2060 H 192.951 1.52373 -6.79526 0
M  V30 2061 H 190.578 1.34292 -7.48244 0
M  V30 2062 N 192.153 1.28127 0.917671 0
M  V30 2063 C 193.063 1.13556 2.05286 0
M  V30 2064 C 194.079 0.0630914 1.73886 0
M  V30 2065 O 195.255 0.271598 1.9956 0
M  V30 2066 C 192.32 0.794676 3.3747 0
M  V30 2067 C 191.381 1.94909 3.82504 0
M  V30 2068 C 190.614 1.62437 5.0838 0
M  V30 2069 O 190.837 0.536905 5.67867 0
M  V30 2070 O 189.771 2.46677 5.4903 0
M  V30 2071 H 193.597 2.08844 2.20495 0
M  V30 2072 H 191.182 1.07409 1.03845 0
M  V30 2073 H 193.064 0.618344 4.16839 0
M  V30 2074 H 191.739 -0.128581 3.23445 0
M  V30 2075 H 190.646 2.18055 3.03978 0
M  V30 2076 H 191.979 2.85291 4.01086 0
M  V30 2077 N 193.631 -1.12557 1.10312 0
M  V30 2078 C 194.859 -1.87864 0.866873 0
M  V30 2079 C 195.274 -1.79588 -0.582557 0
M  V30 2080 O 194.631 -1.16887 -1.40156 0
M  V30 2081 C 194.682 -3.37125 1.30496 0
M  V30 2082 O 194.403 -3.45201 2.69755 0
M  V30 2083 C 195.904 -4.29373 1.10243 0
M  V30 2084 H 193.124 -0.594452 0.311236 0
M  V30 2085 H 195.668 -1.42429 1.46745 0
M  V30 2086 H 193.823 -3.80109 0.748081 0
M  V30 2087 H 194.237 -4.38056 2.88457 0
M  V30 2088 H 195.711 -5.32394 1.45811 0
M  V30 2089 H 196.188 -4.39181 0.0409492 0
M  V30 2090 H 196.794 -3.92169 1.64571 0
M  V30 2091 N 195.109 -0.891671 -1.2995 0
M  V30 2092 C 196.039 -0.379797 -2.30391 0
M  V30 2093 C 197.02 0.540919 -1.6127 0
M  V30 2094 O 198.205 0.453352 -1.88834 0
M  V30 2095 C 195.335 0.400654 -3.44981 0
M  V30 2096 C 194.289 -0.428905 -4.25846 0
M  V30 2097 C 193.615 0.478557 -5.32554 0
M  V30 2098 C 194.915 -1.67458 -4.94727 0
M  V30 2099 H 196.609 -1.21914 -2.73454 0
M  V30 2100 H 194.155 -0.587675 -1.31462 0
M  V30 2101 H 196.108 0.769434 -4.14316 0
M  V30 2102 H 194.832 1.27371 -3.0074 0
M  V30 2103 H 193.491 -0.779911 -3.58208 0
M  V30 2104 H 193.139 1.34951 -4.84559 0
M  V30 2105 H 192.839 -0.0727433 -5.87555 0
M  V30 2106 H 194.363 0.843705 -6.04743 0
M  V30 2107 H 195.777 -1.376 -5.56542 0
M  V30 2108 H 194.174 -2.16659 -5.59624 0
M  V30 2109 H 195.244 -2.41518 -4.20473 0
M  V30 2110 N 196.587 1.43421 -0.653314 0
M  V30 2111 C 197.517 2.33487 0.0246656 0
M  V30 2112 C 198.498 1.49475 0.811863 0
M  V30 2113 O 199.683 1.78139 0.773322 0
M  V30 2114 C 196.813 3.32841 0.99166 0
M  V30 2115 C 195.767 4.26842 0.314568 0
M  V30 2116 C 195.093 5.16236 1.39302 0
M  V30 2117 C 196.393 5.16243 -0.793095 0
M  V30 2118 H 198.087 2.90427 -0.727481 0
M  V30 2119 H 195.633 1.39649 -0.351287 0
M  V30 2120 H 197.586 3.94747 1.47487 0
M  V30 2121 H 196.31 2.74158 1.77497 0
M  V30 2122 H 194.969 3.663 -0.148199 0
M  V30 2123 H 194.617 4.53891 2.16776 0
M  V30 2124 H 194.317 5.79948 0.945223 0
M  V30 2125 H 195.841 5.81015 1.87759 0
M  V30 2126 H 197.255 5.71958 -0.392039 0
M  V30 2127 H 195.652 5.88676 -1.16536 0
M  V30 2128 H 196.722 4.55927 -1.65103 0
M  V30 2129 N 198.065 0.39524 1.52563 0
M  V30 2130 C 199.29 -0.187456 2.06551 0
M  V30 2131 C 199.715 -1.39249 1.26457 0
M  V30 2132 O 199.073 -1.78947 0.291151 0
M  V30 2133 C 199.121 -0.529985 3.56684 0
M  V30 2134 O 198.225 -1.62307 3.79118 0
M  V30 2135 H 197.566 -0.0202537 0.663691 0
M  V30 2136 H 200.096 0.564426 1.96661 0
M  V30 2137 H 200.106 -0.792598 4.00227 0
M  V30 2138 H 198.781 0.350987 4.14416 0
M  V30 2139 H 197.358 -1.3537 3.47461 0
M  V30 2140 N 199.544 -1.57102 0.125237 0
M  V30 2141 C 200.476 -2.12726 -0.853237 0
M  V30 2142 C 201.489 -1.07145 -1.22571 0
M  V30 2143 O 202.678 -1.34497 -1.17358 0
M  V30 2144 C 199.778 -2.61709 -2.15317 0
M  V30 2145 C 198.951 -3.91456 -1.95143 0
M  V30 2146 C 198.01 -4.25973 -3.08923 0
M  V30 2147 O 197.036 -4.94682 -2.81564 0
M  V30 2148 N 198.238 -3.83795 -4.35524 0
M  V30 2149 H 201.003 -2.97307 -0.377964 0
M  V30 2150 H 198.564 -1.61792 -0.0590011 0
M  V30 2151 H 200.556 -2.81826 -2.90441 0
M  V30 2152 H 199.126 -1.81974 -2.54174 0
M  V30 2153 H 198.346 -3.80185 -1.04177 0
M  V30 2154 H 199.634 -4.76283 -1.78976 0
M  V30 2155 H 199.032 -3.2839 -4.60626 0
M  V30 2156 H 197.589 -4.09008 -5.07499 0
M  V30 2157 N 201.022 0.148545 -1.56898 0
M  V30 2158 C 201.97 1.20265 -1.99096 0
M  V30 2159 C 202.964 1.44559 -0.883123 0
M  V30 2160 O 204.17 1.4487 -1.0683 0
M  V30 2161 H 200.545 0.404786 -0.63376 0
M  V30 2162 H 202.516 0.82004 -2.86911 0
M  V30 2163 C 201.265 2.52886 -2.3863 0
M  V30 2164 H 200.588 2.35021 -3.23427 0
M  V30 2165 H 202.028 3.25274 -2.7198 0
M  V30 2166 C 200.487 3.13315 -1.23837 0
M  V30 2167 O 201.017 3.98077 -0.538268 0
M  V30 2168 N 199.223 2.72742 -1.00301 0
M  V30 2169 H 198.77 2.03912 -1.5741 0
M  V30 2170 H 198.728 3.13507 -0.236838 0
M  V30 2171 N 202.5 1.5196 0.417844 0
M  V30 2172 C 203.432 1.70895 1.52733 0
M  V30 2173 C 204.445 0.589405 1.51756 0
M  V30 2174 O 205.634 0.864312 1.56179 0
M  V30 2175 C 202.734 1.72627 2.91639 0
M  V30 2176 C 201.907 3.01479 3.16905 0
M  V30 2177 C 200.966 2.95139 4.35637 0
M  V30 2178 O 199.992 3.69059 4.3334 0
M  V30 2179 N 201.194 2.12328 5.40275 0
M  V30 2180 H 203.959 2.66612 1.36888 0
M  V30 2181 H 201.52 1.50089 0.607037 0
M  V30 2182 H 203.512 1.65928 3.6912 0
M  V30 2183 H 202.082 0.844216 3.00985 0
M  V30 2184 H 201.302 3.21895 2.27546 0
M  V30 2185 H 202.59 3.86736 3.30625 0
M  V30 2186 H 201.988 1.51685 5.44985 0
M  V30 2187 H 200.545 2.11494 6.16534 0
M  V30 2188 N 203.978 -0.674533 1.42435 0
M  V30 2189 C 205.226 -1.43175 1.42637 0
M  V30 2190 C 205.547 -1.94951 0.0438992 0
M  V30 2191 O 204.817 -1.7308 -0.917607 0
M  V30 2192 H 203.397 -0.531307 0.525092 0
M  V30 2193 H 206.059 -0.797006 1.77859 0
M  V30 2194 H 205.155 -2.28463 2.12629 0
M  V30 2195 N 205.456 -1.28612 -0.910864 0
M  V30 2196 C 206.704 -1.15705 -1.65701 0
M  V30 2197 C 207.025 0.29416 -1.92769 0
M  V30 2198 O 206.295 1.20331 -1.54588 0
M  V30 2199 H 204.875 -0.425216 -0.614167 0
M  V30 2200 H 207.537 -1.61381 -1.0928 0
M  V30 2201 H 206.633 -1.6988 -2.61815 0
M  V30 2202 N 206.934 1.1197 -1.10907 0
M  V30 2203 C 207.881 2.17846 -0.762345 0
M  V30 2204 C 208.851 1.63995 0.263599 0
M  V30 2205 O 210.036 1.90273 0.141773 0
M  V30 2206 C 207.176 3.44487 -0.205651 0
M  V30 2207 C 206.289 4.12369 -1.28748 0
M  V30 2208 C 205.424 5.26674 -0.691919 0
M  V30 2209 C 204.463 5.86431 -1.75399 0
M  V30 2210 N 203.6 6.92142 -1.17833 0
M  V30 2211 H 208.44 2.46851 -1.6694 0
M  V30 2212 H 205.977 1.21188 -0.833776 0
M  V30 2213 H 207.935 4.16981 0.135037 0
M  V30 2214 H 206.565 3.15884 0.664613 0
M  V30 2215 H 205.617 3.38003 -1.74522 0
M  V30 2216 H 206.929 4.52844 -2.09125 0
M  V30 2217 H 206.083 6.05953 -0.300963 0
M  V30 2218 H 204.822 4.8749 0.143232 0
M  V30 2219 H 203.827 5.05835 -2.15432 0
M  V30 2220 H 205.052 6.27685 -2.59208 0
M  V30 2221 H 202.998 6.54985 -0.364725 0
M  V30 2222 H 202.915 7.31242 -1.91887 0
M  V30 2223 H 204.183 7.75237 -0.81408 0
M  V30 2224 N 208.412 0.89855 1.29475 0
M  V30 2225 C 209.64 0.539261 1.99749 0
M  V30 2226 C 210.055 -0.875716 1.67262 0
M  V30 2227 O 209.412 -1.57786 0.917049 0
M  V30 2228 C 209.463 0.72061 3.54245 0
M  V30 2229 O 209.184 2.07989 3.8558 0
M  V30 2230 C 210.685 0.366118 4.41786 0
M  V30 2231 H 207.905 0.207047 0.638258 0
M  V30 2232 H 210.449 1.20758 1.65039 0
M  V30 2233 H 208.604 0.0994862 3.87272 0
M  V30 2234 H 209.018 2.10841 4.80257 0
M  V30 2235 H 210.492 0.543848 5.49314 0
M  V30 2236 H 210.969 -0.696763 4.33638 0
M  V30 2237 H 211.575 0.964135 4.14228 0
M  V30 2238 N 209.89 -1.43072 0.660911 0
M  V30 2239 C 211.137 -2.01721 0.177445 0
M  V30 2240 C 211.465 -1.5218 -1.21126 0
M  V30 2241 O 210.72 -0.708659 -1.82419 0
M  V30 2242 C 211.019 -3.57103 0.145563 0
M  V30 2243 C 210.685 -4.26021 1.47705 0
M  V30 2244 C 209.347 -4.44563 1.84165 0
M  V30 2245 C 211.699 -4.64983 2.35458 0
M  V30 2246 C 209.027 -4.99334 3.0803 0
M  V30 2247 C 211.379 -5.21127 3.58622 0
M  V30 2248 C 210.043 -5.37884 3.95268 0
M  V30 2249 H 209.313 -0.73815 0.0649317 0
M  V30 2250 H 211.96 -1.71446 0.853144 0
M  V30 2251 H 210.265 -3.86965 -0.61361 0
M  V30 2252 H 211.962 -4.00248 -0.2455 0
M  V30 2253 H 208.552 -4.11939 1.18339 0
M  V30 2254 H 212.736 -4.50343 2.08579 0
M  V30 2255 H 207.992 -5.10493 3.36462 0
M  V30 2256 H 212.166 -5.50262 4.26831 0
M  V30 2257 H 209.793 -5.80089 4.91325 0
M  V30 2258 N 211.368 -0.403325 -1.52352 0
M  V30 2259 C 212.617 0.175668 -2.00934 0
M  V30 2260 C 212.93 1.46718 -1.29356 0
M  V30 2261 O 214.136 2.12708 -1.68724 0
M  V30 2262 C 212.592 0.363612 -3.58058 0
M  V30 2263 C 212.2 -0.915472 -4.38547 0
M  V30 2264 C 213.944 0.89821 -4.14888 0
M  V30 2265 C 211.851 -0.695035 -5.87302 0
M  V30 2266 H 210.781 0.0694234 -0.750797 0
M  V30 2267 H 213.432 -0.527879 -1.75743 0
M  V30 2268 H 211.814 1.12935 -3.79555 0
M  V30 2269 H 212.988 -1.68691 -4.28812 0
M  V30 2270 H 211.303 -1.37606 -3.93006 0
M  V30 2271 H 213.9 1.07907 -5.23699 0
M  V30 2272 H 214.243 1.87126 -3.71873 0
M  V30 2273 H 214.776 0.191681 -3.97338 0
M  V30 2274 H 211.515 -1.63948 -6.34666 0
M  V30 2275 H 211.035 0.0372116 -5.99788 0
M  V30 2276 H 212.714 -0.33497 -6.46132 0
M  V30 2277 N 212.846 1.57033 -0.133567 0
M  V30 2278 C 214.092 1.95976 0.521649 0
M  V30 2279 C 214.425 1.01779 1.65393 0
M  V30 2280 O 213.7 0.0576581 1.94415 0
M  V30 2281 C 213.983 3.44738 1.04057 0
M  V30 2282 C 213.836 4.49711 -0.0892897 0
M  V30 2283 C 215.155 3.95682 1.92675 0
M  V30 2284 H 212.274 0.712579 0.188149 0
M  V30 2285 H 214.916 1.88813 -0.212076 0
M  V30 2286 H 213.066 3.50973 1.66583 0
M  V30 2287 H 214.738 4.55565 -0.725152 0
M  V30 2288 H 212.981 4.27261 -0.750378 0
M  V30 2289 H 213.652 5.51099 0.315284 0
M  V30 2290 H 216.128 3.91841 1.39998 0
M  V30 2291 H 215.004 5.00262 2.25897 0
M  V30 2292 H 215.265 3.37239 2.85872 0
M  V30 2293 N 214.325 -0.140222 1.56975 0
M  V30 2294 C 215.573 -0.850005 1.83356 0
M  V30 2295 C 215.894 -1.81399 0.71551 0
M  V30 2296 O 215.164 -1.94136 -0.262294 0
M  V30 2297 H 213.744 -0.316886 0.676456 0
M  V30 2298 H 216.406 -0.132608 1.94448 0
M  V30 2299 H 215.502 -1.40814 2.78528 0
M  V30 2300 N 215.803 -1.52179 -0.40978 0
M  V30 2301 C 217.08 -1.56769 -1.16974 0
M  V30 2302 C 217.46 -0.348322 -2.08206 0
M  V30 2303 O 216.808 0.664862 -2.18613 0
M  V30 2304 C 217.018 -2.89603 -1.9476 0
M  V30 2305 C 218.366 -3.42579 -2.50849 0
M  V30 2306 O 219.39 -2.91338 -2.04941 0
M  V30 2307 O 218.249 -4.32054 -3.34652 0
M  V30 2308 H 215.343 -0.631439 -0.534054 0
M  V30 2309 H 217.889 -1.64507 -0.416613 0
M  V30 2310 H 216.661 -3.698 -1.27921 0
M  V30 2311 H 216.284 -2.85155 -2.77079 0
M  V30 2312 N 217.281 0.66697 -1.42791 0
M  V30 2313 C 218.213 1.7925 -1.42836 0
M  V30 2314 C 219.226 1.59496 -0.326333 0
M  V30 2315 O 220.415 1.6847 -0.589916 0
M  V30 2316 C 217.515 3.16476 -1.21229 0
M  V30 2317 C 216.688 3.63011 -2.44013 0
M  V30 2318 C 215.747 4.78993 -2.17834 0
M  V30 2319 O 214.773 4.89137 -2.91091 0
M  V30 2320 N 215.975 5.68248 -1.18635 0
M  V30 2321 H 218.74 1.79695 -2.39854 0
M  V30 2322 H 216.301 0.850338 -1.37771 0
M  V30 2323 H 218.293 3.91734 -1.01621 0
M  V30 2324 H 216.863 3.10884 -0.32706 0
M  V30 2325 H 216.083 2.78346 -2.79137 0
M  V30 2326 H 217.371 3.90845 -3.25757 0
M  V30 2327 H 216.769 5.62712 -0.580615 0
M  V30 2328 H 215.326 6.43285 -1.05013 0
M  V30 2329 N 218.759 1.29093 0.90403 0
M  V30 2330 C 220.008 1.16187 1.64874 0
M  V30 2331 C 220.321 -0.286742 1.93487 0
M  V30 2332 O 221.527 -0.537062 2.66135 0
M  V30 2333 C 219.983 2.03177 2.97064 0
M  V30 2334 C 219.591 3.52836 2.76062 0
M  V30 2335 C 221.335 1.98984 3.74974 0
M  V30 2336 C 219.242 4.31945 4.03952 0
M  V30 2337 H 218.172 0.431246 0.618501 0
M  V30 2338 H 220.823 1.53699 1.00243 0
M  V30 2339 H 219.205 1.5853 3.62883 0
M  V30 2340 H 220.379 4.05507 2.18863 0
M  V30 2341 H 218.694 3.58656 2.11553 0
M  V30 2342 H 221.291 2.55351 4.69787 0
M  V30 2343 H 221.634 0.968815 4.0487 0
M  V30 2344 H 222.167 2.41652 3.15989 0
M  V30 2345 H 218.906 5.34667 3.79225 0
M  V30 2346 H 218.426 3.84045 4.60727 0
M  V30 2347 H 220.105 4.42379 4.72133 0
M  V30 2348 N 220.237 -1.11381 1.11499 0
M  V30 2349 C 221.462 -1.87475 0.887019 0
M  V30 2350 C 221.887 -1.79639 -0.557796 0
M  V30 2351 O 221.245 -1.15924 -1.39396 0
M  V30 2352 C 221.293 -3.34213 1.35403 0
M  V30 2353 O 220.397 -4.0903 0.526146 0
M  V30 2354 H 219.738 -0.582099 0.319463 0
M  V30 2355 H 222.268 -1.40785 1.48461 0
M  V30 2356 H 222.278 -3.8506 1.34881 0
M  V30 2357 H 220.953 -3.39232 2.40612 0
M  V30 2358 H 219.53 -3.68082 0.597522 0
M  V30 2359 N 221.715 -0.905404 -1.28997 0
M  V30 2360 C 222.962 -0.534248 -1.95325 0
M  V30 2361 C 223.29 0.920535 -1.71337 0
M  V30 2362 O 222.545 1.66861 -1.02254 0
M  V30 2363 C 222.844 -0.779906 -3.48787 0
M  V30 2364 C 222.51 -2.21293 -3.92861 0
M  V30 2365 C 221.172 -2.60475 -4.04606 0
M  V30 2366 C 223.524 -3.14587 -4.15553 0
M  V30 2367 C 220.852 -3.9212 -4.36416 0
M  V30 2368 C 223.204 -4.45787 -4.48839 0
M  V30 2369 C 221.868 -4.84834 -4.58794 0
M  V30 2370 H 221.138 -0.195495 -0.714747 0
M  V30 2371 H 223.785 -1.14514 -1.53488 0
M  V30 2372 H 222.09 -0.0861365 -3.91705 0
M  V30 2373 H 223.787 -0.472029 -3.98212 0
M  V30 2374 H 220.377 -1.89887 -3.84241 0
M  V30 2375 H 224.561 -2.85528 -4.0594 0
M  V30 2376 H 219.817 -4.22086 -4.42327 0
M  V30 2377 H 223.991 -5.18098 -4.65346 0
M  V30 2378 H 221.618 -5.86877 -4.83197 0
M  V30 2379 N 223.193 1.4272 -0.668489 0
M  V30 2380 C 224.156 2.292 0.00448567 0
M  V30 2381 C 225.156 1.43001 0.735339 0
M  V30 2382 O 226.346 1.64461 0.57429 0
M  V30 2383 C 223.478 3.25375 1.01705 0
M  V30 2384 H 224.671 2.90199 -0.756608 0
M  V30 2385 H 222.224 1.50254 -0.430506 0
M  V30 2386 H 222.959 2.69301 1.80686 0
M  V30 2387 H 222.744 3.88944 0.496463 0
M  V30 2388 H 224.234 3.90245 1.48655 0
M  V30 2389 N 224.671 0.411399 1.52136 0
M  V30 2390 C 225.948 -0.222308 1.94333 0
M  V30 2391 C 226.328 -1.6242 1.34844 0
M  V30 2392 O 225.676 -2.22384 0.525145 0
M  V30 2393 C 225.886 -0.226345 3.48265 0
M  V30 2394 C 227.234 -0.444592 4.22266 0
M  V30 2395 O 228.258 -0.305602 3.54887 0
M  V30 2396 O 227.117 -0.718749 5.41753 0
M  V30 2397 H 224.211 -0.143907 0.814383 0
M  V30 2398 H 226.757 0.467506 1.63133 0
M  V30 2399 H 225.529 0.75475 3.83952 0
M  V30 2400 H 225.152 -0.960163 3.85832 0
M  V30 2401 N 226.149 -1.5696 0.141893 0
M  V30 2402 C 227.379 -2.00031 -0.516828 0
M  V30 2403 C 227.787 -1.02091 -1.59293 0
M  V30 2404 O 227.13 -0.00909657 -1.83698 0
M  V30 2405 C 227.192 -3.39534 -1.1814 0
M  V30 2406 C 226.856 -4.56313 -0.250513 0
M  V30 2407 C 227.853 -5.17295 0.519839 0
M  V30 2408 C 225.538 -5.02061 -0.154907 0
M  V30 2409 C 227.532 -6.2243 1.3733 0
M  V30 2410 C 225.219 -6.07053 0.702161 0
M  V30 2411 C 226.217 -6.67106 1.46487 0
M  V30 2412 O 225.905 -7.70066 2.30767 0
M  V30 2413 H 225.637 -0.661451 -0.139493 0
M  V30 2414 H 228.191 -2.04086 0.231926 0
M  V30 2415 H 226.421 -3.32302 -1.97769 0
M  V30 2416 H 228.11 -3.66745 -1.73933 0
M  V30 2417 H 228.876 -4.82852 0.45598 0
M  V30 2418 H 224.755 -4.5505 -0.7383 0
M  V30 2419 H 228.299 -6.69233 1.96909 0
M  V30 2420 H 224.196 -6.40923 0.76733 0
M  V30 2421 H 224.964 -7.87264 2.23959 0
M  V30 2422 N 227.627 0.131896 -1.57047 0
M  V30 2423 C 228.575 1.18146 -2.0036 0
M  V30 2424 C 229.569 1.43614 -0.898406 0
M  V30 2425 O 230.775 1.43729 -1.08361 0
M  V30 2426 H 227.15 0.398042 -0.638018 0
M  V30 2427 H 229.121 0.789564 -2.87765 0
M  V30 2428 C 227.87 2.50341 -2.41298 0
M  V30 2429 H 227.193 2.31578 -3.25902 0
M  V30 2430 H 228.633 3.22371 -2.75414 0
M  V30 2431 C 227.092 3.11984 -1.27153 0
M  V30 2432 O 227.622 3.97484 -0.580459 0
M  V30 2433 N 225.828 2.71662 -1.03189 0
M  V30 2434 H 225.375 2.02231 -1.59564 0
M  V30 2435 H 225.333 3.13238 -0.270077 0
M  V30 2436 N 229.106 1.52395 0.401703 0
M  V30 2437 C 230.036 1.79231 1.49661 0
M  V30 2438 C 231.017 0.643654 1.57452 0
M  V30 2439 O 232.202 0.889989 1.72606 0
M  V30 2440 C 229.332 1.94971 2.87409 0
M  V30 2441 C 228.286 3.10604 2.94465 0
M  V30 2442 C 227.612 3.11577 4.34538 0
M  V30 2443 C 228.912 4.49921 2.6527 0
M  V30 2444 H 230.606 2.70917 1.27454 0
M  V30 2445 H 228.152 1.30362 0.6117 0
M  V30 2446 H 230.105 2.12328 3.63999 0
M  V30 2447 H 228.829 0.999632 3.10926 0
M  V30 2448 H 227.488 2.93009 2.20321 0
M  V30 2449 H 227.136 2.14277 4.55076 0
M  V30 2450 H 226.836 3.89247 4.40183 0
M  V30 2451 H 228.36 3.31073 5.13053 0
M  V30 2452 H 229.774 4.67683 3.31581 0
M  V30 2453 H 228.171 5.29564 2.82281 0
M  V30 2454 H 229.241 4.57507 1.60671 0
M  V30 2455 N 230.584 -0.659388 1.43143 0
M  V30 2456 C 231.514 -1.78422 1.50625 0
M  V30 2457 C 232.495 -1.66216 0.361443 0
M  V30 2458 O 233.68 -1.85404 0.577834 0
M  V30 2459 C 230.81 -3.16815 1.42287 0
M  V30 2460 C 229.764 -3.43777 2.54954 0
M  V30 2461 C 229.09 -4.81905 2.31671 0
M  V30 2462 C 230.39 -3.39134 3.97222 0
M  V30 2463 H 232.084 -1.72417 2.44771 0
M  V30 2464 H 229.63 -0.828084 1.17808 0
M  V30 2465 H 231.583 -3.95253 1.46127 0
M  V30 2466 H 230.307 -3.23534 0.446435 0
M  V30 2467 H 228.966 -2.67707 2.50457 0
M  V30 2468 H 228.614 -4.85294 1.32284 0
M  V30 2469 H 228.314 -5.00906 3.07192 0
M  V30 2470 H 229.838 -5.62609 2.37284 0
M  V30 2471 H 231.252 -4.07518 4.03239 0
M  V30 2472 H 229.649 -3.69671 4.72719 0
M  V30 2473 H 230.719 -2.37426 4.22797 0
M  V30 2474 N 232.062 -1.29571 -0.897171 0
M  V30 2475 C 233.339 -1.08365 -1.62839 0
M  V30 2476 C 233.719 0.371331 -2.07808 0
M  V30 2477 O 233.067 1.3606 -1.83576 0
M  V30 2478 C 233.277 -2.0735 -2.80726 0
M  V30 2479 C 234.625 -2.38406 -3.51351 0
M  V30 2480 O 235.649 -2.05564 -2.90898 0
M  V30 2481 O 234.508 -2.9453 -4.60341 0
M  V30 2482 H 231.602 -0.415345 -0.715134 0
M  V30 2483 H 234.148 -1.40952 -0.945018 0
M  V30 2484 H 232.92 -3.05339 -2.44711 0
M  V30 2485 H 232.543 -1.75507 -3.56767 0
M  V30 2486 N 233.54 1.10788 -1.12088 0
M  V30 2487 C 234.47 2.19083 -0.807755 0
M  V30 2488 C 235.451 1.6858 0.226859 0
M  V30 2489 O 236.636 1.93997 0.0888475 0
M  V30 2490 C 233.766 3.46344 -0.257576 0
M  V30 2491 C 232.72 4.101 -1.22483 0
M  V30 2492 C 232.046 5.32016 -0.535052 0
M  V30 2493 C 233.346 4.54236 -2.57811 0
M  V30 2494 H 235.04 2.45534 -1.71328 0
M  V30 2495 H 232.586 1.1801 -0.825205 0
M  V30 2496 H 234.539 4.21392 -0.0262679 0
M  V30 2497 H 233.263 3.19373 0.683278 0
M  V30 2498 H 231.922 3.37054 -1.44189 0
M  V30 2499 H 231.57 5.01319 0.410827 0
M  V30 2500 H 231.27 5.75625 -1.18024 0
M  V30 2501 H 232.794 6.09799 -0.312695 0
M  V30 2502 H 234.208 5.20575 -2.40155 0
M  V30 2503 H 232.605 5.08682 -3.18375 0
M  V30 2504 H 233.675 3.6734 -3.16528 0
M  V30 2505 N 235.018 0.912232 1.28515 0
M  V30 2506 C 235.948 0.416403 2.29757 0
M  V30 2507 C 236.929 -0.515194 1.6211 0
M  V30 2508 O 238.114 -0.423253 1.89532 0
M  V30 2509 C 235.244 -0.34572 3.45575 0
M  V30 2510 C 234.198 0.496599 4.25109 0
M  V30 2511 C 233.524 -0.393771 5.33248 0
M  V30 2512 C 234.824 1.75307 4.92001 0
M  V30 2513 H 236.518 1.26249 2.7148 0
M  V30 2514 H 234.064 0.608515 1.30511 0
M  V30 2515 H 236.017 -0.703422 4.15488 0
M  V30 2516 H 234.741 -1.2257 3.02728 0
M  V30 2517 H 233.4 0.8368 3.56922 0
M  V30 2518 H 233.048 -1.27225 4.86644 0
M  V30 2519 H 232.748 0.166209 5.87365 0
M  V30 2520 H 234.272 -0.747389 6.06009 0
M  V30 2521 H 235.686 1.46437 5.54283 0
M  V30 2522 H 234.083 2.25534 5.56106 0
M  V30 2523 H 235.153 2.48176 4.16577 0
M  V30 2524 N 236.496 -1.42363 0.676048 0
M  V30 2525 C 237.426 -2.33497 0.0124832 0
M  V30 2526 C 238.407 -1.50748 -0.787981 0
M  V30 2527 O 239.592 -1.79346 -0.744884 0
M  V30 2528 C 236.722 -3.34377 -0.938582 0
M  V30 2529 C 235.676 -4.27289 -0.246622 0
M  V30 2530 C 235.002 -5.18386 -1.31071 0
M  V30 2531 C 236.302 -5.14916 0.875125 0
M  V30 2532 H 237.996 -2.89233 0.773593 0
M  V30 2533 H 235.542 -1.39073 0.37346 0
M  V30 2534 H 237.495 -3.97044 -1.41188 0
M  V30 2535 H 236.219 -2.76947 -1.73113 0
M  V30 2536 H 234.878 -3.66018 0.206456 0
M  V30 2537 H 234.526 -4.57282 -2.09528 0
M  V30 2538 H 234.226 -5.81378 -0.852839 0
M  V30 2539 H 235.75 -5.83929 -1.78492 0
M  V30 2540 H 237.164 -5.71262 0.482983 0
M  V30 2541 H 235.561 -5.86747 1.25887 0
M  V30 2542 H 236.631 -4.53242 1.72335 0
M  V30 2543 N 237.974 -0.419461 -1.51915 0
M  V30 2544 C 239.223 0.154346 -2.01109 0
M  V30 2545 C 239.536 1.45338 -1.30905 0
M  V30 2546 O 240.742 2.10906 -1.7097 0
M  V30 2547 C 239.198 0.325615 -3.58424 0
M  V30 2548 C 238.806 -0.961934 -4.37551 0
M  V30 2549 C 240.55 0.854155 -4.15818 0
M  V30 2550 C 238.457 -0.757287 -5.86531 0
M  V30 2551 H 237.387 0.0614563 -0.751491 0
M  V30 2552 H 240.038 -0.54649 -1.75173 0
M  V30 2553 H 238.42 1.08903 -3.80731 0
M  V30 2554 H 239.594 -1.7323 -4.26999 0
M  V30 2555 H 237.909 -1.41766 -3.91524 0
M  V30 2556 H 240.506 1.02346 -5.24814 0
M  V30 2557 H 240.849 1.83172 -3.73837 0
M  V30 2558 H 241.382 0.149528 -3.97519 0
M  V30 2559 H 238.121 -1.70671 -6.32892 0
M  V30 2560 H 237.641 -0.0264061 -5.99794 0
M  V30 2561 H 239.32 -0.403482 -6.45741 0
M  V30 2562 N 239.452 1.56882 -0.150215 0
M  V30 2563 C 240.402 2.13501 0.800071 0
M  V30 2564 C 241.386 1.06368 1.20726 0
M  V30 2565 O 242.578 1.32538 1.17314 0
M  V30 2566 C 239.707 2.76271 2.03787 0
M  V30 2567 C 238.793 3.90533 1.65364 0
M  V30 2568 N 239.184 4.96259 0.977794 0
M  V30 2569 C 237.482 4.013 1.94613 0
M  V30 2570 C 238.183 5.76286 0.791794 0
M  V30 2571 N 237.159 5.27163 1.32666 0
M  V30 2572 H 240.961 2.92615 0.274517 0
M  V30 2573 H 238.475 1.62319 0.0512144 0
M  V30 2574 H 240.472 3.15197 2.72867 0
M  V30 2575 H 239.132 1.98631 2.56857 0
M  V30 2576 H 240.143 5.13953 0.638193 0
M  V30 2577 H 236.82 3.3474 2.4951 0
M  V30 2578 H 238.21 6.71401 0.258894 0
M  V30 2579 N 240.93 -0.123565 1.57115 0
M  V30 2580 C 241.84 -1.17074 2.033 0
M  V30 2581 C 242.856 -1.4561 0.952559 0
M  V30 2582 O 244.032 -1.56817 1.26374 0
M  V30 2583 C 241.097 -2.47857 2.42421 0
M  V30 2584 C 240.158 -2.26758 3.64526 0
M  V30 2585 C 239.391 -3.51305 4.01771 0
M  V30 2586 O 239.614 -4.5843 3.39409 0
M  V30 2587 O 238.548 -3.42578 4.94898 0
M  V30 2588 H 242.374 -0.808555 2.92739 0
M  V30 2589 H 239.959 -0.334027 1.45618 0
M  V30 2590 H 241.841 -3.2492 2.68338 0
M  V30 2591 H 240.516 -2.83558 1.5613 0
M  V30 2592 H 239.423 -1.47569 3.43765 0
M  V30 2593 H 240.756 -1.95963 4.51508 0
M  V30 2594 N 242.408 -1.52605 -0.393616 0
M  V30 2595 C 243.654 -1.67672 -1.14079 0
M  V30 2596 C 243.987 -0.413121 -1.89755 0
M  V30 2597 O 243.262 0.588952 -1.85369 0
M  V30 2598 C 243.545 -2.9088 -2.12276 0
M  V30 2599 C 243.398 -4.27329 -1.40394 0
M  V30 2600 C 244.717 -3.09628 -3.12759 0
M  V30 2601 H 241.836 -0.610168 -0.413356 0
M  V30 2602 H 244.478 -1.85193 -0.424696 0
M  V30 2603 H 242.628 -2.76073 -2.73342 0
M  V30 2604 H 244.3 -4.53894 -0.82327 0
M  V30 2605 H 242.543 -4.2802 -0.705801 0
M  V30 2606 H 243.214 -5.09615 -2.12123 0
M  V30 2607 H 245.69 -3.23436 -2.61779 0
M  V30 2608 H 244.566 -3.97322 -3.78717 0
M  V30 2609 H 244.827 -2.23637 -3.81365 0
M  V30 2610 N 243.887 0.651787 -1.4349 0
M  V30 2611 C 244.817 1.77621 -1.51569 0
M  V30 2612 C 245.798 1.66022 -0.370253 0
M  V30 2613 O 246.983 1.85095 -0.587658 0
M  V30 2614 C 244.113 3.16056 -1.43966 0
M  V30 2615 C 243.067 3.4242 -2.56774 0
M  V30 2616 C 242.393 4.8067 -2.34223 0
M  V30 2617 C 243.693 3.37023 -3.99015 0
M  V30 2618 H 245.387 1.71117 -2.45681 0
M  V30 2619 H 242.933 0.821825 -1.18246 0
M  V30 2620 H 244.886 3.94472 -1.48221 0
M  V30 2621 H 243.61 3.23293 -0.463586 0
M  V30 2622 H 242.269 2.66375 -2.51873 0
M  V30 2623 H 241.917 4.84585 -1.34856 0
M  V30 2624 H 241.617 4.9927 -3.09844 0
M  V30 2625 H 243.141 5.61342 -2.40265 0
M  V30 2626 H 244.555 4.05374 -4.05395 0
M  V30 2627 H 242.952 3.67159 -4.74673 0
M  V30 2628 H 244.022 2.3518 -4.2405 0
M  V30 2629 N 245.365 1.30045 0.890287 0
M  V30 2630 C 246.328 1.15963 1.977 0
M  V30 2631 C 247.328 0.0923777 1.60534 0
M  V30 2632 O 248.518 0.340071 1.70848 0
M  V30 2633 C 245.65 0.775451 3.31963 0
M  V30 2634 H 246.843 2.12502 2.11619 0
M  V30 2635 H 244.396 1.13366 1.07601 0
M  V30 2636 H 245.131 -0.189671 3.23745 0
M  V30 2637 H 244.916 1.54668 3.60306 0
M  V30 2638 H 246.406 0.700251 4.11687 0
M  V30 2639 N 246.843 -1.10192 1.12674 0
M  V30 2640 C 248.254 -1.63707 0.897604 0
M  V30 2641 C 248.605 -1.87812 -0.567546 0
M  V30 2642 O 247.73 -1.62196 -1.43253 0
M  V30 2643 C 248.325 -2.974 1.62292 0
M  V30 2644 C 246.884 -3.47772 1.43986 0
M  V30 2645 C 246.031 -2.22332 1.65722 0
M  V30 2646 H 248.982 -0.936587 1.28116 0
M  V30 2647 H 249.003 -3.64986 1.07541 0
M  V30 2648 H 248.515 -2.79824 2.68924 0
M  V30 2649 H 246.616 -3.70487 0.396206 0
M  V30 2650 H 246.729 -4.25723 2.19765 0
M  V30 2651 H 245.093 -2.30599 1.08149 0
M  V30 2652 H 245.876 -2.07285 2.73657 0
M  V30 2653 N 248.321 -0.919034 -1.28029 0
M  V30 2654 C 249.569 -0.553838 -1.94363 0
M  V30 2655 C 249.89 0.906357 -1.72656 0
M  V30 2656 O 249.16 1.64143 -1.0693 0
M  V30 2657 H 247.74 -0.201834 -0.719216 0
M  V30 2658 H 250.402 -1.16954 -1.55909 0
M  V30 2659 H 249.498 -0.752758 -3.02886 0
M  V30 2660 N 249.799 1.42003 -0.683588 0
M  V30 2661 C 251.039 2.03282 -0.213513 0
M  V30 2662 C 251.403 1.52924 1.16097 0
M  V30 2663 O 252.604 2.06048 1.7262 0
M  V30 2664 C 250.875 3.56483 -0.255856 0
M  V30 2665 S 252.434 4.3857 0.14193 0
M  V30 2666 H 249.252 0.705659 -0.0869853 0
M  V30 2667 H 251.854 1.73619 -0.8987 0
M  V30 2668 H 250.558 3.90631 -1.25841 0
M  V30 2669 H 250.089 3.90831 0.448875 0
M  V30 2670 H 252.104 4.76828 1.37295 0
M  V30 2671 N 251.277 0.427512 1.51691 0
M  V30 2672 C 252.207 -0.3796 2.30394 0
M  V30 2673 C 253.188 -1.02982 1.35384 0
M  V30 2674 O 254.373 -1.03534 1.643 0
M  V30 2675 C 251.503 -1.48649 3.1388 0
M  V30 2676 C 250.457 -0.960294 4.17088 0
M  V30 2677 C 249.783 -2.16219 4.89033 0
M  V30 2678 C 251.083 -0.00153679 5.223 0
M  V30 2679 H 252.777 0.277164 2.98114 0
M  V30 2680 H 250.323 0.134739 1.43368 0
M  V30 2681 H 252.276 -2.05826 3.67714 0
M  V30 2682 H 251 -2.1714 2.43962 0
M  V30 2683 H 249.659 -0.410806 3.64291 0
M  V30 2684 H 249.307 -2.83307 4.15628 0
M  V30 2685 H 249.007 -1.81654 5.58816 0
M  V30 2686 H 250.531 -2.73968 5.45687 0
M  V30 2687 H 251.945 -0.482687 5.71264 0
M  V30 2688 H 250.342 0.256199 5.99553 0
M  V30 2689 H 251.412 0.938174 4.75738 0
M  V30 2690 N 252.755 -1.56801 0.158532 0
M  V30 2691 C 254.032 -1.88131 -0.535357 0
M  V30 2692 C 254.412 -1.06638 -1.82186 0
M  V30 2693 O 253.76 -0.156533 -2.27963 0
M  V30 2694 C 253.97 -3.39949 -0.789653 0
M  V30 2695 C 255.318 -4.09416 -1.12533 0
M  V30 2696 O 256.342 -3.45194 -0.878622 0
M  V30 2697 O 255.201 -5.22855 -1.59014 0
M  V30 2698 H 252.295 -0.780143 -0.27442 0
M  V30 2699 H 254.841 -1.68564 0.19601 0
M  V30 2700 H 253.613 -3.91115 0.120353 0
M  V30 2701 H 253.236 -3.65084 -1.57479 0
M  V30 2702 N 254.233 0.115231 -1.57178 0
M  V30 2703 C 255.196 1.12526 -1.99676 0
M  V30 2704 C 256.196 1.34095 -0.88742 0
M  V30 2705 O 257.386 1.30548 -1.15337 0
M  V30 2706 C 254.518 2.4789 -2.34015 0
M  V30 2707 H 255.711 0.759912 -2.90113 0
M  V30 2708 H 253.264 0.359648 -1.52106 0
M  V30 2709 H 253.999 2.89339 -1.4647 0
M  V30 2710 H 253.784 2.33588 -3.14927 0
M  V30 2711 H 255.274 3.20575 -2.67622 0
M  V30 2712 N 255.711 1.52812 0.385517 0
M  V30 2713 C 256.958 1.68026 1.1302 0
M  V30 2714 C 257.286 0.421934 1.89868 0
M  V30 2715 O 256.541 -0.595749 1.86412 0
M  V30 2716 C 256.84 2.86856 2.13187 0
M  V30 2717 C 256.506 4.24159 1.5297 0
M  V30 2718 C 255.168 4.61501 1.36274 0
M  V30 2719 C 257.52 5.09627 1.09223 0
M  V30 2720 C 254.848 5.81966 0.743837 0
M  V30 2721 C 257.2 6.30719 0.487411 0
M  V30 2722 C 255.864 6.6679 0.307777 0
M  V30 2723 H 255.134 0.614849 0.413571 0
M  V30 2724 H 257.781 1.86962 0.414405 0
M  V30 2725 H 256.086 2.6235 2.90998 0
M  V30 2726 H 257.783 2.95821 2.70722 0
M  V30 2727 H 254.373 3.94746 1.66954 0
M  V30 2728 H 258.557 4.81343 1.20922 0
M  V30 2729 H 253.813 6.08519 0.592891 0
M  V30 2730 H 257.987 6.96259 0.140143 0
M  V30 2731 H 255.614 7.60001 -0.173879 0
M  V30 2732 N 257.189 -0.644168 1.43834 0
M  V30 2733 C 258.6 -1.22554 1.40845 0
M  V30 2734 C 258.951 -1.9585 0.117115 0
M  V30 2735 O 258.076 -2.01734 -0.783086 0
M  V30 2736 C 258.671 -2.22907 2.55143 0
M  V30 2737 C 257.23 -2.76501 2.5539 0
M  V30 2738 C 256.377 -1.51287 2.32396 0
M  V30 2739 H 259.328 -0.43563 1.52604 0
M  V30 2740 H 259.349 -3.05259 2.2715 0
M  V30 2741 H 258.861 -1.69533 3.49114 0
M  V30 2742 H 256.962 -3.33914 1.65324 0
M  V30 2743 H 257.075 -3.23429 3.53455 0
M  V30 2744 H 255.439 -1.78957 1.81236 0
M  V30 2745 H 256.222 -0.998336 3.28463 0
M  V30 2746 N 258.668 -1.30515 -0.883378 0
M  V30 2747 C 259.598 -1.19607 -2.00541 0
M  V30 2748 C 260.579 -0.086346 -1.69881 0
M  V30 2749 O 261.764 -0.268654 -1.92333 0
M  V30 2750 C 258.894 -0.888758 -3.35736 0
M  V30 2751 C 257.848 -1.95659 -3.8066 0
M  V30 2752 C 257.174 -1.50224 -5.13164 0
M  V30 2753 C 258.474 -3.36788 -3.99213 0
M  V30 2754 H 260.168 -2.13476 -2.09925 0
M  V30 2755 H 257.714 -1.02775 -1.00863 0
M  V30 2756 H 259.667 -0.799094 -4.13754 0
M  V30 2757 H 258.391 0.0856125 -3.26488 0
M  V30 2758 H 257.05 -2.03591 -3.04871 0
M  V30 2759 H 256.698 -0.516092 -5.00345 0
M  V30 2760 H 256.398 -2.2165 -5.44192 0
M  V30 2761 H 257.922 -1.42639 -5.93706 0
M  V30 2762 H 259.336 -3.31605 -4.67665 0
M  V30 2763 H 257.733 -4.06314 -4.41621 0
M  V30 2764 H 258.803 -3.78561 -3.03017 0
M  V30 2765 N 260.146 1.09593 -1.13257 0
M  V30 2766 C 261.076 2.18214 -0.830946 0
M  V30 2767 C 262.057 1.68812 0.208966 0
M  V30 2768 O 263.242 1.9408 0.0682666 0
M  V30 2769 C 260.372 3.46051 -0.294296 0
M  V30 2770 C 259.326 4.08778 -1.26826 0
M  V30 2771 C 258.652 5.31419 -0.591449 0
M  V30 2772 C 259.952 4.51476 -2.62615 0
M  V30 2773 H 261.646 2.43703 -1.73923 0
M  V30 2774 H 259.192 1.17128 -0.837675 0
M  V30 2775 H 261.145 4.2134 -0.0709606 0
M  V30 2776 H 259.869 3.20079 0.649366 0
M  V30 2777 H 258.528 3.35505 -1.47756 0
M  V30 2778 H 258.176 5.01727 0.357633 0
M  V30 2779 H 257.876 5.74341 -1.24123 0
M  V30 2780 H 259.4 6.09433 -0.377355 0
M  V30 2781 H 260.814 5.17999 -2.45663 0
M  V30 2782 H 259.211 5.05277 -3.23752 0
M  V30 2783 H 260.281 3.63962 -3.20406 0
M  V30 2784 N 261.624 0.925811 1.2754 0
M  V30 2785 C 262.849 0.580924 1.99098 0
M  V30 2786 C 263.274 -0.833555 1.68622 0
M  V30 2787 O 262.632 -1.55903 0.925422 0
M  V30 2788 C 262.68 0.811186 3.51358 0
M  V30 2789 O 261.784 -0.124129 4.12213 0
M  V30 2790 H 261.125 0.223873 0.625122 0
M  V30 2791 H 263.655 1.24455 1.62395 0
M  V30 2792 H 263.665 0.72601 4.01489 0
M  V30 2793 H 262.34 1.84227 3.72872 0
M  V30 2794 H 260.917 0.0108006 3.72898 0
M  V30 2795 N 263.102 -1.41638 0.69111 0
M  V30 2796 C 264.065 -2.29178 0.0319786 0
M  V30 2797 C 265.065 -1.44153 -0.712496 0
M  V30 2798 O 266.255 -1.65354 -0.548053 0
M  V30 2799 C 263.387 -3.26952 -0.965161 0
M  V30 2800 H 264.58 -2.88959 0.802681 0
M  V30 2801 H 262.133 -1.4955 0.454356 0
M  V30 2802 H 262.868 -2.72142 -1.76378 0
M  V30 2803 H 262.653 -3.89685 -0.434522 0
M  V30 2804 H 264.143 -3.92561 -1.42428 0
M  V30 2805 N 264.58 -0.43555 -1.51462 0
M  V30 2806 C 265.81 0.130053 -2.0619 0
M  V30 2807 C 266.218 1.37164 -1.30317 0
M  V30 2808 O 265.561 1.80225 -0.355598 0
M  V30 2809 C 265.623 0.519418 -3.55728 0
M  V30 2810 C 265.287 -0.615119 -4.52841 0
M  V30 2811 C 266.284 -1.48671 -4.9819 0
M  V30 2812 C 263.969 -0.795341 -4.95963 0
M  V30 2813 C 265.963 -2.52324 -5.8533 0
M  V30 2814 C 263.65 -1.83514 -5.82894 0
M  V30 2815 C 264.648 -2.69748 -6.27475 0
M  V30 2816 O 264.336 -3.71944 -7.1268 0
M  V30 2817 H 264.068 0.0121612 -0.675891 0
M  V30 2818 H 266.622 -0.6129 -1.96043 0
M  V30 2819 H 264.852 1.31505 -3.63653 0
M  V30 2820 H 266.541 1.01597 -3.92979 0
M  V30 2821 H 267.307 -1.359 -4.65571 0
M  V30 2822 H 263.186 -0.133713 -4.60806 0
M  V30 2823 H 266.73 -3.19665 -6.20048 0
M  V30 2824 H 262.627 -1.96306 -6.14926 0
M  V30 2825 H 263.395 -3.68503 -7.30854 0
M  V30 2826 N 266.058 1.56714 -0.166846 0
M  V30 2827 C 267.304 1.97039 0.479962 0
M  V30 2828 C 267.637 1.05264 1.63197 0
M  V30 2829 O 266.912 0.0988833 1.94248 0
M  V30 2830 C 267.195 3.46867 0.967212 0
M  V30 2831 C 267.048 4.49421 -0.18466 0
M  V30 2832 C 268.367 3.9968 1.84238 0
M  V30 2833 H 265.486 0.71641 0.172992 0
M  V30 2834 H 268.128 1.8832 -0.252079 0
M  V30 2835 H 266.278 3.54428 1.59101 0
M  V30 2836 H 267.95 4.53924 -0.821621 0
M  V30 2837 H 266.193 4.25573 -0.840837 0
M  V30 2838 H 266.864 5.51644 0.198317 0
M  V30 2839 H 269.34 3.94723 1.31655 0
M  V30 2840 H 268.216 5.04941 2.15234 0
M  V30 2841 H 268.477 3.43226 2.78654 0
M  V30 2842 N 267.536 -0.106894 1.57237 0
M  V30 2843 C 268.784 -0.810921 1.85117 0
M  V30 2844 C 269.105 -1.7984 0.753827 0
M  V30 2845 O 268.375 -1.94649 -0.221056 0
M  V30 2846 H 266.955 -0.302466 0.683025 0
M  V30 2847 H 269.617 -0.0913324 1.94686 0
M  V30 2848 H 268.713 -1.34875 2.81452 0
M  V30 2849 N 269.014 -1.53014 -0.377408 0
M  V30 2850 C 270.43 -1.42523 -0.718281 0
M  V30 2851 C 270.63 -0.55487 -1.9371 0
M  V30 2852 O 269.686 -0.0327593 -2.52479 0
M  V30 2853 C 270.999 -2.85546 -0.942539 0
M  V30 2854 C 272.547 -2.95101 -1.04329 0
M  V30 2855 C 273.022 -4.3916 -1.3001 0
M  V30 2856 N 274.513 -4.42536 -1.36806 0
M  V30 2857 C 275.248 -5.51097 -1.58364 0
M  V30 2858 N 274.744 -6.69724 -1.77317 0
M  V30 2859 N 276.537 -5.38657 -1.60638 0
M  V30 2860 H 268.688 -2.08116 0.424426 0
M  V30 2861 H 270.951 -0.939352 0.127759 0
M  V30 2862 H 270.657 -3.51499 -0.118929 0
M  V30 2863 H 270.531 -3.28493 -1.85397 0
M  V30 2864 H 272.918 -2.29309 -1.85745 0
M  V30 2865 H 272.999 -2.55566 -0.109505 0
M  V30 2866 H 272.643 -5.05521 -0.490991 0
M  V30 2867 H 272.573 -4.76258 -2.24691 0
M  V30 2868 H 275.064 -3.57039 -1.23821 0
M  V30 2869 H 275.377 -7.48233 -1.93306 0
M  V30 2870 H 273.722 -6.72732 -1.74518 0
M  V30 2871 H 276.913 -4.44948 -1.45391 0
M  V30 2872 H 277.086 -6.2333 -1.77098 0
M  V30 2873 N 270.492 0.636531 -1.44174 0
M  V30 2874 C 271.422 1.76003 -1.53444 0
M  V30 2875 C 272.403 1.65619 -0.387841 0
M  V30 2876 O 273.588 1.84461 -0.607257 0
M  V30 2877 C 270.718 3.14511 -1.4731 0
M  V30 2878 C 269.672 3.39677 -2.60391 0
M  V30 2879 C 268.998 4.78159 -2.39308 0
M  V30 2880 C 270.298 3.32772 -4.02567 0
M  V30 2881 H 271.992 1.68501 -2.47483 0
M  V30 2882 H 269.538 0.809237 -1.19111 0
M  V30 2883 H 271.491 3.92878 -1.52397 0
M  V30 2884 H 270.215 3.22783 -0.49785 0
M  V30 2885 H 268.874 2.63688 -2.54684 0
M  V30 2886 H 268.522 4.83128 -1.39988 0
M  V30 2887 H 268.222 4.95956 -3.15122 0
M  V30 2888 H 269.746 5.58762 -2.46205 0
M  V30 2889 H 271.16 4.01051 -4.09672 0
M  V30 2890 H 269.557 3.62104 -4.7854 0
M  V30 2891 H 270.627 2.30669 -4.2652 0
M  V30 2892 N 271.97 1.30982 0.876444 0
M  V30 2893 C 273.195 1.23373 1.66715 0
M  V30 2894 C 273.62 -0.19885 1.87046 0
M  V30 2895 O 272.978 -1.1427 1.40756 0
M  V30 2896 C 273.026 1.97644 3.01611 0
M  V30 2897 O 272.13 1.30935 3.91062 0
M  V30 2898 H 271.471 0.426279 0.509099 0
M  V30 2899 H 274.001 1.72944 1.09323 0
M  V30 2900 H 274.011 2.06992 3.51594 0
M  V30 2901 H 272.686 3.01829 2.86133 0
M  V30 2902 H 271.263 1.29996 3.49507 0
M  V30 2903 N 273.449 -1.08991 1.13837 0
M  V30 2904 C 274.412 -2.13925 0.822715 0
M  V30 2905 C 275.412 -1.599 -0.1699 0
M  V30 2906 O 276.602 -1.74104 0.0577251 0
M  V30 2907 C 273.734 -3.40155 0.225318 0
M  V30 2908 H 274.927 -2.43358 1.75262 0
M  V30 2909 H 272.48 -1.24603 0.943594 0
M  V30 2910 H 273.215 -3.16352 -0.713594 0
M  V30 2911 H 273 -3.80661 0.940193 0
M  V30 2912 H 274.49 -4.17594 0.0214784 0
M  V30 2913 N 274.927 -0.932562 -1.27047 0
M  V30 2914 C 276.343 -0.633544 -1.46487 0
M  V30 2915 C 276.543 0.815746 -1.84249 0
M  V30 2916 O 275.599 1.59319 -1.95892 0
M  V30 2917 C 276.912 -1.58758 -2.55375 0
M  V30 2918 C 278.46 -1.59634 -2.69232 0
M  V30 2919 C 278.935 -2.53747 -3.81283 0
M  V30 2920 N 280.426 -2.51982 -3.88664 0
M  V30 2921 C 281.161 -3.21491 -4.74796 0
M  V30 2922 N 280.657 -4.00395 -5.65381 0
M  V30 2923 N 282.45 -3.10485 -4.68568 0
M  V30 2924 H 274.601 -1.86946 -1.00821 0
M  V30 2925 H 276.864 -0.802897 -0.504044 0
M  V30 2926 H 276.57 -2.62172 -2.34432 0
M  V30 2927 H 276.444 -1.33301 -3.52861 0
M  V30 2928 H 278.831 -0.569488 -2.89553 0
M  V30 2929 H 278.912 -1.89142 -1.72218 0
M  V30 2930 H 278.556 -3.56545 -3.61715 0
M  V30 2931 H 278.486 -2.21532 -4.77735 0
M  V30 2932 H 280.977 -1.94681 -3.23895 0
M  V30 2933 H 281.29 -4.50406 -6.27976 0
M  V30 2934 H 279.635 -4.04498 -5.65161 0
M  V30 2935 H 282.826 -2.48331 -3.96799 0
M  V30 2936 H 282.999 -3.64925 -5.35475 0
M  V30 2937 N 276.405 1.4127 -0.698611 0
M  V30 2938 C 277.816 1.84187 -0.305289 0
M  V30 2939 C 278.167 1.58449 1.15708 0
M  V30 2940 O 277.292 1.05651 1.88856 0
M  V30 2941 C 277.887 3.3435 -0.547314 0
M  V30 2942 C 276.446 3.75826 -0.207878 0
M  V30 2943 C 275.593 2.64647 -0.828099 0
M  V30 2944 H 278.544 1.30778 -0.89904 0
M  V30 2945 H 278.565 3.8001 0.192998 0
M  V30 2946 H 278.077 3.53051 -1.61172 0
M  V30 2947 H 276.178 3.62725 0.852143 0
M  V30 2948 H 276.291 4.74462 -0.665021 0
M  V30 2949 H 274.655 2.53395 -0.257458 0
M  V30 2950 H 275.438 2.86165 -1.89643 0
M  V30 2951 N 277.883 0.443576 1.51229 0
M  V30 2952 C 278.83 -0.364716 2.279 0
M  V30 2953 C 279.8 -1.0114 1.31757 0
M  V30 2954 O 280.985 -1.02912 1.60667 0
M  V30 2955 C 278.125 -1.45644 3.12861 0
M  V30 2956 C 277.238 -0.827269 4.24005 0
M  V30 2957 C 276.373 -1.89456 4.96266 0
M  V30 2958 C 275.412 -1.24416 5.99322 0
M  V30 2959 N 274.549 -2.25309 6.64966 0
M  V30 2960 H 279.389 0.295464 2.96532 0
M  V30 2961 H 276.926 0.157554 1.46254 0
M  V30 2962 H 278.884 -2.10076 3.6045 0
M  V30 2963 H 277.514 -2.08616 2.46331 0
M  V30 2964 H 276.566 -0.0710839 3.80334 0
M  V30 2965 H 277.878 -0.312481 4.9782 0
M  V30 2966 H 277.032 -2.61535 5.47434 0
M  V30 2967 H 275.771 -2.4431 4.22095 0
M  V30 2968 H 274.776 -0.508868 5.4744 0
M  V30 2969 H 276.001 -0.702882 6.75453 0
M  V30 2970 H 273.947 -2.79231 5.93604 0
M  V30 2971 H 273.864 -1.78739 7.34567 0
M  V30 2972 H 275.132 -2.96853 7.20763 0
M  V30 2973 N 279.361 -1.56624 0.175154 0
M  V30 2974 C 280.291 -2.21155 -0.749195 0
M  V30 2975 C 281.272 -1.16836 -1.23626 0
M  V30 2976 O 282.457 -1.45277 -1.28873 0
M  V30 2977 C 279.587 -2.8553 -1.97711 0
M  V30 2978 C 278.541 -3.95921 -1.62575 0
M  V30 2979 C 277.867 -4.47365 -2.92864 0
M  V30 2980 C 279.167 -5.15323 -0.850838 0
M  V30 2981 H 280.861 -2.98653 -0.211295 0
M  V30 2982 H 278.407 -1.43651 -0.100188 0
M  V30 2983 H 280.36 -3.2935 -2.62881 0
M  V30 2984 H 279.084 -2.05406 -2.53921 0
M  V30 2985 H 277.743 -3.52762 -0.997719 0
M  V30 2986 H 277.391 -3.64027 -3.47122 0
M  V30 2987 H 277.091 -5.21839 -2.70106 0
M  V30 2988 H 278.615 -4.93873 -3.59056 0
M  V30 2989 H 280.029 -5.55812 -1.40521 0
M  V30 2990 H 278.426 -5.95739 -0.722154 0
M  V30 2991 H 279.496 -4.84661 0.152082 0
M  V30 2992 N 280.839 0.0985539 -1.57292 0
M  V30 2993 C 281.786 1.11981 -2.01814 0
M  V30 2994 C 282.756 1.39999 -0.89384 0
M  V30 2995 O 283.941 1.5152 -1.15958 0
M  V30 2996 C 281.081 2.43577 -2.44467 0
M  V30 2997 C 280.194 2.2232 -3.70402 0
M  V30 2998 C 279.329 3.4729 -4.01949 0
M  V30 2999 C 278.368 3.2128 -5.21005 0
M  V30 3000 N 277.505 4.38507 -5.48321 0
M  V30 3001 H 282.345 0.733149 -2.88841 0
M  V30 3002 H 279.882 0.350482 -1.42864 0
M  V30 3003 H 281.84 3.20373 -2.6724 0
M  V30 3004 H 280.47 2.80097 -1.60455 0
M  V30 3005 H 279.522 1.36343 -3.55126 0
M  V30 3006 H 280.834 1.99089 -4.57345 0
M  V30 3007 H 279.988 4.32495 -4.25479 0
M  V30 3008 H 278.727 3.73572 -3.13521 0
M  V30 3009 H 277.732 2.34468 -4.97298 0
M  V30 3010 H 278.957 2.96348 -6.11028 0
M  V30 3011 H 276.903 4.64871 -4.62851 0
M  V30 3012 H 276.82 4.18455 -6.29628 0
M  V30 3013 H 278.088 5.24787 -5.76385 0
M  V30 3014 N 282.317 1.53212 0.369288 0
M  V30 3015 C 283.28 1.7872 1.43498 0
M  V30 3016 C 284.28 0.657554 1.46741 0
M  V30 3017 O 285.47 0.925736 1.47566 0
M  V30 3018 C 282.602 1.90591 2.82645 0
M  V30 3019 H 283.795 2.73894 1.22156 0
M  V30 3020 H 281.348 1.44233 0.602203 0
M  V30 3021 H 282.083 0.974709 3.09306 0
M  V30 3022 H 281.868 2.72751 2.8169 0
M  V30 3023 H 283.358 2.11931 3.59826 0
M  V30 3024 N 283.795 -0.628877 1.44509 0
M  V30 3025 C 285.042 -1.38839 1.47411 0
M  V30 3026 C 285.37 -1.94202 0.10757 0
M  V30 3027 O 284.625 -1.74243 -0.890947 0
M  V30 3028 C 284.924 -2.56995 2.48371 0
M  V30 3029 C 284.59 -2.19908 3.93639 0
M  V30 3030 C 283.252 -2.09506 4.33198 0
M  V30 3031 C 285.604 -1.9064 4.85083 0
M  V30 3032 C 282.932 -1.68028 5.62124 0
M  V30 3033 C 285.284 -1.50655 6.14399 0
M  V30 3034 C 283.948 -1.38796 6.5291 0
M  V30 3035 H 283.218 -0.508048 0.539414 0
M  V30 3036 H 285.865 -0.712913 1.77735 0
M  V30 3037 H 284.17 -3.29786 2.11538 0
M  V30 3038 H 285.867 -3.15223 2.47861 0
M  V30 3039 H 282.457 -2.28922 3.62343 0
M  V30 3040 H 286.641 -1.97585 4.55273 0
M  V30 3041 H 281.897 -1.57452 5.90778 0
M  V30 3042 H 286.071 -1.27048 6.84713 0
M  V30 3043 H 283.698 -1.06429 7.52713 0
M  V30 3044 N 285.273 -1.31445 -0.869486 0
M  V30 3045 C 286.203 -1.21727 -1.99261 0
M  V30 3046 C 287.184 -0.104359 -1.6978 0
M  V30 3047 O 288.369 -0.289038 -1.92037 0
M  V30 3048 C 285.499 -0.924317 -3.34774 0
M  V30 3049 C 284.453 -1.99685 -3.78563 0
M  V30 3050 C 283.779 -1.55658 -5.11541 0
M  V30 3051 C 285.079 -3.41003 -3.95619 0
M  V30 3052 H 286.773 -2.1569 -2.07649 0
M  V30 3053 H 284.319 -1.03839 -0.997675 0
M  V30 3054 H 286.272 -0.842934 -4.12883 0
M  V30 3055 H 284.996 0.0509793 -3.2656 0
M  V30 3056 H 283.655 -2.06813 -3.02694 0
M  V30 3057 H 283.303 -0.569132 -4.9977 0
M  V30 3058 H 283.003 -2.27409 -5.41811 0
M  V30 3059 H 284.527 -1.48928 -5.92159 0
M  V30 3060 H 285.941 -3.36547 -4.64122 0
M  V30 3061 H 284.338 -4.10975 -4.37286 0
M  V30 3062 H 285.408 -3.81754 -2.98985 0
M  V30 3063 N 286.751 1.08385 -1.14413 0
M  V30 3064 C 287.714 2.13486 -0.834048 0
M  V30 3065 C 288.714 1.59988 0.161418 0
M  V30 3066 O 289.904 1.74071 -0.0669575 0
M  V30 3067 C 287.036 3.4003 -0.243354 0
M  V30 3068 H 288.229 2.42425 -1.7655 0
M  V30 3069 H 285.782 1.24101 -0.950189 0
M  V30 3070 H 286.517 3.16726 0.696807 0
M  V30 3071 H 286.302 3.80157 -0.960367 0
M  V30 3072 H 287.792 4.17577 -0.0436242 0
M  V30 3073 N 288.23 0.939286 1.26551 0
M  V30 3074 C 289.455 0.602008 1.98471 0
M  V30 3075 C 289.88 -0.815624 1.69497 0
M  V30 3076 O 289.238 -1.54912 0.941905 0
M  V30 3077 C 289.286 0.848407 3.50477 0
M  V30 3078 O 288.39 -0.0804009 4.12322 0
M  V30 3079 H 287.731 0.23049 0.622712 0
M  V30 3080 H 290.261 1.2617 1.61066 0
M  V30 3081 H 290.271 0.768553 4.00696 0
M  V30 3082 H 288.946 1.88171 3.70897 0
M  V30 3083 H 287.523 0.0503508 3.72866 0
M  V30 3084 N 289.708 -1.40897 0.706093 0
M  V30 3085 C 291.119 -1.84023 0.315052 0
M  V30 3086 C 291.47 -1.5906 -1.14866 0
M  V30 3087 O 290.595 -1.06651 -1.88293 0
M  V30 3088 C 291.19 -3.34055 0.565038 0
M  V30 3089 C 289.749 -3.7571 0.227806 0
M  V30 3090 C 288.896 -2.64204 0.842122 0
M  V30 3091 H 291.847 -1.303 0.905963 0
M  V30 3092 H 291.868 -3.80107 -0.172843 0
M  V30 3093 H 291.38 -3.52192 1.63042 0
M  V30 3094 H 289.481 -3.63172 -0.832895 0
M  V30 3095 H 289.594 -4.74103 0.690174 0
M  V30 3096 H 287.958 -2.53255 0.270893 0
M  V30 3097 H 288.741 -2.85155 1.91158 0
M  V30 3098 N 291.186 -0.45159 -1.50991 0
M  V30 3099 C 292.096 0.358431 -2.31846 0
M  V30 3100 C 293.112 1.01438 -1.41373 0
M  V30 3101 O 294.288 1.00663 -1.74439 0
M  V30 3102 C 291.353 1.43704 -3.15515 0
M  V30 3103 C 290.414 0.799742 -4.21785 0
M  V30 3104 C 289.647 1.82696 -5.01456 0
M  V30 3105 O 289.87 3.05105 -4.81941 0
M  V30 3106 O 288.804 1.40958 -5.85162 0
M  V30 3107 H 292.63 -0.302032 -3.02194 0
M  V30 3108 H 290.215 -0.213825 -1.47862 0
M  V30 3109 H 292.097 2.06227 -3.67489 0
M  V30 3110 H 290.772 2.08133 -2.47916 0
M  V30 3111 H 289.679 0.136084 -3.73852 0
M  V30 3112 H 291.012 0.198718 -4.91799 0
M  V30 3113 N 292.664 1.56529 -0.183458 0
M  V30 3114 C 293.894 2.01331 0.463612 0
M  V30 3115 C 294.302 1.06278 1.5653 0
M  V30 3116 O 293.645 0.0577976 1.83609 0
M  V30 3117 C 293.707 3.42547 1.09096 0
M  V30 3118 C 293.371 4.56817 0.129442 0
M  V30 3119 C 294.368 5.15734 -0.656807 0
M  V30 3120 C 292.053 5.02295 0.02174 0
M  V30 3121 C 294.047 6.1857 -1.53784 0
M  V30 3122 C 291.734 6.04978 -0.862864 0
M  V30 3123 C 292.732 6.62988 -1.64123 0
M  V30 3124 O 292.42 7.63677 -2.51103 0
M  V30 3125 H 292.152 0.664917 0.121907 0
M  V30 3126 H 294.706 2.034 -0.285954 0
M  V30 3127 H 292.936 3.37428 1.88889 0
M  V30 3128 H 294.625 3.71228 1.64148 0
M  V30 3129 H 295.391 4.81473 -0.583839 0
M  V30 3130 H 291.27 4.56847 0.617392 0
M  V30 3131 H 294.814 6.63777 -2.14583 0
M  V30 3132 H 290.711 6.38663 -0.93699 0
M  V30 3133 H 291.479 7.81049 -2.44753 0
M  V30 3134 N 294.142 -0.090211 1.57342 0
M  V30 3135 C 295.388 -0.793982 1.86611 0
M  V30 3136 C 295.721 -1.78142 0.773252 0
M  V30 3137 O 294.996 -1.93271 -0.218304 0
M  V30 3138 C 295.279 -1.51839 3.26523 0
M  V30 3139 C 295.132 -0.548609 4.46442 0
M  V30 3140 C 296.451 -2.46779 3.64401 0
M  V30 3141 H 293.57 -0.287186 0.678744 0
M  V30 3142 H 296.212 -0.0575076 1.89913 0
M  V30 3143 H 294.362 -2.14617 3.23839 0
M  V30 3144 H 296.034 0.0725513 4.61243 0
M  V30 3145 H 294.277 0.137614 4.33582 0
M  V30 3146 H 294.948 -1.09271 5.41076 0
M  V30 3147 H 297.424 -1.94089 3.68061 0
M  V30 3148 H 296.3 -2.94479 4.63221 0
M  V30 3149 H 296.561 -3.30758 2.93346 0
M  V30 3150 N 295.62 -1.53406 -0.361157 0
M  V30 3151 C 296.568 -1.80832 -1.46296 0
M  V30 3152 C 297.562 -0.677699 -1.55253 0
M  V30 3153 O 298.768 -0.860723 -1.58087 0
M  V30 3154 H 295.143 -0.572627 -0.487445 0
M  V30 3155 H 297.114 -2.73045 -1.20371 0
M  V30 3156 C 295.863 -2.01907 -2.8307 0
M  V30 3157 H 295.186 -2.88349 -2.76938 0
M  V30 3158 H 296.626 -2.25072 -3.59331 0
M  V30 3159 C 295.085 -0.799449 -3.27277 0
M  V30 3160 O 295.615 0.00971761 -4.01699 0
M  V30 3161 N 293.821 -0.621637 -2.83873 0
M  V30 3162 H 293.368 -1.28126 -2.23476 0
M  V30 3163 H 293.326 0.19298 -3.13807 0
M  V30 3164 N 297.098 0.621204 -1.44841 0
M  V30 3165 C 298.028 1.74366 -1.55303 0
M  V30 3166 C 299.009 1.65199 -0.405385 0
M  V30 3167 O 300.194 1.83807 -0.626787 0
M  V30 3168 C 297.324 3.12931 -1.50637 0
M  V30 3169 C 296.278 3.36896 -2.63979 0
M  V30 3170 C 295.604 4.75594 -2.44366 0
M  V30 3171 C 296.904 3.28483 -4.06074 0
M  V30 3172 H 298.598 1.65867 -2.49256 0
M  V30 3173 H 296.144 0.796558 -1.19962 0
M  V30 3174 H 298.097 3.9124 -1.56555 0
M  V30 3175 H 296.821 3.22237 -0.532057 0
M  V30 3176 H 295.48 2.60972 -2.57467 0
M  V30 3177 H 295.128 4.81616 -1.45105 0
M  V30 3178 H 294.828 4.92586 -3.20364 0
M  V30 3179 H 296.352 5.5612 -2.52117 0
M  V30 3180 H 297.766 3.96684 -4.13902 0
M  V30 3181 H 296.163 3.57008 -4.82354 0
M  V30 3182 H 297.233 2.26133 -4.28943 0
M  V30 3183 N 298.576 1.31904 0.862503 0
M  V30 3184 C 299.987 1.19803 1.43193 0
M  V30 3185 C 300.338 -0.192567 1.95253 0
M  V30 3186 O 299.463 -1.09081 1.86896 0
M  V30 3187 C 300.058 2.16883 2.60283 0
M  V30 3188 C 298.617 2.08692 3.13248 0
M  V30 3189 C 297.764 2.05691 1.85975 0
M  V30 3190 H 300.715 1.43846 0.670365 0
M  V30 3191 H 300.736 1.76278 3.37204 0
M  V30 3192 H 300.248 3.18083 2.22363 0
M  V30 3193 H 298.349 1.10713 3.55771 0
M  V30 3194 H 298.462 2.9815 3.75025 0
M  V30 3195 H 296.826 1.50814 2.05249 0
M  V30 3196 H 297.609 3.08659 1.50282 0
M  V30 3197 N 300.054 -1.07777 1.14986 0
M  V30 3198 C 301.303 -1.79669 0.916617 0
M  V30 3199 C 301.616 -1.87474 -0.557917 0
M  V30 3200 O 302.822 -2.55845 -0.908617 0
M  V30 3201 C 301.278 -3.22848 1.59051 0
M  V30 3202 C 300.886 -3.23257 3.10176 0
M  V30 3203 C 302.63 -3.99379 1.43864 0
M  V30 3204 C 300.537 -4.61063 3.70372 0
M  V30 3205 H 299.467 -0.673349 0.33929 0
M  V30 3206 H 302.118 -1.21003 1.37951 0
M  V30 3207 H 300.5 -3.8168 1.0553 0
M  V30 3208 H 301.674 -2.74095 3.70417 0
M  V30 3209 H 299.989 -2.60222 3.25074 0
M  V30 3210 H 302.586 -5.0122 1.86232 0
M  V30 3211 H 302.929 -4.14511 0.385564 0
M  V30 3212 H 303.462 -3.47032 1.94457 0
M  V30 3213 H 300.201 -4.51135 4.7556 0
M  V30 3214 H 299.721 -5.1048 3.14913 0
M  V30 3215 H 301.4 -5.30034 3.71043 0
M  V30 3216 N 301.532 -0.945985 -1.26051 0
M  V30 3217 C 302.48 -0.450259 -2.282 0
M  V30 3218 C 303.474 0.47497 -1.62605 0
M  V30 3219 O 304.68 0.352653 -1.76512 0
M  V30 3220 H 301.055 -0.127081 -0.741184 0
M  V30 3221 H 303.026 -1.32422 -2.67408 0
M  V30 3222 C 301.775 0.26467 -3.46691 0
M  V30 3223 H 301.098 -0.438123 -3.97392 0
M  V30 3224 H 302.538 0.575678 -4.20074 0
M  V30 3225 C 300.997 1.48416 -3.02447 0
M  V30 3226 O 301.527 2.58227 -3.07704 0
M  V30 3227 N 299.733 1.34243 -2.57735 0
M  V30 3228 H 299.28 0.448994 -2.53657 0
M  V30 3229 H 299.238 2.15957 -2.28495 0
M  V30 3230 N 303.011 1.40521 -0.713556 0
M  V30 3231 C 304.259 2.00527 -0.251692 0
M  V30 3232 C 304.58 1.56857 1.15848 0
M  V30 3233 O 303.85 0.807127 1.785 0
M  V30 3234 H 302.43 0.741551 -0.0900646 0
M  V30 3235 H 305.092 1.71887 -0.918733 0
M  V30 3236 H 304.188 3.10813 -0.283192 0
M  V30 3237 N 304.489 0.459591 1.5075 0
M  V30 3238 C 305.437 -0.354678 2.2988 0
M  V30 3239 C 306.431 -1.00086 1.36672 0
M  V30 3240 O 307.637 -0.933277 1.53915 0
M  V30 3241 H 304.012 -0.13321 0.740107 0
M  V30 3242 H 305.983 0.333269 2.96533 0
M  V30 3243 C 304.732 -1.43073 3.169 0
M  V30 3244 H 304.055 -0.942882 3.88523 0
M  V30 3245 H 305.495 -1.97328 3.75284 0
M  V30 3246 C 303.954 -2.42633 2.33732 0
M  V30 3247 O 304.484 -3.47658 2.01238 0
M  V30 3248 N 302.69 -2.14066 1.9653 0
M  V30 3249 H 302.237 -1.28685 2.23155 0
M  V30 3250 H 302.195 -2.80917 1.41185 0
M  V30 3251 N 305.967 -1.56429 0.191757 0
M  V30 3252 C 307.215 -1.97095 -0.447006 0
M  V30 3253 C 307.536 -1.07967 -1.62383 0
M  V30 3254 O 306.806 -0.150248 -1.95323 0
M  V30 3255 H 305.386 -0.727832 -0.168135 0
M  V30 3256 H 308.048 -1.92911 0.27771 0
M  V30 3257 H 307.144 -3.01848 -0.793371 0
M  V30 3258 N 307.445 0.0818655 -1.57387 0
M  V30 3259 C 308.392 1.09834 -2.0299 0
M  V30 3260 C 309.362 1.39043 -0.908639 0
M  V30 3261 O 310.547 1.50282 -1.17559 0
M  V30 3262 C 307.687 2.40971 -2.47037 0
M  V30 3263 C 306.8 2.18379 -3.7274 0
M  V30 3264 C 305.935 3.43008 -4.0561 0
M  V30 3265 C 304.974 3.15736 -5.24383 0
M  V30 3266 N 304.111 4.32667 -5.52941 0
M  V30 3267 H 308.951 0.702472 -2.89602 0
M  V30 3268 H 306.488 0.33531 -1.43227 0
M  V30 3269 H 308.446 3.1752 -2.70623 0
M  V30 3270 H 307.076 2.78379 -1.63417 0
M  V30 3271 H 306.128 1.32569 -3.56552 0
M  V30 3272 H 307.44 1.94227 -4.59431 0
M  V30 3273 H 306.594 4.27958 -4.30043 0
M  V30 3274 H 305.333 3.70225 -3.17466 0
M  V30 3275 H 304.338 2.2918 -4.99757 0
M  V30 3276 H 305.563 2.8985 -6.14136 0
M  V30 3277 H 303.509 4.59935 -4.67756 0
M  V30 3278 H 303.426 4.11753 -6.34031 0
M  V30 3279 H 304.694 5.18644 -5.81918 0
M  V30 3280 N 308.923 1.53595 0.353017 0
M  V30 3281 C 309.855 1.77219 1.45348 0
M  V30 3282 C 310.868 0.65324 1.49119 0
M  V30 3283 O 312.057 0.929775 1.52373 0
M  V30 3284 C 309.157 1.84841 2.84055 0
M  V30 3285 C 308.33 3.14649 3.03833 0
M  V30 3286 C 307.389 3.13351 4.22727 0
M  V30 3287 O 306.415 3.87107 4.17297 0
M  V30 3288 N 307.617 2.35052 5.30783 0
M  V30 3289 H 310.382 2.72178 1.25457 0
M  V30 3290 H 307.943 1.52528 0.542833 0
M  V30 3291 H 309.935 1.81435 3.61751 0
M  V30 3292 H 308.505 0.971114 2.97133 0
M  V30 3293 H 307.725 3.31256 2.13689 0
M  V30 3294 H 309.013 4.00411 3.13925 0
M  V30 3295 H 308.411 1.74663 5.38061 0
M  V30 3296 H 306.968 2.37453 6.07009 0
M  V30 3297 O 310.44 -0.498996 1.53598 0
M  V30 3298 H 311.131 -1.15384 1.55584 0
M  V30 END ATOM
M  V30 BEGIN BOND
M  V30 END BOND
M  V30 END CTAB
M  END
$$$$
