drugbank_target|P95468 Aromatic-amino-acid aminotransferase (DB02024; DB02242; DB02434; DB02740; DB02758; DB03210; DB03400; DB04051; DB04208; DB04299; DB06819)
 OpenBabel12092119533D

  0  0  0     0  0            999 V3000
M  V30 BEGIN CTAB
M  V30 COUNTS 6005 6057 0 0 0
M  V30 BEGIN ATOM
M  V30 1 H -0.908 1.98254 -0.117106 0
M  V30 2 N 0 1.576 0 0
M  V30 3 C 0.933 2.03868 1.02534 0
M  V30 4 C 1.911 0.928543 1.3348 0
M  V30 5 O 3.095 1.19667 1.45644 0
M  V30 6 C 0.222 2.43627 2.35294 0
M  V30 7 C -0.732 3.65373 2.2001 0
M  V30 8 S 0.101 5.13292 1.52614 0
M  V30 9 C 1.257 5.56322 2.86805 0
M  V30 10 H 1.49 2.90518 0.631377 0
M  V30 11 H -0.977 1.52953 0.210867 0
M  V30 12 H 0.981 2.67203 3.11629 0
M  V30 13 H -0.358 1.57376 2.7183 0
M  V30 14 H -1.165 3.90944 3.18086 0
M  V30 15 H -1.563 3.418 1.51819 0
M  V30 16 H 0.729 5.58782 3.83104 0
M  V30 17 H 1.672 6.56266 2.65933 0
M  V30 18 H 2.08 4.83886 2.90714 0
M  V30 19 N 1.4781 -0.272755 1.55222 0
M  V30 20 C 2.4081 -1.34136 1.91127 0
M  V30 21 C 3.3891 -1.51513 0.773168 0
M  V30 22 O 4.5741 -1.64552 1.03132 0
M  V30 23 C 1.7041 -2.70083 2.1834 0
M  V30 24 C 0.6581 -2.67437 3.34158 0
M  V30 25 C -0.0159 -4.06938 3.46851 0
M  V30 26 C 1.2841 -2.26686 4.70543 0
M  V30 27 H 2.9781 -1.04333 2.80633 0
M  V30 28 H 0.5241 -0.500454 1.35024 0
M  V30 29 H 2.4771 -3.44952 2.42046 0
M  V30 30 H 1.2011 -3.01469 1.25634 0
M  V30 31 H -0.1399 -1.95026 3.1042 0
M  V30 32 H -0.4919 -4.35547 2.51611 0
M  V30 33 H -0.7919 -4.06062 4.2472 0
M  V30 34 H 0.7321 -4.83545 3.72849 0
M  V30 35 H 2.1461 -2.91277 4.93792 0
M  V30 36 H 0.5431 -2.36971 5.5133 0
M  V30 37 H 1.6131 -1.21818 4.69349 0
M  V30 38 N 2.9562 -1.48159 -0.537278 0
M  V30 39 C 4.2042 -1.55497 -1.29094 0
M  V30 40 C 4.5252 -0.227454 -1.93669 0
M  V30 41 O 3.7952 0.750386 -1.80959 0
M  V30 42 H 2.3752 -0.572832 -0.47945 0
M  V30 43 H 5.0372 -1.84579 -0.625818 0
M  V30 44 H 4.1332 -2.33216 -2.07405 0
M  V30 45 N 4.4343 0.785586 -1.36625 0
M  V30 46 C 5.3823 1.91978 -1.31329 0
M  V30 47 C 6.3763 1.68162 -0.204416 0
M  V30 48 O 7.5823 1.76122 -0.371645 0
M  V30 49 H 3.9573 0.631087 -0.408942 0
M  V30 50 H 5.9283 1.93562 -2.27104 0
M  V30 51 C 4.6773 3.29055 -1.12329 0
M  V30 52 H 4.0003 3.4795 -1.96903 0
M  V30 53 H 5.4403 4.08756 -1.12671 0
M  V30 54 C 3.8993 3.36461 0.171861 0
M  V30 55 O 4.4293 3.84576 1.16035 0
M  V30 56 N 2.6353 2.89782 0.217846 0
M  V30 57 H 2.1823 2.50819 -0.587183 0
M  V30 58 H 2.1403 2.95119 1.08408 0
M  V30 59 N 5.9124 1.20967 1.01018 0
M  V30 60 C 6.8424 0.988272 2.11555 0
M  V30 61 C 7.8234 -0.0849778 1.69888 0
M  V30 62 O 9.0084 0.0738202 1.9406 0
M  V30 63 C 6.1384 0.546528 3.42973 0
M  V30 64 C 5.0924 1.56375 3.9841 0
M  V30 65 C 4.4184 0.97842 5.25672 0
M  V30 66 C 5.7184 2.94922 4.31066 0
M  V30 67 H 7.4124 1.91276 2.30334 0
M  V30 68 H 4.9584 0.921073 1.1069 0
M  V30 69 H 6.9114 0.378839 4.19694 0
M  V30 70 H 5.6354 -0.413598 3.23971 0
M  V30 71 H 4.2944 1.71891 3.23804 0
M  V30 72 H 3.9424 0.0101688 5.02999 0
M  V30 73 H 3.6424 1.65784 5.63728 0
M  V30 74 H 5.1664 0.821939 6.05043 0
M  V30 75 H 6.5804 2.8288 4.9865 0
M  V30 76 H 4.9774 3.5983 4.80253 0
M  V30 77 H 6.0474 3.4616 3.39561 0
M  V30 78 N 7.3905 -1.2043 1.01659 0
M  V30 79 C 8.3375 -2.23215 0.586822 0
M  V30 80 C 9.3075 -1.61382 -0.393085 0
M  V30 81 O 10.4925 -1.88544 -0.292525 0
M  V30 82 C 7.6325 -3.45032 -0.0687464 0
M  V30 83 C 6.7455 -4.21296 0.955724 0
M  V30 84 C 5.8805 -5.30507 0.271208 0
M  V30 85 C 4.9195 -5.98515 1.28244 0
M  V30 86 N 4.0565 -6.99316 0.62459 0
M  V30 87 H 8.8965 -2.59336 1.46796 0
M  V30 88 H 6.4335 -1.27431 0.734836 0
M  V30 89 H 8.3915 -4.1459 -0.465965 0
M  V30 90 H 7.0215 -3.09604 -0.913529 0
M  V30 91 H 6.0735 -3.50803 1.4711 0
M  V30 92 H 7.3855 -4.6803 1.72479 0
M  V30 93 H 6.5395 -6.06428 -0.18151 0
M  V30 94 H 5.2785 -4.8481 -0.530163 0
M  V30 95 H 4.2835 -5.21355 1.74554 0
M  V30 96 H 5.5085 -6.46298 2.08509 0
M  V30 97 H 3.4545 -6.55812 -0.156914 0
M  V30 98 H 3.3715 -7.44178 1.33172 0
M  V30 99 H 4.6395 -7.79255 0.195462 0
M  V30 100 N 8.8686 -0.792821 -1.36206 0
M  V30 101 C 10.2796 -0.429513 -1.81692 0
M  V30 102 C 10.6306 1.04695 -1.65932 0
M  V30 103 O 9.7556 1.81256 -1.18218 0
M  V30 104 C 10.3506 -0.772831 -3.29868 0
M  V30 105 C 8.9096 -0.462307 -3.7355 0
M  V30 106 C 8.0566 -1.00569 -2.5842 0
M  V30 107 H 11.0076 -0.985672 -1.24379 0
M  V30 108 H 11.0286 -0.0651928 -3.80444 0
M  V30 109 H 10.5406 -1.84747 -3.41307 0
M  V30 110 H 8.6416 0.604158 -3.67669 0
M  V30 111 H 8.7546 -0.985299 -4.68859 0
M  V30 112 H 7.1186 -0.428734 -2.51066 0
M  V30 113 H 7.9016 -2.08616 -2.72643 0
M  V30 114 N 10.3467 1.47872 -0.545128 0
M  V30 115 C 11.2787 2.27869 0.246621 0
M  V30 116 C 12.2917 1.36282 0.890561 0
M  V30 117 O 13.4807 1.61207 0.766449 0
M  V30 118 C 10.5807 3.10159 1.36582 0
M  V30 119 C 9.7537 4.29627 0.820954 0
M  V30 120 C 8.8127 4.93607 1.82314 0
M  V30 121 O 7.8387 5.52366 1.37406 0
M  V30 122 N 9.0407 4.87211 3.15603 0
M  V30 123 H 11.8057 2.96459 -0.439539 0
M  V30 124 H 9.3667 1.57367 -0.380421 0
M  V30 125 H 11.3587 3.49829 2.03474 0
M  V30 126 H 9.9287 2.43891 1.9554 0
M  V30 127 H 9.1487 3.94192 -0.0244032 0
M  V30 128 H 10.4367 5.06928 0.436063 0
M  V30 129 H 9.8347 4.40651 3.54744 0
M  V30 130 H 8.3917 5.30937 3.78087 0
M  V30 131 N 11.8248 0.280983 1.55075 0
M  V30 132 C 12.7878 -0.590896 2.21452 0
M  V30 133 C 13.7878 -1.07682 1.19421 0
M  V30 134 O 14.9778 -0.97605 1.44288 0
M  V30 135 C 12.1098 -1.81587 2.88511 0
M  V30 136 H 13.3028 -0.0112554 2.99898 0
M  V30 137 H 10.8558 0.0316438 1.56268 0
M  V30 138 H 11.5908 -2.43587 2.14093 0
M  V30 139 H 11.3758 -1.4753 3.63287 0
M  V30 140 H 12.8658 -2.43575 3.39206 0
M  V30 141 N 13.3029 -1.57598 0.00835791 0
M  V30 142 C 14.7139 -1.7892 -0.53333 0
M  V30 143 C 15.0649 -0.916609 -1.73473 0
M  V30 144 O 14.1899 -0.121336 -2.1606 0
M  V30 145 C 14.7849 -3.24488 -0.974313 0
M  V30 146 C 13.3439 -3.46878 -1.46125 0
M  V30 147 C 12.4909 -2.74157 -0.416302 0
M  V30 148 H 15.4419 -1.56958 0.234495 0
M  V30 149 H 15.4629 -3.3306 -1.83988 0
M  V30 150 H 14.9749 -3.87972 -0.099718 0
M  V30 151 H 13.0759 -2.8862 -2.35646 0
M  V30 152 H 13.1889 -4.55572 -1.48295 0
M  V30 153 H 11.5529 -2.39022 -0.87981 0
M  V30 154 H 12.3359 -3.40345 0.44947 0
M  V30 155 N 14.781 0.264519 -1.55364 0
M  V30 156 C 16.058 1.01677 -1.67096 0
M  V30 157 C 16.438 2.03996 -0.543015 0
M  V30 158 O 15.786 2.23907 0.45585 0
M  V30 159 C 15.996 1.66596 -3.0667 0
M  V30 160 C 17.344 2.17442 -3.64697 0
M  V30 161 O 18.368 1.76568 -3.09358 0
M  V30 162 O 17.227 2.92439 -4.61673 0
M  V30 163 H 14.321 0.472161 -0.678965 0
M  V30 164 H 16.867 0.259703 -1.67701 0
M  V30 165 H 15.639 0.924962 -3.80211 0
M  V30 166 H 15.262 2.48968 -3.10001 0
M  V30 167 N 16.2591 1.48442 0.529413 0
M  V30 168 C 17.2061 1.63007 1.63394 0
M  V30 169 C 18.1761 0.47212 1.59249 0
M  V30 170 O 19.3611 0.695673 1.77666 0
M  V30 171 C 16.5011 1.6763 3.01653 0
M  V30 172 C 15.6141 2.94535 3.16027 0
M  V30 173 C 14.7491 2.90316 4.44849 0
M  V30 174 C 13.7881 4.11923 4.52754 0
M  V30 175 N 12.9251 4.05777 5.72965 0
M  V30 176 H 17.7651 2.5733 1.50285 0
M  V30 177 H 15.3021 1.27613 0.731656 0
M  V30 178 H 17.2601 1.68292 3.81751 0
M  V30 179 H 15.8901 0.76797 3.13532 0
M  V30 180 H 14.9421 3.03615 2.29177 0
M  V30 181 H 16.2541 3.84512 3.17729 0
M  V30 182 H 15.4081 2.89382 5.33238 0
M  V30 183 H 14.1471 1.98068 4.45668 0
M  V30 184 H 13.1521 4.13131 3.62771 0
M  V30 185 H 14.3771 5.0533 4.53672 0
M  V30 186 H 12.3231 3.16351 5.74681 0
M  V30 187 H 12.2401 4.8946 5.76164 0
M  V30 188 H 13.5081 4.08904 6.6364 0
M  V30 189 N 17.7372 -0.778329 1.37039 0
M  V30 190 C 18.9862 -1.53189 1.3121 0
M  V30 191 C 19.2992 -1.95328 -0.103095 0
M  V30 192 O 20.5052 -2.70012 -0.283826 0
M  V30 193 C 18.9612 -2.76591 2.30272 0
M  V30 194 C 18.5692 -2.41577 3.77286 0
M  V30 195 C 20.3132 -3.5455 2.33441 0
M  V30 196 C 18.2202 -3.61441 4.68096 0
M  V30 197 H 17.1502 -0.5751 0.487622 0
M  V30 198 H 19.8012 -0.853101 1.62464 0
M  V30 199 H 18.1832 -3.46326 1.92027 0
M  V30 200 H 19.3572 -1.79668 4.2433 0
M  V30 201 H 17.6722 -1.76806 3.76999 0
M  V30 202 H 20.2692 -4.43628 2.98493 0
M  V30 203 H 20.6122 -3.93936 1.34611 0
M  V30 204 H 21.1452 -2.91805 2.7036 0
M  V30 205 H 17.8842 -3.27142 5.6803 0
M  V30 206 H 17.4042 -4.22478 4.25761 0
M  V30 207 H 19.0832 -4.28335 4.8491 0
M  V30 208 N 19.2153 -1.21501 -1.00376 0
M  V30 209 C 20.1453 -0.999478 -2.11028 0
M  V30 210 C 21.1263 0.0759671 -1.6993 0
M  V30 211 O 22.3113 -0.0841106 -1.94018 0
M  V30 212 C 19.4413 -0.564709 -3.42678 0
M  V30 213 C 18.3953 -1.58486 -3.97576 0
M  V30 214 C 17.7213 -1.00628 -5.25146 0
M  V30 215 C 19.0213 -2.97204 -4.29496 0
M  V30 216 H 20.7153 -1.92495 -2.29317 0
M  V30 217 H 18.2613 -0.92693 -1.102 0
M  V30 218 H 20.2143 -0.401091 -4.19487 0
M  V30 219 H 18.9383 0.396411 -3.24185 0
M  V30 220 H 17.5973 -1.73606 -3.22888 0
M  V30 221 H 17.2453 -0.0368439 -5.02987 0
M  V30 222 H 16.9453 -1.68771 -5.62841 0
M  V30 223 H 18.4693 -0.854015 -6.04598 0
M  V30 224 H 19.8833 -2.8552 -4.97143 0
M  V30 225 H 18.2803 -3.62372 -4.78338 0
M  V30 226 H 19.3503 -3.47956 -3.3772 0
M  V30 227 N 20.6934 1.19889 -1.02296 0
M  V30 228 C 21.6564 2.21116 -0.603351 0
M  V30 229 C 22.6564 1.5738 0.329884 0
M  V30 230 O 23.8464 1.73802 0.117702 0
M  V30 231 C 20.9784 3.40696 0.117992 0
M  V30 232 H 22.1714 2.59754 -1.49893 0
M  V30 233 H 19.7244 1.33463 -0.813468 0
M  V30 234 H 20.4594 3.07569 1.0282 0
M  V30 235 H 20.2444 3.88188 -0.552511 0
M  V30 236 H 21.7344 4.15692 0.398696 0
M  V30 237 N 22.1715 0.800033 1.35784 0
M  V30 238 C 23.1015 0.220184 2.3246 0
M  V30 239 C 24.0825 -0.65073 1.57161 0
M  V30 240 O 25.2675 -0.582359 1.85263 0
M  V30 241 C 22.3975 -0.637353 3.41402 0
M  V30 242 C 21.3515 0.134531 4.27789 0
M  V30 243 C 20.6775 -0.844285 5.27992 0
M  V30 244 C 21.9775 1.32979 5.05088 0
M  V30 245 H 23.6715 1.02787 2.81203 0
M  V30 246 H 21.2175 0.495717 1.35199 0
M  V30 247 H 23.1705 -1.05302 4.08031 0
M  V30 248 H 21.8945 -1.47785 2.91251 0
M  V30 249 H 20.5535 0.531296 3.6273 0
M  V30 250 H 20.2015 -1.68011 4.74111 0
M  V30 251 H 19.9015 -0.332184 5.8666 0
M  V30 252 H 21.4255 -1.2583 5.97494 0
M  V30 253 H 22.8395 0.98934 5.64699 0
M  V30 254 H 21.2365 1.77593 5.7322 0
M  V30 255 H 22.3065 2.11978 4.36111 0
M  V30 256 N 23.6496 -1.47581 0.552962 0
M  V30 257 C 24.5826 -2.26883 -0.244857 0
M  V30 258 C 25.5606 -1.33784 -0.924147 0
M  V30 259 O 26.7446 -1.6316 -0.943981 0
M  V30 260 C 23.8716 -3.10695 -1.34856 0
M  V30 261 C 22.9176 -4.19339 -0.778268 0
M  V30 262 S 23.7506 -5.34207 0.37184 0
M  V30 263 C 24.9066 -6.21584 -0.733779 0
M  V30 264 H 25.1396 -2.94202 0.428087 0
M  V30 265 H 22.6726 -1.50628 0.339197 0
M  V30 266 H 24.6306 -3.59555 -1.98066 0
M  V30 267 H 23.2916 -2.42746 -1.99332 0
M  V30 268 H 22.4846 -4.77695 -1.60696 0
M  V30 269 H 22.0866 -3.73338 -0.222422 0
M  V30 270 H 24.3786 -6.57676 -1.62692 0
M  V30 271 H 25.3216 -7.07851 -0.187668 0
M  V30 272 H 25.7296 -5.55125 -1.02454 0
M  V30 273 N 25.1277 -0.289203 -1.54924 0
M  V30 274 C 26.3757 0.322879 -1.99504 0
M  V30 275 C 26.6967 1.55313 -1.1791 0
M  V30 276 O 25.9667 1.94001 -0.272097 0
M  V30 277 H 24.5467 0.122291 -0.736922 0
M  V30 278 H 27.2087 -0.397802 -1.90797 0
M  V30 279 H 26.3047 0.603061 -3.06218 0
M  V30 280 N 26.6058 1.57591 -0.0167156 0
M  V30 281 C 27.5158 2.1291 0.98521 0
M  V30 282 C 28.5318 1.07834 1.36557 0
M  V30 283 O 29.7078 1.39826 1.44951 0
M  V30 284 C 26.7728 2.63512 2.25305 0
M  V30 285 C 25.8338 3.83256 1.93426 0
M  V30 286 C 25.0668 4.31435 3.14165 0
M  V30 287 O 25.2898 3.78851 4.26413 0
M  V30 288 O 24.2238 5.23416 2.97186 0
M  V30 289 H 28.0498 2.98772 0.544888 0
M  V30 290 H 25.6348 1.48012 0.203141 0
M  V30 291 H 27.5168 2.96183 2.99756 0
M  V30 292 H 26.1918 1.8074 2.68542 0
M  V30 293 H 25.0988 3.55531 1.16398 0
M  V30 294 H 26.4318 4.67153 1.55013 0
M  V30 295 N 28.0839 -0.256276 1.55502 0
M  V30 296 C 29.3309 -0.985619 1.76895 0
M  V30 297 C 29.6589 -1.85671 0.579355 0
M  V30 298 O 28.9139 -1.90744 -0.437651 0
M  V30 299 C 29.2129 -1.88432 3.03691 0
M  V30 300 C 28.8789 -1.16936 4.35473 0
M  V30 301 C 27.5409 -0.97173 4.71286 0
M  V30 302 C 29.8929 -0.661889 5.1698 0
M  V30 303 C 27.2209 -0.254179 5.86149 0
M  V30 304 C 29.5729 0.042149 6.32586 0
M  V30 305 C 28.2369 0.25134 6.67027 0
M  V30 306 H 27.5069 -0.360663 0.647304 0
M  V30 307 H 30.1539 -0.256483 1.89775 0
M  V30 308 H 28.4589 -2.68021 2.85783 0
M  V30 309 H 30.1559 -2.45015 3.1744 0
M  V30 310 H 26.7459 -1.33332 4.07333 0
M  V30 311 H 30.9299 -0.802145 4.89775 0
M  V30 312 H 26.1859 -0.0815408 6.11346 0
M  V30 313 H 30.3599 0.443049 6.94989 0
M  V30 314 H 27.9869 0.809314 7.5588 0
M  V30 315 N 29.562 -1.4872 -0.521534 0
M  V30 316 C 30.978 -1.35028 -0.850855 0
M  V30 317 C 31.178 -0.367712 -1.98116 0
M  V30 318 O 30.234 0.208037 -2.51642 0
M  V30 319 C 31.547 -2.75263 -1.21041 0
M  V30 320 C 33.095 -2.83813 -1.31981 0
M  V30 321 C 33.57 -4.24769 -1.71276 0
M  V30 322 N 35.061 -4.27482 -1.78363 0
M  V30 323 C 35.796 -5.33494 -2.1017 0
M  V30 324 N 35.292 -6.49775 -2.40343 0
M  V30 325 N 37.085 -5.20894 -2.11248 0
M  V30 326 H 29.236 -2.11214 0.22413 0
M  V30 327 H 31.499 -0.947252 0.0376439 0
M  V30 328 H 31.205 -3.48765 -0.453415 0
M  V30 329 H 31.079 -3.09327 -2.15863 0
M  V30 330 H 33.466 -2.10561 -2.06756 0
M  V30 331 H 33.547 -2.53358 -0.352596 0
M  V30 332 H 33.191 -4.9854 -0.970588 0
M  V30 333 H 33.121 -4.52673 -2.69062 0
M  V30 334 H 35.612 -3.43611 -1.57288 0
M  V30 335 H 35.925 -7.26402 -2.63743 0
M  V30 336 H 34.27 -6.53035 -2.37844 0
M  V30 337 H 37.461 -4.29065 -1.87139 0
M  V30 338 H 37.634 -6.03612 -2.35704 0
M  V30 339 N 31.0401 0.771051 -1.3745 0
M  V30 340 C 32.0031 1.86598 -1.33093 0
M  V30 341 C 33.0031 1.59076 -0.234845 0
M  V30 342 O 34.1931 1.67145 -0.490732 0
M  V30 343 C 31.3251 3.23747 -1.06773 0
M  V30 344 H 32.5181 1.91873 -2.30488 0
M  V30 345 H 30.0711 0.970876 -1.2249 0
M  V30 346 H 30.8061 3.24148 -0.099129 0
M  V30 347 H 30.5911 3.45115 -1.86112 0
M  V30 348 H 32.0811 4.03824 -1.06377 0
M  V30 349 N 32.5182 1.22032 0.997298 0
M  V30 350 C 33.7952 0.950823 1.70935 0
M  V30 351 C 34.1752 -0.535292 2.042 0
M  V30 352 O 33.5232 -1.50217 1.72183 0
M  V30 353 C 33.7332 1.84386 2.96315 0
M  V30 354 C 35.0812 2.09732 3.69185 0
M  V30 355 O 36.1052 1.81798 3.06314 0
M  V30 356 O 34.9642 2.57018 4.82291 0
M  V30 357 H 32.0582 0.357204 0.745878 0
M  V30 358 H 34.6042 1.32997 1.05404 0
M  V30 359 H 33.3762 2.84928 2.68201 0
M  V30 360 H 32.9992 1.46602 3.69586 0
M  V30 361 N 33.9963 -1.19345 1.0293 0
M  V30 362 C 35.4073 -1.70725 0.755633 0
M  V30 363 C 35.7583 -1.82326 -0.724676 0
M  V30 364 O 34.8833 -1.49471 -1.56484 0
M  V30 365 C 35.4783 -3.10084 1.36503 0
M  V30 366 C 34.0373 -3.58723 1.13994 0
M  V30 367 C 33.1843 -2.35577 1.46283 0
M  V30 368 H 36.1353 -1.0418 1.19718 0
M  V30 369 H 36.1563 -3.72787 0.762217 0
M  V30 370 H 35.6683 -3.01609 2.44241 0
M  V30 371 H 33.7693 -3.72512 0.0807901 0
M  V30 372 H 33.8823 -4.42816 1.82894 0
M  V30 373 H 32.2463 -2.38935 0.88217 0
M  V30 374 H 33.0293 -2.29731 2.55105 0
M  V30 375 N 35.4744 -0.807222 -1.35358 0
M  V30 376 C 36.8904 -0.491038 -1.51858 0
M  V30 377 C 37.0904 0.987648 -1.75635 0
M  V30 378 O 36.1464 1.77265 -1.79815 0
M  V30 379 C 37.4594 -1.33695 -2.69344 0
M  V30 380 C 39.0074 -1.33246 -2.83222 0
M  V30 381 C 39.4824 -2.1625 -4.03733 0
M  V30 382 N 40.9734 -2.1379 -4.10911 0
M  V30 383 C 41.7084 -2.74772 -5.03277 0
M  V30 384 N 41.2044 -3.44684 -6.0097 0
M  V30 385 N 42.9974 -2.6441 -4.96028 0
M  V30 386 H 35.1484 -1.76485 -1.18181 0
M  V30 387 H 37.4114 -0.751199 -0.578276 0
M  V30 388 H 37.1174 -2.38634 -2.58354 0
M  V30 389 H 36.9914 -0.990618 -3.6396 0
M  V30 390 H 39.3784 -0.290911 -2.93663 0
M  V30 391 H 39.4594 -1.71866 -1.89461 0
M  V30 392 H 39.1034 -3.20445 -3.94052 0
M  V30 393 H 39.0334 -1.74989 -4.96675 0
M  V30 394 H 41.5244 -1.62923 -3.40976 0
M  V30 395 H 41.8374 -3.88501 -6.68047 0
M  V30 396 H 40.1824 -3.48788 -6.01142 0
M  V30 397 H 43.3734 -2.0938 -4.18662 0
M  V30 398 H 43.5464 -3.12225 -5.6782 0
M  V30 399 N 36.9525 1.47285 -0.560781 0
M  V30 400 C 37.8845 2.28118 0.222438 0
M  V30 401 C 38.8975 1.37219 0.876056 0
M  V30 402 O 40.0865 1.62011 0.749307 0
M  V30 403 C 37.1865 3.1159 1.33285 0
M  V30 404 C 36.3595 4.30473 0.77534 0
M  V30 405 C 35.4185 4.95513 1.77069 0
M  V30 406 O 34.4445 5.53792 1.31539 0
M  V30 407 N 35.6465 4.90531 3.10418 0
M  V30 408 H 38.4115 2.95976 -0.470958 0
M  V30 409 H 35.9725 1.56955 -0.39709 0
M  V30 410 H 37.9645 3.51967 1.99752 0
M  V30 411 H 36.5345 2.45951 1.92943 0
M  V30 412 H 35.7545 3.94144 -0.0662113 0
M  V30 413 H 37.0425 5.07362 0.382272 0
M  V30 414 H 36.4405 4.44389 3.5005 0
M  V30 415 H 34.9975 5.34917 3.72434 0
M  V30 416 N 38.4306 0.297415 1.54768 0
M  V30 417 C 39.6786 -0.312295 1.99673 0
M  V30 418 C 39.9996 -1.54686 1.18732 0
M  V30 419 O 39.2696 -1.93854 0.282382 0
M  V30 420 H 37.8496 -0.118381 0.73756 0
M  V30 421 H 40.5116 0.407915 1.90583 0
M  V30 422 H 39.6076 -0.586813 3.06534 0
M  V30 423 N 39.9087 -1.5758 0.0250728 0
M  V30 424 C 40.8557 -2.09973 -0.958129 0
M  V30 425 C 41.8257 -1.00085 -1.3256 0
M  V30 426 O 43.0107 -1.27481 -1.41962 0
M  V30 427 C 40.1507 -2.62812 -2.2366 0
M  V30 428 C 39.2637 -3.86693 -1.92594 0
M  V30 429 C 38.3987 -4.27941 -3.14707 0
M  V30 430 C 37.4377 -5.44591 -2.79442 0
M  V30 431 N 36.5747 -5.81014 -3.94167 0
M  V30 432 H 41.4147 -2.937 -0.504428 0
M  V30 433 H 38.9517 -1.45172 -0.237392 0
M  V30 434 H 40.9097 -2.91536 -2.98434 0
M  V30 435 H 39.5397 -1.81922 -2.66654 0
M  V30 436 H 38.5917 -3.64723 -1.0808 0
M  V30 437 H 39.9037 -4.71547 -1.62619 0
M  V30 438 H 39.0577 -4.58079 -3.97804 0
M  V30 439 H 37.7967 -3.41845 -3.4784 0
M  V30 440 H 36.8017 -5.1415 -1.94755 0
M  V30 441 H 38.0267 -6.32382 -2.47528 0
M  V30 442 H 35.9727 -4.97874 -4.2715 0
M  V30 443 H 35.8897 -6.60498 -3.67801 0
M  V30 444 H 37.1577 -6.15756 -4.7798 0
M  V30 445 N 41.3868 0.248026 -1.55636 0
M  V30 446 C 42.6358 0.974134 -1.76617 0
M  V30 447 C 42.9488 1.86528 -0.588796 0
M  V30 448 O 44.1548 2.62805 -0.681594 0
M  V30 449 C 42.6108 1.78213 -3.12679 0
M  V30 450 C 42.2188 0.93843 -4.38061 0
M  V30 451 C 43.9628 2.50104 -3.42999 0
M  V30 452 C 41.8698 1.74225 -5.65155 0
M  V30 453 H 40.7998 0.36745 -0.658405 0
M  V30 454 H 43.4508 0.22884 -1.82067 0
M  V30 455 H 41.8328 2.56933 -3.01333 0
M  V30 456 H 43.0068 0.193635 -4.60393 0
M  V30 457 H 41.3218 0.332905 -4.15067 0
M  V30 458 H 43.9188 3.10694 -4.3517 0
M  V30 459 H 44.2618 3.21662 -2.64271 0
M  V30 460 H 44.7948 1.78395 -3.55556 0
M  V30 461 H 41.5338 1.07043 -6.46701 0
M  V30 462 H 41.0538 2.46235 -5.46926 0
M  V30 463 H 42.7328 2.30967 -6.0437 0
M  V30 464 N 42.8649 1.48995 0.513639 0
M  V30 465 C 44.1419 1.48338 1.27495 0
M  V30 466 C 44.5219 0.204065 2.10111 0
M  V30 467 O 43.8699 -0.813881 2.13514 0
M  V30 468 C 44.0799 2.75498 2.14247 0
M  V30 469 C 45.4279 3.24484 2.73852 0
M  V30 470 O 46.4519 2.76528 2.24523 0
M  V30 471 O 45.3109 4.07974 3.6362 0
M  V30 472 H 42.4049 0.593149 0.576284 0
M  V30 473 H 44.9509 1.61246 0.528948 0
M  V30 474 H 43.7229 3.60109 1.53092 0
M  V30 475 H 43.3459 2.6539 2.96064 0
M  V30 476 N 44.343 -0.763751 1.37857 0
M  V30 477 C 45.273 -1.89103 1.36975 0
M  V30 478 C 46.254 -1.68439 0.237152 0
M  V30 479 O 47.439 -1.8918 0.438713 0
M  V30 480 C 44.569 -3.26496 1.18395 0
M  V30 481 C 43.523 -3.61741 2.28751 0
M  V30 482 C 42.849 -4.97762 1.95286 0
M  V30 483 C 44.149 -3.67665 3.70972 0
M  V30 484 H 45.843 -1.90099 2.31307 0
M  V30 485 H 43.389 -0.91319 1.11341 0
M  V30 486 H 45.342 -4.05003 1.16406 0
M  V30 487 H 44.066 -3.25955 0.205215 0
M  V30 488 H 42.725 -2.85547 2.29909 0
M  V30 489 H 42.373 -4.93769 0.959221 0
M  V30 490 H 42.073 -5.22313 2.69189 0
M  V30 491 H 43.597 -5.7866 1.94898 0
M  V30 492 H 45.011 -4.36307 3.719 0
M  V30 493 H 43.408 -4.03718 4.43995 0
M  V30 494 H 44.478 -2.68134 4.0402 0
M  V30 495 N 45.8211 -1.22559 -0.990812 0
M  V30 496 C 47.0691 -1.04933 -1.72724 0
M  V30 497 C 47.3901 0.416158 -1.90508 0
M  V30 498 O 46.6601 1.29918 -1.46622 0
M  V30 499 H 45.2401 -0.385296 -0.639965 0
M  V30 500 H 47.9021 -1.54105 -1.19322 0
M  V30 501 H 46.9981 -1.52886 -2.72089 0
M  V30 502 N 47.2992 1.18797 -1.03562 0
M  V30 503 C 48.5452 1.8893 -0.737113 0
M  V30 504 C 48.8782 1.79837 0.732956 0
M  V30 505 O 48.1532 1.19525 1.5344 0
M  V30 506 C 48.4362 3.39607 -1.19745 0
M  V30 507 C 48.2892 3.57537 -2.72924 0
M  V30 508 C 49.6082 4.33069 -0.783526 0
M  V30 509 H 46.7272 0.686057 -0.269249 0
M  V30 510 H 49.3692 1.39797 -1.28673 0
M  V30 511 H 47.5192 3.81583 -0.729855 0
M  V30 512 H 49.1912 3.24688 -3.27682 0
M  V30 513 H 47.4342 3.00363 -3.12993 0
M  V30 514 H 48.1052 4.63238 -3.00191 0
M  V30 515 H 50.5812 3.98846 -1.18581 0
M  V30 516 H 49.4572 5.3707 -1.13343 0
M  V30 517 H 49.7182 4.40986 0.313681 0
M  V30 518 N 48.7773 0.814389 1.34928 0
M  V30 519 C 50.0253 0.397636 1.9815 0
M  V30 520 C 50.3463 -1.04069 1.64908 0
M  V30 521 O 49.6163 -1.72121 0.93548 0
M  V30 522 H 48.1963 0.144043 0.732981 0
M  V30 523 H 50.8583 1.04195 1.6471 0
M  V30 524 H 49.9543 0.509688 3.0791 0
M  V30 525 N 50.2554 -1.46986 0.568584 0
M  V30 526 C 51.5014 -2.02741 0.0488709 0
M  V30 527 C 51.8344 -1.44077 -1.30214 0
M  V30 528 O 51.1094 -0.600552 -1.84996 0
M  V30 529 C 51.3924 -3.60086 -0.032047 0
M  V30 530 C 51.2454 -4.29162 1.34686 0
M  V30 531 C 52.5644 -4.33838 -0.739798 0
M  V30 532 H 49.6834 -0.736749 0.0192338 0
M  V30 533 H 52.3254 -1.75289 0.733065 0
M  V30 534 H 50.4754 -3.83606 -0.61473 0
M  V30 535 H 52.1474 -4.16948 1.97362 0
M  V30 536 H 50.3904 -3.89073 1.91846 0
M  V30 537 H 51.0614 -5.37826 1.24285 0
M  V30 538 H 53.5374 -4.15378 -0.244939 0
M  V30 539 H 52.4134 -5.43537 -0.765406 0
M  V30 540 H 52.6744 -4.03875 -1.79827 0
M  V30 541 N 51.7335 -0.305618 -1.54608 0
M  V30 542 C 52.9635 0.304333 -2.04346 0
M  V30 543 C 53.3715 1.47715 -1.18224 0
M  V30 544 O 52.7145 1.82591 -0.201577 0
M  V30 545 C 52.7765 0.819031 -3.50046 0
M  V30 546 C 52.4405 -0.22912 -4.56425 0
M  V30 547 C 53.4375 -1.05914 -5.08997 0
M  V30 548 C 51.1225 -0.372148 -5.0092 0
M  V30 549 C 53.1165 -2.01809 -6.04609 0
M  V30 550 C 50.8035 -1.33454 -5.9635 0
M  V30 551 C 51.8015 -2.15599 -6.48079 0
M  V30 552 O 51.4895 -3.10205 -7.41639 0
M  V30 553 H 51.2215 0.0693996 -0.672428 0
M  V30 554 H 53.7755 -0.444548 -2.00532 0
M  V30 555 H 52.0055 1.61852 -3.51199 0
M  V30 556 H 53.6945 1.34537 -3.82955 0
M  V30 557 H 54.4605 -0.959538 -4.75413 0
M  V30 558 H 50.3395 0.257304 -4.60281 0
M  V30 559 H 53.8835 -2.65966 -6.44909 0
M  V30 560 H 49.7805 -1.43485 -6.29351 0
M  V30 561 H 50.5485 -3.05237 -7.59455 0
M  V30 562 N 53.2116 1.57565 -0.0334293 0
M  V30 563 C 54.1586 2.10478 0.946981 0
M  V30 564 C 55.1286 1.00787 1.32027 0
M  V30 565 O 56.3136 1.28232 1.41284 0
M  V30 566 C 53.4536 2.63994 2.22263 0
M  V30 567 C 52.5666 3.87709 1.90541 0
M  V30 568 C 51.7016 4.29604 3.12433 0
M  V30 569 C 50.7406 5.46065 2.76549 0
M  V30 570 N 49.8776 5.83096 3.9108 0
M  V30 571 H 54.7176 2.93963 0.488846 0
M  V30 572 H 52.2546 1.45296 0.22969 0
M  V30 573 H 54.2126 2.93114 2.96884 0
M  V30 574 H 52.8426 1.83333 2.65685 0
M  V30 575 H 51.8946 3.65291 1.06144 0
M  V30 576 H 53.2066 4.72403 1.60116 0
M  V30 577 H 52.3606 4.60182 3.9537 0
M  V30 578 H 51.0996 3.43685 3.46023 0
M  V30 579 H 50.1046 5.15176 1.92026 0
M  V30 580 H 51.3296 6.33685 2.44171 0
M  V30 581 H 49.2756 5.00132 4.24504 0
M  V30 582 H 49.1926 6.6244 3.64293 0
M  V30 583 H 50.4606 6.18282 4.74708 0
M  V30 584 N 54.6897 -0.239769 1.55765 0
M  V30 585 C 55.9667 -0.990056 1.68693 0
M  V30 586 C 56.3467 -2.03107 0.5754 0
M  V30 587 O 55.6947 -2.24604 -0.42017 0
M  V30 588 C 55.9047 -1.61696 3.09282 0
M  V30 589 C 57.2527 -2.11613 3.6811 0
M  V30 590 O 58.2767 -1.71624 3.12127 0
M  V30 591 O 57.1357 -2.85057 4.66267 0
M  V30 592 H 54.2297 -0.461299 0.686391 0
M  V30 593 H 56.7757 -0.232991 1.68093 0
M  V30 594 H 55.5477 -0.864357 3.81634 0
M  V30 595 H 55.1707 -2.44005 3.13923 0
M  V30 596 N 56.1678 -1.49265 -0.50573 0
M  V30 597 C 57.1308 -1.65075 -1.59006 0
M  V30 598 C 58.1308 -0.522768 -1.52065 0
M  V30 599 O 59.3208 -0.789117 -1.55302 0
M  V30 600 C 56.4528 -1.64369 -2.98656 0
M  V30 601 H 57.6458 -2.61784 -1.46319 0
M  V30 602 H 55.1988 -1.38226 -0.729616 0
M  V30 603 H 55.9338 -0.692272 -3.16825 0
M  V30 604 H 55.7188 -2.46282 -3.05103 0
M  V30 605 H 57.2088 -1.78674 -3.77446 0
M  V30 606 N 57.6459 0.756429 -1.3826 0
M  V30 607 C 58.8739 1.54565 -1.3754 0
M  V30 608 C 59.2889 1.88767 0.0355331 0
M  V30 609 O 58.6459 1.52572 1.0014 0
M  V30 610 C 58.6969 2.84654 -2.22833 0
M  V30 611 O 58.4179 2.51912 -3.5843 0
M  V30 612 C 59.9189 3.78807 -2.30261 0
M  V30 613 H 57.1389 0.478353 -0.470553 0
M  V30 614 H 59.6829 0.936381 -1.81803 0
M  V30 615 H 57.8379 3.41965 -1.8204 0
M  V30 616 H 58.2519 3.35325 -4.03308 0
M  V30 617 H 59.7259 4.67045 -2.94233 0
M  V30 618 H 60.2029 4.19038 -1.31545 0
M  V30 619 H 60.8089 3.2742 -2.71433 0
M  V30 620 N 59.124 1.23083 0.984299 0
M  V30 621 C 60.372 1.05848 1.72165 0
M  V30 622 C 60.693 -0.406049 1.90726 0
M  V30 623 O 59.963 -1.29139 1.47309 0
M  V30 624 H 58.543 0.388685 0.637913 0
M  V30 625 H 61.205 1.54736 1.18503 0
M  V30 626 H 60.301 1.54327 2.71274 0
M  V30 627 N 60.6021 -1.18246 1.0419 0
M  V30 628 C 61.5521 -2.19843 0.604392 0
M  V30 629 C 62.5361 -1.56962 -0.353814 0
M  V30 630 O 63.7281 -1.76156 -0.17267 0
M  V30 631 C 60.8571 -3.43287 -0.0298975 0
M  V30 632 C 59.9431 -4.13288 0.951531 0
M  V30 633 N 60.3341 -4.59271 2.11906 0
M  V30 634 C 58.6321 -4.39165 0.7778 0
M  V30 635 C 59.3331 -5.13173 2.73912 0
M  V30 636 N 58.3091 -5.04763 2.01779 0
M  V30 637 H 62.1111 -2.53089 1.4941 0
M  V30 638 H 59.6251 -1.34465 0.910658 0
M  V30 639 H 61.6221 -4.15334 -0.361037 0
M  V30 640 H 60.2821 -3.11537 -0.915127 0
M  V30 641 H 61.2931 -4.5368 2.49789 0
M  V30 642 H 57.9701 -4.17461 -0.0572331 0
M  V30 643 H 59.3601 -5.58947 3.72864 0
M  V30 644 N 62.0802 -0.821533 -1.34494 0
M  V30 645 C 63.3082 -0.421884 -2.02553 0
M  V30 646 C 63.7232 0.971745 -1.61872 0
M  V30 647 O 63.0802 1.62864 -0.823496 0
M  V30 648 C 63.1312 -0.51285 -3.57844 0
M  V30 649 O 62.8522 -1.85155 -3.97051 0
M  V30 650 C 64.3532 -0.107921 -4.43169 0
M  V30 651 H 61.5732 -0.169482 -0.649243 0
M  V30 652 H 64.1172 -1.1093 -1.71798 0
M  V30 653 H 62.2722 0.126474 -3.87193 0
M  V30 654 H 62.6862 -1.82482 -4.91732 0
M  V30 655 H 64.1602 -0.222657 -5.51551 0
M  V30 656 H 64.6372 0.948401 -4.28838 0
M  V30 657 H 65.2432 -0.720989 -4.19144 0
M  V30 658 N 63.5583 1.46682 -0.576371 0
M  V30 659 C 64.9693 1.86112 -0.148091 0
M  V30 660 C 65.3203 1.48073 1.2872 0
M  V30 661 O 64.4453 0.892656 1.97131 0
M  V30 662 C 65.0403 3.37786 -0.261982 0
M  V30 663 C 63.5993 3.76235 0.111384 0
M  V30 664 C 62.7463 2.70713 -0.60083 0
M  V30 665 H 65.6973 1.37927 -0.78497 0
M  V30 666 H 65.7183 3.77007 0.514364 0
M  V30 667 H 65.2303 3.6544 -1.30671 0
M  V30 668 H 63.3313 3.54198 1.15649 0
M  V30 669 H 63.4443 4.78391 -0.26052 0
M  V30 670 H 61.8083 2.54666 -0.0417783 0
M  V30 671 H 62.5913 3.01208 -1.64708 0
M  V30 672 N 65.0364 0.313813 1.54444 0
M  V30 673 C 66.2854 -0.292519 1.99568 0
M  V30 674 C 66.5984 -1.54011 1.20582 0
M  V30 675 O 67.8044 -2.22183 1.56035 0
M  V30 676 C 66.2604 -0.571752 3.55329 0
M  V30 677 C 65.8684 0.658229 4.43138 0
M  V30 678 C 67.6124 -1.13857 4.08946 0
M  V30 679 C 65.5194 0.351439 5.90355 0
M  V30 680 H 64.4494 -0.113079 0.745472 0
M  V30 681 H 67.1004 0.424518 1.78522 0
M  V30 682 H 65.4824 -1.34872 3.72325 0
M  V30 683 H 66.6564 1.43403 4.37918 0
M  V30 684 H 64.9714 1.14458 4.0036 0
M  V30 685 H 67.5684 -1.38257 5.16516 0
M  V30 686 H 67.9114 -2.08489 3.6033 0
M  V30 687 H 68.4444 -0.423015 3.95544 0
M  V30 688 H 65.1834 1.26667 6.43145 0
M  V30 689 H 64.7034 -0.386842 5.98551 0
M  V30 690 H 66.3824 -0.0423134 6.46986 0
M  V30 691 N 66.5145 -1.57545 0.0417849 0
M  V30 692 C 67.4475 -2.06514 -0.970928 0
M  V30 693 C 68.4255 -0.963607 -1.30971 0
M  V30 694 O 69.6095 -1.23486 -1.4242 0
M  V30 695 C 66.7365 -2.4978 -2.28752 0
M  V30 696 C 65.7825 -3.71078 -2.10246 0
M  V30 697 S 66.6155 -5.17158 -1.38952 0
M  V30 698 C 67.7715 -5.6373 -2.71954 0
M  V30 699 H 68.0045 -2.9209 -0.554129 0
M  V30 700 H 65.5375 -1.53459 -0.17024 0
M  V30 701 H 67.4955 -2.75371 -3.04435 0
M  V30 702 H 66.1565 -1.64527 -2.67562 0
M  V30 703 H 65.3495 -3.9924 -3.07609 0
M  V30 704 H 64.9515 -3.45705 -1.42704 0
M  V30 705 H 67.2435 -5.68743 -3.68154 0
M  V30 706 H 68.1865 -6.63086 -2.4844 0
M  V30 707 H 68.5945 -4.91424 -2.77782 0
M  V30 708 N 67.9926 0.231505 -1.5589 0
M  V30 709 C 69.4086 0.580748 -1.48659 0
M  V30 710 C 69.6086 1.87617 -0.73498 0
M  V30 711 O 68.6646 2.51046 -0.270586 0
M  V30 712 C 69.9776 0.669202 -2.93159 0
M  V30 713 C 71.5256 0.760499 -3.03621 0
M  V30 714 C 72.0006 0.880383 -4.49459 0
M  V30 715 N 73.4916 0.944861 -4.53461 0
M  V30 716 C 74.2266 1.05716 -5.63571 0
M  V30 717 N 73.7226 1.13403 -6.83456 0
M  V30 718 N 75.5156 1.09152 -5.514 0
M  V30 719 H 67.6666 -0.618695 -2.03189 0
M  V30 720 H 69.9296 -0.215728 -0.923128 0
M  V30 721 H 69.6356 -0.212904 -3.51055 0
M  V30 722 H 69.5096 1.5361 -3.44505 0
M  V30 723 H 71.8966 1.63305 -2.45796 0
M  V30 724 H 71.9776 -0.131864 -2.5546 0
M  V30 725 H 71.6216 0.0123284 -5.07899 0
M  V30 726 H 71.5516 1.78802 -4.95316 0
M  V30 727 H 74.0426 0.896176 -3.6712 0
M  V30 728 H 74.3556 1.21921 -7.63122 0
M  V30 729 H 72.7006 1.10333 -6.86186 0
M  V30 730 H 75.8916 1.02805 -4.56671 0
M  V30 731 H 76.0646 1.17558 -6.37247 0
M  V30 732 N 69.4707 1.49531 0.497807 0
M  V30 733 C 70.4337 1.65916 1.58128 0
M  V30 734 C 71.4337 0.530825 1.51786 0
M  V30 735 O 72.6237 0.797342 1.54881 0
M  V30 736 C 69.7557 1.65951 2.9778 0
M  V30 737 H 70.9487 2.62556 1.44929 0
M  V30 738 H 68.5017 1.38611 0.722275 0
M  V30 739 H 69.2367 0.709065 3.16453 0
M  V30 740 H 69.0217 2.47897 3.03792 0
M  V30 741 H 70.5117 1.80673 3.76493 0
M  V30 742 N 70.9488 -0.749086 1.3866 0
M  V30 743 C 72.1948 -1.51056 1.35314 0
M  V30 744 C 72.5278 -1.94121 -0.0553751 0
M  V30 745 O 71.8028 -1.65763 -1.01749 0
M  V30 746 C 72.0858 -2.76003 2.31288 0
M  V30 747 C 71.9388 -2.39047 3.8102 0
M  V30 748 C 73.2578 -3.78046 2.2532 0
M  V30 749 H 70.3768 -0.547972 0.492844 0
M  V30 750 H 73.0188 -0.857628 1.69543 0
M  V30 751 H 71.1688 -3.31716 2.02229 0
M  V30 752 H 72.8408 -1.89074 4.20771 0
M  V30 753 H 71.0838 -1.71449 3.98482 0
M  V30 754 H 71.7548 -3.28462 4.4364 0
M  V30 755 H 74.2308 -3.31884 2.50983 0
M  V30 756 H 73.1068 -4.63159 2.94576 0
M  V30 757 H 73.3678 -4.23957 1.25352 0
M  V30 758 N 72.4269 -1.23603 -0.977757 0
M  V30 759 C 73.3769 -0.986664 -2.05545 0
M  V30 760 C 74.3609 0.0683009 -1.60755 0
M  V30 761 O 75.5529 -0.144162 -1.76412 0
M  V30 762 C 72.6819 -0.582623 -3.3832 0
M  V30 763 C 71.7679 -1.67313 -3.89701 0
M  V30 764 N 72.1589 -2.90394 -4.14132 0
M  V30 765 C 70.4569 -1.54832 -4.18262 0
M  V30 766 C 71.1579 -3.61017 -4.56116 0
M  V30 767 N 70.1339 -2.8854 -4.60701 0
M  V30 768 H 73.9359 -1.92139 -2.22396 0
M  V30 769 H 71.4499 -1.1358 -1.16074 0
M  V30 770 H 73.4469 -0.38524 -4.15116 0
M  V30 771 H 72.1069 0.34503 -3.22862 0
M  V30 772 H 73.1179 -3.26673 -4.01877 0
M  V30 773 H 69.7949 -0.687969 -4.11793 0
M  V30 774 H 71.1849 -4.66544 -4.83514 0
M  V30 775 N 73.905 1.17692 -1.04816 0
M  V30 776 C 74.868 2.19787 -0.650117 0
M  V30 777 C 75.868 1.58044 0.296427 0
M  V30 778 O 77.058 1.74012 0.0808097 0
M  V30 779 C 74.19 3.40869 0.0456987 0
M  V30 780 H 75.383 2.56516 -1.5537 0
M  V30 781 H 72.936 1.31708 -0.841594 0
M  V30 782 H 73.671 3.09681 0.962726 0
M  V30 783 H 73.456 3.86928 -0.634727 0
M  V30 784 H 74.946 4.16445 0.310432 0
M  V30 785 N 75.3831 0.828654 1.34056 0
M  V30 786 C 76.3461 0.259927 2.27721 0
M  V30 787 C 77.3461 -0.565478 1.50529 0
M  V30 788 O 78.5361 -0.38075 1.69988 0
M  V30 789 C 75.6681 -0.634944 3.34935 0
M  V30 790 H 76.8611 1.0863 2.79534 0
M  V30 791 H 74.4141 0.600951 1.44285 0
M  V30 792 H 75.1491 -1.48416 2.88346 0
M  V30 793 H 74.9341 -0.0444999 3.92075 0
M  V30 794 H 76.4241 -1.02648 4.04788 0
M  V30 795 N 76.8612 -1.46375 0.584142 0
M  V30 796 C 77.7712 -2.34115 -0.150728 0
M  V30 797 C 78.7872 -1.49838 -0.884567 0
M  V30 798 O 79.9632 -1.82704 -0.847429 0
M  V30 799 C 77.0282 -3.2705 -1.15062 0
M  V30 800 C 76.0892 -4.27228 -0.421293 0
M  V30 801 C 75.3222 -5.15722 -1.37355 0
M  V30 802 O 75.5452 -5.07176 -2.61014 0
M  V30 803 O 74.4792 -5.95383 -0.883355 0
M  V30 804 H 78.3052 -2.98309 0.569708 0
M  V30 805 H 75.8902 -1.45373 0.344535 0
M  V30 806 H 77.7722 -3.84381 -1.72712 0
M  V30 807 H 76.4472 -2.65451 -1.8525 0
M  V30 808 H 75.3542 -3.7358 0.197085 0
M  V30 809 H 76.6872 -4.91616 0.239641 0
M  V30 810 N 78.3393 -0.321999 -1.54275 0
M  V30 811 C 79.2713 0.578671 -2.21775 0
M  V30 812 C 80.2843 1.08109 -1.21722 0
M  V30 813 O 81.4733 0.994938 -1.482 0
M  V30 814 C 78.5733 1.80661 -2.86731 0
M  V30 815 C 77.7463 1.44314 -4.12907 0
M  V30 816 C 76.8053 2.52845 -4.61472 0
M  V30 817 O 75.8313 2.17054 -5.2619 0
M  V30 818 N 77.0333 3.83748 -4.35566 0
M  V30 819 H 79.7983 0.000709447 -2.997 0
M  V30 820 H 77.3593 -0.145132 -1.61248 0
M  V30 821 H 79.3513 2.52655 -3.16145 0
M  V30 822 H 77.9213 2.29245 -2.12521 0
M  V30 823 H 77.1413 0.554906 -3.90275 0
M  V30 824 H 78.4293 1.17598 -4.95023 0
M  V30 825 H 77.8273 4.15625 -3.83761 0
M  V30 826 H 76.3843 4.51977 -4.69638 0
M  V30 827 N 79.8174 1.5752 -0.0501392 0
M  V30 828 C 81.2334 1.56631 0.306402 0
M  V30 829 C 81.4334 1.0577 1.71508 0
M  V30 830 O 80.4894 0.713837 2.422 0
M  V30 831 C 81.8024 3.00393 0.135811 0
M  V30 832 C 83.3504 3.12315 0.206993 0
M  V30 833 C 83.8254 4.57954 0.064944 0
M  V30 834 N 85.3164 4.63041 0.121254 0
M  V30 835 C 86.0514 5.73389 0.0354381 0
M  V30 836 N 85.5474 6.92724 -0.102666 0
M  V30 837 N 87.3404 5.62026 0.090946 0
M  V30 838 H 79.4914 1.88903 -0.971046 0
M  V30 839 H 81.7544 0.869876 -0.376855 0
M  V30 840 H 81.4604 3.41635 -0.835384 0
M  V30 841 H 81.3344 3.66373 0.897275 0
M  V30 842 H 83.7214 2.70973 1.16866 0
M  V30 843 H 83.8024 2.49016 -0.585208 0
M  V30 844 H 83.4464 4.99981 -0.893394 0
M  V30 845 H 83.3764 5.19258 0.876277 0
M  V30 846 H 85.8674 3.77216 0.227284 0
M  V30 847 H 86.1804 7.72633 -0.160882 0
M  V30 848 H 84.5254 6.94864 -0.137737 0
M  V30 849 H 87.7164 4.67684 0.197388 0
M  V30 850 H 87.8894 6.47997 0.0206089 0
M  V30 851 N 81.2955 -0.223234 1.56011 0
M  V30 852 C 82.2285 -1.30377 1.87289 0
M  V30 853 C 83.2065 -1.45286 0.730112 0
M  V30 854 O 84.3905 -1.61126 0.978302 0
M  V30 855 C 81.5175 -2.67431 2.07843 0
M  V30 856 C 80.5635 -2.69546 3.30526 0
M  V30 857 S 81.3965 -2.23781 4.865 0
M  V30 858 C 82.5525 -3.62714 5.10088 0
M  V30 859 H 82.7855 -1.03652 2.78646 0
M  V30 860 H 80.3185 -0.425393 1.48424 0
M  V30 861 H 82.2765 -3.46336 2.20368 0
M  V30 862 H 80.9375 -2.91381 1.17285 0
M  V30 863 H 80.1305 -3.70255 3.41947 0
M  V30 864 H 79.7325 -1.98703 3.16849 0
M  V30 865 H 82.0245 -4.58391 4.98883 0
M  V30 866 H 82.9675 -3.5621 6.11981 0
M  V30 867 H 83.3755 -3.56323 4.37829 0
M  V30 868 N 82.7736 -1.49793 -0.48987 0
M  V30 869 C 83.7036 -1.70201 -1.59856 0
M  V30 870 C 84.6846 -0.55076 -1.60937 0
M  V30 871 O 85.8696 -0.787841 -1.77501 0
M  V30 872 C 82.9996 -1.77882 -2.98287 0
M  V30 873 C 81.9536 -2.92907 -3.12073 0
M  V30 874 C 81.2796 -2.85712 -4.51965 0
M  V30 875 C 82.5796 -4.3369 -2.91051 0
M  V30 876 H 84.2736 -2.63025 -1.43032 0
M  V30 877 H 81.8196 -1.26574 -0.686664 0
M  V30 878 H 83.7726 -1.90744 -3.75759 0
M  V30 879 H 82.4966 -0.816653 -3.16225 0
M  V30 880 H 81.1556 -2.79665 -2.37029 0
M  V30 881 H 80.8036 -1.8738 -4.66795 0
M  V30 882 H 80.5036 -3.62921 -4.62128 0
M  V30 883 H 82.0276 -3.00598 -5.31482 0
M  V30 884 H 83.4416 -4.47555 -3.58284 0
M  V30 885 H 81.8386 -5.12205 -3.12675 0
M  V30 886 H 82.9086 -4.47362 -1.87071 0
M  V30 887 N 84.2517 0.741722 -1.39055 0
M  V30 888 C 85.1617 1.88621 -1.39496 0
M  V30 889 C 86.1777 1.71557 -0.290578 0
M  V30 890 O 87.3537 1.94275 -0.530954 0
M  V30 891 C 84.4187 3.24134 -1.23037 0
M  V30 892 C 83.4797 3.5364 -2.43387 0
M  V30 893 C 82.7127 4.82687 -2.27703 0
M  V30 894 O 82.9357 5.55922 -1.27696 0
M  V30 895 O 81.8697 5.1194 -3.16545 0
M  V30 896 H 85.6957 1.91203 -2.35956 0
M  V30 897 H 83.2807 0.888625 -1.20099 0
M  V30 898 H 85.1627 4.0513 -1.15964 0
M  V30 899 H 83.8377 3.22337 -0.296691 0
M  V30 900 H 82.7447 2.72758 -2.56035 0
M  V30 901 H 84.0777 3.60209 -3.35425 0
M  V30 902 N 85.7298 1.2412 0.971189 0
M  V30 903 C 86.9578 1.10575 1.74874 0
M  V30 904 C 87.3728 -0.342017 1.85676 0
M  V30 905 O 86.7298 -1.23617 1.34258 0
M  V30 906 C 86.7808 1.73579 3.171 0
M  V30 907 O 86.5018 3.12695 3.06844 0
M  V30 908 C 88.0028 1.65598 4.11208 0
M  V30 909 H 85.2228 0.386504 0.548503 0
M  V30 910 H 87.7668 1.64156 1.21955 0
M  V30 911 H 85.9218 1.24009 3.67016 0
M  V30 912 H 86.3358 3.43412 3.96445 0
M  V30 913 H 87.8098 2.1437 5.08674 0
M  V30 914 H 88.2868 0.616532 4.34851 0
M  V30 915 H 88.8928 2.14578 3.67201 0
M  V30 916 N 87.2079 -1.17134 1.05439 0
M  V30 917 C 88.1179 -2.24878 0.668365 0
M  V30 918 C 89.1339 -1.71186 -0.311687 0
M  V30 919 O 90.3099 -2.00738 -0.163161 0
M  V30 920 C 87.3749 -3.46662 0.051648 0
M  V30 921 C 86.4359 -4.15429 1.08246 0
M  V30 922 C 85.6689 -5.31399 0.495082 0
M  V30 923 O 85.8919 -5.66153 -0.694743 0
M  V30 924 O 84.8259 -5.89187 1.23056 0
M  V30 925 H 88.6519 -2.60189 1.56637 0
M  V30 926 H 86.2369 -1.24482 0.826104 0
M  V30 927 H 88.1189 -4.20394 -0.290966 0
M  V30 928 H 86.7939 -3.13142 -0.819971 0
M  V30 929 H 85.7009 -3.43704 1.47711 0
M  V30 930 H 87.0339 -4.52982 1.92532 0
M  V30 931 N 88.686 -0.835752 -1.33615 0
M  V30 932 C 89.914 -0.443344 -2.02094 0
M  V30 933 C 90.329 0.954522 -1.62894 0
M  V30 934 O 89.686 1.61982 -0.840723 0
M  V30 935 C 89.737 -0.550775 -3.5728 0
M  V30 936 O 89.458 -1.89356 -3.95065 0
M  V30 937 C 90.959 -0.154919 -4.43029 0
M  V30 938 H 88.179 -0.176359 -0.647409 0
M  V30 939 H 90.723 -1.12746 -1.70612 0
M  V30 940 H 88.878 0.0853997 -3.87306 0
M  V30 941 H 89.292 -1.87687 -4.89769 0
M  V30 942 H 90.766 -0.281144 -5.51284 0
M  V30 943 H 91.243 0.902863 -4.2982 0
M  V30 944 H 91.849 -0.765404 -4.18356 0
M  V30 945 N 90.1641 1.46063 -0.591896 0
M  V30 946 C 91.3921 2.06717 -0.0868936 0
M  V30 947 C 91.8071 1.43916 1.22203 0
M  V30 948 O 91.1641 0.547698 1.74088 0
M  V30 949 C 91.2151 3.6142 0.0758725 0
M  V30 950 O 90.9361 4.21874 -1.18126 0
M  V30 951 C 92.4371 4.39025 0.61416 0
M  V30 952 H 89.6571 0.668162 -0.0616518 0
M  V30 953 H 92.2011 1.8755 -0.815175 0
M  V30 954 H 90.3561 3.79983 0.754413 0
M  V30 955 H 90.7701 5.14861 -1.00092 0
M  V30 956 H 92.2441 5.4783 0.677193 0
M  V30 957 H 92.7211 4.07708 1.63312 0
M  V30 958 H 93.3271 4.2529 -0.0298142 0
M  V30 959 N 91.6422 0.330177 1.54103 0
M  V30 960 C 92.5892 -0.532762 2.24567 0
M  V30 961 C 93.5592 -1.10635 1.23892 0
M  V30 962 O 94.7442 -1.14546 1.5259 0
M  V30 963 C 91.8842 -1.6845 3.01195 0
M  V30 964 C 90.9972 -1.13951 4.167 0
M  V30 965 C 90.1322 -2.25746 4.80845 0
M  V30 966 C 89.1712 -1.6853 5.88442 0
M  V30 967 N 88.3082 -2.74014 6.46421 0
M  V30 968 H 93.1482 0.0746905 2.97906 0
M  V30 969 H 90.6852 0.048632 1.4702 0
M  V30 970 H 92.6432 -2.36234 3.43874 0
M  V30 971 H 91.2732 -2.26314 2.30178 0
M  V30 972 H 90.3252 -0.35301 3.78758 0
M  V30 973 H 91.6372 -0.680892 4.94131 0
M  V30 974 H 90.7912 -3.01422 5.26526 0
M  V30 975 H 89.5302 -2.74947 4.0281 0
M  V30 976 H 88.5352 -0.913543 5.42157 0
M  V30 977 H 89.7602 -1.20198 6.68378 0
M  V30 978 H 87.7062 -3.22494 5.71256 0
M  V30 979 H 87.6232 -2.32735 7.19285 0
M  V30 980 H 88.8912 -3.49499 6.96757 0
M  V30 981 N 93.1203 -1.57491 0.0584922 0
M  V30 982 C 94.3483 -1.97296 -0.623037 0
M  V30 983 C 94.7633 -0.936338 -1.63946 0
M  V30 984 O 94.1203 0.0785981 -1.82331 0
M  V30 985 C 94.1713 -3.37183 -1.30345 0
M  V30 986 O 93.8923 -4.36872 -0.32773 0
M  V30 987 C 95.3933 -3.91788 -2.07406 0
M  V30 988 H 92.6133 -0.649153 -0.169826 0
M  V30 989 H 95.1573 -2.04106 0.12696 0
M  V30 990 H 93.3123 -3.31502 -2.00463 0
M  V30 991 H 93.7263 -5.18141 -0.814269 0
M  V30 992 H 95.2003 -4.91926 -2.50425 0
M  V30 993 H 95.6773 -3.27609 -2.92521 0
M  V30 994 H 96.2833 -4.00829 -1.42184 0
M  V30 995 N 94.5984 0.214957 -1.56127 0
M  V30 996 C 95.8284 0.953707 -1.8327 0
M  V30 997 C 96.2364 1.78181 -0.636262 0
M  V30 998 O 95.5794 1.79191 0.404516 0
M  V30 999 C 95.6414 1.91516 -3.0424 0
M  V30 1000 C 95.3054 1.27094 -4.38972 0
M  V30 1001 C 96.3024 0.657575 -5.15725 0
M  V30 1002 C 93.9874 1.28073 -4.85698 0
M  V30 1003 C 95.9814 0.0625968 -6.37369 0
M  V30 1004 C 93.6684 0.681914 -6.07283 0
M  V30 1005 C 94.6664 0.0739046 -6.8296 0
M  V30 1006 O 94.3544 -0.515582 -8.02245 0
M  V30 1007 H 94.0864 0.284764 -0.613095 0
M  V30 1008 H 96.6404 0.233283 -2.04071 0
M  V30 1009 H 94.8704 2.67475 -2.79274 0
M  V30 1010 H 96.5594 2.52001 -3.18198 0
M  V30 1011 H 97.3254 0.642288 -4.80728 0
M  V30 1012 H 93.2044 1.74337 -4.26764 0
M  V30 1013 H 96.7484 -0.412593 -6.96379 0
M  V30 1014 H 92.6454 0.694636 -6.41752 0
M  V30 1015 H 93.4134 -0.410544 -8.1747 0
M  V30 1016 N 96.0765 1.50051 0.48192 0
M  V30 1017 C 97.0395 1.67584 1.5636 0
M  V30 1018 C 98.0395 0.546894 1.51214 0
M  V30 1019 O 99.2295 0.813725 1.54026 0
M  V30 1020 C 96.3615 1.691 2.96003 0
M  V30 1021 H 97.5545 2.64078 1.42136 0
M  V30 1022 H 95.1075 1.39369 0.707533 0
M  V30 1023 H 95.8425 0.742589 3.15684 0
M  V30 1024 H 95.6275 2.51105 3.01146 0
M  V30 1025 H 97.1175 1.84656 3.74556 0
M  V30 1026 N 97.5546 -0.734337 1.39446 0
M  V30 1027 C 98.8026 -1.49096 1.36436 0
M  V30 1028 C 99.1236 -1.94961 -0.0388255 0
M  V30 1029 O 98.3936 -1.69033 -0.990191 0
M  V30 1030 H 96.9736 -0.5531 0.502085 0
M  V30 1031 H 99.6356 -0.871725 1.74319 0
M  V30 1032 H 98.7316 -2.37276 2.02747 0
M  V30 1033 N 99.0327 -1.24633 -0.964593 0
M  V30 1034 C 99.9627 -1.06611 -2.07741 0
M  V30 1035 C 100.944 0.0218666 -1.70086 0
M  V30 1036 O 102.129 -0.145793 -1.93652 0
M  V30 1037 C 99.2587 -0.673444 -3.40708 0
M  V30 1038 C 98.2127 -1.71054 -3.92332 0
M  V30 1039 C 97.5387 -1.17285 -5.21678 0
M  V30 1040 C 98.8387 -3.10718 -4.19824 0
M  V30 1041 H 100.533 -1.99693 -2.23076 0
M  V30 1042 H 98.0787 -0.96152 -1.07195 0
M  V30 1043 H 100.032 -0.534345 -4.17998 0
M  V30 1044 H 98.7557 0.293073 -3.25282 0
M  V30 1045 H 97.4147 -1.83791 -3.17201 0
M  V30 1046 H 97.0627 -0.196847 -5.02615 0
M  V30 1047 H 96.7627 -1.86592 -5.57187 0
M  V30 1048 H 98.2867 -1.04593 -6.01575 0
M  V30 1049 H 99.7007 -3.01192 -4.87808 0
M  V30 1050 H 98.0977 -3.77406 -4.66567 0
M  V30 1051 H 99.1677 -3.58524 -3.26479 0
M  V30 1052 N 100.511 1.16574 -1.06058 0
M  V30 1053 C 101.736 1.91493 -0.796562 0
M  V30 1054 C 102.161 1.76773 0.642868 0
M  V30 1055 O 101.519 1.09142 1.44768 0
M  V30 1056 C 101.567 3.40293 -1.19303 0
M  V30 1057 O 100.671 4.11074 -0.330394 0
M  V30 1058 H 100.012 0.596678 -0.291326 0
M  V30 1059 H 102.542 1.47708 -1.41575 0
M  V30 1060 H 102.552 3.91057 -1.16356 0
M  V30 1061 H 101.227 3.50326 -2.24153 0
M  V30 1062 H 99.8038 3.70513 -0.421225 0
M  V30 1063 N 101.989 0.842826 1.3317 0
M  V30 1064 C 103.237 0.439577 1.97262 0
M  V30 1065 C 103.558 -1.00548 1.67078 0
M  V30 1066 O 102.828 -1.70098 0.971779 0
M  V30 1067 H 101.408 0.159558 0.72976 0
M  V30 1068 H 104.07 1.07665 1.62463 0
M  V30 1069 H 103.166 0.574886 3.0676 0
M  V30 1070 N 103.467 -1.45747 0.599634 0
M  V30 1071 C 104.377 -2.34262 -0.125888 0
M  V30 1072 C 105.393 -1.50768 -0.868625 0
M  V30 1073 O 106.569 -1.83592 -0.828003 0
M  V30 1074 C 103.634 -3.28252 -1.11587 0
M  V30 1075 C 102.695 -4.27651 -0.375956 0
M  V30 1076 C 101.928 -5.1715 -1.31877 0
M  V30 1077 O 102.151 -5.09916 -2.55621 0
M  V30 1078 O 101.085 -5.96286 -0.820157 0
M  V30 1079 H 104.911 -2.97688 0.601315 0
M  V30 1080 H 102.496 -1.44999 0.359934 0
M  V30 1081 H 104.378 -3.86191 -1.68626 0
M  V30 1082 H 103.053 -2.67401 -1.82424 0
M  V30 1083 H 101.96 -3.7335 0.236698 0
M  V30 1084 H 103.293 -4.91334 0.29177 0
M  V30 1085 N 104.945 -0.338344 -1.53925 0
M  V30 1086 C 106.356 0.146651 -1.86123 0
M  V30 1087 C 106.707 1.5042 -1.2597 0
M  V30 1088 O 105.832 2.08723 -0.571294 0
M  V30 1089 C 106.427 0.272879 -3.37699 0
M  V30 1090 C 104.986 0.702103 -3.69794 0
M  V30 1091 C 104.133 -0.167304 -2.76795 0
M  V30 1092 H 107.084 -0.558123 -1.48562 0
M  V30 1093 H 107.105 1.10128 -3.64214 0
M  V30 1094 H 106.617 -0.715307 -3.81451 0
M  V30 1095 H 104.718 1.6995 -3.31584 0
M  V30 1096 H 104.831 0.495604 -4.7653 0
M  V30 1097 H 103.195 0.359527 -2.5215 0
M  V30 1098 H 103.978 -1.15253 -3.23375 0
M  V30 1099 N 106.423 1.57458 -0.0668435 0
M  V30 1100 C 107.333 2.15937 0.916975 0
M  V30 1101 C 108.349 1.12123 1.33058 0
M  V30 1102 O 109.525 1.44366 1.40429 0
M  V30 1103 C 106.59 2.70547 2.16807 0
M  V30 1104 C 105.651 3.89215 1.81135 0
M  V30 1105 C 104.884 4.41211 3.0028 0
M  V30 1106 O 105.107 3.92225 4.14144 0
M  V30 1107 O 104.041 5.32605 2.80384 0
M  V30 1108 H 107.867 3.00354 0.449561 0
M  V30 1109 H 105.452 1.48584 0.155949 0
M  V30 1110 H 107.334 3.0557 2.90181 0
M  V30 1111 H 106.009 1.89192 2.62656 0
M  V30 1112 H 104.916 3.59054 1.05028 0
M  V30 1113 H 106.249 4.71848 1.40073 0
M  V30 1114 N 107.901 -0.206675 1.56239 0
M  V30 1115 C 109.148 -0.928842 1.79941 0
M  V30 1116 C 109.476 -1.83734 0.638131 0
M  V30 1117 O 108.731 -1.92039 -0.376746 0
M  V30 1118 C 109.03 -1.78675 3.09532 0
M  V30 1119 C 108.696 -1.03022 4.38973 0
M  V30 1120 C 107.358 -0.821302 4.74139 0
M  V30 1121 C 109.71 -0.497081 5.18824 0
M  V30 1122 C 107.038 -0.0675719 5.86661 0
M  V30 1123 C 109.39 0.24338 6.32132 0
M  V30 1124 C 108.054 0.463422 6.65889 0
M  V30 1125 H 107.324 -0.339887 0.658451 0
M  V30 1126 H 109.971 -0.195977 1.90495 0
M  V30 1127 H 108.276 -2.58794 2.94165 0
M  V30 1128 H 109.973 -2.34792 3.25075 0
M  V30 1129 H 106.563 -1.20306 4.11369 0
M  V30 1130 H 110.747 -0.645921 4.92079 0
M  V30 1131 H 106.003 0.112995 6.11296 0
M  V30 1132 H 110.177 0.66393 6.93228 0
M  V30 1133 H 107.804 1.04938 7.52922 0
M  V30 1134 N 109.379 -1.50304 -0.473955 0
M  V30 1135 C 110.311 -1.65109 -1.58971 0
M  V30 1136 C 111.324 -0.532676 -1.53839 0
M  V30 1137 O 112.513 -0.805751 -1.59279 0
M  V30 1138 C 109.613 -1.61684 -2.97845 0
M  V30 1139 C 108.786 -2.8951 -3.27876 0
M  V30 1140 C 107.845 -2.78768 -4.4629 0
M  V30 1141 O 106.871 -3.52722 -4.46739 0
M  V30 1142 N 108.073 -1.9213 -5.47783 0
M  V30 1143 H 110.838 -2.61347 -1.46689 0
M  V30 1144 H 108.399 -1.47732 -0.662324 0
M  V30 1145 H 110.391 -1.52114 -3.75024 0
M  V30 1146 H 108.961 -0.731925 -3.03911 0
M  V30 1147 H 108.181 -3.13228 -2.39336 0
M  V30 1148 H 109.469 -3.74199 -3.4475 0
M  V30 1149 H 108.867 -1.31353 -5.50239 0
M  V30 1150 H 107.424 -1.88466 -6.23958 0
M  V30 1151 N 110.857 0.726932 -1.39834 0
M  V30 1152 C 111.804 1.841 -1.39197 0
M  V30 1153 C 112.774 1.642 -0.250502 0
M  V30 1154 O 113.959 1.85494 -0.446846 0
M  V30 1155 C 111.099 3.21697 -1.24919 0
M  V30 1156 C 110.212 3.53247 -2.48678 0
M  V30 1157 C 109.347 4.80289 -2.26928 0
M  V30 1158 C 108.386 5.04707 -3.4632 0
M  V30 1159 N 107.523 6.22956 -3.23836 0
M  V30 1160 H 112.363 1.83979 -2.34427 0
M  V30 1161 H 109.9 0.898876 -1.16442 0
M  V30 1162 H 111.858 4.01137 -1.1465 0
M  V30 1163 H 110.488 3.21076 -0.333153 0
M  V30 1164 H 109.54 2.68447 -2.69519 0
M  V30 1165 H 110.852 3.67205 -3.37582 0
M  V30 1166 H 110.006 5.67725 -2.13947 0
M  V30 1167 H 108.745 4.68519 -1.35431 0
M  V30 1168 H 107.75 4.1573 -3.5979 0
M  V30 1169 H 108.975 5.18357 -4.38729 0
M  V30 1170 H 106.921 6.12459 -2.35011 0
M  V30 1171 H 106.838 6.37539 -4.063 0
M  V30 1172 H 108.106 7.1321 -3.14566 0
M  V30 1173 N 112.336 1.25143 0.95797 0
M  V30 1174 C 113.299 1.05321 2.03569 0
M  V30 1175 C 114.299 0.007152 1.60798 0
M  V30 1176 O 115.489 0.24903 1.72411 0
M  V30 1177 C 112.621 0.598394 3.35607 0
M  V30 1178 H 113.814 2.00986 2.22586 0
M  V30 1179 H 111.367 1.07502 1.13459 0
M  V30 1180 H 112.102 -0.361014 3.22284 0
M  V30 1181 H 111.887 1.35351 3.67998 0
M  V30 1182 H 113.377 0.48104 4.1482 0
M  V30 1183 N 113.814 -1.1601 1.06675 0
M  V30 1184 C 114.747 -2.1947 0.625168 0
M  V30 1185 C 115.725 -1.58699 -0.354041 0
M  V30 1186 O 116.909 -1.86669 -0.262098 0
M  V30 1187 C 114.036 -3.38598 -0.0829593 0
M  V30 1188 C 113.082 -4.1787 0.853611 0
M  V30 1189 S 113.915 -4.81135 2.35094 0
M  V30 1190 C 115.071 -6.03639 1.65441 0
M  V30 1191 H 115.304 -2.56587 1.50168 0
M  V30 1192 H 112.837 -1.26862 0.880078 0
M  V30 1193 H 114.795 -4.07621 -0.485288 0
M  V30 1194 H 113.456 -2.99839 -0.935716 0
M  V30 1195 H 112.649 -5.03078 0.304755 0
M  V30 1196 H 112.251 -3.54361 1.196 0
M  V30 1197 H 114.543 -6.70632 0.962201 0
M  V30 1198 H 115.486 -6.63081 2.48454 0
M  V30 1199 H 115.894 -5.52965 1.13534 0
M  V30 1200 N 115.292 -0.849877 -1.32721 0
M  V30 1201 C 116.54 -0.450032 -1.97026 0
M  V30 1202 C 116.861 0.996604 -1.67609 0
M  V30 1203 O 116.131 1.6958 -0.980786 0
M  V30 1204 H 114.711 -0.163426 -0.728904 0
M  V30 1205 H 117.373 -1.08526 -1.6189 0
M  V30 1206 H 116.469 -0.591146 -3.0645 0
M  V30 1207 N 116.77 1.45427 -0.607355 0
M  V30 1208 C 117.68 2.34325 0.113463 0
M  V30 1209 C 118.696 1.51226 0.860617 0
M  V30 1210 O 119.872 1.84029 0.818255 0
M  V30 1211 C 116.937 3.28839 1.09844 0
M  V30 1212 C 115.998 4.27844 0.353271 0
M  V30 1213 C 115.231 5.17842 1.29133 0
M  V30 1214 O 115.454 5.11264 2.52913 0
M  V30 1215 O 114.388 5.96713 0.788523 0
M  V30 1216 H 118.214 2.97364 -0.617094 0
M  V30 1217 H 115.799 1.44807 -0.367619 0
M  V30 1218 H 117.681 3.8708 1.66575 0
M  V30 1219 H 116.356 2.68365 1.81003 0
M  V30 1220 H 115.263 3.7322 -0.256494 0
M  V30 1221 H 116.596 4.91173 -0.317822 0
M  V30 1222 N 118.248 0.346503 1.53744 0
M  V30 1223 C 119.178 -0.501193 2.28058 0
M  V30 1224 C 120.159 -1.10014 1.29734 0
M  V30 1225 O 121.344 -1.12097 1.58581 0
M  V30 1226 C 118.474 -1.65078 3.05559 0
M  V30 1227 C 117.428 -1.18003 4.11411 0
M  V30 1228 C 116.754 -2.41837 4.76884 0
M  V30 1229 C 118.054 -0.278394 5.21558 0
M  V30 1230 H 119.748 0.11875 2.99164 0
M  V30 1231 H 117.294 0.0585531 1.43881 0
M  V30 1232 H 119.247 -2.25028 3.56287 0
M  V30 1233 H 117.971 -2.29767 2.32109 0
M  V30 1234 H 116.63 -0.603331 3.61601 0
M  V30 1235 H 116.278 -3.0494 4.00026 0
M  V30 1236 H 115.978 -2.1102 5.48402 0
M  V30 1237 H 117.502 -3.02508 5.30397 0
M  V30 1238 H 118.916 -0.784823 5.67903 0
M  V30 1239 H 117.313 -0.0619707 6.00068 0
M  V30 1240 H 118.383 0.684677 4.80042 0
M  V30 1241 N 119.726 -1.57421 0.075193 0
M  V30 1242 C 120.975 -1.92794 -0.592731 0
M  V30 1243 C 121.288 -0.957478 -1.70563 0
M  V30 1244 O 122.494 -1.20417 -2.43335 0
M  V30 1245 C 120.95 -3.42495 -1.10569 0
M  V30 1246 C 120.558 -4.47994 -0.0236121 0
M  V30 1247 C 122.302 -3.86864 -1.74748 0
M  V30 1248 C 120.209 -5.88829 -0.550803 0
M  V30 1249 H 119.139 -0.719591 -0.225177 0
M  V30 1250 H 121.79 -1.82902 0.147978 0
M  V30 1251 H 120.172 -3.47471 -1.89947 0
M  V30 1252 H 121.346 -4.54637 0.751099 0
M  V30 1253 H 119.661 -4.13113 0.522159 0
M  V30 1254 H 122.258 -4.8947 -2.15229 0
M  V30 1255 H 122.601 -3.24417 -2.60882 0
M  V30 1256 H 123.134 -3.84504 -1.01986 0
M  V30 1257 H 119.873 -6.54929 0.273457 0
M  V30 1258 H 119.393 -5.85698 -1.29296 0
M  V30 1259 H 121.072 -6.38811 -1.02613 0
M  V30 1260 N 121.204 0.198386 -1.56346 0
M  V30 1261 C 122.134 1.24865 -1.9731 0
M  V30 1262 C 123.115 1.47651 -0.844576 0
M  V30 1263 O 124.3 1.59444 -1.10866 0
M  V30 1264 C 121.43 2.59358 -2.30977 0
M  V30 1265 C 120.384 2.5119 -3.46537 0
M  V30 1266 C 119.71 3.89926 -3.65871 0
M  V30 1267 C 121.01 2.03977 -4.80823 0
M  V30 1268 H 122.704 0.908252 -2.85291 0
M  V30 1269 H 120.25 0.435462 -1.37258 0
M  V30 1270 H 122.203 3.33011 -2.58228 0
M  V30 1271 H 120.927 2.95132 -1.39874 0
M  V30 1272 H 119.586 1.79993 -3.19371 0
M  V30 1273 H 119.234 4.23046 -2.72105 0
M  V30 1274 H 118.934 3.85336 -4.4361 0
M  V30 1275 H 120.458 4.65205 -3.95495 0
M  V30 1276 H 121.872 2.67386 -5.07127 0
M  V30 1277 H 120.269 2.10397 -5.62008 0
M  V30 1278 H 121.339 0.992861 -4.74626 0
M  V30 1279 N 122.682 1.50554 0.465978 0
M  V30 1280 C 123.93 1.61479 1.21528 0
M  V30 1281 C 124.251 0.319596 1.92363 0
M  V30 1282 O 123.521 -0.663194 1.84333 0
M  V30 1283 H 122.101 0.595055 0.451573 0
M  V30 1284 H 124.763 1.87355 0.53704 0
M  V30 1285 H 123.859 2.42846 1.96042 0
M  V30 1286 N 124.16 -0.719506 1.40217 0
M  V30 1287 C 125.437 -1.47221 1.28784 0
M  V30 1288 C 125.817 -2.10883 -0.0956067 0
M  V30 1289 O 125.165 -1.99833 -1.10811 0
M  V30 1290 C 125.375 -2.5111 2.42373 0
M  V30 1291 C 126.723 -3.17053 2.82423 0
M  V30 1292 O 127.747 -2.61429 2.41937 0
M  V30 1293 O 126.606 -4.17742 3.52355 0
M  V30 1294 H 123.7 -0.654491 0.50554 0
M  V30 1295 H 126.246 -0.752014 1.52128 0
M  V30 1296 H 125.018 -2.02556 3.34793 0
M  V30 1297 H 124.641 -3.3067 2.20778 0
M  V30 1298 N 125.638 -1.25649 -0.95132 0
M  V30 1299 C 126.886 -1.10375 -1.69298 0
M  V30 1300 C 127.207 0.355339 -1.91735 0
M  V30 1301 O 126.477 1.25188 -1.50681 0
M  V30 1302 H 125.057 -0.405461 -0.627384 0
M  V30 1303 H 127.719 -1.57823 -1.14358 0
M  V30 1304 H 126.815 -1.61465 -2.67087 0
M  V30 1305 N 127.117 1.15442 -1.07289 0
M  V30 1306 C 128.047 2.22312 -0.714107 0
M  V30 1307 C 129.028 1.67467 0.298155 0
M  V30 1308 O 130.213 1.93445 0.171048 0
M  V30 1309 C 127.343 3.47124 -0.110448 0
M  V30 1310 C 126.297 4.14926 -1.04979 0
M  V30 1311 C 125.623 5.33807 -0.308924 0
M  V30 1312 C 126.923 4.64762 -2.38314 0
M  V30 1313 H 128.617 2.5258 -1.6076 0
M  V30 1314 H 126.163 1.21404 -0.77441 0
M  V30 1315 H 128.116 4.21124 0.152482 0
M  V30 1316 H 126.84 3.16187 0.81812 0
M  V30 1317 H 125.499 3.42866 -1.29764 0
M  V30 1318 H 125.147 4.99126 0.623084 0
M  V30 1319 H 124.847 5.80113 -0.935036 0
M  V30 1320 H 126.371 6.10576 -0.0537771 0
M  V30 1321 H 127.785 5.30292 -2.1786 0
M  V30 1322 H 126.182 5.21728 -2.96514 0
M  V30 1323 H 127.252 3.80434 -3.00663 0
M  V30 1324 N 128.595 0.856903 1.32268 0
M  V30 1325 C 129.542 0.301172 2.28827 0
M  V30 1326 C 130.512 -0.593104 1.5515 0
M  V30 1327 O 131.697 -0.527537 1.83362 0
M  V30 1328 C 128.837 -0.502523 3.41422 0
M  V30 1329 C 127.95 0.417797 4.29975 0
M  V30 1330 C 127.085 -0.398749 5.29701 0
M  V30 1331 C 126.124 0.518827 6.09897 0
M  V30 1332 N 125.261 -0.260674 7.01616 0
M  V30 1333 H 130.101 1.12983 2.75751 0
M  V30 1334 H 127.638 0.568582 1.35667 0
M  V30 1335 H 129.596 -0.984141 4.05426 0
M  V30 1336 H 128.226 -1.29599 2.95642 0
M  V30 1337 H 127.278 1.01781 3.66531 0
M  V30 1338 H 128.59 1.12191 4.86019 0
M  V30 1339 H 127.744 -0.943435 5.9932 0
M  V30 1340 H 126.483 -1.13622 4.7428 0
M  V30 1341 H 125.488 1.07538 5.39181 0
M  V30 1342 H 126.713 1.25495 6.67404 0
M  V30 1343 H 124.659 -0.981198 6.4862 0
M  V30 1344 H 124.576 0.384364 7.55022 0
M  V30 1345 H 125.844 -0.787014 7.75517 0
M  V30 1346 N 130.073 -1.45103 0.615059 0
M  V30 1347 C 131.298 -2.07064 0.117988 0
M  V30 1348 C 131.723 -1.4554 -1.19163 0
M  V30 1349 O 131.081 -0.550855 -1.72729 0
M  V30 1350 C 131.129 -3.606 -0.000288387 0
M  V30 1351 O 130.233 -3.98847 -1.04856 0
M  V30 1352 H 129.574 -0.659467 0.0774581 0
M  V30 1353 H 132.104 -1.86236 0.847186 0
M  V30 1354 H 132.114 -4.07529 -0.196091 0
M  V30 1355 H 130.789 -4.04765 0.955932 0
M  V30 1356 H 129.366 -3.63577 -0.828619 0
M  V30 1357 N 131.551 -0.354651 -1.53558 0
M  V30 1358 C 132.461 0.50515 -2.29097 0
M  V30 1359 C 133.477 1.10223 -1.34636 0
M  V30 1360 O 134.653 1.11553 -1.67684 0
M  V30 1361 C 131.718 1.63479 -3.05738 0
M  V30 1362 C 130.779 1.06636 -4.15845 0
M  V30 1363 C 130.012 2.14217 -4.88822 0
M  V30 1364 O 130.235 3.35137 -4.61562 0
M  V30 1365 O 129.169 1.77887 -5.75013 0
M  V30 1366 H 132.995 -0.109237 -3.03503 0
M  V30 1367 H 130.58 -0.119357 -1.48922 0
M  V30 1368 H 132.462 2.2918 -3.5363 0
M  V30 1369 H 131.137 2.23478 -2.34178 0
M  V30 1370 H 130.044 0.373565 -3.7223 0
M  V30 1371 H 131.377 0.511081 -4.89539 0
M  V30 1372 N 133.029 1.57378 -0.0835403 0
M  V30 1373 C 134.257 1.98263 0.59157 0
M  V30 1374 C 134.672 0.962302 1.62435 0
M  V30 1375 O 134.029 -0.049581 1.82433 0
M  V30 1376 C 134.08 3.39214 1.24965 0
M  V30 1377 O 133.801 4.37339 0.258186 0
M  V30 1378 C 135.302 3.95038 2.01147 0
M  V30 1379 H 132.522 0.651773 0.159477 0
M  V30 1380 H 135.066 2.03878 -0.159415 0
M  V30 1381 H 133.221 3.34649 1.95164 0
M  V30 1382 H 133.635 5.19371 0.731734 0
M  V30 1383 H 135.109 4.95848 2.42567 0
M  V30 1384 H 135.586 3.32222 2.87272 0
M  V30 1385 H 136.192 4.0304 1.35789 0
M  V30 1386 N 134.507 -0.190092 1.56449 0
M  V30 1387 C 135.735 -0.925772 1.85033 0
M  V30 1388 C 136.15 -1.76638 0.666658 0
M  V30 1389 O 135.507 -1.78822 -0.364565 0
M  V30 1390 C 135.558 -1.81786 3.12468 0
M  V30 1391 O 135.279 -1.01118 4.26271 0
M  V30 1392 C 136.78 -2.6648 3.54265 0
M  V30 1393 H 134 -0.269872 0.614337 0
M  V30 1394 H 136.544 -0.195837 2.0356 0
M  V30 1395 H 134.699 -2.50136 2.95822 0
M  V30 1396 H 135.113 -1.61956 4.98869 0
M  V30 1397 H 136.587 -3.24722 4.46385 0
M  V30 1398 H 137.064 -3.40434 2.77491 0
M  V30 1399 H 137.67 -2.03493 3.73458 0
M  V30 1400 N 135.985 -1.50799 -0.457987 0
M  V30 1401 C 136.948 -1.7005 -1.53674 0
M  V30 1402 C 137.948 -0.570881 -1.50325 0
M  V30 1403 O 139.138 -0.838126 -1.52712 0
M  V30 1404 C 136.27 -1.73788 -2.93276 0
M  V30 1405 H 137.463 -2.66306 -1.37917 0
M  V30 1406 H 135.016 -1.40477 -0.685271 0
M  V30 1407 H 135.751 -0.792717 -3.14462 0
M  V30 1408 H 135.536 -2.55864 -2.97113 0
M  V30 1409 H 137.026 -1.90591 -3.71571 0
M  V30 1410 N 137.463 0.71206 -1.40597 0
M  V30 1411 C 138.691 1.50111 -1.42388 0
M  V30 1412 C 139.106 1.88784 -0.0245395 0
M  V30 1413 O 138.463 1.55681 0.952351 0
M  V30 1414 C 138.514 2.7742 -2.31776 0
M  V30 1415 O 138.235 2.40382 -3.66262 0
M  V30 1416 C 139.736 3.7129 -2.42196 0
M  V30 1417 H 136.956 0.46314 -0.485533 0
M  V30 1418 H 139.5 0.878068 -1.8469 0
M  V30 1419 H 137.655 3.36001 -1.92827 0
M  V30 1420 H 138.069 3.22324 -4.13772 0
M  V30 1421 H 139.543 4.57448 -3.08943 0
M  V30 1422 H 140.02 4.14641 -1.44809 0
M  V30 1423 H 140.626 3.18619 -2.81712 0
M  V30 1424 N 138.941 1.26152 0.944643 0
M  V30 1425 C 139.871 1.09902 2.06019 0
M  V30 1426 C 140.852 0.00519538 1.70099 0
M  V30 1427 O 142.037 0.176583 1.93396 0
M  V30 1428 C 139.167 0.727562 3.39594 0
M  V30 1429 C 138.121 1.77274 3.89561 0
M  V30 1430 C 137.447 1.25569 5.19747 0
M  V30 1431 C 138.747 3.17357 4.14827 0
M  V30 1432 H 140.441 2.03217 2.19871 0
M  V30 1433 H 137.987 0.978452 1.05652 0
M  V30 1434 H 139.94 0.600777 4.17095 0
M  V30 1435 H 138.664 -0.241287 3.25707 0
M  V30 1436 H 137.323 1.88814 3.14237 0
M  V30 1437 H 136.971 0.276783 5.02238 0
M  V30 1438 H 136.671 1.95433 5.54148 0
M  V30 1439 H 138.195 1.1415 5.99835 0
M  V30 1440 H 139.609 3.08914 4.82954 0
M  V30 1441 H 138.006 3.84781 4.60504 0
M  V30 1442 H 139.076 3.63673 3.20734 0
M  V30 1443 N 140.419 -1.14872 1.07899 0
M  V30 1444 C 141.382 -2.17986 0.708161 0
M  V30 1445 C 142.382 -1.58775 -0.25442 0
M  V30 1446 O 143.572 -1.74166 -0.034645 0
M  V30 1447 C 140.704 -3.40871 0.0446929 0
M  V30 1448 H 141.897 -2.52306 1.62116 0
M  V30 1449 H 139.45 -1.2943 0.876218 0
M  V30 1450 H 140.185 -3.12124 -0.880281 0
M  V30 1451 H 139.97 -3.8511 0.737091 0
M  V30 1452 H 141.46 -4.17121 -0.19991 0
M  V30 1453 N 141.898 -0.863906 -1.31812 0
M  V30 1454 C 143.126 -0.486111 -2.01108 0
M  V30 1455 C 143.541 0.919755 -1.64882 0
M  V30 1456 O 142.898 1.60162 -0.874893 0
M  V30 1457 C 142.949 -0.626435 -3.56031 0
M  V30 1458 O 142.67 -1.97693 -3.90959 0
M  V30 1459 C 144.171 -0.248857 -4.42601 0
M  V30 1460 H 141.391 -0.190052 -0.643523 0
M  V30 1461 H 143.935 -1.1634 -1.68182 0
M  V30 1462 H 142.09 0.00322717 -3.874 0
M  V30 1463 H 142.504 -1.98034 -4.85678 0
M  V30 1464 H 143.978 -0.398016 -5.50563 0
M  V30 1465 H 144.455 0.811489 -4.31638 0
M  V30 1466 H 145.061 -0.853971 -4.16638 0
M  V30 1467 N 143.376 1.44774 -0.622745 0
M  V30 1468 C 144.622 2.0242 -0.124083 0
M  V30 1469 C 144.955 1.4881 1.24777 0
M  V30 1470 O 144.23 0.668799 1.8264 0
M  V30 1471 C 144.513 3.59957 -0.101619 0
M  V30 1472 C 144.366 4.23867 -1.50521 0
M  V30 1473 C 145.685 4.36284 0.578272 0
M  V30 1474 H 142.804 0.735528 -0.0465645 0
M  V30 1475 H 145.446 1.72447 -0.797617 0
M  V30 1476 H 143.596 3.85623 0.471934 0
M  V30 1477 H 145.268 4.09336 -2.12701 0
M  V30 1478 H 143.511 3.81684 -2.06154 0
M  V30 1479 H 144.182 5.32843 -1.4416 0
M  V30 1480 H 146.658 4.16001 0.0906057 0
M  V30 1481 H 145.534 5.46004 0.563149 0
M  V30 1482 H 145.795 4.10271 1.64713 0
M  V30 1483 N 144.854 0.36279 1.53368 0
M  V30 1484 C 146.102 -0.227326 2.00817 0
M  V30 1485 C 146.423 -1.49511 1.25186 0
M  V30 1486 O 145.693 -1.92482 0.364348 0
M  V30 1487 H 144.273 -0.0869923 0.741917 0
M  V30 1488 H 146.935 0.488381 1.88682 0
M  V30 1489 H 146.031 -0.456273 3.08747 0
M  V30 1490 N 146.332 -1.57332 0.0918853 0
M  V30 1491 C 147.58 -1.93853 -0.571446 0
M  V30 1492 C 147.901 -0.974212 -1.6892 0
M  V30 1493 O 147.171 -0.0257254 -1.95883 0
M  V30 1494 H 145.751 -0.715666 -0.214082 0
M  V30 1495 H 148.413 -1.94287 0.154464 0
M  V30 1496 H 147.509 -2.96191 -0.983729 0
M  V30 1497 N 147.81 0.181792 -1.56548 0
M  V30 1498 C 149.038 0.915947 -1.85521 0
M  V30 1499 C 149.453 1.76282 -0.676016 0
M  V30 1500 O 148.81 1.79012 0.355077 0
M  V30 1501 C 148.861 1.80126 -3.13427 0
M  V30 1502 O 148.582 0.988562 -4.26801 0
M  V30 1503 C 150.083 2.64597 -3.55673 0
M  V30 1504 H 147.303 0.26661 -0.61576 0
M  V30 1505 H 149.847 0.185039 -2.03661 0
M  V30 1506 H 148.002 2.48563 -2.97145 0
M  V30 1507 H 148.416 1.59308 -4.99721 0
M  V30 1508 H 149.89 3.2235 -4.48101 0
M  V30 1509 H 150.367 3.38958 -2.79292 0
M  V30 1510 H 150.973 2.0151 -3.74532 0
M  V30 1511 N 149.288 1.51039 0.449983 0
M  V30 1512 C 150.536 1.62759 1.19808 0
M  V30 1513 C 150.857 0.339981 1.92013 0
M  V30 1514 O 150.127 -0.643606 1.85026 0
M  V30 1515 H 148.707 0.599811 0.445237 0
M  V30 1516 H 151.369 1.87914 0.517138 0
M  V30 1517 H 150.465 2.44911 1.93455 0
M  V30 1518 N 150.766 -0.704594 1.40972 0
M  V30 1519 C 151.729 -1.80035 1.41845 0
M  V30 1520 C 152.729 -1.57774 0.310474 0
M  V30 1521 O 153.919 -1.64613 0.56992 0
M  V30 1522 C 151.051 -3.18284 1.22098 0
M  V30 1523 H 152.244 -1.80658 2.3938 0
M  V30 1524 H 149.797 -0.911329 1.26982 0
M  V30 1525 H 150.532 -3.23306 0.253672 0
M  V30 1526 H 150.317 -3.35843 2.02366 0
M  V30 1527 H 151.807 -3.98289 1.25522 0
M  V30 1528 N 152.244 -1.26651 -0.937939 0
M  V30 1529 C 153.174 -1.10993 -2.05433 0
M  V30 1530 C 154.155 -0.0142161 -1.70094 0
M  V30 1531 O 155.34 -0.186837 -1.93299 0
M  V30 1532 C 152.47 -0.745561 -3.39203 0
M  V30 1533 C 151.424 -1.79337 -3.88616 0
M  V30 1534 C 150.75 -1.28324 -5.19073 0
M  V30 1535 C 152.05 -3.19553 -4.13138 0
M  V30 1536 H 153.744 -2.0438 -2.1879 0
M  V30 1537 H 151.29 -0.984041 -1.05131 0
M  V30 1538 H 153.243 -0.622888 -4.16771 0
M  V30 1539 H 151.967 0.22401 -3.25831 0
M  V30 1540 H 150.626 -1.90477 -3.13231 0
M  V30 1541 H 150.274 -0.303414 -5.02084 0
M  V30 1542 H 149.974 -1.98369 -5.53103 0
M  V30 1543 H 151.498 -1.1733 -5.99221 0
M  V30 1544 H 152.912 -3.11471 -4.81309 0
M  V30 1545 H 151.309 -3.87218 -4.58457 0
M  V30 1546 H 152.379 -3.65368 -3.18801 0
M  V30 1547 N 153.722 1.14298 -1.08507 0
M  V30 1548 C 155.138 1.37347 -0.812901 0
M  V30 1549 C 155.338 1.93052 0.577325 0
M  V30 1550 O 154.394 2.14389 1.33393 0
M  V30 1551 C 155.707 2.33359 -1.89642 0
M  V30 1552 C 157.255 2.46996 -1.92255 0
M  V30 1553 C 157.73 3.46309 -2.99724 0
M  V30 1554 N 159.221 3.53853 -2.98902 0
M  V30 1555 C 159.956 4.3055 -3.787 0
M  V30 1556 N 159.452 5.10482 -4.6838 0
M  V30 1557 N 161.245 4.25757 -3.66998 0
M  V30 1558 H 153.396 0.764867 -1.9815 0
M  V30 1559 H 155.659 0.398966 -0.859959 0
M  V30 1560 H 155.365 1.99565 -2.89597 0
M  V30 1561 H 155.239 3.33274 -1.76659 0
M  V30 1562 H 157.626 2.80081 -0.929445 0
M  V30 1563 H 157.707 1.47039 -2.09316 0
M  V30 1564 H 157.351 3.13957 -3.99241 0
M  V30 1565 H 157.281 4.46049 -2.79907 0
M  V30 1566 H 159.772 2.96812 -2.33904 0
M  V30 1567 H 160.085 5.66284 -5.25873 0
M  V30 1568 H 158.43 5.09747 -4.72422 0
M  V30 1569 H 161.621 3.62383 -2.96304 0
M  V30 1570 H 161.794 4.85279 -4.29427 0
M  V30 1571 N 155.201 0.870884 1.31352 0
M  V30 1572 C 156.133 0.28455 2.27427 0
M  V30 1573 C 157.146 -0.552927 1.53123 0
M  V30 1574 O 158.335 -0.374771 1.74521 0
M  V30 1575 C 155.435 -0.615164 3.3327 0
M  V30 1576 C 154.608 0.190079 4.36987 0
M  V30 1577 C 153.667 -0.637917 5.22319 0
M  V30 1578 O 152.693 -0.065626 5.69162 0
M  V30 1579 N 153.895 -1.94973 5.46778 0
M  V30 1580 H 156.66 1.11017 2.7838 0
M  V30 1581 H 154.221 0.732458 1.44384 0
M  V30 1582 H 156.213 -1.1748 3.87273 0
M  V30 1583 H 154.783 -1.34146 2.82354 0
M  V30 1584 H 154.003 0.931165 3.83044 0
M  V30 1585 H 155.291 0.742579 5.03352 0
M  V30 1586 H 154.689 -2.4378 5.10478 0
M  V30 1587 H 153.246 -2.45713 6.03712 0
M  V30 1588 N 156.679 -1.44442 0.630414 0
M  V30 1589 C 157.642 -2.29107 -0.0652523 0
M  V30 1590 C 158.642 -1.41002 -0.772995 0
M  V30 1591 O 159.832 -1.62881 -0.617692 0
M  V30 1592 C 156.964 -3.22564 -1.10296 0
M  V30 1593 H 158.157 -2.92103 0.679401 0
M  V30 1594 H 155.71 -1.51343 0.390517 0
M  V30 1595 H 156.445 -2.64416 -1.87762 0
M  V30 1596 H 156.23 -3.87491 -0.59941 0
M  V30 1597 H 157.72 -3.86167 -1.5895 0
M  V30 1598 N 158.157 -0.370918 -1.53173 0
M  V30 1599 C 159.087 0.464847 -2.28826 0
M  V30 1600 C 160.068 1.07936 -1.31468 0
M  V30 1601 O 161.253 1.0956 -1.60344 0
M  V30 1602 C 158.383 1.60196 -3.08147 0
M  V30 1603 C 157.337 1.11443 -4.13237 0
M  V30 1604 C 156.663 2.3422 -4.80672 0
M  V30 1605 C 157.963 0.195384 -5.21934 0
M  V30 1606 H 159.657 -0.166329 -2.98938 0
M  V30 1607 H 157.203 -0.0814359 -1.4377 0
M  V30 1608 H 159.156 2.19332 -3.59822 0
M  V30 1609 H 157.88 2.26045 -2.35735 0
M  V30 1610 H 156.539 0.545727 -3.62515 0
M  V30 1611 H 156.187 2.98537 -4.04827 0
M  V30 1612 H 155.887 2.02269 -5.51689 0
M  V30 1613 H 157.411 2.94032 -5.35143 0
M  V30 1614 H 158.825 0.694375 -5.69079 0
M  V30 1615 H 157.222 -0.0335027 -6.00091 0
M  V30 1616 H 158.292 -0.760961 -4.78892 0
M  V30 1617 N 159.635 1.57281 -0.100228 0
M  V30 1618 C 160.545 2.17833 0.870965 0
M  V30 1619 C 161.561 1.14921 1.30649 0
M  V30 1620 O 162.737 1.47313 1.37335 0
M  V30 1621 C 159.802 2.75085 2.1102 0
M  V30 1622 C 158.863 3.9297 1.72838 0
M  V30 1623 C 158.096 4.47482 2.90854 0
M  V30 1624 O 158.319 4.00922 4.05731 0
M  V30 1625 O 157.253 5.38433 2.69023 0
M  V30 1626 H 161.079 3.0124 0.38575 0
M  V30 1627 H 158.664 1.48881 0.124397 0
M  V30 1628 H 160.546 3.11656 2.83634 0
M  V30 1629 H 159.221 1.94721 2.58584 0
M  V30 1630 H 158.128 3.61201 0.973883 0
M  V30 1631 H 159.461 4.74713 1.30033 0
M  V30 1632 N 161.113 -0.173488 1.56642 0
M  V30 1633 C 162.043 -1.2171 1.99271 0
M  V30 1634 C 163.024 -1.46289 0.867959 0
M  V30 1635 O 164.209 -1.5766 1.13388 0
M  V30 1636 C 161.339 -2.55651 2.35074 0
M  V30 1637 C 160.293 -2.45645 3.50489 0
M  V30 1638 C 159.619 -3.84056 3.72028 0
M  V30 1639 C 160.919 -1.96302 4.84007 0
M  V30 1640 H 162.613 -0.86275 2.867 0
M  V30 1641 H 160.159 -0.413571 1.37933 0
M  V30 1642 H 162.112 -3.2886 2.63494 0
M  V30 1643 H 160.836 -2.92869 1.44552 0
M  V30 1644 H 159.495 -1.7489 3.22194 0
M  V30 1645 H 159.143 -4.18664 2.788 0
M  V30 1646 H 158.843 -3.7823 4.49684 0
M  V30 1647 H 160.367 -4.58854 4.02846 0
M  V30 1648 H 161.781 -2.59284 5.11317 0
M  V30 1649 H 160.178 -2.01429 5.65284 0
M  V30 1650 H 161.248 -0.917226 4.76146 0
M  V30 1651 N 162.591 -1.51276 -0.441967 0
M  V30 1652 C 163.554 -1.7167 -1.51862 0
M  V30 1653 C 164.554 -0.586793 -1.49711 0
M  V30 1654 O 165.744 -0.854276 -1.51815 0
M  V30 1655 C 162.876 -1.76889 -2.91416 0
M  V30 1656 H 164.069 -2.67754 -1.35084 0
M  V30 1657 H 161.622 -1.41196 -0.670333 0
M  V30 1658 H 162.357 -0.826026 -3.13604 0
M  V30 1659 H 162.142 -2.59001 -2.94382 0
M  V30 1660 H 163.632 -1.94522 -3.69528 0
M  V30 1661 N 164.069 0.697108 -1.41344 0
M  V30 1662 C 165.485 1.00751 -1.2378 0
M  V30 1663 C 165.685 2.01105 -0.126066 0
M  V30 1664 O 164.741 2.47295 0.51004 0
M  V30 1665 C 166.054 1.53359 -2.58653 0
M  V30 1666 C 167.602 1.6525 -2.65822 0
M  V30 1667 C 168.077 2.2126 -4.01009 0
M  V30 1668 N 169.568 2.28622 -4.02847 0
M  V30 1669 C 170.303 2.72984 -5.04249 0
M  V30 1670 N 169.799 3.16962 -6.16041 0
M  V30 1671 N 171.592 2.72534 -4.91611 0
M  V30 1672 H 163.743 0.0322662 -2.12375 0
M  V30 1673 H 166.006 0.0768853 -0.944877 0
M  V30 1674 H 165.712 0.870773 -3.4075 0
M  V30 1675 H 165.586 2.51597 -2.81032 0
M  V30 1676 H 167.973 2.30644 -1.84086 0
M  V30 1677 H 168.054 0.655614 -2.47256 0
M  V30 1678 H 167.698 1.56482 -4.83193 0
M  V30 1679 H 167.628 3.21698 -4.16915 0
M  V30 1680 H 170.119 1.97585 -3.22131 0
M  V30 1681 H 170.432 3.49434 -6.89287 0
M  V30 1682 H 168.777 3.14875 -6.1958 0
M  V30 1683 H 171.968 2.37525 -4.0336 0
M  V30 1684 H 172.141 3.06789 -5.70775 0
M  V30 1685 N 165.547 1.27147 0.931209 0
M  V30 1686 C 166.48 1.0389 2.0318 0
M  V30 1687 C 167.458 -0.0395716 1.62552 0
M  V30 1688 O 168.642 0.104867 1.88208 0
M  V30 1689 C 165.769 0.575227 3.3378 0
M  V30 1690 C 164.815 1.64774 3.93385 0
M  V30 1691 S 165.648 3.23933 4.26413 0
M  V30 1692 C 166.804 2.79358 5.60098 0
M  V30 1693 H 167.037 1.97075 2.22596 0
M  V30 1694 H 164.57 1.10938 1.07387 0
M  V30 1695 H 166.528 0.314385 4.09294 0
M  V30 1696 H 165.189 -0.336505 3.12292 0
M  V30 1697 H 164.382 1.27454 4.87618 0
M  V30 1698 H 163.984 1.86048 3.24441 0
M  V30 1699 H 166.276 2.24443 6.39243 0
M  V30 1700 H 167.219 3.72322 6.02314 0
M  V30 1701 H 167.627 2.1861 5.20452 0
M  V30 1702 N 167.025 -1.13721 1.09112 0
M  V30 1703 C 167.988 -2.17222 0.731241 0
M  V30 1704 C 168.988 -1.59035 -0.237566 0
M  V30 1705 O 170.178 -1.74192 -0.0161704 0
M  V30 1706 C 167.31 -3.40804 0.0808443 0
M  V30 1707 H 168.503 -2.50573 1.64783 0
M  V30 1708 H 166.056 -1.28493 0.889897 0
M  V30 1709 H 166.791 -3.1304 -0.847127 0
M  V30 1710 H 166.576 -3.84306 0.777896 0
M  V30 1711 H 168.066 -4.1731 -0.155657 0
M  V30 1712 N 168.503 -0.877838 -1.30888 0
M  V30 1713 C 169.451 -0.328662 -2.30266 0
M  V30 1714 C 170.445 0.560496 -1.59859 0
M  V30 1715 O 171.651 0.445722 -1.74394 0
M  V30 1716 H 168.026 -0.0876142 -0.746879 0
M  V30 1717 H 169.997 -1.18061 -2.74051 0
M  V30 1718 C 168.746 0.448071 -3.44801 0
M  V30 1719 H 168.069 -0.226859 -3.99156 0
M  V30 1720 H 169.509 0.797541 -4.16432 0
M  V30 1721 C 167.968 1.64239 -2.94155 0
M  V30 1722 O 168.498 2.74175 -2.93583 0
M  V30 1723 N 166.704 1.47716 -2.50256 0
M  V30 1724 H 166.251 0.582821 -2.5092 0
M  V30 1725 H 166.209 2.27765 -2.16727 0
M  V30 1726 N 169.982 1.44106 -0.638065 0
M  V30 1727 C 171.393 1.85316 -0.226894 0
M  V30 1728 C 171.744 1.53399 1.22324 0
M  V30 1729 O 170.869 0.975463 1.93167 0
M  V30 1730 C 171.464 3.3637 -0.405013 0
M  V30 1731 C 170.023 3.76369 -0.0482902 0
M  V30 1732 C 169.17 2.67921 -0.715108 0
M  V30 1733 H 172.121 1.34474 -0.842764 0
M  V30 1734 H 172.142 3.7885 0.354 0
M  V30 1735 H 171.654 3.59569 -1.46053 0
M  V30 1736 H 169.755 3.58784 1.00522 0
M  V30 1737 H 169.868 4.76856 -0.463187 0
M  V30 1738 H 168.232 2.54259 -0.149753 0
M  V30 1739 H 169.015 2.93951 -1.77335 0
M  V30 1740 N 171.46 0.379036 1.52974 0
M  V30 1741 C 172.737 -0.263479 1.93817 0
M  V30 1742 C 173.117 -1.65244 1.31368 0
M  V30 1743 O 172.465 -2.23448 0.477856 0
M  V30 1744 C 172.675 -0.300166 3.47707 0
M  V30 1745 C 174.023 -0.534061 4.21228 0
M  V30 1746 O 175.047 -0.38081 3.54159 0
M  V30 1747 O 173.906 -0.833501 5.40106 0
M  V30 1748 H 171 -0.161149 0.811147 0
M  V30 1749 H 173.546 0.432798 1.64088 0
M  V30 1750 H 172.318 0.673138 3.85467 0
M  V30 1751 H 171.941 -1.04179 3.83709 0
M  V30 1752 N 172.938 -1.57226 0.108567 0
M  V30 1753 C 173.868 -2.17778 -0.84232 0
M  V30 1754 C 174.849 -1.11487 -1.2847 0
M  V30 1755 O 176.034 -1.39681 -1.34918 0
M  V30 1756 C 173.164 -2.76888 -2.09644 0
M  V30 1757 C 172.118 -3.88669 -1.79221 0
M  V30 1758 C 171.444 -4.34541 -3.11574 0
M  V30 1759 C 172.744 -5.11251 -1.06864 0
M  V30 1760 H 174.438 -2.97489 -0.337774 0
M  V30 1761 H 171.984 -1.43097 -0.161025 0
M  V30 1762 H 173.937 -3.17904 -2.76614 0
M  V30 1763 H 172.661 -1.94451 -2.62405 0
M  V30 1764 H 171.32 -3.48213 -1.14644 0
M  V30 1765 H 170.968 -3.48977 -3.62249 0
M  V30 1766 H 170.668 -5.09914 -2.91996 0
M  V30 1767 H 172.192 -4.782 -3.7968 0
M  V30 1768 H 173.606 -5.49352 -1.63968 0
M  V30 1769 H 172.003 -5.9214 -0.974178 0
M  V30 1770 H 173.073 -4.8487 -0.0536168 0
M  V30 1771 N 174.416 0.165178 -1.56732 0
M  V30 1772 C 175.832 0.517174 -1.50988 0
M  V30 1773 C 176.032 1.84331 -0.813894 0
M  V30 1774 O 175.088 2.49672 -0.37682 0
M  V30 1775 C 176.401 0.544261 -2.95733 0
M  V30 1776 C 177.949 0.631039 -3.06573 0
M  V30 1777 C 178.424 0.68896 -4.52788 0
M  V30 1778 N 179.915 0.751683 -4.5706 0
M  V30 1779 C 180.65 0.817177 -5.67547 0
M  V30 1780 N 180.146 0.843129 -6.8765 0
M  V30 1781 N 181.939 0.856668 -5.55534 0
M  V30 1782 H 174.09 -0.704318 -2.00382 0
M  V30 1783 H 176.353 -0.254687 -0.913148 0
M  V30 1784 H 176.059 -0.361607 -3.49836 0
M  V30 1785 H 175.933 1.3886 -3.5071 0
M  V30 1786 H 178.32 1.52733 -2.52501 0
M  V30 1787 H 178.401 -0.240095 -2.54671 0
M  V30 1788 H 178.045 -0.2031 -5.07494 0
M  V30 1789 H 177.975 1.57633 -5.02454 0
M  V30 1790 H 180.466 0.739661 -3.70591 0
M  V30 1791 H 180.779 0.894448 -7.67606 0
M  V30 1792 H 179.124 0.811304 -6.90248 0
M  V30 1793 H 182.315 0.833437 -4.60621 0
M  V30 1794 H 182.488 0.904247 -6.4166 0
M  V30 1795 N 175.894 1.51508 0.433938 0
M  V30 1796 C 177.14 1.64588 1.18484 0
M  V30 1797 C 177.473 0.362666 1.90784 0
M  V30 1798 O 176.748 -0.637892 1.83742 0
M  V30 1799 C 177.031 2.85149 2.19913 0
M  V30 1800 C 176.884 4.23456 1.51674 0
M  V30 1801 C 178.203 3.01227 3.20858 0
M  V30 1802 H 175.322 0.598994 0.429389 0
M  V30 1803 H 177.964 1.84002 0.473647 0
M  V30 1804 H 176.114 2.68729 2.80566 0
M  V30 1805 H 177.786 4.51552 0.943322 0
M  V30 1806 H 176.029 4.25998 0.819035 0
M  V30 1807 H 176.7 5.03812 2.2556 0
M  V30 1808 H 179.176 3.16382 2.70263 0
M  V30 1809 H 178.052 3.87141 3.89118 0
M  V30 1810 H 178.313 2.13447 3.8716 0
M  V30 1811 N 177.372 -0.689602 1.41712 0
M  V30 1812 C 178.619 -1.44966 1.4139 0
M  V30 1813 C 178.947 -1.94484 0.025105 0
M  V30 1814 O 178.202 -1.70307 -0.964048 0
M  V30 1815 C 178.501 -2.67298 2.37247 0
M  V30 1816 C 178.167 -2.36405 3.83958 0
M  V30 1817 C 176.829 -2.27691 4.23923 0
M  V30 1818 C 179.181 -2.11043 4.76561 0
M  V30 1819 C 176.509 -1.91719 5.54492 0
M  V30 1820 C 178.861 -1.76578 6.07456 0
M  V30 1821 C 177.525 -1.66363 6.46436 0
M  V30 1822 H 176.795 -0.53047 0.517381 0
M  V30 1823 H 179.442 -0.787655 1.74552 0
M  V30 1824 H 177.747 -3.38461 1.9736 0
M  V30 1825 H 179.444 -3.25452 2.34269 0
M  V30 1826 H 176.034 -2.44085 3.52308 0
M  V30 1827 H 180.218 -2.16717 4.46483 0
M  V30 1828 H 175.474 -1.82367 5.83568 0
M  V30 1829 H 179.648 -1.55974 6.78708 0
M  V30 1830 H 177.275 -1.38258 7.47522 0
M  V30 1831 N 178.85 -1.27639 -0.924453 0
M  V30 1832 C 180.096 -1.14336 -1.67497 0
M  V30 1833 C 180.429 0.309465 -1.91718 0
M  V30 1834 O 179.704 1.22608 -1.50989 0
M  V30 1835 C 179.987 -1.93096 -3.0395 0
M  V30 1836 C 179.84 -3.46381 -2.8695 0
M  V30 1837 C 181.159 -1.73798 -4.0433 0
M  V30 1838 H 178.278 -0.416728 -0.607871 0
M  V30 1839 H 180.92 -1.56832 -1.07256 0
M  V30 1840 H 179.07 -1.56982 -3.55372 0
M  V30 1841 H 180.742 -3.92343 -2.42621 0
M  V30 1842 H 178.985 -3.72557 -2.22225 0
M  V30 1843 H 179.656 -3.96735 -3.83804 0
M  V30 1844 H 182.132 -2.05293 -3.61931 0
M  V30 1845 H 181.008 -2.31294 -4.97789 0
M  V30 1846 H 181.269 -0.686725 -4.36734 0
M  V30 1847 N 180.328 1.1314 -1.09713 0
M  V30 1848 C 181.553 1.88862 -0.857081 0
M  V30 1849 C 181.978 1.78729 0.586304 0
M  V30 1850 O 181.336 1.13692 1.41222 0
M  V30 1851 C 181.384 3.36325 -1.30069 0
M  V30 1852 O 180.488 4.09815 -0.461007 0
M  V30 1853 H 179.829 0.587108 -0.310162 0
M  V30 1854 H 182.359 1.43129 -1.46203 0
M  V30 1855 H 182.369 3.87157 -1.28738 0
M  V30 1856 H 181.044 3.43017 -2.35185 0
M  V30 1857 H 179.621 3.68986 -0.538888 0
M  V30 1858 N 181.806 0.884767 1.30421 0
M  V30 1859 C 183.083 0.423185 1.90967 0
M  V30 1860 C 183.463 -1.09605 1.80416 0
M  V30 1861 O 182.811 -1.93126 1.22125 0
M  V30 1862 C 183.021 0.921056 3.36627 0
M  V30 1863 C 184.369 0.955903 4.137 0
M  V30 1864 O 185.393 0.867706 3.4547 0
M  V30 1865 O 184.252 1.08614 5.35598 0
M  V30 1866 H 181.346 0.129369 0.816819 0
M  V30 1867 H 183.892 0.973653 1.3899 0
M  V30 1868 H 182.664 1.96489 3.3839 0
M  V30 1869 H 182.287 0.349741 3.96059 0
M  V30 1870 N 183.284 -1.43765 0.645699 0
M  V30 1871 C 184.695 -1.85193 0.236719 0
M  V30 1872 C 185.046 -1.54045 -1.21509 0
M  V30 1873 O 184.171 -0.985694 -1.92647 0
M  V30 1874 C 184.766 -3.36151 0.422845 0
M  V30 1875 C 183.325 -3.76338 0.0682492 0
M  V30 1876 C 182.472 -2.67538 0.729306 0
M  V30 1877 H 185.423 -1.34025 0.849883 0
M  V30 1878 H 185.444 -3.79032 -0.333904 0
M  V30 1879 H 184.956 -3.5879 1.47958 0
M  V30 1880 H 183.057 -3.59312 -0.986179 0
M  V30 1881 H 183.17 -4.76603 0.488469 0
M  V30 1882 H 181.534 -2.54176 0.163235 0
M  V30 1883 H 182.317 -2.93006 1.78892 0
M  V30 1884 N 184.763 -0.387143 -1.52771 0
M  V30 1885 C 185.991 0.195869 -2.05971 0
M  V30 1886 C 186.406 1.40691 -1.25903 0
M  V30 1887 O 185.763 1.79931 -0.305134 0
M  V30 1888 C 185.814 0.56812 -3.57008 0
M  V30 1889 O 185.535 -0.594803 -4.34043 0
M  V30 1890 C 187.036 1.20723 -4.26545 0
M  V30 1891 H 184.256 0.0300578 -0.670326 0
M  V30 1892 H 186.8 -0.551749 -1.96916 0
M  V30 1893 H 184.955 1.26564 -3.66143 0
M  V30 1894 H 185.369 -0.289322 -5.23701 0
M  V30 1895 H 186.843 1.41807 -5.33474 0
M  V30 1896 H 187.32 2.17395 -3.81623 0
M  V30 1897 H 187.926 0.550535 -4.21722 0
M  V30 1898 N 186.241 1.57166 -0.116904 0
M  V30 1899 C 187.487 1.96206 0.536166 0
M  V30 1900 C 187.842 0.99915 1.64422 0
M  V30 1901 O 187.135 0.0288195 1.91578 0
M  V30 1902 C 187.329 3.39508 1.11664 0
M  V30 1903 C 187.158 4.49651 0.0663474 0
M  V30 1904 C 185.928 5.03982 -0.36474 0
M  V30 1905 C 188.126 5.09322 -0.713829 0
M  V30 1906 N 186.108 5.97699 -1.40102 0
M  V30 1907 C 187.479 5.98963 -1.60136 0
M  V30 1908 C 189.534 4.91989 -0.764948 0
M  V30 1909 C 188.237 6.73128 -2.53556 0
M  V30 1910 C 190.263 5.66833 -1.68685 0
M  V30 1911 C 189.625 6.56158 -2.56196 0
M  V30 1912 H 185.724 0.764203 0.165886 0
M  V30 1913 H 188.308 1.93623 -0.204535 0
M  V30 1914 H 186.479 3.42743 1.82707 0
M  V30 1915 H 188.211 3.65677 1.73386 0
M  V30 1916 H 184.966 4.73592 0.027252 0
M  V30 1917 H 185.39 6.49262 -1.91802 0
M  V30 1918 H 190.032 4.22676 -0.102501 0
M  V30 1919 H 187.75 7.41689 -3.20816 0
M  V30 1920 H 191.336 5.55427 -1.73181 0
M  V30 1921 H 190.216 7.13057 -3.26372 0
M  V30 1922 N 187.719 -0.156864 1.56817 0
M  V30 1923 C 189.13 -0.717916 1.72345 0
M  V30 1924 C 189.481 -1.82124 0.729747 0
M  V30 1925 O 188.606 -2.16141 -0.105781 0
M  V30 1926 C 189.201 -1.30904 3.12489 0
M  V30 1927 C 187.76 -1.81676 3.29653 0
M  V30 1928 C 186.907 -0.701349 2.68284 0
M  V30 1929 H 189.858 0.0686989 1.58551 0
M  V30 1930 H 189.879 -2.17882 3.11942 0
M  V30 1931 H 189.391 -0.505796 3.8479 0
M  V30 1932 H 187.492 -2.64598 2.62333 0
M  V30 1933 H 187.605 -1.95226 4.3752 0
M  V30 1934 H 185.969 -1.12548 2.28484 0
M  V30 1935 H 186.752 0.0902846 3.43181 0
M  V30 1936 N 189.197 -1.51736 -0.425897 0
M  V30 1937 C 190.145 -1.74464 -1.53834 0
M  V30 1938 C 191.139 -0.611241 -1.57988 0
M  V30 1939 O 192.345 -0.792899 -1.61596 0
M  V30 1940 H 188.72 -0.551437 -0.511293 0
M  V30 1941 H 190.691 -2.67694 -1.31843 0
M  V30 1942 C 189.44 -1.8972 -2.91379 0
M  V30 1943 H 188.763 -2.76344 -2.88919 0
M  V30 1944 H 190.203 -2.09629 -3.68553 0
M  V30 1945 C 188.662 -0.65992 -3.30374 0
M  V30 1946 O 189.192 0.180083 -4.01296 0
M  V30 1947 N 187.398 -0.500677 -2.86254 0
M  V30 1948 H 186.945 -1.18532 -2.28709 0
M  V30 1949 H 186.903 0.325903 -3.12706 0
M  V30 1950 N 190.675 0.682077 -1.42076 0
M  V30 1951 C 191.625 1.78823 -1.41444 0
M  V30 1952 C 192.609 1.58323 -0.28681 0
M  V30 1953 O 193.801 1.68926 -0.528498 0
M  V30 1954 C 190.93 3.17232 -1.3122 0
M  V30 1955 C 190.016 3.4338 -2.489 0
M  V30 1956 N 190.407 3.40152 -3.7434 0
M  V30 1957 C 188.705 3.73986 -2.43003 0
M  V30 1958 C 189.406 3.65581 -4.52466 0
M  V30 1959 N 188.382 3.85989 -3.8277 0
M  V30 1960 H 192.184 1.7471 -2.36334 0
M  V30 1961 H 189.698 0.882622 -1.36321 0
M  V30 1962 H 191.695 3.96489 -1.2885 0
M  V30 1963 H 190.355 3.22547 -0.373263 0
M  V30 1964 H 191.366 3.20221 -4.07037 0
M  V30 1965 H 188.043 3.86591 -1.57651 0
M  V30 1966 H 189.433 3.69108 -5.61435 0
M  V30 1967 N 192.153 1.28127 0.917671 0
M  V30 1968 C 193.399 1.15223 1.66888 0
M  V30 1969 C 193.732 -0.299293 1.9188 0
M  V30 1970 O 193.007 -1.21805 1.51637 0
M  V30 1971 C 193.29 1.94706 3.02922 0
M  V30 1972 C 193.143 3.47898 2.85109 0
M  V30 1973 C 194.462 1.75939 4.03402 0
M  V30 1974 H 191.581 0.419946 0.605652 0
M  V30 1975 H 194.223 1.57398 1.06423 0
M  V30 1976 H 192.373 1.58864 3.54534 0
M  V30 1977 H 194.045 3.93624 2.40537 0
M  V30 1978 H 192.288 3.7373 2.20246 0
M  V30 1979 H 192.959 3.98765 3.81694 0
M  V30 1980 H 195.435 2.07209 3.60837 0
M  V30 1981 H 194.311 2.33931 4.96556 0
M  V30 1982 H 194.572 0.709877 4.36364 0
M  V30 1983 N 193.631 -1.12557 1.10312 0
M  V30 1984 C 194.856 -1.88405 0.867085 0
M  V30 1985 C 195.281 -1.79038 -0.576817 0
M  V30 1986 O 194.639 -1.14439 -1.40618 0
M  V30 1987 C 194.687 -3.3563 1.31851 0
M  V30 1988 O 193.791 -4.09565 0.482734 0
M  V30 1989 H 193.132 -0.585455 0.313271 0
M  V30 1990 H 195.662 -1.42352 1.4696 0
M  V30 1991 H 195.672 -3.86469 1.3079 0
M  V30 1992 H 194.347 -3.41765 2.37001 0
M  V30 1993 H 192.924 -3.68695 0.558448 0
M  V30 1994 N 195.109 -0.891671 -1.2995 0
M  V30 1995 C 196.358 -0.509521 -1.95158 0
M  V30 1996 C 196.671 0.947388 -1.71125 0
M  V30 1997 O 197.877 1.43669 -2.30372 0
M  V30 1998 C 196.333 -0.860315 -3.49466 0
M  V30 1999 C 195.941 -2.33545 -3.8231 0
M  V30 2000 C 197.685 -0.547687 -4.20952 0
M  V30 2001 C 195.592 -2.62752 -5.29826 0
M  V30 2002 H 194.522 -0.18682 -0.730489 0
M  V30 2003 H 197.173 -1.08756 -1.47798 0
M  V30 2004 H 195.555 -0.211285 -3.95436 0
M  V30 2005 H 196.729 -3.02936 -3.47227 0
M  V30 2006 H 195.044 -2.61629 -3.23944 0
M  V30 2007 H 197.641 -0.742854 -5.29515 0
M  V30 2008 H 197.984 0.51332 -4.13123 0
M  V30 2009 H 198.517 -1.1542 -3.80688 0
M  V30 2010 H 195.256 -3.6762 -5.42712 0
M  V30 2011 H 194.776 -1.97977 -5.66185 0
M  V30 2012 H 196.455 -2.48601 -5.97333 0
M  V30 2013 N 196.587 1.43421 -0.653314 0
M  V30 2014 C 197.52 2.2803 0.0879804 0
M  V30 2015 C 198.498 1.39833 0.82979 0
M  V30 2016 O 199.682 1.69275 0.829341 0
M  V30 2017 C 196.809 3.19247 1.13132 0
M  V30 2018 C 195.855 4.23704 0.487546 0
M  V30 2019 S 196.688 5.30377 -0.738961 0
M  V30 2020 C 197.844 6.25162 0.30384 0
M  V30 2021 H 198.077 2.90554 -0.629739 0
M  V30 2022 H 195.61 1.47934 -0.442156 0
M  V30 2023 H 197.568 3.72346 1.72827 0
M  V30 2024 H 196.229 2.55901 1.82136 0
M  V30 2025 H 195.422 4.87631 1.27407 0
M  V30 2026 H 195.024 3.73983 -0.0352915 0
M  V30 2027 H 197.316 6.67321 1.17 0
M  V30 2028 H 198.259 7.07463 -0.300402 0
M  V30 2029 H 198.667 5.60864 0.63969 0
M  V30 2030 N 198.065 0.39524 1.52563 0
M  V30 2031 C 199.013 -0.451859 2.28169 0
M  V30 2032 C 200.007 -1.05792 1.32304 0
M  V30 2033 O 201.213 -0.997718 1.49818 0
M  V30 2034 H 197.588 -0.164481 0.733792 0
M  V30 2035 H 199.559 0.207199 2.9768 0
M  V30 2036 C 198.308 -1.56385 3.10546 0
M  V30 2037 H 197.631 -1.10682 3.84174 0
M  V30 2038 H 199.071 -2.13067 3.66577 0
M  V30 2039 C 197.53 -2.52328 2.23231 0
M  V30 2040 O 198.06 -3.5588 1.86312 0
M  V30 2041 N 196.266 -2.22209 1.87274 0
M  V30 2042 H 195.813 -1.38033 2.17496 0
M  V30 2043 H 195.771 -2.86652 1.29143 0
M  V30 2044 N 199.544 -1.57102 0.125237 0
M  V30 2045 C 200.791 -1.95407 -0.531248 0
M  V30 2046 C 201.119 -1.0089 -1.66287 0
M  V30 2047 O 200.374 -0.0339431 -1.95671 0
M  V30 2048 C 200.673 -3.40096 -1.09862 0
M  V30 2049 C 200.339 -4.50815 -0.0876989 0
M  V30 2050 C 199.001 -4.80824 0.19026 0
M  V30 2051 C 201.353 -5.17724 0.600902 0
M  V30 2052 C 198.681 -5.75058 1.163 0
M  V30 2053 C 201.033 -6.13005 1.56231 0
M  V30 2054 C 199.697 -6.41403 1.8482 0
M  V30 2055 H 198.967 -0.715046 -0.194397 0
M  V30 2056 H 201.614 -1.90373 0.207463 0
M  V30 2057 H 199.919 -3.41855 -1.91422 0
M  V30 2058 H 201.616 -3.6705 -1.61478 0
M  V30 2059 H 198.206 -4.27444 -0.314528 0
M  V30 2060 H 202.39 -4.94691 0.399333 0
M  V30 2061 H 197.646 -5.95362 1.39117 0
M  V30 2062 H 201.82 -6.63934 2.10153 0
M  V30 2063 H 199.447 -7.14229 2.60349 0
M  V30 2064 N 201.022 0.148545 -1.56898 0
M  V30 2065 C 201.955 1.21293 -1.93296 0
M  V30 2066 C 202.933 1.41637 -0.798599 0
M  V30 2067 O 204.117 1.56275 -1.05406 0
M  V30 2068 C 201.244 2.5721 -2.20365 0
M  V30 2069 C 200.29 2.53469 -3.4301 0
M  V30 2070 S 201.123 2.00315 -4.96623 0
M  V30 2071 C 202.279 3.37964 -5.26812 0
M  V30 2072 H 202.512 0.902393 -2.83274 0
M  V30 2073 H 200.045 0.354094 -1.50285 0
M  V30 2074 H 202.003 3.35427 -2.36641 0
M  V30 2075 H 200.664 2.85454 -1.31054 0
M  V30 2076 H 199.857 3.53518 -3.59223 0
M  V30 2077 H 199.459 1.83359 -3.25968 0
M  V30 2078 H 201.751 4.34066 -5.20185 0
M  V30 2079 H 202.694 3.26606 -6.28279 0
M  V30 2080 H 203.102 3.35028 -4.54331 0
M  V30 2081 N 202.5 1.5196 0.417844 0
M  V30 2082 C 203.748 1.65263 1.16329 0
M  V30 2083 C 204.069 0.380634 1.91249 0
M  V30 2084 O 203.339 -0.604214 1.86349 0
M  V30 2085 H 201.919 0.60912 0.432414 0
M  V30 2086 H 204.581 1.88969 0.477162 0
M  V30 2087 H 203.677 2.4896 1.88217 0
M  V30 2088 N 203.978 -0.674533 1.42435 0
M  V30 2089 C 204.908 -1.80009 1.48724 0
M  V30 2090 C 205.889 -1.6659 0.343793 0
M  V30 2091 O 207.074 -1.86007 0.558137 0
M  V30 2092 C 204.204 -3.18306 1.38919 0
M  V30 2093 C 203.158 -3.46461 2.51294 0
M  V30 2094 C 202.484 -4.84335 2.26547 0
M  V30 2095 C 203.784 -3.43328 3.93603 0
M  V30 2096 H 205.478 -1.75004 2.42928 0
M  V30 2097 H 203.024 -0.840533 1.16923 0
M  V30 2098 H 204.977 -3.9678 1.41927 0
M  V30 2099 H 203.701 -3.2399 0.412094 0
M  V30 2100 H 202.36 -2.70348 2.47604 0
M  V30 2101 H 202.008 -4.86669 1.2713 0
M  V30 2102 H 201.708 -5.04136 3.01861 0
M  V30 2103 H 203.232 -5.65094 2.31304 0
M  V30 2104 H 204.646 -4.11772 3.98894 0
M  V30 2105 H 203.043 -3.74664 4.68771 0
M  V30 2106 H 204.113 -2.41897 4.20255 0
M  V30 2107 N 205.456 -1.28612 -0.910864 0
M  V30 2108 C 206.867 -1.14406 -1.47541 0
M  V30 2109 C 207.218 0.264901 -1.94403 0
M  V30 2110 O 206.343 1.15942 -1.82719 0
M  V30 2111 C 206.938 -2.07073 -2.68153 0
M  V30 2112 C 205.497 -1.96923 -3.20778 0
M  V30 2113 C 204.644 -1.98646 -1.93481 0
M  V30 2114 H 207.595 -1.41259 -0.723291 0
M  V30 2115 H 207.616 -1.63642 -3.43514 0
M  V30 2116 H 207.128 -3.09611 -2.34015 0
M  V30 2117 H 205.229 -0.97433 -3.59635 0
M  V30 2118 H 205.342 -2.84026 -3.85832 0
M  V30 2119 H 203.706 -1.43093 -2.10705 0
M  V30 2120 H 204.489 -3.02868 -1.61634 0
M  V30 2121 N 206.934 1.1197 -1.10907 0
M  V30 2122 C 208.18 1.8386 -0.855773 0
M  V30 2123 C 208.513 1.84134 0.617103 0
M  V30 2124 O 207.788 1.29041 1.45529 0
M  V30 2125 C 208.071 3.31305 -1.411 0
M  V30 2126 C 207.924 3.39456 -2.9511 0
M  V30 2127 C 209.243 4.2721 -1.05736 0
M  V30 2128 H 206.362 0.667545 -0.312334 0
M  V30 2129 H 209.004 1.31331 -1.37303 0
M  V30 2130 H 207.154 3.76169 -0.97105 0
M  V30 2131 H 208.826 3.03191 -3.47668 0
M  V30 2132 H 207.069 2.79849 -3.31462 0
M  V30 2133 H 207.74 4.43209 -3.29044 0
M  V30 2134 H 210.216 3.90497 -1.43706 0
M  V30 2135 H 209.092 5.28775 -1.47269 0
M  V30 2136 H 209.353 4.42088 0.0325958 0
M  V30 2137 N 208.412 0.89855 1.29475 0
M  V30 2138 C 209.344 0.332726 2.26772 0
M  V30 2139 C 210.357 -0.520323 1.54261 0
M  V30 2140 O 211.546 -0.337668 1.75277 0
M  V30 2141 C 208.646 -0.544334 3.345 0
M  V30 2142 C 207.819 0.282728 4.36485 0
M  V30 2143 C 206.878 -0.526982 5.23555 0
M  V30 2144 O 205.904 0.0551165 5.69173 0
M  V30 2145 N 207.106 -1.83331 5.5079 0
M  V30 2146 H 209.871 1.16897 2.75962 0
M  V30 2147 H 207.432 0.762919 1.42798 0
M  V30 2148 H 209.424 -1.09239 3.89678 0
M  V30 2149 H 207.994 -1.28127 2.85136 0
M  V30 2150 H 207.214 1.01221 3.80983 0
M  V30 2151 H 208.502 0.84918 5.01664 0
M  V30 2152 H 207.9 -2.32898 5.15534 0
M  V30 2153 H 206.457 -2.32852 6.08788 0
M  V30 2154 N 209.89 -1.43072 0.660911 0
M  V30 2155 C 211.118 -2.06067 0.185422 0
M  V30 2156 C 211.533 -1.49582 -1.15198 0
M  V30 2157 O 210.89 -0.630134 -1.71276 0
M  V30 2158 C 210.941 -3.61371 0.0966523 0
M  V30 2159 O 210.662 -4.15758 1.38119 0
M  V30 2160 C 212.163 -4.41455 -0.403996 0
M  V30 2161 H 209.383 -0.664459 0.0934604 0
M  V30 2162 H 211.927 -1.83447 0.90373 0
M  V30 2163 H 210.082 -3.8315 -0.572259 0
M  V30 2164 H 210.496 -5.09499 1.24542 0
M  V30 2165 H 211.97 -5.50437 -0.415045 0
M  V30 2166 H 212.447 -4.15036 -1.43674 0
M  V30 2167 H 213.053 -4.24663 0.232691 0
M  V30 2168 N 211.368 -0.403325 -1.52352 0
M  V30 2169 C 212.598 0.17376 -2.05868 0
M  V30 2170 C 213.006 1.39898 -1.27378 0
M  V30 2171 O 212.349 1.80939 -0.31729 0
M  V30 2172 C 212.411 0.594756 -3.54546 0
M  V30 2173 C 212.075 -0.518926 -4.54044 0
M  V30 2174 C 213.072 -1.3807 -5.01231 0
M  V30 2175 C 210.757 -0.689961 -4.97539 0
M  V30 2176 C 212.751 -2.39852 -5.90551 0
M  V30 2177 C 210.438 -1.71109 -5.86656 0
M  V30 2178 C 211.436 -2.56378 -6.33056 0
M  V30 2179 O 211.124 -3.56743 -7.20409 0
M  V30 2180 H 210.856 0.0264951 -0.675481 0
M  V30 2181 H 213.41 -0.571179 -1.97299 0
M  V30 2182 H 211.64 1.39189 -3.60782 0
M  V30 2183 H 213.329 1.0991 -3.90736 0
M  V30 2184 H 214.095 -1.25994 -4.68349 0
M  V30 2185 H 209.974 -0.035939 -4.60986 0
M  V30 2186 H 213.518 -3.06441 -6.26689 0
M  V30 2187 H 209.415 -1.83218 -6.18952 0
M  V30 2188 H 210.183 -3.52918 -7.38506 0
M  V30 2189 N 212.846 1.57033 -0.133567 0
M  V30 2190 C 214.262 1.58035 0.222944 0
M  V30 2191 C 214.462 1.14713 1.6566 0
M  V30 2192 O 213.518 0.841218 2.38075 0
M  V30 2193 C 214.831 3.00691 -0.0236116 0
M  V30 2194 C 216.379 3.12973 0.0411512 0
M  V30 2195 C 216.854 4.57654 -0.177899 0
M  V30 2196 N 218.345 4.63033 -0.124365 0
M  V30 2197 C 219.08 5.72771 -0.268553 0
M  V30 2198 N 218.576 6.91206 -0.46972 0
M  V30 2199 N 220.369 5.61718 -0.2071 0
M  V30 2200 H 212.52 1.8349 -1.06981 0
M  V30 2201 H 214.783 0.848677 -0.422436 0
M  V30 2202 H 214.489 3.36726 -1.0153 0
M  V30 2203 H 214.363 3.70614 0.701808 0
M  V30 2204 H 216.75 2.76787 1.02338 0
M  V30 2205 H 216.831 2.45564 -0.716383 0
M  V30 2206 H 216.475 4.94542 -1.15717 0
M  V30 2207 H 216.405 5.23173 0.599797 0
M  V30 2208 H 218.896 3.7789 0.027011 0
M  V30 2209 H 219.209 7.70693 -0.570212 0
M  V30 2210 H 217.554 6.93156 -0.505876 0
M  V30 2211 H 220.745 4.68072 -0.0507986 0
M  V30 2212 H 220.918 6.47195 -0.322909 0
M  V30 2213 N 214.325 -0.140222 1.56975 0
M  V30 2214 C 215.555 -0.865181 1.87612 0
M  V30 2215 C 215.963 -1.74942 0.72055 0
M  V30 2216 O 215.306 -1.80917 -0.318561 0
M  V30 2217 C 215.368 -1.76782 3.13031 0
M  V30 2218 C 215.032 -1.06005 4.44536 0
M  V30 2219 C 216.029 -0.410768 5.18275 0
M  V30 2220 C 213.714 -1.04754 4.91255 0
M  V30 2221 C 215.708 0.241572 6.36942 0
M  V30 2222 C 213.395 -0.391394 6.09845 0
M  V30 2223 C 214.393 0.252029 6.82535 0
M  V30 2224 O 214.081 0.897757 7.98871 0
M  V30 2225 H 213.813 -0.255188 0.625983 0
M  V30 2226 H 216.367 -0.135653 2.04952 0
M  V30 2227 H 214.597 -2.53846 2.91718 0
M  V30 2228 H 216.286 -2.36533 3.29859 0
M  V30 2229 H 217.052 -0.412195 4.83245 0
M  V30 2230 H 212.931 -1.53777 4.34596 0
M  V30 2231 H 216.475 0.744375 6.93617 0
M  V30 2232 H 212.372 -0.387656 6.44335 0
M  V30 2233 H 213.14 0.800102 8.1458 0
M  V30 2234 N 215.803 -1.52179 -0.40978 0
M  V30 2235 C 217.05 -1.66206 -1.15679 0
M  V30 2236 C 217.378 -0.391674 -1.90516 0
M  V30 2237 O 216.633 0.62533 -1.8544 0
M  V30 2238 C 216.932 -2.83428 -2.17723 0
M  V30 2239 C 216.598 -4.21672 -1.59699 0
M  V30 2240 C 215.26 -4.59274 -1.43599 0
M  V30 2241 C 217.612 -5.07825 -1.17317 0
M  V30 2242 C 214.94 -5.80709 -0.836328 0
M  V30 2243 C 217.292 -6.29864 -0.587691 0
M  V30 2244 C 215.956 -6.66216 -0.413818 0
M  V30 2245 H 215.226 -0.608192 -0.423301 0
M  V30 2246 H 217.873 -1.86279 -0.444097 0
M  V30 2247 H 216.178 -2.57687 -2.95135 0
M  V30 2248 H 217.875 -2.91477 -2.75394 0
M  V30 2249 H 214.465 -3.9204 -1.73213 0
M  V30 2250 H 218.649 -4.79359 -1.28565 0
M  V30 2251 H 213.905 -6.07498 -0.689626 0
M  V30 2252 H 218.079 -6.95948 -0.250894 0
M  V30 2253 H 215.706 -7.60182 0.0529471 0
M  V30 2254 N 217.281 0.66697 -1.42791 0
M  V30 2255 C 218.558 1.4234 -1.34159 0
M  V30 2256 C 218.938 2.11093 0.0172729 0
M  V30 2257 O 218.286 2.03808 1.03318 0
M  V30 2258 C 218.496 2.41942 -2.51526 0
M  V30 2259 C 219.844 3.06353 -2.93995 0
M  V30 2260 O 220.868 2.52269 -2.51473 0
M  V30 2261 O 219.727 4.04376 -3.67617 0
M  V30 2262 H 216.821 0.635277 -0.529483 0
M  V30 2263 H 219.367 0.695034 -1.54814 0
M  V30 2264 H 218.139 1.89991 -3.42081 0
M  V30 2265 H 217.762 3.22249 -2.32898 0
M  V30 2266 N 218.759 1.29093 0.90403 0
M  V30 2267 C 219.722 1.1386 1.98919 0
M  V30 2268 C 220.722 0.0753457 1.60623 0
M  V30 2269 O 221.912 0.321931 1.71199 0
M  V30 2270 C 219.044 0.740198 3.32767 0
M  V30 2271 H 220.237 2.10246 2.13861 0
M  V30 2272 H 217.79 1.12218 1.08797 0
M  V30 2273 H 218.525 -0.223997 3.23525 0
M  V30 2274 H 218.31 1.50838 3.61926 0
M  V30 2275 H 219.8 0.656546 4.12407 0
M  V30 2276 N 220.237 -1.11381 1.11499 0
M  V30 2277 C 221.147 -2.21019 0.786628 0
M  V30 2278 C 222.163 -1.72597 -0.220507 0
M  V30 2279 O 223.339 -2.01321 -0.0565251 0
M  V30 2280 C 220.404 -3.459 0.235333 0
M  V30 2281 C 219.465 -4.09107 1.30115 0
M  V30 2282 C 218.698 -5.28027 0.776068 0
M  V30 2283 O 218.921 -5.6904 -0.393661 0
M  V30 2284 O 217.855 -5.81835 1.54114 0
M  V30 2285 H 221.681 -2.51521 1.70209 0
M  V30 2286 H 219.266 -1.19928 0.890928 0
M  V30 2287 H 221.148 -4.21346 -0.067715 0
M  V30 2288 H 219.823 -3.17049 -0.652828 0
M  V30 2289 H 218.73 -3.35391 1.65722 0
M  V30 2290 H 220.063 -4.42139 2.16273 0
M  V30 2291 N 221.715 -0.905404 -1.28997 0
M  V30 2292 C 222.943 -0.549846 -1.9946 0
M  V30 2293 C 223.358 0.866834 -1.67724 0
M  V30 2294 O 222.715 1.57298 -0.925404 0
M  V30 2295 C 222.766 -0.739387 -3.53858 0
M  V30 2296 O 222.487 -2.10031 -3.84472 0
M  V30 2297 C 223.988 -0.389541 -4.41585 0
M  V30 2298 H 221.208 -0.210429 -0.637151 0
M  V30 2299 H 223.752 -1.21632 -1.64396 0
M  V30 2300 H 221.907 -0.120023 -3.87214 0
M  V30 2301 H 222.321 -2.13385 -4.79132 0
M  V30 2302 H 223.795 -0.572972 -5.49018 0
M  V30 2303 H 224.272 0.673756 -4.34001 0
M  V30 2304 H 224.878 -0.986089 -4.1371 0
M  V30 2305 N 223.193 1.4272 -0.668489 0
M  V30 2306 C 224.609 1.55992 -0.33745 0
M  V30 2307 C 224.809 1.64933 1.15756 0
M  V30 2308 O 223.865 1.61278 1.94282 0
M  V30 2309 C 225.178 2.81314 -1.06222 0
M  V30 2310 C 226.726 2.95078 -1.04394 0
M  V30 2311 C 227.201 4.23252 -1.74991 0
M  V30 2312 N 228.692 4.3015 -1.71829 0
M  V30 2313 C 229.427 5.28127 -2.23315 0
M  V30 2314 N 228.923 6.32293 -2.83156 0
M  V30 2315 N 230.716 5.19882 -2.13726 0
M  V30 2316 H 222.867 1.3516 -1.63846 0
M  V30 2317 H 225.13 0.650174 -0.689912 0
M  V30 2318 H 224.836 2.80823 -2.11734 0
M  V30 2319 H 224.71 3.72012 -0.62344 0
M  V30 2320 H 227.097 2.951 0.0028244 0
M  V30 2321 H 227.178 2.05627 -1.52155 0
M  V30 2322 H 226.822 4.2399 -2.79633 0
M  V30 2323 H 226.752 5.11626 -1.24685 0
M  V30 2324 H 229.243 3.55499 -1.28175 0
M  V30 2325 H 229.556 7.03398 -3.20079 0
M  V30 2326 H 227.901 6.32873 -2.87223 0
M  V30 2327 H 231.092 4.37423 -1.66669 0
M  V30 2328 H 231.265 5.96077 -2.54158 0
M  V30 2329 N 224.671 0.411399 1.52136 0
M  V30 2330 C 225.919 -0.163322 2.01439 0
M  V30 2331 C 226.24 -1.45453 1.29879 0
M  V30 2332 O 225.51 -1.91225 0.4254 0
M  V30 2333 H 224.09 -0.0633447 0.744309 0
M  V30 2334 H 226.752 0.548161 1.87033 0
M  V30 2335 H 225.848 -0.357817 3.10042 0
M  V30 2336 N 226.149 -1.5696 0.141893 0
M  V30 2337 C 227.395 -1.9625 -0.511248 0
M  V30 2338 C 227.728 -1.02654 -1.64851 0
M  V30 2339 O 227.003 -0.0679676 -1.94381 0
M  V30 2340 C 227.286 -3.45285 -1.02227 0
M  V30 2341 C 227.139 -4.49658 0.113138 0
M  V30 2342 C 228.458 -3.96698 -1.90574 0
M  V30 2343 H 225.577 -0.713567 -0.184367 0
M  V30 2344 H 228.219 -1.88698 0.222087 0
M  V30 2345 H 226.369 -3.51852 -1.64719 0
M  V30 2346 H 228.041 -4.55174 0.749302 0
M  V30 2347 H 226.284 -4.26857 0.773026 0
M  V30 2348 H 226.955 -5.51258 -0.286053 0
M  V30 2349 H 229.431 -3.92578 -1.37918 0
M  V30 2350 H 228.307 -5.01453 -2.2324 0
M  V30 2351 H 228.568 -3.3875 -2.84079 0
M  V30 2352 N 227.627 0.131896 -1.57047 0
M  V30 2353 C 228.904 0.871495 -1.75112 0
M  V30 2354 C 229.284 1.9866 -0.713949 0
M  V30 2355 O 228.632 2.26965 0.264447 0
M  V30 2356 C 228.842 1.40007 -3.19686 0
M  V30 2357 C 230.19 1.85752 -3.81813 0
M  V30 2358 O 231.214 1.49715 -3.23209 0
M  V30 2359 O 230.073 2.5226 -4.84796 0
M  V30 2360 H 227.167 0.412919 -0.716538 0
M  V30 2361 H 229.713 0.116641 -1.69299 0
M  V30 2362 H 228.485 0.599404 -3.86682 0
M  V30 2363 H 228.108 2.218 -3.29986 0
M  V30 2364 N 229.106 1.52395 0.401703 0
M  V30 2365 C 230.353 1.66817 1.14796 0
M  V30 2366 C 230.681 0.401772 1.90305 0
M  V30 2367 O 229.936 -0.615487 1.85769 0
M  V30 2368 C 230.235 2.84578 2.16217 0
M  V30 2369 C 229.901 4.22513 1.5746 0
M  V30 2370 C 228.563 4.60029 1.41161 0
M  V30 2371 C 230.915 5.0844 1.14622 0
M  V30 2372 C 228.243 5.81144 0.80552 0
M  V30 2373 C 230.595 6.30167 0.55428 0
M  V30 2374 C 229.259 6.66426 0.378482 0
M  V30 2375 H 228.529 0.610428 0.420069 0
M  V30 2376 H 231.176 1.86512 0.434212 0
M  V30 2377 H 229.481 2.59248 2.93764 0
M  V30 2378 H 231.178 2.92933 2.73845 0
M  V30 2379 H 227.768 3.92953 1.71132 0
M  V30 2380 H 231.952 4.80034 1.26021 0
M  V30 2381 H 227.208 6.07855 0.657399 0
M  V30 2382 H 231.382 6.96071 0.213983 0
M  V30 2383 H 229.009 7.60143 -0.0932606 0
M  V30 2384 N 230.584 -0.659388 1.43143 0
M  V30 2385 C 231.494 -1.80167 1.50256 0
M  V30 2386 C 232.51 -1.69571 0.390106 0
M  V30 2387 O 233.686 -1.90849 0.643319 0
M  V30 2388 C 230.751 -3.16409 1.41725 0
M  V30 2389 C 229.812 -3.38848 2.63591 0
M  V30 2390 C 229.045 -4.68591 2.55458 0
M  V30 2391 O 229.268 -5.47532 1.59891 0
M  V30 2392 O 228.202 -4.92614 3.45854 0
M  V30 2393 H 232.028 -1.77121 2.46702 0
M  V30 2394 H 229.613 -0.817092 1.25076 0
M  V30 2395 H 231.495 -3.9768 1.39387 0
M  V30 2396 H 230.17 -3.20059 0.484118 0
M  V30 2397 H 229.077 -2.57366 2.71502 0
M  V30 2398 H 230.41 -3.4004 3.55856 0
M  V30 2399 N 232.062 -1.29571 -0.897171 0
M  V30 2400 C 233.31 -1.17456 -1.64464 0
M  V30 2401 C 233.631 0.273698 -1.9307 0
M  V30 2402 O 232.901 1.18684 -1.55855 0
M  V30 2403 H 231.481 -0.431706 -0.609622 0
M  V30 2404 H 234.143 -1.62531 -1.07562 0
M  V30 2405 H 233.239 -1.72648 -2.59998 0
M  V30 2406 N 233.54 1.10788 -1.12088 0
M  V30 2407 C 234.473 2.16237 -0.729168 0
M  V30 2408 C 235.451 1.60207 0.277921 0
M  V30 2409 O 236.635 1.87707 0.172737 0
M  V30 2410 C 233.762 3.38609 -0.0786848 0
M  V30 2411 C 232.808 4.13322 -1.05201 0
M  V30 2412 S 233.641 4.69371 -2.57781 0
M  V30 2413 C 234.797 5.95058 -1.94053 0
M  V30 2414 H 235.03 2.4913 -1.62239 0
M  V30 2415 H 232.563 1.22519 -0.939603 0
M  V30 2416 H 234.521 4.09473 0.290254 0
M  V30 2417 H 233.182 3.03962 0.791593 0
M  V30 2418 H 232.375 5.01051 -0.544433 0
M  V30 2419 H 231.977 3.48251 -1.36371 0
M  V30 2420 H 234.269 6.65278 -1.28107 0
M  V30 2421 H 235.212 6.50472 -2.79807 0
M  V30 2422 H 235.62 5.46918 -1.39787 0
M  V30 2423 N 235.018 0.912232 1.28515 0
M  V30 2424 C 235.965 0.397954 2.27343 0
M  V30 2425 C 236.935 -0.526766 1.57526 0
M  V30 2426 O 238.12 -0.449292 1.85435 0
M  V30 2427 C 235.26 -0.357263 3.43246 0
M  V30 2428 C 234.373 0.599788 4.27816 0
M  V30 2429 C 233.508 -0.173725 5.30916 0
M  V30 2430 C 232.547 0.777039 6.07148 0
M  V30 2431 N 231.684 0.0371398 7.0209 0
M  V30 2432 H 236.524 1.24577 2.70711 0
M  V30 2433 H 234.061 0.625612 1.33133 0
M  V30 2434 H 236.019 -0.8113 4.09236 0
M  V30 2435 H 234.649 -1.16943 3.00872 0
M  V30 2436 H 233.701 1.17235 3.61884 0
M  V30 2437 H 235.013 1.32704 4.80823 0
M  V30 2438 H 234.167 -0.688394 6.02782 0
M  V30 2439 H 232.906 -0.934041 4.78672 0
M  V30 2440 H 231.911 1.3031 5.34134 0
M  V30 2441 H 233.136 1.53689 6.61481 0
M  V30 2442 H 231.082 -0.705213 6.52198 0
M  V30 2443 H 230.999 0.704249 7.52713 0
M  V30 2444 H 232.267 -0.457383 7.78157 0
M  V30 2445 N 236.496 -1.42363 0.676048 0
M  V30 2446 C 237.459 -2.29199 0.00766941 0
M  V30 2447 C 238.459 -1.43389 -0.727745 0
M  V30 2448 O 239.649 -1.64764 -0.56556 0
M  V30 2449 C 236.781 -3.2591 -0.999785 0
M  V30 2450 H 237.974 -2.89794 0.771988 0
M  V30 2451 H 235.527 -1.50024 0.438468 0
M  V30 2452 H 236.262 -2.70256 -1.79255 0
M  V30 2453 H 236.047 -3.89202 -0.475829 0
M  V30 2454 H 237.537 -3.91028 -1.46583 0
M  V30 2455 N 237.974 -0.419461 -1.51915 0
M  V30 2456 C 239.251 0.211999 -1.94448 0
M  V30 2457 C 239.631 1.61703 -1.35703 0
M  V30 2458 O 238.979 2.22102 -0.536931 0
M  V30 2459 C 239.189 0.207872 -3.4838 0
M  V30 2460 C 240.537 0.422192 -4.22496 0
M  V30 2461 O 241.561 0.286778 -3.55044 0
M  V30 2462 O 240.42 0.690009 -5.42126 0
M  V30 2463 H 237.514 0.139586 -0.815135 0
M  V30 2464 H 240.06 -0.476151 -1.62883 0
M  V30 2465 H 238.832 -0.775102 -3.83546 0
M  V30 2466 H 238.455 0.939688 -3.86336 0
M  V30 2467 N 239.452 1.56882 -0.150215 0
M  V30 2468 C 240.382 2.19935 0.784284 0
M  V30 2469 C 241.363 1.14854 1.25469 0
M  V30 2470 O 242.548 1.43209 1.31168 0
M  V30 2471 C 239.678 2.82349 2.02229 0
M  V30 2472 C 238.632 3.93285 1.68853 0
M  V30 2473 C 237.958 4.42649 2.99944 0
M  V30 2474 C 239.258 5.13904 0.932714 0
M  V30 2475 H 240.952 2.9828 0.258781 0
M  V30 2476 H 238.498 1.43473 0.123029 0
M  V30 2477 H 240.451 3.25126 2.68088 0
M  V30 2478 H 239.175 2.0134 2.57157 0
M  V30 2479 H 237.834 3.5113 1.05371 0
M  V30 2480 H 237.482 3.58458 3.52869 0
M  V30 2481 H 237.182 5.17476 2.78374 0
M  V30 2482 H 238.706 4.88099 3.66868 0
M  V30 2483 H 240.12 5.53506 1.49345 0
M  V30 2484 H 238.517 5.94515 0.81684 0
M  V30 2485 H 239.587 4.84842 -0.0749568 0
M  V30 2486 N 240.93 -0.123565 1.57115 0
M  V30 2487 C 241.893 -1.13583 1.99076 0
M  V30 2488 C 242.893 -1.34564 0.880296 0
M  V30 2489 O 244.083 -1.31158 1.14644 0
M  V30 2490 C 241.215 -2.49128 2.32698 0
M  V30 2491 H 242.408 -0.775287 2.89706 0
M  V30 2492 H 239.961 -0.36771 1.51913 0
M  V30 2493 H 240.696 -2.90111 1.44934 0
M  V30 2494 H 240.481 -2.35255 3.13684 0
M  V30 2495 H 241.971 -3.2199 2.65918 0
M  V30 2496 N 242.408 -1.52605 -0.393616 0
M  V30 2497 C 243.371 -1.76415 -1.46323 0
M  V30 2498 C 244.371 -0.634126 -1.47768 0
M  V30 2499 O 245.561 -0.902142 -1.4902 0
M  V30 2500 C 242.693 -1.8607 -2.85641 0
M  V30 2501 H 243.886 -2.71916 -1.26498 0
M  V30 2502 H 241.439 -1.43257 -0.625073 0
M  V30 2503 H 242.174 -0.925378 -3.10817 0
M  V30 2504 H 241.959 -2.68235 -2.85993 0
M  V30 2505 H 243.449 -2.06179 -3.63153 0
M  V30 2506 N 243.887 0.651787 -1.4349 0
M  V30 2507 C 244.85 1.74647 -1.48429 0
M  V30 2508 C 245.85 1.56513 -0.368817 0
M  V30 2509 O 247.04 1.62385 -0.630623 0
M  V30 2510 C 244.172 3.13533 -1.33827 0
M  V30 2511 H 245.365 1.71649 -2.4592 0
M  V30 2512 H 242.918 0.863573 -1.30277 0
M  V30 2513 H 243.653 3.22142 -0.37349 0
M  V30 2514 H 243.438 3.28101 -2.14691 0
M  V30 2515 H 244.928 3.93356 -1.40218 0
M  V30 2516 N 245.365 1.30045 0.890287 0
M  V30 2517 C 246.312 1.15976 1.99545 0
M  V30 2518 C 247.282 0.0506202 1.66023 0
M  V30 2519 O 248.467 0.219847 1.89529 0
M  V30 2520 C 245.607 0.852054 3.34416 0
M  V30 2521 C 244.72 2.04255 3.80662 0
M  V30 2522 C 243.855 1.6734 5.04154 0
M  V30 2523 C 242.894 2.82916 5.42794 0
M  V30 2524 N 242.031 2.46333 6.57468 0
M  V30 2525 H 246.871 2.10524 2.10911 0
M  V30 2526 H 244.408 1.04749 1.03276 0
M  V30 2527 H 246.366 0.654296 4.12037 0
M  V30 2528 H 244.996 -0.0565502 3.2275 0
M  V30 2529 H 244.048 2.35172 2.98995 0
M  V30 2530 H 245.36 2.90826 4.05242 0
M  V30 2531 H 244.514 1.43908 5.89386 0
M  V30 2532 H 243.253 0.779308 4.81433 0
M  V30 2533 H 242.258 3.0702 4.56091 0
M  V30 2534 H 243.483 3.73004 5.6749 0
M  V30 2535 H 241.429 1.59423 6.36334 0
M  V30 2536 H 241.346 3.26436 6.81891 0
M  V30 2537 H 242.614 2.26244 7.45945 0
M  V30 2538 N 246.843 -1.10192 1.12674 0
M  V30 2539 C 247.79 -2.16606 0.796906 0
M  V30 2540 C 248.76 -1.64394 -0.237476 0
M  V30 2541 O 249.945 -1.90474 -0.111484 0
M  V30 2542 C 247.085 -3.44116 0.26043 0
M  V30 2543 C 246.198 -4.10268 1.35293 0
M  V30 2544 C 245.333 -5.25507 0.775621 0
M  V30 2545 C 244.372 -5.83567 1.84706 0
M  V30 2546 N 243.509 -6.90179 1.28829 0
M  V30 2547 H 248.349 -2.44163 1.70846 0
M  V30 2548 H 245.886 -1.19846 0.85295 0
M  V30 2549 H 247.844 -4.17143 -0.0686814 0
M  V30 2550 H 246.474 -3.16901 -0.614274 0
M  V30 2551 H 245.526 -3.35184 1.79877 0
M  V30 2552 H 246.838 -4.4946 2.16303 0
M  V30 2553 H 245.992 -6.05398 0.397327 0
M  V30 2554 H 244.731 -4.87656 -0.0656581 0
M  V30 2555 H 243.736 -5.02344 2.23452 0
M  V30 2556 H 244.961 -6.23482 2.69161 0
M  V30 2557 H 242.907 -6.54322 0.468881 0
M  V30 2558 H 242.824 -7.28097 2.03497 0
M  V30 2559 H 244.092 -7.73844 0.937311 0
M  V30 2560 N 248.321 -0.919034 -1.28029 0
M  V30 2561 C 249.569 -0.553838 -1.94363 0
M  V30 2562 C 249.89 0.906357 -1.72656 0
M  V30 2563 O 249.16 1.64143 -1.0693 0
M  V30 2564 H 247.74 -0.201834 -0.719216 0
M  V30 2565 H 250.402 -1.16954 -1.55909 0
M  V30 2566 H 249.498 -0.752758 -3.02886 0
M  V30 2567 N 249.799 1.42003 -0.683588 0
M  V30 2568 C 251.076 1.95112 -0.138075 0
M  V30 2569 C 251.456 1.62359 1.34918 0
M  V30 2570 O 250.804 0.924311 2.08971 0
M  V30 2571 C 251.014 3.46505 -0.416581 0
M  V30 2572 C 252.362 4.23254 -0.337834 0
M  V30 2573 O 253.386 3.54468 -0.35082 0
M  V30 2574 O 252.245 5.45743 -0.287596 0
M  V30 2575 H 249.339 0.826961 -0.00797996 0
M  V30 2576 H 251.885 1.51784 -0.758924 0
M  V30 2577 H 250.657 3.63582 -1.4465 0
M  V30 2578 H 250.28 3.969 0.235839 0
M  V30 2579 N 251.277 0.427512 1.51691 0
M  V30 2580 C 252.21 -0.433876 2.24037 0
M  V30 2581 C 253.188 -1.03287 1.25581 0
M  V30 2582 O 254.372 -1.07722 1.54688 0
M  V30 2583 C 251.499 -1.60385 2.98319 0
M  V30 2584 C 250.545 -1.12648 4.11355 0
M  V30 2585 S 251.378 -0.076543 5.35445 0
M  V30 2586 C 252.534 -1.25141 6.13262 0
M  V30 2587 H 252.767 0.180367 2.96752 0
M  V30 2588 H 250.3 0.211946 1.52938 0
M  V30 2589 H 252.258 -2.27462 3.41718 0
M  V30 2590 H 250.919 -2.18948 2.25213 0
M  V30 2591 H 250.112 -2.0011 4.62571 0
M  V30 2592 H 249.714 -0.534088 3.70167 0
M  V30 2593 H 252.006 -2.17162 6.41753 0
M  V30 2594 H 252.949 -0.779411 7.03797 0
M  V30 2595 H 253.357 -1.48553 5.44603 0
M  V30 2596 N 252.755 -1.56801 0.158532 0
M  V30 2597 C 254.001 -1.96781 -0.490405 0
M  V30 2598 C 254.334 -1.04397 -1.63753 0
M  V30 2599 O 253.609 -0.0885805 -1.94298 0
M  V30 2600 C 253.892 -3.4635 -0.985594 0
M  V30 2601 C 253.745 -4.49512 0.160824 0
M  V30 2602 C 255.064 -3.98697 -1.86355 0
M  V30 2603 H 252.183 -0.715482 -0.176788 0
M  V30 2604 H 254.825 -1.88451 0.242088 0
M  V30 2605 H 252.975 -3.53579 -1.60978 0
M  V30 2606 H 254.647 -4.54353 0.797537 0
M  V30 2607 H 252.89 -4.26013 0.818256 0
M  V30 2608 H 253.561 -5.51531 -0.227569 0
M  V30 2609 H 256.037 -3.94019 -1.33746 0
M  V30 2610 H 254.913 -5.03792 -2.17909 0
M  V30 2611 H 255.174 -3.41744 -2.8047 0
M  V30 2612 N 254.233 0.115231 -1.57178 0
M  V30 2613 C 255.163 1.1423 -2.03651 0
M  V30 2614 C 256.144 1.42967 -0.921655 0
M  V30 2615 O 257.329 1.53343 -1.19162 0
M  V30 2616 C 254.459 2.4675 -2.44401 0
M  V30 2617 C 253.413 2.32467 -3.59365 0
M  V30 2618 C 252.739 3.69984 -3.86026 0
M  V30 2619 C 254.039 1.78203 -4.90959 0
M  V30 2620 H 255.733 0.755749 -2.89705 0
M  V30 2621 H 253.279 0.362093 -1.39373 0
M  V30 2622 H 255.232 3.18854 -2.75517 0
M  V30 2623 H 253.956 2.87302 -1.55322 0
M  V30 2624 H 252.615 1.62811 -3.28463 0
M  V30 2625 H 252.263 4.08028 -2.94147 0
M  V30 2626 H 251.963 3.61279 -4.63412 0
M  V30 2627 H 253.487 4.43587 -4.19599 0
M  V30 2628 H 254.901 2.40128 -5.20587 0
M  V30 2629 H 253.298 1.8031 -5.72371 0
M  V30 2630 H 254.368 0.739876 -4.79222 0
M  V30 2631 N 255.711 1.52812 0.385517 0
M  V30 2632 C 256.641 1.80808 1.47752 0
M  V30 2633 C 257.622 0.660318 1.5676 0
M  V30 2634 O 258.807 0.908246 1.71652 0
M  V30 2635 C 255.937 1.98008 2.85324 0
M  V30 2636 C 254.891 3.13709 2.91154 0
M  V30 2637 C 254.217 3.16169 4.31209 0
M  V30 2638 C 255.517 4.52709 2.60483 0
M  V30 2639 H 257.211 2.72253 1.24573 0
M  V30 2640 H 254.757 1.31003 0.597839 0
M  V30 2641 H 256.71 2.16176 3.61726 0
M  V30 2642 H 255.434 1.03255 3.09848 0
M  V30 2643 H 254.093 2.95329 2.17201 0
M  V30 2644 H 253.741 2.19092 4.52778 0
M  V30 2645 H 253.441 3.93894 4.36029 0
M  V30 2646 H 254.965 3.36496 5.09512 0
M  V30 2647 H 256.379 4.71173 3.26602 0
M  V30 2648 H 254.776 5.32528 2.76648 0
M  V30 2649 H 255.846 4.59186 1.55809 0
M  V30 2650 N 257.189 -0.644168 1.43834 0
M  V30 2651 C 258.139 -1.7501 1.46135 0
M  V30 2652 C 259.123 -1.57507 0.328685 0
M  V30 2653 O 260.315 -1.67465 0.5731 0
M  V30 2654 C 257.444 -3.13641 1.39585 0
M  V30 2655 C 256.53 -3.3666 2.57916 0
M  V30 2656 N 256.921 -3.30107 3.83227 0
M  V30 2657 C 255.219 -3.67411 2.52834 0
M  V30 2658 C 255.92 -3.53456 4.61999 0
M  V30 2659 N 254.896 -3.75705 3.9287 0
M  V30 2660 H 258.698 -1.68382 2.40883 0
M  V30 2661 H 256.212 -0.846169 1.38614 0
M  V30 2662 H 258.209 -3.92933 1.39317 0
M  V30 2663 H 256.869 -3.21444 0.45865 0
M  V30 2664 H 257.88 -3.09316 4.15384 0
M  V30 2665 H 254.557 -3.82275 1.67845 0
M  V30 2666 H 255.947 -3.54093 5.71024 0
M  V30 2667 N 258.668 -1.30515 -0.883378 0
M  V30 2668 C 259.916 -1.19194 -1.63209 0
M  V30 2669 C 260.237 0.253205 -1.93349 0
M  V30 2670 O 259.507 1.17025 -1.57105 0
M  V30 2671 H 258.087 -0.438148 -0.605009 0
M  V30 2672 H 260.749 -1.63663 -1.05832 0
M  V30 2673 H 259.845 -1.75396 -2.58153 0
M  V30 2674 N 260.146 1.09593 -1.13257 0
M  V30 2675 C 261.386 1.83349 -0.903472 0
M  V30 2676 C 261.75 1.83641 0.560351 0
M  V30 2677 O 262.951 2.53037 0.906947 0
M  V30 2678 C 261.222 3.25629 -1.47311 0
M  V30 2679 S 262.781 4.16408 -1.38382 0
M  V30 2680 H 259.599 0.632014 -0.325699 0
M  V30 2681 H 262.201 1.31817 -1.44376 0
M  V30 2682 H 260.905 3.22991 -2.53189 0
M  V30 2683 H 260.436 3.82233 -0.930689 0
M  V30 2684 H 262.451 4.94884 -0.361113 0
M  V30 2685 N 261.624 0.925811 1.2754 0
M  V30 2686 C 262.864 0.572521 1.96218 0
M  V30 2687 C 263.228 -0.869719 1.71172 0
M  V30 2688 O 264.429 -1.33119 2.33523 0
M  V30 2689 C 262.7 0.887325 3.4621 0
M  V30 2690 S 264.259 0.642266 4.34074 0
M  V30 2691 H 261.077 0.211403 0.678845 0
M  V30 2692 H 263.679 1.19384 1.54815 0
M  V30 2693 H 262.383 1.93469 3.61936 0
M  V30 2694 H 261.914 0.255123 3.92572 0
M  V30 2695 H 263.929 -0.500822 4.93666 0
M  V30 2696 N 263.102 -1.41638 0.69111 0
M  V30 2697 C 264.052 -2.28 -0.000107832 0
M  V30 2698 C 265.036 -1.41964 -0.757304 0
M  V30 2699 O 266.228 -1.65274 -0.633532 0
M  V30 2700 C 263.357 -3.30209 -0.938983 0
M  V30 2701 C 262.443 -4.23725 -0.17827 0
M  V30 2702 N 262.834 -4.99017 0.825563 0
M  V30 2703 C 261.132 -4.44071 -0.414392 0
M  V30 2704 C 261.833 -5.67431 1.28052 0
M  V30 2705 N 260.809 -5.40197 0.607304 0
M  V30 2706 H 264.611 -2.83644 0.769617 0
M  V30 2707 H 262.125 -1.53797 0.521562 0
M  V30 2708 H 264.122 -3.90898 -1.44929 0
M  V30 2709 H 262.782 -2.76126 -1.70836 0
M  V30 2710 H 263.793 -5.03671 1.20566 0
M  V30 2711 H 260.47 -4.01004 -1.162 0
M  V30 2712 H 261.86 -6.37801 2.11327 0
M  V30 2713 N 264.58 -0.43555 -1.51462 0
M  V30 2714 C 265.528 0.391205 -2.29287 0
M  V30 2715 C 266.522 1.02247 -1.35062 0
M  V30 2716 O 267.728 0.957646 -1.52411 0
M  V30 2717 H 264.103 0.144968 -0.737895 0
M  V30 2718 H 266.074 -0.286051 -2.97026 0
M  V30 2719 C 264.823 1.48096 -3.14583 0
M  V30 2720 H 264.146 1.00457 -3.86973 0
M  V30 2721 H 265.586 2.03273 -3.72097 0
M  V30 2722 C 264.045 2.46321 -2.29843 0
M  V30 2723 O 264.575 3.50815 -1.95682 0
M  V30 2724 N 262.781 2.17166 -1.931 0
M  V30 2725 H 262.328 1.32218 -2.21079 0
M  V30 2726 H 262.286 2.83127 -1.36698 0
M  V30 2727 N 266.058 1.56714 -0.166846 0
M  V30 2728 C 267.469 1.83378 0.350646 0
M  V30 2729 C 267.82 1.08646 1.63372 0
M  V30 2730 O 266.945 0.338058 2.13743 0
M  V30 2731 C 267.54 3.32643 0.642963 0
M  V30 2732 C 266.099 3.59818 1.10491 0
M  V30 2733 C 265.246 2.76954 0.138411 0
M  V30 2734 H 268.197 1.53803 -0.391193 0
M  V30 2735 H 268.218 3.49878 1.49551 0
M  V30 2736 H 267.73 3.87007 -0.291055 0
M  V30 2737 H 265.831 3.1086 2.05418 0
M  V30 2738 H 265.944 4.68178 1.01716 0
M  V30 2739 H 264.308 2.4666 0.634911 0
M  V30 2740 H 265.091 3.34097 -0.789549 0
M  V30 2741 N 267.536 -0.106894 1.57237 0
M  V30 2742 C 268.764 -0.826389 1.8968 0
M  V30 2743 C 269.179 -1.72856 0.759353 0
M  V30 2744 O 268.536 -1.80503 -0.269263 0
M  V30 2745 C 268.587 -1.64967 3.21665 0
M  V30 2746 O 268.308 -0.783804 4.31031 0
M  V30 2747 C 269.809 -2.47326 3.67892 0
M  V30 2748 H 267.029 -0.236927 0.627779 0
M  V30 2749 H 269.573 -0.0876593 2.04312 0
M  V30 2750 H 267.728 -2.34103 3.08666 0
M  V30 2751 H 268.142 -1.35284 5.06753 0
M  V30 2752 H 269.616 -3.00604 4.6297 0
M  V30 2753 H 270.093 -3.25247 2.95146 0
M  V30 2754 H 270.699 -1.83411 3.83719 0
M  V30 2755 N 269.014 -1.53014 -0.377408 0
M  V30 2756 C 270.262 -1.6829 -1.11906 0
M  V30 2757 C 270.583 -0.431206 -1.90173 0
M  V30 2758 O 269.853 0.554595 -1.87886 0
M  V30 2759 H 268.433 -0.620371 -0.416112 0
M  V30 2760 H 271.095 -1.90167 -0.426893 0
M  V30 2761 H 270.191 -2.53862 -1.8155 0
M  V30 2762 N 270.492 0.636531 -1.44174 0
M  V30 2763 C 271.455 1.73063 -1.50273 0
M  V30 2764 C 272.455 1.56113 -0.385397 0
M  V30 2765 O 273.645 1.61707 -0.64781 0
M  V30 2766 C 270.777 3.12096 -1.37145 0
M  V30 2767 H 271.97 1.69031 -2.47727 0
M  V30 2768 H 269.523 0.849706 -1.31186 0
M  V30 2769 H 270.258 3.21728 -0.407636 0
M  V30 2770 H 270.043 3.25805 -2.18159 0
M  V30 2771 H 271.533 3.91846 -1.44382 0
M  V30 2772 N 271.97 1.30982 0.876444 0
M  V30 2773 C 272.918 1.18006 2.00443 0
M  V30 2774 C 273.912 0.0898871 1.69161 0
M  V30 2775 O 275.118 0.251333 1.78237 0
M  V30 2776 H 271.493 0.365196 0.65737 0
M  V30 2777 H 273.464 2.13453 2.0852 0
M  V30 2778 C 272.213 0.897521 3.35916 0
M  V30 2779 H 271.536 1.7285 3.60504 0
M  V30 2780 H 272.976 0.846874 4.15456 0
M  V30 2781 C 271.435 -0.399674 3.34521 0
M  V30 2782 O 271.965 -1.41852 3.7582 0
M  V30 2783 N 270.171 -0.413893 2.87637 0
M  V30 2784 H 269.718 0.41571 2.54224 0
M  V30 2785 H 269.676 -1.28175 2.87086 0
M  V30 2786 N 273.449 -1.08991 1.13837 0
M  V30 2787 C 274.379 -2.17771 0.842507 0
M  V30 2788 C 275.36 -1.6892 -0.20001 0
M  V30 2789 O 276.545 -1.94113 -0.0579731 0
M  V30 2790 C 273.675 -3.4589 0.312644 0
M  V30 2791 C 272.629 -4.08099 1.28992 0
M  V30 2792 C 271.955 -5.31098 0.619623 0
M  V30 2793 C 273.255 -4.50077 2.65005 0
M  V30 2794 H 274.949 -2.42777 1.75213 0
M  V30 2795 H 272.495 -1.16682 0.843875 0
M  V30 2796 H 274.448 -4.21297 0.0933043 0
M  V30 2797 H 273.172 -3.20419 -0.632382 0
M  V30 2798 H 271.831 -3.34717 1.49533 0
M  V30 2799 H 271.479 -5.0191 -0.33102 0
M  V30 2800 H 271.179 -5.73674 1.27167 0
M  V30 2801 H 272.703 -6.09224 0.409669 0
M  V30 2802 H 274.117 -5.16688 2.48407 0
M  V30 2803 H 272.514 -5.03553 3.26427 0
M  V30 2804 H 273.584 -3.62257 3.22332 0
M  V30 2805 N 274.927 -0.932562 -1.27047 0
M  V30 2806 C 276.155 -0.592031 -1.98249 0
M  V30 2807 C 276.57 0.831062 -1.69525 0
M  V30 2808 O 275.927 1.55299 -0.958561 0
M  V30 2809 C 275.978 -0.814279 -3.5221 0
M  V30 2810 O 275.699 -2.18139 -3.7993 0
M  V30 2811 C 277.2 -0.483121 -4.4066 0
M  V30 2812 H 274.42 -0.223896 -0.632544 0
M  V30 2813 H 276.964 -1.25091 -1.61779 0
M  V30 2814 H 275.119 -0.20213 -3.86872 0
M  V30 2815 H 275.533 -2.235 -4.74498 0
M  V30 2816 H 277.007 -0.689298 -5.47679 0
M  V30 2817 H 277.484 0.581546 -4.35333 0
M  V30 2818 H 278.09 -1.07362 -4.11526 0
M  V30 2819 N 276.405 1.4127 -0.698611 0
M  V30 2820 C 277.335 2.33447 -0.049629 0
M  V30 2821 C 278.316 1.51982 0.763898 0
M  V30 2822 O 279.501 1.80509 0.716257 0
M  V30 2823 C 276.631 3.35828 0.885267 0
M  V30 2824 C 275.585 4.27627 0.178613 0
M  V30 2825 C 274.911 5.20406 1.22807 0
M  V30 2826 C 276.211 5.13459 -0.956933 0
M  V30 2827 H 277.905 2.87966 -0.81951 0
M  V30 2828 H 275.451 1.38461 -0.395538 0
M  V30 2829 H 277.404 3.9924 1.34854 0
M  V30 2830 H 276.128 2.79666 1.68685 0
M  V30 2831 H 274.787 3.65643 -0.26466 0
M  V30 2832 H 274.435 4.60558 2.02226 0
M  V30 2833 H 274.135 5.82661 0.760239 0
M  V30 2834 H 275.659 5.86695 1.69179 0
M  V30 2835 H 277.073 5.70421 -0.573805 0
M  V30 2836 H 275.47 5.8467 -1.35205 0
M  V30 2837 H 276.54 4.50443 -1.79524 0
M  V30 2838 N 277.883 0.443576 1.51229 0
M  V30 2839 C 279.16 -0.181038 1.9476 0
M  V30 2840 C 279.54 -1.59523 1.38259 0
M  V30 2841 O 278.888 -2.2122 0.572198 0
M  V30 2842 C 279.098 -0.152422 3.48667 0
M  V30 2843 C 280.446 -0.354923 4.23114 0
M  V30 2844 O 281.47 -0.230257 3.55455 0
M  V30 2845 O 280.329 -0.603674 5.43156 0
M  V30 2846 H 277.423 -0.1266 0.817252 0
M  V30 2847 H 279.969 0.502004 1.62105 0
M  V30 2848 H 278.741 0.836022 3.82265 0
M  V30 2849 H 278.364 -0.878107 3.87782 0
M  V30 2850 N 279.361 -1.56624 0.175154 0
M  V30 2851 C 280.293 -2.15333 -0.785128 0
M  V30 2852 C 281.306 -1.1099 -1.19101 0
M  V30 2853 O 282.495 -1.38162 -1.13019 0
M  V30 2854 C 279.595 -2.68427 -2.06882 0
M  V30 2855 C 278.768 -3.97466 -1.8259 0
M  V30 2856 C 277.827 -4.35585 -2.95215 0
M  V30 2857 O 276.853 -5.03389 -2.65684 0
M  V30 2858 N 278.055 -3.97457 -4.23094 0
M  V30 2859 H 280.82 -2.98359 -0.283187 0
M  V30 2860 H 278.381 -1.61898 -0.00749817 0
M  V30 2861 H 280.373 -2.90924 -2.81328 0
M  V30 2862 H 278.943 -1.89968 -2.48256 0
M  V30 2863 H 278.163 -3.83307 -0.920287 0
M  V30 2864 H 279.451 -4.81736 -1.63733 0
M  V30 2865 H 278.849 -3.42878 -4.49945 0
M  V30 2866 H 277.406 -4.24947 -4.9423 0
M  V30 2867 N 280.839 0.0985539 -1.57292 0
M  V30 2868 C 282.085 0.798769 -1.87059 0
M  V30 2869 C 282.44 1.76514 -0.76555 0
M  V30 2870 O 281.733 1.90181 0.232752 0
M  V30 2871 C 281.927 1.56927 -3.21105 0
M  V30 2872 C 281.756 0.679026 -4.44544 0
M  V30 2873 C 280.526 0.326071 -5.04247 0
M  V30 2874 C 282.724 -0.0124715 -5.14298 0
M  V30 2875 N 280.706 -0.572702 -6.11223 0
M  V30 2876 C 282.077 -0.769446 -6.15207 0
M  V30 2877 C 284.132 -0.0867545 -4.97824 0
M  V30 2878 C 282.835 -1.59376 -7.01421 0
M  V30 2879 C 284.861 -0.897955 -5.84543 0
M  V30 2880 C 284.223 -1.64306 -6.84969 0
M  V30 2881 H 280.322 0.268568 -0.734435 0
M  V30 2882 H 282.906 0.0614664 -1.94603 0
M  V30 2883 H 281.077 2.27748 -3.1462 0
M  V30 2884 H 282.809 2.21641 -3.38611 0
M  V30 2885 H 279.564 0.67295 -4.68795 0
M  V30 2886 H 279.988 -1.01454 -6.69355 0
M  V30 2887 H 284.63 0.474963 -4.20124 0
M  V30 2888 H 282.348 -2.16655 -7.78515 0
M  V30 2889 H 285.934 -0.958059 -5.73858 0
M  V30 2890 H 284.814 -2.26065 -7.50909 0
M  V30 2891 N 282.317 1.53212 0.369288 0
M  V30 2892 C 283.28 1.7872 1.43498 0
M  V30 2893 C 284.28 0.657554 1.46741 0
M  V30 2894 O 285.47 0.925736 1.47566 0
M  V30 2895 C 282.602 1.90591 2.82645 0
M  V30 2896 H 283.795 2.73894 1.22156 0
M  V30 2897 H 281.348 1.44233 0.602203 0
M  V30 2898 H 282.083 0.974709 3.09306 0
M  V30 2899 H 281.868 2.72751 2.8169 0
M  V30 2900 H 283.358 2.11931 3.59826 0
M  V30 2901 N 283.795 -0.628877 1.44509 0
M  V30 2902 C 284.705 -1.7694 1.54044 0
M  V30 2903 C 285.721 -1.68705 0.425987 0
M  V30 2904 O 286.897 -1.89442 0.683656 0
M  V30 2905 C 283.962 -3.13332 1.48405 0
M  V30 2906 C 283.023 -3.33181 2.70719 0
M  V30 2907 C 282.256 -4.63067 2.6534 0
M  V30 2908 O 282.479 -5.44017 1.71469 0
M  V30 2909 O 281.413 -4.85167 3.56226 0
M  V30 2910 H 285.239 -1.71848 2.50403 0
M  V30 2911 H 282.824 -0.790378 1.26781 0
M  V30 2912 H 284.706 -3.94634 1.47791 0
M  V30 2913 H 283.381 -3.1896 0.551898 0
M  V30 2914 H 282.288 -2.51549 2.769 0
M  V30 2915 H 283.621 -3.32416 3.62988 0
M  V30 2916 N 285.273 -1.31445 -0.869486 0
M  V30 2917 C 286.522 -1.20517 -1.61736 0
M  V30 2918 C 286.835 0.235341 -1.94179 0
M  V30 2919 O 288.041 0.466312 -2.67465 0
M  V30 2920 C 286.497 -2.10982 -2.91573 0
M  V30 2921 C 286.105 -3.60032 -2.66611 0
M  V30 2922 C 287.849 -2.08856 -3.69567 0
M  V30 2923 C 285.756 -4.42503 -3.92358 0
M  V30 2924 H 284.686 -0.447493 -0.606849 0
M  V30 2925 H 287.337 -1.56303 -0.96133 0
M  V30 2926 H 285.719 -1.68095 -3.58553 0
M  V30 2927 H 286.893 -4.11167 -2.08035 0
M  V30 2928 H 285.208 -3.64139 -2.0197 0
M  V30 2929 H 287.805 -2.67716 -4.62852 0
M  V30 2930 H 288.148 -1.07582 -4.02159 0
M  V30 2931 H 288.681 -2.49945 -3.09471 0
M  V30 2932 H 285.42 -5.44533 -3.64916 0
M  V30 2933 H 284.94 -3.96125 -4.50383 0
M  V30 2934 H 286.619 -4.54741 -4.60238 0
M  V30 2935 N 286.751 1.08385 -1.14413 0
M  V30 2936 C 287.714 2.13486 -0.834048 0
M  V30 2937 C 288.714 1.59988 0.161418 0
M  V30 2938 O 289.904 1.74071 -0.0669575 0
M  V30 2939 C 287.036 3.4003 -0.243354 0
M  V30 2940 H 288.229 2.42425 -1.7655 0
M  V30 2941 H 285.782 1.24101 -0.950189 0
M  V30 2942 H 286.517 3.16726 0.696807 0
M  V30 2943 H 286.302 3.80157 -0.960367 0
M  V30 2944 H 287.792 4.17577 -0.0436242 0
M  V30 2945 N 288.23 0.939286 1.26551 0
M  V30 2946 C 289.455 0.602008 1.98471 0
M  V30 2947 C 289.88 -0.815624 1.69497 0
M  V30 2948 O 289.238 -1.54912 0.941905 0
M  V30 2949 C 289.286 0.848407 3.50477 0
M  V30 2950 O 288.39 -0.0804009 4.12322 0
M  V30 2951 H 287.731 0.23049 0.622712 0
M  V30 2952 H 290.261 1.2617 1.61066 0
M  V30 2953 H 290.271 0.768553 4.00696 0
M  V30 2954 H 288.946 1.88171 3.70897 0
M  V30 2955 H 287.523 0.0503508 3.72866 0
M  V30 2956 N 289.708 -1.40897 0.706093 0
M  V30 2957 C 290.957 -2.00284 0.238574 0
M  V30 2958 C 291.27 -1.56604 -1.17194 0
M  V30 2959 O 292.476 -2.08624 -1.73748 0
M  V30 2960 C 290.932 -3.57934 0.375623 0
M  V30 2961 C 290.54 -4.10591 1.79217 0
M  V30 2962 C 292.284 -4.24488 -0.0315857 0
M  V30 2963 C 290.191 -5.60712 1.88032 0
M  V30 2964 H 289.121 -0.749144 0.0854398 0
M  V30 2965 H 291.772 -1.61251 0.875813 0
M  V30 2966 H 290.154 -3.94622 -0.330042 0
M  V30 2967 H 291.328 -3.85301 2.52745 0
M  V30 2968 H 289.643 -3.56601 2.15 0
M  V30 2969 H 292.24 -5.34698 0.0136842 0
M  V30 2970 H 292.583 -4.02261 -1.072 0
M  V30 2971 H 293.116 -3.92873 0.624181 0
M  V30 2972 H 289.855 -5.87781 2.90161 0
M  V30 2973 H 289.375 -5.87896 1.18903 0
M  V30 2974 H 291.054 -6.25658 1.64805 0
M  V30 2975 N 291.186 -0.45159 -1.50991 0
M  V30 2976 C 292.116 0.342898 -2.30969 0
M  V30 2977 C 293.097 1.00815 -1.37005 0
M  V30 2978 O 294.282 1.00907 -1.65926 0
M  V30 2979 C 291.412 1.43637 -3.16205 0
M  V30 2980 C 290.366 0.893818 -4.18563 0
M  V30 2981 C 289.692 2.08411 -4.92411 0
M  V30 2982 C 290.992 -0.0815568 -5.22236 0
M  V30 2983 H 292.686 -0.324556 -2.97636 0
M  V30 2984 H 290.232 -0.157531 -1.43136 0
M  V30 2985 H 292.185 1.9995 -3.70942 0
M  V30 2986 H 290.909 2.13232 -2.47386 0
M  V30 2987 H 289.568 0.352798 -3.64898 0
M  V30 2988 H 289.216 2.76658 -4.20082 0
M  V30 2989 H 288.916 1.72741 -5.61636 0
M  V30 2990 H 290.44 2.65251 -5.49976 0
M  V30 2991 H 291.854 0.391742 -5.7196 0
M  V30 2992 H 290.251 -0.351551 -5.99069 0
M  V30 2993 H 291.321 -1.01374 -4.74185 0
M  V30 2994 N 292.664 1.56529 -0.183458 0
M  V30 2995 C 293.574 2.22144 0.754272 0
M  V30 2996 C 294.59 1.21684 1.24374 0
M  V30 2997 O 295.766 1.54385 1.29333 0
M  V30 2998 C 292.831 2.85884 1.96141 0
M  V30 2999 C 291.892 4.01579 1.51765 0
M  V30 3000 C 291.125 4.6227 2.66725 0
M  V30 3001 O 291.348 4.21865 3.83909 0
M  V30 3002 O 290.282 5.51936 2.40104 0
M  V30 3003 H 294.108 3.02861 0.225527 0
M  V30 3004 H 291.693 1.49331 0.0453032 0
M  V30 3005 H 293.575 3.26253 2.66715 0
M  V30 3006 H 292.25 2.08154 2.47899 0
M  V30 3007 H 291.157 3.65856 0.781049 0
M  V30 3008 H 292.49 4.80938 1.04686 0
M  V30 3009 N 294.142 -0.090211 1.57342 0
M  V30 3010 C 295.089 -1.10909 2.02405 0
M  V30 3011 C 296.059 -1.39523 0.901252 0
M  V30 3012 O 297.244 -1.50903 1.1676 0
M  V30 3013 C 294.384 -2.42277 2.45755 0
M  V30 3014 C 293.497 -2.20352 3.71576 0
M  V30 3015 C 292.632 -3.45154 4.03785 0
M  V30 3016 C 291.671 -3.18512 5.22701 0
M  V30 3017 N 290.808 -4.35593 5.50639 0
M  V30 3018 H 295.648 -0.71782 2.89225 0
M  V30 3019 H 293.185 -0.342901 1.43048 0
M  V30 3020 H 295.143 -3.18951 2.68935 0
M  V30 3021 H 293.773 -2.79242 1.61938 0
M  V30 3022 H 292.825 -1.34458 3.55844 0
M  V30 3023 H 294.137 -1.96661 4.58395 0
M  V30 3024 H 293.291 -4.30233 4.27767 0
M  V30 3025 H 292.03 -3.71904 3.15498 0
M  V30 3026 H 291.035 -2.31827 4.98534 0
M  V30 3027 H 292.26 -2.93103 6.12591 0
M  V30 3028 H 290.206 -4.6241 4.6531 0
M  V30 3029 H 290.123 -4.1511 6.31838 0
M  V30 3030 H 291.391 -5.21723 5.7916 0
M  V30 3031 N 295.62 -1.53406 -0.361157 0
M  V30 3032 C 296.848 -1.73717 -1.12383 0
M  V30 3033 C 297.263 -0.468161 -1.82904 0
M  V30 3034 O 296.62 0.559198 -1.73722 0
M  V30 3035 C 296.671 -2.90558 -2.15078 0
M  V30 3036 O 296.392 -4.12549 -1.47428 0
M  V30 3037 C 297.893 -3.22777 -3.03858 0
M  V30 3038 H 295.113 -0.580896 -0.335858 0
M  V30 3039 H 297.657 -2.00167 -0.418728 0
M  V30 3040 H 295.812 -2.66489 -2.8118 0
M  V30 3041 H 296.226 -4.78009 -2.15887 0
M  V30 3042 H 297.7 -4.07927 -3.71887 0
M  V30 3043 H 298.177 -2.38329 -3.68912 0
M  V30 3044 H 298.783 -3.48787 -2.43367 0
M  V30 3045 N 297.098 0.621204 -1.44841 0
M  V30 3046 C 298.346 1.37783 -1.47852 0
M  V30 3047 C 298.667 1.94653 -0.116224 0
M  V30 3048 O 297.937 1.76367 0.852737 0
M  V30 3049 H 296.517 0.511453 -0.544449 0
M  V30 3050 H 299.179 0.730446 -1.80694 0
M  V30 3051 H 298.275 2.20414 -2.20961 0
M  V30 3052 N 298.576 1.31904 0.862503 0
M  V30 3053 C 299.539 1.20131 1.95195 0
M  V30 3054 C 300.539 0.126409 1.60302 0
M  V30 3055 O 301.729 0.376234 1.70089 0
M  V30 3056 C 298.861 0.845691 3.30244 0
M  V30 3057 H 300.054 2.16943 2.07064 0
M  V30 3058 H 297.607 1.15622 1.05172 0
M  V30 3059 H 298.342 -0.120957 3.24074 0
M  V30 3060 H 298.127 1.62276 3.56944 0
M  V30 3061 H 299.617 0.787418 4.10109 0
M  V30 3062 N 300.054 -1.07777 1.14986 0
M  V30 3063 C 300.984 -2.16865 0.865557 0
M  V30 3064 C 301.965 -1.69123 -0.182083 0
M  V30 3065 O 303.15 -1.94164 -0.0373815 0
M  V30 3066 C 300.28 -3.45539 0.349313 0
M  V30 3067 C 299.234 -4.06708 1.33313 0
M  V30 3068 C 298.56 -5.30411 0.675918 0
M  V30 3069 C 299.86 -4.47241 2.69764 0
M  V30 3070 H 301.554 -2.40905 1.77778 0
M  V30 3071 H 299.1 -1.15781 0.856203 0
M  V30 3072 H 301.053 -4.21174 0.137983 0
M  V30 3073 H 299.777 -3.21072 -0.598362 0
M  V30 3074 H 298.436 -3.33112 1.53075 0
M  V30 3075 H 298.084 -5.02232 -0.277767 0
M  V30 3076 H 297.784 -5.72293 1.33244 0
M  V30 3077 H 299.308 -6.08755 0.474262 0
M  V30 3078 H 300.722 -5.14025 2.53873 0
M  V30 3079 H 299.119 -5.00062 3.3175 0
M  V30 3080 H 300.189 -3.58818 3.26156 0
M  V30 3081 N 301.532 -0.945985 -1.26051 0
M  V30 3082 C 302.943 -0.638096 -1.75457 0
M  V30 3083 C 303.294 0.846672 -1.76991 0
M  V30 3084 O 302.419 1.66262 -1.38513 0
M  V30 3085 C 303.014 -1.15157 -3.18629 0
M  V30 3086 C 301.573 -0.894004 -3.65629 0
M  V30 3087 C 300.72 -1.29967 -2.44957 0
M  V30 3088 H 303.671 -1.12376 -1.1206 0
M  V30 3089 H 303.692 -0.507615 -3.77099 0
M  V30 3090 H 303.204 -2.23222 -3.1748 0
M  V30 3091 H 301.305 0.172057 -3.72203 0
M  V30 3092 H 301.418 -1.52439 -4.54202 0
M  V30 3093 H 299.782 -0.718078 -2.44368 0
M  V30 3094 H 300.565 -2.38935 -2.46505 0
M  V30 3095 N 303.011 1.40521 -0.713556 0
M  V30 3096 C 303.941 2.33381 -0.0743864 0
M  V30 3097 C 304.922 1.52784 0.747735 0
M  V30 3098 O 306.107 1.81258 0.697071 0
M  V30 3099 C 303.237 3.36748 0.849598 0
M  V30 3100 C 302.191 4.27793 0.133247 0
M  V30 3101 C 301.517 5.21679 1.17281 0
M  V30 3102 C 302.817 5.12415 -1.01134 0
M  V30 3103 H 304.511 2.87081 -0.850007 0
M  V30 3104 H 302.057 1.38034 -0.410201 0
M  V30 3105 H 304.01 4.00648 1.30612 0
M  V30 3106 H 302.734 2.81439 1.65709 0
M  V30 3107 H 301.393 3.65342 -0.303426 0
M  V30 3108 H 301.041 4.62677 1.9733 0
M  V30 3109 H 300.741 5.83435 0.698397 0
M  V30 3110 H 302.265 5.88456 1.62947 0
M  V30 3111 H 303.679 5.69781 -0.634274 0
M  V30 3112 H 302.076 5.83203 -1.41399 0
M  V30 3113 H 303.146 4.48514 -1.84292 0
M  V30 3114 N 304.489 0.459591 1.5075 0
M  V30 3115 C 305.738 -0.100971 2.01447 0
M  V30 3116 C 306.051 -1.41816 1.34713 0
M  V30 3117 O 307.257 -2.06299 1.76502 0
M  V30 3118 C 305.713 -0.23047 3.59161 0
M  V30 3119 C 305.321 1.0776 4.34847 0
M  V30 3120 C 307.065 -0.743608 4.17936 0
M  V30 3121 C 304.972 0.91253 5.84317 0
M  V30 3122 H 303.902 -0.0415102 0.752856 0
M  V30 3123 H 306.553 0.592742 1.73663 0
M  V30 3124 H 304.935 -0.987703 3.83485 0
M  V30 3125 H 306.109 1.8449 4.22256 0
M  V30 3126 H 304.424 1.52097 3.87628 0
M  V30 3127 H 307.021 -0.883959 5.27343 0
M  V30 3128 H 307.364 -1.73196 3.78562 0
M  V30 3129 H 307.897 -0.04408 3.97776 0
M  V30 3130 H 304.636 1.87391 6.28144 0
M  V30 3131 H 304.156 0.185422 5.99513 0
M  V30 3132 H 305.835 0.574547 6.44444 0
M  V30 3133 N 305.967 -1.56429 0.191757 0
M  V30 3134 C 307.244 -1.89224 -0.495332 0
M  V30 3135 C 307.624 -1.10478 -1.79883 0
M  V30 3136 O 306.972 -0.204852 -2.2758 0
M  V30 3137 C 307.182 -3.41548 -0.717367 0
M  V30 3138 C 308.53 -4.11711 -1.03823 0
M  V30 3139 O 309.554 -3.4698 -0.805204 0
M  V30 3140 O 308.413 -5.2611 -1.47887 0
M  V30 3141 H 305.507 -0.785788 -0.25781 0
M  V30 3142 H 308.053 -1.68111 0.231721 0
M  V30 3143 H 306.825 -3.90772 0.203287 0
M  V30 3144 H 306.448 -3.68342 -1.497 0
M  V30 3145 N 307.445 0.0818655 -1.57387 0
M  V30 3146 C 308.375 1.09885 -2.06028 0
M  V30 3147 C 309.356 1.4098 -0.951774 0
M  V30 3148 O 310.541 1.50781 -1.22387 0
M  V30 3149 C 307.671 2.4151 -2.4958 0
M  V30 3150 C 306.625 2.24792 -3.64215 0
M  V30 3151 C 305.951 3.61712 -3.93787 0
M  V30 3152 C 307.251 1.67749 -4.94629 0
M  V30 3153 H 308.945 0.694128 -2.91243 0
M  V30 3154 H 306.491 0.332448 -1.4011 0
M  V30 3155 H 308.444 3.12939 -2.82219 0
M  V30 3156 H 307.168 2.83943 -1.61381 0
M  V30 3157 H 305.827 1.55807 -3.31843 0
M  V30 3158 H 305.475 4.01697 -3.02735 0
M  V30 3159 H 305.175 3.51368 -4.70971 0
M  V30 3160 H 306.699 4.34587 -4.28913 0
M  V30 3161 H 308.113 2.29032 -5.25564 0
M  V30 3162 H 306.51 1.68128 -5.76067 0
M  V30 3163 H 307.58 0.638059 -4.80684 0
M  V30 3164 N 308.923 1.53595 0.353017 0
M  V30 3165 C 309.886 1.80232 1.41594 0
M  V30 3166 C 310.886 0.673081 1.46035 0
M  V30 3167 O 312.076 0.941335 1.46576 0
M  V30 3168 C 309.208 1.93578 2.80607 0
M  V30 3169 H 310.401 2.75174 1.19244 0
M  V30 3170 H 307.954 1.44864 0.586872 0
M  V30 3171 H 308.689 1.00746 3.08254 0
M  V30 3172 H 308.474 2.75724 2.78781 0
M  V30 3173 H 309.964 2.15735 3.57558 0
M  V30 3174 N 310.401 -0.613514 1.45168 0
M  V30 3175 C 311.631 -1.39743 1.52169 0
M  V30 3176 C 312.039 -1.88596 0.151086 0
M  V30 3177 O 311.382 -1.6251 -0.856521 0
M  V30 3178 C 311.444 -2.64035 2.43979 0
M  V30 3179 C 311.108 -2.36861 3.90827 0
M  V30 3180 C 312.105 -1.97591 4.80889 0
M  V30 3181 C 309.79 -2.49956 4.35692 0
M  V30 3182 C 311.784 -1.71768 6.1382 0
M  V30 3183 C 309.471 -2.23747 5.68665 0
M  V30 3184 C 310.469 -1.84714 6.57548 0
M  V30 3185 O 310.157 -1.58809 7.88058 0
M  V30 3186 H 309.889 -0.434382 0.517966 0
M  V30 3187 H 312.443 -0.75587 1.90986 0
M  V30 3188 H 310.673 -3.3089 2.00122 0
M  V30 3189 H 312.362 -3.26069 2.41731 0
M  V30 3190 H 313.128 -1.87015 4.47493 0
M  V30 3191 H 309.007 -2.79305 3.66756 0
M  V30 3192 H 312.551 -1.41227 6.83155 0
M  V30 3193 H 308.448 -2.33938 6.01617 0
M  V30 3194 H 309.216 -1.7291 8.00028 0
M  V30 3195 N 311.879 -1.3236 -0.855495 0
M  V30 3196 C 312.811 -1.17052 -1.97057 0
M  V30 3197 C 313.824 -0.10574 -1.62456 0
M  V30 3198 O 315.013 -0.354619 -1.74942 0
M  V30 3199 C 312.113 -0.769305 -3.30053 0
M  V30 3200 C 311.286 -1.9222 -3.929 0
M  V30 3201 C 310.345 -1.50466 -5.04228 0
M  V30 3202 O 309.371 -2.21655 -5.24269 0
M  V30 3203 N 310.573 -0.400209 -5.79119 0
M  V30 3204 H 313.338 -2.13103 -2.1073 0
M  V30 3205 H 310.899 -1.24885 -1.0303 0
M  V30 3206 H 312.891 -0.472407 -4.01933 0
M  V30 3207 H 311.461 0.100025 -3.1244 0
M  V30 3208 H 310.681 -2.38563 -3.13817 0
M  V30 3209 H 311.969 -2.69403 -4.31624 0
M  V30 3210 H 311.367 0.192319 -5.65373 0
M  V30 3211 H 309.924 -0.162912 -6.51596 0
M  V30 3212 N 313.357 1.07166 -1.15556 0
M  V30 3213 C 314.605 1.79443 -0.929764 0
M  V30 3214 C 314.926 1.87246 0.544414 0
M  V30 3215 O 314.196 1.37473 1.39564 0
M  V30 3216 H 312.776 0.664625 -0.341003 0
M  V30 3217 H 315.438 1.29499 -1.45657 0
M  V30 3218 H 314.534 2.81832 -1.34079 0
M  V30 3219 N 314.835 0.952656 1.25548 0
M  V30 3220 C 316.082 0.606373 1.93208 0
M  V30 3221 C 316.41 -0.85631 1.74636 0
M  V30 3222 O 315.665 -1.62951 1.08376 0
M  V30 3223 C 315.964 0.908818 3.45652 0
M  V30 3224 C 315.63 2.35722 3.84378 0
M  V30 3225 C 314.292 2.75312 3.9466 0
M  V30 3226 C 316.644 3.29793 4.03591 0
M  V30 3227 C 313.972 4.08047 4.21562 0
M  V30 3228 C 316.324 4.62138 4.31985 0
M  V30 3229 C 314.988 5.01528 4.40484 0
M  V30 3230 H 314.258 0.221888 0.706998 0
M  V30 3231 H 316.905 1.20132 1.49133 0
M  V30 3232 H 315.21 0.231456 3.91116 0
M  V30 3233 H 316.907 0.619498 3.96186 0
M  V30 3234 H 313.497 2.04017 3.76928 0
M  V30 3235 H 317.681 3.00397 3.95064 0
M  V30 3236 H 312.937 4.38212 4.26357 0
M  V30 3237 H 317.111 5.35012 4.45797 0
M  V30 3238 H 314.738 6.04406 4.61083 0
M  V30 3239 N 316.313 -1.40141 0.720998 0
M  V30 3240 C 317.561 -2.0039 0.262323 0
M  V30 3241 C 317.882 -1.57469 -1.15015 0
M  V30 3242 O 317.152 -0.816582 -1.78069 0
M  V30 3243 H 315.732 -0.741063 0.093996 0
M  V30 3244 H 318.394 -1.71398 0.927835 0
M  V30 3245 H 317.49 -3.10658 0.299671 0
M  V30 3246 N 317.792 -0.46758 -1.50504 0
M  V30 3247 C 319.069 0.15003 -1.95024 0
M  V30 3248 C 319.449 1.57304 -1.40779 0
M  V30 3249 O 318.797 2.20281 -0.607319 0
M  V30 3250 C 319.007 0.0969324 -3.48865 0
M  V30 3251 C 320.355 0.287565 -4.23625 0
M  V30 3252 O 321.379 0.173678 -3.55776 0
M  V30 3253 O 320.238 0.517186 -5.44047 0
M  V30 3254 H 317.332 0.113582 -0.819163 0
M  V30 3255 H 319.878 -0.52773 -1.61286 0
M  V30 3256 H 318.65 -0.896732 -3.80886 0
M  V30 3257 H 318.273 0.816303 -3.8913 0
M  V30 3258 N 319.27 1.56325 -0.20005 0
M  V30 3259 C 320.518 1.97329 0.436547 0
M  V30 3260 C 320.839 1.08826 1.61808 0
M  V30 3261 O 320.109 0.160604 1.95241 0
M  V30 3262 H 318.689 0.728714 0.164272 0
M  V30 3263 H 321.351 1.92761 -0.287937 0
M  V30 3264 H 320.447 3.02264 0.777353 0
M  V30 3265 N 320.748 -0.0735177 1.57428 0
M  V30 3266 C 321.678 -1.0879 2.06608 0
M  V30 3267 C 322.659 -1.40473 0.959237 0
M  V30 3268 O 323.844 -1.5013 1.23185 0
M  V30 3269 C 320.974 -2.40183 2.50857 0
M  V30 3270 C 319.928 -2.22858 3.65402 0
M  V30 3271 C 319.254 -3.59619 3.957 0
M  V30 3272 C 320.554 -1.65123 4.95511 0
M  V30 3273 H 322.248 -0.678673 2.91607 0
M  V30 3274 H 319.794 -0.325013 1.40284 0
M  V30 3275 H 321.747 -3.11437 2.83874 0
M  V30 3276 H 320.471 -2.83083 1.62885 0
M  V30 3277 H 319.13 -1.54045 3.32664 0
M  V30 3278 H 318.778 -4.00086 3.04861 0
M  V30 3279 H 318.478 -3.48866 4.72828 0
M  V30 3280 H 320.002 -4.32306 4.31212 0
M  V30 3281 H 321.416 -2.26241 5.26771 0
M  V30 3282 H 319.813 -1.65071 5.7695 0
M  V30 3283 H 320.883 -0.612559 4.81015 0
M  V30 3284 N 322.226 -1.5378 -0.344866 0
M  V30 3285 C 323.136 -1.84667 -1.4469 0
M  V30 3286 C 324.152 -0.736704 -1.57635 0
M  V30 3287 O 325.328 -1.02888 -1.73136 0
M  V30 3288 C 322.393 -2.04869 -2.79696 0
M  V30 3289 C 321.454 -3.28731 -2.76106 0
M  V30 3290 C 320.687 -3.4796 -4.04673 0
M  V30 3291 O 320.91 -2.71052 -5.01883 0
M  V30 3292 O 319.844 -4.41383 -4.09224 0
M  V30 3293 H 323.67 -2.78334 -1.21506 0
M  V30 3294 H 321.255 -1.39418 -0.536921 0
M  V30 3295 H 323.137 -2.19609 -3.59652 0
M  V30 3296 H 321.812 -1.14391 -3.02814 0
M  V30 3297 H 320.719 -3.19396 -1.94774 0
M  V30 3298 H 322.052 -4.19198 -2.57941 0
M  V30 3299 N 323.704 0.605807 -1.45491 0
M  V30 3300 C 324.614 1.74466 -1.56839 0
M  V30 3301 C 325.63 1.68006 -0.452772 0
M  V30 3302 O 326.806 1.8833 -0.713708 0
M  V30 3303 C 323.871 3.10931 -1.53371 0
M  V30 3304 C 322.932 3.28832 -2.75986 0
M  V30 3305 C 322.165 4.58787 -2.72673 0
M  V30 3306 O 322.388 5.4122 -1.80102 0
M  V30 3307 O 321.322 4.79438 -3.63899 0
M  V30 3308 H 325.148 1.67843 -2.53106 0
M  V30 3309 H 322.733 0.770108 -1.28022 0
M  V30 3310 H 324.615 3.92233 -1.54051 0
M  V30 3311 H 323.29 3.18042 -0.602572 0
M  V30 3312 H 322.197 2.47112 -2.80867 0
M  V30 3313 H 323.53 3.26599 -3.68231 0
M  V30 3314 N 325.182 1.32811 0.848464 0
M  V30 3315 C 326.459 1.14334 1.58704 0
M  V30 3316 C 326.839 -0.293948 2.09043 0
M  V30 3317 O 326.187 -1.29153 1.88499 0
M  V30 3318 C 326.397 2.17626 2.72837 0
M  V30 3319 C 327.745 2.51282 3.42261 0
M  V30 3320 O 328.769 2.16219 2.83068 0
M  V30 3321 O 327.628 3.11413 4.49093 0
M  V30 3322 H 324.722 0.441601 0.699226 0
M  V30 3323 H 327.268 1.44362 0.892053 0
M  V30 3324 H 326.04 3.14211 2.3321 0
M  V30 3325 H 325.663 1.88628 3.50008 0
M  V30 3326 N 326.66 -1.06551 1.16123 0
M  V30 3327 C 327.623 -2.12132 0.867906 0
M  V30 3328 C 328.623 -1.60224 -0.135944 0
M  V30 3329 O 329.813 -1.73943 0.0946422 0
M  V30 3330 C 326.945 -3.396 0.297419 0
M  V30 3331 H 328.138 -2.39586 1.80385 0
M  V30 3332 H 325.691 -1.22574 0.969812 0
M  V30 3333 H 326.426 -3.17794 -0.64633 0
M  V30 3334 H 326.211 -3.78581 1.02073 0
M  V30 3335 H 327.701 -4.17455 0.110052 0
M  V30 3336 N 328.138 -0.959301 -1.25041 0
M  V30 3337 C 329.101 -0.487677 -2.23952 0
M  V30 3338 C 330.101 0.41119 -1.55454 0
M  V30 3339 O 331.291 0.207825 -1.72956 0
M  V30 3340 C 328.423 0.294807 -3.39623 0
M  V30 3341 H 329.616 -1.36198 -2.67189 0
M  V30 3342 H 327.169 -0.743042 -1.37508 0
M  V30 3343 H 327.904 1.18658 -3.01813 0
M  V30 3344 H 327.689 -0.35012 -3.90534 0
M  V30 3345 H 329.179 0.614089 -4.1306 0
M  V30 3346 N 329.616 1.39756 -0.72842 0
M  V30 3347 C 330.864 2.00248 -0.272946 0
M  V30 3348 C 331.185 1.58077 1.14178 0
M  V30 3349 O 330.455 0.826014 1.77634 0
M  V30 3350 H 329.035 0.740554 -0.0979247 0
M  V30 3351 H 331.697 1.70903 -0.936912 0
M  V30 3352 H 330.793 3.10495 -0.316142 0
M  V30 3353 N 331.094 0.475555 1.50254 0
M  V30 3354 C 332.322 -0.0754493 2.06762 0
M  V30 3355 C 332.737 -1.33111 1.33891 0
M  V30 3356 O 332.094 -1.77846 0.40952 0
M  V30 3357 C 332.145 -0.359008 3.59713 0
M  V30 3358 O 331.866 0.846851 4.29837 0
M  V30 3359 C 333.367 -0.956484 4.32858 0
M  V30 3360 H 330.587 0.00907525 0.670939 0
M  V30 3361 H 333.131 0.665618 1.93364 0
M  V30 3362 H 331.286 -1.05001 3.72899 0
M  V30 3363 H 331.7 0.594162 5.21124 0
M  V30 3364 H 333.174 -1.10463 5.40834 0
M  V30 3365 H 333.651 -1.94775 3.93649 0
M  V30 3366 H 334.257 -0.303723 4.24214 0
M  V30 3367 N 332.573 -1.56217 0.208337 0
M  V30 3368 C 333.989 -1.58919 -0.14729 0
M  V30 3369 C 334.189 -1.22486 -1.59998 0
M  V30 3370 O 333.245 -0.953849 -2.3379 0
M  V30 3371 C 334.558 -3.00236 0.167048 0
M  V30 3372 C 336.106 -3.12813 0.108219 0
M  V30 3373 C 336.581 -4.56284 0.396049 0
M  V30 3374 N 338.072 -4.61912 0.345142 0
M  V30 3375 C 338.807 -5.70837 0.541523 0
M  V30 3376 N 338.303 -6.88178 0.798968 0
M  V30 3377 N 340.096 -5.60091 0.474867 0
M  V30 3378 H 332.247 -1.78177 1.15614 0
M  V30 3379 H 334.51 -0.827555 0.462446 0
M  V30 3380 H 334.216 -3.31499 1.1748 0
M  V30 3381 H 334.09 -3.7354 -0.524184 0
M  V30 3382 H 336.477 -2.81354 -0.890157 0
M  V30 3383 H 336.558 -2.41866 0.832729 0
M  V30 3384 H 336.202 -4.88458 1.3918 0
M  V30 3385 H 336.132 -5.25439 -0.349502 0
M  V30 3386 H 338.623 -3.77589 0.153316 0
M  V30 3387 H 338.936 -7.67095 0.93727 0
M  V30 3388 H 337.281 -6.89953 0.836013 0
M  V30 3389 H 340.472 -4.67297 0.274064 0
M  V30 3390 H 340.645 -6.44917 0.631326 0
M  V30 3391 N 334.051 0.0651679 -1.57465 0
M  V30 3392 C 334.981 1.07693 -2.07182 0
M  V30 3393 C 335.962 1.39962 -0.966673 0
M  V30 3394 O 337.147 1.49475 -1.2398 0
M  V30 3395 C 334.277 2.3885 -2.52127 0
M  V30 3396 C 333.231 2.20917 -3.66579 0
M  V30 3397 C 332.557 3.57515 -3.97601 0
M  V30 3398 C 333.857 1.62493 -4.9638 0
M  V30 3399 H 335.551 0.663199 -2.91962 0
M  V30 3400 H 333.097 0.317569 -1.40455 0
M  V30 3401 H 335.05 3.09928 -2.85522 0
M  V30 3402 H 333.774 2.82215 -1.64384 0
M  V30 3403 H 332.433 1.52279 -3.33477 0
M  V30 3404 H 332.081 3.98463 -3.06979 0
M  V30 3405 H 331.781 3.46353 -4.74672 0
M  V30 3406 H 333.305 4.30013 -4.33499 0
M  V30 3407 H 334.719 2.23445 -5.27963 0
M  V30 3408 H 333.116 1.62009 -5.77818 0
M  V30 3409 H 334.186 0.587041 -4.81333 0
M  V30 3410 N 335.529 1.53961 0.336706 0
M  V30 3411 C 336.778 1.70751 1.07363 0
M  V30 3412 C 337.091 0.481061 1.89592 0
M  V30 3413 O 338.297 0.530046 2.66276 0
M  V30 3414 C 336.753 3.01965 1.95818 0
M  V30 3415 C 336.361 4.31971 1.18764 0
M  V30 3416 C 338.105 3.28121 2.69327 0
M  V30 3417 C 336.012 5.54255 2.06289 0
M  V30 3418 H 334.942 0.636292 0.404535 0
M  V30 3419 H 337.593 1.80459 0.332681 0
M  V30 3420 H 335.975 2.86132 2.7376 0
M  V30 3421 H 337.149 4.5853 0.456849 0
M  V30 3422 H 335.464 4.12481 0.569946 0
M  V30 3423 H 338.061 4.16673 3.35094 0
M  V30 3424 H 338.404 2.45426 3.36261 0
M  V30 3425 H 338.937 3.44762 1.98454 0
M  V30 3426 H 335.676 6.39513 1.43885 0
M  V30 3427 H 335.196 5.31935 2.77138 0
M  V30 3428 H 336.875 5.90159 2.65182 0
M  V30 3429 N 337.007 -0.598083 1.45811 0
M  V30 3430 C 337.97 -1.69018 1.54808 0
M  V30 3431 C 338.97 -1.55037 0.426652 0
M  V30 3432 O 340.16 -1.59932 0.690456 0
M  V30 3433 C 337.292 -3.0835 1.45371 0
M  V30 3434 H 338.485 -1.62403 2.52121 0
M  V30 3435 H 336.038 -0.814626 1.33392 0
M  V30 3436 H 336.773 -3.20534 0.492793 0
M  V30 3437 H 336.558 -3.19907 2.26721 0
M  V30 3438 H 338.048 -3.8788 1.54721 0
M  V30 3439 N 338.485 -1.33259 -0.841409 0
M  V30 3440 C 339.71 -1.2775 -1.63385 0
M  V30 3441 C 340.135 0.149188 -1.87507 0
M  V30 3442 O 339.493 1.10498 -1.43736 0
M  V30 3443 C 339.541 -2.05571 -2.96265 0
M  V30 3444 O 338.645 -1.41257 -3.87453 0
M  V30 3445 H 337.986 -0.439627 -0.497618 0
M  V30 3446 H 340.516 -1.75782 -1.04699 0
M  V30 3447 H 340.526 -2.16241 -3.45982 0
M  V30 3448 H 339.201 -3.09309 -2.7803 0
M  V30 3449 H 337.778 -1.39217 -3.45938 0
M  V30 3450 N 339.963 1.05934 -1.16686 0
M  V30 3451 C 341.379 1.30938 -0.912542 0
M  V30 3452 C 341.579 1.96803 0.432533 0
M  V30 3453 O 340.635 2.23693 1.17123 0
M  V30 3454 C 341.948 2.18649 -2.06429 0
M  V30 3455 C 343.496 2.32055 -2.10047 0
M  V30 3456 C 343.971 3.23122 -3.24586 0
M  V30 3457 N 345.462 3.30706 -3.24327 0
M  V30 3458 C 346.197 4.01273 -4.09594 0
M  V30 3459 N 345.693 4.74332 -5.04956 0
M  V30 3460 N 347.486 3.97361 -3.97569 0
M  V30 3461 H 339.637 0.615777 -2.03278 0
M  V30 3462 H 341.9 0.334077 -0.887185 0
M  V30 3463 H 341.606 1.77534 -3.03603 0
M  V30 3464 H 341.48 3.19252 -2.00894 0
M  V30 3465 H 343.867 2.72415 -1.13464 0
M  V30 3466 H 343.948 1.31107 -2.19647 0
M  V30 3467 H 343.592 2.83477 -4.2143 0
M  V30 3468 H 343.522 4.24057 -3.12223 0
M  V30 3469 H 346.013 2.78644 -2.55276 0
M  V30 3470 H 346.326 5.25716 -5.6643 0
M  V30 3471 H 344.671 4.733 -5.08933 0
M  V30 3472 H 347.862 3.39405 -3.22369 0
M  V30 3473 H 348.035 4.52089 -4.64241 0
M  V30 3474 N 341.441 0.965919 1.2453 0
M  V30 3475 C 342.69 0.622437 1.91856 0
M  V30 3476 C 343.003 -0.846006 1.76358 0
M  V30 3477 O 344.209 -1.29993 2.38357 0
M  V30 3478 C 342.665 1.0626 3.43856 0
M  V30 3479 C 342.273 2.55437 3.68043 0
M  V30 3480 C 344.017 0.792183 4.17043 0
M  V30 3481 C 341.924 2.93196 5.13605 0
M  V30 3482 H 340.854 0.229092 0.718354 0
M  V30 3483 H 343.505 1.17189 1.41206 0
M  V30 3484 H 341.887 0.441476 3.93531 0
M  V30 3485 H 343.061 3.22665 3.28974 0
M  V30 3486 H 341.376 2.8007 3.08139 0
M  V30 3487 H 343.973 1.05031 5.24283 0
M  V30 3488 H 344.316 -0.271584 4.15413 0
M  V30 3489 H 344.849 1.37419 3.73311 0
M  V30 3490 H 341.588 3.98636 5.20355 0
M  V30 3491 H 341.108 2.30651 5.53679 0
M  V30 3492 H 342.787 2.83004 5.81823 0
M  V30 3493 N 342.919 -1.39368 0.735821 0
M  V30 3494 C 344.33 -1.83313 0.354015 0
M  V30 3495 C 344.681 -1.61461 -1.11466 0
M  V30 3496 O 343.806 -1.10621 -1.85989 0
M  V30 3497 C 344.401 -3.32781 0.635769 0
M  V30 3498 C 342.96 -3.75142 0.307448 0
M  V30 3499 C 342.107 -2.62358 0.897974 0
M  V30 3500 H 345.058 -1.28349 0.933398 0
M  V30 3501 H 345.079 -3.80388 -0.0921773 0
M  V30 3502 H 344.591 -3.48654 1.70476 0
M  V30 3503 H 342.692 -3.64857 -0.755674 0
M  V30 3504 H 342.805 -4.72532 0.790583 0
M  V30 3505 H 341.169 -2.52624 0.324551 0
M  V30 3506 H 341.952 -2.81036 1.97164 0
M  V30 3507 N 344.397 -0.483516 -1.5 0
M  V30 3508 C 345.307 0.309172 -2.32554 0
M  V30 3509 C 346.323 0.984159 -1.43493 0
M  V30 3510 O 347.499 0.969399 -1.76535 0
M  V30 3511 C 344.564 1.36979 -3.18493 0
M  V30 3512 C 343.625 0.710095 -4.23387 0
M  V30 3513 C 342.858 1.72018 -5.05218 0
M  V30 3514 O 343.081 2.94813 -4.88305 0
M  V30 3515 O 342.015 1.28515 -5.8802 0
M  V30 3516 H 345.841 -0.366064 -3.01486 0
M  V30 3517 H 343.426 -0.24514 -1.47375 0
M  V30 3518 H 345.308 1.98385 -3.71781 0
M  V30 3519 H 343.983 2.02828 -2.52275 0
M  V30 3520 H 342.89 0.0567539 -3.74057 0
M  V30 3521 H 344.223 0.0943557 -4.9211 0
M  V30 3522 N 345.875 1.56104 -0.216619 0
M  V30 3523 C 347.121 1.98466 0.417033 0
M  V30 3524 C 347.454 1.10403 1.59765 0
M  V30 3525 O 346.729 0.160632 1.93836 0
M  V30 3526 C 347.012 3.49769 0.85637 0
M  V30 3527 C 346.865 4.48606 -0.327546 0
M  V30 3528 C 348.184 4.05339 1.7143 0
M  V30 3529 H 345.303 0.721551 0.150112 0
M  V30 3530 H 347.945 1.87423 -0.311864 0
M  V30 3531 H 346.095 3.5931 1.47745 0
M  V30 3532 H 347.767 4.5108 -0.965618 0
M  V30 3533 H 346.01 4.22682 -0.975805 0
M  V30 3534 H 346.681 5.51995 0.0227149 0
M  V30 3535 H 349.157 3.98712 1.19031 0
M  V30 3536 H 348.033 5.11533 1.99061 0
M  V30 3537 H 348.294 3.51918 2.67593 0
M  V30 3538 N 347.353 -0.0568162 1.57498 0
M  V30 3539 C 348.283 -1.06593 2.0775 0
M  V30 3540 C 349.264 -1.39448 0.974082 0
M  V30 3541 O 350.449 -1.48815 1.24771 0
M  V30 3542 C 347.579 -2.37509 2.5339 0
M  V30 3543 C 346.533 -2.1897 3.67745 0
M  V30 3544 C 345.859 -3.55402 3.99492 0
M  V30 3545 C 347.159 -1.59859 4.97235 0
M  V30 3546 H 348.853 -0.647706 2.9231 0
M  V30 3547 H 346.399 -0.310116 1.40621 0
M  V30 3548 H 348.352 -3.08409 2.87162 0
M  V30 3549 H 347.076 -2.8134 1.65878 0
M  V30 3550 H 345.735 -1.50508 3.3428 0
M  V30 3551 H 345.383 -3.9683 3.09088 0
M  V30 3552 H 345.083 -3.43831 4.76502 0
M  V30 3553 H 346.607 -4.27708 4.35773 0
M  V30 3554 H 348.021 -2.20642 5.29141 0
M  V30 3555 H 346.418 -1.58942 5.78669 0
M  V30 3556 H 347.488 -0.561506 4.81638 0
M  V30 3557 N 348.832 -1.54138 -0.328536 0
M  V30 3558 C 350.081 -1.71318 -1.06456 0
M  V30 3559 C 350.394 -0.491109 -1.89334 0
M  V30 3560 O 351.6 -0.54416 -2.65991 0
M  V30 3561 C 350.056 -3.03 -1.94214 0
M  V30 3562 C 349.664 -4.32595 -1.16471 0
M  V30 3563 C 351.408 -3.29544 -2.67583 0
M  V30 3564 C 349.315 -5.55341 -2.03347 0
M  V30 3565 H 348.245 -0.638429 -0.401155 0
M  V30 3566 H 350.896 -1.80633 -0.323106 0
M  V30 3567 H 349.278 -2.87579 -2.72239 0
M  V30 3568 H 350.452 -4.58766 -0.432525 0
M  V30 3569 H 348.767 -4.12777 -0.548063 0
M  V30 3570 H 351.364 -4.18444 -3.3288 0
M  V30 3571 H 351.707 -2.47206 -3.34955 0
M  V30 3572 H 352.24 -3.45809 -1.96623 0
M  V30 3573 H 348.979 -6.40268 -1.40491 0
M  V30 3574 H 348.499 -5.33397 -2.74313 0
M  V30 3575 H 350.178 -5.91557 -2.62049 0
M  V30 3576 N 350.31 0.590341 -1.46126 0
M  V30 3577 C 351.273 1.68194 -1.55703 0
M  V30 3578 C 352.273 1.54808 -0.434868 0
M  V30 3579 O 353.463 1.59564 -0.698928 0
M  V30 3580 C 350.595 3.07575 -1.47005 0
M  V30 3581 H 351.788 1.61064 -2.52979 0
M  V30 3582 H 349.341 0.807541 -1.33823 0
M  V30 3583 H 350.076 3.20268 -0.509785 0
M  V30 3584 H 349.861 3.187 -2.28414 0
M  V30 3585 H 351.351 3.87055 -1.56776 0
M  V30 3586 N 351.788 1.33704 0.83433 0
M  V30 3587 C 352.751 1.24244 1.92603 0
M  V30 3588 C 353.751 0.160383 1.59998 0
M  V30 3589 O 354.941 0.412228 1.69252 0
M  V30 3590 C 352.073 0.91555 3.28376 0
M  V30 3591 H 353.266 2.21287 2.02416 0
M  V30 3592 H 350.819 1.17827 1.02696 0
M  V30 3593 H 351.554 -0.0521886 3.24258 0
M  V30 3594 H 351.339 1.69811 3.53422 0
M  V30 3595 H 352.829 0.874231 4.08347 0
M  V30 3596 N 353.266 -1.05314 1.17247 0
M  V30 3597 C 354.491 -1.82509 0.985148 0
M  V30 3598 C 354.916 -1.82343 -0.461788 0
M  V30 3599 O 354.274 -1.23151 -1.33055 0
M  V30 3600 C 354.322 -3.26566 1.52929 0
M  V30 3601 O 353.426 -4.05666 0.742225 0
M  V30 3602 H 352.767 -0.564347 0.349869 0
M  V30 3603 H 355.297 -1.32718 1.55715 0
M  V30 3604 H 355.307 -3.77369 1.55103 0
M  V30 3605 H 353.982 -3.26001 2.58256 0
M  V30 3606 H 352.559 -3.64397 0.791794 0
M  V30 3607 N 354.744 -0.972509 -1.24016 0
M  V30 3608 C 355.984 -0.644951 -1.93958 0
M  V30 3609 C 356.348 0.80559 -1.74282 0
M  V30 3610 O 357.549 1.2436 -2.38302 0
M  V30 3611 C 355.82 -1.01521 -3.42678 0
M  V30 3612 S 357.379 -0.802927 -4.31391 0
M  V30 3613 H 354.197 -0.236452 -0.670531 0
M  V30 3614 H 356.799 -1.25048 -1.50277 0
M  V30 3615 H 355.503 -2.06769 -3.54506 0
M  V30 3616 H 355.034 -0.400648 -3.91355 0
M  V30 3617 H 357.049 0.317256 -4.95185 0
M  V30 3618 N 356.222 1.38976 -0.743202 0
M  V30 3619 C 357.447 2.05161 -0.303936 0
M  V30 3620 C 357.872 1.55677 1.05576 0
M  V30 3621 O 357.23 0.704131 1.67068 0
M  V30 3622 C 357.278 3.59138 -0.324373 0
M  V30 3623 O 356.382 4.06668 0.685204 0
M  V30 3624 H 355.723 0.649815 -0.136518 0
M  V30 3625 H 358.253 1.77852 -1.01142 0
M  V30 3626 H 358.263 4.07639 -0.171618 0
M  V30 3627 H 356.938 3.94515 -1.31647 0
M  V30 3628 H 355.515 3.69561 0.497913 0
M  V30 3629 N 357.7 0.491464 1.49741 0
M  V30 3630 C 358.647 -0.292027 2.28945 0
M  V30 3631 C 359.617 -0.968973 1.34908 0
M  V30 3632 O 360.802 -0.97748 1.6386 0
M  V30 3633 C 357.942 -1.35617 3.17336 0
M  V30 3634 C 357.055 -0.691957 4.26422 0
M  V30 3635 C 356.19 -1.73572 5.02042 0
M  V30 3636 C 355.229 -1.05286 6.02977 0
M  V30 3637 N 354.366 -2.0404 6.71798 0
M  V30 3638 H 359.206 0.389654 2.95442 0
M  V30 3639 H 356.743 0.204003 1.45679 0
M  V30 3640 H 358.701 -1.98502 3.66951 0
M  V30 3641 H 357.331 -2.00674 2.52844 0
M  V30 3642 H 356.383 0.0499523 3.80367 0
M  V30 3643 H 357.695 -0.153946 4.98562 0
M  V30 3644 H 356.849 -2.43987 5.55478 0
M  V30 3645 H 355.588 -2.30757 4.29654 0
M  V30 3646 H 354.593 -0.334446 5.48782 0
M  V30 3647 H 355.818 -0.487636 6.77347 0
M  V30 3648 H 353.764 -2.60205 6.02187 0
M  V30 3649 H 353.681 -1.55279 7.39881 0
M  V30 3650 H 354.949 -2.73772 7.29842 0
M  V30 3651 N 359.178 -1.55987 0.224894 0
M  V30 3652 C 360.126 -2.21808 -0.700283 0
M  V30 3653 C 361.12 -1.19854 -1.19714 0
M  V30 3654 O 362.326 -1.37925 -1.15658 0
M  V30 3655 H 358.701 -0.711226 -0.244258 0
M  V30 3656 H 360.672 -2.98152 -0.121749 0
M  V30 3657 C 359.421 -2.91444 -1.8962 0
M  V30 3658 H 358.744 -3.69655 -1.52299 0
M  V30 3659 H 360.184 -3.40894 -2.52125 0
M  V30 3660 C 358.643 -1.94098 -2.75368 0
M  V30 3661 O 359.173 -1.46004 -3.74227 0
M  V30 3662 N 357.379 -1.61675 -2.41474 0
M  V30 3663 H 356.926 -2.00979 -1.61137 0
M  V30 3664 H 356.884 -0.968036 -2.99126 0
M  V30 3665 N 360.656 0.0484629 -1.57525 0
M  V30 3666 C 361.903 0.743125 -1.88372 0
M  V30 3667 C 362.231 1.76383 -0.819715 0
M  V30 3668 O 361.486 1.94855 0.181659 0
M  V30 3669 C 361.785 1.46632 -3.25935 0
M  V30 3670 C 361.451 0.583427 -4.4711 0
M  V30 3671 C 360.113 0.340191 -4.79996 0
M  V30 3672 C 362.465 -0.0273345 -5.21193 0
M  V30 3673 C 359.793 -0.522903 -5.84365 0
M  V30 3674 C 362.145 -0.878017 -6.26477 0
M  V30 3675 C 360.809 -1.1309 -6.5785 0
M  V30 3676 H 360.079 0.271929 -0.689301 0
M  V30 3677 H 362.726 0.00336166 -1.915 0
M  V30 3678 H 361.031 2.2789 -3.18706 0
M  V30 3679 H 362.728 2.00902 -3.47044 0
M  V30 3680 H 359.318 0.783151 -4.21384 0
M  V30 3681 H 363.502 0.147654 -4.9608 0
M  V30 3682 H 358.758 -0.727335 -6.07058 0
M  V30 3683 H 362.932 -1.35789 -6.83033 0
M  V30 3684 H 360.559 -1.80144 -7.38547 0
M  V30 3685 N 362.134 1.5431 0.320358 0
M  V30 3686 C 363.382 1.72327 1.05583 0
M  V30 3687 C 363.703 0.50149 1.88441 0
M  V30 3688 O 362.973 -0.48448 1.89815 0
M  V30 3689 H 361.553 0.635387 0.3928 0
M  V30 3690 H 364.215 1.91621 0.356019 0
M  V30 3691 H 363.311 2.60426 1.72003 0
M  V30 3692 N 363.613 -0.582584 1.46437 0
M  V30 3693 C 364.862 -1.337 1.5102 0
M  V30 3694 C 365.175 -1.94891 0.166359 0
M  V30 3695 O 366.381 -2.71351 0.0899954 0
M  V30 3696 C 364.837 -2.42315 2.66104 0
M  V30 3697 C 364.445 -1.87427 4.06909 0
M  V30 3698 C 366.189 -3.19099 2.79958 0
M  V30 3699 C 364.096 -2.93672 5.13333 0
M  V30 3700 H 363.026 -0.502619 0.562041 0
M  V30 3701 H 365.677 -0.621701 1.72647 0
M  V30 3702 H 364.059 -3.16645 2.37807 0
M  V30 3703 H 365.233 -1.19639 4.44998 0
M  V30 3704 H 363.548 -1.2331 3.97723 0
M  V30 3705 H 366.145 -3.9839 3.56636 0
M  V30 3706 H 366.488 -3.71695 1.87479 0
M  V30 3707 H 367.021 -2.51875 3.07902 0
M  V30 3708 H 363.76 -2.45962 6.07604 0
M  V30 3709 H 363.28 -3.59948 4.79789 0
M  V30 3710 H 364.959 -3.5762 5.39182 0
M  V30 3711 N 365.091 -1.34144 -0.827227 0
M  V30 3712 C 366.321 -1.29138 -1.61267 0
M  V30 3713 C 366.729 0.137597 -1.88699 0
M  V30 3714 O 366.072 1.09379 -1.47587 0
M  V30 3715 C 366.134 -2.0097 -2.9808 0
M  V30 3716 C 365.798 -3.50242 -2.93563 0
M  V30 3717 C 366.795 -4.4523 -2.68452 0
M  V30 3718 C 364.48 -3.92592 -3.13331 0
M  V30 3719 C 366.474 -5.80542 -2.63154 0
M  V30 3720 C 364.161 -5.28005 -3.07658 0
M  V30 3721 C 365.159 -6.21792 -2.82602 0
M  V30 3722 O 364.847 -7.54723 -2.76853 0
M  V30 3723 H 364.579 -0.445851 -0.508127 0
M  V30 3724 H 367.133 -1.77263 -1.03763 0
M  V30 3725 H 365.363 -1.47451 -3.57484 0
M  V30 3726 H 367.052 -1.89309 -3.5905 0
M  V30 3727 H 367.818 -4.13832 -2.52919 0
M  V30 3728 H 363.697 -3.19994 -3.31851 0
M  V30 3729 H 367.241 -6.53717 -2.43516 0
M  V30 3730 H 363.138 -5.59023 -3.22743 0
M  V30 3731 H 363.906 -7.64409 -2.92611 0
M  V30 3732 N 366.569 1.04691 -1.17803 0
M  V30 3733 C 367.985 1.29963 -0.926379 0
M  V30 3734 C 368.185 1.97251 0.411635 0
M  V30 3735 O 367.241 2.24922 1.14744 0
M  V30 3736 C 368.554 2.16447 -2.08737 0
M  V30 3737 C 370.102 2.29814 -2.12496 0
M  V30 3738 C 370.577 3.19661 -3.27995 0
M  V30 3739 N 372.068 3.27247 -3.27816 0
M  V30 3740 C 372.803 3.96906 -4.13827 0
M  V30 3741 N 372.299 4.6895 -5.09959 0
M  V30 3742 N 374.092 3.93122 -4.01761 0
M  V30 3743 H 366.243 0.594182 -2.0392 0
M  V30 3744 H 368.506 0.324649 -0.890678 0
M  V30 3745 H 368.212 1.74304 -3.05469 0
M  V30 3746 H 368.086 3.17103 -2.04268 0
M  V30 3747 H 370.473 2.71196 -1.16347 0
M  V30 3748 H 370.554 1.2877 -2.21025 0
M  V30 3749 H 370.198 2.78991 -4.24413 0
M  V30 3750 H 370.128 4.20722 -3.16703 0
M  V30 3751 H 372.619 2.75921 -2.58217 0
M  V30 3752 H 372.932 5.19679 -5.71974 0
M  V30 3753 H 371.277 4.67875 -5.13924 0
M  V30 3754 H 374.468 3.35967 -3.2595 0
M  V30 3755 H 374.641 4.47139 -4.6901 0
M  V30 3756 N 368.047 0.979072 1.23499 0
M  V30 3757 C 368.957 0.526431 2.28617 0
M  V30 3758 C 369.973 -0.418126 1.68901 0
M  V30 3759 O 371.149 -0.288372 1.99325 0
M  V30 3760 C 368.214 -0.165235 3.46306 0
M  V30 3761 C 367.275 0.82056 4.21385 0
M  V30 3762 C 366.508 0.161807 5.33455 0
M  V30 3763 O 366.731 -1.04742 5.60701 0
M  V30 3764 O 365.665 0.859708 5.95729 0
M  V30 3765 H 369.491 1.4006 2.69475 0
M  V30 3766 H 367.076 0.746643 1.29405 0
M  V30 3767 H 368.958 -0.553287 4.17752 0
M  V30 3768 H 367.633 -1.01419 3.07402 0
M  V30 3769 H 366.54 1.25929 3.52268 0
M  V30 3770 H 367.873 1.63828 4.64135 0
M  V30 3771 N 369.525 -1.3858 0.750561 0
M  V30 3772 C 370.941 -1.53759 0.427824 0
M  V30 3773 C 371.141 -1.71401 -1.05943 0
M  V30 3774 O 370.197 -1.72331 -1.84549 0
M  V30 3775 C 371.51 -2.74642 1.22443 0
M  V30 3776 C 373.058 -2.88489 1.2142 0
M  V30 3777 C 373.533 -4.12329 1.9937 0
M  V30 3778 N 375.024 -4.194 1.96616 0
M  V30 3779 C 375.759 -5.14209 2.53727 0
M  V30 3780 N 375.255 -6.14709 3.19539 0
M  V30 3781 N 377.048 -5.06537 2.43673 0
M  V30 3782 H 369.199 -1.25377 1.71447 0
M  V30 3783 H 371.462 -0.608844 0.726645 0
M  V30 3784 H 371.168 -2.68 2.27747 0
M  V30 3785 H 371.042 -3.67745 0.839273 0
M  V30 3786 H 373.429 -2.94614 0.169232 0
M  V30 3787 H 373.51 -1.96406 1.63885 0
M  V30 3788 H 373.154 -4.06966 3.03877 0
M  V30 3789 H 373.084 -5.03486 1.54302 0
M  V30 3790 H 375.575 -3.47421 1.48684 0
M  V30 3791 H 375.888 -6.8354 3.60545 0
M  V30 3792 H 374.233 -6.1505 3.23633 0
M  V30 3793 H 377.424 -4.26962 1.91889 0
M  V30 3794 H 377.597 -5.80245 2.88479 0
M  V30 3795 N 371.003 -0.499398 -1.49478 0
M  V30 3796 C 372.231 0.0425456 -2.06856 0
M  V30 3797 C 372.646 1.30964 -1.35992 0
M  V30 3798 O 372.003 1.77172 -0.437762 0
M  V30 3799 C 372.054 0.301735 -3.60239 0
M  V30 3800 O 371.775 -0.915127 -4.28436 0
M  V30 3801 C 373.276 0.887499 -4.34325 0
M  V30 3802 H 370.496 -0.0197482 -0.670709 0
M  V30 3803 H 373.04 -0.696297 -1.92281 0
M  V30 3804 H 371.195 0.990556 -3.74522 0
M  V30 3805 H 371.609 -0.676993 -5.20113 0
M  V30 3806 H 373.083 1.01845 -5.42523 0
M  V30 3807 H 373.56 1.88488 -3.96698 0
M  V30 3808 H 374.166 0.236196 -4.24644 0
M  V30 3809 N 372.481 1.55866 -0.233164 0
M  V30 3810 C 373.729 1.9821 0.394593 0
M  V30 3811 C 374.05 1.12234 1.59463 0
M  V30 3812 O 373.32 0.201981 1.94856 0
M  V30 3813 H 371.9 0.732034 0.148778 0
M  V30 3814 H 374.562 1.92107 -0.32876 0
M  V30 3815 H 373.658 3.03845 0.713063 0
M  V30 3816 N 373.959 -0.0401083 1.57549 0
M  V30 3817 C 375.199 -0.738098 1.90608 0
M  V30 3818 C 375.563 -1.73107 0.830539 0
M  V30 3819 O 376.764 -2.4765 1.04513 0
M  V30 3820 C 375.035 -1.39985 3.28845 0
M  V30 3821 S 376.594 -2.12852 3.83718 0
M  V30 3822 H 373.412 -0.24477 0.667539 0
M  V30 3823 H 376.014 0.00693599 1.95499 0
M  V30 3824 H 374.718 -0.663775 4.04997 0
M  V30 3825 H 374.249 -2.18366 3.2723 0
M  V30 3826 H 376.264 -3.39842 3.61555 0
M  V30 3827 N 375.437 -1.54477 -0.31217 0
M  V30 3828 C 376.367 -1.87652 -1.38957 0
M  V30 3829 C 377.348 -0.734358 -1.53431 0
M  V30 3830 O 378.533 -0.98911 -1.67123 0
M  V30 3831 C 375.663 -2.11396 -2.75552 0
M  V30 3832 C 374.617 -3.27243 -2.75855 0
M  V30 3833 C 373.943 -3.36382 -4.15633 0
M  V30 3834 C 375.243 -4.64622 -2.38587 0
M  V30 3835 H 376.937 -2.77887 -1.11442 0
M  V30 3836 H 374.483 -1.33707 -0.534655 0
M  V30 3837 H 376.436 -2.33189 -3.51 0
M  V30 3838 H 375.16 -1.17921 -3.04569 0
M  V30 3839 H 373.819 -3.05356 -2.02863 0
M  V30 3840 H 373.467 -2.40445 -4.41809 0
M  V30 3841 H 373.167 -4.14249 -4.1674 0
M  V30 3842 H 374.691 -3.60422 -4.92877 0
M  V30 3843 H 376.105 -4.86219 -3.03749 0
M  V30 3844 H 374.502 -5.45121 -2.50925 0
M  V30 3845 H 375.572 -4.66097 -1.33723 0
M  V30 3846 N 376.915 0.57481 -1.46744 0
M  V30 3847 C 377.845 1.69337 -1.60771 0
M  V30 3848 C 378.826 1.63825 -0.457736 0
M  V30 3849 O 380.011 1.8172 -0.684947 0
M  V30 3850 C 377.141 3.0798 -1.60517 0
M  V30 3851 C 376.095 3.28327 -2.74564 0
M  V30 3852 C 375.421 4.67578 -2.59373 0
M  V30 3853 C 376.721 3.15398 -4.16319 0
M  V30 3854 H 378.415 1.57853 -2.54407 0
M  V30 3855 H 375.961 0.75799 -1.22436 0
M  V30 3856 H 377.914 3.86061 -1.68923 0
M  V30 3857 H 376.638 3.20381 -0.634305 0
M  V30 3858 H 375.297 2.52649 -2.65639 0
M  V30 3859 H 374.945 4.76755 -1.60353 0
M  V30 3860 H 374.645 4.82144 -3.35873 0
M  V30 3861 H 376.169 5.47817 -2.69682 0
M  V30 3862 H 377.583 3.83315 -4.26313 0
M  V30 3863 H 375.98 3.41482 -4.93468 0
M  V30 3864 H 377.05 2.12372 -4.3592 0
M  V30 3865 N 378.394 1.34581 0.820102 0
M  V30 3866 C 379.357 1.2628 1.91275 0
M  V30 3867 C 380.357 0.177344 1.59819 0
M  V30 3868 O 381.547 0.430156 1.68806 0
M  V30 3869 C 378.679 0.950327 3.27386 0
M  V30 3870 H 379.872 2.23421 2.00057 0
M  V30 3871 H 377.425 1.1891 1.0144 0
M  V30 3872 H 378.16 -0.0177938 3.24295 0
M  V30 3873 H 377.945 1.73549 3.51601 0
M  V30 3874 H 379.435 0.917492 4.07396 0
M  V30 3875 N 379.872 -1.04064 1.18357 0
M  V30 3876 C 380.802 -2.14001 0.934113 0
M  V30 3877 C 381.783 -1.69616 -0.128186 0
M  V30 3878 O 382.968 -1.94185 0.0244093 0
M  V30 3879 C 380.098 -3.44253 0.459066 0
M  V30 3880 C 379.052 -4.02261 1.46185 0
M  V30 3881 C 378.378 -5.27992 0.844322 0
M  V30 3882 C 379.678 -4.38432 2.83856 0
M  V30 3883 H 381.372 -2.35127 1.85352 0
M  V30 3884 H 378.918 -1.12998 0.892604 0
M  V30 3885 H 380.871 -4.20522 0.271907 0
M  V30 3886 H 379.595 -3.22813 -0.495912 0
M  V30 3887 H 378.254 -3.28074 1.63595 0
M  V30 3888 H 377.902 -5.02862 -0.117845 0
M  V30 3889 H 377.602 -5.67765 1.51384 0
M  V30 3890 H 379.126 -6.06938 0.667693 0
M  V30 3891 H 380.54 -5.05688 2.70098 0
M  V30 3892 H 378.937 -4.89254 3.47491 0
M  V30 3893 H 380.007 -3.4826 3.37406 0
M  V30 3894 N 381.35 -0.985608 -1.22978 0
M  V30 3895 C 382.59 -0.665487 -1.93263 0
M  V30 3896 C 382.954 0.78706 -1.75127 0
M  V30 3897 O 384.155 1.21826 -2.39608 0
M  V30 3898 C 382.426 -1.0515 -3.41582 0
M  V30 3899 S 383.985 -0.848637 -4.30516 0
M  V30 3900 H 380.803 -0.24355 -0.667985 0
M  V30 3901 H 383.405 -1.26635 -1.48942 0
M  V30 3902 H 382.109 -2.10517 -3.52293 0
M  V30 3903 H 381.64 -0.442134 -3.90908 0
M  V30 3904 H 383.655 0.264717 -4.95493 0
M  V30 3905 N 382.828 1.3818 -0.7579 0
M  V30 3906 C 383.791 2.28764 -0.141286 0
M  V30 3907 C 384.791 1.47388 0.642907 0
M  V30 3908 O 385.981 1.67781 0.468536 0
M  V30 3909 C 383.113 3.31184 0.808069 0
M  V30 3910 H 384.306 2.848 -0.939633 0
M  V30 3911 H 381.859 1.47212 -0.525191 0
M  V30 3912 H 382.594 2.80247 1.63193 0
M  V30 3913 H 382.379 3.91314 0.248104 0
M  V30 3914 H 383.869 3.98909 1.23536 0
M  V30 3915 N 384.306 0.507319 1.49211 0
M  V30 3916 C 385.583 -0.0982702 1.95353 0
M  V30 3917 C 385.963 -1.53516 1.449 0
M  V30 3918 O 385.311 -2.18594 0.66551 0
M  V30 3919 C 385.521 -0.00440283 3.49 0
M  V30 3920 C 386.869 -0.175147 4.24239 0
M  V30 3921 O 387.893 -0.0792891 3.56112 0
M  V30 3922 O 386.752 -0.37276 5.45227 0
M  V30 3923 H 383.846 -0.0918236 0.821887 0
M  V30 3924 H 386.392 0.570307 1.5983 0
M  V30 3925 H 385.164 0.997402 3.78375 0
M  V30 3926 H 384.787 -0.712845 3.91158 0
M  V30 3927 N 385.784 -1.5574 0.241426 0
M  V30 3928 C 386.747 -2.19877 -0.647063 0
M  V30 3929 C 387.747 -1.16642 -1.10686 0
M  V30 3930 O 388.937 -1.41757 -1.01245 0
M  V30 3931 C 386.069 -2.83797 -1.88871 0
M  V30 3932 H 387.262 -2.99772 -0.087574 0
M  V30 3933 H 384.815 -1.56298 -0.00813574 0
M  V30 3934 H 385.55 -2.07824 -2.48957 0
M  V30 3935 H 385.335 -3.59414 -1.56728 0
M  V30 3936 H 386.825 -3.32898 -2.52129 0
M  V30 3937 N 387.262 0.0317525 -1.57568 0
M  V30 3938 C 388.225 1.01783 -2.0536 0
M  V30 3939 C 389.225 1.29203 -0.957253 0
M  V30 3940 O 390.415 1.24251 -1.22095 0
M  V30 3941 C 387.547 2.35137 -2.46827 0
M  V30 3942 H 388.74 0.605062 -2.93733 0
M  V30 3943 H 386.293 0.278514 -1.53799 0
M  V30 3944 H 387.028 2.81168 -1.61602 0
M  V30 3945 H 386.813 2.16566 -3.26866 0
M  V30 3946 H 388.303 3.05938 -2.84239 0
M  V30 3947 N 388.74 1.54641 0.303973 0
M  V30 3948 C 389.968 1.77768 1.05858 0
M  V30 3949 C 390.383 0.535722 1.8104 0
M  V30 3950 O 389.74 -0.494337 1.75677 0
M  V30 3951 C 389.791 2.9834 2.04146 0
M  V30 3952 O 389.512 4.17736 1.32015 0
M  V30 3953 C 391.013 3.33832 2.91669 0
M  V30 3954 H 388.233 0.592961 0.314067 0
M  V30 3955 H 390.777 2.01583 0.344149 0
M  V30 3956 H 388.932 2.76742 2.71096 0
M  V30 3957 H 389.346 4.85693 1.97998 0
M  V30 3958 H 390.82 4.21448 3.56491 0
M  V30 3959 H 391.297 2.51857 3.59812 0
M  V30 3960 H 391.903 3.57579 2.30254 0
M  V30 3961 N 390.218 -0.567019 1.47046 0
M  V30 3962 C 391.634 -0.891975 1.32348 0
M  V30 3963 C 391.834 -1.99154 0.306616 0
M  V30 3964 O 390.89 -2.50883 -0.28532 0
M  V30 3965 C 392.203 -1.29449 2.7141 0
M  V30 3966 C 393.751 -1.40646 2.79621 0
M  V30 3967 C 394.226 -1.84257 4.19301 0
M  V30 3968 N 395.717 -1.91424 4.21795 0
M  V30 3969 C 396.452 -2.26476 5.26779 0
M  V30 3970 N 395.948 -2.60211 6.42077 0
M  V30 3971 N 397.741 -2.27166 5.14152 0
M  V30 3972 H 389.892 0.159074 2.11803 0
M  V30 3973 H 392.155 0.00849752 0.947962 0
M  V30 3974 H 391.861 -0.560448 3.47206 0
M  V30 3975 H 391.735 -2.25273 3.02542 0
M  V30 3976 H 394.122 -2.13133 2.04104 0
M  V30 3977 H 394.203 -0.430339 2.52154 0
M  V30 3978 H 393.847 -1.12343 4.95319 0
M  V30 3979 H 393.777 -2.82855 4.44185 0
M  V30 3980 H 396.268 -1.6778 3.38612 0
M  V30 3981 H 396.581 -2.85956 7.17948 0
M  V30 3982 H 394.926 -2.57813 6.45413 0
M  V30 3983 H 398.117 -2.00244 4.23107 0
M  V30 3984 H 398.29 -2.54154 5.96079 0
M  V30 3985 N 391.696 -1.35014 -0.812953 0
M  V30 3986 C 392.606 -1.2951 -1.95613 0
M  V30 3987 C 393.622 -0.20107 -1.72834 0
M  V30 3988 O 394.798 -0.42932 -1.96771 0
M  V30 3989 C 391.863 -1.06033 -3.30088 0
M  V30 3990 C 390.924 -2.24688 -3.65805 0
M  V30 3991 C 390.157 -2.02322 -4.93864 0
M  V30 3992 O 390.38 -0.986464 -5.61805 0
M  V30 3993 O 389.314 -2.89525 -5.27692 0
M  V30 3994 H 393.14 -2.25705 -2.03202 0
M  V30 3995 H 390.725 -1.15321 -0.949811 0
M  V30 3996 H 392.607 -0.94763 -4.10607 0
M  V30 3997 H 391.282 -0.128852 -3.23443 0
M  V30 3998 H 390.189 -2.41521 -2.85689 0
M  V30 3999 H 391.522 -3.16261 -3.77147 0
M  V30 4000 N 393.175 1.03435 -1.18907 0
M  V30 4001 C 394.105 2.13503 -0.945448 0
M  V30 4002 C 395.086 1.69682 0.119189 0
M  V30 4003 O 396.271 1.94169 -0.034707 0
M  V30 4004 C 393.401 3.44004 -0.477316 0
M  V30 4005 C 392.355 4.0148 -1.48316 0
M  V30 4006 C 391.681 5.27537 -0.872311 0
M  V30 4007 C 392.981 4.36921 -2.86177 0
M  V30 4008 H 394.675 2.34141 -1.86597 0
M  V30 4009 H 392.221 1.12523 -0.898584 0
M  V30 4010 H 394.174 4.20372 -0.294204 0
M  V30 4011 H 392.898 3.23072 0.478786 0
M  V30 4012 H 391.557 3.27201 -1.65332 0
M  V30 4013 H 391.205 5.02917 0.0911752 0
M  V30 4014 H 390.905 5.66954 -1.54393 0
M  V30 4015 H 392.429 6.06576 -0.699871 0
M  V30 4016 H 393.843 5.04248 -2.72776 0
M  V30 4017 H 392.24 4.87405 -3.50081 0
M  V30 4018 H 393.31 3.46466 -3.39248 0
M  V30 4019 N 394.653 0.992116 1.22453 0
M  V30 4020 C 395.616 0.546883 2.2258 0
M  V30 4021 C 396.616 -0.369829 1.56489 0
M  V30 4022 O 397.806 -0.161896 1.73446 0
M  V30 4023 C 394.938 -0.204659 3.40285 0
M  V30 4024 H 396.131 1.43234 2.63484 0
M  V30 4025 H 393.684 0.779239 1.3549 0
M  V30 4026 H 394.419 -1.10614 3.04853 0
M  V30 4027 H 394.204 0.45354 3.89468 0
M  V30 4028 H 395.694 -0.504358 4.14543 0
M  V30 4029 N 396.131 -1.37776 0.765217 0
M  V30 4030 C 397.063 -2.28958 0.105361 0
M  V30 4031 C 398.076 -1.48316 -0.67128 0
M  V30 4032 O 399.265 -1.71046 -0.51045 0
M  V30 4033 C 396.365 -3.27421 -0.874569 0
M  V30 4034 C 395.538 -4.37132 -0.153123 0
M  V30 4035 C 394.597 -5.1571 -1.04547 0
M  V30 4036 O 393.623 -5.66896 -0.511672 0
M  V30 4037 N 394.825 -5.29808 -2.37243 0
M  V30 4038 H 397.59 -2.86227 0.888495 0
M  V30 4039 H 395.151 -1.49682 0.617 0
M  V30 4040 H 397.143 -3.7687 -1.47483 0
M  V30 4041 H 395.713 -2.70967 -1.55871 0
M  V30 4042 H 394.933 -3.89166 0.627975 0
M  V30 4043 H 396.221 -5.07625 0.345643 0
M  V30 4044 H 395.619 -4.89793 -2.83054 0
M  V30 4045 H 394.176 -5.82589 -2.9229 0
M  V30 4046 N 397.609 -0.515225 -1.4894 0
M  V30 4047 C 398.857 0.0241671 -2.02086 0
M  V30 4048 C 399.178 1.3616 -1.3959 0
M  V30 4049 O 398.448 1.87841 -0.556121 0
M  V30 4050 H 397.028 0.0119203 -0.746905 0
M  V30 4051 H 399.69 -0.675702 -1.82812 0
M  V30 4052 H 398.786 0.143385 -3.1177 0
M  V30 4053 N 399.087 1.5561 -0.249682 0
M  V30 4054 C 400.05 2.20217 0.635394 0
M  V30 4055 C 401.05 1.17227 1.10066 0
M  V30 4056 O 402.24 1.42292 1.00492 0
M  V30 4057 C 399.372 2.84794 1.87363 0
M  V30 4058 H 400.565 2.99814 0.0716752 0
M  V30 4059 H 398.118 1.563 -0.000153234 0
M  V30 4060 H 398.853 2.09142 2.47851 0
M  V30 4061 H 398.638 3.60241 1.5482 0
M  V30 4062 H 400.128 3.3423 2.5036 0
M  V30 4063 N 400.565 -0.0233959 1.57583 0
M  V30 4064 C 401.498 -1.05549 2.02323 0
M  V30 4065 C 402.476 -1.34843 0.908626 0
M  V30 4066 O 403.66 -1.47404 1.17491 0
M  V30 4067 C 400.787 -2.38885 2.40108 0
M  V30 4068 C 399.833 -2.2541 3.62067 0
M  V30 4069 S 400.666 -1.60217 5.1097 0
M  V30 4070 C 401.822 -2.95032 5.52003 0
M  V30 4071 H 402.055 -0.674435 2.89549 0
M  V30 4072 H 399.588 -0.23355 1.52623 0
M  V30 4073 H 401.546 -3.15562 2.62547 0
M  V30 4074 H 400.207 -2.74137 1.53323 0
M  V30 4075 H 399.4 -3.23854 3.86179 0
M  V30 4076 H 399.002 -1.56876 3.39508 0
M  V30 4077 H 401.294 -3.91357 5.53033 0
M  V30 4078 H 402.237 -2.75646 6.52246 0
M  V30 4079 H 402.645 -2.97865 4.79517 0
M  V30 4080 N 402.043 -1.548 -0.295768 0
M  V30 4081 C 403.006 -1.85363 -1.34808 0
M  V30 4082 C 404.006 -0.726817 -1.43436 0
M  V30 4083 O 405.196 -0.995088 -1.42981 0
M  V30 4084 C 402.328 -2.03859 -2.73229 0
M  V30 4085 H 403.521 -2.7941 -1.08949 0
M  V30 4086 H 401.074 -1.46942 -0.532702 0
M  V30 4087 H 401.809 -1.12117 -3.04303 0
M  V30 4088 H 401.594 -2.8588 -2.68356 0
M  V30 4089 H 403.084 -2.28857 -3.49305 0
M  V30 4090 N 403.521 0.559213 -1.47345 0
M  V30 4091 C 404.768 1.31648 -1.53867 0
M  V30 4092 C 405.096 1.93468 -0.200104 0
M  V30 4093 O 404.351 1.78295 0.806799 0
M  V30 4094 C 404.65 2.44853 -2.6035 0
M  V30 4095 C 404.316 2.00876 -4.03683 0
M  V30 4096 C 402.978 1.88599 -4.42701 0
M  V30 4097 C 405.33 1.67279 -4.93626 0
M  V30 4098 C 402.658 1.41017 -5.69501 0
M  V30 4099 C 405.01 1.21169 -6.20887 0
M  V30 4100 C 403.674 1.07487 -6.58789 0
M  V30 4101 H 402.944 0.481734 -0.56304 0
M  V30 4102 H 405.591 0.627301 -1.80934 0
M  V30 4103 H 403.896 3.19318 -2.27032 0
M  V30 4104 H 405.593 3.03039 -2.62619 0
M  V30 4105 H 402.183 2.11374 -3.72853 0
M  V30 4106 H 406.367 1.75638 -4.64182 0
M  V30 4107 H 401.623 1.29086 -5.97618 0
M  V30 4108 H 405.797 0.942345 -6.89995 0
M  V30 4109 H 403.424 0.703946 -7.56934 0
M  V30 4110 N 404.999 1.35443 0.805782 0
M  V30 4111 C 405.929 1.31095 1.93226 0
M  V30 4112 C 406.91 0.185244 1.69088 0
M  V30 4113 O 408.095 0.380332 1.90439 0
M  V30 4114 C 405.225 1.08299 3.29983 0
M  V30 4115 C 404.179 2.17519 3.68605 0
M  V30 4116 C 403.505 1.79887 5.03532 0
M  V30 4117 C 404.805 3.5949 3.78898 0
M  V30 4118 H 406.499 2.25352 1.97122 0
M  V30 4119 H 404.045 1.0848 0.946996 0
M  V30 4120 H 405.998 1.03897 4.08391 0
M  V30 4121 H 404.722 0.104885 3.26432 0
M  V30 4122 H 403.381 2.2102 2.92482 0
M  V30 4123 H 403.029 0.80693 4.96485 0
M  V30 4124 H 402.729 2.53001 5.30344 0
M  V30 4125 H 404.253 1.77011 5.84379 0
M  V30 4126 H 405.667 3.58307 4.47536 0
M  V30 4127 H 404.064 4.31371 4.1718 0
M  V30 4128 H 405.134 3.95584 2.80431 0
M  V30 4129 N 406.477 -1.02803 1.19454 0
M  V30 4130 C 407.425 -2.13213 0.929673 0
M  V30 4131 C 408.419 -1.69011 -0.114806 0
M  V30 4132 O 409.625 -1.79967 0.0345147 0
M  V30 4133 H 406 -0.69662 0.28324 0
M  V30 4134 H 407.971 -2.32744 1.86743 0
M  V30 4135 C 406.72 -3.4429 0.485797 0
M  V30 4136 H 406.043 -3.7872 1.28105 0
M  V30 4137 H 407.483 -4.22638 0.339582 0
M  V30 4138 C 405.942 -3.27258 -0.800244 0
M  V30 4139 O 406.472 -3.55967 -1.86146 0
M  V30 4140 N 404.678 -2.80545 -0.75781 0
M  V30 4141 H 404.225 -2.57382 0.106039 0
M  V30 4142 H 404.183 -2.6953 -1.61867 0
M  V30 4143 N 407.956 -0.998596 -1.21925 0
M  V30 4144 C 409.372 -0.710303 -1.42923 0
M  V30 4145 C 409.572 0.716933 -1.88314 0
M  V30 4146 O 408.628 1.48712 -2.04062 0
M  V30 4147 C 409.941 -1.72072 -2.466 0
M  V30 4148 C 411.489 -1.73681 -2.60392 0
M  V30 4149 C 411.964 -2.73601 -3.67296 0
M  V30 4150 N 413.455 -2.7223 -3.7476 0
M  V30 4151 C 414.19 -3.46206 -4.57087 0
M  V30 4152 N 413.686 -4.29802 -5.43362 0
M  V30 4153 N 415.479 -3.34886 -4.51451 0
M  V30 4154 H 407.63 -1.92028 -0.9077 0
M  V30 4155 H 409.893 -0.828487 -0.460775 0
M  V30 4156 H 409.599 -2.74231 -2.20206 0
M  V30 4157 H 409.473 -1.51818 -3.45299 0
M  V30 4158 H 411.86 -0.722173 -2.86127 0
M  V30 4159 H 411.941 -1.98005 -1.61949 0
M  V30 4160 H 411.585 -3.75217 -3.42307 0
M  V30 4161 H 411.515 -2.46545 -4.65321 0
M  V30 4162 H 414.006 -2.11576 -3.1312 0
M  V30 4163 H 414.319 -4.83061 -6.03218 0
M  V30 4164 H 412.664 -4.33887 -5.42925 0
M  V30 4165 H 415.855 -2.69015 -3.83078 0
M  V30 4166 H 416.028 -3.92796 -5.15379 0
M  V30 4167 N 409.434 1.37368 -0.772513 0
M  V30 4168 C 410.366 2.28899 -0.117502 0
M  V30 4169 C 411.379 1.4867 0.663405 0
M  V30 4170 O 412.568 1.71314 0.501372 0
M  V30 4171 C 409.668 3.2788 0.857192 0
M  V30 4172 C 408.841 4.37207 0.129938 0
M  V30 4173 C 407.9 5.16257 1.01811 0
M  V30 4174 O 406.926 5.67159 0.481601 0
M  V30 4175 N 408.128 5.31058 2.3443 0
M  V30 4176 H 410.893 2.85752 -0.903662 0
M  V30 4177 H 408.454 1.49353 -0.62493 0
M  V30 4178 H 410.446 3.77647 1.45482 0
M  V30 4179 H 409.016 2.7179 1.54432 0
M  V30 4180 H 408.236 3.88827 -0.648605 0
M  V30 4181 H 409.524 5.07434 -0.372559 0
M  V30 4182 H 408.922 4.91287 2.80452 0
M  V30 4183 H 407.479 5.84131 2.89197 0
M  V30 4184 N 410.912 0.523116 1.48665 0
M  V30 4185 C 412.14 -0.0096312 2.06898 0
M  V30 4186 C 412.555 -1.28784 1.38059 0
M  V30 4187 O 411.912 -1.76453 0.465893 0
M  V30 4188 C 411.963 -0.244386 3.60673 0
M  V30 4189 O 411.684 0.983172 4.26925 0
M  V30 4190 C 413.185 -0.818289 4.35682 0
M  V30 4191 H 410.405 0.0304161 0.67031 0
M  V30 4192 H 412.949 0.726799 1.91149 0
M  V30 4193 H 411.104 -0.930847 3.76051 0
M  V30 4194 H 411.518 0.759653 5.1897 0
M  V30 4195 H 412.992 -0.93201 5.44075 0
M  V30 4196 H 413.469 -1.82153 3.99646 0
M  V30 4197 H 414.075 -0.168609 4.24966 0
M  V30 4198 N 412.39 -1.55475 0.257931 0
M  V30 4199 C 413.62 -2.03314 -0.367026 0
M  V30 4200 C 414.028 -1.13625 -1.51281 0
M  V30 4201 O 413.371 -0.145334 -1.83124 0
M  V30 4202 C 413.433 -3.47362 -0.926284 0
M  V30 4203 C 413.097 -4.56914 0.0886584 0
M  V30 4204 C 414.094 -5.12013 0.902123 0
M  V30 4205 C 411.779 -5.01827 0.217936 0
M  V30 4206 C 413.773 -6.10529 1.83122 0
M  V30 4207 C 411.46 -6.00172 1.15052 0
M  V30 4208 C 412.458 -6.54402 1.95568 0
M  V30 4209 O 412.146 -7.50827 2.87253 0
M  V30 4210 H 411.878 -0.669976 -0.0900443 0
M  V30 4211 H 414.432 -2.01804 0.382673 0
M  V30 4212 H 412.662 -3.46056 -1.72575 0
M  V30 4213 H 414.351 -3.78637 -1.46249 0
M  V30 4214 H 415.117 -4.78139 0.812891 0
M  V30 4215 H 410.996 -4.59272 -0.398721 0
M  V30 4216 H 414.54 -6.52783 2.46008 0
M  V30 4217 H 410.437 -6.33465 1.24064 0
M  V30 4218 H 411.205 -7.68483 2.81739 0
M  V30 4219 N 413.868 0.0150385 -1.57593 0
M  V30 4220 C 415.093 0.718067 -1.94573 0
M  V30 4221 C 415.518 1.6734 -0.859005 0
M  V30 4222 O 414.876 1.80362 0.184147 0
M  V30 4223 C 414.924 1.43918 -3.30636 0
M  V30 4224 O 414.028 2.55299 -3.23876 0
M  V30 4225 H 413.369 0.192125 -0.635597 0
M  V30 4226 H 415.899 -0.0336708 -2.04572 0
M  V30 4227 H 415.909 1.80598 -3.65853 0
M  V30 4228 H 414.584 0.738619 -4.09289 0
M  V30 4229 H 413.161 2.21058 -3.00312 0
M  V30 4230 N 415.346 1.54954 0.287554 0
M  V30 4231 C 416.593 1.74873 1.02106 0
M  V30 4232 C 416.921 0.541829 1.86801 0
M  V30 4233 O 416.176 -0.475992 1.89823 0
M  V30 4234 C 416.475 2.99833 1.94512 0
M  V30 4235 C 416.141 4.33029 1.25686 0
M  V30 4236 C 414.803 4.69233 1.06649 0
M  V30 4237 C 417.155 5.15542 0.765913 0
M  V30 4238 C 414.483 5.85518 0.372222 0
M  V30 4239 C 416.835 6.32542 0.0853101 0
M  V30 4240 C 415.499 6.67398 -0.1169 0
M  V30 4241 H 414.769 0.639906 0.373632 0
M  V30 4242 H 417.416 1.89219 0.294665 0
M  V30 4243 H 415.721 2.80325 2.73725 0
M  V30 4244 H 417.418 3.1244 2.51361 0
M  V30 4245 H 414.008 4.04564 1.41512 0
M  V30 4246 H 418.192 4.88059 0.90066 0
M  V30 4247 H 413.448 6.11057 0.204695 0
M  V30 4248 H 417.622 6.95741 -0.302936 0
M  V30 4249 H 415.249 7.57357 -0.656859 0
M  V30 4250 N 416.824 -0.551391 1.4764 0
M  V30 4251 C 418.235 -1.13349 1.48354 0
M  V30 4252 C 418.586 -1.94709 0.241432 0
M  V30 4253 O 417.711 -2.06306 -0.653205 0
M  V30 4254 C 418.306 -2.0623 2.68802 0
M  V30 4255 C 416.865 -2.597 2.72457 0
M  V30 4256 C 416.012 -1.36201 2.41546 0
M  V30 4257 H 418.963 -0.337698 1.55065 0
M  V30 4258 H 418.984 -2.90196 2.46103 0
M  V30 4259 H 418.496 -1.46987 3.59188 0
M  V30 4260 H 416.597 -3.22724 1.86225 0
M  V30 4261 H 416.71 -3.00296 3.73308 0
M  V30 4262 H 415.074 -1.67068 1.9225 0
M  V30 4263 H 415.857 -0.787425 3.34147 0
M  V30 4264 N 418.302 -1.35869 -0.798587 0
M  V30 4265 C 419.713 -1.26498 -1.37314 0
M  V30 4266 C 420.064 0.0991899 -1.95949 0
M  V30 4267 O 419.189 1.0004 -1.91888 0
M  V30 4268 C 419.784 -2.29054 -2.49639 0
M  V30 4269 C 418.343 -2.234 -3.02935 0
M  V30 4270 C 417.49 -2.14329 -1.75949 0
M  V30 4271 H 420.441 -1.46881 -0.600971 0
M  V30 4272 H 420.462 -1.92166 -3.28409 0
M  V30 4273 H 419.974 -3.2833 -2.06933 0
M  V30 4274 H 418.075 -1.27562 -3.50084 0
M  V30 4275 H 418.188 -3.15703 -3.60372 0
M  V30 4276 H 416.552 -1.60435 -1.9782 0
M  V30 4277 H 417.335 -3.15477 -1.35384 0
M  V30 4278 N 419.78 1.02168 -1.19998 0
M  V30 4279 C 421.027 1.75685 -1.00702 0
M  V30 4280 C 421.355 1.88947 0.461426 0
M  V30 4281 O 420.61 1.40832 1.35885 0
M  V30 4282 C 420.909 3.18081 -1.62969 0
M  V30 4283 C 420.575 3.24809 -3.12746 0
M  V30 4284 C 419.237 3.26352 -3.53621 0
M  V30 4285 C 421.589 3.23379 -4.08749 0
M  V30 4286 C 418.917 3.2413 -4.89036 0
M  V30 4287 C 421.269 3.22698 -5.44104 0
M  V30 4288 C 419.933 3.22542 -5.84399 0
M  V30 4289 H 419.203 0.642877 -0.368496 0
M  V30 4290 H 421.85 1.19865 -1.49348 0
M  V30 4291 H 420.155 3.77027 -1.06573 0
M  V30 4292 H 421.852 3.73648 -1.45561 0
M  V30 4293 H 418.442 3.2434 -2.80181 0
M  V30 4294 H 422.626 3.21361 -3.78207 0
M  V30 4295 H 417.882 3.22338 -5.19527 0
M  V30 4296 H 422.056 3.20543 -6.18244 0
M  V30 4297 H 419.683 3.20575 -6.89301 0
M  V30 4298 N 421.258 1.00505 1.21394 0
M  V30 4299 C 422.208 0.536503 2.21598 0
M  V30 4300 C 423.192 -0.401914 1.55799 0
M  V30 4301 O 424.384 -0.226757 1.75541 0
M  V30 4302 C 421.513 -0.135446 3.43033 0
M  V30 4303 C 420.599 0.823992 4.16018 0
M  V30 4304 N 420.99 1.97683 4.6557 0
M  V30 4305 C 419.288 0.642387 4.4135 0
M  V30 4306 C 419.989 2.58003 5.21354 0
M  V30 4307 N 418.965 1.86162 5.1073 0
M  V30 4308 H 422.767 1.41557 2.57563 0
M  V30 4309 H 420.281 0.868878 1.37202 0
M  V30 4310 H 422.278 -0.488584 4.14027 0
M  V30 4311 H 420.938 -1.01049 3.08576 0
M  V30 4312 H 421.949 2.3572 4.61147 0
M  V30 4313 H 418.626 -0.185578 4.17087 0
M  V30 4314 H 420.016 3.555 5.70149 0
M  V30 4315 N 422.737 -1.36956 0.779787 0
M  V30 4316 C 423.985 -1.99097 0.347079 0
M  V30 4317 C 424.306 -1.62206 -1.08232 0
M  V30 4318 O 423.576 -0.891373 -1.74446 0
M  V30 4319 H 422.156 -0.736409 0.125342 0
M  V30 4320 H 424.818 -1.67308 0.999696 0
M  V30 4321 H 423.914 -3.09107 0.431162 0
M  V30 4322 N 424.215 -0.530993 -1.48385 0
M  V30 4323 C 425.178 0.220497 -2.28137 0
M  V30 4324 C 426.178 0.866851 -1.35434 0
M  V30 4325 O 427.368 0.726746 -1.58316 0
M  V30 4326 C 424.5 1.31921 -3.1434 0
M  V30 4327 H 425.693 -0.479714 -2.96038 0
M  V30 4328 H 423.246 -0.286968 -1.53643 0
M  V30 4329 H 423.981 2.05264 -2.51072 0
M  V30 4330 H 423.766 0.86085 -3.82533 0
M  V30 4331 H 425.256 1.84776 -3.74497 0
M  V30 4332 N 425.693 1.55336 -0.266172 0
M  V30 4333 C 426.64 2.22172 0.625165 0
M  V30 4334 C 427.61 1.19211 1.15663 0
M  V30 4335 O 428.795 1.47723 1.20758 0
M  V30 4336 C 425.935 2.93972 1.8076 0
M  V30 4337 C 425.048 4.11632 1.31084 0
M  V30 4338 C 424.183 4.71099 2.45436 0
M  V30 4339 C 423.222 5.8097 1.92718 0
M  V30 4340 N 422.359 6.34538 3.00509 0
M  V30 4341 H 427.199 2.9796 0.0485582 0
M  V30 4342 H 424.736 1.47095 0.0122024 0
M  V30 4343 H 426.694 3.33811 2.50251 0
M  V30 4344 H 425.324 2.20623 2.35638 0
M  V30 4345 H 424.376 3.76975 0.509326 0
M  V30 4346 H 425.688 4.90893 0.884633 0
M  V30 4347 H 424.842 5.13612 3.22936 0
M  V30 4348 H 423.581 3.91096 2.91368 0
M  V30 4349 H 422.586 5.37916 1.13695 0
M  V30 4350 H 423.811 6.62836 1.47733 0
M  V30 4351 H 421.757 5.57433 3.45839 0
M  V30 4352 H 421.674 7.09046 2.62279 0
M  V30 4353 H 422.942 6.81709 3.78011 0
M  V30 4354 N 427.171 -0.0066808 1.57599 0
M  V30 4355 C 428.42 -0.692078 1.89455 0
M  V30 4356 C 428.733 -1.75306 0.867586 0
M  V30 4357 O 429.939 -2.49262 1.07614 0
M  V30 4358 C 428.395 -1.2821 3.36289 0
M  V30 4359 C 428.003 -0.256291 4.47266 0
M  V30 4360 C 429.747 -1.94608 3.77264 0
M  V30 4361 C 427.654 -0.855927 5.85173 0
M  V30 4362 H 426.584 -0.262252 0.706923 0
M  V30 4363 H 429.235 0.052769 1.83424 0
M  V30 4364 H 427.617 -2.0774 3.37135 0
M  V30 4365 H 428.791 0.513923 4.57925 0
M  V30 4366 H 427.106 0.306862 4.15268 0
M  V30 4367 H 429.703 -2.40364 4.77629 0
M  V30 4368 H 430.046 -2.77382 3.10427 0
M  V30 4369 H 430.579 -1.21822 3.78688 0
M  V30 4370 H 427.318 -0.0671161 6.55466 0
M  V30 4371 H 426.838 -1.59546 5.78191 0
M  V30 4372 H 428.517 -1.35658 6.32618 0
M  V30 4373 N 428.649 -1.55105 -0.279332 0
M  V30 4374 C 429.895 -1.75672 -1.01327 0
M  V30 4375 C 430.228 -0.552739 -1.86168 0
M  V30 4376 O 429.503 0.449827 -1.89227 0
M  V30 4377 C 429.786 -3.05825 -1.90114 0
M  V30 4378 C 429.639 -4.36565 -1.08309 0
M  V30 4379 C 430.958 -3.31975 -2.8893 0
M  V30 4380 H 428.077 -0.639149 -0.366957 0
M  V30 4381 H 430.719 -1.87833 -0.286154 0
M  V30 4382 H 428.869 -2.95588 -2.52111 0
M  V30 4383 H 430.541 -4.58751 -0.484314 0
M  V30 4384 H 428.784 -4.32076 -0.386362 0
M  V30 4385 H 429.455 -5.23946 -1.73737 0
M  V30 4386 H 431.931 -3.41963 -2.37067 0
M  V30 4387 H 430.807 -4.2432 -3.48201 0
M  V30 4388 H 431.068 -2.51309 -3.63725 0
M  V30 4389 N 430.127 0.543554 -1.4793 0
M  V30 4390 C 431.352 1.32995 -1.59145 0
M  V30 4391 C 431.777 1.86472 -0.246956 0
M  V30 4392 O 431.135 1.63696 0.779324 0
M  V30 4393 C 431.183 2.46623 -2.63077 0
M  V30 4394 O 430.287 3.49261 -2.19295 0
M  V30 4395 H 429.628 0.394472 -0.534124 0
M  V30 4396 H 432.158 0.655489 -1.93816 0
M  V30 4397 H 432.168 2.93001 -2.83926 0
M  V30 4398 H 430.843 2.07059 -3.60693 0
M  V30 4399 H 429.42 3.09094 -2.08603 0
M  V30 4400 N 431.605 1.3629 0.791371 0
M  V30 4401 C 432.833 1.33562 1.58016 0
M  V30 4402 C 433.248 -0.0835616 1.88615 0
M  V30 4403 O 432.605 -1.0399 1.49974 0
M  V30 4404 C 432.656 2.15517 2.90232 0
M  V30 4405 O 432.377 3.51902 2.60953 0
M  V30 4406 C 433.878 2.20546 3.84544 0
M  V30 4407 H 431.098 0.458226 0.490173 0
M  V30 4408 H 433.642 1.79361 0.982345 0
M  V30 4409 H 431.797 1.73278 3.46487 0
M  V30 4410 H 432.211 3.94644 3.4548 0
M  V30 4411 H 433.685 2.82252 4.74382 0
M  V30 4412 H 434.162 1.20838 4.2225 0
M  V30 4413 H 434.768 2.63013 3.34222 0
M  V30 4414 N 433.083 -1.0153 1.20538 0
M  V30 4415 C 434.329 -1.75408 1.01783 0
M  V30 4416 C 434.662 -1.88943 -0.448814 0
M  V30 4417 O 433.937 -1.4162 -1.33319 0
M  V30 4418 C 434.22 -3.17255 1.70356 0
M  V30 4419 C 434.073 -3.11508 3.24473 0
M  V30 4420 C 435.392 -4.15955 1.43769 0
M  V30 4421 H 432.511 -0.636713 0.371167 0
M  V30 4422 H 435.153 -1.18436 1.4857 0
M  V30 4423 H 433.303 -3.65898 1.30578 0
M  V30 4424 H 434.975 -2.70658 3.73553 0
M  V30 4425 H 433.218 -2.4887 3.55311 0
M  V30 4426 H 433.889 -4.11784 3.67611 0
M  V30 4427 H 436.365 -3.75973 1.7828 0
M  V30 4428 H 435.241 -5.13368 1.94279 0
M  V30 4429 H 435.502 -4.40586 0.365564 0
M  V30 4430 N 434.561 -1.01147 -1.20859 0
M  V30 4431 C 435.491 -0.597663 -2.25722 0
M  V30 4432 C 436.472 0.384744 -1.65692 0
M  V30 4433 O 437.657 0.271303 -1.92296 0
M  V30 4434 C 434.787 0.0700149 -3.47229 0
M  V30 4435 C 433.741 -0.832843 -4.19819 0
M  V30 4436 C 433.067 -0.0312202 -5.34691 0
M  V30 4437 C 434.367 -2.1385 -4.76514 0
M  V30 4438 H 436.061 -1.47423 -2.60589 0
M  V30 4439 H 433.607 -0.710301 -1.25263 0
M  V30 4440 H 435.56 0.37103 -4.19763 0
M  V30 4441 H 434.284 0.981259 -3.11511 0
M  V30 4442 H 432.943 -1.11778 -3.49144 0
M  V30 4443 H 432.591 0.881515 -4.95215 0
M  V30 4444 H 432.291 -0.632434 -5.84187 0
M  V30 4445 H 433.815 0.26346 -6.10031 0
M  V30 4446 H 435.229 -1.9002 -5.40893 0
M  V30 4447 H 433.626 -2.69012 -5.36426 0
M  V30 4448 H 434.696 -2.80495 -3.95538 0
M  V30 4449 N 436.039 1.36541 -0.78704 0
M  V30 4450 C 437.267 2.03561 -0.370199 0
M  V30 4451 C 437.682 1.59347 1.01263 0
M  V30 4452 O 437.039 0.781781 1.64907 0
M  V30 4453 C 437.09 3.59033 -0.421614 0
M  V30 4454 O 436.811 4.01634 -1.7499 0
M  V30 4455 C 438.312 4.433 0.00489763 0
M  V30 4456 H 435.532 0.653346 -0.152904 0
M  V30 4457 H 438.076 1.74566 -1.06522 0
M  V30 4458 H 436.231 3.86746 0.224971 0
M  V30 4459 H 436.645 4.96217 -1.69909 0
M  V30 4460 H 438.119 5.51939 -0.0822184 0
M  V30 4461 H 438.596 4.26285 1.05723 0
M  V30 4462 H 439.202 4.20843 -0.614085 0
M  V30 4463 N 437.518 0.538854 1.48102 0
M  V30 4464 C 438.746 0.0123136 2.06896 0
M  V30 4465 C 439.161 -1.27312 1.39417 0
M  V30 4466 O 438.518 -1.75949 0.484582 0
M  V30 4467 C 438.569 -0.206118 3.60912 0
M  V30 4468 O 438.29 1.0284 4.25859 0
M  V30 4469 C 439.791 -0.772033 4.36526 0
M  V30 4470 H 437.011 0.0375239 0.66995 0
M  V30 4471 H 439.555 0.747032 1.90367 0
M  V30 4472 H 437.71 -0.89091 3.77017 0
M  V30 4473 H 438.124 0.814654 5.18135 0
M  V30 4474 H 439.598 -0.874251 5.45033 0
M  V30 4475 H 440.075 -1.77904 4.01555 0
M  V30 4476 H 440.681 -0.123526 4.25121 0
M  V30 4477 N 438.996 -1.55193 0.274407 0
M  V30 4478 C 440.407 -1.85358 -0.223488 0
M  V30 4479 C 440.758 -1.19642 -1.555 0
M  V30 4480 O 439.883 -0.484498 -2.10907 0
M  V30 4481 C 440.478 -3.36282 -0.412285 0
M  V30 4482 C 439.037 -3.66574 -0.854413 0
M  V30 4483 C 438.184 -2.7725 0.0527056 0
M  V30 4484 H 441.135 -1.50743 0.496215 0
M  V30 4485 H 441.156 -3.59349 -1.25094 0
M  V30 4486 H 440.668 -3.84083 0.556965 0
M  V30 4487 H 438.769 -3.24273 -1.83516 0
M  V30 4488 H 438.882 -4.74073 -0.692226 0
M  V30 4489 H 437.246 -2.50447 -0.463484 0
M  V30 4490 H 438.029 -3.27865 1.01783 0
M  V30 4491 N 440.474 -0.00167713 -1.576 0
M  V30 4492 C 441.384 1.00548 -2.1196 0
M  V30 4493 C 442.4 1.3758 -1.06526 0
M  V30 4494 O 443.576 1.46278 -1.38436 0
M  V30 4495 C 440.641 2.27809 -2.6135 0
M  V30 4496 C 439.702 1.97074 -3.81393 0
M  V30 4497 C 438.935 3.18267 -4.28417 0
M  V30 4498 O 439.158 4.30009 -3.74765 0
M  V30 4499 O 438.092 3.02167 -5.20556 0
M  V30 4500 H 441.918 0.573373 -2.98238 0
M  V30 4501 H 439.503 0.217255 -1.47812 0
M  V30 4502 H 441.385 3.02568 -2.93309 0
M  V30 4503 H 440.06 2.70254 -1.78169 0
M  V30 4504 H 438.967 1.19785 -3.54404 0
M  V30 4505 H 440.3 1.59464 -4.65652 0
M  V30 4506 N 441.952 1.55251 0.271103 0
M  V30 4507 C 442.882 1.9127 1.33933 0
M  V30 4508 C 443.863 0.77478 1.5143 0
M  V30 4509 O 445.048 1.03307 1.64442 0
M  V30 4510 C 442.178 2.18627 2.69851 0
M  V30 4511 C 441.132 3.34442 2.67081 0
M  V30 4512 C 440.458 3.47284 4.06569 0
M  V30 4513 C 441.758 4.70784 2.26185 0
M  V30 4514 H 443.452 2.80744 1.04035 0
M  V30 4515 H 440.998 1.35077 0.499017 0
M  V30 4516 H 442.951 2.42413 3.44694 0
M  V30 4517 H 441.675 1.25955 3.01335 0
M  V30 4518 H 440.334 3.10627 1.94695 0
M  V30 4519 H 439.982 2.52074 4.35279 0
M  V30 4520 H 439.682 4.25152 4.0561 0
M  V30 4521 H 441.206 3.73363 4.83148 0
M  V30 4522 H 442.62 4.94102 2.90751 0
M  V30 4523 H 441.017 5.51582 2.36384 0
M  V30 4524 H 442.087 4.69478 1.21319 0
M  V30 4525 N 443.43 -0.535701 1.48216 0
M  V30 4526 C 444.846 -0.863701 1.3421 0
M  V30 4527 C 445.046 -1.98458 0.34879 0
M  V30 4528 O 444.102 -2.51432 -0.23204 0
M  V30 4529 C 445.415 -1.23662 2.74095 0
M  V30 4530 C 446.963 -1.34683 2.82541 0
M  V30 4531 C 447.438 -1.75322 4.23115 0
M  V30 4532 N 448.929 -1.82434 4.2576 0
M  V30 4533 C 449.664 -2.15252 5.31464 0
M  V30 4534 N 449.16 -2.46533 6.47452 0
M  V30 4535 N 450.953 -2.16209 5.18855 0
M  V30 4536 H 443.104 0.203965 2.11418 0
M  V30 4537 H 445.367 0.0286033 0.947568 0
M  V30 4538 H 445.073 -0.486674 3.48316 0
M  V30 4539 H 444.947 -2.18805 3.07253 0
M  V30 4540 H 447.334 -2.08756 2.08579 0
M  V30 4541 H 447.415 -0.376756 2.5301 0
M  V30 4542 H 447.059 -1.01812 4.97591 0
M  V30 4543 H 446.989 -2.7337 4.50085 0
M  V30 4544 H 449.48 -1.6056 3.42095 0
M  V30 4545 H 449.793 -2.70662 7.23852 0
M  V30 4546 H 448.138 -2.44065 6.50736 0
M  V30 4547 H 451.329 -1.91224 4.2726 0
M  V30 4548 H 451.502 -2.41453 6.01335 0
M  V30 4549 N 444.908 -1.36708 -0.784132 0
M  V30 4550 C 445.871 -1.31307 -1.87859 0
M  V30 4551 C 446.871 -0.219654 -1.59293 0
M  V30 4552 O 448.061 -0.47476 -1.67606 0
M  V30 4553 C 445.193 -1.03679 -3.24751 0
M  V30 4554 H 446.386 -2.28647 -1.94064 0
M  V30 4555 H 443.939 -1.21558 -0.98252 0
M  V30 4556 H 444.674 -0.0681936 -3.24228 0
M  V30 4557 H 444.459 -1.82811 -3.46876 0
M  V30 4558 H 445.949 -1.02518 -4.04821 0
M  V30 4559 N 446.386 1.0089 -1.21074 0
M  V30 4560 C 447.663 1.71834 -0.934469 0
M  V30 4561 C 448.043 2.0368 0.554753 0
M  V30 4562 O 447.391 1.70742 1.51854 0
M  V30 4563 C 447.601 2.98061 -1.8155 0
M  V30 4564 C 448.949 3.7117 -2.06199 0
M  V30 4565 O 449.973 3.08034 -1.78867 0
M  V30 4566 O 448.832 4.84721 -2.52404 0
M  V30 4567 H 445.926 0.749253 -0.35007 0
M  V30 4568 H 448.472 1.06668 -1.31985 0
M  V30 4569 H 447.244 2.70908 -2.82355 0
M  V30 4570 H 446.867 3.70968 -1.43068 0
M  V30 4571 N 447.864 1.01787 1.20321 0
M  V30 4572 C 449.11 0.718699 1.90279 0
M  V30 4573 C 449.465 -0.743669 1.77447 0
M  V30 4574 O 448.758 -1.53345 1.14874 0
M  V30 4575 C 448.952 1.09076 3.40349 0
M  V30 4576 C 448.781 2.58775 3.67784 0
M  V30 4577 C 447.551 3.25578 3.86428 0
M  V30 4578 C 449.749 3.56966 3.70243 0
M  V30 4579 N 447.731 4.64495 4.01395 0
M  V30 4580 C 449.102 4.8145 3.90649 0
M  V30 4581 C 451.157 3.5092 3.53213 0
M  V30 4582 C 449.86 6.00619 3.95789 0
M  V30 4583 C 451.886 4.69493 3.59625 0
M  V30 4584 C 451.248 5.92786 3.80505 0
M  V30 4585 H 447.347 0.31468 0.715891 0
M  V30 4586 H 449.931 1.30295 1.44677 0
M  V30 4587 H 448.102 0.534839 3.847 0
M  V30 4588 H 449.834 0.744997 3.97784 0
M  V30 4589 H 446.589 2.76003 3.84862 0
M  V30 4590 H 447.013 5.36624 4.12752 0
M  V30 4591 H 451.655 2.56593 3.36035 0
M  V30 4592 H 449.373 6.95326 4.11762 0
M  V30 4593 H 452.959 4.66432 3.47754 0
M  V30 4594 H 451.839 6.83003 3.85327 0
M  V30 4595 N 449.342 -1.36122 0.79427 0
M  V30 4596 C 450.275 -2.27759 0.141845 0
M  V30 4597 C 451.253 -1.47471 -0.684921 0
M  V30 4598 O 452.437 -1.76759 -0.654857 0
M  V30 4599 C 449.564 -3.29008 -0.804446 0
M  V30 4600 C 448.61 -4.26459 -0.0588617 0
M  V30 4601 S 449.443 -5.20253 1.26873 0
M  V30 4602 C 450.599 -6.25048 0.326562 0
M  V30 4603 H 450.832 -2.82746 0.918818 0
M  V30 4604 H 448.365 -1.42736 0.588722 0
M  V30 4605 H 450.323 -3.87842 -1.34495 0
M  V30 4606 H 448.984 -2.72924 -1.5547 0
M  V30 4607 H 448.177 -4.97973 -0.777087 0
M  V30 4608 H 447.779 -3.71731 0.411309 0
M  V30 4609 H 450.071 -6.75705 -0.492795 0
M  V30 4610 H 451.014 -7.00852 1.01053 0
M  V30 4611 H 451.422 -5.64454 -0.0722627 0
M  V30 4612 N 450.82 -0.546701 -1.47814 0
M  V30 4613 C 451.783 0.196287 -2.28358 0
M  V30 4614 C 452.783 0.852437 -1.36346 0
M  V30 4615 O 453.973 0.709913 -1.59078 0
M  V30 4616 C 451.105 1.28579 -3.15722 0
M  V30 4617 H 452.298 -0.511086 -2.95513 0
M  V30 4618 H 449.851 -0.303248 -1.5333 0
M  V30 4619 H 450.586 2.0259 -2.53235 0
M  V30 4620 H 450.371 0.820229 -3.83425 0
M  V30 4621 H 451.861 1.80793 -3.76435 0
M  V30 4622 N 452.299 1.55045 -0.282633 0
M  V30 4623 C 453.209 2.26491 0.61147 0
M  V30 4624 C 454.225 1.29348 1.16384 0
M  V30 4625 O 455.401 1.62298 1.19253 0
M  V30 4626 C 452.466 2.97779 1.77563 0
M  V30 4627 C 451.527 4.10418 1.25919 0
M  V30 4628 C 450.76 4.78297 2.36786 0
M  V30 4629 O 450.983 4.45426 3.56303 0
M  V30 4630 O 449.917 5.66089 2.04517 0
M  V30 4631 H 453.743 3.03683 0.0324615 0
M  V30 4632 H 451.328 1.49317 -0.0497576 0
M  V30 4633 H 453.21 3.42554 2.45427 0
M  V30 4634 H 451.885 2.23498 2.34159 0
M  V30 4635 H 450.792 3.70082 0.546797 0
M  V30 4636 H 452.125 4.86622 0.738887 0
M  V30 4637 N 453.777 0.010035 1.57597 0
M  V30 4638 C 454.707 -0.976857 2.12084 0
M  V30 4639 C 455.688 -1.35191 1.03235 0
M  V30 4640 O 456.873 -1.43389 1.3097 0
M  V30 4641 C 454.003 -2.26548 2.63236 0
M  V30 4642 C 452.957 -2.03175 3.76701 0
M  V30 4643 C 452.283 -3.38138 4.14206 0
M  V30 4644 C 453.583 -1.38625 5.03568 0
M  V30 4645 H 455.277 -0.523145 2.94794 0
M  V30 4646 H 452.823 -0.250195 1.4181 0
M  V30 4647 H 454.776 -2.95952 2.99984 0
M  V30 4648 H 453.5 -2.74051 1.77661 0
M  V30 4649 H 452.159 -1.36195 3.40362 0
M  V30 4650 H 451.807 -3.83363 3.25641 0
M  V30 4651 H 451.507 -3.23312 4.90656 0
M  V30 4652 H 453.031 -4.08841 4.53521 0
M  V30 4653 H 454.445 -1.98 5.38023 0
M  V30 4654 H 452.842 -1.34256 5.84889 0
M  V30 4655 H 453.912 -0.356722 4.83586 0
M  V30 4656 N 455.255 -1.55392 -0.262866 0
M  V30 4657 C 456.165 -1.92077 -1.34698 0
M  V30 4658 C 457.181 -0.819227 -1.53508 0
M  V30 4659 O 458.357 -1.11921 -1.67439 0
M  V30 4660 C 455.422 -2.19407 -2.68443 0
M  V30 4661 C 454.483 -3.42905 -2.58292 0
M  V30 4662 C 453.716 -3.68921 -3.85659 0
M  V30 4663 O 453.939 -2.97275 -4.8681 0
M  V30 4664 O 452.873 -4.62455 -3.85252 0
M  V30 4665 H 456.699 -2.84384 -1.06581 0
M  V30 4666 H 454.284 -1.42069 -0.462264 0
M  V30 4667 H 456.166 -2.38365 -3.47506 0
M  V30 4668 H 454.841 -1.30282 -2.96325 0
M  V30 4669 H 453.748 -3.29272 -1.7757 0
M  V30 4670 H 455.081 -4.32282 -2.35358 0
M  V30 4671 N 456.733 0.527833 -1.48498 0
M  V30 4672 C 457.696 1.61439 -1.62696 0
M  V30 4673 C 458.696 1.52824 -0.500136 0
M  V30 4674 O 459.886 1.56456 -0.765976 0
M  V30 4675 C 457.018 3.01063 -1.59918 0
M  V30 4676 H 458.211 1.50189 -2.59583 0
M  V30 4677 H 455.764 0.750055 -1.37127 0
M  V30 4678 H 456.499 3.17818 -0.645163 0
M  V30 4679 H 456.284 3.08725 -2.41726 0
M  V30 4680 H 457.774 3.80057 -1.73051 0
M  V30 4681 N 458.211 1.37122 0.776871 0
M  V30 4682 C 459.457 1.32243 1.53752 0
M  V30 4683 C 459.79 -0.0944745 1.9397 0
M  V30 4684 O 459.065 -1.05068 1.6368 0
M  V30 4685 C 459.348 2.25681 2.80607 0
M  V30 4686 C 459.201 3.76127 2.46676 0
M  V30 4687 C 460.52 2.17657 3.82509 0
M  V30 4688 H 457.639 0.481704 0.557791 0
M  V30 4689 H 460.281 1.6778 0.891612 0
M  V30 4690 H 458.431 1.95505 3.35723 0
M  V30 4691 H 460.103 4.16877 1.97513 0
M  V30 4692 H 458.346 3.94946 1.79443 0
M  V30 4693 H 459.017 4.36933 3.37333 0
M  V30 4694 H 461.493 2.44245 3.36873 0
M  V30 4695 H 460.369 2.85185 4.69 0
M  V30 4696 H 460.63 1.16785 4.26396 0
M  V30 4697 N 459.689 -1.00246 1.21608 0
M  V30 4698 C 461.105 -1.26435 0.973975 0
M  V30 4699 C 461.305 -1.98642 -0.338143 0
M  V30 4700 O 460.361 -2.29026 -1.06317 0
M  V30 4701 C 461.674 -2.08551 2.16626 0
M  V30 4702 C 463.222 -2.21769 2.20879 0
M  V30 4703 C 463.697 -3.07267 3.39633 0
M  V30 4704 N 465.188 -3.14855 3.39736 0
M  V30 4705 C 465.923 -3.81274 4.28273 0
M  V30 4706 N 465.419 -4.497 5.27012 0
M  V30 4707 N 467.212 -3.7794 4.16074 0
M  V30 4708 H 459.363 -0.518089 2.05984 0
M  V30 4709 H 461.626 -0.291368 0.902113 0
M  V30 4710 H 461.332 -1.62847 3.11727 0
M  V30 4711 H 461.206 -3.09303 2.15897 0
M  V30 4712 H 463.593 -2.66691 1.26332 0
M  V30 4713 H 463.674 -1.20478 2.25652 0
M  V30 4714 H 463.318 -2.63047 4.34475 0
M  V30 4715 H 463.248 -4.08678 3.321 0
M  V30 4716 H 465.739 -2.66147 2.6828 0
M  V30 4717 H 466.052 -4.98092 5.90867 0
M  V30 4718 H 464.397 -4.48479 5.30935 0
M  V30 4719 H 467.588 -3.23638 3.38195 0
M  V30 4720 H 467.761 -4.29424 4.85282 0
M  V30 4721 N 461.167 -1.02423 -1.1978 0
M  V30 4722 C 462.392 -0.7373 -1.93852 0
M  V30 4723 C 462.817 0.696923 -1.74713 0
M  V30 4724 O 462.175 1.48056 -1.04638 0
M  V30 4725 C 462.223 -1.08783 -3.438 0
M  V30 4726 O 461.327 -0.20383 -4.11896 0
M  V30 4727 H 460.668 -0.27284 -0.605355 0
M  V30 4728 H 463.198 -1.36966 -1.51992 0
M  V30 4729 H 463.208 -1.04276 -3.9445 0
M  V30 4730 H 461.883 -2.13274 -3.57053 0
M  V30 4731 H 460.46 -0.307091 -3.71633 0
M  V30 4732 N 462.645 1.35699 -0.801477 0
M  V30 4733 C 463.893 1.9852 -0.37871 0
M  V30 4734 C 464.214 1.63907 1.05638 0
M  V30 4735 O 463.484 0.919013 1.73006 0
M  V30 4736 H 462.064 0.734322 -0.137042 0
M  V30 4737 H 464.726 1.65697 -1.02619 0
M  V30 4738 H 463.822 3.08382 -0.480284 0
M  V30 4739 N 464.123 0.554532 1.47522 0
M  V30 4740 C 465.056 -0.242442 2.26908 0
M  V30 4741 C 466.034 -0.922722 1.33883 0
M  V30 4742 O 467.218 -0.942244 1.63261 0
M  V30 4743 C 464.345 -1.34525 3.10839 0
M  V30 4744 C 463.391 -0.773805 4.19422 0
M  V30 4745 S 464.224 0.377525 5.34168 0
M  V30 4746 C 465.38 -0.727164 6.21662 0
M  V30 4747 H 465.613 0.431218 2.94156 0
M  V30 4748 H 463.146 0.3408 1.50592 0
M  V30 4749 H 465.104 -1.97683 3.59766 0
M  V30 4750 H 463.765 -1.99073 2.42958 0
M  V30 4751 H 462.958 -1.60187 4.77866 0
M  V30 4752 H 462.56 -0.218448 3.73361 0
M  V30 4753 H 464.852 -1.61992 6.57849 0
M  V30 4754 H 465.795 -0.180135 7.07871 0
M  V30 4755 H 466.203 -1.01863 5.55233 0
M  V30 4756 N 465.601 -1.54893 0.290851 0
M  V30 4757 C 466.531 -2.26103 -0.583084 0
M  V30 4758 C 467.512 -1.25684 -1.14619 0
M  V30 4759 O 468.697 -1.54436 -1.17741 0
M  V30 4760 C 465.827 -2.99409 -1.75987 0
M  V30 4761 C 464.781 -4.0689 -1.32758 0
M  V30 4762 C 464.107 -4.67856 -2.58872 0
M  V30 4763 C 465.407 -5.20215 -0.46624 0
M  V30 4764 H 467.101 -2.99398 0.0108214 0
M  V30 4765 H 464.647 -1.43998 0.00664468 0
M  V30 4766 H 466.6 -3.47943 -2.37727 0
M  V30 4767 H 465.324 -2.23675 -2.37985 0
M  V30 4768 H 463.983 -3.59191 -0.733299 0
M  V30 4769 H 463.631 -3.88772 -3.19163 0
M  V30 4770 H 463.331 -5.40438 -2.30653 0
M  V30 4771 H 464.855 -5.19147 -3.21433 0
M  V30 4772 H 466.269 -5.64704 -0.989047 0
M  V30 4773 H 464.666 -5.99455 -0.27826 0
M  V30 4774 H 465.736 -4.82198 0.511173 0
M  V30 4775 N 467.08 -0.0183926 -1.57589 0
M  V30 4776 C 468.496 0.337897 -1.55982 0
M  V30 4777 C 468.696 1.73604 -1.02294 0
M  V30 4778 O 467.752 2.43589 -0.664895 0
M  V30 4779 C 469.065 0.196305 -3.00059 0
M  V30 4780 C 470.613 0.269875 -3.11834 0
M  V30 4781 C 471.088 0.157197 -4.5773 0
M  V30 4782 N 472.579 0.214521 -4.62703 0
M  V30 4783 C 473.314 0.150955 -5.73201 0
M  V30 4784 N 472.81 0.0369212 -6.9279 0
M  V30 4785 N 474.603 0.204162 -5.61729 0
M  V30 4786 H 466.754 -0.93279 -1.90821 0
M  V30 4787 H 469.017 -0.359253 -0.877292 0
M  V30 4788 H 468.723 -0.766383 -3.43248 0
M  V30 4789 H 468.597 0.970908 -3.6449 0
M  V30 4790 H 470.984 1.22302 -2.68563 0
M  V30 4791 H 471.065 -0.534918 -2.50144 0
M  V30 4792 H 470.709 -0.792479 -5.01679 0
M  V30 4793 H 470.639 0.980717 -5.17387 0
M  V30 4794 H 473.13 0.303238 -3.76681 0
M  V30 4795 H 473.443 -0.00518321 -7.728 0
M  V30 4796 H 471.788 0.0022886 -6.95 0
M  V30 4797 H 474.979 0.291575 -4.67191 0
M  V30 4798 H 475.152 0.15116 -6.47824 0
M  V30 4799 N 468.558 1.5553 0.254621 0
M  V30 4800 C 469.488 1.9268 1.31897 0
M  V30 4801 C 470.469 0.790797 1.506 0
M  V30 4802 O 471.654 1.05045 1.63337 0
M  V30 4803 C 468.784 2.21477 2.67517 0
M  V30 4804 C 467.738 3.37256 2.63519 0
M  V30 4805 C 467.064 3.51576 4.02862 0
M  V30 4806 C 468.364 4.73157 2.21179 0
M  V30 4807 H 470.058 2.81832 1.01051 0
M  V30 4808 H 467.604 1.35599 0.484662 0
M  V30 4809 H 469.557 2.46055 3.42104 0
M  V30 4810 H 468.281 1.29144 2.99982 0
M  V30 4811 H 466.94 3.12675 1.9139 0
M  V30 4812 H 466.588 2.56676 4.32581 0
M  V30 4813 H 466.288 4.2943 4.01078 0
M  V30 4814 H 467.812 3.78467 4.79161 0
M  V30 4815 H 469.226 4.97158 2.85494 0
M  V30 4816 H 467.623 5.54058 2.30521 0
M  V30 4817 H 468.693 4.70739 1.16332 0
M  V30 4818 N 470.036 -0.519951 1.48776 0
M  V30 4819 C 471.452 -0.849418 1.35119 0
M  V30 4820 C 471.652 -1.98077 0.36982 0
M  V30 4821 O 470.708 -2.51664 -0.205359 0
M  V30 4822 C 472.021 -1.20748 2.75391 0
M  V30 4823 C 473.569 -1.31679 2.83954 0
M  V30 4824 C 474.044 -1.70824 4.24951 0
M  V30 4825 N 475.535 -1.77908 4.27672 0
M  V30 4826 C 476.27 -2.09603 5.33717 0
M  V30 4827 N 475.766 -2.39652 6.5003 0
M  V30 4828 N 477.559 -2.10694 5.21119 0
M  V30 4829 H 469.71 0.226377 2.1119 0
M  V30 4830 H 471.973 0.0386519 0.947212 0
M  V30 4831 H 471.679 -0.449703 3.48813 0
M  V30 4832 H 471.553 -2.15534 3.09556 0
M  V30 4833 H 473.94 -2.06532 2.10781 0
M  V30 4834 H 474.021 -0.3499 2.53396 0
M  V30 4835 H 473.665 -0.965282 4.98643 0
M  V30 4836 H 473.595 -2.6858 4.52959 0
M  V30 4837 H 476.086 -1.56923 3.43779 0
M  V30 4838 H 476.399 -2.6297 7.26682 0
M  V30 4839 H 474.744 -2.37149 6.53288 0
M  V30 4840 H 477.935 -1.86682 4.29264 0
M  V30 4841 H 478.108 -2.35062 6.03863 0
M  V30 4842 N 471.514 -1.37532 -0.769588 0
M  V30 4843 C 472.424 -1.35668 -1.91393 0
M  V30 4844 C 473.44 -0.255954 -1.72107 0
M  V30 4845 O 474.616 -0.491704 -1.95305 0
M  V30 4846 C 471.681 -1.16481 -3.26547 0
M  V30 4847 C 470.742 -2.36212 -3.58472 0
M  V30 4848 C 469.975 -2.17932 -4.87177 0
M  V30 4849 O 470.198 -1.1647 -5.58382 0
M  V30 4850 O 469.132 -3.06167 -5.18214 0
M  V30 4851 H 472.958 -2.32055 -1.95918 0
M  V30 4852 H 470.543 -1.18284 -0.912641 0
M  V30 4853 H 472.425 -1.07778 -4.07384 0
M  V30 4854 H 471.1 -0.231687 -3.2287 0
M  V30 4855 H 470.007 -2.50488 -2.77861 0
M  V30 4856 H 471.34 -3.281 -3.66894 0
M  V30 4857 N 472.992 0.995999 -1.22138 0
M  V30 4858 C 473.924 2.08745 -0.946485 0
M  V30 4859 C 474.937 1.62633 0.0737356 0
M  V30 4860 O 476.126 1.77782 -0.159886 0
M  V30 4861 C 473.226 3.36516 -0.401305 0
M  V30 4862 C 472.399 4.11672 -1.47801 0
M  V30 4863 C 471.458 5.17728 -0.940461 0
M  V30 4864 O 470.484 5.45482 -1.62596 0
M  V30 4865 N 471.686 5.80005 0.239723 0
M  V30 4866 H 474.451 2.32908 -1.88611 0
M  V30 4867 H 472.012 1.16152 -1.12785 0
M  V30 4868 H 474.004 4.04691 -0.0270837 0
M  V30 4869 H 472.574 3.0944 0.443354 0
M  V30 4870 H 471.794 3.38171 -2.02568 0
M  V30 4871 H 473.082 4.58657 -2.20253 0
M  V30 4872 H 472.48 5.5982 0.813518 0
M  V30 4873 H 471.037 6.4943 0.555361 0
M  V30 4874 N 474.47 1.03057 1.19235 0
M  V30 4875 C 475.4 0.633497 2.24742 0
M  V30 4876 C 476.381 -0.358335 1.66283 0
M  V30 4877 O 477.566 -0.240676 1.92703 0
M  V30 4878 C 474.696 -0.0147648 3.47297 0
M  V30 4879 C 473.65 0.899527 4.18441 0
M  V30 4880 C 472.976 0.116281 5.34574 0
M  V30 4881 C 474.276 2.21404 4.73051 0
M  V30 4882 H 475.97 1.5155 2.58211 0
M  V30 4883 H 473.516 0.73014 1.24117 0
M  V30 4884 H 475.469 -0.304202 4.20301 0
M  V30 4885 H 474.193 -0.931577 3.13032 0
M  V30 4886 H 472.852 1.17319 3.47321 0
M  V30 4887 H 472.5 -0.802619 4.96555 0
M  V30 4888 H 472.2 0.725293 5.83107 0
M  V30 4889 H 473.724 -0.166376 6.10373 0
M  V30 4890 H 475.138 1.98601 5.37802 0
M  V30 4891 H 473.535 2.77512 5.32078 0
M  V30 4892 H 474.605 2.86752 3.91026 0
M  V30 4893 N 475.948 -1.35272 0.808662 0
M  V30 4894 C 476.911 -2.28082 0.226093 0
M  V30 4895 C 477.911 -1.49673 -0.587762 0
M  V30 4896 O 479.101 -1.69404 -0.405943 0
M  V30 4897 C 476.233 -3.33955 -0.684596 0
M  V30 4898 H 477.426 -2.81116 1.04469 0
M  V30 4899 H 474.979 -1.45162 0.579466 0
M  V30 4900 H 475.714 -2.86111 -1.5268 0
M  V30 4901 H 475.499 -3.91965 -0.102699 0
M  V30 4902 H 476.989 -4.03219 -1.08646 0
M  V30 4903 N 477.426 -0.562348 -1.47226 0
M  V30 4904 C 478.674 -0.0401371 -2.0206 0
M  V30 4905 C 478.995 1.3165 -1.43852 0
M  V30 4906 O 478.265 1.85976 -0.615599 0
M  V30 4907 H 476.845 -0.0118479 -0.746906 0
M  V30 4908 H 479.507 -0.73352 -1.8057 0
M  V30 4909 H 478.603 0.0441254 -3.12069 0
M  V30 4910 N 478.904 1.54736 -0.299062 0
M  V30 4911 C 479.814 2.27127 0.587413 0
M  V30 4912 C 480.83 1.30575 1.15005 0
M  V30 4913 O 482.006 1.63554 1.17525 0
M  V30 4914 C 479.071 2.99645 1.74395 0
M  V30 4915 C 478.132 4.11731 1.21559 0
M  V30 4916 C 477.365 4.80781 2.317 0
M  V30 4917 O 477.588 4.4918 3.51558 0
M  V30 4918 O 476.522 5.68226 1.98501 0
M  V30 4919 H 480.348 3.037 0.000250109 0
M  V30 4920 H 477.933 1.49256 -0.0655919 0
M  V30 4921 H 479.815 3.45138 2.4178 0
M  V30 4922 H 478.49 2.25969 2.31775 0
M  V30 4923 H 477.397 3.70641 0.507514 0
M  V30 4924 H 478.73 4.87379 0.687233 0
M  V30 4925 N 480.382 0.0267497 1.57577 0
M  V30 4926 C 481.312 -0.954308 2.13108 0
M  V30 4927 C 482.293 -1.34088 1.04663 0
M  V30 4928 O 483.478 -1.41992 1.32484 0
M  V30 4929 C 480.608 -2.23744 2.65624 0
M  V30 4930 C 479.562 -1.99168 3.78835 0
M  V30 4931 C 478.888 -3.33726 4.17769 0
M  V30 4932 C 480.188 -1.33277 5.0501 0
M  V30 4933 H 481.882 -0.491848 2.95332 0
M  V30 4934 H 479.428 -0.23514 1.42067 0
M  V30 4935 H 481.381 -2.92754 3.03106 0
M  V30 4936 H 480.105 -2.72151 1.80558 0
M  V30 4937 H 478.764 -1.32577 3.41788 0
M  V30 4938 H 478.412 -3.79888 3.29688 0
M  V30 4939 H 478.112 -3.18089 4.94058 0
M  V30 4940 H 479.636 -4.04008 4.57832 0
M  V30 4941 H 481.05 -1.92283 5.40093 0
M  V30 4942 H 479.447 -1.28045 5.8628 0
M  V30 4943 H 480.517 -0.305411 4.83937 0
M  V30 4944 N 481.861 -1.55662 -0.24637 0
M  V30 4945 C 483.277 -1.48098 -0.594907 0
M  V30 4946 C 483.477 -0.717044 -1.8831 0
M  V30 4947 O 482.533 -0.246618 -2.51293 0
M  V30 4948 C 483.846 -2.92507 -0.697146 0
M  V30 4949 C 485.394 -3.02881 -0.789436 0
M  V30 4950 C 485.869 -4.48598 -0.923232 0
M  V30 4951 N 487.36 -4.52538 -0.988088 0
M  V30 4952 C 488.095 -5.62536 -1.11089 0
M  V30 4953 N 487.591 -6.82342 -1.19919 0
M  V30 4954 N 489.384 -5.50334 -1.14408 0
M  V30 4955 H 481.535 -2.0377 0.599278 0
M  V30 4956 H 483.798 -0.925145 0.20691 0
M  V30 4957 H 483.504 -3.51242 0.179396 0
M  V30 4958 H 483.378 -3.43024 -1.5689 0
M  V30 4959 H 485.765 -2.44226 -1.65643 0
M  V30 4960 H 485.846 -2.55574 0.107482 0
M  V30 4961 H 485.49 -5.07864 -0.0607927 0
M  V30 4962 H 485.42 -4.93587 -1.8352 0
M  V30 4963 H 487.911 -3.66248 -0.931167 0
M  V30 4964 H 488.224 -7.61924 -1.29197 0
M  V30 4965 H 486.569 -6.85102 -1.16876 0
M  V30 4966 H 489.76 -4.5567 -1.07158 0
M  V30 4967 H 489.933 -6.36096 -1.23634 0
M  V30 4968 N 483.339 0.512053 -1.4905 0
M  V30 4969 C 484.616 1.27337 -1.48474 0
M  V30 4970 C 484.996 2.1009 -0.206301 0
M  V30 4971 O 484.344 2.136 0.811609 0
M  V30 4972 C 484.554 2.13954 -2.75726 0
M  V30 4973 C 485.902 2.73507 -3.24776 0
M  V30 4974 O 486.926 2.24229 -2.76767 0
M  V30 4975 O 485.785 3.63186 -4.08361 0
M  V30 4976 H 482.879 0.575652 -0.593762 0
M  V30 4977 H 485.425 0.527232 -1.61302 0
M  V30 4978 H 484.197 1.52709 -3.60272 0
M  V30 4979 H 483.82 2.95782 -2.65705 0
M  V30 4980 N 484.817 1.37938 0.762283 0
M  V30 4981 C 485.747 1.37176 1.88958 0
M  V30 4982 C 486.728 0.238945 1.68413 0
M  V30 4983 O 487.913 0.440726 1.89133 0
M  V30 4984 C 485.043 1.18742 3.2637 0
M  V30 4985 C 483.997 2.29136 3.61498 0
M  V30 4986 C 483.323 1.95816 4.97554 0
M  V30 4987 C 484.623 3.71363 3.6727 0
M  V30 4988 H 486.317 2.31509 1.89853 0
M  V30 4989 H 483.863 1.11438 0.912005 0
M  V30 4990 H 485.816 1.16837 4.04879 0
M  V30 4991 H 484.54 0.208683 3.25933 0
M  V30 4992 H 483.199 2.30213 2.85303 0
M  V30 4993 H 482.847 0.964475 4.93667 0
M  V30 4994 H 482.547 2.69745 5.22026 0
M  V30 4995 H 484.071 1.95513 5.78452 0
M  V30 4996 H 485.485 3.72364 4.35911 0
M  V30 4997 H 483.882 4.44425 4.03245 0
M  V30 4998 H 484.952 4.04305 2.67704 0
M  V30 4999 N 486.295 -0.989507 1.22664 0
M  V30 5000 C 487.52 -1.77031 1.08051 0
M  V30 5001 C 487.945 -1.84535 -0.364483 0
M  V30 5002 O 487.303 -1.3003 -1.2634 0
M  V30 5003 C 487.351 -3.18 1.70024 0
M  V30 5004 O 486.455 -4.01161 0.956216 0
M  V30 5005 H 485.796 -0.545008 0.379292 0
M  V30 5006 H 488.326 -1.24277 1.62531 0
M  V30 5007 H 488.336 -3.68616 1.74888 0
M  V30 5008 H 487.011 -3.11853 2.75174 0
M  V30 5009 H 485.588 -3.59687 0.98384 0
M  V30 5010 N 487.773 -1.03688 -1.18687 0
M  V30 5011 C 489.021 -0.736572 -1.88199 0
M  V30 5012 C 489.342 0.737665 -1.80509 0
M  V30 5013 O 488.612 1.53204 -1.22088 0
M  V30 5014 H 487.192 -0.269466 -0.696704 0
M  V30 5015 H 489.854 -1.31282 -1.44052 0
M  V30 5016 H 488.95 -1.03802 -2.94332 0
M  V30 5017 N 489.251 1.34841 -0.815825 0
M  V30 5018 C 490.476 2.03261 -0.41226 0
M  V30 5019 C 490.901 1.61055 0.971751 0
M  V30 5020 O 490.259 0.7917 1.63101 0
M  V30 5021 C 490.307 3.56914 -0.514289 0
M  V30 5022 O 489.411 4.09728 0.468675 0
M  V30 5023 H 488.752 0.641664 -0.170771 0
M  V30 5024 H 491.282 1.72241 -1.10427 0
M  V30 5025 H 491.292 4.06156 -0.387457 0
M  V30 5026 H 489.967 3.86982 -1.52375 0
M  V30 5027 H 488.544 3.71681 0.301316 0
M  V30 5028 N 490.729 0.570148 1.46925 0
M  V30 5029 C 492.006 -0.0153259 1.95594 0
M  V30 5030 C 492.386 -1.47232 1.51281 0
M  V30 5031 O 491.734 -2.15574 0.757624 0
M  V30 5032 C 491.944 0.143624 3.48704 0
M  V30 5033 C 493.292 0.00494484 4.246 0
M  V30 5034 O 494.316 0.0718214 3.56128 0
M  V30 5035 O 493.175 -0.141175 5.46318 0
M  V30 5036 H 490.269 -0.0568819 0.825041 0
M  V30 5037 H 492.815 0.637583 1.57267 0
M  V30 5038 H 491.587 1.15699 3.73804 0
M  V30 5039 H 491.21 -0.5463 3.93829 0
M  V30 5040 N 492.207 -1.54576 0.307264 0
M  V30 5041 C 493.623 -1.59534 -0.0459251 0
M  V30 5042 C 493.823 -1.32414 -1.51884 0
M  V30 5043 O 492.879 -1.1006 -2.27251 0
M  V30 5044 C 494.192 -2.98566 0.357649 0
M  V30 5045 C 495.74 -3.11491 0.306937 0
M  V30 5046 C 496.215 -4.52842 0.685427 0
M  V30 5047 N 497.706 -4.58782 0.638203 0
M  V30 5048 C 498.441 -5.66238 0.903458 0
M  V30 5049 N 497.937 -6.81703 1.23501 0
M  V30 5050 N 499.73 -5.55937 0.830102 0
M  V30 5051 H 491.881 -1.70464 1.26712 0
M  V30 5052 H 494.144 -0.79647 0.514139 0
M  V30 5053 H 493.85 -3.23356 1.38325 0
M  V30 5054 H 493.724 -3.76117 -0.285565 0
M  V30 5055 H 496.111 -2.86446 -0.709424 0
M  V30 5056 H 496.192 -2.36081 0.984861 0
M  V30 5057 H 495.836 -4.78618 1.69963 0
M  V30 5058 H 495.766 -5.26598 -0.0146346 0
M  V30 5059 H 498.257 -3.75849 0.393138 0
M  V30 5060 H 498.57 -7.59582 1.42322 0
M  V30 5061 H 496.915 -6.8324 1.27311 0
M  V30 5062 H 500.106 -4.64608 0.570693 0
M  V30 5063 H 500.279 -6.39597 1.04019 0
M  V30 5064 N 493.685 -0.035106 -1.57561 0
M  V30 5065 C 494.932 0.642229 -1.92046 0
M  V30 5066 C 495.26 1.7179 -0.91206 0
M  V30 5067 O 494.515 1.95544 0.0781153 0
M  V30 5068 C 494.814 1.29149 -3.3325 0
M  V30 5069 C 494.48 0.345604 -4.49574 0
M  V30 5070 C 493.142 0.0852775 -4.81124 0
M  V30 5071 C 495.494 -0.303569 -5.20315 0
M  V30 5072 C 492.822 -0.831927 -5.80772 0
M  V30 5073 C 495.174 -1.20886 -6.20942 0
M  V30 5074 C 493.838 -1.47802 -6.50931 0
M  V30 5075 H 493.108 0.235008 -0.702746 0
M  V30 5076 H 495.755 -0.0981529 -1.91248 0
M  V30 5077 H 494.06 2.10676 -3.30337 0
M  V30 5078 H 495.757 1.82223 -3.57205 0
M  V30 5079 H 492.347 0.558683 -4.24943 0
M  V30 5080 H 496.531 -0.115515 -4.96166 0
M  V30 5081 H 491.787 -1.0481 -6.02349 0
M  V30 5082 H 495.961 -1.71804 -6.74875 0
M  V30 5083 H 493.588 -2.19039 -7.2796 0
M  V30 5084 N 495.163 1.55791 0.238111 0
M  V30 5085 C 496.411 1.77681 0.963001 0
M  V30 5086 C 496.732 0.600674 1.85518 0
M  V30 5087 O 496.002 -0.383182 1.92116 0
M  V30 5088 H 494.582 0.655315 0.358568 0
M  V30 5089 H 497.244 1.93239 0.253945 0
M  V30 5090 H 496.34 2.69177 1.57956 0
M  V30 5091 N 496.642 -0.504142 1.49319 0
M  V30 5092 C 497.889 -1.25846 1.58647 0
M  V30 5093 C 498.217 -1.92592 0.27177 0
M  V30 5094 O 497.472 -1.81167 -0.74007 0
M  V30 5095 C 497.771 -2.35021 2.69258 0
M  V30 5096 C 497.437 -1.85755 4.1086 0
M  V30 5097 C 496.099 -1.72038 4.49395 0
M  V30 5098 C 498.451 -1.48844 4.99495 0
M  V30 5099 C 495.779 -1.19783 5.74342 0
M  V30 5100 C 498.131 -0.980422 6.24956 0
M  V30 5101 C 496.795 -0.829622 6.62324 0
M  V30 5102 H 496.065 -0.460505 0.580531 0
M  V30 5103 H 498.712 -0.559716 1.83138 0
M  V30 5104 H 497.017 -3.10672 2.38726 0
M  V30 5105 H 498.714 -2.93083 2.73685 0
M  V30 5106 H 495.304 -1.9739 3.80441 0
M  V30 5107 H 499.488 -1.5829 4.70381 0
M  V30 5108 H 494.744 -1.06817 6.01997 0
M  V30 5109 H 498.918 -0.685608 6.93017 0
M  V30 5110 H 496.545 -0.42253 7.59025 0
M  V30 5111 N 498.12 -1.38341 -0.754957 0
M  V30 5112 C 499.366 -1.34672 -1.51628 0
M  V30 5113 C 499.699 0.0636036 -1.94096 0
M  V30 5114 O 498.974 1.0245 -1.6533 0
M  V30 5115 C 499.257 -2.30116 -2.76981 0
M  V30 5116 C 499.11 -3.80003 -2.4066 0
M  V30 5117 C 500.429 -2.23715 -3.78998 0
M  V30 5118 H 497.548 -0.490517 -0.550056 0
M  V30 5119 H 500.19 -1.69178 -0.864807 0
M  V30 5120 H 498.34 -2.00821 -3.3257 0
M  V30 5121 H 500.012 -4.19966 -1.90856 0
M  V30 5122 H 498.255 -3.97751 -1.73137 0
M  V30 5123 H 498.926 -4.42244 -3.30339 0
M  V30 5124 H 501.402 -2.49574 -3.32945 0
M  V30 5125 H 500.278 -2.9261 -4.64403 0
M  V30 5126 H 500.539 -1.23554 -4.24484 0
M  V30 5127 N 499.598 0.982988 -1.23187 0
M  V30 5128 C 500.561 2.05649 -1.01198 0
M  V30 5129 C 501.561 1.6078 0.0252464 0
M  V30 5130 O 502.751 1.72878 -0.214243 0
M  V30 5131 C 499.883 3.36744 -0.530656 0
M  V30 5132 H 501.076 2.2659 -1.96461 0
M  V30 5133 H 498.629 1.15602 -1.05195 0
M  V30 5134 H 499.364 3.21492 0.425873 0
M  V30 5135 H 499.149 3.7065 -1.2791 0
M  V30 5136 H 500.639 4.15705 -0.397366 0
M  V30 5137 N 501.076 1.04316 1.18135 0
M  V30 5138 C 501.986 0.646876 2.25505 0
M  V30 5139 C 503.002 -0.328008 1.7088 0
M  V30 5140 O 504.178 -0.182309 2.00573 0
M  V30 5141 C 501.243 0.0185664 3.46695 0
M  V30 5142 C 500.304 1.04277 4.16443 0
M  V30 5143 C 499.537 0.444352 5.31847 0
M  V30 5144 O 499.76 -0.748735 5.65465 0
M  V30 5145 O 498.694 1.17428 5.90334 0
M  V30 5146 H 502.52 1.54147 2.61672 0
M  V30 5147 H 500.105 0.814188 1.25265 0
M  V30 5148 H 501.987 -0.331068 4.20097 0
M  V30 5149 H 500.662 -0.849814 3.12346 0
M  V30 5150 H 499.569 1.44425 3.45098 0
M  V30 5151 H 500.902 1.882 4.54798 0
M  V30 5152 N 502.554 -1.34406 0.822964 0
M  V30 5153 C 503.504 -2.26963 0.217208 0
M  V30 5154 C 504.488 -1.48536 -0.618545 0
M  V30 5155 O 505.68 -1.7056 -0.473118 0
M  V30 5156 C 502.809 -3.37655 -0.619973 0
M  V30 5157 C 501.895 -4.23495 0.226411 0
M  V30 5158 N 502.286 -4.88876 1.29744 0
M  V30 5159 C 500.584 -4.45999 0.0107554 0
M  V30 5160 C 501.285 -5.52642 1.81553 0
M  V30 5161 N 500.261 -5.31949 1.11942 0
M  V30 5162 H 504.063 -2.75017 1.03647 0
M  V30 5163 H 501.577 -1.48126 0.665777 0
M  V30 5164 H 503.574 -4.02932 -1.07011 0
M  V30 5165 H 502.234 -2.91151 -1.43739 0
M  V30 5166 H 503.245 -4.89886 1.68024 0
M  V30 5167 H 499.922 -4.10253 -0.774495 0
M  V30 5168 H 501.312 -6.14755 2.71156 0
M  V30 5169 N 504.032 -0.577932 -1.46621 0
M  V30 5170 C 505.448 -0.239242 -1.57797 0
M  V30 5171 C 505.648 1.25843 -1.57371 0
M  V30 5172 O 504.704 2.03988 -1.48813 0
M  V30 5173 C 506.017 -0.884227 -2.87405 0
M  V30 5174 C 507.565 -0.857373 -3.01028 0
M  V30 5175 C 508.04 -1.48181 -4.33366 0
M  V30 5176 N 509.531 -1.44593 -4.40053 0
M  V30 5177 C 510.266 -1.89852 -5.41058 0
M  V30 5178 N 509.762 -2.43062 -6.48762 0
M  V30 5179 N 511.555 -1.80797 -5.3223 0
M  V30 5180 H 503.706 -1.55073 -1.45142 0
M  V30 5181 H 505.969 -0.647903 -0.692044 0
M  V30 5182 H 505.675 -1.93759 -2.93514 0
M  V30 5183 H 505.549 -0.389585 -3.75183 0
M  V30 5184 H 507.936 0.187357 -2.94505 0
M  V30 5185 H 508.017 -1.38999 -2.14739 0
M  V30 5186 H 507.661 -2.52572 -4.40647 0
M  V30 5187 H 507.591 -0.924464 -5.18422 0
M  V30 5188 H 510.082 -1.05694 -3.62819 0
M  V30 5189 H 510.395 -2.75466 -7.22038 0
M  V30 5190 H 508.74 -2.47085 -6.49595 0
M  V30 5191 H 511.931 -1.38989 -4.46989 0
M  V30 5192 H 512.104 -2.16385 -6.10804 0
M  V30 5193 N 505.51 1.54411 -0.315457 0
M  V30 5194 C 506.758 2.00023 0.288971 0
M  V30 5195 C 507.079 1.20529 1.5329 0
M  V30 5196 O 506.349 0.304986 1.93511 0
M  V30 5197 H 504.929 0.738891 0.109766 0
M  V30 5198 H 507.591 1.90094 -0.430129 0
M  V30 5199 H 506.687 3.07198 0.550999 0
M  V30 5200 N 506.988 0.0434614 1.5754 0
M  V30 5201 C 507.921 -0.968729 2.06618 0
M  V30 5202 C 508.899 -1.30868 0.965 0
M  V30 5203 O 510.083 -1.42288 1.23638 0
M  V30 5204 C 507.21 -2.28486 2.50023 0
M  V30 5205 C 506.256 -2.09851 3.71302 0
M  V30 5206 S 507.089 -1.38401 5.17306 0
M  V30 5207 C 508.245 -2.71354 5.64019 0
M  V30 5208 H 508.478 -0.551021 2.92149 0
M  V30 5209 H 506.011 -0.168607 1.53477 0
M  V30 5210 H 507.969 -3.04142 2.75695 0
M  V30 5211 H 506.63 -2.67387 1.64812 0
M  V30 5212 H 505.823 -3.07184 3.99567 0
M  V30 5213 H 505.425 -1.42336 3.45856 0
M  V30 5214 H 507.717 -3.67549 5.69134 0
M  V30 5215 H 508.66 -2.47734 6.6335 0
M  V30 5216 H 509.068 -2.77259 4.91719 0
M  V30 5217 N 508.466 -1.55915 -0.229846 0
M  V30 5218 C 509.713 -1.78542 -0.955452 0
M  V30 5219 C 510.041 -0.610785 -1.84661 0
M  V30 5220 O 509.296 0.405213 -1.91459 0
M  V30 5221 C 509.595 -3.06845 -1.8325 0
M  V30 5222 C 509.261 -4.37395 -1.09528 0
M  V30 5223 C 507.923 -4.72868 -0.891598 0
M  V30 5224 C 510.275 -5.18029 -0.574046 0
M  V30 5225 C 507.603 -5.86496 -0.154655 0
M  V30 5226 C 509.955 -6.32423 0.149513 0
M  V30 5227 C 508.619 -6.66504 0.364519 0
M  V30 5228 H 507.889 -0.653333 -0.349625 0
M  V30 5229 H 510.536 -1.90183 -0.224235 0
M  V30 5230 H 508.841 -2.90291 -2.63132 0
M  V30 5231 H 510.538 -3.21553 -2.39592 0
M  V30 5232 H 507.128 -4.09538 -1.26399 0
M  V30 5233 H 511.312 -4.91066 -0.718899 0
M  V30 5234 H 506.568 -6.11396 0.0222356 0
M  V30 5235 H 510.742 -6.94137 0.560947 0
M  V30 5236 H 508.369 -7.54397 0.937495 0
M  V30 5237 N 509.944 0.496216 -1.49584 0
M  V30 5238 C 511.169 1.27865 -1.63295 0
M  V30 5239 C 511.594 1.85592 -0.306156 0
M  V30 5240 O 510.952 1.66092 0.726851 0
M  V30 5241 C 511 2.38128 -2.7079 0
M  V30 5242 O 510.104 3.42108 -2.30296 0
M  V30 5243 H 509.445 0.377279 -0.546403 0
M  V30 5244 H 511.975 0.593497 -1.95803 0
M  V30 5245 H 511.985 2.8382 -2.93104 0
M  V30 5246 H 510.66 1.95479 -3.67098 0
M  V30 5247 H 509.237 3.02301 -2.18331 0
M  V30 5248 N 511.423 1.38739 0.74761 0
M  V30 5249 C 512.839 1.20067 1.05148 0
M  V30 5250 C 513.039 0.0534835 2.01429 0
M  V30 5251 O 512.095 -0.59886 2.45296 0
M  V30 5252 C 513.408 2.52957 1.62584 0
M  V30 5253 C 514.956 2.59692 1.74726 0
M  V30 5254 C 515.431 3.92772 2.35573 0
M  V30 5255 N 516.922 3.94343 2.42997 0
M  V30 5256 C 517.657 4.9408 2.90985 0
M  V30 5257 N 517.153 6.04214 3.38965 0
M  V30 5258 N 518.946 4.81466 2.9008 0
M  V30 5259 H 511.097 2.12121 0.108808 0
M  V30 5260 H 513.36 0.941491 0.110899 0
M  V30 5261 H 513.066 3.37389 0.993051 0
M  V30 5262 H 512.94 2.71779 2.61565 0
M  V30 5263 H 515.327 1.75651 2.3713 0
M  V30 5264 H 515.408 2.44731 0.744326 0
M  V30 5265 H 515.052 4.77238 1.738 0
M  V30 5266 H 514.982 4.05046 3.36519 0
M  V30 5267 H 517.473 3.14799 2.0907 0
M  V30 5268 H 517.786 6.76241 3.74056 0
M  V30 5269 H 516.131 6.07825 3.37007 0
M  V30 5270 H 519.322 3.94535 2.51912 0
M  V30 5271 H 519.495 5.59344 3.27166 0
M  V30 5272 N 512.901 -0.976442 1.23707 0
M  V30 5273 C 513.831 -2.08749 1.04624 0
M  V30 5274 C 514.812 -1.70057 -0.0380956 0
M  V30 5275 O 515.997 -1.93782 0.127308 0
M  V30 5276 C 513.127 -3.41335 0.640902 0
M  V30 5277 C 512.081 -3.93947 1.67302 0
M  V30 5278 C 511.407 -5.22774 1.12301 0
M  V30 5279 C 512.707 -4.22769 3.06697 0
M  V30 5280 H 514.401 -2.24972 1.97555 0
M  V30 5281 H 511.947 -1.08108 0.951247 0
M  V30 5282 H 513.9 -4.18489 0.494434 0
M  V30 5283 H 512.624 -3.24988 -0.324099 0
M  V30 5284 H 511.283 -3.18941 1.80755 0
M  V30 5285 H 510.931 -5.0278 0.148877 0
M  V30 5286 H 510.631 -5.58942 1.81267 0
M  V30 5287 H 512.155 -6.02546 0.988479 0
M  V30 5288 H 513.569 -4.90659 2.96524 0
M  V30 5289 H 511.966 -4.70147 3.72937 0
M  V30 5290 H 513.036 -3.29885 3.55392 0
M  V30 5291 N 514.379 -1.04941 -1.1758 0
M  V30 5292 C 515.627 -0.756492 -1.87408 0
M  V30 5293 C 515.948 0.718478 -1.81281 0
M  V30 5294 O 515.218 1.519 -1.23706 0
M  V30 5295 H 513.798 -0.276841 -0.693807 0
M  V30 5296 H 516.46 -1.32803 -1.42652 0
M  V30 5297 H 515.556 -1.06918 -2.93215 0
M  V30 5298 N 515.857 1.33968 -0.830081 0
M  V30 5299 C 516.82 2.27694 -0.26235 0
M  V30 5300 C 517.82 1.50589 0.563876 0
M  V30 5301 O 519.01 1.70028 0.378941 0
M  V30 5302 C 516.142 3.35002 0.63138 0
M  V30 5303 H 517.335 2.79419 -1.08928 0
M  V30 5304 H 514.888 1.44221 -0.602486 0
M  V30 5305 H 515.623 2.88504 1.48109 0
M  V30 5306 H 515.408 3.92079 0.0403276 0
M  V30 5307 H 516.898 4.04897 1.02217 0
M  V30 5308 N 517.335 0.585699 1.46312 0
M  V30 5309 C 518.563 0.0781299 2.06752 0
M  V30 5310 C 518.978 -1.22812 1.43396 0
M  V30 5311 O 518.335 -1.74318 0.540314 0
M  V30 5312 C 518.386 -0.0911927 3.61385 0
M  V30 5313 O 518.107 1.16336 4.22371 0
M  V30 5314 C 519.608 -0.632765 4.38761 0
M  V30 5315 H 516.828 0.0588188 0.668417 0
M  V30 5316 H 519.372 0.807218 1.87894 0
M  V30 5317 H 517.527 -0.770514 3.7966 0
M  V30 5318 H 517.941 0.979082 5.15281 0
M  V30 5319 H 519.415 -0.70041 5.47538 0
M  V30 5320 H 519.892 -1.65039 4.07012 0
M  V30 5321 H 520.498 0.0117856 4.25298 0
M  V30 5322 N 518.813 -1.54241 0.323641 0
M  V30 5323 C 520.224 -1.85975 -0.164405 0
M  V30 5324 C 520.575 -1.24529 -1.51615 0
M  V30 5325 O 519.7 -0.551351 -2.09258 0
M  V30 5326 C 520.295 -3.37424 -0.305091 0
M  V30 5327 C 518.854 -3.69107 -0.737358 0
M  V30 5328 C 518.001 -2.76942 0.140884 0
M  V30 5329 H 520.952 -1.49088 0.543922 0
M  V30 5330 H 520.973 -3.63147 -1.13598 0
M  V30 5331 H 520.485 -3.82116 0.678876 0
M  V30 5332 H 518.586 -3.29947 -1.73107 0
M  V30 5333 H 518.699 -4.76035 -0.541053 0
M  V30 5334 H 517.063 -2.51795 -0.383572 0
M  V30 5335 H 517.846 -3.24461 1.12162 0
M  V30 5336 N 520.291 -0.0518155 -1.57515 0
M  V30 5337 C 521.201 0.937539 -2.15052 0
M  V30 5338 C 522.217 1.34121 -1.10849 0
M  V30 5339 O 523.393 1.418 -1.4302 0
M  V30 5340 C 520.458 2.19379 -2.68466 0
M  V30 5341 C 519.519 1.84841 -3.87469 0
M  V30 5342 C 518.752 3.04477 -4.38326 0
M  V30 5343 O 518.975 4.17868 -3.88256 0
M  V30 5344 O 517.909 2.85453 -5.29906 0
M  V30 5345 H 521.735 0.478201 -2.99912 0
M  V30 5346 H 519.32 0.17012 -1.48428 0
M  V30 5347 H 521.202 2.93084 -3.02787 0
M  V30 5348 H 519.877 2.64449 -1.86677 0
M  V30 5349 H 518.784 1.08449 -3.58036 0
M  V30 5350 H 520.117 1.44569 -4.7049 0
M  V30 5351 N 521.769 1.56035 0.221574 0
M  V30 5352 C 522.701 1.889 1.29805 0
M  V30 5353 C 523.714 0.777269 1.43047 0
M  V30 5354 O 524.903 1.05557 1.43945 0
M  V30 5355 C 522.003 2.0825 2.67367 0
M  V30 5356 C 521.176 3.39267 2.76073 0
M  V30 5357 C 520.235 3.48049 3.94649 0
M  V30 5358 O 519.261 4.2108 3.82988 0
M  V30 5359 N 520.463 2.79191 5.08953 0
M  V30 5360 H 523.228 2.81831 1.01938 0
M  V30 5361 H 520.789 1.5658 0.411612 0
M  V30 5362 H 522.781 2.11441 3.45072 0
M  V30 5363 H 521.351 1.21944 2.87834 0
M  V30 5364 H 520.571 3.48175 1.84846 0
M  V30 5365 H 521.859 4.25575 2.7886 0
M  V30 5366 H 521.257 2.19635 5.21322 0
M  V30 5367 H 519.814 2.88043 5.84701 0
M  V30 5368 N 523.247 -0.488276 1.49845 0
M  V30 5369 C 524.493 -1.24341 1.6021 0
M  V30 5370 C 524.826 -1.91967 0.293651 0
M  V30 5371 O 524.101 -1.81323 -0.703718 0
M  V30 5372 C 524.384 -2.3005 2.77036 0
M  V30 5373 C 524.237 -1.66842 4.17713 0
M  V30 5374 C 525.556 -3.31509 2.89464 0
M  V30 5375 H 522.675 -0.450704 0.583125 0
M  V30 5376 H 525.317 -0.539673 1.82174 0
M  V30 5377 H 523.467 -2.90071 2.58439 0
M  V30 5378 H 525.139 -1.1055 4.47858 0
M  V30 5379 H 523.382 -0.972079 4.22768 0
M  V30 5380 H 524.053 -2.43576 4.95353 0
M  V30 5381 H 526.529 -2.81493 3.06433 0
M  V30 5382 H 525.405 -4.02822 3.72861 0
M  V30 5383 H 525.666 -3.94603 1.99351 0
M  V30 5384 N 524.725 -1.39134 -0.740242 0
M  V30 5385 C 525.672 -1.37434 -1.8542 0
M  V30 5386 C 526.642 -0.234822 -1.64432 0
M  V30 5387 O 527.827 -0.429125 -1.85912 0
M  V30 5388 C 524.967 -1.21844 -3.22875 0
M  V30 5389 C 524.08 -2.45296 -3.55603 0
M  V30 5390 C 523.215 -2.22334 -4.82432 0
M  V30 5391 C 522.254 -3.41488 -5.07988 0
M  V30 5392 N 521.391 -3.17877 -6.26018 0
M  V30 5393 H 526.231 -2.3266 -1.86207 0
M  V30 5394 H 523.768 -1.15578 -0.909946 0
M  V30 5395 H 525.726 -1.10818 -4.02213 0
M  V30 5396 H 524.356 -0.3025 -3.21379 0
M  V30 5397 H 523.408 -2.66945 -2.71006 0
M  V30 5398 H 524.72 -3.34063 -3.7041 0
M  V30 5399 H 523.874 -2.0852 -5.69741 0
M  V30 5400 H 522.613 -1.30954 -4.6979 0
M  V30 5401 H 521.618 -3.55807 -4.19144 0
M  V30 5402 H 522.843 -4.33763 -5.22519 0
M  V30 5403 H 520.789 -2.29156 -6.14673 0
M  V30 5404 H 520.706 -4.00198 -6.41387 0
M  V30 5405 H 521.974 -3.07746 -7.16179 0
M  V30 5406 N 526.204 0.969867 -1.24223 0
M  V30 5407 C 527.62 1.23809 -1.00716 0
M  V30 5408 C 527.82 1.99469 0.285358 0
M  V30 5409 O 526.876 2.31764 1.00207 0
M  V30 5410 C 528.189 2.02734 -2.2208 0
M  V30 5411 C 529.737 2.15834 -2.26681 0
M  V30 5412 C 530.212 2.98154 -3.47661 0
M  V30 5413 N 531.703 3.05737 -3.47964 0
M  V30 5414 C 532.438 3.69785 -4.38231 0
M  V30 5415 N 531.934 4.35569 -5.3875 0
M  V30 5416 N 533.727 3.66775 -4.25949 0
M  V30 5417 H 525.878 0.463294 -2.07286 0
M  V30 5418 H 528.141 0.267348 -0.909521 0
M  V30 5419 H 527.847 1.54524 -3.15935 0
M  V30 5420 H 527.721 3.0347 -2.24021 0
M  V30 5421 H 530.108 2.63248 -1.33359 0
M  V30 5422 H 530.189 1.14453 -2.28767 0
M  V30 5423 H 529.833 2.51435 -4.41297 0
M  V30 5424 H 529.763 3.99729 -3.42818 0
M  V30 5425 H 532.254 2.58941 -2.75242 0
M  V30 5426 H 532.567 4.82251 -6.03866 0
M  V30 5427 H 530.912 4.34244 -5.42639 0
M  V30 5428 H 534.103 3.14558 -3.46657 0
M  V30 5429 H 534.276 4.16407 -4.96497 0
M  V30 5430 N 527.682 1.05563 1.17022 0
M  V30 5431 C 528.931 0.763036 1.8671 0
M  V30 5432 C 529.244 -0.712857 1.82147 0
M  V30 5433 O 530.45 -1.11955 2.47343 0
M  V30 5434 C 528.906 1.31474 3.35026 0
M  V30 5435 C 528.514 2.82034 3.48081 0
M  V30 5436 C 530.258 1.09935 4.10018 0
M  V30 5437 C 528.165 3.30486 4.90442 0
M  V30 5438 H 527.095 0.281747 0.699382 0
M  V30 5439 H 529.746 1.2734 1.32124 0
M  V30 5440 H 528.128 0.732171 3.89173 0
M  V30 5441 H 529.302 3.46178 3.04133 0
M  V30 5442 H 527.617 3.02156 2.86515 0
M  V30 5443 H 530.214 1.43632 5.15048 0
M  V30 5444 H 530.557 0.0373072 4.16283 0
M  V30 5445 H 531.09 1.64732 3.62089 0
M  V30 5446 H 527.829 4.36137 4.89352 0
M  V30 5447 H 527.349 2.71086 5.35044 0
M  V30 5448 H 529.028 3.25382 5.59227 0
M  V30 5449 N 529.16 -1.33526 0.837174 0
M  V30 5450 C 530.107 -2.29248 0.267169 0
M  V30 5451 C 531.077 -1.54252 -0.616071 0
M  V30 5452 O 532.262 -1.82559 -0.554699 0
M  V30 5453 C 529.402 -3.40638 -0.553152 0
M  V30 5454 C 528.515 -4.30548 0.353921 0
M  V30 5455 C 527.65 -5.29051 -0.477339 0
M  V30 5456 C 526.689 -6.106 0.42823 0
M  V30 5457 N 525.826 -7.01152 -0.364801 0
M  V30 5458 H 530.666 -2.77398 1.08877 0
M  V30 5459 H 528.203 -1.36496 0.54838 0
M  V30 5460 H 530.161 -4.03921 -1.04422 0
M  V30 5461 H 528.791 -2.93685 -1.33973 0
M  V30 5462 H 527.843 -3.68001 0.963289 0
M  V30 5463 H 529.155 -4.87631 1.04964 0
M  V30 5464 H 528.309 -5.97853 -1.0323 0
M  V30 5465 H 527.048 -4.72541 -1.2065 0
M  V30 5466 H 526.053 -5.40718 0.995219 0
M  V30 5467 H 527.278 -6.69193 1.15573 0
M  V30 5468 H 525.224 -6.47092 -1.07738 0
M  V30 5469 H 525.141 -7.5551 0.272238 0
M  V30 5470 H 526.409 -7.74263 -0.902054 0
M  V30 5471 N 530.638 -0.59345 -1.46 0
M  V30 5472 C 531.548 0.135817 -2.34207 0
M  V30 5473 C 532.564 0.875008 -1.50398 0
M  V30 5474 O 533.74 0.835778 -1.83239 0
M  V30 5475 C 530.805 1.12977 -3.27776 0
M  V30 5476 C 529.866 0.394081 -4.27487 0
M  V30 5477 C 529.099 1.34068 -5.16586 0
M  V30 5478 O 529.322 2.5778 -5.08828 0
M  V30 5479 O 528.256 0.845426 -5.95933 0
M  V30 5480 H 532.082 -0.588691 -2.9794 0
M  V30 5481 H 529.667 -0.353784 -1.45151 0
M  V30 5482 H 531.549 1.70261 -3.85473 0
M  V30 5483 H 530.224 1.83556 -2.66625 0
M  V30 5484 H 529.131 -0.220869 -3.73447 0
M  V30 5485 H 530.464 -0.270939 -4.91454 0
M  V30 5486 N 532.116 1.54067 -0.331816 0
M  V30 5487 C 533.026 2.28322 0.539104 0
M  V30 5488 C 534.042 1.32985 1.1221 0
M  V30 5489 O 535.218 1.6601 1.1403 0
M  V30 5490 C 532.283 3.03277 1.68 0
M  V30 5491 C 531.344 4.14216 1.12798 0
M  V30 5492 C 530.577 4.85588 2.2145 0
M  V30 5493 O 530.8 4.56536 3.41952 0
M  V30 5494 O 529.734 5.72309 1.86404 0
M  V30 5495 H 533.56 3.03632 -0.0641692 0
M  V30 5496 H 531.145 1.49083 -0.0972365 0
M  V30 5497 H 533.027 3.50189 2.34405 0
M  V30 5498 H 531.702 2.30834 2.2693 0
M  V30 5499 H 530.609 3.71635 0.428782 0
M  V30 5500 H 531.942 4.88727 0.583698 0
M  V30 5501 N 533.594 0.0601682 1.57485 0
M  V30 5502 C 534.841 -0.611594 1.93043 0
M  V30 5503 C 535.169 -1.70317 0.939274 0
M  V30 5504 O 534.424 -1.95644 -0.046996 0
M  V30 5505 C 534.723 -1.23831 3.35262 0
M  V30 5506 C 534.389 -0.274037 4.50066 0
M  V30 5507 C 533.051 -0.00872394 4.81199 0
M  V30 5508 C 535.403 0.386308 5.19766 0
M  V30 5509 C 532.731 0.924218 5.79375 0
M  V30 5510 C 535.083 1.3075 6.1894 0
M  V30 5511 C 533.747 1.58139 6.48497 0
M  V30 5512 H 533.017 -0.223798 0.706396 0
M  V30 5513 H 535.664 0.128566 1.91068 0
M  V30 5514 H 533.969 -2.05394 3.33647 0
M  V30 5515 H 535.666 -1.76517 3.60059 0
M  V30 5516 H 532.256 -0.491008 4.25778 0
M  V30 5517 H 536.44 0.194436 4.95919 0
M  V30 5518 H 531.696 1.1438 6.00606 0
M  V30 5519 H 535.87 1.82519 6.72056 0
M  V30 5520 H 533.497 2.30593 7.24383 0
M  V30 5521 N 535.072 -1.5615 -0.213296 0
M  V30 5522 C 536.32 -1.79191 -0.934612 0
M  V30 5523 C 536.641 -0.630112 -1.84539 0
M  V30 5524 O 535.911 0.35257 -1.92701 0
M  V30 5525 H 534.491 -0.660937 -0.348097 0
M  V30 5526 H 537.153 -1.93618 -0.22317 0
M  V30 5527 H 536.249 -2.71656 -1.53654 0
M  V30 5528 N 536.55 0.480323 -1.50102 0
M  V30 5529 C 537.799 1.22979 -1.59872 0
M  V30 5530 C 538.112 1.93282 -0.30022 0
M  V30 5531 O 539.318 2.70086 -0.276709 0
M  V30 5532 C 537.774 2.23408 -2.82164 0
M  V30 5533 C 537.382 1.5895 -4.18854 0
M  V30 5534 C 539.126 2.99055 -3.01275 0
M  V30 5535 C 537.033 2.57611 -5.32344 0
M  V30 5536 H 535.963 0.462707 -0.59533 0
M  V30 5537 H 538.614 0.501291 -1.7652 0
M  V30 5538 H 536.996 2.99511 -2.59055 0
M  V30 5539 H 538.17 0.887 -4.52182 0
M  V30 5540 H 536.485 0.956191 -4.05273 0
M  V30 5541 H 539.082 3.72876 -3.83233 0
M  V30 5542 H 539.425 3.57897 -2.12639 0
M  V30 5543 H 539.958 2.30066 -3.24522 0
M  V30 5544 H 536.697 2.03521 -6.23105 0
M  V30 5545 H 536.217 3.26041 -5.03445 0
M  V30 5546 H 537.896 3.19627 -5.62537 0
M  V30 5547 N 538.028 1.39524 0.732853 0
M  V30 5548 C 539.258 1.3994 1.51988 0
M  V30 5549 C 539.666 -0.00727973 1.89199 0
M  V30 5550 O 539.009 -0.989521 1.54771 0
M  V30 5551 C 539.071 2.21026 2.83527 0
M  V30 5552 C 538.735 3.69633 2.68738 0
M  V30 5553 C 539.732 4.62665 2.37143 0
M  V30 5554 C 537.417 4.13244 2.85542 0
M  V30 5555 C 539.411 5.97291 2.22536 0
M  V30 5556 C 537.098 5.47945 2.70554 0
M  V30 5557 C 538.096 6.39783 2.39097 0
M  V30 5558 O 537.784 7.72002 2.24204 0
M  V30 5559 H 537.516 0.479795 0.476206 0
M  V30 5560 H 540.07 1.8399 0.913054 0
M  V30 5561 H 538.3 1.71728 3.46477 0
M  V30 5562 H 539.989 2.13594 3.45156 0
M  V30 5563 H 540.755 4.30272 2.2381 0
M  V30 5564 H 536.634 3.42094 3.09019 0
M  V30 5565 H 540.178 6.68939 1.97905 0
M  V30 5566 H 536.075 5.79928 2.83466 0
M  V30 5567 H 536.843 7.8275 2.39258 0
M  V30 5568 N 539.506 -0.963266 1.24736 0
M  V30 5569 C 540.439 -2.05758 0.986852 0
M  V30 5570 C 541.417 -1.62398 -0.0809272 0
M  V30 5571 O 542.601 -1.88414 0.0569347 0
M  V30 5572 C 539.728 -3.35135 0.490095 0
M  V30 5573 C 538.774 -3.97451 1.54709 0
M  V30 5574 S 539.607 -4.34519 3.12976 0
M  V30 5575 C 540.763 -5.67026 2.65014 0
M  V30 5576 H 540.996 -2.27539 1.91346 0
M  V30 5577 H 538.529 -1.10176 1.08169 0
M  V30 5578 H 540.487 -4.09962 0.21012 0
M  V30 5579 H 539.148 -3.11335 -0.415873 0
M  V30 5580 H 538.341 -4.90704 1.15003 0
M  V30 5581 H 537.943 -3.29071 1.77731 0
M  V30 5582 H 540.235 -6.44748 2.08102 0
M  V30 5583 H 541.178 -6.11594 3.56873 0
M  V30 5584 H 541.586 -5.25847 2.05294 0
M  V30 5585 N 540.985 -1.06182 -1.16461 0
M  V30 5586 C 542.231 -0.779015 -1.87241 0
M  V30 5587 C 542.564 0.692715 -1.81425 0
M  V30 5588 O 541.839 1.5074 -1.22913 0
M  V30 5589 C 542.122 -1.2728 -3.36856 0
M  V30 5590 C 541.975 -2.80821 -3.51368 0
M  V30 5591 C 543.294 -0.879799 -4.31216 0
M  V30 5592 H 540.413 -0.284464 -0.679889 0
M  V30 5593 H 543.055 -1.31755 -1.36896 0
M  V30 5594 H 541.205 -0.814673 -3.79862 0
M  V30 5595 H 542.877 -3.34833 -3.17308 0
M  V30 5596 H 541.12 -3.19606 -2.93316 0
M  V30 5597 H 541.791 -3.10435 -4.56436 0
M  V30 5598 H 544.267 -1.27436 -3.96105 0
M  V30 5599 H 543.143 -1.25278 -5.34412 0
M  V30 5600 H 543.404 0.215372 -4.41575 0
M  V30 5601 N 542.463 1.3308 -0.844243 0
M  V30 5602 C 543.711 1.97215 -0.441676 0
M  V30 5603 C 544.032 1.67185 1.0037 0
M  V30 5604 O 543.302 0.973588 1.69994 0
M  V30 5605 H 541.882 0.72959 -0.160335 0
M  V30 5606 H 544.544 1.62348 -1.07838 0
M  V30 5607 H 543.64 3.06698 -0.57815 0
M  V30 5608 N 543.941 0.601185 1.45683 0
M  V30 5609 C 545.218 0.0261659 1.95582 0
M  V30 5610 C 545.598 -1.4399 1.5437 0
M  V30 5611 O 544.946 -2.13919 0.80318 0
M  V30 5612 C 545.156 0.217557 3.48321 0
M  V30 5613 C 546.504 0.0950076 4.24494 0
M  V30 5614 O 547.528 0.147345 3.55895 0
M  V30 5615 O 546.387 -0.025261 5.46494 0
M  V30 5616 H 543.481 -0.0393688 0.826062 0
M  V30 5617 H 546.027 0.670798 1.55879 0
M  V30 5618 H 544.799 1.23601 3.71266 0
M  V30 5619 H 544.422 -0.46264 3.94899 0
M  V30 5620 N 545.419 -1.53889 0.339982 0
M  V30 5621 C 546.644 -2.05741 -0.261798 0
M  V30 5622 C 547.069 -1.21354 -1.43718 0
M  V30 5623 O 546.427 -0.22645 -1.7988 0
M  V30 5624 C 546.475 -3.54542 -0.658228 0
M  V30 5625 O 545.579 -3.7302 -1.75869 0
M  V30 5626 H 544.92 -0.662529 -0.0441672 0
M  V30 5627 H 547.45 -1.98568 0.493161 0
M  V30 5628 H 547.46 -3.9711 -0.936368 0
M  V30 5629 H 546.135 -4.15412 0.201358 0
M  V30 5630 H 544.712 -3.42355 -1.47809 0
M  V30 5631 N 546.897 -0.0685191 -1.57451 0
M  V30 5632 C 548.313 0.288101 -1.56978 0
M  V30 5633 C 548.513 1.70262 -1.07765 0
M  V30 5634 O 547.569 2.4135 -0.742054 0
M  V30 5635 C 548.882 0.100745 -3.00531 0
M  V30 5636 C 550.43 0.170531 -3.12535 0
M  V30 5637 C 550.905 0.0114944 -4.57999 0
M  V30 5638 N 552.396 0.0672065 -4.63151 0
M  V30 5639 C 553.131 -0.0314813 -5.73391 0
M  V30 5640 N 552.627 -0.183503 -6.92557 0
M  V30 5641 N 554.42 0.0253489 -5.62094 0
M  V30 5642 H 546.571 -0.993026 -1.87757 0
M  V30 5643 H 548.834 -0.386981 -0.865419 0
M  V30 5644 H 548.54 -0.875197 -3.40636 0
M  V30 5645 H 548.414 0.854457 -3.67395 0
M  V30 5646 H 550.801 1.13696 -2.72318 0
M  V30 5647 H 550.882 -0.614229 -2.48316 0
M  V30 5648 H 550.526 -0.951684 -4.98904 0
M  V30 5649 H 550.456 0.815617 -5.20245 0
M  V30 5650 H 552.947 0.183246 -3.77455 0
M  V30 5651 H 553.26 -0.251041 -7.72392 0
M  V30 5652 H 551.605 -0.218822 -6.94655 0
M  V30 5653 H 554.796 0.142794 -4.67882 0
M  V30 5654 H 554.969 -0.0550166 -6.47977 0
M  V30 5655 N 548.375 1.56261 0.205012 0
M  V30 5656 C 549.624 1.79236 0.925058 0
M  V30 5657 C 549.937 0.640011 1.84833 0
M  V30 5658 O 551.143 0.753809 2.60826 0
M  V30 5659 C 549.599 3.17475 1.69522 0
M  V30 5660 C 549.207 4.40482 0.817269 0
M  V30 5661 C 550.951 3.49766 2.4055 0
M  V30 5662 C 548.858 5.69744 1.58573 0
M  V30 5663 H 547.788 0.668287 0.349153 0
M  V30 5664 H 550.439 1.82629 0.178544 0
M  V30 5665 H 548.821 3.08304 2.48526 0
M  V30 5666 H 549.995 4.60752 0.0665988 0
M  V30 5667 H 548.31 4.15827 0.218316 0
M  V30 5668 H 550.907 4.43573 2.98575 0
M  V30 5669 H 551.25 2.73041 3.14252 0
M  V30 5670 H 551.783 3.60341 1.68522 0
M  V30 5671 H 548.522 6.49407 0.891679 0
M  V30 5672 H 548.042 5.53509 2.31059 0
M  V30 5673 H 549.721 6.1051 2.14212 0
M  V30 5674 N 549.853 -0.472356 1.50355 0
M  V30 5675 C 550.801 -1.59126 1.69651 0
M  V30 5676 C 551.795 -1.59793 0.56237 0
M  V30 5677 O 553.001 -1.63957 0.742832 0
M  V30 5678 H 549.376 -0.528008 0.535454 0
M  V30 5679 H 551.347 -1.40013 2.63513 0
M  V30 5680 C 550.096 -2.97075 1.8067 0
M  V30 5681 H 549.419 -2.9728 2.67329 0
M  V30 5682 H 550.859 -3.74825 1.98197 0
M  V30 5683 C 549.318 -3.32247 0.558016 0
M  V30 5684 O 549.848 -4.00553 -0.303399 0
M  V30 5685 N 548.054 -2.87659 0.412415 0
M  V30 5686 H 547.601 -2.32246 1.11443 0
M  V30 5687 H 547.559 -3.11556 -0.421908 0
M  V30 5688 N 551.331 -1.39911 -0.725443 0
M  V30 5689 C 552.58 -1.36963 -1.48068 0
M  V30 5690 C 552.893 0.0284478 -1.95579 0
M  V30 5691 O 554.099 0.180535 -2.70899 0
M  V30 5692 C 552.555 -2.40664 -2.67598 0
M  V30 5693 C 552.163 -3.86234 -2.26997 0
M  V30 5694 C 553.907 -2.46807 -3.45379 0
M  V30 5695 C 551.814 -4.81554 -3.43307 0
M  V30 5696 H 550.744 -0.509223 -0.556065 0
M  V30 5697 H 553.395 -1.65602 -0.790454 0
M  V30 5698 H 551.777 -2.05109 -3.38742 0
M  V30 5699 H 552.951 -4.3088 -1.63337 0
M  V30 5700 H 551.266 -3.83475 -1.62284 0
M  V30 5701 H 553.863 -3.15213 -4.31909 0
M  V30 5702 H 554.206 -1.49552 -3.8851 0
M  V30 5703 H 554.739 -2.81303 -2.81271 0
M  V30 5704 H 551.478 -5.80106 -3.05217 0
M  V30 5705 H 550.998 -4.4158 -4.05915 0
M  V30 5706 H 552.677 -5.0091 -4.0951 0
M  V30 5707 N 552.809 0.956637 -1.25245 0
M  V30 5708 C 553.772 2.03457 -1.05537 0
M  V30 5709 C 554.772 1.60798 -0.00886317 0
M  V30 5710 O 555.962 1.72384 -0.250865 0
M  V30 5711 C 553.094 3.35543 -0.601965 0
M  V30 5712 H 554.287 2.22372 -2.01223 0
M  V30 5713 H 551.84 1.13344 -1.07623 0
M  V30 5714 H 552.575 3.22323 0.357584 0
M  V30 5715 H 552.36 3.67854 -1.35743 0
M  V30 5716 H 553.85 4.14769 -0.485454 0
M  V30 5717 N 554.287 1.06798 1.15896 0
M  V30 5718 C 555.535 0.786211 1.8618 0
M  V30 5719 C 555.856 -0.689547 1.82401 0
M  V30 5720 O 555.126 -1.49913 1.26107 0
M  V30 5721 H 553.706 0.287843 0.689315 0
M  V30 5722 H 556.368 1.35055 1.40521 0
M  V30 5723 H 555.464 1.1157 2.91477 0
M  V30 5724 N 555.766 -1.3263 0.851289 0
M  V30 5725 C 556.696 -2.31449 0.308771 0
M  V30 5726 C 557.677 -1.59531 -0.590255 0
M  V30 5727 O 558.862 -1.87351 -0.511205 0
M  V30 5728 C 555.992 -3.43586 -0.506548 0
M  V30 5729 C 554.946 -4.26963 0.297753 0
M  V30 5730 C 554.272 -5.30831 -0.642094 0
M  V30 5731 C 555.572 -4.99643 1.52166 0
M  V30 5732 H 557.266 -2.77074 1.13447 0
M  V30 5733 H 554.812 -1.33207 0.546971 0
M  V30 5734 H 556.765 -4.11754 -0.896474 0
M  V30 5735 H 555.489 -2.96681 -1.36558 0
M  V30 5736 H 554.148 -3.60437 0.669391 0
M  V30 5737 H 553.796 -4.8018 -1.49788 0
M  V30 5738 H 553.496 -5.87501 -0.107968 0
M  V30 5739 H 555.02 -6.01862 -1.02927 0
M  V30 5740 H 556.434 -5.6051 1.20421 0
M  V30 5741 H 554.831 -5.66022 1.99347 0
M  V30 5742 H 555.901 -4.27701 2.28474 0
M  V30 5743 N 557.244 -0.608902 -1.45362 0
M  V30 5744 C 558.192 0.121639 -2.32282 0
M  V30 5745 C 559.186 0.858301 -1.46046 0
M  V30 5746 O 560.392 0.773718 -1.62523 0
M  V30 5747 H 556.767 0.058086 -0.749753 0
M  V30 5748 H 558.738 -0.629866 -2.91677 0
M  V30 5749 C 557.487 1.1047 -3.29684 0
M  V30 5750 H 556.81 0.547278 -3.96036 0
M  V30 5751 H 558.25 1.58576 -3.9323 0
M  V30 5752 C 556.709 2.17891 -2.56954 0
M  V30 5753 O 557.239 3.25652 -2.35189 0
M  V30 5754 N 555.445 1.93211 -2.17066 0
M  V30 5755 H 554.992 1.05584 -2.34967 0
M  V30 5756 H 554.95 2.6529 -1.68727 0
M  V30 5757 N 558.722 1.53707 -0.348139 0
M  V30 5758 C 559.999 1.93247 0.302475 0
M  V30 5759 C 560.379 1.28012 1.67857 0
M  V30 5760 O 559.727 0.43274 2.24365 0
M  V30 5761 C 559.937 3.47031 0.370159 0
M  V30 5762 C 561.285 4.20066 0.61882 0
M  V30 5763 O 562.309 3.53319 0.452087 0
M  V30 5764 O 561.168 5.38318 0.94215 0
M  V30 5765 H 558.262 0.807736 0.177458 0
M  V30 5766 H 560.808 1.64927 -0.399651 0
M  V30 5767 H 559.58 3.86745 -0.59534 0
M  V30 5768 H 559.203 3.81532 1.11888 0
M  V30 5769 N 560.2 0.0768682 1.57412 0
M  V30 5770 C 561.148 -0.906229 2.1422 0
M  V30 5771 C 562.142 -1.30477 1.08037 0
M  V30 5772 O 563.348 -1.28143 1.2641 0
M  V30 5773 H 559.723 -0.310207 0.685037 0
M  V30 5774 H 561.694 -0.402228 2.95677 0
M  V30 5775 C 560.443 -2.16245 2.72274 0
M  V30 5776 H 559.766 -1.86463 3.53655 0
M  V30 5777 H 561.206 -2.83134 3.15613 0
M  V30 5778 C 559.665 -2.92437 1.67279 0
M  V30 5779 O 560.195 -3.86322 1.10081 0
M  V30 5780 N 558.401 -2.55637 1.38195 0
M  V30 5781 H 557.948 -1.79363 1.84897 0
M  V30 5782 H 557.906 -3.06919 0.681787 0
M  V30 5783 N 561.678 -1.56367 -0.196722 0
M  V30 5784 C 562.906 -1.84639 -0.933608 0
M  V30 5785 C 563.321 -0.659164 -1.76919 0
M  V30 5786 O 562.678 0.372142 -1.78665 0
M  V30 5787 C 562.729 -3.11694 -1.83109 0
M  V30 5788 O 562.45 -4.25838 -1.02924 0
M  V30 5789 C 563.951 -3.53132 -2.67979 0
M  V30 5790 H 561.171 -0.613188 -0.272473 0
M  V30 5791 H 563.715 -2.03475 -0.204465 0
M  V30 5792 H 561.87 -2.94759 -2.51387 0
M  V30 5793 H 562.284 -4.98178 -1.64069 0
M  V30 5794 H 563.758 -4.45005 -3.26611 0
M  V30 5795 H 564.235 -2.76045 -3.41608 0
M  V30 5796 H 564.841 -3.72592 -2.05074 0
M  V30 5797 N 563.156 0.464375 -1.50603 0
M  V30 5798 C 564.405 1.21277 -1.61167 0
M  V30 5799 C 564.718 1.92953 -0.320704 0
M  V30 5800 O 565.924 2.69778 -0.30534 0
M  V30 5801 C 564.38 2.20403 -2.84518 0
M  V30 5802 C 563.988 1.54499 -4.20516 0
M  V30 5803 C 565.732 2.95843 -3.0443 0
M  V30 5804 C 563.639 2.51951 -5.35047 0
M  V30 5805 H 562.569 0.456367 -0.600204 0
M  V30 5806 H 565.22 0.48254 -1.77042 0
M  V30 5807 H 563.602 2.96746 -2.62217 0
M  V30 5808 H 564.776 0.83899 -4.53098 0
M  V30 5809 H 563.091 0.913152 -4.06264 0
M  V30 5810 H 565.688 3.6879 -3.87167 0
M  V30 5811 H 566.031 3.55622 -2.16423 0
M  V30 5812 H 566.564 2.26611 -3.26944 0
M  V30 5813 H 563.303 1.96901 -6.25228 0
M  V30 5814 H 562.823 3.20683 -5.06875 0
M  V30 5815 H 564.502 3.13643 -5.65895 0
M  V30 5816 N 564.634 1.40294 0.718013 0
M  V30 5817 C 566.045 1.34289 1.29705 0
M  V30 5818 C 566.396 0.0152228 1.96194 0
M  V30 5819 O 565.521 -0.88682 1.97394 0
M  V30 5820 C 566.116 2.43219 2.3586 0
M  V30 5821 C 564.675 2.40682 2.89394 0
M  V30 5822 C 563.822 2.24223 1.63154 0
M  V30 5823 H 566.773 1.50135 0.514312 0
M  V30 5824 H 566.794 2.10986 3.16647 0
M  V30 5825 H 566.306 3.39836 1.87439 0
M  V30 5826 H 564.407 1.47756 3.42051 0
M  V30 5827 H 564.52 3.36177 3.41353 0
M  V30 5828 H 562.884 1.71696 1.88129 0
M  V30 5829 H 563.667 3.22834 1.16761 0
M  V30 5830 N 566.112 -0.949982 1.2575 0
M  V30 5831 C 567.361 -1.68956 1.10168 0
M  V30 5832 C 567.674 -1.92327 -0.356309 0
M  V30 5833 O 568.88 -2.64026 -0.632657 0
M  V30 5834 C 567.336 -3.04196 1.92336 0
M  V30 5835 C 566.944 -2.88603 3.42655 0
M  V30 5836 C 568.688 -3.81904 1.85336 0
M  V30 5837 C 566.595 -4.19262 4.17101 0
M  V30 5838 H 565.525 -0.633645 0.408668 0
M  V30 5839 H 568.176 -1.05719 1.49986 0
M  V30 5840 H 566.558 -3.68363 1.45344 0
M  V30 5841 H 567.732 -2.3334 3.97353 0
M  V30 5842 H 566.047 -2.24345 3.50796 0
M  V30 5843 H 568.644 -4.78688 2.38248 0
M  V30 5844 H 568.987 -4.08099 0.822226 0
M  V30 5845 H 569.52 -3.24495 2.30104 0
M  V30 5846 H 566.259 -3.98254 5.20648 0
M  V30 5847 H 565.779 -4.74273 3.67186 0
M  V30 5848 H 567.458 -4.87775 4.25071 0
M  V30 5849 N 567.59 -1.07411 -1.15328 0
M  V30 5850 C 568.52 -0.716472 -2.22236 0
M  V30 5851 C 569.501 0.296373 -1.67498 0
M  V30 5852 O 570.686 0.168989 -1.93463 0
M  V30 5853 C 567.816 -0.114142 -3.47112 0
M  V30 5854 C 566.77 -1.05421 -4.14814 0
M  V30 5855 C 566.096 -0.314604 -5.33774 0
M  V30 5856 C 567.396 -2.38808 -4.64508 0
M  V30 5857 H 569.09 -1.61029 -2.52408 0
M  V30 5858 H 566.636 -0.775702 -1.21321 0
M  V30 5859 H 568.589 0.148001 -4.2114 0
M  V30 5860 H 567.313 0.814755 -3.16274 0
M  V30 5861 H 565.972 -1.30128 -3.42728 0
M  V30 5862 H 565.62 0.617772 -4.99192 0
M  V30 5863 H 565.32 -0.941209 -5.80013 0
M  V30 5864 H 566.844 -0.0602747 -6.1057 0
M  V30 5865 H 568.258 -2.18424 -5.3006 0
M  V30 5866 H 566.655 -2.97069 -5.21412 0
M  V30 5867 H 567.725 -3.01067 -3.80114 0
M  V30 5868 N 569.068 1.32177 -0.85831 0
M  V30 5869 C 570.031 2.27086 -0.310588 0
M  V30 5870 C 571.031 1.51751 0.531806 0
M  V30 5871 O 572.221 1.70794 0.34279 0
M  V30 5872 C 569.353 3.36266 0.560179 0
M  V30 5873 H 570.546 2.77045 -1.1483 0
M  V30 5874 H 568.099 1.42911 -0.632942 0
M  V30 5875 H 568.834 2.9158 1.41956 0
M  V30 5876 H 568.619 3.92077 -0.0428473 0
M  V30 5877 H 570.109 4.06974 0.936056 0
M  V30 5878 N 570.547 0.616602 1.45037 0
M  V30 5879 C 571.963 0.280994 1.57107 0
M  V30 5880 C 572.163 -1.21627 1.60653 0
M  V30 5881 O 571.219 -1.9997 1.54169 0
M  V30 5882 C 572.532 0.960116 2.8496 0
M  V30 5883 C 574.08 0.936884 2.98649 0
M  V30 5884 C 574.555 1.59619 4.29285 0
M  V30 5885 N 576.046 1.5621 4.36065 0
M  V30 5886 C 576.781 2.04131 5.35834 0
M  V30 5887 N 576.277 2.60177 6.4209 0
M  V30 5888 N 578.07 1.94845 5.27249 0
M  V30 5889 H 570.221 1.58867 1.40979 0
M  V30 5890 H 572.484 0.666024 0.674623 0
M  V30 5891 H 572.19 2.01473 2.88273 0
M  V30 5892 H 572.064 0.488921 3.74018 0
M  V30 5893 H 574.451 -0.109209 2.94898 0
M  V30 5894 H 574.532 1.44643 2.10979 0
M  V30 5895 H 574.176 2.64166 4.33796 0
M  V30 5896 H 574.106 1.06159 5.15789 0
M  V30 5897 H 576.597 1.15276 3.59889 0
M  V30 5898 H 576.91 2.94513 7.1448 0
M  V30 5899 H 575.255 2.64221 6.42816 0
M  V30 5900 H 578.446 1.50792 4.43147 0
M  V30 5901 H 578.619 2.32504 6.04852 0
M  V30 5902 N 572.025 -1.5352 0.356285 0
M  V30 5903 C 572.988 -2.24071 -0.482182 0
M  V30 5904 C 573.988 -1.24531 -1.01729 0
M  V30 5905 O 575.178 -1.48876 -0.904513 0
M  V30 5906 C 572.31 -2.97025 -1.67299 0
M  V30 5907 H 573.503 -2.99596 0.135031 0
M  V30 5908 H 571.056 -1.55928 0.107825 0
M  V30 5909 H 571.791 -2.25719 -2.32855 0
M  V30 5910 H 571.576 -3.7005 -1.29636 0
M  V30 5911 H 573.066 -3.50683 -2.26741 0
M  V30 5912 N 573.503 -0.0852151 -1.57369 0
M  V30 5913 C 574.752 0.580443 -1.93168 0
M  V30 5914 C 575.065 1.6995 -0.968319 0
M  V30 5915 O 576.271 2.42564 -1.21963 0
M  V30 5916 C 574.727 1.08386 -3.43192 0
M  V30 5917 C 574.335 -0.00491388 -4.48 0
M  V30 5918 C 576.079 1.72281 -3.87968 0
M  V30 5919 C 573.986 0.513299 -5.89168 0
M  V30 5920 H 572.916 0.22059 -0.72101 0
M  V30 5921 H 575.567 -0.159621 -1.82804 0
M  V30 5922 H 573.949 1.8773 -3.48674 0
M  V30 5923 H 575.123 -0.780032 -4.5415 0
M  V30 5924 H 573.438 -0.548453 -4.12772 0
M  V30 5925 H 576.035 2.12108 -4.9083 0
M  V30 5926 H 576.378 2.58811 -3.26071 0
M  V30 5927 H 576.911 0.995359 -3.85146 0
M  V30 5928 H 573.65 -0.315153 -6.54742 0
M  V30 5929 H 573.17 1.25564 -5.8651 0
M  V30 5930 H 574.849 0.985433 -6.39451 0
M  V30 5931 N 574.981 1.5647 0.188427 0
M  V30 5932 C 576.23 1.80207 0.905995 0
M  V30 5933 C 576.543 0.659579 1.84144 0
M  V30 5934 O 577.749 0.781431 2.60011 0
M  V30 5935 C 576.205 3.19255 1.66145 0
M  V30 5936 C 575.813 4.41324 0.770504 0
M  V30 5937 C 577.557 3.52298 2.36826 0
M  V30 5938 C 575.464 5.71394 1.52521 0
M  V30 5939 H 574.394 0.671953 0.342045 0
M  V30 5940 H 577.045 1.82808 0.159164 0
M  V30 5941 H 575.427 3.10922 2.45242 0
M  V30 5942 H 576.601 4.60797 0.0177261 0
M  V30 5943 H 574.916 4.16035 0.174199 0
M  V30 5944 H 577.513 4.46715 2.93854 0
M  V30 5945 H 577.856 2.76359 3.11338 0
M  V30 5946 H 578.389 3.62108 1.6469 0
M  V30 5947 H 575.128 6.50316 0.82275 0
M  V30 5948 H 574.648 5.55928 2.25175 0
M  V30 5949 H 576.327 6.12747 2.07725 0
M  V30 5950 N 576.459 -0.456382 1.50847 0
M  V30 5951 C 577.369 -1.57805 1.73594 0
M  V30 5952 C 578.385 -1.62599 0.619476 0
M  V30 5953 O 579.561 -1.80195 0.899532 0
M  V30 5954 C 576.626 -2.93926 1.8387 0
M  V30 5955 C 575.687 -2.99402 3.07663 0
M  V30 5956 C 574.92 -4.29031 3.1744 0
M  V30 5957 O 575.143 -5.20358 2.33631 0
M  V30 5958 O 574.077 -4.40401 4.10281 0
M  V30 5959 H 577.903 -1.41531 2.68705 0
M  V30 5960 H 575.488 -0.637422 1.3512 0
M  V30 5961 H 577.37 -3.74747 1.92725 0
M  V30 5962 H 576.045 -3.10368 0.91944 0
M  V30 5963 H 574.952 -2.17606 3.043 0
M  V30 5964 H 576.285 -2.87901 3.99216 0
M  V30 5965 N 577.937 -1.40673 -0.710563 0
M  V30 5966 C 579.183 -1.39428 -1.47267 0
M  V30 5967 C 579.516 0.00182129 -1.942 0
M  V30 5968 O 578.791 0.971387 -1.68506 0
M  V30 5969 C 579.074 -2.38812 -2.6952 0
M  V30 5970 C 578.927 -3.87467 -2.28449 0
M  V30 5971 C 580.246 -2.3566 -3.71689 0
M  V30 5972 H 577.365 -0.507768 -0.534173 0
M  V30 5973 H 580.007 -1.71843 -0.810547 0
M  V30 5974 H 578.157 -2.113 -3.26013 0
M  V30 5975 H 579.829 -4.25825 -1.77399 0
M  V30 5976 H 578.072 -4.03058 -1.60395 0
M  V30 5977 H 578.743 -4.5253 -3.16103 0
M  V30 5978 H 581.219 -2.6004 -3.24836 0
M  V30 5979 H 580.095 -3.07237 -4.54859 0
M  V30 5980 H 580.356 -1.36996 -4.20339 0
M  V30 5981 N 579.415 0.9433 -1.26252 0
M  V30 5982 C 580.663 1.68592 -1.11451 0
M  V30 5983 C 580.984 1.91957 0.343123 0
M  V30 5984 O 580.254 1.51475 1.24226 0
M  V30 5985 H 578.834 0.624789 -0.409448 0
M  V30 5986 H 581.496 1.13351 -1.58548 0
M  V30 5987 H 580.592 2.66054 -1.63162 0
M  V30 5988 N 580.893 1.08022 1.14757 0
M  V30 5989 C 582.139 0.808705 1.85978 0
M  V30 5990 C 582.472 -0.663764 1.82504 0
M  V30 5991 O 581.747 -1.48765 1.25296 0
M  V30 5992 C 582.03 1.32623 3.34788 0
M  V30 5993 C 581.883 2.86375 3.46856 0
M  V30 5994 C 583.202 0.948291 4.29762 0
M  V30 5995 H 580.321 0.295244 0.675278 0
M  V30 5996 H 582.963 1.33917 1.34783 0
M  V30 5997 H 581.113 0.875002 3.78518 0
M  V30 5998 H 582.785 3.39839 3.11941 0
M  V30 5999 H 581.028 3.24232 2.88194 0
M  V30 6000 H 581.699 3.17658 4.51439 0
M  V30 6001 H 584.175 1.33722 3.94028 0
M  V30 6002 H 583.051 1.33765 5.32352 0
M  V30 6003 H 583.312 -0.145094 4.41862 0
M  V30 6004 O 582.41 -1.2689 0.999054 0
M  V30 6005 H 583.101 -1.82419 0.651387 0
M  V30 END ATOM
M  V30 BEGIN BOND
M  V30 END BOND
M  V30 END CTAB
M  END
$$$$
