drugbank_target|P19971 Thymidine phosphorylase (DB09343)
 OpenBabel12092120073D

  0  0  0     0  0            999 V3000
M  V30 BEGIN CTAB
M  V30 COUNTS 7083 7139 0 0 0
M  V30 BEGIN ATOM
M  V30 1 H -0.908 1.98254 -0.117106 0
M  V30 2 N 0 1.576 0 0
M  V30 3 C 0.933 2.03868 1.02534 0
M  V30 4 C 1.911 0.928543 1.3348 0
M  V30 5 O 3.095 1.19667 1.45644 0
M  V30 6 C 0.222 2.43627 2.35294 0
M  V30 7 C -0.732 3.65373 2.2001 0
M  V30 8 S 0.101 5.13292 1.52614 0
M  V30 9 C 1.257 5.56322 2.86805 0
M  V30 10 H 1.49 2.90518 0.631377 0
M  V30 11 H -0.977 1.52953 0.210867 0
M  V30 12 H 0.981 2.67203 3.11629 0
M  V30 13 H -0.358 1.57376 2.7183 0
M  V30 14 H -1.165 3.90944 3.18086 0
M  V30 15 H -1.563 3.418 1.51819 0
M  V30 16 H 0.729 5.58782 3.83104 0
M  V30 17 H 1.672 6.56266 2.65933 0
M  V30 18 H 2.08 4.83886 2.90714 0
M  V30 19 N 1.4781 -0.272755 1.55222 0
M  V30 20 C 2.4411 -1.32041 1.87344 0
M  V30 21 C 3.4411 -1.42342 0.74803 0
M  V30 22 O 4.6311 -1.41488 1.0162 0
M  V30 23 C 1.7631 -2.70173 2.07893 0
M  V30 24 H 2.9561 -1.04789 2.80997 0
M  V30 25 H 0.5091 -0.51083 1.47717 0
M  V30 26 H 1.2441 -3.02605 1.16622 0
M  V30 27 H 1.0291 -2.64082 2.89833 0
M  V30 28 H 2.5191 -3.45869 2.34017 0
M  V30 29 N 2.9562 -1.48159 -0.537278 0
M  V30 30 C 3.9192 -1.61665 -1.62472 0
M  V30 31 C 4.9192 -0.490395 -1.5314 0
M  V30 32 O 6.1092 -0.755998 -1.5694 0
M  V30 33 C 3.2412 -1.57997 -3.02076 0
M  V30 34 H 4.4342 -2.58621 -1.51839 0
M  V30 35 H 1.9872 -1.36647 -0.758771 0
M  V30 36 H 2.7222 -0.624913 -3.18222 0
M  V30 37 H 2.5072 -2.39755 -3.10258 0
M  V30 38 H 3.9972 -1.70627 -3.81151 0
M  V30 39 N 4.4343 0.785586 -1.36625 0
M  V30 40 C 5.3643 1.91259 -1.33949 0
M  V30 41 C 6.3453 1.68795 -0.210325 0
M  V30 42 O 7.5303 1.89854 -0.408561 0
M  V30 43 C 4.6603 3.28339 -1.13186 0
M  V30 44 C 3.6143 3.65335 -2.22967 0
M  V30 45 C 2.9403 5.00806 -1.87342 0
M  V30 46 C 4.2403 3.7352 -3.65075 0
M  V30 47 H 5.9343 1.93755 -2.28253 0
M  V30 48 H 3.4803 0.930788 -1.09874 0
M  V30 49 H 5.4333 4.06804 -1.09948 0
M  V30 50 H 4.1573 3.2624 -0.153332 0
M  V30 51 H 2.8163 2.89169 -2.25337 0
M  V30 52 H 2.4643 4.95233 -0.880545 0
M  V30 53 H 2.1643 5.26529 -2.60846 0
M  V30 54 H 3.6883 5.81687 -1.85667 0
M  V30 55 H 5.1023 4.42168 -3.64911 0
M  V30 56 H 3.4993 4.10731 -4.37516 0
M  V30 57 H 4.5693 2.74527 -3.99703 0
M  V30 58 N 5.9124 1.20967 1.01018 0
M  V30 59 C 6.8454 0.907578 2.09376 0
M  V30 60 C 7.8234 -0.142868 1.61971 0
M  V30 61 O 9.0074 -0.0150391 1.88494 0
M  V30 62 C 6.1344 0.361791 3.36762 0
M  V30 63 C 5.1804 1.39423 4.03068 0
M  V30 64 S 6.0134 2.96159 4.4615 0
M  V30 65 C 7.1694 2.43173 5.7673 0
M  V30 66 H 7.4024 1.82519 2.34678 0
M  V30 67 H 4.9354 1.03884 1.14225 0
M  V30 68 H 6.8934 0.0534523 4.10465 0
M  V30 69 H 5.5544 -0.53443 3.0952 0
M  V30 70 H 4.7474 0.961853 4.94737 0
M  V30 71 H 4.3494 1.65038 3.35617 0
M  V30 72 H 6.6414 1.83335 6.52223 0
M  V30 73 H 7.5844 3.33264 6.24773 0
M  V30 74 H 7.9924 1.85069 5.33301 0
M  V30 75 N 7.3905 -1.2043 1.01659 0
M  V30 76 C 8.6185 -1.93777 0.725132 0
M  V30 77 C 9.0335 -1.74772 -0.714166 0
M  V30 78 O 8.3905 -1.06169 -1.4844 0
M  V30 79 C 8.4415 -3.45876 1.05129 0
M  V30 80 O 8.1625 -3.6426 2.43406 0
M  V30 81 C 9.6635 -4.36368 0.780891 0
M  V30 82 H 6.8835 -0.615901 0.266284 0
M  V30 83 H 9.4275 -1.52922 1.35776 0
M  V30 84 H 7.5825 -3.8461 0.464065 0
M  V30 85 H 7.9965 -4.58246 2.55169 0
M  V30 86 H 9.4705 -5.41743 1.05918 0
M  V30 87 H 9.9475 -4.38275 -0.284937 0
M  V30 88 H 10.5535 -4.03296 1.35027 0
M  V30 89 N 8.8686 -0.792821 -1.36206 0
M  V30 90 C 10.2796 -0.429513 -1.81692 0
M  V30 91 C 10.6306 1.04695 -1.65932 0
M  V30 92 O 9.7556 1.81256 -1.18218 0
M  V30 93 C 10.3506 -0.772831 -3.29868 0
M  V30 94 C 8.9096 -0.462307 -3.7355 0
M  V30 95 C 8.0566 -1.00569 -2.5842 0
M  V30 96 H 11.0076 -0.985672 -1.24379 0
M  V30 97 H 11.0286 -0.0651928 -3.80444 0
M  V30 98 H 10.5406 -1.84747 -3.41307 0
M  V30 99 H 8.6416 0.604158 -3.67669 0
M  V30 100 H 8.7546 -0.985299 -4.68859 0
M  V30 101 H 7.1186 -0.428734 -2.51066 0
M  V30 102 H 7.9016 -2.08616 -2.72643 0
M  V30 103 N 10.3467 1.47872 -0.545128 0
M  V30 104 C 11.5947 2.02093 -0.016553 0
M  V30 105 C 11.9157 1.42305 1.3332 0
M  V30 106 O 11.1857 0.593853 1.86682 0
M  V30 107 H 9.7657 0.746993 -0.00313038 0
M  V30 108 H 12.4277 1.81414 -0.712397 0
M  V30 109 H 11.5237 3.11996 0.0805422 0
M  V30 110 N 11.8248 0.280983 1.55075 0
M  V30 111 C 13.0528 -0.337293 2.04132 0
M  V30 112 C 13.4678 -1.4903 1.15912 0
M  V30 113 O 12.8248 -1.81606 0.180459 0
M  V30 114 C 12.8758 -0.812706 3.52246 0
M  V30 115 O 12.5968 0.294387 4.3711 0
M  V30 116 C 14.0978 -1.4982 4.17216 0
M  V30 117 H 11.3178 -0.0761638 0.666663 0
M  V30 118 H 13.8618 0.414787 2.00249 0
M  V30 119 H 12.0168 -1.51486 3.56554 0
M  V30 120 H 12.4308 -0.0721325 5.2445 0
M  V30 121 H 13.9048 -1.7822 5.22438 0
M  V30 122 H 14.3818 -2.43168 3.65741 0
M  V30 123 H 14.9878 -0.839742 4.16927 0
M  V30 124 N 13.3029 -1.57598 0.00835791 0
M  V30 125 C 14.5509 -1.90551 -0.6734 0
M  V30 126 C 14.8719 -0.883301 -1.73847 0
M  V30 127 O 14.1419 0.0781442 -1.95744 0
M  V30 128 H 12.7219 -0.703312 -0.251717 0
M  V30 129 H 15.3839 -1.94833 0.0512592 0
M  V30 130 H 14.4799 -2.9056 -1.13935 0
M  V30 131 N 14.781 0.264519 -1.55364 0
M  V30 132 C 15.744 1.31046 -1.88042 0
M  V30 133 C 16.744 1.41943 -0.755569 0
M  V30 134 O 17.934 1.40947 -1.02369 0
M  V30 135 C 15.066 2.69067 -2.09323 0
M  V30 136 H 16.259 1.03297 -2.81549 0
M  V30 137 H 13.812 0.502989 -1.47986 0
M  V30 138 H 14.547 3.01982 -1.18226 0
M  V30 139 H 14.332 2.62542 -2.91229 0
M  V30 140 H 15.822 3.44623 -2.35848 0
M  V30 141 N 16.2591 1.48442 0.529413 0
M  V30 142 C 17.6701 1.5002 1.11134 0
M  V30 143 C 18.0211 0.27031 1.94329 0
M  V30 144 O 17.1461 -0.622507 2.07253 0
M  V30 145 C 17.7411 2.71834 2.02217 0
M  V30 146 C 16.3001 2.76283 2.55627 0
M  V30 147 C 15.4471 2.43542 1.326 0
M  V30 148 H 18.3981 1.5555 0.314641 0
M  V30 149 H 18.4191 2.50384 2.8651 0
M  V30 150 H 17.9311 3.61331 1.41639 0
M  V30 151 H 16.0321 1.90995 3.19924 0
M  V30 152 H 16.1451 3.77725 2.94721 0
M  V30 153 H 14.5091 1.94709 1.64196 0
M  V30 154 H 15.2921 3.3528 0.737734 0
M  V30 155 N 17.7372 -0.778329 1.37039 0
M  V30 156 C 19.1482 -1.35421 1.28523 0
M  V30 157 C 19.4992 -1.96075 -0.0700901 0
M  V30 158 O 18.6242 -1.93352 -0.971801 0
M  V30 159 C 19.2192 -2.46211 2.32735 0
M  V30 160 C 17.7782 -2.99585 2.27873 0
M  V30 161 C 16.9252 -1.72748 2.16918 0
M  V30 162 H 19.8762 -0.5791 1.47757 0
M  V30 163 H 19.8972 -3.2552 1.9702 0
M  V30 164 H 19.4092 -2.02036 3.31365 0
M  V30 165 H 17.5102 -3.48152 1.32745 0
M  V30 166 H 17.6232 -3.55646 3.21018 0
M  V30 167 H 15.9872 -1.95416 1.63354 0
M  V30 168 H 16.7702 -1.30686 3.17452 0
M  V30 169 N 19.2153 -1.21501 -1.00376 0
M  V30 170 C 20.1783 -0.976927 -2.07337 0
M  V30 171 C 21.1783 0.0525322 -1.60714 0
M  V30 172 O 22.3683 -0.184869 -1.73216 0
M  V30 173 C 19.5003 -0.473423 -3.37597 0
M  V30 174 H 20.6933 -1.92587 -2.29892 0
M  V30 175 H 18.2463 -1.03217 -1.17371 0
M  V30 176 H 18.9813 0.480379 -3.20722 0
M  V30 177 H 18.7663 -1.216 -3.72768 0
M  V30 178 H 20.2563 -0.32675 -4.1632 0
M  V30 179 N 20.6934 1.19889 -1.02296 0
M  V30 180 C 22.1044 1.71124 -0.746568 0
M  V30 181 C 22.4554 1.81939 0.734335 0
M  V30 182 O 21.5804 1.48639 1.57275 0
M  V30 183 C 22.1754 3.10804 -1.34857 0
M  V30 184 C 20.7344 3.59323 -1.1209 0
M  V30 185 C 19.8814 2.3635 -1.45031 0
M  V30 186 H 22.8324 1.04813 -1.19163 0
M  V30 187 H 22.8534 3.73186 -0.742437 0
M  V30 188 H 22.3654 3.029 -2.42638 0
M  V30 189 H 20.4664 3.7255 -0.0610337 0
M  V30 190 H 20.5794 4.4378 -1.80544 0
M  V30 191 H 18.9434 2.39399 -0.869487 0
M  V30 192 H 19.7264 2.31081 -2.53883 0
M  V30 193 N 22.1715 0.800033 1.35784 0
M  V30 194 C 23.4195 0.376597 1.9856 0
M  V30 195 C 23.7405 -1.05812 1.63795 0
M  V30 196 O 23.0105 -1.73103 0.917171 0
M  V30 197 H 21.5905 0.136261 0.734467 0
M  V30 198 H 24.2525 1.02442 1.65806 0
M  V30 199 H 23.3485 0.477002 3.08433 0
M  V30 200 N 23.6496 -1.47581 0.552962 0
M  V30 201 C 24.9266 -1.95563 -0.0381515 0
M  V30 202 C 25.3066 -1.49552 -1.48988 0
M  V30 203 O 24.6546 -0.732414 -2.16444 0
M  V30 204 C 24.8646 -3.48848 0.102919 0
M  V30 205 C 26.2126 -4.24577 -0.0446082 0
M  V30 206 O 27.2366 -3.56187 0.0302548 0
M  V30 207 O 26.0956 -5.46116 -0.204923 0
M  V30 208 H 23.1896 -0.824321 -0.0665067 0
M  V30 209 H 25.7356 -1.58001 0.619186 0
M  V30 210 H 24.5076 -3.75129 1.11328 0
M  V30 211 H 24.1306 -3.93165 -0.592224 0
M  V30 212 N 25.1277 -0.289203 -1.54924 0
M  V30 213 C 26.3747 0.323519 -1.99899 0
M  V30 214 C 26.7027 1.54797 -1.17762 0
M  V30 215 O 25.9577 1.94237 -0.238835 0
M  V30 216 C 26.2567 0.736119 -3.49737 0
M  V30 217 C 25.9227 -0.385276 -4.49251 0
M  V30 218 C 24.5847 -0.693156 -4.76181 0
M  V30 219 C 26.9367 -1.14021 -5.08575 0
M  V30 220 C 24.2647 -1.7593 -5.59701 0
M  V30 221 C 26.6167 -2.19619 -5.93254 0
M  V30 222 C 25.2807 -2.51026 -6.185 0
M  V30 223 H 24.5507 0.118384 -0.731482 0
M  V30 224 H 27.1977 -0.405847 -1.8715 0
M  V30 225 H 25.5027 1.54539 -3.60035 0
M  V30 226 H 27.1997 1.22118 -3.81953 0
M  V30 227 H 23.7897 -0.135202 -4.28387 0
M  V30 228 H 27.9737 -0.915611 -4.87781 0
M  V30 229 H 23.2297 -2.0075 -5.77503 0
M  V30 230 H 27.4037 -2.78581 -6.38252 0
M  V30 231 H 25.0307 -3.33772 -6.83008 0
M  V30 232 N 26.6058 1.57591 -0.0167156 0
M  V30 233 C 27.8308 1.9598 0.67872 0
M  V30 234 C 28.2558 0.892546 1.65575 0
M  V30 235 O 27.6138 -0.147772 1.80697 0
M  V30 236 C 27.6618 3.33468 1.37227 0
M  V30 237 O 26.7658 3.28954 2.48722 0
M  V30 238 H 26.1068 0.639339 0.17928 0
M  V30 239 H 28.6368 2.04463 -0.0748802 0
M  V30 240 H 28.6468 3.69417 1.7319 0
M  V30 241 H 27.3218 4.10694 0.656007 0
M  V30 242 H 25.8988 3.04705 2.14963 0
M  V30 243 N 28.0839 -0.256276 1.55502 0
M  V30 244 C 29.3319 -0.983672 1.76545 0
M  V30 245 C 29.6529 -1.86206 0.578982 0
M  V30 246 O 28.9229 -1.91656 -0.405577 0
M  V30 247 H 27.5029 -0.366191 0.651086 0
M  V30 248 H 30.1649 -0.276479 1.92929 0
M  V30 249 H 29.2609 -1.61087 2.67315 0
M  V30 250 N 29.562 -1.4872 -0.521534 0
M  V30 251 C 30.472 -1.66569 -1.65203 0
M  V30 252 C 31.488 -0.548197 -1.65139 0
M  V30 253 O 32.664 -0.820339 -1.83936 0
M  V30 254 C 29.729 -1.70917 -3.01642 0
M  V30 255 C 28.79 -2.94356 -3.12495 0
M  V30 256 C 28.023 -2.98487 -4.42426 0
M  V30 257 O 28.246 -2.10786 -5.30024 0
M  V30 258 O 27.18 -3.90746 -4.57822 0
M  V30 259 H 31.006 -2.62298 -1.5308 0
M  V30 260 H 28.591 -1.3222 -0.695565 0
M  V30 261 H 30.473 -1.7625 -3.82771 0
M  V30 262 H 29.148 -0.783633 -3.14071 0
M  V30 263 H 28.055 -2.94552 -2.3063 0
M  V30 264 H 29.388 -3.86322 -3.04986 0
M  V30 265 N 31.0401 0.771051 -1.3745 0
M  V30 266 C 32.2881 1.52661 -1.32435 0
M  V30 267 C 32.6091 1.9479 0.0905024 0
M  V30 268 O 31.8791 1.66348 1.03466 0
M  V30 269 H 30.4591 0.566218 -0.487244 0
M  V30 270 H 33.1211 0.917636 -1.71946 0
M  V30 271 H 32.2171 2.42568 -1.96385 0
M  V30 272 N 32.5182 1.22032 0.997298 0
M  V30 273 C 33.7432 1.06921 1.77715 0
M  V30 274 C 34.1682 -0.376226 1.84299 0
M  V30 275 O 33.5262 -1.27165 1.29223 0
M  V30 276 C 33.5742 1.67996 3.19076 0
M  V30 277 O 32.6782 0.930653 4.01762 0
M  V30 278 H 32.0192 0.375814 0.547412 0
M  V30 279 H 34.5492 1.61737 1.25309 0
M  V30 280 H 34.5592 1.72538 3.69723 0
M  V30 281 H 33.2342 2.73182 3.13599 0
M  V30 282 H 31.8112 0.960917 3.60307 0
M  V30 283 N 33.9963 -1.19345 1.0293 0
M  V30 284 C 34.9283 -2.22036 0.56857 0
M  V30 285 C 35.9413 -1.58865 -0.355779 0
M  V30 286 O 37.1303 -1.77851 -0.152103 0
M  V30 287 C 34.2303 -3.38363 -0.190752 0
M  V30 288 C 33.4033 -4.31118 0.738643 0
M  V30 289 C 32.4623 -5.26194 0.0246497 0
M  V30 290 O 31.4883 -5.65461 0.651354 0
M  V30 291 N 32.6903 -5.66971 -1.24594 0
M  V30 292 H 35.4553 -2.6219 1.45177 0
M  V30 293 H 33.0163 -1.34015 0.908381 0
M  V30 294 H 35.0083 -3.98981 -0.677961 0
M  V30 295 H 33.5783 -2.96994 -0.975366 0
M  V30 296 H 32.7983 -3.68276 1.40593 0
M  V30 297 H 34.0863 -4.90001 1.37029 0
M  V30 298 H 33.4843 -5.37104 -1.77583 0
M  V30 299 H 32.0413 -6.2984 -1.67764 0
M  V30 300 N 35.4744 -0.807222 -1.35358 0
M  V30 301 C 36.7224 -0.387122 -1.98358 0
M  V30 302 C 37.0434 1.04942 -1.64354 0
M  V30 303 O 36.3134 1.72615 -0.926339 0
M  V30 304 H 34.8934 -0.140154 -0.733734 0
M  V30 305 H 37.5554 -1.0332 -1.6526 0
M  V30 306 H 36.6514 -0.493352 -3.08176 0
M  V30 307 N 36.9525 1.47285 -0.560781 0
M  V30 308 C 37.8825 2.32857 0.173105 0
M  V30 309 C 38.8635 1.44009 0.905281 0
M  V30 310 O 40.0485 1.7286 0.885046 0
M  V30 311 C 37.1785 3.25861 1.20133 0
M  V30 312 C 36.1325 4.23978 0.585388 0
M  V30 313 C 35.4585 5.06332 1.7185 0
M  V30 314 C 36.7585 5.20242 -0.463178 0
M  V30 315 H 38.4525 2.94466 -0.541307 0
M  V30 316 H 35.9985 1.41601 -0.261764 0
M  V30 317 H 37.9515 3.84569 1.72293 0
M  V30 318 H 36.6755 2.62315 1.94573 0
M  V30 319 H 35.3345 3.66501 0.085054 0
M  V30 320 H 34.9825 4.39186 2.45203 0
M  V30 321 H 34.6825 5.72762 1.31213 0
M  V30 322 H 36.2065 5.67899 2.24329 0
M  V30 323 H 37.6205 5.73293 -0.027502 0
M  V30 324 H 36.0175 5.94896 -0.788627 0
M  V30 325 H 37.0875 4.65504 -1.35773 0
M  V30 326 N 38.4306 0.297415 1.54768 0
M  V30 327 C 39.8416 -0.195947 1.85669 0
M  V30 328 C 40.1926 -1.53707 1.21937 0
M  V30 329 O 39.3176 -2.10164 0.515754 0
M  V30 330 C 39.9126 -0.362318 3.36857 0
M  V30 331 C 38.4716 -0.799901 3.67802 0
M  V30 332 C 37.6186 0.0938578 2.77141 0
M  V30 333 H 40.5696 0.518538 1.4999 0
M  V30 334 H 40.5906 -1.19745 3.61167 0
M  V30 335 H 40.1026 0.613921 3.83214 0
M  V30 336 H 38.2036 -1.78682 3.26961 0
M  V30 337 H 38.3166 -0.621773 4.75048 0
M  V30 338 H 36.6806 -0.426254 2.51108 0
M  V30 339 H 37.4636 1.06639 3.26318 0
M  V30 340 N 39.9087 -1.5758 0.0250728 0
M  V30 341 C 41.1857 -1.82917 -0.692873 0
M  V30 342 C 41.5657 -0.908137 -1.90568 0
M  V30 343 O 40.9137 0.0372298 -2.2847 0
M  V30 344 C 41.1237 -3.32034 -1.07492 0
M  V30 345 C 42.4717 -3.98406 -1.46826 0
M  V30 346 O 43.4957 -3.36505 -1.16801 0
M  V30 347 O 42.3547 -5.07497 -2.02754 0
M  V30 348 H 39.4487 -0.754079 -0.33955 0
M  V30 349 H 41.9947 -1.69619 0.0524456 0
M  V30 350 H 40.7667 -3.90728 -0.211552 0
M  V30 351 H 40.3897 -3.50424 -1.87854 0
M  V30 352 N 41.3868 0.248026 -1.55636 0
M  V30 353 C 42.7978 0.817177 -1.67866 0
M  V30 354 C 43.1488 1.86069 -0.622322 0
M  V30 355 O 42.2738 2.15157 0.231618 0
M  V30 356 C 42.8688 1.489 -3.04326 0
M  V30 357 C 41.4278 2.00587 -3.185 0
M  V30 358 C 40.5748 0.856573 -2.63739 0
M  V30 359 H 43.5258 0.0238579 -1.58682 0
M  V30 360 H 43.5468 2.35698 -2.98708 0
M  V30 361 H 43.0588 0.729279 -3.81186 0
M  V30 362 H 41.1598 2.79443 -2.4646 0
M  V30 363 H 41.2728 2.20402 -4.25393 0
M  V30 364 H 39.6368 1.25678 -2.21534 0
M  V30 365 H 40.4198 0.109953 -3.43124 0
M  V30 366 N 42.8649 1.48995 0.513639 0
M  V30 367 C 44.0899 1.61792 1.29762 0
M  V30 368 C 44.5149 0.284475 1.85936 0
M  V30 369 O 43.8729 -0.746185 1.65232 0
M  V30 370 C 43.9209 2.67993 2.41272 0
M  V30 371 O 43.0249 2.26287 3.44772 0
M  V30 372 H 42.3659 0.541963 0.38363 0
M  V30 373 H 44.8959 1.95097 0.616307 0
M  V30 374 H 44.9059 2.89772 2.87221 0
M  V30 375 H 43.5809 3.64791 1.9975 0
M  V30 376 H 42.1579 2.14788 3.04829 0
M  V30 377 N 44.343 -0.763751 1.37857 0
M  V30 378 C 45.754 -1.3405 1.29952 0
M  V30 379 C 46.105 -1.96138 -0.0492898 0
M  V30 380 O 45.23 -1.94372 -0.951239 0
M  V30 381 C 45.825 -2.43729 2.35333 0
M  V30 382 C 44.384 -2.97151 2.31037 0
M  V30 383 C 43.531 -1.70438 2.18738 0
M  V30 384 H 46.482 -0.563396 1.48363 0
M  V30 385 H 46.503 -3.23412 2.00462 0
M  V30 386 H 46.015 -1.9851 3.33489 0
M  V30 387 H 44.116 -3.46724 1.3643 0
M  V30 388 H 44.229 -3.52221 3.24772 0
M  V30 389 H 42.593 -1.93673 1.65418 0
M  V30 390 H 43.376 -1.27312 3.18821 0
M  V30 391 N 45.8211 -1.22559 -0.990812 0
M  V30 392 C 46.7311 -1.01394 -2.11557 0
M  V30 393 C 47.7471 0.0383962 -1.73958 0
M  V30 394 O 48.9231 -0.154787 -2.00804 0
M  V30 395 C 45.9881 -0.596569 -3.41529 0
M  V30 396 C 45.0491 -1.72276 -3.93217 0
M  V30 397 C 44.2821 -1.32521 -5.16985 0
M  V30 398 O 44.5051 -0.204909 -5.70032 0
M  V30 399 O 43.4391 -2.14247 -5.62478 0
M  V30 400 H 47.2651 -1.95633 -2.32296 0
M  V30 401 H 44.8501 -1.01172 -1.0993 0
M  V30 402 H 46.7321 -0.374263 -4.19735 0
M  V30 403 H 45.4071 0.316939 -3.22145 0
M  V30 404 H 44.3141 -1.99961 -3.16174 0
M  V30 405 H 45.6471 -2.61421 -4.17037 0
M  V30 406 N 47.2992 1.18797 -1.03562 0
M  V30 407 C 48.7102 1.70322 -0.764676 0
M  V30 408 C 49.0612 1.82708 0.714996 0
M  V30 409 O 48.1862 1.50299 1.55689 0
M  V30 410 C 48.7812 3.09356 -1.38145 0
M  V30 411 C 47.3402 3.58114 -1.15895 0
M  V30 412 C 46.4872 2.34798 -1.4753 0
M  V30 413 H 49.4382 1.03543 -1.20268 0
M  V30 414 H 49.4592 3.72378 -0.781977 0
M  V30 415 H 48.9712 3.00309 -2.45837 0
M  V30 416 H 47.0722 3.72464 -0.100544 0
M  V30 417 H 47.1852 4.4184 -1.8524 0
M  V30 418 H 45.5492 2.38464 -0.894829 0
M  V30 419 H 46.3322 2.28375 -2.56319 0
M  V30 420 N 48.7773 0.814389 1.34928 0
M  V30 421 C 49.7243 0.22822 2.29669 0
M  V30 422 C 50.6943 -0.642164 1.53184 0
M  V30 423 O 51.8793 -0.585605 1.81591 0
M  V30 424 C 49.0193 -0.61089 3.3965 0
M  V30 425 C 48.1323 0.280792 4.31086 0
M  V30 426 C 47.2673 -0.567067 5.28165 0
M  V30 427 C 46.3063 0.324531 6.11239 0
M  V30 428 N 45.4433 -0.483756 7.00431 0
M  V30 429 H 50.2833 1.04153 2.79206 0
M  V30 430 H 47.8203 0.525133 1.37407 0
M  V30 431 H 49.7783 -1.11263 4.0209 0
M  V30 432 H 48.4083 -1.38939 2.91369 0
M  V30 433 H 47.4603 0.900688 3.69583 0
M  V30 434 H 48.7723 0.966723 4.89342 0
M  V30 435 H 47.9263 -1.13363 5.96015 0
M  V30 436 H 46.6653 -1.28654 4.70425 0
M  V30 437 H 45.6703 0.903298 5.42329 0
M  V30 438 H 46.8953 1.04198 6.71059 0
M  V30 439 H 44.8413 -1.18706 6.45171 0
M  V30 440 H 44.7583 0.143965 7.55863 0
M  V30 441 H 46.0263 -1.03334 7.7262 0
M  V30 442 N 50.2554 -1.46986 0.568584 0
M  V30 443 C 51.1874 -2.28233 -0.210337 0
M  V30 444 C 52.2004 -1.37682 -0.868767 0
M  V30 445 O 53.3894 -1.62406 -0.740705 0
M  V30 446 C 50.4894 -3.12293 -1.3163 0
M  V30 447 C 49.6624 -4.30878 -0.7525 0
M  V30 448 C 48.7214 -4.96445 -1.74439 0
M  V30 449 O 47.7474 -5.54482 -1.286 0
M  V30 450 N 48.9494 -4.92171 -3.07812 0
M  V30 451 H 51.7144 -2.95723 0.486648 0
M  V30 452 H 49.2754 -1.56742 0.405409 0
M  V30 453 H 51.2674 -3.53022 -1.97883 0
M  V30 454 H 49.8374 -2.46971 -1.91636 0
M  V30 455 H 49.0574 -3.94104 0.0871128 0
M  V30 456 H 50.3454 -5.07558 -0.35536 0
M  V30 457 H 49.7434 -4.46239 -3.47688 0
M  V30 458 H 48.3004 -5.36884 -3.69592 0
M  V30 459 N 51.7335 -0.305618 -1.54608 0
M  V30 460 C 52.6635 0.561482 -2.26649 0
M  V30 461 C 53.6445 1.13415 -1.26772 0
M  V30 462 O 54.8295 1.16262 -1.55553 0
M  V30 463 C 51.9595 1.73122 -3.01075 0
M  V30 464 C 50.9135 1.2887 -4.08138 0
M  V30 465 C 50.2395 2.54396 -4.70305 0
M  V30 466 C 51.5395 0.416578 -5.20636 0
M  V30 467 H 53.2335 -0.0393902 -2.99374 0
M  V30 468 H 50.7795 -0.020385 -1.43986 0
M  V30 469 H 52.7325 2.34396 -3.50195 0
M  V30 470 H 51.4565 2.3584 -2.25936 0
M  V30 471 H 50.1155 0.698991 -3.59875 0
M  V30 472 H 49.7635 3.15439 -3.918 0
M  V30 473 H 49.4635 2.25486 -5.42614 0
M  V30 474 H 50.9875 3.16464 -5.2219 0
M  V30 475 H 52.4015 0.935116 -5.65622 0
M  V30 476 H 50.7985 0.221046 -5.99693 0
M  V30 477 H 51.8685 -0.557162 -4.81688 0
M  V30 478 N 53.2116 1.57565 -0.0334293 0
M  V30 479 C 54.6226 1.79746 0.504798 0
M  V30 480 C 54.9736 0.944091 1.71992 0
M  V30 481 O 54.0986 0.155694 2.15839 0
M  V30 482 C 54.6936 3.25997 0.922567 0
M  V30 483 C 53.2526 3.49159 1.40588 0
M  V30 484 C 52.3996 2.74785 0.372633 0
M  V30 485 H 55.3506 1.56565 -0.259436 0
M  V30 486 H 55.3716 3.35945 1.78666 0
M  V30 487 H 54.8836 3.88081 0.0379825 0
M  V30 488 H 52.9846 2.92332 2.31025 0
M  V30 489 H 53.0976 4.57873 1.41028 0
M  V30 490 H 51.4616 2.40391 0.841672 0
M  V30 491 H 52.2446 3.39587 -0.503559 0
M  V30 492 N 54.6897 -0.239769 1.55765 0
M  V30 493 C 55.5997 -1.31831 1.94056 0
M  V30 494 C 56.6157 -1.52275 0.841925 0
M  V30 495 O 57.7917 -1.65759 1.14394 0
M  V30 496 C 54.8567 -2.65156 2.23368 0
M  V30 497 C 53.9177 -2.53173 3.46701 0
M  V30 498 C 53.1507 -3.8014 3.74606 0
M  V30 499 O 53.3737 -4.82343 3.04469 0
M  V30 500 O 52.3077 -3.78344 4.68123 0
M  V30 501 H 56.1337 -1.02347 2.85935 0
M  V30 502 H 53.7187 -0.441123 1.42739 0
M  V30 503 H 55.6007 -3.43929 2.43497 0
M  V30 504 H 54.2757 -2.94358 1.34666 0
M  V30 505 H 53.1827 -1.72662 3.31871 0
M  V30 506 H 54.5157 -2.28915 4.35728 0
M  V30 507 N 56.1678 -1.49265 -0.50573 0
M  V30 508 C 57.0978 -1.68495 -1.61653 0
M  V30 509 C 58.0788 -0.53366 -1.61512 0
M  V30 510 O 59.2638 -0.76897 -1.78327 0
M  V30 511 C 56.3938 -1.74709 -3.00157 0
M  V30 512 C 55.3478 -2.89581 -3.15162 0
M  V30 513 C 54.6738 -2.80903 -4.5497 0
M  V30 514 C 55.9738 -4.30578 -2.95634 0
M  V30 515 H 57.6678 -2.61493 -1.45814 0
M  V30 516 H 55.2138 -1.25838 -0.70005 0
M  V30 517 H 57.1668 -1.86748 -3.77761 0
M  V30 518 H 55.8908 -0.783067 -3.17074 0
M  V30 519 H 54.5498 -2.77136 -2.39982 0
M  V30 520 H 54.1978 -1.82419 -4.68756 0
M  V30 521 H 53.8978 -3.57999 -4.65951 0
M  V30 522 H 55.4218 -2.94944 -5.34641 0
M  V30 523 H 56.8358 -4.4373 -3.63011 0
M  V30 524 H 55.2328 -5.0886 -3.18091 0
M  V30 525 H 56.3028 -4.45352 -1.91806 0
M  V30 526 N 57.6459 0.756429 -1.3826 0
M  V30 527 C 58.8949 1.51082 -1.3363 0
M  V30 528 C 59.2079 1.95467 0.0720068 0
M  V30 529 O 60.4139 2.7043 0.240834 0
M  V30 530 C 58.8699 2.72893 -2.34644 0
M  V30 531 C 58.4779 2.35544 -3.81081 0
M  V30 532 C 60.2219 3.50791 -2.39052 0
M  V30 533 C 58.1289 3.53948 -4.73787 0
M  V30 534 H 57.0589 0.56727 -0.49671 0
M  V30 535 H 59.7099 0.827147 -1.638 0
M  V30 536 H 58.0919 3.43227 -1.97513 0
M  V30 537 H 59.2659 1.72894 -4.27135 0
M  V30 538 H 57.5809 1.70786 -3.79764 0
M  V30 539 H 60.1779 4.38823 -3.05513 0
M  V30 540 H 60.5209 3.91745 -1.40861 0
M  V30 541 H 61.0539 2.87467 -2.74968 0
M  V30 542 H 57.7929 3.18064 -5.73163 0
M  V30 543 H 57.3129 4.15651 -4.32428 0
M  V30 544 H 58.9919 4.20566 -4.91663 0
M  V30 545 N 59.124 1.23083 0.984299 0
M  V30 546 C 60.54 0.992637 1.24975 0
M  V30 547 C 60.74 -0.308618 1.99123 0
M  V30 548 O 59.796 -1.02905 2.30579 0
M  V30 549 C 61.109 2.19698 2.05312 0
M  V30 550 C 62.657 2.24147 2.18465 0
M  V30 551 C 63.132 3.44157 3.02192 0
M  V30 552 N 64.623 3.44372 3.09777 0
M  V30 553 C 65.358 4.33886 3.74874 0
M  V30 554 N 64.854 5.3363 4.41827 0
M  V30 555 N 66.647 4.21639 3.71721 0
M  V30 556 H 58.798 2.06731 0.487453 0
M  V30 557 H 61.061 0.906339 0.277944 0
M  V30 558 H 60.767 3.1411 1.58201 0
M  V30 559 H 60.641 2.20465 3.06064 0
M  V30 560 H 63.028 1.30277 2.64786 0
M  V30 561 H 63.109 2.27415 1.17115 0
M  V30 562 H 62.753 4.38332 2.56568 0
M  V30 563 H 62.683 3.3813 4.03702 0
M  V30 564 H 65.174 2.72201 2.62135 0
M  V30 565 H 65.487 5.98196 4.89266 0
M  V30 566 H 63.832 5.37534 4.40548 0
M  V30 567 H 67.023 3.42962 3.18582 0
M  V30 568 H 67.196 4.91604 4.22173 0
M  V30 569 N 60.6021 -1.18246 1.0419 0
M  V30 570 C 61.5351 -2.20746 0.578474 0
M  V30 571 C 62.5131 -1.57912 -0.387624 0
M  V30 572 O 63.6971 -1.86071 -0.301634 0
M  V30 573 C 60.8241 -3.38346 -0.154762 0
M  V30 574 C 59.8701 -4.19587 0.764782 0
M  V30 575 S 60.7031 -4.86014 2.24835 0
M  V30 576 C 61.8591 -6.07012 1.526 0
M  V30 577 H 62.0921 -2.59715 1.44691 0
M  V30 578 H 59.6251 -1.287 0.85297 0
M  V30 579 H 61.5831 -4.065 -0.571641 0
M  V30 580 H 60.2441 -2.97786 -0.999105 0
M  V30 581 H 59.4371 -5.03611 0.197976 0
M  V30 582 H 59.0391 -3.56818 1.12057 0
M  V30 583 H 61.3311 -6.72523 0.819733 0
M  V30 584 H 62.2741 -6.68202 2.34333 0
M  V30 585 H 62.6821 -5.55249 1.01779 0
M  V30 586 N 62.0802 -0.821533 -1.34494 0
M  V30 587 C 63.0272 -0.240397 -2.29545 0
M  V30 588 C 63.9972 0.634031 -1.53523 0
M  V30 589 O 65.1822 0.575966 -1.81899 0
M  V30 590 C 62.3222 0.592869 -3.39969 0
M  V30 591 C 61.4352 -0.30365 -4.30932 0
M  V30 592 C 60.5702 0.539049 -5.28458 0
M  V30 593 C 59.6092 -0.356942 -6.11058 0
M  V30 594 N 58.7462 0.446603 -7.00678 0
M  V30 595 H 63.5862 -1.05632 -2.7865 0
M  V30 596 H 61.1232 -0.532413 -1.37127 0
M  V30 597 H 63.0812 1.09129 -4.02675 0
M  V30 598 H 61.7112 1.37392 -2.92102 0
M  V30 599 H 60.7632 -0.920276 -3.691 0
M  V30 600 H 62.0752 -0.992661 -4.88823 0
M  V30 601 H 61.2292 1.102 -5.96608 0
M  V30 602 H 59.9682 1.26157 -4.71101 0
M  V30 603 H 58.9732 -0.932047 -5.41842 0
M  V30 604 H 60.1982 -1.07755 -6.70497 0
M  V30 605 H 58.1442 1.15282 -6.45791 0
M  V30 606 H 58.0612 -0.184048 -7.55776 0
M  V30 607 H 59.3292 0.992352 -7.73158 0
M  V30 608 N 63.5583 1.46682 -0.576371 0
M  V30 609 C 64.9743 1.57822 -0.237562 0
M  V30 610 C 65.1743 1.57237 1.26011 0
M  V30 611 O 64.2303 1.48596 2.04146 0
M  V30 612 C 65.5433 2.87499 -0.881168 0
M  V30 613 C 67.0913 3.01119 -0.85417 0
M  V30 614 C 67.5663 4.33524 -1.4772 0
M  V30 615 N 69.0573 4.40207 -1.44125 0
M  V30 616 C 69.7923 5.4126 -1.89276 0
M  V30 617 N 69.2883 6.49021 -2.42371 0
M  V30 618 N 71.0813 5.32422 -1.80231 0
M  V30 619 H 63.2323 1.45306 -1.54919 0
M  V30 620 H 65.4953 0.692733 -0.647167 0
M  V30 621 H 65.2013 2.9372 -1.93447 0
M  V30 622 H 65.0753 3.75224 -0.385592 0
M  V30 623 H 67.4623 2.94485 0.190491 0
M  V30 624 H 67.5433 2.14887 -1.3877 0
M  V30 625 H 67.1873 4.40916 -2.52103 0
M  V30 626 H 67.1173 5.1852 -0.918947 0
M  V30 627 H 69.6083 3.62931 -1.05307 0
M  V30 628 H 69.9213 7.2233 -2.74698 0
M  V30 629 H 68.2663 6.49858 -2.46393 0
M  V30 630 H 71.4573 4.47137 -1.38514 0
M  V30 631 H 71.6303 6.11034 -2.15735 0
M  V30 632 N 65.0364 0.313813 1.54444 0
M  V30 633 C 66.3134 -0.345447 1.92525 0
M  V30 634 C 66.6934 -1.70667 1.24242 0
M  V30 635 O 66.0414 -2.25273 0.382654 0
M  V30 636 C 66.2514 -0.44737 3.46121 0
M  V30 637 C 67.5994 -0.712238 4.18584 0
M  V30 638 O 68.6234 -0.530678 3.52225 0
M  V30 639 O 67.4824 -1.06183 5.36085 0
M  V30 640 H 64.5764 -0.195407 0.803583 0
M  V30 641 H 67.1224 0.362813 1.65776 0
M  V30 642 H 65.8944 0.509043 3.87975 0
M  V30 643 H 65.5174 -1.20359 3.78945 0
M  V30 644 N 66.5145 -1.57545 0.0417849 0
M  V30 645 C 67.7625 -1.91937 -0.632829 0
M  V30 646 C 68.0835 -0.919978 -1.71934 0
M  V30 647 O 67.3535 0.0366064 -1.95866 0
M  V30 648 H 65.9335 -0.708493 -0.236742 0
M  V30 649 H 68.5955 -1.9468 0.0925745 0
M  V30 650 H 67.6915 -2.92912 -1.07746 0
M  V30 651 N 67.9926 0.231505 -1.5589 0
M  V30 652 C 69.2406 0.955461 -1.78088 0
M  V30 653 C 69.5616 1.85262 -0.608533 0
M  V30 654 O 68.8316 1.92277 0.375035 0
M  V30 655 H 67.4116 0.355787 -0.656829 0
M  V30 656 H 70.0736 0.245751 -1.93344 0
M  V30 657 H 69.1696 1.56814 -2.69844 0
M  V30 658 N 69.4707 1.49531 0.497807 0
M  V30 659 C 70.8867 1.36365 0.829266 0
M  V30 660 C 71.0867 0.399184 1.97506 0
M  V30 661 O 70.1427 -0.167977 2.51941 0
M  V30 662 C 71.4557 2.77153 1.16647 0
M  V30 663 C 73.0037 2.85877 1.27449 0
M  V30 664 C 73.4787 4.2744 1.64497 0
M  V30 665 N 74.9697 4.30265 1.7154 0
M  V30 666 C 75.7047 5.3677 2.01656 0
M  V30 667 N 75.2007 6.53516 2.29976 0
M  V30 668 N 76.9937 5.24189 2.02934 0
M  V30 669 H 69.1447 2.10831 -0.257703 0
M  V30 670 H 71.4077 0.946534 -0.0527091 0
M  V30 671 H 71.1137 3.49442 0.397872 0
M  V30 672 H 70.9877 3.12722 2.10915 0
M  V30 673 H 73.3747 2.13824 2.0338 0
M  V30 674 H 73.4557 2.53887 0.312244 0
M  V30 675 H 73.0997 5.00021 0.891151 0
M  V30 676 H 73.0297 4.56896 2.61827 0
M  V30 677 H 75.5207 3.4607 1.51802 0
M  V30 678 H 75.8337 7.30506 2.52153 0
M  V30 679 H 74.1787 6.56737 2.27425 0
M  V30 680 H 77.3697 4.31988 1.80289 0
M  V30 681 H 77.5427 6.07286 2.26071 0
M  V30 682 N 70.9488 -0.749086 1.3866 0
M  V30 683 C 71.8788 -1.8764 1.38973 0
M  V30 684 C 72.8598 -1.68178 0.255004 0
M  V30 685 O 74.0448 -1.88704 0.458754 0
M  V30 686 C 71.1748 -3.25222 1.21851 0
M  V30 687 C 70.1288 -3.59295 2.32575 0
M  V30 688 C 69.4548 -4.95663 2.00555 0
M  V30 689 C 70.7548 -3.63709 3.7485 0
M  V30 690 H 72.4488 -1.87635 2.3331 0
M  V30 691 H 69.9948 -0.901329 1.12303 0
M  V30 692 H 71.9478 -4.03746 1.20695 0
M  V30 693 H 70.6718 -3.25719 0.239775 0
M  V30 694 H 69.3308 -2.83093 2.32925 0
M  V30 695 H 68.9788 -4.92724 1.01154 0
M  V30 696 H 68.6788 -5.19429 2.74714 0
M  V30 697 H 70.2028 -5.7656 2.01024 0
M  V30 698 H 71.6168 -4.32338 3.76506 0
M  V30 699 H 70.0138 -3.98986 4.48252 0
M  V30 700 H 71.0838 -2.63834 4.06841 0
M  V30 701 N 72.4269 -1.23603 -0.977757 0
M  V30 702 C 73.6519 -1.09735 -1.75991 0
M  V30 703 C 74.0769 0.346858 -1.84874 0
M  V30 704 O 73.4349 1.25093 -1.3123 0
M  V30 705 C 73.4829 -1.73051 -3.16363 0
M  V30 706 O 72.5869 -0.994452 -4.0023 0
M  V30 707 H 71.9279 -0.384476 -0.541364 0
M  V30 708 H 74.4579 -1.6371 -1.2272 0
M  V30 709 H 74.4679 -1.78398 -3.66931 0
M  V30 710 H 73.1429 -2.78137 -3.09213 0
M  V30 711 H 71.7199 -1.01812 -3.58732 0
M  V30 712 N 73.905 1.17692 -1.04816 0
M  V30 713 C 74.815 2.25229 -0.65643 0
M  V30 714 C 75.831 1.71018 0.320761 0
M  V30 715 O 77.007 2.00649 0.173805 0
M  V30 716 C 74.072 3.46684 -0.0332629 0
M  V30 717 C 73.133 4.15997 -1.06042 0
M  V30 718 C 72.366 5.31654 -0.466893 0
M  V30 719 O 72.589 5.65777 0.724758 0
M  V30 720 O 71.523 5.89831 -1.1993 0
M  V30 721 H 75.349 2.61016 -1.55255 0
M  V30 722 H 72.934 1.24919 -0.81949 0
M  V30 723 H 74.816 4.20234 0.313256 0
M  V30 724 H 73.491 3.12703 0.836566 0
M  V30 725 H 72.398 3.44482 -1.45886 0
M  V30 726 H 73.731 4.53996 -1.90127 0
M  V30 727 N 75.3831 0.828654 1.34056 0
M  V30 728 C 76.3461 0.259927 2.27721 0
M  V30 729 C 77.3461 -0.565478 1.50529 0
M  V30 730 O 78.5361 -0.38075 1.69988 0
M  V30 731 C 75.6681 -0.634944 3.34935 0
M  V30 732 H 76.8611 1.0863 2.79534 0
M  V30 733 H 74.4141 0.600951 1.44285 0
M  V30 734 H 75.1491 -1.48416 2.88346 0
M  V30 735 H 74.9341 -0.0444999 3.92075 0
M  V30 736 H 76.4241 -1.02648 4.04788 0
M  V30 737 N 76.8612 -1.46375 0.584142 0
M  V30 738 C 78.1382 -1.956 0.0033388 0
M  V30 739 C 78.5182 -1.52679 -1.45782 0
M  V30 740 O 77.8662 -0.77816 -2.14842 0
M  V30 741 C 78.0762 -3.48551 0.176891 0
M  V30 742 C 79.4242 -4.24576 0.0454609 0
M  V30 743 O 80.4482 -3.56043 0.105801 0
M  V30 744 O 79.3072 -5.46427 -0.0890376 0
M  V30 745 H 76.4012 -0.825547 -0.0490066 0
M  V30 746 H 78.9472 -1.56652 0.65256 0
M  V30 747 H 77.7192 -3.72683 1.1926 0
M  V30 748 H 77.3422 -3.94332 -0.508695 0
M  V30 749 N 78.3393 -0.321999 -1.54275 0
M  V30 750 C 79.5883 0.281931 -1.9972 0
M  V30 751 C 79.9013 1.53369 -1.21397 0
M  V30 752 O 81.1073 2.21352 -1.57211 0
M  V30 753 C 79.5633 0.5529 -3.55628 0
M  V30 754 C 79.1713 -0.681721 -4.42783 0
M  V30 755 C 80.9153 1.11687 -4.09544 0
M  V30 756 C 78.8223 -0.382742 -5.9016 0
M  V30 757 H 77.7523 0.109124 -0.746062 0
M  V30 758 H 80.4033 -0.43398 -1.78294 0
M  V30 759 H 78.7853 1.32896 -3.73035 0
M  V30 760 H 79.9593 -1.45723 -4.37151 0
M  V30 761 H 78.2743 -1.1658 -3.99748 0
M  V30 762 H 80.8713 1.35515 -5.17242 0
M  V30 763 H 81.2143 2.06575 -3.61431 0
M  V30 764 H 81.7473 0.402032 -3.95763 0
M  V30 765 H 78.4863 -1.30076 -6.42464 0
M  V30 766 H 78.0063 0.355094 -5.98748 0
M  V30 767 H 79.6853 0.00800157 -6.47 0
M  V30 768 N 79.8174 1.5752 -0.0501392 0
M  V30 769 C 81.2334 1.56631 0.306402 0
M  V30 770 C 81.4334 1.0577 1.71508 0
M  V30 771 O 80.4894 0.713837 2.422 0
M  V30 772 C 81.8024 3.00393 0.135811 0
M  V30 773 C 83.3504 3.12315 0.206993 0
M  V30 774 C 83.8254 4.57954 0.064944 0
M  V30 775 N 85.3164 4.63041 0.121254 0
M  V30 776 C 86.0514 5.73389 0.0354381 0
M  V30 777 N 85.5474 6.92724 -0.102666 0
M  V30 778 N 87.3404 5.62026 0.090946 0
M  V30 779 H 79.4914 1.88903 -0.971046 0
M  V30 780 H 81.7544 0.869876 -0.376855 0
M  V30 781 H 81.4604 3.41635 -0.835384 0
M  V30 782 H 81.3344 3.66373 0.897275 0
M  V30 783 H 83.7214 2.70973 1.16866 0
M  V30 784 H 83.8024 2.49016 -0.585208 0
M  V30 785 H 83.4464 4.99981 -0.893394 0
M  V30 786 H 83.3764 5.19258 0.876277 0
M  V30 787 H 85.8674 3.77216 0.227284 0
M  V30 788 H 86.1804 7.72633 -0.160882 0
M  V30 789 H 84.5254 6.94864 -0.137737 0
M  V30 790 H 87.7164 4.67684 0.197388 0
M  V30 791 H 87.8894 6.47997 0.0206089 0
M  V30 792 N 81.2955 -0.223234 1.56011 0
M  V30 793 C 82.5435 -0.946003 1.78592 0
M  V30 794 C 82.8645 -1.84936 0.618349 0
M  V30 795 O 82.1345 -1.92473 -0.364833 0
M  V30 796 H 80.7145 -0.352298 0.658707 0
M  V30 797 H 83.3765 -0.235494 1.93472 0
M  V30 798 H 82.4725 -1.55381 2.70672 0
M  V30 799 N 82.7736 -1.49793 -0.48987 0
M  V30 800 C 84.0206 -1.59841 -1.24327 0
M  V30 801 C 84.3486 -0.290135 -1.92324 0
M  V30 802 O 83.6036 0.722749 -1.81865 0
M  V30 803 C 83.9026 -2.71488 -2.32441 0
M  V30 804 C 83.5686 -4.12614 -1.81826 0
M  V30 805 C 82.2306 -4.51017 -1.67742 0
M  V30 806 C 84.5826 -5.00892 -1.4407 0
M  V30 807 C 81.9106 -5.75459 -1.14297 0
M  V30 808 C 84.2626 -6.25863 -0.920742 0
M  V30 809 C 82.9266 -6.63086 -0.766383 0
M  V30 810 H 82.1966 -0.584899 -0.454944 0
M  V30 811 H 84.8436 -1.83663 -0.542215 0
M  V30 812 H 83.1486 -2.4168 -3.0838 0
M  V30 813 H 84.8456 -2.76469 -2.90458 0
M  V30 814 H 81.4356 -3.82307 -1.93751 0
M  V30 815 H 85.6196 -4.7187 -1.53794 0
M  V30 816 H 80.8756 -6.02989 -1.01068 0
M  V30 817 H 85.0496 -6.9364 -0.619448 0
M  V30 818 H 82.6766 -7.59393 -0.350083 0
M  V30 819 N 84.2517 0.741722 -1.39055 0
M  V30 820 C 85.4977 1.50336 -1.36113 0
M  V30 821 C 85.8307 1.94148 0.0450796 0
M  V30 822 O 85.1057 1.66301 1.00868 0
M  V30 823 C 85.3887 2.74773 -2.32749 0
M  V30 824 C 85.2417 2.37023 -3.82283 0
M  V30 825 C 86.5607 3.76846 -2.27322 0
M  V30 826 H 83.6797 0.545351 -0.495743 0
M  V30 827 H 86.3217 0.848624 -1.69995 0
M  V30 828 H 84.4717 3.30639 -2.03986 0
M  V30 829 H 86.1437 1.8684 -4.21768 0
M  V30 830 H 84.3867 1.69334 -3.99385 0
M  V30 831 H 85.0577 3.26104 -4.45376 0
M  V30 832 H 87.5337 3.30548 -2.5274 0
M  V30 833 H 86.4097 4.6159 -2.97028 0
M  V30 834 H 86.6707 4.23286 -1.27599 0
M  V30 835 N 85.7298 1.2412 0.971189 0
M  V30 836 C 86.6928 1.03156 2.04674 0
M  V30 837 C 87.6928 -0.00990322 1.60797 0
M  V30 838 O 88.8828 0.230729 1.72665 0
M  V30 839 C 86.0148 0.562765 3.36223 0
M  V30 840 H 87.2078 1.98614 2.24705 0
M  V30 841 H 84.7608 1.06293 1.14593 0
M  V30 842 H 85.4958 -0.395176 3.21883 0
M  V30 843 H 85.2808 1.31441 3.69413 0
M  V30 844 H 86.7708 0.437015 4.15307 0
M  V30 845 N 87.2079 -1.17134 1.05439 0
M  V30 846 C 88.1709 -2.19439 0.661764 0
M  V30 847 C 89.1709 -1.58199 -0.288042 0
M  V30 848 O 90.3609 -1.74053 -0.0715803 0
M  V30 849 C 87.4929 -3.40889 -0.0276209 0
M  V30 850 H 88.6859 -2.55688 1.56728 0
M  V30 851 H 86.2389 -1.31259 0.848567 0
M  V30 852 H 86.9739 -3.10187 -0.94629 0
M  V30 853 H 86.7589 -3.86586 0.655238 0
M  V30 854 H 88.2489 -4.16603 -0.288342 0
M  V30 855 N 88.686 -0.835752 -1.33615 0
M  V30 856 C 89.932 -0.430596 -1.98176 0
M  V30 857 C 90.265 1.00684 -1.66061 0
M  V30 858 O 89.54 1.70339 -0.938877 0
M  V30 859 C 89.823 -0.648065 -3.5422 0
M  V30 860 C 89.676 -2.13255 -3.96033 0
M  V30 861 C 90.995 -0.0922113 -4.40003 0
M  V30 862 H 88.114 -0.157924 -0.719881 0
M  V30 863 H 90.756 -1.05069 -1.58305 0
M  V30 864 H 88.906 -0.120237 -3.88314 0
M  V30 865 H 90.578 -2.725 -3.72211 0
M  V30 866 H 88.821 -2.61823 -3.45878 0
M  V30 867 H 89.492 -2.23547 -5.04708 0
M  V30 868 H 91.968 -0.543343 -4.12537 0
M  V30 869 H 90.844 -0.274083 -5.48215 0
M  V30 870 H 91.105 1.00378 -4.30554 0
M  V30 871 N 90.1641 1.46063 -0.591896 0
M  V30 872 C 91.4101 2.02638 -0.0811191 0
M  V30 873 C 91.7431 1.4613 1.27905 0
M  V30 874 O 91.0181 0.629908 1.84017 0
M  V30 875 C 91.3011 3.60091 -0.0252436 0
M  V30 876 C 91.1541 4.26965 -1.41496 0
M  V30 877 C 92.4731 4.3496 0.670685 0
M  V30 878 H 89.5921 0.73635 -0.0309524 0
M  V30 879 H 92.2341 1.741 -0.760859 0
M  V30 880 H 90.3841 3.84535 0.553624 0
M  V30 881 H 92.0561 4.13756 -2.0397 0
M  V30 882 H 90.2991 3.85971 -1.98011 0
M  V30 883 H 90.9701 5.35781 -1.32825 0
M  V30 884 H 93.4461 4.15716 0.178825 0
M  V30 885 H 92.3221 5.44686 0.678837 0
M  V30 886 H 92.5831 4.06685 1.73379 0
M  V30 887 N 91.6422 0.330177 1.54103 0
M  V30 888 C 92.5902 -0.548226 2.26047 0
M  V30 889 C 93.5842 -1.11309 1.27698 0
M  V30 890 O 94.7902 -1.06036 1.45452 0
M  V30 891 H 91.1652 -0.195456 0.726155 0
M  V30 892 H 93.1362 0.0807567 2.98291 0
M  V30 893 C 91.8852 -1.69415 3.03634 0
M  V30 894 H 91.2082 -1.26876 3.79134 0
M  V30 895 H 92.6482 -2.28423 3.5721 0
M  V30 896 C 91.1072 -2.61569 2.12328 0
M  V30 897 O 91.6372 -3.63462 1.7105 0
M  V30 898 N 89.8432 -2.29952 1.77681 0
M  V30 899 H 89.3902 -1.47134 2.11446 0
M  V30 900 H 89.3482 -2.91871 1.16869 0
M  V30 901 N 93.1203 -1.57491 0.0584922 0
M  V30 902 C 94.3683 -1.92597 -0.612436 0
M  V30 903 C 94.6893 -0.938162 -1.70949 0
M  V30 904 O 93.9593 0.0158301 -1.95894 0
M  V30 905 H 92.5393 -0.710964 -0.229214 0
M  V30 906 H 95.2013 -1.94571 0.113218 0
M  V30 907 H 94.2973 -2.94038 -1.04633 0
M  V30 908 N 94.5984 0.214957 -1.56127 0
M  V30 909 C 95.8234 0.95924 -1.83884 0
M  V30 910 C 96.2484 1.7689 -0.639644 0
M  V30 911 O 95.6064 1.76566 0.411601 0
M  V30 912 C 95.6544 1.84723 -3.09693 0
M  V30 913 O 94.7584 2.94346 -2.8885 0
M  V30 914 H 94.0994 0.27125 -0.606069 0
M  V30 915 H 96.6294 0.226276 -2.03345 0
M  V30 916 H 96.6394 2.25576 -3.39969 0
M  V30 917 H 95.3144 1.25218 -3.96602 0
M  V30 918 H 93.8914 2.57391 -2.69823 0
M  V30 919 N 96.0765 1.50051 0.48192 0
M  V30 920 C 97.0395 1.67584 1.5636 0
M  V30 921 C 98.0395 0.546894 1.51214 0
M  V30 922 O 99.2295 0.813725 1.54026 0
M  V30 923 C 96.3615 1.691 2.96003 0
M  V30 924 H 97.5545 2.64078 1.42136 0
M  V30 925 H 95.1075 1.39369 0.707533 0
M  V30 926 H 95.8425 0.742589 3.15684 0
M  V30 927 H 95.6275 2.51105 3.01146 0
M  V30 928 H 97.1175 1.84656 3.74556 0
M  V30 929 N 97.5546 -0.734337 1.39446 0
M  V30 930 C 98.4866 -1.85861 1.34121 0
M  V30 931 C 99.4996 -1.60871 0.249864 0
M  V30 932 O 100.689 -1.71093 0.508865 0
M  V30 933 C 97.7886 -3.21899 1.05991 0
M  V30 934 C 96.9616 -3.74239 2.26415 0
M  V30 935 C 96.0206 -4.88841 1.94733 0
M  V30 936 O 95.0466 -5.02468 2.67422 0
M  V30 937 N 96.2486 -5.73261 0.913884 0
M  V30 938 H 99.0136 -1.90934 2.31007 0
M  V30 939 H 96.5746 -0.915102 1.33557 0
M  V30 940 H 98.5666 -3.96136 0.828147 0
M  V30 941 H 97.1366 -3.12091 0.178361 0
M  V30 942 H 96.3566 -2.91347 2.65539 0
M  V30 943 H 97.6446 -4.05942 3.06738 0
M  V30 944 H 97.0426 -5.64842 0.311476 0
M  V30 945 H 95.5996 -6.47563 0.742015 0
M  V30 946 N 99.0327 -1.24633 -0.964593 0
M  V30 947 C 100.281 -1.08573 -1.70459 0
M  V30 948 C 100.602 0.375655 -1.91347 0
M  V30 949 O 99.8717 1.26779 -1.49345 0
M  V30 950 H 98.4517 -0.398784 -0.631649 0
M  V30 951 H 101.114 -1.56601 -1.16026 0
M  V30 952 H 100.21 -1.58623 -2.68785 0
M  V30 953 N 100.511 1.16574 -1.06058 0
M  V30 954 C 101.474 2.19085 -0.673392 0
M  V30 955 C 102.474 1.5835 0.279648 0
M  V30 956 O 103.664 1.74088 0.0623488 0
M  V30 957 C 100.796 3.40899 0.00954234 0
M  V30 958 H 101.989 2.54853 -1.58081 0
M  V30 959 H 99.5418 1.30808 -0.855516 0
M  V30 960 H 100.277 3.10684 0.929826 0
M  V30 961 H 100.062 3.86233 -0.67573 0
M  V30 962 H 101.552 4.1675 0.266245 0
M  V30 963 N 101.989 0.842826 1.3317 0
M  V30 964 C 102.921 0.236245 2.27979 0
M  V30 965 C 103.934 -0.585282 1.51915 0
M  V30 966 O 105.123 -0.411705 1.73687 0
M  V30 967 C 102.223 -0.685717 3.3189 0
M  V30 968 C 101.396 0.0973448 4.37292 0
M  V30 969 C 100.455 -0.748565 5.20848 0
M  V30 970 O 99.4809 -0.186339 5.68895 0
M  V30 971 N 100.683 -2.06527 5.42519 0
M  V30 972 H 103.448 1.05088 2.80672 0
M  V30 973 H 101.009 0.701667 1.45905 0
M  V30 974 H 103.001 -1.25669 3.84694 0
M  V30 975 H 101.571 -1.40105 2.79445 0
M  V30 976 H 100.791 0.849706 3.84933 0
M  V30 977 H 102.079 0.635643 5.04814 0
M  V30 978 H 101.477 -2.54554 5.05192 0
M  V30 979 H 100.034 -2.58464 5.98364 0
M  V30 980 N 103.467 -1.45747 0.599634 0
M  V30 981 C 104.716 -2.01502 0.0893511 0
M  V30 982 C 105.029 -1.4748 -1.28488 0
M  V30 983 O 106.235 -1.95161 -1.88745 0
M  V30 984 C 104.691 -3.59735 0.109082 0
M  V30 985 C 104.299 -4.22754 1.48267 0
M  V30 986 C 106.043 -4.23085 -0.346374 0
M  V30 987 C 103.95 -5.73115 1.45921 0
M  V30 988 H 102.88 -0.753417 0.0296347 0
M  V30 989 H 105.531 -1.67303 0.753788 0
M  V30 990 H 103.913 -3.91087 -0.621854 0
M  V30 991 H 105.087 -4.02987 2.23468 0
M  V30 992 H 103.402 -3.71567 1.87955 0
M  V30 993 H 105.999 -5.33327 -0.38298 0
M  V30 994 H 106.342 -3.93201 -1.36743 0
M  V30 995 H 106.875 -3.9642 0.331038 0
M  V30 996 H 103.614 -6.07685 2.45762 0
M  V30 997 H 103.134 -5.95097 0.749665 0
M  V30 998 H 104.813 -6.3616 1.17941 0
M  V30 999 N 104.945 -0.338344 -1.53925 0
M  V30 1000 C 106.193 0.259245 -2.0043 0
M  V30 1001 C 106.514 1.51484 -1.22791 0
M  V30 1002 O 105.784 1.93037 -0.33368 0
M  V30 1003 H 104.364 0.0987845 -0.740439 0
M  V30 1004 H 107.026 -0.458302 -1.89435 0
M  V30 1005 H 106.122 0.505334 -3.07982 0
M  V30 1006 N 106.423 1.57458 -0.0668435 0
M  V30 1007 C 107.386 2.11323 0.887422 0
M  V30 1008 C 108.386 1.03618 1.22964 0
M  V30 1009 O 109.576 1.29626 1.16373 0
M  V30 1010 C 106.708 2.61048 2.19242 0
M  V30 1011 H 107.901 2.96942 0.420194 0
M  V30 1012 H 105.454 1.55239 0.181793 0
M  V30 1013 H 106.189 1.78868 2.70512 0
M  V30 1014 H 105.974 3.39769 1.95702 0
M  V30 1015 H 107.464 3.02814 2.87565 0
M  V30 1016 N 107.901 -0.206675 1.56239 0
M  V30 1017 C 108.834 -1.28383 1.88661 0
M  V30 1018 C 109.812 -1.44504 0.745481 0
M  V30 1019 O 110.996 -1.60079 0.995336 0
M  V30 1020 C 108.123 -2.65211 2.10667 0
M  V30 1021 C 107.169 -2.66025 3.33366 0
M  V30 1022 S 108.002 -2.18609 4.88846 0
M  V30 1023 C 109.158 -3.57283 5.13906 0
M  V30 1024 H 109.391 -1.00691 2.7973 0
M  V30 1025 H 106.924 -0.409627 1.48867 0
M  V30 1026 H 108.882 -3.43979 2.24029 0
M  V30 1027 H 107.543 -2.90121 1.20369 0
M  V30 1028 H 106.736 -3.66607 3.45855 0
M  V30 1029 H 106.338 -1.95331 3.18938 0
M  V30 1030 H 108.63 -4.53074 5.03717 0
M  V30 1031 H 109.573 -3.49699 6.15724 0
M  V30 1032 H 109.981 -3.51659 4.41583 0
M  V30 1033 N 109.379 -1.50304 -0.473955 0
M  V30 1034 C 110.309 -1.71886 -1.58042 0
M  V30 1035 C 111.29 -0.567799 -1.60344 0
M  V30 1036 O 112.475 -0.806623 -1.76656 0
M  V30 1037 C 109.605 -1.81036 -2.96384 0
M  V30 1038 C 108.559 -2.962 -3.08949 0
M  V30 1039 C 107.885 -2.9049 -4.48909 0
M  V30 1040 C 109.185 -4.36752 -2.86434 0
M  V30 1041 H 110.879 -2.64527 -1.40234 0
M  V30 1042 H 108.425 -1.27295 -0.673201 0
M  V30 1043 H 110.378 -1.94719 -3.73714 0
M  V30 1044 H 109.102 -0.850147 -3.15341 0
M  V30 1045 H 107.761 -2.82164 -2.3405 0
M  V30 1046 H 107.409 -1.92321 -4.64781 0
M  V30 1047 H 107.109 -3.67802 -4.58253 0
M  V30 1048 H 108.633 -3.06218 -5.28264 0
M  V30 1049 H 110.047 -4.5133 -3.53517 0
M  V30 1050 H 108.444 -5.15493 -3.07225 0
M  V30 1051 H 109.514 -4.49321 -1.82316 0
M  V30 1052 N 110.857 0.726932 -1.39834 0
M  V30 1053 C 111.79 1.8501 -1.33592 0
M  V30 1054 C 112.768 1.61262 -0.208191 0
M  V30 1055 O 113.952 1.84422 -0.389981 0
M  V30 1056 C 111.079 3.21143 -1.07633 0
M  V30 1057 C 110.125 3.63737 -2.22705 0
M  V30 1058 S 110.958 3.72167 -3.85035 0
M  V30 1059 C 112.114 5.11077 -3.61318 0
M  V30 1060 H 112.347 1.90022 -2.28646 0
M  V30 1061 H 109.88 0.892595 -1.25985 0
M  V30 1062 H 111.838 3.99747 -0.933415 0
M  V30 1063 H 110.499 3.13776 -0.142526 0
M  V30 1064 H 109.692 4.62551 -2.00155 0
M  V30 1065 H 109.294 2.9236 -2.33242 0
M  V30 1066 H 111.586 5.97656 -3.19083 0
M  V30 1067 H 112.529 5.38658 -4.59623 0
M  V30 1068 H 112.937 4.81135 -2.95245 0
M  V30 1069 N 112.336 1.25143 0.95797 0
M  V30 1070 C 113.299 1.05321 2.03569 0
M  V30 1071 C 114.299 0.007152 1.60798 0
M  V30 1072 O 115.489 0.24903 1.72411 0
M  V30 1073 C 112.621 0.598394 3.35607 0
M  V30 1074 H 113.814 2.00986 2.22586 0
M  V30 1075 H 111.367 1.07502 1.13459 0
M  V30 1076 H 112.102 -0.361014 3.22284 0
M  V30 1077 H 111.887 1.35351 3.67998 0
M  V30 1078 H 113.377 0.48104 4.1482 0
M  V30 1079 N 113.814 -1.1601 1.06675 0
M  V30 1080 C 115.063 -1.85973 0.780818 0
M  V30 1081 C 115.376 -1.82819 -0.695444 0
M  V30 1082 O 116.582 -2.484 -1.09589 0
M  V30 1083 C 115.038 -3.33757 1.34665 0
M  V30 1084 C 114.646 -3.45374 2.85343 0
M  V30 1085 C 116.39 -4.0895 1.13843 0
M  V30 1086 C 114.297 -4.87266 3.35151 0
M  V30 1087 H 113.227 -0.696661 0.288407 0
M  V30 1088 H 115.878 -1.30903 1.28595 0
M  V30 1089 H 114.26 -3.88456 0.769274 0
M  V30 1090 H 115.434 -3.00816 3.49065 0
M  V30 1091 H 113.749 -2.83619 3.04876 0
M  V30 1092 H 116.346 -5.13654 1.4854 0
M  V30 1093 H 116.689 -4.16229 0.0770282 0
M  V30 1094 H 117.222 -3.605 1.68179 0
M  V30 1095 H 113.961 -4.85168 4.40786 0
M  V30 1096 H 113.481 -5.32433 2.76179 0
M  V30 1097 H 115.16 -5.56097 3.30704 0
M  V30 1098 N 115.292 -0.849877 -1.32721 0
M  V30 1099 C 116.708 -0.539102 -1.50219 0
M  V30 1100 C 116.908 0.931271 -1.78689 0
M  V30 1101 O 115.964 1.71455 -1.85363 0
M  V30 1102 C 117.277 -1.42196 -2.64954 0
M  V30 1103 C 118.825 -1.42189 -2.78839 0
M  V30 1104 C 119.3 -2.28985 -3.96648 0
M  V30 1105 N 120.791 -2.26754 -4.03902 0
M  V30 1106 C 121.526 -2.90644 -4.94281 0
M  V30 1107 N 121.022 -3.63629 -5.897 0
M  V30 1108 N 122.815 -2.80057 -4.87365 0
M  V30 1109 H 114.966 -1.80156 -1.12506 0
M  V30 1110 H 117.229 -0.769217 -0.554085 0
M  V30 1111 H 116.935 -2.46733 -2.50631 0
M  V30 1112 H 116.809 -1.10591 -3.60624 0
M  V30 1113 H 119.196 -0.38419 -2.92588 0
M  V30 1114 H 119.277 -1.77807 -1.83898 0
M  V30 1115 H 118.921 -3.32819 -3.83658 0
M  V30 1116 H 118.851 -1.90702 -4.90857 0
M  V30 1117 H 121.342 -1.73688 -3.3562 0
M  V30 1118 H 121.655 -4.09558 -6.55349 0
M  V30 1119 H 120 -3.67737 -5.89741 0
M  V30 1120 H 123.191 -2.22593 -4.11789 0
M  V30 1121 H 123.364 -3.30132 -5.57599 0
M  V30 1122 N 116.77 1.45427 -0.607355 0
M  V30 1123 C 117.7 2.3329 0.0989352 0
M  V30 1124 C 118.681 1.46816 0.859007 0
M  V30 1125 O 119.866 1.75588 0.829604 0
M  V30 1126 C 116.996 3.29518 1.09705 0
M  V30 1127 C 115.95 4.25626 0.450206 0
M  V30 1128 C 115.276 5.11542 1.55655 0
M  V30 1129 C 116.576 5.18505 -0.628455 0
M  V30 1130 H 118.27 2.92595 -0.634716 0
M  V30 1131 H 115.816 1.40696 -0.306681 0
M  V30 1132 H 117.769 3.89855 1.59971 0
M  V30 1133 H 116.493 2.68372 1.86129 0
M  V30 1134 H 115.152 3.66586 -0.0315886 0
M  V30 1135 H 114.8 4.46765 2.31107 0
M  V30 1136 H 114.5 5.76647 1.12925 0
M  V30 1137 H 116.024 5.74748 2.06148 0
M  V30 1138 H 117.438 5.72916 -0.209877 0
M  V30 1139 H 115.835 5.92085 -0.977489 0
M  V30 1140 H 116.905 4.60948 -1.50514 0
M  V30 1141 N 118.248 0.346503 1.53744 0
M  V30 1142 C 119.664 -0.00530975 1.59599 0
M  V30 1143 C 119.864 -1.48465 1.36236 0
M  V30 1144 O 118.92 -2.24376 1.15808 0
M  V30 1145 C 120.233 0.433516 2.97559 0
M  V30 1146 C 121.781 0.386111 3.10609 0
M  V30 1147 C 122.256 0.800451 4.50951 0
M  V30 1148 N 123.747 0.754753 4.5701 0
M  V30 1149 C 124.482 1.04727 5.63755 0
M  V30 1150 N 123.978 1.4081 6.7834 0
M  V30 1151 N 125.771 0.971316 5.53644 0
M  V30 1152 H 117.922 1.31009 1.67184 0
M  V30 1153 H 120.185 0.534242 0.783128 0
M  V30 1154 H 119.891 1.46509 3.19731 0
M  V30 1155 H 119.765 -0.189753 3.76722 0
M  V30 1156 H 122.152 -0.636295 2.88158 0
M  V30 1157 H 122.233 1.04462 2.33498 0
M  V30 1158 H 121.877 1.82088 4.74137 0
M  V30 1159 H 121.807 0.119386 5.26465 0
M  V30 1160 H 124.298 0.488662 3.74727 0
M  V30 1161 H 124.611 1.61607 7.55714 0
M  V30 1162 H 122.956 1.44657 6.79779 0
M  V30 1163 H 126.147 0.688748 4.63005 0
M  V30 1164 H 126.32 1.20263 6.36742 0
M  V30 1165 N 119.726 -1.57421 0.075193 0
M  V30 1166 C 120.974 -1.93236 -0.591974 0
M  V30 1167 C 121.295 -0.956241 -1.69944 0
M  V30 1168 O 120.565 -0.00494792 -1.95899 0
M  V30 1169 H 119.145 -0.713355 -0.22166 0
M  V30 1170 H 121.807 -1.9444 0.133848 0
M  V30 1171 H 120.903 -2.95131 -1.01509 0
M  V30 1172 N 121.204 0.198386 -1.56346 0
M  V30 1173 C 122.137 1.27381 -1.89339 0
M  V30 1174 C 123.115 1.44106 -0.753134 0
M  V30 1175 O 124.299 1.59549 -1.00381 0
M  V30 1176 C 121.426 2.6409 -2.12071 0
M  V30 1177 C 120.472 2.64253 -3.34772 0
M  V30 1178 S 121.305 2.16013 -4.89999 0
M  V30 1179 C 122.461 3.54553 -5.15794 0
M  V30 1180 H 122.694 0.992058 -2.8026 0
M  V30 1181 H 120.227 0.401726 -1.49082 0
M  V30 1182 H 122.185 3.42786 -2.2585 0
M  V30 1183 H 120.846 2.89478 -1.21906 0
M  V30 1184 H 120.039 3.64768 -3.47794 0
M  V30 1185 H 119.641 1.93637 -3.1997 0
M  V30 1186 H 121.933 4.50396 -5.06112 0
M  V30 1187 H 122.876 3.46428 -6.1757 0
M  V30 1188 H 123.284 3.49313 -4.43442 0
M  V30 1189 N 122.682 1.50554 0.465978 0
M  V30 1190 C 123.959 1.5232 1.22712 0
M  V30 1191 C 124.339 0.270807 2.09356 0
M  V30 1192 O 123.687 -0.745541 2.15995 0
M  V30 1193 C 123.897 2.82175 2.05374 0
M  V30 1194 C 125.245 3.33033 2.6339 0
M  V30 1195 O 126.269 2.83531 2.15612 0
M  V30 1196 O 125.128 4.19336 3.50456 0
M  V30 1197 H 122.222 0.611183 0.557122 0
M  V30 1198 H 124.768 1.62847 0.477381 0
M  V30 1199 H 123.54 3.64797 1.41558 0
M  V30 1200 H 123.163 2.74675 2.87471 0
M  V30 1201 N 124.16 -0.719506 1.40217 0
M  V30 1202 C 125.09 -1.8465 1.42922 0
M  V30 1203 C 126.071 -1.67599 0.29062 0
M  V30 1204 O 127.256 -1.87688 0.498677 0
M  V30 1205 C 124.386 -3.22565 1.28722 0
M  V30 1206 C 123.34 -3.54281 2.40144 0
M  V30 1207 C 122.666 -4.91298 2.11023 0
M  V30 1208 C 123.966 -3.55676 3.82481 0
M  V30 1209 H 125.66 -1.82644 2.37237 0
M  V30 1210 H 123.206 -0.877305 1.1419 0
M  V30 1211 H 125.159 -4.01095 1.29232 0
M  V30 1212 H 123.883 -3.25137 0.308811 0
M  V30 1213 H 122.542 -2.78088 2.38877 0
M  V30 1214 H 122.19 -4.90468 1.11582 0
M  V30 1215 H 121.89 -5.13485 2.8567 0
M  V30 1216 H 123.414 -5.72166 2.13209 0
M  V30 1217 H 124.828 -4.24254 3.85592 0
M  V30 1218 H 123.225 -3.89388 4.56614 0
M  V30 1219 H 124.295 -2.55144 4.12346 0
M  V30 1220 N 125.638 -1.25649 -0.95132 0
M  V30 1221 C 126.548 -1.08073 -2.08224 0
M  V30 1222 C 127.564 -0.0169666 -1.73992 0
M  V30 1223 O 128.74 -0.218593 -2.0021 0
M  V30 1224 C 125.805 -0.704922 -3.39458 0
M  V30 1225 C 124.866 -1.84699 -3.87537 0
M  V30 1226 C 124.099 -1.48902 -5.12508 0
M  V30 1227 O 124.322 -0.386156 -5.69091 0
M  V30 1228 O 123.256 -2.32033 -5.55378 0
M  V30 1229 H 127.082 -2.02924 -2.25954 0
M  V30 1230 H 124.667 -1.04618 -1.06656 0
M  V30 1231 H 126.549 -0.507609 -4.18332 0
M  V30 1232 H 125.224 0.214291 -3.2299 0
M  V30 1233 H 124.131 -2.09919 -3.09653 0
M  V30 1234 H 125.464 -2.74557 -4.08509 0
M  V30 1235 N 127.117 1.15442 -1.07289 0
M  V30 1236 C 128.027 2.23786 -0.704057 0
M  V30 1237 C 129.043 1.7166 0.284413 0
M  V30 1238 O 130.219 2.00972 0.131205 0
M  V30 1239 C 127.284 3.46535 -0.106792 0
M  V30 1240 C 126.345 4.13654 -1.14842 0
M  V30 1241 C 125.578 5.30544 -0.57956 0
M  V30 1242 O 125.801 5.67187 0.604585 0
M  V30 1243 O 124.735 5.87154 -1.32414 0
M  V30 1244 H 128.561 2.57664 -1.60757 0
M  V30 1245 H 126.146 1.23152 -0.845803 0
M  V30 1246 H 128.028 4.20804 0.224048 0
M  V30 1247 H 126.703 3.14407 0.770049 0
M  V30 1248 H 125.61 3.4131 -1.5316 0
M  V30 1249 H 126.943 4.49861 -1.99714 0
M  V30 1250 N 128.595 0.856903 1.32268 0
M  V30 1251 C 129.823 0.475439 2.01363 0
M  V30 1252 C 130.238 -0.928486 1.64392 0
M  V30 1253 O 129.595 -1.60624 0.866387 0
M  V30 1254 C 129.646 0.607545 3.56358 0
M  V30 1255 O 129.367 1.95617 3.92002 0
M  V30 1256 C 130.868 0.225382 4.42727 0
M  V30 1257 H 128.088 0.186636 0.644521 0
M  V30 1258 H 130.632 1.15446 1.68797 0
M  V30 1259 H 128.787 -0.0237719 3.87393 0
M  V30 1260 H 129.201 1.95455 4.86721 0
M  V30 1261 H 130.675 0.368813 5.50767 0
M  V30 1262 H 131.152 -0.834369 4.31202 0
M  V30 1263 H 131.758 0.831864 4.17085 0
M  V30 1264 N 130.073 -1.45103 0.615059 0
M  V30 1265 C 131.298 -2.07064 0.117988 0
M  V30 1266 C 131.723 -1.4554 -1.19163 0
M  V30 1267 O 131.081 -0.550855 -1.72729 0
M  V30 1268 C 131.129 -3.606 -0.000288387 0
M  V30 1269 O 130.233 -3.98847 -1.04856 0
M  V30 1270 H 129.574 -0.659467 0.0774581 0
M  V30 1271 H 132.104 -1.86236 0.847186 0
M  V30 1272 H 132.114 -4.07529 -0.196091 0
M  V30 1273 H 130.789 -4.04765 0.955932 0
M  V30 1274 H 129.366 -3.63577 -0.828619 0
M  V30 1275 N 131.551 -0.354651 -1.53558 0
M  V30 1276 C 132.797 0.238797 -2.01389 0
M  V30 1277 C 133.13 1.49309 -1.2418 0
M  V30 1278 O 132.405 1.91638 -0.332457 0
M  V30 1279 C 132.688 0.541771 -3.56001 0
M  V30 1280 C 132.541 -0.725388 -4.43912 0
M  V30 1281 C 133.86 1.34685 -4.18984 0
M  V30 1282 H 130.979 0.0853177 -0.732045 0
M  V30 1283 H 133.621 -0.477384 -1.83905 0
M  V30 1284 H 131.771 1.15189 -3.71031 0
M  V30 1285 H 133.443 -1.36313 -4.407 0
M  V30 1286 H 131.686 -1.34801 -4.12324 0
M  V30 1287 H 132.357 -0.468505 -5.50008 0
M  V30 1288 H 134.833 0.830837 -4.07721 0
M  V30 1289 H 133.709 1.52759 -5.27215 0
M  V30 1290 H 133.97 2.35221 -3.74331 0
M  V30 1291 N 133.029 1.57378 -0.0835403 0
M  V30 1292 C 133.959 2.1641 0.87686 0
M  V30 1293 C 134.94 1.09429 1.30228 0
M  V30 1294 O 136.125 1.37516 1.37124 0
M  V30 1295 C 133.255 2.73517 2.14022 0
M  V30 1296 C 132.209 3.85769 1.85381 0
M  V30 1297 C 131.535 4.29529 3.18448 0
M  V30 1298 C 132.835 5.09486 1.14984 0
M  V30 1299 H 134.529 2.96914 0.385059 0
M  V30 1300 H 132.075 1.42823 0.18377 0
M  V30 1301 H 134.028 3.13463 2.81636 0
M  V30 1302 H 132.752 1.90252 2.65465 0
M  V30 1303 H 131.411 3.46345 1.20169 0
M  V30 1304 H 131.059 3.43169 3.67755 0
M  V30 1305 H 130.759 5.05204 3.00071 0
M  V30 1306 H 132.283 4.72099 3.8724 0
M  V30 1307 H 133.697 5.46674 1.72687 0
M  V30 1308 H 132.094 5.90515 1.06826 0
M  V30 1309 H 133.164 4.84724 0.130749 0
M  V30 1310 N 134.507 -0.190092 1.56449 0
M  V30 1311 C 135.735 -0.925772 1.85033 0
M  V30 1312 C 136.15 -1.76638 0.666658 0
M  V30 1313 O 135.507 -1.78822 -0.364565 0
M  V30 1314 C 135.558 -1.81786 3.12468 0
M  V30 1315 O 135.279 -1.01118 4.26271 0
M  V30 1316 C 136.78 -2.6648 3.54265 0
M  V30 1317 H 134 -0.269872 0.614337 0
M  V30 1318 H 136.544 -0.195837 2.0356 0
M  V30 1319 H 134.699 -2.50136 2.95822 0
M  V30 1320 H 135.113 -1.61956 4.98869 0
M  V30 1321 H 136.587 -3.24722 4.46385 0
M  V30 1322 H 137.064 -3.40434 2.77491 0
M  V30 1323 H 137.67 -2.03493 3.73458 0
M  V30 1324 N 135.985 -1.50799 -0.457987 0
M  V30 1325 C 136.917 -1.66786 -1.57211 0
M  V30 1326 C 137.93 -0.548962 -1.53265 0
M  V30 1327 O 139.119 -0.8226 -1.58416 0
M  V30 1328 C 136.219 -1.64834 -2.96113 0
M  V30 1329 C 135.392 -2.92971 -3.24787 0
M  V30 1330 C 134.451 -2.83485 -4.43309 0
M  V30 1331 O 133.477 -3.5744 -4.42973 0
M  V30 1332 N 134.679 -1.97929 -5.45714 0
M  V30 1333 H 137.444 -2.62889 -1.43909 0
M  V30 1334 H 135.005 -1.48427 -0.646617 0
M  V30 1335 H 136.997 -1.56084 -3.7339 0
M  V30 1336 H 135.567 -0.764118 -3.03117 0
M  V30 1337 H 134.787 -3.15749 -2.36 0
M  V30 1338 H 136.075 -3.77834 -3.40762 0
M  V30 1339 H 135.473 -1.37182 -5.48815 0
M  V30 1340 H 134.03 -1.95073 -6.21924 0
M  V30 1341 N 137.463 0.71206 -1.40597 0
M  V30 1342 C 138.426 1.80785 -1.40888 0
M  V30 1343 C 139.426 1.57937 -0.302103 0
M  V30 1344 O 140.616 1.64913 -0.561182 0
M  V30 1345 C 137.748 3.18927 -1.20409 0
M  V30 1346 H 138.941 1.81924 -2.38419 0
M  V30 1347 H 136.494 0.91805 -1.26497 0
M  V30 1348 H 137.229 3.23436 -0.236522 0
M  V30 1349 H 137.014 3.36911 -2.00582 0
M  V30 1350 H 138.504 3.98949 -1.23408 0
M  V30 1351 N 138.941 1.26152 0.944643 0
M  V30 1352 C 139.871 1.09902 2.06019 0
M  V30 1353 C 140.852 0.00519538 1.70099 0
M  V30 1354 O 142.037 0.176583 1.93396 0
M  V30 1355 C 139.167 0.727562 3.39594 0
M  V30 1356 C 138.121 1.77274 3.89561 0
M  V30 1357 C 137.447 1.25569 5.19747 0
M  V30 1358 C 138.747 3.17357 4.14827 0
M  V30 1359 H 140.441 2.03217 2.19871 0
M  V30 1360 H 137.987 0.978452 1.05652 0
M  V30 1361 H 139.94 0.600777 4.17095 0
M  V30 1362 H 138.664 -0.241287 3.25707 0
M  V30 1363 H 137.323 1.88814 3.14237 0
M  V30 1364 H 136.971 0.276783 5.02238 0
M  V30 1365 H 136.671 1.95433 5.54148 0
M  V30 1366 H 138.195 1.1415 5.99835 0
M  V30 1367 H 139.609 3.08914 4.82954 0
M  V30 1368 H 138.006 3.84781 4.60504 0
M  V30 1369 H 139.076 3.63673 3.20734 0
M  V30 1370 N 140.419 -1.14872 1.07899 0
M  V30 1371 C 141.382 -2.17986 0.708161 0
M  V30 1372 C 142.382 -1.58775 -0.25442 0
M  V30 1373 O 143.572 -1.74166 -0.034645 0
M  V30 1374 C 140.704 -3.40871 0.0446929 0
M  V30 1375 H 141.897 -2.52306 1.62116 0
M  V30 1376 H 139.45 -1.2943 0.876218 0
M  V30 1377 H 140.185 -3.12124 -0.880281 0
M  V30 1378 H 139.97 -3.8511 0.737091 0
M  V30 1379 H 141.46 -4.17121 -0.19991 0
M  V30 1380 N 141.898 -0.863906 -1.31812 0
M  V30 1381 C 142.83 -0.272485 -2.27575 0
M  V30 1382 C 143.843 0.56104 -1.52827 0
M  V30 1383 O 145.032 0.384021 -1.7432 0
M  V30 1384 C 142.132 0.63283 -3.32939 0
M  V30 1385 C 141.305 -0.166902 -4.37081 0
M  V30 1386 C 140.364 0.665608 -5.21973 0
M  V30 1387 O 139.39 0.0958091 -5.69119 0
M  V30 1388 N 140.592 1.9787 -5.45736 0
M  V30 1389 H 143.357 -1.0954 -2.78964 0
M  V30 1390 H 140.918 -0.724791 -1.4477 0
M  V30 1391 H 142.91 1.19532 -3.86645 0
M  V30 1392 H 141.48 1.35642 -2.81638 0
M  V30 1393 H 140.7 -0.910838 -3.83533 0
M  V30 1394 H 141.988 -0.715874 -5.03739 0
M  V30 1395 H 141.386 2.46484 -5.09178 0
M  V30 1396 H 139.943 2.48911 -6.024 0
M  V30 1397 N 143.376 1.44774 -0.622745 0
M  V30 1398 C 144.601 2.06999 -0.128968 0
M  V30 1399 C 145.026 1.4617 1.1839 0
M  V30 1400 O 144.384 0.560007 1.72434 0
M  V30 1401 C 144.432 3.60595 -0.0188351 0
M  V30 1402 O 143.536 3.99398 1.02739 0
M  V30 1403 H 142.877 0.659047 -0.0809544 0
M  V30 1404 H 145.407 1.85784 -0.85705 0
M  V30 1405 H 145.417 4.07627 0.174476 0
M  V30 1406 H 144.092 4.04252 -0.977384 0
M  V30 1407 H 142.669 3.64011 0.809326 0
M  V30 1408 N 144.854 0.36279 1.53368 0
M  V30 1409 C 146.102 -0.227326 2.00817 0
M  V30 1410 C 146.423 -1.49511 1.25186 0
M  V30 1411 O 145.693 -1.92482 0.364348 0
M  V30 1412 H 144.273 -0.0869923 0.741917 0
M  V30 1413 H 146.935 0.488381 1.88682 0
M  V30 1414 H 146.031 -0.456273 3.08747 0
M  V30 1415 N 146.332 -1.57332 0.0918853 0
M  V30 1416 C 147.264 -2.10869 -0.898168 0
M  V30 1417 C 148.277 -1.04521 -1.24817 0
M  V30 1418 O 149.466 -1.31977 -1.20184 0
M  V30 1419 C 146.566 -2.57083 -2.2082 0
M  V30 1420 C 145.739 -3.87229 -2.03402 0
M  V30 1421 C 144.798 -4.19324 -3.17889 0
M  V30 1422 O 143.824 -4.88598 -2.91994 0
M  V30 1423 N 145.026 -3.74471 -4.43567 0
M  V30 1424 H 147.791 -2.96439 -0.440943 0
M  V30 1425 H 145.352 -1.61631 -0.0933064 0
M  V30 1426 H 147.344 -2.75602 -2.96354 0
M  V30 1427 H 145.914 -1.76541 -2.57977 0
M  V30 1428 H 145.134 -3.7789 -1.12218 0
M  V30 1429 H 146.422 -4.72379 -1.89038 0
M  V30 1430 H 145.82 -3.18546 -4.67488 0
M  V30 1431 H 144.377 -3.98151 -5.16061 0
M  V30 1432 N 147.81 0.181792 -1.56548 0
M  V30 1433 C 148.742 1.24956 -1.92142 0
M  V30 1434 C 149.755 1.41022 -0.813422 0
M  V30 1435 O 150.944 1.41212 -1.09186 0
M  V30 1436 C 148.044 2.61981 -2.14987 0
M  V30 1437 C 147.217 2.6735 -3.46183 0
M  V30 1438 C 146.276 3.85664 -3.5798 0
M  V30 1439 O 145.302 3.72148 -4.30691 0
M  V30 1440 N 146.504 5.01683 -2.92053 0
M  V30 1441 H 149.269 0.947329 -2.84334 0
M  V30 1442 H 146.83 0.371629 -1.57577 0
M  V30 1443 H 148.822 3.3958 -2.20154 0
M  V30 1444 H 147.392 2.84637 -1.2923 0
M  V30 1445 H 146.612 1.75925 -3.52766 0
M  V30 1446 H 147.9 2.67939 -4.32534 0
M  V30 1447 H 147.298 5.15564 -2.32832 0
M  V30 1448 H 145.855 5.77181 -3.0283 0
M  V30 1449 N 149.288 1.51039 0.449983 0
M  V30 1450 C 150.218 1.74379 1.55288 0
M  V30 1451 C 151.199 0.593236 1.5942 0
M  V30 1452 O 152.384 0.834625 1.7535 0
M  V30 1453 C 149.514 1.85728 2.93466 0
M  V30 1454 C 148.468 3.01078 3.04197 0
M  V30 1455 C 147.794 2.97595 4.44231 0
M  V30 1456 C 149.094 4.41254 2.7945 0
M  V30 1457 H 150.788 2.66725 1.36008 0
M  V30 1458 H 148.334 1.2835 0.652864 0
M  V30 1459 H 150.287 2.0064 3.70569 0
M  V30 1460 H 149.011 0.900207 3.13949 0
M  V30 1461 H 147.67 2.85851 2.29531 0
M  V30 1462 H 147.318 1.99691 4.61663 0
M  V30 1463 H 147.018 3.75046 4.52343 0
M  V30 1464 H 148.542 3.14583 5.23326 0
M  V30 1465 H 149.956 4.56897 3.46292 0
M  V30 1466 H 148.353 5.20315 2.98985 0
M  V30 1467 H 149.423 4.52164 1.75144 0
M  V30 1468 N 150.766 -0.704594 1.40972 0
M  V30 1469 C 151.676 -1.84856 1.44448 0
M  V30 1470 C 152.692 -1.70726 0.335961 0
M  V30 1471 O 153.868 -1.92799 0.582276 0
M  V30 1472 C 150.933 -3.20758 1.31587 0
M  V30 1473 C 149.994 -3.47063 2.52677 0
M  V30 1474 C 149.227 -4.76481 2.4042 0
M  V30 1475 O 149.45 -5.52341 1.42391 0
M  V30 1476 O 148.384 -5.03367 3.30007 0
M  V30 1477 H 152.21 -1.8488 2.40942 0
M  V30 1478 H 149.795 -0.85647 1.22413 0
M  V30 1479 H 151.677 -4.01913 1.26665 0
M  V30 1480 H 150.352 -3.21438 0.382049 0
M  V30 1481 H 149.259 -2.65873 2.63177 0
M  V30 1482 H 150.592 -3.5119 3.44858 0
M  V30 1483 N 152.244 -1.26651 -0.937939 0
M  V30 1484 C 153.49 -1.13562 -1.68746 0
M  V30 1485 C 153.845 0.317241 -1.89767 0
M  V30 1486 O 153.138 1.22939 -1.46957 0
M  V30 1487 C 153.332 -1.84168 -3.06295 0
M  V30 1488 C 153.161 -3.36171 -2.98696 0
M  V30 1489 C 151.931 -4.05468 -3.01535 0
M  V30 1490 C 154.129 -4.32312 -2.78588 0
M  V30 1491 N 152.111 -5.44118 -2.84269 0
M  V30 1492 C 153.482 -5.58159 -2.69924 0
M  V30 1493 C 155.537 -4.22524 -2.63396 0
M  V30 1494 C 154.24 -6.75335 -2.47618 0
M  V30 1495 C 156.266 -5.39411 -2.42466 0
M  V30 1496 C 155.628 -6.64208 -2.34536 0
M  V30 1497 H 151.727 -0.470361 -0.624728 0
M  V30 1498 H 154.311 -1.59982 -1.10968 0
M  V30 1499 H 152.482 -1.40219 -3.62206 0
M  V30 1500 H 154.214 -1.63674 -3.70126 0
M  V30 1501 H 150.969 -3.56854 -3.11372 0
M  V30 1502 H 151.393 -6.1693 -2.78795 0
M  V30 1503 H 156.035 -3.26771 -2.68292 0
M  V30 1504 H 153.753 -7.71182 -2.41463 0
M  V30 1505 H 157.339 -5.33711 -2.31611 0
M  V30 1506 H 156.219 -7.53129 -2.18555 0
M  V30 1507 N 153.722 1.14298 -1.08507 0
M  V30 1508 C 155.133 1.66926 -0.836227 0
M  V30 1509 C 155.484 1.85576 0.63686 0
M  V30 1510 O 154.609 1.56767 1.49175 0
M  V30 1511 C 155.204 3.03219 -1.51142 0
M  V30 1512 C 153.763 3.52876 -1.30979 0
M  V30 1513 C 152.91 2.2833 -1.57356 0
M  V30 1514 H 155.861 0.983491 -1.24552 0
M  V30 1515 H 155.882 3.68726 -0.939211 0
M  V30 1516 H 155.394 2.89612 -2.58353 0
M  V30 1517 H 153.495 3.71703 -0.258429 0
M  V30 1518 H 153.608 4.33586 -2.03814 0
M  V30 1519 H 151.972 2.34454 -0.995164 0
M  V30 1520 H 152.755 2.17298 -2.65775 0
M  V30 1521 N 155.201 0.870884 1.31352 0
M  V30 1522 C 156.111 0.330783 2.32256 0
M  V30 1523 C 157.127 -0.559767 1.6475 0
M  V30 1524 O 158.303 -0.456263 1.96164 0
M  V30 1525 C 155.368 -0.458137 3.4366 0
M  V30 1526 C 154.429 0.460482 4.26823 0
M  V30 1527 C 153.662 -0.290881 5.32907 0
M  V30 1528 O 153.885 -1.51885 5.49806 0
M  V30 1529 O 152.819 0.351732 6.00871 0
M  V30 1530 H 156.645 1.16718 2.80376 0
M  V30 1531 H 154.23 0.634285 1.35267 0
M  V30 1532 H 156.112 -0.905343 4.1156 0
M  V30 1533 H 154.787 -1.27106 2.97701 0
M  V30 1534 H 153.694 0.956207 3.61673 0
M  V30 1535 H 155.027 1.23903 4.7635 0
M  V30 1536 N 156.679 -1.44442 0.630414 0
M  V30 1537 C 157.642 -2.29107 -0.0652523 0
M  V30 1538 C 158.642 -1.41002 -0.772995 0
M  V30 1539 O 159.832 -1.62881 -0.617692 0
M  V30 1540 C 156.964 -3.22564 -1.10296 0
M  V30 1541 H 158.157 -2.92103 0.679401 0
M  V30 1542 H 155.71 -1.51343 0.390517 0
M  V30 1543 H 156.445 -2.64416 -1.87762 0
M  V30 1544 H 156.23 -3.87491 -0.59941 0
M  V30 1545 H 157.72 -3.86167 -1.5895 0
M  V30 1546 N 158.157 -0.370918 -1.53173 0
M  V30 1547 C 159.403 0.209976 -2.02313 0
M  V30 1548 C 159.758 1.45987 -1.25322 0
M  V30 1549 O 159.051 1.8856 -0.339965 0
M  V30 1550 C 159.245 0.549696 -3.53147 0
M  V30 1551 C 159.074 -0.665721 -4.44745 0
M  V30 1552 C 157.844 -1.17942 -4.91343 0
M  V30 1553 C 160.042 -1.53255 -4.90935 0
M  V30 1554 N 158.024 -2.35431 -5.66962 0
M  V30 1555 C 159.395 -2.55403 -5.64951 0
M  V30 1556 C 161.45 -1.5548 -4.73002 0
M  V30 1557 C 160.153 -3.5964 -6.22938 0
M  V30 1558 C 162.179 -2.58613 -5.31858 0
M  V30 1559 C 161.541 -3.59485 -6.05764 0
M  V30 1560 H 157.64 0.0394095 -0.781006 0
M  V30 1561 H 160.224 -0.516666 -1.8772 0
M  V30 1562 H 158.395 1.24541 -3.67891 0
M  V30 1563 H 160.127 1.11614 -3.89004 0
M  V30 1564 H 156.882 -0.743228 -4.67732 0
M  V30 1565 H 157.306 -2.94827 -6.09431 0
M  V30 1566 H 161.948 -0.788457 -4.15383 0
M  V30 1567 H 159.666 -4.37153 -6.79649 0
M  V30 1568 H 163.252 -2.61195 -5.19873 0
M  V30 1569 H 162.132 -4.3798 -6.50495 0
M  V30 1570 N 159.635 1.57281 -0.100228 0
M  V30 1571 C 161.051 1.57527 0.256416 0
M  V30 1572 C 161.251 1.11173 1.68056 0
M  V30 1573 O 160.307 0.79053 2.39806 0
M  V30 1574 C 161.62 3.00673 0.0401747 0
M  V30 1575 C 163.168 3.12815 0.107528 0
M  V30 1576 C 163.643 4.57929 -0.0807834 0
M  V30 1577 N 165.134 4.63193 -0.0261207 0
M  V30 1578 C 165.869 5.73212 -0.146999 0
M  V30 1579 N 165.365 6.92047 -0.322999 0
M  V30 1580 N 167.158 5.62031 -0.0879044 0
M  V30 1581 H 159.309 1.85718 -1.03065 0
M  V30 1582 H 161.572 0.857446 -0.404339 0
M  V30 1583 H 161.278 3.38804 -0.943649 0
M  V30 1584 H 161.152 3.69042 0.780262 0
M  V30 1585 H 163.539 2.74554 1.08186 0
M  V30 1586 H 163.62 2.47028 -0.664134 0
M  V30 1587 H 163.264 4.96886 -1.05201 0
M  V30 1588 H 163.194 5.21783 0.710635 0
M  V30 1589 H 165.685 3.77748 0.107161 0
M  V30 1590 H 165.998 7.7173 -0.406608 0
M  V30 1591 H 164.343 6.94074 -0.358733 0
M  V30 1592 H 167.534 4.68075 0.048498 0
M  V30 1593 H 167.707 6.47734 -0.185557 0
M  V30 1594 N 161.113 -0.173488 1.56642 0
M  V30 1595 C 162.045 -1.23935 1.92802 0
M  V30 1596 C 163.058 -1.40589 0.820889 0
M  V30 1597 O 164.247 -1.40631 1.09933 0
M  V30 1598 C 161.347 -2.60837 2.16373 0
M  V30 1599 C 160.52 -2.6551 3.47596 0
M  V30 1600 C 159.579 -3.8376 3.60021 0
M  V30 1601 O 158.605 -3.69859 4.32658 0
M  V30 1602 N 159.807 -5.00127 2.94709 0
M  V30 1603 H 162.572 -0.932236 2.84832 0
M  V30 1604 H 160.133 -0.363268 1.57772 0
M  V30 1605 H 162.125 -3.38407 2.21952 0
M  V30 1606 H 160.695 -2.83948 1.30738 0
M  V30 1607 H 159.915 -1.74052 3.53694 0
M  V30 1608 H 161.203 -2.65641 4.33949 0
M  V30 1609 H 160.601 -5.14322 2.35563 0
M  V30 1610 H 159.158 -5.75567 3.05886 0
M  V30 1611 N 162.591 -1.51276 -0.441967 0
M  V30 1612 C 163.523 -1.68444 -1.55433 0
M  V30 1613 C 164.536 -0.565187 -1.52674 0
M  V30 1614 O 165.725 -0.839356 -1.57534 0
M  V30 1615 C 162.825 -1.67966 -2.94348 0
M  V30 1616 C 161.998 -2.964 -3.21661 0
M  V30 1617 C 161.057 -2.88171 -4.40277 0
M  V30 1618 O 160.083 -3.62119 -4.39157 0
M  V30 1619 N 161.285 -2.03706 -5.43584 0
M  V30 1620 H 164.05 -2.644 -1.41112 0
M  V30 1621 H 161.611 -1.49104 -0.630838 0
M  V30 1622 H 163.603 -1.60035 -3.71713 0
M  V30 1623 H 162.173 -0.796225 -3.0229 0
M  V30 1624 H 161.393 -3.18234 -2.32638 0
M  V30 1625 H 162.681 -3.81427 -3.36736 0
M  V30 1626 H 162.079 -1.42995 -5.47329 0
M  V30 1627 H 160.636 -2.01658 -6.1982 0
M  V30 1628 N 164.069 0.697108 -1.41344 0
M  V30 1629 C 164.999 1.82353 -1.45841 0
M  V30 1630 C 165.98 1.67115 -0.317247 0
M  V30 1631 O 167.165 1.86871 -0.528474 0
M  V30 1632 C 164.295 3.20476 -1.33838 0
M  V30 1633 C 163.249 3.50415 -2.4575 0
M  V30 1634 C 162.575 4.87878 -2.18813 0
M  V30 1635 C 163.875 3.49546 -3.88091 0
M  V30 1636 H 165.569 1.78846 -2.40113 0
M  V30 1637 H 163.115 0.859028 -1.15571 0
M  V30 1638 H 165.068 3.98988 -1.35596 0
M  V30 1639 H 163.792 3.24604 -0.360498 0
M  V30 1640 H 162.451 2.74253 -2.43271 0
M  V30 1641 H 162.099 4.8863 -1.19371 0
M  V30 1642 H 161.799 5.08875 -2.93803 0
M  V30 1643 H 163.323 5.68702 -2.22284 0
M  V30 1644 H 164.737 4.18066 -3.92293 0
M  V30 1645 H 163.134 3.82075 -4.62751 0
M  V30 1646 H 164.204 2.48552 -4.16353 0
M  V30 1647 N 165.547 1.27147 0.931209 0
M  V30 1648 C 166.793 1.13446 1.68101 0
M  V30 1649 C 167.126 -0.319628 1.91552 0
M  V30 1650 O 166.401 -1.23407 1.50336 0
M  V30 1651 C 166.684 1.91482 3.0497 0
M  V30 1652 C 166.537 3.44855 2.88782 0
M  V30 1653 C 167.856 1.71651 4.05246 0
M  V30 1654 H 164.975 0.413498 0.610072 0
M  V30 1655 H 167.617 1.56261 1.08086 0
M  V30 1656 H 165.767 1.55095 3.56199 0
M  V30 1657 H 167.439 3.9105 2.44698 0
M  V30 1658 H 165.682 3.71373 2.24198 0
M  V30 1659 H 166.353 3.94694 3.85902 0
M  V30 1660 H 168.829 2.0337 3.63015 0
M  V30 1661 H 167.705 2.28651 4.99009 0
M  V30 1662 H 167.966 0.663555 4.37092 0
M  V30 1663 N 167.025 -1.13721 1.09112 0
M  V30 1664 C 168.302 -1.81155 0.737706 0
M  V30 1665 C 168.682 -1.96253 -0.777683 0
M  V30 1666 O 168.03 -1.52807 -1.69889 0
M  V30 1667 C 168.24 -3.16392 1.47299 0
M  V30 1668 C 169.588 -3.91787 1.63671 0
M  V30 1669 O 170.612 -3.26005 1.43524 0
M  V30 1670 O 169.471 -5.0977 1.96969 0
M  V30 1671 H 166.565 -0.783518 0.26463 0
M  V30 1672 H 169.111 -1.20676 1.19312 0
M  V30 1673 H 167.883 -3.0061 2.50498 0
M  V30 1674 H 167.506 -3.8457 1.00953 0
M  V30 1675 N 168.503 -0.877838 -1.30888 0
M  V30 1676 C 169.45 -0.337538 -2.28318 0
M  V30 1677 C 170.42 0.568346 -1.56074 0
M  V30 1678 O 171.605 0.498298 -1.84178 0
M  V30 1679 C 168.745 0.448142 -3.42178 0
M  V30 1680 C 167.858 -0.48615 -4.29256 0
M  V30 1681 C 166.993 0.314427 -5.30269 0
M  V30 1682 C 166.032 -0.615791 -6.08995 0
M  V30 1683 N 165.169 0.14902 -7.01942 0
M  V30 1684 H 170.009 -1.17356 -2.73919 0
M  V30 1685 H 167.546 -0.590094 -1.34745 0
M  V30 1686 H 169.504 0.919517 -4.06941 0
M  V30 1687 H 168.134 1.24879 -2.97666 0
M  V30 1688 H 167.186 -1.076 -3.64865 0
M  V30 1689 H 168.498 -1.19909 -4.84173 0
M  V30 1690 H 167.652 0.847969 -6.00745 0
M  V30 1691 H 166.391 1.06062 -4.76027 0
M  V30 1692 H 165.396 -1.16102 -5.37401 0
M  V30 1693 H 166.621 -1.36097 -6.65323 0
M  V30 1694 H 164.567 0.877884 -6.50099 0
M  V30 1695 H 164.484 -0.504433 -7.54315 0
M  V30 1696 H 165.752 0.663537 -7.76671 0
M  V30 1697 N 169.982 1.44106 -0.638065 0
M  V30 1698 C 170.932 2.27843 0.0847285 0
M  V30 1699 C 171.916 1.39055 0.809471 0
M  V30 1700 O 173.108 1.62808 0.694435 0
M  V30 1701 C 170.237 3.26497 1.06089 0
M  V30 1702 C 169.323 4.22772 0.33541 0
M  V30 1703 N 169.714 5.01737 -0.639787 0
M  V30 1704 C 168.012 4.42227 0.578921 0
M  V30 1705 C 168.713 5.71792 -1.06904 0
M  V30 1706 N 167.689 5.42079 -0.406395 0
M  V30 1707 H 171.491 2.86305 -0.663814 0
M  V30 1708 H 169.005 1.55627 -0.464122 0
M  V30 1709 H 171.002 3.8525 1.59337 0
M  V30 1710 H 169.662 2.69595 1.80966 0
M  V30 1711 H 170.673 5.07799 -1.01789 0
M  V30 1712 H 167.35 3.96415 1.31003 0
M  V30 1713 H 168.74 6.45205 -1.8751 0
M  V30 1714 N 171.46 0.379036 1.52974 0
M  V30 1715 C 172.685 -0.209353 2.06341 0
M  V30 1716 C 173.11 -1.40583 1.24972 0
M  V30 1717 O 172.468 -1.79246 0.272155 0
M  V30 1718 C 172.516 -0.567786 3.56102 0
M  V30 1719 O 171.62 -1.66318 3.77375 0
M  V30 1720 H 170.961 -0.0272919 0.663439 0
M  V30 1721 H 173.491 0.543536 1.97248 0
M  V30 1722 H 173.501 -0.835003 3.99364 0
M  V30 1723 H 172.176 0.307013 4.14765 0
M  V30 1724 H 170.753 -1.39048 3.46006 0
M  V30 1725 N 172.938 -1.57226 0.108567 0
M  V30 1726 C 174.166 -1.99179 -0.559954 0
M  V30 1727 C 174.581 -0.988022 -1.60884 0
M  V30 1728 O 173.938 0.0205512 -1.82488 0
M  V30 1729 C 173.989 -3.41159 -1.19552 0
M  V30 1730 O 173.71 -4.37694 -0.188577 0
M  V30 1731 C 175.211 -3.98188 -1.94837 0
M  V30 1732 H 172.431 -0.654228 -0.149088 0
M  V30 1733 H 174.975 -2.03598 0.19183 0
M  V30 1734 H 173.13 -3.37711 -1.89815 0
M  V30 1735 H 173.544 -5.20469 -0.649014 0
M  V30 1736 H 175.018 -4.99644 -2.34648 0
M  V30 1737 H 175.495 -3.3675 -2.81951 0
M  V30 1738 H 176.101 -4.0515 -1.2936 0
M  V30 1739 N 174.416 0.165178 -1.56732 0
M  V30 1740 C 175.664 0.879068 -1.8198 0
M  V30 1741 C 175.985 1.82514 -0.686561 0
M  V30 1742 O 175.255 1.93694 0.293146 0
M  V30 1743 H 173.835 0.327608 -0.671329 0
M  V30 1744 H 176.497 0.163526 -1.94213 0
M  V30 1745 H 175.593 1.45228 -2.76252 0
M  V30 1746 N 175.894 1.51508 0.433938 0
M  V30 1747 C 177.142 1.6402 1.18075 0
M  V30 1748 C 177.463 0.360328 1.91642 0
M  V30 1749 O 176.733 -0.623945 1.85698 0
M  V30 1750 H 175.313 0.6045 0.43885 0
M  V30 1751 H 177.975 1.88452 0.497178 0
M  V30 1752 H 177.071 2.46949 1.90847 0
M  V30 1753 N 177.372 -0.689602 1.41712 0
M  V30 1754 C 178.618 -1.45181 1.41599 0
M  V30 1755 C 178.951 -1.94181 0.0270081 0
M  V30 1756 O 178.226 -1.6993 -0.946265 0
M  V30 1757 C 178.509 -2.65945 2.42787 0
M  V30 1758 C 178.362 -2.22672 3.90816 0
M  V30 1759 C 179.681 -3.68149 2.41151 0
M  V30 1760 H 176.8 -0.526576 0.515642 0
M  V30 1761 H 179.442 -0.784947 1.73028 0
M  V30 1762 H 177.592 -3.2284 2.16116 0
M  V30 1763 H 179.264 -1.71058 4.28412 0
M  V30 1764 H 177.507 -1.54394 4.05395 0
M  V30 1765 H 178.178 -3.0935 4.57172 0
M  V30 1766 H 180.654 -3.2094 2.64834 0
M  V30 1767 H 179.53 -4.50248 3.13955 0
M  V30 1768 H 179.791 -4.18259 1.43221 0
M  V30 1769 N 178.85 -1.27639 -0.924453 0
M  V30 1770 C 180.098 -1.13941 -1.66918 0
M  V30 1771 C 180.419 0.314589 -1.92446 0
M  V30 1772 O 179.689 1.21964 -1.53303 0
M  V30 1773 H 178.269 -0.418678 -0.618642 0
M  V30 1774 H 180.931 -1.60213 -1.10985 0
M  V30 1775 H 180.027 -1.67094 -2.63602 0
M  V30 1776 N 180.328 1.1314 -1.09713 0
M  V30 1777 C 181.605 1.80762 -0.747302 0
M  V30 1778 C 181.985 1.96663 0.767265 0
M  V30 1779 O 181.333 1.53706 1.69076 0
M  V30 1780 C 181.543 3.15606 -1.48975 0
M  V30 1781 C 182.891 3.90914 -1.65746 0
M  V30 1782 O 183.915 3.25239 -1.45251 0
M  V30 1783 O 182.774 5.08718 -1.9967 0
M  V30 1784 H 179.868 0.782103 -0.268782 0
M  V30 1785 H 182.414 1.20041 -1.19951 0
M  V30 1786 H 181.186 2.99278 -2.52088 0
M  V30 1787 H 180.809 3.84029 -1.02991 0
M  V30 1788 N 181.806 0.884767 1.30421 0
M  V30 1789 C 182.753 0.349642 2.28136 0
M  V30 1790 C 183.723 -0.560061 1.56373 0
M  V30 1791 O 184.908 -0.488524 1.8444 0
M  V30 1792 C 182.048 -0.42999 3.42411 0
M  V30 1793 C 181.161 0.508907 4.28992 0
M  V30 1794 C 180.296 -0.286301 5.30428 0
M  V30 1795 C 179.335 0.648079 6.08659 0
M  V30 1796 N 178.472 -0.111792 7.02011 0
M  V30 1797 H 183.312 1.18807 2.73293 0
M  V30 1798 H 180.849 0.597231 1.3443 0
M  V30 1799 H 182.807 -0.897923 4.07423 0
M  V30 1800 H 181.437 -1.23299 2.98324 0
M  V30 1801 H 180.489 1.09533 3.64289 0
M  V30 1802 H 181.801 1.22475 4.8353 0
M  V30 1803 H 180.955 -0.816098 6.01186 0
M  V30 1804 H 179.694 -1.03536 4.76583 0
M  V30 1805 H 178.699 1.18951 5.36778 0
M  V30 1806 H 179.924 1.39623 6.64592 0
M  V30 1807 H 177.87 -0.843395 6.50556 0
M  V30 1808 H 177.787 0.544429 7.54037 0
M  V30 1809 H 179.055 -0.622339 7.77012 0
M  V30 1810 N 183.284 -1.43765 0.645699 0
M  V30 1811 C 184.53 -2.02197 0.156271 0
M  V30 1812 C 184.863 -1.50776 -1.22393 0
M  V30 1813 O 184.138 -0.697771 -1.81553 0
M  V30 1814 C 184.421 -3.59749 0.158872 0
M  V30 1815 C 184.274 -4.21419 1.57245 0
M  V30 1816 C 185.593 -4.37149 -0.50879 0
M  V30 1817 H 182.712 -0.734694 0.0582602 0
M  V30 1818 H 185.354 -1.71157 0.824951 0
M  V30 1819 H 183.504 -3.86325 -0.410525 0
M  V30 1820 H 185.176 -4.059 2.19186 0
M  V30 1821 H 183.419 -3.78356 2.122 0
M  V30 1822 H 184.09 -5.30482 1.52619 0
M  V30 1823 H 186.566 -4.16093 -0.024412 0
M  V30 1824 H 185.442 -5.4683 -0.476213 0
M  V30 1825 H 185.703 -4.12839 -1.58165 0
M  V30 1826 N 184.763 -0.387143 -1.52771 0
M  V30 1827 C 185.988 0.198407 -2.06449 0
M  V30 1828 C 186.413 1.39918 -1.25716 0
M  V30 1829 O 185.771 1.79099 -0.281657 0
M  V30 1830 C 185.819 0.548893 -3.56398 0
M  V30 1831 O 184.923 1.64315 -3.78252 0
M  V30 1832 H 184.264 0.0237731 -0.663574 0
M  V30 1833 H 186.794 -0.553989 -1.96957 0
M  V30 1834 H 186.804 0.813812 -3.99801 0
M  V30 1835 H 185.479 -0.329005 -4.14597 0
M  V30 1836 H 184.056 1.37211 -3.46738 0
M  V30 1837 N 186.241 1.57166 -0.116904 0
M  V30 1838 C 187.171 2.18222 0.830759 0
M  V30 1839 C 188.152 1.12167 1.27877 0
M  V30 1840 O 189.337 1.40394 1.34176 0
M  V30 1841 C 186.467 2.77996 2.08172 0
M  V30 1842 C 185.421 3.89614 1.77157 0
M  V30 1843 C 184.747 4.36187 3.09265 0
M  V30 1844 C 186.047 5.1181 1.04151 0
M  V30 1845 H 187.741 2.97664 0.321992 0
M  V30 1846 H 185.287 1.4318 0.153434 0
M  V30 1847 H 187.24 3.19366 2.74924 0
M  V30 1848 H 185.964 1.9584 2.6137 0
M  V30 1849 H 184.623 3.48816 1.12796 0
M  V30 1850 H 184.271 3.50893 3.60393 0
M  V30 1851 H 183.971 5.11455 2.89288 0
M  V30 1852 H 185.495 4.80207 3.77139 0
M  V30 1853 H 186.909 5.50214 1.61052 0
M  V30 1854 H 185.306 5.92648 0.942762 0
M  V30 1855 H 186.376 4.84892 0.0279022 0
M  V30 1856 N 187.719 -0.156864 1.56817 0
M  V30 1857 C 188.965 -0.872416 1.83076 0
M  V30 1858 C 189.298 -1.81261 0.697001 0
M  V30 1859 O 188.573 -1.92171 -0.30008 0
M  V30 1860 C 188.856 -1.65551 3.19789 0
M  V30 1861 C 188.709 -0.737467 4.43713 0
M  V30 1862 C 190.028 -2.62012 3.53606 0
M  V30 1863 H 187.147 -0.315715 0.665953 0
M  V30 1864 H 189.789 -0.138004 1.89498 0
M  V30 1865 H 187.939 -2.28159 3.14445 0
M  V30 1866 H 189.611 -0.123143 4.61136 0
M  V30 1867 H 187.854 -0.0464067 4.33775 0
M  V30 1868 H 188.525 -1.32122 5.35955 0
M  V30 1869 H 191.001 -2.09525 3.59497 0
M  V30 1870 H 189.877 -3.13861 4.50314 0
M  V30 1871 H 190.138 -3.42902 2.79053 0
M  V30 1872 N 189.197 -1.51736 -0.425897 0
M  V30 1873 C 190.127 -1.76827 -1.52494 0
M  V30 1874 C 191.108 -0.618524 -1.58456 0
M  V30 1875 O 192.293 -0.862416 -1.74 0
M  V30 1876 C 189.423 -1.90374 -2.90474 0
M  V30 1877 C 188.377 -3.0588 -2.99369 0
M  V30 1878 C 187.703 -3.04625 -4.3944 0
M  V30 1879 C 189.003 -4.45644 -2.72394 0
M  V30 1880 H 190.697 -2.68855 -1.31748 0
M  V30 1881 H 188.243 -1.29372 -0.632362 0
M  V30 1882 H 190.196 -2.0651 -3.6733 0
M  V30 1883 H 188.92 -0.95004 -3.12477 0
M  V30 1884 H 187.579 -2.89467 -2.24954 0
M  V30 1885 H 187.227 -2.0701 -4.58428 0
M  V30 1886 H 186.927 -3.82195 -4.46319 0
M  V30 1887 H 188.451 -3.22869 -5.18255 0
M  V30 1888 H 189.865 -4.62348 -3.38979 0
M  V30 1889 H 188.262 -5.25006 -2.9067 0
M  V30 1890 H 189.332 -4.54893 -1.67929 0
M  V30 1891 N 190.675 0.682077 -1.42076 0
M  V30 1892 C 191.638 1.77756 -1.44691 0
M  V30 1893 C 192.638 1.5726 -0.335535 0
M  V30 1894 O 193.828 1.63686 -0.596037 0
M  V30 1895 C 190.96 3.16301 -1.27146 0
M  V30 1896 H 192.153 1.76826 -2.42224 0
M  V30 1897 H 189.706 0.891012 -1.28416 0
M  V30 1898 H 190.441 3.22862 -0.305075 0
M  V30 1899 H 190.226 3.32581 -2.07683 0
M  V30 1900 H 191.716 3.96241 -1.31843 0
M  V30 1901 N 192.153 1.28127 0.917671 0
M  V30 1902 C 193.564 1.13622 1.48145 0
M  V30 1903 C 193.915 -0.275207 1.9426 0
M  V30 1904 O 193.04 -1.1691 1.82102 0
M  V30 1905 C 193.635 2.05648 2.69248 0
M  V30 1906 C 192.194 1.95219 3.21818 0
M  V30 1907 C 191.341 1.97618 1.94532 0
M  V30 1908 H 194.292 1.40874 0.730772 0
M  V30 1909 H 194.313 1.61818 3.44377 0
M  V30 1910 H 193.825 3.08365 2.35653 0
M  V30 1911 H 191.926 0.955244 3.60147 0
M  V30 1912 H 192.039 2.81976 3.87333 0
M  V30 1913 H 190.403 1.41973 2.11461 0
M  V30 1914 H 191.186 3.02007 1.63238 0
M  V30 1915 N 193.631 -1.12557 1.10312 0
M  V30 1916 C 194.594 -2.16434 0.75424 0
M  V30 1917 C 195.594 -1.59278 -0.220685 0
M  V30 1918 O 196.784 -1.742 0.00230591 0
M  V30 1919 C 193.916 -3.40699 0.116987 0
M  V30 1920 H 195.109 -2.48811 1.67431 0
M  V30 1921 H 192.662 -1.27542 0.903475 0
M  V30 1922 H 193.397 -3.13921 -0.813877 0
M  V30 1923 H 193.182 -3.83459 0.818613 0
M  V30 1924 H 194.672 -4.17451 -0.111387 0
M  V30 1925 N 195.109 -0.891671 -1.2995 0
M  V30 1926 C 196.039 -0.379797 -2.30391 0
M  V30 1927 C 197.02 0.540919 -1.6127 0
M  V30 1928 O 198.205 0.453352 -1.88834 0
M  V30 1929 C 195.335 0.400654 -3.44981 0
M  V30 1930 C 194.289 -0.428905 -4.25846 0
M  V30 1931 C 193.615 0.478557 -5.32554 0
M  V30 1932 C 194.915 -1.67458 -4.94727 0
M  V30 1933 H 196.609 -1.21914 -2.73454 0
M  V30 1934 H 194.155 -0.587675 -1.31462 0
M  V30 1935 H 196.108 0.769434 -4.14316 0
M  V30 1936 H 194.832 1.27371 -3.0074 0
M  V30 1937 H 193.491 -0.779911 -3.58208 0
M  V30 1938 H 193.139 1.34951 -4.84559 0
M  V30 1939 H 192.839 -0.0727433 -5.87555 0
M  V30 1940 H 194.363 0.843705 -6.04743 0
M  V30 1941 H 195.777 -1.376 -5.56542 0
M  V30 1942 H 194.174 -2.16659 -5.59624 0
M  V30 1943 H 195.244 -2.41518 -4.20473 0
M  V30 1944 N 196.587 1.43421 -0.653314 0
M  V30 1945 C 197.55 2.29182 0.0287951 0
M  V30 1946 C 198.55 1.42213 0.750465 0
M  V30 1947 O 199.74 1.63843 0.591701 0
M  V30 1948 C 196.872 3.24278 1.05151 0
M  V30 1949 H 198.065 2.90985 -0.725786 0
M  V30 1950 H 195.618 1.50702 -0.414545 0
M  V30 1951 H 196.353 2.6737 1.83532 0
M  V30 1952 H 196.138 3.88396 0.537687 0
M  V30 1953 H 197.628 3.88647 1.52786 0
M  V30 1954 N 198.065 0.39524 1.52563 0
M  V30 1955 C 199.028 -0.425001 2.25225 0
M  V30 1956 C 200.028 -0.985266 1.27079 0
M  V30 1957 O 201.218 -0.866332 1.5113 0
M  V30 1958 C 198.35 -1.59686 3.01186 0
M  V30 1959 H 199.543 0.211233 2.99155 0
M  V30 1960 H 197.096 0.147472 1.55603 0
M  V30 1961 H 197.831 -2.27035 2.31572 0
M  V30 1962 H 197.616 -1.20176 3.73229 0
M  V30 1963 H 199.106 -2.17743 3.5634 0
M  V30 1964 N 199.544 -1.57102 0.125237 0
M  V30 1965 C 200.784 -1.97294 -0.534259 0
M  V30 1966 C 201.148 -1.0074 -1.63449 0
M  V30 1967 O 202.349 -1.29893 -2.35332 0
M  V30 1968 C 200.62 -3.41705 -1.04748 0
M  V30 1969 S 202.179 -4.03913 -1.71463 0
M  V30 1970 H 198.997 -0.689517 -0.173458 0
M  V30 1971 H 201.599 -1.94349 0.211797 0
M  V30 1972 H 200.303 -4.09723 -0.235649 0
M  V30 1973 H 199.834 -3.48315 -1.82867 0
M  V30 1974 H 201.849 -3.95182 -3.00077 0
M  V30 1975 N 201.022 0.148545 -1.56898 0
M  V30 1976 C 202.27 0.859717 -1.82902 0
M  V30 1977 C 202.591 1.81775 -0.70588 0
M  V30 1978 O 201.861 1.93994 0.272586 0
M  V30 1979 H 200.441 0.320469 -0.674766 0
M  V30 1980 H 203.103 0.142918 -1.94375 0
M  V30 1981 H 202.199 1.4229 -2.77777 0
M  V30 1982 N 202.5 1.5196 0.417844 0
M  V30 1983 C 203.74 1.67262 1.17486 0
M  V30 1984 C 204.104 0.38983 1.88001 0
M  V30 1985 O 205.305 0.418845 2.65517 0
M  V30 1986 C 203.576 2.85526 2.14965 0
M  V30 1987 S 205.135 3.21263 2.98891 0
M  V30 1988 H 201.953 0.589077 0.398132 0
M  V30 1989 H 204.555 1.89927 0.463452 0
M  V30 1990 H 203.259 3.77145 1.61833 0
M  V30 1991 H 202.79 2.65107 2.90657 0
M  V30 1992 H 204.805 2.69208 4.16823 0
M  V30 1993 N 203.978 -0.674533 1.42435 0
M  V30 1994 C 204.925 -1.78807 1.45934 0
M  V30 1995 C 205.895 -1.63157 0.311271 0
M  V30 1996 O 207.08 -1.83707 0.515383 0
M  V30 1997 C 204.22 -3.16839 1.36773 0
M  V30 1998 C 203.333 -3.43774 2.61617 0
M  V30 1999 C 202.468 -4.71536 2.44597 0
M  V30 2000 C 201.507 -4.91505 3.64814 0
M  V30 2001 N 200.644 -6.10508 3.46734 0
M  V30 2002 H 205.484 -1.75151 2.41093 0
M  V30 2003 H 203.021 -0.85504 1.19697 0
M  V30 2004 H 204.979 -3.96606 1.29459 0
M  V30 2005 H 203.609 -3.19619 0.452089 0
M  V30 2006 H 202.661 -2.58259 2.79297 0
M  V30 2007 H 203.973 -3.54423 3.50978 0
M  V30 2008 H 203.127 -5.59393 2.3487 0
M  V30 2009 H 201.866 -4.6317 1.52726 0
M  V30 2010 H 200.871 -4.0209 3.74972 0
M  V30 2011 H 202.096 -5.01716 4.57665 0
M  V30 2012 H 200.042 -6.03315 2.5758 0
M  V30 2013 H 199.959 -6.2202 4.29682 0
M  V30 2014 H 201.227 -7.01044 3.40819 0
M  V30 2015 N 205.456 -1.28612 -0.910864 0
M  V30 2016 C 206.702 -1.16106 -1.66274 0
M  V30 2017 C 207.035 0.289113 -1.92036 0
M  V30 2018 O 206.31 1.21 -1.52281 0
M  V30 2019 C 206.593 -1.96309 -3.01885 0
M  V30 2020 C 206.446 -3.49405 -2.8326 0
M  V30 2021 C 207.765 -1.78076 -4.02463 0
M  V30 2022 H 204.884 -0.423152 -0.603417 0
M  V30 2023 H 207.526 -1.57961 -1.05586 0
M  V30 2024 H 205.676 -1.60742 -3.53687 0
M  V30 2025 H 207.348 -3.94894 -2.38446 0
M  V30 2026 H 205.591 -3.74893 -2.18261 0
M  V30 2027 H 206.262 -4.00784 -3.79574 0
M  V30 2028 H 208.738 -2.0912 -3.59733 0
M  V30 2029 H 207.614 -2.36561 -4.95308 0
M  V30 2030 H 207.875 -0.733008 -4.35981 0
M  V30 2031 N 206.934 1.1197 -1.10907 0
M  V30 2032 C 208.345 1.65114 -0.871446 0
M  V30 2033 C 208.696 1.86885 0.597353 0
M  V30 2034 O 207.821 1.59896 1.45816 0
M  V30 2035 C 208.416 2.99944 -1.5754 0
M  V30 2036 C 206.975 3.50018 -1.38435 0
M  V30 2037 C 206.122 2.24941 -1.62164 0
M  V30 2038 H 209.073 0.956851 -1.2661 0
M  V30 2039 H 209.094 3.66651 -1.01721 0
M  V30 2040 H 208.606 2.84067 -2.64438 0
M  V30 2041 H 206.707 3.71071 -0.337214 0
M  V30 2042 H 206.82 4.29165 -2.12965 0
M  V30 2043 H 205.184 2.3229 -1.04467 0
M  V30 2044 H 205.967 2.11612 -2.70324 0
M  V30 2045 N 208.412 0.89855 1.29475 0
M  V30 2046 C 209.345 0.319981 2.25945 0
M  V30 2047 C 210.323 -0.567189 1.52387 0
M  V30 2048 O 211.507 -0.514254 1.8135 0
M  V30 2049 C 208.634 -0.544013 3.34303 0
M  V30 2050 C 207.68 0.275682 4.25608 0
M  V30 2051 S 208.513 1.67272 5.08704 0
M  V30 2052 C 209.669 0.815621 6.20563 0
M  V30 2053 H 209.902 1.13767 2.74671 0
M  V30 2054 H 207.435 0.69882 1.3768 0
M  V30 2055 H 209.393 -1.03673 3.97193 0
M  V30 2056 H 208.054 -1.33593 2.84274 0
M  V30 2057 H 207.247 -0.384263 5.02533 0
M  V30 2058 H 206.849 0.701496 3.67362 0
M  V30 2059 H 209.141 0.0385042 6.77489 0
M  V30 2060 H 210.084 1.55691 6.90772 0
M  V30 2061 H 210.492 0.370516 5.63283 0
M  V30 2062 N 209.89 -1.43072 0.660911 0
M  V30 2063 C 211.139 -2.00942 0.174735 0
M  V30 2064 C 211.452 -1.52797 -1.22117 0
M  V30 2065 O 212.658 -2.02991 -1.80297 0
M  V30 2066 C 211.114 -3.58948 0.261559 0
M  V30 2067 C 210.722 -4.16085 1.66064 0
M  V30 2068 C 212.466 -4.24173 -0.166617 0
M  V30 2069 C 210.373 -5.6641 1.70098 0
M  V30 2070 H 209.303 -0.751483 0.0615631 0
M  V30 2071 H 211.954 -1.63955 0.824069 0
M  V30 2072 H 210.336 -3.93372 -0.455421 0
M  V30 2073 H 211.51 -3.93147 2.40359 0
M  V30 2074 H 209.825 -3.6326 2.03546 0
M  V30 2075 H 212.422 -5.34471 -0.156433 0
M  V30 2076 H 212.765 -3.98647 -1.19943 0
M  V30 2077 H 213.298 -3.94659 0.498875 0
M  V30 2078 H 210.037 -5.96715 2.71315 0
M  V30 2079 H 209.557 -5.91382 1.00139 0
M  V30 2080 H 211.236 -6.30585 1.44816 0
M  V30 2081 N 211.368 -0.403325 -1.52352 0
M  V30 2082 C 212.593 0.176499 -2.06648 0
M  V30 2083 C 213.018 1.38577 -1.27193 0
M  V30 2084 O 212.376 1.7879 -0.300637 0
M  V30 2085 C 212.424 0.511061 -3.5696 0
M  V30 2086 O 211.528 1.60294 -3.79973 0
M  V30 2087 H 210.869 0.0167337 -0.663789 0
M  V30 2088 H 213.399 -0.574848 -1.96359 0
M  V30 2089 H 213.409 0.771362 -4.00642 0
M  V30 2090 H 212.084 -0.37296 -4.14224 0
M  V30 2091 H 210.661 1.33526 -3.48174 0
M  V30 2092 N 212.846 1.57033 -0.133567 0
M  V30 2093 C 214.094 1.953 0.519848 0
M  V30 2094 C 214.415 1.01866 1.66278 0
M  V30 2095 O 213.685 0.0776513 1.95746 0
M  V30 2096 H 212.265 0.721091 0.195032 0
M  V30 2097 H 214.927 1.93809 -0.205921 0
M  V30 2098 H 214.023 2.98695 0.904854 0
M  V30 2099 N 214.325 -0.140222 1.56975 0
M  V30 2100 C 215.741 -0.493088 1.51792 0
M  V30 2101 C 215.941 -1.83013 0.843116 0
M  V30 2102 O 214.997 -2.49041 0.416493 0
M  V30 2103 C 216.31 -0.497144 2.96562 0
M  V30 2104 C 217.858 -0.582186 3.07538 0
M  V30 2105 C 218.333 -0.616838 4.53827 0
M  V30 2106 N 219.824 -0.678873 4.58198 0
M  V30 2107 C 220.559 -0.726782 5.68775 0
M  V30 2108 N 220.055 -0.733623 6.88905 0
M  V30 2109 N 221.848 -0.768179 5.56826 0
M  V30 2110 H 213.999 0.736108 1.99237 0
M  V30 2111 H 216.262 0.269182 0.90898 0
M  V30 2112 H 215.968 0.417217 3.49217 0
M  V30 2113 H 215.842 -1.33263 3.52875 0
M  V30 2114 H 218.229 -1.48697 2.54899 0
M  V30 2115 H 218.31 0.280581 2.54257 0
M  V30 2116 H 217.954 0.283812 5.07106 0
M  V30 2117 H 217.884 -1.49619 5.04898 0
M  V30 2118 H 220.375 -0.68061 3.7172 0
M  V30 2119 H 220.688 -0.772215 7.68932 0
M  V30 2120 H 219.033 -0.701389 6.91452 0
M  V30 2121 H 222.224 -0.760051 4.61888 0
M  V30 2122 H 222.397 -0.80205 6.43017 0
M  V30 2123 N 215.803 -1.52179 -0.40978 0
M  V30 2124 C 217.051 -1.65878 -1.15451 0
M  V30 2125 C 217.372 -0.390771 -1.91044 0
M  V30 2126 O 216.642 0.594323 -1.86667 0
M  V30 2127 H 215.222 -0.611405 -0.429177 0
M  V30 2128 H 217.884 -1.89219 -0.467134 0
M  V30 2129 H 216.98 -2.49954 -1.86894 0
M  V30 2130 N 217.281 0.66697 -1.42791 0
M  V30 2131 C 218.211 1.79218 -1.49677 0
M  V30 2132 C 219.192 1.66405 -0.352623 0
M  V30 2133 O 220.377 1.85708 -0.567993 0
M  V30 2134 C 217.507 3.17565 -1.40605 0
M  V30 2135 C 216.461 3.45124 -2.53127 0
M  V30 2136 C 215.787 4.83127 -2.29112 0
M  V30 2137 C 217.087 3.41236 -3.95418 0
M  V30 2138 H 218.781 1.73713 -2.43853 0
M  V30 2139 H 216.327 0.83432 -1.17367 0
M  V30 2140 H 218.28 3.96022 -1.44029 0
M  V30 2141 H 217.004 3.23767 -0.429271 0
M  V30 2142 H 215.663 2.69031 -2.49034 0
M  V30 2143 H 215.311 4.85988 -1.29709 0
M  V30 2144 H 215.011 5.02528 -3.04531 0
M  V30 2145 H 216.535 5.63859 -2.34297 0
M  V30 2146 H 217.949 4.09651 -4.01073 0
M  V30 2147 H 216.346 3.72173 -4.70752 0
M  V30 2148 H 217.416 2.39665 -4.21532 0
M  V30 2149 N 218.759 1.29093 0.90403 0
M  V30 2150 C 220.007 1.16583 1.65085 0
M  V30 2151 C 220.328 -0.283933 1.92922 0
M  V30 2152 O 219.598 -1.19509 1.55224 0
M  V30 2153 H 218.178 0.428467 0.611903 0
M  V30 2154 H 220.84 1.61959 1.08422 0
M  V30 2155 H 219.936 1.71266 2.6091 0
M  V30 2156 N 220.237 -1.11381 1.11499 0
M  V30 2157 C 221.187 -2.15555 0.74298 0
M  V30 2158 C 222.171 -1.58894 -0.253276 0
M  V30 2159 O 223.363 -1.76897 -0.0602918 0
M  V30 2160 C 220.492 -3.42782 0.188481 0
M  V30 2161 C 219.578 -4.064 1.21244 0
M  V30 2162 N 219.969 -4.44864 2.40685 0
M  V30 2163 C 218.267 -4.3333 1.05552 0
M  V30 2164 C 218.968 -4.94715 3.05994 0
M  V30 2165 N 217.944 -4.90909 2.33472 0
M  V30 2166 H 221.746 -2.43074 1.65203 0
M  V30 2167 H 219.26 -1.28401 0.994329 0
M  V30 2168 H 221.257 -4.16789 -0.0961693 0
M  V30 2169 H 219.917 -3.16727 -0.715149 0
M  V30 2170 H 220.928 -4.36876 2.78136 0
M  V30 2171 H 217.605 -4.1698 0.208372 0
M  V30 2172 H 218.995 -5.34103 4.07656 0
M  V30 2173 N 221.715 -0.905404 -1.28997 0
M  V30 2174 C 222.943 -0.549846 -1.9946 0
M  V30 2175 C 223.358 0.866834 -1.67724 0
M  V30 2176 O 222.715 1.57298 -0.925404 0
M  V30 2177 C 222.766 -0.739387 -3.53858 0
M  V30 2178 O 222.487 -2.10031 -3.84472 0
M  V30 2179 C 223.988 -0.389541 -4.41585 0
M  V30 2180 H 221.208 -0.210429 -0.637151 0
M  V30 2181 H 223.752 -1.21632 -1.64396 0
M  V30 2182 H 221.907 -0.120023 -3.87214 0
M  V30 2183 H 222.321 -2.13385 -4.79132 0
M  V30 2184 H 223.795 -0.572972 -5.49018 0
M  V30 2185 H 224.272 0.673756 -4.34001 0
M  V30 2186 H 224.878 -0.986089 -4.1371 0
M  V30 2187 N 223.193 1.4272 -0.668489 0
M  V30 2188 C 224.441 2.01226 -0.187769 0
M  V30 2189 C 224.762 1.53092 1.2078 0
M  V30 2190 O 224.032 0.74993 1.80977 0
M  V30 2191 H 222.612 0.744041 -0.0664272 0
M  V30 2192 H 225.274 1.74723 -0.863583 0
M  V30 2193 H 224.37 3.11556 -0.184166 0
M  V30 2194 N 224.671 0.411399 1.52136 0
M  V30 2195 C 225.919 -0.163322 2.01439 0
M  V30 2196 C 226.24 -1.45453 1.29879 0
M  V30 2197 O 225.51 -1.91225 0.4254 0
M  V30 2198 H 224.09 -0.0633447 0.744309 0
M  V30 2199 H 226.752 0.548161 1.87033 0
M  V30 2200 H 225.848 -0.357817 3.10042 0
M  V30 2201 N 226.149 -1.5696 0.141893 0
M  V30 2202 C 227.377 -2.00322 -0.517579 0
M  V30 2203 C 227.792 -1.02193 -1.58752 0
M  V30 2204 O 227.149 -0.0181619 -1.82491 0
M  V30 2205 C 227.2 -3.43618 -1.12289 0
M  V30 2206 O 226.921 -4.37995 -0.0956929 0
M  V30 2207 C 228.422 -4.02231 -1.86347 0
M  V30 2208 H 225.642 -0.657243 -0.135177 0
M  V30 2209 H 228.186 -2.03146 0.234973 0
M  V30 2210 H 226.341 -3.41662 -1.82609 0
M  V30 2211 H 226.755 -5.21729 -0.538469 0
M  V30 2212 H 228.229 -5.04509 -2.23997 0
M  V30 2213 H 228.706 -3.42655 -2.74744 0
M  V30 2214 H 229.312 -4.07802 -1.20737 0
M  V30 2215 N 227.627 0.131896 -1.57047 0
M  V30 2216 C 228.557 1.16384 -2.02428 0
M  V30 2217 C 229.538 1.43936 -0.90644 0
M  V30 2218 O 230.723 1.54599 -1.17528 0
M  V30 2219 C 227.853 2.49328 -2.4177 0
M  V30 2220 C 226.807 2.36266 -3.56879 0
M  V30 2221 C 226.133 3.74057 -3.8208 0
M  V30 2222 C 227.433 1.834 -4.89042 0
M  V30 2223 H 229.127 0.786433 -2.88887 0
M  V30 2224 H 226.673 0.376855 -1.38981 0
M  V30 2225 H 228.626 3.21759 -2.7212 0
M  V30 2226 H 227.35 2.88934 -1.52266 0
M  V30 2227 H 226.009 1.66286 -3.26718 0
M  V30 2228 H 225.657 4.11125 -2.89803 0
M  V30 2229 H 225.357 3.66174 -4.59554 0
M  V30 2230 H 226.881 4.48012 -4.1487 0
M  V30 2231 H 228.295 2.45636 -5.18011 0
M  V30 2232 H 226.692 1.8637 -5.70426 0
M  V30 2233 H 227.762 0.790662 -4.7841 0
M  V30 2234 N 229.106 1.52395 0.401703 0
M  V30 2235 C 230.383 1.57387 1.16141 0
M  V30 2236 C 230.763 0.359359 2.08019 0
M  V30 2237 O 230.111 -0.65326 2.18963 0
M  V30 2238 C 230.321 2.90631 1.93221 0
M  V30 2239 C 231.669 3.43904 2.49028 0
M  V30 2240 O 232.693 2.92421 2.03393 0
M  V30 2241 O 231.552 4.33823 3.32356 0
M  V30 2242 H 228.646 0.634262 0.530698 0
M  V30 2243 H 231.192 1.64725 0.407883 0
M  V30 2244 H 229.964 3.70473 1.25958 0
M  V30 2245 H 229.587 2.8662 2.75563 0
M  V30 2246 N 230.584 -0.659388 1.43143 0
M  V30 2247 C 231.531 -1.77249 1.47822 0
M  V30 2248 C 232.501 -1.62818 0.328558 0
M  V30 2249 O 233.686 -1.83151 0.534838 0
M  V30 2250 C 230.826 -3.15371 1.40126 0
M  V30 2251 C 229.939 -3.4098 2.65249 0
M  V30 2252 C 229.074 -4.68915 2.49584 0
M  V30 2253 C 228.113 -4.87608 3.70006 0
M  V30 2254 N 227.25 -6.06796 3.53189 0
M  V30 2255 H 232.09 -1.72584 2.42938 0
M  V30 2256 H 229.627 -0.842297 1.20598 0
M  V30 2257 H 231.585 -3.9521 1.33659 0
M  V30 2258 H 230.215 -3.19121 0.485964 0
M  V30 2259 H 229.267 -2.55282 2.8202 0
M  V30 2260 H 230.579 -3.50681 3.54717 0
M  V30 2261 H 229.733 -5.56871 2.4079 0
M  V30 2262 H 228.472 -4.61524 1.5763 0
M  V30 2263 H 227.477 -3.9809 3.79215 0
M  V30 2264 H 228.702 -4.96834 4.62961 0
M  V30 2265 H 226.648 -6.00549 2.63965 0
M  V30 2266 H 226.565 -6.17428 4.36255 0
M  V30 2267 H 227.833 -6.9739 3.48236 0
M  V30 2268 N 232.062 -1.29571 -0.897171 0
M  V30 2269 C 232.992 -1.17473 -2.01798 0
M  V30 2270 C 233.973 -0.068323 -1.69963 0
M  V30 2271 O 235.158 -0.248239 -1.92607 0
M  V30 2272 C 232.288 -0.853099 -3.36659 0
M  V30 2273 C 231.242 -1.9161 -3.82713 0
M  V30 2274 C 230.568 -1.44773 -5.14728 0
M  V30 2275 C 231.868 -3.32535 -4.02763 0
M  V30 2276 H 233.562 -2.11237 -2.12177 0
M  V30 2277 H 231.108 -1.01699 -1.01948 0
M  V30 2278 H 233.061 -0.755165 -4.14578 0
M  V30 2279 H 231.785 0.120236 -3.26379 0
M  V30 2280 H 230.444 -2.00346 -3.07013 0
M  V30 2281 H 230.092 -0.462995 -5.00865 0
M  V30 2282 H 229.792 -2.15865 -5.46513 0
M  V30 2283 H 231.316 -1.36334 -5.95185 0
M  V30 2284 H 232.73 -3.26626 -4.71156 0
M  V30 2285 H 231.127 -4.01607 -4.45905 0
M  V30 2286 H 232.197 -3.75326 -3.07016 0
M  V30 2287 N 233.54 1.10788 -1.12088 0
M  V30 2288 C 234.45 2.20599 -0.798338 0
M  V30 2289 C 235.466 1.72712 0.21135 0
M  V30 2290 O 236.642 2.01348 0.0458477 0
M  V30 2291 C 233.707 3.45771 -0.253674 0
M  V30 2292 C 232.768 4.08411 -1.32283 0
M  V30 2293 C 232.001 5.27608 -0.80406 0
M  V30 2294 O 232.224 5.69241 0.363478 0
M  V30 2295 O 231.158 5.8101 -1.57198 0
M  V30 2296 H 234.984 2.50614 -1.7154 0
M  V30 2297 H 232.569 1.19454 -0.897275 0
M  V30 2298 H 234.451 4.21376 0.0453691 0
M  V30 2299 H 233.126 3.1739 0.636005 0
M  V30 2300 H 232.033 3.34507 -1.67499 0
M  V30 2301 H 233.366 4.40986 -2.18614 0
M  V30 2302 N 235.018 0.912232 1.28515 0
M  V30 2303 C 236.243 0.559774 1.99703 0
M  V30 2304 C 236.668 -0.851393 1.67729 0
M  V30 2305 O 236.026 -1.56875 0.908834 0
M  V30 2306 C 236.074 0.773874 3.52198 0
M  V30 2307 O 235.178 -0.167842 4.12058 0
M  V30 2308 H 234.519 0.21723 0.627461 0
M  V30 2309 H 237.049 1.22725 1.63706 0
M  V30 2310 H 237.059 0.683386 4.02236 0
M  V30 2311 H 235.734 1.80261 3.74805 0
M  V30 2312 H 234.311 -0.0287509 3.72889 0
M  V30 2313 N 236.496 -1.42363 0.676048 0
M  V30 2314 C 237.745 -2.00745 0.196037 0
M  V30 2315 C 238.058 -1.54083 -1.20489 0
M  V30 2316 O 239.264 -2.04891 -1.78134 0
M  V30 2317 C 237.72 -3.58651 0.299616 0
M  V30 2318 C 237.328 -4.143 1.70468 0
M  V30 2319 C 239.072 -4.24326 -0.121619 0
M  V30 2320 C 236.979 -5.64574 1.76096 0
M  V30 2321 H 235.909 -0.750787 0.0695301 0
M  V30 2322 H 238.56 -1.63072 0.841412 0
M  V30 2323 H 236.942 -3.93833 -0.413673 0
M  V30 2324 H 238.116 -3.90575 2.44515 0
M  V30 2325 H 236.431 -3.61081 2.07387 0
M  V30 2326 H 239.028 -5.34607 -0.0997362 0
M  V30 2327 H 239.371 -3.99897 -1.15708 0
M  V30 2328 H 239.904 -3.94108 0.540706 0
M  V30 2329 H 236.643 -5.93804 2.77628 0
M  V30 2330 H 236.163 -5.90286 1.06406 0
M  V30 2331 H 237.842 -6.29013 1.51496 0
M  V30 2332 N 237.974 -0.419461 -1.51915 0
M  V30 2333 C 239.385 0.0477853 -1.86639 0
M  V30 2334 C 239.736 1.43531 -1.33766 0
M  V30 2335 O 238.861 2.05401 -0.68113 0
M  V30 2336 C 239.456 0.0934885 -3.38671 0
M  V30 2337 C 238.015 0.505097 -3.72996 0
M  V30 2338 C 237.162 -0.313792 -2.75519 0
M  V30 2339 H 240.113 -0.636088 -1.45395 0
M  V30 2340 H 240.134 0.906667 -3.6954 0
M  V30 2341 H 239.646 -0.916501 -3.77123 0
M  V30 2342 H 237.747 1.52135 -3.40126 0
M  V30 2343 H 237.86 0.242309 -4.78487 0
M  V30 2344 H 236.224 0.225363 -2.53701 0
M  V30 2345 H 237.007 -1.32232 -3.16812 0
M  V30 2346 N 239.452 1.56882 -0.150215 0
M  V30 2347 C 240.7 1.9584 0.499105 0
M  V30 2348 C 241.021 1.03623 1.65188 0
M  V30 2349 O 240.291 0.0984084 1.95653 0
M  V30 2350 H 238.871 0.723119 0.187373 0
M  V30 2351 H 241.533 1.9358 -0.226466 0
M  V30 2352 H 240.629 2.99638 0.873122 0
M  V30 2353 N 240.93 -0.123565 1.57115 0
M  V30 2354 C 242.177 -0.832153 1.84612 0
M  V30 2355 C 242.505 -1.80093 0.734627 0
M  V30 2356 O 241.76 -1.93766 -0.27442 0
M  V30 2357 C 242.059 -1.62016 3.18568 0
M  V30 2358 C 241.725 -0.796084 4.43817 0
M  V30 2359 C 240.387 -0.568816 4.77826 0
M  V30 2360 C 242.739 -0.221364 5.2073 0
M  V30 2361 C 240.067 0.243499 5.86194 0
M  V30 2362 C 242.419 0.578117 6.29953 0
M  V30 2363 C 241.083 0.815744 6.62497 0
M  V30 2364 H 240.353 -0.304507 0.675542 0
M  V30 2365 H 243 -0.0947248 1.91266 0
M  V30 2366 H 241.305 -2.42837 3.0747 0
M  V30 2367 H 243.002 -2.17231 3.37064 0
M  V30 2368 H 239.592 -0.983307 4.17168 0
M  V30 2369 H 243.776 -0.384173 4.94811 0
M  V30 2370 H 239.032 0.436871 6.09837 0
M  V30 2371 H 243.206 1.03046 6.88734 0
M  V30 2372 H 240.833 1.44701 7.46301 0
M  V30 2373 N 242.408 -1.52605 -0.393616 0
M  V30 2374 C 243.356 -1.77688 -1.50099 0
M  V30 2375 C 244.35 -0.644615 -1.56656 0
M  V30 2376 O 245.556 -0.826997 -1.59877 0
M  V30 2377 H 241.931 -0.562159 -0.499481 0
M  V30 2378 H 243.902 -2.7043 -1.26135 0
M  V30 2379 C 242.651 -1.95858 -2.87289 0
M  V30 2380 H 241.974 -2.8241 -2.82992 0
M  V30 2381 H 243.414 -2.174 -3.64024 0
M  V30 2382 C 241.873 -0.729848 -3.28899 0
M  V30 2383 O 242.403 0.0949217 -4.01588 0
M  V30 2384 N 240.609 -0.561283 -2.85128 0
M  V30 2385 H 240.156 -1.23357 -2.26143 0
M  V30 2386 H 240.114 0.2595 -3.13327 0
M  V30 2387 N 243.887 0.651787 -1.4349 0
M  V30 2388 C 245.133 1.41376 -1.45398 0
M  V30 2389 C 245.466 1.94041 -0.0784823 0
M  V30 2390 O 244.741 1.72379 0.900878 0
M  V30 2391 C 245.024 2.59414 -2.49752 0
M  V30 2392 C 244.877 2.12232 -3.96582 0
M  V30 2393 C 246.196 3.61626 -2.50827 0
M  V30 2394 H 243.315 0.512719 -0.529422 0
M  V30 2395 H 245.957 0.738796 -1.75048 0
M  V30 2396 H 244.107 3.16997 -2.246 0
M  V30 2397 H 245.779 1.59639 -4.32797 0
M  V30 2398 H 244.022 1.43592 -4.09346 0
M  V30 2399 H 244.693 2.9712 -4.65214 0
M  V30 2400 H 247.169 3.13805 -2.7325 0
M  V30 2401 H 246.045 4.41766 -3.25783 0
M  V30 2402 H 246.306 4.14314 -1.5426 0
M  V30 2403 N 245.365 1.30045 0.890287 0
M  V30 2404 C 246.614 1.17929 1.63633 0
M  V30 2405 C 246.927 -0.266204 1.9378 0
M  V30 2406 O 248.133 -0.508804 2.6669 0
M  V30 2407 C 246.589 2.06317 2.94892 0
M  V30 2408 C 246.197 3.55745 2.72305 0
M  V30 2409 C 247.941 2.0295 3.72843 0
M  V30 2410 C 245.848 4.36205 3.99348 0
M  V30 2411 H 244.778 0.437782 0.613892 0
M  V30 2412 H 247.429 1.54754 0.986075 0
M  V30 2413 H 245.811 1.6237 3.61182 0
M  V30 2414 H 246.985 4.07805 2.1455 0
M  V30 2415 H 245.3 3.6088 2.07737 0
M  V30 2416 H 247.897 2.60319 4.67053 0
M  V30 2417 H 248.24 1.0117 4.0382 0
M  V30 2418 H 248.773 2.4499 3.13408 0
M  V30 2419 H 245.512 5.38659 3.73533 0
M  V30 2420 H 245.032 3.8891 4.56628 0
M  V30 2421 H 246.711 4.47362 4.67415 0
M  V30 2422 N 246.843 -1.10192 1.12674 0
M  V30 2423 C 247.775 -2.16418 0.754701 0
M  V30 2424 C 248.788 -1.61309 -0.21986 0
M  V30 2425 O 249.977 -1.785 -0.000826841 0
M  V30 2426 C 247.077 -3.38762 0.096698 0
M  V30 2427 C 246.25 -4.23307 1.10136 0
M  V30 2428 C 245.309 -5.24092 0.470513 0
M  V30 2429 O 244.335 -5.57906 1.12824 0
M  V30 2430 N 245.537 -5.75491 -0.760948 0
M  V30 2431 H 248.302 -2.48943 1.66875 0
M  V30 2432 H 245.863 -1.25834 1.01869 0
M  V30 2433 H 247.855 -4.03291 -0.337384 0
M  V30 2434 H 246.425 -3.04192 -0.720153 0
M  V30 2435 H 245.645 -3.55036 1.71299 0
M  V30 2436 H 246.933 -4.76624 1.78064 0
M  V30 2437 H 246.331 -5.50222 -1.31424 0
M  V30 2438 H 244.888 -6.41792 -1.13781 0
M  V30 2439 N 248.321 -0.919034 -1.28029 0
M  V30 2440 C 249.546 -0.570357 -1.99403 0
M  V30 2441 C 249.971 0.842486 -1.68178 0
M  V30 2442 O 249.329 1.56391 -0.917141 0
M  V30 2443 C 249.377 -0.792541 -3.51783 0
M  V30 2444 O 248.481 0.145988 -4.12142 0
M  V30 2445 H 247.822 -0.220555 -0.6263 0
M  V30 2446 H 250.352 -1.23592 -1.63053 0
M  V30 2447 H 250.362 -0.704708 -4.01868 0
M  V30 2448 H 249.037 -1.82247 -3.73844 0
M  V30 2449 H 247.614 0.00897528 -3.72899 0
M  V30 2450 N 249.799 1.42003 -0.683588 0
M  V30 2451 C 251.21 1.84501 -0.285736 0
M  V30 2452 C 251.561 1.57213 1.17382 0
M  V30 2453 O 250.686 1.03642 1.89966 0
M  V30 2454 C 251.281 3.34912 -0.511821 0
M  V30 2455 C 249.84 3.76025 -0.168005 0
M  V30 2456 C 248.987 2.6551 -0.799983 0
M  V30 2457 H 251.938 1.31724 -0.885119 0
M  V30 2458 H 251.959 3.79784 0.233292 0
M  V30 2459 H 251.471 3.54741 -1.57418 0
M  V30 2460 H 249.572 3.61801 0.890567 0
M  V30 2461 H 249.685 4.75141 -0.614661 0
M  V30 2462 H 248.049 2.53654 -0.230568 0
M  V30 2463 H 248.832 2.8816 -1.86597 0
M  V30 2464 N 251.277 0.427512 1.51691 0
M  V30 2465 C 252.187 -0.39527 2.31246 0
M  V30 2466 C 253.203 -1.03674 1.39742 0
M  V30 2467 O 254.379 -1.03425 1.72816 0
M  V30 2468 C 251.444 -1.48706 3.13189 0
M  V30 2469 C 250.505 -0.866743 4.20459 0
M  V30 2470 C 249.738 -1.90651 4.98486 0
M  V30 2471 O 249.961 -3.12733 4.77026 0
M  V30 2472 O 248.895 -1.5025 5.82845 0
M  V30 2473 H 252.721 0.253918 3.02637 0
M  V30 2474 H 250.306 0.190274 1.48183 0
M  V30 2475 H 252.188 -2.12047 3.64162 0
M  V30 2476 H 250.863 -2.12051 2.44573 0
M  V30 2477 H 249.77 -0.195544 3.73589 0
M  V30 2478 H 251.103 -0.276934 4.9142 0
M  V30 2479 N 252.755 -1.56801 0.158532 0
M  V30 2480 C 253.687 -2.14488 -0.807923 0
M  V30 2481 C 254.7 -1.09721 -1.20271 0
M  V30 2482 O 255.889 -1.36956 -1.14478 0
M  V30 2483 C 252.989 -2.66217 -2.09718 0
M  V30 2484 C 252.162 -3.95507 -1.86796 0
M  V30 2485 C 251.221 -4.3243 -2.99818 0
M  V30 2486 O 250.247 -5.00543 -2.71008 0
M  V30 2487 N 251.449 -3.92947 -4.27285 0
M  V30 2488 H 254.214 -2.98042 -0.314816 0
M  V30 2489 H 251.775 -1.61881 -0.0246692 0
M  V30 2490 H 253.767 -2.87924 -2.84398 0
M  V30 2491 H 252.337 -1.87324 -2.50257 0
M  V30 2492 H 251.557 -3.82309 -0.96089 0
M  V30 2493 H 252.845 -4.79972 -1.68833 0
M  V30 2494 H 252.243 -3.38087 -4.53557 0
M  V30 2495 H 250.8 -4.19681 -4.9871 0
M  V30 2496 N 254.233 0.115231 -1.57178 0
M  V30 2497 C 255.166 1.17166 -1.95825 0
M  V30 2498 C 256.144 1.39912 -0.828463 0
M  V30 2499 O 257.328 1.54004 -1.08697 0
M  V30 2500 C 254.455 2.52478 -2.25771 0
M  V30 2501 C 253.501 2.46136 -3.48309 0
M  V30 2502 S 254.334 1.89736 -5.0076 0
M  V30 2503 C 255.49 3.26713 -5.33863 0
M  V30 2504 H 255.723 0.842103 -2.85124 0
M  V30 2505 H 253.256 0.322136 -1.51002 0
M  V30 2506 H 255.214 3.30332 -2.43702 0
M  V30 2507 H 253.875 2.82609 -1.37079 0
M  V30 2508 H 253.068 3.45819 -3.66641 0
M  V30 2509 H 252.67 1.76404 -3.29784 0
M  V30 2510 H 254.962 4.22935 -5.29275 0
M  V30 2511 H 255.905 3.13205 -6.35065 0
M  V30 2512 H 256.313 3.25316 -4.61335 0
M  V30 2513 N 255.711 1.52812 0.385517 0
M  V30 2514 C 256.643 1.74096 1.49074 0
M  V30 2515 C 257.656 0.621462 1.50472 0
M  V30 2516 O 258.845 0.897245 1.54311 0
M  V30 2517 C 255.945 1.78774 2.87911 0
M  V30 2518 C 255.118 3.08134 3.10439 0
M  V30 2519 C 254.177 3.04313 4.29278 0
M  V30 2520 O 253.203 3.78168 4.25415 0
M  V30 2521 N 254.405 2.23741 5.35649 0
M  V30 2522 H 257.17 2.69455 1.31202 0
M  V30 2523 H 254.731 1.51343 0.575065 0
M  V30 2524 H 256.723 1.73721 3.65518 0
M  V30 2525 H 255.293 0.907869 2.99126 0
M  V30 2526 H 254.513 3.26649 2.20667 0
M  V30 2527 H 255.801 3.93662 3.22347 0
M  V30 2528 H 255.199 1.63211 5.41645 0
M  V30 2529 H 253.756 2.24524 6.11909 0
M  V30 2530 N 257.189 -0.644168 1.43834 0
M  V30 2531 C 258.435 -1.40603 1.46146 0
M  V30 2532 C 258.768 -1.93997 0.0887717 0
M  V30 2533 O 258.043 -1.72854 -0.891724 0
M  V30 2534 C 258.326 -2.58086 2.51124 0
M  V30 2535 C 258.179 -2.10126 3.97702 0
M  V30 2536 C 259.498 -3.60291 2.52742 0
M  V30 2537 H 256.617 -0.509905 0.532134 0
M  V30 2538 H 259.259 -0.729502 1.75437 0
M  V30 2539 H 257.409 -3.15801 2.26278 0
M  V30 2540 H 259.081 -1.57342 4.33637 0
M  V30 2541 H 257.324 -1.41419 4.10101 0
M  V30 2542 H 257.995 -2.94649 4.66783 0
M  V30 2543 H 260.471 -3.12352 2.7491 0
M  V30 2544 H 259.347 -4.40032 3.28121 0
M  V30 2545 H 259.608 -4.1349 1.56455 0
M  V30 2546 N 258.668 -1.30515 -0.883378 0
M  V30 2547 C 259.598 -1.19607 -2.00541 0
M  V30 2548 C 260.579 -0.086346 -1.69881 0
M  V30 2549 O 261.764 -0.268654 -1.92333 0
M  V30 2550 C 258.894 -0.888758 -3.35736 0
M  V30 2551 C 257.848 -1.95659 -3.8066 0
M  V30 2552 C 257.174 -1.50224 -5.13164 0
M  V30 2553 C 258.474 -3.36788 -3.99213 0
M  V30 2554 H 260.168 -2.13476 -2.09925 0
M  V30 2555 H 257.714 -1.02775 -1.00863 0
M  V30 2556 H 259.667 -0.799094 -4.13754 0
M  V30 2557 H 258.391 0.0856125 -3.26488 0
M  V30 2558 H 257.05 -2.03591 -3.04871 0
M  V30 2559 H 256.698 -0.516092 -5.00345 0
M  V30 2560 H 256.398 -2.2165 -5.44192 0
M  V30 2561 H 257.922 -1.42639 -5.93706 0
M  V30 2562 H 259.336 -3.31605 -4.67665 0
M  V30 2563 H 257.733 -4.06314 -4.41621 0
M  V30 2564 H 258.803 -3.78561 -3.03017 0
M  V30 2565 N 260.146 1.09593 -1.13257 0
M  V30 2566 C 261.076 2.18214 -0.830946 0
M  V30 2567 C 262.057 1.68812 0.208966 0
M  V30 2568 O 263.242 1.9408 0.0682666 0
M  V30 2569 C 260.372 3.46051 -0.294296 0
M  V30 2570 C 259.326 4.08778 -1.26826 0
M  V30 2571 C 258.652 5.31419 -0.591449 0
M  V30 2572 C 259.952 4.51476 -2.62615 0
M  V30 2573 H 261.646 2.43703 -1.73923 0
M  V30 2574 H 259.192 1.17128 -0.837675 0
M  V30 2575 H 261.145 4.2134 -0.0709606 0
M  V30 2576 H 259.869 3.20079 0.649366 0
M  V30 2577 H 258.528 3.35505 -1.47756 0
M  V30 2578 H 258.176 5.01727 0.357633 0
M  V30 2579 H 257.876 5.74341 -1.24123 0
M  V30 2580 H 259.4 6.09433 -0.377355 0
M  V30 2581 H 260.814 5.17999 -2.45663 0
M  V30 2582 H 259.211 5.05277 -3.23752 0
M  V30 2583 H 260.281 3.63962 -3.20406 0
M  V30 2584 N 261.624 0.925811 1.2754 0
M  V30 2585 C 262.901 0.483726 1.89524 0
M  V30 2586 C 263.281 -1.03809 1.83812 0
M  V30 2587 O 262.629 -1.89143 1.28207 0
M  V30 2588 C 262.839 1.02769 3.33526 0
M  V30 2589 C 264.187 1.08703 4.10449 0
M  V30 2590 O 265.211 0.977175 3.42534 0
M  V30 2591 O 264.07 1.25599 5.31871 0
M  V30 2592 H 261.164 0.15529 0.812289 0
M  V30 2593 H 263.71 1.01738 1.35822 0
M  V30 2594 H 262.482 2.07155 3.31967 0
M  V30 2595 H 262.105 0.475567 3.94746 0
M  V30 2596 N 263.102 -1.41638 0.69111 0
M  V30 2597 C 264.034 -2.29194 -0.0161523 0
M  V30 2598 C 265.047 -1.44549 -0.748955 0
M  V30 2599 O 266.236 -1.681 -0.6004 0
M  V30 2600 C 263.336 -3.22325 -1.0469 0
M  V30 2601 C 262.509 -4.35706 -0.384621 0
M  V30 2602 C 261.568 -5.09443 -1.31737 0
M  V30 2603 O 260.594 -5.63386 -0.811451 0
M  V30 2604 N 261.796 -5.16487 -2.64993 0
M  V30 2605 H 264.561 -2.90534 0.735523 0
M  V30 2606 H 262.122 -1.52742 0.53679 0
M  V30 2607 H 264.114 -3.68522 -1.67252 0
M  V30 2608 H 262.684 -2.62323 -1.70015 0
M  V30 2609 H 261.904 -3.91948 0.420804 0
M  V30 2610 H 263.192 -5.08743 0.0760765 0
M  V30 2611 H 262.59 -4.741 -3.08619 0
M  V30 2612 H 261.147 -5.66276 -3.22761 0
M  V30 2613 N 264.58 -0.43555 -1.51462 0
M  V30 2614 C 265.543 0.365137 -2.26273 0
M  V30 2615 C 266.543 0.951227 -1.29647 0
M  V30 2616 O 267.733 0.825958 -1.53374 0
M  V30 2617 C 264.865 1.51645 -3.05314 0
M  V30 2618 H 266.058 -0.290474 -2.9849 0
M  V30 2619 H 263.611 -0.188676 -1.55157 0
M  V30 2620 H 264.346 2.20816 -2.3751 0
M  V30 2621 H 264.131 1.10238 -3.76284 0
M  V30 2622 H 265.621 2.08218 -3.61987 0
M  V30 2623 N 266.058 1.56714 -0.166846 0
M  V30 2624 C 267.306 1.96358 0.478305 0
M  V30 2625 C 267.627 1.0537 1.6408 0
M  V30 2626 O 266.897 0.119154 1.95537 0
M  V30 2627 H 265.477 0.725065 0.179692 0
M  V30 2628 H 268.139 1.93329 -0.246985 0
M  V30 2629 H 267.235 3.00547 0.841292 0
M  V30 2630 N 267.536 -0.106894 1.57237 0
M  V30 2631 C 268.776 -0.818277 1.87306 0
M  V30 2632 C 269.14 -1.76474 0.756371 0
M  V30 2633 O 270.341 -2.5186 0.939155 0
M  V30 2634 C 268.612 -1.53806 3.22612 0
M  V30 2635 S 270.171 -2.28935 3.74345 0
M  V30 2636 H 266.989 -0.272862 0.656557 0
M  V30 2637 H 269.591 -0.075988 1.95352 0
M  V30 2638 H 268.295 -0.834951 4.01817 0
M  V30 2639 H 267.826 -2.32049 3.17674 0
M  V30 2640 H 269.841 -3.54871 3.46815 0
M  V30 2641 N 269.014 -1.53014 -0.377408 0
M  V30 2642 C 270.254 -1.70318 -1.1301 0
M  V30 2643 C 270.618 -0.439538 -1.86901 0
M  V30 2644 O 271.819 -0.489095 -2.64313 0
M  V30 2645 C 270.09 -2.91125 -2.07319 0
M  V30 2646 S 271.649 -3.29075 -2.90268 0
M  V30 2647 H 268.467 -0.599426 -0.382374 0
M  V30 2648 H 271.069 -1.91089 -0.412933 0
M  V30 2649 H 269.773 -3.81303 -1.51777 0
M  V30 2650 H 269.304 -2.7272 -2.83526 0
M  V30 2651 H 271.319 -2.80165 -4.09539 0
M  V30 2652 N 270.492 0.636531 -1.44174 0
M  V30 2653 C 271.741 1.39213 -1.45954 0
M  V30 2654 C 272.054 1.95374 -0.0939119 0
M  V30 2655 O 273.26 2.71498 0.0107767 0
M  V30 2656 C 271.716 2.52025 -2.56927 0
M  V30 2657 C 271.324 2.024 -3.99673 0
M  V30 2658 C 273.068 3.29269 -2.67922 0
M  V30 2659 C 270.975 3.12521 -5.0208 0
M  V30 2660 H 269.905 0.523132 -0.542999 0
M  V30 2661 H 272.556 0.685349 -1.70221 0
M  V30 2662 H 270.938 3.25253 -2.25891 0
M  V30 2663 H 272.112 1.36073 -4.40251 0
M  V30 2664 H 270.427 1.37987 -3.92872 0
M  V30 2665 H 273.024 4.11352 -3.41605 0
M  V30 2666 H 273.367 3.78397 -1.73555 0
M  V30 2667 H 273.9 2.63129 -2.98342 0
M  V30 2668 H 270.639 2.68343 -5.98057 0
M  V30 2669 H 270.159 3.77507 -4.66099 0
M  V30 2670 H 271.838 3.77385 -5.25538 0
M  V30 2671 N 271.97 1.30982 0.876444 0
M  V30 2672 C 273.216 1.20474 1.63138 0
M  V30 2673 C 273.549 -0.238096 1.92735 0
M  V30 2674 O 272.824 -1.1692 1.55435 0
M  V30 2675 C 273.107 2.04244 2.96574 0
M  V30 2676 C 272.96 3.56793 2.73896 0
M  V30 2677 C 274.279 1.88684 3.97601 0
M  V30 2678 H 271.398 0.439001 0.591985 0
M  V30 2679 H 274.04 1.60704 1.01361 0
M  V30 2680 H 272.19 1.70063 3.493 0
M  V30 2681 H 273.862 4.01077 2.27892 0
M  V30 2682 H 272.105 3.80548 2.08245 0
M  V30 2683 H 272.776 4.10706 3.68815 0
M  V30 2684 H 275.252 2.18584 3.54062 0
M  V30 2685 H 274.128 2.4961 4.88862 0
M  V30 2686 H 274.389 0.848343 4.33884 0
M  V30 2687 N 273.449 -1.08991 1.13837 0
M  V30 2688 C 274.697 -1.80899 0.901098 0
M  V30 2689 C 275.018 -1.86356 -0.574134 0
M  V30 2690 O 274.288 -1.35235 -1.41733 0
M  V30 2691 H 272.868 -0.669966 0.330386 0
M  V30 2692 H 275.53 -1.318 1.43578 0
M  V30 2693 H 274.626 -2.83929 1.29578 0
M  V30 2694 N 274.927 -0.932562 -1.27047 0
M  V30 2695 C 275.859 -0.392734 -2.2581 0
M  V30 2696 C 276.872 0.479241 -1.55586 0
M  V30 2697 O 278.061 0.291078 -1.76111 0
M  V30 2698 C 275.161 0.455456 -3.35826 0
M  V30 2699 C 274.334 -0.398355 -4.35582 0
M  V30 2700 C 273.393 0.387985 -5.24768 0
M  V30 2701 O 272.419 -0.206003 -5.68827 0
M  V30 2702 N 273.621 1.68664 -5.55457 0
M  V30 2703 H 276.386 -1.24173 -2.72766 0
M  V30 2704 H 273.947 -0.800511 -1.40725 0
M  V30 2705 H 275.939 0.988692 -3.92437 0
M  V30 2706 H 274.509 1.20522 -2.88432 0
M  V30 2707 H 273.729 -1.11286 -3.78165 0
M  V30 2708 H 275.017 -0.981889 -4.99236 0
M  V30 2709 H 274.415 2.19147 -5.21528 0
M  V30 2710 H 272.972 2.1663 -6.14748 0
M  V30 2711 N 276.405 1.4127 -0.698611 0
M  V30 2712 C 277.63 2.06024 -0.238512 0
M  V30 2713 C 278.055 1.5224 1.10475 0
M  V30 2714 O 277.413 0.650623 1.69223 0
M  V30 2715 C 277.461 3.59988 -0.209952 0
M  V30 2716 O 276.565 4.04282 0.814235 0
M  V30 2717 H 275.906 0.653829 -0.115775 0
M  V30 2718 H 278.436 1.8098 -0.954326 0
M  V30 2719 H 278.446 4.07979 -0.0418436 0
M  V30 2720 H 277.121 3.98503 -1.1903 0
M  V30 2721 H 275.698 3.6779 0.615234 0
M  V30 2722 N 277.883 0.443576 1.51229 0
M  V30 2723 C 278.793 -0.370721 2.31652 0
M  V30 2724 C 279.809 -1.02186 1.40833 0
M  V30 2725 O 280.985 -1.01586 1.73903 0
M  V30 2726 C 278.05 -1.45376 3.14749 0
M  V30 2727 C 277.111 -0.822099 4.21355 0
M  V30 2728 C 276.344 -1.85353 5.0048 0
M  V30 2729 O 276.567 -3.07656 4.80316 0
M  V30 2730 O 275.501 -1.4406 5.84406 0
M  V30 2731 H 279.327 0.286002 3.0235 0
M  V30 2732 H 276.912 0.20598 1.47973 0
M  V30 2733 H 278.794 -2.08173 3.66391 0
M  V30 2734 H 277.469 -2.09445 2.46809 0
M  V30 2735 H 276.376 -0.155909 3.73775 0
M  V30 2736 H 277.709 -0.224797 4.91686 0
M  V30 2737 N 279.361 -1.56624 0.175154 0
M  V30 2738 C 280.293 -2.15333 -0.785128 0
M  V30 2739 C 281.306 -1.1099 -1.19101 0
M  V30 2740 O 282.495 -1.38162 -1.13019 0
M  V30 2741 C 279.595 -2.68427 -2.06882 0
M  V30 2742 C 278.768 -3.97466 -1.8259 0
M  V30 2743 C 277.827 -4.35585 -2.95215 0
M  V30 2744 O 276.853 -5.03389 -2.65684 0
M  V30 2745 N 278.055 -3.97457 -4.23094 0
M  V30 2746 H 280.82 -2.98359 -0.283187 0
M  V30 2747 H 278.381 -1.61898 -0.00749817 0
M  V30 2748 H 280.373 -2.90924 -2.81328 0
M  V30 2749 H 278.943 -1.89968 -2.48256 0
M  V30 2750 H 278.163 -3.83307 -0.920287 0
M  V30 2751 H 279.451 -4.81736 -1.63733 0
M  V30 2752 H 278.849 -3.42878 -4.49945 0
M  V30 2753 H 277.406 -4.24947 -4.9423 0
M  V30 2754 N 280.839 0.0985539 -1.57292 0
M  V30 2755 C 281.769 1.12064 -2.04851 0
M  V30 2756 C 282.75 1.41981 -0.936767 0
M  V30 2757 O 283.935 1.52071 -1.20781 0
M  V30 2758 C 281.065 2.44144 -2.47004 0
M  V30 2759 C 280.019 2.28643 -3.6181 0
M  V30 2760 C 279.345 3.65869 -3.89929 0
M  V30 2761 C 280.645 1.72986 -4.92822 0
M  V30 2762 H 282.339 0.724979 -2.9049 0
M  V30 2763 H 279.885 0.34729 -1.39749 0
M  V30 2764 H 281.838 3.15914 -2.78884 0
M  V30 2765 H 280.562 2.85639 -1.5836 0
M  V30 2766 H 279.221 1.59318 -3.30172 0
M  V30 2767 H 278.869 4.04885 -2.98458 0
M  V30 2768 H 278.569 3.56344 -4.67218 0
M  V30 2769 H 280.093 4.39112 -4.2428 0
M  V30 2770 H 281.507 2.34593 -5.23105 0
M  V30 2771 H 279.904 1.74229 -5.74251 0
M  V30 2772 H 280.974 0.689007 -4.7998 0
M  V30 2773 N 282.317 1.53212 0.369288 0
M  V30 2774 C 283.563 1.69466 1.11397 0
M  V30 2775 C 283.896 0.443257 1.89074 0
M  V30 2776 O 283.171 -0.559386 1.86282 0
M  V30 2777 C 283.454 2.9422 2.07621 0
M  V30 2778 C 283.307 4.29508 1.33577 0
M  V30 2779 C 284.626 3.14565 3.07794 0
M  V30 2780 H 281.745 0.616667 0.403597 0
M  V30 2781 H 284.387 1.85845 0.395179 0
M  V30 2782 H 282.537 2.80387 2.68916 0
M  V30 2783 H 284.209 4.55147 0.750955 0
M  V30 2784 H 282.452 4.29088 0.637618 0
M  V30 2785 H 283.123 5.12926 2.03989 0
M  V30 2786 H 285.599 3.2756 2.56601 0
M  V30 2787 H 284.475 4.03297 3.72348 0
M  V30 2788 H 284.736 2.29675 3.77759 0
M  V30 2789 N 283.795 -0.628877 1.44509 0
M  V30 2790 C 285.206 -1.21054 1.42137 0
M  V30 2791 C 285.557 -1.95715 0.137881 0
M  V30 2792 O 284.682 -2.02554 -0.761645 0
M  V30 2793 C 285.277 -2.20189 2.57493 0
M  V30 2794 C 283.836 -2.73777 2.58308 0
M  V30 2795 C 282.983 -1.48813 2.33987 0
M  V30 2796 H 285.934 -0.41942 1.53057 0
M  V30 2797 H 285.955 -3.02833 2.30375 0
M  V30 2798 H 285.467 -1.6582 3.50892 0
M  V30 2799 H 283.568 -3.32142 1.68856 0
M  V30 2800 H 283.681 -3.19662 3.56865 0
M  V30 2801 H 282.045 -1.77024 1.83124 0
M  V30 2802 H 282.828 -0.963442 3.29504 0
M  V30 2803 N 285.273 -1.31445 -0.869486 0
M  V30 2804 C 286.236 -1.19094 -1.9583 0
M  V30 2805 C 287.236 -0.117906 -1.60367 0
M  V30 2806 O 288.426 -0.367208 -1.70286 0
M  V30 2807 C 285.558 -0.828165 -3.30688 0
M  V30 2808 H 286.751 -2.15842 -2.08212 0
M  V30 2809 H 284.304 -1.15063 -1.05784 0
M  V30 2810 H 285.039 0.138142 -3.24006 0
M  V30 2811 H 284.824 -1.6038 -3.578 0
M  V30 2812 H 286.314 -0.765658 -4.10521 0
M  V30 2813 N 286.751 1.08385 -1.14413 0
M  V30 2814 C 288.028 1.77429 -0.823297 0
M  V30 2815 C 288.408 1.9974 0.683163 0
M  V30 2816 O 287.756 1.60739 1.62405 0
M  V30 2817 C 287.966 3.09004 -1.62227 0
M  V30 2818 C 289.314 3.83532 -1.82177 0
M  V30 2819 O 290.338 3.18786 -1.58915 0
M  V30 2820 O 289.197 4.99792 -2.21067 0
M  V30 2821 H 286.291 0.769999 -0.301712 0
M  V30 2822 H 288.837 1.14846 -1.24934 0
M  V30 2823 H 287.609 2.88316 -2.64555 0
M  V30 2824 H 287.232 3.79316 -1.19187 0
M  V30 2825 N 288.23 0.939286 1.26551 0
M  V30 2826 C 289.478 0.58469 1.93457 0
M  V30 2827 C 289.799 -0.878774 1.74076 0
M  V30 2828 O 289.069 -1.62421 1.09528 0
M  V30 2829 H 287.649 0.21325 0.715914 0
M  V30 2830 H 290.311 1.1942 1.54029 0
M  V30 2831 H 289.407 0.800849 3.0165 0
M  V30 2832 N 289.708 -1.40897 0.706093 0
M  V30 2833 C 290.957 -2.00284 0.238574 0
M  V30 2834 C 291.27 -1.56604 -1.17194 0
M  V30 2835 O 292.476 -2.08624 -1.73748 0
M  V30 2836 C 290.932 -3.57934 0.375623 0
M  V30 2837 C 290.54 -4.10591 1.79217 0
M  V30 2838 C 292.284 -4.24488 -0.0315857 0
M  V30 2839 C 290.191 -5.60712 1.88032 0
M  V30 2840 H 289.121 -0.749144 0.0854398 0
M  V30 2841 H 291.772 -1.61251 0.875813 0
M  V30 2842 H 290.154 -3.94622 -0.330042 0
M  V30 2843 H 291.328 -3.85301 2.52745 0
M  V30 2844 H 289.643 -3.56601 2.15 0
M  V30 2845 H 292.24 -5.34698 0.0136842 0
M  V30 2846 H 292.583 -4.02261 -1.072 0
M  V30 2847 H 293.116 -3.92873 0.624181 0
M  V30 2848 H 289.855 -5.87781 2.90161 0
M  V30 2849 H 289.375 -5.87896 1.18903 0
M  V30 2850 H 291.054 -6.25658 1.64805 0
M  V30 2851 N 291.186 -0.45159 -1.50991 0
M  V30 2852 C 292.116 0.342898 -2.30969 0
M  V30 2853 C 293.097 1.00815 -1.37005 0
M  V30 2854 O 294.282 1.00907 -1.65926 0
M  V30 2855 C 291.412 1.43637 -3.16205 0
M  V30 2856 C 290.366 0.893818 -4.18563 0
M  V30 2857 C 289.692 2.08411 -4.92411 0
M  V30 2858 C 290.992 -0.0815568 -5.22236 0
M  V30 2859 H 292.686 -0.324556 -2.97636 0
M  V30 2860 H 290.232 -0.157531 -1.43136 0
M  V30 2861 H 292.185 1.9995 -3.70942 0
M  V30 2862 H 290.909 2.13232 -2.47386 0
M  V30 2863 H 289.568 0.352798 -3.64898 0
M  V30 2864 H 289.216 2.76658 -4.20082 0
M  V30 2865 H 288.916 1.72741 -5.61636 0
M  V30 2866 H 290.44 2.65251 -5.49976 0
M  V30 2867 H 291.854 0.391742 -5.7196 0
M  V30 2868 H 290.251 -0.351551 -5.99069 0
M  V30 2869 H 291.321 -1.01374 -4.74185 0
M  V30 2870 N 292.664 1.56529 -0.183458 0
M  V30 2871 C 293.894 2.01331 0.463612 0
M  V30 2872 C 294.302 1.06278 1.5653 0
M  V30 2873 O 293.645 0.0577976 1.83609 0
M  V30 2874 C 293.707 3.42547 1.09096 0
M  V30 2875 C 293.371 4.56817 0.129442 0
M  V30 2876 C 294.368 5.15734 -0.656807 0
M  V30 2877 C 292.053 5.02295 0.02174 0
M  V30 2878 C 294.047 6.1857 -1.53784 0
M  V30 2879 C 291.734 6.04978 -0.862864 0
M  V30 2880 C 292.732 6.62988 -1.64123 0
M  V30 2881 O 292.42 7.63677 -2.51103 0
M  V30 2882 H 292.152 0.664917 0.121907 0
M  V30 2883 H 294.706 2.034 -0.285954 0
M  V30 2884 H 292.936 3.37428 1.88889 0
M  V30 2885 H 294.625 3.71228 1.64148 0
M  V30 2886 H 295.391 4.81473 -0.583839 0
M  V30 2887 H 291.27 4.56847 0.617392 0
M  V30 2888 H 294.814 6.63777 -2.14583 0
M  V30 2889 H 290.711 6.38663 -0.93699 0
M  V30 2890 H 291.479 7.81049 -2.44753 0
M  V30 2891 N 294.142 -0.090211 1.57342 0
M  V30 2892 C 295.105 -1.09335 2.01441 0
M  V30 2893 C 296.105 -1.32666 0.908641 0
M  V30 2894 O 297.295 -1.28697 1.174 0
M  V30 2895 C 294.427 -2.44136 2.3793 0
M  V30 2896 H 295.62 -0.713662 2.91285 0
M  V30 2897 H 293.173 -0.335404 1.52659 0
M  V30 2898 H 293.908 -2.86972 1.51055 0
M  V30 2899 H 293.693 -2.28548 3.18603 0
M  V30 2900 H 295.183 -3.16277 2.72688 0
M  V30 2901 N 295.62 -1.53406 -0.361157 0
M  V30 2902 C 296.583 -1.79479 -1.42548 0
M  V30 2903 C 297.583 -0.665327 -1.4639 0
M  V30 2904 O 298.773 -0.933549 -1.47073 0
M  V30 2905 C 295.905 -1.92087 -2.8163 0
M  V30 2906 H 297.098 -2.74538 -1.20701 0
M  V30 2907 H 294.651 -1.4455 -0.594546 0
M  V30 2908 H 295.386 -0.991099 -3.08784 0
M  V30 2909 H 295.171 -2.74241 -2.80239 0
M  V30 2910 H 296.661 -2.13836 -3.58697 0
M  V30 2911 N 297.098 0.621204 -1.44841 0
M  V30 2912 C 298.514 0.94048 -1.28946 0
M  V30 2913 C 298.714 2.00154 -0.23249 0
M  V30 2914 O 297.77 2.49651 0.378237 0
M  V30 2915 C 299.083 1.39433 -2.66419 0
M  V30 2916 C 300.631 1.50927 -2.74208 0
M  V30 2917 C 301.106 1.99692 -4.12174 0
M  V30 2918 N 302.597 2.06947 -4.144 0
M  V30 2919 C 303.332 2.45871 -5.1801 0
M  V30 2920 N 302.828 2.83862 -6.31977 0
M  V30 2921 N 304.621 2.46092 -5.05366 0
M  V30 2922 H 296.772 -0.0803548 -2.12248 0
M  V30 2923 H 299.035 0.0266913 -0.947624 0
M  V30 2924 H 298.741 0.688925 -3.44887 0
M  V30 2925 H 298.615 2.36347 -2.93973 0
M  V30 2926 H 301.002 2.20561 -1.96053 0
M  V30 2927 H 301.083 0.523627 -2.50383 0
M  V30 2928 H 300.727 1.30649 -4.90809 0
M  V30 2929 H 300.657 2.99146 -4.33381 0
M  V30 2930 H 303.148 1.80232 -3.32152 0
M  V30 2931 H 303.461 3.12405 -7.0684 0
M  V30 2932 H 301.806 2.8159 -6.35399 0
M  V30 2933 H 304.997 2.1581 -4.15384 0
M  V30 2934 H 305.17 2.76102 -5.86235 0
M  V30 2935 N 298.576 1.31904 0.862503 0
M  V30 2936 C 299.853 1.12644 1.59908 0
M  V30 2937 C 300.233 -0.316104 2.0872 0
M  V30 2938 O 299.581 -1.31145 1.87118 0
M  V30 2939 C 299.791 2.1472 2.7513 0
M  V30 2940 C 301.139 2.47637 3.44907 0
M  V30 2941 O 302.163 2.13205 2.85346 0
M  V30 2942 O 301.022 3.06632 4.52371 0
M  V30 2943 H 298.116 0.43416 0.703871 0
M  V30 2944 H 300.662 1.43408 0.907314 0
M  V30 2945 H 299.434 3.1172 2.3653 0
M  V30 2946 H 299.057 1.84905 3.51989 0
M  V30 2947 N 300.054 -1.07777 1.14986 0
M  V30 2948 C 301.3 -1.80557 0.923422 0
M  V30 2949 C 301.633 -1.86298 -0.548337 0
M  V30 2950 O 300.908 -1.34354 -1.40639 0
M  V30 2951 C 301.191 -3.25839 1.53299 0
M  V30 2952 C 301.044 -3.28269 3.07505 0
M  V30 2953 C 302.363 -4.22991 1.21518 0
M  V30 2954 H 299.482 -0.655493 0.336894 0
M  V30 2955 H 302.124 -1.26144 1.42083 0
M  V30 2956 H 300.274 -3.72306 1.10999 0
M  V30 2957 H 301.946 -2.90079 3.58681 0
M  V30 2958 H 300.189 -2.67355 3.4162 0
M  V30 2959 H 300.86 -4.30691 3.45266 0
M  V30 2960 H 303.336 -3.84894 1.581 0
M  V30 2961 H 302.212 -5.22945 1.66793 0
M  V30 2962 H 302.473 -4.41904 0.131505 0
M  V30 2963 N 301.532 -0.945985 -1.26051 0
M  V30 2964 C 302.76 -0.613025 -1.9761 0
M  V30 2965 C 303.175 0.813035 -1.70397 0
M  V30 2966 O 302.532 1.54274 -0.974979 0
M  V30 2967 C 302.583 -0.85159 -3.51326 0
M  V30 2968 O 302.304 -2.22157 -3.77595 0
M  V30 2969 C 303.805 -0.529831 -4.40122 0
M  V30 2970 H 301.025 -0.230593 -0.630133 0
M  V30 2971 H 303.569 -1.268 -1.60443 0
M  V30 2972 H 301.724 -0.243151 -3.86636 0
M  V30 2973 H 302.138 -2.2852 -4.721 0
M  V30 2974 H 303.612 -0.747348 -5.46917 0
M  V30 2975 H 304.089 0.535341 -4.35925 0
M  V30 2976 H 304.695 -1.11721 -4.10364 0
M  V30 2977 N 303.011 1.40521 -0.713556 0
M  V30 2978 C 303.974 2.29098 -0.0684347 0
M  V30 2979 C 304.974 1.45268 0.689472 0
M  V30 2980 O 306.164 1.66205 0.521677 0
M  V30 2981 C 303.296 3.28446 0.913024 0
M  V30 2982 H 304.489 2.87645 -0.84855 0
M  V30 2983 H 302.042 1.48809 -0.47809 0
M  V30 2984 H 302.777 2.74913 1.72027 0
M  V30 2985 H 302.562 3.90327 0.372472 0
M  V30 2986 H 304.052 3.94777 1.36165 0
M  V30 2987 N 304.489 0.459591 1.5075 0
M  V30 2988 C 305.717 -0.0973749 2.06671 0
M  V30 2989 C 306.132 -1.34524 1.32472 0
M  V30 2990 O 305.489 -1.7827 0.390634 0
M  V30 2991 C 305.54 -0.39714 3.59312 0
M  V30 2992 O 305.261 0.801214 4.30711 0
M  V30 2993 C 306.762 -1.00234 4.31819 0
M  V30 2994 H 303.982 0.00195854 0.670997 0
M  V30 2995 H 306.526 0.645072 1.94059 0
M  V30 2996 H 304.681 -1.08951 3.71764 0
M  V30 2997 H 305.095 0.538857 5.21725 0
M  V30 2998 H 306.569 -1.16193 5.39632 0
M  V30 2999 H 307.046 -1.98939 3.91561 0
M  V30 3000 H 307.652 -0.348699 4.23868 0
M  V30 3001 N 305.967 -1.56429 0.191757 0
M  V30 3002 C 307.213 -1.97777 -0.448554 0
M  V30 3003 C 307.546 -1.07847 -1.61501 0
M  V30 3004 O 306.821 -0.129774 -1.94067 0
M  V30 3005 C 307.104 -3.48362 -0.911906 0
M  V30 3006 C 306.957 -4.4907 0.256136 0
M  V30 3007 C 308.276 -4.02561 -1.77857 0
M  V30 3008 H 305.395 -0.719071 -0.161572 0
M  V30 3009 H 308.037 -1.87896 0.282007 0
M  V30 3010 H 306.187 -3.56914 -1.53442 0
M  V30 3011 H 307.859 -4.5256 0.893733 0
M  V30 3012 H 306.102 -4.24181 0.908436 0
M  V30 3013 H 306.773 -5.51889 -0.11053 0
M  V30 3014 H 309.249 -3.96767 -1.25359 0
M  V30 3015 H 308.125 -5.08301 -2.07174 0
M  V30 3016 H 308.386 -3.47616 -2.73158 0
M  V30 3017 N 307.445 0.0818655 -1.57387 0
M  V30 3018 C 308.722 0.815343 -1.77796 0
M  V30 3019 C 309.102 1.96289 -0.77679 0
M  V30 3020 O 308.45 2.27691 0.192106 0
M  V30 3021 C 308.66 1.29765 -3.23978 0
M  V30 3022 C 310.008 1.7351 -3.8753 0
M  V30 3023 O 311.032 1.39356 -3.27808 0
M  V30 3024 O 309.891 2.36708 -4.92576 0
M  V30 3025 H 306.985 0.389914 -0.729312 0
M  V30 3026 H 309.531 0.0627213 -1.69584 0
M  V30 3027 H 308.303 0.47608 -3.88393 0
M  V30 3028 H 307.926 2.11189 -3.36875 0
M  V30 3029 N 308.923 1.53595 0.353017 0
M  V30 3030 C 310.148 1.7462 1.11904 0
M  V30 3031 C 310.573 0.479721 1.8188 0
M  V30 3032 O 309.931 -0.567066 1.72204 0
M  V30 3033 C 309.979 2.92029 2.11545 0
M  V30 3034 O 309.083 2.61516 3.18878 0
M  V30 3035 H 308.424 0.579531 0.324099 0
M  V30 3036 H 310.954 2.00525 0.406301 0
M  V30 3037 H 310.964 3.18551 2.5493 0
M  V30 3038 H 309.639 3.83888 1.60008 0
M  V30 3039 H 308.216 2.45852 2.80377 0
M  V30 3040 N 310.401 -0.613514 1.45168 0
M  V30 3041 C 311.331 -1.7354 1.56225 0
M  V30 3042 C 312.312 -1.64981 0.41414 0
M  V30 3043 O 313.497 -1.83472 0.636526 0
M  V30 3044 C 310.627 -3.12128 1.52295 0
M  V30 3045 C 309.581 -3.35491 2.65762 0
M  V30 3046 C 308.907 -4.74291 2.46885 0
M  V30 3047 C 310.207 -3.26325 4.0781 0
M  V30 3048 H 311.901 -1.64543 2.50132 0
M  V30 3049 H 309.447 -0.790185 1.20383 0
M  V30 3050 H 311.4 -3.90404 1.58628 0
M  V30 3051 H 310.124 -3.2195 0.549139 0
M  V30 3052 H 308.783 -2.59603 2.58847 0
M  V30 3053 H 308.431 -4.80839 1.47657 0
M  V30 3054 H 308.131 -4.9088 3.22972 0
M  V30 3055 H 309.655 -5.54775 2.55063 0
M  V30 3056 H 311.069 -3.94483 4.16 0
M  V30 3057 H 309.466 -3.54445 4.8424 0
M  V30 3058 H 310.536 -2.23855 4.30136 0
M  V30 3059 N 311.879 -1.3236 -0.855495 0
M  V30 3060 C 313.29 -1.2056 -1.42556 0
M  V30 3061 C 313.641 0.182209 -1.95352 0
M  V30 3062 O 312.766 1.08088 -1.87472 0
M  V30 3063 C 313.361 -2.1826 -2.59129 0
M  V30 3064 C 311.92 -2.10351 -3.12137 0
M  V30 3065 C 311.067 -2.06674 -1.84882 0
M  V30 3066 H 314.018 -1.442 -0.662727 0
M  V30 3067 H 314.039 -1.78064 -3.36264 0
M  V30 3068 H 313.551 -3.19257 -2.20673 0
M  V30 3069 H 311.652 -1.12599 -3.55179 0
M  V30 3070 H 311.765 -3.00135 -3.73438 0
M  V30 3071 H 310.129 -1.51901 -2.04446 0
M  V30 3072 H 310.912 -3.09451 -1.48643 0
M  V30 3073 N 313.357 1.07166 -1.15556 0
M  V30 3074 C 314.287 2.16403 -0.877046 0
M  V30 3075 C 315.268 1.69217 0.173111 0
M  V30 3076 O 316.453 1.94181 0.027084 0
M  V30 3077 C 313.583 3.45349 -0.367632 0
M  V30 3078 C 312.537 4.05995 -1.35468 0
M  V30 3079 C 311.863 5.30045 -0.704038 0
M  V30 3080 C 313.163 4.45804 -2.72132 0
M  V30 3081 H 314.857 2.39959 -1.79053 0
M  V30 3082 H 312.403 1.15325 -0.862331 0
M  V30 3083 H 314.356 4.21095 -0.160317 0
M  V30 3084 H 313.08 3.21385 0.581326 0
M  V30 3085 H 311.739 3.32296 -1.54839 0
M  V30 3086 H 311.387 5.02373 0.251128 0
M  V30 3087 H 311.087 5.71579 -1.36277 0
M  V30 3088 H 312.611 6.08495 -0.50654 0
M  V30 3089 H 314.025 5.12671 -2.56595 0
M  V30 3090 H 312.422 4.98296 -3.34397 0
M  V30 3091 H 313.492 3.57083 -3.28054 0
M  V30 3092 N 314.835 0.952656 1.25548 0
M  V30 3093 C 316.084 0.602053 1.92505 0
M  V30 3094 C 316.397 -0.864663 1.75451 0
M  V30 3095 O 317.603 -1.32514 2.36965 0
M  V30 3096 C 316.059 1.02607 3.44963 0
M  V30 3097 C 315.667 2.51519 3.70732 0
M  V30 3098 C 317.411 0.747905 4.1786 0
M  V30 3099 C 315.318 2.87732 5.16686 0
M  V30 3100 H 314.248 0.22146 0.720744 0
M  V30 3101 H 316.899 1.15684 1.42441 0
M  V30 3102 H 315.281 0.399712 3.93978 0
M  V30 3103 H 316.455 3.19157 3.32378 0
M  V30 3104 H 314.77 2.76786 3.11092 0
M  V30 3105 H 317.367 0.994647 5.25367 0
M  V30 3106 H 317.71 -0.315629 4.15102 0
M  V30 3107 H 318.243 1.33452 3.74747 0
M  V30 3108 H 314.982 3.93095 5.24554 0
M  V30 3109 H 314.502 2.24765 5.56094 0
M  V30 3110 H 316.181 2.76817 5.84792 0
M  V30 3111 N 316.313 -1.40141 0.720998 0
M  V30 3112 C 317.541 -2.05096 0.272656 0
M  V30 3113 C 317.956 -1.54334 -1.0875 0
M  V30 3114 O 317.313 -0.702211 -1.6845 0
M  V30 3115 C 317.364 -3.60636 0.249835 0
M  V30 3116 O 317.085 -4.09526 1.55629 0
M  V30 3117 C 318.586 -4.42772 -0.216396 0
M  V30 3118 H 315.806 -0.659897 0.121558 0
M  V30 3119 H 318.35 -1.79449 0.980723 0
M  V30 3120 H 316.505 -3.85232 -0.409237 0
M  V30 3121 H 316.919 -5.03758 1.4604 0
M  V30 3122 H 318.393 -5.51702 -0.181212 0
M  V30 3123 H 318.87 -4.20756 -1.25941 0
M  V30 3124 H 319.476 -4.23294 0.412596 0
M  V30 3125 N 317.792 -0.46758 -1.50504 0
M  V30 3126 C 318.755 0.317059 -2.26996 0
M  V30 3127 C 319.755 0.923513 -1.31635 0
M  V30 3128 O 320.945 0.793239 -1.55091 0
M  V30 3129 C 318.077 1.45134 -3.08462 0
M  V30 3130 H 319.27 -0.353723 -2.97807 0
M  V30 3131 H 316.823 -0.221545 -1.54722 0
M  V30 3132 H 317.558 2.15728 -2.4214 0
M  V30 3133 H 317.343 1.02232 -3.78538 0
M  V30 3134 H 318.833 2.00493 -3.66323 0
M  V30 3135 N 319.27 1.56325 -0.20005 0
M  V30 3136 C 320.495 2.02548 0.44597 0
M  V30 3137 C 320.92 1.07922 1.5406 0
M  V30 3138 O 320.278 0.0635775 1.81188 0
M  V30 3139 C 320.326 3.47175 0.974761 0
M  V30 3140 O 319.43 3.55671 2.08739 0
M  V30 3141 H 318.771 0.655862 0.103638 0
M  V30 3142 H 321.301 2.02201 -0.312381 0
M  V30 3143 H 321.311 3.87067 1.2901 0
M  V30 3144 H 319.986 4.15538 0.17347 0
M  V30 3145 H 318.563 3.27657 1.78032 0
M  V30 3146 N 320.748 -0.0735177 1.57428 0
M  V30 3147 C 321.997 -0.771809 1.86349 0
M  V30 3148 C 322.31 -1.78828 0.792452 0
M  V30 3149 O 323.516 -2.53602 0.96945 0
M  V30 3150 C 321.972 -1.42358 3.30548 0
M  V30 3151 C 321.58 -0.445761 4.45777 0
M  V30 3152 C 323.324 -2.10434 3.6867 0
M  V30 3153 C 321.231 -1.10335 5.81016 0
M  V30 3154 H 320.161 -0.291999 0.695164 0
M  V30 3155 H 322.812 -0.0250749 1.83483 0
M  V30 3156 H 321.194 -2.21852 3.28021 0
M  V30 3157 H 322.368 0.319239 4.59693 0
M  V30 3158 H 320.683 0.130457 4.16196 0
M  V30 3159 H 323.28 -2.60405 4.67004 0
M  V30 3160 H 323.623 -2.90298 2.98383 0
M  V30 3161 H 324.156 -1.37773 3.7318 0
M  V30 3162 H 320.895 -0.345061 6.54591 0
M  V30 3163 H 320.415 -1.83925 5.70904 0
M  V30 3164 H 322.094 -1.62367 6.26295 0
M  V30 3165 N 322.226 -1.5378 -0.344866 0
M  V30 3166 C 323.156 -1.84662 -1.42906 0
M  V30 3167 C 324.137 -0.701648 -1.54955 0
M  V30 3168 O 325.322 -0.953438 -1.69184 0
M  V30 3169 C 322.452 -2.05503 -2.79974 0
M  V30 3170 C 321.406 -3.21318 -2.82734 0
M  V30 3171 C 320.732 -3.2749 -4.22675 0
M  V30 3172 C 322.032 -4.59456 -2.48389 0
M  V30 3173 H 323.726 -2.75461 -1.17311 0
M  V30 3174 H 321.272 -1.32542 -0.562896 0
M  V30 3175 H 323.225 -2.25691 -3.55867 0
M  V30 3176 H 321.949 -1.11434 -3.07002 0
M  V30 3177 H 320.608 -3.00984 -2.09294 0
M  V30 3178 H 320.256 -2.31019 -4.4681 0
M  V30 3179 H 319.956 -4.05316 -4.25433 0
M  V30 3180 H 321.48 -3.49887 -5.00412 0
M  V30 3181 H 322.894 -4.79667 -3.13995 0
M  V30 3182 H 321.291 -5.39675 -2.62432 0
M  V30 3183 H 322.361 -4.63155 -1.4358 0
M  V30 3184 N 323.704 0.605807 -1.45491 0
M  V30 3185 C 324.929 1.39625 -1.53361 0
M  V30 3186 C 325.354 1.87351 -0.167645 0
M  V30 3187 O 324.712 1.60243 0.848051 0
M  V30 3188 C 324.76 2.57559 -2.5238 0
M  V30 3189 O 323.864 3.58248 -2.04285 0
M  V30 3190 H 323.205 0.416771 -0.516912 0
M  V30 3191 H 325.735 0.737103 -1.90861 0
M  V30 3192 H 325.745 3.0478 -2.71244 0
M  V30 3193 H 324.42 2.22171 -3.51586 0
M  V30 3194 H 322.997 3.17664 -1.95305 0
M  V30 3195 N 325.182 1.32811 0.848464 0
M  V30 3196 C 326.129 1.22265 1.95755 0
M  V30 3197 C 327.099 0.103413 1.65778 0
M  V30 3198 O 328.284 0.280033 1.88734 0
M  V30 3199 C 325.424 0.958014 3.31536 0
M  V30 3200 C 324.537 2.16262 3.73971 0
M  V30 3201 C 323.672 1.83295 4.98575 0
M  V30 3202 C 322.711 3.00041 5.33518 0
M  V30 3203 N 321.848 2.67125 6.49299 0
M  V30 3204 H 326.688 2.17128 2.04107 0
M  V30 3205 H 324.225 1.07982 0.998913 0
M  V30 3206 H 326.183 0.785052 4.09747 0
M  V30 3207 H 324.813 0.046159 3.22767 0
M  V30 3208 H 323.865 2.44565 2.91362 0
M  V30 3209 H 325.177 3.03572 3.95785 0
M  V30 3210 H 324.331 1.62586 5.84509 0
M  V30 3211 H 323.07 0.932078 4.7871 0
M  V30 3212 H 322.075 3.21374 4.46093 0
M  V30 3213 H 323.3 3.90869 5.55336 0
M  V30 3214 H 321.246 1.79586 6.3094 0
M  V30 3215 H 321.163 3.47965 6.71161 0
M  V30 3216 H 322.431 2.49861 7.3837 0
M  V30 3217 N 326.66 -1.06551 1.16123 0
M  V30 3218 C 327.607 -2.13961 0.865414 0
M  V30 3219 C 328.577 -1.65066 -0.185055 0
M  V30 3220 O 329.762 -1.90732 -0.05083 0
M  V30 3221 C 326.902 -3.43113 0.369776 0
M  V30 3222 C 326.015 -4.05756 1.48276 0
M  V30 3223 C 325.15 -5.22773 0.942414 0
M  V30 3224 C 324.189 -5.77395 2.03179 0
M  V30 3225 N 323.326 -6.85731 1.50721 0
M  V30 3226 H 328.166 -2.38605 1.78527 0
M  V30 3227 H 325.703 -1.17072 0.890646 0
M  V30 3228 H 327.661 -4.17151 0.0640643 0
M  V30 3229 H 326.291 -3.18695 -0.513143 0
M  V30 3230 H 325.343 -3.29292 1.9045 0
M  V30 3231 H 326.655 -4.42351 2.30493 0
M  V30 3232 H 325.809 -6.03827 0.589729 0
M  V30 3233 H 324.548 -4.87618 0.0895191 0
M  V30 3234 H 323.553 -4.94981 2.3932 0
M  V30 3235 H 324.778 -6.14603 2.8886 0
M  V30 3236 H 322.724 -6.52499 0.676811 0
M  V30 3237 H 322.641 -7.21254 2.26557 0
M  V30 3238 H 323.909 -7.7047 1.18303 0
M  V30 3239 N 328.138 -0.959301 -1.25041 0
M  V30 3240 C 329.068 -0.501388 -2.28053 0
M  V30 3241 C 330.049 0.454673 -1.63911 0
M  V30 3242 O 331.234 0.352618 -1.90972 0
M  V30 3243 C 328.364 0.217224 -3.4662 0
M  V30 3244 C 327.318 -0.654034 -4.22973 0
M  V30 3245 C 326.644 0.195589 -5.34342 0
M  V30 3246 C 327.944 -1.93447 -4.85155 0
M  V30 3247 H 329.638 -1.36238 -2.66608 0
M  V30 3248 H 327.184 -0.656534 -1.28163 0
M  V30 3249 H 329.137 0.548732 -4.17812 0
M  V30 3250 H 327.861 1.1125 -3.07068 0
M  V30 3251 H 326.52 -0.968693 -3.5357 0
M  V30 3252 H 326.168 1.09076 -4.91031 0
M  V30 3253 H 325.868 -0.384091 -5.86343 0
M  V30 3254 H 327.392 0.521958 -6.08365 0
M  V30 3255 H 328.806 -1.66908 -5.48466 0
M  V30 3256 H 327.203 -2.46018 -5.47353 0
M  V30 3257 H 328.273 -2.63466 -4.07079 0
M  V30 3258 N 329.616 1.39756 -0.72842 0
M  V30 3259 C 330.862 2.00942 -0.273892 0
M  V30 3260 C 331.195 1.57656 1.13394 0
M  V30 3261 O 330.47 0.802434 1.77176 0
M  V30 3262 C 330.753 3.58211 -0.368346 0
M  V30 3263 C 330.606 4.11534 -1.81548 0
M  V30 3264 C 331.925 4.39372 0.253054 0
M  V30 3265 H 329.044 0.730047 -0.100996 0
M  V30 3266 H 331.686 1.66056 -0.923337 0
M  V30 3267 H 329.836 3.88061 0.184588 0
M  V30 3268 H 331.508 3.92431 -2.42478 0
M  V30 3269 H 329.751 3.65341 -2.33898 0
M  V30 3270 H 330.422 5.20682 -1.83288 0
M  V30 3271 H 332.898 4.15527 -0.218224 0
M  V30 3272 H 331.774 5.48677 0.156585 0
M  V30 3273 H 332.035 4.21358 1.33826 0
M  V30 3274 N 331.094 0.475555 1.50254 0
M  V30 3275 C 332.004 -0.321501 2.32387 0
M  V30 3276 C 333.02 -0.991755 1.42969 0
M  V30 3277 O 334.196 -0.978747 1.76018 0
M  V30 3278 C 331.261 -1.38667 3.17762 0
M  V30 3279 C 330.322 -0.732538 4.23004 0
M  V30 3280 C 329.555 -1.74695 5.04299 0
M  V30 3281 O 329.778 -2.97399 4.86734 0
M  V30 3282 O 328.712 -1.31631 5.8733 0
M  V30 3283 H 332.538 0.350071 3.01676 0
M  V30 3284 H 330.123 0.237321 1.47503 0
M  V30 3285 H 332.005 -2.00354 3.70724 0
M  V30 3286 H 330.68 -2.04163 2.51196 0
M  V30 3287 H 329.587 -0.0765902 3.74022 0
M  V30 3288 H 330.92 -0.120452 4.92053 0
M  V30 3289 N 332.573 -1.56217 0.208337 0
M  V30 3290 C 333.821 -1.97558 -0.426076 0
M  V30 3291 C 334.142 -1.09683 -1.61229 0
M  V30 3292 O 333.412 -0.170956 -1.95153 0
M  V30 3293 H 331.992 -0.729575 -0.160405 0
M  V30 3294 H 334.654 -1.92606 0.298155 0
M  V30 3295 H 333.75 -3.02672 -0.761312 0
M  V30 3296 N 334.051 0.0651679 -1.57465 0
M  V30 3297 C 334.981 1.07693 -2.07182 0
M  V30 3298 C 335.962 1.39962 -0.966673 0
M  V30 3299 O 337.147 1.49475 -1.2398 0
M  V30 3300 C 334.277 2.3885 -2.52127 0
M  V30 3301 C 333.231 2.20917 -3.66579 0
M  V30 3302 C 332.557 3.57515 -3.97601 0
M  V30 3303 C 333.857 1.62493 -4.9638 0
M  V30 3304 H 335.551 0.663199 -2.91962 0
M  V30 3305 H 333.097 0.317569 -1.40455 0
M  V30 3306 H 335.05 3.09928 -2.85522 0
M  V30 3307 H 333.774 2.82215 -1.64384 0
M  V30 3308 H 332.433 1.52279 -3.33477 0
M  V30 3309 H 332.081 3.98463 -3.06979 0
M  V30 3310 H 331.781 3.46353 -4.74672 0
M  V30 3311 H 333.305 4.30013 -4.33499 0
M  V30 3312 H 334.719 2.23445 -5.27963 0
M  V30 3313 H 333.116 1.62009 -5.77818 0
M  V30 3314 H 334.186 0.587041 -4.81333 0
M  V30 3315 N 335.529 1.53961 0.336706 0
M  V30 3316 C 336.754 1.75797 1.10046 0
M  V30 3317 C 337.179 0.498985 1.81361 0
M  V30 3318 O 336.537 -0.548769 1.72795 0
M  V30 3319 C 336.585 2.94257 2.08436 0
M  V30 3320 O 335.689 2.64883 3.16087 0
M  V30 3321 H 335.03 0.582936 0.317934 0
M  V30 3322 H 337.56 2.00945 0.38501 0
M  V30 3323 H 337.57 3.21237 2.51537 0
M  V30 3324 H 336.245 3.85564 1.55927 0
M  V30 3325 H 334.822 2.48812 2.77753 0
M  V30 3326 N 337.007 -0.598083 1.45811 0
M  V30 3327 C 337.97 -1.69018 1.54808 0
M  V30 3328 C 338.97 -1.55037 0.426652 0
M  V30 3329 O 340.16 -1.59932 0.690456 0
M  V30 3330 C 337.292 -3.0835 1.45371 0
M  V30 3331 H 338.485 -1.62403 2.52121 0
M  V30 3332 H 336.038 -0.814626 1.33392 0
M  V30 3333 H 336.773 -3.20534 0.492793 0
M  V30 3334 H 336.558 -3.19907 2.26721 0
M  V30 3335 H 338.048 -3.8788 1.54721 0
M  V30 3336 N 338.485 -1.33259 -0.841409 0
M  V30 3337 C 339.415 -1.25926 -1.96634 0
M  V30 3338 C 340.396 -0.140349 -1.6952 0
M  V30 3339 O 341.581 -0.329707 -1.91381 0
M  V30 3340 C 338.711 -0.99512 -3.32738 0
M  V30 3341 C 337.665 -2.0767 -3.74242 0
M  V30 3342 C 336.991 -1.66474 -5.08125 0
M  V30 3343 C 338.291 -3.49318 -3.88297 0
M  V30 3344 H 339.985 -2.20046 -2.03027 0
M  V30 3345 H 337.531 -1.05931 -0.975425 0
M  V30 3346 H 339.484 -0.930323 -4.11002 0
M  V30 3347 H 338.208 -0.0183004 -3.26595 0
M  V30 3348 H 336.867 -2.13187 -2.98239 0
M  V30 3349 H 336.515 -0.675012 -4.9845 0
M  V30 3350 H 336.215 -2.3885 -5.36865 0
M  V30 3351 H 337.739 -1.61455 -5.88867 0
M  V30 3352 H 339.153 -3.46316 -4.56879 0
M  V30 3353 H 337.55 -4.20158 -4.28471 0
M  V30 3354 H 338.62 -3.8801 -2.9082 0
M  V30 3355 N 339.963 1.05934 -1.16686 0
M  V30 3356 C 341.209 1.79065 -0.95203 0
M  V30 3357 C 341.542 1.87147 0.518629 0
M  V30 3358 O 340.817 1.36574 1.38484 0
M  V30 3359 C 341.1 3.23359 -1.58464 0
M  V30 3360 C 340.953 3.23336 -3.12689 0
M  V30 3361 C 342.272 4.21004 -1.28232 0
M  V30 3362 H 339.391 0.65005 -0.34728 0
M  V30 3363 H 342.033 1.23868 -1.44072 0
M  V30 3364 H 340.183 3.70493 -1.16908 0
M  V30 3365 H 341.855 2.84336 -3.6325 0
M  V30 3366 H 340.098 2.61886 -3.4583 0
M  V30 3367 H 340.769 4.25144 -3.52075 0
M  V30 3368 H 343.245 3.8233 -1.64203 0
M  V30 3369 H 342.121 5.20225 -1.75092 0
M  V30 3370 H 342.382 4.41639 -0.201791 0
M  V30 3371 N 341.441 0.965919 1.2453 0
M  V30 3372 C 342.687 0.62776 1.92839 0
M  V30 3373 C 343.02 -0.834694 1.75347 0
M  V30 3374 O 342.295 -1.60031 1.10546 0
M  V30 3375 C 342.578 1.00109 3.45905 0
M  V30 3376 C 342.431 2.52011 3.72573 0
M  V30 3377 C 343.75 0.53435 4.36844 0
M  V30 3378 H 340.869 0.229537 0.700344 0
M  V30 3379 H 343.511 1.2046 1.46933 0
M  V30 3380 H 341.661 0.510238 3.85135 0
M  V30 3381 H 343.333 3.08559 3.42912 0
M  V30 3382 H 341.576 2.95287 3.17786 0
M  V30 3383 H 342.247 2.73183 4.79661 0
M  V30 3384 H 344.723 0.955565 4.04979 0
M  V30 3385 H 343.599 0.824152 5.42678 0
M  V30 3386 H 343.86 -0.565589 4.38467 0
M  V30 3387 N 342.919 -1.39368 0.735821 0
M  V30 3388 C 344.196 -1.94465 0.210395 0
M  V30 3389 C 344.576 -1.67254 -1.28799 0
M  V30 3390 O 343.924 -1.00123 -2.05396 0
M  V30 3391 C 344.134 -3.4472 0.544897 0
M  V30 3392 C 345.482 -4.21708 0.494689 0
M  V30 3393 O 346.506 -3.52922 0.482136 0
M  V30 3394 O 345.365 -5.44299 0.489947 0
M  V30 3395 H 342.459 -0.826096 0.0386666 0
M  V30 3396 H 345.005 -1.48863 0.814735 0
M  V30 3397 H 343.777 -3.57963 1.58045 0
M  V30 3398 H 343.4 -3.97502 -0.08837 0
M  V30 3399 N 344.397 -0.483516 -1.5 0
M  V30 3400 C 345.643 0.0672592 -2.02688 0
M  V30 3401 C 345.976 1.38247 -1.36387 0
M  V30 3402 O 345.251 1.88131 -0.493675 0
M  V30 3403 C 345.534 0.238109 -3.59312 0
M  V30 3404 C 345.387 -1.099 -4.36168 0
M  V30 3405 C 346.706 0.986916 -4.28892 0
M  V30 3406 H 343.825 0.0229696 -0.736642 0
M  V30 3407 H 346.467 -0.631527 -1.79197 0
M  V30 3408 H 344.617 0.8333 -3.79458 0
M  V30 3409 H 346.289 -1.73172 -4.27562 0
M  V30 3410 H 344.532 -1.69261 -3.99416 0
M  V30 3411 H 345.203 -0.932954 -5.44059 0
M  V30 3412 H 347.679 0.482302 -4.13295 0
M  V30 3413 H 346.555 1.07527 -5.38265 0
M  V30 3414 H 346.816 2.0265 -3.92919 0
M  V30 3415 N 345.875 1.56104 -0.216619 0
M  V30 3416 C 346.822 2.2007 0.695531 0
M  V30 3417 C 347.792 1.15471 1.19397 0
M  V30 3418 O 348.977 1.43807 1.25396 0
M  V30 3419 C 346.117 2.88073 1.90021 0
M  V30 3420 C 345.23 4.07253 1.44113 0
M  V30 3421 C 344.365 4.63052 2.603 0
M  V30 3422 C 343.404 5.74545 2.11103 0
M  V30 3423 N 342.541 6.24656 3.20545 0
M  V30 3424 H 347.381 2.97655 0.143327 0
M  V30 3425 H 344.918 1.46982 0.0589934 0
M  V30 3426 H 346.876 3.25681 2.60745 0
M  V30 3427 H 345.506 2.13015 2.42538 0
M  V30 3428 H 344.558 3.75164 0.628999 0
M  V30 3429 H 345.87 4.8783 1.04036 0
M  V30 3430 H 345.024 5.03078 3.39113 0
M  V30 3431 H 343.763 3.81628 3.03663 0
M  V30 3432 H 342.768 5.34027 1.3075 0
M  V30 3433 H 343.993 6.57801 1.68746 0
M  V30 3434 H 341.939 5.46148 3.63399 0
M  V30 3435 H 341.856 7.00343 2.84704 0
M  V30 3436 H 343.124 6.69338 3.99508 0
M  V30 3437 N 347.353 -0.0568162 1.57498 0
M  V30 3438 C 348.6 -0.753104 1.87975 0
M  V30 3439 C 348.928 -1.76815 0.81035 0
M  V30 3440 O 348.183 -1.94756 -0.19199 0
M  V30 3441 C 348.482 -1.48359 3.25153 0
M  V30 3442 C 348.148 -0.60713 4.46794 0
M  V30 3443 C 346.81 -0.365642 4.79809 0
M  V30 3444 C 349.162 -0.000305978 5.212 0
M  V30 3445 C 346.49 0.491905 5.84634 0
M  V30 3446 C 348.842 0.844781 6.26934 0
M  V30 3447 C 347.506 1.096 6.58441 0
M  V30 3448 H 346.776 -0.27558 0.687849 0
M  V30 3449 H 349.423 -0.0135173 1.91495 0
M  V30 3450 H 347.728 -2.29577 3.17492 0
M  V30 3451 H 349.425 -2.02739 3.45974 0
M  V30 3452 H 346.015 -0.805487 4.20963 0
M  V30 3453 H 350.199 -0.173961 4.95995 0
M  V30 3454 H 345.455 0.695131 6.07436 0
M  V30 3455 H 349.629 1.32165 6.83744 0
M  V30 3456 H 347.256 1.76224 7.39492 0
M  V30 3457 N 348.832 -1.54138 -0.328536 0
M  V30 3458 C 350.08 -1.71765 -1.06496 0
M  V30 3459 C 350.401 -0.49149 -1.88704 0
M  V30 3460 O 349.671 0.494539 -1.89555 0
M  V30 3461 H 348.251 -0.633295 -0.396164 0
M  V30 3462 H 350.913 -1.91429 -0.366176 0
M  V30 3463 H 350.009 -2.5951 -1.73381 0
M  V30 3464 N 350.31 0.590341 -1.46126 0
M  V30 3465 C 351.558 1.34616 -1.50742 0
M  V30 3466 C 351.879 1.94363 -0.157486 0
M  V30 3467 O 351.149 1.78136 0.815136 0
M  V30 3468 H 349.729 0.499789 -0.555175 0
M  V30 3469 H 352.391 0.691953 -1.82203 0
M  V30 3470 H 351.487 2.15678 -2.25587 0
M  V30 3471 N 351.788 1.33704 0.83433 0
M  V30 3472 C 352.751 1.24244 1.92603 0
M  V30 3473 C 353.751 0.160383 1.59998 0
M  V30 3474 O 354.941 0.412228 1.69252 0
M  V30 3475 C 352.073 0.91555 3.28376 0
M  V30 3476 H 353.266 2.21287 2.02416 0
M  V30 3477 H 350.819 1.17827 1.02696 0
M  V30 3478 H 351.554 -0.0521886 3.24258 0
M  V30 3479 H 351.339 1.69811 3.53422 0
M  V30 3480 H 352.829 0.874231 4.08347 0
M  V30 3481 N 353.266 -1.05314 1.17247 0
M  V30 3482 C 354.229 -2.112 0.890357 0
M  V30 3483 C 355.229 -1.60359 -0.118943 0
M  V30 3484 O 356.419 -1.73833 0.113086 0
M  V30 3485 C 353.551 -3.39266 0.333422 0
M  V30 3486 H 354.744 -2.37659 1.82916 0
M  V30 3487 H 352.297 -1.21538 0.982758 0
M  V30 3488 H 353.032 -3.18462 -0.612587 0
M  V30 3489 H 352.817 -3.77477 1.06082 0
M  V30 3490 H 354.307 -4.17315 0.154322 0
M  V30 3491 N 354.744 -0.972509 -1.24016 0
M  V30 3492 C 355.99 -0.637978 -1.92504 0
M  V30 3493 C 356.323 0.825383 -1.75787 0
M  V30 3494 O 355.598 1.59442 -1.11393 0
M  V30 3495 C 355.881 -1.01942 -3.45369 0
M  V30 3496 C 355.734 -2.53983 -3.71231 0
M  V30 3497 C 357.053 -0.55751 -4.36555 0
M  V30 3498 H 354.172 -0.233248 -0.699117 0
M  V30 3499 H 356.814 -1.21238 -1.46292 0
M  V30 3500 H 354.964 -0.530656 -3.84859 0
M  V30 3501 H 356.636 -3.10374 -3.41271 0
M  V30 3502 H 354.879 -2.96968 -3.16216 0
M  V30 3503 H 355.55 -2.75723 -4.78206 0
M  V30 3504 H 358.026 -0.977029 -4.04467 0
M  V30 3505 H 356.902 -0.85292 -5.42233 0
M  V30 3506 H 357.163 0.542328 -4.38761 0
M  V30 3507 N 356.222 1.38976 -0.743202 0
M  V30 3508 C 357.469 2.00343 -0.294752 0
M  V30 3509 C 357.797 1.58983 1.12047 0
M  V30 3510 O 357.052 0.813809 1.77977 0
M  V30 3511 C 357.351 3.55647 -0.353517 0
M  V30 3512 C 357.017 4.16685 -1.72292 0
M  V30 3513 C 355.679 4.3307 -2.09771 0
M  V30 3514 C 358.031 4.50464 -2.62168 0
M  V30 3515 C 355.359 4.80526 -3.36618 0
M  V30 3516 C 357.711 4.99332 -3.88395 0
M  V30 3517 C 356.375 5.13924 -4.25956 0
M  V30 3518 H 355.645 0.733108 -0.107857 0
M  V30 3519 H 358.292 1.6618 -0.951651 0
M  V30 3520 H 356.597 3.89884 0.386954 0
M  V30 3521 H 358.294 4.00998 0.0117269 0
M  V30 3522 H 354.884 4.04339 -1.42155 0
M  V30 3523 H 359.068 4.37416 -2.3448 0
M  V30 3524 H 354.324 4.90008 -3.65653 0
M  V30 3525 H 358.498 5.2444 -4.58187 0
M  V30 3526 H 356.125 5.50457 -5.2431 0
M  V30 3527 N 357.7 0.491464 1.49741 0
M  V30 3528 C 359.111 0.0413169 1.86654 0
M  V30 3529 C 359.462 -1.36985 1.40462 0
M  V30 3530 O 358.587 -2.01917 0.778354 0
M  V30 3531 C 359.182 0.0682023 3.38731 0
M  V30 3532 C 357.741 -0.32656 3.74981 0
M  V30 3533 C 356.888 0.444888 2.73708 0
M  V30 3534 H 359.839 0.704733 1.42194 0
M  V30 3535 H 359.86 -0.729322 3.73445 0
M  V30 3536 H 359.372 1.09539 3.72321 0
M  V30 3537 H 357.473 -1.35734 3.46997 0
M  V30 3538 H 357.586 -0.013741 4.79098 0
M  V30 3539 H 355.95 -0.104062 2.54487 0
M  V30 3540 H 356.733 1.47197 3.10142 0
M  V30 3541 N 359.178 -1.55987 0.224894 0
M  V30 3542 C 360.126 -2.21808 -0.700283 0
M  V30 3543 C 361.12 -1.19854 -1.19714 0
M  V30 3544 O 362.326 -1.37925 -1.15658 0
M  V30 3545 H 358.701 -0.711226 -0.244258 0
M  V30 3546 H 360.672 -2.98152 -0.121749 0
M  V30 3547 C 359.421 -2.91444 -1.8962 0
M  V30 3548 H 358.744 -3.69655 -1.52299 0
M  V30 3549 H 360.184 -3.40894 -2.52125 0
M  V30 3550 C 358.643 -1.94098 -2.75368 0
M  V30 3551 O 359.173 -1.46004 -3.74227 0
M  V30 3552 N 357.379 -1.61675 -2.41474 0
M  V30 3553 H 356.926 -2.00979 -1.61137 0
M  V30 3554 H 356.884 -0.968036 -2.99126 0
M  V30 3555 N 360.656 0.0484629 -1.57525 0
M  V30 3556 C 361.588 1.08222 -2.02041 0
M  V30 3557 C 362.601 1.33621 -0.930012 0
M  V30 3558 O 363.79 1.3145 -1.20761 0
M  V30 3559 C 360.89 2.42818 -2.36416 0
M  V30 3560 C 360.063 2.37049 -3.67596 0
M  V30 3561 C 359.122 3.53937 -3.89378 0
M  V30 3562 O 358.148 3.34308 -4.60681 0
M  V30 3563 N 359.35 4.75126 -3.3352 0
M  V30 3564 H 362.115 0.702946 -2.9134 0
M  V30 3565 H 359.676 0.236745 -1.6016 0
M  V30 3566 H 361.668 3.197 -2.48141 0
M  V30 3567 H 360.238 2.72661 -1.52888 0
M  V30 3568 H 359.458 1.45395 -3.66407 0
M  V30 3569 H 360.746 2.30318 -4.53686 0
M  V30 3570 H 360.144 4.93976 -2.75688 0
M  V30 3571 H 358.701 5.49439 -3.50656 0
M  V30 3572 N 362.134 1.5431 0.320358 0
M  V30 3573 C 363.044 1.86946 1.41734 0
M  V30 3574 C 364.06 0.761689 1.56443 0
M  V30 3575 O 365.236 1.05629 1.71477 0
M  V30 3576 C 362.301 2.09293 2.76401 0
M  V30 3577 C 361.362 3.33082 2.70841 0
M  V30 3578 C 360.595 3.54353 3.99086 0
M  V30 3579 O 360.818 2.79002 4.97508 0
M  V30 3580 O 359.752 4.47838 4.0215 0
M  V30 3581 H 363.578 2.80232 1.17062 0
M  V30 3582 H 361.163 1.40255 0.514673 0
M  V30 3583 H 363.045 2.25303 3.56113 0
M  V30 3584 H 361.72 1.19194 3.00956 0
M  V30 3585 H 360.627 3.22454 1.89668 0
M  V30 3586 H 361.96 4.23249 2.5124 0
M  V30 3587 N 363.613 -0.582584 1.46437 0
M  V30 3588 C 364.545 -1.70618 1.53043 0
M  V30 3589 C 365.558 -1.57322 0.418769 0
M  V30 3590 O 366.747 -1.64744 0.687136 0
M  V30 3591 C 363.847 -3.08869 1.39474 0
M  V30 3592 C 363.02 -3.48166 2.64762 0
M  V30 3593 C 362.079 -4.65478 2.4539 0
M  V30 3594 O 361.105 -4.71333 3.19114 0
M  V30 3595 N 362.307 -5.60365 1.51564 0
M  V30 3596 H 365.072 -1.65405 2.49923 0
M  V30 3597 H 362.633 -0.768567 1.42494 0
M  V30 3598 H 364.625 -3.85143 1.24287 0
M  V30 3599 H 363.195 -3.08449 0.507758 0
M  V30 3600 H 362.415 -2.61598 2.9489 0
M  V30 3601 H 363.703 -3.71188 3.4799 0
M  V30 3602 H 363.101 -5.5837 0.907705 0
M  V30 3603 H 361.658 -6.36068 1.4234 0
M  V30 3604 N 365.091 -1.34144 -0.827227 0
M  V30 3605 C 366.054 -1.25264 -1.91942 0
M  V30 3606 C 367.054 -0.168866 -1.59911 0
M  V30 3607 O 368.244 -0.421198 -1.69031 0
M  V30 3608 C 365.376 -0.932952 -3.27885 0
M  V30 3609 H 366.569 -2.22357 -2.0124 0
M  V30 3610 H 364.122 -1.1837 -1.0207 0
M  V30 3611 H 364.857 0.0349917 -3.24281 0
M  V30 3612 H 364.642 -1.71682 -3.52516 0
M  V30 3613 H 366.132 -0.895874 -4.07877 0
M  V30 3614 N 366.569 1.04691 -1.17803 0
M  V30 3615 C 367.985 1.29963 -0.926379 0
M  V30 3616 C 368.185 1.97251 0.411635 0
M  V30 3617 O 367.241 2.24922 1.14744 0
M  V30 3618 C 368.554 2.16447 -2.08737 0
M  V30 3619 C 370.102 2.29814 -2.12496 0
M  V30 3620 C 370.577 3.19661 -3.27995 0
M  V30 3621 N 372.068 3.27247 -3.27816 0
M  V30 3622 C 372.803 3.96906 -4.13827 0
M  V30 3623 N 372.299 4.6895 -5.09959 0
M  V30 3624 N 374.092 3.93122 -4.01761 0
M  V30 3625 H 366.243 0.594182 -2.0392 0
M  V30 3626 H 368.506 0.324649 -0.890678 0
M  V30 3627 H 368.212 1.74304 -3.05469 0
M  V30 3628 H 368.086 3.17103 -2.04268 0
M  V30 3629 H 370.473 2.71196 -1.16347 0
M  V30 3630 H 370.554 1.2877 -2.21025 0
M  V30 3631 H 370.198 2.78991 -4.24413 0
M  V30 3632 H 370.128 4.20722 -3.16703 0
M  V30 3633 H 372.619 2.75921 -2.58217 0
M  V30 3634 H 372.932 5.19679 -5.71974 0
M  V30 3635 H 371.277 4.67875 -5.13924 0
M  V30 3636 H 374.468 3.35967 -3.2595 0
M  V30 3637 H 374.641 4.47139 -4.6901 0
M  V30 3638 N 368.047 0.979072 1.23499 0
M  V30 3639 C 368.957 0.526431 2.28617 0
M  V30 3640 C 369.973 -0.418126 1.68901 0
M  V30 3641 O 371.149 -0.288372 1.99325 0
M  V30 3642 C 368.214 -0.165235 3.46306 0
M  V30 3643 C 367.275 0.82056 4.21385 0
M  V30 3644 C 366.508 0.161807 5.33455 0
M  V30 3645 O 366.731 -1.04742 5.60701 0
M  V30 3646 O 365.665 0.859708 5.95729 0
M  V30 3647 H 369.491 1.4006 2.69475 0
M  V30 3648 H 367.076 0.746643 1.29405 0
M  V30 3649 H 368.958 -0.553287 4.17752 0
M  V30 3650 H 367.633 -1.01419 3.07402 0
M  V30 3651 H 366.54 1.25929 3.52268 0
M  V30 3652 H 367.873 1.63828 4.64135 0
M  V30 3653 N 369.525 -1.3858 0.750561 0
M  V30 3654 C 370.455 -2.33102 0.136237 0
M  V30 3655 C 371.436 -1.54713 -0.706965 0
M  V30 3656 O 372.621 -1.83043 -0.648769 0
M  V30 3657 C 369.751 -3.38882 -0.760017 0
M  V30 3658 C 368.705 -4.27995 -0.0197785 0
M  V30 3659 C 368.031 -5.24605 -1.03408 0
M  V30 3660 C 369.331 -5.09554 1.14684 0
M  V30 3661 H 371.025 -2.84726 0.925822 0
M  V30 3662 H 368.571 -1.36898 0.446654 0
M  V30 3663 H 370.524 -4.0397 -1.19943 0
M  V30 3664 H 369.248 -2.85734 -1.58189 0
M  V30 3665 H 367.907 -3.64409 0.400184 0
M  V30 3666 H 367.555 -4.67746 -1.84994 0
M  V30 3667 H 367.255 -5.85081 -0.543464 0
M  V30 3668 H 368.779 -5.9257 -1.47288 0
M  V30 3669 H 370.193 -5.67899 0.785118 0
M  V30 3670 H 368.59 -5.7925 1.56812 0
M  V30 3671 H 369.66 -4.4347 1.96118 0
M  V30 3672 N 371.003 -0.499398 -1.49478 0
M  V30 3673 C 371.966 0.268838 -2.27618 0
M  V30 3674 C 372.966 0.895383 -1.33565 0
M  V30 3675 O 374.156 0.760164 -1.56739 0
M  V30 3676 C 371.288 1.38559 -3.11471 0
M  V30 3677 H 372.481 -0.416812 -2.96989 0
M  V30 3678 H 370.034 -0.254313 -1.54217 0
M  V30 3679 H 370.769 2.10544 -2.46661 0
M  V30 3680 H 370.554 0.941797 -3.80621 0
M  V30 3681 H 372.044 1.92678 -3.70493 0
M  V30 3682 N 372.481 1.55866 -0.233164 0
M  V30 3683 C 373.428 2.20796 0.67215 0
M  V30 3684 C 374.398 1.16731 1.18166 0
M  V30 3685 O 375.583 1.45129 1.23864 0
M  V30 3686 C 372.723 2.90072 1.86955 0
M  V30 3687 C 371.836 4.08759 1.39786 0
M  V30 3688 C 370.971 4.65787 2.55374 0
M  V30 3689 C 370.01 5.76752 2.04998 0
M  V30 3690 N 369.147 6.28021 3.13901 0
M  V30 3691 H 373.987 2.9779 0.111749 0
M  V30 3692 H 371.524 1.47036 0.0434007 0
M  V30 3693 H 373.482 3.28428 2.57276 0
M  V30 3694 H 372.112 2.15575 2.40265 0
M  V30 3695 H 371.164 3.7581 0.589173 0
M  V30 3696 H 372.476 4.88906 0.98856 0
M  V30 3697 H 371.63 5.06646 3.33758 0
M  V30 3698 H 370.369 3.84828 2.99598 0
M  V30 3699 H 369.374 5.35383 1.25079 0
M  V30 3700 H 370.599 6.59553 1.61759 0
M  V30 3701 H 368.545 5.49971 3.57586 0
M  V30 3702 H 368.462 7.03323 2.7726 0
M  V30 3703 H 369.73 6.73538 3.92386 0
M  V30 3704 N 373.959 -0.0401083 1.57549 0
M  V30 3705 C 375.187 -0.745196 1.93014 0
M  V30 3706 C 375.602 -1.6948 0.831984 0
M  V30 3707 O 374.959 -1.81482 -0.192463 0
M  V30 3708 C 375.01 -1.51176 3.28372 0
M  V30 3709 O 374.731 -0.600284 4.33968 0
M  V30 3710 C 376.232 -2.315 3.78051 0
M  V30 3711 H 373.452 -0.210088 0.637263 0
M  V30 3712 H 375.996 -0.000924689 2.045 0
M  V30 3713 H 374.151 -2.20801 3.18317 0
M  V30 3714 H 374.565 -1.13669 5.12035 0
M  V30 3715 H 376.039 -2.80697 4.75303 0
M  V30 3716 H 376.516 -3.12436 3.08675 0
M  V30 3717 H 377.122 -1.66971 3.91153 0
M  V30 3718 N 375.437 -1.54477 -0.31217 0
M  V30 3719 C 376.367 -1.87652 -1.38957 0
M  V30 3720 C 377.348 -0.734358 -1.53431 0
M  V30 3721 O 378.533 -0.98911 -1.67123 0
M  V30 3722 C 375.663 -2.11396 -2.75552 0
M  V30 3723 C 374.617 -3.27243 -2.75855 0
M  V30 3724 C 373.943 -3.36382 -4.15633 0
M  V30 3725 C 375.243 -4.64622 -2.38587 0
M  V30 3726 H 376.937 -2.77887 -1.11442 0
M  V30 3727 H 374.483 -1.33707 -0.534655 0
M  V30 3728 H 376.436 -2.33189 -3.51 0
M  V30 3729 H 375.16 -1.17921 -3.04569 0
M  V30 3730 H 373.819 -3.05356 -2.02863 0
M  V30 3731 H 373.467 -2.40445 -4.41809 0
M  V30 3732 H 373.167 -4.14249 -4.1674 0
M  V30 3733 H 374.691 -3.60422 -4.92877 0
M  V30 3734 H 376.105 -4.86219 -3.03749 0
M  V30 3735 H 374.502 -5.45121 -2.50925 0
M  V30 3736 H 375.572 -4.66097 -1.33723 0
M  V30 3737 N 376.915 0.57481 -1.46744 0
M  V30 3738 C 378.161 1.3347 -1.52688 0
M  V30 3739 C 378.494 1.93353 -0.181229 0
M  V30 3740 O 377.769 1.76912 0.808237 0
M  V30 3741 C 378.052 2.45811 -2.63152 0
M  V30 3742 C 377.905 1.90912 -4.07275 0
M  V30 3743 C 379.224 3.47822 -2.69644 0
M  V30 3744 H 376.343 0.483935 -0.555856 0
M  V30 3745 H 378.985 0.644968 -1.78718 0
M  V30 3746 H 377.135 3.04646 -2.41088 0
M  V30 3747 H 378.807 1.36473 -4.4065 0
M  V30 3748 H 377.05 1.21691 -4.16382 0
M  V30 3749 H 377.721 2.72042 -4.80309 0
M  V30 3750 H 380.197 2.9888 -2.895 0
M  V30 3751 H 379.073 4.23876 -3.48742 0
M  V30 3752 H 379.334 4.05555 -1.76005 0
M  V30 3753 N 378.394 1.34581 0.820102 0
M  V30 3754 C 379.642 1.26845 1.57336 0
M  V30 3755 C 379.963 -0.160667 1.94337 0
M  V30 3756 O 379.233 -1.09396 1.6251 0
M  V30 3757 H 377.813 0.466514 0.583415 0
M  V30 3758 H 380.475 1.68526 0.979027 0
M  V30 3759 H 379.571 1.87513 2.4949 0
M  V30 3760 N 379.872 -1.04064 1.18357 0
M  V30 3761 C 381.118 -1.77528 0.980397 0
M  V30 3762 C 381.451 -1.87948 -0.48879 0
M  V30 3763 O 380.726 -1.3876 -1.36293 0
M  V30 3764 C 381.009 -3.20797 1.63588 0
M  V30 3765 C 380.862 -3.1832 3.17793 0
M  V30 3766 C 382.181 -4.18911 1.34914 0
M  V30 3767 H 379.3 -0.644443 0.357578 0
M  V30 3768 H 381.942 -1.2156 1.46024 0
M  V30 3769 H 380.092 -3.68586 1.22788 0
M  V30 3770 H 381.764 -2.78521 3.67728 0
M  V30 3771 H 380.007 -2.56351 3.49952 0
M  V30 3772 H 380.678 -4.19489 3.58794 0
M  V30 3773 H 383.154 -3.7967 1.70265 0
M  V30 3774 H 382.03 -5.17374 1.83346 0
M  V30 3775 H 382.291 -4.41262 0.272027 0
M  V30 3776 N 381.35 -0.985608 -1.22978 0
M  V30 3777 C 382.598 -0.656087 -1.91154 0
M  V30 3778 C 382.919 0.813561 -1.77218 0
M  V30 3779 O 382.189 1.58244 -1.1548 0
M  V30 3780 H 380.769 -0.239674 -0.707506 0
M  V30 3781 H 383.431 -1.25054 -1.49491 0
M  V30 3782 H 382.527 -0.912253 -2.9847 0
M  V30 3783 N 382.828 1.3818 -0.7579 0
M  V30 3784 C 383.791 2.28764 -0.141286 0
M  V30 3785 C 384.791 1.47388 0.642907 0
M  V30 3786 O 385.981 1.67781 0.468536 0
M  V30 3787 C 383.113 3.31184 0.808069 0
M  V30 3788 H 384.306 2.848 -0.939633 0
M  V30 3789 H 381.859 1.47212 -0.525191 0
M  V30 3790 H 382.594 2.80247 1.63193 0
M  V30 3791 H 382.379 3.91314 0.248104 0
M  V30 3792 H 383.869 3.98909 1.23536 0
M  V30 3793 N 384.306 0.507319 1.49211 0
M  V30 3794 C 385.531 -0.033725 2.07373 0
M  V30 3795 C 385.956 -1.29485 1.36437 0
M  V30 3796 O 385.314 -1.76294 0.423087 0
M  V30 3797 C 385.362 -0.263945 3.59633 0
M  V30 3798 O 384.466 -1.33737 3.90113 0
M  V30 3799 H 383.807 0.0290331 0.663365 0
M  V30 3800 H 386.337 0.708749 1.91932 0
M  V30 3801 H 386.347 -0.493536 4.05004 0
M  V30 3802 H 385.022 0.657424 4.10671 0
M  V30 3803 H 383.599 -1.09224 3.56545 0
M  V30 3804 N 385.784 -1.5574 0.241426 0
M  V30 3805 C 386.714 -2.24133 -0.654722 0
M  V30 3806 C 387.695 -1.21974 -1.1856 0
M  V30 3807 O 388.88 -1.50612 -1.22595 0
M  V30 3808 C 386.01 -2.93659 -1.85423 0
M  V30 3809 C 384.964 -4.0246 -1.45636 0
M  V30 3810 C 384.29 -4.59383 -2.73626 0
M  V30 3811 C 385.59 -5.18468 -0.631506 0
M  V30 3812 H 387.284 -2.99281 -0.0844353 0
M  V30 3813 H 384.83 -1.43947 -0.0391707 0
M  V30 3814 H 386.783 -3.40203 -2.48676 0
M  V30 3815 H 385.507 -2.15991 -2.44981 0
M  V30 3816 H 384.166 -3.56676 -0.847202 0
M  V30 3817 H 383.814 -3.78422 -3.3137 0
M  V30 3818 H 383.514 -5.32826 -2.4773 0
M  V30 3819 H 385.038 -5.08658 -3.37786 0
M  V30 3820 H 386.452 -5.61272 -1.1682 0
M  V30 3821 H 384.849 -5.98266 -0.468831 0
M  V30 3822 H 385.919 -4.8358 0.357506 0
M  V30 3823 N 387.262 0.0317525 -1.57568 0
M  V30 3824 C 388.51 0.721676 -1.88776 0
M  V30 3825 C 388.831 1.76039 -0.838772 0
M  V30 3826 O 388.101 1.95482 0.127935 0
M  V30 3827 H 386.681 0.269534 -0.696678 0
M  V30 3828 H 389.343 -0.00165879 -1.949 0
M  V30 3829 H 388.439 1.21293 -2.87566 0
M  V30 3830 N 388.74 1.54641 0.303973 0
M  V30 3831 C 389.67 1.88386 1.3796 0
M  V30 3832 C 390.651 0.742485 1.5304 0
M  V30 3833 O 391.836 0.997959 1.66597 0
M  V30 3834 C 388.966 2.12854 2.74427 0
M  V30 3835 C 387.92 3.28702 2.74115 0
M  V30 3836 C 387.246 3.38582 4.13844 0
M  V30 3837 C 388.546 4.65881 2.3612 0
M  V30 3838 H 390.24 2.78474 1.09966 0
M  V30 3839 H 387.786 1.33988 0.527556 0
M  V30 3840 H 389.739 2.35047 3.49758 0
M  V30 3841 H 388.463 1.19535 3.03939 0
M  V30 3842 H 387.122 3.06428 2.0124 0
M  V30 3843 H 386.77 2.42784 4.40528 0
M  V30 3844 H 386.47 4.16453 4.14537 0
M  V30 3845 H 387.994 3.63031 4.90959 0
M  V30 3846 H 389.408 4.87823 3.01167 0
M  V30 3847 H 387.805 5.46444 2.48031 0
M  V30 3848 H 388.875 4.66799 1.3125 0
M  V30 3849 N 390.218 -0.567019 1.47046 0
M  V30 3850 C 391.634 -0.891975 1.32348 0
M  V30 3851 C 391.834 -1.99154 0.306616 0
M  V30 3852 O 390.89 -2.50883 -0.28532 0
M  V30 3853 C 392.203 -1.29449 2.7141 0
M  V30 3854 C 393.751 -1.40646 2.79621 0
M  V30 3855 C 394.226 -1.84257 4.19301 0
M  V30 3856 N 395.717 -1.91424 4.21795 0
M  V30 3857 C 396.452 -2.26476 5.26779 0
M  V30 3858 N 395.948 -2.60211 6.42077 0
M  V30 3859 N 397.741 -2.27166 5.14152 0
M  V30 3860 H 389.892 0.159074 2.11803 0
M  V30 3861 H 392.155 0.00849752 0.947962 0
M  V30 3862 H 391.861 -0.560448 3.47206 0
M  V30 3863 H 391.735 -2.25273 3.02542 0
M  V30 3864 H 394.122 -2.13133 2.04104 0
M  V30 3865 H 394.203 -0.430339 2.52154 0
M  V30 3866 H 393.847 -1.12343 4.95319 0
M  V30 3867 H 393.777 -2.82855 4.44185 0
M  V30 3868 H 396.268 -1.6778 3.38612 0
M  V30 3869 H 396.581 -2.85956 7.17948 0
M  V30 3870 H 394.926 -2.57813 6.45413 0
M  V30 3871 H 398.117 -2.00244 4.23107 0
M  V30 3872 H 398.29 -2.54154 5.96079 0
M  V30 3873 N 391.696 -1.35014 -0.812953 0
M  V30 3874 C 392.942 -1.2812 -1.57204 0
M  V30 3875 C 393.275 0.145869 -1.93651 0
M  V30 3876 O 392.55 1.0937 -1.60836 0
M  V30 3877 C 392.833 -2.18162 -2.86492 0
M  V30 3878 C 392.686 -3.69454 -2.56561 0
M  V30 3879 C 394.005 -2.07439 -3.88145 0
M  V30 3880 H 391.124 -0.466746 -0.570366 0
M  V30 3881 H 393.766 -1.65357 -0.935783 0
M  V30 3882 H 391.916 -1.86535 -3.40789 0
M  V30 3883 H 393.588 -4.11493 -2.08497 0
M  V30 3884 H 391.831 -3.9005 -1.89851 0
M  V30 3885 H 392.502 -4.27835 -3.48799 0
M  V30 3886 H 394.978 -2.35228 -3.4323 0
M  V30 3887 H 393.854 -2.7265 -4.76396 0
M  V30 3888 H 394.115 -1.05439 -4.29343 0
M  V30 3889 N 393.175 1.03435 -1.18907 0
M  V30 3890 C 394.138 2.09756 -0.923844 0
M  V30 3891 C 395.138 1.60528 0.093416 0
M  V30 3892 O 396.328 1.73631 -0.140727 0
M  V30 3893 C 393.46 3.38692 -0.387354 0
M  V30 3894 H 394.653 2.34719 -1.86674 0
M  V30 3895 H 392.206 1.19959 -1.00197 0
M  V30 3896 H 392.941 3.19396 0.561845 0
M  V30 3897 H 392.726 3.75742 -1.12074 0
M  V30 3898 H 394.216 4.17016 -0.220694 0
M  V30 3899 N 394.653 0.992116 1.22453 0
M  V30 3900 C 395.616 0.546883 2.2258 0
M  V30 3901 C 396.616 -0.369829 1.56489 0
M  V30 3902 O 397.806 -0.161896 1.73446 0
M  V30 3903 C 394.938 -0.204659 3.40285 0
M  V30 3904 H 396.131 1.43234 2.63484 0
M  V30 3905 H 393.684 0.779239 1.3549 0
M  V30 3906 H 394.419 -1.10614 3.04853 0
M  V30 3907 H 394.204 0.45354 3.89468 0
M  V30 3908 H 395.694 -0.504358 4.14543 0
M  V30 3909 N 396.131 -1.37776 0.765217 0
M  V30 3910 C 397.094 -2.28686 0.153416 0
M  V30 3911 C 398.094 -1.47727 -0.635081 0
M  V30 3912 O 399.284 -1.68027 -0.459632 0
M  V30 3913 C 396.416 -3.31608 -0.790495 0
M  V30 3914 H 397.609 -2.84297 0.954723 0
M  V30 3915 H 395.162 -1.46932 0.53299 0
M  V30 3916 H 395.897 -2.81109 -1.61705 0
M  V30 3917 H 395.682 -3.9144 -0.227348 0
M  V30 3918 H 397.172 -3.99559 -1.21419 0
M  V30 3919 N 397.609 -0.515225 -1.4894 0
M  V30 3920 C 398.539 0.244628 -2.32215 0
M  V30 3921 C 399.52 0.949136 -1.41157 0
M  V30 3922 O 400.705 0.937783 -1.70057 0
M  V30 3923 C 397.835 1.30096 -3.22013 0
M  V30 3924 C 396.789 0.715486 -4.21977 0
M  V30 3925 C 396.115 1.87339 -5.00808 0
M  V30 3926 C 397.415 -0.302982 -5.2142 0
M  V30 3927 H 399.109 -0.450501 -2.95991 0
M  V30 3928 H 396.655 -0.218098 -1.42339 0
M  V30 3929 H 398.608 1.84037 -3.79089 0
M  V30 3930 H 397.332 2.02547 -2.56207 0
M  V30 3931 H 395.991 0.197715 -3.66066 0
M  V30 3932 H 395.639 2.58592 -4.31438 0
M  V30 3933 H 395.339 1.48764 -5.68457 0
M  V30 3934 H 396.863 2.41686 -5.60732 0
M  V30 3935 H 398.277 0.148802 -5.73107 0
M  V30 3936 H 396.674 -0.60532 -5.97039 0
M  V30 3937 H 397.744 -1.21395 -4.69459 0
M  V30 3938 N 399.087 1.5561 -0.249682 0
M  V30 3939 C 400.315 2.03411 0.378352 0
M  V30 3940 C 400.73 1.12886 1.51335 0
M  V30 3941 O 400.087 0.143833 1.81932 0
M  V30 3942 C 400.138 3.50537 0.88351 0
M  V30 3943 O 399.859 4.37614 -0.20626 0
M  V30 3944 C 401.36 4.14113 1.58195 0
M  V30 3945 H 398.58 0.664994 0.08958 0
M  V30 3946 H 401.124 2.01044 -0.374357 0
M  V30 3947 H 399.279 3.5343 1.58639 0
M  V30 3948 H 399.693 5.24199 0.177782 0
M  V30 3949 H 401.167 5.18741 1.8871 0
M  V30 3950 H 401.644 3.60767 2.50487 0
M  V30 3951 H 402.25 4.15151 0.923573 0
M  V30 3952 N 400.565 -0.0233959 1.57583 0
M  V30 3953 C 401.528 -1.00693 2.05897 0
M  V30 3954 C 402.528 -1.28693 0.964092 0
M  V30 3955 O 403.718 -1.23602 1.22753 0
M  V30 3956 C 400.85 -2.33825 2.4807 0
M  V30 3957 H 402.043 -0.589476 2.9405 0
M  V30 3958 H 399.596 -0.270354 1.53944 0
M  V30 3959 H 400.331 -2.80307 1.6309 0
M  V30 3960 H 400.116 -2.1483 3.2801 0
M  V30 3961 H 401.606 -3.04426 2.85857 0
M  V30 3962 N 402.043 -1.548 -0.295768 0
M  V30 3963 C 402.976 -1.81003 -1.38972 0
M  V30 3964 C 403.954 -0.661544 -1.48534 0
M  V30 3965 O 405.138 -0.902074 -1.65514 0
M  V30 3966 C 402.265 -1.95141 -2.76835 0
M  V30 3967 C 401.311 -3.17592 -2.84671 0
M  V30 3968 S 402.144 -4.75531 -2.46232 0
M  V30 3969 C 403.3 -4.92613 -3.86114 0
M  V30 3970 H 403.533 -2.73507 -1.16537 0
M  V30 3971 H 401.066 -1.46278 -0.494168 0
M  V30 3972 H 403.024 -2.03972 -3.56238 0
M  V30 3973 H 401.685 -1.03565 -2.96535 0
M  V30 3974 H 400.878 -3.24303 -3.85803 0
M  V30 3975 H 400.48 -3.07235 -2.13267 0
M  V30 3976 H 402.772 -4.76957 -4.81164 0
M  V30 3977 H 403.715 -5.94698 -3.8437 0
M  V30 3978 H 404.123 -4.2073 -3.76359 0
M  V30 3979 N 403.521 0.559213 -1.47345 0
M  V30 3980 C 404.798 1.31997 -1.44348 0
M  V30 3981 C 405.178 2.1064 -0.139358 0
M  V30 3982 O 404.526 2.1091 0.879153 0
M  V30 3983 C 404.736 2.22618 -2.68779 0
M  V30 3984 C 406.084 2.83701 -3.1591 0
M  V30 3985 O 407.108 2.32921 -2.69493 0
M  V30 3986 O 405.967 3.75993 -3.966 0
M  V30 3987 H 403.061 0.594251 -0.575147 0
M  V30 3988 H 405.607 0.578282 -1.59543 0
M  V30 3989 H 404.379 1.64093 -3.55231 0
M  V30 3990 H 404.002 3.04085 -2.5616 0
M  V30 3991 N 404.999 1.35443 0.805782 0
M  V30 3992 C 405.946 1.28431 1.91766 0
M  V30 3993 C 406.916 0.156102 1.65365 0
M  V30 3994 O 408.101 0.339936 1.87747 0
M  V30 3995 C 405.241 1.06301 3.2832 0
M  V30 3996 C 404.354 2.2805 3.66902 0
M  V30 3997 C 403.489 1.99064 4.92491 0
M  V30 3998 C 402.528 3.16863 5.23703 0
M  V30 3999 N 401.665 2.87647 6.40471 0
M  V30 4000 H 406.505 2.23511 1.97096 0
M  V30 4001 H 404.042 1.11105 0.964054 0
M  V30 4002 H 406 0.915012 4.07042 0
M  V30 4003 H 404.63 0.148822 3.22457 0
M  V30 4004 H 403.682 2.53711 2.83434 0
M  V30 4005 H 404.994 3.1601 3.85927 0
M  V30 4006 H 404.148 1.81099 5.7904 0
M  V30 4007 H 402.887 1.0839 4.75503 0
M  V30 4008 H 401.892 3.35404 4.35642 0
M  V30 4009 H 403.117 4.08339 5.4262 0
M  V30 4010 H 401.063 1.99568 6.24907 0
M  V30 4011 H 400.98 3.69141 6.59751 0
M  V30 4012 H 402.248 2.73226 7.30047 0
M  V30 4013 N 406.477 -1.02803 1.19454 0
M  V30 4014 C 407.888 -1.57667 0.999899 0
M  V30 4015 C 408.239 -1.91041 -0.446956 0
M  V30 4016 O 407.364 -1.70978 -1.32648 0
M  V30 4017 C 407.959 -2.86477 1.80877 0
M  V30 4018 C 406.518 -3.37911 1.65811 0
M  V30 4019 C 405.665 -2.11343 1.79526 0
M  V30 4020 H 408.616 -0.853214 1.33813 0
M  V30 4021 H 408.637 -3.57408 1.30536 0
M  V30 4022 H 408.149 -2.62155 2.86175 0
M  V30 4023 H 406.25 -3.67218 0.63102 0
M  V30 4024 H 406.363 -4.10885 2.46395 0
M  V30 4025 H 404.727 -2.23254 1.22596 0
M  V30 4026 H 405.51 -1.89461 2.86285 0
M  V30 4027 N 407.956 -0.998596 -1.21925 0
M  V30 4028 C 408.886 -0.573688 -2.26343 0
M  V30 4029 C 409.867 0.402296 -1.65274 0
M  V30 4030 O 411.052 0.291683 -1.91997 0
M  V30 4031 C 408.182 0.106839 -3.47136 0
M  V30 4032 C 407.136 -0.788269 -4.20678 0
M  V30 4033 C 406.462 0.0254927 -5.34694 0
M  V30 4034 C 407.762 -2.08784 -4.78755 0
M  V30 4035 H 409.456 -1.44651 -2.62138 0
M  V30 4036 H 407.002 -0.696975 -1.26009 0
M  V30 4037 H 408.955 0.415531 -4.19346 0
M  V30 4038 H 407.679 1.01424 -3.10452 0
M  V30 4039 H 406.338 -1.08069 -3.50309 0
M  V30 4040 H 405.986 0.933989 -4.94253 0
M  V30 4041 H 405.686 -0.570437 -5.84825 0
M  V30 4042 H 407.21 0.328147 -6.09718 0
M  V30 4043 H 408.624 -1.84272 -5.42878 0
M  V30 4044 H 407.021 -2.63307 -5.39249 0
M  V30 4045 H 408.091 -2.76284 -3.98491 0
M  V30 4046 N 409.434 1.37368 -0.772513 0
M  V30 4047 C 410.682 1.99279 -0.336516 0
M  V30 4048 C 411.003 1.6163 1.09091 0
M  V30 4049 O 410.273 0.882109 1.74916 0
M  V30 4050 H 408.853 0.737063 -0.121435 0
M  V30 4051 H 411.515 1.67836 -0.990809 0
M  V30 4052 H 410.611 3.09332 -0.414763 0
M  V30 4053 N 410.912 0.523116 1.48665 0
M  V30 4054 C 412.328 0.180511 1.58576 0
M  V30 4055 C 412.528 -1.31597 1.52592 0
M  V30 4056 O 411.584 -2.0937 1.4114 0
M  V30 4057 C 412.897 0.776949 2.90489 0
M  V30 4058 C 414.445 0.745058 3.04003 0
M  V30 4059 C 414.92 1.31995 4.38567 0
M  V30 4060 N 416.411 1.28162 4.45117 0
M  V30 4061 C 417.146 1.6964 5.47731 0
M  V30 4062 N 416.642 2.18816 6.57337 0
M  V30 4063 N 418.435 1.6092 5.38573 0
M  V30 4064 H 410.586 1.4958 1.50797 0
M  V30 4065 H 412.849 0.621772 0.715614 0
M  V30 4066 H 412.555 1.82732 3.00503 0
M  V30 4067 H 412.429 0.25007 3.7637 0
M  V30 4068 H 414.816 -0.296532 2.93606 0
M  V30 4069 H 414.897 1.30933 2.1975 0
M  V30 4070 H 414.541 2.36043 4.49718 0
M  V30 4071 H 414.471 0.731418 5.21496 0
M  V30 4072 H 416.962 0.92155 3.66491 0
M  V30 4073 H 417.275 2.48478 7.31764 0
M  V30 4074 H 415.62 2.22805 6.58318 0
M  V30 4075 H 418.811 1.22304 4.5184 0
M  V30 4076 H 418.984 1.93567 6.18414 0
M  V30 4077 N 412.39 -1.55475 0.257931 0
M  V30 4078 C 413.63 -2.01112 -0.365129 0
M  V30 4079 C 413.994 -1.1423 -1.54323 0
M  V30 4080 O 415.195 -1.49371 -2.23477 0
M  V30 4081 C 413.466 -3.49353 -0.754117 0
M  V30 4082 S 415.025 -4.16992 -1.36614 0
M  V30 4083 H 411.843 -0.701737 -0.114397 0
M  V30 4084 H 414.445 -1.91855 0.375747 0
M  V30 4085 H 413.149 -4.10246 0.112441 0
M  V30 4086 H 412.68 -3.6256 -1.52689 0
M  V30 4087 H 414.695 -4.19191 -2.65505 0
M  V30 4088 N 413.868 0.0150385 -1.57593 0
M  V30 4089 C 415.114 0.704043 -1.90187 0
M  V30 4090 C 415.447 1.74249 -0.857366 0
M  V30 4091 O 414.722 1.94092 0.125843 0
M  V30 4092 C 415.005 1.36087 -3.33395 0
M  V30 4093 C 414.858 0.334981 -4.48551 0
M  V30 4094 C 416.177 2.29112 -3.7576 0
M  V30 4095 H 413.296 0.254475 -0.691673 0
M  V30 4096 H 415.938 -0.0331678 -1.89971 0
M  V30 4097 H 414.088 1.98922 -3.3371 0
M  V30 4098 H 415.76 -0.292534 -4.60372 0
M  V30 4099 H 414.003 -0.344325 -4.32431 0
M  V30 4100 H 414.674 0.833316 -5.45674 0
M  V30 4101 H 417.15 1.76308 -3.76902 0
M  V30 4102 H 416.026 2.72043 -4.76743 0
M  V30 4103 H 416.287 3.16385 -3.08793 0
M  V30 4104 N 415.346 1.54954 0.287554 0
M  V30 4105 C 416.594 1.74528 1.01904 0
M  V30 4106 C 416.915 0.541349 1.87335 0
M  V30 4107 O 416.185 -0.444108 1.908 0
M  V30 4108 H 414.765 0.643576 0.379235 0
M  V30 4109 H 417.427 1.92333 0.315294 0
M  V30 4110 H 416.523 2.64015 1.6644 0
M  V30 4111 N 416.824 -0.551391 1.4764 0
M  V30 4112 C 417.774 -1.65362 1.56969 0
M  V30 4113 C 418.758 -1.55098 0.428189 0
M  V30 4114 O 419.95 -1.63481 0.678441 0
M  V30 4115 C 417.079 -3.04129 1.59249 0
M  V30 4116 C 416.165 -3.19576 2.78804 0
M  V30 4117 N 416.556 -3.05067 4.03445 0
M  V30 4118 C 414.854 -3.50588 2.75688 0
M  V30 4119 C 415.555 -3.2336 4.83543 0
M  V30 4120 N 414.531 -3.4996 4.15968 0
M  V30 4121 H 418.333 -1.52722 2.51104 0
M  V30 4122 H 415.847 -0.756303 1.43714 0
M  V30 4123 H 417.844 -3.83278 1.64024 0
M  V30 4124 H 416.504 -3.17877 0.662148 0
M  V30 4125 H 417.515 -2.82273 4.34215 0
M  V30 4126 H 414.192 -3.70827 1.91817 0
M  V30 4127 H 415.582 -3.17061 5.92387 0
M  V30 4128 N 418.302 -1.35869 -0.798587 0
M  V30 4129 C 419.265 -1.29307 -1.89242 0
M  V30 4130 C 420.265 -0.202747 -1.59517 0
M  V30 4131 O 421.455 -0.456957 -1.681 0
M  V30 4132 C 418.587 -1.00229 -3.25833 0
M  V30 4133 H 419.78 -2.26576 -1.96478 0
M  V30 4134 H 417.333 -1.20509 -0.995358 0
M  V30 4135 H 418.068 -0.033801 -3.24282 0
M  V30 4136 H 417.853 -1.79121 -3.48795 0
M  V30 4137 H 419.343 -0.98219 -4.05885 0
M  V30 4138 N 419.78 1.02168 -1.19998 0
M  V30 4139 C 420.71 2.12488 -0.96804 0
M  V30 4140 C 421.691 1.69799 0.101185 0
M  V30 4141 O 422.876 1.94121 -0.0552993 0
M  V30 4142 C 420.006 3.43479 -0.513776 0
M  V30 4143 C 418.96 3.99884 -1.52566 0
M  V30 4144 C 418.286 5.26582 -0.928214 0
M  V30 4145 C 419.586 4.33861 -2.90795 0
M  V30 4146 H 421.28 2.32149 -1.89069 0
M  V30 4147 H 418.826 1.11564 -0.910468 0
M  V30 4148 H 420.779 4.20036 -0.338774 0
M  V30 4149 H 419.503 3.23561 0.444493 0
M  V30 4150 H 418.162 3.25429 -1.68794 0
M  V30 4151 H 417.81 5.02986 0.0378289 0
M  V30 4152 H 417.51 5.65284 -1.60397 0
M  V30 4153 H 419.034 6.05799 -0.764167 0
M  V30 4154 H 420.448 5.01327 -2.78109 0
M  V30 4155 H 418.845 4.83664 -3.55231 0
M  V30 4156 H 419.915 3.42848 -3.42904 0
M  V30 4157 N 421.258 1.00505 1.21394 0
M  V30 4158 C 422.168 0.574806 2.27449 0
M  V30 4159 C 423.184 -0.382206 1.6975 0
M  V30 4160 O 424.36 -0.246027 1.99892 0
M  V30 4161 C 421.425 -0.0917414 3.46579 0
M  V30 4162 C 420.486 0.909758 4.1955 0
M  V30 4163 C 419.719 0.274924 5.32991 0
M  V30 4164 O 419.942 -0.928254 5.62796 0
M  V30 4165 O 418.876 0.985877 5.93771 0
M  V30 4166 H 422.702 1.45744 2.66444 0
M  V30 4167 H 420.287 0.773923 1.27792 0
M  V30 4168 H 422.169 -0.464551 4.18832 0
M  V30 4169 H 420.844 -0.948755 3.09484 0
M  V30 4170 H 419.751 1.33372 3.49518 0
M  V30 4171 H 421.084 1.73636 4.60555 0
M  V30 4172 N 422.737 -1.36956 0.779787 0
M  V30 4173 C 423.983 -1.99787 0.348281 0
M  V30 4174 C 424.316 -1.61756 -1.07465 0
M  V30 4175 O 423.591 -0.867639 -1.74075 0
M  V30 4176 C 423.874 -3.56597 0.50104 0
M  V30 4177 C 423.727 -4.04513 1.96697 0
M  V30 4178 C 425.046 -4.40008 -0.0898097 0
M  V30 4179 H 422.165 -0.725796 0.128022 0
M  V30 4180 H 424.807 -1.62514 0.984331 0
M  V30 4181 H 422.957 -3.88479 -0.0404347 0
M  V30 4182 H 424.629 -3.83161 2.56876 0
M  V30 4183 H 422.872 -3.56408 2.47297 0
M  V30 4184 H 423.543 -5.1352 2.02486 0
M  V30 4185 H 426.019 -4.14431 0.372293 0
M  V30 4186 H 424.895 -5.4888 0.0471605 0
M  V30 4187 H 425.156 -4.26035 -1.18096 0
M  V30 4188 N 424.215 -0.530993 -1.48385 0
M  V30 4189 C 425.125 0.23503 -2.3342 0
M  V30 4190 C 426.141 0.93801 -1.46552 0
M  V30 4191 O 427.317 0.912745 -1.7953 0
M  V30 4192 C 424.382 1.26778 -3.22689 0
M  V30 4193 C 423.443 0.575038 -4.25431 0
M  V30 4194 C 422.676 1.55858 -5.10435 0
M  V30 4195 O 422.899 2.79129 -4.97437 0
M  V30 4196 O 421.833 1.09742 -5.91811 0
M  V30 4197 H 425.659 -0.461794 -3.00169 0
M  V30 4198 H 423.244 -0.291903 -1.46521 0
M  V30 4199 H 425.126 1.86457 -3.77904 0
M  V30 4200 H 423.801 1.94699 -2.586 0
M  V30 4201 H 422.708 -0.0622782 -3.74048 0
M  V30 4202 H 424.041 -0.062253 -4.92161 0
M  V30 4203 N 425.693 1.55336 -0.266172 0
M  V30 4204 C 426.603 2.2583 0.635458 0
M  V30 4205 C 427.619 1.28106 1.17749 0
M  V30 4206 O 428.795 1.61024 1.20968 0
M  V30 4207 C 425.86 2.95879 1.80712 0
M  V30 4208 C 424.921 4.09059 1.30265 0
M  V30 4209 C 424.154 4.75759 2.41846 0
M  V30 4210 O 424.377 4.41622 3.61007 0
M  V30 4211 O 423.311 5.63888 2.1051 0
M  V30 4212 H 427.137 3.03631 0.0646693 0
M  V30 4213 H 424.722 1.49361 -0.0339177 0
M  V30 4214 H 426.604 3.39932 2.49047 0
M  V30 4215 H 425.279 2.21002 2.36516 0
M  V30 4216 H 424.186 3.69482 0.586019 0
M  V30 4217 H 425.519 4.85811 0.790458 0
M  V30 4218 N 427.171 -0.0066808 1.57599 0
M  V30 4219 C 428.134 -0.985035 2.06953 0
M  V30 4220 C 429.134 -1.27663 0.977687 0
M  V30 4221 O 430.324 -1.22293 1.24057 0
M  V30 4222 C 427.456 -2.3118 2.50536 0
M  V30 4223 H 428.649 -0.558255 2.94658 0
M  V30 4224 H 426.202 -0.254011 1.54222 0
M  V30 4225 H 426.937 -2.78561 1.66054 0
M  V30 4226 H 426.722 -2.11338 3.3027 0
M  V30 4227 H 428.212 -3.01377 2.8907 0
M  V30 4228 N 428.649 -1.55105 -0.279332 0
M  V30 4229 C 429.579 -1.90557 -1.34945 0
M  V30 4230 C 430.56 -0.766738 -1.51839 0
M  V30 4231 O 431.745 -1.02434 -1.64988 0
M  V30 4232 C 428.875 -2.17193 -2.71006 0
M  V30 4233 C 427.829 -3.33021 -2.68851 0
M  V30 4234 C 427.155 -3.45123 -4.08405 0
M  V30 4235 C 428.455 -4.69578 -2.28678 0
M  V30 4236 H 430.149 -2.80188 -1.05522 0
M  V30 4237 H 427.695 -1.34811 -0.506173 0
M  V30 4238 H 429.648 -2.40581 -3.45975 0
M  V30 4239 H 428.372 -1.24355 -3.01999 0
M  V30 4240 H 427.031 -3.0959 -1.9634 0
M  V30 4241 H 426.679 -2.49762 -4.3661 0
M  V30 4242 H 426.379 -4.22995 -4.07859 0
M  V30 4243 H 427.903 -3.70796 -4.85121 0
M  V30 4244 H 429.317 -4.92553 -2.93368 0
M  V30 4245 H 427.714 -5.5032 -2.39306 0
M  V30 4246 H 428.784 -4.68828 -1.23807 0
M  V30 4247 N 430.127 0.543554 -1.4793 0
M  V30 4248 C 431.057 1.65888 -1.64327 0
M  V30 4249 C 432.038 1.62818 -0.492383 0
M  V30 4250 O 433.223 1.80226 -0.723338 0
M  V30 4251 C 430.353 3.04506 -1.67013 0
M  V30 4252 C 429.307 3.2243 -2.81466 0
M  V30 4253 C 428.633 4.61972 -2.69233 0
M  V30 4254 C 429.933 3.06496 -4.22915 0
M  V30 4255 H 431.627 1.52421 -2.57698 0
M  V30 4256 H 429.173 0.731849 -1.24016 0
M  V30 4257 H 431.126 3.82391 -1.77074 0
M  V30 4258 H 429.85 3.18964 -0.70212 0
M  V30 4259 H 428.509 2.46957 -2.70938 0
M  V30 4260 H 428.157 4.73247 -1.7043 0
M  V30 4261 H 427.857 4.74911 -3.46025 0
M  V30 4262 H 429.381 5.41974 -2.81242 0
M  V30 4263 H 430.795 3.74186 -4.34348 0
M  V30 4264 H 429.192 3.30938 -5.006 0
M  V30 4265 H 430.262 2.03077 -4.40327 0
M  V30 4266 N 431.605 1.3629 0.791371 0
M  V30 4267 C 432.845 1.31792 1.56238 0
M  V30 4268 C 433.209 -0.102237 1.91728 0
M  V30 4269 O 434.41 -0.271759 2.67423 0
M  V30 4270 C 432.681 2.21303 2.80642 0
M  V30 4271 S 434.24 2.34468 3.70904 0
M  V30 4272 H 431.058 0.468141 0.535131 0
M  V30 4273 H 433.66 1.71841 0.932246 0
M  V30 4274 H 432.364 3.23439 2.52617 0
M  V30 4275 H 431.895 1.82266 3.4863 0
M  V30 4276 H 433.91 1.54074 4.71673 0
M  V30 4277 N 433.083 -1.0153 1.20538 0
M  V30 4278 C 434.016 -2.09759 0.898695 0
M  V30 4279 C 434.994 -1.61909 -0.149733 0
M  V30 4280 O 436.178 -1.88486 -0.0230293 0
M  V30 4281 C 433.305 -3.36913 0.347512 0
M  V30 4282 C 432.351 -4.03655 1.37713 0
M  V30 4283 S 433.184 -4.47402 2.94265 0
M  V30 4284 C 434.34 -5.77756 2.40726 0
M  V30 4285 H 434.573 -2.3545 1.81523 0
M  V30 4286 H 432.106 -1.14665 1.03399 0
M  V30 4287 H 434.064 -4.10484 0.0360518 0
M  V30 4288 H 432.725 -3.09291 -0.547546 0
M  V30 4289 H 431.918 -4.9514 0.940872 0
M  V30 4290 H 431.52 -3.36313 1.63614 0
M  V30 4291 H 433.812 -6.52994 1.80569 0
M  V30 4292 H 434.755 -6.2618 3.30612 0
M  V30 4293 H 435.163 -5.34081 1.82806 0
M  V30 4294 N 434.561 -1.01147 -1.20859 0
M  V30 4295 C 435.838 -0.613136 -1.85742 0
M  V30 4296 C 436.218 0.909004 -1.90526 0
M  V30 4297 O 435.566 1.79862 -1.40932 0
M  V30 4298 C 435.776 -1.255 -3.25654 0
M  V30 4299 C 437.124 -1.3672 -4.01986 0
M  V30 4300 O 438.148 -1.21082 -3.34989 0
M  V30 4301 O 437.007 -1.6194 -5.21956 0
M  V30 4302 H 434.101 -0.210878 -0.799662 0
M  V30 4303 H 436.647 -1.10853 -1.2849 0
M  V30 4304 H 435.419 -2.29532 -3.16908 0
M  V30 4305 H 435.042 -0.746369 -3.90532 0
M  V30 4306 N 436.039 1.36541 -0.78704 0
M  V30 4307 C 437.287 1.98911 -0.357633 0
M  V30 4308 C 437.608 1.62778 1.07371 0
M  V30 4309 O 436.878 0.900612 1.73971 0
M  V30 4310 H 435.458 0.735734 -0.129246 0
M  V30 4311 H 438.12 1.66776 -1.00855 0
M  V30 4312 H 437.216 3.08874 -0.447549 0
M  V30 4313 N 437.518 0.538854 1.48102 0
M  V30 4314 C 438.481 -0.208395 2.28251 0
M  V30 4315 C 439.481 -0.859656 1.35892 0
M  V30 4316 O 440.671 -0.71834 1.58699 0
M  V30 4317 C 437.803 -1.30252 3.15035 0
M  V30 4318 H 438.996 0.495407 2.9578 0
M  V30 4319 H 436.549 0.295112 1.53489 0
M  V30 4320 H 437.284 -2.0393 2.52157 0
M  V30 4321 H 437.069 -0.840551 3.82985 0
M  V30 4322 H 438.559 -1.82787 3.75471 0
M  V30 4323 N 438.996 -1.55193 0.274407 0
M  V30 4324 C 440.244 -1.99187 -0.341902 0
M  V30 4325 C 440.565 -1.16422 -1.56431 0
M  V30 4326 O 439.835 -0.253573 -1.94252 0
M  V30 4327 H 438.415 -0.735721 -0.129317 0
M  V30 4328 H 441.077 -1.91168 0.379578 0
M  V30 4329 H 440.173 -3.05629 -0.632253 0
M  V30 4330 N 440.474 -0.00167713 -1.576 0
M  V30 4331 C 441.885 0.54091 -1.78693 0
M  V30 4332 C 442.236 1.7386 -0.909247 0
M  V30 4333 O 441.361 2.16109 -0.112176 0
M  V30 4334 C 441.956 0.98806 -3.24072 0
M  V30 4335 C 440.515 1.47594 -3.46256 0
M  V30 4336 C 439.662 0.42792 -2.73978 0
M  V30 4337 H 442.613 -0.22784 -1.57056 0
M  V30 4338 H 442.634 1.85398 -3.32277 0
M  V30 4339 H 442.146 0.116164 -3.87926 0
M  V30 4340 H 440.247 2.36868 -2.87618 0
M  V30 4341 H 440.36 1.50225 -4.54939 0
M  V30 4342 H 438.724 0.889934 -2.38647 0
M  V30 4343 H 439.507 -0.435038 -3.40532 0
M  V30 4344 N 441.952 1.55251 0.271103 0
M  V30 4345 C 443.363 1.66635 0.842007 0
M  V30 4346 C 443.714 0.594631 1.86972 0
M  V30 4347 O 442.839 -0.263532 2.14789 0
M  V30 4348 C 443.434 3.02082 1.53401 0
M  V30 4349 C 441.993 3.15487 2.05293 0
M  V30 4350 C 441.14 2.62438 0.895631 0
M  V30 4351 H 444.091 1.58629 0.0474117 0
M  V30 4352 H 444.112 2.95176 2.40107 0
M  V30 4353 H 443.624 3.80062 0.785786 0
M  V30 4354 H 441.725 2.42284 2.83071 0
M  V30 4355 H 441.838 4.22075 2.26693 0
M  V30 4356 H 440.202 2.19644 1.28953 0
M  V30 4357 H 440.985 3.42923 0.160878 0
M  V30 4358 N 443.43 -0.535701 1.48216 0
M  V30 4359 C 444.707 -1.29683 1.46429 0
M  V30 4360 C 445.087 -2.10391 0.172852 0
M  V30 4361 O 444.435 -2.12282 -0.845488 0
M  V30 4362 C 444.645 -2.18313 2.72287 0
M  V30 4363 C 445.993 -2.78639 3.20383 0
M  V30 4364 O 447.017 -2.28604 2.73164 0
M  V30 4365 O 445.876 -3.69636 4.02531 0
M  V30 4366 H 442.97 -0.585026 0.584529 0
M  V30 4367 H 445.516 -0.552827 1.60443 0
M  V30 4368 H 444.288 -1.58421 3.57797 0
M  V30 4369 H 443.911 -2.99971 2.60966 0
M  V30 4370 N 444.908 -1.36708 -0.784132 0
M  V30 4371 C 445.838 -1.34153 -1.91116 0
M  V30 4372 C 446.819 -0.212121 -1.68772 0
M  V30 4373 O 448.004 -0.410581 -1.8981 0
M  V30 4374 C 445.134 -1.13535 -3.28218 0
M  V30 4375 C 444.088 -2.23356 -3.65097 0
M  V30 4376 C 443.414 -1.87875 -5.00607 0
M  V30 4377 C 444.714 -3.65473 -3.73131 0
M  V30 4378 H 446.408 -2.28459 -1.93512 0
M  V30 4379 H 443.954 -1.09973 -0.929618 0
M  V30 4380 H 445.907 -1.10381 -4.06687 0
M  V30 4381 H 444.631 -0.156804 -3.26223 0
M  V30 4382 H 443.29 -2.25645 -2.88929 0
M  V30 4383 H 442.938 -0.885814 -4.95139 0
M  V30 4384 H 442.638 -2.61406 -5.26252 0
M  V30 4385 H 444.162 -1.86286 -5.81489 0
M  V30 4386 H 445.576 -3.65382 -4.41779 0
M  V30 4387 H 443.973 -4.37953 -4.10265 0
M  V30 4388 H 445.043 -3.99995 -2.74102 0
M  V30 4389 N 446.386 1.0089 -1.21074 0
M  V30 4390 C 447.802 1.2695 -0.967257 0
M  V30 4391 C 448.002 1.9846 0.348673 0
M  V30 4392 O 447.058 2.28459 1.0753 0
M  V30 4393 C 448.371 2.09697 -2.15517 0
M  V30 4394 C 449.919 2.22937 -2.197 0
M  V30 4395 C 450.394 3.09064 -3.37999 0
M  V30 4396 N 451.885 3.16653 -3.38061 0
M  V30 4397 C 452.62 3.8354 -4.26245 0
M  V30 4398 N 452.116 4.52488 -5.2462 0
M  V30 4399 N 453.909 3.80141 -4.14064 0
M  V30 4400 H 446.06 0.529005 -2.05707 0
M  V30 4401 H 448.323 0.296148 -0.900556 0
M  V30 4402 H 448.029 1.64497 -3.10859 0
M  V30 4403 H 447.903 3.10444 -2.14253 0
M  V30 4404 H 450.29 2.67357 -1.24916 0
M  V30 4405 H 450.371 1.21673 -2.2501 0
M  V30 4406 H 450.015 2.65347 -4.33074 0
M  V30 4407 H 449.945 4.10433 -3.29928 0
M  V30 4408 H 452.436 2.67566 -2.66865 0
M  V30 4409 H 452.749 5.01219 -5.88217 0
M  V30 4410 H 451.094 4.51288 -5.28549 0
M  V30 4411 H 454.285 3.25427 -3.36474 0
M  V30 4412 H 454.458 4.31992 -4.82998 0
M  V30 4413 N 447.864 1.01787 1.20321 0
M  V30 4414 C 449.141 0.622978 1.85414 0
M  V30 4415 C 449.521 -0.898887 1.91006 0
M  V30 4416 O 448.869 -1.79112 1.41884 0
M  V30 4417 C 449.079 1.27226 3.24984 0
M  V30 4418 C 450.427 1.3885 4.01255 0
M  V30 4419 O 451.451 1.22857 3.34342 0
M  V30 4420 O 450.31 1.64705 5.2109 0
M  V30 4421 H 447.404 0.215116 0.798533 0
M  V30 4422 H 449.95 1.11533 1.27901 0
M  V30 4423 H 448.722 2.31209 3.15687 0
M  V30 4424 H 448.345 0.767069 3.90131 0
M  V30 4425 N 449.342 -1.36122 0.79427 0
M  V30 4426 C 450.272 -2.32551 0.210328 0
M  V30 4427 C 451.253 -1.56884 -0.657386 0
M  V30 4428 O 452.438 -1.85014 -0.590207 0
M  V30 4429 C 449.568 -3.41128 -0.651819 0
M  V30 4430 C 448.522 -4.27842 0.116395 0
M  V30 4431 C 447.848 -5.2763 -0.86666 0
M  V30 4432 C 449.148 -5.05647 1.30837 0
M  V30 4433 H 450.842 -2.81636 1.01594 0
M  V30 4434 H 448.388 -1.35407 0.489981 0
M  V30 4435 H 450.341 -4.07581 -1.07031 0
M  V30 4436 H 449.065 -2.90622 -1.49019 0
M  V30 4437 H 447.724 -3.62952 0.515915 0
M  V30 4438 H 447.372 -4.73395 -1.70019 0
M  V30 4439 H 447.072 -5.86514 -0.35705 0
M  V30 4440 H 448.596 -5.96955 -1.28361 0
M  V30 4441 H 450.01 -5.65113 0.965393 0
M  V30 4442 H 448.407 -5.73967 1.75161 0
M  V30 4443 H 449.477 -4.37006 2.10128 0
M  V30 4444 N 450.82 -0.546701 -1.47814 0
M  V30 4445 C 452.066 -0.0187684 -2.02791 0
M  V30 4446 C 452.399 1.32338 -1.42128 0
M  V30 4447 O 451.674 1.85867 -0.573023 0
M  V30 4448 C 451.957 0.0854985 -3.59998 0
M  V30 4449 C 451.81 -1.283 -4.31114 0
M  V30 4450 C 453.129 0.80412 -4.32691 0
M  V30 4451 H 450.248 -0.0082946 -0.736953 0
M  V30 4452 H 452.89 -0.706962 -1.76358 0
M  V30 4453 H 451.04 0.671609 -3.82651 0
M  V30 4454 H 452.712 -1.91151 -4.19832 0
M  V30 4455 H 450.955 -1.86049 -3.91878 0
M  V30 4456 H 451.626 -1.16287 -5.39612 0
M  V30 4457 H 454.102 0.306576 -4.14969 0
M  V30 4458 H 452.978 0.846011 -5.42341 0
M  V30 4459 H 453.239 1.85802 -4.01161 0
M  V30 4460 N 452.299 1.55045 -0.282633 0
M  V30 4461 C 453.527 2.04168 0.33512 0
M  V30 4462 C 453.942 1.16071 1.48906 0
M  V30 4463 O 453.299 0.182391 1.81586 0
M  V30 4464 C 453.35 3.52332 0.808957 0
M  V30 4465 O 453.071 4.37078 -0.299038 0
M  V30 4466 C 454.572 4.17375 1.49375 0
M  V30 4467 H 451.792 0.666744 0.0754543 0
M  V30 4468 H 454.336 2.00205 -0.416918 0
M  V30 4469 H 452.491 3.56715 1.51106 0
M  V30 4470 H 452.905 5.24458 0.0665514 0
M  V30 4471 H 454.379 5.22627 1.77664 0
M  V30 4472 H 454.856 3.65999 2.42778 0
M  V30 4473 H 455.462 4.17016 0.835305 0
M  V30 4474 N 453.777 0.010035 1.57597 0
M  V30 4475 C 455.005 -0.683413 1.95287 0
M  V30 4476 C 455.42 -1.66747 0.885481 0
M  V30 4477 O 454.777 -1.82003 -0.134629 0
M  V30 4478 C 454.828 -1.40652 3.33015 0
M  V30 4479 O 454.549 -0.461916 4.35658 0
M  V30 4480 C 456.05 -2.19356 3.85225 0
M  V30 4481 H 453.27 -0.189708 0.643624 0
M  V30 4482 H 455.814 0.0641359 2.04399 0
M  V30 4483 H 453.969 -2.10562 3.2518 0
M  V30 4484 H 454.383 -0.973215 5.15392 0
M  V30 4485 H 455.857 -2.65433 4.83993 0
M  V30 4486 H 456.334 -3.02457 3.18459 0
M  V30 4487 H 456.94 -1.54442 3.96267 0
M  V30 4488 N 455.255 -1.55392 -0.262866 0
M  V30 4489 C 456.185 -1.91978 -1.32917 0
M  V30 4490 C 457.166 -0.7828 -1.51017 0
M  V30 4491 O 458.351 -1.04178 -1.63892 0
M  V30 4492 C 455.481 -2.20055 -2.68687 0
M  V30 4493 C 454.435 -3.35854 -2.65304 0
M  V30 4494 C 453.761 -3.49435 -4.04721 0
M  V30 4495 C 455.061 -4.71977 -2.23685 0
M  V30 4496 H 456.755 -2.81292 -1.02544 0
M  V30 4497 H 454.301 -1.3534 -0.491846 0
M  V30 4498 H 456.254 -2.44237 -3.43404 0
M  V30 4499 H 454.978 -1.27551 -3.00663 0
M  V30 4500 H 453.637 -3.11655 -1.93045 0
M  V30 4501 H 453.285 -2.54379 -4.33936 0
M  V30 4502 H 452.985 -4.27297 -4.0335 0
M  V30 4503 H 454.509 -3.7592 -4.81161 0
M  V30 4504 H 455.923 -4.95637 -2.88127 0
M  V30 4505 H 454.32 -5.52828 -2.33456 0
M  V30 4506 H 455.39 -4.70115 -1.18827 0
M  V30 4507 N 456.733 0.527833 -1.48498 0
M  V30 4508 C 457.981 1.28101 -1.56316 0
M  V30 4509 C 458.302 1.9352 -0.239781 0
M  V30 4510 O 457.572 1.81433 0.738849 0
M  V30 4511 H 456.152 0.475793 -0.575873 0
M  V30 4512 H 458.814 0.614052 -1.84974 0
M  V30 4513 H 457.91 2.05916 -2.34532 0
M  V30 4514 N 458.211 1.37122 0.776871 0
M  V30 4515 C 459.459 1.31787 1.53221 0
M  V30 4516 C 459.78 -0.0987589 1.9475 0
M  V30 4517 O 459.05 -1.0417 1.65908 0
M  V30 4518 H 457.63 0.484839 0.568278 0
M  V30 4519 H 460.292 1.71556 0.924917 0
M  V30 4520 H 459.388 1.95355 2.43398 0
M  V30 4521 N 459.689 -1.00246 1.21608 0
M  V30 4522 C 460.652 -2.07233 0.979133 0
M  V30 4523 C 461.652 -1.6072 -0.0508219 0
M  V30 4524 O 462.842 -1.73196 0.186712 0
M  V30 4525 C 459.974 -3.37546 0.477016 0
M  V30 4526 H 461.167 -2.29687 1.92831 0
M  V30 4527 H 458.72 -1.17261 1.03342 0
M  V30 4528 H 459.455 -3.20773 -0.476966 0
M  V30 4529 H 459.24 -3.72638 1.21997 0
M  V30 4530 H 460.73 -4.16285 0.331181 0
M  V30 4531 N 461.167 -1.02423 -1.1978 0
M  V30 4532 C 462.097 -0.62157 -2.25075 0
M  V30 4533 C 463.078 0.367148 -1.6609 0
M  V30 4534 O 464.263 0.250892 -1.92573 0
M  V30 4535 C 461.393 0.0331826 -3.47284 0
M  V30 4536 C 460.347 -0.877323 -4.18912 0
M  V30 4537 C 459.673 -0.0879296 -5.34628 0
M  V30 4538 C 460.973 -2.18892 -4.74219 0
M  V30 4539 H 462.667 -1.50179 -2.59011 0
M  V30 4540 H 460.213 -0.723547 -1.24502 0
M  V30 4541 H 462.166 0.326488 -4.20133 0
M  V30 4542 H 460.89 0.948164 -3.12534 0
M  V30 4543 H 459.549 -1.15475 -3.47938 0
M  V30 4544 H 459.197 0.828941 -4.96123 0
M  V30 4545 H 458.897 -0.694359 -5.83483 0
M  V30 4546 H 460.421 0.198743 -6.10276 0
M  V30 4547 H 461.835 -1.95746 -5.38847 0
M  V30 4548 H 460.232 -2.74686 -5.33542 0
M  V30 4549 H 461.302 -2.84674 -3.92541 0
M  V30 4550 N 462.645 1.35699 -0.801477 0
M  V30 4551 C 463.575 2.32436 -0.222658 0
M  V30 4552 C 464.556 1.5723 0.649057 0
M  V30 4553 O 465.741 1.85324 0.580387 0
M  V30 4554 C 462.871 3.41469 0.633719 0
M  V30 4555 C 461.825 4.27774 -0.139083 0
M  V30 4556 C 461.151 5.28082 0.838666 0
M  V30 4557 C 462.451 5.04946 -1.33517 0
M  V30 4558 H 464.145 2.81094 -1.03086 0
M  V30 4559 H 461.691 1.35146 -0.497155 0
M  V30 4560 H 463.644 4.08143 1.04868 0
M  V30 4561 H 462.368 2.91408 1.47475 0
M  V30 4562 H 461.027 3.62673 -0.535156 0
M  V30 4563 H 460.675 4.7429 1.67506 0
M  V30 4564 H 460.375 5.86695 0.32594 0
M  V30 4565 H 461.899 5.97628 1.25194 0
M  V30 4566 H 463.313 5.64593 -0.995349 0
M  V30 4567 H 461.71 5.7303 -1.78202 0
M  V30 4568 H 462.78 4.35886 -2.12442 0
M  V30 4569 N 464.123 0.554532 1.47522 0
M  V30 4570 C 465.369 0.0377449 2.03365 0
M  V30 4571 C 465.724 -1.29654 1.42154 0
M  V30 4572 O 465.017 -1.83022 0.566865 0
M  V30 4573 C 465.211 -0.115927 3.57212 0
M  V30 4574 C 465.04 1.20191 4.33341 0
M  V30 4575 C 463.81 1.76849 4.73342 0
M  V30 4576 C 466.008 2.11849 4.68641 0
M  V30 4577 N 463.99 3.02665 5.34104 0
M  V30 4578 C 465.361 3.22245 5.29677 0
M  V30 4579 C 467.416 2.11876 4.5057 0
M  V30 4580 C 466.119 4.32763 5.74551 0
M  V30 4581 C 468.145 3.21405 4.9644 0
M  V30 4582 C 467.507 4.30519 5.57523 0
M  V30 4583 H 463.606 0.0559107 0.779999 0
M  V30 4584 H 466.19 0.741232 1.80038 0
M  V30 4585 H 464.361 -0.788533 3.80311 0
M  V30 4586 H 466.093 -0.634538 3.99695 0
M  V30 4587 H 462.848 1.30681 4.55214 0
M  V30 4588 H 463.272 3.66788 5.69031 0
M  V30 4589 H 467.914 1.28801 4.02704 0
M  V30 4590 H 465.632 5.166 6.2141 0
M  V30 4591 H 469.218 3.22509 4.8423 0
M  V30 4592 H 468.098 5.13873 5.92371 0
M  V30 4593 N 465.601 -1.54893 0.290851 0
M  V30 4594 C 466.531 -2.26103 -0.583084 0
M  V30 4595 C 467.512 -1.25684 -1.14619 0
M  V30 4596 O 468.697 -1.54436 -1.17741 0
M  V30 4597 C 465.827 -2.99409 -1.75987 0
M  V30 4598 C 464.781 -4.0689 -1.32758 0
M  V30 4599 C 464.107 -4.67856 -2.58872 0
M  V30 4600 C 465.407 -5.20215 -0.46624 0
M  V30 4601 H 467.101 -2.99398 0.0108214 0
M  V30 4602 H 464.647 -1.43998 0.00664468 0
M  V30 4603 H 466.6 -3.47943 -2.37727 0
M  V30 4604 H 465.324 -2.23675 -2.37985 0
M  V30 4605 H 463.983 -3.59191 -0.733299 0
M  V30 4606 H 463.631 -3.88772 -3.19163 0
M  V30 4607 H 463.331 -5.40438 -2.30653 0
M  V30 4608 H 464.855 -5.19147 -3.21433 0
M  V30 4609 H 466.269 -5.64704 -0.989047 0
M  V30 4610 H 464.666 -5.99455 -0.27826 0
M  V30 4611 H 465.736 -4.82198 0.511173 0
M  V30 4612 N 467.08 -0.0183926 -1.57589 0
M  V30 4613 C 468.305 0.676634 -1.96052 0
M  V30 4614 C 468.73 1.6548 -0.894307 0
M  V30 4615 O 468.088 1.80712 0.145849 0
M  V30 4616 C 468.136 1.36872 -3.33614 0
M  V30 4617 O 467.24 2.48372 -3.29219 0
M  V30 4618 H 466.581 0.1786 -0.63953 0
M  V30 4619 H 469.111 -0.077056 -2.04455 0
M  V30 4620 H 469.121 1.72797 -3.69601 0
M  V30 4621 H 467.796 0.651636 -4.10763 0
M  V30 4622 H 466.373 2.14639 -3.04934 0
M  V30 4623 N 468.558 1.5553 0.254621 0
M  V30 4624 C 469.806 1.7665 0.981793 0
M  V30 4625 C 470.127 0.580963 1.86145 0
M  V30 4626 O 469.397 -0.403537 1.91699 0
M  V30 4627 H 467.977 0.651475 0.365498 0
M  V30 4628 H 470.639 1.92958 0.274426 0
M  V30 4629 H 469.735 2.67486 1.60802 0
M  V30 4630 N 470.036 -0.519951 1.48776 0
M  V30 4631 C 470.986 -1.61995 1.60442 0
M  V30 4632 C 471.97 -1.54155 0.460991 0
M  V30 4633 O 473.162 -1.62006 0.712965 0
M  V30 4634 C 470.291 -3.00683 1.65664 0
M  V30 4635 C 469.377 -3.1359 2.8552 0
M  V30 4636 N 469.768 -2.96441 4.09825 0
M  V30 4637 C 468.066 -3.44662 2.83062 0
M  V30 4638 C 468.767 -3.1303 4.90293 0
M  V30 4639 N 467.743 -3.41058 4.23297 0
M  V30 4640 H 471.545 -1.47362 2.54287 0
M  V30 4641 H 469.059 -0.725649 1.45286 0
M  V30 4642 H 471.056 -3.79712 1.72117 0
M  V30 4643 H 469.716 -3.16401 0.729425 0
M  V30 4644 H 470.727 -2.72999 4.40104 0
M  V30 4645 H 467.404 -3.66675 1.9964 0
M  V30 4646 H 468.794 -3.04424 5.98979 0
M  V30 4647 N 471.514 -1.37532 -0.769588 0
M  V30 4648 C 472.477 -1.33292 -1.86456 0
M  V30 4649 C 473.477 -0.236537 -1.59051 0
M  V30 4650 O 474.667 -0.492511 -1.67093 0
M  V30 4651 C 471.799 -1.07118 -3.23633 0
M  V30 4652 H 472.992 -2.30692 -1.91628 0
M  V30 4653 H 470.545 -1.22593 -0.969572 0
M  V30 4654 H 471.28 -0.102578 -3.24138 0
M  V30 4655 H 471.065 -1.86479 -3.44917 0
M  V30 4656 H 472.555 -1.06806 -4.03711 0
M  V30 4657 N 472.992 0.995999 -1.22138 0
M  V30 4658 C 474.24 1.73167 -1.042 0
M  V30 4659 C 474.561 1.90329 0.42423 0
M  V30 4660 O 473.831 1.4607 1.30539 0
M  V30 4661 H 472.411 0.641593 -0.38258 0
M  V30 4662 H 475.073 1.19974 -1.53598 0
M  V30 4663 H 474.169 2.72734 -1.51731 0
M  V30 4664 N 474.47 1.03057 1.19235 0
M  V30 4665 C 475.698 0.747697 1.92917 0
M  V30 4666 C 476.113 -0.69372 1.75593 0
M  V30 4667 O 475.47 -1.47191 1.07894 0
M  V30 4668 C 475.521 1.09159 3.44625 0
M  V30 4669 O 475.242 2.47641 3.61394 0
M  V30 4670 C 476.743 0.831763 4.35427 0
M  V30 4671 H 473.963 0.273453 0.612751 0
M  V30 4672 H 476.507 1.37552 1.51327 0
M  V30 4673 H 474.662 0.508919 3.84043 0
M  V30 4674 H 475.076 2.60499 4.55237 0
M  V30 4675 H 476.55 1.12233 5.4047 0
M  V30 4676 H 477.027 -0.233769 4.38577 0
M  V30 4677 H 477.633 1.39725 4.01693 0
M  V30 4678 N 475.948 -1.35272 0.808662 0
M  V30 4679 C 476.88 -2.28507 0.178149 0
M  V30 4680 C 477.893 -1.50377 -0.623754 0
M  V30 4681 O 479.082 -1.72583 -0.455774 0
M  V30 4682 C 476.182 -3.30038 -0.769959 0
M  V30 4683 C 475.355 -4.37398 -0.0139749 0
M  V30 4684 C 474.414 -5.18775 -0.880875 0
M  V30 4685 O 473.44 -5.68236 -0.331059 0
M  V30 4686 N 474.642 -5.37087 -2.20267 0
M  V30 4687 H 477.407 -2.83255 0.979106 0
M  V30 4688 H 474.968 -1.47643 0.664308 0
M  V30 4689 H 476.96 -3.81371 -1.35418 0
M  V30 4690 H 475.53 -2.75789 -1.47171 0
M  V30 4691 H 474.75 -3.86971 0.751468 0
M  V30 4692 H 476.038 -5.06268 0.506965 0
M  V30 4693 H 475.436 -4.9855 -2.67328 0
M  V30 4694 H 473.993 -5.91593 -2.73608 0
M  V30 4695 N 477.426 -0.562348 -1.47226 0
M  V30 4696 C 478.389 0.172056 -2.28553 0
M  V30 4697 C 479.389 0.837928 -1.37242 0
M  V30 4698 O 480.579 0.693001 -1.59822 0
M  V30 4699 C 477.711 1.25223 -3.17068 0
M  V30 4700 H 478.904 -0.542401 -2.94954 0
M  V30 4701 H 476.457 -0.319493 -1.53 0
M  V30 4702 H 477.192 1.99892 -2.55369 0
M  V30 4703 H 476.977 0.779515 -3.84273 0
M  V30 4704 H 478.467 1.76791 -3.78332 0
M  V30 4705 N 478.904 1.54736 -0.299062 0
M  V30 4706 C 479.836 2.20891 0.61153 0
M  V30 4707 C 480.849 1.20104 1.09904 0
M  V30 4708 O 482.038 1.46707 1.01683 0
M  V30 4709 C 479.138 2.84018 1.84897 0
M  V30 4710 C 478.311 4.10719 1.50428 0
M  V30 4711 C 477.37 4.57667 2.59667 0
M  V30 4712 O 476.396 5.2291 2.24842 0
M  V30 4713 N 477.598 4.29821 3.90172 0
M  V30 4714 H 480.363 2.99666 0.0452001 0
M  V30 4715 H 477.924 1.61446 -0.121178 0
M  V30 4716 H 479.916 3.1236 2.5732 0
M  V30 4717 H 478.486 2.09095 2.32375 0
M  V30 4718 H 477.706 3.89408 0.612781 0
M  V30 4719 H 478.994 4.93223 1.24934 0
M  V30 4720 H 478.392 3.77549 4.21276 0
M  V30 4721 H 476.949 4.62877 4.58899 0
M  V30 4722 N 480.382 0.0267497 1.57577 0
M  V30 4723 C 481.63 -0.651116 1.91324 0
M  V30 4724 C 481.951 -1.72804 0.90353 0
M  V30 4725 O 481.221 -1.95822 -0.0552946 0
M  V30 4726 H 479.801 -0.243491 0.706202 0
M  V30 4727 H 482.463 0.0739935 1.94759 0
M  V30 4728 H 481.559 -1.10536 2.9187 0
M  V30 4729 N 481.861 -1.55662 -0.24637 0
M  V30 4730 C 482.824 -1.89558 -1.28842 0
M  V30 4731 C 483.824 -0.772082 -1.41052 0
M  V30 4732 O 485.014 -1.04007 -1.39743 0
M  V30 4733 C 482.146 -2.12449 -2.66605 0
M  V30 4734 H 483.339 -2.82735 -1.00004 0
M  V30 4735 H 480.892 -1.48562 -0.485684 0
M  V30 4736 H 481.627 -1.21742 -3.00582 0
M  V30 4737 H 481.412 -2.94273 -2.59125 0
M  V30 4738 H 482.902 -2.39854 -3.41847 0
M  V30 4739 N 483.339 0.512053 -1.4905 0
M  V30 4740 C 484.302 1.59704 -1.64399 0
M  V30 4741 C 485.302 1.52285 -0.516317 0
M  V30 4742 O 486.492 1.55635 -0.782527 0
M  V30 4743 C 483.624 2.9935 -1.63102 0
M  V30 4744 H 484.817 1.47428 -2.61161 0
M  V30 4745 H 482.37 0.735469 -1.37915 0
M  V30 4746 H 483.105 3.17116 -0.678836 0
M  V30 4747 H 482.89 3.06144 -2.44986 0
M  V30 4748 H 484.38 3.782 -1.77072 0
M  V30 4749 N 484.817 1.37938 0.762283 0
M  V30 4750 C 486.233 1.18945 1.06415 0
M  V30 4751 C 486.433 0.0321163 2.01474 0
M  V30 4752 O 485.489 -0.624844 2.44647 0
M  V30 4753 C 486.802 2.51218 1.65258 0
M  V30 4754 C 488.35 2.57824 1.7747 0
M  V30 4755 C 488.825 3.90251 2.39725 0
M  V30 4756 N 490.316 3.91744 2.47166 0
M  V30 4757 C 491.051 4.90966 2.96209 0
M  V30 4758 N 490.547 6.00585 3.45354 0
M  V30 4759 N 492.34 4.78363 2.9517 0
M  V30 4760 H 484.491 2.11994 0.131301 0
M  V30 4761 H 486.754 0.940262 0.120879 0
M  V30 4762 H 486.46 3.36317 1.02878 0
M  V30 4763 H 486.334 2.68989 2.64433 0
M  V30 4764 H 488.721 1.73126 2.3898 0
M  V30 4765 H 488.802 2.43928 0.770241 0
M  V30 4766 H 488.446 4.75368 1.78852 0
M  V30 4767 H 488.376 4.01454 3.40796 0
M  V30 4768 H 490.867 3.12563 2.12397 0
M  V30 4769 H 491.18 6.72236 3.81207 0
M  V30 4770 H 489.525 6.04217 3.43434 0
M  V30 4771 H 492.716 3.91841 2.56082 0
M  V30 4772 H 492.889 5.55843 3.33081 0
M  V30 4773 N 486.295 -0.989507 1.22664 0
M  V30 4774 C 487.541 -1.7321 1.05481 0
M  V30 4775 C 487.874 -1.89852 -0.408635 0
M  V30 4776 O 487.149 -1.44416 -1.30285 0
M  V30 4777 C 487.432 -3.1357 1.77047 0
M  V30 4778 C 487.285 -3.04555 3.31008 0
M  V30 4779 C 488.604 -4.12812 1.5256 0
M  V30 4780 H 485.723 -0.628697 0.384589 0
M  V30 4781 H 488.365 -1.15258 1.51049 0
M  V30 4782 H 486.515 -3.63046 1.3831 0
M  V30 4783 H 488.187 -2.62674 3.7921 0
M  V30 4784 H 486.43 -2.41278 3.6051 0
M  V30 4785 H 487.101 -4.03894 3.76263 0
M  V30 4786 H 489.577 -3.72106 1.86215 0
M  V30 4787 H 488.453 -5.09132 2.05124 0
M  V30 4788 H 488.714 -4.39711 0.458936 0
M  V30 4789 N 487.773 -1.03688 -1.18687 0
M  V30 4790 C 488.736 -0.629115 -2.20397 0
M  V30 4791 C 489.736 0.311495 -1.57754 0
M  V30 4792 O 490.926 0.0974107 -1.73927 0
M  V30 4793 C 488.058 0.0782231 -3.4081 0
M  V30 4794 H 489.251 -1.52915 -2.57987 0
M  V30 4795 H 486.804 -0.828988 -1.32505 0
M  V30 4796 H 487.539 0.992233 -3.08748 0
M  V30 4797 H 487.324 -0.597776 -3.87517 0
M  V30 4798 H 488.814 0.350156 -4.16129 0
M  V30 4799 N 489.251 1.34841 -0.815825 0
M  V30 4800 C 490.214 2.27959 -0.238185 0
M  V30 4801 C 491.214 1.49983 0.579816 0
M  V30 4802 O 492.404 1.69617 0.396953 0
M  V30 4803 C 489.536 3.34314 0.666876 0
M  V30 4804 H 490.729 2.80558 -1.05958 0
M  V30 4805 H 488.282 1.44852 -0.587156 0
M  V30 4806 H 489.017 2.86916 1.5116 0
M  V30 4807 H 488.802 3.92014 0.0819106 0
M  V30 4808 H 490.292 4.0379 1.06506 0
M  V30 4809 N 490.729 0.570148 1.46925 0
M  V30 4810 C 491.692 -0.159933 2.28641 0
M  V30 4811 C 492.692 -0.830638 1.37685 0
M  V30 4812 O 493.882 -0.684516 1.60187 0
M  V30 4813 C 491.014 -1.2354 3.17727 0
M  V30 4814 H 492.207 0.558035 2.94662 0
M  V30 4815 H 489.76 0.327603 1.52828 0
M  V30 4816 H 490.495 -1.98535 2.56426 0
M  V30 4817 H 490.28 -0.759125 3.84681 0
M  V30 4818 H 491.77 -1.74782 3.79264 0
M  V30 4819 N 492.207 -1.54576 0.307264 0
M  V30 4820 C 493.137 -2.26708 -0.55907 0
M  V30 4821 C 494.118 -1.26893 -1.1328 0
M  V30 4822 O 495.303 -1.55677 -1.16097 0
M  V30 4823 C 492.433 -3.01259 -1.72801 0
M  V30 4824 C 491.387 -4.08275 -1.28435 0
M  V30 4825 C 490.713 -4.70575 -2.53895 0
M  V30 4826 C 492.013 -5.2068 -0.411038 0
M  V30 4827 H 493.707 -2.9937 0.042576 0
M  V30 4828 H 491.253 -1.43983 0.0219173 0
M  V30 4829 H 493.206 -3.50444 -2.34023 0
M  V30 4830 H 491.93 -2.26187 -2.356 0
M  V30 4831 H 490.589 -3.59949 -0.695161 0
M  V30 4832 H 490.237 -3.92136 -3.15021 0
M  V30 4833 H 489.937 -5.42854 -2.24908 0
M  V30 4834 H 491.461 -5.22527 -3.15908 0
M  V30 4835 H 492.875 -5.65721 -0.929097 0
M  V30 4836 H 491.272 -5.99716 -0.214664 0
M  V30 4837 H 492.342 -4.81629 0.562287 0
M  V30 4838 N 493.685 -0.035106 -1.57561 0
M  V30 4839 C 494.962 0.681212 -1.83354 0
M  V30 4840 C 495.342 1.89986 -0.920252 0
M  V30 4841 O 494.69 2.28489 0.0226815 0
M  V30 4842 C 494.9 1.05376 -3.32712 0
M  V30 4843 C 496.248 1.44286 -3.99333 0
M  V30 4844 O 497.272 1.14656 -3.37242 0
M  V30 4845 O 496.131 1.99518 -5.08778 0
M  V30 4846 H 493.225 0.334741 -0.756226 0
M  V30 4847 H 495.771 -0.0632448 -1.69582 0
M  V30 4848 H 494.543 0.186668 -3.90854 0
M  V30 4849 H 494.166 1.85619 -3.51613 0
M  V30 4850 N 495.163 1.55791 0.238111 0
M  V30 4851 C 496.44 1.68798 0.98826 0
M  V30 4852 C 496.82 0.577562 2.03045 0
M  V30 4853 O 496.168 -0.41778 2.24648 0
M  V30 4854 C 496.378 3.09454 1.61367 0
M  V30 4855 C 497.726 3.68335 2.11221 0
M  V30 4856 O 498.75 3.1231 1.71292 0
M  V30 4857 O 497.609 4.6657 2.84561 0
M  V30 4858 H 494.703 0.686881 0.460568 0
M  V30 4859 H 497.249 1.68118 0.231202 0
M  V30 4860 H 496.021 3.81726 0.860295 0
M  V30 4861 H 495.644 3.14182 2.4367 0
M  V30 4862 N 496.642 -0.504142 1.49319 0
M  V30 4863 C 497.89 -1.25598 1.58334 0
M  V30 4864 C 498.211 -1.93114 0.270538 0
M  V30 4865 O 497.481 -1.82585 -0.709891 0
M  V30 4866 H 496.061 -0.466571 0.58337 0
M  V30 4867 H 498.723 -0.584547 1.85928 0
M  V30 4868 H 497.819 -2.02159 2.37778 0
M  V30 4869 N 498.12 -1.38341 -0.754957 0
M  V30 4870 C 499.345 -1.37882 -1.5493 0
M  V30 4871 C 499.77 0.0296385 -1.88077 0
M  V30 4872 O 499.128 1.01133 -1.50472 0
M  V30 4873 C 499.176 -2.23996 -2.82592 0
M  V30 4874 O 498.28 -1.65612 -3.77686 0
M  V30 4875 H 497.621 -0.470384 -0.468652 0
M  V30 4876 H 500.151 -1.82084 -0.933082 0
M  V30 4877 H 500.161 -2.37806 -3.3153 0
M  V30 4878 H 498.836 -3.26365 -2.57796 0
M  V30 4879 H 497.413 -1.60936 -3.36384 0
M  V30 4880 N 499.598 0.982988 -1.23187 0
M  V30 4881 C 500.561 2.05649 -1.01198 0
M  V30 4882 C 501.561 1.6078 0.0252464 0
M  V30 4883 O 502.751 1.72878 -0.214243 0
M  V30 4884 C 499.883 3.36744 -0.530656 0
M  V30 4885 H 501.076 2.2659 -1.96461 0
M  V30 4886 H 498.629 1.15602 -1.05195 0
M  V30 4887 H 499.364 3.21492 0.425873 0
M  V30 4888 H 499.149 3.7065 -1.2791 0
M  V30 4889 H 500.639 4.15705 -0.397366 0
M  V30 4890 N 501.076 1.04316 1.18135 0
M  V30 4891 C 502.006 0.657299 2.24058 0
M  V30 4892 C 502.987 -0.340678 1.66654 0
M  V30 4893 O 504.172 -0.220223 1.92947 0
M  V30 4894 C 501.302 0.0220715 3.47293 0
M  V30 4895 C 500.256 0.943857 4.17463 0
M  V30 4896 C 499.582 0.172973 5.3442 0
M  V30 4897 C 500.882 2.26409 4.70677 0
M  V30 4898 H 502.576 1.5428 2.56589 0
M  V30 4899 H 500.122 0.743263 1.23335 0
M  V30 4900 H 502.075 -0.259607 4.206 0
M  V30 4901 H 500.799 -0.898323 3.14003 0
M  V30 4902 H 499.458 1.20996 3.46057 0
M  V30 4903 H 499.106 -0.749907 4.97379 0
M  V30 4904 H 498.806 0.787098 5.82304 0
M  V30 4905 H 500.33 -0.101628 6.10515 0
M  V30 4906 H 501.744 2.04294 5.35665 0
M  V30 4907 H 500.141 2.8314 5.29105 0
M  V30 4908 H 501.211 2.90883 3.87962 0
M  V30 4909 N 502.554 -1.34406 0.822964 0
M  V30 4910 C 503.802 -1.97892 0.410245 0
M  V30 4911 C 504.123 -1.65567 -1.03017 0
M  V30 4912 O 503.393 -0.94642 -1.71522 0
M  V30 4913 H 501.973 -0.732049 0.148707 0
M  V30 4914 H 504.635 -1.64043 1.05242 0
M  V30 4915 H 503.731 -3.07579 0.529284 0
M  V30 4916 N 504.032 -0.577932 -1.46621 0
M  V30 4917 C 505.448 -0.239242 -1.57797 0
M  V30 4918 C 505.648 1.25843 -1.57371 0
M  V30 4919 O 504.704 2.03988 -1.48813 0
M  V30 4920 C 506.017 -0.884227 -2.87405 0
M  V30 4921 C 507.565 -0.857373 -3.01028 0
M  V30 4922 C 508.04 -1.48181 -4.33366 0
M  V30 4923 N 509.531 -1.44593 -4.40053 0
M  V30 4924 C 510.266 -1.89852 -5.41058 0
M  V30 4925 N 509.762 -2.43062 -6.48762 0
M  V30 4926 N 511.555 -1.80797 -5.3223 0
M  V30 4927 H 503.706 -1.55073 -1.45142 0
M  V30 4928 H 505.969 -0.647903 -0.692044 0
M  V30 4929 H 505.675 -1.93759 -2.93514 0
M  V30 4930 H 505.549 -0.389585 -3.75183 0
M  V30 4931 H 507.936 0.187357 -2.94505 0
M  V30 4932 H 508.017 -1.38999 -2.14739 0
M  V30 4933 H 507.661 -2.52572 -4.40647 0
M  V30 4934 H 507.591 -0.924464 -5.18422 0
M  V30 4935 H 510.082 -1.05694 -3.62819 0
M  V30 4936 H 510.395 -2.75466 -7.22038 0
M  V30 4937 H 508.74 -2.47085 -6.49595 0
M  V30 4938 H 511.931 -1.38989 -4.46989 0
M  V30 4939 H 512.104 -2.16385 -6.10804 0
M  V30 4940 N 505.51 1.54411 -0.315457 0
M  V30 4941 C 506.757 2.00419 0.289543 0
M  V30 4942 C 507.085 1.20373 1.52776 0
M  V30 4943 O 506.34 0.271769 1.93804 0
M  V30 4944 C 506.639 3.50936 0.676652 0
M  V30 4945 C 506.305 4.48532 -0.461472 0
M  V30 4946 C 504.967 4.74936 -0.773879 0
M  V30 4947 C 507.319 5.06567 -1.22637 0
M  V30 4948 C 504.647 5.56634 -1.85405 0
M  V30 4949 C 506.999 5.89441 -2.29657 0
M  V30 4950 C 505.663 6.1415 -2.61488 0
M  V30 4951 H 504.933 0.733386 0.105951 0
M  V30 4952 H 507.58 1.86434 -0.437554 0
M  V30 4953 H 505.885 3.62606 1.48405 0
M  V30 4954 H 507.582 3.83971 1.15618 0
M  V30 4955 H 504.172 4.28096 -0.207893 0
M  V30 4956 H 508.356 4.86157 -0.998271 0
M  V30 4957 H 503.612 5.74012 -2.10523 0
M  V30 4958 H 507.786 6.33432 -2.89374 0
M  V30 4959 H 505.413 6.77245 -3.45317 0
M  V30 4960 N 506.988 0.0434614 1.5754 0
M  V30 4961 C 507.898 -0.94893 2.14552 0
M  V30 4962 C 508.914 -1.34707 1.10136 0
M  V30 4963 O 510.09 -1.42557 1.42266 0
M  V30 4964 C 507.155 -2.208 2.67298 0
M  V30 4965 C 506.216 -1.86893 3.86484 0
M  V30 4966 C 505.449 -3.06797 4.36705 0
M  V30 4967 O 505.672 -4.19921 3.86034 0
M  V30 4968 O 504.606 -2.8826 5.28384 0
M  V30 4969 H 508.432 -0.494099 2.99654 0
M  V30 4970 H 506.017 -0.177989 1.48336 0
M  V30 4971 H 507.899 -2.94686 3.01228 0
M  V30 4972 H 506.574 -2.65436 1.85272 0
M  V30 4973 H 505.481 -1.10347 3.57455 0
M  V30 4974 H 506.814 -1.47062 4.69716 0
M  V30 4975 N 508.466 -1.55915 -0.229846 0
M  V30 4976 C 509.882 -1.48721 -0.579166 0
M  V30 4977 C 510.082 -0.736976 -1.87539 0
M  V30 4978 O 509.138 -0.273258 -2.51017 0
M  V30 4979 C 510.451 -2.9323 -0.666082 0
M  V30 4980 C 511.999 -3.03701 -0.757267 0
M  V30 4981 C 512.474 -4.49552 -0.8756 0
M  V30 4982 N 513.965 -4.53561 -0.940035 0
M  V30 4983 C 514.7 -5.63683 -1.05116 0
M  V30 4984 N 514.196 -6.83576 -1.12675 0
M  V30 4985 N 515.989 -5.51516 -1.08565 0
M  V30 4986 H 508.14 -2.03123 0.620857 0
M  V30 4987 H 510.403 -0.922898 0.21671 0
M  V30 4988 H 510.109 -3.51032 0.21664 0
M  V30 4989 H 509.983 -3.44668 -1.53243 0
M  V30 4990 H 512.37 -2.45969 -1.63043 0
M  V30 4991 H 512.451 -2.55446 0.134583 0
M  V30 4992 H 512.095 -5.079 -0.00692351 0
M  V30 4993 H 512.025 -4.95506 -1.78274 0
M  V30 4994 H 514.516 -3.67215 -0.892269 0
M  V30 4995 H 514.829 -7.63251 -1.21109 0
M  V30 4996 H 513.174 -6.86303 -1.09603 0
M  V30 4997 H 516.365 -4.5678 -1.02319 0
M  V30 4998 H 516.538 -6.37372 -1.1688 0
M  V30 4999 N 509.944 0.496216 -1.49584 0
M  V30 5000 C 510.877 1.61508 -1.61215 0
M  V30 5001 C 511.855 1.55927 -0.461045 0
M  V30 5002 O 513.039 1.75914 -0.677231 0
M  V30 5003 C 510.166 3.00035 -1.57152 0
M  V30 5004 C 509.212 3.23861 -2.77518 0
M  V30 5005 S 510.045 3.06466 -4.39134 0
M  V30 5006 C 511.201 4.4738 -4.37724 0
M  V30 5007 H 511.434 1.51398 -2.55863 0
M  V30 5008 H 508.967 0.681727 -1.38535 0
M  V30 5009 H 510.925 3.7991 -1.55494 0
M  V30 5010 H 509.586 3.07556 -0.637834 0
M  V30 5011 H 508.779 4.25 -2.70908 0
M  V30 5012 H 508.381 2.51716 -2.76614 0
M  V30 5013 H 510.673 5.39556 -4.09738 0
M  V30 5014 H 511.616 4.59038 -5.39156 0
M  V30 5015 H 512.024 4.28283 -3.67742 0
M  V30 5016 N 511.423 1.38739 0.74761 0
M  V30 5017 C 512.353 1.39173 1.87492 0
M  V30 5018 C 513.334 0.256794 1.6815 0
M  V30 5019 O 514.519 0.460762 1.88655 0
M  V30 5020 C 511.649 1.22197 3.25093 0
M  V30 5021 C 510.603 2.32957 3.59047 0
M  V30 5022 C 509.929 2.01082 4.95449 0
M  V30 5023 C 511.229 3.75237 3.6331 0
M  V30 5024 H 512.923 2.3351 1.87386 0
M  V30 5025 H 510.469 1.12399 0.900134 0
M  V30 5026 H 512.422 1.21124 4.03617 0
M  V30 5027 H 511.146 0.243241 3.25693 0
M  V30 5028 H 509.805 2.33226 2.82845 0
M  V30 5029 H 509.453 1.01678 4.92616 0
M  V30 5030 H 509.153 2.75267 5.19136 0
M  V30 5031 H 510.677 2.01638 5.76346 0
M  V30 5032 H 512.091 3.76966 4.31937 0
M  V30 5033 H 510.488 4.48677 3.98509 0
M  V30 5034 H 511.558 4.07122 2.634 0
M  V30 5035 N 512.901 -0.976442 1.23707 0
M  V30 5036 C 513.864 -2.0511 1.02287 0
M  V30 5037 C 514.864 -1.60791 -0.0167195 0
M  V30 5038 O 516.054 -1.72761 0.223408 0
M  V30 5039 C 513.186 -3.36458 0.548507 0
M  V30 5040 H 514.379 -2.25545 1.9766 0
M  V30 5041 H 511.932 -1.15042 1.05806 0
M  V30 5042 H 512.667 -3.21713 -0.408818 0
M  V30 5043 H 512.452 -3.69967 1.29874 0
M  V30 5044 H 513.942 -4.15489 0.419406 0
M  V30 5045 N 514.379 -1.04941 -1.1758 0
M  V30 5046 C 515.342 -0.652456 -2.19717 0
M  V30 5047 C 516.342 0.294745 -1.58076 0
M  V30 5048 O 517.532 0.0789579 -1.74021 0
M  V30 5049 C 514.664 0.0420712 -3.40874 0
M  V30 5050 H 515.857 -1.55642 -2.5635 0
M  V30 5051 H 513.41 -0.842995 -1.31618 0
M  V30 5052 H 514.145 0.95943 -3.09783 0
M  V30 5053 H 513.93 -0.638844 -3.86861 0
M  V30 5054 H 515.42 0.306 -4.16477 0
M  V30 5055 N 515.857 1.33968 -0.830081 0
M  V30 5056 C 516.789 2.28194 -0.21448 0
M  V30 5057 C 517.802 1.5135 0.599752 0
M  V30 5058 O 518.991 1.73286 0.42826 0
M  V30 5059 C 516.091 3.31221 0.717356 0
M  V30 5060 C 515.264 4.37365 -0.055613 0
M  V30 5061 C 514.323 5.2011 0.798231 0
M  V30 5062 O 513.349 5.68691 0.240616 0
M  V30 5063 N 514.551 5.40523 2.11695 0
M  V30 5064 H 517.316 2.81662 -1.02405 0
M  V30 5065 H 514.877 1.46568 -0.687713 0
M  V30 5066 H 516.869 3.83477 1.29334 0
M  V30 5067 H 515.439 2.78095 1.42765 0
M  V30 5068 H 514.659 3.85727 -0.812936 0
M  V30 5069 H 515.947 5.05397 -0.587444 0
M  V30 5070 H 515.345 5.0274 2.59363 0
M  V30 5071 H 513.902 5.95871 2.64162 0
M  V30 5072 N 517.335 0.585699 1.46312 0
M  V30 5073 C 518.583 0.072278 2.01971 0
M  V30 5074 C 518.904 -1.29345 1.45928 0
M  V30 5075 O 518.174 -1.84973 0.645109 0
M  V30 5076 H 516.754 0.023729 0.746623 0
M  V30 5077 H 519.416 0.762155 1.7938 0
M  V30 5078 H 518.512 0.00552767 3.121 0
M  V30 5079 N 518.813 -1.54241 0.323641 0
M  V30 5080 C 520.059 -2.00867 -0.279323 0
M  V30 5081 C 520.392 -1.21146 -1.5178 0
M  V30 5082 O 519.667 -0.29378 -1.92269 0
M  V30 5083 C 519.95 -3.54837 -0.613387 0
M  V30 5084 C 519.803 -4.45284 0.635803 0
M  V30 5085 C 521.122 -4.16186 -1.43099 0
M  V30 5086 H 518.241 -0.730177 -0.100049 0
M  V30 5087 H 520.883 -1.84829 0.440235 0
M  V30 5088 H 519.033 -3.68634 -1.22641 0
M  V30 5089 H 520.705 -4.43357 1.27406 0
M  V30 5090 H 518.948 -4.14956 1.26466 0
M  V30 5091 H 519.619 -5.5084 0.357597 0
M  V30 5092 H 522.095 -4.05964 -0.912814 0
M  V30 5093 H 520.971 -5.24031 -1.6335 0
M  V30 5094 H 521.232 -3.69516 -2.42715 0
M  V30 5095 N 520.291 -0.0518155 -1.57515 0
M  V30 5096 C 521.568 0.661727 -1.84067 0
M  V30 5097 C 521.948 1.88999 -0.940351 0
M  V30 5098 O 521.296 2.285 -0.00155404 0
M  V30 5099 C 521.506 1.01841 -3.3381 0
M  V30 5100 C 522.854 1.40043 -4.00841 0
M  V30 5101 O 523.878 1.11073 -3.38439 0
M  V30 5102 O 522.737 1.94111 -5.10865 0
M  V30 5103 H 519.831 0.326702 -0.759733 0
M  V30 5104 H 522.377 -0.0812277 -1.69505 0
M  V30 5105 H 521.149 0.145202 -3.91031 0
M  V30 5106 H 520.772 1.81879 -3.53562 0
M  V30 5107 N 521.769 1.56035 0.221574 0
M  V30 5108 C 523.18 1.69229 0.788567 0
M  V30 5109 C 523.531 0.653814 1.84986 0
M  V30 5110 O 522.656 -0.195065 2.15519 0
M  V30 5111 C 523.251 3.06809 1.43713 0
M  V30 5112 C 521.81 3.21858 1.95152 0
M  V30 5113 C 520.957 2.65155 0.811685 0
M  V30 5114 H 523.908 1.587 -0.00307894 0
M  V30 5115 H 523.929 3.02666 2.30594 0
M  V30 5116 H 523.441 3.82369 0.664475 0
M  V30 5117 H 521.542 2.51167 2.7522 0
M  V30 5118 H 521.655 4.29073 2.1315 0
M  V30 5119 H 520.019 2.23635 1.21899 0
M  V30 5120 H 520.802 3.43261 0.0516987 0
M  V30 5121 N 523.247 -0.488276 1.49845 0
M  V30 5122 C 524.495 -1.23911 1.59657 0
M  V30 5123 C 524.816 -1.92816 0.291005 0
M  V30 5124 O 524.086 -1.83328 -0.690485 0
M  V30 5125 H 522.666 -0.460357 0.588286 0
M  V30 5126 H 525.328 -0.564794 1.86537 0
M  V30 5127 H 524.424 -1.99625 2.39909 0
M  V30 5128 N 524.725 -1.39134 -0.740242 0
M  V30 5129 C 525.655 -1.40165 -1.86751 0
M  V30 5130 C 526.636 -0.265708 -1.68012 0
M  V30 5131 O 527.821 -0.47076 -1.88408 0
M  V30 5132 C 524.951 -1.2392 -3.2444 0
M  V30 5133 C 523.905 -2.34858 -3.57807 0
M  V30 5134 C 523.231 -2.03707 -4.94376 0
M  V30 5135 C 524.531 -3.77159 -3.61315 0
M  V30 5136 H 526.225 -2.345 -1.86145 0
M  V30 5137 H 523.771 -1.12875 -0.89416 0
M  V30 5138 H 525.724 -1.23263 -4.02969 0
M  V30 5139 H 524.448 -0.26051 -3.25559 0
M  V30 5140 H 523.107 -2.34723 -2.81604 0
M  V30 5141 H 522.755 -1.04289 -4.9207 0
M  V30 5142 H 522.455 -2.78016 -5.17669 0
M  V30 5143 H 523.979 -2.04691 -5.75268 0
M  V30 5144 H 525.393 -3.79252 -4.29931 0
M  V30 5145 H 523.79 -4.50784 -3.96124 0
M  V30 5146 H 524.86 -4.08513 -2.61238 0
M  V30 5147 N 526.204 0.969867 -1.24223 0
M  V30 5148 C 527.167 2.04564 -1.03373 0
M  V30 5149 C 528.167 1.60798 0.00819206 0
M  V30 5150 O 529.357 1.72641 -0.232567 0
M  V30 5151 C 526.489 3.36163 -0.566343 0
M  V30 5152 H 527.682 2.24494 -1.98853 0
M  V30 5153 H 525.235 1.1448 -1.06415 0
M  V30 5154 H 525.97 3.21925 0.391751 0
M  V30 5155 H 525.755 3.69273 -1.31834 0
M  V30 5156 H 527.245 4.1526 -0.441435 0
M  V30 5157 N 527.682 1.05563 1.17022 0
M  V30 5158 C 529.098 0.777684 1.39371 0
M  V30 5159 C 529.298 -0.626269 1.91521 0
M  V30 5160 O 528.354 -1.38806 2.10924 0
M  V30 5161 C 529.667 1.83642 2.3811 0
M  V30 5162 C 531.215 1.85907 2.51809 0
M  V30 5163 C 531.69 2.90813 3.53824 0
M  V30 5164 N 533.181 2.898 3.61345 0
M  V30 5165 C 533.916 3.6762 4.40049 0
M  V30 5166 N 533.412 4.55237 5.22237 0
M  V30 5167 N 535.205 3.56044 4.34959 0
M  V30 5168 H 527.356 1.9614 0.815047 0
M  V30 5169 H 529.619 0.849527 0.420722 0
M  V30 5170 H 529.325 2.84425 2.06871 0
M  V30 5171 H 529.199 1.6812 3.37662 0
M  V30 5172 H 531.586 0.857865 2.82356 0
M  V30 5173 H 531.667 2.05506 1.52318 0
M  V30 5174 H 531.311 3.91122 3.24015 0
M  V30 5175 H 531.241 2.68465 4.53028 0
M  V30 5176 H 533.732 2.26274 3.02669 0
M  V30 5177 H 534.045 5.11291 5.79484 0
M  V30 5178 H 532.39 4.59296 5.21605 0
M  V30 5179 H 535.581 2.86986 3.69806 0
M  V30 5180 H 535.754 4.16938 4.96051 0
M  V30 5181 N 529.16 -1.33526 0.837174 0
M  V30 5182 C 530.123 -2.27551 0.274421 0
M  V30 5183 C 531.123 -1.50886 -0.555881 0
M  V30 5184 O 532.313 -1.70227 -0.369918 0
M  V30 5185 C 529.445 -3.35332 -0.613605 0
M  V30 5186 H 530.638 -2.78837 1.10408 0
M  V30 5187 H 528.191 -1.439 0.610126 0
M  V30 5188 H 528.926 -2.89285 -1.46577 0
M  V30 5189 H 528.711 -3.92095 -0.0195341 0
M  V30 5190 H 530.201 -4.05433 -1.00068 0
M  V30 5191 N 530.638 -0.59345 -1.46 0
M  V30 5192 C 531.568 0.121192 -2.33185 0
M  V30 5193 C 532.549 0.872977 -1.4599 0
M  V30 5194 O 533.734 0.846321 -1.74789 0
M  V30 5195 C 530.864 1.12844 -3.28456 0
M  V30 5196 C 529.818 0.4908 -4.25177 0
M  V30 5197 C 529.144 1.60529 -5.10034 0
M  V30 5198 C 530.444 -0.578949 -5.19081 0
M  V30 5199 H 532.138 -0.606767 -2.93187 0
M  V30 5200 H 529.684 -0.293242 -1.40983 0
M  V30 5201 H 531.637 1.63684 -3.88311 0
M  V30 5202 H 530.361 1.88681 -2.66584 0
M  V30 5203 H 529.02 0.00339328 -3.666 0
M  V30 5204 H 528.668 2.35359 -4.44539 0
M  V30 5205 H 528.368 1.18422 -5.75543 0
M  V30 5206 H 529.892 2.11623 -5.72755 0
M  V30 5207 H 531.306 -0.155199 -5.7309 0
M  V30 5208 H 529.703 -0.920947 -5.92991 0
M  V30 5209 H 530.773 -1.46109 -4.62364 0
M  V30 5210 N 532.116 1.54067 -0.331816 0
M  V30 5211 C 533.356 2.02625 0.26876 0
M  V30 5212 C 533.72 1.21462 1.48697 0
M  V30 5213 O 534.921 1.59863 2.16096 0
M  V30 5214 C 533.192 3.52554 0.586577 0
M  V30 5215 S 534.751 4.23035 1.16563 0
M  V30 5216 H 531.569 0.706395 0.0807862 0
M  V30 5217 H 534.171 1.89844 -0.466856 0
M  V30 5218 H 532.875 4.09242 -0.308046 0
M  V30 5219 H 532.406 3.69432 1.35217 0
M  V30 5220 H 534.421 4.31382 2.45203 0
M  V30 5221 N 533.594 0.0601682 1.57485 0
M  V30 5222 C 534.819 -0.624416 1.97777 0
M  V30 5223 C 535.244 -1.63051 0.937867 0
M  V30 5224 O 534.602 -1.81036 -0.0978845 0
M  V30 5225 C 534.65 -1.27979 3.37126 0
M  V30 5226 O 533.754 -2.39556 3.35688 0
M  V30 5227 H 533.095 -0.161581 0.64404 0
M  V30 5228 H 535.625 0.131237 2.04179 0
M  V30 5229 H 535.635 -1.62937 3.74053 0
M  V30 5230 H 534.31 -0.542501 4.12347 0
M  V30 5231 H 532.887 -2.06478 3.10517 0
M  V30 5232 N 535.072 -1.5615 -0.213296 0
M  V30 5233 C 536.32 -1.79191 -0.934612 0
M  V30 5234 C 536.641 -0.630112 -1.84539 0
M  V30 5235 O 535.911 0.35257 -1.92701 0
M  V30 5236 H 534.491 -0.660937 -0.348097 0
M  V30 5237 H 537.153 -1.93618 -0.22317 0
M  V30 5238 H 536.249 -2.71656 -1.53654 0
M  V30 5239 N 536.55 0.480323 -1.50102 0
M  V30 5240 C 537.775 1.26126 -1.64642 0
M  V30 5241 C 538.2 1.85257 -0.325823 0
M  V30 5242 O 537.558 1.66854 0.709194 0
M  V30 5243 C 537.606 2.35243 -2.73301 0
M  V30 5244 O 536.71 3.39646 -2.33911 0
M  V30 5245 H 536.051 0.371463 -0.550374 0
M  V30 5246 H 538.581 0.572696 -1.96421 0
M  V30 5247 H 538.591 2.80695 -2.96098 0
M  V30 5248 H 537.266 1.91574 -3.6915 0
M  V30 5249 H 535.843 2.99969 -2.21525 0
M  V30 5250 N 538.028 1.39524 0.732853 0
M  V30 5251 C 539.439 1.32905 1.31122 0
M  V30 5252 C 539.79 -0.00558708 1.96199 0
M  V30 5253 O 538.915 -0.907706 1.96443 0
M  V30 5254 C 539.51 2.40704 2.38426 0
M  V30 5255 C 538.069 2.37599 2.91931 0
M  V30 5256 C 537.216 2.2248 1.65523 0
M  V30 5257 H 540.167 1.49581 0.530207 0
M  V30 5258 H 540.188 2.07616 3.18867 0
M  V30 5259 H 539.7 3.37829 1.91033 0
M  V30 5260 H 537.801 1.44119 3.43599 0
M  V30 5261 H 537.914 3.32538 3.44899 0
M  V30 5262 H 536.278 1.69691 1.8994 0
M  V30 5263 H 537.061 3.21577 1.20178 0
M  V30 5264 N 539.506 -0.963266 1.24736 0
M  V30 5265 C 540.469 -2.04013 1.04457 0
M  V30 5266 C 541.469 -1.608 0.000335555 0
M  V30 5267 O 542.659 -1.72515 0.241719 0
M  V30 5268 C 539.791 -3.35858 0.584162 0
M  V30 5269 H 540.984 -2.23436 2.00041 0
M  V30 5270 H 538.537 -1.13914 1.07021 0
M  V30 5271 H 539.272 -3.22128 -0.374673 0
M  V30 5272 H 539.057 -3.68568 1.3379 0
M  V30 5273 H 540.547 -4.1502 0.463451 0
M  V30 5274 N 540.985 -1.06182 -1.16461 0
M  V30 5275 C 541.895 -0.682671 -2.24448 0
M  V30 5276 C 542.911 0.30078 -1.71381 0
M  V30 5277 O 544.087 0.150376 -2.00838 0
M  V30 5278 C 541.152 -0.0737202 -3.46622 0
M  V30 5279 C 540.213 -1.10889 -4.14731 0
M  V30 5280 C 539.446 -0.528908 -5.31073 0
M  V30 5281 O 539.669 0.65868 -5.66584 0
M  V30 5282 O 538.603 -1.26805 -5.88391 0
M  V30 5283 H 542.429 -1.58291 -2.59187 0
M  V30 5284 H 540.014 -0.834013 -1.23954 0
M  V30 5285 H 541.896 0.264192 -4.20571 0
M  V30 5286 H 540.571 0.800015 -3.13658 0
M  V30 5287 H 539.478 -1.49896 -3.42756 0
M  V30 5288 H 540.811 -1.95412 -4.51747 0
M  V30 5289 N 542.463 1.3308 -0.844243 0
M  V30 5290 C 543.879 1.50447 -0.532729 0
M  V30 5291 C 544.079 1.78292 0.938837 0
M  V30 5292 O 543.135 1.84635 1.72239 0
M  V30 5293 C 544.448 2.65555 -1.41072 0
M  V30 5294 C 545.996 2.7944 -1.41005 0
M  V30 5295 C 546.471 3.97616 -2.27301 0
M  V30 5296 N 547.962 4.0486 -2.2504 0
M  V30 5297 C 548.697 4.95508 -2.88547 0
M  V30 5298 N 548.193 5.91236 -3.61126 0
M  V30 5299 N 549.986 4.88548 -2.77989 0
M  V30 5300 H 542.137 1.13269 -1.79677 0
M  V30 5301 H 544.4 0.55734 -0.766861 0
M  V30 5302 H 544.106 2.51675 -2.45668 0
M  V30 5303 H 543.98 3.61089 -1.09061 0
M  V30 5304 H 546.367 2.92749 -0.371784 0
M  V30 5305 H 546.448 1.8465 -1.77026 0
M  V30 5306 H 546.092 3.85066 -3.3119 0
M  V30 5307 H 546.022 4.91661 -1.88619 0
M  V30 5308 H 548.513 3.36353 -1.72264 0
M  V30 5309 H 548.826 6.57079 -4.06776 0
M  V30 5310 H 547.171 5.91295 -3.65234 0
M  V30 5311 H 550.362 4.12729 -2.20846 0
M  V30 5312 H 550.535 5.58994 -3.27765 0
M  V30 5313 N 543.941 0.601185 1.45683 0
M  V30 5314 C 545.357 0.264315 1.57396 0
M  V30 5315 C 545.557 -1.23324 1.59353 0
M  V30 5316 O 544.613 -2.01594 1.52039 0
M  V30 5317 C 545.926 0.929839 2.85962 0
M  V30 5318 C 547.474 0.905156 2.99626 0
M  V30 5319 C 547.949 1.55057 4.30954 0
M  V30 5320 N 549.44 1.51576 4.37697 0
M  V30 5321 C 550.175 1.98436 5.37969 0
M  V30 5322 N 549.671 2.53352 6.44813 0
M  V30 5323 N 551.464 1.89242 5.29286 0
M  V30 5324 H 543.615 1.57363 1.42656 0
M  V30 5325 H 545.878 0.658831 0.681649 0
M  V30 5326 H 545.584 1.98404 2.90394 0
M  V30 5327 H 545.458 0.449224 3.74515 0
M  V30 5328 H 547.845 -0.14048 2.94765 0
M  V30 5329 H 547.926 1.42397 2.12501 0
M  V30 5330 H 547.57 2.5955 4.36573 0
M  V30 5331 H 547.5 1.00682 5.16886 0
M  V30 5332 H 549.991 1.11452 3.61091 0
M  V30 5333 H 550.304 2.86918 7.17564 0
M  V30 5334 H 548.649 2.57388 6.45582 0
M  V30 5335 H 551.84 1.46083 4.44722 0
M  V30 5336 H 552.013 2.26075 6.07284 0
M  V30 5337 N 545.419 -1.53889 0.339982 0
M  V30 5338 C 546.351 -2.22435 -0.55275 0
M  V30 5339 C 547.364 -1.22975 -1.06681 0
M  V30 5340 O 548.553 -1.49351 -0.977575 0
M  V30 5341 C 545.653 -2.8882 -1.77302 0
M  V30 5342 C 544.826 -4.14563 -1.39486 0
M  V30 5343 C 543.885 -4.64391 -2.47442 0
M  V30 5344 O 542.911 -5.28687 -2.10899 0
M  V30 5345 N 544.113 -4.40015 -3.78639 0
M  V30 5346 H 546.878 -2.9968 0.0342669 0
M  V30 5347 H 544.439 -1.61068 0.16394 0
M  V30 5348 H 546.431 -3.19072 -2.48948 0
M  V30 5349 H 545.001 -2.15182 -2.26749 0
M  V30 5350 H 544.221 -3.90896 -0.509321 0
M  V30 5351 H 545.509 -4.96362 -1.11813 0
M  V30 5352 H 544.907 -3.88586 -4.11118 0
M  V30 5353 H 543.464 -4.74881 -4.46465 0
M  V30 5354 N 546.897 -0.0685191 -1.57451 0
M  V30 5355 C 547.827 0.89747 -2.15564 0
M  V30 5356 C 548.808 1.31266 -1.08181 0
M  V30 5357 O 549.993 1.38429 -1.36202 0
M  V30 5358 C 547.123 2.16623 -2.71463 0
M  V30 5359 C 546.077 1.89054 -3.83982 0
M  V30 5360 C 545.403 3.22532 -4.26471 0
M  V30 5361 C 546.703 1.1984 -5.08366 0
M  V30 5362 H 548.397 0.413373 -2.96533 0
M  V30 5363 H 545.943 0.197391 -1.42641 0
M  V30 5364 H 547.896 2.84614 -3.10761 0
M  V30 5365 H 546.62 2.67269 -1.8771 0
M  V30 5366 H 545.279 1.23469 -3.45183 0
M  V30 5367 H 544.927 3.71013 -3.39644 0
M  V30 5368 H 544.627 3.04879 -5.02317 0
M  V30 5369 H 546.151 3.91727 -4.68383 0
M  V30 5370 H 547.565 1.77896 -5.45001 0
M  V30 5371 H 545.962 1.12456 -5.89469 0
M  V30 5372 H 547.032 0.176996 -4.84577 0
M  V30 5373 N 548.375 1.56261 0.205012 0
M  V30 5374 C 549.305 1.96779 1.257 0
M  V30 5375 C 550.286 0.838309 1.48008 0
M  V30 5376 O 551.471 1.10189 1.59913 0
M  V30 5377 C 548.601 2.29876 2.60335 0
M  V30 5378 C 547.555 3.45469 2.52656 0
M  V30 5379 C 546.881 3.64215 3.91473 0
M  V30 5380 C 548.181 4.79954 2.06014 0
M  V30 5381 H 549.875 2.84904 0.920338 0
M  V30 5382 H 547.421 1.37072 0.441277 0
M  V30 5383 H 549.374 2.56814 3.34102 0
M  V30 5384 H 548.098 1.38622 2.95722 0
M  V30 5385 H 546.757 3.18605 1.81345 0
M  V30 5386 H 546.405 2.70309 4.24196 0
M  V30 5387 H 546.105 4.41973 3.87213 0
M  V30 5388 H 547.629 3.93519 4.66878 0
M  V30 5389 H 549.043 5.05989 2.69533 0
M  V30 5390 H 547.44 5.61111 2.12777 0
M  V30 5391 H 548.51 4.74201 1.01297 0
M  V30 5392 N 549.853 -0.472356 1.50355 0
M  V30 5393 C 551.264 -1.05326 1.54154 0
M  V30 5394 C 551.615 -1.93155 0.344303 0
M  V30 5395 O 550.74 -2.09479 -0.542928 0
M  V30 5396 C 551.335 -1.91691 2.79356 0
M  V30 5397 C 549.894 -2.44892 2.8584 0
M  V30 5398 C 549.041 -1.23205 2.48426 0
M  V30 5399 H 551.992 -0.255027 1.56637 0
M  V30 5400 H 552.013 -2.76742 2.6114 0
M  V30 5401 H 551.525 -1.27741 3.66475 0
M  V30 5402 H 549.626 -3.12399 2.0307 0
M  V30 5403 H 549.739 -2.80086 3.88701 0
M  V30 5404 H 548.103 -1.56643 2.00836 0
M  V30 5405 H 548.886 -0.609194 3.37852 0
M  V30 5406 N 551.331 -1.39911 -0.725443 0
M  V30 5407 C 552.747 -1.21725 -1.03224 0
M  V30 5408 C 552.947 -0.0855224 -2.01318 0
M  V30 5409 O 552.003 0.55976 -2.46217 0
M  V30 5410 C 553.316 -2.55511 -1.58539 0
M  V30 5411 C 554.864 -2.62439 -1.70572 0
M  V30 5412 C 555.339 -3.9647 -2.29294 0
M  V30 5413 N 556.83 -3.98159 -2.36692 0
M  V30 5414 C 557.565 -4.98647 -2.83088 0
M  V30 5415 N 557.061 -6.0953 -3.2931 0
M  V30 5416 N 558.854 -4.8602 -2.82384 0
M  V30 5417 H 551.005 -2.12267 -0.075048 0
M  V30 5418 H 553.268 -0.943136 -0.0959066 0
M  V30 5419 H 552.974 -3.38926 -0.939249 0
M  V30 5420 H 552.848 -2.75905 -2.57208 0
M  V30 5421 H 555.235 -1.79401 -2.34306 0
M  V30 5422 H 555.316 -2.45885 -0.705297 0
M  V30 5423 H 554.96 -4.79942 -1.66186 0
M  V30 5424 H 554.89 -4.10349 -3.30032 0
M  V30 5425 H 557.381 -3.18085 -2.04035 0
M  V30 5426 H 557.694 -6.82106 -3.6325 0
M  V30 5427 H 556.039 -6.1311 -3.27294 0
M  V30 5428 H 559.23 -3.98493 -2.45603 0
M  V30 5429 H 559.403 -5.64478 -3.18226 0
M  V30 5430 N 552.809 0.956637 -1.25245 0
M  V30 5431 C 553.772 2.03457 -1.05537 0
M  V30 5432 C 554.772 1.60798 -0.00886317 0
M  V30 5433 O 555.962 1.72384 -0.250865 0
M  V30 5434 C 553.094 3.35543 -0.601965 0
M  V30 5435 H 554.287 2.22372 -2.01223 0
M  V30 5436 H 551.84 1.13344 -1.07623 0
M  V30 5437 H 552.575 3.22323 0.357584 0
M  V30 5438 H 552.36 3.67854 -1.35743 0
M  V30 5439 H 553.85 4.14769 -0.485454 0
M  V30 5440 N 554.287 1.06798 1.15896 0
M  V30 5441 C 555.703 0.792423 1.38538 0
M  V30 5442 C 555.903 -0.60592 1.92174 0
M  V30 5443 O 554.959 -1.36561 2.12385 0
M  V30 5444 C 556.272 1.86157 2.36149 0
M  V30 5445 C 557.82 1.88567 2.49823 0
M  V30 5446 C 558.295 2.9455 3.5072 0
M  V30 5447 N 559.786 2.93616 3.58251 0
M  V30 5448 C 560.521 3.72267 4.36125 0
M  V30 5449 N 560.017 4.60751 5.17379 0
M  V30 5450 N 561.81 3.60637 4.31158 0
M  V30 5451 H 553.961 1.96993 0.794198 0
M  V30 5452 H 556.224 0.853942 0.411688 0
M  V30 5453 H 555.93 2.86603 2.03843 0
M  V30 5454 H 555.804 1.71692 3.3586 0
M  V30 5455 H 558.191 0.887765 2.8143 0
M  V30 5456 H 558.272 2.0711 1.5013 0
M  V30 5457 H 557.916 3.94537 3.19849 0
M  V30 5458 H 557.846 2.73255 4.50155 0
M  V30 5459 H 560.337 2.29472 3.00252 0
M  V30 5460 H 560.65 5.17408 5.74028 0
M  V30 5461 H 558.995 4.64803 5.16704 0
M  V30 5462 H 562.186 2.90892 3.66742 0
M  V30 5463 H 562.359 4.22176 4.91601 0
M  V30 5464 N 555.766 -1.3263 0.851289 0
M  V30 5465 C 556.676 -2.32722 0.296268 0
M  V30 5466 C 557.692 -1.63901 -0.584162 0
M  V30 5467 O 558.868 -1.95465 -0.485334 0
M  V30 5468 C 555.933 -3.42942 -0.509103 0
M  V30 5469 C 554.994 -4.2746 0.397069 0
M  V30 5470 C 554.227 -5.32416 -0.36996 0
M  V30 5471 O 554.45 -5.47491 -1.6003 0
M  V30 5472 O 553.384 -6.01327 0.262493 0
M  V30 5473 H 557.21 -2.82078 1.12543 0
M  V30 5474 H 554.795 -1.36194 0.614135 0
M  V30 5475 H 556.677 -4.1017 -0.96634 0
M  V30 5476 H 555.352 -2.95781 -1.31512 0
M  V30 5477 H 554.259 -3.63053 0.902411 0
M  V30 5478 H 555.592 -4.78136 1.16818 0
M  V30 5479 N 557.244 -0.608902 -1.45362 0
M  V30 5480 C 558.176 0.147318 -2.28726 0
M  V30 5481 C 559.189 0.830468 -1.40025 0
M  V30 5482 O 560.378 0.695636 -1.64387 0
M  V30 5483 C 557.478 1.22968 -3.15804 0
M  V30 5484 C 556.651 0.633391 -4.3279 0
M  V30 5485 C 555.71 1.60682 -5.01067 0
M  V30 5486 O 554.736 1.13261 -5.57818 0
M  V30 5487 N 555.938 2.94123 -5.00472 0
M  V30 5488 H 558.703 -0.568014 -2.94268 0
M  V30 5489 H 556.264 -0.448479 -1.55564 0
M  V30 5490 H 558.256 1.88072 -3.58345 0
M  V30 5491 H 556.826 1.84752 -2.52162 0
M  V30 5492 H 556.046 -0.195762 -3.93714 0
M  V30 5493 H 557.334 0.215255 -5.08344 0
M  V30 5494 H 556.732 3.3525 -4.55657 0
M  V30 5495 H 555.289 3.54646 -5.46872 0
M  V30 5496 N 558.722 1.53707 -0.348139 0
M  V30 5497 C 559.632 2.28881 0.514857 0
M  V30 5498 C 560.648 1.34168 1.10793 0
M  V30 5499 O 561.824 1.6721 1.12262 0
M  V30 5500 C 558.889 3.05042 1.64774 0
M  V30 5501 C 557.95 4.15389 1.08398 0
M  V30 5502 C 557.183 4.87909 2.16287 0
M  V30 5503 O 557.406 4.60137 3.3709 0
M  V30 5504 O 556.34 5.74254 1.80323 0
M  V30 5505 H 560.166 3.03547 -0.0963699 0
M  V30 5506 H 557.751 1.48972 -0.113043 0
M  V30 5507 H 559.633 3.52656 2.30677 0
M  V30 5508 H 558.308 2.33228 2.24469 0
M  V30 5509 H 557.215 3.72068 0.389341 0
M  V30 5510 H 558.548 4.89318 0.531829 0
M  V30 5511 N 560.2 0.0768682 1.57412 0
M  V30 5512 C 561.11 -0.903207 2.16516 0
M  V30 5513 C 562.126 -1.32341 1.12968 0
M  V30 5514 O 563.302 -1.39507 1.45258 0
M  V30 5515 C 560.367 -2.1508 2.71922 0
M  V30 5516 C 559.428 -1.78653 3.90361 0
M  V30 5517 C 558.661 -2.97465 4.43114 0
M  V30 5518 O 558.884 -4.11638 3.94854 0
M  V30 5519 O 557.818 -2.76987 5.3438 0
M  V30 5520 H 561.644 -0.430427 3.00634 0
M  V30 5521 H 559.229 -0.146485 1.4868 0
M  V30 5522 H 561.111 -2.8823 3.07411 0
M  V30 5523 H 559.786 -2.61446 1.9086 0
M  V30 5524 H 558.693 -1.0274 3.59716 0
M  V30 5525 H 560.026 -1.37066 4.7273 0
M  V30 5526 N 561.678 -1.56367 -0.196722 0
M  V30 5527 C 562.608 -1.97442 -1.24655 0
M  V30 5528 C 563.589 -0.846147 -1.47561 0
M  V30 5529 O 564.774 -1.11035 -1.59326 0
M  V30 5530 C 561.904 -2.31253 -2.59112 0
M  V30 5531 C 560.858 -3.46804 -2.50821 0
M  V30 5532 C 560.184 -3.66286 -3.89536 0
M  V30 5533 C 561.484 -4.8104 -2.03465 0
M  V30 5534 H 563.178 -2.85388 -0.905216 0
M  V30 5535 H 560.724 -1.37304 -0.434002 0
M  V30 5536 H 562.677 -2.58583 -3.32736 0
M  V30 5537 H 561.401 -1.40188 -2.94983 0
M  V30 5538 H 560.06 -3.19563 -1.79653 0
M  V30 5539 H 559.708 -2.72555 -4.22756 0
M  V30 5540 H 559.408 -4.4402 -3.84864 0
M  V30 5541 H 560.932 -3.9599 -4.64784 0
M  V30 5542 H 562.346 -5.07411 -2.66846 0
M  V30 5543 H 560.743 -5.62232 -2.09798 0
M  V30 5544 H 561.813 -4.74732 -0.98781 0
M  V30 5545 N 563.156 0.464375 -1.50603 0
M  V30 5546 C 564.086 1.56944 -1.72889 0
M  V30 5547 C 565.067 1.59979 -0.577997 0
M  V30 5548 O 566.252 1.76138 -0.817855 0
M  V30 5549 C 563.382 2.95225 -1.8292 0
M  V30 5550 C 562.336 3.07056 -2.98162 0
M  V30 5551 C 561.662 4.47051 -2.93343 0
M  V30 5552 C 562.962 2.83648 -4.38567 0
M  V30 5553 H 564.656 1.38547 -2.65415 0
M  V30 5554 H 562.202 0.665082 -1.27721 0
M  V30 5555 H 564.155 3.72467 -1.97095 0
M  V30 5556 H 562.879 3.14793 -0.870209 0
M  V30 5557 H 561.538 2.32248 -2.83648 0
M  V30 5558 H 561.186 4.63547 -1.95276 0
M  V30 5559 H 560.886 4.55902 -3.70712 0
M  V30 5560 H 562.41 5.26304 -3.09575 0
M  V30 5561 H 563.824 3.50636 -4.53572 0
M  V30 5562 H 562.221 3.03937 -5.17438 0
M  V30 5563 H 563.291 1.79451 -4.50472 0
M  V30 5564 N 564.634 1.40294 0.718013 0
M  V30 5565 C 565.597 1.4012 1.81381 0
M  V30 5566 C 566.597 0.295405 1.58063 0
M  V30 5567 O 567.787 0.554187 1.6515 0
M  V30 5568 C 564.919 1.19056 3.19435 0
M  V30 5569 H 566.112 2.37645 1.82933 0
M  V30 5570 H 563.665 1.26107 0.923405 0
M  V30 5571 H 564.4 0.222809 3.23534 0
M  V30 5572 H 564.185 1.99152 3.37758 0
M  V30 5573 H 565.675 1.21716 3.99468 0
M  V30 5574 N 566.112 -0.949982 1.2575 0
M  V30 5575 C 567.523 -1.50989 1.09815 0
M  V30 5576 C 567.874 -1.93497 -0.324556 0
M  V30 5577 O 566.999 -1.79068 -1.21506 0
M  V30 5578 C 567.594 -2.74394 1.98729 0
M  V30 5579 C 566.153 -3.26682 1.86965 0
M  V30 5580 C 565.3 -1.99498 1.92603 0
M  V30 5581 H 568.251 -0.766387 1.38968 0
M  V30 5582 H 568.272 -3.48383 1.53001 0
M  V30 5583 H 567.784 -2.43425 3.02268 0
M  V30 5584 H 565.885 -3.62461 0.863279 0
M  V30 5585 H 565.998 -3.94383 2.72027 0
M  V30 5586 H 564.362 -2.15005 1.36546 0
M  V30 5587 H 565.145 -1.70871 2.97755 0
M  V30 5588 N 567.59 -1.07411 -1.15328 0
M  V30 5589 C 568.553 -0.698914 -2.18284 0
M  V30 5590 C 569.553 0.261149 -1.58665 0
M  V30 5591 O 570.743 0.0420277 -1.74149 0
M  V30 5592 C 567.875 -0.0302427 -3.40887 0
M  V30 5593 H 569.068 -1.61045 -2.52991 0
M  V30 5594 H 566.621 -0.870724 -1.298 0
M  V30 5595 H 567.356 0.893505 -3.11748 0
M  V30 5596 H 567.141 -0.720759 -3.85419 0
M  V30 5597 H 568.631 0.21759 -4.17033 0
M  V30 5598 N 569.068 1.32177 -0.85831 0
M  V30 5599 C 570.345 1.91781 -0.384624 0
M  V30 5600 C 570.725 1.78171 1.13217 0
M  V30 5601 O 570.073 1.18209 1.95548 0
M  V30 5602 C 570.283 3.38414 -0.853047 0
M  V30 5603 C 571.631 4.15542 -0.872359 0
M  V30 5604 O 572.655 3.47148 -0.797926 0
M  V30 5605 O 571.514 5.37678 -0.978009 0
M  V30 5606 H 568.608 0.819259 -0.112886 0
M  V30 5607 H 571.154 1.40923 -0.945453 0
M  V30 5608 H 569.926 3.4228 -1.89632 0
M  V30 5609 H 569.549 3.96683 -0.269874 0
M  V30 5610 N 570.547 0.616602 1.45037 0
M  V30 5611 C 571.795 0.115103 2.01772 0
M  V30 5612 C 572.116 -1.2622 1.48639 0
M  V30 5613 O 571.386 -1.83563 0.684199 0
M  V30 5614 H 569.966 0.0395607 0.745952 0
M  V30 5615 H 572.628 0.800032 1.77723 0
M  V30 5616 H 571.724 0.0717274 3.12018 0
M  V30 5617 N 572.025 -1.5352 0.356285 0
M  V30 5618 C 573.253 -2.05534 -0.237328 0
M  V30 5619 C 573.668 -1.23043 -1.43199 0
M  V30 5620 O 573.025 -0.268821 -1.80509 0
M  V30 5621 C 573.076 -3.55791 -0.639933 0
M  V30 5622 O 572.797 -4.35154 0.507233 0
M  V30 5623 C 574.298 -4.24027 -1.29292 0
M  V30 5624 H 571.518 -0.669585 -0.0435572 0
M  V30 5625 H 574.062 -1.97988 0.511963 0
M  V30 5626 H 572.217 -3.63518 -1.33915 0
M  V30 5627 H 572.631 -5.24178 0.18375 0
M  V30 5628 H 574.105 -5.30509 -1.52527 0
M  V30 5629 H 574.582 -3.77166 -2.25039 0
M  V30 5630 H 575.188 -4.20527 -0.63539 0
M  V30 5631 N 573.503 -0.0852151 -1.57369 0
M  V30 5632 C 574.749 0.581666 -1.94279 0
M  V30 5633 C 575.082 1.68444 -0.966446 0
M  V30 5634 O 574.357 1.945 0.00215277 0
M  V30 5635 C 574.64 1.14609 -3.41375 0
M  V30 5636 C 574.493 0.0490414 -4.49773 0
M  V30 5637 C 575.812 2.04751 -3.8957 0
M  V30 5638 H 572.931 0.209972 -0.706456 0
M  V30 5639 H 575.573 -0.153915 -1.89376 0
M  V30 5640 H 573.723 1.77297 -3.45685 0
M  V30 5641 H 575.395 -0.584721 -4.57579 0
M  V30 5642 H 573.638 -0.618638 -4.29366 0
M  V30 5643 H 574.309 0.484601 -5.49869 0
M  V30 5644 H 576.785 1.51981 -3.87351 0
M  V30 5645 H 575.661 2.41173 -4.93079 0
M  V30 5646 H 575.922 2.96107 -3.28288 0
M  V30 5647 N 574.981 1.5647 0.188427 0
M  V30 5648 C 575.891 1.98285 1.2538 0
M  V30 5649 C 576.907 0.891535 1.49424 0
M  V30 5650 O 578.083 1.19782 1.61908 0
M  V30 5651 C 575.148 2.31965 2.57669 0
M  V30 5652 C 574.209 3.54838 2.41638 0
M  V30 5653 C 573.442 3.86901 3.67618 0
M  V30 5654 O 573.665 3.20163 4.72072 0
M  V30 5655 O 572.599 4.80309 3.62749 0
M  V30 5656 H 576.425 2.89145 0.928912 0
M  V30 5657 H 574.01 1.44112 0.393955 0
M  V30 5658 H 575.892 2.54673 3.35737 0
M  V30 5659 H 574.567 1.44271 2.89771 0
M  V30 5660 H 573.474 3.37369 1.61658 0
M  V30 5661 H 574.807 4.43019 2.14465 0
M  V30 5662 N 576.459 -0.456382 1.50847 0
M  V30 5663 C 577.389 -1.56025 1.73719 0
M  V30 5664 C 578.37 -1.5967 0.586473 0
M  V30 5665 O 579.555 -1.75702 0.827185 0
M  V30 5666 C 576.685 -2.94251 1.84483 0
M  V30 5667 C 575.639 -3.05471 2.99786 0
M  V30 5668 C 574.965 -4.45489 2.95709 0
M  V30 5669 C 576.265 -2.81318 4.40065 0
M  V30 5670 H 577.959 -1.37138 2.66146 0
M  V30 5671 H 575.505 -0.658299 1.28072 0
M  V30 5672 H 577.458 -3.71417 1.99067 0
M  V30 5673 H 576.182 -3.14328 0.886891 0
M  V30 5674 H 574.841 -2.30741 2.84876 0
M  V30 5675 H 574.489 -4.62505 1.97732 0
M  V30 5676 H 574.189 -4.53929 3.73125 0
M  V30 5677 H 575.713 -5.24655 3.12362 0
M  V30 5678 H 577.127 -3.48226 4.55425 0
M  V30 5679 H 575.524 -3.01188 5.19043 0
M  V30 5680 H 576.594 -1.7706 4.51418 0
M  V30 5681 N 577.937 -1.40673 -0.710563 0
M  V30 5682 C 579.183 -1.39428 -1.47267 0
M  V30 5683 C 579.516 0.00182129 -1.942 0
M  V30 5684 O 578.791 0.971387 -1.68506 0
M  V30 5685 C 579.074 -2.38812 -2.6952 0
M  V30 5686 C 578.927 -3.87467 -2.28449 0
M  V30 5687 C 580.246 -2.3566 -3.71689 0
M  V30 5688 H 577.365 -0.507768 -0.534173 0
M  V30 5689 H 580.007 -1.71843 -0.810547 0
M  V30 5690 H 578.157 -2.113 -3.26013 0
M  V30 5691 H 579.829 -4.25825 -1.77399 0
M  V30 5692 H 578.072 -4.03058 -1.60395 0
M  V30 5693 H 578.743 -4.5253 -3.16103 0
M  V30 5694 H 581.219 -2.6004 -3.24836 0
M  V30 5695 H 580.095 -3.07237 -4.54859 0
M  V30 5696 H 580.356 -1.36996 -4.20339 0
M  V30 5697 N 579.415 0.9433 -1.26252 0
M  V30 5698 C 580.831 1.21644 -1.03319 0
M  V30 5699 C 581.031 2.0003 0.242983 0
M  V30 5700 O 580.087 2.33838 0.952688 0
M  V30 5701 C 581.4 1.97978 -2.2633 0
M  V30 5702 C 582.948 2.10978 -2.31209 0
M  V30 5703 C 583.423 2.90713 -3.53907 0
M  V30 5704 N 584.914 2.98287 -3.54371 0
M  V30 5705 C 585.649 3.60406 -4.45976 0
M  V30 5706 N 585.145 4.24043 -5.47868 0
M  V30 5707 N 586.938 3.57658 -4.33633 0
M  V30 5708 H 579.089 0.419221 -2.08222 0
M  V30 5709 H 581.352 0.247995 -0.914988 0
M  V30 5710 H 581.058 1.47788 -3.19142 0
M  V30 5711 H 580.932 2.9865 -2.30408 0
M  V30 5712 H 583.319 2.6036 -1.38913 0
M  V30 5713 H 583.4 1.09575 -2.31143 0
M  V30 5714 H 583.044 2.42018 -4.46531 0
M  V30 5715 H 582.974 3.92367 -3.5122 0
M  V30 5716 H 585.465 2.53044 -2.80673 0
M  V30 5717 H 585.778 4.69334 -6.13959 0
M  V30 5718 H 584.123 4.22637 -5.51728 0
M  V30 5719 H 587.314 3.07134 -3.53251 0
M  V30 5720 H 587.487 4.05782 -5.05218 0
M  V30 5721 N 580.893 1.08022 1.14757 0
M  V30 5722 C 581.856 0.71048 2.1791 0
M  V30 5723 C 582.856 -0.252731 1.58801 0
M  V30 5724 O 584.046 -0.0327915 1.74169 0
M  V30 5725 C 581.178 0.0483203 3.40866 0
M  V30 5726 H 582.371 1.62384 2.52134 0
M  V30 5727 H 579.924 0.877595 1.29337 0
M  V30 5728 H 580.659 -0.876959 3.12218 0
M  V30 5729 H 580.444 0.741189 3.85031 0
M  V30 5730 H 581.934 -0.195471 4.17142 0
M  V30 5731 N 582.371 -1.3172 0.865308 0
M  V30 5732 C 583.301 -2.31109 0.333302 0
M  V30 5733 C 584.282 -1.60148 -0.573301 0
M  V30 5734 O 585.467 -1.87882 -0.491305 0
M  V30 5735 C 582.597 -3.44104 -0.470078 0
M  V30 5736 C 581.551 -4.26623 0.343021 0
M  V30 5737 C 580.877 -5.31482 -0.585756 0
M  V30 5738 C 582.177 -4.98001 1.57456 0
M  V30 5739 H 583.871 -2.75855 1.1638 0
M  V30 5740 H 581.417 -1.3262 0.561069 0
M  V30 5741 H 583.37 -4.12682 -0.852752 0
M  V30 5742 H 582.094 -2.98112 -1.33404 0
M  V30 5743 H 580.753 -3.59707 0.707583 0
M  V30 5744 H 580.401 -4.81741 -1.44686 0
M  V30 5745 H 580.101 -5.87582 -0.0456494 0
M  V30 5746 H 581.625 -6.0292 -0.965375 0
M  V30 5747 H 583.039 -5.59201 1.26359 0
M  V30 5748 H 581.436 -5.63876 2.05339 0
M  V30 5749 H 582.506 -4.25253 2.32997 0
M  V30 5750 N 583.85 -0.624285 -1.44708 0
M  V30 5751 C 585.26 -0.2092 -1.85524 0
M  V30 5752 C 585.611 1.23783 -1.52225 0
M  V30 5753 O 584.736 1.94089 -0.956986 0
M  V30 5754 C 585.332 -0.372897 -3.36742 0
M  V30 5755 C 583.891 -0.012374 -3.76398 0
M  V30 5756 C 583.038 -0.68951 -2.68591 0
M  V30 5757 H 585.989 -0.829894 -1.35272 0
M  V30 5758 H 586.01 0.390134 -3.78495 0
M  V30 5759 H 585.522 -1.42615 -3.60947 0
M  V30 5760 H 583.623 1.03941 -3.57809 0
M  V30 5761 H 583.736 -0.417663 -4.77276 0
M  V30 5762 H 582.1 -0.125484 -2.54391 0
M  V30 5763 H 582.883 -1.74522 -2.9563 0
M  V30 5764 N 585.328 1.53329 -0.364422 0
M  V30 5765 C 586.258 2.28627 0.474543 0
M  V30 5766 C 587.239 1.31009 1.08492 0
M  V30 5767 O 588.424 1.59878 1.10239 0
M  V30 5768 C 585.554 3.07465 1.61501 0
M  V30 5769 C 584.508 4.1276 1.13194 0
M  V30 5770 C 583.834 4.79674 2.36255 0
M  V30 5771 C 585.134 5.21847 0.217507 0
M  V30 5772 H 586.828 2.99005 -0.153656 0
M  V30 5773 H 584.374 1.43803 -0.0753406 0
M  V30 5774 H 586.327 3.58889 2.20855 0
M  V30 5775 H 585.051 2.34775 2.27042 0
M  V30 5776 H 583.71 3.62281 0.56109 0
M  V30 5777 H 583.358 4.03557 3.00251 0
M  V30 5778 H 583.058 5.50827 2.04606 0
M  V30 5779 H 584.582 5.33892 2.96297 0
M  V30 5780 H 585.996 5.6878 0.718493 0
M  V30 5781 H 584.393 6.00099 -0.00806408 0
M  V30 5782 H 585.463 4.7921 -0.740653 0
M  V30 5783 N 586.806 0.0935595 1.57322 0
M  V30 5784 C 587.769 -0.851426 2.12799 0
M  V30 5785 C 588.769 -1.21187 1.0569 0
M  V30 5786 O 589.959 -1.14156 1.31583 0
M  V30 5787 C 587.091 -2.14779 2.64731 0
M  V30 5788 H 588.284 -0.369733 2.97612 0
M  V30 5789 H 585.837 -0.155417 1.55525 0
M  V30 5790 H 586.572 -2.67437 1.83434 0
M  V30 5791 H 586.357 -1.89907 3.43042 0
M  V30 5792 H 587.847 -2.82383 3.07651 0
M  V30 5793 N 588.284 -1.56567 -0.180126 0
M  V30 5794 C 589.214 -1.98753 -1.22553 0
M  V30 5795 C 590.195 -0.86175 -1.46656 0
M  V30 5796 O 591.38 -1.12719 -1.58139 0
M  V30 5797 C 588.51 -2.33988 -2.56645 0
M  V30 5798 C 587.464 -3.49445 -2.47128 0
M  V30 5799 C 586.79 -3.70397 -3.8563 0
M  V30 5800 C 588.09 -4.83171 -1.98352 0
M  V30 5801 H 589.784 -2.86332 -0.874896 0
M  V30 5802 H 587.33 -1.37757 -0.419414 0
M  V30 5803 H 589.283 -2.62097 -3.29974 0
M  V30 5804 H 588.007 -1.43309 -2.93479 0
M  V30 5805 H 586.666 -3.2145 -1.76254 0
M  V30 5806 H 586.314 -2.77023 -4.19842 0
M  V30 5807 H 586.014 -4.48077 -3.80132 0
M  V30 5808 H 587.538 -4.00897 -4.60558 0
M  V30 5809 H 588.952 -5.10213 -2.61449 0
M  V30 5810 H 587.349 -5.64425 -2.03823 0
M  V30 5811 H 588.419 -4.75753 -0.937402 0
M  V30 5812 N 589.762 0.448376 -1.51087 0
M  V30 5813 C 591.008 1.20049 -1.6345 0
M  V30 5814 C 591.341 1.91121 -0.344444 0
M  V30 5815 O 590.616 1.83125 0.655396 0
M  V30 5816 C 590.899 2.22624 -2.83038 0
M  V30 5817 C 590.752 1.55708 -4.21989 0
M  V30 5818 C 592.071 3.23718 -2.98152 0
M  V30 5819 H 589.19 0.435085 -0.59487 0
M  V30 5820 H 591.832 0.491183 -1.83541 0
M  V30 5821 H 589.982 2.83117 -2.66039 0
M  V30 5822 H 591.654 0.986367 -4.50631 0
M  V30 5823 H 589.897 0.859647 -4.25197 0
M  V30 5824 H 590.568 2.30357 -5.01637 0
M  V30 5825 H 593.044 2.73269 -3.13788 0
M  V30 5826 H 591.92 3.92795 -3.83411 0
M  V30 5827 H 592.181 3.89179 -2.09743 0
M  V30 5828 N 591.24 1.41047 0.703093 0
M  V30 5829 C 592.17 1.45067 1.82969 0
M  V30 5830 C 593.151 0.31016 1.67248 0
M  V30 5831 O 594.336 0.520548 1.87093 0
M  V30 5832 C 591.466 1.32478 3.2104 0
M  V30 5833 C 590.42 2.44262 3.51454 0
M  V30 5834 C 589.746 2.16742 4.88801 0
M  V30 5835 C 591.046 3.86606 3.51189 0
M  V30 5836 H 592.74 2.39353 1.79863 0
M  V30 5837 H 590.286 1.15206 0.863919 0
M  V30 5838 H 592.239 1.33904 3.99559 0
M  V30 5839 H 590.963 0.346735 3.24754 0
M  V30 5840 H 589.622 2.42107 2.75282 0
M  V30 5841 H 589.27 1.17299 4.89132 0
M  V30 5842 H 588.97 2.91643 5.10116 0
M  V30 5843 H 590.494 2.19872 5.69639 0
M  V30 5844 H 591.908 3.90517 4.19725 0
M  V30 5845 H 590.305 4.61128 3.84033 0
M  V30 5846 H 591.375 4.15296 2.50315 0
M  V30 5847 N 592.718 -0.936591 1.26751 0
M  V30 5848 C 593.668 -2.0219 1.05371 0
M  V30 5849 C 594.652 -1.60893 -0.0154112 0
M  V30 5850 O 595.844 -1.75843 0.202085 0
M  V30 5851 C 592.973 -3.36222 0.693541 0
M  V30 5852 C 592.059 -3.8399 1.80035 0
M  V30 5853 N 592.45 -4.0436 3.03852 0
M  V30 5854 C 590.748 -4.12945 1.685 0
M  V30 5855 C 591.449 -4.44 3.75818 0
M  V30 5856 N 590.425 -4.50966 3.03531 0
M  V30 5857 H 594.227 -2.15958 1.99347 0
M  V30 5858 H 591.741 -1.12277 1.17335 0
M  V30 5859 H 593.738 -4.13625 0.521513 0
M  V30 5860 H 592.398 -3.23821 -0.238693 0
M  V30 5861 H 593.409 -3.9092 3.39709 0
M  V30 5862 H 590.086 -4.09308 0.822986 0
M  V30 5863 H 591.476 -4.67914 4.82189 0
M  V30 5864 N 594.196 -1.08629 -1.14182 0
M  V30 5865 C 595.106 -0.730126 -2.22949 0
M  V30 5866 C 596.122 0.26436 -1.7198 0
M  V30 5867 O 597.298 0.107742 -2.01112 0
M  V30 5868 C 594.363 -0.147227 -3.46387 0
M  V30 5869 C 593.424 -1.19662 -4.12286 0
M  V30 5870 C 592.657 -0.641437 -5.29831 0
M  V30 5871 O 592.88 0.538351 -5.67854 0
M  V30 5872 O 591.814 -1.39257 -5.85569 0
M  V30 5873 H 595.64 -1.63753 -2.55771 0
M  V30 5874 H 593.225 -0.860118 -1.22157 0
M  V30 5875 H 595.107 0.174923 -4.21037 0
M  V30 5876 H 593.782 0.733304 -3.15285 0
M  V30 5877 H 592.689 -1.57133 -3.395 0
M  V30 5878 H 594.022 -2.0495 -4.475 0
M  V30 5879 N 595.674 1.31259 -0.872281 0
M  V30 5880 C 596.604 2.30929 -0.345554 0
M  V30 5881 C 597.585 1.60449 0.5648 0
M  V30 5882 O 598.77 1.8814 0.481335 0
M  V30 5883 C 595.9 3.44348 0.451823 0
M  V30 5884 C 594.854 4.26435 -0.365641 0
M  V30 5885 C 594.18 5.31785 0.557562 0
M  V30 5886 C 595.48 4.97159 -1.60095 0
M  V30 5887 H 597.174 2.75234 -1.17841 0
M  V30 5888 H 594.72 1.3232 -0.568094 0
M  V30 5889 H 596.673 4.13128 0.830854 0
M  V30 5890 H 595.397 2.98816 1.31821 0
M  V30 5891 H 594.056 3.59326 -0.726649 0
M  V30 5892 H 593.704 4.82502 1.4213 0
M  V30 5893 H 593.404 5.87598 0.0144878 0
M  V30 5894 H 594.928 6.03424 0.933387 0
M  V30 5895 H 596.342 5.58523 -1.29323 0
M  V30 5896 H 594.739 5.62779 -2.08327 0
M  V30 5897 H 595.809 4.24012 -2.35249 0
M  V30 5898 N 597.152 0.631951 1.44375 0
M  V30 5899 C 598.4 0.136497 2.01639 0
M  V30 5900 C 598.721 -1.24637 1.49969 0
M  V30 5901 O 597.991 -1.82827 0.70363 0
M  V30 5902 H 596.571 0.0474703 0.74549 0
M  V30 5903 H 599.233 0.818837 1.76865 0
M  V30 5904 H 598.329 0.104817 3.11924 0
M  V30 5905 N 598.631 -1.53133 0.372548 0
M  V30 5906 C 599.594 -2.24569 -0.458389 0
M  V30 5907 C 600.594 -1.25603 -1.00402 0
M  V30 5908 O 601.784 -1.49827 -0.888672 0
M  V30 5909 C 598.916 -2.98783 -1.6414 0
M  V30 5910 H 600.109 -2.99436 0.166799 0
M  V30 5911 H 597.662 -1.55805 0.124357 0
M  V30 5912 H 598.397 -2.28176 -2.30448 0
M  V30 5913 H 598.182 -3.71404 -1.25704 0
M  V30 5914 H 599.672 -3.53068 -2.23008 0
M  V30 5915 N 600.109 -0.101901 -1.5727 0
M  V30 5916 C 601.357 0.559091 -1.94213 0
M  V30 5917 C 601.678 1.68297 -0.984948 0
M  V30 5918 O 600.948 1.95863 -0.0381975 0
M  V30 5919 H 599.528 0.20952 -0.717015 0
M  V30 5920 H 602.19 -0.166831 -1.94185 0
M  V30 5921 H 601.286 0.96485 -2.96811 0
M  V30 5922 N 601.587 1.56661 0.17182 0
M  V30 5923 C 603.003 1.50768 0.52357 0
M  V30 5924 C 603.203 0.806072 1.84675 0
M  V30 5925 O 602.259 0.366233 2.4983 0
M  V30 5926 C 603.572 2.955 0.556793 0
M  V30 5927 C 605.12 3.06303 0.644029 0
M  V30 5928 C 605.595 4.52492 0.708148 0
M  V30 5929 N 607.086 4.56737 0.771051 0
M  V30 5930 C 607.821 5.67196 0.841229 0
M  V30 5931 N 607.317 6.87287 0.872272 0
M  V30 5932 N 609.11 5.55165 0.88021 0
M  V30 5933 H 601.261 2.00679 -0.695817 0
M  V30 5934 H 603.524 0.914219 -0.250814 0
M  V30 5935 H 603.23 3.49986 -0.346774 0
M  V30 5936 H 603.104 3.50119 1.40346 0
M  V30 5937 H 605.491 2.51851 1.53802 0
M  V30 5938 H 605.572 2.5477 -0.229297 0
M  V30 5939 H 605.216 5.07575 -0.181585 0
M  V30 5940 H 605.146 5.01781 1.59761 0
M  V30 5941 H 607.637 3.70274 0.755364 0
M  V30 5942 H 607.95 7.6722 0.92698 0
M  V30 5943 H 606.295 6.89898 0.840557 0
M  V30 5944 H 609.486 4.60263 0.852956 0
M  V30 5945 H 609.659 6.41271 0.931439 0
M  V30 5946 N 603.065 -0.440357 1.51323 0
M  V30 5947 C 604.29 -1.21716 1.67928 0
M  V30 5948 C 604.715 -1.84328 0.374826 0
M  V30 5949 O 604.073 -1.68675 -0.664706 0
M  V30 5950 C 604.121 -2.27914 2.79442 0
M  V30 5951 O 603.225 -3.33325 2.42834 0
M  V30 5952 H 602.566 -0.35674 0.560029 0
M  V30 5953 H 605.096 -0.520417 1.97871 0
M  V30 5954 H 605.106 -2.72746 3.03436 0
M  V30 5955 H 603.781 -1.8172 3.741 0
M  V30 5956 H 602.358 -2.9399 2.294 0
M  V30 5957 N 604.543 -1.41418 -0.695603 0
M  V30 5958 C 605.959 -1.23887 -1.00619 0
M  V30 5959 C 606.159 -0.128206 -2.01092 0
M  V30 5960 O 605.215 0.507408 -2.47349 0
M  V30 5961 C 606.528 -2.58816 -1.53083 0
M  V30 5962 C 608.076 -2.65998 -1.64967 0
M  V30 5963 C 608.551 -4.01244 -2.20833 0
M  V30 5964 N 610.042 -4.0309 -2.28194 0
M  V30 5965 C 610.777 -5.04539 -2.72448 0
M  V30 5966 N 610.273 -6.16378 -3.16306 0
M  V30 5967 N 612.066 -4.91901 -2.72011 0
M  V30 5968 H 604.217 -2.12379 -0.0300061 0
M  V30 5969 H 606.48 -0.944958 -0.0758797 0
M  V30 5970 H 606.186 -3.40842 -0.867147 0
M  V30 5971 H 606.06 -2.81299 -2.51298 0
M  V30 5972 H 608.447 -1.84331 -2.30448 0
M  V30 5973 H 608.528 -2.47325 -0.652982 0
M  V30 5974 H 608.172 -4.83359 -1.55968 0
M  V30 5975 H 608.102 -4.17257 -3.21254 0
M  V30 5976 H 610.593 -3.22341 -1.97242 0
M  V30 5977 H 610.906 -6.89658 -3.487 0
M  V30 5978 H 609.251 -6.19914 -3.14215 0
M  V30 5979 H 612.442 -4.03613 -2.37095 0
M  V30 5980 H 612.615 -5.71102 -3.06181 0
M  V30 5981 N 606.021 0.929856 -1.27246 0
M  V30 5982 C 606.984 2.01172 -1.09829 0
M  V30 5983 C 607.984 1.60743 -0.0429687 0
M  V30 5984 O 609.174 1.71813 -0.287373 0
M  V30 5985 C 606.306 3.34191 -0.673003 0
M  V30 5986 H 607.499 2.18054 -2.05895 0
M  V30 5987 H 605.052 1.11036 -1.10003 0
M  V30 5988 H 605.787 3.23009 0.289134 0
M  V30 5989 H 605.572 3.64892 -1.43515 0
M  V30 5990 H 607.062 4.13646 -0.573323 0
M  V30 5991 N 607.499 1.09233 1.13605 0
M  V30 5992 C 608.747 0.825525 1.84471 0
M  V30 5993 C 609.068 -0.650702 1.83823 0
M  V30 5994 O 608.338 -1.47204 1.29259 0
M  V30 5995 H 606.918 0.3024 0.683054 0
M  V30 5996 H 609.58 1.38006 1.37624 0
M  V30 5997 H 608.676 1.17727 2.89045 0
M  V30 5998 N 608.977 -1.30795 0.87923 0
M  V30 5999 C 609.887 -2.32041 0.345565 0
M  V30 6000 C 610.903 -1.65103 -0.549265 0
M  V30 6001 O 612.079 -1.9645 -0.443763 0
M  V30 6002 C 609.144 -3.43944 -0.436245 0
M  V30 6003 C 608.205 -4.26521 0.48765 0
M  V30 6004 C 607.438 -5.33081 -0.256943 0
M  V30 6005 O 607.661 -5.50762 -1.48381 0
M  V30 6006 O 606.595 -6.00635 0.389985 0
M  V30 6007 H 610.421 -2.79627 1.18501 0
M  V30 6008 H 608.006 -1.3486 0.642885 0
M  V30 6009 H 609.888 -4.12128 -0.879119 0
M  V30 6010 H 608.563 -2.98504 -1.25208 0
M  V30 6011 H 607.47 -3.61057 0.979216 0
M  V30 6012 H 608.803 -4.75551 1.26933 0
M  V30 6013 N 610.455 -0.639598 -1.44038 0
M  V30 6014 C 611.866 -0.228866 -1.85292 0
M  V30 6015 C 612.217 1.22161 -1.53529 0
M  V30 6016 O 611.342 1.93064 -0.977518 0
M  V30 6017 C 611.937 -0.408592 -3.36327 0
M  V30 6018 C 610.496 -0.0522953 -3.76364 0
M  V30 6019 C 609.643 -0.717959 -2.67844 0
M  V30 6020 H 612.594 -0.844194 -1.34384 0
M  V30 6021 H 612.615 0.349968 -3.78887 0
M  V30 6022 H 612.127 -1.46435 -3.59414 0
M  V30 6023 H 610.228 1.0014 -3.58891 0
M  V30 6024 H 610.341 -0.468261 -4.76806 0
M  V30 6025 H 608.705 -0.152459 -2.54243 0
M  V30 6026 H 609.488 -1.77648 -2.93762 0
M  V30 6027 N 611.933 1.52934 -0.380664 0
M  V30 6028 C 612.863 2.29118 0.450268 0
M  V30 6029 C 613.844 1.32153 1.07096 0
M  V30 6030 O 615.029 1.61038 1.08537 0
M  V30 6031 C 612.159 3.09161 1.58231 0
M  V30 6032 C 611.113 4.13938 1.0881 0
M  V30 6033 C 610.439 4.82153 2.31155 0
M  V30 6034 C 611.739 5.22048 0.162146 0
M  V30 6035 H 613.433 2.98826 -0.185361 0
M  V30 6036 H 610.979 1.43715 -0.0905886 0
M  V30 6037 H 612.932 3.61211 2.17036 0
M  V30 6038 H 611.656 2.3717 2.2454 0
M  V30 6039 H 610.315 3.62855 0.522633 0
M  V30 6040 H 609.963 4.06719 2.95953 0
M  V30 6041 H 609.663 5.52966 1.98752 0
M  V30 6042 H 611.187 5.37004 2.90618 0
M  V30 6043 H 612.601 5.6951 0.658126 0
M  V30 6044 H 610.998 6.00057 -0.0717122 0
M  V30 6045 H 612.068 4.78398 -0.791438 0
M  V30 6046 N 613.412 0.11024 1.57214 0
M  V30 6047 C 614.828 -0.24638 1.57687 0
M  V30 6048 C 615.028 -1.67344 1.12241 0
M  V30 6049 O 614.084 -2.39298 0.805783 0
M  V30 6050 C 615.397 -0.0210288 3.00693 0
M  V30 6051 C 616.945 -0.0876077 3.12877 0
M  V30 6052 C 617.42 0.10994 4.57868 0
M  V30 6053 N 618.911 0.0556135 4.63167 0
M  V30 6054 C 619.646 0.183495 5.73106 0
M  V30 6055 N 619.142 0.367058 6.91827 0
M  V30 6056 N 620.935 0.123689 5.61964 0
M  V30 6057 H 613.086 1.04246 1.85058 0
M  V30 6058 H 615.349 0.40979 0.854854 0
M  V30 6059 H 615.055 0.965203 3.38196 0
M  V30 6060 H 614.929 -0.756748 3.69531 0
M  V30 6061 H 617.316 -1.06436 2.75237 0
M  V30 6062 H 617.397 0.67985 2.466 0
M  V30 6063 H 617.041 1.08362 4.96206 0
M  V30 6064 H 616.971 -0.677397 5.22225 0
M  V30 6065 H 619.462 -0.0831062 3.77809 0
M  V30 6066 H 619.775 0.455739 7.71455 0
M  V30 6067 H 618.12 0.40292 6.93831 0
M  V30 6068 H 621.311 -0.0186928 4.68096 0
M  V30 6069 H 621.484 0.226797 6.47603 0
M  V30 6070 N 614.89 -1.56749 -0.16351 0
M  V30 6071 C 615.82 -2.00042 -1.20438 0
M  V30 6072 C 616.801 -0.877256 -1.45733 0
M  V30 6073 O 617.986 -1.1439 -1.56935 0
M  V30 6074 C 615.116 -2.36697 -2.54149 0
M  V30 6075 C 614.07 -3.52046 -2.43408 0
M  V30 6076 C 613.396 -3.74466 -3.81679 0
M  V30 6077 C 614.696 -4.85247 -1.93216 0
M  V30 6078 H 616.39 -2.87244 -0.844477 0
M  V30 6079 H 613.936 -1.38194 -0.40478 0
M  V30 6080 H 615.889 -2.65582 -3.27176 0
M  V30 6081 H 614.613 -1.46414 -2.91943 0
M  V30 6082 H 613.272 -3.23301 -1.72834 0
M  V30 6083 H 612.92 -2.81461 -4.1688 0
M  V30 6084 H 612.62 -4.52084 -3.75359 0
M  V30 6085 H 614.144 -4.0576 -4.5628 0
M  V30 6086 H 615.558 -5.12957 -2.56023 0
M  V30 6087 H 613.955 -5.66556 -1.97825 0
M  V30 6088 H 615.025 -4.7672 -0.88689 0
M  V30 6089 N 616.368 0.432326 -1.51554 0
M  V30 6090 C 617.616 1.17901 -1.64146 0
M  V30 6091 C 617.937 1.91604 -0.362367 0
M  V30 6092 O 617.207 1.85764 0.621968 0
M  V30 6093 H 615.787 0.438206 -0.604966 0
M  V30 6094 H 618.449 0.495172 -1.88505 0
M  V30 6095 H 617.545 1.90584 -2.47152 0
M  V30 6096 N 617.846 1.41785 0.688094 0
M  V30 6097 C 619.092 1.41753 1.4503 0
M  V30 6098 C 619.425 0.0290745 1.94178 0
M  V30 6099 O 618.7 -0.944456 1.7003 0
M  V30 6100 C 618.983 2.43069 2.65686 0
M  V30 6101 C 618.836 3.91053 2.22256 0
M  V30 6102 C 620.155 2.41543 3.67893 0
M  V30 6103 H 617.274 0.516202 0.526027 0
M  V30 6104 H 619.916 1.73111 0.783105 0
M  V30 6105 H 618.066 2.1646 3.2261 0
M  V30 6106 H 619.738 4.28594 1.70602 0
M  V30 6107 H 617.981 4.05559 1.53963 0
M  V30 6108 H 618.652 4.57501 3.08863 0
M  V30 6109 H 621.128 2.65175 3.20658 0
M  V30 6110 H 620.004 3.14434 4.49914 0
M  V30 6111 H 620.265 1.43666 4.18106 0
M  V30 6112 N 619.324 -0.923095 1.27737 0
M  V30 6113 C 620.572 -1.66797 1.14119 0
M  V30 6114 C 620.893 -1.92479 -0.312541 0
M  V30 6115 O 620.163 -1.53432 -1.218 0
M  V30 6116 H 618.743 -0.618196 0.419336 0
M  V30 6117 H 621.405 -1.10815 1.60331 0
M  V30 6118 H 620.501 -2.63424 1.67374 0
M  V30 6119 N 620.802 -1.09834 -1.13024 0
M  V30 6120 C 621.765 -0.745058 -2.16752 0
M  V30 6121 C 622.765 0.227435 -1.59183 0
M  V30 6122 O 623.955 0.0050786 -1.74199 0
M  V30 6123 C 621.087 -0.102543 -3.40746 0
M  V30 6124 H 622.28 -1.66375 -2.49518 0
M  V30 6125 H 619.833 -0.898061 -1.27924 0
M  V30 6126 H 620.568 0.827177 -3.13573 0
M  V30 6127 H 620.353 -0.80235 -3.83803 0
M  V30 6128 H 621.843 0.129082 -4.174 0
M  V30 6129 N 622.28 1.30327 -0.886154 0
M  V30 6130 C 623.19 2.31854 -0.357866 0
M  V30 6131 C 624.206 1.65392 0.540502 0
M  V30 6132 O 625.382 1.96683 0.433339 0
M  V30 6133 C 622.447 3.44171 0.417999 0
M  V30 6134 C 621.508 4.26257 -0.510263 0
M  V30 6135 C 620.741 5.3321 0.228669 0
M  V30 6136 O 620.964 5.51542 1.45458 0
M  V30 6137 O 619.898 6.0042 -0.421832 0
M  V30 6138 H 623.724 2.78995 -1.19982 0
M  V30 6139 H 621.309 1.34518 -0.650028 0
M  V30 6140 H 623.191 4.12588 0.857251 0
M  V30 6141 H 621.866 2.99164 1.23623 0
M  V30 6142 H 620.773 3.60533 -0.99835 0
M  V30 6143 H 622.106 4.74871 -1.29454 0
M  V30 6144 N 623.758 0.647228 1.43697 0
M  V30 6145 C 624.688 -0.0345631 2.33474 0
M  V30 6146 C 625.669 -0.818193 1.4913 0
M  V30 6147 O 626.854 -0.780867 1.77809 0
M  V30 6148 C 623.984 -1.00576 3.32418 0
M  V30 6149 C 622.938 -0.33266 4.26705 0
M  V30 6150 C 622.264 -1.41489 5.1564 0
M  V30 6151 C 623.564 0.771204 5.16575 0
M  V30 6152 H 625.258 0.715163 2.90733 0
M  V30 6153 H 622.804 0.345364 1.39797 0
M  V30 6154 H 624.757 -1.49159 3.94119 0
M  V30 6155 H 623.481 -1.78657 2.73403 0
M  V30 6156 H 622.14 0.13267 3.6636 0
M  V30 6157 H 621.788 -2.18698 4.52968 0
M  V30 6158 H 621.488 -0.969799 5.79542 0
M  V30 6159 H 623.012 -1.9022 5.80214 0
M  V30 6160 H 624.426 0.36779 5.72119 0
M  V30 6161 H 622.823 1.1404 5.89165 0
M  V30 6162 H 623.893 1.63169 4.56622 0
M  V30 6163 N 625.236 -1.5273 0.388769 0
M  V30 6164 C 626.166 -2.29353 -0.438111 0
M  V30 6165 C 627.147 -1.32719 -1.06394 0
M  V30 6166 O 628.332 -1.61612 -1.07681 0
M  V30 6167 C 625.462 -3.09995 -1.56589 0
M  V30 6168 C 624.416 -4.14509 -1.06613 0
M  V30 6169 C 623.742 -4.83372 -2.28594 0
M  V30 6170 C 625.042 -5.22127 -0.134459 0
M  V30 6171 H 626.736 -2.98723 0.201206 0
M  V30 6172 H 624.282 -1.43665 0.0982089 0
M  V30 6173 H 626.235 -3.62357 -2.15118 0
M  V30 6174 H 624.959 -2.38357 -2.23279 0
M  V30 6175 H 623.618 -3.63128 -0.503383 0
M  V30 6176 H 623.266 -4.08283 -2.93792 0
M  V30 6177 H 622.966 -5.54012 -1.95817 0
M  V30 6178 H 624.49 -5.38538 -2.87766 0
M  V30 6179 H 625.904 -5.69851 -0.627914 0
M  V30 6180 H 624.301 -6.00011 0.103534 0
M  V30 6181 H 625.371 -4.77971 0.816798 0
M  V30 6182 N 626.714 -0.118576 -1.57153 0
M  V30 6183 C 627.96 0.540326 -1.95469 0
M  V30 6184 C 628.293 1.66356 -1.00196 0
M  V30 6185 O 627.568 1.94461 -0.039104 0
M  V30 6186 C 627.851 1.07342 -3.43729 0
M  V30 6187 C 627.704 -0.0463732 -4.49776 0
M  V30 6188 C 629.023 1.96442 -3.93826 0
M  V30 6189 H 626.142 0.19494 -0.710751 0
M  V30 6190 H 628.784 -0.19405 -1.89006 0
M  V30 6191 H 626.934 1.69925 -3.49368 0
M  V30 6192 H 628.606 -0.681648 -4.56236 0
M  V30 6193 H 626.849 -0.709574 -4.27957 0
M  V30 6194 H 627.52 0.367856 -5.50773 0
M  V30 6195 H 629.996 1.43731 -3.90488 0
M  V30 6196 H 628.872 2.3066 -4.98084 0
M  V30 6197 H 629.133 2.89077 -3.34495 0
M  V30 6198 N 628.193 1.56834 0.155195 0
M  V30 6199 C 629.47 1.73799 0.897395 0
M  V30 6200 C 629.85 0.684379 1.99698 0
M  V30 6201 O 629.198 -0.298111 2.26547 0
M  V30 6202 C 629.408 3.17572 1.44737 0
M  V30 6203 C 630.756 3.79014 1.91399 0
M  V30 6204 O 631.78 3.20951 1.54496 0
M  V30 6205 O 630.639 4.80998 2.59429 0
M  V30 6206 H 627.733 0.710329 0.423511 0
M  V30 6207 H 630.279 1.69107 0.141761 0
M  V30 6208 H 629.051 3.85749 0.656741 0
M  V30 6209 H 628.674 3.26657 2.26674 0
M  V30 6210 N 629.671 -0.424282 1.51781 0
M  V30 6211 C 630.917 -1.17434 1.6534 0
M  V30 6212 C 631.25 -1.90549 0.374806 0
M  V30 6213 O 630.525 -1.84145 -0.626179 0
M  V30 6214 C 630.808 -2.18093 2.86544 0
M  V30 6215 C 630.661 -1.48975 4.24413 0
M  V30 6216 C 631.98 -3.18934 3.03264 0
M  V30 6217 H 629.099 -0.425566 0.601716 0
M  V30 6218 H 631.741 -0.461921 1.84299 0
M  V30 6219 H 629.891 -2.78849 2.7051 0
M  V30 6220 H 631.563 -0.914551 4.52143 0
M  V30 6221 H 629.806 -0.791893 4.26511 0
M  V30 6222 H 630.477 -2.22347 5.05238 0
M  V30 6223 H 632.953 -2.68243 3.18096 0
M  V30 6224 H 631.829 -3.86645 3.89611 0
M  V30 6225 H 632.09 -3.85793 2.15908 0
M  V30 6226 N 631.149 -1.42148 -0.680565 0
M  V30 6227 C 632.397 -1.42029 -1.43779 0
M  V30 6228 C 632.718 -0.0356347 -1.94967 0
M  V30 6229 O 631.988 0.924936 -1.7269 0
M  V30 6230 H 630.568 -0.522835 -0.533529 0
M  V30 6231 H 633.23 -1.7752 -0.804538 0
M  V30 6232 H 632.326 -2.11658 -2.29363 0
M  V30 6233 N 632.627 0.916307 -1.28225 0
M  V30 6234 C 633.559 2.02303 -1.07732 0
M  V30 6235 C 634.572 1.62773 -0.0298421 0
M  V30 6236 O 635.761 1.76406 -0.272626 0
M  V30 6237 C 632.861 3.33282 -0.614504 0
M  V30 6238 C 632.034 4.01439 -1.73682 0
M  V30 6239 C 631.093 5.10698 -1.26781 0
M  V30 6240 O 630.119 5.34038 -1.96958 0
M  V30 6241 N 631.321 5.80355 -0.129624 0
M  V30 6242 H 634.086 2.20442 -2.03041 0
M  V30 6243 H 631.647 1.08744 -1.19943 0
M  V30 6244 H 633.639 4.03699 -0.284397 0
M  V30 6245 H 632.209 3.11633 0.245664 0
M  V30 6246 H 631.429 3.24604 -2.23665 0
M  V30 6247 H 632.717 4.43721 -2.48976 0
M  V30 6248 H 632.115 5.6386 0.455847 0
M  V30 6249 H 630.672 6.51647 0.141224 0
M  V30 6250 N 634.105 1.10431 1.1244 0
M  V30 6251 C 635.521 0.836096 1.35947 0
M  V30 6252 C 635.721 -0.544475 1.94004 0
M  V30 6253 O 634.777 -1.29735 2.16622 0
M  V30 6254 C 636.09 1.93575 2.30107 0
M  V30 6255 C 637.638 1.9642 2.43697 0
M  V30 6256 C 638.113 3.05559 3.41171 0
M  V30 6257 N 639.604 3.04865 3.48728 0
M  V30 6258 C 640.339 3.85954 4.24061 0
M  V30 6259 N 639.835 4.76977 5.02458 0
M  V30 6260 N 641.628 3.74172 4.19466 0
M  V30 6261 H 633.779 1.9942 0.731124 0
M  V30 6262 H 636.042 0.866607 0.384312 0
M  V30 6263 H 635.748 2.92943 1.94621 0
M  V30 6264 H 635.622 1.8229 3.30227 0
M  V30 6265 H 638.009 0.97685 2.78463 0
M  V30 6266 H 638.09 2.11782 1.43465 0
M  V30 6267 H 637.734 4.04513 3.07135 0
M  V30 6268 H 637.664 2.87438 4.41234 0
M  V30 6269 H 640.155 2.38908 2.92799 0
M  V30 6270 H 640.468 5.35409 5.57277 0
M  V30 6271 H 638.813 4.81006 5.01655 0
M  V30 6272 H 642.004 3.02412 3.57302 0
M  V30 6273 H 642.177 4.37602 4.77921 0
M  V30 6274 N 635.583 -1.29855 0.893053 0
M  V30 6275 C 636.513 -2.3035 0.382249 0
M  V30 6276 C 637.494 -1.61328 -0.539203 0
M  V30 6277 O 638.679 -1.88882 -0.451342 0
M  V30 6278 C 635.809 -3.45024 -0.396983 0
M  V30 6279 C 634.763 -4.258 0.433437 0
M  V30 6280 C 634.089 -5.32605 -0.472889 0
M  V30 6281 C 635.389 -4.94549 1.67984 0
M  V30 6282 H 637.083 -2.73325 1.22205 0
M  V30 6283 H 634.629 -1.314 0.589073 0
M  V30 6284 H 636.582 -4.14398 -0.765024 0
M  V30 6285 H 635.306 -3.00875 -1.2705 0
M  V30 6286 H 633.965 -3.58125 0.783723 0
M  V30 6287 H 633.613 -4.84702 -1.34435 0
M  V30 6288 H 633.313 -5.87547 0.0789958 0
M  V30 6289 H 634.837 -6.04832 -0.837269 0
M  V30 6290 H 636.251 -5.56395 1.38192 0
M  V30 6291 H 634.648 -5.59393 2.17254 0
M  V30 6292 H 635.718 -4.20215 2.41965 0
M  V30 6293 N 637.061 -0.65484 -1.43351 0
M  V30 6294 C 638.477 -0.32255 -1.56307 0
M  V30 6295 C 638.677 1.17324 -1.63821 0
M  V30 6296 O 637.733 1.95813 -1.59417 0
M  V30 6297 C 639.046 -1.03533 -2.82314 0
M  V30 6298 C 640.594 -1.01574 -2.9606 0
M  V30 6299 C 641.069 -1.70945 -4.24902 0
M  V30 6300 N 642.56 -1.67716 -4.3177 0
M  V30 6301 C 643.295 -2.18265 -5.30234 0
M  V30 6302 N 642.791 -2.7711 -6.34966 0
M  V30 6303 N 644.584 -2.08756 -5.21898 0
M  V30 6304 H 636.735 -1.62549 -1.36717 0
M  V30 6305 H 638.998 -0.683676 -0.656727 0
M  V30 6306 H 638.704 -2.09045 -2.8283 0
M  V30 6307 H 638.578 -0.587913 -3.7259 0
M  V30 6308 H 640.965 0.0309834 -2.95084 0
M  V30 6309 H 641.046 -1.50186 -2.07069 0
M  V30 6310 H 640.69 -2.75574 -4.26639 0
M  V30 6311 H 640.62 -1.19797 -5.12793 0
M  V30 6312 H 643.111 -1.24777 -3.56706 0
M  V30 6313 H 643.424 -3.13353 -7.06421 0
M  V30 6314 H 641.769 -2.81171 -6.35585 0
M  V30 6315 H 644.96 -1.62488 -4.38994 0
M  V30 6316 H 645.133 -2.48459 -5.98475 0
M  V30 6317 N 638.539 1.52521 -0.396863 0
M  V30 6318 C 639.955 1.5953 -0.0471659 0
M  V30 6319 C 640.155 1.41044 1.43906 0
M  V30 6320 O 639.211 1.23122 2.20448 0
M  V30 6321 C 640.524 2.95972 -0.531113 0
M  V30 6322 C 642.072 3.09172 -0.488024 0
M  V30 6323 C 642.547 4.48075 -0.948281 0
M  V30 6324 N 644.038 4.54281 -0.9046 0
M  V30 6325 C 644.773 5.60007 -1.23205 0
M  V30 6326 N 644.269 6.73343 -1.63036 0
M  V30 6327 N 646.062 5.50151 -1.15282 0
M  V30 6328 H 638.213 1.62786 -1.36435 0
M  V30 6329 H 640.476 0.76514 -0.559701 0
M  V30 6330 H 640.182 3.14741 -1.56942 0
M  V30 6331 H 640.056 3.77143 0.0657922 0
M  V30 6332 H 642.443 2.90095 0.541211 0
M  V30 6333 H 642.524 2.29937 -1.12083 0
M  V30 6334 H 642.168 4.67894 -1.97578 0
M  V30 6335 H 642.098 5.25788 -0.292412 0
M  V30 6336 H 644.589 3.72918 -0.6116 0
M  V30 6337 H 644.902 7.49992 -1.86365 0
M  V30 6338 H 643.247 6.74655 -1.66929 0
M  V30 6339 H 646.438 4.6049 -0.840602 0
M  V30 6340 H 646.611 6.32444 -1.41133 0
M  V30 6341 N 640.017 0.126909 1.57088 0
M  V30 6342 C 641.265 -0.528123 1.95078 0
M  V30 6343 C 641.586 -1.66708 1.0116 0
M  V30 6344 O 640.856 -1.95777 0.0693527 0
M  V30 6345 H 639.436 -0.198087 0.720257 0
M  V30 6346 H 642.098 0.197703 1.93895 0
M  V30 6347 H 641.194 -0.917507 2.98309 0
M  V30 6348 N 641.495 -1.56914 -0.146875 0
M  V30 6349 C 642.723 -1.87515 -0.874394 0
M  V30 6350 C 643.138 -0.715116 -1.74733 0
M  V30 6351 O 642.495 0.315113 -1.79759 0
M  V30 6352 C 642.546 -3.17362 -1.731 0
M  V30 6353 O 642.267 -4.28897 -0.893245 0
M  V30 6354 C 643.768 -3.61479 -2.56609 0
M  V30 6355 H 640.988 -0.621546 -0.252827 0
M  V30 6356 H 643.532 -2.04023 -0.139627 0
M  V30 6357 H 641.687 -3.02608 -2.41883 0
M  V30 6358 H 642.101 -5.03146 -1.48137 0
M  V30 6359 H 643.575 -4.5517 -3.12289 0
M  V30 6360 H 644.052 -2.86773 -3.32653 0
M  V30 6361 H 644.658 -3.78927 -1.93117 0
M  V30 6362 N 642.974 0.416227 -1.52004 0
M  V30 6363 C 644.385 0.995319 -1.57957 0
M  V30 6364 C 644.736 1.91744 -0.415754 0
M  V30 6365 O 643.861 2.11349 0.464808 0
M  V30 6366 C 644.456 1.81191 -2.86278 0
M  V30 6367 C 643.015 2.34115 -2.94732 0
M  V30 6368 C 642.162 1.139 -2.52828 0
M  V30 6369 H 645.113 0.196716 -1.57476 0
M  V30 6370 H 645.134 2.66859 -2.71231 0
M  V30 6371 H 644.646 1.14051 -3.70963 0
M  V30 6372 H 642.747 3.04647 -2.14525 0
M  V30 6373 H 642.86 2.65466 -3.98829 0
M  V30 6374 H 641.224 1.49081 -2.06511 0
M  V30 6375 H 642.007 0.483383 -3.3988 0
M  V30 6376 N 644.452 1.42507 0.673017 0
M  V30 6377 C 645.698 1.44282 1.43367 0
M  V30 6378 C 646.053 0.0588239 1.9231 0
M  V30 6379 O 645.346 -0.919288 1.68106 0
M  V30 6380 C 645.54 2.40351 2.64511 0
M  V30 6381 C 645.369 3.87955 2.27423 0
M  V30 6382 C 644.139 4.56476 2.16697 0
M  V30 6383 C 646.337 4.7833 1.88957 0
M  V30 6384 N 644.319 5.89099 1.72731 0
M  V30 6385 C 645.69 6.00073 1.55923 0
M  V30 6386 C 647.745 4.65769 1.75965 0
M  V30 6387 C 646.448 7.10652 1.112 0
M  V30 6388 C 648.474 5.76332 1.32647 0
M  V30 6389 C 647.836 6.97188 1.00538 0
M  V30 6390 H 643.935 0.583134 0.521036 0
M  V30 6391 H 646.519 1.78547 0.776481 0
M  V30 6392 H 644.69 2.08145 3.27918 0
M  V30 6393 H 646.422 2.32694 3.31113 0
M  V30 6394 H 643.177 4.10712 2.35823 0
M  V30 6395 H 643.601 6.59446 1.53166 0
M  V30 6396 H 648.243 3.72808 1.99435 0
M  V30 6397 H 645.961 8.0346 0.864768 0
M  V30 6398 H 649.547 5.68625 1.23112 0
M  V30 6399 H 648.427 7.81287 0.675283 0
M  V30 6400 N 645.93 -0.909495 1.28709 0
M  V30 6401 C 646.86 -2.0291 1.15542 0
M  V30 6402 C 647.841 -1.7002 0.0521017 0
M  V30 6403 O 649.026 -1.92835 0.229849 0
M  V30 6404 C 646.156 -3.37458 0.820935 0
M  V30 6405 C 645.11 -3.84524 1.87949 0
M  V30 6406 C 644.436 -5.16086 1.39854 0
M  V30 6407 C 645.736 -4.05918 3.28676 0
M  V30 6408 H 647.43 -2.14183 2.09203 0
M  V30 6409 H 644.976 -1.02913 1.00722 0
M  V30 6410 H 646.929 -4.1528 0.715571 0
M  V30 6411 H 645.653 -3.26249 -0.151374 0
M  V30 6412 H 644.312 -3.08911 1.97408 0
M  V30 6413 H 643.96 -5.01284 0.41518 0
M  V30 6414 H 643.66 -5.48547 2.1064 0
M  V30 6415 H 645.184 -5.96459 1.30649 0
M  V30 6416 H 646.598 -4.74252 3.22115 0
M  V30 6417 H 644.995 -4.49717 3.97334 0
M  V30 6418 H 646.065 -3.10583 3.72379 0
M  V30 6419 N 647.408 -1.11026 -1.11852 0
M  V30 6420 C 648.824 -0.843294 -1.35502 0
M  V30 6421 C 649.024 0.534179 -1.9429 0
M  V30 6422 O 648.08 1.28585 -2.17307 0
M  V30 6423 C 649.393 -1.94793 -2.29077 0
M  V30 6424 C 650.941 -1.97709 -2.42652 0
M  V30 6425 C 651.416 -3.07364 -3.39546 0
M  V30 6426 N 652.907 -3.0671 -3.47107 0
M  V30 6427 C 653.642 -3.88197 -4.22008 0
M  V30 6428 N 653.138 -4.79635 -4.99922 0
M  V30 6429 N 654.931 -3.76391 -4.17476 0
M  V30 6430 H 647.082 -1.99805 -0.720538 0
M  V30 6431 H 649.345 -0.868633 -0.379711 0
M  V30 6432 H 649.051 -2.93971 -1.93065 0
M  V30 6433 H 648.925 -1.84039 -3.29256 0
M  V30 6434 H 651.312 -0.991604 -2.77941 0
M  V30 6435 H 651.393 -2.1254 -1.4234 0
M  V30 6436 H 651.037 -4.06136 -3.04985 0
M  V30 6437 H 650.967 -2.89774 -4.39703 0
M  V30 6438 H 653.458 -2.40457 -2.91528 0
M  V30 6439 H 653.771 -5.38357 -5.54429 0
M  V30 6440 H 652.116 -4.8366 -4.99097 0
M  V30 6441 H 655.307 -3.04303 -3.55693 0
M  V30 6442 H 655.48 -4.40131 -4.75593 0
M  V30 6443 N 648.886 1.2938 -0.899927 0
M  V30 6444 C 650.132 1.9584 -0.526742 0
M  V30 6445 C 650.465 1.70774 0.924651 0
M  V30 6446 O 649.74 1.02084 1.65557 0
M  V30 6447 C 650.023 3.50638 -0.820062 0
M  V30 6448 C 649.876 3.85161 -2.32317 0
M  V30 6449 C 651.195 4.3903 -0.30671 0
M  V30 6450 H 648.314 0.711322 -0.192848 0
M  V30 6451 H 650.956 1.52992 -1.12665 0
M  V30 6452 H 649.106 3.87265 -0.309491 0
M  V30 6453 H 650.778 3.58477 -2.9033 0
M  V30 6454 H 649.021 3.32696 -2.78381 0
M  V30 6455 H 649.692 4.93204 -2.47898 0
M  V30 6456 H 652.168 4.09396 -0.743908 0
M  V30 6457 H 651.044 5.46226 -0.541144 0
M  V30 6458 H 651.305 4.34937 0.792588 0
M  V30 6459 N 650.364 0.662433 1.43002 0
M  V30 6460 C 651.314 -0.0460442 2.27954 0
M  V30 6461 C 652.298 -0.785753 1.40409 0
M  V30 6462 O 653.49 -0.666701 1.63964 0
M  V30 6463 C 650.619 -1.00532 3.2825 0
M  V30 6464 C 649.705 -0.263604 4.2328 0
M  V30 6465 N 650.096 0.724855 5.00579 0
M  V30 6466 C 648.394 -0.503778 4.43146 0
M  V30 6467 C 649.095 1.16594 5.69895 0
M  V30 6468 N 648.071 0.498345 5.41311 0
M  V30 6469 H 651.873 0.712314 2.85137 0
M  V30 6470 H 649.387 0.490469 1.54817 0
M  V30 6471 H 651.384 -1.52775 3.87899 0
M  V30 6472 H 650.044 -1.76364 2.72628 0
M  V30 6473 H 651.055 1.10393 5.05998 0
M  V30 6474 H 647.732 -1.24255 3.98581 0
M  V30 6475 H 649.122 1.98434 6.4193 0
M  V30 6476 N 651.842 -1.52309 0.404946 0
M  V30 6477 C 653.258 -1.59503 0.0556255 0
M  V30 6478 C 653.458 -1.41805 -1.43156 0
M  V30 6479 O 652.514 -1.2429 -2.19792 0
M  V30 6480 C 653.827 -2.95687 0.546801 0
M  V30 6481 C 655.375 -3.08909 0.504413 0
M  V30 6482 C 655.85 -4.47566 0.97203 0
M  V30 6483 N 657.341 -4.53795 0.928679 0
M  V30 6484 C 658.076 -5.59346 1.26174 0
M  V30 6485 N 657.572 -6.72469 1.66604 0
M  V30 6486 N 659.365 -5.49532 1.18198 0
M  V30 6487 H 651.516 -1.6206 1.37296 0
M  V30 6488 H 653.779 -0.762161 0.563751 0
M  V30 6489 H 653.485 -3.13905 1.58609 0
M  V30 6490 H 653.359 -3.77172 -0.0457905 0
M  V30 6491 H 655.746 -2.90378 -0.525819 0
M  V30 6492 H 655.827 -2.2934 1.13301 0
M  V30 6493 H 655.471 -4.6684 2.00057 0
M  V30 6494 H 655.401 -5.25625 0.320292 0
M  V30 6495 H 657.892 -3.72588 0.631369 0
M  V30 6496 H 658.205 -7.48993 1.9034 0
M  V30 6497 H 656.55 -6.73761 1.70504 0
M  V30 6498 H 659.741 -4.60038 0.865011 0
M  V30 6499 H 659.914 -6.31687 1.44485 0
M  V30 6500 N 653.32 -0.135238 -1.57019 0
M  V30 6501 C 654.597 0.563227 -1.87316 0
M  V30 6502 C 654.977 1.83749 -1.03921 0
M  V30 6503 O 654.325 2.2817 -0.122675 0
M  V30 6504 C 654.535 0.840031 -3.3874 0
M  V30 6505 C 655.883 1.18598 -4.077 0
M  V30 6506 O 656.907 0.92977 -3.43851 0
M  V30 6507 O 655.766 1.66758 -5.20436 0
M  V30 6508 H 652.86 0.285971 -0.775983 0
M  V30 6509 H 655.406 -0.170965 -1.68837 0
M  V30 6510 H 654.178 -0.0622785 -3.9125 0
M  V30 6511 H 653.801 1.62882 -3.62706 0
M  V30 6512 N 654.798 1.5699 0.138552 0
M  V30 6513 C 656.046 1.83446 0.848053 0
M  V30 6514 C 656.367 0.71744 1.81322 0
M  V30 6515 O 655.637 -0.260228 1.94164 0
M  V30 6516 H 654.217 0.676792 0.316166 0
M  V30 6517 H 656.879 1.94462 0.130538 0
M  V30 6518 H 655.975 2.78677 1.40518 0
M  V30 6519 N 656.276 -0.40816 1.52223 0
M  V30 6520 C 657.687 -0.986929 1.58482 0
M  V30 6521 C 658.038 -1.91521 0.425917 0
M  V30 6522 O 657.163 -2.11593 -0.453593 0
M  V30 6523 C 657.758 -1.7967 2.87235 0
M  V30 6524 C 656.317 -2.32549 2.9597 0
M  V30 6525 C 655.464 -1.12558 2.53428 0
M  V30 6526 H 658.415 -0.188362 1.57578 0
M  V30 6527 H 658.436 -2.65417 2.72642 0
M  V30 6528 H 657.948 -1.12082 3.71563 0
M  V30 6529 H 656.049 -3.03505 2.16137 0
M  V30 6530 H 656.162 -2.63348 4.00231 0
M  V30 6531 H 654.526 -1.47984 2.07299 0
M  V30 6532 H 655.309 -0.465351 3.40131 0
M  V30 6533 N 657.755 -1.42862 -0.66545 0
M  V30 6534 C 658.718 -1.46756 -1.76055 0
M  V30 6535 C 659.718 -0.353866 -1.56858 0
M  V30 6536 O 660.908 -0.615099 -1.62979 0
M  V30 6537 C 658.04 -1.30829 -3.14796 0
M  V30 6538 H 659.233 -2.44271 -1.73987 0
M  V30 6539 H 656.786 -1.29447 -0.875965 0
M  V30 6540 H 657.521 -0.342733 -3.22484 0
M  V30 6541 H 657.306 -2.11551 -3.30134 0
M  V30 6542 H 658.796 -1.36458 -3.94676 0
M  V30 6543 N 659.233 0.902656 -1.29189 0
M  V30 6544 C 660.163 2.02294 -1.16616 0
M  V30 6545 C 661.144 1.6999 -0.0611175 0
M  V30 6546 O 662.329 1.9271 -0.240072 0
M  V30 6547 C 659.459 3.37018 -0.83882 0
M  V30 6548 C 658.413 3.83522 -1.89986 0
M  V30 6549 C 657.739 5.15337 -1.42589 0
M  V30 6550 C 659.039 4.04169 -3.30824 0
M  V30 6551 H 660.733 2.13071 -2.10336 0
M  V30 6552 H 658.279 1.02378 -1.01266 0
M  V30 6553 H 660.232 4.14895 -0.737584 0
M  V30 6554 H 658.956 3.26325 0.134071 0
M  V30 6555 H 657.615 3.07859 -1.99043 0
M  V30 6556 H 657.263 5.01056 -0.441759 0
M  V30 6557 H 656.963 5.47423 -2.13547 0
M  V30 6558 H 658.487 5.95758 -1.3381 0
M  V30 6559 H 659.901 4.72537 -3.24626 0
M  V30 6560 H 658.298 4.47604 -3.99713 0
M  V30 6561 H 659.368 3.08604 -3.74021 0
M  V30 6562 N 660.711 1.11618 1.11262 0
M  V30 6563 C 661.936 0.889013 1.8738 0
M  V30 6564 C 662.361 -0.555884 1.79698 0
M  V30 6565 O 661.719 -1.39272 1.16073 0
M  V30 6566 C 661.767 1.35759 3.34069 0
M  V30 6567 O 660.871 0.530499 4.08974 0
M  V30 6568 H 660.212 0.320082 0.581759 0
M  V30 6569 H 662.742 1.48611 1.40627 0
M  V30 6570 H 662.752 1.35291 3.84916 0
M  V30 6571 H 661.427 2.40973 3.38976 0
M  V30 6572 H 660.004 0.601439 3.68018 0
M  V30 6573 N 662.189 -1.289 0.906776 0
M  V30 6574 C 663.437 -1.94883 0.535266 0
M  V30 6575 C 663.758 -1.71784 -0.922791 0
M  V30 6576 O 663.028 -1.05359 -1.65156 0
M  V30 6577 H 661.608 -0.721109 0.194962 0
M  V30 6578 H 664.27 -1.57018 1.15461 0
M  V30 6579 H 663.366 -3.03591 0.723821 0
M  V30 6580 N 663.667 -0.670007 -1.42649 0
M  V30 6581 C 665.078 -0.268118 -1.84765 0
M  V30 6582 C 665.429 1.18877 -1.56086 0
M  V30 6583 O 664.554 1.90947 -1.01825 0
M  V30 6584 C 665.149 -0.47984 -3.35385 0
M  V30 6585 C 663.708 -0.132116 -3.76168 0
M  V30 6586 C 662.855 -0.774611 -2.66261 0
M  V30 6587 H 665.806 -0.872509 -1.32563 0
M  V30 6588 H 665.827 0.269522 -3.79544 0
M  V30 6589 H 665.339 -1.54026 -3.56227 0
M  V30 6590 H 663.44 0.92505 -3.60934 0
M  V30 6591 H 663.553 -0.569294 -4.75706 0
M  V30 6592 H 661.917 -0.206353 -2.53863 0
M  V30 6593 H 662.7 -1.83839 -2.89928 0
M  V30 6594 N 665.145 1.52092 -0.413018 0
M  V30 6595 C 666.077 2.24819 0.445994 0
M  V30 6596 C 667.09 1.27925 1.00692 0
M  V30 6597 O 668.279 1.53845 0.905204 0
M  V30 6598 C 665.379 2.96951 1.6332 0
M  V30 6599 C 664.552 4.20746 1.19548 0
M  V30 6600 C 663.611 4.75668 2.25003 0
M  V30 6601 O 662.637 5.38148 1.85434 0
M  V30 6602 N 663.839 4.57579 3.57214 0
M  V30 6603 H 666.604 2.99176 -0.177209 0
M  V30 6604 H 664.165 1.60102 -0.240601 0
M  V30 6605 H 666.157 3.30586 2.33441 0
M  V30 6606 H 664.727 2.25756 2.16225 0
M  V30 6607 H 663.947 3.92881 0.32224 0
M  V30 6608 H 665.235 5.01132 0.880033 0
M  V30 6609 H 664.633 4.07758 3.92109 0
M  V30 6610 H 663.19 4.95642 4.23299 0
M  V30 6611 N 666.623 0.143563 1.56945 0
M  V30 6612 C 667.848 -0.518701 2.00809 0
M  V30 6613 C 668.273 -1.5785 1.02298 0
M  V30 6614 O 667.631 -1.813 -0.0017839 0
M  V30 6615 C 667.679 -1.09929 3.43436 0
M  V30 6616 O 666.783 -2.21425 3.47915 0
M  V30 6617 H 666.124 -0.127215 0.6517 0
M  V30 6618 H 668.654 0.239283 2.03196 0
M  V30 6619 H 668.664 -1.4288 3.82164 0
M  V30 6620 H 667.339 -0.323162 4.14643 0
M  V30 6621 H 665.916 -1.89728 3.21026 0
M  V30 6622 N 668.101 -1.57061 -0.130224 0
M  V30 6623 C 669.517 -1.52103 -0.483413 0
M  V30 6624 C 669.717 -0.854752 -1.82473 0
M  V30 6625 O 668.773 -0.432342 -2.48771 0
M  V30 6626 C 670.086 -2.96872 -0.47825 0
M  V30 6627 C 671.634 -3.07902 -0.562592 0
M  V30 6628 C 672.109 -4.54211 -0.587929 0
M  V30 6629 N 673.6 -4.58621 -0.649684 0
M  V30 6630 C 674.335 -5.69227 -0.690551 0
M  V30 6631 N 673.831 -6.89358 -0.689743 0
M  V30 6632 N 675.624 -5.57304 -0.732708 0
M  V30 6633 H 667.775 -1.98764 0.748779 0
M  V30 6634 H 670.038 -0.907248 0.274965 0
M  V30 6635 H 669.744 -3.48944 0.439444 0
M  V30 6636 H 669.618 -3.53716 -1.31013 0
M  V30 6637 H 672.005 -2.5584 -1.47071 0
M  V30 6638 H 672.086 -2.54073 0.296764 0
M  V30 6639 H 671.73 -5.06915 0.316096 0
M  V30 6640 H 671.66 -5.0584 -1.46401 0
M  V30 6641 H 674.151 -3.72146 -0.656927 0
M  V30 6642 H 674.464 -7.69408 -0.723239 0
M  V30 6643 H 672.809 -6.91884 -0.657347 0
M  V30 6644 H 676 -4.62363 -0.730625 0
M  V30 6645 H 676.173 -6.43515 -0.76109 0
M  V30 6646 N 669.579 0.400081 -1.52437 0
M  V30 6647 C 670.542 1.4707 -1.75793 0
M  V30 6648 C 671.542 1.48036 -0.627856 0
M  V30 6649 O 672.732 1.49401 -0.895817 0
M  V30 6650 C 669.864 2.86427 -1.84858 0
M  V30 6651 H 671.057 1.27649 -2.71377 0
M  V30 6652 H 668.61 0.631141 -1.42991 0
M  V30 6653 H 669.345 3.11207 -0.912194 0
M  V30 6654 H 669.13 2.87128 -2.6702 0
M  V30 6655 H 670.62 3.64023 -2.04638 0
M  V30 6656 N 671.057 1.43213 0.657864 0
M  V30 6657 C 671.987 1.50815 1.78262 0
M  V30 6658 C 672.968 0.363211 1.66177 0
M  V30 6659 O 674.153 0.579806 1.85343 0
M  V30 6660 C 671.283 1.42625 3.16663 0
M  V30 6661 C 670.237 2.5532 3.43505 0
M  V30 6662 C 669.563 2.32184 4.81658 0
M  V30 6663 C 670.863 3.97583 3.38711 0
M  V30 6664 H 672.557 2.44954 1.72157 0
M  V30 6665 H 670.103 1.17896 0.82683 0
M  V30 6666 H 672.056 1.46548 3.95097 0
M  V30 6667 H 670.78 0.449877 3.23487 0
M  V30 6668 H 669.439 2.50742 2.6744 0
M  V30 6669 H 669.087 1.32801 4.85153 0
M  V30 6670 H 668.787 3.07724 5.00579 0
M  V30 6671 H 670.311 2.37883 5.62356 0
M  V30 6672 H 671.725 4.03673 4.07089 0
M  V30 6673 H 670.122 4.73112 3.69168 0
M  V30 6674 H 671.192 4.23049 2.36976 0
M  V30 6675 N 672.536 -0.895792 1.29666 0
M  V30 6676 C 673.468 -2.00563 1.10937 0
M  V30 6677 C 674.481 -1.62705 0.055734 0
M  V30 6678 O 675.67 -1.7595 0.300656 0
M  V30 6679 C 672.77 -3.32262 0.667448 0
M  V30 6680 C 671.943 -3.98625 1.80047 0
M  V30 6681 C 671.002 -5.08617 1.3489 0
M  V30 6682 O 670.028 -5.30837 2.05429 0
M  V30 6683 N 671.23 -5.80076 0.221937 0
M  V30 6684 H 673.995 -2.17184 2.06522 0
M  V30 6685 H 671.556 -1.06822 1.21658 0
M  V30 6686 H 673.548 -4.03196 0.348586 0
M  V30 6687 H 672.118 -3.11985 -0.196055 0
M  V30 6688 H 671.338 -3.21005 2.28801 0
M  V30 6689 H 672.626 -4.39704 2.56003 0
M  V30 6690 H 672.024 -5.64514 -0.366084 0
M  V30 6691 H 670.581 -6.51789 -0.0375346 0
M  V30 6692 N 674.014 -1.12206 -1.10668 0
M  V30 6693 C 674.924 -0.800686 -2.20513 0
M  V30 6694 C 675.94 0.209512 -1.72734 0
M  V30 6695 O 677.116 0.043705 -2.01353 0
M  V30 6696 C 674.181 -0.257353 -3.45744 0
M  V30 6697 C 673.242 -1.32718 -4.0827 0
M  V30 6698 C 672.475 -0.809674 -5.27522 0
M  V30 6699 O 672.698 0.35742 -5.69279 0
M  V30 6700 O 671.632 -1.57816 -5.80842 0
M  V30 6701 H 675.458 -1.71807 -2.50432 0
M  V30 6702 H 673.043 -0.898546 -1.19359 0
M  V30 6703 H 674.925 0.0408849 -4.2138 0
M  V30 6704 H 673.6 0.632627 -3.17458 0
M  V30 6705 H 672.507 -1.67855 -3.34329 0
M  V30 6706 H 673.84 -2.19083 -4.40753 0
M  V30 6707 N 675.492 1.28418 -0.913599 0
M  V30 6708 C 676.455 2.25564 -0.406624 0
M  V30 6709 C 677.455 1.5387 0.466965 0
M  V30 6710 O 678.645 1.72094 0.270042 0
M  V30 6711 C 675.777 3.38339 0.417053 0
M  V30 6712 H 676.97 2.71926 -1.26477 0
M  V30 6713 H 674.523 1.40098 -0.692986 0
M  V30 6714 H 675.258 2.97339 1.29461 0
M  V30 6715 H 675.043 3.91542 -0.209102 0
M  V30 6716 H 676.533 4.10578 0.762602 0
M  V30 6717 N 676.97 0.677563 1.42291 0
M  V30 6718 C 677.9 0.014968 2.33495 0
M  V30 6719 C 678.881 -0.786376 1.50831 0
M  V30 6720 O 680.066 -0.742975 1.79426 0
M  V30 6721 C 677.196 -0.935023 3.34477 0
M  V30 6722 C 676.15 -0.242074 4.27315 0
M  V30 6723 C 675.476 -1.30519 5.18526 0
M  V30 6724 C 676.776 0.880604 5.14823 0
M  V30 6725 H 678.47 0.776671 2.89151 0
M  V30 6726 H 676.016 0.37494 1.39033 0
M  V30 6727 H 677.969 -1.40766 3.97194 0
M  V30 6728 H 676.693 -1.72818 2.77131 0
M  V30 6729 H 675.352 0.210351 3.65996 0
M  V30 6730 H 675 -2.09041 4.57505 0
M  V30 6731 H 674.7 -0.846652 5.81468 0
M  V30 6732 H 676.224 -1.7787 5.84119 0
M  V30 6733 H 677.638 0.489062 5.7121 0
M  V30 6734 H 676.035 1.26511 5.86613 0
M  V30 6735 H 677.105 1.72818 4.53059 0
M  V30 6736 N 678.448 -1.51871 0.421078 0
M  V30 6737 C 679.694 -2.02237 -0.151014 0
M  V30 6738 C 680.027 -1.30554 -1.43768 0
M  V30 6739 O 679.302 -0.41546 -1.90011 0
M  V30 6740 C 679.585 -3.5802 -0.386482 0
M  V30 6741 C 679.438 -4.40339 0.9177 0
M  V30 6742 C 680.757 -4.24444 -1.16342 0
M  V30 6743 H 677.876 -0.735062 -0.0534102 0
M  V30 6744 H 680.518 -1.81656 0.556888 0
M  V30 6745 H 678.668 -3.75688 -0.989494 0
M  V30 6746 H 680.34 -4.34357 1.55344 0
M  V30 6747 H 678.583 -4.06073 1.526 0
M  V30 6748 H 679.254 -5.47451 0.707187 0
M  V30 6749 H 681.73 -4.10948 -0.652788 0
M  V30 6750 H 680.606 -5.33358 -1.29693 0
M  V30 6751 H 680.867 -3.84204 -2.18724 0
M  V30 6752 N 679.926 -0.151884 -1.56866 0
M  V30 6753 C 680.856 0.781943 -2.20018 0
M  V30 6754 C 681.837 1.25347 -1.14987 0
M  V30 6755 O 683.022 1.31015 -1.43348 0
M  V30 6756 C 680.152 2.01928 -2.82564 0
M  V30 6757 C 679.106 1.68434 -3.93464 0
M  V30 6758 C 678.432 2.99472 -4.42968 0
M  V30 6759 C 679.732 0.927244 -5.14003 0
M  V30 6760 H 681.426 0.255607 -2.98307 0
M  V30 6761 H 678.972 0.121502 -1.43486 0
M  V30 6762 H 680.925 2.67741 -3.25411 0
M  V30 6763 H 679.649 2.56943 -2.01614 0
M  V30 6764 H 678.308 1.04998 -3.51242 0
M  V30 6765 H 677.956 3.52488 -3.58834 0
M  V30 6766 H 677.656 2.77823 -5.17772 0
M  V30 6767 H 679.18 3.66348 -4.88489 0
M  V30 6768 H 680.594 1.48756 -5.53665 0
M  V30 6769 H 678.991 0.810513 -5.94601 0
M  V30 6770 H 680.061 -0.0801163 -4.84834 0
M  V30 6771 N 681.404 1.57128 0.121893 0
M  V30 6772 C 682.629 1.89254 0.848385 0
M  V30 6773 C 683.054 0.743527 1.72781 0
M  V30 6774 O 682.412 -0.306056 1.78698 0
M  V30 6775 C 682.46 3.20113 1.66012 0
M  V30 6776 O 681.564 3.05815 2.76679 0
M  V30 6777 H 680.905 0.621103 0.234793 0
M  V30 6778 H 683.435 2.0433 0.10516 0
M  V30 6779 H 683.445 3.52761 2.04996 0
M  V30 6780 H 682.12 4.03336 1.01452 0
M  V30 6781 H 680.697 2.84627 2.40918 0
M  V30 6782 N 682.882 -0.391992 1.52647 0
M  V30 6783 C 684.159 -1.15136 1.58123 0
M  V30 6784 C 684.539 -2.07786 0.372597 0
M  V30 6785 O 683.887 -2.19374 -0.639304 0
M  V30 6786 C 684.097 -1.91367 2.91856 0
M  V30 6787 C 685.445 -2.46833 3.45483 0
M  V30 6788 O 686.469 -2.01527 2.9371 0
M  V30 6789 O 685.328 -3.29587 4.3593 0
M  V30 6790 H 682.422 -0.526649 0.637629 0
M  V30 6791 H 684.968 -0.397386 1.64982 0
M  V30 6792 H 683.74 -1.23597 3.71268 0
M  V30 6793 H 683.363 -2.73732 2.88369 0
M  V30 6794 N 684.36 -1.4356 -0.65026 0
M  V30 6795 C 685.776 -1.27025 -0.966269 0
M  V30 6796 C 685.976 -0.192117 -2.00582 0
M  V30 6797 O 685.032 0.428459 -2.48838 0
M  V30 6798 C 686.345 -2.63556 -1.44772 0
M  V30 6799 C 687.893 -2.71111 -1.56421 0
M  V30 6800 C 688.368 -4.08067 -2.07956 0
M  V30 6801 N 689.859 -4.10146 -2.15254 0
M  V30 6802 C 690.594 -5.12952 -2.56258 0
M  V30 6803 N 690.09 -6.26129 -2.96537 0
M  V30 6804 N 691.883 -5.00306 -2.56224 0
M  V30 6805 H 684.034 -2.12367 0.0375758 0
M  V30 6806 H 686.297 -0.946894 -0.0457782 0
M  V30 6807 H 686.003 -3.43429 -0.758271 0
M  V30 6808 H 685.877 -2.89152 -2.42221 0
M  V30 6809 H 688.264 -1.91569 -2.24467 0
M  V30 6810 H 688.345 -2.49277 -0.573967 0
M  V30 6811 H 687.989 -4.88077 -1.40511 0
M  V30 6812 H 687.919 -4.27266 -3.07817 0
M  V30 6813 H 690.41 -3.28453 -1.86887 0
M  V30 6814 H 690.723 -7.00403 -3.26582 0
M  V30 6815 H 689.068 -6.29597 -2.94334 0
M  V30 6816 H 692.259 -4.10952 -2.24135 0
M  V30 6817 H 692.432 -5.80553 -2.87857 0
M  V30 6818 N 685.838 0.888903 -1.30139 0
M  V30 6819 C 686.801 1.97576 -1.16174 0
M  V30 6820 C 687.801 1.60525 -0.094086 0
M  V30 6821 O 688.991 1.70812 -0.341889 0
M  V30 6822 C 686.123 3.3188 -0.778983 0
M  V30 6823 H 687.316 2.11393 -2.12728 0
M  V30 6824 H 684.869 1.0748 -1.1348 0
M  V30 6825 H 685.604 3.23765 0.186225 0
M  V30 6826 H 685.389 3.60141 -1.55051 0
M  V30 6827 H 686.879 4.11612 -0.704631 0
M  V30 6828 N 687.317 1.12792 1.10072 0
M  V30 6829 C 688.728 0.899346 1.63611 0
M  V30 6830 C 689.079 -0.565547 1.87872 0
M  V30 6831 O 688.204 -1.43081 1.62348 0
M  V30 6832 C 688.799 1.62608 2.97227 0
M  V30 6833 C 687.358 1.44356 3.47618 0
M  V30 6834 C 686.505 1.65958 2.22156 0
M  V30 6835 H 689.456 1.28216 0.935223 0
M  V30 6836 H 689.477 1.0793 3.64872 0
M  V30 6837 H 688.989 2.69221 2.79538 0
M  V30 6838 H 687.09 0.400148 3.70445 0
M  V30 6839 H 687.203 2.20218 4.25489 0
M  V30 6840 H 685.567 1.08395 2.30484 0
M  V30 6841 H 686.35 2.73877 2.06993 0
M  V30 6842 N 688.795 -1.27931 0.920396 0
M  V30 6843 C 690.042 -1.94689 0.557007 0
M  V30 6844 C 690.37 -1.724 -0.900476 0
M  V30 6845 O 689.625 -1.04194 -1.65657 0
M  V30 6846 C 689.924 -3.47853 0.820558 0
M  V30 6847 C 689.59 -3.90252 2.25863 0
M  V30 6848 C 688.252 -4.01539 2.65179 0
M  V30 6849 C 690.604 -4.11853 3.19415 0
M  V30 6850 C 687.932 -4.3181 3.97187 0
M  V30 6851 C 690.284 -4.43606 4.50995 0
M  V30 6852 C 688.948 -4.53105 4.90155 0
M  V30 6853 H 688.218 -0.712416 0.203823 0
M  V30 6854 H 690.865 -1.52142 1.16298 0
M  V30 6855 H 689.17 -3.91578 0.131844 0
M  V30 6856 H 690.867 -3.97634 0.51847 0
M  V30 6857 H 687.457 -3.81999 1.94358 0
M  V30 6858 H 691.641 -4.0258 2.90246 0
M  V30 6859 H 686.897 -4.37371 4.2722 0
M  V30 6860 H 691.071 -4.59268 5.23494 0
M  V30 6861 H 688.698 -4.76315 5.92476 0
M  V30 6862 N 690.273 -0.685099 -1.4193 0
M  V30 6863 C 691.236 -0.0222632 -2.29189 0
M  V30 6864 C 692.236 0.7186 -1.4385 0
M  V30 6865 O 693.426 0.555058 -1.6512 0
M  V30 6866 C 690.558 0.979013 -3.2654 0
M  V30 6867 H 691.751 -0.790424 -2.89296 0
M  V30 6868 H 689.304 -0.448012 -1.49742 0
M  V30 6869 H 690.039 1.77531 -2.71392 0
M  V30 6870 H 689.824 0.451037 -3.89497 0
M  V30 6871 H 691.314 1.44091 -3.91954 0
M  V30 6872 N 691.751 1.51645 -0.429126 0
M  V30 6873 C 692.714 2.26116 0.374726 0
M  V30 6874 C 693.714 1.29242 0.956714 0
M  V30 6875 O 694.904 1.53022 0.832452 0
M  V30 6876 C 692.036 3.04669 1.52937 0
M  V30 6877 H 693.229 2.9861 -0.277818 0
M  V30 6878 H 690.782 1.55236 -0.182097 0
M  V30 6879 H 691.517 2.36571 2.21821 0
M  V30 6880 H 691.302 3.75814 1.11833 0
M  V30 6881 H 692.792 3.61102 2.09751 0
M  V30 6882 N 693.229 0.160201 1.56784 0
M  V30 6883 C 694.64 -0.358417 1.83227 0
M  V30 6884 C 694.991 -1.63831 1.07952 0
M  V30 6885 O 694.116 -2.13885 0.328995 0
M  V30 6886 C 694.711 -0.657058 3.32368 0
M  V30 6887 C 693.27 -1.12015 3.59346 0
M  V30 6888 C 692.417 -0.15015 2.76893 0
M  V30 6889 H 695.368 0.384669 1.53967 0
M  V30 6890 H 695.389 -1.51033 3.49241 0
M  V30 6891 H 694.901 0.274647 3.87127 0
M  V30 6892 H 693.002 -2.06734 3.09987 0
M  V30 6893 H 693.115 -1.037 4.67743 0
M  V30 6894 H 691.479 -0.645361 2.46388 0
M  V30 6895 H 692.262 0.775379 3.34429 0
M  V30 6896 N 694.707 -1.5719 -0.113559 0
M  V30 6897 C 695.932 -1.89702 -0.838336 0
M  V30 6898 C 696.357 -0.752679 -1.72384 0
M  V30 6899 O 695.715 0.296575 -1.78858 0
M  V30 6900 C 695.763 -3.20989 -1.64312 0
M  V30 6901 O 694.867 -3.07278 -2.75053 0
M  V30 6902 H 694.208 -0.622339 -0.231496 0
M  V30 6903 H 696.738 -2.04382 -0.0943228 0
M  V30 6904 H 696.748 -3.53843 -2.03123 0
M  V30 6905 H 695.423 -4.03869 -0.993119 0
M  V30 6906 H 694 -2.85901 -2.39406 0
M  V30 6907 N 696.185 0.383891 -1.52853 0
M  V30 6908 C 697.596 0.961591 -1.60032 0
M  V30 6909 C 697.947 1.90819 -0.456333 0
M  V30 6910 O 697.072 2.12288 0.419873 0
M  V30 6911 C 697.667 1.75078 -2.90057 0
M  V30 6912 C 696.226 2.2781 -2.99632 0
M  V30 6913 C 695.373 1.08512 -2.55187 0
M  V30 6914 H 698.324 0.163269 -1.57858 0
M  V30 6915 H 698.345 2.61046 -2.7683 0
M  V30 6916 H 697.857 1.06157 -3.73299 0
M  V30 6917 H 695.958 3.00028 -2.20939 0
M  V30 6918 H 696.071 2.56947 -4.0437 0
M  V30 6919 H 694.435 1.44667 -2.09627 0
M  V30 6920 H 695.218 0.41118 -3.40829 0
M  V30 6921 N 697.663 1.43903 0.642637 0
M  V30 6922 C 698.91 1.46079 1.40239 0
M  V30 6923 C 699.238 0.0890335 1.94296 0
M  V30 6924 O 698.493 -0.907533 1.73385 0
M  V30 6925 C 698.792 2.45907 2.59354 0
M  V30 6926 C 698.458 3.91522 2.23654 0
M  V30 6927 C 697.12 4.31179 2.1363 0
M  V30 6928 C 699.472 4.83242 1.95261 0
M  V30 6929 C 696.8 5.60495 1.73384 0
M  V30 6930 C 699.152 6.12933 1.56511 0
M  V30 6931 C 697.816 6.51556 1.4502 0
M  V30 6932 H 697.086 0.534542 0.513172 0
M  V30 6933 H 699.733 1.77047 0.72984 0
M  V30 6934 H 698.038 2.08381 3.3179 0
M  V30 6935 H 699.735 2.44842 3.17574 0
M  V30 6936 H 696.325 3.60142 2.32369 0
M  V30 6937 H 700.509 4.53367 2.0192 0
M  V30 6938 H 695.765 5.89249 1.63082 0
M  V30 6939 H 699.939 6.83469 1.33576 0
M  V30 6940 H 697.566 7.51663 1.13606 0
M  V30 6941 N 699.141 -0.881989 1.30609 0
M  V30 6942 C 700.104 -1.96957 1.1722 0
M  V30 6943 C 701.104 -1.60472 0.102598 0
M  V30 6944 O 702.294 -1.70628 0.350943 0
M  V30 6945 C 699.426 -3.31463 0.796572 0
M  V30 6946 H 700.619 -2.10262 2.13846 0
M  V30 6947 H 698.172 -1.06877 1.14048 0
M  V30 6948 H 698.907 -3.23859 -0.169053 0
M  V30 6949 H 698.692 -3.59314 1.56959 0
M  V30 6950 H 700.182 -4.11233 0.72645 0
M  V30 6951 N 700.619 -1.13374 -1.09472 0
M  V30 6952 C 701.529 -0.824029 -2.19652 0
M  V30 6953 C 702.545 0.19118 -1.72947 0
M  V30 6954 O 703.721 0.0223464 -2.01388 0
M  V30 6955 C 700.786 -0.294009 -3.45451 0
M  V30 6956 C 699.847 -1.3704 -4.0684 0
M  V30 6957 C 699.08 -0.86558 -5.26634 0
M  V30 6958 O 699.303 0.29702 -5.69626 0
M  V30 6959 O 698.237 -1.63968 -5.79136 0
M  V30 6960 H 702.063 -1.74454 -2.48595 0
M  V30 6961 H 699.648 -0.911155 -1.18399 0
M  V30 6962 H 701.53 -0.00381039 -4.214 0
M  V30 6963 H 700.205 0.598921 -3.18111 0
M  V30 6964 H 699.112 -1.71391 -3.3253 0
M  V30 6965 H 700.445 -2.23746 -4.38405 0
M  V30 6966 N 702.098 1.27442 -0.927168 0
M  V30 6967 C 703.028 2.29256 -0.443188 0
M  V30 6968 C 704.009 1.62701 0.49624 0
M  V30 6969 O 705.194 1.90013 0.401105 0
M  V30 6970 C 702.324 3.45955 0.305366 0
M  V30 6971 C 701.278 4.24501 -0.546178 0
M  V30 6972 C 700.604 5.33671 0.331512 0
M  V30 6973 C 701.904 4.89921 -1.81037 0
M  V30 6974 H 703.598 2.69988 -1.29409 0
M  V30 6975 H 701.144 1.29792 -0.623705 0
M  V30 6976 H 703.097 4.1628 0.654885 0
M  V30 6977 H 701.821 3.04138 1.19029 0
M  V30 6978 H 700.48 3.55921 -0.878398 0
M  V30 6979 H 700.128 4.88096 1.21537 0
M  V30 6980 H 699.828 5.87131 -0.234746 0
M  V30 6981 H 701.352 6.0684 0.676614 0
M  V30 6982 H 702.766 5.52536 -1.52895 0
M  V30 6983 H 701.163 5.53436 -2.32009 0
M  V30 6984 H 702.233 4.13652 -2.53021 0
M  V30 6985 N 703.576 0.692616 1.41565 0
M  V30 6986 C 704.822 0.222664 2.01574 0
M  V30 6987 C 705.155 -1.1737 1.54719 0
M  V30 6988 O 704.43 -1.79161 0.757084 0
M  V30 6989 C 704.713 0.277064 3.59033 0
M  V30 6990 C 704.566 1.71016 4.16021 0
M  V30 6991 C 705.885 -0.36479 4.38586 0
M  V30 6992 H 703.004 0.0823839 0.732381 0
M  V30 6993 H 705.646 0.880778 1.68352 0
M  V30 6994 H 703.796 -0.283288 3.87466 0
M  V30 6995 H 705.468 2.32413 3.98475 0
M  V30 6996 H 703.711 2.24525 3.71175 0
M  V30 6997 H 704.382 1.69978 5.25178 0
M  V30 6998 H 706.858 0.112404 4.15948 0
M  V30 6999 H 705.734 -0.296169 5.481 0
M  V30 7000 H 705.995 -1.44506 4.17816 0
M  V30 7001 N 705.054 -1.51416 0.437162 0
M  V30 7002 C 705.984 -2.30631 -0.364922 0
M  V30 7003 C 706.965 -1.36037 -1.02118 0
M  V30 7004 O 708.15 -1.64956 -1.02485 0
M  V30 7005 C 705.28 -3.1482 -1.46648 0
M  V30 7006 C 704.234 -4.17691 -0.933717 0
M  V30 7007 C 703.56 -4.904 -2.13101 0
M  V30 7008 C 704.86 -5.2229 0.0317201 0
M  V30 7009 H 706.554 -2.97932 0.29614 0
M  V30 7010 H 704.1 -1.4328 0.143865 0
M  V30 7011 H 706.053 -3.69017 -2.03481 0
M  V30 7012 H 704.777 -2.4534 -2.15583 0
M  V30 7013 H 703.436 -3.64545 -0.387602 0
M  V30 7014 H 703.084 -4.17423 -2.80654 0
M  V30 7015 H 702.784 -5.59962 -1.78092 0
M  V30 7016 H 704.308 -5.4742 -2.70487 0
M  V30 7017 H 705.722 -5.7156 -0.446302 0
M  V30 7018 H 704.119 -5.99378 0.29437 0
M  V30 7019 H 705.189 -4.75131 0.968447 0
M  V30 7020 N 706.532 -0.168513 -1.56696 0
M  V30 7021 C 707.943 0.348694 -1.83415 0
M  V30 7022 C 708.294 1.63257 -1.0882 0
M  V30 7023 O 707.419 2.13707 -0.340333 0
M  V30 7024 C 708.014 0.639423 -3.32711 0
M  V30 7025 C 706.573 1.10108 -3.59935 0
M  V30 7026 C 705.72 0.135464 -2.76969 0
M  V30 7027 H 708.671 -0.392829 -1.53761 0
M  V30 7028 H 708.692 1.49179 -3.50037 0
M  V30 7029 H 708.204 -0.295173 -3.86976 0
M  V30 7030 H 706.305 2.05088 -3.11079 0
M  V30 7031 H 706.418 1.01218 -4.68286 0
M  V30 7032 H 704.782 0.632286 -2.46727 0
M  V30 7033 H 705.565 -0.793104 -3.34013 0
M  V30 7034 N 708.01 1.57248 0.105221 0
M  V30 7035 C 709.421 1.74612 0.660865 0
M  V30 7036 C 709.772 0.789231 1.79626 0
M  V30 7037 O 708.897 -0.0346611 2.16372 0
M  V30 7038 C 709.492 3.16624 1.20559 0
M  V30 7039 C 708.051 3.35447 1.7074 0
M  V30 7040 C 707.198 2.70445 0.612764 0
M  V30 7041 H 710.149 1.5824 -0.12079 0
M  V30 7042 H 710.17 3.18937 2.07508 0
M  V30 7043 H 709.682 3.86245 0.379012 0
M  V30 7044 H 707.783 2.7089 2.5583 0
M  V30 7045 H 707.896 4.43702 1.80736 0
M  V30 7046 H 706.26 2.32061 1.04975 0
M  V30 7047 H 707.043 3.42699 -0.203066 0
M  V30 7048 N 709.488 -0.375779 1.53054 0
M  V30 7049 C 710.42 -1.47963 1.75042 0
M  V30 7050 C 711.433 -1.50073 0.631031 0
M  V30 7051 O 712.622 -1.53736 0.907052 0
M  V30 7052 C 709.722 -2.86767 1.80604 0
M  V30 7053 C 708.895 -3.08471 3.10104 0
M  V30 7054 C 707.954 -4.27332 3.07041 0
M  V30 7055 O 706.98 -4.22998 3.80869 0
M  V30 7056 N 708.182 -5.34214 2.27147 0
M  V30 7057 H 710.947 -1.29484 2.70285 0
M  V30 7058 H 708.508 -0.565416 1.51706 0
M  V30 7059 H 710.5 -3.64404 1.76045 0
M  V30 7060 H 709.07 -2.98542 0.926897 0
M  V30 7061 H 708.29 -2.18583 3.28048 0
M  V30 7062 H 709.578 -3.19834 3.95706 0
M  V30 7063 H 708.976 -5.40594 1.66656 0
M  V30 7064 H 707.533 -6.10467 2.28415 0
M  V30 7065 N 710.966 -1.44241 -0.634997 0
M  V30 7066 C 711.898 -1.46793 -1.76024 0
M  V30 7067 C 712.911 -0.361781 -1.58729 0
M  V30 7068 O 714.1 -0.627297 -1.67114 0
M  V30 7069 C 711.2 -1.28248 -3.13697 0
M  V30 7070 C 710.373 -2.52038 -3.57485 0
M  V30 7071 C 709.432 -2.2845 -4.74022 0
M  V30 7072 O 708.458 -3.01915 -4.82531 0
M  V30 7073 N 709.66 -1.31264 -5.65464 0
M  V30 7074 H 712.425 -2.43797 -1.74307 0
M  V30 7075 H 709.986 -1.39631 -0.819438 0
M  V30 7076 H 711.978 -1.10321 -3.89373 0
M  V30 7077 H 710.548 -0.39623 -3.10079 0
M  V30 7078 H 709.768 -2.85268 -2.72059 0
M  V30 7079 H 711.056 -3.34382 -3.83492 0
M  V30 7080 H 710.454 -0.705817 -5.6128 0
M  V30 7081 H 709.011 -1.19316 -6.40786 0
M  V30 7082 O 712.483 0.778386 -1.41504 0
M  V30 7083 H 713.174 1.42532 -1.31165 0
M  V30 END ATOM
M  V30 BEGIN BOND
M  V30 END BOND
M  V30 END CTAB
M  END
$$$$
