drugbank_target|Q6GGU4 3-dehydroquinate synthase (DB02592)
 OpenBabel12092119583D

  0  0  0     0  0            999 V3000
M  V30 BEGIN CTAB
M  V30 COUNTS 5660 5727 0 0 0
M  V30 BEGIN ATOM
M  V30 1 H -0.908 1.98254 -0.117106 0
M  V30 2 N 0 1.576 0 0
M  V30 3 C 0.933 2.03868 1.02534 0
M  V30 4 C 1.911 0.928543 1.3348 0
M  V30 5 O 3.095 1.19667 1.45644 0
M  V30 6 C 0.222 2.43627 2.35294 0
M  V30 7 C -0.732 3.65373 2.2001 0
M  V30 8 S 0.101 5.13292 1.52614 0
M  V30 9 C 1.257 5.56322 2.86805 0
M  V30 10 H 1.49 2.90518 0.631377 0
M  V30 11 H -0.977 1.52953 0.210867 0
M  V30 12 H 0.981 2.67203 3.11629 0
M  V30 13 H -0.358 1.57376 2.7183 0
M  V30 14 H -1.165 3.90944 3.18086 0
M  V30 15 H -1.563 3.418 1.51819 0
M  V30 16 H 0.729 5.58782 3.83104 0
M  V30 17 H 1.672 6.56266 2.65933 0
M  V30 18 H 2.08 4.83886 2.90714 0
M  V30 19 N 1.4781 -0.272755 1.55222 0
M  V30 20 C 2.4251 -1.33716 1.88119 0
M  V30 21 C 3.3951 -1.49066 0.73271 0
M  V30 22 O 4.5801 -1.63469 0.984002 0
M  V30 23 C 1.7201 -2.69238 2.15882 0
M  V30 24 C 0.8331 -2.62108 3.43399 0
M  V30 25 C -0.0319 -3.89811 3.60861 0
M  V30 26 C -0.9929 -3.77193 4.8207 0
M  V30 27 N -1.8559 -4.9673 4.96189 0
M  V30 28 H 2.9841 -1.04962 2.78903 0
M  V30 29 H 0.5211 -0.507088 1.38083 0
M  V30 30 H 2.4791 -3.48089 2.29978 0
M  V30 31 H 1.1091 -2.96194 1.28331 0
M  V30 32 H 0.1611 -1.74967 3.37773 0
M  V30 33 H 1.4731 -2.48685 4.32386 0
M  V30 34 H 0.6271 -4.77103 3.74777 0
M  V30 35 H -0.6339 -4.06102 2.7006 0
M  V30 36 H -1.6289 -2.88284 4.68159 0
M  V30 37 H -0.4039 -3.62421 5.74307 0
M  V30 38 H -2.4579 -5.13431 4.08319 0
M  V30 39 H -2.5409 -4.85839 5.79221 0
M  V30 40 H -1.2729 -5.85594 5.1449 0
M  V30 41 N 2.9562 -1.48159 -0.537278 0
M  V30 42 C 3.8862 -1.65029 -1.6519 0
M  V30 43 C 4.8672 -0.499281 -1.62607 0
M  V30 44 O 6.0522 -0.730972 -1.79918 0
M  V30 45 C 3.1822 -1.68303 -3.03795 0
M  V30 46 C 2.1362 -2.8283 -3.21234 0
M  V30 47 C 1.4622 -2.71189 -4.60826 0
M  V30 48 C 2.7622 -4.24211 -3.04701 0
M  V30 49 H 4.4562 -2.58341 -1.51328 0
M  V30 50 H 2.0022 -1.24325 -0.726585 0
M  V30 51 H 3.9552 -1.78693 -3.81637 0
M  V30 52 H 2.6792 -0.715635 -3.18663 0
M  V30 53 H 1.3382 -2.71983 -2.45807 0
M  V30 54 H 0.9862 -1.72435 -4.7252 0
M  V30 55 H 0.6862 -3.48035 -4.7344 0
M  V30 56 H 2.2102 -2.83537 -5.40777 0
M  V30 57 H 3.6242 -4.3593 -3.72341 0
M  V30 58 H 2.0212 -5.01998 -3.28813 0
M  V30 59 H 3.0912 -4.41184 -2.01209 0
M  V30 60 N 4.4343 0.785586 -1.36625 0
M  V30 61 C 5.3663 1.90711 -1.2713 0
M  V30 62 C 6.3793 1.61688 -0.189986 0
M  V30 63 O 7.5683 1.72864 -0.445014 0
M  V30 64 C 4.6683 3.25611 -0.939713 0
M  V30 65 C 3.8413 3.82385 -2.12369 0
M  V30 66 C 2.9003 4.95732 -1.76456 0
M  V30 67 O 1.9263 5.12047 -2.48589 0
M  V30 68 N 3.1283 5.76258 -0.700492 0
M  V30 69 H 5.8933 1.99376 -2.23762 0
M  V30 70 H 3.4543 0.964041 -1.30069 0
M  V30 71 H 5.4463 3.98937 -0.680554 0
M  V30 72 H 4.0163 3.12538 -0.0624074 0
M  V30 73 H 3.2363 3.01001 -2.54543 0
M  V30 74 H 4.5243 4.17047 -2.9146 0
M  V30 75 H 3.9223 5.65609 -0.101624 0
M  V30 76 H 2.4793 6.4987 -0.501165 0
M  V30 77 N 5.9124 1.20967 1.01018 0
M  V30 78 C 7.1404 1.04956 1.78303 0
M  V30 79 C 7.5554 -0.400915 1.84494 0
M  V30 80 O 6.9124 -1.27826 1.30257 0
M  V30 81 C 6.9634 1.63403 3.22462 0
M  V30 82 O 6.6844 3.02775 3.16637 0
M  V30 83 C 8.1854 1.52432 4.16268 0
M  V30 84 H 5.4054 0.368858 0.560522 0
M  V30 85 H 7.9494 1.60193 1.27116 0
M  V30 86 H 6.1044 1.1227 3.70775 0
M  V30 87 H 6.5184 3.30626 4.07169 0
M  V30 88 H 7.9924 1.98078 5.15237 0
M  V30 89 H 8.4694 0.477875 4.36592 0
M  V30 90 H 9.0754 2.02787 3.73841 0
M  V30 91 N 7.3905 -1.2043 1.01659 0
M  V30 92 C 8.6185 -1.93777 0.725132 0
M  V30 93 C 9.0335 -1.74772 -0.714166 0
M  V30 94 O 8.3905 -1.06169 -1.4844 0
M  V30 95 C 8.4415 -3.45876 1.05129 0
M  V30 96 O 8.1625 -3.6426 2.43406 0
M  V30 97 C 9.6635 -4.36368 0.780891 0
M  V30 98 H 6.8835 -0.615901 0.266284 0
M  V30 99 H 9.4275 -1.52922 1.35776 0
M  V30 100 H 7.5825 -3.8461 0.464065 0
M  V30 101 H 7.9965 -4.58246 2.55169 0
M  V30 102 H 9.4705 -5.41743 1.05918 0
M  V30 103 H 9.9475 -4.38275 -0.284937 0
M  V30 104 H 10.5535 -4.03296 1.35027 0
M  V30 105 N 8.8686 -0.792821 -1.36206 0
M  V30 106 C 10.0986 -0.378275 -2.03107 0
M  V30 107 C 10.5066 1.01119 -1.59911 0
M  V30 108 O 9.8496 1.66052 -0.785658 0
M  V30 109 C 9.9116 -0.366535 -3.57627 0
M  V30 110 C 9.5756 -1.70416 -4.24037 0
M  V30 111 C 10.5726 -2.6602 -4.46687 0
M  V30 112 C 8.2576 -1.98439 -4.6144 0
M  V30 113 C 10.2516 -3.8784 -5.05825 0
M  V30 114 C 7.9386 -3.20525 -5.20295 0
M  V30 115 C 8.9366 -4.15044 -5.42427 0
M  V30 116 O 8.6246 -5.34978 -6.00045 0
M  V30 117 H 8.3566 -0.153543 -0.658332 0
M  V30 118 H 10.9106 -1.07383 -1.75094 0
M  V30 119 H 9.1406 0.385539 -3.84773 0
M  V30 120 H 10.8296 0.0238088 -4.05893 0
M  V30 121 H 11.5956 -2.45658 -4.18183 0
M  V30 122 H 7.4746 -1.25686 -4.43536 0
M  V30 123 H 11.0186 -4.61628 -5.23015 0
M  V30 124 H 6.9156 -3.40764 -5.48225 0
M  V30 125 H 7.6836 -5.36088 -6.18508 0
M  V30 126 N 10.3467 1.47872 -0.545128 0
M  V30 127 C 11.7577 1.86384 -0.108581 0
M  V30 128 C 12.1087 1.45309 1.31832 0
M  V30 129 O 11.2337 0.850641 1.9898 0
M  V30 130 C 11.8287 3.38265 -0.190274 0
M  V30 131 C 10.3877 3.75914 0.191164 0
M  V30 132 C 9.5347 2.71926 -0.543273 0
M  V30 133 H 12.4857 1.39561 -0.755537 0
M  V30 134 H 12.5067 3.75831 0.594217 0
M  V30 135 H 12.0187 3.6813 -1.2289 0
M  V30 136 H 10.1197 3.51665 1.23136 0
M  V30 137 H 10.2327 4.78836 -0.158987 0
M  V30 138 H 8.5967 2.54697 0.0122495 0
M  V30 139 H 9.3797 3.04634 -1.58282 0
M  V30 140 N 11.8248 0.280983 1.55075 0
M  V30 141 C 13.0498 -0.340154 2.04592 0
M  V30 142 C 13.4748 -1.48246 1.15779 0
M  V30 143 O 12.8328 -1.80614 0.15761 0
M  V30 144 C 12.8808 -0.793104 3.5177 0
M  V30 145 O 11.9848 -1.89981 3.66034 0
M  V30 146 H 11.3258 -0.0694289 0.66036 0
M  V30 147 H 13.8558 0.416993 2.00306 0
M  V30 148 H 13.8658 -1.08729 3.93245 0
M  V30 149 H 12.5408 0.0426163 4.15878 0
M  V30 150 H 11.1178 -1.60771 3.36463 0
M  V30 151 N 13.3029 -1.57598 0.00835791 0
M  V30 152 C 14.2509 -2.10078 -0.998508 0
M  V30 153 C 15.2449 -1.02262 -1.35051 0
M  V30 154 O 16.4509 -1.20719 -1.33518 0
M  V30 155 H 12.8259 -0.670903 -0.339696 0
M  V30 156 H 14.7969 -2.93648 -0.530398 0
M  V30 157 C 13.5459 -2.62615 -2.27879 0
M  V30 158 H 12.8689 -3.45213 -2.01662 0
M  V30 159 H 14.3089 -3.03004 -2.96588 0
M  V30 160 C 12.7679 -1.54407 -2.99433 0
M  V30 161 O 13.2979 -0.931812 -3.90743 0
M  V30 162 N 11.5039 -1.2695 -2.61404 0
M  V30 163 H 11.0509 -1.76924 -1.87232 0
M  V30 164 H 11.0089 -0.547704 -3.09593 0
M  V30 165 N 14.781 0.264519 -1.55364 0
M  V30 166 C 15.729 1.34702 -1.89626 0
M  V30 167 C 16.723 1.50712 -0.773459 0
M  V30 168 O 17.929 1.52395 -0.957897 0
M  V30 169 H 14.304 0.450682 -0.601988 0
M  V30 170 H 16.275 1.0306 -2.80038 0
M  V30 171 C 15.024 2.6989 -2.19214 0
M  V30 172 H 14.347 2.58365 -3.05103 0
M  V30 173 H 15.787 3.44553 -2.47102 0
M  V30 174 C 14.246 3.21637 -1.00254 0
M  V30 175 O 14.776 4.00973 -0.241501 0
M  V30 176 N 12.982 2.7943 -0.797938 0
M  V30 177 H 12.529 2.15026 -1.4185 0
M  V30 178 H 12.487 3.144 -0.00363422 0
M  V30 179 N 16.2591 1.48442 0.529413 0
M  V30 180 C 17.4891 1.59919 1.30804 0
M  V30 181 C 17.8971 0.258792 1.87422 0
M  V30 182 O 17.2401 -0.762096 1.67146 0
M  V30 183 C 17.3021 2.58693 2.49636 0
M  V30 184 C 16.9661 4.03745 2.14101 0
M  V30 185 C 17.9631 4.9141 1.6974 0
M  V30 186 C 15.6481 4.49285 2.24607 0
M  V30 187 C 17.6421 6.22645 1.36351 0
M  V30 188 C 15.3291 5.8054 1.9083 0
M  V30 189 C 16.3271 6.67043 1.46773 0
M  V30 190 O 16.0151 7.95856 1.1344 0
M  V30 191 H 15.7471 0.541981 0.404021 0
M  V30 192 H 18.3011 1.95 0.645309 0
M  V30 193 H 16.5311 2.18734 3.18892 0
M  V30 194 H 18.2201 2.59999 3.11698 0
M  V30 195 H 18.9861 4.57465 1.61094 0
M  V30 196 H 14.8651 3.82142 2.57854 0
M  V30 197 H 18.4091 6.90119 1.01891 0
M  V30 198 H 14.3061 6.14022 1.99117 0
M  V30 199 H 15.0741 8.08613 1.26832 0
M  V30 200 N 17.7372 -0.778329 1.37039 0
M  V30 201 C 19.1482 -1.35421 1.28523 0
M  V30 202 C 19.4992 -1.96075 -0.0700901 0
M  V30 203 O 18.6242 -1.93352 -0.971801 0
M  V30 204 C 19.2192 -2.46211 2.32735 0
M  V30 205 C 17.7782 -2.99585 2.27873 0
M  V30 206 C 16.9252 -1.72748 2.16918 0
M  V30 207 H 19.8762 -0.5791 1.47757 0
M  V30 208 H 19.8972 -3.2552 1.9702 0
M  V30 209 H 19.4092 -2.02036 3.31365 0
M  V30 210 H 17.5102 -3.48152 1.32745 0
M  V30 211 H 17.6232 -3.55646 3.21018 0
M  V30 212 H 15.9872 -1.95416 1.63354 0
M  V30 213 H 16.7702 -1.30686 3.17452 0
M  V30 214 N 19.2153 -1.21501 -1.00376 0
M  V30 215 C 20.4643 -1.02718 -1.73586 0
M  V30 216 C 20.7773 0.439589 -1.90596 0
M  V30 217 O 21.9833 0.746848 -2.61026 0
M  V30 218 C 20.4393 -1.78929 -3.1227 0
M  V30 219 C 20.0473 -3.29783 -3.03228 0
M  V30 220 C 21.7913 -1.68557 -3.89601 0
M  V30 221 C 19.6983 -3.98479 -4.36999 0
M  V30 222 H 18.6283 -0.380733 -0.650814 0
M  V30 223 H 21.2793 -1.45248 -1.1214 0
M  V30 224 H 19.6613 -1.29192 -3.74333 0
M  V30 225 H 20.8353 -3.86832 -2.50395 0
M  V30 226 H 19.1503 -3.40711 -2.39385 0
M  V30 227 H 21.7473 -2.17211 -4.88593 0
M  V30 228 H 22.0903 -0.644021 -4.11288 0
M  V30 229 H 22.6233 -2.15778 -3.34193 0
M  V30 230 H 19.3623 -5.02841 -4.20513 0
M  V30 231 H 18.8823 -3.46219 -4.89788 0
M  V30 232 H 20.5613 -4.03462 -5.05794 0
M  V30 233 N 20.6934 1.19889 -1.02296 0
M  V30 234 C 21.9404 1.8942 -0.715972 0
M  V30 235 C 22.2684 1.79251 0.754944 0
M  V30 236 O 21.5234 1.17526 1.56481 0
M  V30 237 C 21.8224 3.39883 -1.10518 0
M  V30 238 C 21.4884 3.70254 -2.57337 0
M  V30 239 C 20.1504 3.78254 -2.97452 0
M  V30 240 C 22.5024 3.84052 -3.52354 0
M  V30 241 C 19.8304 3.97514 -4.31509 0
M  V30 242 C 22.1824 4.04824 -4.86108 0
M  V30 243 C 20.8464 4.11054 -5.25919 0
M  V30 244 H 20.1164 0.693138 -0.261993 0
M  V30 245 H 22.7634 1.42012 -1.28472 0
M  V30 246 H 21.0684 3.8915 -0.454953 0
M  V30 247 H 22.7654 3.9199 -0.845261 0
M  V30 248 H 19.3554 3.64632 -2.25258 0
M  V30 249 H 23.5394 3.77221 -3.22518 0
M  V30 250 H 18.7954 4.00574 -4.61898 0
M  V30 251 H 22.9694 4.14442 -5.59653 0
M  V30 252 H 20.5964 4.2573 -6.29808 0
M  V30 253 N 22.1715 0.800033 1.35784 0
M  V30 254 C 23.4175 0.377901 1.99248 0
M  V30 255 C 23.7505 -1.05052 1.63333 0
M  V30 256 O 23.0255 -1.72768 0.893385 0
M  V30 257 C 23.3085 0.553922 3.55814 0
M  V30 258 C 23.1615 2.0268 4.01548 0
M  V30 259 C 24.4805 -0.0244802 4.40093 0
M  V30 260 H 21.5995 0.138782 0.723815 0
M  V30 261 H 24.2415 1.00835 1.61035 0
M  V30 262 H 22.3915 0.0172398 3.88496 0
M  V30 263 H 24.0635 2.62536 3.79305 0
M  V30 264 H 22.3065 2.5256 3.52698 0
M  V30 265 H 22.9775 2.10087 5.10458 0
M  V30 266 H 25.4535 0.433775 4.13833 0
M  V30 267 H 24.3295 0.128637 5.48749 0
M  V30 268 H 24.5905 -1.11758 4.27741 0
M  V30 269 N 23.6496 -1.47581 0.552962 0
M  V30 270 C 24.5596 -2.33743 -0.200353 0
M  V30 271 C 25.5756 -1.47928 -0.916151 0
M  V30 272 O 26.7516 -1.80865 -0.885993 0
M  V30 273 C 23.8166 -3.24536 -1.21973 0
M  V30 274 C 22.8776 -4.26238 -0.511819 0
M  V30 275 C 22.1106 -5.12693 -1.48263 0
M  V30 276 O 22.3336 -5.01525 -2.71714 0
M  V30 277 O 21.2676 -5.93375 -1.00945 0
M  V30 278 H 25.0936 -2.9945 0.506304 0
M  V30 279 H 22.6786 -1.46071 0.313622 0
M  V30 280 H 24.5606 -3.80631 -1.80827 0
M  V30 281 H 23.2356 -2.61462 -1.90839 0
M  V30 282 H 22.1426 -3.73914 0.117799 0
M  V30 283 H 23.4756 -4.92014 0.135308 0
M  V30 284 N 25.1277 -0.289203 -1.54924 0
M  V30 285 C 26.0777 0.606939 -2.19773 0
M  V30 286 C 27.0617 1.10783 -1.16687 0
M  V30 287 O 28.2537 1.05057 -1.4245 0
M  V30 288 C 25.3827 1.78398 -2.93307 0
M  V30 289 C 24.4687 1.29961 -4.03697 0
M  V30 290 N 24.8597 0.532377 -5.0299 0
M  V30 291 C 23.1577 1.58136 -4.17024 0
M  V30 292 C 23.8587 0.275912 -5.81045 0
M  V30 293 N 22.8347 0.852365 -5.36876 0
M  V30 294 H 26.6367 0.0130779 -2.93897 0
M  V30 295 H 24.1507 -0.09341 -1.62131 0
M  V30 296 H 26.1477 2.43741 -3.38225 0
M  V30 297 H 24.8077 2.38166 -2.20697 0
M  V30 298 H 25.8187 0.17838 -5.17593 0
M  V30 299 H 22.4957 2.18738 -3.55612 0
M  V30 300 H 23.8857 -0.339502 -6.71042 0
M  V30 301 N 26.6058 1.57591 -0.0167156 0
M  V30 302 C 27.8538 1.90906 0.663285 0
M  V30 303 C 28.1748 0.892509 1.73376 0
M  V30 304 O 27.4448 -0.0677623 1.95783 0
M  V30 305 H 26.0248 0.704637 0.247983 0
M  V30 306 H 28.6868 1.94803 -0.0615909 0
M  V30 307 H 27.7828 2.9116 1.12393 0
M  V30 308 N 28.0839 -0.256276 1.55502 0
M  V30 309 C 29.0469 -1.30047 1.88734 0
M  V30 310 C 30.0469 -1.4154 0.763086 0
M  V30 311 O 31.2369 -1.40403 1.03115 0
M  V30 312 C 28.3689 -2.67953 2.10747 0
M  V30 313 H 29.5619 -1.01802 2.82093 0
M  V30 314 H 27.1149 -0.495134 1.4825 0
M  V30 315 H 27.8499 -3.01351 1.19825 0
M  V30 316 H 27.6349 -2.60993 2.92617 0
M  V30 317 H 29.1249 -3.43368 2.37673 0
M  V30 318 N 29.562 -1.4872 -0.521534 0
M  V30 319 C 30.811 -1.56419 -1.27341 0
M  V30 320 C 31.124 -0.246805 -1.94037 0
M  V30 321 O 32.33 -0.202122 -2.70747 0
M  V30 322 C 30.786 -2.75896 -2.31105 0
M  V30 323 C 30.394 -4.14311 -1.70441 0
M  V30 324 C 32.138 -2.92913 -3.07249 0
M  V30 325 C 30.045 -5.25038 -2.72194 0
M  V30 326 H 28.975 -0.582344 -0.478949 0
M  V30 327 H 31.626 -1.75071 -0.549779 0
M  V30 328 H 30.008 -2.50697 -3.06541 0
M  V30 329 H 31.182 -4.49564 -1.01136 0
M  V30 330 H 29.497 -4.02482 -1.06759 0
M  V30 331 H 32.094 -3.72805 -3.83302 0
M  V30 332 H 32.437 -2.02689 -3.63625 0
M  V30 333 H 32.97 -3.18054 -2.38928 0
M  V30 334 H 29.709 -6.17255 -2.20627 0
M  V30 335 H 29.229 -4.94263 -3.39801 0
M  V30 336 H 30.908 -5.53508 -3.35019 0
M  V30 337 N 31.0401 0.771051 -1.3745 0
M  V30 338 C 32.3171 1.519 -1.23231 0
M  V30 339 C 32.6971 2.10383 0.173809 0
M  V30 340 O 32.0451 1.95583 1.18151 0
M  V30 341 C 32.2551 2.59933 -2.32886 0
M  V30 342 C 33.6031 3.27316 -2.70461 0
M  V30 343 O 34.6271 2.70228 -2.32068 0
M  V30 344 O 33.4861 4.30531 -3.36608 0
M  V30 345 H 30.5801 0.672803 -0.480901 0
M  V30 346 H 33.1261 0.807957 -1.49232 0
M  V30 347 H 31.8981 2.14842 -3.27045 0
M  V30 348 H 31.5211 3.38637 -2.08353 0
M  V30 349 N 32.5182 1.22032 0.997298 0
M  V30 350 C 33.4682 0.953838 2.07089 0
M  V30 351 C 34.4522 -0.0938669 1.60626 0
M  V30 352 O 35.6442 0.116078 1.76619 0
M  V30 353 C 32.7732 0.528726 3.39204 0
M  V30 354 C 31.8592 1.61092 3.92314 0
M  V30 355 N 32.2502 2.83768 4.18699 0
M  V30 356 C 30.5482 1.48158 4.20672 0
M  V30 357 C 31.2492 3.53715 4.61802 0
M  V30 358 N 30.2252 2.81174 4.65233 0
M  V30 359 H 34.0272 1.88577 2.25424 0
M  V30 360 H 31.5412 1.11719 1.17867 0
M  V30 361 H 33.5382 0.31915 4.15677 0
M  V30 362 H 32.1982 -0.39635 3.22272 0
M  V30 363 H 33.2092 3.20238 4.07023 0
M  V30 364 H 29.8862 0.622369 4.12835 0
M  V30 365 H 31.2762 4.58793 4.90875 0
M  V30 366 N 33.9963 -1.19345 1.0293 0
M  V30 367 C 35.2453 -1.88363 0.721256 0
M  V30 368 C 35.5583 -1.80514 -0.753254 0
M  V30 369 O 36.7643 -2.44788 -1.17436 0
M  V30 370 C 35.2203 -3.37872 1.23978 0
M  V30 371 C 34.8283 -3.54278 2.74211 0
M  V30 372 C 36.5723 -4.12365 1.00775 0
M  V30 373 C 34.4793 -4.97682 3.19479 0
M  V30 374 H 33.4093 -0.705484 0.266098 0
M  V30 375 H 36.0603 -1.34928 1.24365 0
M  V30 376 H 34.4423 -3.90707 0.6453 0
M  V30 377 H 35.6163 -3.11769 3.39318 0
M  V30 378 H 33.9313 -2.93174 2.95699 0
M  V30 379 H 36.5283 -5.18119 1.32123 0
M  V30 380 H 36.8713 -4.16263 -0.0554308 0
M  V30 381 H 37.4043 -3.65668 1.56625 0
M  V30 382 H 34.1433 -4.98945 4.25128 0
M  V30 383 H 33.6633 -5.4095 2.591 0
M  V30 384 H 35.3423 -5.66337 3.12845 0
M  V30 385 N 35.4744 -0.807222 -1.35358 0
M  V30 386 C 36.6994 -0.399309 -2.0352 0
M  V30 387 C 37.1244 0.981986 -1.60433 0
M  V30 388 O 36.4824 1.63601 -0.781299 0
M  V30 389 C 36.5304 -0.491552 -3.57234 0
M  V30 390 O 35.6344 0.494754 -4.09421 0
M  V30 391 H 34.9754 -0.166682 -0.642739 0
M  V30 392 H 37.5054 -1.09328 -1.72941 0
M  V30 393 H 37.5154 -0.361588 -4.06395 0
M  V30 394 H 36.1904 -1.49907 -3.87944 0
M  V30 395 H 34.7674 0.324977 -3.71481 0
M  V30 396 N 36.9525 1.47285 -0.560781 0
M  V30 397 C 38.1805 2.06855 -0.0430262 0
M  V30 398 C 38.5955 1.41291 1.25229 0
M  V30 399 O 37.9525 0.510648 1.7521 0
M  V30 400 C 38.0035 3.61178 0.152518 0
M  V30 401 O 37.7245 4.24285 -1.0915 0
M  V30 402 C 39.2255 4.37624 0.707145 0
M  V30 403 H 36.4455 0.669319 -0.0474652 0
M  V30 404 H 38.9895 1.89237 -0.77521 0
M  V30 405 H 37.1445 3.78298 0.834843 0
M  V30 406 H 37.5585 5.16868 -0.891482 0
M  V30 407 H 39.0325 5.46271 0.793244 0
M  V30 408 H 39.5095 4.04152 1.71923 0
M  V30 409 H 40.1155 4.25257 0.0604027 0
M  V30 410 N 38.4306 0.297415 1.54768 0
M  V30 411 C 39.6606 -0.315165 2.04182 0
M  V30 412 C 40.0686 -1.4834 1.17439 0
M  V30 413 O 39.4116 -1.82695 0.191891 0
M  V30 414 C 39.4736 -0.837583 3.49607 0
M  V30 415 C 39.1376 0.204912 4.5654 0
M  V30 416 C 40.1346 1.03214 5.09552 0
M  V30 417 C 37.8196 0.345578 5.0111 0
M  V30 418 C 39.8136 1.986 6.05671 0
M  V30 419 C 37.5006 1.30289 5.97049 0
M  V30 420 C 38.4986 2.12159 6.49213 0
M  V30 421 O 38.1866 3.06268 7.43273 0
M  V30 422 H 37.9186 -0.0729646 0.672051 0
M  V30 423 H 40.4726 0.433907 2.00765 0
M  V30 424 H 38.7026 -1.63712 3.50336 0
M  V30 425 H 40.3916 -1.36566 3.82236 0
M  V30 426 H 41.1576 0.934312 4.75916 0
M  V30 427 H 37.0366 -0.28171 4.60138 0
M  V30 428 H 40.5806 2.62542 6.46311 0
M  V30 429 H 36.4776 1.40145 6.30103 0
M  V30 430 H 37.2456 3.01205 7.61064 0
M  V30 431 N 39.9087 -1.5758 0.0250728 0
M  V30 432 C 41.1577 -1.90811 -0.653767 0
M  V30 433 C 41.4707 -0.90273 -1.73523 0
M  V30 434 O 42.6767 -1.12614 -2.47043 0
M  V30 435 C 41.1327 -3.38804 -1.21409 0
M  V30 436 C 40.7407 -4.47692 -0.166126 0
M  V30 437 C 42.4847 -3.81108 -1.86967 0
M  V30 438 C 40.3917 -5.86779 -0.737856 0
M  V30 439 H 39.3217 -0.712063 -0.247956 0
M  V30 440 H 41.9727 -1.83281 0.0897137 0
M  V30 441 H 40.3547 -3.41252 -2.00905 0
M  V30 442 H 41.5287 -4.56797 0.606079 0
M  V30 443 H 39.8437 -4.14565 0.390466 0
M  V30 444 H 42.4407 -4.82375 -2.30692 0
M  V30 445 H 42.7837 -3.15953 -2.71071 0
M  V30 446 H 43.3167 -3.81065 -1.14167 0
M  V30 447 H 40.0557 -6.55468 0.0649577 0
M  V30 448 H 39.5757 -5.81288 -1.47864 0
M  V30 449 H 41.2547 -6.35223 -1.22884 0
M  V30 450 N 41.3868 0.248026 -1.55636 0
M  V30 451 C 42.6638 0.998988 -1.68165 0
M  V30 452 C 43.0438 2.03409 -0.564621 0
M  V30 453 O 42.3918 2.24378 0.432076 0
M  V30 454 C 42.6018 1.63334 -3.0842 0
M  V30 455 C 43.9498 2.13562 -3.66983 0
M  V30 456 O 44.9738 1.73277 -3.11213 0
M  V30 457 O 43.8328 2.87526 -4.64749 0
M  V30 458 H 40.9268 0.464933 -0.683935 0
M  V30 459 H 43.4728 0.241902 -1.67967 0
M  V30 460 H 42.2448 0.884583 -3.8117 0
M  V30 461 H 41.8678 2.45666 -3.12624 0
M  V30 462 N 42.8649 1.48995 0.513639 0
M  V30 463 C 43.7969 1.60836 1.63293 0
M  V30 464 C 44.8099 0.491701 1.55197 0
M  V30 465 O 45.9989 0.763238 1.6136 0
M  V30 466 C 43.0989 1.53731 3.02027 0
M  V30 467 C 42.2719 2.80715 3.35437 0
M  V30 468 C 41.3309 2.66837 4.53525 0
M  V30 469 O 40.3569 3.40753 4.55934 0
M  V30 470 N 41.5589 1.77539 5.52684 0
M  V30 471 H 44.3239 2.57366 1.53566 0
M  V30 472 H 41.8849 1.45925 0.701259 0
M  V30 473 H 43.8769 1.42118 3.78926 0
M  V30 474 H 42.4469 0.651092 3.05744 0
M  V30 475 H 41.6669 3.06772 2.47557 0
M  V30 476 H 42.9549 3.64927 3.54551 0
M  V30 477 H 42.3529 1.16719 5.53528 0
M  V30 478 H 40.9099 1.71856 6.28736 0
M  V30 479 N 44.343 -0.763751 1.37857 0
M  V30 480 C 45.59 -1.52257 1.33506 0
M  V30 481 C 45.918 -1.94343 -0.078022 0
M  V30 482 O 45.173 -1.64958 -1.05297 0
M  V30 483 C 45.472 -2.79499 2.22745 0
M  V30 484 C 45.138 -2.56426 3.70886 0
M  V30 485 C 43.8 -2.49842 4.11257 0
M  V30 486 C 46.152 -2.36008 4.64704 0
M  V30 487 C 43.48 -2.20841 5.43549 0
M  V30 488 C 45.832 -2.0853 5.97242 0
M  V30 489 C 44.496 -2.00396 6.36709 0
M  V30 490 H 43.766 -0.557149 0.488534 0
M  V30 491 H 46.413 -0.879073 1.70131 0
M  V30 492 H 44.718 -3.48447 1.79142 0
M  V30 493 H 46.415 -3.37413 2.16688 0
M  V30 494 H 43.005 -2.62416 3.38874 0
M  V30 495 H 47.189 -2.40079 4.34368 0
M  V30 496 H 42.445 -2.13045 5.73081 0
M  V30 497 H 46.619 -1.91732 6.69486 0
M  V30 498 H 44.246 -1.77688 7.39142 0
M  V30 499 N 45.8211 -1.22559 -0.990812 0
M  V30 500 C 47.0981 -0.959875 -1.70428 0
M  V30 501 C 47.4781 0.524455 -2.04481 0
M  V30 502 O 46.8261 1.49302 -1.72977 0
M  V30 503 C 47.0361 -1.85955 -2.95333 0
M  V30 504 C 48.3841 -2.11687 -3.68068 0
M  V30 505 O 49.4081 -1.8342 -3.05345 0
M  V30 506 O 48.2671 -2.59572 -4.80921 0
M  V30 507 H 45.3611 -0.361154 -0.743974 0
M  V30 508 H 47.9071 -1.33554 -1.04697 0
M  V30 509 H 46.6791 -2.86346 -2.66687 0
M  V30 510 H 46.3021 -1.4856 -3.68803 0
M  V30 511 N 47.2992 1.18797 -1.03562 0
M  V30 512 C 48.2312 2.21731 -0.580337 0
M  V30 513 C 49.2442 1.59051 0.347349 0
M  V30 514 O 50.4332 1.77929 0.142669 0
M  V30 515 C 47.5332 3.38459 0.172805 0
M  V30 516 C 46.7062 4.3072 -0.761496 0
M  V30 517 C 45.7652 5.26174 -0.0525547 0
M  V30 518 O 44.7912 5.65108 -0.681333 0
M  V30 519 N 45.9932 5.67624 1.21586 0
M  V30 520 H 48.7582 2.61417 -1.46565 0
M  V30 521 H 46.3192 1.33531 -0.915476 0
M  V30 522 H 48.3112 3.99335 0.656793 0
M  V30 523 H 46.8812 2.97507 0.959602 0
M  V30 524 H 46.1012 3.67525 -1.42544 0
M  V30 525 H 47.3892 4.89267 -1.39626 0
M  V30 526 H 46.7872 5.38038 1.74732 0
M  V30 527 H 45.3442 6.30721 1.64421 0
M  V30 528 N 48.7773 0.814389 1.34928 0
M  V30 529 C 50.0023 0.410097 2.03305 0
M  V30 530 C 50.4273 -0.973464 1.60951 0
M  V30 531 O 49.7853 -1.63185 0.789964 0
M  V30 532 C 49.8333 0.51049 3.56968 0
M  V30 533 O 48.9373 -0.473035 4.09678 0
M  V30 534 H 48.2783 0.170088 0.641846 0
M  V30 535 H 50.8083 1.10244 1.72358 0
M  V30 536 H 50.8183 0.383135 4.06197 0
M  V30 537 H 49.4933 1.51963 3.87144 0
M  V30 538 H 48.0703 -0.305272 3.71648 0
M  V30 539 N 50.2554 -1.46986 0.568584 0
M  V30 540 C 51.5024 -2.02441 0.0487986 0
M  V30 541 C 51.8304 -1.44169 -1.30559 0
M  V30 542 O 51.0854 -0.591213 -1.86556 0
M  V30 543 C 51.3844 -3.57306 -0.081836 0
M  V30 544 C 51.0504 -4.34552 1.20313 0
M  V30 545 C 49.7124 -4.55376 1.5552 0
M  V30 546 C 52.0644 -4.79016 2.05411 0
M  V30 547 C 49.3924 -5.17913 2.7565 0
M  V30 548 C 51.7444 -5.42879 3.24754 0
M  V30 549 C 50.4084 -5.61933 3.60261 0
M  V30 550 H 49.6784 -0.740785 0.0178567 0
M  V30 551 H 52.3254 -1.76525 0.742384 0
M  V30 552 H 50.6304 -3.8228 -0.858463 0
M  V30 553 H 52.3274 -3.97876 -0.499546 0
M  V30 554 H 48.9174 -4.18631 0.919014 0
M  V30 555 H 53.1014 -4.62696 1.79516 0
M  V30 556 H 48.3574 -5.30858 3.03315 0
M  V30 557 H 52.5314 -5.76293 3.90973 0
M  V30 558 H 50.1584 -6.10161 4.53439 0
M  V30 559 N 51.7335 -0.305618 -1.54608 0
M  V30 560 C 52.9825 0.303098 -1.9941 0
M  V30 561 C 53.2955 1.54648 -1.19764 0
M  V30 562 O 54.5015 2.23007 -1.54855 0
M  V30 563 C 52.9575 0.590588 -3.55021 0
M  V30 564 C 52.5655 -0.634719 -4.43481 0
M  V30 565 C 54.3095 1.16025 -4.08336 0
M  V30 566 C 52.2165 -0.320126 -5.90533 0
M  V30 567 H 51.1465 0.117031 -0.744862 0
M  V30 568 H 53.7975 -0.415045 -1.78745 0
M  V30 569 H 52.1795 1.36845 -3.71604 0
M  V30 570 H 53.3535 -1.41079 -4.38672 0
M  V30 571 H 51.6685 -1.12333 -4.00962 0
M  V30 572 H 54.2655 1.40994 -5.15776 0
M  V30 573 H 54.6085 2.10397 -3.5922 0
M  V30 574 H 55.1415 0.443985 -3.95315 0
M  V30 575 H 51.8805 -1.23254 -6.43808 0
M  V30 576 H 51.4005 0.418579 -5.98338 0
M  V30 577 H 53.0795 0.0766241 -6.46955 0
M  V30 578 N 53.2116 1.57565 -0.0334293 0
M  V30 579 C 54.1416 2.13511 0.945265 0
M  V30 580 C 55.1226 1.05231 1.33643 0
M  V30 581 O 56.3076 1.33084 1.41429 0
M  V30 582 C 53.4376 2.6657 2.22616 0
M  V30 583 C 52.3916 3.79676 1.97561 0
M  V30 584 C 51.7176 4.1918 3.31952 0
M  V30 585 C 53.0176 5.0557 1.31135 0
M  V30 586 H 54.7116 2.95538 0.479325 0
M  V30 587 H 52.2576 1.42166 0.229115 0
M  V30 588 H 54.2106 3.04344 2.91466 0
M  V30 589 H 52.9346 1.8171 2.71384 0
M  V30 590 H 51.5936 3.42347 1.31127 0
M  V30 591 H 51.2416 3.31296 3.78487 0
M  V30 592 H 50.9416 4.95402 3.15992 0
M  V30 593 H 52.4656 4.59541 4.02063 0
M  V30 594 H 53.8796 5.40903 1.89992 0
M  V30 595 H 52.2766 5.86818 1.25559 0
M  V30 596 H 53.3466 4.84062 0.284894 0
M  V30 597 N 54.6897 -0.239769 1.55765 0
M  V30 598 C 55.9387 -0.964754 1.77131 0
M  V30 599 C 56.2517 -1.86213 0.59868 0
M  V30 600 O 57.4577 -2.6244 0.695522 0
M  V30 601 C 55.9137 -1.76552 3.1362 0
M  V30 602 C 55.5217 -0.915185 4.38553 0
M  V30 603 C 57.2657 -2.48281 3.44321 0
M  V30 604 C 55.1727 -1.71225 5.66071 0
M  V30 605 H 54.1027 -0.363953 0.660344 0
M  V30 606 H 56.7537 -0.219181 1.82186 0
M  V30 607 H 55.1357 -2.55331 3.02691 0
M  V30 608 H 56.3097 -0.169217 4.60489 0
M  V30 609 H 54.6247 -0.310889 4.15238 0
M  V30 610 H 57.2217 -3.08382 4.36812 0
M  V30 611 H 57.5647 -3.20256 2.65973 0
M  V30 612 H 58.0977 -1.76507 3.56497 0
M  V30 613 H 54.8367 -1.03612 6.4726 0
M  V30 614 H 54.3567 -2.43331 5.48224 0
M  V30 615 H 56.0357 -2.27758 6.05587 0
M  V30 616 N 56.1678 -1.49265 -0.50573 0
M  V30 617 C 57.4448 -1.49012 -1.26707 0
M  V30 618 C 57.8248 -0.215205 -2.1 0
M  V30 619 O 57.1728 0.802547 -2.13943 0
M  V30 620 C 57.3828 -2.7663 -2.12783 0
M  V30 621 C 58.7308 -3.25932 -2.72127 0
M  V30 622 O 59.7548 -2.77715 -2.23054 0
M  V30 623 O 58.6138 -4.09897 -3.61451 0
M  V30 624 H 55.7078 -0.596197 -0.57313 0
M  V30 625 H 58.2538 -1.61524 -0.52039 0
M  V30 626 H 57.0258 -3.60916 -1.5118 0
M  V30 627 H 56.6488 -2.66956 -2.94653 0
M  V30 628 N 57.6459 0.756429 -1.3826 0
M  V30 629 C 58.5559 1.9009 -1.37488 0
M  V30 630 C 59.5719 1.71855 -0.272366 0
M  V30 631 O 60.7479 1.94827 -0.510318 0
M  V30 632 C 57.8129 3.25421 -1.19592 0
M  V30 633 C 56.8739 3.56202 -2.39622 0
M  V30 634 C 56.1069 4.85075 -2.2257 0
M  V30 635 O 56.3299 5.57246 -1.21793 0
M  V30 636 O 55.2639 5.15269 -3.11098 0
M  V30 637 H 59.0899 1.93695 -2.33914 0
M  V30 638 H 56.6749 0.901313 -1.1915 0
M  V30 639 H 58.5569 4.06337 -1.11661 0
M  V30 640 H 57.2319 3.22634 -0.262486 0
M  V30 641 H 56.1389 2.75458 -2.53128 0
M  V30 642 H 57.4719 3.63747 -3.31586 0
M  V30 643 N 59.124 1.23083 0.984299 0
M  V30 644 C 60.074 0.975749 2.06066 0
M  V30 645 C 61.058 -0.0768251 1.60716 0
M  V30 646 O 62.25 0.134805 1.76486 0
M  V30 647 C 59.379 0.564673 3.38624 0
M  V30 648 C 58.465 1.65244 3.90583 0
M  V30 649 N 58.856 2.88193 4.15666 0
M  V30 650 C 57.154 1.52612 4.19077 0
M  V30 651 C 57.855 3.58593 4.58024 0
M  V30 652 N 56.831 2.86093 4.62225 0
M  V30 653 H 60.633 1.90957 2.23411 0
M  V30 654 H 58.147 1.12963 1.16675 0
M  V30 655 H 60.144 0.36322 4.15315 0
M  V30 656 H 58.804 -0.362147 3.22674 0
M  V30 657 H 59.815 3.24537 4.03604 0
M  V30 658 H 56.492 0.666121 4.12152 0
M  V30 659 H 57.882 4.63974 4.85982 0
M  V30 660 N 60.6021 -1.18246 1.0419 0
M  V30 661 C 61.8481 -1.88536 0.747122 0
M  V30 662 C 62.1811 -1.80223 -0.723409 0
M  V30 663 O 61.4561 -1.20337 -1.52804 0
M  V30 664 C 61.7391 -3.38968 1.21544 0
M  V30 665 C 61.5921 -3.56084 2.74816 0
M  V30 666 C 62.9111 -4.32648 0.806482 0
M  V30 667 H 60.0301 -0.684619 0.272883 0
M  V30 668 H 62.6721 -1.39113 1.29413 0
M  V30 669 H 60.8221 -3.8119 0.750081 0
M  V30 670 H 62.4941 -3.22946 3.29399 0
M  V30 671 H 60.7371 -2.98699 3.14582 0
M  V30 672 H 61.4081 -4.61639 3.02644 0
M  V30 673 H 63.8841 -3.98211 1.20695 0
M  V30 674 H 62.7601 -5.36462 1.1619 0
M  V30 675 H 63.0211 -4.41146 -0.29029 0
M  V30 676 N 62.0802 -0.821533 -1.34494 0
M  V30 677 C 63.0282 -0.230702 -2.31453 0
M  V30 678 C 64.0222 0.627793 -1.57338 0
M  V30 679 O 65.2282 0.519288 -1.72347 0
M  V30 680 H 61.6032 -0.0558577 -0.749923 0
M  V30 681 H 63.5742 -1.06332 -2.78812 0
M  V30 682 C 62.3232 0.59391 -3.4259 0
M  V30 683 H 61.6462 -0.0573588 -3.99759 0
M  V30 684 H 63.0862 0.973446 -4.12674 0
M  V30 685 C 61.5452 1.76568 -2.86924 0
M  V30 686 O 62.0752 2.8638 -2.81691 0
M  V30 687 N 60.2812 1.58198 -2.43766 0
M  V30 688 H 59.8282 0.68872 -2.48222 0
M  V30 689 H 59.7862 2.36752 -2.06871 0
M  V30 690 N 63.5583 1.46682 -0.576371 0
M  V30 691 C 64.4903 2.28341 0.198231 0
M  V30 692 C 65.5033 1.38141 0.861453 0
M  V30 693 O 66.6923 1.62797 0.732082 0
M  V30 694 C 63.7923 3.12986 1.29972 0
M  V30 695 C 62.9653 4.31271 0.729639 0
M  V30 696 C 62.0243 4.97363 1.71803 0
M  V30 697 O 61.0503 5.55156 1.25658 0
M  V30 698 N 62.2523 4.93796 3.05198 0
M  V30 699 H 65.0173 2.9546 -0.502324 0
M  V30 700 H 62.5783 1.56525 -0.413715 0
M  V30 701 H 64.5703 3.54066 1.96008 0
M  V30 702 H 63.1403 2.47984 1.90323 0
M  V30 703 H 62.3603 3.94052 -0.108012 0
M  V30 704 H 63.6483 5.07739 0.328438 0
M  V30 705 H 63.0463 4.48077 3.45317 0
M  V30 706 H 61.6033 5.38837 3.6674 0
M  V30 707 N 65.0364 0.313813 1.54444 0
M  V30 708 C 66.2664 -0.293491 2.04505 0
M  V30 709 C 66.6744 -1.47086 1.19005 0
M  V30 710 O 66.0174 -1.82481 0.211257 0
M  V30 711 C 66.0794 -0.800455 3.50475 0
M  V30 712 C 65.7434 0.253322 4.56297 0
M  V30 713 C 66.7404 1.08612 5.08428 0
M  V30 714 C 64.4254 0.398708 5.00715 0
M  V30 715 C 66.4194 2.05013 6.0353 0
M  V30 716 C 64.1064 1.36614 5.95634 0
M  V30 717 C 65.1044 2.19033 6.46926 0
M  V30 718 O 64.7924 3.14134 7.39983 0
M  V30 719 H 64.5244 -0.0658325 0.672787 0
M  V30 720 H 67.0784 0.455177 2.00293 0
M  V30 721 H 65.3084 -1.59987 3.52053 0
M  V30 722 H 66.9974 -1.32504 3.83663 0
M  V30 723 H 67.7634 0.984736 4.74898 0
M  V30 724 H 63.6424 -0.23289 4.60411 0
M  V30 725 H 67.1864 2.69382 6.4349 0
M  V30 726 H 63.0834 1.4682 6.28581 0
M  V30 727 H 63.8514 3.0926 7.57826 0
M  V30 728 N 66.5145 -1.57545 0.0417849 0
M  V30 729 C 67.7615 -1.92317 -0.634082 0
M  V30 730 C 68.0895 -0.919334 -1.71402 0
M  V30 731 O 67.3445 0.0698253 -1.95575 0
M  V30 732 C 67.6435 -3.33794 -1.27735 0
M  V30 733 C 67.3095 -4.49716 -0.326543 0
M  V30 734 C 65.9715 -4.81156 -0.0648814 0
M  V30 735 C 68.3235 -5.20182 0.325623 0
M  V30 736 C 65.6515 -5.80414 0.856539 0
M  V30 737 C 68.0035 -6.20424 1.23518 0
M  V30 738 C 66.6675 -6.50298 1.5056 0
M  V30 739 H 65.9375 -0.703736 -0.232027 0
M  V30 740 H 68.5845 -1.91205 0.106259 0
M  V30 741 H 66.8895 -3.31228 -2.09274 0
M  V30 742 H 68.5865 -3.57975 -1.80707 0
M  V30 743 H 65.1765 -4.25176 -0.540665 0
M  V30 744 H 69.3605 -4.96112 0.136546 0
M  V30 745 H 64.6165 -6.019 1.07363 0
M  V30 746 H 68.7905 -6.74141 1.74664 0
M  V30 747 H 66.4175 -7.27025 2.22123 0
M  V30 748 N 67.9926 0.231505 -1.5589 0
M  V30 749 C 68.9556 1.27028 -1.90779 0
M  V30 750 C 69.9556 1.40308 -0.785507 0
M  V30 751 O 71.1456 1.38744 -1.05336 0
M  V30 752 C 68.2776 2.64566 -2.14983 0
M  V30 753 H 69.4706 0.973017 -2.83677 0
M  V30 754 H 67.0236 0.471486 -1.49019 0
M  V30 755 H 67.7586 2.99406 -1.24604 0
M  V30 756 H 67.5436 2.56305 -2.96732 0
M  V30 757 H 69.0336 3.39543 -2.43105 0
M  V30 758 N 69.4707 1.49531 0.497807 0
M  V30 759 C 70.7477 1.49682 1.25915 0
M  V30 760 C 71.1277 0.226339 2.09883 0
M  V30 761 O 70.4757 -0.791189 2.14365 0
M  V30 762 C 70.6857 2.77755 2.11313 0
M  V30 763 C 72.0337 3.27371 2.70395 0
M  V30 764 O 73.0577 2.78894 2.21578 0
M  V30 765 O 71.9167 4.11808 3.59272 0
M  V30 766 H 69.0107 0.599228 0.56996 0
M  V30 767 H 71.5567 1.61798 0.511816 0
M  V30 768 H 70.3287 3.61713 1.49264 0
M  V30 769 H 69.9517 2.68515 2.93233 0
M  V30 770 N 70.9488 -0.749086 1.3866 0
M  V30 771 C 71.8958 -1.86291 1.36251 0
M  V30 772 C 72.8658 -1.64578 0.224347 0
M  V30 773 O 74.0508 -1.86181 0.417279 0
M  V30 774 C 71.1908 -3.23644 1.19786 0
M  V30 775 C 70.3038 -3.57158 2.43027 0
M  V30 776 C 69.4388 -4.83838 2.19258 0
M  V30 777 C 68.4778 -5.10152 3.38247 0
M  V30 778 N 67.6148 -6.28029 3.13884 0
M  V30 779 H 72.4548 -1.87685 2.3147 0
M  V30 780 H 69.9918 -0.917287 1.14997 0
M  V30 781 H 71.9498 -4.0291 1.08254 0
M  V30 782 H 70.5798 -3.21566 0.282031 0
M  V30 783 H 69.6318 -2.72701 2.65214 0
M  V30 784 H 70.9438 -3.7253 3.31697 0
M  V30 785 H 70.0978 -5.71057 2.04888 0
M  V30 786 H 68.8368 -4.70614 1.2796 0
M  V30 787 H 67.8418 -4.21401 3.53131 0
M  V30 788 H 69.0668 -5.25271 4.30427 0
M  V30 789 H 67.0128 -6.1612 2.25238 0
M  V30 790 H 66.9298 -6.43922 3.96106 0
M  V30 791 H 68.1978 -7.18124 3.03179 0
M  V30 792 N 72.4269 -1.23603 -0.977757 0
M  V30 793 C 73.6739 -1.06971 -1.71941 0
M  V30 794 C 74.0019 0.393009 -1.90488 0
M  V30 795 O 73.2569 1.30719 -1.4564 0
M  V30 796 C 73.5559 -1.7433 -3.11999 0
M  V30 797 C 73.2219 -3.24252 -3.13323 0
M  V30 798 C 71.8839 -3.65156 -3.13392 0
M  V30 799 C 74.2359 -4.20141 -3.08433 0
M  V30 800 C 71.5639 -5.00403 -3.0629 0
M  V30 801 C 73.9159 -5.55384 -3.02873 0
M  V30 802 C 72.5799 -5.95647 -3.01265 0
M  V30 803 H 71.8499 -0.391433 -0.629175 0
M  V30 804 H 74.4969 -1.53572 -1.14403 0
M  V30 805 H 72.8019 -1.20096 -3.7294 0
M  V30 806 H 74.4989 -1.58936 -3.68158 0
M  V30 807 H 71.0889 -2.91692 -3.14029 0
M  V30 808 H 75.2729 -3.89547 -3.07517 0
M  V30 809 H 70.5289 -5.3081 -3.03399 0
M  V30 810 H 74.7029 -6.29398 -2.98046 0
M  V30 811 H 72.3299 -7.0041 -2.95516 0
M  V30 812 N 73.905 1.17692 -1.04816 0
M  V30 813 C 74.853 2.23632 -0.63966 0
M  V30 814 C 75.847 1.6601 0.337219 0
M  V30 815 O 77.053 1.78844 0.203693 0
M  V30 816 H 73.428 0.727949 -0.188665 0
M  V30 817 H 75.399 2.55387 -1.54337 0
M  V30 818 C 74.148 3.4769 -0.0264051 0
M  V30 819 H 73.471 3.92331 -0.769164 0
M  V30 820 H 74.911 4.23418 0.222098 0
M  V30 821 C 73.37 3.13807 1.22584 0
M  V30 822 O 73.9 3.28236 2.31569 0
M  V30 823 N 72.106 2.68065 1.12202 0
M  V30 824 H 71.653 2.56525 0.235133 0
M  V30 825 H 71.611 2.45767 1.96076 0
M  V30 826 N 75.3831 0.828654 1.34056 0
M  V30 827 C 76.6601 0.341809 1.9259 0
M  V30 828 C 77.0401 -1.17158 1.75605 0
M  V30 829 O 76.3881 -1.98132 1.13824 0
M  V30 830 C 76.5981 0.777453 3.4023 0
M  V30 831 C 77.9461 0.779579 4.17382 0
M  V30 832 O 78.9701 0.7204 3.48839 0
M  V30 833 O 77.8291 0.857996 5.39723 0
M  V30 834 H 74.9231 0.0946085 0.821571 0
M  V30 835 H 77.4691 0.913827 1.42994 0
M  V30 836 H 76.2411 1.8196 3.46419 0
M  V30 837 H 75.8641 0.181444 3.97186 0
M  V30 838 N 76.8612 -1.46375 0.584142 0
M  V30 839 C 78.1102 -2.01585 0.0679741 0
M  V30 840 C 78.4232 -1.46109 -1.30045 0
M  V30 841 O 79.6292 -1.93148 -1.90804 0
M  V30 842 C 78.0852 -3.5983 0.0709207 0
M  V30 843 C 77.6932 -4.24303 1.43775 0
M  V30 844 C 79.4372 -4.22693 -0.391228 0
M  V30 845 C 77.3442 -5.74631 1.39834 0
M  V30 846 H 76.2742 -0.753689 0.0216421 0
M  V30 847 H 78.9252 -1.68093 0.736001 0
M  V30 848 H 77.3072 -3.90405 -0.663299 0
M  V30 849 H 78.4812 -4.05335 2.19181 0
M  V30 850 H 76.7962 -3.73539 1.84004 0
M  V30 851 H 79.3932 -5.3289 -0.439524 0
M  V30 852 H 79.7362 -3.91728 -1.40906 0
M  V30 853 H 80.2692 -3.96749 0.288974 0
M  V30 854 H 77.0082 -6.10258 2.39303 0
M  V30 855 H 76.5282 -5.95858 0.686505 0
M  V30 856 H 78.2072 -6.37375 1.11187 0
M  V30 857 N 78.3393 -0.321999 -1.54275 0
M  V30 858 C 79.2693 0.537411 -2.27231 0
M  V30 859 C 80.2503 1.12064 -1.27968 0
M  V30 860 O 81.4353 1.14606 -1.56777 0
M  V30 861 C 78.5653 1.69919 -3.02894 0
M  V30 862 C 77.5193 1.24534 -4.09482 0
M  V30 863 C 76.8453 2.49394 -4.72977 0
M  V30 864 C 78.1453 0.361335 -5.21049 0
M  V30 865 H 79.8393 -0.0711406 -2.99315 0
M  V30 866 H 77.3853 -0.0356555 -1.43956 0
M  V30 867 H 79.3383 2.30668 -3.52662 0
M  V30 868 H 78.0623 2.33431 -2.28424 0
M  V30 869 H 76.7213 0.660782 -3.60596 0
M  V30 870 H 76.3693 3.11265 -3.95124 0
M  V30 871 H 76.0693 2.19718 -5.44975 0
M  V30 872 H 77.5933 3.10908 -5.25517 0
M  V30 873 H 79.0073 0.875072 -5.66582 0
M  V30 874 H 77.4043 0.157428 -5.99893 0
M  V30 875 H 78.4743 -0.60822 -4.8107 0
M  V30 876 N 79.8174 1.5752 -0.0501392 0
M  V30 877 C 81.0424 1.97376 0.636997 0
M  V30 878 C 81.4674 0.927466 1.63645 0
M  V30 879 O 80.8254 -0.10941 1.8097 0
M  V30 880 C 80.8734 3.36304 1.30123 0
M  V30 881 O 79.9774 3.34156 2.41689 0
M  V30 882 H 79.3184 0.642998 0.165679 0
M  V30 883 H 81.8484 2.04258 -0.118233 0
M  V30 884 H 81.8584 3.73008 1.65315 0
M  V30 885 H 80.5334 4.11993 0.568746 0
M  V30 886 H 79.1104 3.09196 2.08451 0
M  V30 887 N 81.2955 -0.223234 1.56011 0
M  V30 888 C 82.5255 -0.963413 1.82762 0
M  V30 889 C 82.9335 -1.78516 0.626804 0
M  V30 890 O 82.2765 -1.78974 -0.414014 0
M  V30 891 C 82.3385 -1.93126 3.0322 0
M  V30 892 C 82.0025 -1.2942 4.38291 0
M  V30 893 C 82.9995 -0.684916 5.15369 0
M  V30 894 C 80.6845 -1.30647 4.85012 0
M  V30 895 C 82.6785 -0.0963971 6.37327 0
M  V30 896 C 80.3655 -0.71411 6.06913 0
M  V30 897 C 81.3635 -0.110123 6.82911 0
M  V30 898 O 81.0515 0.47303 8.02507 0
M  V30 899 H 80.7835 -0.288011 0.611576 0
M  V30 900 H 83.3375 -0.244103 2.03944 0
M  V30 901 H 81.5675 -2.68952 2.77852 0
M  V30 902 H 83.2565 -2.53685 3.16857 0
M  V30 903 H 84.0225 -0.667774 4.80381 0
M  V30 904 H 79.9015 -1.76598 4.25833 0
M  V30 905 H 83.4455 0.375657 6.96588 0
M  V30 906 H 79.3425 -0.728659 6.41374 0
M  V30 907 H 80.1105 0.367186 8.17676 0
M  V30 908 N 82.7736 -1.49793 -0.48987 0
M  V30 909 C 83.6836 -1.70036 -1.61632 0
M  V30 910 C 84.6996 -0.583102 -1.63939 0
M  V30 911 O 85.8756 -0.859169 -1.82154 0
M  V30 912 C 82.9406 -1.77277 -2.97949 0
M  V30 913 C 82.0016 -3.00918 -3.06181 0
M  V30 914 C 81.2346 -3.07804 -4.35996 0
M  V30 915 O 81.4576 -2.21982 -5.25433 0
M  V30 916 O 80.3916 -4.00369 -4.49431 0
M  V30 917 H 84.2176 -2.65486 -1.47482 0
M  V30 918 H 81.8026 -1.33666 -0.667362 0
M  V30 919 H 83.6846 -1.84329 -3.78947 0
M  V30 920 H 82.3596 -0.850076 -3.12339 0
M  V30 921 H 81.2666 -2.99377 -2.2433 0
M  V30 922 H 82.5996 -3.92704 -2.96723 0
M  V30 923 N 84.2517 0.741722 -1.39055 0
M  V30 924 C 85.1997 1.87702 -1.3737 0
M  V30 925 C 86.1937 1.67427 -0.257812 0
M  V30 926 O 87.3997 1.7485 -0.427489 0
M  V30 927 H 83.7747 0.617757 -0.428812 0
M  V30 928 H 85.7457 1.86239 -2.33147 0
M  V30 929 C 84.4947 3.25315 -1.22741 0
M  V30 930 H 83.8177 3.41509 -2.07873 0
M  V30 931 H 85.2577 4.04964 -1.25618 0
M  V30 932 C 83.7167 3.36838 0.0647316 0
M  V30 933 O 84.2467 3.88073 1.03741 0
M  V30 934 N 82.4527 2.90329 0.125544 0
M  V30 935 H 81.9997 2.48823 -0.666682 0
M  V30 936 H 81.9577 2.98418 0.989639 0
M  V30 937 N 85.7298 1.2412 0.971189 0
M  V30 938 C 86.9758 1.08041 1.71625 0
M  V30 939 C 87.3088 -0.380407 1.90438 0
M  V30 940 O 86.5838 -1.28127 1.46334 0
M  V30 941 C 86.8668 1.81682 3.10908 0
M  V30 942 C 86.7198 3.35493 2.99608 0
M  V30 943 C 88.0388 1.58671 4.10501 0
M  V30 944 H 85.1578 0.39388 0.622919 0
M  V30 945 H 87.7998 1.52743 1.13003 0
M  V30 946 H 85.9498 1.43684 3.60953 0
M  V30 947 H 87.6218 3.83068 2.57015 0
M  V30 948 H 85.8648 3.64052 2.35899 0
M  V30 949 H 86.5358 3.82217 3.98264 0
M  V30 950 H 89.0118 1.91719 3.69301 0
M  V30 951 H 87.8878 2.1266 5.06031 0
M  V30 952 H 88.1488 0.524161 4.38982 0
M  V30 953 N 87.2079 -1.17134 1.05439 0
M  V30 954 C 88.1579 -2.1919 0.627675 0
M  V30 955 C 89.1419 -1.57328 -0.337147 0
M  V30 956 O 90.3339 -1.76329 -0.153976 0
M  V30 957 C 87.4629 -3.43299 0.00651435 0
M  V30 958 C 86.5489 -4.12255 0.995312 0
M  V30 959 N 86.9399 -4.56997 2.16765 0
M  V30 960 C 85.2379 -4.38316 0.824336 0
M  V30 961 C 85.9389 -5.10239 2.7934 0
M  V30 962 N 84.9149 -5.02595 2.07122 0
M  V30 963 H 88.7169 -2.5149 1.52086 0
M  V30 964 H 86.2309 -1.33491 0.924868 0
M  V30 965 H 88.2279 -4.15693 -0.316965 0
M  V30 966 H 86.8879 -3.1249 -0.882033 0
M  V30 967 H 87.8989 -4.51006 2.54587 0
M  V30 968 H 84.5759 -4.17498 -0.0129526 0
M  V30 969 H 85.9659 -5.54961 3.78772 0
M  V30 970 N 88.686 -0.835752 -1.33615 0
M  V30 971 C 89.633 -0.26473 -2.29277 0
M  V30 972 C 90.603 0.617712 -1.54187 0
M  V30 973 O 91.788 0.556641 -1.825 0
M  V30 974 C 88.928 0.556777 -3.40579 0
M  V30 975 C 88.041 -0.349339 -4.30585 0
M  V30 976 C 87.176 0.482969 -5.29 0
M  V30 977 C 86.215 -0.421732 -6.10645 0
M  V30 978 N 85.352 0.372262 -7.01112 0
M  V30 979 H 90.192 -1.08582 -2.77514 0
M  V30 980 H 87.729 -0.546927 -1.36554 0
M  V30 981 H 89.687 1.04852 -4.03809 0
M  V30 982 H 88.317 1.34286 -2.93542 0
M  V30 983 H 87.369 -0.959372 -3.68104 0
M  V30 984 H 88.681 -1.04445 -4.87742 0
M  V30 985 H 87.835 1.03866 -5.97743 0
M  V30 986 H 86.574 1.21153 -4.72412 0
M  V30 987 H 85.579 -0.989464 -5.40823 0
M  V30 988 H 86.804 -1.14861 -6.69316 0
M  V30 989 H 84.75 1.08426 -6.46977 0
M  V30 990 H 84.667 -0.264198 -7.55538 0
M  V30 991 H 85.935 0.910293 -7.74167 0
M  V30 992 N 90.1641 1.46063 -0.591896 0
M  V30 993 C 91.4101 2.02638 -0.0811191 0
M  V30 994 C 91.7431 1.4613 1.27905 0
M  V30 995 O 91.0181 0.629908 1.84017 0
M  V30 996 C 91.3011 3.60091 -0.0252436 0
M  V30 997 C 91.1541 4.26965 -1.41496 0
M  V30 998 C 92.4731 4.3496 0.670685 0
M  V30 999 H 89.5921 0.73635 -0.0309524 0
M  V30 1000 H 92.2341 1.741 -0.760859 0
M  V30 1001 H 90.3841 3.84535 0.553624 0
M  V30 1002 H 92.0561 4.13756 -2.0397 0
M  V30 1003 H 90.2991 3.85971 -1.98011 0
M  V30 1004 H 90.9701 5.35781 -1.32825 0
M  V30 1005 H 93.4461 4.15716 0.178825 0
M  V30 1006 H 92.3221 5.44686 0.678837 0
M  V30 1007 H 92.5831 4.06685 1.73379 0
M  V30 1008 N 91.6422 0.330177 1.54103 0
M  V30 1009 C 92.8912 -0.271336 1.99867 0
M  V30 1010 C 93.2042 -1.52723 1.22209 0
M  V30 1011 O 94.4102 -2.20515 1.58383 0
M  V30 1012 C 92.8662 -0.534032 3.55916 0
M  V30 1013 C 92.4742 0.705193 4.42415 0
M  V30 1014 C 94.2182 -1.09514 4.1013 0
M  V30 1015 C 92.1252 0.414035 5.89949 0
M  V30 1016 H 91.0552 -0.105166 0.74663 0
M  V30 1017 H 93.7062 0.443429 1.78062 0
M  V30 1018 H 92.0882 -1.30915 3.73734 0
M  V30 1019 H 93.2622 1.4804 4.36372 0
M  V30 1020 H 91.5772 1.18698 3.99124 0
M  V30 1021 H 94.1742 -1.3277 5.17954 0
M  V30 1022 H 94.5172 -2.04656 3.62521 0
M  V30 1023 H 95.0502 -0.381038 3.95971 0
M  V30 1024 H 91.7892 1.33481 6.41766 0
M  V30 1025 H 91.3092 -0.323336 5.98928 0
M  V30 1026 H 92.9882 0.0263105 6.46995 0
M  V30 1027 N 93.1203 -1.57491 0.0584922 0
M  V30 1028 C 94.3693 -1.92155 -0.613146 0
M  V30 1029 C 94.6823 -0.939334 -1.71569 0
M  V30 1030 O 95.8883 -1.17829 -2.44599 0
M  V30 1031 C 94.3443 -3.41303 -1.14195 0
M  V30 1032 C 93.9523 -4.47944 -0.0711265 0
M  V30 1033 C 95.6963 -3.84988 -1.78841 0
M  V30 1034 C 93.6033 -5.88212 -0.613225 0
M  V30 1035 H 92.5333 -0.717162 -0.232796 0
M  V30 1036 H 95.1843 -1.83049 0.12857 0
M  V30 1037 H 93.5663 -3.45437 -1.93621 0
M  V30 1038 H 94.7403 -4.55408 0.702836 0
M  V30 1039 H 93.0553 -4.13644 0.478313 0
M  V30 1040 H 95.6523 -4.87159 -2.20408 0
M  V30 1041 H 95.9953 -3.21632 -2.64308 0
M  V30 1042 H 96.5283 -3.83401 -1.06059 0
M  V30 1043 H 93.2673 -6.55183 0.203978 0
M  V30 1044 H 92.7873 -5.84294 -1.35501 0
M  V30 1045 H 94.4663 -6.37687 -1.09383 0
M  V30 1046 N 94.5984 0.214957 -1.56127 0
M  V30 1047 C 96.0094 0.781386 -1.69562 0
M  V30 1048 C 96.3604 1.84707 -0.66165 0
M  V30 1049 O 95.4854 2.156 0.185927 0
M  V30 1050 C 96.0804 1.42411 -3.07416 0
M  V30 1051 C 94.6394 1.93786 -3.22683 0
M  V30 1052 C 93.7864 0.800438 -2.65496 0
M  V30 1053 H 96.7374 -0.00980633 -1.58697 0
M  V30 1054 H 96.7584 2.29309 -3.0364 0
M  V30 1055 H 96.2704 0.64826 -3.82648 0
M  V30 1056 H 94.3714 2.74152 -2.52332 0
M  V30 1057 H 94.4844 2.1133 -4.29973 0
M  V30 1058 H 92.8484 1.2095 -2.2415 0
M  V30 1059 H 93.6314 0.0371471 -3.4328 0
M  V30 1060 N 96.0765 1.50051 0.48192 0
M  V30 1061 C 97.0395 1.67584 1.5636 0
M  V30 1062 C 98.0395 0.546894 1.51214 0
M  V30 1063 O 99.2295 0.813725 1.54026 0
M  V30 1064 C 96.3615 1.691 2.96003 0
M  V30 1065 H 97.5545 2.64078 1.42136 0
M  V30 1066 H 95.1075 1.39369 0.707533 0
M  V30 1067 H 95.8425 0.742589 3.15684 0
M  V30 1068 H 95.6275 2.51105 3.01146 0
M  V30 1069 H 97.1175 1.84656 3.74556 0
M  V30 1070 N 97.5546 -0.734337 1.39446 0
M  V30 1071 C 98.8026 -1.49096 1.36436 0
M  V30 1072 C 99.1236 -1.94961 -0.0388255 0
M  V30 1073 O 98.3936 -1.69033 -0.990191 0
M  V30 1074 H 96.9736 -0.5531 0.502085 0
M  V30 1075 H 99.6356 -0.871725 1.74319 0
M  V30 1076 H 98.7316 -2.37276 2.02747 0
M  V30 1077 N 99.0327 -1.24633 -0.964593 0
M  V30 1078 C 99.9427 -1.05859 -2.09359 0
M  V30 1079 C 100.959 0.00148855 -1.74 0
M  V30 1080 O 102.135 -0.197346 -2.00431 0
M  V30 1081 C 99.1997 -0.668879 -3.40187 0
M  V30 1082 C 98.2607 -1.80578 -3.89474 0
M  V30 1083 C 97.4937 -1.43457 -5.14058 0
M  V30 1084 O 97.7167 -0.325775 -5.69469 0
M  V30 1085 O 96.6507 -2.2613 -5.57807 0
M  V30 1086 H 100.477 -2.00516 -2.28094 0
M  V30 1087 H 98.0617 -1.03481 -1.0776 0
M  V30 1088 H 99.9437 -0.463211 -4.18846 0
M  V30 1089 H 98.6187 0.248536 -3.22744 0
M  V30 1090 H 97.5257 -2.06623 -3.11862 0
M  V30 1091 H 98.8587 -2.70208 -4.11398 0
M  V30 1092 N 100.511 1.16574 -1.06058 0
M  V30 1093 C 101.458 2.20883 -0.669263 0
M  V30 1094 C 102.428 1.62729 0.332918 0
M  V30 1095 O 103.613 1.895 0.222346 0
M  V30 1096 C 100.753 3.45049 -0.0593572 0
M  V30 1097 C 99.8658 4.17458 -1.11143 0
M  V30 1098 C 99.0008 5.29135 -0.467916 0
M  V30 1099 C 98.0398 5.93343 -1.50369 0
M  V30 1100 N 97.1768 6.96516 -0.883706 0
M  V30 1101 H 102.017 2.53709 -1.5632 0
M  V30 1102 H 99.5538 1.24616 -0.781625 0
M  V30 1103 H 101.512 4.16033 0.311771 0
M  V30 1104 H 100.142 3.12781 0.797992 0
M  V30 1105 H 99.1938 3.45101 -1.60029 0
M  V30 1106 H 100.506 4.61307 -1.89731 0
M  V30 1107 H 99.6598 6.06684 -0.0436871 0
M  V30 1108 H 98.3988 4.86443 0.349864 0
M  V30 1109 H 97.4038 5.14517 -1.93784 0
M  V30 1110 H 98.6288 6.38114 -2.32352 0
M  V30 1111 H 96.5748 6.55943 -0.086595 0
M  V30 1112 H 96.4918 7.38723 -1.607 0
M  V30 1113 H 97.7598 7.77993 -0.484543 0
M  V30 1114 N 101.989 0.842826 1.3317 0
M  V30 1115 C 103.217 0.454055 2.01856 0
M  V30 1116 C 103.632 -0.94587 1.63397 0
M  V30 1117 O 102.989 -1.61534 0.849302 0
M  V30 1118 C 103.04 0.569715 3.56982 0
M  V30 1119 O 102.761 1.91448 3.94055 0
M  V30 1120 C 104.262 0.178412 4.42941 0
M  V30 1121 H 101.482 0.17979 0.646465 0
M  V30 1122 H 104.026 1.1365 1.70012 0
M  V30 1123 H 102.181 -0.0648587 3.87346 0
M  V30 1124 H 102.595 1.90282 4.88767 0
M  V30 1125 H 104.069 0.310376 5.51127 0
M  V30 1126 H 104.546 -0.880056 4.30293 0
M  V30 1127 H 105.152 0.787579 4.17944 0
M  V30 1128 N 103.467 -1.45747 0.599634 0
M  V30 1129 C 104.414 -2.30467 -0.123849 0
M  V30 1130 C 105.384 -1.41632 -0.86774 0
M  V30 1131 O 106.569 -1.70568 -0.855056 0
M  V30 1132 C 103.709 -3.26402 -1.12051 0
M  V30 1133 C 102.822 -4.3034 -0.37832 0
M  V30 1134 C 101.957 -5.13389 -1.364 0
M  V30 1135 C 100.996 -6.09061 -0.609171 0
M  V30 1136 N 100.133 -6.84918 -1.54374 0
M  V30 1137 H 104.973 -2.91802 0.604627 0
M  V30 1138 H 102.51 -1.43797 0.309972 0
M  V30 1139 H 104.468 -3.80482 -1.7114 0
M  V30 1140 H 103.098 -2.66839 -1.8165 0
M  V30 1141 H 102.15 -3.78984 0.327929 0
M  V30 1142 H 103.462 -4.98354 0.210997 0
M  V30 1143 H 102.616 -5.7183 -2.02719 0
M  V30 1144 H 101.355 -4.45376 -1.98725 0
M  V30 1145 H 100.36 -5.49758 0.0676979 0
M  V30 1146 H 101.585 -6.79099 0.00891991 0
M  V30 1147 H 99.531 -6.19601 -2.15478 0
M  V30 1148 H 99.448 -7.49254 -1.00766 0
M  V30 1149 H 100.716 -7.47906 -2.19676 0
M  V30 1150 N 104.945 -0.338344 -1.53925 0
M  V30 1151 C 106.173 0.261298 -2.05243 0
M  V30 1152 C 106.588 1.44625 -1.21363 0
M  V30 1153 O 105.945 1.80811 -0.247736 0
M  V30 1154 C 105.996 0.681412 -3.5502 0
M  V30 1155 O 105.717 -0.456414 -4.35716 0
M  V30 1156 C 107.218 1.34232 -4.22489 0
M  V30 1157 H 104.438 0.0513685 -0.669031 0
M  V30 1158 H 106.982 -0.488822 -1.98572 0
M  V30 1159 H 105.137 1.38148 -3.61931 0
M  V30 1160 H 105.551 -0.122564 -5.24357 0
M  V30 1161 H 107.025 1.58708 -5.28693 0
M  V30 1162 H 107.502 2.29426 -3.74514 0
M  V30 1163 H 108.108 0.684424 -4.19757 0
M  V30 1164 N 106.423 1.57458 -0.0668435 0
M  V30 1165 C 107.67 1.93301 0.603406 0
M  V30 1166 C 107.998 0.946486 1.69917 0
M  V30 1167 O 107.253 -0.0387021 1.95662 0
M  V30 1168 C 107.552 3.35784 1.22409 0
M  V30 1169 C 107.218 4.50179 0.254955 0
M  V30 1170 C 105.88 4.81199 -0.0116746 0
M  V30 1171 C 108.232 5.19598 -0.408338 0
M  V30 1172 C 105.56 5.78978 -0.94877 0
M  V30 1173 C 107.912 6.18381 -1.33372 0
M  V30 1174 C 106.576 6.47821 -1.60887 0
M  V30 1175 H 105.846 0.707338 0.220802 0
M  V30 1176 H 108.493 1.91012 -0.136665 0
M  V30 1177 H 106.798 3.34515 2.03978 0
M  V30 1178 H 108.495 3.60804 1.74989 0
M  V30 1179 H 105.085 4.25983 0.472954 0
M  V30 1180 H 109.269 4.95832 -0.215456 0
M  V30 1181 H 104.525 6.00115 -1.16925 0
M  V30 1182 H 108.699 6.71277 -1.85367 0
M  V30 1183 H 106.326 7.23399 -2.33661 0
M  V30 1184 N 107.901 -0.206675 1.56239 0
M  V30 1185 C 108.811 -1.27686 1.96808 0
M  V30 1186 C 109.827 -1.50455 0.874035 0
M  V30 1187 O 111.003 -1.63295 1.17884 0
M  V30 1188 C 108.068 -2.60358 2.28942 0
M  V30 1189 C 107.129 -2.45762 3.51994 0
M  V30 1190 C 106.362 -3.72108 3.82585 0
M  V30 1191 O 106.585 -4.75776 3.14631 0
M  V30 1192 O 105.519 -3.6833 4.76043 0
M  V30 1193 H 109.345 -0.962593 2.88041 0
M  V30 1194 H 106.93 -0.410746 1.43643 0
M  V30 1195 H 108.812 -3.38687 2.50737 0
M  V30 1196 H 107.487 -2.91435 1.4088 0
M  V30 1197 H 106.394 -1.65584 3.35459 0
M  V30 1198 H 107.727 -2.19621 4.40486 0
M  V30 1199 N 109.379 -1.50304 -0.473955 0
M  V30 1200 C 110.311 -1.65109 -1.58971 0
M  V30 1201 C 111.324 -0.532676 -1.53839 0
M  V30 1202 O 112.513 -0.805751 -1.59279 0
M  V30 1203 C 109.613 -1.61684 -2.97845 0
M  V30 1204 C 108.786 -2.8951 -3.27876 0
M  V30 1205 C 107.845 -2.78768 -4.4629 0
M  V30 1206 O 106.871 -3.52722 -4.46739 0
M  V30 1207 N 108.073 -1.9213 -5.47783 0
M  V30 1208 H 110.838 -2.61347 -1.46689 0
M  V30 1209 H 108.399 -1.47732 -0.662324 0
M  V30 1210 H 110.391 -1.52114 -3.75024 0
M  V30 1211 H 108.961 -0.731925 -3.03911 0
M  V30 1212 H 108.181 -3.13228 -2.39336 0
M  V30 1213 H 109.469 -3.74199 -3.4475 0
M  V30 1214 H 108.867 -1.31353 -5.50239 0
M  V30 1215 H 107.424 -1.88466 -6.23958 0
M  V30 1216 N 110.857 0.726932 -1.39834 0
M  V30 1217 C 112.087 1.51393 -1.40583 0
M  V30 1218 C 112.495 1.892 -0.000740625 0
M  V30 1219 O 111.838 1.55189 0.982951 0
M  V30 1220 C 111.9 2.82588 -2.22226 0
M  V30 1221 C 111.564 2.67169 -3.70769 0
M  V30 1222 C 112.561 2.3518 -4.63666 0
M  V30 1223 C 110.246 2.83788 -4.14451 0
M  V30 1224 C 112.24 2.20002 -5.98229 0
M  V30 1225 C 109.927 2.68229 -5.49087 0
M  V30 1226 C 110.925 2.36382 -6.4079 0
M  V30 1227 O 110.613 2.2093 -7.72946 0
M  V30 1228 H 110.345 0.474168 -0.48181 0
M  V30 1229 H 112.899 0.905247 -1.84376 0
M  V30 1230 H 111.129 3.45746 -1.73195 0
M  V30 1231 H 112.818 3.44247 -2.15055 0
M  V30 1232 H 113.584 2.21984 -4.31217 0
M  V30 1233 H 109.463 3.07566 -3.43401 0
M  V30 1234 H 113.007 1.95067 -6.69772 0
M  V30 1235 H 108.904 2.81006 -5.81125 0
M  V30 1236 H 109.672 2.35937 -7.83757 0
M  V30 1237 N 112.336 1.25143 0.95797 0
M  V30 1238 C 113.268 1.01023 2.05735 0
M  V30 1239 C 114.281 -0.0236902 1.62783 0
M  V30 1240 O 115.47 0.21448 1.77207 0
M  V30 1241 C 112.57 0.504595 3.35122 0
M  V30 1242 C 111.743 1.6039 4.06932 0
M  V30 1243 C 110.802 1.09922 5.14591 0
M  V30 1244 O 109.828 1.79293 5.40225 0
M  V30 1245 N 111.03 -0.0612545 5.80468 0
M  V30 1246 H 113.795 1.95683 2.26998 0
M  V30 1247 H 111.356 1.16303 1.12629 0
M  V30 1248 H 113.348 0.151516 4.04416 0
M  V30 1249 H 111.918 -0.347989 3.10657 0
M  V30 1250 H 111.138 2.12872 3.31782 0
M  V30 1251 H 112.426 2.34252 4.51667 0
M  V30 1252 H 111.824 -0.640985 5.62057 0
M  V30 1253 H 110.381 -0.355395 6.5083 0
M  V30 1254 N 113.814 -1.1601 1.06675 0
M  V30 1255 C 114.724 -2.24156 0.692179 0
M  V30 1256 C 115.74 -1.71507 -0.293513 0
M  V30 1257 O 116.916 -2.009 -0.141861 0
M  V30 1258 C 113.981 -3.46587 0.0884131 0
M  V30 1259 C 113.042 -4.14257 1.12646 0
M  V30 1260 C 112.275 -5.30844 0.551416 0
M  V30 1261 O 112.498 -5.66858 -0.634656 0
M  V30 1262 O 111.432 -5.87848 1.29298 0
M  V30 1263 H 115.258 -2.58513 1.59388 0
M  V30 1264 H 112.843 -1.23599 0.83926 0
M  V30 1265 H 114.725 -4.20679 -0.246361 0
M  V30 1266 H 113.4 -3.13994 -0.786712 0
M  V30 1267 H 112.307 -3.42118 1.51348 0
M  V30 1268 H 113.64 -4.50914 1.97325 0
M  V30 1269 N 115.292 -0.849877 -1.32721 0
M  V30 1270 C 116.52 -0.464754 -2.01613 0
M  V30 1271 C 116.935 0.937191 -1.63897 0
M  V30 1272 O 116.292 1.61081 -0.857856 0
M  V30 1273 C 116.343 -0.588638 -3.56675 0
M  V30 1274 O 116.064 -1.93535 -3.93034 0
M  V30 1275 C 117.565 -0.2019 -4.4284 0
M  V30 1276 H 114.785 -0.183215 -0.645502 0
M  V30 1277 H 117.329 -1.1455 -1.69407 0
M  V30 1278 H 115.484 0.0443159 -3.87375 0
M  V30 1279 H 115.898 -1.92871 -4.87751 0
M  V30 1280 H 117.372 -0.339599 -5.50954 0
M  V30 1281 H 117.849 0.857224 -4.30753 0
M  V30 1282 H 118.455 -0.809733 -4.17521 0
M  V30 1283 N 116.77 1.45427 -0.607355 0
M  V30 1284 C 117.7 2.3329 0.0989352 0
M  V30 1285 C 118.681 1.46816 0.859007 0
M  V30 1286 O 119.866 1.75588 0.829604 0
M  V30 1287 C 116.996 3.29518 1.09705 0
M  V30 1288 C 115.95 4.25626 0.450206 0
M  V30 1289 C 115.276 5.11542 1.55655 0
M  V30 1290 C 116.576 5.18505 -0.628455 0
M  V30 1291 H 118.27 2.92595 -0.634716 0
M  V30 1292 H 115.816 1.40696 -0.306681 0
M  V30 1293 H 117.769 3.89855 1.59971 0
M  V30 1294 H 116.493 2.68372 1.86129 0
M  V30 1295 H 115.152 3.66586 -0.0315886 0
M  V30 1296 H 114.8 4.46765 2.31107 0
M  V30 1297 H 114.5 5.76647 1.12925 0
M  V30 1298 H 116.024 5.74748 2.06148 0
M  V30 1299 H 117.438 5.72916 -0.209877 0
M  V30 1300 H 115.835 5.92085 -0.977489 0
M  V30 1301 H 116.905 4.60948 -1.50514 0
M  V30 1302 N 118.248 0.346503 1.53744 0
M  V30 1303 C 119.158 -0.517293 2.28826 0
M  V30 1304 C 120.174 -1.10935 1.3405 0
M  V30 1305 O 121.35 -1.1244 1.6709 0
M  V30 1306 C 118.415 -1.65098 3.04866 0
M  V30 1307 C 117.476 -1.0884 4.15274 0
M  V30 1308 C 116.709 -2.16806 4.87679 0
M  V30 1309 O 116.932 -3.3758 4.59778 0
M  V30 1310 O 115.866 -1.80934 5.74061 0
M  V30 1311 H 119.692 0.0931396 3.03557 0
M  V30 1312 H 117.277 0.111458 1.48984 0
M  V30 1313 H 119.159 -2.31053 3.5241 0
M  V30 1314 H 117.834 -2.24717 2.32989 0
M  V30 1315 H 116.741 -0.3933 3.72027 0
M  V30 1316 H 118.074 -0.537036 4.89261 0
M  V30 1317 N 119.726 -1.57421 0.075193 0
M  V30 1318 C 120.956 -1.97659 -0.601203 0
M  V30 1319 C 121.364 -0.952427 -1.63479 0
M  V30 1320 O 120.707 0.0688241 -1.83571 0
M  V30 1321 C 120.769 -3.34218 -1.32434 0
M  V30 1322 C 120.433 -4.5484 -0.443826 0
M  V30 1323 C 121.43 -5.19034 0.299969 0
M  V30 1324 C 119.115 -5.00952 -0.367709 0
M  V30 1325 C 121.109 -6.27695 1.10807 0
M  V30 1326 C 118.796 -6.09484 0.444058 0
M  V30 1327 C 119.794 -6.72719 1.18061 0
M  V30 1328 O 119.482 -7.79161 1.97898 0
M  V30 1329 H 119.214 -0.65494 -0.167422 0
M  V30 1330 H 121.768 -2.04886 0.145157 0
M  V30 1331 H 119.998 -3.23615 -2.11685 0
M  V30 1332 H 121.687 -3.59038 -1.89331 0
M  V30 1333 H 122.453 -4.84351 0.250776 0
M  V30 1334 H 118.332 -4.51509 -0.930638 0
M  V30 1335 H 121.876 -6.76982 1.68347 0
M  V30 1336 H 117.773 -6.43601 0.494803 0
M  V30 1337 H 118.541 -7.96055 1.90367 0
M  V30 1338 N 121.204 0.198386 -1.56346 0
M  V30 1339 C 122.453 0.917451 -1.79627 0
M  V30 1340 C 122.766 1.8456 -0.64784 0
M  V30 1341 O 123.972 2.60504 -0.764859 0
M  V30 1342 C 122.428 1.68175 -3.18191 0
M  V30 1343 C 122.036 0.798589 -4.40825 0
M  V30 1344 C 123.78 2.39065 -3.50782 0
M  V30 1345 C 121.687 1.56157 -5.70411 0
M  V30 1346 H 120.617 0.346317 -0.669762 0
M  V30 1347 H 123.268 0.170801 -1.82703 0
M  V30 1348 H 121.65 2.47216 -3.09354 0
M  V30 1349 H 122.824 0.0470665 -4.60776 0
M  V30 1350 H 121.139 0.200686 -4.15916 0
M  V30 1351 H 123.736 2.96692 -4.44835 0
M  V30 1352 H 124.079 3.13091 -2.74371 0
M  V30 1353 H 124.612 1.66993 -3.61052 0
M  V30 1354 H 121.351 0.864142 -6.49779 0
M  V30 1355 H 120.871 2.2871 -5.54483 0
M  V30 1356 H 122.55 2.11622 -6.11412 0
M  V30 1357 N 122.682 1.50554 0.465978 0
M  V30 1358 C 123.612 1.72722 1.57128 0
M  V30 1359 C 124.593 0.576294 1.6004 0
M  V30 1360 O 125.778 0.81598 1.76225 0
M  V30 1361 C 122.908 1.82605 2.95419 0
M  V30 1362 C 121.862 2.97835 3.07373 0
M  V30 1363 C 121.188 2.92867 4.47363 0
M  V30 1364 C 122.488 4.38265 2.84114 0
M  V30 1365 H 124.182 2.65267 1.38829 0
M  V30 1366 H 121.728 1.2765 0.666441 0
M  V30 1367 H 123.681 1.96698 3.72677 0
M  V30 1368 H 122.405 0.866858 3.14886 0
M  V30 1369 H 121.064 2.83401 2.3255 0
M  V30 1370 H 120.712 1.94783 4.63755 0
M  V30 1371 H 120.412 3.70227 4.56296 0
M  V30 1372 H 121.936 3.09015 5.26633 0
M  V30 1373 H 123.35 4.53198 3.51118 0
M  V30 1374 H 121.747 5.17115 3.04487 0
M  V30 1375 H 122.817 4.50281 1.7993 0
M  V30 1376 N 124.16 -0.719506 1.40217 0
M  V30 1377 C 125.385 -1.51371 1.4178 0
M  V30 1378 C 125.81 -1.88091 0.0182355 0
M  V30 1379 O 125.168 -1.52997 -0.972707 0
M  V30 1380 C 125.216 -2.768 2.31115 0
M  V30 1381 O 124.32 -3.73349 1.7517 0
M  V30 1382 H 123.661 -0.456529 0.482159 0
M  V30 1383 H 126.191 -0.88644 1.844 0
M  V30 1384 H 126.201 -3.25371 2.46167 0
M  V30 1385 H 124.876 -2.49407 3.3282 0
M  V30 1386 H 123.453 -3.32179 1.69444 0
M  V30 1387 N 125.638 -1.25649 -0.95132 0
M  V30 1388 C 126.588 -1.03004 -2.03406 0
M  V30 1389 C 127.572 0.034187 -1.60864 0
M  V30 1390 O 128.764 -0.181549 -1.76066 0
M  V30 1391 C 125.893 -0.654255 -3.37008 0
M  V30 1392 C 124.979 -1.75542 -3.86065 0
M  V30 1393 N 125.37 -2.99113 -4.07879 0
M  V30 1394 C 123.668 -1.63669 -4.14884 0
M  V30 1395 C 124.369 -3.70611 -4.48356 0
M  V30 1396 N 123.345 -2.98247 -4.54477 0
M  V30 1397 H 127.147 -1.96813 -2.1827 0
M  V30 1398 H 124.661 -1.16017 -1.13639 0
M  V30 1399 H 126.658 -0.473206 -4.14206 0
M  V30 1400 H 125.318 0.276468 -3.23521 0
M  V30 1401 H 126.329 -3.35124 -3.94857 0
M  V30 1402 H 123.006 -0.775161 -4.10241 0
M  V30 1403 H 124.396 -4.76695 -4.73509 0
M  V30 1404 N 127.117 1.15442 -1.07289 0
M  V30 1405 C 128.067 2.18164 -0.662467 0
M  V30 1406 C 129.051 1.57845 0.312074 0
M  V30 1407 O 130.243 1.76552 0.125905 0
M  V30 1408 C 127.372 3.43246 -0.0611295 0
M  V30 1409 C 126.458 4.1062 -1.06077 0
M  V30 1410 N 126.849 4.53491 -2.24008 0
M  V30 1411 C 125.147 4.36949 -0.893964 0
M  V30 1412 C 125.848 5.05731 -2.87422 0
M  V30 1413 N 124.824 4.99236 -2.15091 0
M  V30 1414 H 128.626 2.49038 -1.56068 0
M  V30 1415 H 126.14 1.32003 -0.945988 0
M  V30 1416 H 128.137 4.16145 0.250792 0
M  V30 1417 H 126.797 3.13854 0.832207 0
M  V30 1418 H 127.808 4.46898 -2.6173 0
M  V30 1419 H 124.485 4.17466 -0.0534693 0
M  V30 1420 H 125.875 5.48865 -3.87553 0
M  V30 1421 N 128.595 0.856903 1.32268 0
M  V30 1422 C 129.841 0.462069 1.97466 0
M  V30 1423 C 130.174 -0.980298 1.67642 0
M  V30 1424 O 129.449 -1.68824 0.965858 0
M  V30 1425 C 129.732 0.704336 3.53145 0
M  V30 1426 C 129.585 2.19529 3.9259 0
M  V30 1427 C 130.904 0.1622 4.39801 0
M  V30 1428 H 128.023 0.169357 0.717278 0
M  V30 1429 H 130.665 1.07574 1.56614 0
M  V30 1430 H 128.815 0.181999 3.88073 0
M  V30 1431 H 130.487 2.78387 3.67829 0
M  V30 1432 H 128.73 2.67292 3.41668 0
M  V30 1433 H 129.401 2.31549 5.01088 0
M  V30 1434 H 131.877 0.608905 4.11621 0
M  V30 1435 H 130.753 0.361265 5.4771 0
M  V30 1436 H 131.014 -0.935158 4.32096 0
M  V30 1437 N 130.073 -1.45103 0.615059 0
M  V30 1438 C 131.301 -2.06553 0.11977 0
M  V30 1439 C 131.716 -1.45842 -1.19898 0
M  V30 1440 O 131.073 -0.575325 -1.73194 0
M  V30 1441 C 131.124 -3.61495 -0.018364 0
M  V30 1442 O 130.845 -4.19942 1.24822 0
M  V30 1443 C 132.346 -4.39947 -0.544237 0
M  V30 1444 H 129.566 -0.667096 0.0722739 0
M  V30 1445 H 132.11 -1.8623 0.84491 0
M  V30 1446 H 130.265 -3.81135 -0.693865 0
M  V30 1447 H 130.679 -5.13204 1.0827 0
M  V30 1448 H 132.153 -5.48838 -0.589953 0
M  V30 1449 H 132.63 -4.10255 -1.56805 0
M  V30 1450 H 133.236 -4.25188 0.0974703 0
M  V30 1451 N 131.551 -0.354651 -1.53558 0
M  V30 1452 C 132.967 -0.00315426 -1.596 0
M  V30 1453 C 133.167 1.47741 -1.37021 0
M  V30 1454 O 132.223 2.23759 -1.16996 0
M  V30 1455 C 133.536 -0.44929 -2.97325 0
M  V30 1456 C 135.084 -0.402578 -3.104 0
M  V30 1457 C 135.559 -0.824355 -4.5052 0
M  V30 1458 N 137.05 -0.778979 -4.56603 0
M  V30 1459 C 137.785 -1.07715 -5.63192 0
M  V30 1460 N 137.281 -1.44405 -6.77583 0
M  V30 1461 N 139.074 -1.00066 -5.53121 0
M  V30 1462 H 131.225 -1.31893 -1.66487 0
M  V30 1463 H 133.488 -0.538388 -0.780284 0
M  V30 1464 H 133.194 -1.48202 -3.1895 0
M  V30 1465 H 133.068 0.169772 -3.76818 0
M  V30 1466 H 135.455 0.621004 -2.88492 0
M  V30 1467 H 135.536 -1.05699 -2.32941 0
M  V30 1468 H 135.18 -1.846 -4.73165 0
M  V30 1469 H 135.11 -0.147304 -5.26394 0
M  V30 1470 H 137.601 -0.508528 -3.74463 0
M  V30 1471 H 137.914 -1.65612 -7.54846 0
M  V30 1472 H 136.259 -1.4826 -6.79002 0
M  V30 1473 H 139.45 -0.713293 -4.62633 0
M  V30 1474 H 139.623 -1.23638 -6.36096 0
M  V30 1475 N 133.029 1.57378 -0.0835403 0
M  V30 1476 C 133.977 2.14602 0.89714 0
M  V30 1477 C 134.971 1.08589 1.30018 0
M  V30 1478 O 136.177 1.26952 1.27606 0
M  V30 1479 H 132.552 0.686346 0.3073 0
M  V30 1480 H 134.523 2.95845 0.38969 0
M  V30 1481 C 133.272 2.73188 2.15089 0
M  V30 1482 H 132.595 3.54442 1.84962 0
M  V30 1483 H 134.035 3.1681 2.81793 0
M  V30 1484 C 132.494 1.68517 2.91725 0
M  V30 1485 O 133.024 1.11718 3.85852 0
M  V30 1486 N 131.23 1.39277 2.55049 0
M  V30 1487 H 130.777 1.85655 1.78577 0
M  V30 1488 H 130.735 0.694791 3.06627 0
M  V30 1489 N 134.507 -0.190092 1.56449 0
M  V30 1490 C 135.735 -0.925772 1.85033 0
M  V30 1491 C 136.15 -1.76638 0.666658 0
M  V30 1492 O 135.507 -1.78822 -0.364565 0
M  V30 1493 C 135.558 -1.81786 3.12468 0
M  V30 1494 O 135.279 -1.01118 4.26271 0
M  V30 1495 C 136.78 -2.6648 3.54265 0
M  V30 1496 H 134 -0.269872 0.614337 0
M  V30 1497 H 136.544 -0.195837 2.0356 0
M  V30 1498 H 134.699 -2.50136 2.95822 0
M  V30 1499 H 135.113 -1.61956 4.98869 0
M  V30 1500 H 136.587 -3.24722 4.46385 0
M  V30 1501 H 137.064 -3.40434 2.77491 0
M  V30 1502 H 137.67 -2.03493 3.73458 0
M  V30 1503 N 135.985 -1.50799 -0.457987 0
M  V30 1504 C 136.948 -1.7005 -1.53674 0
M  V30 1505 C 137.948 -0.570881 -1.50325 0
M  V30 1506 O 139.138 -0.838126 -1.52712 0
M  V30 1507 C 136.27 -1.73788 -2.93276 0
M  V30 1508 H 137.463 -2.66306 -1.37917 0
M  V30 1509 H 135.016 -1.40477 -0.685271 0
M  V30 1510 H 135.751 -0.792717 -3.14462 0
M  V30 1511 H 135.536 -2.55864 -2.97113 0
M  V30 1512 H 137.026 -1.90591 -3.71571 0
M  V30 1513 N 137.463 0.71206 -1.40597 0
M  V30 1514 C 138.712 1.46754 -1.38369 0
M  V30 1515 C 139.025 1.95598 0.0097839 0
M  V30 1516 O 140.231 2.71059 0.154677 0
M  V30 1517 C 138.687 2.65289 -2.43207 0
M  V30 1518 C 138.295 2.23301 -3.88382 0
M  V30 1519 C 140.039 3.43008 -2.50091 0
M  V30 1520 C 137.946 3.38696 -4.84808 0
M  V30 1521 H 136.876 0.55118 -0.514506 0
M  V30 1522 H 139.527 0.774616 -1.66349 0
M  V30 1523 H 137.909 3.36769 -2.08332 0
M  V30 1524 H 139.083 1.59218 -4.32419 0
M  V30 1525 H 137.398 1.58618 -3.85006 0
M  V30 1526 H 139.995 4.28881 -3.1932 0
M  V30 1527 H 140.338 3.87065 -1.53253 0
M  V30 1528 H 140.871 2.78574 -2.83974 0
M  V30 1529 H 137.61 2.99668 -5.82992 0
M  V30 1530 H 137.13 4.01683 -4.45433 0
M  V30 1531 H 138.809 4.04712 -5.04794 0
M  V30 1532 N 138.941 1.26152 0.944643 0
M  V30 1533 C 140.19 1.10883 1.68487 0
M  V30 1534 C 140.503 -0.348153 1.92477 0
M  V30 1535 O 141.709 -0.621459 2.64292 0
M  V30 1536 C 140.165 1.93624 3.03377 0
M  V30 1537 C 139.773 3.43875 2.87148 0
M  V30 1538 C 141.517 1.86954 3.81115 0
M  V30 1539 C 139.424 4.18875 4.1749 0
M  V30 1540 H 138.354 0.41135 0.631907 0
M  V30 1541 H 141.005 1.50433 1.05082 0
M  V30 1542 H 139.387 1.46904 3.67743 0
M  V30 1543 H 140.561 3.98338 2.31653 0
M  V30 1544 H 138.876 3.51744 2.22856 0
M  V30 1545 H 141.473 2.40275 4.77673 0
M  V30 1546 H 141.816 0.839518 4.07747 0
M  V30 1547 H 142.349 2.31477 3.23517 0
M  V30 1548 H 139.088 5.22332 3.96043 0
M  V30 1549 H 138.608 3.69193 4.72712 0
M  V30 1550 H 140.287 4.27134 4.85968 0
M  V30 1551 N 140.419 -1.14872 1.07899 0
M  V30 1552 C 141.382 -2.17986 0.708161 0
M  V30 1553 C 142.382 -1.58775 -0.25442 0
M  V30 1554 O 143.572 -1.74166 -0.034645 0
M  V30 1555 C 140.704 -3.40871 0.0446929 0
M  V30 1556 H 141.897 -2.52306 1.62116 0
M  V30 1557 H 139.45 -1.2943 0.876218 0
M  V30 1558 H 140.185 -3.12124 -0.880281 0
M  V30 1559 H 139.97 -3.8511 0.737091 0
M  V30 1560 H 141.46 -4.17121 -0.19991 0
M  V30 1561 N 141.898 -0.863906 -1.31812 0
M  V30 1562 C 143.144 -0.472535 -1.97218 0
M  V30 1563 C 143.477 0.971394 -1.68159 0
M  V30 1564 O 142.752 1.68309 -0.974798 0
M  V30 1565 C 143.035 -0.723054 -3.52766 0
M  V30 1566 C 142.888 -2.21608 -3.91421 0
M  V30 1567 C 144.207 -0.185522 -4.39709 0
M  V30 1568 H 141.326 -0.173158 -0.71637 0
M  V30 1569 H 143.968 -1.08403 -1.56041 0
M  V30 1570 H 142.118 -0.202577 -3.87971 0
M  V30 1571 H 143.79 -2.80334 -3.66347 0
M  V30 1572 H 142.033 -2.691 -3.40246 0
M  V30 1573 H 142.704 -2.34203 -4.99853 0
M  V30 1574 H 145.18 -0.630726 -4.11292 0
M  V30 1575 H 144.056 -0.390306 -5.47511 0
M  V30 1576 H 144.317 0.912229 -4.32586 0
M  V30 1577 N 143.376 1.44774 -0.622745 0
M  V30 1578 C 144.624 2.01721 -0.123655 0
M  V30 1579 C 144.945 1.49172 1.25589 0
M  V30 1580 O 144.215 0.691974 1.83272 0
M  V30 1581 H 142.795 0.745777 -0.0427225 0
M  V30 1582 H 145.457 1.77382 -0.807559 0
M  V30 1583 H 144.553 3.11984 -0.0849534 0
M  V30 1584 N 144.854 0.36279 1.53368 0
M  V30 1585 C 146.102 -0.227326 2.00817 0
M  V30 1586 C 146.423 -1.49511 1.25186 0
M  V30 1587 O 145.693 -1.92482 0.364348 0
M  V30 1588 H 144.273 -0.0869923 0.741917 0
M  V30 1589 H 146.935 0.488381 1.88682 0
M  V30 1590 H 146.031 -0.456273 3.08747 0
M  V30 1591 N 146.332 -1.57332 0.0918853 0
M  V30 1592 C 147.58 -1.93853 -0.571446 0
M  V30 1593 C 147.901 -0.974212 -1.6892 0
M  V30 1594 O 147.171 -0.0257254 -1.95883 0
M  V30 1595 H 145.751 -0.715666 -0.214082 0
M  V30 1596 H 148.413 -1.94287 0.154464 0
M  V30 1597 H 147.509 -2.96191 -0.983729 0
M  V30 1598 N 147.81 0.181792 -1.56548 0
M  V30 1599 C 148.773 1.20894 -1.94724 0
M  V30 1600 C 149.773 1.37738 -0.829747 0
M  V30 1601 O 150.963 1.35323 -1.09697 0
M  V30 1602 C 148.095 2.57593 -2.23291 0
M  V30 1603 H 149.288 0.882275 -2.86629 0
M  V30 1604 H 146.841 0.423838 -1.50444 0
M  V30 1605 H 147.576 2.95291 -1.34067 0
M  V30 1606 H 147.361 2.46735 -3.04736 0
M  V30 1607 H 148.851 3.31637 -2.53785 0
M  V30 1608 N 149.288 1.51039 0.449983 0
M  V30 1609 C 150.516 1.66869 1.2232 0
M  V30 1610 C 150.931 0.360727 1.85322 0
M  V30 1611 O 150.288 -0.659531 1.70166 0
M  V30 1612 C 150.339 2.77524 2.31652 0
M  V30 1613 O 150.06 4.03252 1.7123 0
M  V30 1614 C 151.561 3.04512 3.2216 0
M  V30 1615 H 148.781 0.560326 0.369155 0
M  V30 1616 H 151.325 1.97385 0.534719 0
M  V30 1617 H 149.48 2.49642 2.96239 0
M  V30 1618 H 149.894 4.64609 2.43389 0
M  V30 1619 H 151.368 3.85551 3.95038 0
M  V30 1620 H 151.845 2.16415 3.8218 0
M  V30 1621 H 152.451 3.34005 2.63288 0
M  V30 1622 N 150.766 -0.704594 1.40972 0
M  V30 1623 C 152.014 -1.46169 1.39568 0
M  V30 1624 C 152.335 -1.95 0.00253745 0
M  V30 1625 O 151.605 -1.71095 -0.954114 0
M  V30 1626 H 150.185 -0.542326 0.513704 0
M  V30 1627 H 152.847 -0.834553 1.76128 0
M  V30 1628 H 151.943 -2.32922 2.07735 0
M  V30 1629 N 152.244 -1.26651 -0.937939 0
M  V30 1630 C 153.521 -1.0313 -1.66204 0
M  V30 1631 C 153.901 0.437256 -2.06522 0
M  V30 1632 O 153.249 1.41831 -1.79154 0
M  V30 1633 C 153.459 -1.98314 -2.87181 0
M  V30 1634 C 154.807 -2.27107 -3.58758 0
M  V30 1635 O 155.831 -1.96205 -2.97291 0
M  V30 1636 O 154.69 -2.79736 -4.69479 0
M  V30 1637 H 151.784 -0.392384 -0.727986 0
M  V30 1638 H 154.33 -1.37874 -0.989382 0
M  V30 1639 H 153.102 -2.97399 -2.54302 0
M  V30 1640 H 152.725 -1.64068 -3.6217 0
M  V30 1641 N 153.722 1.14298 -1.08507 0
M  V30 1642 C 154.969 1.85359 -0.815373 0
M  V30 1643 C 155.297 1.83001 0.658865 0
M  V30 1644 O 154.552 1.25655 1.50031 0
M  V30 1645 C 154.851 3.33547 -1.28379 0
M  V30 1646 C 154.517 3.56093 -2.76602 0
M  V30 1647 C 153.179 3.61955 -3.17084 0
M  V30 1648 C 155.531 3.64834 -3.72217 0
M  V30 1649 C 152.859 3.74082 -4.51973 0
M  V30 1650 C 155.211 3.78487 -5.06883 0
M  V30 1651 C 153.875 3.82598 -5.46969 0
M  V30 1652 H 153.145 0.678276 -0.298366 0
M  V30 1653 H 155.792 1.35002 -1.35819 0
M  V30 1654 H 154.097 3.86191 -0.660593 0
M  V30 1655 H 155.794 3.86959 -1.05186 0
M  V30 1656 H 152.384 3.52179 -2.4427 0
M  V30 1657 H 156.568 3.59595 -3.42061 0
M  V30 1658 H 151.824 3.75527 -4.82483 0
M  V30 1659 H 155.998 3.84193 -5.80834 0
M  V30 1660 H 153.625 3.91747 -6.51489 0
M  V30 1661 N 155.201 0.870884 1.31352 0
M  V30 1662 C 156.164 0.332243 2.26779 0
M  V30 1663 C 157.164 -0.517302 1.52252 0
M  V30 1664 O 158.354 -0.326477 1.71113 0
M  V30 1665 C 155.486 -0.528066 3.36785 0
M  V30 1666 H 156.679 1.17469 2.75937 0
M  V30 1667 H 154.232 0.64655 1.423 0
M  V30 1668 H 154.967 -1.39167 2.92922 0
M  V30 1669 H 154.752 0.0802582 3.92018 0
M  V30 1670 H 156.242 -0.897179 4.07849 0
M  V30 1671 N 156.679 -1.44442 0.630414 0
M  V30 1672 C 157.927 -2.01653 0.134351 0
M  V30 1673 C 158.248 -1.49836 -1.24796 0
M  V30 1674 O 157.518 -0.701684 -1.82902 0
M  V30 1675 H 156.098 -0.74554 0.0466769 0
M  V30 1676 H 158.76 -1.76952 0.816955 0
M  V30 1677 H 157.856 -3.11935 0.101498 0
M  V30 1678 N 158.157 -0.370918 -1.53173 0
M  V30 1679 C 159.404 0.217102 -2.01333 0
M  V30 1680 C 159.732 1.48338 -1.25802 0
M  V30 1681 O 158.987 1.92698 -0.34146 0
M  V30 1682 C 159.286 0.549696 -3.53147 0
M  V30 1683 C 158.952 -0.622872 -4.46577 0
M  V30 1684 C 157.614 -0.944595 -4.71838 0
M  V30 1685 C 159.966 -1.40819 -5.01816 0
M  V30 1686 C 157.294 -2.05351 -5.49589 0
M  V30 1687 C 159.646 -2.50757 -5.80778 0
M  V30 1688 C 158.31 -2.83458 -6.04324 0
M  V30 1689 H 157.58 0.0794431 -0.736729 0
M  V30 1690 H 160.227 -0.504481 -1.84736 0
M  V30 1691 H 158.532 1.35237 -3.6772 0
M  V30 1692 H 160.229 1.017 -3.87889 0
M  V30 1693 H 156.819 -0.36209 -4.27068 0
M  V30 1694 H 161.003 -1.17289 -4.82242 0
M  V30 1695 H 156.259 -2.3108 -5.6605 0
M  V30 1696 H 160.433 -3.12022 -6.22588 0
M  V30 1697 H 158.06 -3.69508 -6.64355 0
M  V30 1698 N 159.635 1.57281 -0.100228 0
M  V30 1699 C 160.881 1.94826 0.563101 0
M  V30 1700 C 161.214 0.982475 1.67514 0
M  V30 1701 O 160.489 0.0164069 1.94493 0
M  V30 1702 C 160.772 3.42453 1.11346 0
M  V30 1703 C 160.625 4.498 0.00612081 0
M  V30 1704 C 161.944 3.91506 2.01024 0
M  V30 1705 H 159.063 0.708428 0.203221 0
M  V30 1706 H 161.705 1.8922 -0.171979 0
M  V30 1707 H 159.855 3.47361 1.7399 0
M  V30 1708 H 161.527 4.57 -0.628357 0
M  V30 1709 H 159.77 4.28756 -0.659581 0
M  V30 1710 H 160.441 5.50306 0.432109 0
M  V30 1711 H 162.917 3.88784 1.48278 0
M  V30 1712 H 161.793 4.95358 2.36457 0
M  V30 1713 H 162.054 3.31099 2.92961 0
M  V30 1714 N 161.113 -0.173488 1.56642 0
M  V30 1715 C 162.076 -1.19859 1.95362 0
M  V30 1716 C 163.076 -1.37296 0.83704 0
M  V30 1717 O 164.266 -1.34739 1.10413 0
M  V30 1718 C 161.398 -2.56405 2.24654 0
M  V30 1719 H 162.591 -0.867062 2.87092 0
M  V30 1720 H 160.144 -0.415853 1.50666 0
M  V30 1721 H 160.879 -2.94576 1.35631 0
M  V30 1722 H 160.664 -2.45115 3.06041 0
M  V30 1723 H 162.154 -3.30287 2.5554 0
M  V30 1724 N 162.591 -1.51276 -0.441967 0
M  V30 1725 C 163.554 -1.7167 -1.51862 0
M  V30 1726 C 164.554 -0.586793 -1.49711 0
M  V30 1727 O 165.744 -0.854276 -1.51815 0
M  V30 1728 C 162.876 -1.76889 -2.91416 0
M  V30 1729 H 164.069 -2.67754 -1.35084 0
M  V30 1730 H 161.622 -1.41196 -0.670333 0
M  V30 1731 H 162.357 -0.826026 -3.13604 0
M  V30 1732 H 162.142 -2.59001 -2.94382 0
M  V30 1733 H 163.632 -1.94522 -3.69528 0
M  V30 1734 N 164.069 0.697108 -1.41344 0
M  V30 1735 C 165.297 1.48593 -1.43972 0
M  V30 1736 C 165.712 1.88747 -0.0445612 0
M  V30 1737 O 165.069 1.56682 0.935785 0
M  V30 1738 C 165.12 2.74946 -2.34706 0
M  V30 1739 O 164.841 2.36484 -3.68791 0
M  V30 1740 C 166.342 3.687 -2.46121 0
M  V30 1741 H 163.562 0.457964 -0.490418 0
M  V30 1742 H 166.106 0.858429 -1.8561 0
M  V30 1743 H 164.261 3.33937 -1.9638 0
M  V30 1744 H 164.675 3.17918 -4.17167 0
M  V30 1745 H 166.149 4.54145 -3.13777 0
M  V30 1746 H 166.626 4.13081 -1.49199 0
M  V30 1747 H 167.232 3.15613 -2.85076 0
M  V30 1748 N 165.547 1.27147 0.931209 0
M  V30 1749 C 166.477 1.12081 2.04842 0
M  V30 1750 C 167.458 0.0232364 1.70084 0
M  V30 1751 O 168.643 0.197085 1.93197 0
M  V30 1752 C 165.773 0.76354 3.38803 0
M  V30 1753 C 164.727 1.81396 3.87659 0
M  V30 1754 C 164.053 1.31075 5.18385 0
M  V30 1755 C 165.353 3.21739 4.11438 0
M  V30 1756 H 167.047 2.05537 2.17703 0
M  V30 1757 H 164.593 0.989603 1.04608 0
M  V30 1758 H 166.546 0.644982 4.16435 0
M  V30 1759 H 165.27 -0.206727 3.25945 0
M  V30 1760 H 163.929 1.92136 3.12217 0
M  V30 1761 H 163.577 0.330037 5.01916 0
M  V30 1762 H 163.277 2.013 5.52044 0
M  V30 1763 H 164.801 1.20506 5.98591 0
M  V30 1764 H 166.215 3.14019 4.79651 0
M  V30 1765 H 164.612 3.89644 4.56397 0
M  V30 1766 H 165.682 3.67054 3.16859 0
M  V30 1767 N 167.025 -1.13721 1.09112 0
M  V30 1768 C 167.955 -2.21148 0.749385 0
M  V30 1769 C 168.936 -1.6792 -0.271475 0
M  V30 1770 O 170.121 -1.93693 -0.140251 0
M  V30 1771 C 167.251 -3.46905 0.165659 0
M  V30 1772 C 166.205 -4.13203 1.11567 0
M  V30 1773 C 165.531 -5.33248 0.393809 0
M  V30 1774 C 166.831 -4.60912 2.45678 0
M  V30 1775 H 168.525 -2.4999 1.64758 0
M  V30 1776 H 166.071 -1.20156 0.793626 0
M  V30 1777 H 168.024 -4.21313 -0.085466 0
M  V30 1778 H 166.748 -3.17449 -0.767714 0
M  V30 1779 H 165.407 -3.40758 1.35202 0
M  V30 1780 H 165.055 -5.00054 -0.543599 0
M  V30 1781 H 164.755 -5.78552 1.02721 0
M  V30 1782 H 166.279 -6.10413 0.150908 0
M  V30 1783 H 167.693 -5.26759 2.26269 0
M  V30 1784 H 166.09 -5.16944 3.04776 0
M  V30 1785 H 167.16 -3.75603 3.06677 0
M  V30 1786 N 168.503 -0.877838 -1.30888 0
M  V30 1787 C 169.919 -0.570844 -1.49042 0
M  V30 1788 C 170.119 0.893159 -1.80624 0
M  V30 1789 O 169.175 1.67485 -1.88958 0
M  V30 1790 C 170.488 -1.47784 -2.61878 0
M  V30 1791 C 172.036 -1.48071 -2.75761 0
M  V30 1792 C 172.511 -2.37347 -3.91702 0
M  V30 1793 N 174.002 -2.35271 -3.99001 0
M  V30 1794 C 174.737 -3.01063 -4.88004 0
M  V30 1795 N 174.233 -3.76055 -5.81854 0
M  V30 1796 N 176.026 -2.90332 -4.81315 0
M  V30 1797 H 168.177 -1.82502 -1.0866 0
M  V30 1798 H 170.44 -0.780797 -0.537644 0
M  V30 1799 H 170.146 -2.51993 -2.45341 0
M  V30 1800 H 170.02 -1.18215 -3.58197 0
M  V30 1801 H 172.407 -0.446166 -2.91708 0
M  V30 1802 H 172.488 -1.81668 -1.80085 0
M  V30 1803 H 172.132 -3.40883 -3.76512 0
M  V30 1804 H 172.062 -2.01071 -4.86701 0
M  V30 1805 H 174.553 -1.80768 -3.3186 0
M  V30 1806 H 174.866 -4.23366 -6.46514 0
M  V30 1807 H 173.211 -3.80163 -5.81808 0
M  V30 1808 H 176.402 -2.31278 -4.06974 0
M  V30 1809 H 176.575 -3.41885 -5.50471 0
M  V30 1810 N 169.982 1.44106 -0.638065 0
M  V30 1811 C 171.23 2.01579 -0.145043 0
M  V30 1812 C 171.551 1.50496 1.24 0
M  V30 1813 O 170.821 0.711374 1.82527 0
M  V30 1814 H 169.401 0.745282 -0.05063 0
M  V30 1815 H 172.063 1.76516 -0.826327 0
M  V30 1816 H 171.159 3.11877 -0.118039 0
M  V30 1817 N 171.46 0.379036 1.52974 0
M  V30 1818 C 172.706 -0.206727 2.01744 0
M  V30 1819 C 173.039 -1.47314 1.26539 0
M  V30 1820 O 172.314 -1.91084 0.362903 0
M  V30 1821 C 172.597 -0.485066 3.56818 0
M  V30 1822 C 172.45 0.795919 4.42702 0
M  V30 1823 C 173.769 -1.28003 4.21074 0
M  V30 1824 H 170.888 -0.0736607 0.73331 0
M  V30 1825 H 173.53 0.506581 1.83122 0
M  V30 1826 H 171.68 -1.09272 3.72816 0
M  V30 1827 H 173.352 1.43307 4.38476 0
M  V30 1828 H 171.595 1.41344 4.10127 0
M  V30 1829 H 172.266 0.555947 5.49193 0
M  V30 1830 H 174.742 -0.765867 4.08991 0
M  V30 1831 H 173.618 -1.44352 5.29579 0
M  V30 1832 H 173.879 -2.29236 3.78026 0
M  V30 1833 N 172.938 -1.57226 0.108567 0
M  V30 1834 C 173.888 -2.11305 -0.856396 0
M  V30 1835 C 174.872 -1.03129 -1.23504 0
M  V30 1836 O 176.064 -1.29381 -1.20787 0
M  V30 1837 C 173.193 -2.70771 -2.11041 0
M  V30 1838 C 172.279 -3.86011 -1.7566 0
M  V30 1839 N 172.67 -4.93492 -1.10902 0
M  V30 1840 C 170.968 -3.95999 -2.05185 0
M  V30 1841 C 171.669 -5.73984 -0.944308 0
M  V30 1842 N 170.645 -5.2346 -1.46596 0
M  V30 1843 H 174.447 -2.91784 -0.352002 0
M  V30 1844 H 171.961 -1.62126 -0.0942324 0
M  V30 1845 H 173.958 -3.07851 -2.81128 0
M  V30 1846 H 172.618 -1.91751 -2.62034 0
M  V30 1847 H 173.629 -5.1208 -0.774235 0
M  V30 1848 H 170.306 -3.28007 -2.58298 0
M  V30 1849 H 171.696 -6.70479 -0.436813 0
M  V30 1850 N 174.416 0.165178 -1.56732 0
M  V30 1851 C 175.663 0.880807 -1.8234 0
M  V30 1852 C 175.991 1.81977 -0.686621 0
M  V30 1853 O 175.246 1.92971 0.325697 0
M  V30 1854 C 175.545 1.70405 -3.1416 0
M  V30 1855 C 175.211 0.913475 -4.4155 0
M  V30 1856 C 173.873 0.695303 -4.7615 0
M  V30 1857 C 176.225 0.359349 -5.1996 0
M  V30 1858 C 173.553 -0.0879947 -5.86634 0
M  V30 1859 C 175.905 -0.410893 -6.31264 0
M  V30 1860 C 174.569 -0.639808 -6.64427 0
M  V30 1861 H 173.839 0.32231 -0.667231 0
M  V30 1862 H 176.486 0.145402 -1.90947 0
M  V30 1863 H 174.791 2.50903 -3.00923 0
M  V30 1864 H 176.488 2.26091 -3.31186 0
M  V30 1865 H 173.078 1.09357 -4.14414 0
M  V30 1866 H 177.262 0.515228 -4.93618 0
M  V30 1867 H 172.518 -0.27503 -6.10781 0
M  V30 1868 H 176.692 -0.847494 -6.91224 0
M  V30 1869 H 174.319 -1.24864 -7.49875 0
M  V30 1870 N 175.894 1.51508 0.433938 0
M  V30 1871 C 177.143 1.63578 1.18005 0
M  V30 1872 C 177.456 0.359514 1.92268 0
M  V30 1873 O 178.662 0.359632 2.69108 0
M  V30 1874 C 177.118 2.88901 2.14626 0
M  V30 1875 C 176.726 4.23544 1.45995 0
M  V30 1876 C 178.47 3.10328 2.89649 0
M  V30 1877 C 176.377 5.40014 2.4112 0
M  V30 1878 H 175.307 0.609277 0.444182 0
M  V30 1879 H 177.958 1.77978 0.446773 0
M  V30 1880 H 176.34 2.68142 2.91403 0
M  V30 1881 H 177.514 4.54696 0.747532 0
M  V30 1882 H 175.829 4.08021 0.831115 0
M  V30 1883 H 178.426 3.94518 3.60915 0
M  V30 1884 H 178.769 2.23544 3.51189 0
M  V30 1885 H 179.302 3.31443 2.19978 0
M  V30 1886 H 176.041 6.29068 1.84264 0
M  V30 1887 H 175.561 5.13233 3.10406 0
M  V30 1888 H 177.24 5.72099 3.02177 0
M  V30 1889 N 177.372 -0.689602 1.41712 0
M  V30 1890 C 178.304 -1.815 1.39966 0
M  V30 1891 C 179.317 -1.59995 0.300917 0
M  V30 1892 O 180.506 -1.69387 0.563039 0
M  V30 1893 C 177.606 -3.18364 1.16179 0
M  V30 1894 C 176.779 -3.66847 2.38206 0
M  V30 1895 C 175.838 -4.82398 2.10186 0
M  V30 1896 O 174.864 -4.93706 2.83272 0
M  V30 1897 N 176.066 -5.70064 1.0958 0
M  V30 1898 H 178.831 -1.83488 2.36965 0
M  V30 1899 H 176.392 -0.872149 1.36401 0
M  V30 1900 H 178.384 -3.93301 0.953756 0
M  V30 1901 H 176.954 -3.11365 0.27756 0
M  V30 1902 H 176.174 -2.82751 2.74673 0
M  V30 1903 H 177.462 -3.95978 3.19498 0
M  V30 1904 H 176.86 -5.63565 0.491019 0
M  V30 1905 H 175.417 -6.44874 0.947656 0
M  V30 1906 N 178.85 -1.27639 -0.924453 0
M  V30 1907 C 180.096 -1.14336 -1.67497 0
M  V30 1908 C 180.429 0.309465 -1.91718 0
M  V30 1909 O 179.704 1.22608 -1.50989 0
M  V30 1910 C 179.987 -1.93096 -3.0395 0
M  V30 1911 C 179.84 -3.46381 -2.8695 0
M  V30 1912 C 181.159 -1.73798 -4.0433 0
M  V30 1913 H 178.278 -0.416728 -0.607871 0
M  V30 1914 H 180.92 -1.56832 -1.07256 0
M  V30 1915 H 179.07 -1.56982 -3.55372 0
M  V30 1916 H 180.742 -3.92343 -2.42621 0
M  V30 1917 H 178.985 -3.72557 -2.22225 0
M  V30 1918 H 179.656 -3.96735 -3.83804 0
M  V30 1919 H 182.132 -2.05293 -3.61931 0
M  V30 1920 H 181.008 -2.31294 -4.97789 0
M  V30 1921 H 181.269 -0.686725 -4.36734 0
M  V30 1922 N 180.328 1.1314 -1.09713 0
M  V30 1923 C 181.739 1.66029 -0.853885 0
M  V30 1924 C 182.09 1.86241 0.617142 0
M  V30 1925 O 181.215 1.5834 1.47503 0
M  V30 1926 C 181.81 3.01599 -1.5435 0
M  V30 1927 C 180.369 3.51467 -1.34714 0
M  V30 1928 C 179.516 2.26648 -1.59769 0
M  V30 1929 H 182.467 0.970226 -1.25588 0
M  V30 1930 H 182.488 3.67709 -0.978267 0
M  V30 1931 H 182 2.86856 -2.6141 0
M  V30 1932 H 180.101 3.71408 -0.297838 0
M  V30 1933 H 180.214 4.314 -2.08401 0
M  V30 1934 H 178.578 2.33385 -1.01998 0
M  V30 1935 H 179.361 2.14467 -2.68065 0
M  V30 1936 N 181.806 0.884767 1.30421 0
M  V30 1937 C 183.034 0.518044 2.0031 0
M  V30 1938 C 183.449 -0.893408 1.66324 0
M  V30 1939 O 182.806 -1.5875 0.900262 0
M  V30 1940 C 182.857 0.682997 3.54989 0
M  V30 1941 O 182.578 2.03888 3.87764 0
M  V30 1942 C 184.079 0.31924 4.42149 0
M  V30 1943 H 181.299 0.200265 0.640418 0
M  V30 1944 H 183.843 1.19001 1.6631 0
M  V30 1945 H 181.998 0.0584052 3.87356 0
M  V30 1946 H 182.412 2.05735 4.82466 0
M  V30 1947 H 183.886 0.485555 5.4986 0
M  V30 1948 H 184.363 -0.742717 4.32875 0
M  V30 1949 H 184.969 0.920147 4.15227 0
M  V30 1950 N 183.284 -1.43765 0.645699 0
M  V30 1951 C 184.512 -2.06253 0.163556 0
M  V30 1952 C 184.927 -1.48352 -1.16778 0
M  V30 1953 O 184.284 -0.611932 -1.71935 0
M  V30 1954 C 184.335 -3.61453 0.0583186 0
M  V30 1955 O 184.056 -4.172 1.33702 0
M  V30 1956 C 185.557 -4.41002 -0.450795 0
M  V30 1957 H 182.777 -0.665413 0.0864077 0
M  V30 1958 H 185.321 -1.84396 0.884222 0
M  V30 1959 H 183.476 -3.82522 -0.612865 0
M  V30 1960 H 183.89 -5.10791 1.19131 0
M  V30 1961 H 185.364 -5.49966 -0.473403 0
M  V30 1962 H 185.841 -4.13488 -1.48068 0
M  V30 1963 H 186.447 -4.24886 0.187637 0
M  V30 1964 N 184.763 -0.387143 -1.52771 0
M  V30 1965 C 186.012 0.19697 -2.00736 0
M  V30 1966 C 186.325 1.48082 -1.27793 0
M  V30 1967 O 187.531 2.14485 -1.66458 0
M  V30 1968 C 185.987 0.401568 -3.57653 0
M  V30 1969 C 185.595 -0.868907 -4.39493 0
M  V30 1970 C 187.339 0.942164 -4.13912 0
M  V30 1971 C 185.246 -0.632705 -5.88006 0
M  V30 1972 H 184.176 0.0773827 -0.750019 0
M  V30 1973 H 186.827 -0.50921 -1.76293 0
M  V30 1974 H 185.209 1.16954 -3.78335 0
M  V30 1975 H 186.383 -1.64133 -4.30577 0
M  V30 1976 H 184.698 -1.33429 -3.94443 0
M  V30 1977 H 187.295 1.13455 -5.22525 0
M  V30 1978 H 187.638 1.9106 -3.69867 0
M  V30 1979 H 188.171 0.233814 -3.97112 0
M  V30 1980 H 184.91 -1.57208 -6.36369 0
M  V30 1981 H 184.43 0.100825 -5.99715 0
M  V30 1982 H 186.109 -0.26642 -6.46451 0
M  V30 1983 N 186.241 1.57166 -0.116904 0
M  V30 1984 C 187.171 2.18222 0.830759 0
M  V30 1985 C 188.152 1.12167 1.27877 0
M  V30 1986 O 189.337 1.40394 1.34176 0
M  V30 1987 C 186.467 2.77996 2.08172 0
M  V30 1988 C 185.421 3.89614 1.77157 0
M  V30 1989 C 184.747 4.36187 3.09265 0
M  V30 1990 C 186.047 5.1181 1.04151 0
M  V30 1991 H 187.741 2.97664 0.321992 0
M  V30 1992 H 185.287 1.4318 0.153434 0
M  V30 1993 H 187.24 3.19366 2.74924 0
M  V30 1994 H 185.964 1.9584 2.6137 0
M  V30 1995 H 184.623 3.48816 1.12796 0
M  V30 1996 H 184.271 3.50893 3.60393 0
M  V30 1997 H 183.971 5.11455 2.89288 0
M  V30 1998 H 185.495 4.80207 3.77139 0
M  V30 1999 H 186.909 5.50214 1.61052 0
M  V30 2000 H 185.306 5.92648 0.942762 0
M  V30 2001 H 186.376 4.84892 0.0279022 0
M  V30 2002 N 187.719 -0.156864 1.56817 0
M  V30 2003 C 188.682 -1.17781 1.96622 0
M  V30 2004 C 189.682 -1.36401 0.851555 0
M  V30 2005 O 190.872 -1.33561 1.11836 0
M  V30 2006 C 188.004 -2.54008 2.27361 0
M  V30 2007 H 189.197 -0.836564 2.87996 0
M  V30 2008 H 186.75 -0.39985 1.51099 0
M  V30 2009 H 187.485 -2.9312 1.38748 0
M  V30 2010 H 187.27 -2.41856 3.08623 0
M  V30 2011 H 188.76 -3.27558 2.59029 0
M  V30 2012 N 189.197 -1.51736 -0.425897 0
M  V30 2013 C 190.147 -1.70258 -1.51645 0
M  V30 2014 C 191.131 -0.556488 -1.5097 0
M  V30 2015 O 192.323 -0.812879 -1.5723 0
M  V30 2016 C 189.452 -1.84143 -2.89735 0
M  V30 2017 C 188.538 -3.04572 -2.95122 0
M  V30 2018 N 188.929 -4.2756 -2.70233 0
M  V30 2019 C 187.227 -3.04061 -3.26286 0
M  V30 2020 C 187.928 -5.08908 -2.81757 0
M  V30 2021 N 186.904 -4.43797 -3.13919 0
M  V30 2022 H 190.706 -2.63004 -1.31172 0
M  V30 2023 H 188.22 -1.4954 -0.633375 0
M  V30 2024 H 190.217 -1.95525 -3.68206 0
M  V30 2025 H 188.877 -0.925857 -3.1122 0
M  V30 2026 H 189.888 -4.56315 -2.44943 0
M  V30 2027 H 186.565 -2.22179 -3.53473 0
M  V30 2028 H 187.955 -6.16843 -2.66372 0
M  V30 2029 N 190.675 0.682077 -1.42076 0
M  V30 2030 C 191.952 1.43755 -1.32642 0
M  V30 2031 C 192.332 2.11063 0.0396611 0
M  V30 2032 O 191.68 2.02701 1.05474 0
M  V30 2033 C 191.89 2.44596 -2.48946 0
M  V30 2034 C 193.238 3.09454 -2.9073 0
M  V30 2035 O 194.262 2.54922 -2.48783 0
M  V30 2036 O 193.121 4.08253 -3.63307 0
M  V30 2037 H 190.215 0.640857 -0.522715 0
M  V30 2038 H 192.761 0.711415 -1.54068 0
M  V30 2039 H 191.533 1.93609 -3.40046 0
M  V30 2040 H 191.156 3.24701 -2.29467 0
M  V30 2041 N 192.153 1.28127 0.917671 0
M  V30 2042 C 193.378 1.18007 1.70555 0
M  V30 2043 C 193.803 -0.258257 1.86319 0
M  V30 2044 O 193.161 -1.1869 1.37049 0
M  V30 2045 C 193.209 1.87948 3.07746 0
M  V30 2046 O 192.313 1.18427 3.9503 0
M  V30 2047 H 191.654 0.409867 0.522403 0
M  V30 2048 H 194.184 1.69379 1.1477 0
M  V30 2049 H 194.194 1.95701 3.58001 0
M  V30 2050 H 192.869 2.92573 2.95591 0
M  V30 2051 H 191.446 1.18811 3.53466 0
M  V30 2052 N 193.631 -1.12557 1.10312 0
M  V30 2053 C 194.856 -1.88405 0.867085 0
M  V30 2054 C 195.281 -1.79038 -0.576817 0
M  V30 2055 O 194.639 -1.14439 -1.40618 0
M  V30 2056 C 194.687 -3.3563 1.31851 0
M  V30 2057 O 193.791 -4.09565 0.482734 0
M  V30 2058 H 193.132 -0.585455 0.313271 0
M  V30 2059 H 195.662 -1.42352 1.4696 0
M  V30 2060 H 195.672 -3.86469 1.3079 0
M  V30 2061 H 194.347 -3.41765 2.37001 0
M  V30 2062 H 192.924 -3.68695 0.558448 0
M  V30 2063 N 195.109 -0.891671 -1.2995 0
M  V30 2064 C 196.355 -0.514261 -1.96171 0
M  V30 2065 C 196.688 0.935506 -1.70182 0
M  V30 2066 O 195.963 1.66204 -1.01028 0
M  V30 2067 C 196.246 -0.797719 -3.51153 0
M  V30 2068 C 196.099 -2.2986 -3.86632 0
M  V30 2069 C 197.418 -0.278749 -4.39216 0
M  V30 2070 H 194.537 -0.188314 -0.712535 0
M  V30 2071 H 197.179 -1.11689 -1.53706 0
M  V30 2072 H 195.329 -0.284826 -3.87455 0
M  V30 2073 H 197.001 -2.88042 -3.60319 0
M  V30 2074 H 195.244 -2.76257 -3.34462 0
M  V30 2075 H 195.915 -2.44753 -4.94773 0
M  V30 2076 H 198.391 -0.717825 -4.09862 0
M  V30 2077 H 197.267 -0.506353 -5.46559 0
M  V30 2078 H 197.528 0.820266 -4.34424 0
M  V30 2079 N 196.587 1.43421 -0.653314 0
M  V30 2080 C 197.835 2.01414 -0.166415 0
M  V30 2081 C 198.156 1.51803 1.22397 0
M  V30 2082 O 197.426 0.730693 1.81763 0
M  V30 2083 H 196.006 0.744703 -0.0585319 0
M  V30 2084 H 198.668 1.75629 -0.845003 0
M  V30 2085 H 197.764 3.11734 -0.151111 0
M  V30 2086 N 198.065 0.39524 1.52563 0
M  V30 2087 C 199.313 -0.184678 2.01254 0
M  V30 2088 C 199.634 -1.46822 1.28329 0
M  V30 2089 O 198.904 -1.91666 0.405094 0
M  V30 2090 H 197.484 -0.0712355 0.743596 0
M  V30 2091 H 200.146 0.528293 1.87603 0
M  V30 2092 H 199.242 -0.390681 3.09645 0
M  V30 2093 N 199.544 -1.57102 0.125237 0
M  V30 2094 C 200.491 -2.15641 -0.822655 0
M  V30 2095 C 201.461 -1.08313 -1.25927 0
M  V30 2096 O 202.646 -1.36251 -1.33567 0
M  V30 2097 C 199.786 -2.76504 -2.06494 0
M  V30 2098 C 198.899 -3.98158 -1.67612 0
M  V30 2099 C 198.034 -4.47088 -2.86854 0
M  V30 2100 C 197.073 -5.6126 -2.44242 0
M  V30 2101 N 196.21 -6.04905 -3.56419 0
M  V30 2102 H 201.05 -2.96313 -0.316625 0
M  V30 2103 H 198.587 -1.46388 -0.144588 0
M  V30 2104 H 200.545 -3.09925 -2.79289 0
M  V30 2105 H 199.175 -1.98512 -2.54545 0
M  V30 2106 H 198.227 -3.70858 -0.846661 0
M  V30 2107 H 199.539 -4.80934 -1.32301 0
M  V30 2108 H 198.693 -4.82451 -3.67867 0
M  V30 2109 H 197.432 -3.63275 -3.25396 0
M  V30 2110 H 196.437 -5.25495 -1.61663 0
M  V30 2111 H 197.662 -6.46843 -2.0681 0
M  V30 2112 H 195.608 -5.24032 -3.94623 0
M  V30 2113 H 195.525 -6.82552 -3.25051 0
M  V30 2114 H 196.793 -6.44907 -4.37853 0
M  V30 2115 N 201.022 0.148545 -1.56898 0
M  V30 2116 C 202.268 0.862694 -1.83536 0
M  V30 2117 C 202.601 1.80889 -0.706604 0
M  V30 2118 O 201.876 1.92328 0.289885 0
M  V30 2119 C 202.159 1.63853 -3.20662 0
M  V30 2120 C 202.012 0.713925 -4.44098 0
M  V30 2121 C 203.331 2.60133 -3.54991 0
M  V30 2122 H 200.45 0.312179 -0.667618 0
M  V30 2123 H 203.092 0.127953 -1.89569 0
M  V30 2124 H 201.242 2.26489 -3.1565 0
M  V30 2125 H 202.914 0.098686 -4.61194 0
M  V30 2126 H 201.157 0.0234019 -4.33794 0
M  V30 2127 H 201.828 1.29278 -5.36648 0
M  V30 2128 H 204.304 2.07616 -3.60603 0
M  V30 2129 H 203.18 3.11468 -4.51972 0
M  V30 2130 H 203.441 3.41417 -2.80868 0
M  V30 2131 N 202.5 1.5196 0.417844 0
M  V30 2132 C 203.748 1.65263 1.16329 0
M  V30 2133 C 204.069 0.380634 1.91249 0
M  V30 2134 O 203.339 -0.604214 1.86349 0
M  V30 2135 H 201.919 0.60912 0.432414 0
M  V30 2136 H 204.581 1.88969 0.477162 0
M  V30 2137 H 203.677 2.4896 1.88217 0
M  V30 2138 N 203.978 -0.674533 1.42435 0
M  V30 2139 C 205.227 -1.43034 1.42212 0
M  V30 2140 C 205.54 -1.95555 0.0420788 0
M  V30 2141 O 206.746 -2.71374 -0.0827558 0
M  V30 2142 C 205.202 -2.58748 2.50155 0
M  V30 2143 C 204.81 -2.12925 3.94166 0
M  V30 2144 C 206.554 -3.36257 2.59098 0
M  V30 2145 C 204.461 -3.25723 4.93618 0
M  V30 2146 H 203.391 -0.537345 0.528939 0
M  V30 2147 H 206.042 -0.73024 1.68344 0
M  V30 2148 H 204.424 -3.31128 2.17188 0
M  V30 2149 H 205.598 -1.47697 4.36488 0
M  V30 2150 H 203.913 -1.48354 3.89076 0
M  V30 2151 H 206.51 -4.20264 3.30578 0
M  V30 2152 H 206.853 -3.82866 1.63461 0
M  V30 2153 H 207.386 -2.70947 2.9126 0
M  V30 2154 H 204.125 -2.84105 5.90732 0
M  V30 2155 H 203.645 -3.89732 4.55926 0
M  V30 2156 H 205.324 -3.91186 5.15347 0
M  V30 2157 N 205.456 -1.28612 -0.910864 0
M  V30 2158 C 206.404 -1.1265 -2.03501 0
M  V30 2159 C 207.398 -0.0450054 -1.6934 0
M  V30 2160 O 208.604 -0.203988 -1.7884 0
M  V30 2161 H 204.979 -0.347639 -0.666822 0
M  V30 2162 H 206.95 -2.07849 -2.14106 0
M  V30 2163 C 205.699 -0.808143 -3.38178 0
M  V30 2164 H 205.022 -1.63231 -3.6496 0
M  V30 2165 H 206.462 -0.736426 -4.17556 0
M  V30 2166 C 204.921 0.488226 -3.33344 0
M  V30 2167 O 205.451 1.51766 -3.71927 0
M  V30 2168 N 203.657 0.490009 -2.86439 0
M  V30 2169 H 203.204 -0.348161 -2.55236 0
M  V30 2170 H 203.162 1.35741 -2.83587 0
M  V30 2171 N 206.934 1.1197 -1.10907 0
M  V30 2172 C 208.159 1.87942 -0.877064 0
M  V30 2173 C 208.584 1.79341 0.567314 0
M  V30 2174 O 207.942 1.15184 1.40009 0
M  V30 2175 C 207.99 3.34926 -1.33629 0
M  V30 2176 O 207.094 4.09303 -0.504447 0
M  V30 2177 H 206.435 0.583785 -0.316371 0
M  V30 2178 H 208.965 1.4157 -1.47712 0
M  V30 2179 H 208.975 3.8577 -1.32837 0
M  V30 2180 H 207.65 3.40504 -2.3881 0
M  V30 2181 H 206.227 3.68393 -0.577993 0
M  V30 2182 N 208.412 0.89855 1.29475 0
M  V30 2183 C 209.359 0.373819 2.27753 0
M  V30 2184 C 210.329 -0.543444 1.56958 0
M  V30 2185 O 211.514 -0.468934 1.84948 0
M  V30 2186 C 208.654 -0.393648 3.42848 0
M  V30 2187 C 207.767 0.554379 4.28428 0
M  V30 2188 C 206.902 -0.230026 5.30702 0
M  V30 2189 C 205.941 0.712599 6.07938 0
M  V30 2190 N 205.078 -0.0373283 7.0209 0
M  V30 2191 H 209.918 1.21699 2.72017 0
M  V30 2192 H 207.455 0.611456 1.33789 0
M  V30 2193 H 209.413 -0.85466 4.08352 0
M  V30 2194 H 208.043 -1.20128 2.99615 0
M  V30 2195 H 207.095 1.13391 3.63107 0
M  V30 2196 H 208.407 1.27597 4.82204 0
M  V30 2197 H 207.561 -0.752288 6.02018 0
M  V30 2198 H 206.3 -0.984758 4.77654 0
M  V30 2199 H 205.305 1.24637 5.35486 0
M  V30 2200 H 206.53 1.46664 6.63074 0
M  V30 2201 H 204.476 -0.774348 6.51414 0
M  V30 2202 H 204.393 0.624374 7.53417 0
M  V30 2203 H 205.661 -0.539891 7.77628 0
M  V30 2204 N 209.89 -1.43072 0.660911 0
M  V30 2205 C 210.822 -2.29108 -0.0647641 0
M  V30 2206 C 211.835 -1.42928 -0.779448 0
M  V30 2207 O 213.024 -1.66788 -0.635921 0
M  V30 2208 C 210.124 -3.20032 -1.11503 0
M  V30 2209 C 209.297 -4.34792 -0.476955 0
M  V30 2210 C 208.356 -5.06534 -1.42513 0
M  V30 2211 O 207.382 -5.61538 -0.930771 0
M  V30 2212 N 208.584 -5.1075 -2.75889 0
M  V30 2213 H 211.349 -2.92029 0.673731 0
M  V30 2214 H 208.91 -1.53846 0.50427 0
M  V30 2215 H 210.902 -3.64892 -1.75032 0
M  V30 2216 H 209.472 -2.58658 -1.75541 0
M  V30 2217 H 208.692 -3.92752 0.337572 0
M  V30 2218 H 209.98 -5.0879 -0.0318525 0
M  V30 2219 H 209.378 -4.67447 -3.18606 0
M  V30 2220 H 207.935 -5.59302 -3.347 0
M  V30 2221 N 211.368 -0.403325 -1.52352 0
M  V30 2222 C 212.616 0.174003 -2.0135 0
M  V30 2223 C 212.937 1.46139 -1.29106 0
M  V30 2224 O 212.207 1.91448 -0.415253 0
M  V30 2225 H 210.787 0.0672911 -0.743963 0
M  V30 2226 H 213.449 -0.538235 -1.87321 0
M  V30 2227 H 212.545 0.374254 -3.09848 0
M  V30 2228 N 212.846 1.57033 -0.133567 0
M  V30 2229 C 213.793 2.16074 0.811208 0
M  V30 2230 C 214.763 1.08979 1.2535 0
M  V30 2231 O 215.948 1.36958 1.32843 0
M  V30 2232 C 213.088 2.77595 2.05024 0
M  V30 2233 C 212.201 3.99042 1.65498 0
M  V30 2234 C 211.336 4.48603 2.84479 0
M  V30 2235 C 210.375 5.62547 2.41262 0
M  V30 2236 N 209.512 6.06787 3.53206 0
M  V30 2237 H 214.352 2.96477 0.300906 0
M  V30 2238 H 211.889 1.46462 0.136822 0
M  V30 2239 H 213.847 3.11402 2.77642 0
M  V30 2240 H 212.477 1.99859 2.53488 0
M  V30 2241 H 211.529 3.71302 0.826981 0
M  V30 2242 H 212.841 4.81629 1.29748 0
M  V30 2243 H 211.995 4.84395 3.65303 0
M  V30 2244 H 210.734 3.64995 3.23465 0
M  V30 2245 H 209.739 5.26345 1.58874 0
M  V30 2246 H 210.964 6.47931 2.03377 0
M  V30 2247 H 208.91 5.26117 3.91838 0
M  V30 2248 H 208.827 6.84266 3.21427 0
M  V30 2249 H 210.095 6.4722 4.34427 0
M  V30 2250 N 214.325 -0.140222 1.56975 0
M  V30 2251 C 215.273 -1.19207 1.99731 0
M  V30 2252 C 216.267 -1.44089 0.890777 0
M  V30 2253 O 217.473 -1.44301 1.07597 0
M  V30 2254 H 213.848 -0.40142 0.635898 0
M  V30 2255 H 215.819 -0.804813 2.87342 0
M  V30 2256 C 214.568 -2.51617 2.39967 0
M  V30 2257 H 213.891 -2.33303 3.24669 0
M  V30 2258 H 215.331 -3.23827 2.73701 0
M  V30 2259 C 213.79 -3.12654 1.25496 0
M  V30 2260 O 214.32 -3.97786 0.559371 0
M  V30 2261 N 212.526 -2.72206 1.01746 0
M  V30 2262 H 212.073 -2.03074 1.58489 0
M  V30 2263 H 212.031 -3.13377 0.253461 0
M  V30 2264 N 215.803 -1.52179 -0.40978 0
M  V30 2265 C 216.733 -1.78435 -1.5061 0
M  V30 2266 C 217.714 -0.635295 -1.57791 0
M  V30 2267 O 218.899 -0.880823 -1.73076 0
M  V30 2268 C 216.029 -1.93444 -2.88439 0
M  V30 2269 C 214.983 -3.09038 -2.96108 0
M  V30 2270 C 214.309 -3.09268 -4.36185 0
M  V30 2271 C 215.609 -4.48508 -2.67652 0
M  V30 2272 H 217.303 -2.70237 -1.28889 0
M  V30 2273 H 214.849 -1.30036 -0.618605 0
M  V30 2274 H 216.802 -2.10394 -3.65119 0
M  V30 2275 H 215.526 -0.983129 -3.11452 0
M  V30 2276 H 214.185 -2.91837 -2.21872 0
M  V30 2277 H 213.833 -2.11861 -4.56206 0
M  V30 2278 H 213.533 -3.86907 -4.42241 0
M  V30 2279 H 215.057 -3.28348 -5.14801 0
M  V30 2280 H 216.471 -4.65918 -3.34056 0
M  V30 2281 H 214.868 -5.28059 -2.85085 0
M  V30 2282 H 215.938 -4.56649 -1.63095 0
M  V30 2283 N 217.281 0.66697 -1.42791 0
M  V30 2284 C 218.53 1.42278 -1.42968 0
M  V30 2285 C 218.843 1.9553 -0.0524489 0
M  V30 2286 O 220.049 2.71414 0.068363 0
M  V30 2287 C 218.505 2.57418 -2.51524 0
M  V30 2288 C 218.113 2.10832 -3.9529 0
M  V30 2289 C 219.857 3.34878 -2.60877 0
M  V30 2290 C 217.764 3.23101 -4.95338 0
M  V30 2291 H 216.694 0.534533 -0.531781 0
M  V30 2292 H 219.345 0.721302 -1.68729 0
M  V30 2293 H 217.727 3.29971 -2.18941 0
M  V30 2294 H 218.901 1.4538 -4.37266 0
M  V30 2295 H 217.216 1.46289 -3.89857 0
M  V30 2296 H 219.813 4.18505 -3.32802 0
M  V30 2297 H 220.156 3.81993 -1.6549 0
M  V30 2298 H 220.689 2.69398 -2.92693 0
M  V30 2299 H 217.428 2.80969 -5.9223 0
M  V30 2300 H 216.948 3.87309 -4.57987 0
M  V30 2301 H 218.627 3.88447 -5.17415 0
M  V30 2302 N 218.759 1.29093 0.90403 0
M  V30 2303 C 220.007 1.16583 1.65085 0
M  V30 2304 C 220.328 -0.283933 1.92922 0
M  V30 2305 O 219.598 -1.19509 1.55224 0
M  V30 2306 H 218.178 0.428467 0.611903 0
M  V30 2307 H 220.84 1.61959 1.08422 0
M  V30 2308 H 219.936 1.71266 2.6091 0
M  V30 2309 N 220.237 -1.11381 1.11499 0
M  V30 2310 C 221.2 -2.15622 0.777153 0
M  V30 2311 C 222.2 -1.59504 -0.203779 0
M  V30 2312 O 223.39 -1.74188 0.020782 0
M  V30 2313 C 220.522 -3.40556 0.153116 0
M  V30 2314 H 221.715 -2.47021 1.70061 0
M  V30 2315 H 219.268 -1.26577 0.916952 0
M  V30 2316 H 220.003 -3.14767 -0.780536 0
M  V30 2317 H 219.788 -3.8257 0.859238 0
M  V30 2318 H 221.278 -4.17546 -0.0671044 0
M  V30 2319 N 221.715 -0.905404 -1.28997 0
M  V30 2320 C 222.962 -0.534248 -1.95325 0
M  V30 2321 C 223.29 0.920535 -1.71337 0
M  V30 2322 O 222.545 1.66861 -1.02254 0
M  V30 2323 C 222.844 -0.779906 -3.48787 0
M  V30 2324 C 222.51 -2.21293 -3.92861 0
M  V30 2325 C 221.172 -2.60475 -4.04606 0
M  V30 2326 C 223.524 -3.14587 -4.15553 0
M  V30 2327 C 220.852 -3.9212 -4.36416 0
M  V30 2328 C 223.204 -4.45787 -4.48839 0
M  V30 2329 C 221.868 -4.84834 -4.58794 0
M  V30 2330 H 221.138 -0.195495 -0.714747 0
M  V30 2331 H 223.785 -1.14514 -1.53488 0
M  V30 2332 H 222.09 -0.0861365 -3.91705 0
M  V30 2333 H 223.787 -0.472029 -3.98212 0
M  V30 2334 H 220.377 -1.89887 -3.84241 0
M  V30 2335 H 224.561 -2.85528 -4.0594 0
M  V30 2336 H 219.817 -4.22086 -4.42327 0
M  V30 2337 H 223.991 -5.18098 -4.65346 0
M  V30 2338 H 221.618 -5.86877 -4.83197 0
M  V30 2339 N 223.193 1.4272 -0.668489 0
M  V30 2340 C 224.423 2.05668 -0.196063 0
M  V30 2341 C 224.831 1.5028 1.14946 0
M  V30 2342 O 224.174 0.6348 1.72383 0
M  V30 2343 C 224.236 3.59469 -0.0468879 0
M  V30 2344 C 223.9 4.37518 -1.32012 0
M  V30 2345 C 224.897 4.68584 -2.25222 0
M  V30 2346 C 222.582 4.77266 -1.56596 0
M  V30 2347 C 224.576 5.38326 -3.41297 0
M  V30 2348 C 222.263 5.4675 -2.72962 0
M  V30 2349 C 223.261 5.77204 -3.65137 0
M  V30 2350 O 222.949 6.45264 -4.79468 0
M  V30 2351 H 222.681 0.669382 -0.0943599 0
M  V30 2352 H 225.235 1.83954 -0.913788 0
M  V30 2353 H 223.465 3.79817 0.726357 0
M  V30 2354 H 225.154 4.04071 0.384852 0
M  V30 2355 H 225.92 4.38382 -2.07477 0
M  V30 2356 H 221.799 4.52959 -0.857249 0
M  V30 2357 H 225.343 5.62014 -4.13263 0
M  V30 2358 H 221.24 5.76369 -2.90635 0
M  V30 2359 H 222.008 6.63753 -4.78931 0
M  V30 2360 N 224.671 0.411399 1.52136 0
M  V30 2361 C 226.087 0.0623865 1.59478 0
M  V30 2362 C 226.287 -1.42554 1.4241 0
M  V30 2363 O 225.343 -2.19263 1.2522 0
M  V30 2364 C 226.656 0.559331 2.95452 0
M  V30 2365 C 228.204 0.517503 3.08692 0
M  V30 2366 C 228.679 0.990994 4.4715 0
M  V30 2367 N 230.17 0.947908 4.53397 0
M  V30 2368 C 230.905 1.28544 5.58806 0
M  V30 2369 N 230.401 1.69454 6.71757 0
M  V30 2370 N 232.194 1.20526 5.49026 0
M  V30 2371 H 224.345 1.37982 1.61477 0
M  V30 2372 H 226.608 0.566977 0.759764 0
M  V30 2373 H 226.314 1.59938 3.1323 0
M  V30 2374 H 226.188 -0.0298014 3.77188 0
M  V30 2375 H 228.575 -0.513505 2.90598 0
M  V30 2376 H 228.656 1.14272 2.28857 0
M  V30 2377 H 228.3 2.02034 4.65988 0
M  V30 2378 H 228.23 0.34257 5.25485 0
M  V30 2379 H 230.721 0.647157 3.72317 0
M  V30 2380 H 231.034 1.93513 7.48179 0
M  V30 2381 H 229.379 1.73359 6.73032 0
M  V30 2382 H 232.57 0.884505 4.59667 0
M  V30 2383 H 232.743 1.47161 6.31069 0
M  V30 2384 N 226.149 -1.5696 0.141893 0
M  V30 2385 C 227.56 -1.82797 -0.379776 0
M  V30 2386 C 227.911 -1.06033 -1.6508 0
M  V30 2387 O 227.036 -0.304011 -2.14254 0
M  V30 2388 C 227.631 -3.31578 -0.695802 0
M  V30 2389 C 226.19 -3.58014 -1.16201 0
M  V30 2390 C 225.337 -2.76699 -0.182455 0
M  V30 2391 H 228.288 -1.54406 0.366675 0
M  V30 2392 H 228.309 -3.47454 -1.55099 0
M  V30 2393 H 227.821 -3.87421 0.229449 0
M  V30 2394 H 225.922 -3.07553 -2.10338 0
M  V30 2395 H 226.035 -4.66501 -1.09151 0
M  V30 2396 H 224.399 -2.45618 -0.674072 0
M  V30 2397 H 225.182 -3.35311 0.736297 0
M  V30 2398 N 227.627 0.131896 -1.57047 0
M  V30 2399 C 228.855 0.856461 -1.88341 0
M  V30 2400 C 229.27 1.74042 -0.731757 0
M  V30 2401 O 228.627 1.80051 0.297945 0
M  V30 2402 C 228.678 1.70064 -3.18999 0
M  V30 2403 O 228.399 0.852278 -4.2973 0
M  V30 2404 C 229.9 2.53148 -3.63911 0
M  V30 2405 H 227.12 0.246885 -0.62393 0
M  V30 2406 H 229.664 0.120152 -2.04147 0
M  V30 2407 H 227.819 2.38984 -3.04902 0
M  V30 2408 H 228.233 1.43329 -5.04537 0
M  V30 2409 H 229.707 3.07931 -4.58129 0
M  V30 2410 H 230.184 3.29901 -2.89935 0
M  V30 2411 H 230.79 1.89492 -3.80753 0
M  V30 2412 N 229.106 1.52395 0.401703 0
M  V30 2413 C 230.069 1.75636 1.47257 0
M  V30 2414 C 231.069 0.62628 1.48103 0
M  V30 2415 O 232.259 0.894227 1.49497 0
M  V30 2416 C 229.391 1.84553 2.86624 0
M  V30 2417 H 230.584 2.71241 1.27938 0
M  V30 2418 H 228.137 1.42923 0.632662 0
M  V30 2419 H 228.872 0.908882 3.11303 0
M  V30 2420 H 228.657 2.66715 2.87412 0
M  V30 2421 H 230.147 2.04251 3.64241 0
M  V30 2422 N 230.584 -0.659388 1.43143 0
M  V30 2423 C 231.83 -1.42145 1.44647 0
M  V30 2424 C 232.163 -1.9408 0.0681907 0
M  V30 2425 O 231.438 -1.71899 -0.910007 0
M  V30 2426 C 231.721 -2.60735 2.48373 0
M  V30 2427 C 231.574 -2.14332 3.95451 0
M  V30 2428 C 232.893 -3.62951 2.48906 0
M  V30 2429 H 230.012 -0.51552 0.526696 0
M  V30 2430 H 232.654 -0.748069 1.74654 0
M  V30 2431 H 230.804 -3.18184 2.22916 0
M  V30 2432 H 232.476 -1.61932 4.31944 0
M  V30 2433 H 230.719 -1.4576 4.08578 0
M  V30 2434 H 231.39 -2.99583 4.63631 0
M  V30 2435 H 233.866 -3.1525 2.71582 0
M  V30 2436 H 232.742 -4.43487 3.23435 0
M  V30 2437 H 233.003 -4.15126 1.52061 0
M  V30 2438 N 232.062 -1.29571 -0.897171 0
M  V30 2439 C 233.311 -1.1706 -1.64256 0
M  V30 2440 C 233.624 0.276476 -1.93636 0
M  V30 2441 O 234.83 0.52294 -2.66416 0
M  V30 2442 C 233.286 -2.0475 -2.95982 0
M  V30 2443 C 232.894 -3.54295 -2.74187 0
M  V30 2444 C 234.638 -2.0097 -3.73914 0
M  V30 2445 C 232.545 -4.34081 -4.01656 0
M  V30 2446 H 231.475 -0.43452 -0.616205 0
M  V30 2447 H 234.126 -1.54229 -0.994268 0
M  V30 2448 H 232.508 -1.60452 -3.62038 0
M  V30 2449 H 233.682 -4.06662 -2.1671 0
M  V30 2450 H 231.997 -3.59773 -2.09648 0
M  V30 2451 H 234.594 -2.57838 -4.68427 0
M  V30 2452 H 234.937 -0.990273 -4.0435 0
M  V30 2453 H 235.47 -2.43325 -3.14703 0
M  V30 2454 H 232.209 -5.36671 -3.76384 0
M  V30 2455 H 231.729 -3.86483 -4.58684 0
M  V30 2456 H 233.408 -4.44877 -4.69781 0
M  V30 2457 N 233.54 1.10788 -1.12088 0
M  V30 2458 C 234.77 1.86191 -0.895351 0
M  V30 2459 C 235.178 1.80763 0.558702 0
M  V30 2460 O 234.521 1.19188 1.39785 0
M  V30 2461 C 234.583 3.35659 -1.28737 0
M  V30 2462 C 234.247 3.64849 -2.75198 0
M  V30 2463 C 235.244 3.61757 -3.734 0
M  V30 2464 C 232.929 3.93641 -3.12013 0
M  V30 2465 C 234.923 3.87045 -5.06434 0
M  V30 2466 C 232.61 4.18585 -4.4523 0
M  V30 2467 C 233.608 4.15277 -5.42249 0
M  V30 2468 O 233.296 4.3959 -6.73065 0
M  V30 2469 H 233.028 0.595425 -0.32007 0
M  V30 2470 H 235.582 1.40992 -1.49367 0
M  V30 2471 H 233.812 3.81497 -0.63224 0
M  V30 2472 H 235.501 3.92441 -1.03656 0
M  V30 2473 H 236.267 3.39557 -3.46303 0
M  V30 2474 H 232.146 3.95348 -2.37109 0
M  V30 2475 H 235.69 3.84378 -5.82151 0
M  V30 2476 H 231.587 4.40264 -4.72057 0
M  V30 2477 H 232.355 4.57123 -6.78956 0
M  V30 2478 N 235.018 0.912232 1.28515 0
M  V30 2479 C 236.295 0.463597 1.90027 0
M  V30 2480 C 236.675 -1.05753 1.82701 0
M  V30 2481 O 236.023 -1.90492 1.26194 0
M  V30 2482 C 236.233 0.992253 3.34597 0
M  V30 2483 C 237.581 1.04344 4.11579 0
M  V30 2484 O 238.605 0.94079 3.43551 0
M  V30 2485 O 237.464 1.1995 5.33174 0
M  V30 2486 H 234.558 0.146666 0.813891 0
M  V30 2487 H 237.104 1.00292 1.36893 0
M  V30 2488 H 235.876 2.03623 3.34146 0
M  V30 2489 H 235.499 0.433672 3.95228 0
M  V30 2490 N 236.496 -1.42363 0.676048 0
M  V30 2491 C 237.426 -2.33497 0.0124832 0
M  V30 2492 C 238.407 -1.50748 -0.787981 0
M  V30 2493 O 239.592 -1.79346 -0.744884 0
M  V30 2494 C 236.722 -3.34377 -0.938582 0
M  V30 2495 C 235.676 -4.27289 -0.246622 0
M  V30 2496 C 235.002 -5.18386 -1.31071 0
M  V30 2497 C 236.302 -5.14916 0.875125 0
M  V30 2498 H 237.996 -2.89233 0.773593 0
M  V30 2499 H 235.542 -1.39073 0.37346 0
M  V30 2500 H 237.495 -3.97044 -1.41188 0
M  V30 2501 H 236.219 -2.76947 -1.73113 0
M  V30 2502 H 234.878 -3.66018 0.206456 0
M  V30 2503 H 234.526 -4.57282 -2.09528 0
M  V30 2504 H 234.226 -5.81378 -0.852839 0
M  V30 2505 H 235.75 -5.83929 -1.78492 0
M  V30 2506 H 237.164 -5.71262 0.482983 0
M  V30 2507 H 235.561 -5.86747 1.25887 0
M  V30 2508 H 236.631 -4.53242 1.72335 0
M  V30 2509 N 237.974 -0.419461 -1.51915 0
M  V30 2510 C 239.251 0.211999 -1.94448 0
M  V30 2511 C 239.631 1.61703 -1.35703 0
M  V30 2512 O 238.979 2.22102 -0.536931 0
M  V30 2513 C 239.189 0.207872 -3.4838 0
M  V30 2514 C 240.537 0.422192 -4.22496 0
M  V30 2515 O 241.561 0.286778 -3.55044 0
M  V30 2516 O 240.42 0.690009 -5.42126 0
M  V30 2517 H 237.514 0.139586 -0.815135 0
M  V30 2518 H 240.06 -0.476151 -1.62883 0
M  V30 2519 H 238.832 -0.775102 -3.83546 0
M  V30 2520 H 238.455 0.939688 -3.86336 0
M  V30 2521 N 239.452 1.56882 -0.150215 0
M  V30 2522 C 240.699 1.96228 0.500093 0
M  V30 2523 C 241.027 1.03522 1.64661 0
M  V30 2524 O 240.282 0.0650683 1.95592 0
M  V30 2525 C 240.581 3.41801 1.04437 0
M  V30 2526 C 240.247 4.50897 0.0159671 0
M  V30 2527 C 238.909 4.8046 -0.266731 0
M  V30 2528 C 241.261 5.16703 -0.683192 0
M  V30 2529 C 238.589 5.73135 -1.25434 0
M  V30 2530 C 240.941 6.10441 -1.65964 0
M  V30 2531 C 239.605 6.38382 -1.95 0
M  V30 2532 H 238.875 0.718048 0.182997 0
M  V30 2533 H 241.522 1.90019 -0.237724 0
M  V30 2534 H 239.827 3.44857 1.85959 0
M  V30 2535 H 241.524 3.69573 1.55618 0
M  V30 2536 H 238.114 4.27891 0.246485 0
M  V30 2537 H 242.298 4.93993 -0.477983 0
M  V30 2538 H 237.554 5.93074 -1.48571 0
M  V30 2539 H 241.728 6.60507 -2.20689 0
M  V30 2540 H 239.355 7.09996 -2.71679 0
M  V30 2541 N 240.93 -0.123565 1.57115 0
M  V30 2542 C 241.86 -1.15309 2.03042 0
M  V30 2543 C 242.841 -1.43454 0.914061 0
M  V30 2544 O 244.026 -1.53973 1.18347 0
M  V30 2545 C 241.156 -2.48043 2.43089 0
M  V30 2546 C 240.11 -2.3437 3.58127 0
M  V30 2547 C 239.436 -3.72026 3.84059 0
M  V30 2548 C 240.736 -1.80804 4.90007 0
M  V30 2549 H 242.43 -0.771102 2.893 0
M  V30 2550 H 239.976 -0.369479 1.39179 0
M  V30 2551 H 241.929 -3.20311 2.73823 0
M  V30 2552 H 240.653 -2.88122 1.53796 0
M  V30 2553 H 239.312 -1.64551 3.27595 0
M  V30 2554 H 238.96 -4.09582 2.91979 0
M  V30 2555 H 238.66 -3.63732 4.6149 0
M  V30 2556 H 240.184 -4.45806 4.1724 0
M  V30 2557 H 241.598 -2.42886 5.19307 0
M  V30 2558 H 239.995 -1.83343 5.71407 0
M  V30 2559 H 241.065 -0.76528 4.78823 0
M  V30 2560 N 242.408 -1.52605 -0.393616 0
M  V30 2561 C 243.355 -1.77055 -1.48054 0
M  V30 2562 C 244.325 -0.61358 -1.54352 0
M  V30 2563 O 245.51 -0.852806 -1.70681 0
M  V30 2564 C 242.65 -1.94108 -2.85335 0
M  V30 2565 C 241.763 -3.21792 -2.88226 0
M  V30 2566 C 240.898 -3.29188 -4.16904 0
M  V30 2567 C 239.937 -4.51013 -4.13828 0
M  V30 2568 N 239.074 -4.55716 -5.34105 0
M  V30 2569 H 243.914 -2.69815 -1.26506 0
M  V30 2570 H 241.451 -1.33683 -0.61379 0
M  V30 2571 H 243.409 -2.01979 -3.65049 0
M  V30 2572 H 242.039 -1.04713 -3.05344 0
M  V30 2573 H 241.091 -3.23015 -2.00911 0
M  V30 2574 H 242.403 -4.11557 -2.8182 0
M  V30 2575 H 241.557 -3.36216 -5.05018 0
M  V30 2576 H 240.296 -2.37389 -4.26026 0
M  V30 2577 H 239.301 -4.44115 -3.24102 0
M  V30 2578 H 240.526 -5.44123 -4.06333 0
M  V30 2579 H 238.472 -3.66807 -5.43865 0
M  V30 2580 H 238.389 -5.39346 -5.29756 0
M  V30 2581 H 239.657 -4.66993 -6.2413 0
M  V30 2582 N 243.887 0.651787 -1.4349 0
M  V30 2583 C 245.115 1.43937 -1.48626 0
M  V30 2584 C 245.53 1.8851 -0.104587 0
M  V30 2585 O 244.887 1.5958 0.885464 0
M  V30 2586 C 244.938 2.6734 -2.43334 0
M  V30 2587 O 244.659 2.24631 -3.76128 0
M  V30 2588 C 246.16 3.60683 -2.57726 0
M  V30 2589 H 243.38 0.44213 -0.504739 0
M  V30 2590 H 245.924 0.798944 -1.88248 0
M  V30 2591 H 244.079 3.2752 -2.06904 0
M  V30 2592 H 244.493 3.04485 -4.2707 0
M  V30 2593 H 245.967 4.43933 -3.28067 0
M  V30 2594 H 246.444 4.08126 -1.62265 0
M  V30 2595 H 247.05 3.06384 -2.94973 0
M  V30 2596 N 245.365 1.30045 0.890287 0
M  V30 2597 C 246.295 1.18541 2.01172 0
M  V30 2598 C 247.276 0.0773356 1.69924 0
M  V30 2599 O 248.461 0.25845 1.92473 0
M  V30 2600 C 245.591 0.870941 3.36202 0
M  V30 2601 C 244.545 1.93637 3.81692 0
M  V30 2602 C 243.871 1.475 5.13953 0
M  V30 2603 C 245.171 3.34666 4.00994 0
M  V30 2604 H 246.865 2.12359 2.11054 0
M  V30 2605 H 244.411 1.02238 1.01407 0
M  V30 2606 H 246.364 0.777141 4.14172 0
M  V30 2607 H 245.088 -0.102926 3.26438 0
M  V30 2608 H 243.747 2.01972 3.05946 0
M  V30 2609 H 243.395 0.489551 5.00612 0
M  V30 2610 H 243.095 2.1876 5.4536 0
M  V30 2611 H 244.619 1.39489 5.94454 0
M  V30 2612 H 246.033 3.2912 4.69417 0
M  V30 2613 H 244.43 4.03966 4.43769 0
M  V30 2614 H 245.5 3.76949 3.05021 0
M  V30 2615 N 246.843 -1.10192 1.12674 0
M  V30 2616 C 248.254 -1.63707 0.897604 0
M  V30 2617 C 248.605 -1.87812 -0.567546 0
M  V30 2618 O 247.73 -1.62196 -1.43253 0
M  V30 2619 C 248.325 -2.974 1.62292 0
M  V30 2620 C 246.884 -3.47772 1.43986 0
M  V30 2621 C 246.031 -2.22332 1.65722 0
M  V30 2622 H 248.982 -0.936587 1.28116 0
M  V30 2623 H 249.003 -3.64986 1.07541 0
M  V30 2624 H 248.515 -2.79824 2.68924 0
M  V30 2625 H 246.616 -3.70487 0.396206 0
M  V30 2626 H 246.729 -4.25723 2.19765 0
M  V30 2627 H 245.093 -2.30599 1.08149 0
M  V30 2628 H 245.876 -2.07285 2.73657 0
M  V30 2629 N 248.321 -0.919034 -1.28029 0
M  V30 2630 C 249.568 -0.554934 -1.94748 0
M  V30 2631 C 249.896 0.90231 -1.72304 0
M  V30 2632 O 249.151 1.65767 -1.04018 0
M  V30 2633 C 249.45 -0.816855 -3.4794 0
M  V30 2634 C 249.116 -2.25448 -3.90492 0
M  V30 2635 C 247.778 -2.64752 -4.01821 0
M  V30 2636 C 250.13 -3.18977 -4.12193 0
M  V30 2637 C 247.458 -3.96727 -4.32232 0
M  V30 2638 C 249.81 -4.50523 -4.44086 0
M  V30 2639 C 248.474 -4.89673 -4.53626 0
M  V30 2640 H 247.744 -0.203065 -0.712633 0
M  V30 2641 H 250.391 -1.16136 -1.52265 0
M  V30 2642 H 248.696 -0.127677 -3.91592 0
M  V30 2643 H 250.393 -0.514238 -3.97689 0
M  V30 2644 H 246.983 -1.93952 -3.82205 0
M  V30 2645 H 251.167 -2.89817 -4.02889 0
M  V30 2646 H 246.423 -4.26754 -4.37825 0
M  V30 2647 H 250.597 -5.23005 -4.59825 0
M  V30 2648 H 248.224 -5.91969 -4.76946 0
M  V30 2649 N 249.799 1.42003 -0.683588 0
M  V30 2650 C 250.709 2.34597 -0.0109075 0
M  V30 2651 C 251.725 1.55576 0.779245 0
M  V30 2652 O 252.901 1.88107 0.719555 0
M  V30 2653 C 249.966 3.34199 0.922588 0
M  V30 2654 C 249.027 4.29115 0.125984 0
M  V30 2655 C 248.26 5.23959 1.01502 0
M  V30 2656 O 248.483 5.23952 2.25456 0
M  V30 2657 O 247.417 6.00053 0.47111 0
M  V30 2658 H 251.243 2.93675 -0.773853 0
M  V30 2659 H 248.828 1.42654 -0.443861 0
M  V30 2660 H 250.71 3.95365 1.45823 0
M  V30 2661 H 249.385 2.77582 1.66523 0
M  V30 2662 H 248.292 3.71335 -0.453969 0
M  V30 2663 H 249.625 4.88798 -0.577736 0
M  V30 2664 N 251.277 0.427512 1.51691 0
M  V30 2665 C 252.209 -0.424521 2.25234 0
M  V30 2666 C 253.222 -0.994671 1.2888 0
M  V30 2667 O 254.411 -0.890483 1.54702 0
M  V30 2668 C 251.511 -1.60479 2.98496 0
M  V30 2669 C 250.684 -1.15527 4.21868 0
M  V30 2670 C 249.743 -2.20454 4.77793 0
M  V30 2671 O 248.769 -1.8029 5.39893 0
M  V30 2672 N 249.971 -3.52831 4.60967 0
M  V30 2673 H 252.736 0.205749 2.98993 0
M  V30 2674 H 250.297 0.255867 1.59865 0
M  V30 2675 H 252.289 -2.30276 3.32799 0
M  V30 2676 H 250.859 -2.14061 2.27809 0
M  V30 2677 H 250.079 -0.284736 3.9317 0
M  V30 2678 H 251.367 -0.832173 5.01949 0
M  V30 2679 H 250.765 -3.88201 4.11481 0
M  V30 2680 H 249.322 -4.18551 4.99658 0
M  V30 2681 N 252.755 -1.56801 0.158532 0
M  V30 2682 C 254.004 -1.95665 -0.489702 0
M  V30 2683 C 254.317 -1.04654 -1.65248 0
M  V30 2684 O 255.523 -1.33146 -2.3661 0
M  V30 2685 C 253.979 -3.47874 -0.922582 0
M  V30 2686 C 253.587 -4.47489 0.213893 0
M  V30 2687 C 255.331 -3.95583 -1.53996 0
M  V30 2688 C 253.238 -5.90921 -0.237903 0
M  V30 2689 H 252.168 -0.730516 -0.186716 0
M  V30 2690 H 254.819 -1.81861 0.244722 0
M  V30 2691 H 253.201 -3.57051 -1.71261 0
M  V30 2692 H 254.375 -4.50017 0.991036 0
M  V30 2693 H 252.69 -4.09764 0.740407 0
M  V30 2694 H 255.287 -5.0019 -1.8898 0
M  V30 2695 H 255.63 -3.37789 -2.43319 0
M  V30 2696 H 256.163 -3.8937 -0.814611 0
M  V30 2697 H 252.902 -6.52559 0.620236 0
M  V30 2698 H 252.422 -5.91729 -0.980676 0
M  V30 2699 H 254.101 -6.43352 -0.686067 0
M  V30 2700 N 254.233 0.115231 -1.57178 0
M  V30 2701 C 255.163 1.1423 -2.03651 0
M  V30 2702 C 256.144 1.42967 -0.921655 0
M  V30 2703 O 257.329 1.53343 -1.19162 0
M  V30 2704 C 254.459 2.4675 -2.44401 0
M  V30 2705 C 253.413 2.32467 -3.59365 0
M  V30 2706 C 252.739 3.69984 -3.86026 0
M  V30 2707 C 254.039 1.78203 -4.90959 0
M  V30 2708 H 255.733 0.755749 -2.89705 0
M  V30 2709 H 253.279 0.362093 -1.39373 0
M  V30 2710 H 255.232 3.18854 -2.75517 0
M  V30 2711 H 253.956 2.87302 -1.55322 0
M  V30 2712 H 252.615 1.62811 -3.28463 0
M  V30 2713 H 252.263 4.08028 -2.94147 0
M  V30 2714 H 251.963 3.61279 -4.63412 0
M  V30 2715 H 253.487 4.43587 -4.19599 0
M  V30 2716 H 254.901 2.40128 -5.20587 0
M  V30 2717 H 253.298 1.8031 -5.72371 0
M  V30 2718 H 254.368 0.739876 -4.79222 0
M  V30 2719 N 255.711 1.52812 0.385517 0
M  V30 2720 C 256.936 1.72207 1.15583 0
M  V30 2721 C 257.361 0.441034 1.82857 0
M  V30 2722 O 256.719 -0.603465 1.70962 0
M  V30 2723 C 256.767 2.87476 2.17692 0
M  V30 2724 O 255.871 2.54693 3.24354 0
M  V30 2725 H 255.212 0.572526 0.336319 0
M  V30 2726 H 257.742 1.99618 0.448744 0
M  V30 2727 H 257.752 3.13072 2.6163 0
M  V30 2728 H 256.427 3.80408 1.68115 0
M  V30 2729 H 255.004 2.3985 2.85529 0
M  V30 2730 N 257.189 -0.644168 1.43834 0
M  V30 2731 C 258.437 -1.40117 1.45642 0
M  V30 2732 C 258.758 -1.94814 0.0852413 0
M  V30 2733 O 258.028 -1.74988 -0.880688 0
M  V30 2734 H 256.608 -0.52005 0.536243 0
M  V30 2735 H 259.27 -0.7591 1.7951 0
M  V30 2736 H 258.366 -2.23902 2.17427 0
M  V30 2737 N 258.668 -1.30515 -0.883378 0
M  V30 2738 C 259.898 -1.22182 -1.66599 0
M  V30 2739 C 260.306 0.217507 -1.87946 0
M  V30 2740 O 259.649 1.1554 -1.42815 0
M  V30 2741 C 259.711 -1.88146 -3.06335 0
M  V30 2742 C 259.375 -3.37476 -3.08154 0
M  V30 2743 C 260.372 -4.33443 -2.87094 0
M  V30 2744 C 258.057 -3.7895 -3.29701 0
M  V30 2745 C 260.051 -5.68858 -2.8754 0
M  V30 2746 C 257.738 -5.14482 -3.29776 0
M  V30 2747 C 258.736 -6.09246 -3.0872 0
M  V30 2748 O 258.424 -7.42302 -3.08615 0
M  V30 2749 H 258.156 -0.423898 -0.52658 0
M  V30 2750 H 260.71 -1.72703 -1.11188 0
M  V30 2751 H 258.94 -1.32157 -3.63416 0
M  V30 2752 H 260.629 -1.7391 -3.66756 0
M  V30 2753 H 261.395 -4.02733 -2.70243 0
M  V30 2754 H 257.274 -3.05631 -3.45124 0
M  V30 2755 H 260.818 -6.428 -2.71024 0
M  V30 2756 H 256.715 -5.44832 -3.46163 0
M  V30 2757 H 257.483 -7.5131 -3.24769 0
M  V30 2758 N 260.146 1.09593 -1.13257 0
M  V30 2759 C 261.109 2.14359 -0.811358 0
M  V30 2760 C 262.109 1.59808 0.178377 0
M  V30 2761 O 263.299 1.74132 -0.0484911 0
M  V30 2762 C 260.431 3.40269 -0.207276 0
M  V30 2763 H 261.624 2.44284 -1.73969 0
M  V30 2764 H 259.177 1.25102 -0.936973 0
M  V30 2765 H 259.912 3.15969 0.73036 0
M  V30 2766 H 259.697 3.81154 -0.919992 0
M  V30 2767 H 261.187 4.176 0.000667944 0
M  V30 2768 N 261.624 0.925811 1.2754 0
M  V30 2769 C 262.534 0.428993 2.30644 0
M  V30 2770 C 263.55 -0.489387 1.66976 0
M  V30 2771 O 264.726 -0.372653 1.97922 0
M  V30 2772 C 261.791 -0.311967 3.45294 0
M  V30 2773 C 260.852 0.641098 4.24486 0
M  V30 2774 C 260.085 -0.0645955 5.33661 0
M  V30 2775 O 260.308 -1.28429 5.55754 0
M  V30 2776 O 259.242 0.606265 5.98839 0
M  V30 2777 H 263.068 1.28504 2.75173 0
M  V30 2778 H 260.653 0.691086 1.32455 0
M  V30 2779 H 262.535 -0.729972 4.15029 0
M  V30 2780 H 261.21 -1.14365 3.02824 0
M  V30 2781 H 260.117 1.10874 3.57292 0
M  V30 2782 H 261.45 1.43995 4.70666 0
M  V30 2783 N 263.102 -1.41638 0.69111 0
M  V30 2784 C 264.348 -2.01598 0.220519 0
M  V30 2785 C 264.681 -1.54594 -1.17535 0
M  V30 2786 O 263.956 -0.755177 -1.79241 0
M  V30 2787 C 264.239 -3.59062 0.273243 0
M  V30 2788 C 264.092 -4.16203 1.70573 0
M  V30 2789 C 265.411 -4.38546 -0.369457 0
M  V30 2790 H 262.53 -0.732468 0.0816045 0
M  V30 2791 H 265.172 -1.68445 0.878986 0
M  V30 2792 H 263.322 -3.87435 -0.287411 0
M  V30 2793 H 264.994 -3.98722 2.31989 0
M  V30 2794 H 263.237 -3.71414 2.2413 0
M  V30 2795 H 263.908 -5.25358 1.69419 0
M  V30 2796 H 266.384 -4.1596 0.107977 0
M  V30 2797 H 265.26 -5.48069 -0.302002 0
M  V30 2798 H 265.521 -4.17662 -1.44951 0
M  V30 2799 N 264.58 -0.43555 -1.51462 0
M  V30 2800 C 265.81 0.130053 -2.0619 0
M  V30 2801 C 266.218 1.37164 -1.30317 0
M  V30 2802 O 265.561 1.80225 -0.355598 0
M  V30 2803 C 265.623 0.519418 -3.55728 0
M  V30 2804 C 265.287 -0.615119 -4.52841 0
M  V30 2805 C 266.284 -1.48671 -4.9819 0
M  V30 2806 C 263.969 -0.795341 -4.95963 0
M  V30 2807 C 265.963 -2.52324 -5.8533 0
M  V30 2808 C 263.65 -1.83514 -5.82894 0
M  V30 2809 C 264.648 -2.69748 -6.27475 0
M  V30 2810 O 264.336 -3.71944 -7.1268 0
M  V30 2811 H 264.068 0.0121612 -0.675891 0
M  V30 2812 H 266.622 -0.6129 -1.96043 0
M  V30 2813 H 264.852 1.31505 -3.63653 0
M  V30 2814 H 266.541 1.01597 -3.92979 0
M  V30 2815 H 267.307 -1.359 -4.65571 0
M  V30 2816 H 263.186 -0.133713 -4.60806 0
M  V30 2817 H 266.73 -3.19665 -6.20048 0
M  V30 2818 H 262.627 -1.96306 -6.14926 0
M  V30 2819 H 263.395 -3.68503 -7.30854 0
M  V30 2820 N 266.058 1.56714 -0.166846 0
M  V30 2821 C 267.005 2.17746 0.765193 0
M  V30 2822 C 267.975 1.11614 1.23011 0
M  V30 2823 O 269.16 1.39745 1.29908 0
M  V30 2824 C 266.3 2.81882 1.9909 0
M  V30 2825 C 265.413 4.02462 1.56997 0
M  V30 2826 C 264.548 4.54537 2.749 0
M  V30 2827 C 263.587 5.67538 2.29275 0
M  V30 2828 N 262.724 6.14142 3.40255 0
M  V30 2829 H 267.564 2.97048 0.237952 0
M  V30 2830 H 265.101 1.4672 0.105725 0
M  V30 2831 H 267.059 3.17221 2.70974 0
M  V30 2832 H 265.689 2.05191 2.49192 0
M  V30 2833 H 264.741 3.72973 0.748037 0
M  V30 2834 H 266.053 4.84273 1.19503 0
M  V30 2835 H 265.207 4.92035 3.54946 0
M  V30 2836 H 263.946 3.71774 3.1565 0
M  V30 2837 H 262.951 5.29597 1.47674 0
M  V30 2838 H 264.176 6.52099 1.89588 0
M  V30 2839 H 262.122 5.3431 3.8059 0
M  V30 2840 H 262.039 6.9093 3.06841 0
M  V30 2841 H 263.307 6.56289 4.206 0
M  V30 2842 N 267.536 -0.106894 1.57237 0
M  V30 2843 C 268.486 -1.1366 1.9765 0
M  V30 2844 C 269.47 -1.36416 0.853203 0
M  V30 2845 O 270.662 -1.37305 1.11697 0
M  V30 2846 C 267.791 -2.46 2.39455 0
M  V30 2847 C 266.877 -2.26668 3.58445 0
M  V30 2848 N 267.268 -1.77176 4.73754 0
M  V30 2849 C 265.566 -2.57279 3.64312 0
M  V30 2850 C 266.267 -1.71836 5.5574 0
M  V30 2851 N 265.243 -2.16623 4.98573 0
M  V30 2852 H 269.045 -0.74669 2.84256 0
M  V30 2853 H 266.559 -0.314483 1.59326 0
M  V30 2854 H 268.556 -3.2049 2.6663 0
M  V30 2855 H 267.216 -2.85738 1.54219 0
M  V30 2856 H 268.227 -1.46545 4.96734 0
M  V30 2857 H 264.904 -3.00622 2.89711 0
M  V30 2858 H 266.294 -1.34723 6.58255 0
M  V30 2859 N 269.014 -1.53014 -0.377408 0
M  V30 2860 C 269.977 -1.77957 -1.44444 0
M  V30 2861 C 270.977 -0.649763 -1.47087 0
M  V30 2862 O 272.167 -0.917897 -1.48055 0
M  V30 2863 C 269.299 -1.89089 -2.83651 0
M  V30 2864 H 270.492 -2.73243 -1.23606 0
M  V30 2865 H 268.045 -1.43912 -0.609844 0
M  V30 2866 H 268.78 -0.958293 -3.09818 0
M  V30 2867 H 268.565 -2.71254 -2.83132 0
M  V30 2868 H 270.055 -2.1002 -3.60945 0
M  V30 2869 N 270.492 0.636531 -1.44174 0
M  V30 2870 C 271.422 1.76003 -1.53444 0
M  V30 2871 C 272.403 1.65619 -0.387841 0
M  V30 2872 O 273.588 1.84461 -0.607257 0
M  V30 2873 C 270.718 3.14511 -1.4731 0
M  V30 2874 C 269.672 3.39677 -2.60391 0
M  V30 2875 C 268.998 4.78159 -2.39308 0
M  V30 2876 C 270.298 3.32772 -4.02567 0
M  V30 2877 H 271.992 1.68501 -2.47483 0
M  V30 2878 H 269.538 0.809237 -1.19111 0
M  V30 2879 H 271.491 3.92878 -1.52397 0
M  V30 2880 H 270.215 3.22783 -0.49785 0
M  V30 2881 H 268.874 2.63688 -2.54684 0
M  V30 2882 H 268.522 4.83128 -1.39988 0
M  V30 2883 H 268.222 4.95956 -3.15122 0
M  V30 2884 H 269.746 5.58762 -2.46205 0
M  V30 2885 H 271.16 4.01051 -4.09672 0
M  V30 2886 H 269.557 3.62104 -4.7854 0
M  V30 2887 H 270.627 2.30669 -4.2652 0
M  V30 2888 N 271.97 1.30982 0.876444 0
M  V30 2889 C 272.9 1.20668 1.99903 0
M  V30 2890 C 273.881 0.095354 1.69833 0
M  V30 2891 O 275.066 0.27885 1.92188 0
M  V30 2892 C 272.196 0.90655 3.3526 0
M  V30 2893 C 271.15 1.97675 3.79617 0
M  V30 2894 C 270.476 1.52943 5.1236 0
M  V30 2895 C 271.776 3.389 3.97422 0
M  V30 2896 H 273.47 2.14586 2.0879 0
M  V30 2897 H 271.016 1.03308 1.00317 0
M  V30 2898 H 272.969 0.821025 4.13324 0
M  V30 2899 H 271.693 -0.0682969 3.26529 0
M  V30 2900 H 270.352 2.05205 3.03787 0
M  V30 2901 H 270 0.54262 5.00065 0
M  V30 2902 H 269.7 2.24532 5.43009 0
M  V30 2903 H 271.224 1.45786 5.92941 0
M  V30 2904 H 272.638 3.34081 4.659 0
M  V30 2905 H 271.035 4.0865 4.3946 0
M  V30 2906 H 272.105 3.80163 3.01006 0
M  V30 2907 N 273.449 -1.08991 1.13837 0
M  V30 2908 C 274.397 -2.17841 0.815347 0
M  V30 2909 C 275.391 -1.68164 -0.204233 0
M  V30 2910 O 276.597 -1.79897 -0.0609304 0
M  V30 2911 H 272.972 -0.710654 0.245915 0
M  V30 2912 H 274.943 -2.42315 1.74143 0
M  V30 2913 C 273.692 -3.46381 0.302614 0
M  V30 2914 H 273.015 -3.84979 1.0785 0
M  V30 2915 H 274.455 -4.23844 0.115074 0
M  V30 2916 C 272.914 -3.22556 -0.972591 0
M  V30 2917 O 273.444 -3.45599 -2.04754 0
M  V30 2918 N 271.65 -2.76134 -0.905455 0
M  V30 2919 H 271.197 -2.57582 -0.0305421 0
M  V30 2920 H 271.155 -2.60571 -1.75926 0
M  V30 2921 N 274.927 -0.932562 -1.27047 0
M  V30 2922 C 276.175 -0.574422 -1.93765 0
M  V30 2923 C 276.496 0.887993 -1.73608 0
M  V30 2924 O 275.766 1.62999 -1.08665 0
M  V30 2925 H 274.346 -0.209451 -0.717035 0
M  V30 2926 H 277.008 -1.18601 -1.5466 0
M  V30 2927 H 276.104 -0.784841 -3.02071 0
M  V30 2928 N 276.405 1.4127 -0.698611 0
M  V30 2929 C 277.315 2.34573 -0.0357891 0
M  V30 2930 C 278.331 1.56393 0.762701 0
M  V30 2931 O 279.507 1.8886 0.699564 0
M  V30 2932 C 276.572 3.35159 0.887089 0
M  V30 2933 C 275.633 4.29225 0.0804634 0
M  V30 2934 C 274.866 5.25006 0.959387 0
M  V30 2935 O 275.089 5.26314 2.19886 0
M  V30 2936 O 274.023 6.00519 0.407439 0
M  V30 2937 H 277.849 2.92838 -0.804957 0
M  V30 2938 H 275.434 1.42175 -0.458966 0
M  V30 2939 H 277.316 3.9689 1.41621 0
M  V30 2940 H 275.991 2.79333 1.6357 0
M  V30 2941 H 274.898 3.70833 -0.493328 0
M  V30 2942 H 276.231 4.88157 -0.629547 0
M  V30 2943 N 277.883 0.443576 1.51229 0
M  V30 2944 C 279.108 -0.121648 2.07043 0
M  V30 2945 C 279.533 -1.35156 1.30823 0
M  V30 2946 O 278.891 -1.7793 0.347934 0
M  V30 2947 C 278.939 -0.41624 3.5819 0
M  V30 2948 O 278.043 -1.50163 3.8409 0
M  V30 2949 H 277.384 0.000871367 0.663999 0
M  V30 2950 H 279.914 0.626706 1.94765 0
M  V30 2951 H 279.924 -0.664867 4.02546 0
M  V30 2952 H 278.599 0.482653 4.1309 0
M  V30 2953 H 277.176 -1.24248 3.51592 0
M  V30 2954 N 279.361 -1.56624 0.175154 0
M  V30 2955 C 280.324 -2.16934 -0.739738 0
M  V30 2956 C 281.324 -1.11842 -1.15533 0
M  V30 2957 O 282.514 -1.37335 -1.07167 0
M  V30 2958 C 279.646 -2.75531 -2.00738 0
M  V30 2959 H 280.839 -2.99131 -0.214639 0
M  V30 2960 H 278.392 -1.56123 -0.0744197 0
M  V30 2961 H 279.127 -1.97078 -2.57548 0
M  V30 2962 H 278.912 -3.52444 -1.71831 0
M  V30 2963 H 280.402 -3.21904 -2.66021 0
M  V30 2964 N 280.839 0.0985539 -1.57292 0
M  V30 2965 C 282.067 0.816318 -1.90115 0
M  V30 2966 C 282.482 1.72451 -0.768509 0
M  V30 2967 O 281.839 1.80643 0.259687 0
M  V30 2968 C 281.89 1.63259 -3.22535 0
M  V30 2969 O 281.611 0.760934 -4.31441 0
M  V30 2970 C 283.112 2.45372 -3.69199 0
M  V30 2971 H 280.332 0.233595 -0.629027 0
M  V30 2972 H 282.876 0.0768229 -2.04356 0
M  V30 2973 H 281.031 2.32463 -3.09903 0
M  V30 2974 H 281.445 1.32595 -5.07463 0
M  V30 2975 H 282.919 2.98144 -4.64558 0
M  V30 2976 H 283.396 3.23677 -2.96867 0
M  V30 2977 H 284.002 1.81373 -3.84687 0
M  V30 2978 N 282.317 1.53212 0.369288 0
M  V30 2979 C 283.249 1.75668 1.47219 0
M  V30 2980 C 284.262 0.637387 1.49804 0
M  V30 2981 O 285.451 0.913561 1.5335 0
M  V30 2982 C 282.551 1.81818 2.85999 0
M  V30 2983 C 281.724 3.11409 3.07153 0
M  V30 2984 C 280.783 3.08849 4.26026 0
M  V30 2985 O 279.809 3.82659 4.2138 0
M  V30 2986 N 281.011 2.29409 5.33246 0
M  V30 2987 H 283.776 2.70832 1.28337 0
M  V30 2988 H 281.337 1.51944 0.55898 0
M  V30 2989 H 283.329 1.77588 3.63655 0
M  V30 2990 H 281.899 0.939544 2.98146 0
M  V30 2991 H 281.119 3.28971 2.1719 0
M  V30 2992 H 282.407 3.97059 3.18154 0
M  V30 2993 H 281.805 1.68946 5.39883 0
M  V30 2994 H 280.362 2.31001 6.09493 0
M  V30 2995 N 283.795 -0.628877 1.44509 0
M  V30 2996 C 285.072 -1.38733 1.37886 0
M  V30 2997 C 285.452 -2.11065 0.0387008 0
M  V30 2998 O 284.8 -2.06476 -0.97878 0
M  V30 2999 C 285.01 -2.35188 2.57852 0
M  V30 3000 C 286.358 -2.9845 3.02014 0
M  V30 3001 O 287.382 -2.45513 2.58073 0
M  V30 3002 O 286.241 -3.94487 3.78209 0
M  V30 3003 H 283.335 -0.621015 0.54614 0
M  V30 3004 H 285.881 -0.653744 1.56602 0
M  V30 3005 H 284.653 -1.80855 3.46998 0
M  V30 3006 H 284.276 -3.1596 2.4136 0
M  V30 3007 N 285.273 -1.31445 -0.869486 0
M  V30 3008 C 286.522 -1.20517 -1.61736 0
M  V30 3009 C 286.835 0.235341 -1.94179 0
M  V30 3010 O 288.041 0.466312 -2.67465 0
M  V30 3011 C 286.497 -2.10982 -2.91573 0
M  V30 3012 C 286.105 -3.60032 -2.66611 0
M  V30 3013 C 287.849 -2.08856 -3.69567 0
M  V30 3014 C 285.756 -4.42503 -3.92358 0
M  V30 3015 H 284.686 -0.447493 -0.606849 0
M  V30 3016 H 287.337 -1.56303 -0.96133 0
M  V30 3017 H 285.719 -1.68095 -3.58553 0
M  V30 3018 H 286.893 -4.11167 -2.08035 0
M  V30 3019 H 285.208 -3.64139 -2.0197 0
M  V30 3020 H 287.805 -2.67716 -4.62852 0
M  V30 3021 H 288.148 -1.07582 -4.02159 0
M  V30 3022 H 288.681 -2.49945 -3.09471 0
M  V30 3023 H 285.42 -5.44533 -3.64916 0
M  V30 3024 H 284.94 -3.96125 -4.50383 0
M  V30 3025 H 286.619 -4.54741 -4.60238 0
M  V30 3026 N 286.751 1.08385 -1.14413 0
M  V30 3027 C 287.661 2.18856 -0.844951 0
M  V30 3028 C 288.677 1.73121 0.174668 0
M  V30 3029 O 289.853 2.014 0.00312857 0
M  V30 3030 C 286.918 3.45155 -0.32696 0
M  V30 3031 C 285.979 4.05513 -1.40916 0
M  V30 3032 C 285.212 5.25784 -0.915793 0
M  V30 3033 O 285.435 5.69884 0.242651 0
M  V30 3034 O 284.369 5.77545 -1.69487 0
M  V30 3035 H 288.195 2.46919 -1.76818 0
M  V30 3036 H 285.78 1.17524 -0.922411 0
M  V30 3037 H 287.662 4.21377 -0.0440211 0
M  V30 3038 H 286.337 3.18668 0.568539 0
M  V30 3039 H 285.244 3.30879 -1.74556 0
M  V30 3040 H 286.577 4.3625 -2.27919 0
M  V30 3041 N 288.23 0.939286 1.26551 0
M  V30 3042 C 289.162 0.404704 2.25599 0
M  V30 3043 C 290.175 -0.470983 1.55838 0
M  V30 3044 O 291.364 -0.281734 1.76263 0
M  V30 3045 C 288.464 -0.43764 3.36062 0
M  V30 3046 C 287.637 0.421449 4.35365 0
M  V30 3047 C 286.696 -0.36015 5.24966 0
M  V30 3048 O 285.722 0.236167 5.6871 0
M  V30 3049 N 286.924 -1.65715 5.56344 0
M  V30 3050 H 289.689 1.25618 2.72103 0
M  V30 3051 H 287.25 0.807963 1.40298 0
M  V30 3052 H 289.242 -0.967866 3.92956 0
M  V30 3053 H 287.812 -1.18991 2.89067 0
M  V30 3054 H 287.032 1.1329 3.7757 0
M  V30 3055 H 288.32 1.00835 4.98708 0
M  V30 3056 H 287.718 -2.16378 5.22682 0
M  V30 3057 H 286.275 -2.13366 6.15888 0
M  V30 3058 N 289.708 -1.40897 0.706093 0
M  V30 3059 C 290.658 -2.27987 0.0240746 0
M  V30 3060 C 291.642 -1.42759 -0.742204 0
M  V30 3061 O 292.834 -1.65936 -0.615966 0
M  V30 3062 C 289.963 -3.31186 -0.903907 0
M  V30 3063 C 289.049 -4.2389 -0.133318 0
M  V30 3064 N 289.44 -4.98113 0.878444 0
M  V30 3065 C 287.738 -4.44485 -0.367269 0
M  V30 3066 C 288.439 -5.6604 1.34064 0
M  V30 3067 N 287.415 -5.39522 0.664565 0
M  V30 3068 H 291.217 -2.82812 0.799658 0
M  V30 3069 H 288.731 -1.53235 0.537845 0
M  V30 3070 H 290.728 -3.92413 -1.40775 0
M  V30 3071 H 289.388 -2.77922 -1.67897 0
M  V30 3072 H 290.399 -5.02364 1.25901 0
M  V30 3073 H 287.076 -4.02213 -1.1194 0
M  V30 3074 H 288.466 -6.35524 2.1808 0
M  V30 3075 N 291.186 -0.45159 -1.50991 0
M  V30 3076 C 292.433 0.110074 -2.02201 0
M  V30 3077 C 292.761 1.4146 -1.33489 0
M  V30 3078 O 292.016 1.90617 -0.443125 0
M  V30 3079 C 292.315 0.361728 -3.55565 0
M  V30 3080 C 291.981 -0.858717 -4.42648 0
M  V30 3081 C 290.643 -1.19338 -4.66167 0
M  V30 3082 C 292.995 -1.67221 -4.93646 0
M  V30 3083 C 290.323 -2.34195 -5.37931 0
M  V30 3084 C 292.675 -2.8119 -5.6667 0
M  V30 3085 C 291.339 -3.15094 -5.88449 0
M  V30 3086 H 290.609 0.040279 -0.739904 0
M  V30 3087 H 293.256 -0.601696 -1.81802 0
M  V30 3088 H 291.561 1.15554 -3.74372 0
M  V30 3089 H 293.258 0.80996 -3.92735 0
M  V30 3090 H 289.848 -0.58796 -4.24548 0
M  V30 3091 H 294.032 -1.42686 -4.75347 0
M  V30 3092 H 289.288 -2.6076 -5.53005 0
M  V30 3093 H 293.462 -3.44585 -6.05173 0
M  V30 3094 H 291.089 -4.04204 -6.43835 0
M  V30 3095 N 292.664 1.56529 -0.183458 0
M  V30 3096 C 293.611 2.18546 0.742055 0
M  V30 3097 C 294.581 1.12912 1.2182 0
M  V30 3098 O 295.766 1.41115 1.28418 0
M  V30 3099 C 292.906 2.83977 1.96089 0
M  V30 3100 C 292.019 4.04105 1.52719 0
M  V30 3101 C 291.154 4.57427 2.70063 0
M  V30 3102 C 290.193 5.69938 2.23243 0
M  V30 3103 N 289.33 6.17717 3.33722 0
M  V30 3104 H 294.17 2.97284 0.206432 0
M  V30 3105 H 291.707 1.46823 0.0901571 0
M  V30 3106 H 293.665 3.20077 2.67594 0
M  V30 3107 H 292.295 2.07822 2.47002 0
M  V30 3108 H 291.347 3.73745 0.708436 0
M  V30 3109 H 292.659 4.85513 1.1436 0
M  V30 3110 H 291.813 4.95772 3.49708 0
M  V30 3111 H 290.552 3.75101 3.11689 0
M  V30 3112 H 289.557 5.31133 1.42048 0
M  V30 3113 H 290.782 6.54073 1.82661 0
M  V30 3114 H 288.728 5.38317 3.74902 0
M  V30 3115 H 288.645 6.94146 2.99495 0
M  V30 3116 H 289.913 6.60713 4.13616 0
M  V30 3117 N 294.142 -0.090211 1.57342 0
M  V30 3118 C 295.419 -0.824761 1.77361 0
M  V30 3119 C 295.799 -1.96698 0.76637 0
M  V30 3120 O 295.147 -2.27586 -0.204179 0
M  V30 3121 C 295.357 -1.31481 3.23286 0
M  V30 3122 C 296.705 -1.75563 3.86604 0
M  V30 3123 O 297.729 -1.41093 3.27065 0
M  V30 3124 O 296.588 -2.39317 4.91314 0
M  V30 3125 H 293.682 -0.393776 0.727234 0
M  V30 3126 H 296.228 -0.0717138 1.69548 0
M  V30 3127 H 295 -0.496671 3.88135 0
M  V30 3128 H 294.623 -2.12973 3.35751 0
M  V30 3129 N 295.62 -1.53406 -0.361157 0
M  V30 3130 C 297.036 -1.43277 -0.703124 0
M  V30 3131 C 297.236 -0.575384 -1.9311 0
M  V30 3132 O 296.292 -0.0595362 -2.5243 0
M  V30 3133 C 297.605 -2.8653 -0.9122 0
M  V30 3134 C 299.153 -2.96191 -1.01193 0
M  V30 3135 C 299.628 -4.40514 -1.25345 0
M  V30 3136 N 301.119 -4.43962 -1.32105 0
M  V30 3137 C 301.854 -5.52746 -1.5251 0
M  V30 3138 N 301.35 -6.71567 -1.70203 0
M  V30 3139 N 303.143 -5.40331 -1.54916 0
M  V30 3140 H 295.294 -2.07654 0.446475 0
M  V30 3141 H 297.557 -0.937944 0.137715 0
M  V30 3142 H 297.263 -3.51605 -0.0816414 0
M  V30 3143 H 297.137 -3.30441 -1.81903 0
M  V30 3144 H 299.524 -2.31266 -1.83303 0
M  V30 3145 H 299.605 -2.55667 -0.0823929 0
M  V30 3146 H 299.249 -5.06014 -0.437346 0
M  V30 3147 H 299.179 -4.78614 -2.19627 0
M  V30 3148 H 301.67 -3.58332 -1.20028 0
M  V30 3149 H 301.983 -7.50241 -1.85359 0
M  V30 3150 H 300.328 -6.74545 -1.67373 0
M  V30 3151 H 303.519 -4.46465 -1.40663 0
M  V30 3152 H 303.692 -6.25173 -1.70477 0
M  V30 3153 N 297.098 0.621204 -1.44841 0
M  V30 3154 C 298.008 1.7612 -1.5498 0
M  V30 3155 C 299.024 1.68477 -0.434927 0
M  V30 3156 O 300.2 1.89076 -0.693693 0
M  V30 3157 C 297.265 3.1254 -1.50065 0
M  V30 3158 C 296.326 3.31741 -2.72482 0
M  V30 3159 C 295.559 4.61653 -2.67792 0
M  V30 3160 O 295.782 5.431 -1.74352 0
M  V30 3161 O 294.716 4.83271 -3.58794 0
M  V30 3162 H 298.542 1.70518 -2.51311 0
M  V30 3163 H 296.127 0.783643 -1.27198 0
M  V30 3164 H 298.009 3.93844 -1.49882 0
M  V30 3165 H 296.684 3.18663 -0.568806 0
M  V30 3166 H 295.591 2.50077 -2.7823 0
M  V30 3167 H 296.924 3.30486 -3.64746 0
M  V30 3168 N 298.576 1.31904 0.862503 0
M  V30 3169 C 299.825 1.21373 1.61094 0
M  V30 3170 C 300.138 -0.22504 1.94301 0
M  V30 3171 O 301.344 -0.452121 2.67709 0
M  V30 3172 C 299.8 2.12525 2.9045 0
M  V30 3173 C 299.408 3.61441 2.64697 0
M  V30 3174 C 301.152 2.10813 3.68454 0
M  V30 3175 C 299.059 4.44578 3.90006 0
M  V30 3176 H 297.989 0.450705 0.604468 0
M  V30 3177 H 300.64 1.56811 0.953027 0
M  V30 3178 H 299.022 1.69994 3.57656 0
M  V30 3179 H 300.196 4.12264 2.05851 0
M  V30 3180 H 298.511 3.65205 2.00036 0
M  V30 3181 H 301.108 2.70167 4.61426 0
M  V30 3182 H 301.451 1.09713 4.01583 0
M  V30 3183 H 301.984 2.51583 3.08141 0
M  V30 3184 H 298.723 5.46461 3.62023 0
M  V30 3185 H 298.243 3.98508 4.48276 0
M  V30 3186 H 299.922 4.57176 4.5782 0
M  V30 3187 N 300.054 -1.07777 1.14986 0
M  V30 3188 C 300.984 -2.16865 0.865557 0
M  V30 3189 C 301.965 -1.69123 -0.182083 0
M  V30 3190 O 303.15 -1.94164 -0.0373815 0
M  V30 3191 C 300.28 -3.45539 0.349313 0
M  V30 3192 C 299.234 -4.06708 1.33313 0
M  V30 3193 C 298.56 -5.30411 0.675918 0
M  V30 3194 C 299.86 -4.47241 2.69764 0
M  V30 3195 H 301.554 -2.40905 1.77778 0
M  V30 3196 H 299.1 -1.15781 0.856203 0
M  V30 3197 H 301.053 -4.21174 0.137983 0
M  V30 3198 H 299.777 -3.21072 -0.598362 0
M  V30 3199 H 298.436 -3.33112 1.53075 0
M  V30 3200 H 298.084 -5.02232 -0.277767 0
M  V30 3201 H 297.784 -5.72293 1.33244 0
M  V30 3202 H 299.308 -6.08755 0.474262 0
M  V30 3203 H 300.722 -5.14025 2.53873 0
M  V30 3204 H 299.119 -5.00062 3.3175 0
M  V30 3205 H 300.189 -3.58818 3.26156 0
M  V30 3206 N 301.532 -0.945985 -1.26051 0
M  V30 3207 C 302.464 -0.416662 -2.25381 0
M  V30 3208 C 303.477 0.462712 -1.56086 0
M  V30 3209 O 304.666 0.272383 -1.7641 0
M  V30 3210 C 301.766 0.419812 -3.3629 0
M  V30 3211 C 300.939 -0.444531 -4.35135 0
M  V30 3212 C 299.998 0.332305 -5.2515 0
M  V30 3213 O 299.024 -0.266324 -5.68577 0
M  V30 3214 N 300.226 1.62763 -5.57215 0
M  V30 3215 H 302.991 -1.27059 -2.71433 0
M  V30 3216 H 300.552 -0.815392 -1.39868 0
M  V30 3217 H 302.544 0.947013 -3.93464 0
M  V30 3218 H 301.114 1.17456 -2.89694 0
M  V30 3219 H 300.334 -1.15291 -3.76964 0
M  V30 3220 H 301.622 -1.03478 -4.98166 0
M  V30 3221 H 301.02 2.13603 -5.23823 0
M  V30 3222 H 299.577 2.10097 -6.17011 0
M  V30 3223 N 303.011 1.40521 -0.713556 0
M  V30 3224 C 304.236 2.05759 -0.26035 0
M  V30 3225 C 304.661 1.53403 1.08854 0
M  V30 3226 O 304.019 0.668535 1.68524 0
M  V30 3227 C 304.067 3.59745 -0.248122 0
M  V30 3228 O 303.171 4.05123 0.77131 0
M  V30 3229 H 302.512 0.652564 -0.122703 0
M  V30 3230 H 305.042 1.79958 -0.973467 0
M  V30 3231 H 305.052 4.07911 -0.0851129 0
M  V30 3232 H 303.727 3.97218 -1.2325 0
M  V30 3233 H 302.304 3.68422 0.57619 0
M  V30 3234 N 304.489 0.459591 1.5075 0
M  V30 3235 C 305.419 -0.330644 2.31147 0
M  V30 3236 C 306.4 -1.00087 1.37538 0
M  V30 3237 O 307.585 -1.00025 1.66459 0
M  V30 3238 C 304.715 -1.41958 3.16962 0
M  V30 3239 C 303.669 -0.871608 4.19031 0
M  V30 3240 C 302.995 -2.05797 4.9351 0
M  V30 3241 C 304.295 0.109251 5.22186 0
M  V30 3242 H 305.989 0.340336 2.97459 0
M  V30 3243 H 303.535 0.165119 1.4305 0
M  V30 3244 H 305.488 -1.9798 3.71997 0
M  V30 3245 H 304.212 -2.11917 2.48513 0
M  V30 3246 H 302.871 -0.333442 3.6508 0
M  V30 3247 H 302.519 -2.74427 4.21544 0
M  V30 3248 H 302.219 -1.6976 5.62544 0
M  V30 3249 H 303.743 -2.62331 5.51375 0
M  V30 3250 H 305.157 -0.361405 5.7216 0
M  V30 3251 H 303.554 0.383316 5.98875 0
M  V30 3252 H 304.624 1.03887 4.73641 0
M  V30 3253 N 305.967 -1.56429 0.191757 0
M  V30 3254 C 306.914 -2.18936 -0.730454 0
M  V30 3255 C 307.884 -1.13557 -1.21219 0
M  V30 3256 O 309.069 -1.41794 -1.27668 0
M  V30 3257 C 306.209 -2.85013 -1.9458 0
M  V30 3258 C 305.322 -4.04909 -1.50574 0
M  V30 3259 C 304.457 -4.58853 -2.67634 0
M  V30 3260 C 303.496 -5.71114 -2.20217 0
M  V30 3261 N 302.633 -6.19478 -3.30442 0
M  V30 3262 H 307.473 -2.97389 -0.190664 0
M  V30 3263 H 305.01 -1.46869 -0.0823694 0
M  V30 3264 H 306.968 -3.21492 -2.65893 0
M  V30 3265 H 305.598 -2.09129 -2.45896 0
M  V30 3266 H 304.65 -3.74115 -0.688605 0
M  V30 3267 H 305.962 -4.86113 -1.11784 0
M  V30 3268 H 305.116 -4.97619 -3.47074 0
M  V30 3269 H 303.855 -3.76749 -3.09696 0
M  V30 3270 H 302.86 -5.31879 -1.3923 0
M  V30 3271 H 304.085 -6.55033 -1.79189 0
M  V30 3272 H 302.031 -5.40297 -3.72041 0
M  V30 3273 H 301.948 -6.95725 -2.9581 0
M  V30 3274 H 303.216 -6.62898 -4.10106 0
M  V30 3275 N 307.445 0.0818655 -1.57387 0
M  V30 3276 C 308.693 0.781368 -1.86384 0
M  V30 3277 C 309.014 1.78618 -0.782342 0
M  V30 3278 O 308.284 1.94976 0.190061 0
M  V30 3279 H 306.864 0.291562 -0.687751 0
M  V30 3280 H 309.526 0.060348 -1.94807 0
M  V30 3281 H 308.622 1.3038 -2.83562 0
M  V30 3282 N 308.923 1.53595 0.353017 0
M  V30 3283 C 309.856 1.7572 1.45594 0
M  V30 3284 C 310.834 0.605961 1.50887 0
M  V30 3285 O 312.018 0.840023 1.68748 0
M  V30 3286 C 309.145 1.84732 2.83887 0
M  V30 3287 C 308.191 3.06808 2.96262 0
M  V30 3288 S 309.024 4.66065 2.63711 0
M  V30 3289 C 310.18 4.77943 4.04131 0
M  V30 3290 H 310.413 2.68994 1.26608 0
M  V30 3291 H 307.946 1.44343 0.548117 0
M  V30 3292 H 309.904 1.9061 3.63563 0
M  V30 3293 H 308.565 0.92488 3.00175 0
M  V30 3294 H 307.758 3.09761 3.97573 0
M  V30 3295 H 307.36 2.99108 2.24523 0
M  V30 3296 H 309.652 4.5877 4.98534 0
M  V30 3297 H 310.595 5.80022 4.06177 0
M  V30 3298 H 311.003 4.06472 3.91715 0
M  V30 3299 N 310.401 -0.613514 1.45168 0
M  V30 3300 C 311.678 -1.37263 1.39349 0
M  V30 3301 C 312.058 -2.11012 0.0610848 0
M  V30 3302 O 311.406 -2.07502 -0.956825 0
M  V30 3303 C 311.616 -2.3244 2.60332 0
M  V30 3304 C 312.964 -2.9523 3.05163 0
M  V30 3305 O 313.988 -2.42762 2.60663 0
M  V30 3306 O 312.847 -3.90454 3.82372 0
M  V30 3307 H 309.941 -0.615188 0.552696 0
M  V30 3308 H 312.487 -0.637097 1.57287 0
M  V30 3309 H 311.259 -1.77164 3.48896 0
M  V30 3310 H 310.882 -3.13383 2.44698 0
M  V30 3311 N 311.879 -1.3236 -0.855495 0
M  V30 3312 C 312.826 -1.21225 -1.964 0
M  V30 3313 C 313.796 -0.0946204 -1.6583 0
M  V30 3314 O 314.981 -0.27002 -1.8888 0
M  V30 3315 C 312.121 -0.940419 -3.32039 0
M  V30 3316 C 311.234 -2.14276 -3.75113 0
M  V30 3317 C 310.369 -1.80648 -4.9954 0
M  V30 3318 C 309.408 -2.97208 -5.35102 0
M  V30 3319 N 308.545 -2.63678 -6.50706 0
M  V30 3320 H 313.385 -2.16042 -2.05255 0
M  V30 3321 H 310.922 -1.07451 -1.00463 0
M  V30 3322 H 312.88 -0.763311 -4.10158 0
M  V30 3323 H 311.51 -0.0290413 -3.22787 0
M  V30 3324 H 310.562 -2.43017 -2.92655 0
M  V30 3325 H 311.874 -3.01468 -3.97389 0
M  V30 3326 H 311.028 -1.59484 -5.85363 0
M  V30 3327 H 309.767 -0.906678 -4.79198 0
M  V30 3328 H 308.772 -3.19004 -4.47791 0
M  V30 3329 H 309.997 -3.87918 -5.57401 0
M  V30 3330 H 307.943 -1.76238 -6.31883 0
M  V30 3331 H 307.86 -3.444 -6.72997 0
M  V30 3332 H 309.128 -2.45942 -7.39684 0
M  V30 3333 N 313.357 1.07166 -1.15556 0
M  V30 3334 C 314.587 1.83248 -0.954133 0
M  V30 3335 C 314.995 1.82449 0.500911 0
M  V30 3336 O 314.338 1.23575 1.35923 0
M  V30 3337 C 314.4 3.31393 -1.39351 0
M  V30 3338 C 314.064 3.5591 -2.86666 0
M  V30 3339 C 315.061 3.49695 -3.8472 0
M  V30 3340 C 312.746 3.83515 -3.24379 0
M  V30 3341 C 314.74 3.70737 -5.18491 0
M  V30 3342 C 312.427 4.04209 -4.58321 0
M  V30 3343 C 313.425 3.97815 -5.55186 0
M  V30 3344 O 313.113 4.17954 -6.86709 0
M  V30 3345 H 312.845 0.584941 -0.338851 0
M  V30 3346 H 315.399 1.36169 -1.53777 0
M  V30 3347 H 313.629 3.79292 -0.75329 0
M  V30 3348 H 315.318 3.88945 -1.16089 0
M  V30 3349 H 316.084 3.28368 -3.56931 0
M  V30 3350 H 311.963 3.87605 -2.49567 0
M  V30 3351 H 315.507 3.65663 -5.94085 0
M  V30 3352 H 311.404 4.25023 -4.85825 0
M  V30 3353 H 312.172 4.35291 -6.93155 0
M  V30 3354 N 314.835 0.952656 1.25548 0
M  V30 3355 C 316.084 0.602053 1.92505 0
M  V30 3356 C 316.397 -0.864663 1.75451 0
M  V30 3357 O 317.603 -1.32514 2.36965 0
M  V30 3358 C 316.059 1.02607 3.44963 0
M  V30 3359 C 315.667 2.51519 3.70732 0
M  V30 3360 C 317.411 0.747905 4.1786 0
M  V30 3361 C 315.318 2.87732 5.16686 0
M  V30 3362 H 314.248 0.22146 0.720744 0
M  V30 3363 H 316.899 1.15684 1.42441 0
M  V30 3364 H 315.281 0.399712 3.93978 0
M  V30 3365 H 316.455 3.19157 3.32378 0
M  V30 3366 H 314.77 2.76786 3.11092 0
M  V30 3367 H 317.367 0.994647 5.25367 0
M  V30 3368 H 317.71 -0.315629 4.15102 0
M  V30 3369 H 318.243 1.33452 3.74747 0
M  V30 3370 H 314.982 3.93095 5.24554 0
M  V30 3371 H 314.502 2.24765 5.56094 0
M  V30 3372 H 316.181 2.76817 5.84792 0
M  V30 3373 N 316.313 -1.40141 0.720998 0
M  V30 3374 C 317.276 -2.29058 0.0805834 0
M  V30 3375 C 318.276 -1.45632 -0.681758 0
M  V30 3376 O 319.466 -1.6648 -0.512856 0
M  V30 3377 C 316.598 -3.28925 -0.895593 0
M  V30 3378 H 317.791 -2.87191 0.863793 0
M  V30 3379 H 315.344 -1.48553 0.485975 0
M  V30 3380 H 316.079 -2.75822 -1.70566 0
M  V30 3381 H 315.864 -3.90519 -0.351766 0
M  V30 3382 H 317.354 -3.95494 -1.34069 0
M  V30 3383 N 317.792 -0.46758 -1.50504 0
M  V30 3384 C 318.739 0.328413 -2.28452 0
M  V30 3385 C 319.709 0.990313 -1.33349 0
M  V30 3386 O 320.894 1.00343 -1.62284 0
M  V30 3387 C 318.034 1.40648 -3.15138 0
M  V30 3388 C 317.147 0.759709 -4.25267 0
M  V30 3389 C 316.282 1.81537 -4.99217 0
M  V30 3390 C 315.321 1.14866 -6.01226 0
M  V30 3391 N 314.458 2.14702 -6.68467 0
M  V30 3392 H 319.298 -0.342603 -2.96024 0
M  V30 3393 H 316.835 -0.180801 -1.45985 0
M  V30 3394 H 318.793 2.04315 -3.63746 0
M  V30 3395 H 317.423 2.04671 -2.49619 0
M  V30 3396 H 316.475 0.0105671 -3.80399 0
M  V30 3397 H 317.787 0.233243 -4.98254 0
M  V30 3398 H 316.941 2.52793 -5.51526 0
M  V30 3399 H 315.68 2.37564 -4.25928 0
M  V30 3400 H 314.685 0.42171 -5.4818 0
M  V30 3401 H 315.91 0.595334 -6.76485 0
M  V30 3402 H 313.856 2.69752 -5.97972 0
M  V30 3403 H 313.773 1.6703 -7.37317 0
M  V30 3404 H 315.041 2.85348 -7.25394 0
M  V30 3405 N 319.27 1.56325 -0.20005 0
M  V30 3406 C 320.518 1.97329 0.436547 0
M  V30 3407 C 320.839 1.08826 1.61808 0
M  V30 3408 O 320.109 0.160604 1.95241 0
M  V30 3409 H 318.689 0.728714 0.164272 0
M  V30 3410 H 321.351 1.92761 -0.287937 0
M  V30 3411 H 320.447 3.02264 0.777353 0
M  V30 3412 N 320.748 -0.0735177 1.57428 0
M  V30 3413 C 321.997 -0.771809 1.86349 0
M  V30 3414 C 322.31 -1.78828 0.792452 0
M  V30 3415 O 323.516 -2.53602 0.96945 0
M  V30 3416 C 321.972 -1.42358 3.30548 0
M  V30 3417 C 321.58 -0.445761 4.45777 0
M  V30 3418 C 323.324 -2.10434 3.6867 0
M  V30 3419 C 321.231 -1.10335 5.81016 0
M  V30 3420 H 320.161 -0.291999 0.695164 0
M  V30 3421 H 322.812 -0.0250749 1.83483 0
M  V30 3422 H 321.194 -2.21852 3.28021 0
M  V30 3423 H 322.368 0.319239 4.59693 0
M  V30 3424 H 320.683 0.130457 4.16196 0
M  V30 3425 H 323.28 -2.60405 4.67004 0
M  V30 3426 H 323.623 -2.90298 2.98383 0
M  V30 3427 H 324.156 -1.37773 3.7318 0
M  V30 3428 H 320.895 -0.345061 6.54591 0
M  V30 3429 H 320.415 -1.83925 5.70904 0
M  V30 3430 H 322.094 -1.62367 6.26295 0
M  V30 3431 N 322.226 -1.5378 -0.344866 0
M  V30 3432 C 323.136 -1.84667 -1.4469 0
M  V30 3433 C 324.152 -0.736704 -1.57635 0
M  V30 3434 O 325.328 -1.02888 -1.73136 0
M  V30 3435 C 322.393 -2.04869 -2.79696 0
M  V30 3436 C 321.454 -3.28731 -2.76106 0
M  V30 3437 C 320.687 -3.4796 -4.04673 0
M  V30 3438 O 320.91 -2.71052 -5.01883 0
M  V30 3439 O 319.844 -4.41383 -4.09224 0
M  V30 3440 H 323.67 -2.78334 -1.21506 0
M  V30 3441 H 321.255 -1.39418 -0.536921 0
M  V30 3442 H 323.137 -2.19609 -3.59652 0
M  V30 3443 H 321.812 -1.14391 -3.02814 0
M  V30 3444 H 320.719 -3.19396 -1.94774 0
M  V30 3445 H 322.052 -4.19198 -2.57941 0
M  V30 3446 N 323.704 0.605807 -1.45491 0
M  V30 3447 C 324.932 1.39136 -1.5313 0
M  V30 3448 C 325.347 1.88082 -0.164507 0
M  V30 3449 O 324.704 1.62316 0.834247 0
M  V30 3450 C 324.755 2.59463 -2.51716 0
M  V30 3451 O 324.476 2.12551 -3.83084 0
M  V30 3452 C 325.977 3.52301 -2.6907 0
M  V30 3453 H 323.197 0.425849 -0.51855 0
M  V30 3454 H 325.741 0.73865 -1.90694 0
M  V30 3455 H 323.896 3.20772 -2.17219 0
M  V30 3456 H 324.31 2.90744 -4.36541 0
M  V30 3457 H 325.784 4.33271 -3.42024 0
M  V30 3458 H 326.261 4.02757 -1.75167 0
M  V30 3459 H 326.867 2.96845 -3.04571 0
M  V30 3460 N 325.182 1.32811 0.848464 0
M  V30 3461 C 326.129 1.22265 1.95755 0
M  V30 3462 C 327.099 0.103413 1.65778 0
M  V30 3463 O 328.284 0.280033 1.88734 0
M  V30 3464 C 325.424 0.958014 3.31536 0
M  V30 3465 C 324.537 2.16262 3.73971 0
M  V30 3466 C 323.672 1.83295 4.98575 0
M  V30 3467 C 322.711 3.00041 5.33518 0
M  V30 3468 N 321.848 2.67125 6.49299 0
M  V30 3469 H 326.688 2.17128 2.04107 0
M  V30 3470 H 324.225 1.07982 0.998913 0
M  V30 3471 H 326.183 0.785052 4.09747 0
M  V30 3472 H 324.813 0.046159 3.22767 0
M  V30 3473 H 323.865 2.44565 2.91362 0
M  V30 3474 H 325.177 3.03572 3.95785 0
M  V30 3475 H 324.331 1.62586 5.84509 0
M  V30 3476 H 323.07 0.932078 4.7871 0
M  V30 3477 H 322.075 3.21374 4.46093 0
M  V30 3478 H 323.3 3.90869 5.55336 0
M  V30 3479 H 321.246 1.79586 6.3094 0
M  V30 3480 H 321.163 3.47965 6.71161 0
M  V30 3481 H 322.431 2.49861 7.3837 0
M  V30 3482 N 326.66 -1.06551 1.16123 0
M  V30 3483 C 327.59 -2.15935 0.88851 0
M  V30 3484 C 328.571 -1.69306 -0.164135 0
M  V30 3485 O 329.756 -1.94193 -0.0167857 0
M  V30 3486 C 326.886 -3.45149 0.385942 0
M  V30 3487 C 325.84 -4.05271 1.3762 0
M  V30 3488 C 325.166 -5.29664 0.732137 0
M  V30 3489 C 326.466 -4.44355 2.74493 0
M  V30 3490 H 328.16 -2.39006 1.80323 0
M  V30 3491 H 325.706 -1.14866 0.868435 0
M  V30 3492 H 327.659 -4.21004 0.182647 0
M  V30 3493 H 326.383 -3.21689 -0.564274 0
M  V30 3494 H 325.042 -3.3147 1.56599 0
M  V30 3495 H 324.69 -5.02499 -0.224483 0
M  V30 3496 H 324.39 -5.70848 1.39307 0
M  V30 3497 H 325.914 -6.08218 0.538802 0
M  V30 3498 H 327.328 -5.11303 2.59311 0
M  V30 3499 H 325.725 -4.96515 3.37035 0
M  V30 3500 H 326.795 -3.55339 3.29943 0
M  V30 3501 N 328.138 -0.959301 -1.25041 0
M  V30 3502 C 329.415 -0.533805 -1.88175 0
M  V30 3503 C 329.795 0.988994 -1.865 0
M  V30 3504 O 329.143 1.85677 -1.33177 0
M  V30 3505 C 329.353 -1.11575 -3.30684 0
M  V30 3506 C 330.701 -1.19548 -4.07423 0
M  V30 3507 O 331.725 -1.06765 -3.39823 0
M  V30 3508 O 330.584 -1.39656 -5.28354 0
M  V30 3509 H 327.678 -0.176772 -0.807887 0
M  V30 3510 H 330.224 -1.05303 -1.33076 0
M  V30 3511 H 328.996 -2.15884 -3.26358 0
M  V30 3512 H 328.619 -0.580059 -3.93346 0
M  V30 3513 N 329.616 1.39756 -0.72842 0
M  V30 3514 C 330.865 1.99879 -0.270407 0
M  V30 3515 C 331.178 1.58449 1.14688 0
M  V30 3516 O 332.384 2.11362 1.70407 0
M  V30 3517 C 330.84 3.57292 -0.43252 0
M  V30 3518 C 330.448 4.07688 -1.85727 0
M  V30 3519 C 332.192 4.24485 -0.0359507 0
M  V30 3520 C 330.099 5.5765 -1.96928 0
M  V30 3521 H 329.029 0.747689 -0.0973472 0
M  V30 3522 H 331.68 1.59837 -0.901355 0
M  V30 3523 H 330.062 3.95097 0.267219 0
M  V30 3524 H 331.236 3.81231 -2.58843 0
M  V30 3525 H 329.551 3.53135 -2.20646 0
M  V30 3526 H 332.148 5.34609 -0.0987484 0
M  V30 3527 H 332.491 4.03915 1.00787 0
M  V30 3528 H 333.024 3.9183 -0.686604 0
M  V30 3529 H 329.763 5.8309 -2.99476 0
M  V30 3530 H 329.283 5.8593 -1.28241 0
M  V30 3531 H 330.962 6.22957 -1.74737 0
M  V30 3532 N 331.094 0.475555 1.50254 0
M  V30 3533 C 332.34 -0.0780073 2.0265 0
M  V30 3534 C 332.673 -1.38968 1.35652 0
M  V30 3535 O 331.948 -1.8839 0.483691 0
M  V30 3536 C 332.231 -0.257161 3.59181 0
M  V30 3537 C 332.084 1.07585 4.36744 0
M  V30 3538 C 333.403 -1.00965 4.28362 0
M  V30 3539 H 330.522 -0.0268758 0.73651 0
M  V30 3540 H 333.164 0.622015 1.7953 0
M  V30 3541 H 331.314 -0.853412 3.79011 0
M  V30 3542 H 332.986 1.70902 4.28474 0
M  V30 3543 H 331.229 1.6714 4.00308 0
M  V30 3544 H 331.9 0.904088 5.44546 0
M  V30 3545 H 334.376 -0.504214 4.13034 0
M  V30 3546 H 333.252 -1.10381 5.37687 0
M  V30 3547 H 333.513 -2.04731 3.91839 0
M  V30 3548 N 332.573 -1.56217 0.208337 0
M  V30 3549 C 333.819 -1.98242 -0.427552 0
M  V30 3550 C 334.152 -1.09554 -1.60348 0
M  V30 3551 O 333.427 -0.15035 -1.93918 0
M  V30 3552 C 333.71 -3.4931 -0.874907 0
M  V30 3553 C 333.563 -4.48773 0.303751 0
M  V30 3554 C 334.882 -4.04424 -1.73577 0
M  V30 3555 H 332.001 -0.720744 -0.153936 0
M  V30 3556 H 334.643 -1.87586 0.30192 0
M  V30 3557 H 332.793 -3.58522 -1.49648 0
M  V30 3558 H 334.465 -4.51586 0.941682 0
M  V30 3559 H 332.708 -4.23194 0.953375 0
M  V30 3560 H 333.379 -5.51976 -0.0519883 0
M  V30 3561 H 335.855 -3.98075 -1.21143 0
M  V30 3562 H 334.731 -5.1047 -2.01771 0
M  V30 3563 H 334.992 -3.50494 -2.69456 0
M  V30 3564 N 334.051 0.0651679 -1.57465 0
M  V30 3565 C 335.014 1.06117 -2.03155 0
M  V30 3566 C 336.014 1.31204 -0.929632 0
M  V30 3567 O 337.204 1.26813 -1.19432 0
M  V30 3568 C 334.336 2.4032 -2.41783 0
M  V30 3569 H 335.529 0.667231 -2.92383 0
M  V30 3570 H 333.082 0.311075 -1.53173 0
M  V30 3571 H 333.817 2.84532 -1.55601 0
M  V30 3572 H 333.602 2.23451 -3.22199 0
M  V30 3573 H 335.092 3.11898 -2.77685 0
M  V30 3574 N 335.529 1.53961 0.336706 0
M  V30 3575 C 336.806 1.62171 1.09361 0
M  V30 3576 C 337.186 0.447263 2.06307 0
M  V30 3577 O 336.534 -0.559802 2.21537 0
M  V30 3578 C 336.744 2.98565 1.80721 0
M  V30 3579 C 338.092 3.54157 2.34218 0
M  V30 3580 O 339.116 3.00784 1.90807 0
M  V30 3581 O 337.975 4.47528 3.13657 0
M  V30 3582 H 335.069 0.6562 0.503319 0
M  V30 3583 H 337.615 1.66307 0.33765 0
M  V30 3584 H 336.387 3.75482 1.10132 0
M  V30 3585 H 336.01 2.9805 2.63158 0
M  V30 3586 N 337.007 -0.598083 1.45811 0
M  V30 3587 C 337.917 -1.73632 1.57763 0
M  V30 3588 C 338.933 -1.67763 0.461676 0
M  V30 3589 O 340.109 -1.87949 0.723685 0
M  V30 3590 C 337.174 -3.10114 1.55018 0
M  V30 3591 C 336.235 -3.27364 2.77726 0
M  V30 3592 C 335.468 -4.57334 2.75102 0
M  V30 3593 O 335.691 -5.40258 1.8297 0
M  V30 3594 O 334.625 -4.77502 3.66437 0
M  V30 3595 H 338.451 -1.66498 2.53992 0
M  V30 3596 H 336.036 -0.763308 1.28429 0
M  V30 3597 H 337.918 -3.9141 1.56129 0
M  V30 3598 H 336.593 -3.17718 0.619431 0
M  V30 3599 H 335.5 -2.45619 2.82174 0
M  V30 3600 H 336.833 -3.24641 3.69958 0
M  V30 3601 N 338.485 -1.33259 -0.841409 0
M  V30 3602 C 339.432 -1.23302 -1.95103 0
M  V30 3603 C 340.402 -0.112204 -1.65721 0
M  V30 3604 O 341.587 -0.290038 -1.88583 0
M  V30 3605 C 338.727 -0.975583 -3.31023 0
M  V30 3606 C 337.84 -2.18243 -3.72819 0
M  V30 3607 C 336.975 -1.85936 -4.97595 0
M  V30 3608 C 336.014 -3.02866 -5.3192 0
M  V30 3609 N 335.151 -2.70565 -6.47873 0
M  V30 3610 H 339.991 -2.18207 -2.02952 0
M  V30 3611 H 337.528 -1.0851 -0.993173 0
M  V30 3612 H 339.486 -0.80677 -4.09325 0
M  V30 3613 H 338.116 -0.0632755 -3.22738 0
M  V30 3614 H 337.168 -2.46107 -2.90061 0
M  V30 3615 H 338.48 -3.05666 -3.94169 0
M  V30 3616 H 337.634 -1.65684 -5.83638 0
M  V30 3617 H 336.373 -0.957452 -4.78209 0
M  V30 3618 H 335.378 -3.23736 -4.44382 0
M  V30 3619 H 336.603 -3.93809 -5.53255 0
M  V30 3620 H 334.549 -1.8293 -6.29978 0
M  V30 3621 H 334.466 -3.51519 -6.69306 0
M  V30 3622 H 335.734 -2.53774 -7.37034 0
M  V30 3623 N 339.963 1.05934 -1.16686 0
M  V30 3624 C 340.873 2.17014 -0.891183 0
M  V30 3625 C 341.889 1.73453 0.137907 0
M  V30 3626 O 343.065 2.01361 -0.039592 0
M  V30 3627 C 340.13 3.44384 -0.400099 0
M  V30 3628 C 339.191 4.02433 -1.49486 0
M  V30 3629 C 338.424 5.23723 -1.02711 0
M  V30 3630 O 338.647 5.7027 0.121716 0
M  V30 3631 O 337.581 5.7382 -1.81699 0
M  V30 3632 H 341.407 2.43113 -1.82015 0
M  V30 3633 H 338.992 1.15541 -0.947132 0
M  V30 3634 H 340.874 4.21189 -0.133392 0
M  V30 3635 H 339.549 3.19802 0.500817 0
M  V30 3636 H 338.456 3.27102 -1.81535 0
M  V30 3637 H 339.789 4.31317 -2.37121 0
M  V30 3638 N 341.441 0.965919 1.2453 0
M  V30 3639 C 342.373 0.452465 2.2469 0
M  V30 3640 C 343.386 -0.437821 1.56802 0
M  V30 3641 O 344.575 -0.244283 1.76821 0
M  V30 3642 C 341.675 -0.366258 3.36915 0
M  V30 3643 C 340.848 0.513701 4.34373 0
M  V30 3644 C 339.907 -0.248716 5.25612 0
M  V30 3645 O 338.933 0.356745 5.68081 0
M  V30 3646 N 340.135 -1.53877 5.59734 0
M  V30 3647 H 342.9 1.31361 2.69378 0
M  V30 3648 H 340.461 0.837541 1.38553 0
M  V30 3649 H 342.453 -0.884297 3.94921 0
M  V30 3650 H 341.023 -1.12832 2.91526 0
M  V30 3651 H 340.243 1.21273 3.75082 0
M  V30 3652 H 341.531 1.11391 4.96457 0
M  V30 3653 H 340.929 -2.05243 5.27154 0
M  V30 3654 H 339.486 -2.00254 6.20275 0
M  V30 3655 N 342.919 -1.39368 0.735821 0
M  V30 3656 C 344.167 -2.00101 0.283562 0
M  V30 3657 C 344.488 -1.5868 -1.13338 0
M  V30 3658 O 343.758 -0.835423 -1.77193 0
M  V30 3659 H 342.338 -0.740024 0.101851 0
M  V30 3660 H 345 -1.70404 0.945962 0
M  V30 3661 H 344.096 -3.10323 0.332604 0
M  V30 3662 N 344.397 -0.483516 -1.5 0
M  V30 3663 C 345.643 0.0672592 -2.02688 0
M  V30 3664 C 345.976 1.38247 -1.36387 0
M  V30 3665 O 345.251 1.88131 -0.493675 0
M  V30 3666 C 345.534 0.238109 -3.59312 0
M  V30 3667 C 345.387 -1.099 -4.36168 0
M  V30 3668 C 346.706 0.986916 -4.28892 0
M  V30 3669 H 343.825 0.0229696 -0.736642 0
M  V30 3670 H 346.467 -0.631527 -1.79197 0
M  V30 3671 H 344.617 0.8333 -3.79458 0
M  V30 3672 H 346.289 -1.73172 -4.27562 0
M  V30 3673 H 344.532 -1.69261 -3.99416 0
M  V30 3674 H 345.203 -0.932954 -5.44059 0
M  V30 3675 H 347.679 0.482302 -4.13295 0
M  V30 3676 H 346.555 1.07527 -5.38265 0
M  V30 3677 H 346.816 2.0265 -3.92919 0
M  V30 3678 N 345.875 1.56104 -0.216619 0
M  V30 3679 C 347.291 1.58995 0.13886 0
M  V30 3680 C 347.491 1.23333 1.59346 0
M  V30 3681 O 346.547 0.966234 2.33281 0
M  V30 3682 C 347.86 3.00143 -0.182968 0
M  V30 3683 C 349.408 3.12751 -0.124807 0
M  V30 3684 C 349.883 4.56068 -0.420241 0
M  V30 3685 N 351.374 4.61723 -0.369634 0
M  V30 3686 C 352.109 5.70542 -0.571789 0
M  V30 3687 N 351.605 6.87744 -0.835453 0
M  V30 3688 N 353.398 5.59831 -0.504563 0
M  V30 3689 H 345.549 1.77562 -1.16557 0
M  V30 3690 H 347.812 0.825091 -0.466828 0
M  V30 3691 H 347.518 3.30871 -1.19237 0
M  V30 3692 H 347.392 3.73813 0.504367 0
M  V30 3693 H 349.779 2.81822 0.875223 0
M  V30 3694 H 349.86 2.41421 -0.845544 0
M  V30 3695 H 349.504 4.87713 -1.41769 0
M  V30 3696 H 349.434 5.25617 0.321631 0
M  V30 3697 H 351.925 3.77502 -0.173338 0
M  V30 3698 H 352.238 7.66587 -0.977938 0
M  V30 3699 H 350.583 6.895 -0.872592 0
M  V30 3700 H 353.774 4.67145 -0.298842 0
M  V30 3701 H 353.947 6.44573 -0.665519 0
M  V30 3702 N 347.353 -0.0568162 1.57498 0
M  V30 3703 C 348.3 -1.06591 2.04712 0
M  V30 3704 C 349.27 -1.3758 0.930644 0
M  V30 3705 O 350.455 -1.48392 1.19935 0
M  V30 3706 C 347.595 -2.3701 2.50839 0
M  V30 3707 C 346.708 -2.12421 3.76167 0
M  V30 3708 C 345.843 -3.36511 4.11015 0
M  V30 3709 C 344.882 -3.07353 5.2934 0
M  V30 3710 N 344.019 -4.23816 5.59754 0
M  V30 3711 H 348.859 -0.65631 2.90683 0
M  V30 3712 H 346.396 -0.312481 1.43743 0
M  V30 3713 H 348.354 -3.13175 2.7564 0
M  V30 3714 H 346.984 -2.75744 1.67825 0
M  V30 3715 H 346.036 -1.2688 3.58616 0
M  V30 3716 H 347.348 -1.86894 4.62463 0
M  V30 3717 H 346.502 -4.21062 4.36797 0
M  V30 3718 H 345.241 -3.65128 3.23315 0
M  V30 3719 H 344.246 -2.212 5.03339 0
M  V30 3720 H 345.471 -2.80043 6.1867 0
M  V30 3721 H 343.417 -4.52436 4.75014 0
M  V30 3722 H 343.334 -4.01614 6.40501 0
M  V30 3723 H 344.602 -5.0932 5.90096 0
M  V30 3724 N 348.832 -1.54138 -0.328536 0
M  V30 3725 C 350.079 -1.72105 -1.06706 0
M  V30 3726 C 350.407 -0.492111 -1.88171 0
M  V30 3727 O 349.662 0.526153 -1.88494 0
M  V30 3728 C 349.961 -2.9457 -2.02393 0
M  V30 3729 C 349.627 -4.29544 -1.37122 0
M  V30 3730 C 348.289 -4.6624 -1.19052 0
M  V30 3731 C 350.641 -5.1333 -0.902331 0
M  V30 3732 C 347.969 -5.84325 -0.527331 0
M  V30 3733 C 350.321 -6.32094 -0.252988 0
M  V30 3734 C 348.985 -6.67473 -0.0600901 0
M  V30 3735 H 348.255 -0.629775 -0.390466 0
M  V30 3736 H 350.902 -1.88372 -0.34473 0
M  V30 3737 H 349.207 -2.72969 -2.81061 0
M  V30 3738 H 350.904 -3.05665 -2.59557 0
M  V30 3739 H 347.494 -4.0067 -1.52188 0
M  V30 3740 H 351.678 -4.855 -1.02974 0
M  V30 3741 H 346.934 -6.103 -0.366634 0
M  V30 3742 H 351.108 -6.96299 0.118366 0
M  V30 3743 H 348.735 -7.58832 0.455828 0
M  V30 3744 N 350.31 0.590341 -1.46126 0
M  V30 3745 C 351.24 1.71032 -1.58966 0
M  V30 3746 C 352.221 1.64302 -0.440335 0
M  V30 3747 O 353.406 1.82436 -0.665634 0
M  V30 3748 C 350.536 3.09665 -1.57241 0
M  V30 3749 C 349.49 3.31221 -2.71066 0
M  V30 3750 C 348.816 4.70303 -2.54399 0
M  V30 3751 C 350.116 3.19796 -4.1295 0
M  V30 3752 H 351.81 1.60543 -2.52718 0
M  V30 3753 H 349.356 0.770933 -1.21625 0
M  V30 3754 H 351.309 3.87831 -1.64819 0
M  V30 3755 H 350.033 3.21036 -0.600289 0
M  V30 3756 H 348.692 2.55452 -2.62944 0
M  V30 3757 H 348.34 4.78429 -1.55288 0
M  V30 3758 H 348.04 4.85679 -3.30741 0
M  V30 3759 H 349.564 5.50647 -2.63857 0
M  V30 3760 H 350.978 3.87815 -4.22223 0
M  V30 3761 H 349.375 3.46696 -4.89818 0
M  V30 3762 H 350.445 2.16983 -4.33643 0
M  V30 3763 N 351.788 1.33704 0.83433 0
M  V30 3764 C 352.736 1.24323 1.96587 0
M  V30 3765 C 353.73 0.143659 1.6879 0
M  V30 3766 O 354.936 0.30791 1.77347 0
M  V30 3767 H 351.311 0.385925 0.645419 0
M  V30 3768 H 353.282 2.19978 2.01624 0
M  V30 3769 C 352.031 1.00394 3.32891 0
M  V30 3770 H 351.354 1.84231 3.54822 0
M  V30 3771 H 352.794 0.97862 4.12552 0
M  V30 3772 C 351.253 -0.293047 3.35623 0
M  V30 3773 O 351.783 -1.29823 3.80143 0
M  V30 3774 N 349.989 -0.322174 2.88809 0
M  V30 3775 H 349.536 0.496379 2.52772 0
M  V30 3776 H 349.494 -1.18977 2.91019 0
M  V30 3777 N 353.266 -1.05314 1.17247 0
M  V30 3778 C 354.196 -2.1498 0.911362 0
M  V30 3779 C 355.177 -1.69471 -0.146169 0
M  V30 3780 O 356.362 -1.942 0.003812 0
M  V30 3781 C 353.492 -3.4472 0.422528 0
M  V30 3782 C 352.446 -4.03789 1.4191 0
M  V30 3783 C 351.772 -5.28858 0.788274 0
M  V30 3784 C 353.072 -4.41418 2.7919 0
M  V30 3785 H 354.766 -2.3708 1.82848 0
M  V30 3786 H 352.312 -1.13938 0.880569 0
M  V30 3787 H 354.265 -4.20787 0.227289 0
M  V30 3788 H 352.989 -3.22269 -0.530123 0
M  V30 3789 H 351.648 -3.2979 1.60106 0
M  V30 3790 H 351.296 -5.02709 -0.171173 0
M  V30 3791 H 350.996 -5.69338 1.45353 0
M  V30 3792 H 352.52 -6.07612 0.603282 0
M  V30 3793 H 353.934 -5.08524 2.64719 0
M  V30 3794 H 352.331 -4.92913 3.42282 0
M  V30 3795 H 353.401 -3.51819 3.33693 0
M  V30 3796 N 354.744 -0.972509 -1.24016 0
M  V30 3797 C 355.992 -0.635776 -1.91839 0
M  V30 3798 C 356.313 0.832312 -1.76345 0
M  V30 3799 O 355.583 1.5946 -1.13795 0
M  V30 3800 H 354.163 -0.232157 -0.710009 0
M  V30 3801 H 356.825 -1.23462 -1.50809 0
M  V30 3802 H 355.921 -0.880545 -2.99421 0
M  V30 3803 N 356.222 1.38976 -0.743202 0
M  V30 3804 C 357.172 2.27843 -0.084513 0
M  V30 3805 C 358.156 1.44677 0.704094 0
M  V30 3806 O 359.348 1.67511 0.571755 0
M  V30 3807 C 356.477 3.33466 0.815781 0
M  V30 3808 C 355.563 4.24095 0.0208844 0
M  V30 3809 N 355.954 4.95609 -1.0102 0
M  V30 3810 C 354.252 4.45303 0.249293 0
M  V30 3811 C 354.953 5.62287 -1.49024 0
M  V30 3812 N 353.929 5.37571 -0.807377 0
M  V30 3813 H 357.731 2.80593 -0.87436 0
M  V30 3814 H 355.245 1.51755 -0.578283 0
M  V30 3815 H 357.242 3.96008 1.30321 0
M  V30 3816 H 355.902 2.82276 1.6047 0
M  V30 3817 H 356.913 4.98849 -1.39176 0
M  V30 3818 H 353.59 4.0504 1.01237 0
M  V30 3819 H 354.98 6.29519 -2.34853 0
M  V30 3820 N 357.7 0.491464 1.49741 0
M  V30 3821 C 358.928 -0.0535151 2.06831 0
M  V30 3822 C 359.343 -1.31683 1.35296 0
M  V30 3823 O 358.7 -1.77402 0.42836 0
M  V30 3824 C 358.751 -0.320835 3.60073 0
M  V30 3825 O 358.472 0.892394 4.28915 0
M  V30 3826 C 359.973 -0.910519 4.33848 0
M  V30 3827 H 357.193 0.0161909 0.670805 0
M  V30 3828 H 359.737 0.68609 1.92647 0
M  V30 3829 H 357.892 -1.0104 3.73991 0
M  V30 3830 H 358.306 0.649401 5.20464 0
M  V30 3831 H 359.78 -1.04721 5.41976 0
M  V30 3832 H 360.257 -1.90589 3.95692 0
M  V30 3833 H 360.863 -0.258712 4.24512 0
M  V30 3834 N 359.178 -1.55987 0.224894 0
M  V30 3835 C 360.425 -1.9839 -0.4059 0
M  V30 3836 C 360.753 -1.11261 -1.59535 0
M  V30 3837 O 360.008 -0.158314 -1.95059 0
M  V30 3838 C 360.307 -3.46394 -0.880106 0
M  V30 3839 C 359.973 -4.5046 0.19918 0
M  V30 3840 C 358.635 -4.7864 0.495661 0
M  V30 3841 C 360.987 -5.12855 0.928939 0
M  V30 3842 C 358.315 -5.66497 1.52636 0
M  V30 3843 C 360.667 -6.01828 1.949 0
M  V30 3844 C 359.331 -6.28351 2.25236 0
M  V30 3845 H 358.601 -0.725961 -0.148529 0
M  V30 3846 H 361.248 -1.88668 0.328113 0
M  V30 3847 H 359.553 -3.53337 -1.69294 0
M  V30 3848 H 361.25 -3.76577 -1.37808 0
M  V30 3849 H 357.84 -4.28579 -0.0420526 0
M  V30 3850 H 362.024 -4.9115 0.713129 0
M  V30 3851 H 357.28 -5.8531 1.76698 0
M  V30 3852 H 361.454 -6.49225 2.51951 0
M  V30 3853 H 359.081 -6.96226 3.05244 0
M  V30 3854 N 360.656 0.0484629 -1.57525 0
M  V30 3855 C 361.904 0.741657 -1.88 0
M  V30 3856 C 362.225 1.76918 -0.820054 0
M  V30 3857 O 361.495 1.95335 0.148661 0
M  V30 3858 H 360.075 0.276908 -0.69378 0
M  V30 3859 H 362.737 0.019013 -1.94891 0
M  V30 3860 H 361.833 1.24336 -2.86264 0
M  V30 3861 N 362.134 1.5431 0.320358 0
M  V30 3862 C 363.084 1.803 1.39556 0
M  V30 3863 C 364.068 0.659166 1.46778 0
M  V30 3864 O 365.26 0.91926 1.51257 0
M  V30 3865 C 362.389 2.03665 2.76361 0
M  V30 3866 C 361.475 3.24178 2.73439 0
M  V30 3867 N 361.866 4.4516 2.40137 0
M  V30 3868 C 360.164 3.25816 3.04565 0
M  V30 3869 C 360.865 5.27109 2.4603 0
M  V30 3870 N 359.841 4.64368 2.82601 0
M  V30 3871 H 363.643 2.71416 1.12742 0
M  V30 3872 H 361.157 1.53548 0.528856 0
M  V30 3873 H 363.154 2.20425 3.53862 0
M  V30 3874 H 361.814 1.13805 3.04103 0
M  V30 3875 H 362.825 4.72104 2.12927 0
M  V30 3876 H 359.502 2.46001 3.37328 0
M  V30 3877 H 360.892 6.33728 2.23246 0
M  V30 3878 N 363.613 -0.582584 1.46437 0
M  V30 3879 C 364.576 -1.67366 1.56592 0
M  V30 3880 C 365.576 -1.54575 0.443072 0
M  V30 3881 O 366.766 -1.59191 0.707381 0
M  V30 3882 C 363.898 -3.06791 1.48634 0
M  V30 3883 H 365.091 -1.5972 2.5383 0
M  V30 3884 H 362.644 -0.800432 1.34249 0
M  V30 3885 H 363.379 -3.19993 0.526763 0
M  V30 3886 H 363.164 -3.17484 2.30101 0
M  V30 3887 H 364.654 -3.86218 1.58826 0
M  V30 3888 N 365.091 -1.34144 -0.827227 0
M  V30 3889 C 366.337 -1.26446 -1.58554 0
M  V30 3890 C 366.67 0.1664 -1.93486 0
M  V30 3891 O 365.945 1.1107 -1.59667 0
M  V30 3892 C 366.228 -2.15111 -2.8879 0
M  V30 3893 C 366.081 -3.66712 -2.60465 0
M  V30 3894 C 367.4 -2.03311 -3.90324 0
M  V30 3895 H 364.519 -0.46067 -0.575284 0
M  V30 3896 H 367.161 -1.64356 -0.953269 0
M  V30 3897 H 365.311 -1.8291 -3.42748 0
M  V30 3898 H 366.983 -4.09259 -2.1285 0
M  V30 3899 H 365.226 -3.88014 -1.93978 0
M  V30 3900 H 365.897 -4.24112 -3.53317 0
M  V30 3901 H 368.373 -2.31574 -3.45706 0
M  V30 3902 H 367.249 -2.67582 -4.79261 0
M  V30 3903 H 367.51 -1.00879 -4.30437 0
M  V30 3904 N 366.569 1.04691 -1.17803 0
M  V30 3905 C 367.479 2.16057 -0.914151 0
M  V30 3906 C 368.495 1.73589 0.119503 0
M  V30 3907 O 369.671 2.01308 -0.0609468 0
M  V30 3908 C 366.736 3.4394 -0.436603 0
M  V30 3909 C 365.797 4.00825 -1.53746 0
M  V30 3910 C 365.03 5.22604 -1.0826 0
M  V30 3911 O 365.253 5.70367 0.0612244 0
M  V30 3912 O 364.187 5.7186 -1.87775 0
M  V30 3913 H 368.013 2.41169 -1.84584 0
M  V30 3914 H 365.598 1.1453 -0.959334 0
M  V30 3915 H 367.48 4.21024 -0.178057 0
M  V30 3916 H 366.155 3.20316 0.466869 0
M  V30 3917 H 365.062 3.25158 -1.84995 0
M  V30 3918 H 366.395 4.28778 -2.41683 0
M  V30 3919 N 368.047 0.979072 1.23499 0
M  V30 3920 C 369.277 0.664237 1.95631 0
M  V30 3921 C 369.685 -0.772653 1.72704 0
M  V30 3922 O 369.028 -1.53141 1.01457 0
M  V30 3923 C 369.09 0.873115 3.48736 0
M  V30 3924 C 368.754 2.29182 3.95379 0
M  V30 3925 C 369.751 3.2704 4.04155 0
M  V30 3926 C 367.436 2.62256 4.28401 0
M  V30 3927 C 369.43 4.56052 4.45304 0
M  V30 3928 C 367.117 3.91491 4.69231 0
M  V30 3929 C 368.115 4.88201 4.77649 0
M  V30 3930 O 367.803 6.15129 5.17563 0
M  V30 3931 H 367.535 0.245915 0.629684 0
M  V30 3932 H 370.089 1.3127 1.57979 0
M  V30 3933 H 368.319 0.167476 3.86337 0
M  V30 3934 H 370.008 0.555642 4.02079 0
M  V30 3935 H 370.774 3.02819 3.78848 0
M  V30 3936 H 366.653 1.87692 4.21061 0
M  V30 3937 H 370.197 5.31538 4.51789 0
M  V30 3938 H 366.094 4.15508 4.93987 0
M  V30 3939 H 366.862 6.18862 5.35679 0
M  V30 3940 N 369.525 -1.3858 0.750561 0
M  V30 3941 C 370.755 -2.04175 0.31564 0
M  V30 3942 C 371.163 -1.56726 -1.05989 0
M  V30 3943 O 370.506 -0.734225 -1.68389 0
M  V30 3944 C 370.568 -3.58585 0.256389 0
M  V30 3945 C 370.232 -4.29077 1.57296 0
M  V30 3946 C 371.229 -4.54656 2.52159 0
M  V30 3947 C 368.914 -4.67324 1.84156 0
M  V30 3948 C 370.908 -5.17512 3.72103 0
M  V30 3949 C 368.595 -5.29905 3.04374 0
M  V30 3950 C 369.593 -5.54933 3.98168 0
M  V30 3951 O 369.281 -6.16212 5.16273 0
M  V30 3952 H 369.013 -0.662742 0.133226 0
M  V30 3953 H 371.567 -1.78313 1.01948 0
M  V30 3954 H 369.797 -3.83406 -0.503677 0
M  V30 3955 H 371.486 -4.05628 -0.148612 0
M  V30 3956 H 372.252 -4.25539 2.32683 0
M  V30 3957 H 368.131 -4.47191 1.11988 0
M  V30 3958 H 371.675 -5.36963 4.45327 0
M  V30 3959 H 367.572 -5.58444 3.23745 0
M  V30 3960 H 368.34 -6.34701 5.16815 0
M  V30 3961 N 371.003 -0.499398 -1.49478 0
M  V30 3962 C 371.953 0.299103 -2.2603 0
M  V30 3963 C 372.937 0.936934 -1.30807 0
M  V30 3964 O 374.129 0.844798 -1.55538 0
M  V30 3965 C 371.258 1.36391 -3.15044 0
M  V30 3966 C 370.344 0.732398 -4.17728 0
M  V30 3967 N 370.735 -0.164028 -5.05534 0
M  V30 3968 C 369.033 0.993162 -4.34801 0
M  V30 3969 C 369.734 -0.525345 -5.79323 0
M  V30 3970 N 368.71 0.106348 -5.43496 0
M  V30 3971 H 372.512 -0.391003 -2.91287 0
M  V30 3972 H 370.026 -0.31537 -1.59308 0
M  V30 3973 H 372.023 1.94939 -3.68516 0
M  V30 3974 H 370.683 2.05571 -2.51338 0
M  V30 3975 H 371.694 -0.534736 -5.15132 0
M  V30 3976 H 368.371 1.67783 -3.82302 0
M  V30 3977 H 369.761 -1.25862 -6.60006 0
M  V30 3978 N 372.481 1.55866 -0.233164 0
M  V30 3979 C 373.428 2.20796 0.67215 0
M  V30 3980 C 374.398 1.16731 1.18166 0
M  V30 3981 O 375.583 1.45129 1.23864 0
M  V30 3982 C 372.723 2.90072 1.86955 0
M  V30 3983 C 371.836 4.08759 1.39786 0
M  V30 3984 C 370.971 4.65787 2.55374 0
M  V30 3985 C 370.01 5.76752 2.04998 0
M  V30 3986 N 369.147 6.28021 3.13901 0
M  V30 3987 H 373.987 2.9779 0.111749 0
M  V30 3988 H 371.524 1.47036 0.0434007 0
M  V30 3989 H 373.482 3.28428 2.57276 0
M  V30 3990 H 372.112 2.15575 2.40265 0
M  V30 3991 H 371.164 3.7581 0.589173 0
M  V30 3992 H 372.476 4.88906 0.98856 0
M  V30 3993 H 371.63 5.06646 3.33758 0
M  V30 3994 H 370.369 3.84828 2.99598 0
M  V30 3995 H 369.374 5.35383 1.25079 0
M  V30 3996 H 370.599 6.59553 1.61759 0
M  V30 3997 H 368.545 5.49971 3.57586 0
M  V30 3998 H 368.462 7.03323 2.7726 0
M  V30 3999 H 369.73 6.73538 3.92386 0
M  V30 4000 N 373.959 -0.0401083 1.57549 0
M  V30 4001 C 375.208 -0.732108 1.87944 0
M  V30 4002 C 375.521 -1.77107 0.830206 0
M  V30 4003 O 376.727 -2.51488 1.02302 0
M  V30 4004 C 375.183 -1.35315 3.33494 0
M  V30 4005 C 374.791 -0.351105 4.46622 0
M  V30 4006 C 376.535 -2.02566 3.73051 0
M  V30 4007 C 374.442 -0.979859 5.83226 0
M  V30 4008 H 373.372 -0.277188 0.701201 0
M  V30 4009 H 376.023 0.0138501 1.83495 0
M  V30 4010 H 374.405 -2.14844 3.32653 0
M  V30 4011 H 375.579 0.416674 4.58912 0
M  V30 4012 H 373.894 0.218708 4.15825 0
M  V30 4013 H 376.491 -2.50441 4.72423 0
M  V30 4014 H 376.834 -2.83904 3.04474 0
M  V30 4015 H 377.367 -1.29827 3.76018 0
M  V30 4016 H 374.106 -0.206135 6.55176 0
M  V30 4017 H 373.626 -1.71774 5.74677 0
M  V30 4018 H 375.305 -1.49046 6.29599 0
M  V30 4019 N 375.437 -1.54477 -0.31217 0
M  V30 4020 C 376.848 -1.64344 -0.885891 0
M  V30 4021 C 377.199 -0.54485 -1.88483 0
M  V30 4022 O 376.324 0.320387 -2.14015 0
M  V30 4023 C 376.919 -2.97908 -1.61357 0
M  V30 4024 C 375.478 -3.09933 -2.13585 0
M  V30 4025 C 374.625 -2.59971 -0.964897 0
M  V30 4026 H 377.576 -1.58448 -0.0894528 0
M  V30 4027 H 377.597 -2.88706 -2.47848 0
M  V30 4028 H 377.109 -3.77845 -0.886277 0
M  V30 4029 H 375.21 -2.34694 -2.89395 0
M  V30 4030 H 375.323 -4.15916 -2.37804 0
M  V30 4031 H 373.687 -2.16147 -1.34731 0
M  V30 4032 H 374.47 -3.42376 -0.251742 0
M  V30 4033 N 376.915 0.57481 -1.46744 0
M  V30 4034 C 377.865 1.67838 -1.54319 0
M  V30 4035 C 378.849 1.55759 -0.40346 0
M  V30 4036 O 380.041 1.6454 -0.652347 0
M  V30 4037 C 377.17 3.06624 -1.5439 0
M  V30 4038 C 376.256 3.23971 -2.73685 0
M  V30 4039 N 376.647 3.11447 -3.9854 0
M  V30 4040 C 374.945 3.5493 -2.70075 0
M  V30 4041 C 375.646 3.31011 -4.78337 0
M  V30 4042 N 374.622 3.56533 -4.10348 0
M  V30 4043 H 378.424 1.56698 -2.48642 0
M  V30 4044 H 375.938 0.779071 -1.42493 0
M  V30 4045 H 377.935 3.85839 -1.57905 0
M  V30 4046 H 376.595 3.1889 -0.611493 0
M  V30 4047 H 377.606 2.89145 -4.29669 0
M  V30 4048 H 374.283 3.73832 -1.85893 0
M  V30 4049 H 375.673 3.26445 -5.87268 0
M  V30 4050 N 378.394 1.34581 0.820102 0
M  V30 4051 C 379.642 1.26845 1.57336 0
M  V30 4052 C 379.963 -0.160667 1.94337 0
M  V30 4053 O 379.233 -1.09396 1.6251 0
M  V30 4054 H 377.813 0.466514 0.583415 0
M  V30 4055 H 380.475 1.68526 0.979027 0
M  V30 4056 H 379.571 1.87513 2.4949 0
M  V30 4057 N 379.872 -1.04064 1.18357 0
M  V30 4058 C 380.822 -2.10393 0.878561 0
M  V30 4059 C 381.806 -1.60183 -0.151713 0
M  V30 4060 O 382.998 -1.76923 0.0523303 0
M  V30 4061 C 380.127 -3.4089 0.406096 0
M  V30 4062 C 379.213 -3.97866 1.46844 0
M  V30 4063 N 379.604 -4.28657 2.68489 0
M  V30 4064 C 377.902 -4.2574 1.32896 0
M  V30 4065 C 378.603 -4.74253 3.36836 0
M  V30 4066 N 377.579 -4.75068 2.64219 0
M  V30 4067 H 381.381 -2.32076 1.80327 0
M  V30 4068 H 378.895 -1.21818 1.07397 0
M  V30 4069 H 380.892 -4.16557 0.169088 0
M  V30 4070 H 379.552 -3.20633 -0.512275 0
M  V30 4071 H 380.563 -4.18304 3.05356 0
M  V30 4072 H 377.24 -4.1481 0.473134 0
M  V30 4073 H 378.63 -5.07096 4.40798 0
M  V30 4074 N 381.35 -0.985608 -1.22978 0
M  V30 4075 C 382.313 -0.535071 -2.22867 0
M  V30 4076 C 383.313 0.378123 -1.56291 0
M  V30 4077 O 384.503 0.171092 -1.73358 0
M  V30 4078 C 381.635 0.222702 -3.40172 0
M  V30 4079 H 382.828 -1.41835 -2.6424 0
M  V30 4080 H 380.381 -0.772042 -1.35901 0
M  V30 4081 H 381.116 1.12229 -3.04262 0
M  V30 4082 H 380.901 -0.43288 -3.89703 0
M  V30 4083 H 382.391 0.526335 -4.1427 0
M  V30 4084 N 382.828 1.3818 -0.7579 0
M  V30 4085 C 384.074 2.00316 -0.316453 0
M  V30 4086 C 384.407 1.60026 1.10025 0
M  V30 4087 O 383.682 0.839835 1.75434 0
M  V30 4088 C 383.965 3.57349 -0.444245 0
M  V30 4089 C 383.818 4.07591 -1.90236 0
M  V30 4090 C 385.137 4.3981 0.1598 0
M  V30 4091 H 382.256 0.727741 -0.116459 0
M  V30 4092 H 384.898 1.6406 -0.958352 0
M  V30 4093 H 383.048 3.88365 0.102233 0
M  V30 4094 H 384.72 3.87199 -2.50748 0
M  V30 4095 H 382.963 3.60297 -2.41595 0
M  V30 4096 H 383.634 5.16677 -1.94291 0
M  V30 4097 H 386.11 4.14971 -0.306314 0
M  V30 4098 H 384.986 5.48885 0.0401675 0
M  V30 4099 H 385.247 4.24102 1.24859 0
M  V30 4100 N 384.306 0.507319 1.49211 0
M  V30 4101 C 385.239 -0.314509 2.26022 0
M  V30 4102 C 386.217 -0.964849 1.30879 0
M  V30 4103 O 387.401 -0.993707 1.6018 0
M  V30 4104 C 384.528 -1.44346 3.06402 0
M  V30 4105 C 383.574 -0.90685 4.16748 0
M  V30 4106 S 384.407 0.207392 5.35098 0
M  V30 4107 C 385.563 -0.924573 6.19033 0
M  V30 4108 H 385.796 0.337416 2.95379 0
M  V30 4109 H 383.329 0.292718 1.516 0
M  V30 4110 H 385.287 -2.09029 3.53295 0
M  V30 4111 H 383.948 -2.06702 2.36502 0
M  V30 4112 H 383.141 -1.75309 4.72528 0
M  V30 4113 H 382.743 -0.33712 3.72478 0
M  V30 4114 H 385.035 -1.82839 6.52362 0
M  V30 4115 H 385.978 -0.405248 7.06939 0
M  V30 4116 H 386.386 -1.19476 5.51712 0
M  V30 4117 N 385.784 -1.5574 0.241426 0
M  V30 4118 C 387.03 -1.99104 -0.385406 0
M  V30 4119 C 387.363 -1.1293 -1.57988 0
M  V30 4120 O 386.638 -0.191449 -1.93555 0
M  V30 4121 C 386.921 -3.51087 -0.800616 0
M  V30 4122 C 386.774 -4.48028 0.398874 0
M  V30 4123 C 388.093 -4.08015 -1.64959 0
M  V30 4124 H 385.212 -0.723848 -0.138614 0
M  V30 4125 H 387.854 -1.86903 0.341642 0
M  V30 4126 H 386.004 -3.61615 -1.4201 0
M  V30 4127 H 387.676 -4.49487 1.03726 0
M  V30 4128 H 385.919 -4.21077 1.04293 0
M  V30 4129 H 386.59 -5.51962 0.0651056 0
M  V30 4130 H 389.066 -4.00555 -1.12672 0
M  V30 4131 H 387.942 -5.14635 -1.90898 0
M  V30 4132 H 388.203 -3.56131 -2.61961 0
M  V30 4133 N 387.262 0.0317525 -1.57568 0
M  V30 4134 C 388.51 0.721676 -1.88776 0
M  V30 4135 C 388.831 1.76039 -0.838772 0
M  V30 4136 O 388.101 1.95482 0.127935 0
M  V30 4137 H 386.681 0.269534 -0.696678 0
M  V30 4138 H 389.343 -0.00165879 -1.949 0
M  V30 4139 H 388.439 1.21293 -2.87566 0
M  V30 4140 N 388.74 1.54641 0.303973 0
M  V30 4141 C 389.989 1.7299 1.03717 0
M  V30 4142 C 390.302 0.521168 1.88529 0
M  V30 4143 O 391.508 0.586408 2.65092 0
M  V30 4144 C 389.964 3.06051 1.89369 0
M  V30 4145 C 389.572 4.34393 1.09574 0
M  V30 4146 C 391.316 3.3376 2.62306 0
M  V30 4147 C 389.223 5.58506 1.94486 0
M  V30 4148 H 388.153 0.64473 0.390947 0
M  V30 4149 H 390.804 1.81124 0.294328 0
M  V30 4150 H 389.186 2.91874 2.67629 0
M  V30 4151 H 390.36 4.59396 0.359485 0
M  V30 4152 H 388.675 4.13597 0.482324 0
M  V30 4153 H 391.272 4.23687 3.26181 0
M  V30 4154 H 391.615 2.52503 3.3098 0
M  V30 4155 H 392.148 3.48894 1.91097 0
M  V30 4156 H 388.887 6.42422 1.30287 0
M  V30 4157 H 388.407 5.37694 2.65792 0
M  V30 4158 H 390.086 5.95651 2.52605 0
M  V30 4159 N 390.218 -0.567019 1.47046 0
M  V30 4160 C 391.467 -1.32091 1.5243 0
M  V30 4161 C 391.78 -1.94704 0.187021 0
M  V30 4162 O 392.986 -2.7124 0.118771 0
M  V30 4163 C 391.442 -2.39479 2.68659 0
M  V30 4164 C 391.05 -1.831 4.08874 0
M  V30 4165 C 392.794 -3.16111 2.83327 0
M  V30 4166 C 390.701 -2.8821 5.16419 0
M  V30 4167 H 389.631 -0.496629 0.56734 0
M  V30 4168 H 392.282 -0.603354 1.73297 0
M  V30 4169 H 390.664 -3.14105 2.41152 0
M  V30 4170 H 391.838 -1.14913 4.46242 0
M  V30 4171 H 390.153 -1.19085 3.99008 0
M  V30 4172 H 392.75 -3.94585 3.60842 0
M  V30 4173 H 393.093 -3.69686 1.91411 0
M  V30 4174 H 393.626 -2.48595 3.10556 0
M  V30 4175 H 390.365 -2.39504 6.10179 0
M  V30 4176 H 389.885 -3.54839 4.8358 0
M  V30 4177 H 391.564 -3.51881 5.42945 0
M  V30 4178 N 391.696 -1.35014 -0.812953 0
M  V30 4179 C 392.926 -1.30841 -1.59888 0
M  V30 4180 C 393.334 0.117576 -1.88834 0
M  V30 4181 O 392.677 1.07807 -1.48739 0
M  V30 4182 C 392.739 -2.0412 -2.95931 0
M  V30 4183 C 392.403 -3.53336 -2.89832 0
M  V30 4184 C 393.4 -4.48052 -2.63714 0
M  V30 4185 C 391.085 -3.95894 -3.0915 0
M  V30 4186 C 393.079 -5.833 -2.56982 0
M  V30 4187 C 390.766 -5.31239 -3.0204 0
M  V30 4188 C 391.764 -6.24754 -2.75991 0
M  V30 4189 O 391.452 -7.57617 -2.68833 0
M  V30 4190 H 391.184 -0.451215 -0.50337 0
M  V30 4191 H 393.738 -1.78354 -1.01877 0
M  V30 4192 H 391.968 -1.51235 -3.559 0
M  V30 4193 H 393.657 -1.93107 -3.57022 0
M  V30 4194 H 394.423 -4.16492 -2.48515 0
M  V30 4195 H 390.302 -3.23495 -3.28438 0
M  V30 4196 H 393.846 -6.56263 -2.36569 0
M  V30 4197 H 389.743 -5.62415 -3.16796 0
M  V30 4198 H 390.511 -7.67469 -2.84487 0
M  V30 4199 N 393.175 1.03435 -1.18907 0
M  V30 4200 C 394.107 2.1165 -0.879595 0
M  V30 4201 C 395.12 1.62316 0.125439 0
M  V30 4202 O 396.309 1.78201 -0.103245 0
M  V30 4203 C 393.409 3.37622 -0.294042 0
M  V30 4204 C 392.582 4.16166 -1.34629 0
M  V30 4205 C 391.641 5.20457 -0.775274 0
M  V30 4206 O 390.667 5.50379 -1.4516 0
M  V30 4207 N 391.869 5.78949 0.424126 0
M  V30 4208 H 394.634 2.38791 -1.81105 0
M  V30 4209 H 392.195 1.19681 -1.09032 0
M  V30 4210 H 394.187 4.04572 0.101679 0
M  V30 4211 H 392.757 3.07873 0.541575 0
M  V30 4212 H 391.977 3.44444 -1.91707 0
M  V30 4213 H 393.265 4.65432 -2.05549 0
M  V30 4214 H 392.663 5.56948 0.991209 0
M  V30 4215 H 391.22 6.47334 0.761691 0
M  V30 4216 N 394.653 0.992116 1.22453 0
M  V30 4217 C 395.9 0.667534 1.91181 0
M  V30 4218 C 396.228 -0.800317 1.77271 0
M  V30 4219 O 395.483 -1.59421 1.13505 0
M  V30 4220 C 395.782 1.01832 3.42586 0
M  V30 4221 C 395.448 2.47831 3.76684 0
M  V30 4222 C 394.11 2.87729 3.85701 0
M  V30 4223 C 396.462 3.42466 3.92895 0
M  V30 4224 C 393.79 4.21252 4.08367 0
M  V30 4225 C 396.142 4.75648 4.17064 0
M  V30 4226 C 394.806 5.15288 4.24305 0
M  V30 4227 H 394.076 0.244268 0.699581 0
M  V30 4228 H 396.723 1.24816 1.45235 0
M  V30 4229 H 395.028 0.355769 3.90181 0
M  V30 4230 H 396.725 0.745228 3.94014 0
M  V30 4231 H 393.315 2.15905 3.70247 0
M  V30 4232 H 397.499 3.12814 3.85307 0
M  V30 4233 H 392.755 4.51554 4.122 0
M  V30 4234 H 396.929 5.48924 4.2855 0
M  V30 4235 H 394.556 6.18769 4.41621 0
M  V30 4236 N 396.131 -1.37776 0.765217 0
M  V30 4237 C 397.38 -1.99092 0.323307 0
M  V30 4238 C 397.693 -1.61434 -1.10446 0
M  V30 4239 O 398.899 -2.15805 -1.64743 0
M  V30 4240 C 397.355 -3.56019 0.527098 0
M  V30 4241 C 396.963 -4.0262 1.96471 0
M  V30 4242 C 398.707 -4.2424 0.148483 0
M  V30 4243 C 396.614 -5.52233 2.11644 0
M  V30 4244 H 395.544 -0.744846 0.117137 0
M  V30 4245 H 398.195 -1.57391 0.943417 0
M  V30 4246 H 396.577 -3.95667 -0.162372 0
M  V30 4247 H 397.751 -3.74234 2.68859 0
M  V30 4248 H 396.066 -3.47161 2.29931 0
M  V30 4249 H 398.663 -5.34159 0.240456 0
M  V30 4250 H 399.006 -4.06446 -0.900422 0
M  V30 4251 H 399.539 -3.89872 0.79025 0
M  V30 4252 H 396.278 -5.74945 3.1483 0
M  V30 4253 H 395.798 -5.82324 1.4373 0
M  V30 4254 H 397.477 -6.18106 1.91193 0
M  V30 4255 N 397.609 -0.515225 -1.4894 0
M  V30 4256 C 398.855 0.0242508 -2.02785 0
M  V30 4257 C 399.188 1.35323 -1.39289 0
M  V30 4258 O 398.463 1.87041 -0.533469 0
M  V30 4259 C 398.746 0.16184 -3.59736 0
M  V30 4260 C 398.599 -1.19127 -4.33738 0
M  V30 4261 C 399.918 0.895719 -4.30888 0
M  V30 4262 H 397.037 0.00733914 -0.736963 0
M  V30 4263 H 399.679 -0.669395 -1.77818 0
M  V30 4264 H 397.829 0.752624 -3.8114 0
M  V30 4265 H 399.501 -1.82202 -4.23792 0
M  V30 4266 H 397.744 -1.77695 -3.95736 0
M  V30 4267 H 398.415 -1.04815 -5.41957 0
M  V30 4268 H 400.891 0.394528 -4.14225 0
M  V30 4269 H 399.767 0.960859 -5.40425 0
M  V30 4270 H 400.028 1.9427 -3.97129 0
M  V30 4271 N 399.087 1.5561 -0.249682 0
M  V30 4272 C 400.05 2.20217 0.635394 0
M  V30 4273 C 401.05 1.17227 1.10066 0
M  V30 4274 O 402.24 1.42292 1.00492 0
M  V30 4275 C 399.372 2.84794 1.87363 0
M  V30 4276 H 400.565 2.99814 0.0716752 0
M  V30 4277 H 398.118 1.563 -0.000153234 0
M  V30 4278 H 398.853 2.09142 2.47851 0
M  V30 4279 H 398.638 3.60241 1.5482 0
M  V30 4280 H 400.128 3.3423 2.5036 0
M  V30 4281 N 400.565 -0.0233959 1.57583 0
M  V30 4282 C 401.513 -1.04063 2.08023 0
M  V30 4283 C 402.507 -1.37084 0.995204 0
M  V30 4284 O 403.713 -1.35923 1.18004 0
M  V30 4285 H 400.088 -0.353144 0.663922 0
M  V30 4286 H 402.059 -0.589453 2.9252 0
M  V30 4287 C 400.808 -2.33123 2.57971 0
M  V30 4288 H 400.131 -2.08577 3.4108 0
M  V30 4289 H 401.571 -3.02632 2.96967 0
M  V30 4290 C 400.03 -3.02483 1.48342 0
M  V30 4291 O 400.56 -3.92541 0.852898 0
M  V30 4292 N 398.766 -2.63909 1.21658 0
M  V30 4293 H 398.313 -1.90758 1.73116 0
M  V30 4294 H 398.271 -3.10633 0.485218 0
M  V30 4295 N 402.043 -1.548 -0.295768 0
M  V30 4296 C 403.006 -1.85363 -1.34808 0
M  V30 4297 C 404.006 -0.726817 -1.43436 0
M  V30 4298 O 405.196 -0.995088 -1.42981 0
M  V30 4299 C 402.328 -2.03859 -2.73229 0
M  V30 4300 H 403.521 -2.7941 -1.08949 0
M  V30 4301 H 401.074 -1.46942 -0.532702 0
M  V30 4302 H 401.809 -1.12117 -3.04303 0
M  V30 4303 H 401.594 -2.8588 -2.68356 0
M  V30 4304 H 403.084 -2.28857 -3.49305 0
M  V30 4305 N 403.521 0.559213 -1.47345 0
M  V30 4306 C 404.451 1.67622 -1.62558 0
M  V30 4307 C 405.432 1.63331 -0.475087 0
M  V30 4308 O 406.617 1.80983 -0.704182 0
M  V30 4309 C 403.747 3.0626 -1.63774 0
M  V30 4310 C 402.701 3.25397 -2.7803 0
M  V30 4311 C 402.027 4.64801 -2.64318 0
M  V30 4312 C 403.327 3.10965 -4.19641 0
M  V30 4313 H 405.021 1.55146 -2.56067 0
M  V30 4314 H 402.567 0.744961 -1.23233 0
M  V30 4315 H 404.52 3.84247 -1.73008 0
M  V30 4316 H 403.244 3.1969 -0.66825 0
M  V30 4317 H 401.903 2.49817 -2.68304 0
M  V30 4318 H 401.551 4.75028 -1.65401 0
M  V30 4319 H 401.251 4.78555 -3.40968 0
M  V30 4320 H 402.775 5.44926 -2.75478 0
M  V30 4321 H 404.189 3.78772 -4.30354 0
M  V30 4322 H 402.586 3.36229 -4.97062 0
M  V30 4323 H 403.656 2.07736 -4.38148 0
M  V30 4324 N 404.999 1.35443 0.805782 0
M  V30 4325 C 406.246 1.28761 1.56291 0
M  V30 4326 C 406.574 -0.137747 1.94012 0
M  V30 4327 O 405.829 -1.1032 1.61642 0
M  V30 4328 C 406.128 2.14045 2.86216 0
M  V30 4329 C 405.794 3.62826 2.67709 0
M  V30 4330 C 404.456 4.0338 2.6237 0
M  V30 4331 C 406.808 4.57227 2.50186 0
M  V30 4332 C 404.136 5.36501 2.37451 0
M  V30 4333 C 406.488 5.90547 2.26797 0
M  V30 4334 C 405.152 6.30245 2.1988 0
M  V30 4335 H 404.422 0.471171 0.571908 0
M  V30 4336 H 407.069 1.67347 0.930974 0
M  V30 4337 H 405.374 1.68342 3.53791 0
M  V30 4338 H 407.071 2.0621 3.43917 0
M  V30 4339 H 403.661 3.30644 2.72713 0
M  V30 4340 H 407.845 4.2678 2.53323 0
M  V30 4341 H 403.101 5.66259 2.30567 0
M  V30 4342 H 407.275 6.63274 2.12228 0
M  V30 4343 H 404.902 7.33328 2.00333 0
M  V30 4344 N 406.477 -1.02803 1.19454 0
M  V30 4345 C 407.754 -1.73299 0.907013 0
M  V30 4346 C 408.134 -2.02772 -0.587086 0
M  V30 4347 O 407.482 -1.68304 -1.54551 0
M  V30 4348 C 407.692 -3.00912 1.76785 0
M  V30 4349 C 409.04 -3.74403 2.00268 0
M  V30 4350 O 410.064 -3.10841 1.73943 0
M  V30 4351 O 408.923 -4.88675 2.4466 0
M  V30 4352 H 406.017 -0.754727 0.338106 0
M  V30 4353 H 408.563 -1.08754 1.30271 0
M  V30 4354 H 407.335 -2.75366 2.7801 0
M  V30 4355 H 406.958 -3.73197 1.37149 0
M  V30 4356 N 407.956 -0.998596 -1.21925 0
M  V30 4357 C 409.181 -0.696015 -1.95372 0
M  V30 4358 C 409.606 0.733826 -1.73195 0
M  V30 4359 O 408.964 1.50242 -1.01474 0
M  V30 4360 C 409.012 -1.01466 -3.4603 0
M  V30 4361 O 408.116 -0.116415 -4.12236 0
M  V30 4362 H 407.457 -0.259938 -0.611006 0
M  V30 4363 H 409.987 -1.33711 -1.54863 0
M  V30 4364 H 409.997 -0.958855 -3.96573 0
M  V30 4365 H 408.672 -2.05653 -3.61497 0
M  V30 4366 H 407.249 -0.228193 -3.72201 0
M  V30 4367 N 409.434 1.37368 -0.772513 0
M  V30 4368 C 410.381 2.30262 -0.157488 0
M  V30 4369 C 411.351 1.51137 0.688965 0
M  V30 4370 O 412.536 1.79704 0.641168 0
M  V30 4371 C 409.676 3.37611 0.715045 0
M  V30 4372 C 408.789 4.31746 -0.148098 0
M  V30 4373 C 407.924 5.26171 0.729213 0
M  V30 4374 C 406.963 6.11948 -0.136418 0
M  V30 4375 N 406.1 6.98613 0.698914 0
M  V30 4376 H 410.94 2.82277 -0.955179 0
M  V30 4377 H 408.477 1.38957 -0.482631 0
M  V30 4378 H 410.435 3.98479 1.23575 0
M  V30 4379 H 409.065 2.86959 1.47833 0
M  V30 4380 H 408.117 3.72178 -0.786613 0
M  V30 4381 H 409.429 4.92084 -0.81579 0
M  V30 4382 H 408.583 5.92247 1.31637 0
M  V30 4383 H 407.322 4.66246 1.43059 0
M  V30 4384 H 406.327 5.4485 -0.736102 0
M  V30 4385 H 407.552 6.73945 -0.835134 0
M  V30 4386 H 405.498 6.41215 1.38489 0
M  V30 4387 H 405.415 7.55948 0.0885358 0
M  V30 4388 H 406.683 7.69077 1.27044 0
M  V30 4389 N 410.912 0.523116 1.48665 0
M  V30 4390 C 411.862 -0.263106 2.26477 0
M  V30 4391 C 412.846 -0.916005 1.32281 0
M  V30 4392 O 414.038 -0.819946 1.56863 0
M  V30 4393 C 411.167 -1.31361 3.17174 0
M  V30 4394 C 410.253 -0.665849 4.1884 0
M  V30 4395 N 410.644 0.244434 5.05209 0
M  V30 4396 C 408.942 -0.923863 4.36326 0
M  V30 4397 C 409.643 0.617443 5.78414 0
M  V30 4398 N 408.619 -0.0198686 5.43596 0
M  V30 4399 H 412.421 0.437295 2.90629 0
M  V30 4400 H 409.935 0.340675 1.58787 0
M  V30 4401 H 411.932 -1.89052 3.71571 0
M  V30 4402 H 410.592 -2.01546 2.54576 0
M  V30 4403 H 411.603 0.616621 5.14216 0
M  V30 4404 H 408.28 -1.6168 3.84923 0
M  V30 4405 H 409.67 1.36346 6.57921 0
M  V30 4406 N 412.39 -1.55475 0.257931 0
M  V30 4407 C 413.667 -1.91155 -0.414629 0
M  V30 4408 C 414.047 -1.18008 -1.75035 0
M  V30 4409 O 413.395 -0.301193 -2.26506 0
M  V30 4410 C 413.605 -3.44283 -0.571859 0
M  V30 4411 C 414.953 -4.15744 -0.862678 0
M  V30 4412 O 415.977 -3.50083 -0.657314 0
M  V30 4413 O 414.836 -5.31909 -1.2544 0
M  V30 4414 H 411.93 -0.796016 -0.22425 0
M  V30 4415 H 414.476 -1.66976 0.302814 0
M  V30 4416 H 413.248 -3.89558 0.368844 0
M  V30 4417 H 412.871 -3.7436 -1.33943 0
M  V30 4418 N 413.868 0.0150385 -1.57593 0
M  V30 4419 C 415.117 0.702115 -1.89085 0
M  V30 4420 C 415.43 1.75764 -0.858277 0
M  V30 4421 O 416.636 2.49829 -1.0629 0
M  V30 4422 C 415.092 1.29992 -3.35604 0
M  V30 4423 C 414.7 0.280007 -4.47124 0
M  V30 4424 C 416.444 1.96606 -3.76227 0
M  V30 4425 C 414.351 0.886949 -5.84711 0
M  V30 4426 H 413.281 0.265997 -0.705522 0
M  V30 4427 H 415.932 -0.0430408 -1.8345 0
M  V30 4428 H 414.314 2.09525 -3.36029 0
M  V30 4429 H 415.488 -0.489631 -4.58191 0
M  V30 4430 H 413.803 -0.284835 -4.15425 0
M  V30 4431 H 416.4 2.42893 -4.76347 0
M  V30 4432 H 416.743 2.79024 -3.08952 0
M  V30 4433 H 417.276 1.23828 -3.78036 0
M  V30 4434 H 414.015 0.101876 -6.55421 0
M  V30 4435 H 413.535 1.6261 -5.77337 0
M  V30 4436 H 415.214 1.39011 -6.3189 0
M  V30 4437 N 415.346 1.54954 0.287554 0
M  V30 4438 C 416.294 1.87606 1.37502 0
M  V30 4439 C 417.288 0.751001 1.51843 0
M  V30 4440 O 418.494 0.935169 1.53801 0
M  V30 4441 H 414.869 0.595231 0.459569 0
M  V30 4442 H 416.84 2.78477 1.07206 0
M  V30 4443 C 415.589 2.15183 2.73115 0
M  V30 4444 H 414.912 3.01234 2.62866 0
M  V30 4445 H 416.352 2.4196 3.48183 0
M  V30 4446 C 414.811 0.954686 3.2309 0
M  V30 4447 O 415.341 0.181949 4.01288 0
M  V30 4448 N 413.547 0.756368 2.80584 0
M  V30 4449 H 413.094 1.38643 2.17108 0
M  V30 4450 H 413.052 -0.0430391 3.14371 0
M  V30 4451 N 416.824 -0.551391 1.4764 0
M  V30 4452 C 417.774 -1.65362 1.56969 0
M  V30 4453 C 418.758 -1.55098 0.428189 0
M  V30 4454 O 419.95 -1.63481 0.678441 0
M  V30 4455 C 417.079 -3.04129 1.59249 0
M  V30 4456 C 416.165 -3.19576 2.78804 0
M  V30 4457 N 416.556 -3.05067 4.03445 0
M  V30 4458 C 414.854 -3.50588 2.75688 0
M  V30 4459 C 415.555 -3.2336 4.83543 0
M  V30 4460 N 414.531 -3.4996 4.15968 0
M  V30 4461 H 418.333 -1.52722 2.51104 0
M  V30 4462 H 415.847 -0.756303 1.43714 0
M  V30 4463 H 417.844 -3.83278 1.64024 0
M  V30 4464 H 416.504 -3.17877 0.662148 0
M  V30 4465 H 417.515 -2.82273 4.34215 0
M  V30 4466 H 414.192 -3.70827 1.91817 0
M  V30 4467 H 415.582 -3.17061 5.92387 0
M  V30 4468 N 418.302 -1.35869 -0.798587 0
M  V30 4469 C 419.532 -1.32529 -1.58491 0
M  V30 4470 C 419.94 0.0975405 -1.88948 0
M  V30 4471 O 419.283 1.06224 -1.49874 0
M  V30 4472 C 419.345 -2.07247 -2.9375 0
M  V30 4473 C 419.009 -3.56391 -2.86068 0
M  V30 4474 C 420.006 -4.50824 -2.58947 0
M  V30 4475 C 417.691 -3.9915 -3.04933 0
M  V30 4476 C 419.685 -5.85993 -2.5078 0
M  V30 4477 C 417.372 -5.34413 -2.96389 0
M  V30 4478 C 418.37 -6.27646 -2.69349 0
M  V30 4479 O 418.058 -7.60426 -2.60782 0
M  V30 4480 H 417.79 -0.456529 -0.498556 0
M  V30 4481 H 420.344 -1.79425 -0.999799 0
M  V30 4482 H 418.574 -1.55001 -3.54276 0
M  V30 4483 H 420.263 -1.96883 -3.54954 0
M  V30 4484 H 421.029 -4.19104 -2.44084 0
M  V30 4485 H 416.908 -3.26961 -3.24989 0
M  V30 4486 H 420.452 -6.58735 -2.29595 0
M  V30 4487 H 416.349 -5.65743 -3.10813 0
M  V30 4488 H 417.117 -7.70444 -2.76331 0
M  V30 4489 N 419.78 1.02168 -1.19998 0
M  V30 4490 C 421.029 1.75091 -1.0013 0
M  V30 4491 C 421.342 1.89923 0.467835 0
M  V30 4492 O 422.548 2.59888 0.785515 0
M  V30 4493 C 421.004 3.14892 -1.74273 0
M  V30 4494 C 420.612 3.0809 -3.25245 0
M  V30 4495 C 422.356 3.9206 -1.62755 0
M  V30 4496 C 420.263 4.42867 -3.91948 0
M  V30 4497 H 419.193 0.656394 -0.37103 0
M  V30 4498 H 421.844 1.14284 -1.43567 0
M  V30 4499 H 420.226 3.7621 -1.2362 0
M  V30 4500 H 421.4 2.5611 -3.83072 0
M  V30 4501 H 419.715 2.44416 -3.3712 0
M  V30 4502 H 422.312 4.91764 -2.09934 0
M  V30 4503 H 422.655 4.12199 -0.582894 0
M  V30 4504 H 423.188 3.37359 -2.10793 0
M  V30 4505 H 419.927 4.27931 -4.96543 0
M  V30 4506 H 419.447 4.94874 -3.3891 0
M  V30 4507 H 421.126 5.11728 -3.95909 0
M  V30 4508 N 421.258 1.00505 1.21394 0
M  V30 4509 C 422.19 0.52372 2.23136 0
M  V30 4510 C 423.203 -0.387714 1.58116 0
M  V30 4511 O 424.392 -0.187905 1.77508 0
M  V30 4512 C 421.492 -0.258885 3.3791 0
M  V30 4513 C 420.665 0.651634 4.32519 0
M  V30 4514 C 419.724 -0.0813705 5.26137 0
M  V30 4515 O 418.75 0.537295 5.66658 0
M  V30 4516 N 419.952 -1.35992 5.64346 0
M  V30 4517 H 422.717 1.39865 2.65062 0
M  V30 4518 H 420.278 0.881196 1.35818 0
M  V30 4519 H 422.27 -0.758208 3.97534 0
M  V30 4520 H 420.84 -1.035 2.94968 0
M  V30 4521 H 420.06 1.33145 3.71034 0
M  V30 4522 H 421.348 1.27129 4.92662 0
M  V30 4523 H 420.746 -1.88368 5.33417 0
M  V30 4524 H 419.303 -1.8042 6.26332 0
M  V30 4525 N 422.737 -1.36956 0.779787 0
M  V30 4526 C 423.967 -2.03459 0.358877 0
M  V30 4527 C 424.375 -1.58939 -1.02641 0
M  V30 4528 O 423.718 -0.769777 -1.66794 0
M  V30 4529 C 423.78 -3.5796 0.332393 0
M  V30 4530 C 423.444 -4.25644 1.66362 0
M  V30 4531 C 424.441 -4.49205 2.61746 0
M  V30 4532 C 422.126 -4.63313 1.94027 0
M  V30 4533 C 424.12 -5.09503 3.82996 0
M  V30 4534 C 421.807 -5.2333 3.15546 0
M  V30 4535 C 422.805 -5.46363 4.0985 0
M  V30 4536 O 422.493 -6.05122 5.29228 0
M  V30 4537 H 422.225 -0.659767 0.147254 0
M  V30 4538 H 424.779 -1.76111 1.05708 0
M  V30 4539 H 423.009 -3.84388 -0.422237 0
M  V30 4540 H 424.698 -4.05852 -0.0625389 0
M  V30 4541 H 425.464 -4.20508 2.41657 0
M  V30 4542 H 421.343 -4.44715 1.21448 0
M  V30 4543 H 424.887 -5.27397 4.56617 0
M  V30 4544 H 420.784 -5.51451 3.35517 0
M  V30 4545 H 421.552 -6.23595 5.30161 0
M  V30 4546 N 424.215 -0.530993 -1.48385 0
M  V30 4547 C 425.145 0.219985 -2.32461 0
M  V30 4548 C 426.126 0.934111 -1.42156 0
M  V30 4549 O 427.311 0.919694 -1.71042 0
M  V30 4550 C 424.441 1.26674 -3.23375 0
M  V30 4551 C 423.395 0.67069 -4.22712 0
M  V30 4552 C 422.721 1.82017 -5.02766 0
M  V30 4553 C 424.021 -0.358268 -5.2107 0
M  V30 4554 H 425.715 -0.48187 -2.95497 0
M  V30 4555 H 423.261 -0.233182 -1.42099 0
M  V30 4556 H 425.214 1.80006 -3.81019 0
M  V30 4557 H 423.938 1.99818 -2.58341 0
M  V30 4558 H 422.597 0.158878 -3.66256 0
M  V30 4559 H 422.245 2.54002 -4.34157 0
M  V30 4560 H 421.945 1.42727 -5.70003 0
M  V30 4561 H 423.469 2.35725 -5.63264 0
M  V30 4562 H 424.883 0.0880081 -5.73232 0
M  V30 4563 H 423.28 -0.66861 -5.96364 0
M  V30 4564 H 424.35 -1.26367 -4.68145 0
M  V30 4565 N 425.693 1.55336 -0.266172 0
M  V30 4566 C 426.942 1.98574 0.353749 0
M  V30 4567 C 427.255 1.15789 1.57646 0
M  V30 4568 O 428.461 1.49129 2.26876 0
M  V30 4569 C 426.917 3.53403 0.680747 0
M  V30 4570 C 426.525 4.44953 -0.52165 0
M  V30 4571 C 428.269 4.05251 1.26379 0
M  V30 4572 C 426.176 5.91156 -0.169736 0
M  V30 4573 H 425.106 0.741643 0.135949 0
M  V30 4574 H 427.757 1.79743 -0.369421 0
M  V30 4575 H 426.139 3.68001 1.46257 0
M  V30 4576 H 427.313 4.42121 -1.29869 0
M  V30 4577 H 425.628 4.03691 -1.02093 0
M  V30 4578 H 428.225 5.12021 1.54074 0
M  V30 4579 H 428.568 3.53749 2.19471 0
M  V30 4580 H 429.101 3.94057 0.544447 0
M  V30 4581 H 425.84 6.46736 -1.0683 0
M  V30 4582 H 425.36 5.97079 0.570717 0
M  V30 4583 H 427.039 6.4655 0.241245 0
M  V30 4584 N 427.171 -0.0066808 1.57599 0
M  V30 4585 C 428.103 -1.02827 2.04839 0
M  V30 4586 C 429.116 -1.31108 0.965113 0
M  V30 4587 O 430.305 -1.28202 1.24203 0
M  V30 4588 C 427.405 -2.36464 2.42771 0
M  V30 4589 C 426.578 -2.27219 3.73751 0
M  V30 4590 C 425.637 -3.43489 3.98625 0
M  V30 4591 O 424.663 -3.21976 4.69382 0
M  V30 4592 N 425.865 -4.66116 3.46 0
M  V30 4593 H 428.63 -0.625455 2.93101 0
M  V30 4594 H 426.191 -0.194198 1.60731 0
M  V30 4595 H 428.183 -3.13008 2.56531 0
M  V30 4596 H 426.753 -2.68512 1.60063 0
M  V30 4597 H 425.973 -1.35629 3.70133 0
M  V30 4598 H 427.261 -2.18208 4.59633 0
M  V30 4599 H 426.659 -4.86493 2.88688 0
M  V30 4600 H 425.216 -5.39949 3.65101 0
M  V30 4601 N 428.649 -1.55105 -0.279332 0
M  V30 4602 C 429.579 -1.90557 -1.34945 0
M  V30 4603 C 430.56 -0.766738 -1.51839 0
M  V30 4604 O 431.745 -1.02434 -1.64988 0
M  V30 4605 C 428.875 -2.17193 -2.71006 0
M  V30 4606 C 427.829 -3.33021 -2.68851 0
M  V30 4607 C 427.155 -3.45123 -4.08405 0
M  V30 4608 C 428.455 -4.69578 -2.28678 0
M  V30 4609 H 430.149 -2.80188 -1.05522 0
M  V30 4610 H 427.695 -1.34811 -0.506173 0
M  V30 4611 H 429.648 -2.40581 -3.45975 0
M  V30 4612 H 428.372 -1.24355 -3.01999 0
M  V30 4613 H 427.031 -3.0959 -1.9634 0
M  V30 4614 H 426.679 -2.49762 -4.3661 0
M  V30 4615 H 426.379 -4.22995 -4.07859 0
M  V30 4616 H 427.903 -3.70796 -4.85121 0
M  V30 4617 H 429.317 -4.92553 -2.93368 0
M  V30 4618 H 427.714 -5.5032 -2.39306 0
M  V30 4619 H 428.784 -4.68828 -1.23807 0
M  V30 4620 N 430.127 0.543554 -1.4793 0
M  V30 4621 C 431.375 1.29752 -1.54948 0
M  V30 4622 C 431.696 1.93764 -0.219242 0
M  V30 4623 O 430.966 1.80639 0.75805 0
M  V30 4624 H 429.546 0.481874 -0.570795 0
M  V30 4625 H 432.208 0.633636 -1.84312 0
M  V30 4626 H 431.304 2.08392 -2.32334 0
M  V30 4627 N 431.605 1.3629 0.791371 0
M  V30 4628 C 432.835 1.33368 1.57786 0
M  V30 4629 C 433.243 -0.0875188 1.88997 0
M  V30 4630 O 432.586 -1.05427 1.50435 0
M  V30 4631 C 432.648 2.08802 2.92646 0
M  V30 4632 C 432.312 3.57903 2.84174 0
M  V30 4633 C 433.309 4.52191 2.56553 0
M  V30 4634 C 430.994 4.00762 3.02812 0
M  V30 4635 C 432.988 5.87315 2.47669 0
M  V30 4636 C 430.675 5.35977 2.93551 0
M  V30 4637 C 431.673 6.29066 2.66017 0
M  V30 4638 O 431.361 7.61798 2.56746 0
M  V30 4639 H 431.093 0.459166 0.496128 0
M  V30 4640 H 433.647 1.79952 0.990269 0
M  V30 4641 H 431.877 1.56878 3.53449 0
M  V30 4642 H 433.566 1.98762 3.53904 0
M  V30 4643 H 434.332 4.20393 2.41858 0
M  V30 4644 H 430.211 3.2868 3.2325 0
M  V30 4645 H 433.755 6.59943 2.26099 0
M  V30 4646 H 429.652 5.67384 3.07808 0
M  V30 4647 H 430.42 7.71898 2.72242 0
M  V30 4648 N 433.083 -1.0153 1.20538 0
M  V30 4649 C 434.494 -1.56598 1.01657 0
M  V30 4650 C 434.845 -1.91505 -0.426668 0
M  V30 4651 O 433.97 -1.72375 -1.30827 0
M  V30 4652 C 434.565 -2.84542 1.83905 0
M  V30 4653 C 433.124 -3.36133 1.69386 0
M  V30 4654 C 432.271 -2.09427 1.81757 0
M  V30 4655 H 435.222 -0.838974 1.34711 0
M  V30 4656 H 435.243 -3.56004 1.34319 0
M  V30 4657 H 434.755 -2.59105 2.8894 0
M  V30 4658 H 432.856 -3.66528 0.669933 0
M  V30 4659 H 432.969 -4.08248 2.50739 0
M  V30 4660 H 431.333 -2.21941 1.24957 0
M  V30 4661 H 432.116 -1.86414 2.88279 0
M  V30 4662 N 434.561 -1.01147 -1.20859 0
M  V30 4663 C 435.491 -0.597663 -2.25722 0
M  V30 4664 C 436.472 0.384744 -1.65692 0
M  V30 4665 O 437.657 0.271303 -1.92296 0
M  V30 4666 C 434.787 0.0700149 -3.47229 0
M  V30 4667 C 433.741 -0.832843 -4.19819 0
M  V30 4668 C 433.067 -0.0312202 -5.34691 0
M  V30 4669 C 434.367 -2.1385 -4.76514 0
M  V30 4670 H 436.061 -1.47423 -2.60589 0
M  V30 4671 H 433.607 -0.710301 -1.25263 0
M  V30 4672 H 435.56 0.37103 -4.19763 0
M  V30 4673 H 434.284 0.981259 -3.11511 0
M  V30 4674 H 432.943 -1.11778 -3.49144 0
M  V30 4675 H 432.591 0.881515 -4.95215 0
M  V30 4676 H 432.291 -0.632434 -5.84187 0
M  V30 4677 H 433.815 0.26346 -6.10031 0
M  V30 4678 H 435.229 -1.9002 -5.40893 0
M  V30 4679 H 433.626 -2.69012 -5.36426 0
M  V30 4680 H 434.696 -2.80495 -3.95538 0
M  V30 4681 N 436.039 1.36541 -0.78704 0
M  V30 4682 C 437.316 1.9355 -0.282424 0
M  V30 4683 C 437.696 1.71919 1.22503 0
M  V30 4684 O 437.044 1.07677 2.01539 0
M  V30 4685 C 437.254 3.4246 -0.672462 0
M  V30 4686 C 438.602 4.19582 -0.650863 0
M  V30 4687 O 439.626 3.50889 -0.612789 0
M  V30 4688 O 438.485 5.42106 -0.691623 0
M  V30 4689 H 435.579 0.824091 -0.0693 0
M  V30 4690 H 438.125 1.45736 -0.869423 0
M  V30 4691 H 436.897 3.51851 -1.71221 0
M  V30 4692 H 436.52 3.97556 -0.0592211 0
M  V30 4693 N 437.518 0.538854 1.48102 0
M  V30 4694 C 438.451 -0.266495 2.26639 0
M  V30 4695 C 439.429 -0.93687 1.32897 0
M  V30 4696 O 440.613 -0.959507 1.62252 0
M  V30 4697 C 437.74 -1.37814 3.09394 0
M  V30 4698 C 436.786 -0.818247 4.18577 0
M  V30 4699 S 437.619 0.320848 5.34538 0
M  V30 4700 C 438.775 -0.793059 6.20855 0
M  V30 4701 H 439.008 0.399994 2.94597 0
M  V30 4702 H 436.541 0.324808 1.50945 0
M  V30 4703 H 438.499 -2.01488 3.57649 0
M  V30 4704 H 437.16 -2.01639 2.40833 0
M  V30 4705 H 436.353 -1.65247 4.7614 0
M  V30 4706 H 435.955 -0.258036 3.73109 0
M  V30 4707 H 438.247 -1.68961 6.56093 0
M  V30 4708 H 439.19 -0.255204 7.0764 0
M  V30 4709 H 439.598 -1.07746 5.54122 0
M  V30 4710 N 438.996 -1.55193 0.274407 0
M  V30 4711 C 440.245 -1.98758 -0.343213 0
M  V30 4712 C 440.558 -1.16624 -1.5703 0
M  V30 4713 O 441.764 -1.5033 -2.26082 0
M  V30 4714 C 440.22 -3.53759 -0.661996 0
M  V30 4715 C 439.828 -4.4467 0.54524 0
M  V30 4716 C 441.572 -4.05916 -1.24228 0
M  V30 4717 C 439.479 -5.91058 0.201084 0
M  V30 4718 H 438.409 -0.742353 -0.132014 0
M  V30 4719 H 441.06 -1.79545 0.378948 0
M  V30 4720 H 439.442 -3.68772 -1.44304 0
M  V30 4721 H 440.616 -4.41426 1.32212 0
M  V30 4722 H 438.931 -4.03143 1.04232 0
M  V30 4723 H 441.528 -5.12831 -1.51357 0
M  V30 4724 H 441.871 -3.54908 -2.17592 0
M  V30 4725 H 442.404 -3.9434 -0.523542 0
M  V30 4726 H 439.143 -6.46161 1.10258 0
M  V30 4727 H 438.663 -5.97373 -0.539045 0
M  V30 4728 H 440.342 -6.46669 -0.206954 0
M  V30 4729 N 440.474 -0.00167713 -1.576 0
M  V30 4730 C 441.702 0.693759 -1.94922 0
M  V30 4731 C 442.117 1.67215 -0.876626 0
M  V30 4732 O 441.474 1.81929 0.144279 0
M  V30 4733 C 441.525 1.42416 -3.32265 0
M  V30 4734 O 441.246 0.485014 -4.35407 0
M  V30 4735 C 442.747 2.21395 -3.84056 0
M  V30 4736 H 439.967 0.193118 -0.642609 0
M  V30 4737 H 442.511 -0.0532952 -2.04431 0
M  V30 4738 H 440.666 2.12284 -3.24059 0
M  V30 4739 H 441.08 1.00053 -5.14868 0
M  V30 4740 H 442.554 2.67996 -4.82578 0
M  V30 4741 H 443.031 3.04142 -3.16851 0
M  V30 4742 H 443.637 1.56542 -3.95443 0
M  V30 4743 N 441.952 1.55251 0.271103 0
M  V30 4744 C 443.229 1.66664 1.02384 0
M  V30 4745 C 443.609 0.534363 2.04225 0
M  V30 4746 O 442.957 -0.465337 2.23712 0
M  V30 4747 C 443.167 3.05961 1.67895 0
M  V30 4748 C 444.515 3.63772 2.18986 0
M  V30 4749 O 445.539 3.08606 1.77878 0
M  V30 4750 O 444.398 4.60429 2.94393 0
M  V30 4751 H 441.492 0.676957 0.475035 0
M  V30 4752 H 444.038 1.67589 0.26681 0
M  V30 4753 H 442.81 3.79815 0.941071 0
M  V30 4754 H 442.433 3.08943 2.5028 0
M  V30 4755 N 443.43 -0.535701 1.48216 0
M  V30 4756 C 444.36 -1.65014 1.65204 0
M  V30 4757 C 445.341 -1.62554 0.501011 0
M  V30 4758 O 446.526 -1.7984 0.732886 0
M  V30 4759 C 443.656 -3.03616 1.68626 0
M  V30 4760 C 442.61 -3.20932 2.83172 0
M  V30 4761 C 441.936 -4.60537 2.71679 0
M  V30 4762 C 443.236 -3.04249 4.24535 0
M  V30 4763 H 444.93 -1.51053 2.58502 0
M  V30 4764 H 442.476 -0.725262 1.24402 0
M  V30 4765 H 444.429 -3.81446 1.79099 0
M  V30 4766 H 443.153 -3.18587 0.719026 0
M  V30 4767 H 441.812 -2.45517 2.72244 0
M  V30 4768 H 441.46 -4.72336 1.72937 0
M  V30 4769 H 441.16 -4.73069 3.48538 0
M  V30 4770 H 442.684 -5.40475 2.84112 0
M  V30 4771 H 444.098 -3.71877 4.36326 0
M  V30 4772 H 442.495 -3.28278 5.02348 0
M  V30 4773 H 443.565 -2.00739 4.41397 0
M  V30 4774 N 444.908 -1.36708 -0.784132 0
M  V30 4775 C 446.185 -1.21776 -1.53069 0
M  V30 4776 C 446.565 0.193876 -2.10208 0
M  V30 4777 O 445.913 1.20012 -1.94446 0
M  V30 4778 C 446.123 -2.30395 -2.62143 0
M  V30 4779 C 447.471 -2.67325 -3.29882 0
M  V30 4780 O 448.495 -2.29478 -2.7243 0
M  V30 4781 O 447.354 -3.32485 -4.33724 0
M  V30 4782 H 444.448 -0.474459 -0.677361 0
M  V30 4783 H 446.994 -1.48454 -0.82216 0
M  V30 4784 H 445.766 -3.2498 -2.17953 0
M  V30 4785 H 445.389 -2.05112 -3.40609 0
M  V30 4786 N 446.386 1.0089 -1.21074 0
M  V30 4787 C 447.633 1.74607 -1.0256 0
M  V30 4788 C 447.961 1.89426 0.44136 0
M  V30 4789 O 447.216 1.42266 1.34384 0
M  V30 4790 C 447.515 3.16335 -1.66334 0
M  V30 4791 C 447.181 3.21474 -3.16173 0
M  V30 4792 C 445.843 3.22583 -3.57062 0
M  V30 4793 C 448.195 3.19025 -4.12156 0
M  V30 4794 C 445.523 3.18925 -4.92446 0
M  V30 4795 C 447.875 3.16909 -5.47496 0
M  V30 4796 C 446.539 3.16326 -5.87787 0
M  V30 4797 H 445.809 0.638933 -0.375294 0
M  V30 4798 H 448.456 1.18274 -1.50611 0
M  V30 4799 H 446.761 3.75876 -1.10566 0
M  V30 4800 H 448.458 3.72083 -1.49516 0
M  V30 4801 H 445.048 3.2135 -2.83605 0
M  V30 4802 H 449.232 3.17332 -3.81595 0
M  V30 4803 H 444.488 3.16809 -5.22917 0
M  V30 4804 H 448.662 3.13968 -6.21609 0
M  V30 4805 H 446.289 3.13246 -6.92662 0
M  V30 4806 N 447.864 1.01787 1.20321 0
M  V30 4807 C 448.774 0.598898 2.26827 0
M  V30 4808 C 449.79 -0.36418 1.70146 0
M  V30 4809 O 450.966 -0.224812 2.00141 0
M  V30 4810 C 448.031 -0.0549769 3.46656 0
M  V30 4811 C 447.092 0.954205 4.18561 0
M  V30 4812 C 446.325 0.331439 5.3267 0
M  V30 4813 O 446.548 -0.86851 5.63749 0
M  V30 4814 O 445.482 1.0488 5.92692 0
M  V30 4815 H 449.308 1.48562 2.64883 0
M  V30 4816 H 446.893 0.787434 1.26964 0
M  V30 4817 H 448.775 -0.420102 4.19301 0
M  V30 4818 H 447.45 -0.915876 3.10473 0
M  V30 4819 H 446.357 1.37072 3.48083 0
M  V30 4820 H 447.69 1.78511 4.58688 0
M  V30 4821 N 449.342 -1.36122 0.79427 0
M  V30 4822 C 450.57 -2.03362 0.380989 0
M  V30 4823 C 450.985 -1.59881 -1.00416 0
M  V30 4824 O 450.342 -0.790515 -1.6449 0
M  V30 4825 C 450.393 -3.58804 0.440649 0
M  V30 4826 O 450.114 -4.007 1.77118 0
M  V30 4827 C 451.615 -4.43296 0.0186117 0
M  V30 4828 H 448.835 -0.652526 0.156367 0
M  V30 4829 H 451.379 -1.73998 1.07447 0
M  V30 4830 H 449.534 -3.8686 -0.204458 0
M  V30 4831 H 449.948 -4.95309 1.72538 0
M  V30 4832 H 451.422 -5.51887 0.111488 0
M  V30 4833 H 451.899 -4.2684 -1.03461 0
M  V30 4834 H 452.505 -4.20512 0.636395 0
M  V30 4835 N 450.82 -0.546701 -1.47814 0
M  V30 4836 C 451.75 0.195317 -2.32682 0
M  V30 4837 C 452.731 0.918981 -1.43139 0
M  V30 4838 O 453.916 0.901501 -1.72008 0
M  V30 4839 C 451.046 1.23237 -3.247 0
M  V30 4840 C 450 0.625818 -4.234 0
M  V30 4841 C 449.326 1.76674 -5.04669 0
M  V30 4842 C 450.626 -0.413515 -5.2066 0
M  V30 4843 H 452.32 -0.513184 -2.94969 0
M  V30 4844 H 449.866 -0.248241 -1.41844 0
M  V30 4845 H 451.819 1.75955 -3.82907 0
M  V30 4846 H 450.543 1.97067 -2.60446 0
M  V30 4847 H 449.202 0.120023 -3.66403 0
M  V30 4848 H 448.85 2.49383 -4.36826 0
M  V30 4849 H 448.55 1.36673 -5.71484 0
M  V30 4850 H 450.074 2.29738 -5.65732 0
M  V30 4851 H 451.488 0.0272042 -5.73294 0
M  V30 4852 H 449.885 -0.731825 -5.95621 0
M  V30 4853 H 450.955 -1.31325 -4.66778 0
M  V30 4854 N 452.299 1.55045 -0.282633 0
M  V30 4855 C 453.529 2.03872 0.334635 0
M  V30 4856 C 453.937 1.16018 1.49454 0
M  V30 4857 O 453.28 0.174449 1.8287 0
M  V30 4858 C 453.342 3.48791 0.870905 0
M  V30 4859 C 453.006 4.56715 -0.161338 0
M  V30 4860 C 454.003 5.10513 -0.983466 0
M  V30 4861 C 451.688 5.01417 -0.297745 0
M  V30 4862 C 453.682 6.07538 -1.92811 0
M  V30 4863 C 451.369 5.98265 -1.24586 0
M  V30 4864 C 452.367 6.51208 -2.05954 0
M  V30 4865 O 452.055 7.46162 -2.99162 0
M  V30 4866 H 451.787 0.671324 0.0793742 0
M  V30 4867 H 454.341 2.01169 -0.41473 0
M  V30 4868 H 452.571 3.48758 1.67047 0
M  V30 4869 H 454.26 3.80916 1.40207 0
M  V30 4870 H 455.026 4.76785 -0.888856 0
M  V30 4871 H 450.905 4.59849 0.325604 0
M  V30 4872 H 454.449 6.48787 -2.56363 0
M  V30 4873 H 450.346 6.31412 -1.34126 0
M  V30 4874 H 451.114 7.63903 -2.93929 0
M  V30 4875 N 453.777 0.010035 1.57597 0
M  V30 4876 C 454.709 -1.00649 2.05918 0
M  V30 4877 C 455.722 -1.30077 0.978964 0
M  V30 4878 O 456.911 -1.26878 1.25556 0
M  V30 4879 C 454.011 -2.33876 2.45265 0
M  V30 4880 C 453.184 -2.23242 3.7614 0
M  V30 4881 C 452.243 -3.39242 4.02245 0
M  V30 4882 O 451.269 -3.1698 4.72771 0
M  V30 4883 N 452.471 -4.6242 3.50924 0
M  V30 4884 H 455.236 -0.594333 2.93748 0
M  V30 4885 H 452.797 -0.17714 1.60928 0
M  V30 4886 H 454.789 -3.1027 2.59836 0
M  V30 4887 H 453.359 -2.66799 1.62902 0
M  V30 4888 H 452.579 -1.31696 3.71551 0
M  V30 4889 H 453.867 -2.13321 4.61922 0
M  V30 4890 H 453.265 -4.83404 2.93832 0
M  V30 4891 H 451.822 -5.36046 3.70807 0
M  V30 4892 N 455.255 -1.55392 -0.262866 0
M  V30 4893 C 456.485 -1.80251 -1.00961 0
M  V30 4894 C 456.893 -0.58117 -1.80053 0
M  V30 4895 O 456.236 0.459427 -1.77862 0
M  V30 4896 C 456.298 -2.98207 -2.00781 0
M  V30 4897 C 455.962 -4.34856 -1.40533 0
M  V30 4898 C 456.959 -5.13459 -0.815853 0
M  V30 4899 C 454.644 -4.8153 -1.42948 0
M  V30 4900 C 456.638 -6.36875 -0.258562 0
M  V30 4901 C 454.325 -6.04899 -0.868334 0
M  V30 4902 C 455.323 -6.8241 -0.283884 0
M  V30 4903 O 455.011 -8.03451 0.268644 0
M  V30 4904 H 454.743 -0.604049 -0.303482 0
M  V30 4905 H 457.297 -2.03257 -0.295926 0
M  V30 4906 H 455.527 -2.70917 -2.75936 0
M  V30 4907 H 457.216 -3.10299 -2.61667 0
M  V30 4908 H 457.982 -4.78526 -0.789812 0
M  V30 4909 H 453.861 -4.21201 -1.87378 0
M  V30 4910 H 457.405 -6.97318 0.198257 0
M  V30 4911 H 453.302 -6.39312 -0.891649 0
M  V30 4912 H 454.07 -8.18346 0.158974 0
M  V30 4913 N 456.733 0.527833 -1.48498 0
M  V30 4914 C 457.666 1.64892 -1.57753 0
M  V30 4915 C 458.644 1.5687 -0.427867 0
M  V30 4916 O 459.828 1.77311 -0.639764 0
M  V30 4917 C 456.955 3.03301 -1.50752 0
M  V30 4918 C 456.001 3.29675 -2.70586 0
M  V30 4919 S 456.834 3.15712 -4.32535 0
M  V30 4920 C 457.99 4.56564 -4.28136 0
M  V30 4921 H 458.223 1.56792 -2.52594 0
M  V30 4922 H 455.756 0.710959 -1.37057 0
M  V30 4923 H 457.714 3.83123 -1.474 0
M  V30 4924 H 456.375 3.08839 -0.572454 0
M  V30 4925 H 455.568 4.3065 -2.61833 0
M  V30 4926 H 455.17 2.57526 -2.71212 0
M  V30 4927 H 457.462 5.48126 -3.98201 0
M  V30 4928 H 458.405 4.70371 -5.29298 0
M  V30 4929 H 458.813 4.35987 -3.58574 0
M  V30 4930 N 458.211 1.37122 0.776871 0
M  V30 4931 C 459.141 1.35164 1.90402 0
M  V30 4932 C 460.122 0.221069 1.68657 0
M  V30 4933 O 461.307 0.420642 1.8959 0
M  V30 4934 C 458.437 1.15274 3.27611 0
M  V30 4935 C 457.391 2.25289 3.63908 0
M  V30 4936 C 456.717 1.90527 4.99603 0
M  V30 4937 C 458.017 3.67446 3.71188 0
M  V30 4938 H 459.711 2.29482 1.92297 0
M  V30 4939 H 457.257 1.10465 0.923773 0
M  V30 4940 H 459.21 1.12536 4.06096 0
M  V30 4941 H 457.934 0.174102 3.26136 0
M  V30 4942 H 456.593 2.27174 2.87728 0
M  V30 4943 H 456.241 0.91206 4.94662 0
M  V30 4944 H 455.941 2.64193 5.24858 0
M  V30 4945 H 457.465 1.89367 5.80493 0
M  V30 4946 H 458.879 3.67719 4.39836 0
M  V30 4947 H 457.276 4.40123 4.07936 0
M  V30 4948 H 458.346 4.01443 2.71977 0
M  V30 4949 N 459.689 -1.00246 1.21608 0
M  V30 4950 C 460.914 -1.78167 1.06167 0
M  V30 4951 C 461.339 -1.84138 -0.384035 0
M  V30 4952 O 460.697 -1.28683 -1.27712 0
M  V30 4953 C 460.745 -3.19786 1.66642 0
M  V30 4954 O 459.849 -4.02153 0.913613 0
M  V30 4955 H 459.19 -0.549 0.37349 0
M  V30 4956 H 461.72 -1.25994 1.61204 0
M  V30 4957 H 461.73 -3.70451 1.70969 0
M  V30 4958 H 460.405 -3.14754 2.7185 0
M  V30 4959 H 458.982 -3.60711 0.945635 0
M  V30 4960 N 461.167 -1.02423 -1.1978 0
M  V30 4961 C 462.444 -0.632802 -1.85081 0
M  V30 4962 C 462.824 0.888745 -1.9148 0
M  V30 4963 O 462.172 1.78357 -1.42832 0
M  V30 4964 C 462.382 -1.28947 -3.24305 0
M  V30 4965 C 463.73 -1.40976 -4.00513 0
M  V30 4966 O 464.754 -1.24628 -3.33686 0
M  V30 4967 O 463.613 -1.67467 -5.20209 0
M  V30 4968 H 460.707 -0.219348 -0.79738 0
M  V30 4969 H 463.253 -1.12209 -1.27307 0
M  V30 4970 H 462.025 -2.3288 -3.14456 0
M  V30 4971 H 461.648 -0.787748 -3.89718 0
M  V30 4972 N 462.645 1.35699 -0.801477 0
M  V30 4973 C 463.592 2.29876 -0.206294 0
M  V30 4974 C 464.562 1.52565 0.656752 0
M  V30 4975 O 465.747 1.81024 0.602906 0
M  V30 4976 C 462.887 3.39052 0.643272 0
M  V30 4977 C 462 4.31335 -0.239644 0
M  V30 4978 C 461.135 5.27599 0.61744 0
M  V30 4979 C 460.174 6.11521 -0.26619 0
M  V30 4980 N 459.311 6.99938 0.550571 0
M  V30 4981 H 464.151 2.80187 -1.01484 0
M  V30 4982 H 461.688 1.37902 -0.511997 0
M  V30 4983 H 463.646 4.0101 1.15094 0
M  V30 4984 H 462.276 2.9003 1.41713 0
M  V30 4985 H 461.328 3.70426 -0.865381 0
M  V30 4986 H 462.64 4.90243 -0.919985 0
M  V30 4987 H 461.794 5.94906 1.19045 0
M  V30 4988 H 460.533 4.69176 1.33137 0
M  V30 4989 H 459.538 5.43166 -0.851507 0
M  V30 4990 H 460.763 6.72022 -0.9779 0
M  V30 4991 H 458.709 6.44008 1.24856 0
M  V30 4992 H 458.626 7.55966 -0.071832 0
M  V30 4993 H 459.894 7.71599 1.10702 0
M  V30 4994 N 464.123 0.554532 1.47522 0
M  V30 4995 C 465.07 -0.19466 2.29978 0
M  V30 4996 C 466.04 -0.910882 1.38896 0
M  V30 4997 O 467.225 -0.907102 1.67858 0
M  V30 4998 C 464.365 -1.22035 3.22802 0
M  V30 4999 C 463.478 -0.510474 4.28973 0
M  V30 5000 C 462.613 -1.52123 5.08952 0
M  V30 5001 C 461.652 -0.796173 6.069 0
M  V30 5002 N 460.789 -1.75363 6.79847 0
M  V30 5003 H 465.629 0.51461 2.93523 0
M  V30 5004 H 463.166 0.265607 1.44682 0
M  V30 5005 H 465.124 -1.8276 3.7504 0
M  V30 5006 H 463.754 -1.89769 2.61127 0
M  V30 5007 H 462.806 0.211234 3.79813 0
M  V30 5008 H 464.118 0.0576503 4.98767 0
M  V30 5009 H 463.272 -2.20207 5.65326 0
M  V30 5010 H 462.011 -2.12327 4.39054 0
M  V30 5011 H 461.016 -0.101388 5.49707 0
M  V30 5012 H 462.241 -0.199911 6.78806 0
M  V30 5013 H 460.187 -2.3443 6.12682 0
M  V30 5014 H 460.104 -1.23759 7.45801 0
M  V30 5015 H 461.372 -2.4257 7.40797 0
M  V30 5016 N 465.601 -1.54893 0.290851 0
M  V30 5017 C 466.549 -2.24579 -0.605576 0
M  V30 5018 C 467.543 -1.24824 -1.14522 0
M  V30 5019 O 468.749 -1.42706 -1.09704 0
M  V30 5020 H 465.124 -0.720946 -0.213872 0
M  V30 5021 H 467.095 -2.984 0.0048173 0
M  V30 5022 C 465.844 -2.99224 -1.77088 0
M  V30 5023 H 465.167 -3.75782 -1.36484 0
M  V30 5024 H 466.607 -3.51281 -2.3744 0
M  V30 5025 C 465.066 -2.05602 -2.66888 0
M  V30 5026 O 465.596 -1.61745 -3.67698 0
M  V30 5027 N 463.802 -1.71771 -2.34399 0
M  V30 5028 H 463.349 -2.07633 -1.52468 0
M  V30 5029 H 463.307 -1.09403 -2.94751 0
M  V30 5030 N 467.08 -0.0183926 -1.57589 0
M  V30 5031 C 468.357 0.700621 -1.82622 0
M  V30 5032 C 468.737 1.90951 -0.90005 0
M  V30 5033 O 468.085 2.28452 0.0469145 0
M  V30 5034 C 468.295 1.08899 -3.31575 0
M  V30 5035 C 469.643 1.48514 -3.9778 0
M  V30 5036 O 470.667 1.18227 -3.36007 0
M  V30 5037 O 469.526 2.04903 -5.06633 0
M  V30 5038 H 466.62 0.342743 -0.752633 0
M  V30 5039 H 469.166 -0.0452548 -1.6964 0
M  V30 5040 H 467.938 0.228113 -3.90635 0
M  V30 5041 H 467.561 1.89338 -3.49624 0
M  V30 5042 N 468.558 1.5553 0.254621 0
M  V30 5043 C 469.505 1.89666 1.31512 0
M  V30 5044 C 470.475 0.750057 1.482 0
M  V30 5045 O 471.66 1.00301 1.62309 0
M  V30 5046 C 468.8 2.19009 2.667 0
M  V30 5047 C 467.913 3.46435 2.58083 0
M  V30 5048 C 467.048 3.65386 3.85573 0
M  V30 5049 C 466.087 4.8644 3.71541 0
M  V30 5050 N 465.224 5.01952 4.90906 0
M  V30 5051 H 470.064 2.80109 1.017 0
M  V30 5052 H 467.601 1.38666 0.490938 0
M  V30 5053 H 469.559 2.34025 3.45381 0
M  V30 5054 H 468.189 1.31779 2.94676 0
M  V30 5055 H 467.241 3.39792 1.71013 0
M  V30 5056 H 468.553 4.35258 2.43622 0
M  V30 5057 H 467.707 3.80319 4.72697 0
M  V30 5058 H 466.446 2.74781 4.02922 0
M  V30 5059 H 465.451 4.71491 2.82801 0
M  V30 5060 H 466.676 5.78497 3.55694 0
M  V30 5061 H 464.622 4.14283 5.08631 0
M  V30 5062 H 464.539 5.84851 4.79046 0
M  V30 5063 H 465.807 5.21289 5.7955 0
M  V30 5064 N 470.036 -0.519951 1.48776 0
M  V30 5065 C 470.968 -1.63973 1.60142 0
M  V30 5066 C 471.981 -1.55404 0.485117 0
M  V30 5067 O 473.17 -1.61682 0.756391 0
M  V30 5068 C 470.27 -3.02676 1.52449 0
M  V30 5069 C 469.443 -3.36624 2.79291 0
M  V30 5070 C 468.502 -4.54652 2.64912 0
M  V30 5071 O 467.528 -4.57374 3.38818 0
M  V30 5072 N 468.73 -5.53432 1.75195 0
M  V30 5073 H 471.495 -1.54656 2.56713 0
M  V30 5074 H 469.056 -0.707439 1.45626 0
M  V30 5075 H 471.048 -3.79525 1.4051 0
M  V30 5076 H 469.618 -3.06018 0.638125 0
M  V30 5077 H 468.838 -2.48855 3.0572 0
M  V30 5078 H 470.126 -3.56094 3.6342 0
M  V30 5079 H 469.524 -5.54018 1.14371 0
M  V30 5080 H 468.081 -6.29459 1.69189 0
M  V30 5081 N 471.514 -1.37532 -0.769588 0
M  V30 5082 C 472.762 -1.32597 -1.5252 0
M  V30 5083 C 473.083 0.0884294 -1.94799 0
M  V30 5084 O 472.353 1.03289 -1.66458 0
M  V30 5085 H 470.933 -0.487846 -0.565699 0
M  V30 5086 H 473.595 -1.72044 -0.915806 0
M  V30 5087 H 472.691 -1.96643 -2.42359 0
M  V30 5088 N 472.992 0.995999 -1.22138 0
M  V30 5089 C 474.238 1.73767 -1.04561 0
M  V30 5090 C 474.571 1.89633 0.418698 0
M  V30 5091 O 473.846 1.43723 1.3105 0
M  V30 5092 C 474.129 3.14505 -1.75382 0
M  V30 5093 C 473.982 3.06306 -3.29388 0
M  V30 5094 C 475.301 4.13615 -1.50369 0
M  V30 5095 H 472.42 0.630728 -0.38125 0
M  V30 5096 H 475.062 1.16057 -1.50435 0
M  V30 5097 H 473.212 3.63775 -1.36383 0
M  V30 5098 H 474.884 2.64681 -3.77812 0
M  V30 5099 H 473.127 2.43186 -3.59226 0
M  V30 5100 H 473.798 4.05884 -3.74116 0
M  V30 5101 H 476.274 3.73089 -1.84239 0
M  V30 5102 H 475.15 5.10212 -2.02421 0
M  V30 5103 H 475.411 4.39949 -0.435611 0
M  V30 5104 N 474.47 1.03057 1.19235 0
M  V30 5105 C 475.402 0.570932 2.21975 0
M  V30 5106 C 476.415 -0.354088 1.58903 0
M  V30 5107 O 477.604 -0.150211 1.77867 0
M  V30 5108 C 474.704 -0.187152 3.38383 0
M  V30 5109 C 473.877 0.743231 4.31039 0
M  V30 5110 C 472.936 0.0302493 5.26191 0
M  V30 5111 O 471.962 0.657371 5.65391 0
M  V30 5112 N 473.164 -1.23991 5.67104 0
M  V30 5113 H 475.929 1.45456 2.62036 0
M  V30 5114 H 473.49 0.909807 1.33918 0
M  V30 5115 H 475.482 -0.673715 3.99053 0
M  V30 5116 H 474.052 -0.972205 2.97098 0
M  V30 5117 H 473.272 1.40985 3.68126 0
M  V30 5118 H 474.56 1.3755 4.89854 0
M  V30 5119 H 473.958 -1.77011 5.37293 0
M  V30 5120 H 472.515 -1.67093 6.30018 0
M  V30 5121 N 475.948 -1.35272 0.808662 0
M  V30 5122 C 476.881 -2.27595 0.165994 0
M  V30 5123 C 477.859 -1.48189 -0.669241 0
M  V30 5124 O 479.043 -1.77444 -0.636073 0
M  V30 5125 C 476.17 -3.29843 -0.769505 0
M  V30 5126 C 475.216 -4.26498 -0.0136267 0
M  V30 5127 S 476.049 -5.18878 1.32384 0
M  V30 5128 C 477.205 -6.24666 0.392838 0
M  V30 5129 H 477.438 -2.81755 0.948756 0
M  V30 5130 H 474.971 -1.42103 0.603828 0
M  V30 5131 H 476.929 -3.89247 -1.30374 0
M  V30 5132 H 475.59 -2.74558 -1.52567 0
M  V30 5133 H 474.783 -4.98769 -0.724227 0
M  V30 5134 H 474.385 -3.71274 0.450713 0
M  V30 5135 H 476.677 -6.7619 -0.4211 0
M  V30 5136 H 477.62 -6.99741 1.0848 0
M  V30 5137 H 478.028 -5.64499 -0.0123908 0
M  V30 5138 N 477.426 -0.562348 -1.47226 0
M  V30 5139 C 478.672 -0.0402761 -2.0276 0
M  V30 5140 C 479.005 1.30823 -1.43523 0
M  V30 5141 O 478.28 1.85249 -0.592705 0
M  V30 5142 C 478.563 0.047311 -3.60069 0
M  V30 5143 C 478.416 -1.32865 -4.29729 0
M  V30 5144 C 479.735 0.758182 -4.3352 0
M  V30 5145 H 476.854 -0.0161105 -0.736824 0
M  V30 5146 H 479.496 -0.725628 -1.75598 0
M  V30 5147 H 477.646 0.630986 -3.83342 0
M  V30 5148 H 479.318 -1.95593 -4.17781 0
M  V30 5149 H 477.561 -1.90195 -3.89882 0
M  V30 5150 H 478.232 -1.22004 -5.38349 0
M  V30 5151 H 480.708 0.262546 -4.15271 0
M  V30 5152 H 479.584 0.78844 -5.43208 0
M  V30 5153 H 479.845 1.81537 -4.03109 0
M  V30 5154 N 478.904 1.54736 -0.299062 0
M  V30 5155 C 479.834 2.26409 0.571085 0
M  V30 5156 C 480.815 1.2629 1.13951 0
M  V30 5157 O 482 1.55059 1.16921 0
M  V30 5158 C 479.13 3.00338 1.74396 0
M  V30 5159 C 478.084 4.07588 1.30599 0
M  V30 5160 C 477.41 4.69222 2.56387 0
M  V30 5161 C 478.71 5.20455 0.438645 0
M  V30 5162 H 480.404 2.99388 -0.0266991 0
M  V30 5163 H 477.95 1.43993 -0.0142812 0
M  V30 5164 H 479.903 3.49198 2.35878 0
M  V30 5165 H 478.627 2.24934 2.36796 0
M  V30 5166 H 477.286 3.59575 0.71424 0
M  V30 5167 H 476.934 3.9046 3.17097 0
M  V30 5168 H 476.634 5.41653 2.27784 0
M  V30 5169 H 478.158 5.20844 3.18675 0
M  V30 5170 H 479.572 5.65221 0.959085 0
M  V30 5171 H 477.969 5.99594 0.246466 0
M  V30 5172 H 479.039 4.8192 -0.536738 0
M  V30 5173 N 480.382 0.0267497 1.57577 0
M  V30 5174 C 481.631 -0.651736 1.9088 0
M  V30 5175 C 481.944 -1.73427 0.904576 0
M  V30 5176 O 483.15 -2.46923 1.12877 0
M  V30 5177 C 481.606 -1.21048 3.38933 0
M  V30 5178 C 481.214 -0.161362 4.47709 0
M  V30 5179 C 482.958 -1.86562 3.81307 0
M  V30 5180 C 480.865 -0.731611 5.86857 0
M  V30 5181 H 479.795 -0.247198 0.712326 0
M  V30 5182 H 482.446 0.0916641 1.83271 0
M  V30 5183 H 480.828 -2.00542 3.41466 0
M  V30 5184 H 482.002 0.61094 4.56732 0
M  V30 5185 H 480.317 0.394877 4.14523 0
M  V30 5186 H 482.914 -2.30178 4.8262 0
M  V30 5187 H 483.257 -2.70735 3.16241 0
M  V30 5188 H 483.79 -1.13762 3.81186 0
M  V30 5189 H 480.529 0.0719329 6.55461 0
M  V30 5190 H 480.049 -1.47245 5.81445 0
M  V30 5191 H 481.728 -1.22208 6.35354 0
M  V30 5192 N 481.861 -1.55662 -0.24637 0
M  V30 5193 C 483.277 -1.48098 -0.594907 0
M  V30 5194 C 483.477 -0.717044 -1.8831 0
M  V30 5195 O 482.533 -0.246618 -2.51293 0
M  V30 5196 C 483.846 -2.92507 -0.697146 0
M  V30 5197 C 485.394 -3.02881 -0.789436 0
M  V30 5198 C 485.869 -4.48598 -0.923232 0
M  V30 5199 N 487.36 -4.52538 -0.988088 0
M  V30 5200 C 488.095 -5.62536 -1.11089 0
M  V30 5201 N 487.591 -6.82342 -1.19919 0
M  V30 5202 N 489.384 -5.50334 -1.14408 0
M  V30 5203 H 481.535 -2.0377 0.599278 0
M  V30 5204 H 483.798 -0.925145 0.20691 0
M  V30 5205 H 483.504 -3.51242 0.179396 0
M  V30 5206 H 483.378 -3.43024 -1.5689 0
M  V30 5207 H 485.765 -2.44226 -1.65643 0
M  V30 5208 H 485.846 -2.55574 0.107482 0
M  V30 5209 H 485.49 -5.07864 -0.0607927 0
M  V30 5210 H 485.42 -4.93587 -1.8352 0
M  V30 5211 H 487.911 -3.66248 -0.931167 0
M  V30 5212 H 488.224 -7.61924 -1.29197 0
M  V30 5213 H 486.569 -6.85102 -1.16876 0
M  V30 5214 H 489.76 -4.5567 -1.07158 0
M  V30 5215 H 489.933 -6.36096 -1.23634 0
M  V30 5216 N 483.339 0.512053 -1.4905 0
M  V30 5217 C 484.271 1.63121 -1.6101 0
M  V30 5218 C 485.284 1.55145 -0.493352 0
M  V30 5219 O 486.473 1.61278 -0.764955 0
M  V30 5220 C 483.573 3.01863 -1.54052 0
M  V30 5221 C 482.746 3.35138 -2.81072 0
M  V30 5222 C 481.805 4.5324 -2.67319 0
M  V30 5223 O 480.831 4.55571 -3.41238 0
M  V30 5224 N 482.033 5.52495 -1.78127 0
M  V30 5225 H 484.798 1.53292 -2.5753 0
M  V30 5226 H 482.359 0.699706 -1.45999 0
M  V30 5227 H 484.351 3.78774 -1.42521 0
M  V30 5228 H 482.921 3.05675 -0.654345 0
M  V30 5229 H 482.141 2.4723 -3.07036 0
M  V30 5230 H 483.429 3.54162 -3.65304 0
M  V30 5231 H 482.827 5.53403 -1.17308 0
M  V30 5232 H 481.384 6.28553 -1.72525 0
M  V30 5233 N 484.817 1.37938 0.762283 0
M  V30 5234 C 486.064 1.33668 1.52115 0
M  V30 5235 C 486.392 -0.0759538 1.94352 0
M  V30 5236 O 485.647 -1.05121 1.6507 0
M  V30 5237 C 485.946 2.23042 2.79261 0
M  V30 5238 C 485.612 3.71159 2.56031 0
M  V30 5239 C 484.274 4.11523 2.49404 0
M  V30 5240 C 486.626 4.64955 2.35513 0
M  V30 5241 C 483.954 5.43784 2.20263 0
M  V30 5242 C 486.306 5.97464 2.07894 0
M  V30 5243 C 484.97 6.36922 1.99718 0
M  V30 5244 H 484.24 0.489127 0.556629 0
M  V30 5245 H 486.887 1.70224 0.877262 0
M  V30 5246 H 485.192 1.79512 3.48256 0
M  V30 5247 H 486.889 2.17047 3.37182 0
M  V30 5248 H 483.479 3.39153 2.62056 0
M  V30 5249 H 487.663 4.34623 2.39617 0
M  V30 5250 H 482.919 5.73307 2.12435 0
M  V30 5251 H 487.093 6.6969 1.91019 0
M  V30 5252 H 484.72 7.39331 1.76902 0
M  V30 5253 N 486.295 -0.989507 1.22664 0
M  V30 5254 C 487.543 -1.72612 1.05117 0
M  V30 5255 C 487.864 -1.90552 -0.414131 0
M  V30 5256 O 487.134 -1.4676 -1.29762 0
M  V30 5257 H 485.714 -0.639555 0.385977 0
M  V30 5258 H 488.376 -1.19158 1.54232 0
M  V30 5259 H 487.472 -2.71926 1.53175 0
M  V30 5260 N 487.773 -1.03688 -1.18687 0
M  V30 5261 C 489.05 -0.652397 -1.84399 0
M  V30 5262 C 489.43 0.868386 -1.92412 0
M  V30 5263 O 488.778 1.76832 -1.44716 0
M  V30 5264 C 488.988 -1.3238 -3.22919 0
M  V30 5265 C 490.336 -1.45216 -3.98996 0
M  V30 5266 O 491.36 -1.2816 -3.32345 0
M  V30 5267 O 490.219 -1.72975 -5.18403 0
M  V30 5268 H 487.313 -0.227793 -0.795009 0
M  V30 5269 H 489.859 -1.13553 -1.2611 0
M  V30 5270 H 488.631 -2.36202 -3.11968 0
M  V30 5271 H 488.254 -0.829039 -3.88861 0
M  V30 5272 N 489.251 1.34841 -0.815825 0
M  V30 5273 C 490.5 1.97755 -0.396976 0
M  V30 5274 C 490.813 1.65422 1.04379 0
M  V30 5275 O 492.019 2.21771 1.5662 0
M  V30 5276 C 490.475 3.53818 -0.658869 0
M  V30 5277 C 490.083 3.95051 -2.11278 0
M  V30 5278 C 491.827 4.23397 -0.305834 0
M  V30 5279 C 489.734 5.43997 -2.31994 0
M  V30 5280 H 488.664 0.739985 -0.1447 0
M  V30 5281 H 491.315 1.53781 -1.00118 0
M  V30 5282 H 489.697 3.95997 0.0154112 0
M  V30 5283 H 490.871 3.63998 -2.82564 0
M  V30 5284 H 489.186 3.38388 -2.42657 0
M  V30 5285 H 491.783 5.32899 -0.43854 0
M  V30 5286 H 492.126 4.09508 0.748952 0
M  V30 5287 H 492.659 3.8667 -0.934403 0
M  V30 5288 H 489.398 5.62865 -3.35952 0
M  V30 5289 H 488.918 5.76589 -1.65244 0
M  V30 5290 H 490.597 6.10584 -2.14001 0
M  V30 5291 N 490.729 0.570148 1.46925 0
M  V30 5292 C 491.975 0.0510284 2.02736 0
M  V30 5293 C 492.308 -1.3006 1.44215 0
M  V30 5294 O 491.583 -1.84932 0.602521 0
M  V30 5295 C 491.866 -0.028215 3.60089 0
M  V30 5296 C 491.719 1.35142 4.29018 0
M  V30 5297 C 493.038 -0.735181 4.33916 0
M  V30 5298 H 490.157 0.0200178 0.736728 0
M  V30 5299 H 492.799 0.73493 1.75211 0
M  V30 5300 H 490.949 -0.610648 3.83671 0
M  V30 5301 H 492.621 1.97806 4.16738 0
M  V30 5302 H 490.864 1.9226 3.88868 0
M  V30 5303 H 491.535 1.24857 5.37694 0
M  V30 5304 H 494.011 -0.240519 4.15404 0
M  V30 5305 H 492.887 -0.759622 5.43618 0
M  V30 5306 H 493.148 -1.79397 4.04066 0
M  V30 5307 N 492.207 -1.54576 0.307264 0
M  V30 5308 C 493.453 -2.0056 -0.300612 0
M  V30 5309 C 493.786 -1.1953 -1.53057 0
M  V30 5310 O 493.061 -0.27337 -1.92569 0
M  V30 5311 C 493.344 -3.54167 -0.650987 0
M  V30 5312 C 493.197 -4.45933 0.588539 0
M  V30 5313 C 494.516 -4.14645 -1.47506 0
M  V30 5314 H 491.635 -0.729075 -0.107788 0
M  V30 5315 H 494.277 -1.85286 0.420606 0
M  V30 5316 H 492.427 -3.67313 -1.26544 0
M  V30 5317 H 494.099 -4.44683 1.22697 0
M  V30 5318 H 492.342 -4.16274 1.22058 0
M  V30 5319 H 493.013 -5.51189 0.299153 0
M  V30 5320 H 495.489 -4.04973 -0.955821 0
M  V30 5321 H 494.365 -5.22269 -1.68899 0
M  V30 5322 H 494.626 -3.66921 -2.4662 0
M  V30 5323 N 493.685 -0.035106 -1.57561 0
M  V30 5324 C 494.617 0.973604 -2.07494 0
M  V30 5325 C 495.63 1.28504 -0.999534 0
M  V30 5326 O 496.819 1.24864 -1.27559 0
M  V30 5327 C 493.919 2.29945 -2.48955 0
M  V30 5328 C 493.092 2.1723 -3.79644 0
M  V30 5329 C 492.151 3.328 -4.07592 0
M  V30 5330 O 491.177 3.09418 -4.77754 0
M  V30 5331 N 492.379 4.56779 -3.58236 0
M  V30 5332 H 495.144 0.547525 -2.94656 0
M  V30 5333 H 492.705 0.151515 -1.61189 0
M  V30 5334 H 494.697 3.06097 -2.64739 0
M  V30 5335 H 493.267 2.64173 -1.67126 0
M  V30 5336 H 492.487 1.25768 -3.73599 0
M  V30 5337 H 493.775 2.05945 -4.65257 0
M  V30 5338 H 493.173 4.78668 -3.01485 0
M  V30 5339 H 491.73 5.30079 -3.79288 0
M  V30 5340 N 495.163 1.55791 0.238111 0
M  V30 5341 C 496.113 1.87444 1.29803 0
M  V30 5342 C 497.097 0.736043 1.43078 0
M  V30 5343 O 498.289 0.998146 1.46171 0
M  V30 5344 C 495.418 2.18028 2.65177 0
M  V30 5345 C 494.504 3.38217 2.55871 0
M  V30 5346 N 494.895 4.57264 2.16202 0
M  V30 5347 C 493.193 3.41502 2.86866 0
M  V30 5348 C 493.894 5.3941 2.17744 0
M  V30 5349 N 492.87 4.78695 2.57589 0
M  V30 5350 H 496.672 2.7701 0.981965 0
M  V30 5351 H 494.186 1.56135 0.44672 0
M  V30 5352 H 496.183 2.38873 3.4168 0
M  V30 5353 H 494.843 1.29765 2.97643 0
M  V30 5354 H 495.854 4.82727 1.87602 0
M  V30 5355 H 492.531 2.63536 3.23813 0
M  V30 5356 H 493.921 6.44671 1.89339 0
M  V30 5357 N 496.642 -0.504142 1.49319 0
M  V30 5358 C 497.888 -1.26033 1.58882 0
M  V30 5359 C 498.221 -1.92268 0.273274 0
M  V30 5360 O 497.496 -1.80567 -0.72291 0
M  V30 5361 C 497.779 -2.32976 2.7458 0
M  V30 5362 C 497.632 -1.71263 4.1592 0
M  V30 5363 C 498.951 -3.34561 2.85932 0
M  V30 5364 H 496.07 -0.456863 0.578312 0
M  V30 5365 H 498.712 -0.558965 1.81592 0
M  V30 5366 H 496.862 -2.92796 2.55348 0
M  V30 5367 H 498.534 -1.15294 4.4666 0
M  V30 5368 H 496.777 -1.01686 4.21714 0
M  V30 5369 H 497.448 -2.48816 4.92742 0
M  V30 5370 H 499.924 -2.84727 3.0343 0
M  V30 5371 H 498.8 -4.06754 3.68568 0
M  V30 5372 H 499.061 -3.96695 1.95154 0
M  V30 5373 N 498.12 -1.38341 -0.754957 0
M  V30 5374 C 499.397 -1.24995 -1.50451 0
M  V30 5375 C 499.777 0.149244 -2.10572 0
M  V30 5376 O 499.125 1.15861 -1.96948 0
M  V30 5377 C 499.335 -2.35904 -2.57197 0
M  V30 5378 C 500.683 -2.74262 -3.24138 0
M  V30 5379 O 501.707 -2.35205 -2.67501 0
M  V30 5380 O 500.566 -3.4161 -4.26574 0
M  V30 5381 H 497.66 -0.48872 -0.667144 0
M  V30 5382 H 500.206 -1.50165 -0.790486 0
M  V30 5383 H 498.978 -3.2953 -2.11011 0
M  V30 5384 H 498.601 -2.12291 -3.36182 0
M  V30 5385 N 499.598 0.982988 -1.23187 0
M  V30 5386 C 500.53 2.07729 -0.968572 0
M  V30 5387 C 501.543 1.62702 0.0564821 0
M  V30 5388 O 502.732 1.77603 -0.178733 0
M  V30 5389 C 499.832 3.36071 -0.436974 0
M  V30 5390 C 499.005 4.10081 -1.52159 0
M  V30 5391 C 498.064 5.16701 -0.99532 0
M  V30 5392 O 497.09 5.43727 -1.68373 0
M  V30 5393 N 498.292 5.80226 0.178192 0
M  V30 5394 H 501.057 2.30894 -1.9107 0
M  V30 5395 H 498.618 1.14949 -1.1401 0
M  V30 5396 H 500.61 4.04639 -0.0700051 0
M  V30 5397 H 499.18 3.09893 0.410509 0
M  V30 5398 H 498.4 3.36004 -2.06144 0
M  V30 5399 H 499.688 4.56295 -2.25105 0
M  V30 5400 H 499.086 5.60651 0.754096 0
M  V30 5401 H 497.643 6.49982 0.486449 0
M  V30 5402 N 501.076 1.04316 1.18135 0
M  V30 5403 C 502.006 0.657299 2.24058 0
M  V30 5404 C 502.987 -0.340678 1.66654 0
M  V30 5405 O 504.172 -0.220223 1.92947 0
M  V30 5406 C 501.302 0.0220715 3.47293 0
M  V30 5407 C 500.256 0.943857 4.17463 0
M  V30 5408 C 499.582 0.172973 5.3442 0
M  V30 5409 C 500.882 2.26409 4.70677 0
M  V30 5410 H 502.576 1.5428 2.56589 0
M  V30 5411 H 500.122 0.743263 1.23335 0
M  V30 5412 H 502.075 -0.259607 4.206 0
M  V30 5413 H 500.799 -0.898323 3.14003 0
M  V30 5414 H 499.458 1.20996 3.46057 0
M  V30 5415 H 499.106 -0.749907 4.97379 0
M  V30 5416 H 498.806 0.787098 5.82304 0
M  V30 5417 H 500.33 -0.101628 6.10515 0
M  V30 5418 H 501.744 2.04294 5.35665 0
M  V30 5419 H 500.141 2.8314 5.29105 0
M  V30 5420 H 501.211 2.90883 3.87962 0
M  V30 5421 N 502.554 -1.34406 0.822964 0
M  V30 5422 C 503.782 -2.02508 0.424039 0
M  V30 5423 C 504.197 -1.61975 -0.970022 0
M  V30 5424 O 503.554 -0.825228 -1.62777 0
M  V30 5425 C 503.605 -3.57789 0.516657 0
M  V30 5426 O 503.326 -3.96853 1.85577 0
M  V30 5427 C 504.827 -4.43157 0.112637 0
M  V30 5428 H 502.047 -0.649063 0.170173 0
M  V30 5429 H 504.591 -1.7168 1.11113 0
M  V30 5430 H 502.746 -3.87207 -0.122353 0
M  V30 5431 H 503.16 -4.91538 1.83005 0
M  V30 5432 H 504.634 -5.51527 0.228526 0
M  V30 5433 H 505.111 -4.28939 -0.943837 0
M  V30 5434 H 505.717 -4.19067 0.725449 0
M  V30 5435 N 504.032 -0.577932 -1.46621 0
M  V30 5436 C 504.962 0.145917 -2.33044 0
M  V30 5437 C 505.943 0.888412 -1.45056 0
M  V30 5438 O 507.128 0.864812 -1.73881 0
M  V30 5439 C 504.258 1.16322 -3.27241 0
M  V30 5440 C 503.212 0.535868 -4.24632 0
M  V30 5441 C 502.538 1.65929 -5.08303 0
M  V30 5442 C 503.838 -0.523861 -5.19666 0
M  V30 5443 H 505.532 -0.575636 -2.93814 0
M  V30 5444 H 503.078 -0.278272 -1.41286 0
M  V30 5445 H 505.031 1.67793 -3.86553 0
M  V30 5446 H 503.755 1.91498 -2.64567 0
M  V30 5447 H 502.414 0.0422759 -3.66576 0
M  V30 5448 H 502.062 2.40061 -4.42018 0
M  V30 5449 H 501.762 1.2452 -5.74255 0
M  V30 5450 H 503.286 2.17686 -5.70478 0
M  V30 5451 H 504.7 -0.0944059 -5.73222 0
M  V30 5452 H 503.097 -0.858 -5.93935 0
M  V30 5453 H 504.167 -1.41197 -4.63887 0
M  V30 5454 N 505.51 1.54411 -0.315457 0
M  V30 5455 C 506.442 2.21527 0.588067 0
M  V30 5456 C 507.455 1.21263 1.08624 0
M  V30 5457 O 508.644 1.47777 1.00121 0
M  V30 5458 C 505.744 2.85963 1.81875 0
M  V30 5459 C 504.917 4.12291 1.46063 0
M  V30 5460 C 503.976 4.60396 2.54799 0
M  V30 5461 O 503.002 5.25265 2.19283 0
M  V30 5462 N 504.204 4.33935 3.85591 0
M  V30 5463 H 506.969 2.99697 0.013414 0
M  V30 5464 H 504.53 1.61308 -0.138295 0
M  V30 5465 H 506.522 3.15071 2.53993 0
M  V30 5466 H 505.092 2.11548 2.30144 0
M  V30 5467 H 504.312 3.90036 0.571445 0
M  V30 5468 H 505.6 4.9452 1.19695 0
M  V30 5469 H 504.998 3.81996 4.17248 0
M  V30 5470 H 503.555 4.67718 4.53964 0
M  V30 5471 N 506.988 0.0434614 1.5754 0
M  V30 5472 C 507.938 -0.943039 2.07583 0
M  V30 5473 C 508.922 -1.27662 0.979342 0
M  V30 5474 O 510.114 -1.26034 1.24276 0
M  V30 5475 C 507.243 -2.22056 2.61813 0
M  V30 5476 C 506.329 -1.91471 3.78417 0
M  V30 5477 N 506.72 -1.31214 4.88484 0
M  V30 5478 C 505.018 -2.21384 3.87176 0
M  V30 5479 C 505.719 -1.18084 5.69588 0
M  V30 5480 N 504.695 -1.68116 5.16951 0
M  V30 5481 H 508.497 -0.472354 2.90079 0
M  V30 5482 H 506.011 -0.161191 1.61598 0
M  V30 5483 H 508.008 -2.93618 2.95963 0
M  V30 5484 H 506.668 -2.69738 1.80752 0
M  V30 5485 H 507.679 -0.985318 5.08441 0
M  V30 5486 H 504.356 -2.7164 3.17046 0
M  V30 5487 H 505.746 -0.713684 6.68099 0
M  V30 5488 N 508.466 -1.55915 -0.229846 0
M  V30 5489 C 509.429 -1.90914 -1.26824 0
M  V30 5490 C 510.429 -0.786999 -1.40225 0
M  V30 5491 O 511.619 -1.05484 -1.38632 0
M  V30 5492 C 508.751 -2.15264 -2.64337 0
M  V30 5493 H 509.944 -2.8378 -0.969998 0
M  V30 5494 H 507.497 -1.49069 -0.4699 0
M  V30 5495 H 508.232 -1.24923 -2.99274 0
M  V30 5496 H 508.017 -2.97005 -2.55989 0
M  V30 5497 H 509.507 -2.43467 -3.39284 0
M  V30 5498 N 509.944 0.496216 -1.49584 0
M  V30 5499 C 511.184 1.26015 -1.60933 0
M  V30 5500 C 511.548 1.89772 -0.291646 0
M  V30 5501 O 512.749 2.67334 -0.280357 0
M  V30 5502 C 511.02 2.29506 -2.73974 0
M  V30 5503 S 512.579 3.15175 -3.05303 0
M  V30 5504 H 509.397 0.428194 -0.567601 0
M  V30 5505 H 511.999 0.561484 -1.87263 0
M  V30 5506 H 510.703 1.81205 -3.68229 0
M  V30 5507 H 510.234 3.04036 -2.49651 0
M  V30 5508 H 512.249 4.30244 -2.47193 0
M  V30 5509 N 511.423 1.38739 0.74761 0
M  V30 5510 C 512.333 1.38696 1.89211 0
M  V30 5511 C 513.349 0.283303 1.71678 0
M  V30 5512 O 514.525 0.522713 1.94498 0
M  V30 5513 C 511.59 1.21662 3.24653 0
M  V30 5514 C 510.651 2.41886 3.54669 0
M  V30 5515 C 509.884 2.25655 4.83648 0
M  V30 5516 O 510.107 1.25339 5.56459 0
M  V30 5517 O 509.041 3.14372 5.13277 0
M  V30 5518 H 512.867 2.35143 1.92202 0
M  V30 5519 H 510.452 1.19721 0.893708 0
M  V30 5520 H 512.334 1.14246 4.05618 0
M  V30 5521 H 511.009 0.283024 3.2246 0
M  V30 5522 H 509.916 2.54877 2.73841 0
M  V30 5523 H 511.249 3.33895 3.61628 0
M  V30 5524 N 512.901 -0.976442 1.23707 0
M  V30 5525 C 513.833 -2.07212 0.979574 0
M  V30 5526 C 514.846 -1.6273 -0.0478528 0
M  V30 5527 O 516.035 -1.77506 0.18815 0
M  V30 5528 C 513.135 -3.35835 0.45479 0
M  V30 5529 C 512.308 -4.09268 1.54331 0
M  V30 5530 C 511.367 -5.16166 1.02271 0
M  V30 5531 O 510.393 -5.42827 1.71254 0
M  V30 5532 N 511.595 -5.80313 -0.147419 0
M  V30 5533 H 514.36 -2.29878 1.92292 0
M  V30 5534 H 511.921 -1.14343 1.14618 0
M  V30 5535 H 513.913 -4.04597 0.0914631 0
M  V30 5536 H 512.483 -3.10106 -0.394068 0
M  V30 5537 H 511.703 -3.34906 2.07923 0
M  V30 5538 H 512.991 -4.55095 2.27522 0
M  V30 5539 H 512.389 -5.61043 -0.724353 0
M  V30 5540 H 510.946 -6.50231 -0.451972 0
M  V30 5541 N 514.379 -1.04941 -1.1758 0
M  V30 5542 C 515.309 -0.669172 -2.23706 0
M  V30 5543 C 516.29 0.331835 -1.66832 0
M  V30 5544 O 517.475 0.209988 -1.93061 0
M  V30 5545 C 514.605 -0.0404889 -3.47276 0
M  V30 5546 C 513.559 -0.965983 -4.16957 0
M  V30 5547 C 512.885 -0.201312 -5.34321 0
M  V30 5548 C 514.185 -2.28902 -4.69469 0
M  V30 5549 H 515.879 -1.55639 -2.55767 0
M  V30 5550 H 513.425 -0.749793 -1.22939 0
M  V30 5551 H 515.378 0.237298 -4.20731 0
M  V30 5552 H 514.102 0.881658 -3.14475 0
M  V30 5553 H 512.761 -1.22829 -3.45411 0
M  V30 5554 H 512.409 0.723519 -4.97769 0
M  V30 5555 H 512.109 -0.817968 -5.81879 0
M  V30 5556 H 513.633 0.0692499 -6.10561 0
M  V30 5557 H 515.047 -2.07132 -5.34574 0
M  V30 5558 H 513.444 -2.85942 -5.27596 0
M  V30 5559 H 514.514 -2.92937 -3.86414 0
M  V30 5560 N 515.857 1.33968 -0.830081 0
M  V30 5561 C 516.804 2.29387 -0.255008 0
M  V30 5562 C 517.774 1.53923 0.624243 0
M  V30 5563 O 518.959 1.82262 0.564372 0
M  V30 5564 C 516.099 3.4034 0.571209 0
M  V30 5565 C 515.212 4.30729 -0.331083 0
M  V30 5566 C 514.347 5.2879 0.505389 0
M  V30 5567 C 513.386 6.10819 -0.395843 0
M  V30 5568 N 512.523 7.00948 0.401979 0
M  V30 5569 H 517.363 2.77972 -1.07404 0
M  V30 5570 H 514.9 1.36785 -0.541133 0
M  V30 5571 H 516.858 4.03361 1.06562 0
M  V30 5572 H 515.488 2.9297 1.35529 0
M  V30 5573 H 514.54 3.68507 -0.943759 0
M  V30 5574 H 515.852 4.88181 -1.02377 0
M  V30 5575 H 515.006 5.97297 1.06399 0
M  V30 5576 H 513.745 4.71894 1.23155 0
M  V30 5577 H 512.75 5.41238 -0.966529 0
M  V30 5578 H 513.975 6.69797 -1.12023 0
M  V30 5579 H 511.921 6.46512 1.11168 0
M  V30 5580 H 511.838 7.55643 -0.232167 0
M  V30 5581 H 513.106 7.73774 0.943102 0
M  V30 5582 N 517.335 0.585699 1.46312 0
M  V30 5583 C 518.563 0.0781299 2.06752 0
M  V30 5584 C 518.978 -1.22812 1.43396 0
M  V30 5585 O 518.335 -1.74318 0.540314 0
M  V30 5586 C 518.386 -0.0911927 3.61385 0
M  V30 5587 O 518.107 1.16336 4.22371 0
M  V30 5588 C 519.608 -0.632765 4.38761 0
M  V30 5589 H 516.828 0.0588188 0.668417 0
M  V30 5590 H 519.372 0.807218 1.87894 0
M  V30 5591 H 517.527 -0.770514 3.7966 0
M  V30 5592 H 517.941 0.979082 5.15281 0
M  V30 5593 H 519.415 -0.70041 5.47538 0
M  V30 5594 H 519.892 -1.65039 4.07012 0
M  V30 5595 H 520.498 0.0117856 4.25298 0
M  V30 5596 N 518.813 -1.54241 0.323641 0
M  V30 5597 C 520.043 -2.04687 -0.280464 0
M  V30 5598 C 520.451 -1.19939 -1.46326 0
M  V30 5599 O 519.794 -0.222872 -1.82343 0
M  V30 5600 C 519.856 -3.50978 -0.778123 0
M  V30 5601 C 519.52 -4.56127 0.282371 0
M  V30 5602 C 520.517 -5.07726 1.11847 0
M  V30 5603 C 518.202 -5.00451 0.430582 0
M  V30 5604 C 520.196 -6.02212 2.08851 0
M  V30 5605 C 517.883 -5.94752 1.40404 0
M  V30 5606 C 518.881 -6.45519 2.23147 0
M  V30 5607 O 518.569 -7.37968 3.1884 0
M  V30 5608 H 518.301 -0.673192 -0.0615473 0
M  V30 5609 H 520.855 -1.99999 0.467921 0
M  V30 5610 H 519.085 -3.53064 -1.57742 0
M  V30 5611 H 520.774 -3.84499 -1.30058 0
M  V30 5612 H 521.54 -4.74261 1.01496 0
M  V30 5613 H 517.419 -4.6055 -0.203569 0
M  V30 5614 H 520.963 -6.41761 2.73474 0
M  V30 5615 H 516.86 -6.27633 1.5082 0
M  V30 5616 H 517.628 -7.55841 3.14079 0
M  V30 5617 N 520.291 -0.0518155 -1.57515 0
M  V30 5618 C 521.538 0.621823 -1.92716 0
M  V30 5619 C 521.866 1.70813 -0.930229 0
M  V30 5620 O 521.121 1.95616 0.0573708 0
M  V30 5621 C 521.42 1.25607 -3.34601 0
M  V30 5622 C 521.086 0.297901 -4.49915 0
M  V30 5623 C 519.748 0.034243 -4.81188 0
M  V30 5624 C 522.1 -0.358738 -5.19964 0
M  V30 5625 C 519.428 -0.893479 -5.79857 0
M  V30 5626 C 521.78 -1.27466 -6.19625 0
M  V30 5627 C 520.444 -1.54698 -6.49326 0
M  V30 5628 H 519.714 0.227541 -0.705199 0
M  V30 5629 H 522.361 -0.118432 -1.91133 0
M  V30 5630 H 520.666 2.07161 -3.32553 0
M  V30 5631 H 522.363 1.78424 -3.59118 0
M  V30 5632 H 518.953 0.513581 -4.25512 0
M  V30 5633 H 523.137 -0.168133 -4.96015 0
M  V30 5634 H 518.393 -1.11193 -6.01204 0
M  V30 5635 H 522.567 -1.78953 -6.73015 0
M  V30 5636 H 520.194 -2.26748 -7.25596 0
M  V30 5637 N 521.769 1.56035 0.221574 0
M  V30 5638 C 522.716 1.92413 1.27459 0
M  V30 5639 C 523.686 0.781323 1.46576 0
M  V30 5640 O 524.871 1.03721 1.60145 0
M  V30 5641 C 522.011 2.24617 2.61995 0
M  V30 5642 C 521.124 3.51831 2.50677 0
M  V30 5643 C 520.259 3.73482 3.77736 0
M  V30 5644 C 519.298 4.94211 3.6114 0
M  V30 5645 N 518.435 5.12252 4.80148 0
M  V30 5646 H 523.275 2.82203 0.957355 0
M  V30 5647 H 520.812 1.39676 0.461415 0
M  V30 5648 H 522.77 2.41298 3.40339 0
M  V30 5649 H 521.4 1.38 2.91815 0
M  V30 5650 H 520.452 3.43343 1.63767 0
M  V30 5651 H 521.764 4.40328 2.34334 0
M  V30 5652 H 520.918 3.9026 4.64523 0
M  V30 5653 H 519.657 2.83266 3.97003 0
M  V30 5654 H 518.662 4.77384 2.72736 0
M  V30 5655 H 519.887 5.85912 3.43343 0
M  V30 5656 H 517.833 4.24978 4.99729 0
M  V30 5657 H 517.75 5.94881 4.66532 0
M  V30 5658 H 519.018 5.33465 5.68362 0
M  V30 5659 O 523.286 -0.367026 1.57274 0
M  V30 5660 H 523.977 -1.01783 1.64803 0
M  V30 END ATOM
M  V30 BEGIN BOND
M  V30 END BOND
M  V30 END CTAB
M  END
$$$$
