drugbank_target|Q9X278 Probable butyrate kinase 2 (DB01942; DB03909)
 OpenBabel12092120233D

  0  0  0     0  0            999 V3000
M  V30 BEGIN CTAB
M  V30 COUNTS 5952 6010 0 0 0
M  V30 BEGIN ATOM
M  V30 1 H -0.908 1.98254 -0.117106 0
M  V30 2 N 0 1.576 0 0
M  V30 3 C 0.933 2.03868 1.02534 0
M  V30 4 C 1.911 0.928543 1.3348 0
M  V30 5 O 3.095 1.19667 1.45644 0
M  V30 6 C 0.222 2.43627 2.35294 0
M  V30 7 C -0.732 3.65373 2.2001 0
M  V30 8 S 0.101 5.13292 1.52614 0
M  V30 9 C 1.257 5.56322 2.86805 0
M  V30 10 H 1.49 2.90518 0.631377 0
M  V30 11 H -0.977 1.52953 0.210867 0
M  V30 12 H 0.981 2.67203 3.11629 0
M  V30 13 H -0.358 1.57376 2.7183 0
M  V30 14 H -1.165 3.90944 3.18086 0
M  V30 15 H -1.563 3.418 1.51819 0
M  V30 16 H 0.729 5.58782 3.83104 0
M  V30 17 H 1.672 6.56266 2.65933 0
M  V30 18 H 2.08 4.83886 2.90714 0
M  V30 19 N 1.4781 -0.272755 1.55222 0
M  V30 20 C 2.7251 -1.00433 1.7584 0
M  V30 21 C 3.0531 -1.86275 0.559629 0
M  V30 22 O 2.3081 -1.90269 -0.457857 0
M  V30 23 C 2.6071 -1.91642 3.01675 0
M  V30 24 C 2.2731 -1.21548 4.34208 0
M  V30 25 C 0.9351 -1.02166 4.70229 0
M  V30 26 C 3.2871 -0.716684 5.16249 0
M  V30 27 C 0.6151 -0.316334 5.85847 0
M  V30 28 C 2.9671 -0.0249476 6.32595 0
M  V30 29 C 1.6311 0.180579 6.67256 0
M  V30 30 H 0.9011 -0.367509 0.643443 0
M  V30 31 H 3.5481 -0.276596 1.89492 0
M  V30 32 H 1.8531 -2.71037 2.82924 0
M  V30 33 H 3.5501 -2.48369 3.14824 0
M  V30 34 H 0.1401 -1.37645 4.05896 0
M  V30 35 H 4.3241 -0.854047 4.88896 0
M  V30 36 H -0.4199 -0.146378 6.11225 0
M  V30 37 H 3.7541 0.369311 6.9542 0
M  V30 38 H 1.3811 0.729098 7.56696 0
M  V30 39 N 2.9562 -1.48159 -0.537278 0
M  V30 40 C 4.3722 -1.34118 -0.865129 0
M  V30 41 C 4.5722 -0.346678 -1.98495 0
M  V30 42 O 3.6282 0.234715 -2.51407 0
M  V30 43 C 4.9412 -2.73963 -1.23954 0
M  V30 44 C 6.4892 -2.82397 -1.34984 0
M  V30 45 C 6.9642 -4.22928 -1.75772 0
M  V30 46 N 8.4552 -4.25566 -1.82887 0
M  V30 47 C 9.1902 -5.31235 -2.15817 0
M  V30 48 N 8.6862 -6.47189 -2.47222 0
M  V30 49 N 10.4792 -5.18624 -2.16761 0
M  V30 50 H 2.6302 -2.1144 0.201715 0
M  V30 51 H 4.8932 -0.947598 0.0275949 0
M  V30 52 H 4.5992 -3.48264 -0.490381 0
M  V30 53 H 4.4732 -3.0702 -2.19132 0
M  V30 54 H 6.8602 -2.08356 -2.08978 0
M  V30 55 H 6.9412 -2.5297 -0.379448 0
M  V30 56 H 6.5852 -4.97482 -1.02341 0
M  V30 57 H 6.5152 -4.49794 -2.73848 0
M  V30 58 H 9.0062 -3.41924 -1.60924 0
M  V30 59 H 9.3192 -7.23564 -2.71433 0
M  V30 60 H 7.6642 -6.50476 -2.44757 0
M  V30 61 H 10.8552 -4.27056 -1.91679 0
M  V30 62 H 11.0282 -6.01078 -2.42093 0
M  V30 63 N 4.4343 0.785586 -1.36625 0
M  V30 64 C 5.6833 1.53883 -1.30396 0
M  V30 65 C 5.9963 1.95271 0.113452 0
M  V30 66 O 7.2023 2.69858 0.298142 0
M  V30 67 C 5.6583 2.77808 -2.28802 0
M  V30 68 C 5.2663 2.43574 -3.75999 0
M  V30 69 C 7.0103 3.55783 -2.31558 0
M  V30 70 C 4.9173 3.63919 -4.66173 0
M  V30 71 H 3.8473 0.577678 -0.484566 0
M  V30 72 H 6.4983 0.861705 -1.62009 0
M  V30 73 H 4.8803 3.47339 -1.90188 0
M  V30 74 H 6.0543 1.81916 -4.23371 0
M  V30 75 H 4.3693 1.78803 -3.76056 0
M  V30 76 H 6.9663 4.45205 -2.96137 0
M  V30 77 H 7.3093 3.94644 -1.3252 0
M  V30 78 H 7.8423 2.93235 -2.68809 0
M  V30 79 H 4.5813 3.3015 -5.66287 0
M  V30 80 H 4.1013 4.2473 -4.23515 0
M  V30 81 H 5.7803 4.30901 -4.82632 0
M  V30 82 N 5.9124 1.20967 1.01018 0
M  V30 83 C 6.8424 0.988272 2.11555 0
M  V30 84 C 7.8234 -0.0849778 1.69888 0
M  V30 85 O 9.0084 0.0738202 1.9406 0
M  V30 86 C 6.1384 0.546528 3.42973 0
M  V30 87 C 5.0924 1.56375 3.9841 0
M  V30 88 C 4.4184 0.97842 5.25672 0
M  V30 89 C 5.7184 2.94922 4.31066 0
M  V30 90 H 7.4124 1.91276 2.30334 0
M  V30 91 H 4.9584 0.921073 1.1069 0
M  V30 92 H 6.9114 0.378839 4.19694 0
M  V30 93 H 5.6354 -0.413598 3.23971 0
M  V30 94 H 4.2944 1.71891 3.23804 0
M  V30 95 H 3.9424 0.0101688 5.02999 0
M  V30 96 H 3.6424 1.65784 5.63728 0
M  V30 97 H 5.1664 0.821939 6.05043 0
M  V30 98 H 6.5804 2.8288 4.9865 0
M  V30 99 H 4.9774 3.5983 4.80253 0
M  V30 100 H 6.0474 3.4616 3.39561 0
M  V30 101 N 7.3905 -1.2043 1.01659 0
M  V30 102 C 8.6185 -1.93777 0.725132 0
M  V30 103 C 9.0335 -1.74772 -0.714166 0
M  V30 104 O 8.3905 -1.06169 -1.4844 0
M  V30 105 C 8.4415 -3.45876 1.05129 0
M  V30 106 O 8.1625 -3.6426 2.43406 0
M  V30 107 C 9.6635 -4.36368 0.780891 0
M  V30 108 H 6.8835 -0.615901 0.266284 0
M  V30 109 H 9.4275 -1.52922 1.35776 0
M  V30 110 H 7.5825 -3.8461 0.464065 0
M  V30 111 H 7.9965 -4.58246 2.55169 0
M  V30 112 H 9.4705 -5.41743 1.05918 0
M  V30 113 H 9.9475 -4.38275 -0.284937 0
M  V30 114 H 10.5535 -4.03296 1.35027 0
M  V30 115 N 8.8686 -0.792821 -1.36206 0
M  V30 116 C 10.1176 -0.363353 -1.984 0
M  V30 117 C 10.4306 1.07172 -1.63626 0
M  V30 118 O 11.6366 1.60362 -2.19081 0
M  V30 119 C 10.0926 -0.59872 -3.54885 0
M  V30 120 C 9.7006 -2.04543 -3.9858 0
M  V30 121 C 11.4446 -0.233926 -4.23855 0
M  V30 122 C 9.3516 -2.22727 -5.47856 0
M  V30 123 H 8.2816 -0.13212 -0.742334 0
M  V30 124 H 10.9326 -0.974935 -1.55458 0
M  V30 125 H 9.3146 0.0826222 -3.95914 0
M  V30 126 H 10.4886 -2.76345 -3.68741 0
M  V30 127 H 8.8036 -2.36879 -3.42458 0
M  V30 128 H 11.4006 -0.348027 -5.33566 0
M  V30 129 H 11.7436 0.818351 -4.08177 0
M  V30 130 H 12.2766 -0.868639 -3.882 0
M  V30 131 H 9.0156 -3.2635 -5.68486 0
M  V30 132 H 8.5356 -1.55434 -5.7931 0
M  V30 133 H 10.2146 -2.03607 -6.14128 0
M  V30 134 N 10.3467 1.47872 -0.545128 0
M  V30 135 C 11.2947 2.31533 0.222512 0
M  V30 136 C 12.2887 1.42177 0.920985 0
M  V30 137 O 13.4947 1.59005 0.843645 0
M  V30 138 H 9.8697 0.746519 0.0906278 0
M  V30 139 H 11.8407 2.94139 -0.50246 0
M  V30 140 C 10.5897 3.2457 1.24699 0
M  V30 141 H 9.9127 3.93283 0.718944 0
M  V30 142 H 11.3527 3.85963 1.75523 0
M  V30 143 C 9.8117 2.47237 2.28856 0
M  V30 144 O 10.3417 2.20808 3.35569 0
M  V30 145 N 8.5477 2.08461 2.02466 0
M  V30 146 H 8.0947 2.30155 1.157 0
M  V30 147 H 8.0527 1.57033 2.72375 0
M  V30 148 N 11.8248 0.280983 1.55075 0
M  V30 149 C 13.2358 -0.215629 1.85451 0
M  V30 150 C 13.5868 -1.54991 1.203 0
M  V30 151 O 12.7118 -2.10699 0.493435 0
M  V30 152 C 13.3068 -0.398026 3.36454 0
M  V30 153 C 11.8658 -0.838866 3.66933 0
M  V30 154 C 11.0128 0.064458 2.77225 0
M  V30 155 H 13.9638 0.502601 1.50531 0
M  V30 156 H 13.9848 -1.23569 3.59876 0
M  V30 157 H 13.4968 0.573241 3.83843 0
M  V30 158 H 11.5978 -1.8214 3.25048 0
M  V30 159 H 11.7108 -0.672123 4.74362 0
M  V30 160 H 10.0748 -0.452863 2.50642 0
M  V30 161 H 10.8578 1.03172 3.2743 0
M  V30 162 N 13.3029 -1.57598 0.00835791 0
M  V30 163 C 14.5509 -1.90551 -0.6734 0
M  V30 164 C 14.8719 -0.883301 -1.73847 0
M  V30 165 O 14.1419 0.0781442 -1.95744 0
M  V30 166 H 12.7219 -0.703312 -0.251717 0
M  V30 167 H 15.3839 -1.94833 0.0512592 0
M  V30 168 H 14.4799 -2.9056 -1.13935 0
M  V30 169 N 14.781 0.264519 -1.55364 0
M  V30 170 C 16.006 1.01726 -1.80739 0
M  V30 171 C 16.431 1.78836 -0.583044 0
M  V30 172 O 15.789 1.75167 0.467566 0
M  V30 173 C 15.837 1.94482 -3.03659 0
M  V30 174 O 14.941 3.03386 -2.7934 0
M  V30 175 H 14.282 0.290395 -0.597132 0
M  V30 176 H 16.812 0.290854 -2.02522 0
M  V30 177 H 16.822 2.36278 -3.32621 0
M  V30 178 H 15.497 1.37772 -3.92418 0
M  V30 179 H 14.074 2.65844 -2.61498 0
M  V30 180 N 16.2591 1.48442 0.529413 0
M  V30 181 C 17.4871 1.60151 1.30994 0
M  V30 182 C 17.9021 0.261985 1.86973 0
M  V30 183 O 17.2591 -0.748805 1.66431 0
M  V30 184 C 17.3101 2.64854 2.46038 0
M  V30 185 O 17.0311 3.93608 1.92365 0
M  V30 186 C 18.5321 2.87007 3.37849 0
M  V30 187 H 15.7521 0.539971 0.398338 0
M  V30 188 H 18.2961 1.94273 0.638597 0
M  V30 189 H 16.4511 2.33589 3.09055 0
M  V30 190 H 16.8651 4.51055 2.67675 0
M  V30 191 H 18.3391 3.64068 4.14919 0
M  V30 192 H 18.8161 1.95852 3.93114 0
M  V30 193 H 19.4221 3.19579 2.80623 0
M  V30 194 N 17.7372 -0.778329 1.37039 0
M  V30 195 C 18.9622 -1.57248 1.35233 0
M  V30 196 C 19.3872 -1.87999 -0.0615568 0
M  V30 197 O 18.7452 -1.48734 -1.03672 0
M  V30 198 C 18.7932 -2.86353 2.19167 0
M  V30 199 O 17.8972 -3.80442 1.59178 0
M  V30 200 H 17.2382 -0.476569 0.462362 0
M  V30 201 H 19.7682 -0.963853 1.80474 0
M  V30 202 H 19.7782 -3.35519 2.32145 0
M  V30 203 H 18.4532 -2.63299 3.21942 0
M  V30 204 H 17.0302 -3.39067 1.55203 0
M  V30 205 N 19.2153 -1.21501 -1.00376 0
M  V30 206 C 20.4433 -1.059 -1.77744 0
M  V30 207 C 20.8583 0.391125 -1.84704 0
M  V30 208 O 20.2153 1.27133 -1.30933 0
M  V30 209 C 20.2663 -1.65111 -3.21591 0
M  V30 210 O 19.9873 -3.0445 -3.15027 0
M  V30 211 C 21.4883 -1.54637 -4.15454 0
M  V30 212 H 18.7083 -0.371825 -0.558558 0
M  V30 213 H 21.2523 -1.60865 -1.26264 0
M  V30 214 H 19.4073 -1.14235 -3.70175 0
M  V30 215 H 19.8213 -3.3278 -4.0541 0
M  V30 216 H 21.2953 -2.00808 -5.14179 0
M  V30 217 H 21.7723 -0.501022 -4.36333 0
M  V30 218 H 22.3783 -2.04767 -3.72761 0
M  V30 219 N 20.6934 1.19889 -1.02296 0
M  V30 220 C 21.6404 2.22901 -0.598651 0
M  V30 221 C 22.6104 1.61588 0.384521 0
M  V30 222 O 23.7954 1.88697 0.282522 0
M  V30 223 C 20.9354 3.45063 0.0504476 0
M  V30 224 C 20.0484 4.20783 -0.978053 0
M  V30 225 C 19.1834 5.30356 -0.299338 0
M  V30 226 C 18.2224 5.97826 -1.31416 0
M  V30 227 N 17.3594 6.98975 -0.661667 0
M  V30 228 H 22.1994 2.58554 -1.48169 0
M  V30 229 H 19.7364 1.27039 -0.741584 0
M  V30 230 H 21.6944 4.14831 0.443971 0
M  V30 231 H 20.3244 3.10084 0.897097 0
M  V30 232 H 19.3764 3.50018 -1.48969 0
M  V30 233 H 20.6884 4.67109 -1.74958 0
M  V30 234 H 19.8424 6.06516 0.149347 0
M  V30 235 H 18.5814 4.85084 0.504445 0
M  V30 236 H 17.5864 5.20422 -1.77317 0
M  V30 237 H 18.8114 6.45183 -2.11933 0
M  V30 238 H 16.7574 6.55886 0.122132 0
M  V30 239 H 16.6744 7.43461 -1.37117 0
M  V30 240 H 17.9424 7.7914 -0.236785 0
M  V30 241 N 22.1715 0.800033 1.35784 0
M  V30 242 C 23.1015 0.220184 2.3246 0
M  V30 243 C 24.0825 -0.65073 1.57161 0
M  V30 244 O 25.2675 -0.582359 1.85263 0
M  V30 245 C 22.3975 -0.637353 3.41402 0
M  V30 246 C 21.3515 0.134531 4.27789 0
M  V30 247 C 20.6775 -0.844285 5.27992 0
M  V30 248 C 21.9775 1.32979 5.05088 0
M  V30 249 H 23.6715 1.02787 2.81203 0
M  V30 250 H 21.2175 0.495717 1.35199 0
M  V30 251 H 23.1705 -1.05302 4.08031 0
M  V30 252 H 21.8945 -1.47785 2.91251 0
M  V30 253 H 20.5535 0.531296 3.6273 0
M  V30 254 H 20.2015 -1.68011 4.74111 0
M  V30 255 H 19.9015 -0.332184 5.8666 0
M  V30 256 H 21.4255 -1.2583 5.97494 0
M  V30 257 H 22.8395 0.98934 5.64699 0
M  V30 258 H 21.2365 1.77593 5.7322 0
M  V30 259 H 22.3065 2.11978 4.36111 0
M  V30 260 N 23.6496 -1.47581 0.552962 0
M  V30 261 C 24.8746 -2.07378 0.0300593 0
M  V30 262 C 25.2996 -1.40355 -1.25229 0
M  V30 263 O 24.6576 -0.477099 -1.7491 0
M  V30 264 C 24.7056 -3.60274 -0.153231 0
M  V30 265 O 23.8096 -3.94041 -1.21678 0
M  V30 266 H 23.1506 -0.662158 0.0494182 0
M  V30 267 H 25.6806 -1.89662 0.767434 0
M  V30 268 H 25.6906 -4.0633 -0.368761 0
M  V30 269 H 24.3656 -4.08455 0.783397 0
M  V30 270 H 22.9426 -3.59735 -0.982079 0
M  V30 271 N 25.1277 -0.289203 -1.54924 0
M  V30 272 C 26.3767 0.324231 -1.99077 0
M  V30 273 C 26.6897 1.5591 -1.18117 0
M  V30 274 O 27.8957 2.24637 -1.52481 0
M  V30 275 C 26.3517 0.628209 -3.54375 0
M  V30 276 C 25.9597 -0.587647 -4.44129 0
M  V30 277 C 27.7037 1.20349 -4.07083 0
M  V30 278 C 25.6107 -0.257475 -5.90839 0
M  V30 279 H 24.5407 0.124924 -0.743579 0
M  V30 280 H 27.1917 -0.396063 -1.79175 0
M  V30 281 H 25.5737 1.40778 -3.70132 0
M  V30 282 H 26.7477 -1.36418 -4.40144 0
M  V30 283 H 25.0627 -1.08074 -4.0213 0
M  V30 284 H 27.6597 1.46456 -5.14252 0
M  V30 285 H 28.0027 2.14195 -3.56968 0
M  V30 286 H 28.5357 0.485889 -3.94821 0
M  V30 287 H 25.2747 -1.16419 -6.45079 0
M  V30 288 H 24.7947 0.482018 -5.9786 0
M  V30 289 H 26.4737 0.145238 -6.46837 0
M  V30 290 N 26.6058 1.57591 -0.0167156 0
M  V30 291 C 27.8528 1.91283 0.664597 0
M  V30 292 C 28.1808 0.891949 1.72842 0
M  V30 293 O 27.4358 -0.100931 1.9544 0
M  V30 294 C 27.7348 3.3172 1.33029 0
M  V30 295 C 27.4008 4.4914 0.398047 0
M  V30 296 C 26.0628 4.80992 0.141421 0
M  V30 297 C 28.4148 5.20634 -0.242825 0
M  V30 298 C 25.7428 5.81703 -0.764092 0
M  V30 299 C 28.0948 6.22311 -1.13632 0
M  V30 300 C 26.7588 6.52611 -1.40196 0
M  V30 301 H 26.0288 0.699956 0.243193 0
M  V30 302 H 28.6758 1.9135 -0.0758267 0
M  V30 303 H 26.9808 3.27856 2.14517 0
M  V30 304 H 28.6778 3.55055 1.86379 0
M  V30 305 H 25.2678 4.24262 0.608238 0
M  V30 306 H 29.4518 4.96267 -0.0576019 0
M  V30 307 H 24.7078 6.03532 -0.977732 0
M  V30 308 H 28.8818 6.76834 -1.63917 0
M  V30 309 H 26.5088 7.30467 -2.10529 0
M  V30 310 N 28.0839 -0.256276 1.55502 0
M  V30 311 C 28.9939 -1.33882 1.92647 0
M  V30 312 C 30.0099 -1.53159 0.825727 0
M  V30 313 O 31.1859 -1.66963 1.12629 0
M  V30 314 C 28.2509 -2.6751 2.20543 0
M  V30 315 C 27.3119 -2.56836 3.43997 0
M  V30 316 C 26.5449 -3.84092 3.70553 0
M  V30 317 O 26.7679 -4.85545 2.99336 0
M  V30 318 O 25.7019 -3.83288 4.64084 0
M  V30 319 H 29.5279 -1.05374 2.84833 0
M  V30 320 H 27.1129 -0.456237 1.42263 0
M  V30 321 H 28.9949 -3.46492 2.39835 0
M  V30 322 H 27.6699 -2.9577 1.31536 0
M  V30 323 H 26.5769 -1.76172 3.30021 0
M  V30 324 H 27.9099 -2.33523 4.33275 0
M  V30 325 N 29.562 -1.4872 -0.521534 0
M  V30 326 C 30.839 -1.4766 -1.2828 0
M  V30 327 C 31.219 -0.19292 -2.10217 0
M  V30 328 O 30.567 0.825193 -2.13079 0
M  V30 329 C 30.777 -2.74358 -2.15705 0
M  V30 330 C 32.125 -3.23028 -2.75569 0
M  V30 331 O 33.149 -2.75333 -2.25987 0
M  V30 332 O 32.008 -4.0604 -3.65778 0
M  V30 333 H 29.102 -0.590085 -0.579421 0
M  V30 334 H 31.648 -1.60963 -0.537492 0
M  V30 335 H 30.42 -3.59292 -1.54999 0
M  V30 336 H 30.043 -2.63816 -2.97467 0
M  V30 337 N 31.0401 0.771051 -1.3745 0
M  V30 338 C 31.9501 1.91538 -1.35464 0
M  V30 339 C 32.9661 1.72134 -0.254123 0
M  V30 340 O 34.1421 1.95358 -0.489626 0
M  V30 341 C 31.2071 3.26671 -1.16134 0
M  V30 342 C 30.2681 3.58723 -2.35831 0
M  V30 343 C 29.5011 4.87409 -2.17413 0
M  V30 344 O 29.7241 5.58506 -1.15876 0
M  V30 345 O 28.6581 5.18539 -3.05615 0
M  V30 346 H 32.4841 1.96165 -2.31847 0
M  V30 347 H 30.0691 0.9139 -1.18187 0
M  V30 348 H 31.9511 4.07499 -1.07345 0
M  V30 349 H 30.6261 3.22894 -0.228251 0
M  V30 350 H 29.5331 2.78127 -2.50192 0
M  V30 351 H 30.8661 3.67243 -3.27709 0
M  V30 352 N 32.5182 1.22032 0.997298 0
M  V30 353 C 33.9342 0.979326 1.26021 0
M  V30 354 C 34.1342 -0.32972 1.98784 0
M  V30 355 O 33.1902 -1.05345 2.29475 0
M  V30 356 C 34.5032 2.17509 2.07631 0
M  V30 357 C 36.0512 2.21817 2.2083 0
M  V30 358 C 36.5262 3.40933 3.05825 0
M  V30 359 N 38.0172 3.41067 3.13412 0
M  V30 360 C 38.7522 4.29885 3.79455 0
M  V30 361 N 38.2482 5.28914 4.47462 0
M  V30 362 N 40.0412 4.17673 3.76173 0
M  V30 363 H 32.1922 2.06202 0.509352 0
M  V30 364 H 34.4552 0.90334 0.287541 0
M  V30 365 H 34.1612 3.12415 1.61524 0
M  V30 366 H 34.0352 2.17206 3.08385 0
M  V30 367 H 36.4222 1.27462 2.66153 0
M  V30 368 H 36.5032 2.2616 1.1952 0
M  V30 369 H 36.1472 4.35586 2.61203 0
M  V30 370 H 36.0772 3.33829 4.07266 0
M  V30 371 H 38.5682 2.69406 2.65007 0
M  V30 372 H 38.8812 5.92973 4.95583 0
M  V30 373 H 37.2262 5.32831 4.46224 0
M  V30 374 H 40.4172 3.39564 3.22202 0
M  V30 375 H 40.5902 4.87098 4.27363 0
M  V30 376 N 33.9963 -1.19345 1.0293 0
M  V30 377 C 34.9293 -2.21347 0.555029 0
M  V30 378 C 35.9073 -1.57492 -0.404351 0
M  V30 379 O 37.0913 -1.85741 -0.321352 0
M  V30 380 C 34.2183 -3.38163 -0.19064 0
M  V30 381 C 33.2643 -4.20375 0.720236 0
M  V30 382 S 34.0973 -4.88371 2.19668 0
M  V30 383 C 35.2533 -6.08597 1.46153 0
M  V30 384 H 35.4863 -2.61235 1.41929 0
M  V30 385 H 33.0193 -1.29598 0.839272 0
M  V30 386 H 34.9773 -4.05871 -0.614724 0
M  V30 387 H 33.6383 -2.9671 -1.03063 0
M  V30 388 H 32.8313 -5.03793 0.14455 0
M  V30 389 H 32.4333 -3.57987 1.08266 0
M  V30 390 H 34.7253 -6.73354 0.748357 0
M  V30 391 H 35.6683 -6.7065 2.27233 0
M  V30 392 H 36.0763 -5.56297 0.958842 0
M  V30 393 N 35.4744 -0.807222 -1.35358 0
M  V30 394 C 36.7204 -0.388463 -1.99045 0
M  V30 395 C 37.0534 1.04184 -1.63888 0
M  V30 396 O 36.3284 1.72292 -0.902535 0
M  V30 397 C 36.6114 -0.572783 -3.55515 0
M  V30 398 C 36.4644 -2.04807 -4.00468 0
M  V30 399 C 37.7834 0.00114064 -4.401 0
M  V30 400 H 34.9024 -0.142619 -0.723069 0
M  V30 401 H 37.5444 -1.01687 -1.60498 0
M  V30 402 H 35.6944 -0.0378425 -3.88482 0
M  V30 403 H 37.3664 -2.64544 -3.77908 0
M  V30 404 H 35.6094 -2.54427 -3.51353 0
M  V30 405 H 36.2804 -2.12792 -5.09337 0
M  V30 406 H 38.7564 -0.455716 -4.13597 0
M  V30 407 H 37.6324 -0.157737 -5.48673 0
M  V30 408 H 37.8934 1.09488 -4.28328 0
M  V30 409 N 36.9525 1.47285 -0.560781 0
M  V30 410 C 37.8995 2.30058 0.18491 0
M  V30 411 C 38.8695 1.39281 0.904986 0
M  V30 412 O 40.0545 1.68241 0.899979 0
M  V30 413 C 37.1945 3.23317 1.20666 0
M  V30 414 C 36.3075 4.29186 0.492285 0
M  V30 415 C 35.4425 5.09592 1.49964 0
M  V30 416 C 34.4815 6.07232 0.770439 0
M  V30 417 N 33.6185 6.80584 1.72479 0
M  V30 418 H 38.4585 2.93302 -0.527048 0
M  V30 419 H 35.9955 1.44568 -0.271738 0
M  V30 420 H 37.9535 3.75811 1.81168 0
M  V30 421 H 36.5835 2.61929 1.88661 0
M  V30 422 H 35.6355 3.7972 -0.227333 0
M  V30 423 H 36.9475 4.98738 -0.0787929 0
M  V30 424 H 36.1015 5.66254 2.17809 0
M  V30 425 H 34.8405 4.3995 2.10464 0
M  V30 426 H 33.8455 5.49745 0.0780846 0
M  V30 427 H 35.0705 6.78884 0.171134 0
M  V30 428 H 33.0165 6.1367 2.3183 0
M  V30 429 H 32.9335 7.46319 1.20596 0
M  V30 430 H 34.2015 7.41818 2.39428 0
M  V30 431 N 38.4306 0.297415 1.54768 0
M  V30 432 C 39.3636 -0.622188 2.19554 0
M  V30 433 C 40.3416 -1.13558 1.16376 0
M  V30 434 O 41.5256 -1.20444 1.45002 0
M  V30 435 C 38.6526 -1.8509 2.83653 0
M  V30 436 C 37.6986 -1.47106 4.00328 0
M  V30 437 S 38.5316 -0.53006 5.3287 0
M  V30 438 C 39.6876 -1.76665 6.0045 0
M  V30 439 H 39.9206 -0.0717806 2.97213 0
M  V30 440 H 37.4536 0.0815678 1.54184 0
M  V30 441 H 39.4116 -2.55605 3.21211 0
M  V30 442 H 38.0726 -2.37247 2.05846 0
M  V30 443 H 37.2656 -2.38594 4.43947 0
M  V30 444 H 36.8676 -0.845885 3.64309 0
M  V30 445 H 39.1596 -2.7077 6.21039 0
M  V30 446 H 40.1026 -1.37308 6.9466 0
M  V30 447 H 40.5106 -1.94174 5.30054 0
M  V30 448 N 39.9087 -1.5758 0.0250728 0
M  V30 449 C 40.8407 -2.06869 -0.986796 0
M  V30 450 C 41.8537 -0.991332 -1.29137 0
M  V30 451 O 43.0427 -1.26761 -1.25674 0
M  V30 452 C 40.1427 -2.47486 -2.31525 0
M  V30 453 C 39.3157 -3.78253 -2.19643 0
M  V30 454 C 38.3747 -4.05464 -3.35388 0
M  V30 455 O 37.4007 -4.75774 -3.12454 0
M  V30 456 N 38.6027 -3.55321 -4.59051 0
M  V30 457 H 41.3677 -2.94302 -0.566276 0
M  V30 458 H 38.9287 -1.6109 -0.161776 0
M  V30 459 H 40.9207 -2.62785 -3.07776 0
M  V30 460 H 39.4907 -1.65441 -2.65232 0
M  V30 461 H 38.7107 -3.7279 -1.28144 0
M  V30 462 H 39.9987 -4.63936 -2.08903 0
M  V30 463 H 39.3967 -2.98431 -4.80578 0
M  V30 464 H 37.9537 -3.75905 -5.32483 0
M  V30 465 N 41.3868 0.248026 -1.55636 0
M  V30 466 C 42.3348 1.32683 -1.91045 0
M  V30 467 C 43.3288 1.49883 -0.789401 0
M  V30 468 O 44.5348 1.51371 -0.974007 0
M  V30 469 H 40.9098 0.444272 -0.606734 0
M  V30 470 H 42.8808 1.00085 -2.81115 0
M  V30 471 C 41.6298 2.6755 -2.22064 0
M  V30 472 H 40.9528 2.55114 -3.07826 0
M  V30 473 H 42.3928 3.41912 -2.50743 0
M  V30 474 C 40.8518 3.20556 -1.0366 0
M  V30 475 O 41.3818 4.00695 -0.284016 0
M  V30 476 N 39.5878 2.78568 -0.82753 0
M  V30 477 H 39.1348 2.1351 -1.44123 0
M  V30 478 H 39.0928 3.14378 -0.0369803 0
M  V30 479 N 42.8649 1.48995 0.513639 0
M  V30 480 C 44.1119 1.57843 1.26854 0
M  V30 481 C 44.4399 0.259501 1.92761 0
M  V30 482 O 43.6949 -0.75159 1.80692 0
M  V30 483 C 43.9939 2.67756 2.36731 0
M  V30 484 C 43.6599 4.09669 1.88368 0
M  V30 485 C 42.3219 4.48291 1.74896 0
M  V30 486 C 44.6739 4.98537 1.52021 0
M  V30 487 C 42.0019 5.73568 1.23438 0
M  V30 488 C 44.3539 6.24319 1.0202 0
M  V30 489 C 43.0179 6.61783 0.871778 0
M  V30 490 H 42.2879 0.577587 0.464192 0
M  V30 491 H 44.9349 1.82778 0.571366 0
M  V30 492 H 43.2399 2.36743 3.12185 0
M  V30 493 H 44.9369 2.71813 2.9482 0
M  V30 494 H 41.5269 3.79176 1.99808 0
M  V30 495 H 45.7109 4.69363 1.61281 0
M  V30 496 H 40.9669 6.01304 1.10648 0
M  V30 497 H 45.1409 6.92566 0.729722 0
M  V30 498 H 42.7679 7.5874 0.470852 0
M  V30 499 N 44.343 -0.763751 1.37857 0
M  V30 500 C 45.568 -1.55805 1.36893 0
M  V30 501 C 45.993 -1.88054 -0.0416135 0
M  V30 502 O 45.351 -1.49825 -1.02089 0
M  V30 503 C 45.399 -2.84012 2.22192 0
M  V30 504 O 44.503 -3.78732 1.63204 0
M  V30 505 H 43.844 -0.471638 0.46739 0
M  V30 506 H 46.374 -0.944657 1.81487 0
M  V30 507 H 46.384 -3.33037 2.35691 0
M  V30 508 H 45.059 -2.59869 3.24716 0
M  V30 509 H 43.636 -3.37402 1.58791 0
M  V30 510 N 45.8211 -1.22559 -0.990812 0
M  V30 511 C 46.7711 -0.964807 -2.0658 0
M  V30 512 C 47.7551 0.0853472 -1.60673 0
M  V30 513 O 48.9471 -0.125443 -1.76555 0
M  V30 514 C 46.0761 -0.546707 -3.38919 0
M  V30 515 C 45.1621 -1.6317 -3.91454 0
M  V30 516 N 45.5531 -2.85985 -4.17189 0
M  V30 517 C 43.8511 -1.50387 -4.19881 0
M  V30 518 C 44.5521 -3.56159 -4.59919 0
M  V30 519 N 43.5281 -2.83637 -4.63736 0
M  V30 520 H 47.3301 -1.89769 -2.24421 0
M  V30 521 H 44.8441 -1.12343 -1.17273 0
M  V30 522 H 46.8411 -0.34119 -4.15502 0
M  V30 523 H 45.5011 0.379254 -3.22478 0
M  V30 524 H 46.5121 -3.22392 -4.05319 0
M  V30 525 H 43.1891 -0.644254 -4.12499 0
M  V30 526 H 44.5791 -4.6139 -4.88435 0
M  V30 527 N 47.2992 1.18797 -1.03562 0
M  V30 528 C 48.5242 1.9314 -0.755764 0
M  V30 529 C 48.9492 1.7537 0.68022 0
M  V30 530 O 48.3072 1.06046 1.47051 0
M  V30 531 C 48.3552 3.42747 -1.12058 0
M  V30 532 O 47.4592 4.11683 -0.243124 0
M  V30 533 H 46.8002 0.602724 -0.278604 0
M  V30 534 H 49.3302 1.50678 -1.3841 0
M  V30 535 H 49.3402 3.93437 -1.08035 0
M  V30 536 H 48.0152 3.55002 -2.16672 0
M  V30 537 H 46.5922 3.71323 -0.342539 0
M  V30 538 N 48.7773 0.814389 1.34928 0
M  V30 539 C 50.1883 0.458364 1.80986 0
M  V30 540 C 50.5393 -1.02042 1.67577 0
M  V30 541 O 49.6643 -1.79352 1.21086 0
M  V30 542 C 50.2593 0.825212 3.28597 0
M  V30 543 C 48.8183 0.521677 3.72767 0
M  V30 544 C 47.9653 1.04668 2.56788 0
M  V30 545 H 50.9163 1.00533 1.22795 0
M  V30 546 H 50.9373 0.12571 3.80292 0
M  V30 547 H 50.4493 1.90154 3.38324 0
M  V30 548 H 48.5503 -0.545589 3.68584 0
M  V30 549 H 48.6633 1.05977 4.67232 0
M  V30 550 H 47.0273 0.468622 2.50352 0
M  V30 551 H 47.8103 2.12927 2.6929 0
M  V30 552 N 50.2554 -1.46986 0.568584 0
M  V30 553 C 51.5324 -1.95592 -0.0174074 0
M  V30 554 C 51.9124 -1.51124 -1.47393 0
M  V30 555 O 51.2604 -0.755329 -2.15655 0
M  V30 556 C 51.4704 -3.48719 0.139913 0
M  V30 557 C 52.8184 -4.246 0.000426376 0
M  V30 558 O 53.8424 -3.56135 0.0680316 0
M  V30 559 O 52.7014 -5.46302 -0.146988 0
M  V30 560 H 49.7954 -0.82498 -0.0577599 0
M  V30 561 H 52.3414 -1.57335 0.635909 0
M  V30 562 H 51.1134 -3.73927 1.15301 0
M  V30 563 H 50.7364 -3.93771 -0.550491 0
M  V30 564 N 51.7335 -0.305618 -1.54608 0
M  V30 565 C 52.6435 0.57778 -2.27374 0
M  V30 566 C 53.6595 1.14451 -1.31061 0
M  V30 567 O 54.8355 1.16831 -1.6405 0
M  V30 568 C 51.9005 1.73123 -3.00382 0
M  V30 569 C 50.9615 1.19812 -4.12242 0
M  V30 570 C 50.1945 2.2966 -4.81759 0
M  V30 571 O 50.4175 3.49651 -4.50666 0
M  V30 572 O 49.3515 1.96091 -5.69062 0
M  V30 573 H 53.1775 -0.012624 -3.03697 0
M  V30 574 H 50.7625 -0.0719184 -1.49227 0
M  V30 575 H 52.6445 2.40315 -3.4616 0
M  V30 576 H 51.3195 2.30815 -2.26949 0
M  V30 577 H 50.2265 0.491798 -3.70853 0
M  V30 578 H 51.5595 0.666566 -4.87666 0
M  V30 579 N 53.2116 1.57565 -0.0334293 0
M  V30 580 C 54.1416 2.13511 0.945265 0
M  V30 581 C 55.1226 1.05231 1.33643 0
M  V30 582 O 56.3076 1.33084 1.41429 0
M  V30 583 C 53.4376 2.6657 2.22616 0
M  V30 584 C 52.3916 3.79676 1.97561 0
M  V30 585 C 51.7176 4.1918 3.31952 0
M  V30 586 C 53.0176 5.0557 1.31135 0
M  V30 587 H 54.7116 2.95538 0.479325 0
M  V30 588 H 52.2576 1.42166 0.229115 0
M  V30 589 H 54.2106 3.04344 2.91466 0
M  V30 590 H 52.9346 1.8171 2.71384 0
M  V30 591 H 51.5936 3.42347 1.31127 0
M  V30 592 H 51.2416 3.31296 3.78487 0
M  V30 593 H 50.9416 4.95402 3.15992 0
M  V30 594 H 52.4656 4.59541 4.02063 0
M  V30 595 H 53.8796 5.40903 1.89992 0
M  V30 596 H 52.2766 5.86818 1.25559 0
M  V30 597 H 53.3466 4.84062 0.284894 0
M  V30 598 N 54.6897 -0.239769 1.55765 0
M  V30 599 C 55.9377 -0.964892 1.77579 0
M  V30 600 C 56.2587 -1.85582 0.598699 0
M  V30 601 O 55.5287 -1.92075 -0.385226 0
M  V30 602 H 54.1087 -0.359265 0.654933 0
M  V30 603 H 56.7707 -0.256001 1.93211 0
M  V30 604 H 55.8667 -1.58243 2.69009 0
M  V30 605 N 56.1678 -1.49265 -0.50573 0
M  V30 606 C 57.5838 -1.35923 -0.836486 0
M  V30 607 C 57.7838 -0.388704 -1.97715 0
M  V30 608 O 56.8398 0.181336 -2.51848 0
M  V30 609 C 58.1528 -2.76531 -1.18115 0
M  V30 610 C 59.7008 -2.85197 -1.28964 0
M  V30 611 C 60.1758 -4.26561 -1.66761 0
M  V30 612 N 61.6668 -4.2935 -1.73819 0
M  V30 613 C 62.4018 -5.35693 -2.045 0
M  V30 614 N 61.8978 -6.52287 -2.33438 0
M  V30 615 N 63.6908 -5.23105 -2.05711 0
M  V30 616 H 55.8418 -2.10965 0.246519 0
M  V30 617 H 58.1048 -0.9468 0.0476887 0
M  V30 618 H 57.8108 -3.49226 -0.416398 0
M  V30 619 H 57.6848 -3.11599 -2.1257 0
M  V30 620 H 60.0718 -2.12742 -2.04511 0
M  V30 621 H 60.1528 -2.53718 -0.325704 0
M  V30 622 H 59.7968 -4.99541 -0.917656 0
M  V30 623 H 59.7268 -4.55502 -2.64246 0
M  V30 624 H 62.2178 -3.4526 -1.53635 0
M  V30 625 H 62.5308 -7.29158 -2.56024 0
M  V30 626 H 60.8758 -6.55521 -2.30905 0
M  V30 627 H 64.0668 -4.31026 -1.82577 0
M  V30 628 H 64.2398 -6.06078 -2.29289 0
M  V30 629 N 57.6459 0.756429 -1.3826 0
M  V30 630 C 58.8929 1.51547 -1.34312 0
M  V30 631 C 59.2209 1.94382 0.0677144 0
M  V30 632 O 58.4759 1.65514 1.04421 0
M  V30 633 C 58.7749 2.78313 -2.24224 0
M  V30 634 C 58.4409 2.54455 -3.72241 0
M  V30 635 C 57.1029 2.47657 -4.12576 0
M  V30 636 C 59.4549 2.3354 -4.65949 0
M  V30 637 C 56.7829 2.17956 -5.44713 0
M  V30 638 C 59.1349 2.05359 -5.9834 0
M  V30 639 C 57.7989 1.97016 -6.37762 0
M  V30 640 H 57.0689 0.55455 -0.491482 0
M  V30 641 H 59.7159 0.870039 -1.70595 0
M  V30 642 H 58.0209 3.47492 -1.80987 0
M  V30 643 H 59.7179 3.36259 -2.18474 0
M  V30 644 H 56.3079 2.60616 -3.40261 0
M  V30 645 H 60.4919 2.37772 -4.35635 0
M  V30 646 H 55.7479 2.10003 -5.74203 0
M  V30 647 H 59.9219 1.88179 -6.70494 0
M  V30 648 H 57.5489 1.73766 -7.40074 0
M  V30 649 N 59.124 1.23083 0.984299 0
M  V30 650 C 60.056 0.96636 2.07832 0
M  V30 651 C 61.069 -0.0582135 1.62696 0
M  V30 652 O 62.258 0.176843 1.77622 0
M  V30 653 C 59.358 0.433397 3.36117 0
M  V30 654 C 58.531 1.51722 4.10243 0
M  V30 655 C 57.59 0.989821 5.16807 0
M  V30 656 O 56.616 1.67794 5.43906 0
M  V30 657 N 57.818 -0.184367 5.80207 0
M  V30 658 H 60.583 1.90824 2.31098 0
M  V30 659 H 58.144 1.13888 1.1507 0
M  V30 660 H 60.136 0.065699 4.04647 0
M  V30 661 H 58.706 -0.413806 3.09849 0
M  V30 662 H 57.926 2.05786 3.36223 0
M  V30 663 H 59.214 2.24619 4.56534 0
M  V30 664 H 58.612 -0.760062 5.60571 0
M  V30 665 H 57.169 -0.493366 6.4993 0
M  V30 666 N 60.6021 -1.18246 1.0419 0
M  V30 667 C 61.5491 -2.2192 0.634037 0
M  V30 668 C 62.5191 -1.62179 -0.358765 0
M  V30 669 O 63.7041 -1.89122 -0.252466 0
M  V30 670 C 60.8441 -3.451 0.00445535 0
M  V30 671 C 59.9571 -4.19174 1.04487 0
M  V30 672 C 59.0921 -5.29813 0.383676 0
M  V30 673 C 58.1311 -5.9566 1.4091 0
M  V30 674 N 57.2681 -6.97834 0.772784 0
M  V30 675 H 62.1081 -2.56164 1.52263 0
M  V30 676 H 59.6451 -1.25843 0.761701 0
M  V30 677 H 61.6031 -4.15485 -0.377919 0
M  V30 678 H 60.2331 -3.11472 -0.847652 0
M  V30 679 H 59.2851 -3.47604 1.54518 0
M  V30 680 H 60.5971 -4.64267 1.82368 0
M  V30 681 H 59.7511 -6.06677 -0.0528366 0
M  V30 682 H 58.4901 -4.85825 -0.427208 0
M  V30 683 H 57.4951 -5.17535 1.85574 0
M  V30 684 H 58.7201 -6.4173 2.22171 0
M  V30 685 H 56.6661 -6.55998 -0.0177708 0
M  V30 686 H 56.5831 -7.41186 1.48928 0
M  V30 687 H 57.8511 -7.78665 0.36071 0
M  V30 688 N 62.0802 -0.821533 -1.34494 0
M  V30 689 C 63.3292 -0.405355 -1.97585 0
M  V30 690 C 63.6422 1.03677 -1.65863 0
M  V30 691 O 64.8482 1.55679 -2.22433 0
M  V30 692 C 63.3042 -0.673861 -3.53535 0
M  V30 693 C 62.9122 -2.12951 -3.94152 0
M  V30 694 C 64.6562 -0.32378 -4.23263 0
M  V30 695 C 62.5632 -2.34298 -5.43009 0
M  V30 696 H 61.4932 -0.147836 -0.739365 0
M  V30 697 H 64.1442 -1.00769 -1.53355 0
M  V30 698 H 62.5262 -0.00137554 -3.96 0
M  V30 699 H 63.7002 -2.84104 -3.62797 0
M  V30 700 H 62.0152 -2.44089 -3.37356 0
M  V30 701 H 64.6122 -0.461126 -5.32708 0
M  V30 702 H 64.9552 0.731586 -4.09821 0
M  V30 703 H 65.4882 -0.950786 -3.8627 0
M  V30 704 H 62.2272 -3.38335 -5.61435 0
M  V30 705 H 61.7472 -1.67687 -5.75883 0
M  V30 706 H 63.4262 -2.16588 -6.09671 0
M  V30 707 N 63.5583 1.46682 -0.576371 0
M  V30 708 C 64.4883 2.33028 0.148397 0
M  V30 709 C 65.4693 1.44961 0.889956 0
M  V30 710 O 66.6543 1.73789 0.866662 0
M  V30 711 C 63.7843 3.27117 1.1667 0
M  V30 712 C 62.7383 4.24575 0.540386 0
M  V30 713 C 62.0643 5.08126 1.6647 0
M  V30 714 C 63.3643 5.19722 -0.518331 0
M  V30 715 H 65.0583 2.93875 -0.572509 0
M  V30 716 H 62.6043 1.41315 -0.276768 0
M  V30 717 H 64.5573 3.86374 1.68204 0
M  V30 718 H 63.2813 2.64364 1.9178 0
M  V30 719 H 61.9403 3.66571 0.0461769 0
M  V30 720 H 61.5883 4.41762 2.40531 0
M  V30 721 H 61.2883 5.74122 1.25131 0
M  V30 722 H 62.8123 5.70246 2.18293 0
M  V30 723 H 64.2263 5.73232 -0.0883058 0
M  V30 724 H 62.6233 5.94026 -0.851679 0
M  V30 725 H 63.6933 4.64037 -1.40703 0
M  V30 726 N 65.0364 0.313813 1.54444 0
M  V30 727 C 66.3134 -0.345447 1.92525 0
M  V30 728 C 66.6934 -1.70667 1.24242 0
M  V30 729 O 66.0414 -2.25273 0.382654 0
M  V30 730 C 66.2514 -0.44737 3.46121 0
M  V30 731 C 67.5994 -0.712238 4.18584 0
M  V30 732 O 68.6234 -0.530678 3.52225 0
M  V30 733 O 67.4824 -1.06183 5.36085 0
M  V30 734 H 64.5764 -0.195407 0.803583 0
M  V30 735 H 67.1224 0.362813 1.65776 0
M  V30 736 H 65.8944 0.509043 3.87975 0
M  V30 737 H 65.5174 -1.20359 3.78945 0
M  V30 738 N 66.5145 -1.57545 0.0417849 0
M  V30 739 C 67.4465 -2.07904 -0.964799 0
M  V30 740 C 68.4595 -1.00497 -1.28079 0
M  V30 741 O 69.6485 -1.28087 -1.24322 0
M  V30 742 C 66.7485 -2.49928 -2.28887 0
M  V30 743 C 65.9215 -3.80562 -2.15619 0
M  V30 744 C 64.9805 -4.08999 -3.31069 0
M  V30 745 O 64.0065 -4.79061 -3.0739 0
M  V30 746 N 65.2085 -3.6017 -4.55256 0
M  V30 747 H 67.9735 -2.94886 -0.535029 0
M  V30 748 H 65.5345 -1.61252 -0.144681 0
M  V30 749 H 67.5265 -2.66034 -3.04972 0
M  V30 750 H 66.0965 -1.68245 -2.63463 0
M  V30 751 H 65.3165 -3.74129 -1.24183 0
M  V30 752 H 66.6045 -4.66126 -2.03971 0
M  V30 753 H 66.0025 -3.03512 -4.77386 0
M  V30 754 H 64.5595 -3.81532 -5.28466 0
M  V30 755 N 67.9926 0.231505 -1.5589 0
M  V30 756 C 68.9226 1.29022 -1.94617 0
M  V30 757 C 69.9036 1.4941 -0.813067 0
M  V30 758 O 71.0886 1.6176 -1.07459 0
M  V30 759 C 68.2186 2.64199 -2.25424 0
M  V30 760 C 67.1726 2.58484 -3.41131 0
M  V30 761 C 66.4986 3.97599 -3.57518 0
M  V30 762 C 67.7986 2.1413 -4.76388 0
M  V30 763 H 69.4926 0.968563 -2.83301 0
M  V30 764 H 67.0386 0.464479 -1.36303 0
M  V30 765 H 68.9916 3.38413 -2.51107 0
M  V30 766 H 67.7156 2.98032 -1.33583 0
M  V30 767 H 66.3746 1.86727 -3.15481 0
M  V30 768 H 66.0226 4.28723 -2.6307 0
M  V30 769 H 65.7226 3.94659 -4.35337 0
M  V30 770 H 67.2466 4.7349 -3.85538 0
M  V30 771 H 68.6606 2.78083 -5.01341 0
M  V30 772 H 67.0576 2.2227 -5.57419 0
M  V30 773 H 68.1276 1.09331 -4.72414 0
M  V30 774 N 69.4707 1.49531 0.497807 0
M  V30 775 C 70.3807 1.69176 1.62532 0
M  V30 776 C 71.3967 0.5744 1.64246 0
M  V30 777 O 72.5727 0.849497 1.82608 0
M  V30 778 C 69.6377 1.75695 2.98885 0
M  V30 779 C 68.6987 2.9929 3.07773 0
M  V30 780 C 67.9317 3.05488 4.37622 0
M  V30 781 O 68.1547 2.19192 5.26603 0
M  V30 782 O 67.0887 3.9798 4.51548 0
M  V30 783 H 70.9147 2.647 1.48887 0
M  V30 784 H 68.4997 1.3331 0.674441 0
M  V30 785 H 70.3817 1.82317 3.79919 0
M  V30 786 H 69.0567 0.8335 3.12785 0
M  V30 787 H 67.9637 2.98183 2.25915 0
M  V30 788 H 69.2967 3.91125 2.98801 0
M  V30 789 N 70.9488 -0.749086 1.3866 0
M  V30 790 C 72.1958 -1.50833 1.35114 0
M  V30 791 C 72.5238 -1.94415 -0.0574049 0
M  V30 792 O 71.7788 -1.66065 -1.03541 0
M  V30 793 C 72.0778 -2.7712 2.25697 0
M  V30 794 C 71.7438 -2.52477 3.73585 0
M  V30 795 C 70.4058 -2.45466 4.13884 0
M  V30 796 C 72.7578 -2.31066 4.67181 0
M  V30 797 C 70.0858 -2.15064 5.45861 0
M  V30 798 C 72.4378 -2.02183 5.9942 0
M  V30 799 C 71.1018 -1.93631 6.38798 0
M  V30 800 H 70.3718 -0.551936 0.494416 0
M  V30 801 H 73.0188 -0.860979 1.71054 0
M  V30 802 H 71.3238 -3.46528 1.82827 0
M  V30 803 H 73.0208 -3.35096 2.20254 0
M  V30 804 H 69.6108 -2.58807 3.41638 0
M  V30 805 H 73.7948 -2.35459 4.3689 0
M  V30 806 H 69.0508 -2.06954 5.75308 0
M  V30 807 H 73.2248 -1.8462 6.71482 0
M  V30 808 H 70.8518 -1.69839 7.40985 0
M  V30 809 N 72.4269 -1.23603 -0.977757 0
M  V30 810 C 73.8429 -0.999251 -1.24447 0
M  V30 811 C 74.0429 0.298053 -1.99283 0
M  V30 812 O 73.0989 1.01681 -2.31122 0
M  V30 813 C 74.4119 -2.20784 -2.04144 0
M  V30 814 C 75.9599 -2.25303 -2.17273 0
M  V30 815 C 76.4349 -3.45755 -3.00362 0
M  V30 816 N 77.9259 -3.4601 -3.07947 0
M  V30 817 C 78.6609 -4.35868 -3.72568 0
M  V30 818 N 78.1569 -5.35966 -4.38991 0
M  V30 819 N 79.9499 -4.23605 -3.6948 0
M  V30 820 H 72.1009 -2.06986 -0.476483 0
M  V30 821 H 74.3639 -0.907801 -0.273134 0
M  V30 822 H 74.0699 -3.14945 -1.56533 0
M  V30 823 H 73.9439 -2.22085 -3.04891 0
M  V30 824 H 76.3309 -1.3168 -2.64092 0
M  V30 825 H 76.4119 -2.28033 -1.15907 0
M  V30 826 H 76.0559 -4.39687 -2.5424 0
M  V30 827 H 75.9859 -3.40266 -4.01904 0
M  V30 828 H 78.4769 -2.73588 -2.60688 0
M  V30 829 H 78.7899 -6.00783 -4.86086 0
M  V30 830 H 77.1349 -5.39863 -4.37691 0
M  V30 831 H 80.3259 -3.44647 -3.16759 0
M  V30 832 H 80.4989 -4.93836 -4.1956 0
M  V30 833 N 73.905 1.17692 -1.04816 0
M  V30 834 C 74.815 2.25229 -0.65643 0
M  V30 835 C 75.831 1.71018 0.320761 0
M  V30 836 O 77.007 2.00649 0.173805 0
M  V30 837 C 74.072 3.46684 -0.0332629 0
M  V30 838 C 73.133 4.15997 -1.06042 0
M  V30 839 C 72.366 5.31654 -0.466893 0
M  V30 840 O 72.589 5.65777 0.724758 0
M  V30 841 O 71.523 5.89831 -1.1993 0
M  V30 842 H 75.349 2.61016 -1.55255 0
M  V30 843 H 72.934 1.24919 -0.81949 0
M  V30 844 H 74.816 4.20234 0.313256 0
M  V30 845 H 73.491 3.12703 0.836566 0
M  V30 846 H 72.398 3.44482 -1.45886 0
M  V30 847 H 73.731 4.53996 -1.90127 0
M  V30 848 N 75.3831 0.828654 1.34056 0
M  V30 849 C 76.3301 0.252567 2.29414 0
M  V30 850 C 77.3001 -0.62588 1.53857 0
M  V30 851 O 78.4851 -0.566312 1.82202 0
M  V30 852 C 75.6251 -0.574831 3.40279 0
M  V30 853 C 74.7381 0.326499 4.30764 0
M  V30 854 C 73.8731 -0.511016 5.28736 0
M  V30 855 C 72.9121 0.389342 6.1086 0
M  V30 856 N 72.0491 -0.409439 7.00905 0
M  V30 857 H 76.8891 1.07108 2.78086 0
M  V30 858 H 74.4261 0.539677 1.36843 0
M  V30 859 H 76.3841 -1.06992 4.03248 0
M  V30 860 H 75.0141 -1.35841 2.92826 0
M  V30 861 H 74.0661 0.939837 3.68607 0
M  V30 862 H 75.3781 1.01857 4.88289 0
M  V30 863 H 74.5321 -1.07035 5.97184 0
M  V30 864 H 73.2711 -1.23657 4.71763 0
M  V30 865 H 72.2761 0.960769 5.4134 0
M  V30 866 H 73.5011 1.1131 6.69916 0
M  V30 867 H 71.4471 -1.11856 6.46393 0
M  V30 868 H 71.3641 0.224126 7.55668 0
M  V30 869 H 72.6321 -0.951336 7.73673 0
M  V30 870 N 76.8612 -1.46375 0.584142 0
M  V30 871 C 78.1102 -2.01585 0.0679741 0
M  V30 872 C 78.4232 -1.46109 -1.30045 0
M  V30 873 O 79.6292 -1.93148 -1.90804 0
M  V30 874 C 78.0852 -3.5983 0.0709207 0
M  V30 875 C 77.6932 -4.24303 1.43775 0
M  V30 876 C 79.4372 -4.22693 -0.391228 0
M  V30 877 C 77.3442 -5.74631 1.39834 0
M  V30 878 H 76.2742 -0.753689 0.0216421 0
M  V30 879 H 78.9252 -1.68093 0.736001 0
M  V30 880 H 77.3072 -3.90405 -0.663299 0
M  V30 881 H 78.4812 -4.05335 2.19181 0
M  V30 882 H 76.7962 -3.73539 1.84004 0
M  V30 883 H 79.3932 -5.3289 -0.439524 0
M  V30 884 H 79.7362 -3.91728 -1.40906 0
M  V30 885 H 80.2692 -3.96749 0.288974 0
M  V30 886 H 77.0082 -6.10258 2.39303 0
M  V30 887 H 76.5282 -5.95858 0.686505 0
M  V30 888 H 78.2072 -6.37375 1.11187 0
M  V30 889 N 78.3393 -0.321999 -1.54275 0
M  V30 890 C 79.3023 0.531975 -2.22941 0
M  V30 891 C 80.3023 1.04478 -1.22234 0
M  V30 892 O 81.4923 0.937452 -1.46825 0
M  V30 893 C 78.6243 1.73874 -2.93224 0
M  V30 894 H 79.8173 -0.0682612 -2.99822 0
M  V30 895 H 77.3703 -0.0730644 -1.56129 0
M  V30 896 H 78.1053 2.37825 -2.20476 0
M  V30 897 H 77.8903 1.37847 -3.6707 0
M  V30 898 H 79.3803 2.34496 -3.45545 0
M  V30 899 N 79.8174 1.5752 -0.0501392 0
M  V30 900 C 81.2334 1.56631 0.306402 0
M  V30 901 C 81.4334 1.0577 1.71508 0
M  V30 902 O 80.4894 0.713837 2.422 0
M  V30 903 C 81.8024 3.00393 0.135811 0
M  V30 904 C 83.3504 3.12315 0.206993 0
M  V30 905 C 83.8254 4.57954 0.064944 0
M  V30 906 N 85.3164 4.63041 0.121254 0
M  V30 907 C 86.0514 5.73389 0.0354381 0
M  V30 908 N 85.5474 6.92724 -0.102666 0
M  V30 909 N 87.3404 5.62026 0.090946 0
M  V30 910 H 79.4914 1.88903 -0.971046 0
M  V30 911 H 81.7544 0.869876 -0.376855 0
M  V30 912 H 81.4604 3.41635 -0.835384 0
M  V30 913 H 81.3344 3.66373 0.897275 0
M  V30 914 H 83.7214 2.70973 1.16866 0
M  V30 915 H 83.8024 2.49016 -0.585208 0
M  V30 916 H 83.4464 4.99981 -0.893394 0
M  V30 917 H 83.3764 5.19258 0.876277 0
M  V30 918 H 85.8674 3.77216 0.227284 0
M  V30 919 H 86.1804 7.72633 -0.160882 0
M  V30 920 H 84.5254 6.94864 -0.137737 0
M  V30 921 H 87.7164 4.67684 0.197388 0
M  V30 922 H 87.8894 6.47997 0.0206089 0
M  V30 923 N 81.2955 -0.223234 1.56011 0
M  V30 924 C 82.2275 -1.30006 1.88762 0
M  V30 925 C 83.2405 -1.43129 0.775746 0
M  V30 926 O 84.4295 -1.44057 1.05403 0
M  V30 927 C 81.5295 -2.67589 2.07965 0
M  V30 928 C 80.7025 -2.76434 3.38973 0
M  V30 929 C 79.7615 -3.95019 3.47629 0
M  V30 930 O 78.7875 -3.83436 4.20672 0
M  V30 931 N 79.9895 -5.09249 2.78649 0
M  V30 932 H 82.7545 -1.02238 2.81722 0
M  V30 933 H 80.3155 -0.413278 1.56536 0
M  V30 934 H 82.3075 -3.45297 2.11073 0
M  V30 935 H 80.8775 -2.87964 1.21638 0
M  V30 936 H 80.0975 -1.85216 3.47978 0
M  V30 937 H 81.3855 -2.79313 4.25278 0
M  V30 938 H 80.7835 -5.21556 2.19081 0
M  V30 939 H 79.3405 -5.85007 2.8742 0
M  V30 940 N 82.7736 -1.49793 -0.48987 0
M  V30 941 C 84.0206 -1.59841 -1.24327 0
M  V30 942 C 84.3486 -0.290135 -1.92324 0
M  V30 943 O 83.6036 0.722749 -1.81865 0
M  V30 944 C 83.9026 -2.71488 -2.32441 0
M  V30 945 C 83.5686 -4.12614 -1.81826 0
M  V30 946 C 82.2306 -4.51017 -1.67742 0
M  V30 947 C 84.5826 -5.00892 -1.4407 0
M  V30 948 C 81.9106 -5.75459 -1.14297 0
M  V30 949 C 84.2626 -6.25863 -0.920742 0
M  V30 950 C 82.9266 -6.63086 -0.766383 0
M  V30 951 H 82.1966 -0.584899 -0.454944 0
M  V30 952 H 84.8436 -1.83663 -0.542215 0
M  V30 953 H 83.1486 -2.4168 -3.0838 0
M  V30 954 H 84.8456 -2.76469 -2.90458 0
M  V30 955 H 81.4356 -3.82307 -1.93751 0
M  V30 956 H 85.6196 -4.7187 -1.53794 0
M  V30 957 H 80.8756 -6.02989 -1.01068 0
M  V30 958 H 85.0496 -6.9364 -0.619448 0
M  V30 959 H 82.6766 -7.59393 -0.350083 0
M  V30 960 N 84.2517 0.741722 -1.39055 0
M  V30 961 C 85.4977 1.50336 -1.36113 0
M  V30 962 C 85.8307 1.94148 0.0450796 0
M  V30 963 O 85.1057 1.66301 1.00868 0
M  V30 964 C 85.3887 2.74773 -2.32749 0
M  V30 965 C 85.2417 2.37023 -3.82283 0
M  V30 966 C 86.5607 3.76846 -2.27322 0
M  V30 967 H 83.6797 0.545351 -0.495743 0
M  V30 968 H 86.3217 0.848624 -1.69995 0
M  V30 969 H 84.4717 3.30639 -2.03986 0
M  V30 970 H 86.1437 1.8684 -4.21768 0
M  V30 971 H 84.3867 1.69334 -3.99385 0
M  V30 972 H 85.0577 3.26104 -4.45376 0
M  V30 973 H 87.5337 3.30548 -2.5274 0
M  V30 974 H 86.4097 4.6159 -2.97028 0
M  V30 975 H 86.6707 4.23286 -1.27599 0
M  V30 976 N 85.7298 1.2412 0.971189 0
M  V30 977 C 86.6398 1.04747 2.09917 0
M  V30 978 C 87.6558 -0.0107162 1.73997 0
M  V30 979 O 88.8318 0.186714 2.00533 0
M  V30 980 C 85.8968 0.650828 3.40537 0
M  V30 981 C 84.9578 1.7851 3.90426 0
M  V30 982 C 84.1908 1.40729 5.14812 0
M  V30 983 O 84.4138 0.29557 5.69634 0
M  V30 984 O 83.3478 2.23168 5.58999 0
M  V30 985 H 87.1738 1.99304 2.29154 0
M  V30 986 H 84.7588 1.02908 1.08307 0
M  V30 987 H 86.6408 0.440992 4.19086 0
M  V30 988 H 85.3158 -0.265649 3.22608 0
M  V30 989 H 84.2228 2.04966 3.12953 0
M  V30 990 H 85.5558 2.68023 4.12825 0
M  V30 991 N 87.2079 -1.17134 1.05439 0
M  V30 992 C 88.1179 -2.24878 0.668365 0
M  V30 993 C 89.1339 -1.71186 -0.311687 0
M  V30 994 O 90.3099 -2.00738 -0.163161 0
M  V30 995 C 87.3749 -3.46662 0.051648 0
M  V30 996 C 86.4359 -4.15429 1.08246 0
M  V30 997 C 85.6689 -5.31399 0.495082 0
M  V30 998 O 85.8919 -5.66153 -0.694743 0
M  V30 999 O 84.8259 -5.89187 1.23056 0
M  V30 1000 H 88.6519 -2.60189 1.56637 0
M  V30 1001 H 86.2369 -1.24482 0.826104 0
M  V30 1002 H 88.1189 -4.20394 -0.290966 0
M  V30 1003 H 86.7939 -3.13142 -0.819971 0
M  V30 1004 H 85.7009 -3.43704 1.47711 0
M  V30 1005 H 87.0339 -4.52982 1.92532 0
M  V30 1006 N 88.686 -0.835752 -1.33615 0
M  V30 1007 C 89.914 -0.443344 -2.02094 0
M  V30 1008 C 90.329 0.954522 -1.62894 0
M  V30 1009 O 89.686 1.61982 -0.840723 0
M  V30 1010 C 89.737 -0.550775 -3.5728 0
M  V30 1011 O 89.458 -1.89356 -3.95065 0
M  V30 1012 C 90.959 -0.154919 -4.43029 0
M  V30 1013 H 88.179 -0.176359 -0.647409 0
M  V30 1014 H 90.723 -1.12746 -1.70612 0
M  V30 1015 H 88.878 0.0853997 -3.87306 0
M  V30 1016 H 89.292 -1.87687 -4.89769 0
M  V30 1017 H 90.766 -0.281144 -5.51284 0
M  V30 1018 H 91.243 0.902863 -4.2982 0
M  V30 1019 H 91.849 -0.765404 -4.18356 0
M  V30 1020 N 90.1641 1.46063 -0.591896 0
M  V30 1021 C 91.4121 2.01938 -0.0808391 0
M  V30 1022 C 91.7331 1.46475 1.28725 0
M  V30 1023 O 91.0031 0.652944 1.84698 0
M  V30 1024 H 89.5831 0.746516 -0.0268938 0
M  V30 1025 H 92.2451 1.79055 -0.769752 0
M  V30 1026 H 91.3411 3.12094 -0.0187578 0
M  V30 1027 N 91.6422 0.330177 1.54103 0
M  V30 1028 C 92.8722 -0.271784 2.04805 0
M  V30 1029 C 93.2802 -1.45816 1.20559 0
M  V30 1030 O 92.6232 -1.82247 0.2306 0
M  V30 1031 C 92.6852 -0.763238 3.51305 0
M  V30 1032 C 92.3492 0.301705 4.56003 0
M  V30 1033 C 93.3462 1.13999 5.07248 0
M  V30 1034 C 91.0312 0.451793 5.00264 0
M  V30 1035 C 93.0252 2.11402 6.01322 0
M  V30 1036 C 90.7122 1.42924 5.94151 0
M  V30 1037 C 91.7102 2.25882 6.44567 0
M  V30 1038 O 91.3982 3.21965 7.3661 0
M  V30 1039 H 91.1302 -0.058693 0.673447 0
M  V30 1040 H 93.6842 0.476395 1.99799 0
M  V30 1041 H 91.9142 -1.56244 3.5373 0
M  V30 1042 H 93.6032 -1.28427 3.85047 0
M  V30 1043 H 94.3692 1.03505 4.73827 0
M  V30 1044 H 90.2482 -0.184044 4.60632 0
M  V30 1045 H 93.7922 2.76192 6.40596 0
M  V30 1046 H 89.6892 1.53479 6.26988 0
M  V30 1047 H 90.4572 3.17281 7.54503 0
M  V30 1048 N 93.1203 -1.57491 0.0584922 0
M  V30 1049 C 94.3453 -1.97711 -0.62652 0
M  V30 1050 C 94.7703 -0.936132 -1.63151 0
M  V30 1051 O 94.1283 0.099811 -1.81025 0
M  V30 1052 C 94.1763 -3.36989 -1.28338 0
M  V30 1053 O 93.2803 -3.35433 -2.39913 0
M  V30 1054 H 92.6213 -0.643868 -0.162266 0
M  V30 1055 H 95.1513 -2.04193 0.129064 0
M  V30 1056 H 95.1613 -3.73879 -1.63335 0
M  V30 1057 H 93.8363 -4.12289 -0.546889 0
M  V30 1058 H 92.4133 -3.10298 -2.06809 0
M  V30 1059 N 94.5984 0.214957 -1.56127 0
M  V30 1060 C 95.5284 1.2695 -1.95974 0
M  V30 1061 C 96.5094 1.48539 -0.828868 0
M  V30 1062 O 97.6944 1.60611 -1.09168 0
M  V30 1063 C 94.8244 2.61794 -2.28214 0
M  V30 1064 C 93.7784 2.54851 -3.43853 0
M  V30 1065 C 93.1044 3.93785 -3.61715 0
M  V30 1066 C 94.4044 2.09065 -4.78632 0
M  V30 1067 H 96.0984 0.93846 -2.84312 0
M  V30 1068 H 93.6444 0.449996 -1.36788 0
M  V30 1069 H 95.5974 3.35731 -2.54682 0
M  V30 1070 H 94.3214 2.96599 -1.36736 0
M  V30 1071 H 92.9804 1.8337 -3.17444 0
M  V30 1072 H 92.6284 4.25908 -2.67602 0
M  V30 1073 H 92.3284 3.90019 -4.39498 0
M  V30 1074 H 93.8524 4.69374 -3.90539 0
M  V30 1075 H 95.2664 2.7275 -5.04262 0
M  V30 1076 H 93.6634 2.16346 -5.59745 0
M  V30 1077 H 94.7334 1.04315 -4.73547 0
M  V30 1078 N 96.0765 1.50051 0.48192 0
M  V30 1079 C 97.3015 1.64508 1.26301 0
M  V30 1080 C 97.7265 0.323851 1.85291 0
M  V30 1081 O 97.0845 -0.710969 1.66778 0
M  V30 1082 C 97.1325 2.7305 2.35533 0
M  V30 1083 O 96.2365 2.3355 3.39895 0
M  V30 1084 H 95.5775 0.549978 0.372048 0
M  V30 1085 H 98.1075 1.9636 0.574786 0
M  V30 1086 H 98.1175 2.95799 2.8101 0
M  V30 1087 H 96.7925 3.68946 1.91967 0
M  V30 1088 H 95.3695 2.21205 3.00204 0
M  V30 1089 N 97.5546 -0.734337 1.39446 0
M  V30 1090 C 98.7796 -1.52866 1.40167 0
M  V30 1091 C 99.2046 -1.881 -0.00171513 0
M  V30 1092 O 98.5626 -1.51957 -0.988879 0
M  V30 1093 C 98.6106 -2.79235 2.28167 0
M  V30 1094 O 97.7146 -3.75185 1.71201 0
M  V30 1095 H 97.0556 -0.461618 0.477289 0
M  V30 1096 H 99.5856 -0.905949 1.8345 0
M  V30 1097 H 99.5956 -3.27963 2.42702 0
M  V30 1098 H 98.2706 -2.52923 3.30156 0
M  V30 1099 H 96.8476 -3.33958 1.65912 0
M  V30 1100 N 99.0327 -1.24633 -0.964593 0
M  V30 1101 C 100.28 -1.08788 -1.70796 0
M  V30 1102 C 100.608 0.372783 -1.90894 0
M  V30 1103 O 99.8627 1.29167 -1.47018 0
M  V30 1104 C 100.162 -1.7763 -3.10133 0
M  V30 1105 C 99.8277 -3.27557 -3.09866 0
M  V30 1106 C 98.4897 -3.6846 -3.09501 0
M  V30 1107 C 100.842 -4.23389 -3.03959 0
M  V30 1108 C 98.1697 -5.03624 -3.00965 0
M  V30 1109 C 100.522 -5.58565 -2.96965 0
M  V30 1110 C 99.1857 -5.98809 -2.9493 0
M  V30 1111 H 98.4557 -0.398084 -0.624988 0
M  V30 1112 H 101.103 -1.54777 -1.12767 0
M  V30 1113 H 99.4077 -1.24044 -3.71645 0
M  V30 1114 H 101.105 -1.62832 -3.66451 0
M  V30 1115 H 97.6947 -2.95006 -3.10917 0
M  V30 1116 H 101.879 -3.92787 -3.03368 0
M  V30 1117 H 97.1347 -5.33998 -2.97752 0
M  V30 1118 H 101.309 -6.32523 -2.91354 0
M  V30 1119 H 98.9357 -7.03505 -2.88071 0
M  V30 1120 N 100.511 1.16574 -1.06058 0
M  V30 1121 C 101.736 1.91493 -0.796562 0
M  V30 1122 C 102.161 1.76773 0.642868 0
M  V30 1123 O 101.519 1.09142 1.44768 0
M  V30 1124 C 101.567 3.40293 -1.19303 0
M  V30 1125 O 100.671 4.11074 -0.330394 0
M  V30 1126 H 100.012 0.596678 -0.291326 0
M  V30 1127 H 102.542 1.47708 -1.41575 0
M  V30 1128 H 102.552 3.91057 -1.16356 0
M  V30 1129 H 101.227 3.50326 -2.24153 0
M  V30 1130 H 99.8038 3.70513 -0.421225 0
M  V30 1131 N 101.989 0.842826 1.3317 0
M  V30 1132 C 102.952 0.284065 2.27433 0
M  V30 1133 C 103.952 -0.54948 1.5112 0
M  V30 1134 O 105.142 -0.362699 1.70382 0
M  V30 1135 C 102.274 -0.599384 3.35589 0
M  V30 1136 H 103.467 1.11589 2.78366 0
M  V30 1137 H 101.02 0.616221 1.4364 0
M  V30 1138 H 101.755 -1.45349 2.89904 0
M  V30 1139 H 101.54 -0.00291266 3.921 0
M  V30 1140 H 103.03 -0.983488 4.05854 0
M  V30 1141 N 103.467 -1.45747 0.599634 0
M  V30 1142 C 104.714 -2.02292 0.0917284 0
M  V30 1143 C 105.042 -1.46906 -1.27472 0
M  V30 1144 O 104.297 -0.630652 -1.8526 0
M  V30 1145 C 104.596 -3.57399 -0.00602758 0
M  V30 1146 C 104.262 -4.31902 1.29503 0
M  V30 1147 C 102.924 -4.51974 1.65144 0
M  V30 1148 C 105.276 -4.74551 2.15525 0
M  V30 1149 C 102.604 -5.11949 2.86574 0
M  V30 1150 C 104.956 -5.35868 3.36196 0
M  V30 1151 C 103.62 -5.54165 3.72099 0
M  V30 1152 H 102.89 -0.740239 0.0335658 0
M  V30 1153 H 105.537 -1.7491 0.779661 0
M  V30 1154 H 103.842 -3.84014 -0.777183 0
M  V30 1155 H 105.539 -3.98846 -0.415038 0
M  V30 1156 H 102.129 -4.16588 1.00761 0
M  V30 1157 H 106.313 -4.58784 1.8929 0
M  V30 1158 H 101.569 -5.24305 3.14507 0
M  V30 1159 H 105.743 -5.6787 4.03109 0
M  V30 1160 H 103.37 -6.00406 4.6628 0
M  V30 1161 N 104.945 -0.338344 -1.53925 0
M  V30 1162 C 106.191 0.260143 -2.01125 0
M  V30 1163 C 106.524 1.50617 -1.22589 0
M  V30 1164 O 105.799 1.91979 -0.312113 0
M  V30 1165 C 106.082 0.579499 -3.55407 0
M  V30 1166 C 105.935 -0.678264 -4.44657 0
M  V30 1167 C 107.254 1.39122 -4.17532 0
M  V30 1168 H 104.373 0.0930772 -0.731099 0
M  V30 1169 H 107.015 -0.457852 -1.84401 0
M  V30 1170 H 105.165 1.19118 -3.69788 0
M  V30 1171 H 106.837 -1.31631 -4.42121 0
M  V30 1172 H 105.08 -1.3042 -4.13731 0
M  V30 1173 H 105.751 -0.410143 -5.50474 0
M  V30 1174 H 108.227 0.874035 -4.06817 0
M  V30 1175 H 107.103 1.58342 -5.25565 0
M  V30 1176 H 107.364 2.39178 -3.71815 0
M  V30 1177 N 106.423 1.57458 -0.0668435 0
M  V30 1178 C 107.648 1.9804 0.616027 0
M  V30 1179 C 108.073 0.944771 1.62652 0
M  V30 1180 O 107.431 -0.0902094 1.81075 0
M  V30 1181 C 107.479 3.37665 1.26549 0
M  V30 1182 O 106.583 3.36701 2.38131 0
M  V30 1183 H 105.924 0.644719 0.158849 0
M  V30 1184 H 108.454 2.04121 -0.139891 0
M  V30 1185 H 108.464 3.7474 1.6135 0
M  V30 1186 H 107.139 4.12573 0.525016 0
M  V30 1187 H 105.716 3.1139 2.0516 0
M  V30 1188 N 107.901 -0.206675 1.56239 0
M  V30 1189 C 109.317 -0.557025 1.49564 0
M  V30 1190 C 109.517 -1.86424 0.764735 0
M  V30 1191 O 108.573 -2.50584 0.310491 0
M  V30 1192 C 109.886 -0.622478 2.94186 0
M  V30 1193 C 111.434 -0.712099 3.04792 0
M  V30 1194 C 111.909 -0.808767 4.50803 0
M  V30 1195 N 113.4 -0.8726 4.54907 0
M  V30 1196 C 114.135 -0.967365 5.65181 0
M  V30 1197 N 113.631 -1.02515 6.85173 0
M  V30 1198 N 115.424 -1.00366 5.53067 0
M  V30 1199 H 107.575 0.650943 2.02179 0
M  V30 1200 H 109.838 0.230387 0.919579 0
M  V30 1201 H 109.544 0.268727 3.50672 0
M  V30 1202 H 109.418 -1.4811 3.46905 0
M  V30 1203 H 111.805 -1.59374 2.48363 0
M  V30 1204 H 111.886 0.172489 2.55218 0
M  V30 1205 H 111.53 0.0684754 5.07854 0
M  V30 1206 H 111.46 -1.70899 4.98098 0
M  V30 1207 H 113.951 -0.837657 3.68499 0
M  V30 1208 H 114.264 -1.09765 7.64965 0
M  V30 1209 H 112.609 -0.994026 6.87855 0
M  V30 1210 H 115.8 -0.95527 4.58249 0
M  V30 1211 H 115.973 -1.07405 6.39037 0
M  V30 1212 N 109.379 -1.50304 -0.473955 0
M  V30 1213 C 110.627 -1.60832 -1.22382 0
M  V30 1214 C 110.948 -0.30939 -1.9253 0
M  V30 1215 O 110.218 0.67296 -1.83978 0
M  V30 1216 H 108.798 -0.592652 -0.454723 0
M  V30 1217 H 111.46 -1.87068 -0.546968 0
M  V30 1218 H 110.556 -2.41803 -1.97327 0
M  V30 1219 N 110.857 0.726932 -1.39834 0
M  V30 1220 C 112.105 1.4837 -1.37225 0
M  V30 1221 C 112.426 1.94979 0.0284857 0
M  V30 1222 O 111.696 1.69555 0.981213 0
M  V30 1223 H 110.276 0.55043 -0.505011 0
M  V30 1224 H 112.938 0.862468 -1.74778 0
M  V30 1225 H 112.034 2.36198 -2.04003 0
M  V30 1226 N 112.336 1.25143 0.95797 0
M  V30 1227 C 113.266 1.07711 2.07173 0
M  V30 1228 C 114.247 -0.0128462 1.70095 0
M  V30 1229 O 115.432 0.156061 1.93572 0
M  V30 1230 C 112.562 0.691503 3.40346 0
M  V30 1231 C 111.516 1.73132 3.9142 0
M  V30 1232 C 110.842 1.20049 5.21049 0
M  V30 1233 C 112.142 3.1294 4.1817 0
M  V30 1234 H 113.836 2.00873 2.22014 0
M  V30 1235 H 111.382 0.967191 1.06684 0
M  V30 1236 H 113.335 0.556505 4.17709 0
M  V30 1237 H 112.059 -0.275819 3.25433 0
M  V30 1238 H 110.718 1.8547 3.16222 0
M  V30 1239 H 110.366 0.223499 5.02503 0
M  V30 1240 H 110.066 1.89545 5.56189 0
M  V30 1241 H 111.59 1.07782 6.01012 0
M  V30 1242 H 113.004 3.03775 4.86203 0
M  V30 1243 H 111.401 3.79875 4.64559 0
M  V30 1244 H 112.471 3.6025 3.24573 0
M  V30 1245 N 113.814 -1.1601 1.06675 0
M  V30 1246 C 114.744 -2.22688 0.702307 0
M  V30 1247 C 115.725 -1.67306 -0.307032 0
M  V30 1248 O 116.91 -1.93352 -0.181305 0
M  V30 1249 C 114.04 -3.47178 0.092038 0
M  V30 1250 C 112.994 -4.15477 1.02777 0
M  V30 1251 C 112.32 -5.33963 0.28061 0
M  V30 1252 C 113.62 -4.66019 2.35846 0
M  V30 1253 H 115.314 -2.53429 1.59419 0
M  V30 1254 H 112.86 -1.21813 0.767961 0
M  V30 1255 H 114.813 -4.21037 -0.174814 0
M  V30 1256 H 113.537 -3.15749 -0.834877 0
M  V30 1257 H 112.196 -3.43549 1.27944 0
M  V30 1258 H 111.844 -4.98788 -0.649545 0
M  V30 1259 H 111.544 -5.806 0.904258 0
M  V30 1260 H 113.068 -6.10596 0.021396 0
M  V30 1261 H 114.482 -5.3144 2.15045 0
M  V30 1262 H 112.879 -5.23293 2.93743 0
M  V30 1263 H 113.949 -3.82023 2.98641 0
M  V30 1264 N 115.292 -0.849877 -1.32721 0
M  V30 1265 C 116.569 -0.372405 -1.92022 0
M  V30 1266 C 116.949 1.1435 -1.77447 0
M  V30 1267 O 116.297 1.96296 -1.16962 0
M  V30 1268 C 116.507 -0.831482 -3.3895 0
M  V30 1269 C 117.855 -0.845882 -4.16089 0
M  V30 1270 O 118.879 -0.775806 -3.47649 0
M  V30 1271 O 117.738 -0.943753 -5.38289 0
M  V30 1272 H 114.832 -0.107667 -0.819961 0
M  V30 1273 H 117.378 -0.93646 -1.41522 0
M  V30 1274 H 116.15 -1.87448 -3.4348 0
M  V30 1275 H 115.773 -0.24461 -3.96847 0
M  V30 1276 N 116.77 1.45427 -0.607355 0
M  V30 1277 C 118.181 1.85756 -0.187535 0
M  V30 1278 C 118.532 1.5077 1.25551 0
M  V30 1279 O 117.657 0.93427 1.95193 0
M  V30 1280 C 118.252 3.37154 -0.333572 0
M  V30 1281 C 116.811 3.76387 0.0315542 0
M  V30 1282 C 115.958 2.69377 -0.658117 0
M  V30 1283 H 118.909 1.36231 -0.81405 0
M  V30 1284 H 118.93 3.78014 0.43428 0
M  V30 1285 H 118.442 3.62586 -1.38393 0
M  V30 1286 H 116.543 3.56571 1.0811 0
M  V30 1287 H 116.656 4.77731 -0.361935 0
M  V30 1288 H 115.02 2.5452 -0.0957873 0
M  V30 1289 H 115.803 2.97646 -1.7106 0
M  V30 1290 N 118.248 0.346503 1.53744 0
M  V30 1291 C 119.497 -0.250122 2.00143 0
M  V30 1292 C 119.81 -1.51418 1.23822 0
M  V30 1293 O 121.016 -2.18823 1.60713 0
M  V30 1294 C 119.472 -0.496252 3.56462 0
M  V30 1295 C 119.08 0.752077 4.41642 0
M  V30 1296 C 120.824 -1.05157 4.11269 0
M  V30 1297 C 118.731 0.476583 5.89477 0
M  V30 1298 H 117.661 -0.0972409 0.747703 0
M  V30 1299 H 120.312 0.46229 1.77581 0
M  V30 1300 H 118.694 -1.26944 3.75102 0
M  V30 1301 H 119.868 1.5266 4.34778 0
M  V30 1302 H 118.183 1.22925 3.97842 0
M  V30 1303 H 120.78 -1.27269 5.19333 0
M  V30 1304 H 121.123 -2.00799 3.64672 0
M  V30 1305 H 121.656 -0.339019 3.96353 0
M  V30 1306 H 118.395 1.4028 6.40314 0
M  V30 1307 H 117.915 -0.259794 5.99237 0
M  V30 1308 H 119.594 0.0949315 6.4693 0
M  V30 1309 N 119.726 -1.57421 0.075193 0
M  V30 1310 C 121.137 -1.81021 -0.456964 0
M  V30 1311 C 121.488 -0.98936 -1.69429 0
M  V30 1312 O 120.613 -0.212865 -2.15351 0
M  V30 1313 C 121.208 -3.28329 -0.83581 0
M  V30 1314 C 119.767 -3.52764 -1.31281 0
M  V30 1315 C 118.914 -2.75676 -0.299648 0
M  V30 1316 H 121.865 -1.55822 0.300856 0
M  V30 1317 H 121.886 -3.40564 -1.69696 0
M  V30 1318 H 121.398 -3.88046 0.0649238 0
M  V30 1319 H 119.499 -2.98355 -2.23193 0
M  V30 1320 H 119.612 -4.61451 -1.28839 0
M  V30 1321 H 117.976 -2.42538 -0.777641 0
M  V30 1322 H 118.759 -3.38132 0.593417 0
M  V30 1323 N 121.204 0.198386 -1.56346 0
M  V30 1324 C 122.452 0.91747 -1.80075 0
M  V30 1325 C 122.773 1.83929 -0.647692 0
M  V30 1326 O 122.043 1.93029 0.334166 0
M  V30 1327 H 120.623 0.341774 -0.664228 0
M  V30 1328 H 123.285 0.204684 -1.93822 0
M  V30 1329 H 122.381 1.51055 -2.7311 0
M  V30 1330 N 122.682 1.50554 0.465978 0
M  V30 1331 C 123.93 1.61479 1.21528 0
M  V30 1332 C 124.251 0.319596 1.92363 0
M  V30 1333 O 123.521 -0.663194 1.84333 0
M  V30 1334 H 122.101 0.595055 0.451573 0
M  V30 1335 H 124.763 1.87355 0.53704 0
M  V30 1336 H 123.859 2.42846 1.96042 0
M  V30 1337 N 124.16 -0.719506 1.40217 0
M  V30 1338 C 125.406 -1.48152 1.38488 0
M  V30 1339 C 125.739 -1.94195 -0.0141867 0
M  V30 1340 O 125.014 -1.67884 -0.982096 0
M  V30 1341 C 125.297 -2.71035 2.37091 0
M  V30 1342 C 125.15 -2.30912 3.86005 0
M  V30 1343 C 126.469 -3.73182 2.33288 0
M  V30 1344 H 123.588 -0.537395 0.504357 0
M  V30 1345 H 126.23 -0.821472 1.71324 0
M  V30 1346 H 124.38 -3.27352 2.0922 0
M  V30 1347 H 126.052 -1.80107 4.24687 0
M  V30 1348 H 124.295 -1.62958 4.02029 0
M  V30 1349 H 124.966 -3.18978 4.50508 0
M  V30 1350 H 127.442 -3.26485 2.57966 0
M  V30 1351 H 126.318 -4.56806 3.04334 0
M  V30 1352 H 126.579 -4.21202 1.34317 0
M  V30 1353 N 125.638 -1.25649 -0.95132 0
M  V30 1354 C 126.868 -1.13179 -1.72841 0
M  V30 1355 C 127.276 0.316827 -1.86528 0
M  V30 1356 O 126.619 1.22948 -1.3649 0
M  V30 1357 C 126.681 -1.71644 -3.15878 0
M  V30 1358 C 126.345 -3.20667 -3.25609 0
M  V30 1359 C 127.342 -4.17616 -3.09666 0
M  V30 1360 C 125.027 -3.6094 -3.49324 0
M  V30 1361 C 127.021 -5.52817 -3.17289 0
M  V30 1362 C 124.708 -4.96278 -3.56584 0
M  V30 1363 C 125.706 -5.92025 -3.40581 0
M  V30 1364 O 125.394 -7.24899 -3.47528 0
M  V30 1365 H 125.126 -0.395389 -0.54831 0
M  V30 1366 H 127.68 -1.66566 -1.20187 0
M  V30 1367 H 125.91 -1.12707 -3.69911 0
M  V30 1368 H 127.599 -1.54225 -3.75459 0
M  V30 1369 H 128.365 -3.87842 -2.91211 0
M  V30 1370 H 124.244 -2.86907 -3.6084 0
M  V30 1371 H 127.788 -6.2753 -3.04716 0
M  V30 1372 H 123.685 -5.25716 -3.74556 0
M  V30 1373 H 124.453 -7.33039 -3.64138 0
M  V30 1374 N 127.117 1.15442 -1.07289 0
M  V30 1375 C 128.047 2.22312 -0.714107 0
M  V30 1376 C 129.028 1.67467 0.298155 0
M  V30 1377 O 130.213 1.93445 0.171048 0
M  V30 1378 C 127.343 3.47124 -0.110448 0
M  V30 1379 C 126.297 4.14926 -1.04979 0
M  V30 1380 C 125.623 5.33807 -0.308924 0
M  V30 1381 C 126.923 4.64762 -2.38314 0
M  V30 1382 H 128.617 2.5258 -1.6076 0
M  V30 1383 H 126.163 1.21404 -0.77441 0
M  V30 1384 H 128.116 4.21124 0.152482 0
M  V30 1385 H 126.84 3.16187 0.81812 0
M  V30 1386 H 125.499 3.42866 -1.29764 0
M  V30 1387 H 125.147 4.99126 0.623084 0
M  V30 1388 H 124.847 5.80113 -0.935036 0
M  V30 1389 H 126.371 6.10576 -0.0537771 0
M  V30 1390 H 127.785 5.30292 -2.1786 0
M  V30 1391 H 126.182 5.21728 -2.96514 0
M  V30 1392 H 127.252 3.80434 -3.00663 0
M  V30 1393 N 128.595 0.856903 1.32268 0
M  V30 1394 C 129.841 0.462069 1.97466 0
M  V30 1395 C 130.174 -0.980298 1.67642 0
M  V30 1396 O 129.449 -1.68824 0.965858 0
M  V30 1397 C 129.732 0.704336 3.53145 0
M  V30 1398 C 129.585 2.19529 3.9259 0
M  V30 1399 C 130.904 0.1622 4.39801 0
M  V30 1400 H 128.023 0.169357 0.717278 0
M  V30 1401 H 130.665 1.07574 1.56614 0
M  V30 1402 H 128.815 0.181999 3.88073 0
M  V30 1403 H 130.487 2.78387 3.67829 0
M  V30 1404 H 128.73 2.67292 3.41668 0
M  V30 1405 H 129.401 2.31549 5.01088 0
M  V30 1406 H 131.877 0.608905 4.11621 0
M  V30 1407 H 130.753 0.361265 5.4771 0
M  V30 1408 H 131.014 -0.935158 4.32096 0
M  V30 1409 N 130.073 -1.45103 0.615059 0
M  V30 1410 C 131.35 -1.95549 0.0448276 0
M  V30 1411 C 131.73 -1.55737 -1.4251 0
M  V30 1412 O 131.078 -0.823556 -2.13143 0
M  V30 1413 C 131.288 -3.48098 0.250785 0
M  V30 1414 C 132.636 -4.24384 0.135509 0
M  V30 1415 O 133.66 -3.55738 0.181299 0
M  V30 1416 O 132.519 -5.46493 0.0268878 0
M  V30 1417 H 129.613 -0.8264 -0.0314845 0
M  V30 1418 H 132.159 -1.55232 0.685642 0
M  V30 1419 H 130.931 -3.7007 1.27139 0
M  V30 1420 H 130.554 -3.95323 -0.424937 0
M  V30 1421 N 131.551 -0.354651 -1.53558 0
M  V30 1422 C 132.799 0.237972 -2.00694 0
M  V30 1423 C 133.12 1.50173 -1.24391 0
M  V30 1424 O 132.39 1.92673 -0.354135 0
M  V30 1425 H 130.97 0.0909256 -0.741446 0
M  V30 1426 H 133.632 -0.478368 -1.88938 0
M  V30 1427 H 132.728 0.47264 -3.085 0
M  V30 1428 N 133.029 1.57378 -0.0835403 0
M  V30 1429 C 133.959 2.1641 0.87686 0
M  V30 1430 C 134.94 1.09429 1.30228 0
M  V30 1431 O 136.125 1.37516 1.37124 0
M  V30 1432 C 133.255 2.73517 2.14022 0
M  V30 1433 C 132.209 3.85769 1.85381 0
M  V30 1434 C 131.535 4.29529 3.18448 0
M  V30 1435 C 132.835 5.09486 1.14984 0
M  V30 1436 H 134.529 2.96914 0.385059 0
M  V30 1437 H 132.075 1.42823 0.18377 0
M  V30 1438 H 134.028 3.13463 2.81636 0
M  V30 1439 H 132.752 1.90252 2.65465 0
M  V30 1440 H 131.411 3.46345 1.20169 0
M  V30 1441 H 131.059 3.43169 3.67755 0
M  V30 1442 H 130.759 5.05204 3.00071 0
M  V30 1443 H 132.283 4.72099 3.8724 0
M  V30 1444 H 133.697 5.46674 1.72687 0
M  V30 1445 H 132.094 5.90515 1.06826 0
M  V30 1446 H 133.164 4.84724 0.130749 0
M  V30 1447 N 134.507 -0.190092 1.56449 0
M  V30 1448 C 135.44 -1.26375 1.90012 0
M  V30 1449 C 136.418 -1.43705 0.760765 0
M  V30 1450 O 137.602 -1.59014 1.01226 0
M  V30 1451 C 134.729 -2.62962 2.13468 0
M  V30 1452 C 133.775 -2.62474 3.36169 0
M  V30 1453 S 134.608 -2.13412 4.91137 0
M  V30 1454 C 135.764 -3.51812 5.17667 0
M  V30 1455 H 135.997 -0.977181 2.80782 0
M  V30 1456 H 133.53 -0.393814 1.49293 0
M  V30 1457 H 135.488 -3.41583 2.27664 0
M  V30 1458 H 134.149 -2.88828 1.23439 0
M  V30 1459 H 133.342 -3.62918 3.49723 0
M  V30 1460 H 132.944 -1.91937 3.20992 0
M  V30 1461 H 135.236 -4.47706 5.08494 0
M  V30 1462 H 136.179 -3.43148 6.19399 0
M  V30 1463 H 136.587 -3.46956 4.45288 0
M  V30 1464 N 135.985 -1.50799 -0.457987 0
M  V30 1465 C 137.234 -1.6168 -1.20593 0
M  V30 1466 C 137.547 -0.32888 -1.92815 0
M  V30 1467 O 138.753 -0.316773 -2.69646 0
M  V30 1468 C 137.209 -2.8545 -2.19195 0
M  V30 1469 C 136.817 -4.21168 -1.52715 0
M  V30 1470 C 138.561 -3.05681 -2.94549 0
M  V30 1471 C 136.468 -5.3611 -2.4968 0
M  V30 1472 H 135.398 -0.602134 -0.453818 0
M  V30 1473 H 138.049 -1.77245 -0.475031 0
M  V30 1474 H 136.431 -2.63472 -2.95632 0
M  V30 1475 H 137.605 -4.53449 -0.819775 0
M  V30 1476 H 135.92 -4.06648 -0.895922 0
M  V30 1477 H 138.517 -3.88727 -3.67145 0
M  V30 1478 H 138.86 -2.17929 -3.54701 0
M  V30 1479 H 139.393 -3.27901 -2.25223 0
M  V30 1480 H 136.132 -6.26057 -1.94249 0
M  V30 1481 H 135.652 -5.0823 -3.18532 0
M  V30 1482 H 137.331 -5.6722 -3.11241 0
M  V30 1483 N 137.463 0.71206 -1.40597 0
M  V30 1484 C 138.41 1.82613 -1.41142 0
M  V30 1485 C 139.38 1.63925 -0.267903 0
M  V30 1486 O 140.565 1.85009 -0.466495 0
M  V30 1487 C 137.705 3.20354 -1.28324 0
M  V30 1488 C 136.818 3.50589 -2.52411 0
M  V30 1489 C 135.953 4.77855 -2.32009 0
M  V30 1490 C 134.992 5.01005 -3.51654 0
M  V30 1491 N 134.129 6.19487 -3.30425 0
M  V30 1492 H 138.969 1.81482 -2.36365 0
M  V30 1493 H 136.506 0.886475 -1.17388 0
M  V30 1494 H 138.464 3.99899 -1.18899 0
M  V30 1495 H 137.094 3.20705 -0.367189 0
M  V30 1496 H 136.146 2.65573 -2.72351 0
M  V30 1497 H 137.458 3.63604 -3.41458 0
M  V30 1498 H 136.612 5.65424 -2.19956 0
M  V30 1499 H 135.351 4.67056 -1.40392 0
M  V30 1500 H 134.356 4.1189 -3.64179 0
M  V30 1501 H 135.581 5.13674 -4.44202 0
M  V30 1502 H 133.527 6.09932 -2.41494 0
M  V30 1503 H 133.444 6.33194 -4.13039 0
M  V30 1504 H 134.712 7.09834 -3.22113 0
M  V30 1505 N 138.941 1.26152 0.944643 0
M  V30 1506 C 140.169 1.14259 1.72489 0
M  V30 1507 C 140.584 -0.302555 1.8636 0
M  V30 1508 O 139.941 -1.20741 1.36849 0
M  V30 1509 C 139.992 1.80266 3.13347 0
M  V30 1510 O 139.713 3.19133 3.00143 0
M  V30 1511 C 141.214 1.74283 4.07603 0
M  V30 1512 H 138.434 0.398051 0.540181 0
M  V30 1513 H 140.978 1.66706 1.18446 0
M  V30 1514 H 139.133 1.31766 3.64303 0
M  V30 1515 H 139.547 3.51744 3.89071 0
M  V30 1516 H 141.021 2.25111 5.04013 0
M  V30 1517 H 141.498 0.708631 4.33446 0
M  V30 1518 H 142.104 2.22319 3.62567 0
M  V30 1519 N 140.419 -1.14872 1.07899 0
M  V30 1520 C 141.349 -2.2193 0.725887 0
M  V30 1521 C 142.33 -1.67622 -0.28927 0
M  V30 1522 O 143.515 -1.93533 -0.160787 0
M  V30 1523 C 140.645 -3.47061 0.128856 0
M  V30 1524 C 139.599 -4.14363 1.07178 0
M  V30 1525 C 138.925 -5.33636 0.337229 0
M  V30 1526 C 140.225 -4.63492 2.40775 0
M  V30 1527 H 141.919 -2.51724 1.62097 0
M  V30 1528 H 139.465 -1.20991 0.780838 0
M  V30 1529 H 141.418 -4.21199 -0.130147 0
M  V30 1530 H 140.142 -3.16617 -0.80134 0
M  V30 1531 H 138.801 -3.42173 1.3158 0
M  V30 1532 H 138.449 -4.99449 -0.596606 0
M  V30 1533 H 138.149 -5.79609 0.965788 0
M  V30 1534 H 139.673 -6.10539 0.0861567 0
M  V30 1535 H 141.087 -5.2913 2.20669 0
M  V30 1536 H 139.484 -5.20148 2.99276 0
M  V30 1537 H 140.554 -3.78834 3.02676 0
M  V30 1538 N 141.898 -0.863906 -1.31812 0
M  V30 1539 C 142.845 -0.313303 -2.28664 0
M  V30 1540 C 143.815 0.584868 -1.55462 0
M  V30 1541 O 145 0.517805 -1.83639 0
M  V30 1542 C 142.14 0.48441 -3.41683 0
M  V30 1543 C 141.253 -0.440594 -4.29747 0
M  V30 1544 C 140.388 0.370652 -5.29905 0
M  V30 1545 C 139.427 -0.551164 -6.09613 0
M  V30 1546 N 138.564 0.223462 -7.01744 0
M  V30 1547 H 143.404 -1.14444 -2.75148 0
M  V30 1548 H 140.941 -0.575769 -1.35364 0
M  V30 1549 H 142.899 0.962627 -4.05943 0
M  V30 1550 H 141.529 1.28029 -2.96325 0
M  V30 1551 H 140.581 -1.03724 -3.65986 0
M  V30 1552 H 141.893 -1.14767 -4.85417 0
M  V30 1553 H 141.047 0.911638 -5.99812 0
M  V30 1554 H 139.786 1.11105 -4.74876 0
M  V30 1555 H 138.791 -1.10396 -5.38603 0
M  V30 1556 H 140.016 -1.29032 -6.66729 0
M  V30 1557 H 137.962 0.946787 -6.49132 0
M  V30 1558 H 137.879 -0.424399 -7.54808 0
M  V30 1559 H 139.147 0.745876 -7.75923 0
M  V30 1560 N 143.376 1.44774 -0.622745 0
M  V30 1561 C 144.601 2.06999 -0.128968 0
M  V30 1562 C 145.026 1.4617 1.1839 0
M  V30 1563 O 144.384 0.560007 1.72434 0
M  V30 1564 C 144.432 3.60595 -0.0188351 0
M  V30 1565 O 143.536 3.99398 1.02739 0
M  V30 1566 H 142.877 0.659047 -0.0809544 0
M  V30 1567 H 145.407 1.85784 -0.85705 0
M  V30 1568 H 145.417 4.07627 0.174476 0
M  V30 1569 H 144.092 4.04252 -0.977384 0
M  V30 1570 H 142.669 3.64011 0.809326 0
M  V30 1571 N 144.854 0.36279 1.53368 0
M  V30 1572 C 146.102 -0.227326 2.00817 0
M  V30 1573 C 146.423 -1.49511 1.25186 0
M  V30 1574 O 145.693 -1.92482 0.364348 0
M  V30 1575 H 144.273 -0.0869923 0.741917 0
M  V30 1576 H 146.935 0.488381 1.88682 0
M  V30 1577 H 146.031 -0.456273 3.08747 0
M  V30 1578 N 146.332 -1.57332 0.0918853 0
M  V30 1579 C 147.279 -2.13847 -0.868211 0
M  V30 1580 C 148.249 -1.05618 -1.28196 0
M  V30 1581 O 149.434 -1.33387 -1.36427 0
M  V30 1582 C 146.574 -2.72062 -2.12312 0
M  V30 1583 C 145.687 -3.94514 -1.7602 0
M  V30 1584 C 144.822 -4.40903 -2.96273 0
M  V30 1585 C 143.861 -5.55953 -2.56092 0
M  V30 1586 N 142.998 -5.97209 -3.69169 0
M  V30 1587 H 147.838 -2.95575 -0.379406 0
M  V30 1588 H 145.375 -1.46048 -0.175606 0
M  V30 1589 H 147.333 -3.03931 -2.858 0
M  V30 1590 H 145.963 -1.93068 -2.58698 0
M  V30 1591 H 145.015 -3.68979 -0.925135 0
M  V30 1592 H 146.327 -4.7802 -1.42472 0
M  V30 1593 H 145.481 -4.74539 -3.78018 0
M  V30 1594 H 144.22 -3.56291 -3.33029 0
M  V30 1595 H 143.225 -5.21948 -1.72773 0
M  V30 1596 H 144.45 -6.42311 -2.20484 0
M  V30 1597 H 142.396 -5.15543 -4.05649 0
M  V30 1598 H 142.313 -6.75504 -3.39456 0
M  V30 1599 H 143.581 -6.35475 -4.51434 0
M  V30 1600 N 147.81 0.181792 -1.56548 0
M  V30 1601 C 148.758 1.24461 -1.965 0
M  V30 1602 C 149.752 1.464 -0.852261 0
M  V30 1603 O 150.958 1.47103 -1.03733 0
M  V30 1604 H 147.333 0.418138 -0.625031 0
M  V30 1605 H 149.304 0.880714 -2.85107 0
M  V30 1606 C 148.053 2.57891 -2.33212 0
M  V30 1607 H 147.376 2.41829 -3.18369 0
M  V30 1608 H 148.816 3.3097 -2.65019 0
M  V30 1609 C 147.275 3.15871 -1.17163 0
M  V30 1610 O 147.805 3.9913 -0.453708 0
M  V30 1611 N 146.011 2.74808 -0.944936 0
M  V30 1612 H 145.558 2.07205 -1.53049 0
M  V30 1613 H 145.516 3.13939 -0.170286 0
M  V30 1614 N 149.288 1.51039 0.449983 0
M  V30 1615 C 150.536 1.62759 1.19808 0
M  V30 1616 C 150.857 0.339981 1.92013 0
M  V30 1617 O 150.127 -0.643606 1.85026 0
M  V30 1618 H 148.707 0.599811 0.445237 0
M  V30 1619 H 151.369 1.87914 0.517138 0
M  V30 1620 H 150.465 2.44911 1.93455 0
M  V30 1621 N 150.766 -0.704594 1.40972 0
M  V30 1622 C 151.676 -1.84856 1.44448 0
M  V30 1623 C 152.692 -1.70726 0.335961 0
M  V30 1624 O 153.868 -1.92799 0.582276 0
M  V30 1625 C 150.933 -3.20758 1.31587 0
M  V30 1626 C 149.994 -3.47063 2.52677 0
M  V30 1627 C 149.227 -4.76481 2.4042 0
M  V30 1628 O 149.45 -5.52341 1.42391 0
M  V30 1629 O 148.384 -5.03367 3.30007 0
M  V30 1630 H 152.21 -1.8488 2.40942 0
M  V30 1631 H 149.795 -0.85647 1.22413 0
M  V30 1632 H 151.677 -4.01913 1.26665 0
M  V30 1633 H 150.352 -3.21438 0.382049 0
M  V30 1634 H 149.259 -2.65873 2.63177 0
M  V30 1635 H 150.592 -3.5119 3.44858 0
M  V30 1636 N 152.244 -1.26651 -0.937939 0
M  V30 1637 C 153.194 -1.05156 -2.02302 0
M  V30 1638 C 154.178 0.0171233 -1.60891 0
M  V30 1639 O 155.37 -0.200213 -1.75864 0
M  V30 1640 C 152.499 -0.689962 -3.36295 0
M  V30 1641 C 151.585 -1.79626 -3.84181 0
M  V30 1642 N 151.976 -3.03422 -4.04684 0
M  V30 1643 C 150.274 -1.6806 -4.13124 0
M  V30 1644 C 150.975 -3.75345 -4.444 0
M  V30 1645 N 149.951 -3.03051 -4.51288 0
M  V30 1646 H 153.753 -1.99117 -2.1617 0
M  V30 1647 H 151.267 -1.17216 -1.12402 0
M  V30 1648 H 153.264 -0.517112 -4.13681 0
M  V30 1649 H 151.924 0.242139 -3.23796 0
M  V30 1650 H 152.935 -3.39293 -3.91281 0
M  V30 1651 H 149.612 -0.818629 -4.09396 0
M  V30 1652 H 151.002 -4.81691 -4.68427 0
M  V30 1653 N 153.722 1.14298 -1.08507 0
M  V30 1654 C 154.685 2.17607 -0.719711 0
M  V30 1655 C 155.685 1.58907 0.245997 0
M  V30 1656 O 156.875 1.74181 0.0254081 0
M  V30 1657 C 154.007 3.40842 -0.0627695 0
M  V30 1658 H 155.2 2.51443 -1.63452 0
M  V30 1659 H 152.753 1.28963 -0.88307 0
M  V30 1660 H 153.488 3.12587 0.863716 0
M  V30 1661 H 153.273 3.84713 -0.757504 0
M  V30 1662 H 154.763 4.17221 0.177786 0
M  V30 1663 N 155.201 0.870884 1.31352 0
M  V30 1664 C 156.426 0.495957 2.01383 0
M  V30 1665 C 156.851 -0.904324 1.64935 0
M  V30 1666 O 156.209 -1.59687 0.858466 0
M  V30 1667 C 156.257 0.661433 3.54482 0
M  V30 1668 O 155.361 -0.298851 4.11316 0
M  V30 1669 H 154.702 0.197158 0.634054 0
M  V30 1670 H 157.232 1.17455 1.67527 0
M  V30 1671 H 157.242 0.555072 4.04207 0
M  V30 1672 H 155.917 1.68246 3.8035 0
M  V30 1673 H 154.494 -0.147368 3.72609 0
M  V30 1674 N 156.679 -1.44442 0.630414 0
M  V30 1675 C 157.627 -2.32437 -0.0871428 0
M  V30 1676 C 158.621 -1.47304 -0.836525 0
M  V30 1677 O 159.827 -1.63653 -0.749506 0
M  V30 1678 H 156.202 -0.750533 -0.0469495 0
M  V30 1679 H 158.173 -2.90709 0.673096 0
M  V30 1680 C 156.922 -3.31288 -1.05563 0
M  V30 1681 H 156.245 -3.96805 -0.488426 0
M  V30 1682 H 157.685 -3.9554 -1.52721 0
M  V30 1683 C 156.144 -2.6016 -2.14052 0
M  V30 1684 O 156.674 -2.39997 -3.22124 0
M  V30 1685 N 154.88 -2.19911 -1.89967 0
M  V30 1686 H 154.427 -2.36509 -1.02085 0
M  V30 1687 H 154.385 -1.72646 -2.62756 0
M  V30 1688 N 158.157 -0.370918 -1.53173 0
M  V30 1689 C 159.087 0.464847 -2.28826 0
M  V30 1690 C 160.068 1.07936 -1.31468 0
M  V30 1691 O 161.253 1.0956 -1.60344 0
M  V30 1692 C 158.383 1.60196 -3.08147 0
M  V30 1693 C 157.337 1.11443 -4.13237 0
M  V30 1694 C 156.663 2.3422 -4.80672 0
M  V30 1695 C 157.963 0.195384 -5.21934 0
M  V30 1696 H 159.657 -0.166329 -2.98938 0
M  V30 1697 H 157.203 -0.0814359 -1.4377 0
M  V30 1698 H 159.156 2.19332 -3.59822 0
M  V30 1699 H 157.88 2.26045 -2.35735 0
M  V30 1700 H 156.539 0.545727 -3.62515 0
M  V30 1701 H 156.187 2.98537 -4.04827 0
M  V30 1702 H 155.887 2.02269 -5.51689 0
M  V30 1703 H 157.411 2.94032 -5.35143 0
M  V30 1704 H 158.825 0.694375 -5.69079 0
M  V30 1705 H 157.222 -0.0335027 -6.00091 0
M  V30 1706 H 158.292 -0.760961 -4.78892 0
M  V30 1707 N 159.635 1.57281 -0.100228 0
M  V30 1708 C 160.883 1.94153 0.561157 0
M  V30 1709 C 161.204 0.983157 1.68401 0
M  V30 1710 O 160.474 0.0361132 1.95867 0
M  V30 1711 H 159.054 0.716791 0.210283 0
M  V30 1712 H 161.716 1.94202 -0.164765 0
M  V30 1713 H 160.812 2.96709 0.968008 0
M  V30 1714 N 161.113 -0.173488 1.56642 0
M  V30 1715 C 162.076 -1.19859 1.95362 0
M  V30 1716 C 163.076 -1.37296 0.83704 0
M  V30 1717 O 164.266 -1.34739 1.10413 0
M  V30 1718 C 161.398 -2.56405 2.24654 0
M  V30 1719 H 162.591 -0.867062 2.87092 0
M  V30 1720 H 160.144 -0.415853 1.50666 0
M  V30 1721 H 160.879 -2.94576 1.35631 0
M  V30 1722 H 160.664 -2.45115 3.06041 0
M  V30 1723 H 162.154 -3.30287 2.5554 0
M  V30 1724 N 162.591 -1.51276 -0.441967 0
M  V30 1725 C 163.84 -1.6295 -1.18871 0
M  V30 1726 C 164.153 -0.349312 -1.92456 0
M  V30 1727 O 165.359 -0.345355 -2.69295 0
M  V30 1728 C 163.815 -2.87759 -2.16155 0
M  V30 1729 C 163.423 -4.22764 -1.48239 0
M  V30 1730 C 165.167 -3.08788 -2.91291 0
M  V30 1731 C 163.074 -5.38728 -2.4398 0
M  V30 1732 H 162.004 -0.606913 -0.447406 0
M  V30 1733 H 164.655 -1.77739 -0.456205 0
M  V30 1734 H 163.037 -2.66593 -2.92821 0
M  V30 1735 H 164.211 -4.54293 -0.771635 0
M  V30 1736 H 162.526 -4.07575 -0.852741 0
M  V30 1737 H 165.123 -3.92599 -3.63002 0
M  V30 1738 H 165.466 -2.21679 -3.5237 0
M  V30 1739 H 165.999 -3.30272 -2.21733 0
M  V30 1740 H 162.738 -6.28082 -1.87598 0
M  V30 1741 H 162.258 -5.1158 -3.13123 0
M  V30 1742 H 163.937 -5.70489 -3.05207 0
M  V30 1743 N 164.069 0.697108 -1.41344 0
M  V30 1744 C 165.318 1.45279 -1.39918 0
M  V30 1745 C 165.631 1.95597 -0.0109624 0
M  V30 1746 O 166.837 2.71208 0.125919 0
M  V30 1747 C 165.293 2.62695 -2.46007 0
M  V30 1748 C 164.901 2.19169 -3.90729 0
M  V30 1749 C 166.645 3.40336 -2.53715 0
M  V30 1750 C 164.552 3.33535 -4.88373 0
M  V30 1751 H 163.482 0.545692 -0.520323 0
M  V30 1752 H 166.133 0.756929 -1.67161 0
M  V30 1753 H 164.515 3.34541 -2.11892 0
M  V30 1754 H 165.689 1.54623 -4.34083 0
M  V30 1755 H 164.004 1.54525 -3.86666 0
M  V30 1756 H 166.601 4.2547 -3.2385 0
M  V30 1757 H 166.944 3.85418 -1.5735 0
M  V30 1758 H 167.477 2.75546 -2.86913 0
M  V30 1759 H 164.216 2.93468 -5.86137 0
M  V30 1760 H 163.736 3.96936 -4.49668 0
M  V30 1761 H 165.415 3.99335 -5.09059 0
M  V30 1762 N 165.547 1.27147 0.931209 0
M  V30 1763 C 166.51 1.09615 2.01289 0
M  V30 1764 C 167.51 0.0412581 1.60747 0
M  V30 1765 O 168.7 0.285545 1.71844 0
M  V30 1766 C 165.832 0.669447 3.34262 0
M  V30 1767 H 167.025 2.05662 2.18273 0
M  V30 1768 H 164.578 1.09885 1.11153 0
M  V30 1769 H 165.313 -0.292572 3.22978 0
M  V30 1770 H 165.098 1.43127 3.65044 0
M  V30 1771 H 166.588 0.568921 4.13706 0
M  V30 1772 N 167.025 -1.13721 1.09112 0
M  V30 1773 C 167.975 -2.17082 0.697091 0
M  V30 1774 C 168.959 -1.58321 -0.286923 0
M  V30 1775 O 170.151 -1.7673 -0.0978008 0
M  V30 1776 C 167.28 -3.43105 0.115729 0
M  V30 1777 C 166.366 -4.0888 1.12596 0
M  V30 1778 N 166.757 -4.4987 2.31195 0
M  V30 1779 C 165.055 -4.35471 0.963366 0
M  V30 1780 C 165.756 -5.01094 2.95431 0
M  V30 1781 N 164.732 -4.95751 2.23006 0
M  V30 1782 H 168.534 -2.46524 1.6001 0
M  V30 1783 H 166.048 -1.30481 0.966869 0
M  V30 1784 H 168.045 -4.16491 -0.184555 0
M  V30 1785 H 166.705 -3.15138 -0.78217 0
M  V30 1786 H 167.716 -4.42678 2.68806 0
M  V30 1787 H 164.393 -4.17328 0.119878 0
M  V30 1788 H 165.783 -5.4263 3.96236 0
M  V30 1789 N 168.503 -0.877838 -1.30888 0
M  V30 1790 C 169.919 -0.570844 -1.49042 0
M  V30 1791 C 170.119 0.893159 -1.80624 0
M  V30 1792 O 169.175 1.67485 -1.88958 0
M  V30 1793 C 170.488 -1.47784 -2.61878 0
M  V30 1794 C 172.036 -1.48071 -2.75761 0
M  V30 1795 C 172.511 -2.37347 -3.91702 0
M  V30 1796 N 174.002 -2.35271 -3.99001 0
M  V30 1797 C 174.737 -3.01063 -4.88004 0
M  V30 1798 N 174.233 -3.76055 -5.81854 0
M  V30 1799 N 176.026 -2.90332 -4.81315 0
M  V30 1800 H 168.177 -1.82502 -1.0866 0
M  V30 1801 H 170.44 -0.780797 -0.537644 0
M  V30 1802 H 170.146 -2.51993 -2.45341 0
M  V30 1803 H 170.02 -1.18215 -3.58197 0
M  V30 1804 H 172.407 -0.446166 -2.91708 0
M  V30 1805 H 172.488 -1.81668 -1.80085 0
M  V30 1806 H 172.132 -3.40883 -3.76512 0
M  V30 1807 H 172.062 -2.01071 -4.86701 0
M  V30 1808 H 174.553 -1.80768 -3.3186 0
M  V30 1809 H 174.866 -4.23366 -6.46514 0
M  V30 1810 H 173.211 -3.80163 -5.81808 0
M  V30 1811 H 176.402 -2.31278 -4.06974 0
M  V30 1812 H 176.575 -3.41885 -5.50471 0
M  V30 1813 N 169.982 1.44106 -0.638065 0
M  V30 1814 C 171.229 2.01978 -0.14533 0
M  V30 1815 C 171.557 1.50234 1.23532 0
M  V30 1816 O 170.812 0.679548 1.83523 0
M  V30 1817 C 171.111 3.5729 -0.0887327 0
M  V30 1818 C 170.777 4.28317 -1.40909 0
M  V30 1819 C 169.439 4.47437 -1.77069 0
M  V30 1820 C 171.791 4.6867 -2.28031 0
M  V30 1821 C 169.119 5.04171 -3.00047 0
M  V30 1822 C 171.471 5.26766 -3.50286 0
M  V30 1823 C 170.135 5.44104 -3.86661 0
M  V30 1824 H 169.405 0.739089 -0.0531801 0
M  V30 1825 H 172.052 1.72781 -0.825761 0
M  V30 1826 H 170.357 3.8594 0.675095 0
M  V30 1827 H 172.054 3.99807 0.309145 0
M  V30 1828 H 168.644 4.1377 -1.1177 0
M  V30 1829 H 172.828 4.53604 -2.01388 0
M  V30 1830 H 168.084 5.15782 -3.28298 0
M  V30 1831 H 172.258 5.56983 -4.18023 0
M  V30 1832 H 169.885 5.87832 -4.82034 0
M  V30 1833 N 171.46 0.379036 1.52974 0
M  V30 1834 C 172.685 -0.209353 2.06341 0
M  V30 1835 C 173.11 -1.40583 1.24972 0
M  V30 1836 O 172.468 -1.79246 0.272155 0
M  V30 1837 C 172.516 -0.567786 3.56102 0
M  V30 1838 O 171.62 -1.66318 3.77375 0
M  V30 1839 H 170.961 -0.0272919 0.663439 0
M  V30 1840 H 173.491 0.543536 1.97248 0
M  V30 1841 H 173.501 -0.835003 3.99364 0
M  V30 1842 H 172.176 0.307013 4.14765 0
M  V30 1843 H 170.753 -1.39048 3.46006 0
M  V30 1844 N 172.938 -1.57226 0.108567 0
M  V30 1845 C 174.163 -1.99604 -0.563303 0
M  V30 1846 C 174.588 -0.987563 -1.6009 0
M  V30 1847 O 173.946 0.0421687 -1.81251 0
M  V30 1848 C 173.994 -3.40902 -1.17552 0
M  V30 1849 O 173.098 -3.42896 -2.2912 0
M  V30 1850 H 172.439 -0.648704 -0.1417 0
M  V30 1851 H 174.969 -2.03679 0.193961 0
M  V30 1852 H 174.979 -3.78886 -1.51357 0
M  V30 1853 H 173.654 -4.1382 -0.415445 0
M  V30 1854 H 172.231 -3.1672 -1.96832 0
M  V30 1855 N 174.416 0.165178 -1.56732 0
M  V30 1856 C 175.326 1.22423 -2.00125 0
M  V30 1857 C 176.342 1.48084 -0.913619 0
M  V30 1858 O 177.518 1.60112 -1.22172 0
M  V30 1859 C 174.583 2.54197 -2.35764 0
M  V30 1860 C 173.644 2.36343 -3.58386 0
M  V30 1861 C 172.877 3.61834 -3.92316 0
M  V30 1862 O 173.1 4.67267 -3.27135 0
M  V30 1863 O 172.034 3.55579 -4.85641 0
M  V30 1864 H 175.86 0.885886 -2.90492 0
M  V30 1865 H 173.445 0.372518 -1.44681 0
M  V30 1866 H 175.327 3.3192 -2.59629 0
M  V30 1867 H 174.002 2.87598 -1.48557 0
M  V30 1868 H 172.909 1.56632 -3.39731 0
M  V30 1869 H 174.242 2.07865 -4.46154 0
M  V30 1870 N 175.894 1.51508 0.433938 0
M  V30 1871 C 177.122 1.68157 1.20543 0
M  V30 1872 C 177.537 0.380362 1.84929 0
M  V30 1873 O 176.894 -0.641446 1.70856 0
M  V30 1874 C 176.945 2.79965 2.28696 0
M  V30 1875 O 176.666 4.05045 1.66943 0
M  V30 1876 C 178.167 3.07912 3.18912 0
M  V30 1877 H 175.387 0.56421 0.363191 0
M  V30 1878 H 177.931 1.97941 0.513754 0
M  V30 1879 H 176.086 2.5277 2.93574 0
M  V30 1880 H 176.5 4.67165 2.38448 0
M  V30 1881 H 177.974 3.89719 3.90926 0
M  V30 1882 H 178.451 2.20456 3.79863 0
M  V30 1883 H 179.057 3.36779 2.59731 0
M  V30 1884 N 177.372 -0.689602 1.41712 0
M  V30 1885 C 178.62 -1.4468 1.4111 0
M  V30 1886 C 178.941 -1.94986 0.0232196 0
M  V30 1887 O 178.211 -1.72097 -0.935913 0
M  V30 1888 H 176.791 -0.536847 0.519427 0
M  V30 1889 H 179.453 -0.815825 1.77004 0
M  V30 1890 H 178.549 -2.30706 2.10193 0
M  V30 1891 N 178.85 -1.27639 -0.924453 0
M  V30 1892 C 180.096 -1.14336 -1.67497 0
M  V30 1893 C 180.429 0.309465 -1.91718 0
M  V30 1894 O 179.704 1.22608 -1.50989 0
M  V30 1895 C 179.987 -1.93096 -3.0395 0
M  V30 1896 C 179.84 -3.46381 -2.8695 0
M  V30 1897 C 181.159 -1.73798 -4.0433 0
M  V30 1898 H 178.278 -0.416728 -0.607871 0
M  V30 1899 H 180.92 -1.56832 -1.07256 0
M  V30 1900 H 179.07 -1.56982 -3.55372 0
M  V30 1901 H 180.742 -3.92343 -2.42621 0
M  V30 1902 H 178.985 -3.72557 -2.22225 0
M  V30 1903 H 179.656 -3.96735 -3.83804 0
M  V30 1904 H 182.132 -2.05293 -3.61931 0
M  V30 1905 H 181.008 -2.31294 -4.97789 0
M  V30 1906 H 181.269 -0.686725 -4.36734 0
M  V30 1907 N 180.328 1.1314 -1.09713 0
M  V30 1908 C 181.739 1.66029 -0.853885 0
M  V30 1909 C 182.09 1.86241 0.617142 0
M  V30 1910 O 181.215 1.5834 1.47503 0
M  V30 1911 C 181.81 3.01599 -1.5435 0
M  V30 1912 C 180.369 3.51467 -1.34714 0
M  V30 1913 C 179.516 2.26648 -1.59769 0
M  V30 1914 H 182.467 0.970226 -1.25588 0
M  V30 1915 H 182.488 3.67709 -0.978267 0
M  V30 1916 H 182 2.86856 -2.6141 0
M  V30 1917 H 180.101 3.71408 -0.297838 0
M  V30 1918 H 180.214 4.314 -2.08401 0
M  V30 1919 H 178.578 2.33385 -1.01998 0
M  V30 1920 H 179.361 2.14467 -2.68065 0
M  V30 1921 N 181.806 0.884767 1.30421 0
M  V30 1922 C 182.769 0.356277 2.26414 0
M  V30 1923 C 183.769 -0.501124 1.52792 0
M  V30 1924 O 184.959 -0.30831 1.7145 0
M  V30 1925 C 182.091 -0.492316 3.37326 0
M  V30 1926 H 183.284 1.20389 2.74675 0
M  V30 1927 H 180.837 0.661607 1.41607 0
M  V30 1928 H 181.572 -1.36052 2.94381 0
M  V30 1929 H 181.357 0.121832 3.91911 0
M  V30 1930 H 182.847 -0.853871 4.08777 0
M  V30 1931 N 183.284 -1.43765 0.645699 0
M  V30 1932 C 184.514 -2.05953 0.163318 0
M  V30 1933 C 184.922 -1.48432 -1.17322 0
M  V30 1934 O 184.265 -0.607295 -1.73371 0
M  V30 1935 C 184.327 -3.59499 -0.0103065 0
M  V30 1936 C 183.991 -4.39563 1.25035 0
M  V30 1937 C 184.988 -4.72108 2.17739 0
M  V30 1938 C 182.673 -4.79697 1.48983 0
M  V30 1939 C 184.667 -5.43688 3.3269 0
M  V30 1940 C 182.354 -5.51023 2.64229 0
M  V30 1941 C 183.352 -5.8294 3.55908 0
M  V30 1942 O 183.04 -6.5281 4.69142 0
M  V30 1943 H 182.772 -0.670798 0.0836986 0
M  V30 1944 H 185.326 -1.85384 0.884407 0
M  V30 1945 H 183.556 -3.78613 -0.78669 0
M  V30 1946 H 185.245 -4.03408 -0.449087 0
M  V30 1947 H 186.011 -4.41627 2.00476 0
M  V30 1948 H 181.89 -4.54266 0.785078 0
M  V30 1949 H 185.434 -5.68517 4.04269 0
M  V30 1950 H 181.331 -5.8092 2.81429 0
M  V30 1951 H 182.099 -6.71288 4.6831 0
M  V30 1952 N 184.763 -0.387143 -1.52771 0
M  V30 1953 C 186.009 0.196025 -2.0185 0
M  V30 1954 C 186.342 1.46641 -1.27319 0
M  V30 1955 O 185.617 1.90889 -0.373032 0
M  V30 1956 C 185.9 0.466136 -3.5707 0
M  V30 1957 C 185.753 -0.819385 -4.42274 0
M  V30 1958 C 187.072 1.25768 -4.21747 0
M  V30 1959 H 184.191 0.0697708 -0.73369 0
M  V30 1960 H 186.833 -0.516286 -1.82851 0
M  V30 1961 H 184.983 1.07293 -3.7339 0
M  V30 1962 H 186.655 -1.4563 -4.37709 0
M  V30 1963 H 184.898 -1.43517 -4.09372 0
M  V30 1964 H 185.569 -0.585065 -5.48891 0
M  V30 1965 H 188.045 0.744167 -4.09391 0
M  V30 1966 H 186.921 1.41541 -5.30337 0
M  V30 1967 H 187.182 2.27228 -3.79236 0
M  V30 1968 N 186.241 1.57166 -0.116904 0
M  V30 1969 C 187.487 1.95412 0.542405 0
M  V30 1970 C 187.82 1.00019 1.66463 0
M  V30 1971 O 187.095 0.0370346 1.94465 0
M  V30 1972 C 187.378 3.43615 1.07708 0
M  V30 1973 C 187.231 4.49781 -0.0415868 0
M  V30 1974 C 188.55 3.93616 1.96861 0
M  V30 1975 H 185.669 0.710543 0.195696 0
M  V30 1976 H 188.311 1.89027 -0.192038 0
M  V30 1977 H 186.461 3.49187 1.70296 0
M  V30 1978 H 188.133 4.56308 -0.676793 0
M  V30 1979 H 186.376 4.28033 -0.705019 0
M  V30 1980 H 187.047 5.50733 0.373717 0
M  V30 1981 H 189.523 3.90335 1.44146 0
M  V30 1982 H 188.399 4.97838 2.3119 0
M  V30 1983 H 188.66 3.34188 2.89432 0
M  V30 1984 N 187.719 -0.156864 1.56817 0
M  V30 1985 C 188.996 -0.899244 1.73704 0
M  V30 1986 C 189.376 -1.99771 0.682254 0
M  V30 1987 O 188.724 -2.26515 -0.300522 0
M  V30 1988 C 188.934 -1.45075 3.17418 0
M  V30 1989 C 190.282 -1.91802 3.7881 0
M  V30 1990 O 191.306 -1.54838 3.20786 0
M  V30 1991 O 190.165 -2.5994 4.80722 0
M  V30 1992 H 187.259 -0.424267 0.709878 0
M  V30 1993 H 189.805 -0.143561 1.69092 0
M  V30 1994 H 188.577 -0.660846 3.85679 0
M  V30 1995 H 188.2 -2.27021 3.26416 0
M  V30 1996 N 189.197 -1.51736 -0.425897 0
M  V30 1997 C 190.608 -1.5732 -1.00536 0
M  V30 1998 C 190.959 -0.403537 -1.92005 0
M  V30 1999 O 190.084 0.478256 -2.11049 0
M  V30 2000 C 190.679 -2.85119 -1.8301 0
M  V30 2001 C 189.238 -2.93236 -2.35987 0
M  V30 2002 C 188.385 -2.52098 -1.15508 0
M  V30 2003 H 191.336 -1.57348 -0.206739 0
M  V30 2004 H 191.357 -2.69526 -2.68581 0
M  V30 2005 H 190.869 -3.7023 -1.16411 0
M  V30 2006 H 188.97 -2.12581 -3.06007 0
M  V30 2007 H 189.083 -3.9713 -2.68001 0
M  V30 2008 H 187.447 -2.05558 -1.50393 0
M  V30 2009 H 188.23 -3.39565 -0.505014 0
M  V30 2010 N 190.675 0.682077 -1.42076 0
M  V30 2011 C 191.921 1.44428 -1.42367 0
M  V30 2012 C 192.254 1.94164 -0.0373056 0
M  V30 2013 O 191.529 1.70429 0.937239 0
M  V30 2014 C 191.812 2.64654 -2.44194 0
M  V30 2015 C 191.665 2.20596 -3.91991 0
M  V30 2016 C 192.984 3.66865 -2.431 0
M  V30 2017 H 190.103 0.523834 -0.518428 0
M  V30 2018 H 192.745 0.77576 -1.73442 0
M  V30 2019 H 190.895 3.2169 -2.17826 0
M  V30 2020 H 192.567 1.68783 -4.29313 0
M  V30 2021 H 190.81 1.52242 -4.06208 0
M  V30 2022 H 191.481 3.06921 -4.58807 0
M  V30 2023 H 193.957 3.19531 -2.66532 0
M  V30 2024 H 192.833 4.48577 -3.16339 0
M  V30 2025 H 193.094 4.17493 -1.45437 0
M  V30 2026 N 192.153 1.28127 0.917671 0
M  V30 2027 C 193.399 1.15223 1.66888 0
M  V30 2028 C 193.732 -0.299293 1.9188 0
M  V30 2029 O 193.007 -1.21805 1.51637 0
M  V30 2030 C 193.29 1.94706 3.02922 0
M  V30 2031 C 193.143 3.47898 2.85109 0
M  V30 2032 C 194.462 1.75939 4.03402 0
M  V30 2033 H 191.581 0.419946 0.605652 0
M  V30 2034 H 194.223 1.57398 1.06423 0
M  V30 2035 H 192.373 1.58864 3.54534 0
M  V30 2036 H 194.045 3.93624 2.40537 0
M  V30 2037 H 192.288 3.7373 2.20246 0
M  V30 2038 H 192.959 3.98765 3.81694 0
M  V30 2039 H 195.435 2.07209 3.60837 0
M  V30 2040 H 194.311 2.33931 4.96556 0
M  V30 2041 H 194.572 0.709877 4.36364 0
M  V30 2042 N 193.631 -1.12557 1.10312 0
M  V30 2043 C 194.877 -1.84311 0.846011 0
M  V30 2044 C 195.21 -1.83805 -0.626859 0
M  V30 2045 O 194.485 -1.28268 -1.46211 0
M  V30 2046 C 194.768 -3.32048 1.39341 0
M  V30 2047 C 194.621 -3.41016 2.93305 0
M  V30 2048 C 195.94 -4.27764 1.03468 0
M  V30 2049 H 193.059 -0.669192 0.30879 0
M  V30 2050 H 195.701 -1.32057 1.36605 0
M  V30 2051 H 193.851 -3.76678 0.951087 0
M  V30 2052 H 195.523 -3.05031 3.46055 0
M  V30 2053 H 193.766 -2.81603 3.29973 0
M  V30 2054 H 194.437 -4.44948 3.26689 0
M  V30 2055 H 196.913 -3.91253 1.41633 0
M  V30 2056 H 195.789 -5.29549 1.44463 0
M  V30 2057 H 196.05 -4.42064 -0.0560404 0
M  V30 2058 N 195.109 -0.891671 -1.2995 0
M  V30 2059 C 196.386 -0.433307 -1.9074 0
M  V30 2060 C 196.766 1.08646 -1.80995 0
M  V30 2061 O 196.114 1.92476 -1.23147 0
M  V30 2062 C 196.324 -0.938895 -3.36134 0
M  V30 2063 C 197.672 -0.977829 -4.13187 0
M  V30 2064 O 198.696 -0.886015 -3.45005 0
M  V30 2065 O 197.555 -1.11453 -5.35015 0
M  V30 2066 H 194.649 -0.133699 -0.816121 0
M  V30 2067 H 197.195 -0.981011 -1.38471 0
M  V30 2068 H 195.967 -1.98281 -3.37343 0
M  V30 2069 H 195.59 -0.37074 -3.95868 0
M  V30 2070 N 196.587 1.43421 -0.653314 0
M  V30 2071 C 197.497 2.34568 0.0388565 0
M  V30 2072 C 198.513 1.53888 0.81207 0
M  V30 2073 O 199.689 1.86539 0.759294 0
M  V30 2074 C 196.754 3.32167 0.993269 0
M  V30 2075 C 195.815 4.28751 0.216977 0
M  V30 2076 C 195.048 5.21688 1.12593 0
M  V30 2077 O 195.271 5.19052 2.36519 0
M  V30 2078 O 194.205 5.98919 0.598284 0
M  V30 2079 H 198.031 2.95251 -0.711386 0
M  V30 2080 H 195.616 1.43564 -0.413502 0
M  V30 2081 H 197.498 3.92183 1.54176 0
M  V30 2082 H 196.173 2.73987 1.72374 0
M  V30 2083 H 195.08 3.72215 -0.375101 0
M  V30 2084 H 196.413 4.89913 -0.473924 0
M  V30 2085 N 198.065 0.39524 1.52563 0
M  V30 2086 C 198.998 -0.4813 2.23067 0
M  V30 2087 C 199.976 -1.05927 1.23362 0
M  V30 2088 O 201.16 -1.10979 1.52368 0
M  V30 2089 C 198.287 -1.66676 2.9485 0
M  V30 2090 C 197.333 -1.21348 4.08873 0
M  V30 2091 S 198.166 -0.190102 5.35162 0
M  V30 2092 C 199.322 -1.38121 6.1047 0
M  V30 2093 H 199.555 0.117381 2.97068 0
M  V30 2094 H 197.088 0.179458 1.53354 0
M  V30 2095 H 199.046 -2.3466 3.36816 0
M  V30 2096 H 197.707 -2.23676 2.20518 0
M  V30 2097 H 196.9 -2.09877 4.58222 0
M  V30 2098 H 196.502 -0.612486 3.68951 0
M  V30 2099 H 198.794 -2.30726 6.37002 0
M  V30 2100 H 199.737 -0.928521 7.01986 0
M  V30 2101 H 200.145 -1.60071 5.41329 0
M  V30 2102 N 199.544 -1.57102 0.125237 0
M  V30 2103 C 200.454 -2.19191 -0.8362 0
M  V30 2104 C 201.47 -1.16985 -1.28805 0
M  V30 2105 O 202.646 -1.49479 -1.34974 0
M  V30 2106 C 199.711 -2.78407 -2.06617 0
M  V30 2107 C 198.772 -3.9567 -1.66565 0
M  V30 2108 C 198.005 -4.52052 -2.83698 0
M  V30 2109 O 198.228 -4.07326 -3.99302 0
M  V30 2110 O 197.162 -5.42645 -2.60423 0
M  V30 2111 H 200.988 -3.01816 -0.337776 0
M  V30 2112 H 198.573 -1.4906 -0.100695 0
M  V30 2113 H 200.455 -3.16129 -2.7864 0
M  V30 2114 H 199.13 -1.9881 -2.55453 0
M  V30 2115 H 198.037 -3.62705 -0.916296 0
M  V30 2116 H 199.37 -4.76722 -1.22464 0
M  V30 2117 N 201.022 0.148545 -1.56898 0
M  V30 2118 C 202.299 0.890019 -1.74178 0
M  V30 2119 C 202.679 1.99407 -0.692839 0
M  V30 2120 O 202.027 2.26671 0.288505 0
M  V30 2121 C 202.237 1.43389 -3.18183 0
M  V30 2122 C 203.585 1.89791 -3.79822 0
M  V30 2123 O 204.609 1.53134 -3.21603 0
M  V30 2124 O 203.468 2.57387 -4.82093 0
M  V30 2125 H 200.562 0.420496 -0.712118 0
M  V30 2126 H 203.108 0.134591 -1.69165 0
M  V30 2127 H 201.88 0.640383 -3.86024 0
M  V30 2128 H 201.503 2.25287 -3.27615 0
M  V30 2129 N 202.5 1.5196 0.417844 0
M  V30 2130 C 203.746 1.65836 1.16732 0
M  V30 2131 C 204.079 0.382881 1.90388 0
M  V30 2132 O 203.354 -0.618368 1.84408 0
M  V30 2133 C 203.637 2.87466 2.16876 0
M  V30 2134 C 203.49 4.25041 1.47174 0
M  V30 2135 C 204.809 3.04613 3.17646 0
M  V30 2136 H 201.928 0.603515 0.423011 0
M  V30 2137 H 204.57 1.84494 0.454105 0
M  V30 2138 H 202.72 2.71689 2.777 0
M  V30 2139 H 204.392 4.52527 0.895376 0
M  V30 2140 H 202.635 4.26843 0.773806 0
M  V30 2141 H 203.306 5.06176 2.20204 0
M  V30 2142 H 205.782 3.1923 2.66892 0
M  V30 2143 H 204.658 3.91247 3.8499 0
M  V30 2144 H 204.919 2.17541 3.84874 0
M  V30 2145 N 203.978 -0.674533 1.42435 0
M  V30 2146 C 204.941 -1.76986 1.45632 0
M  V30 2147 C 205.941 -1.5708 0.343871 0
M  V30 2148 O 207.131 -1.63367 0.604709 0
M  V30 2149 C 204.263 -3.15623 1.28822 0
M  V30 2150 H 205.456 -1.75539 2.43158 0
M  V30 2151 H 203.009 -0.884189 1.28887 0
M  V30 2152 H 203.744 -3.22696 0.322193 0
M  V30 2153 H 203.529 -3.31475 2.09444 0
M  V30 2154 H 205.019 -3.95537 1.33942 0
M  V30 2155 N 205.456 -1.28612 -0.910864 0
M  V30 2156 C 206.872 -1.06381 -1.18976 0
M  V30 2157 C 207.072 0.191998 -2.00583 0
M  V30 2158 O 206.128 0.892869 -2.36187 0
M  V30 2159 C 207.441 -2.31295 -1.92154 0
M  V30 2160 C 208.989 -2.36503 -2.05025 0
M  V30 2161 C 209.464 -3.61191 -2.81612 0
M  V30 2162 N 210.955 -3.61847 -2.89172 0
M  V30 2163 C 211.69 -4.55004 -3.4894 0
M  V30 2164 N 211.186 -5.58482 -4.09963 0
M  V30 2165 N 212.979 -4.42594 -3.46506 0
M  V30 2166 H 205.13 -2.09221 -0.366094 0
M  V30 2167 H 207.393 -0.921003 -0.224629 0
M  V30 2168 H 207.099 -3.228 -1.39618 0
M  V30 2169 H 206.973 -2.37934 -2.9269 0
M  V30 2170 H 209.36 -1.45494 -2.5674 0
M  V30 2171 H 209.441 -2.33857 -1.03657 0
M  V30 2172 H 209.085 -4.52545 -2.30576 0
M  V30 2173 H 209.015 -3.61092 -3.83302 0
M  V30 2174 H 211.506 -2.87022 -2.45819 0
M  V30 2175 H 211.819 -6.25704 -4.53557 0
M  V30 2176 H 210.164 -5.62305 -4.08459 0
M  V30 2177 H 213.355 -3.60953 -2.98045 0
M  V30 2178 H 213.528 -5.15381 -3.92793 0
M  V30 2179 N 206.934 1.1197 -1.10907 0
M  V30 2180 C 208.18 1.8386 -0.855773 0
M  V30 2181 C 208.513 1.84134 0.617103 0
M  V30 2182 O 207.788 1.29041 1.45529 0
M  V30 2183 C 208.071 3.31305 -1.411 0
M  V30 2184 C 207.924 3.39456 -2.9511 0
M  V30 2185 C 209.243 4.2721 -1.05736 0
M  V30 2186 H 206.362 0.667545 -0.312334 0
M  V30 2187 H 209.004 1.31331 -1.37303 0
M  V30 2188 H 207.154 3.76169 -0.97105 0
M  V30 2189 H 208.826 3.03191 -3.47668 0
M  V30 2190 H 207.069 2.79849 -3.31462 0
M  V30 2191 H 207.74 4.43209 -3.29044 0
M  V30 2192 H 210.216 3.90497 -1.43706 0
M  V30 2193 H 209.092 5.28775 -1.47269 0
M  V30 2194 H 209.353 4.42088 0.0325958 0
M  V30 2195 N 208.412 0.89855 1.29475 0
M  V30 2196 C 209.637 0.538561 2.00285 0
M  V30 2197 C 210.062 -0.869135 1.66816 0
M  V30 2198 O 209.42 -1.57831 0.892145 0
M  V30 2199 C 209.468 0.736475 3.52999 0
M  V30 2200 O 208.572 -0.211537 4.11857 0
M  V30 2201 H 207.913 0.210563 0.62973 0
M  V30 2202 H 210.443 1.20982 1.64998 0
M  V30 2203 H 210.453 0.640685 4.02938 0
M  V30 2204 H 209.128 1.76276 3.76696 0
M  V30 2205 H 207.705 -0.0682991 3.72837 0
M  V30 2206 N 209.89 -1.43072 0.660911 0
M  V30 2207 C 211.138 -2.01323 0.177094 0
M  V30 2208 C 211.459 -1.5245 -1.2159 0
M  V30 2209 O 210.729 -0.740322 -1.81373 0
M  V30 2210 H 209.309 -0.744382 0.0624804 0
M  V30 2211 H 211.971 -1.75179 0.854305 0
M  V30 2212 H 211.067 -3.11649 0.167641 0
M  V30 2213 N 211.368 -0.403325 -1.52352 0
M  V30 2214 C 212.318 0.442244 -2.2367 0
M  V30 2215 C 213.302 1.01823 -1.24583 0
M  V30 2216 O 214.494 0.942005 -1.49851 0
M  V30 2217 C 211.623 1.5615 -3.05732 0
M  V30 2218 C 210.709 0.996575 -4.12225 0
M  V30 2219 N 211.1 0.157804 -5.05554 0
M  V30 2220 C 209.398 1.26767 -4.27605 0
M  V30 2221 C 210.099 -0.155853 -5.81491 0
M  V30 2222 N 209.075 0.451775 -5.41719 0
M  V30 2223 H 212.877 -0.204964 -2.93184 0
M  V30 2224 H 210.391 -0.213418 -1.60992 0
M  V30 2225 H 212.388 2.17981 -3.55373 0
M  V30 2226 H 211.048 2.21139 -2.37755 0
M  V30 2227 H 212.059 -0.206049 -5.1749 0
M  V30 2228 H 208.736 1.91757 -3.70858 0
M  V30 2229 H 210.126 -0.836329 -6.66675 0
M  V30 2230 N 212.846 1.57033 -0.133567 0
M  V30 2231 C 214.257 1.82593 0.389464 0
M  V30 2232 C 214.608 1.05156 1.6564 0
M  V30 2233 O 213.733 0.292644 2.14412 0
M  V30 2234 C 214.328 3.31204 0.713377 0
M  V30 2235 C 212.887 3.57393 1.18098 0
M  V30 2236 C 212.034 2.76598 0.197126 0
M  V30 2237 H 214.985 1.54598 -0.358481 0
M  V30 2238 H 215.006 3.46627 1.56939 0
M  V30 2239 H 214.518 3.87537 -0.2089 0
M  V30 2240 H 212.619 3.06433 2.11966 0
M  V30 2241 H 212.732 4.65915 1.11624 0
M  V30 2242 H 211.096 2.45257 0.687088 0
M  V30 2243 H 211.879 3.35697 -0.718504 0
M  V30 2244 N 214.325 -0.140222 1.56975 0
M  V30 2245 C 215.273 -1.19207 1.99731 0
M  V30 2246 C 216.267 -1.44089 0.890777 0
M  V30 2247 O 217.473 -1.44301 1.07597 0
M  V30 2248 H 213.848 -0.40142 0.635898 0
M  V30 2249 H 215.819 -0.804813 2.87342 0
M  V30 2250 C 214.568 -2.51617 2.39967 0
M  V30 2251 H 213.891 -2.33303 3.24669 0
M  V30 2252 H 215.331 -3.23827 2.73701 0
M  V30 2253 C 213.79 -3.12654 1.25496 0
M  V30 2254 O 214.32 -3.97786 0.559371 0
M  V30 2255 N 212.526 -2.72206 1.01746 0
M  V30 2256 H 212.073 -2.03074 1.58489 0
M  V30 2257 H 212.031 -3.13377 0.253461 0
M  V30 2258 N 215.803 -1.52179 -0.40978 0
M  V30 2259 C 217.033 -1.69807 -1.17682 0
M  V30 2260 C 217.441 -0.406908 -1.84773 0
M  V30 2261 O 216.784 0.626863 -1.72673 0
M  V30 2262 C 216.846 -2.77712 -2.2829 0
M  V30 2263 C 216.51 -4.19481 -1.81341 0
M  V30 2264 C 217.507 -5.03345 -1.30154 0
M  V30 2265 C 215.192 -4.65713 -1.88194 0
M  V30 2266 C 217.186 -6.31511 -0.864416 0
M  V30 2267 C 214.873 -5.93869 -1.44093 0
M  V30 2268 C 215.871 -6.76597 -0.933023 0
M  V30 2269 O 215.559 -8.02354 -0.49838 0
M  V30 2270 H 215.291 -0.572372 -0.359675 0
M  V30 2271 H 217.845 -1.99511 -0.488311 0
M  V30 2272 H 216.075 -2.43383 -3.00502 0
M  V30 2273 H 217.764 -2.83946 -2.90051 0
M  V30 2274 H 218.53 -4.68819 -1.24232 0
M  V30 2275 H 214.409 -4.01424 -2.26671 0
M  V30 2276 H 217.953 -6.96033 -0.467286 0
M  V30 2277 H 213.85 -6.27903 -1.49694 0
M  V30 2278 H 214.618 -8.16135 -0.621747 0
M  V30 2279 N 217.281 0.66697 -1.42791 0
M  V30 2280 C 218.213 1.7925 -1.42836 0
M  V30 2281 C 219.226 1.59496 -0.326333 0
M  V30 2282 O 220.415 1.6847 -0.589916 0
M  V30 2283 C 217.515 3.16476 -1.21229 0
M  V30 2284 C 216.688 3.63011 -2.44013 0
M  V30 2285 C 215.747 4.78993 -2.17834 0
M  V30 2286 O 214.773 4.89137 -2.91091 0
M  V30 2287 N 215.975 5.68248 -1.18635 0
M  V30 2288 H 218.74 1.79695 -2.39854 0
M  V30 2289 H 216.301 0.850338 -1.37771 0
M  V30 2290 H 218.293 3.91734 -1.01621 0
M  V30 2291 H 216.863 3.10884 -0.32706 0
M  V30 2292 H 216.083 2.78346 -2.79137 0
M  V30 2293 H 217.371 3.90845 -3.25757 0
M  V30 2294 H 216.769 5.62712 -0.580615 0
M  V30 2295 H 215.326 6.43285 -1.05013 0
M  V30 2296 N 218.759 1.29093 0.90403 0
M  V30 2297 C 220.175 1.07011 1.1841 0
M  V30 2298 C 220.375 -0.181358 2.00682 0
M  V30 2299 O 219.431 -0.880331 2.36657 0
M  V30 2300 C 220.744 2.32311 1.90924 0
M  V30 2301 C 222.292 2.37587 2.03768 0
M  V30 2302 C 222.767 3.62679 2.79693 0
M  V30 2303 N 224.258 3.63376 2.87249 0
M  V30 2304 C 224.993 4.56848 3.46522 0
M  V30 2305 N 224.489 5.60648 4.06996 0
M  V30 2306 N 226.282 4.44426 3.44154 0
M  V30 2307 H 218.433 2.09412 0.354993 0
M  V30 2308 H 220.696 0.922181 0.219742 0
M  V30 2309 H 220.402 3.23536 1.37905 0
M  V30 2310 H 220.276 2.39483 2.91424 0
M  V30 2311 H 222.663 1.46853 2.55965 0
M  V30 2312 H 222.744 2.34403 1.02415 0
M  V30 2313 H 222.388 4.53762 2.28173 0
M  V30 2314 H 222.318 3.63119 3.81381 0
M  V30 2315 H 224.809 2.88321 2.44293 0
M  V30 2316 H 225.122 6.28101 4.50232 0
M  V30 2317 H 223.467 5.64463 4.05471 0
M  V30 2318 H 226.658 3.62529 2.96126 0
M  V30 2319 H 226.831 5.17457 3.90054 0
M  V30 2320 N 220.237 -1.11381 1.11499 0
M  V30 2321 C 221.184 -2.17439 0.773887 0
M  V30 2322 C 222.154 -1.64132 -0.254899 0
M  V30 2323 O 223.339 -1.90345 -0.13168 0
M  V30 2324 C 220.479 -3.44373 0.223917 0
M  V30 2325 C 219.592 -4.1168 1.30934 0
M  V30 2326 C 218.727 -5.263 0.71984 0
M  V30 2327 C 217.766 -5.85493 1.78507 0
M  V30 2328 N 216.903 -6.91507 1.21502 0
M  V30 2329 H 221.743 -2.45962 1.68246 0
M  V30 2330 H 219.28 -1.20744 0.840191 0
M  V30 2331 H 221.238 -4.17047 -0.112921 0
M  V30 2332 H 219.868 -3.16232 -0.647851 0
M  V30 2333 H 218.92 -3.37073 1.76312 0
M  V30 2334 H 220.232 -4.51729 2.11524 0
M  V30 2335 H 219.386 -6.05785 0.333094 0
M  V30 2336 H 218.125 -4.87559 -0.117377 0
M  V30 2337 H 217.13 -5.04686 2.18111 0
M  V30 2338 H 218.355 -6.26301 2.62533 0
M  V30 2339 H 216.301 -6.54783 0.399455 0
M  V30 2340 H 216.218 -7.30214 1.95763 0
M  V30 2341 H 217.486 -7.74795 0.855181 0
M  V30 2342 N 221.715 -0.905404 -1.28997 0
M  V30 2343 C 222.94 -0.549175 -1.99997 0
M  V30 2344 C 223.365 0.860276 -1.67275 0
M  V30 2345 O 222.723 1.57355 -0.900502 0
M  V30 2346 C 222.771 -0.755185 -3.52604 0
M  V30 2347 O 221.875 0.189692 -4.11964 0
M  V30 2348 H 221.216 -0.213899 -0.628604 0
M  V30 2349 H 223.746 -1.21856 -1.64354 0
M  V30 2350 H 223.756 -0.662045 -4.02593 0
M  V30 2351 H 222.431 -1.78271 -3.75755 0
M  V30 2352 H 221.008 0.0485257 -3.72868 0
M  V30 2353 N 223.193 1.4272 -0.668489 0
M  V30 2354 C 224.442 2.00846 -0.185389 0
M  V30 2355 C 224.755 1.53442 1.21305 0
M  V30 2356 O 225.961 2.03944 1.79218 0
M  V30 2357 C 224.417 3.58805 -0.280591 0
M  V30 2358 C 224.025 4.15198 -1.68268 0
M  V30 2359 C 225.769 4.24255 0.14412 0
M  V30 2360 C 223.676 5.655 -1.73099 0
M  V30 2361 H 222.606 0.751145 -0.0655475 0
M  V30 2362 H 225.257 1.63516 -0.832752 0
M  V30 2363 H 223.639 3.93608 0.434553 0
M  V30 2364 H 224.813 3.91866 -2.42441 0
M  V30 2365 H 223.128 3.62176 -2.05469 0
M  V30 2366 H 225.725 5.34547 0.128086 0
M  V30 2367 H 226.068 3.99277 1.17827 0
M  V30 2368 H 226.601 3.94389 -0.519798 0
M  V30 2369 H 223.34 5.95268 -2.74475 0
M  V30 2370 H 222.86 5.90842 -1.03274 0
M  V30 2371 H 224.539 6.29808 -1.48158 0
M  V30 2372 N 224.671 0.411399 1.52136 0
M  V30 2373 C 225.918 -0.163645 2.01838 0
M  V30 2374 C 226.246 -1.4495 1.29691 0
M  V30 2375 O 225.501 -1.91725 0.392431 0
M  V30 2376 C 225.8 -0.455872 3.54481 0
M  V30 2377 C 225.466 0.741055 4.44769 0
M  V30 2378 C 224.128 1.06936 4.69167 0
M  V30 2379 C 226.48 1.54075 4.97906 0
M  V30 2380 C 223.808 2.19851 5.43951 0
M  V30 2381 C 226.16 2.66067 5.73926 0
M  V30 2382 C 224.824 2.99381 5.96596 0
M  V30 2383 H 224.094 -0.0598821 0.738576 0
M  V30 2384 H 226.741 0.553283 1.83333 0
M  V30 2385 H 225.046 -1.2544 3.71177 0
M  V30 2386 H 226.743 -0.913802 3.90449 0
M  V30 2387 H 223.333 0.475192 4.25958 0
M  V30 2388 H 227.517 1.30033 4.78963 0
M  V30 2389 H 222.773 2.46006 5.59724 0
M  V30 2390 H 226.947 3.28419 6.14096 0
M  V30 2391 H 224.574 3.86992 6.54325 0
M  V30 2392 N 226.149 -1.5696 0.141893 0
M  V30 2393 C 227.099 -2.13074 -0.811383 0
M  V30 2394 C 228.083 -1.05726 -1.21288 0
M  V30 2395 O 229.275 -1.31914 -1.18015 0
M  V30 2396 C 226.404 -2.75186 -2.0525 0
M  V30 2397 C 225.49 -3.8965 -1.67432 0
M  V30 2398 N 225.881 -4.95733 -1.0041 0
M  V30 2399 C 224.179 -4.00262 -1.96739 0
M  V30 2400 C 224.88 -5.75858 -0.822345 0
M  V30 2401 N 223.856 -5.26452 -1.3546 0
M  V30 2402 H 227.658 -2.92465 -0.290031 0
M  V30 2403 H 225.172 -1.6229 -0.0598218 0
M  V30 2404 H 227.169 -3.13745 -2.74535 0
M  V30 2405 H 225.829 -1.97266 -2.57907 0
M  V30 2406 H 226.84 -5.13607 -0.665441 0
M  V30 2407 H 223.517 -3.33412 -2.51282 0
M  V30 2408 H 224.907 -6.71254 -0.294496 0
M  V30 2409 N 227.627 0.131896 -1.57047 0
M  V30 2410 C 228.59 1.14638 -1.98471 0
M  V30 2411 C 229.59 1.35029 -0.873148 0
M  V30 2412 O 230.78 1.31764 -1.13946 0
M  V30 2413 C 227.912 2.50358 -2.31373 0
M  V30 2414 H 229.105 0.79064 -2.8929 0
M  V30 2415 H 226.658 0.375761 -1.51716 0
M  V30 2416 H 227.393 2.90876 -1.43393 0
M  V30 2417 H 227.178 2.36915 -3.12432 0
M  V30 2418 H 228.668 3.23395 -2.64207 0
M  V30 2419 N 229.106 1.52395 0.401703 0
M  V30 2420 C 230.036 1.79231 1.49661 0
M  V30 2421 C 231.017 0.643654 1.57452 0
M  V30 2422 O 232.202 0.889989 1.72606 0
M  V30 2423 C 229.332 1.94971 2.87409 0
M  V30 2424 C 228.286 3.10604 2.94465 0
M  V30 2425 C 227.612 3.11577 4.34538 0
M  V30 2426 C 228.912 4.49921 2.6527 0
M  V30 2427 H 230.606 2.70917 1.27454 0
M  V30 2428 H 228.152 1.30362 0.6117 0
M  V30 2429 H 230.105 2.12328 3.63999 0
M  V30 2430 H 228.829 0.999632 3.10926 0
M  V30 2431 H 227.488 2.93009 2.20321 0
M  V30 2432 H 227.136 2.14277 4.55076 0
M  V30 2433 H 226.836 3.89247 4.40183 0
M  V30 2434 H 228.36 3.31073 5.13053 0
M  V30 2435 H 229.774 4.67683 3.31581 0
M  V30 2436 H 228.171 5.29564 2.82281 0
M  V30 2437 H 229.241 4.57507 1.60671 0
M  V30 2438 N 230.584 -0.659388 1.43143 0
M  V30 2439 C 231.532 -1.79374 1.4808 0
M  V30 2440 C 232.526 -1.65639 0.354988 0
M  V30 2441 O 233.732 -1.7206 0.528704 0
M  V30 2442 H 230.107 -0.591705 0.4641 0
M  V30 2443 H 232.078 -1.72329 2.43609 0
M  V30 2444 C 230.827 -3.17606 1.41499 0
M  V30 2445 H 230.15 -3.28809 2.27431 0
M  V30 2446 H 231.59 -3.96951 1.49015 0
M  V30 2447 C 230.049 -3.36642 0.131765 0
M  V30 2448 O 230.579 -3.93461 -0.809386 0
M  V30 2449 N 228.785 -2.90567 0.0439396 0
M  V30 2450 H 228.332 -2.44513 0.810619 0
M  V30 2451 H 228.29 -3.03681 -0.813969 0
M  V30 2452 N 232.062 -1.29571 -0.897171 0
M  V30 2453 C 232.994 -1.10724 -2.00681 0
M  V30 2454 C 234.007 -0.0540026 -1.6271 0
M  V30 2455 O 235.196 -0.298783 -1.75982 0
M  V30 2456 C 232.296 -0.663912 -3.32333 0
M  V30 2457 C 231.469 -1.79622 -3.98816 0
M  V30 2458 C 230.528 -1.34349 -5.0876 0
M  V30 2459 O 229.554 -2.04864 -5.31055 0
M  V30 2460 N 230.756 -0.215764 -5.80099 0
M  V30 2461 H 233.521 -2.06291 -2.17403 0
M  V30 2462 H 231.082 -1.21544 -1.06951 0
M  V30 2463 H 233.074 -0.344295 -4.03233 0
M  V30 2464 H 231.644 0.199375 -3.11964 0
M  V30 2465 H 230.864 -2.28459 -3.21248 0
M  V30 2466 H 232.152 -2.55535 -4.39976 0
M  V30 2467 H 231.55 0.372091 -5.64475 0
M  V30 2468 H 230.107 0.0444707 -6.51785 0
M  V30 2469 N 233.54 1.10788 -1.12088 0
M  V30 2470 C 234.487 2.17025 -0.785407 0
M  V30 2471 C 235.457 1.64265 0.246191 0
M  V30 2472 O 236.642 1.90412 0.121584 0
M  V30 2473 C 233.782 3.44249 -0.242177 0
M  V30 2474 C 232.895 4.1098 -1.33115 0
M  V30 2475 C 232.03 5.25911 -0.747741 0
M  V30 2476 C 231.069 5.84538 -1.81609 0
M  V30 2477 N 230.206 6.90853 -1.25167 0
M  V30 2478 H 235.046 2.45066 -1.69548 0
M  V30 2479 H 232.583 1.20297 -0.846582 0
M  V30 2480 H 234.541 4.17101 0.0908026 0
M  V30 2481 H 233.171 3.16571 0.631072 0
M  V30 2482 H 232.223 3.36133 -1.78097 0
M  V30 2483 H 233.535 4.50601 -2.13917 0
M  V30 2484 H 232.689 6.056 -0.365216 0
M  V30 2485 H 231.428 4.87614 0.0915188 0
M  V30 2486 H 230.433 5.03522 -2.20785 0
M  V30 2487 H 231.658 6.249 -2.6585 0
M  V30 2488 H 229.604 6.54562 -0.434174 0
M  V30 2489 H 229.521 7.29166 -1.99633 0
M  V30 2490 H 230.789 7.7433 -0.896259 0
M  V30 2491 N 235.018 0.912232 1.28515 0
M  V30 2492 C 236.246 0.560416 1.99166 0
M  V30 2493 C 236.661 -0.857927 1.68182 0
M  V30 2494 O 236.018 -1.56805 0.933733 0
M  V30 2495 C 236.069 0.758142 3.53461 0
M  V30 2496 O 235.79 2.12067 3.83352 0
M  V30 2497 C 237.291 0.412954 4.41372 0
M  V30 2498 H 234.511 0.213805 0.636026 0
M  V30 2499 H 237.055 1.22502 1.63749 0
M  V30 2500 H 235.21 0.140556 3.87145 0
M  V30 2501 H 235.624 2.15923 4.77993 0
M  V30 2502 H 237.098 0.60208 5.48707 0
M  V30 2503 H 237.575 -0.65073 4.34353 0
M  V30 2504 H 238.181 1.00802 4.13182 0
M  V30 2505 N 236.496 -1.42363 0.676048 0
M  V30 2506 C 237.742 -2.0182 0.199125 0
M  V30 2507 C 238.075 -1.53339 -1.19168 0
M  V30 2508 O 237.35 -0.736124 -1.80032 0
M  V30 2509 C 237.633 -3.59331 0.235144 0
M  V30 2510 C 237.486 -4.17989 1.66149 0
M  V30 2511 C 238.805 -4.3813 -0.41595 0
M  V30 2512 H 235.924 -0.733293 0.0738311 0
M  V30 2513 H 238.566 -1.69368 0.86107 0
M  V30 2514 H 236.716 -3.87109 -0.328487 0
M  V30 2515 H 238.388 -4.0116 2.27747 0
M  V30 2516 H 236.631 -3.7377 2.20178 0
M  V30 2517 H 237.302 -5.27126 1.63837 0
M  V30 2518 H 239.778 -4.16051 0.0638529 0
M  V30 2519 H 238.654 -5.47717 -0.360115 0
M  V30 2520 H 238.915 -4.16101 -1.49373 0
M  V30 2521 N 237.974 -0.419461 -1.51915 0
M  V30 2522 C 238.937 0.389116 -2.25873 0
M  V30 2523 C 239.937 0.964924 -1.28631 0
M  V30 2524 O 241.127 0.842179 -1.52489 0
M  V30 2525 C 238.259 1.54874 -3.03689 0
M  V30 2526 H 239.452 -0.258799 -2.98781 0
M  V30 2527 H 237.005 -0.172209 -1.55348 0
M  V30 2528 H 237.74 2.23323 -2.35154 0
M  V30 2529 H 237.525 1.14223 -3.75094 0
M  V30 2530 H 239.015 2.12046 -3.59759 0
M  V30 2531 N 239.452 1.56882 -0.150215 0
M  V30 2532 C 240.399 2.16922 0.788244 0
M  V30 2533 C 241.369 1.10303 1.24187 0
M  V30 2534 O 242.554 1.38359 1.31383 0
M  V30 2535 C 239.694 2.79754 2.02068 0
M  V30 2536 C 238.807 4.00775 1.61257 0
M  V30 2537 C 237.942 4.51595 2.79705 0
M  V30 2538 C 236.981 5.65074 2.35282 0
M  V30 2539 N 236.118 6.10499 3.4675 0
M  V30 2540 H 240.958 2.96779 0.269444 0
M  V30 2541 H 238.495 1.46599 0.12128 0
M  V30 2542 H 240.453 3.14329 2.74323 0
M  V30 2543 H 239.083 2.02536 2.51354 0
M  V30 2544 H 238.135 3.72158 0.787553 0
M  V30 2545 H 239.447 4.82978 1.24633 0
M  V30 2546 H 238.601 4.88242 3.60145 0
M  V30 2547 H 237.34 3.68406 3.19576 0
M  V30 2548 H 236.345 5.28 1.53283 0
M  V30 2549 H 237.57 6.50052 1.96493 0
M  V30 2550 H 235.516 5.30243 3.86236 0
M  V30 2551 H 235.433 6.87637 3.14152 0
M  V30 2552 H 236.701 6.51791 4.27537 0
M  V30 2553 N 240.93 -0.123565 1.57115 0
M  V30 2554 C 241.84 -1.17074 2.033 0
M  V30 2555 C 242.856 -1.4561 0.952559 0
M  V30 2556 O 244.032 -1.56817 1.26374 0
M  V30 2557 C 241.097 -2.47857 2.42421 0
M  V30 2558 C 240.158 -2.26758 3.64526 0
M  V30 2559 C 239.391 -3.51305 4.01771 0
M  V30 2560 O 239.614 -4.5843 3.39409 0
M  V30 2561 O 238.548 -3.42578 4.94898 0
M  V30 2562 H 242.374 -0.808555 2.92739 0
M  V30 2563 H 239.959 -0.334027 1.45618 0
M  V30 2564 H 241.841 -3.2492 2.68338 0
M  V30 2565 H 240.516 -2.83558 1.5613 0
M  V30 2566 H 239.423 -1.47569 3.43765 0
M  V30 2567 H 240.756 -1.95963 4.51508 0
M  V30 2568 N 242.408 -1.52605 -0.393616 0
M  V30 2569 C 243.654 -1.67672 -1.14079 0
M  V30 2570 C 243.987 -0.413121 -1.89755 0
M  V30 2571 O 243.262 0.588952 -1.85369 0
M  V30 2572 C 243.545 -2.9088 -2.12276 0
M  V30 2573 C 243.398 -4.27329 -1.40394 0
M  V30 2574 C 244.717 -3.09628 -3.12759 0
M  V30 2575 H 241.836 -0.610168 -0.413356 0
M  V30 2576 H 244.478 -1.85193 -0.424696 0
M  V30 2577 H 242.628 -2.76073 -2.73342 0
M  V30 2578 H 244.3 -4.53894 -0.82327 0
M  V30 2579 H 242.543 -4.2802 -0.705801 0
M  V30 2580 H 243.214 -5.09615 -2.12123 0
M  V30 2581 H 245.69 -3.23436 -2.61779 0
M  V30 2582 H 244.566 -3.97322 -3.78717 0
M  V30 2583 H 244.827 -2.23637 -3.81365 0
M  V30 2584 N 243.887 0.651787 -1.4349 0
M  V30 2585 C 244.85 1.74647 -1.48429 0
M  V30 2586 C 245.85 1.56513 -0.368817 0
M  V30 2587 O 247.04 1.62385 -0.630623 0
M  V30 2588 C 244.172 3.13533 -1.33827 0
M  V30 2589 H 245.365 1.71649 -2.4592 0
M  V30 2590 H 242.918 0.863573 -1.30277 0
M  V30 2591 H 243.653 3.22142 -0.37349 0
M  V30 2592 H 243.438 3.28101 -2.14691 0
M  V30 2593 H 244.928 3.93356 -1.40218 0
M  V30 2594 N 245.365 1.30045 0.890287 0
M  V30 2595 C 246.781 1.08261 1.17268 0
M  V30 2596 C 246.981 -0.160063 2.00863 0
M  V30 2597 O 246.037 -0.855181 2.37577 0
M  V30 2598 C 247.35 2.34323 1.8845 0
M  V30 2599 C 248.898 2.39735 2.01237 0
M  V30 2600 C 249.373 3.65625 2.7583 0
M  V30 2601 N 250.864 3.66402 2.83379 0
M  V30 2602 C 251.599 4.60498 3.41657 0
M  V30 2603 N 251.095 5.64933 4.01026 0
M  V30 2604 N 252.888 4.48051 3.39421 0
M  V30 2605 H 245.039 2.09777 0.332762 0
M  V30 2606 H 247.302 0.92446 0.209948 0
M  V30 2607 H 247.008 3.2498 1.34465 0
M  V30 2608 H 246.882 2.4256 2.88867 0
M  V30 2609 H 249.269 1.4956 2.54393 0
M  V30 2610 H 249.35 2.35476 0.999232 0
M  V30 2611 H 248.994 4.56156 2.23347 0
M  V30 2612 H 248.924 3.67144 3.77509 0
M  V30 2613 H 251.415 2.90896 2.41222 0
M  V30 2614 H 251.728 6.32841 4.43545 0
M  V30 2615 H 250.073 5.68732 3.99461 0
M  V30 2616 H 253.264 3.65649 2.92264 0
M  V30 2617 H 253.437 5.21565 3.84544 0
M  V30 2618 N 246.843 -1.10192 1.12674 0
M  V30 2619 C 247.776 -2.15847 0.740625 0
M  V30 2620 C 248.754 -1.60352 -0.269421 0
M  V30 2621 O 249.938 -1.87796 -0.16278 0
M  V30 2622 C 247.065 -3.38562 0.096641 0
M  V30 2623 C 246.111 -4.12758 1.07391 0
M  V30 2624 S 246.944 -4.67997 2.60267 0
M  V30 2625 C 248.1 -5.94021 1.97206 0
M  V30 2626 H 248.333 -2.48266 1.63558 0
M  V30 2627 H 245.866 -1.22019 0.946087 0
M  V30 2628 H 247.824 -4.09621 -0.268535 0
M  V30 2629 H 246.485 -3.04377 -0.775462 0
M  V30 2630 H 245.678 -5.00755 0.570997 0
M  V30 2631 H 245.28 -3.47523 1.38216 0
M  V30 2632 H 247.572 -6.64589 1.31634 0
M  V30 2633 H 248.515 -6.48979 2.83253 0
M  V30 2634 H 248.923 -5.46169 1.42686 0
M  V30 2635 N 248.321 -0.919034 -1.28029 0
M  V30 2636 C 249.254 -0.355887 -2.25408 0
M  V30 2637 C 250.232 0.542874 -1.5327 0
M  V30 2638 O 251.416 0.485338 -1.82145 0
M  V30 2639 C 248.543 0.490759 -3.35126 0
M  V30 2640 C 247.589 -0.343358 -4.25116 0
M  V30 2641 S 248.422 -1.75344 -5.05979 0
M  V30 2642 C 249.578 -0.914244 -6.19187 0
M  V30 2643 H 249.811 -1.18123 -2.72826 0
M  V30 2644 H 247.344 -0.720636 -1.36551 0
M  V30 2645 H 249.302 0.973404 -3.98792 0
M  V30 2646 H 247.963 1.29054 -2.86363 0
M  V30 2647 H 247.156 0.304266 -5.03081 0
M  V30 2648 H 246.758 -0.759851 -3.662 0
M  V30 2649 H 249.05 -0.146282 -6.77342 0
M  V30 2650 H 249.993 -1.66661 -6.88208 0
M  V30 2651 H 250.401 -0.460082 -5.62622 0
M  V30 2652 N 249.799 1.42003 -0.683588 0
M  V30 2653 C 250.747 2.326 0.000815408 0
M  V30 2654 C 251.741 1.50308 0.781278 0
M  V30 2655 O 252.947 1.66322 0.688251 0
M  V30 2656 H 249.322 0.751758 0.0190616 0
M  V30 2657 H 251.293 2.88011 -0.780528 0
M  V30 2658 C 250.042 3.34978 0.93195 0
M  V30 2659 H 249.365 3.98345 0.340817 0
M  V30 2660 H 250.805 4.00936 1.37936 0
M  V30 2661 C 249.264 2.67925 2.04249 0
M  V30 2662 O 249.794 2.51788 3.12995 0
M  V30 2663 N 248 2.2681 1.81675 0
M  V30 2664 H 247.547 2.40135 0.932363 0
M  V30 2665 H 247.505 1.8228 2.56167 0
M  V30 2666 N 251.277 0.427512 1.51691 0
M  V30 2667 C 252.224 -0.388867 2.275 0
M  V30 2668 C 253.194 -1.02532 1.30677 0
M  V30 2669 O 254.379 -1.0461 1.59566 0
M  V30 2670 C 251.519 -1.48954 3.11298 0
M  V30 2671 C 250.632 -0.872194 4.23104 0
M  V30 2672 C 249.767 -1.94709 4.94228 0
M  V30 2673 C 248.806 -1.30766 5.97969 0
M  V30 2674 N 247.943 -2.32349 6.62539 0
M  V30 2675 H 252.783 0.263997 2.96828 0
M  V30 2676 H 250.32 0.142033 1.46413 0
M  V30 2677 H 252.278 -2.13887 3.58201 0
M  V30 2678 H 250.908 -2.11217 2.44105 0
M  V30 2679 H 249.96 -0.111419 3.80237 0
M  V30 2680 H 251.272 -0.365264 4.97461 0
M  V30 2681 H 250.426 -2.67327 5.44629 0
M  V30 2682 H 249.165 -2.48773 4.1948 0
M  V30 2683 H 248.17 -0.566902 5.4687 0
M  V30 2684 H 249.395 -0.774483 6.74669 0
M  V30 2685 H 247.341 -2.85511 5.90609 0
M  V30 2686 H 247.258 -1.8652 7.3263 0
M  V30 2687 H 248.526 -3.04481 7.17574 0
M  V30 2688 N 252.755 -1.56801 0.158532 0
M  V30 2689 C 254.171 -1.5837 -0.197774 0
M  V30 2690 C 254.371 -1.17334 -1.63814 0
M  V30 2691 O 253.427 -0.878988 -2.36707 0
M  V30 2692 C 254.74 -3.00615 0.0714459 0
M  V30 2693 C 256.288 -3.12999 0.00864533 0
M  V30 2694 C 256.763 -4.57313 0.250685 0
M  V30 2695 N 258.254 -4.62777 0.198014 0
M  V30 2696 C 258.989 -5.72271 0.359642 0
M  V30 2697 N 258.485 -6.90371 0.579625 0
M  V30 2698 N 260.278 -5.61318 0.296438 0
M  V30 2699 H 252.429 -1.81765 1.09887 0
M  V30 2700 H 254.692 -0.841849 0.435884 0
M  V30 2701 H 254.398 -3.35068 1.06874 0
M  V30 2702 H 254.272 -3.71683 -0.642757 0
M  V30 2703 H 256.659 -2.7838 -0.979217 0
M  V30 2704 H 256.74 -2.44393 0.755359 0
M  V30 2705 H 256.384 -4.92639 1.2357 0
M  V30 2706 H 256.314 -5.24061 -0.516489 0
M  V30 2707 H 258.805 -3.77885 0.0331115 0
M  V30 2708 H 259.118 -7.69689 0.69275 0
M  V30 2709 H 257.463 -6.92264 0.616087 0
M  V30 2710 H 260.654 -4.67932 0.125258 0
M  V30 2711 H 260.827 -6.46599 0.425831 0
M  V30 2712 N 254.233 0.115231 -1.57178 0
M  V30 2713 C 255.463 0.835224 -1.88964 0
M  V30 2714 C 255.871 1.73774 -0.74829 0
M  V30 2715 O 255.214 1.81401 0.289739 0
M  V30 2716 C 255.276 1.7178 -3.15804 0
M  V30 2717 C 254.94 0.989198 -4.46166 0
M  V30 2718 C 255.937 0.328263 -5.18863 0
M  V30 2719 C 253.622 0.969256 -4.9286 0
M  V30 2720 C 255.616 -0.342873 -6.36477 0
M  V30 2721 C 253.303 0.294324 -6.10391 0
M  V30 2722 C 254.301 -0.360582 -6.82048 0
M  V30 2723 O 253.989 -1.02474 -7.97342 0
M  V30 2724 H 253.721 0.245197 -0.629964 0
M  V30 2725 H 256.275 0.10303 -2.05141 0
M  V30 2726 H 254.505 2.49173 -2.95719 0
M  V30 2727 H 256.194 2.31255 -3.33581 0
M  V30 2728 H 256.96 0.335263 -4.8384 0
M  V30 2729 H 252.839 1.46844 -4.36987 0
M  V30 2730 H 256.383 -0.854629 -6.92345 0
M  V30 2731 H 252.28 0.285099 -6.4487 0
M  V30 2732 H 253.048 -0.929594 -8.13204 0
M  V30 2733 N 255.711 1.52812 0.385517 0
M  V30 2734 C 256.621 1.80766 1.49535 0
M  V30 2735 C 257.637 0.694651 1.59532 0
M  V30 2736 O 258.813 0.982611 1.75803 0
M  V30 2737 C 255.878 1.97381 2.85029 0
M  V30 2738 C 254.939 3.21295 2.84724 0
M  V30 2739 C 254.172 3.37108 4.13756 0
M  V30 2740 O 254.395 2.5765 5.08893 0
M  V30 2741 O 253.329 4.30378 4.20783 0
M  V30 2742 H 257.155 2.75015 1.28842 0
M  V30 2743 H 254.74 1.37946 0.573697 0
M  V30 2744 H 256.622 2.09996 3.65349 0
M  V30 2745 H 255.297 1.06322 3.05741 0
M  V30 2746 H 254.204 3.1412 2.03174 0
M  V30 2747 H 255.537 4.12212 2.68965 0
M  V30 2748 N 257.189 -0.644168 1.43834 0
M  V30 2749 C 258.099 -1.78563 1.52159 0
M  V30 2750 C 259.115 -1.69147 0.408069 0
M  V30 2751 O 260.291 -1.90156 0.663524 0
M  V30 2752 C 257.356 -3.14888 1.45073 0
M  V30 2753 C 256.417 -3.36034 2.6717 0
M  V30 2754 C 255.65 -4.65855 2.60413 0
M  V30 2755 O 255.873 -5.45805 1.65689 0
M  V30 2756 O 254.807 -4.88918 3.5106 0
M  V30 2757 H 258.633 -1.74494 2.48567 0
M  V30 2758 H 256.218 -0.80378 1.25935 0
M  V30 2759 H 258.1 -3.96179 1.43597 0
M  V30 2760 H 256.775 -3.19528 0.518037 0
M  V30 2761 H 255.682 -2.54472 2.74217 0
M  V30 2762 H 257.015 -3.36247 3.59442 0
M  V30 2763 N 258.668 -1.30515 -0.883378 0
M  V30 2764 C 259.601 -1.11359 -1.99184 0
M  V30 2765 C 260.579 -0.0207858 -1.62587 0
M  V30 2766 O 261.763 -0.174646 -1.87689 0
M  V30 2767 C 258.89 -0.69871 -3.31415 0
M  V30 2768 C 257.936 -1.79261 -3.86998 0
M  V30 2769 S 258.769 -3.39536 -4.14096 0
M  V30 2770 C 259.925 -2.99954 -5.49344 0
M  V30 2771 H 260.158 -2.052 -2.15128 0
M  V30 2772 H 257.691 -1.14847 -1.03196 0
M  V30 2773 H 259.649 -0.466075 -4.07846 0
M  V30 2774 H 258.31 0.220368 -3.13326 0
M  V30 2775 H 257.503 -1.45464 -4.82552 0
M  V30 2776 H 257.105 -1.97961 -3.17313 0
M  V30 2777 H 259.397 -2.48013 -6.30473 0
M  V30 2778 H 260.34 -3.9442 -5.8808 0
M  V30 2779 H 260.748 -2.37775 -5.1198 0
M  V30 2780 N 260.146 1.09593 -1.13257 0
M  V30 2781 C 261.094 2.18271 -0.803783 0
M  V30 2782 C 262.088 1.68054 0.213148 0
M  V30 2783 O 263.294 1.79862 0.0704699 0
M  V30 2784 H 259.669 0.711949 -0.242143 0
M  V30 2785 H 261.64 2.43235 -1.72856 0
M  V30 2786 C 260.389 3.46536 -0.28424 0
M  V30 2787 H 259.712 3.85545 -1.05807 0
M  V30 2788 H 261.152 4.23899 -0.0925945 0
M  V30 2789 C 259.611 3.22036 0.989684 0
M  V30 2790 O 260.141 3.44509 2.06584 0
M  V30 2791 N 258.347 2.7565 0.920086 0
M  V30 2792 H 257.894 2.57562 0.0442019 0
M  V30 2793 H 257.852 2.59635 1.77306 0
M  V30 2794 N 261.624 0.925811 1.2754 0
M  V30 2795 C 262.554 0.440748 2.29303 0
M  V30 2796 C 263.535 -0.497971 1.62648 0
M  V30 2797 O 264.72 -0.403126 1.8997 0
M  V30 2798 C 261.85 -0.309048 3.45922 0
M  V30 2799 C 260.804 0.54166 4.24559 0
M  V30 2800 C 260.13 -0.337191 5.33636 0
M  V30 2801 C 261.43 1.80516 4.90114 0
M  V30 2802 H 263.124 1.29121 2.70126 0
M  V30 2803 H 260.67 0.622323 1.29858 0
M  V30 2804 H 262.623 -0.659315 4.1621 0
M  V30 2805 H 261.347 -1.19352 3.04011 0
M  V30 2806 H 260.006 0.874609 3.56014 0
M  V30 2807 H 259.654 -1.22056 4.87966 0
M  V30 2808 H 259.354 0.228497 5.87156 0
M  V30 2809 H 260.878 -0.683072 6.06767 0
M  V30 2810 H 262.292 1.52307 5.52698 0
M  V30 2811 H 260.689 2.3142 5.53683 0
M  V30 2812 H 261.759 2.52581 4.13921 0
M  V30 2813 N 263.102 -1.41638 0.69111 0
M  V30 2814 C 264.348 -2.01598 0.220519 0
M  V30 2815 C 264.681 -1.54594 -1.17535 0
M  V30 2816 O 263.956 -0.755177 -1.79241 0
M  V30 2817 C 264.239 -3.59062 0.273243 0
M  V30 2818 C 264.092 -4.16203 1.70573 0
M  V30 2819 C 265.411 -4.38546 -0.369457 0
M  V30 2820 H 262.53 -0.732468 0.0816045 0
M  V30 2821 H 265.172 -1.68445 0.878986 0
M  V30 2822 H 263.322 -3.87435 -0.287411 0
M  V30 2823 H 264.994 -3.98722 2.31989 0
M  V30 2824 H 263.237 -3.71414 2.2413 0
M  V30 2825 H 263.908 -5.25358 1.69419 0
M  V30 2826 H 266.384 -4.1596 0.107977 0
M  V30 2827 H 265.26 -5.48069 -0.302002 0
M  V30 2828 H 265.521 -4.17662 -1.44951 0
M  V30 2829 N 264.58 -0.43555 -1.51462 0
M  V30 2830 C 265.826 0.131709 -2.02372 0
M  V30 2831 C 266.159 1.42516 -1.3192 0
M  V30 2832 O 265.434 1.89606 -0.433573 0
M  V30 2833 C 265.717 0.352301 -3.58373 0
M  V30 2834 C 265.57 -0.959676 -4.39443 0
M  V30 2835 C 266.889 1.12286 -4.25535 0
M  V30 2836 H 264.008 0.0463936 -0.735538 0
M  V30 2837 H 266.65 -0.574197 -1.81116 0
M  V30 2838 H 264.8 0.9536 -3.76615 0
M  V30 2839 H 266.472 -1.59482 -4.32855 0
M  V30 2840 H 264.715 -1.56468 -4.04599 0
M  V30 2841 H 265.386 -0.759394 -5.46752 0
M  V30 2842 H 267.862 0.613545 -4.11552 0
M  V30 2843 H 266.738 1.24598 -5.34571 0
M  V30 2844 H 266.999 2.15048 -3.86273 0
M  V30 2845 N 266.058 1.56714 -0.166846 0
M  V30 2846 C 267.021 2.16539 0.751232 0
M  V30 2847 C 268.021 1.11228 1.16125 0
M  V30 2848 O 269.211 1.36765 1.07894 0
M  V30 2849 C 266.343 2.74462 2.02196 0
M  V30 2850 H 267.536 2.99013 0.230499 0
M  V30 2851 H 265.089 1.56081 0.0826982 0
M  V30 2852 H 265.824 1.95709 2.58589 0
M  V30 2853 H 265.609 3.51527 1.73698 0
M  V30 2854 H 267.099 3.20489 2.67725 0
M  V30 2855 N 267.536 -0.106894 1.57237 0
M  V30 2856 C 268.486 -1.1366 1.9765 0
M  V30 2857 C 269.47 -1.36416 0.853203 0
M  V30 2858 O 270.662 -1.37305 1.11697 0
M  V30 2859 C 267.791 -2.46 2.39455 0
M  V30 2860 C 266.877 -2.26668 3.58445 0
M  V30 2861 N 267.268 -1.77176 4.73754 0
M  V30 2862 C 265.566 -2.57279 3.64312 0
M  V30 2863 C 266.267 -1.71836 5.5574 0
M  V30 2864 N 265.243 -2.16623 4.98573 0
M  V30 2865 H 269.045 -0.74669 2.84256 0
M  V30 2866 H 266.559 -0.314483 1.59326 0
M  V30 2867 H 268.556 -3.2049 2.6663 0
M  V30 2868 H 267.216 -2.85738 1.54219 0
M  V30 2869 H 268.227 -1.46545 4.96734 0
M  V30 2870 H 264.904 -3.00622 2.89711 0
M  V30 2871 H 266.294 -1.34723 6.58255 0
M  V30 2872 N 269.014 -1.53014 -0.377408 0
M  V30 2873 C 269.947 -1.73382 -1.48371 0
M  V30 2874 C 270.925 -0.581879 -1.51832 0
M  V30 2875 O 272.109 -0.81307 -1.70063 0
M  V30 2876 C 269.236 -1.80192 -2.8679 0
M  V30 2877 C 268.282 -3.02056 -3.01105 0
M  V30 2878 S 269.115 -4.61811 -2.71093 0
M  V30 2879 C 270.271 -4.71453 -4.11683 0
M  V30 2880 H 270.504 -2.66946 -1.30872 0
M  V30 2881 H 268.037 -1.43453 -0.571012 0
M  V30 2882 H 269.995 -1.84802 -3.6655 0
M  V30 2883 H 268.656 -0.877008 -3.01608 0
M  V30 2884 H 267.849 -3.03396 -4.02451 0
M  V30 2885 H 267.451 -2.95498 -2.29253 0
M  V30 2886 H 269.743 -4.50781 -5.0577 0
M  V30 2887 H 270.686 -5.73487 -4.15353 0
M  V30 2888 H 271.094 -4.00189 -3.98132 0
M  V30 2889 N 270.492 0.636531 -1.44174 0
M  V30 2890 C 271.74 1.39343 -1.46383 0
M  V30 2891 C 272.061 1.94766 -0.0955715 0
M  V30 2892 O 271.331 1.75452 0.871395 0
M  V30 2893 H 269.911 0.517199 -0.538994 0
M  V30 2894 H 272.573 0.74957 -1.7991 0
M  V30 2895 H 271.669 2.22746 -2.18611 0
M  V30 2896 N 271.97 1.30982 0.876444 0
M  V30 2897 C 273.218 1.20058 1.62575 0
M  V30 2898 C 273.539 -0.242947 1.93481 0
M  V30 2899 O 272.809 -1.1619 1.57724 0
M  V30 2900 H 271.389 0.44135 0.602677 0
M  V30 2901 H 274.051 1.64222 1.04962 0
M  V30 2902 H 273.147 1.76762 2.57219 0
M  V30 2903 N 273.449 -1.08991 1.13837 0
M  V30 2904 C 274.697 -1.80899 0.901098 0
M  V30 2905 C 275.018 -1.86356 -0.574134 0
M  V30 2906 O 274.288 -1.35235 -1.41733 0
M  V30 2907 H 272.868 -0.669966 0.330386 0
M  V30 2908 H 275.53 -1.318 1.43578 0
M  V30 2909 H 274.626 -2.83929 1.29578 0
M  V30 2910 N 274.927 -0.932562 -1.27047 0
M  V30 2911 C 276.176 -0.571351 -1.93439 0
M  V30 2912 C 276.489 0.892467 -1.74053 0
M  V30 2913 O 277.695 1.36267 -2.34826 0
M  V30 2914 C 276.151 -0.97106 -3.46552 0
M  V30 2915 C 275.759 -2.4559 -3.74686 0
M  V30 2916 C 277.503 -0.681333 -4.18997 0
M  V30 2917 C 275.41 -2.79475 -5.21198 0
M  V30 2918 H 274.34 -0.209966 -0.724176 0
M  V30 2919 H 276.991 -1.13403 -1.44263 0
M  V30 2920 H 275.373 -0.336983 -3.94564 0
M  V30 2921 H 276.547 -3.13829 -3.37414 0
M  V30 2922 H 274.862 -2.71802 -3.15456 0
M  V30 2923 H 277.459 -0.910939 -5.26883 0
M  V30 2924 H 277.802 0.381628 -4.14547 0
M  V30 2925 H 278.335 -1.27473 -3.76823 0
M  V30 2926 H 275.074 -3.847 -5.30741 0
M  V30 2927 H 274.594 -2.1589 -5.596 0
M  V30 2928 H 276.273 -2.67478 -5.89122 0
M  V30 2929 N 276.405 1.4127 -0.698611 0
M  V30 2930 C 277.63 2.06024 -0.238512 0
M  V30 2931 C 278.055 1.5224 1.10475 0
M  V30 2932 O 277.413 0.650623 1.69223 0
M  V30 2933 C 277.461 3.59988 -0.209952 0
M  V30 2934 O 276.565 4.04282 0.814235 0
M  V30 2935 H 275.906 0.653829 -0.115775 0
M  V30 2936 H 278.436 1.8098 -0.954326 0
M  V30 2937 H 278.446 4.07979 -0.0418436 0
M  V30 2938 H 277.121 3.98503 -1.1903 0
M  V30 2939 H 275.698 3.6779 0.615234 0
M  V30 2940 N 277.883 0.443576 1.51229 0
M  V30 2941 C 279.132 -0.122332 2.01329 0
M  V30 2942 C 279.445 -1.43237 1.33201 0
M  V30 2943 O 280.651 -2.0816 1.74304 0
M  V30 2944 C 279.107 -0.268551 3.58897 0
M  V30 2945 C 278.715 1.03142 4.35965 0
M  V30 2946 C 280.459 -0.787894 4.17124 0
M  V30 2947 C 278.366 0.850504 5.85252 0
M  V30 2948 H 277.296 -0.0494929 0.752374 0
M  V30 2949 H 279.947 0.574289 1.74282 0
M  V30 2950 H 278.329 -1.02832 3.82415 0
M  V30 2951 H 279.503 1.80001 4.24189 0
M  V30 2952 H 277.818 1.47977 3.89219 0
M  V30 2953 H 280.415 -0.939841 5.26375 0
M  V30 2954 H 280.758 -1.77201 3.76703 0
M  V30 2955 H 281.291 -0.0862669 3.97706 0
M  V30 2956 H 278.03 1.80718 6.30096 0
M  V30 2957 H 277.55 0.121825 5.99676 0
M  V30 2958 H 279.229 0.506163 6.45017 0
M  V30 2959 N 279.361 -1.56624 0.175154 0
M  V30 2960 C 280.324 -2.16934 -0.739738 0
M  V30 2961 C 281.324 -1.11842 -1.15533 0
M  V30 2962 O 282.514 -1.37335 -1.07167 0
M  V30 2963 C 279.646 -2.75531 -2.00738 0
M  V30 2964 H 280.839 -2.99131 -0.214639 0
M  V30 2965 H 278.392 -1.56123 -0.0744197 0
M  V30 2966 H 279.127 -1.97078 -2.57548 0
M  V30 2967 H 278.912 -3.52444 -1.71831 0
M  V30 2968 H 280.402 -3.21904 -2.66021 0
M  V30 2969 N 280.839 0.0985539 -1.57292 0
M  V30 2970 C 281.802 1.10402 -2.00858 0
M  V30 2971 C 282.802 1.33146 -0.901593 0
M  V30 2972 O 283.992 1.29318 -1.16716 0
M  V30 2973 C 281.124 2.45394 -2.36632 0
M  V30 2974 H 282.317 0.729099 -2.90902 0
M  V30 2975 H 279.87 0.343495 -1.52479 0
M  V30 2976 H 280.605 2.87769 -1.49531 0
M  V30 2977 H 280.39 2.30235 -3.17387 0
M  V30 2978 H 281.88 3.17718 -2.71007 0
M  V30 2979 N 282.317 1.53212 0.369288 0
M  V30 2980 C 283.267 1.75769 1.45222 0
M  V30 2981 C 284.251 0.612136 1.48801 0
M  V30 2982 O 285.443 0.870674 1.54105 0
M  V30 2983 C 282.572 1.94769 2.82701 0
M  V30 2984 C 281.658 3.15315 2.83615 0
M  V30 2985 N 282.049 4.37295 2.54178 0
M  V30 2986 C 280.347 3.15962 3.14776 0
M  V30 2987 C 281.048 5.19015 2.62675 0
M  V30 2988 N 280.024 4.55142 2.97232 0
M  V30 2989 H 283.826 2.67691 1.2132 0
M  V30 2990 H 281.34 1.51787 0.577438 0
M  V30 2991 H 283.337 2.09056 3.60696 0
M  V30 2992 H 281.997 1.04073 3.07569 0
M  V30 2993 H 283.008 4.65091 2.27839 0
M  V30 2994 H 279.685 2.35144 3.44983 0
M  V30 2995 H 281.075 6.26305 2.43294 0
M  V30 2996 N 283.795 -0.628877 1.44509 0
M  V30 2997 C 285.211 -0.947305 1.28446 0
M  V30 2998 C 285.411 -2.00275 0.221872 0
M  V30 2999 O 284.467 -2.49447 -0.391471 0
M  V30 3000 C 285.78 -1.40843 2.65676 0
M  V30 3001 C 287.328 -1.52379 2.73404 0
M  V30 3002 C 287.803 -2.01875 4.11109 0
M  V30 3003 N 289.294 -2.09142 4.13296 0
M  V30 3004 C 290.029 -2.48615 5.16699 0
M  V30 3005 N 289.525 -2.87209 6.30462 0
M  V30 3006 N 291.318 -2.48768 5.04054 0
M  V30 3007 H 283.469 0.0690977 2.12288 0
M  V30 3008 H 285.732 -0.0317164 0.947469 0
M  V30 3009 H 285.438 -0.707206 3.44516 0
M  V30 3010 H 285.312 -2.37902 2.92716 0
M  V30 3011 H 287.699 -2.21598 1.9488 0
M  V30 3012 H 287.78 -0.536898 2.50102 0
M  V30 3013 H 287.424 -1.3325 4.90109 0
M  V30 3014 H 287.354 -3.0144 4.31789 0
M  V30 3015 H 289.845 -1.81991 3.31191 0
M  V30 3016 H 290.158 -3.16149 7.05174 0
M  V30 3017 H 288.503 -2.84955 6.33897 0
M  V30 3018 H 291.694 -2.18009 4.14234 0
M  V30 3019 H 291.867 -2.79207 5.84763 0
M  V30 3020 N 285.273 -1.31445 -0.869486 0
M  V30 3021 C 286.22 -1.19135 -1.97675 0
M  V30 3022 C 287.19 -0.0770266 -1.65921 0
M  V30 3023 O 288.375 -0.249972 -1.89155 0
M  V30 3024 C 285.515 -0.905149 -3.33018 0
M  V30 3025 C 284.628 -2.10285 -3.77365 0
M  V30 3026 C 283.763 -1.75339 -5.01427 0
M  V30 3027 C 282.802 -2.91515 -5.38224 0
M  V30 3028 N 281.939 -2.56762 -6.53466 0
M  V30 3029 H 286.779 -2.13853 -2.07535 0
M  V30 3030 H 284.316 -1.06379 -1.01597 0
M  V30 3031 H 286.274 -0.719765 -4.10944 0
M  V30 3032 H 284.904 0.00519624 -3.228 0
M  V30 3033 H 283.956 -2.39899 -2.95216 0
M  V30 3034 H 285.268 -2.97237 -4.00564 0
M  V30 3035 H 284.422 -1.53266 -5.87022 0
M  V30 3036 H 283.161 -0.855801 -4.80133 0
M  V30 3037 H 282.166 -3.14237 -4.51149 0
M  V30 3038 H 283.391 -3.81985 -5.61484 0
M  V30 3039 H 281.337 -1.69526 -6.33717 0
M  V30 3040 H 281.254 -3.37243 -6.76612 0
M  V30 3041 H 282.522 -2.38083 -7.42251 0
M  V30 3042 N 286.751 1.08385 -1.14413 0
M  V30 3043 C 287.999 1.80419 -0.910679 0
M  V30 3044 C 288.32 1.86658 0.564243 0
M  V30 3045 O 287.59 1.35985 1.41014 0
M  V30 3046 H 286.17 0.668204 -0.333934 0
M  V30 3047 H 288.832 1.31037 -1.44275 0
M  V30 3048 H 287.928 2.83238 -1.31082 0
M  V30 3049 N 288.23 0.939286 1.26551 0
M  V30 3050 C 289.646 0.641304 1.46149 0
M  V30 3051 C 289.846 -0.805964 1.84679 0
M  V30 3052 O 288.902 -1.58278 1.96734 0
M  V30 3053 C 290.215 1.6011 2.54529 0
M  V30 3054 C 291.763 1.6106 2.68382 0
M  V30 3055 C 292.238 2.55765 3.79932 0
M  V30 3056 N 293.729 2.5404 3.87322 0
M  V30 3057 C 294.464 3.24004 4.73085 0
M  V30 3058 N 293.96 4.03388 5.63249 0
M  V30 3059 N 295.753 3.12965 4.66914 0
M  V30 3060 H 287.904 1.87478 0.998285 0
M  V30 3061 H 290.167 0.805559 0.499779 0
M  V30 3062 H 289.873 2.63412 2.33039 0
M  V30 3063 H 289.747 1.35171 3.52149 0
M  V30 3064 H 292.134 0.584835 2.89247 0
M  V30 3065 H 292.215 1.90053 1.71212 0
M  V30 3066 H 291.859 3.58458 3.5982 0
M  V30 3067 H 291.789 2.24063 4.76554 0
M  V30 3068 H 294.28 1.96396 3.22858 0
M  V30 3069 H 294.593 4.5373 6.25579 0
M  V30 3070 H 292.938 4.07489 5.63008 0
M  V30 3071 H 296.129 2.50432 3.95476 0
M  V30 3072 H 296.302 3.67759 5.33533 0
M  V30 3073 N 289.708 -1.40897 0.706093 0
M  V30 3074 C 290.954 -2.01352 0.241889 0
M  V30 3075 C 291.287 -1.55832 -1.15888 0
M  V30 3076 O 290.562 -0.774145 -1.7843 0
M  V30 3077 C 290.845 -3.58752 0.311311 0
M  V30 3078 C 290.698 -4.1437 1.74978 0
M  V30 3079 C 292.017 -4.38914 -0.322922 0
M  V30 3080 H 289.136 -0.731562 0.0893687 0
M  V30 3081 H 291.778 -1.67504 0.896802 0
M  V30 3082 H 289.928 -3.87718 -0.246302 0
M  V30 3083 H 291.6 -3.96239 2.36205 0
M  V30 3084 H 289.843 -3.69016 2.28057 0
M  V30 3085 H 290.514 -5.23532 1.74981 0
M  V30 3086 H 292.99 -4.15822 0.152089 0
M  V30 3087 H 291.866 -5.48358 -0.243855 0
M  V30 3088 H 292.127 -4.19176 -1.40513 0
M  V30 3089 N 291.186 -0.45159 -1.50991 0
M  V30 3090 C 292.435 0.111653 -2.01391 0
M  V30 3091 C 292.748 1.42529 -1.33959 0
M  V30 3092 O 293.954 2.07232 -1.75405 0
M  V30 3093 C 292.41 0.249514 -3.59034 0
M  V30 3094 C 292.018 -1.05453 -4.35412 0
M  V30 3095 C 293.762 0.765762 -4.17536 0
M  V30 3096 C 291.669 -0.881529 -5.84793 0
M  V30 3097 H 290.599 0.0455022 -0.752626 0
M  V30 3098 H 293.25 -0.583524 -1.73975 0
M  V30 3099 H 291.632 1.00803 -3.82955 0
M  V30 3100 H 292.806 -1.82248 -4.23229 0
M  V30 3101 H 291.121 -1.50039 -3.88429 0
M  V30 3102 H 293.718 0.911913 -5.26866 0
M  V30 3103 H 294.061 1.75201 -3.77638 0
M  V30 3104 H 294.594 0.0651744 -3.97747 0
M  V30 3105 H 291.333 -1.84057 -6.29129 0
M  V30 3106 H 290.853 -0.153625 -5.99603 0
M  V30 3107 H 292.532 -0.540363 -6.4474 0
M  V30 3108 N 292.664 1.56529 -0.183458 0
M  V30 3109 C 293.941 1.88959 0.50536 0
M  V30 3110 C 294.321 1.09523 1.80466 0
M  V30 3111 O 293.669 0.19278 2.27685 0
M  V30 3112 C 293.879 3.41162 0.73547 0
M  V30 3113 C 295.227 4.11155 1.06005 0
M  V30 3114 O 296.251 3.46548 0.823594 0
M  V30 3115 O 295.11 5.25318 1.50675 0
M  V30 3116 H 292.204 0.78441 0.261973 0
M  V30 3117 H 294.75 1.68231 -0.222802 0
M  V30 3118 H 293.522 3.90874 -0.182561 0
M  V30 3119 H 293.145 3.67543 1.51651 0
M  V30 3120 N 294.142 -0.090211 1.57342 0
M  V30 3121 C 295.388 -0.793982 1.86611 0
M  V30 3122 C 295.721 -1.78142 0.773252 0
M  V30 3123 O 294.996 -1.93271 -0.218304 0
M  V30 3124 C 295.279 -1.51839 3.26523 0
M  V30 3125 C 295.132 -0.548609 4.46442 0
M  V30 3126 C 296.451 -2.46779 3.64401 0
M  V30 3127 H 293.57 -0.287186 0.678744 0
M  V30 3128 H 296.212 -0.0575076 1.89913 0
M  V30 3129 H 294.362 -2.14617 3.23839 0
M  V30 3130 H 296.034 0.0725513 4.61243 0
M  V30 3131 H 294.277 0.137614 4.33582 0
M  V30 3132 H 294.948 -1.09271 5.41076 0
M  V30 3133 H 297.424 -1.94089 3.68061 0
M  V30 3134 H 296.3 -2.94479 4.63221 0
M  V30 3135 H 296.561 -3.30758 2.93346 0
M  V30 3136 N 295.62 -1.53406 -0.361157 0
M  V30 3137 C 296.568 -1.80832 -1.46296 0
M  V30 3138 C 297.562 -0.677699 -1.55253 0
M  V30 3139 O 298.768 -0.860723 -1.58087 0
M  V30 3140 H 295.143 -0.572627 -0.487445 0
M  V30 3141 H 297.114 -2.73045 -1.20371 0
M  V30 3142 C 295.863 -2.01907 -2.8307 0
M  V30 3143 H 295.186 -2.88349 -2.76938 0
M  V30 3144 H 296.626 -2.25072 -3.59331 0
M  V30 3145 C 295.085 -0.799449 -3.27277 0
M  V30 3146 O 295.615 0.00971761 -4.01699 0
M  V30 3147 N 293.821 -0.621637 -2.83873 0
M  V30 3148 H 293.368 -1.28126 -2.23476 0
M  V30 3149 H 293.326 0.19298 -3.13807 0
M  V30 3150 N 297.098 0.621204 -1.44841 0
M  V30 3151 C 298.046 1.75385 -1.52784 0
M  V30 3152 C 299.04 1.64639 -0.398779 0
M  V30 3153 O 300.246 1.70598 -0.574137 0
M  V30 3154 H 296.621 0.579193 -0.479625 0
M  V30 3155 H 298.592 1.6581 -2.48092 0
M  V30 3156 C 297.341 3.13742 -1.4987 0
M  V30 3157 H 296.664 3.22663 -2.36069 0
M  V30 3158 H 298.104 3.92861 -1.59487 0
M  V30 3159 C 296.563 3.36175 -0.220973 0
M  V30 3160 O 297.093 3.95469 0.704782 0
M  V30 3161 N 295.299 2.90348 -0.120963 0
M  V30 3162 H 294.846 2.42278 -0.875162 0
M  V30 3163 H 294.804 3.05732 0.733168 0
M  V30 3164 N 298.576 1.31904 0.862503 0
M  V30 3165 C 299.539 1.20131 1.95195 0
M  V30 3166 C 300.539 0.126409 1.60302 0
M  V30 3167 O 301.729 0.376234 1.70089 0
M  V30 3168 C 298.861 0.845691 3.30244 0
M  V30 3169 H 300.054 2.16943 2.07064 0
M  V30 3170 H 297.607 1.15622 1.05172 0
M  V30 3171 H 298.342 -0.120957 3.24074 0
M  V30 3172 H 298.127 1.62276 3.56944 0
M  V30 3173 H 299.617 0.787418 4.10109 0
M  V30 3174 N 300.054 -1.07777 1.14986 0
M  V30 3175 C 300.984 -2.16865 0.865557 0
M  V30 3176 C 301.965 -1.69123 -0.182083 0
M  V30 3177 O 303.15 -1.94164 -0.0373815 0
M  V30 3178 C 300.28 -3.45539 0.349313 0
M  V30 3179 C 299.234 -4.06708 1.33313 0
M  V30 3180 C 298.56 -5.30411 0.675918 0
M  V30 3181 C 299.86 -4.47241 2.69764 0
M  V30 3182 H 301.554 -2.40905 1.77778 0
M  V30 3183 H 299.1 -1.15781 0.856203 0
M  V30 3184 H 301.053 -4.21174 0.137983 0
M  V30 3185 H 299.777 -3.21072 -0.598362 0
M  V30 3186 H 298.436 -3.33112 1.53075 0
M  V30 3187 H 298.084 -5.02232 -0.277767 0
M  V30 3188 H 297.784 -5.72293 1.33244 0
M  V30 3189 H 299.308 -6.08755 0.474262 0
M  V30 3190 H 300.722 -5.14025 2.53873 0
M  V30 3191 H 299.119 -5.00062 3.3175 0
M  V30 3192 H 300.189 -3.58818 3.26156 0
M  V30 3193 N 301.532 -0.945985 -1.26051 0
M  V30 3194 C 302.809 -0.513816 -1.88731 0
M  V30 3195 C 303.189 1.00872 -1.8544 0
M  V30 3196 O 302.537 1.8708 -1.312 0
M  V30 3197 C 302.747 -1.08062 -3.31849 0
M  V30 3198 C 304.095 -1.1522 -4.08668 0
M  V30 3199 O 305.119 -1.03155 -3.40936 0
M  V30 3200 O 303.978 -1.34044 -5.29806 0
M  V30 3201 H 301.072 -0.168193 -0.809716 0
M  V30 3202 H 303.618 -1.03886 -1.34186 0
M  V30 3203 H 302.39 -2.1241 -3.2863 0
M  V30 3204 H 302.013 -0.538307 -3.93939 0
M  V30 3205 N 303.011 1.40521 -0.713556 0
M  V30 3206 C 304.259 2.00527 -0.251692 0
M  V30 3207 C 304.58 1.56857 1.15848 0
M  V30 3208 O 303.85 0.807127 1.785 0
M  V30 3209 H 302.43 0.741551 -0.0900646 0
M  V30 3210 H 305.092 1.71887 -0.918733 0
M  V30 3211 H 304.188 3.10813 -0.283192 0
M  V30 3212 N 304.489 0.459591 1.5075 0
M  V30 3213 C 305.766 -0.160371 1.94941 0
M  V30 3214 C 306.146 -1.58048 1.39943 0
M  V30 3215 O 305.494 -2.206 0.595629 0
M  V30 3216 C 305.704 -0.115432 3.48809 0
M  V30 3217 C 307.052 -0.310026 4.23467 0
M  V30 3218 O 308.076 -0.192543 3.55679 0
M  V30 3219 O 306.935 -0.546031 5.43765 0
M  V30 3220 H 304.029 -0.117925 0.818549 0
M  V30 3221 H 306.575 0.519169 1.61563 0
M  V30 3222 H 305.347 0.87652 3.81357 0
M  V30 3223 H 304.97 -0.836928 3.88692 0
M  V30 3224 N 305.967 -1.56429 0.191757 0
M  V30 3225 C 307.215 -1.97095 -0.447006 0
M  V30 3226 C 307.536 -1.07967 -1.62383 0
M  V30 3227 O 306.806 -0.150248 -1.95323 0
M  V30 3228 H 305.386 -0.727832 -0.168135 0
M  V30 3229 H 308.048 -1.92911 0.27771 0
M  V30 3230 H 307.144 -3.01848 -0.793371 0
M  V30 3231 N 307.445 0.0818655 -1.57387 0
M  V30 3232 C 308.856 0.634871 -1.75574 0
M  V30 3233 C 309.207 1.78435 -0.815809 0
M  V30 3234 O 308.332 2.164 0.0025366 0
M  V30 3235 C 308.927 1.15845 -3.18379 0
M  V30 3236 C 307.486 1.65741 -3.37945 0
M  V30 3237 C 306.633 0.572549 -2.71325 0
M  V30 3238 H 309.584 -0.144268 -1.58043 0
M  V30 3239 H 309.605 2.02751 -3.21982 0
M  V30 3240 H 309.117 0.321631 -3.86765 0
M  V30 3241 H 307.218 2.51781 -2.74658 0
M  V30 3242 H 307.331 1.74129 -4.46336 0
M  V30 3243 H 305.695 1.01518 -2.33594 0
M  V30 3244 H 306.478 -0.253918 -3.4236 0
M  V30 3245 N 308.923 1.53595 0.353017 0
M  V30 3246 C 310.17 1.70385 1.09431 0
M  V30 3247 C 310.498 0.462113 1.88931 0
M  V30 3248 O 309.753 -0.556074 1.87633 0
M  V30 3249 C 310.052 2.91313 2.07054 0
M  V30 3250 C 309.718 4.27308 1.43939 0
M  V30 3251 C 308.38 4.64287 1.26454 0
M  V30 3252 C 310.732 5.11829 0.983883 0
M  V30 3253 C 308.06 5.83412 0.620226 0
M  V30 3254 C 310.412 6.31611 0.353516 0
M  V30 3255 C 309.076 6.67293 0.166272 0
M  V30 3256 H 308.346 0.623484 0.400436 0
M  V30 3257 H 310.993 1.87799 0.374655 0
M  V30 3258 H 309.298 2.68463 2.85368 0
M  V30 3259 H 310.995 3.01497 2.64387 0
M  V30 3260 H 307.585 3.98198 1.58543 0
M  V30 3261 H 311.769 4.838 1.10685 0
M  V30 3262 H 307.025 6.09639 0.463681 0
M  V30 3263 H 311.199 6.964 -0.00757555 0
M  V30 3264 H 308.826 7.59461 -0.335047 0
M  V30 3265 N 310.401 -0.613514 1.45168 0
M  V30 3266 C 311.629 -1.39946 1.5239 0
M  V30 3267 C 312.044 -1.88167 0.154531 0
M  V30 3268 O 311.401 -1.61872 -0.842843 0
M  V30 3269 C 311.452 -2.60795 2.50337 0
M  V30 3270 O 311.173 -2.1458 3.81952 0
M  V30 3271 C 312.674 -3.53723 2.67198 0
M  V30 3272 H 309.894 -0.428593 0.516284 0
M  V30 3273 H 312.438 -0.748753 1.903 0
M  V30 3274 H 310.593 -3.21919 2.15515 0
M  V30 3275 H 311.007 -2.93055 4.34993 0
M  V30 3276 H 312.481 -4.35079 3.39721 0
M  V30 3277 H 312.958 -4.0368 1.73029 0
M  V30 3278 H 313.564 -2.98456 3.02992 0
M  V30 3279 N 311.879 -1.3236 -0.855495 0
M  V30 3280 C 313.29 -1.2056 -1.42556 0
M  V30 3281 C 313.641 0.182209 -1.95352 0
M  V30 3282 O 312.766 1.08088 -1.87472 0
M  V30 3283 C 313.361 -2.1826 -2.59129 0
M  V30 3284 C 311.92 -2.10351 -3.12137 0
M  V30 3285 C 311.067 -2.06674 -1.84882 0
M  V30 3286 H 314.018 -1.442 -0.662727 0
M  V30 3287 H 314.039 -1.78064 -3.36264 0
M  V30 3288 H 313.551 -3.19257 -2.20673 0
M  V30 3289 H 311.652 -1.12599 -3.55179 0
M  V30 3290 H 311.765 -3.00135 -3.73438 0
M  V30 3291 H 310.129 -1.51901 -2.04446 0
M  V30 3292 H 310.912 -3.09451 -1.48643 0
M  V30 3293 N 313.357 1.07166 -1.15556 0
M  V30 3294 C 314.267 2.17947 -0.868116 0
M  V30 3295 C 315.283 1.73297 0.156297 0
M  V30 3296 O 316.459 2.01392 -0.0182327 0
M  V30 3297 C 313.524 3.44789 -0.36355 0
M  V30 3298 C 312.585 4.03996 -1.45209 0
M  V30 3299 C 311.818 5.24783 -0.971508 0
M  V30 3300 O 312.041 5.70109 0.182194 0
M  V30 3301 O 310.975 5.75715 -1.75603 0
M  V30 3302 H 314.801 2.4503 -1.79427 0
M  V30 3303 H 312.386 1.16539 -0.934824 0
M  V30 3304 H 314.268 4.21307 -0.0887113 0
M  V30 3305 H 312.943 3.19253 0.534708 0
M  V30 3306 H 311.85 3.29009 -1.78056 0
M  V30 3307 H 313.183 4.33808 -2.32533 0
M  V30 3308 N 314.835 0.952656 1.25548 0
M  V30 3309 C 316.251 0.656769 1.4546 0
M  V30 3310 C 316.451 -0.78633 1.85524 0
M  V30 3311 O 315.507 -1.56183 1.98402 0
M  V30 3312 C 316.82 1.62801 2.52817 0
M  V30 3313 C 318.368 1.63897 2.66659 0
M  V30 3314 C 318.843 2.5978 3.77198 0
M  V30 3315 N 320.334 2.58133 3.84606 0
M  V30 3316 C 321.069 3.29003 4.69621 0
M  V30 3317 N 320.565 4.09339 5.58939 0
M  V30 3318 N 322.358 3.179 4.63569 0
M  V30 3319 H 314.509 1.88526 0.978344 0
M  V30 3320 H 316.772 0.810815 0.491206 0
M  V30 3321 H 316.478 2.65869 2.30232 0
M  V30 3322 H 316.352 1.38898 3.50695 0
M  V30 3323 H 318.739 0.615481 2.8861 0
M  V30 3324 H 318.82 1.91858 1.69187 0
M  V30 3325 H 318.464 3.62254 3.55997 0
M  V30 3326 H 318.394 2.29105 4.7415 0
M  V30 3327 H 320.885 1.99809 3.20757 0
M  V30 3328 H 321.198 4.6034 6.20731 0
M  V30 3329 H 319.543 4.13438 5.58654 0
M  V30 3330 H 322.734 2.54612 3.92798 0
M  V30 3331 H 322.907 3.73398 5.29602 0
M  V30 3332 N 316.313 -1.40141 0.720998 0
M  V30 3333 C 317.538 -2.05618 0.271258 0
M  V30 3334 C 317.963 -1.53978 -1.08039 0
M  V30 3335 O 317.321 -0.677463 -1.68167 0
M  V30 3336 C 317.369 -3.59609 0.267197 0
M  V30 3337 O 316.473 -4.05526 -0.749814 0
M  V30 3338 H 315.814 -0.651904 0.126162 0
M  V30 3339 H 318.344 -1.79439 0.982997 0
M  V30 3340 H 318.354 -4.0786 0.106744 0
M  V30 3341 H 317.029 -3.96559 1.25354 0
M  V30 3342 H 315.606 -3.68722 -0.556644 0
M  V30 3343 N 317.792 -0.46758 -1.50504 0
M  V30 3344 C 319.04 0.0884469 -2.01906 0
M  V30 3345 C 319.361 1.40532 -1.35188 0
M  V30 3346 O 318.631 1.89515 -0.496079 0
M  V30 3347 H 317.211 0.0356765 -0.746148 0
M  V30 3348 H 319.873 -0.6172 -1.84869 0
M  V30 3349 H 318.969 0.2425 -3.11156 0
M  V30 3350 N 319.27 1.56325 -0.20005 0
M  V30 3351 C 320.498 2.02105 0.442874 0
M  V30 3352 C 320.913 1.08014 1.5485 0
M  V30 3353 O 320.27 0.0858797 1.82298 0
M  V30 3354 C 320.321 3.47549 0.994583 0
M  V30 3355 O 320.042 4.38049 -0.0669322 0
M  V30 3356 C 321.543 4.0887 1.7129 0
M  V30 3357 H 318.763 0.661807 0.110691 0
M  V30 3358 H 321.307 2.02134 -0.310207 0
M  V30 3359 H 319.462 3.48204 1.69803 0
M  V30 3360 H 319.876 5.23368 0.344462 0
M  V30 3361 H 321.35 5.12475 2.05118 0
M  V30 3362 H 321.827 3.52615 2.61838 0
M  V30 3363 H 322.433 4.12002 1.05518 0
M  V30 3364 N 320.748 -0.0735177 1.57428 0
M  V30 3365 C 321.678 -1.0879 2.06608 0
M  V30 3366 C 322.659 -1.40473 0.959237 0
M  V30 3367 O 323.844 -1.5013 1.23185 0
M  V30 3368 C 320.974 -2.40183 2.50857 0
M  V30 3369 C 319.928 -2.22858 3.65402 0
M  V30 3370 C 319.254 -3.59619 3.957 0
M  V30 3371 C 320.554 -1.65123 4.95511 0
M  V30 3372 H 322.248 -0.678673 2.91607 0
M  V30 3373 H 319.794 -0.325013 1.40284 0
M  V30 3374 H 321.747 -3.11437 2.83874 0
M  V30 3375 H 320.471 -2.83083 1.62885 0
M  V30 3376 H 319.13 -1.54045 3.32664 0
M  V30 3377 H 318.778 -4.00086 3.04861 0
M  V30 3378 H 318.478 -3.48866 4.72828 0
M  V30 3379 H 320.002 -4.32306 4.31212 0
M  V30 3380 H 321.416 -2.26241 5.26771 0
M  V30 3381 H 319.813 -1.65071 5.7695 0
M  V30 3382 H 320.883 -0.612559 4.81015 0
M  V30 3383 N 322.226 -1.5378 -0.344866 0
M  V30 3384 C 323.637 -1.62428 -0.920552 0
M  V30 3385 C 323.988 -0.504747 -1.89596 0
M  V30 3386 O 323.113 0.365711 -2.13287 0
M  V30 3387 C 323.708 -2.94419 -1.67639 0
M  V30 3388 C 322.267 -3.05333 -2.20111 0
M  V30 3389 C 321.414 -2.57866 -1.01982 0
M  V30 3390 H 324.365 -1.58222 -0.123042 0
M  V30 3391 H 324.386 -2.83384 -2.53917 0
M  V30 3392 H 323.898 -3.7588 -0.966224 0
M  V30 3393 H 321.999 -2.28502 -2.94308 0
M  V30 3394 H 322.112 -4.10778 -2.46573 0
M  V30 3395 H 320.476 -2.13241 -1.39285 0
M  V30 3396 H 321.259 -3.41765 -0.324308 0
M  V30 3397 N 323.704 0.605807 -1.45491 0
M  V30 3398 C 324.634 1.72709 -1.57143 0
M  V30 3399 C 325.615 1.6476 -0.422884 0
M  V30 3400 O 326.8 1.83132 -0.646247 0
M  V30 3401 C 323.93 3.11316 -1.53948 0
M  V30 3402 C 322.884 3.34077 -2.67537 0
M  V30 3403 C 322.21 4.72975 -2.49397 0
M  V30 3404 C 323.51 3.24158 -4.09535 0
M  V30 3405 H 325.204 1.63214 -2.51001 0
M  V30 3406 H 322.75 0.78379 -1.208 0
M  V30 3407 H 324.703 3.89557 -1.60696 0
M  V30 3408 H 323.427 3.21655 -0.566205 0
M  V30 3409 H 322.086 2.58227 -2.6022 0
M  V30 3410 H 321.734 4.8005 -1.50205 0
M  V30 3411 H 321.434 4.8916 -3.25571 0
M  V30 3412 H 322.958 5.53414 -2.58002 0
M  V30 3413 H 324.372 3.92271 -4.18086 0
M  V30 3414 H 322.769 3.51872 -4.86113 0
M  V30 3415 H 323.839 2.2157 -4.31317 0
M  V30 3416 N 325.182 1.32811 0.848464 0
M  V30 3417 C 326.41 1.26739 1.63538 0
M  V30 3418 C 326.825 -0.163484 1.88091 0
M  V30 3419 O 326.182 -1.10258 1.45429 0
M  V30 3420 C 326.233 2.03013 2.99112 0
M  V30 3421 O 325.954 3.40518 2.75643 0
M  V30 3422 C 327.455 2.04038 3.93552 0
M  V30 3423 H 324.675 0.437024 0.509167 0
M  V30 3424 H 327.219 1.75033 1.05753 0
M  V30 3425 H 325.374 1.58426 3.53525 0
M  V30 3426 H 325.788 3.79635 3.61908 0
M  V30 3427 H 327.262 2.61877 4.85926 0
M  V30 3428 H 327.739 1.0282 4.26995 0
M  V30 3429 H 328.345 2.486 3.45077 0
M  V30 3430 N 326.66 -1.06551 1.16123 0
M  V30 3431 C 327.592 -2.13908 0.823171 0
M  V30 3432 C 328.605 -1.61926 -0.16843 0
M  V30 3433 O 329.794 -1.78412 0.055962 0
M  V30 3434 C 326.894 -3.38283 0.204424 0
M  V30 3435 C 326.067 -4.19589 1.23548 0
M  V30 3436 C 325.126 -5.2233 0.637011 0
M  V30 3437 O 324.152 -5.54034 1.30516 0
M  V30 3438 N 325.354 -5.77621 -0.577474 0
M  V30 3439 H 328.119 -2.43508 1.74711 0
M  V30 3440 H 325.68 -1.2253 1.05821 0
M  V30 3441 H 327.672 -4.0416 -0.208909 0
M  V30 3442 H 326.242 -3.06329 -0.623012 0
M  V30 3443 H 325.462 -3.49406 1.82507 0
M  V30 3444 H 326.75 -4.70718 1.93137 0
M  V30 3445 H 326.148 -5.54125 -1.13853 0
M  V30 3446 H 324.705 -6.45087 -0.933053 0
M  V30 3447 N 328.138 -0.959301 -1.25041 0
M  V30 3448 C 329.068 -0.501388 -2.28053 0
M  V30 3449 C 330.049 0.454673 -1.63911 0
M  V30 3450 O 331.234 0.352618 -1.90972 0
M  V30 3451 C 328.364 0.217224 -3.4662 0
M  V30 3452 C 327.318 -0.654034 -4.22973 0
M  V30 3453 C 326.644 0.195589 -5.34342 0
M  V30 3454 C 327.944 -1.93447 -4.85155 0
M  V30 3455 H 329.638 -1.36238 -2.66608 0
M  V30 3456 H 327.184 -0.656534 -1.28163 0
M  V30 3457 H 329.137 0.548732 -4.17812 0
M  V30 3458 H 327.861 1.1125 -3.07068 0
M  V30 3459 H 326.52 -0.968693 -3.5357 0
M  V30 3460 H 326.168 1.09076 -4.91031 0
M  V30 3461 H 325.868 -0.384091 -5.86343 0
M  V30 3462 H 327.392 0.521958 -6.08365 0
M  V30 3463 H 328.806 -1.66908 -5.48466 0
M  V30 3464 H 327.203 -2.46018 -5.47353 0
M  V30 3465 H 328.273 -2.63466 -4.07079 0
M  V30 3466 N 329.616 1.39756 -0.72842 0
M  V30 3467 C 330.862 2.00942 -0.273892 0
M  V30 3468 C 331.195 1.57656 1.13394 0
M  V30 3469 O 330.47 0.802434 1.77176 0
M  V30 3470 C 330.753 3.58211 -0.368346 0
M  V30 3471 C 330.606 4.11534 -1.81548 0
M  V30 3472 C 331.925 4.39372 0.253054 0
M  V30 3473 H 329.044 0.730047 -0.100996 0
M  V30 3474 H 331.686 1.66056 -0.923337 0
M  V30 3475 H 329.836 3.88061 0.184588 0
M  V30 3476 H 331.508 3.92431 -2.42478 0
M  V30 3477 H 329.751 3.65341 -2.33898 0
M  V30 3478 H 330.422 5.20682 -1.83288 0
M  V30 3479 H 332.898 4.15527 -0.218224 0
M  V30 3480 H 331.774 5.48677 0.156585 0
M  V30 3481 H 332.035 4.21358 1.33826 0
M  V30 3482 N 331.094 0.475555 1.50254 0
M  V30 3483 C 332.371 -0.139685 1.95101 0
M  V30 3484 C 332.751 -1.56555 1.41611 0
M  V30 3485 O 332.099 -2.19956 0.618993 0
M  V30 3486 C 332.309 -0.0784298 3.48912 0
M  V30 3487 C 333.657 -0.265095 4.23772 0
M  V30 3488 O 334.681 -0.154808 3.55863 0
M  V30 3489 O 333.54 -0.488327 5.44314 0
M  V30 3490 H 330.634 -0.109236 0.819754 0
M  V30 3491 H 333.18 0.536276 1.61004 0
M  V30 3492 H 331.952 0.916918 3.80405 0
M  V30 3493 H 331.575 -0.795655 3.89558 0
M  V30 3494 N 332.573 -1.56217 0.208337 0
M  V30 3495 C 333.503 -2.22694 -0.702116 0
M  V30 3496 C 334.484 -1.19432 -1.2112 0
M  V30 3497 O 335.669 -1.47978 -1.25762 0
M  V30 3498 C 332.799 -2.8966 -1.9161 0
M  V30 3499 C 331.753 -3.9928 -1.5414 0
M  V30 3500 C 331.079 -4.53476 -2.83308 0
M  V30 3501 C 332.379 -5.17012 -0.741339 0
M  V30 3502 H 334.073 -2.99034 -0.147898 0
M  V30 3503 H 331.619 -1.43831 -0.0696951 0
M  V30 3504 H 333.572 -3.34852 -2.55836 0
M  V30 3505 H 332.296 -2.10746 -2.49507 0
M  V30 3506 H 330.955 -3.54799 -0.922668 0
M  V30 3507 H 330.603 -3.71308 -3.39322 0
M  V30 3508 H 330.303 -5.27451 -2.58976 0
M  V30 3509 H 331.827 -5.01378 -3.485 0
M  V30 3510 H 333.241 -5.58667 -1.28699 0
M  V30 3511 H 331.638 -5.97137 -0.595627 0
M  V30 3512 H 332.708 -4.8423 0.254851 0
M  V30 3513 N 334.051 0.0651679 -1.57465 0
M  V30 3514 C 335.291 0.768329 -1.8941 0
M  V30 3515 C 335.655 1.74406 -0.802894 0
M  V30 3516 O 336.856 2.49281 -1.0056 0
M  V30 3517 C 335.127 1.45199 -3.26576 0
M  V30 3518 S 336.686 2.1893 -3.80283 0
M  V30 3519 H 333.504 0.255359 -0.663561 0
M  V30 3520 H 336.106 0.024167 -1.95485 0
M  V30 3521 H 334.81 0.728123 -4.03889 0
M  V30 3522 H 334.341 2.23545 -3.23715 0
M  V30 3523 H 336.356 3.45551 -3.56102 0
M  V30 3524 N 335.529 1.53961 0.336706 0
M  V30 3525 C 336.776 1.71536 1.07618 0
M  V30 3526 C 337.104 0.482125 1.8843 0
M  V30 3527 O 336.359 -0.536142 1.88213 0
M  V30 3528 C 336.658 2.93493 2.03953 0
M  V30 3529 C 336.324 4.28811 1.39399 0
M  V30 3530 C 334.986 4.65602 1.21523 0
M  V30 3531 C 337.338 5.12844 0.929541 0
M  V30 3532 C 334.666 5.84037 0.558312 0
M  V30 3533 C 337.018 6.31951 0.286505 0
M  V30 3534 C 335.682 6.67432 0.0954869 0
M  V30 3535 H 334.952 0.627696 0.393801 0
M  V30 3536 H 337.599 1.88186 0.354715 0
M  V30 3537 H 335.904 2.71475 2.82504 0
M  V30 3538 H 337.601 3.04285 2.61174 0
M  V30 3539 H 334.191 3.99858 1.54311 0
M  V30 3540 H 338.375 4.84947 1.05548 0
M  V30 3541 H 333.631 6.10097 0.398995 0
M  V30 3542 H 337.805 6.96352 -0.0814376 0
M  V30 3543 H 335.432 7.59063 -0.415579 0
M  V30 3544 N 337.007 -0.598083 1.45811 0
M  V30 3545 C 338.232 -1.3881 1.54099 0
M  V30 3546 C 338.657 -1.8726 0.177578 0
M  V30 3547 O 338.015 -1.6069 -0.839541 0
M  V30 3548 C 338.063 -2.56217 2.53743 0
M  V30 3549 O 337.167 -3.5716 2.06182 0
M  V30 3550 H 336.508 -0.414024 0.519115 0
M  V30 3551 H 339.038 -0.726971 1.91249 0
M  V30 3552 H 339.048 -3.03337 2.72856 0
M  V30 3553 H 337.723 -2.20303 3.5276 0
M  V30 3554 H 336.3 -3.16624 1.96987 0
M  V30 3555 N 338.485 -1.33259 -0.841409 0
M  V30 3556 C 339.733 -1.24326 -1.59334 0
M  V30 3557 C 340.054 0.191564 -1.94057 0
M  V30 3558 O 339.324 1.11967 -1.60749 0
M  V30 3559 H 337.904 -0.457174 -0.590763 0
M  V30 3560 H 340.566 -1.66947 -1.00571 0
M  V30 3561 H 339.662 -1.8352 -2.52442 0
M  V30 3562 N 339.963 1.05934 -1.16686 0
M  V30 3563 C 340.91 2.13499 -0.876748 0
M  V30 3564 C 341.88 1.65162 0.176299 0
M  V30 3565 O 343.065 1.90757 0.0407143 0
M  V30 3566 C 340.205 3.42912 -0.387967 0
M  V30 3567 C 339.318 4.04964 -1.50426 0
M  V30 3568 C 338.453 5.22266 -0.970125 0
M  V30 3569 C 337.492 5.76309 -2.06238 0
M  V30 3570 N 336.629 6.84922 -1.54356 0
M  V30 3571 H 341.469 2.37654 -1.7979 0
M  V30 3572 H 339.006 1.16598 -0.896843 0
M  V30 3573 H 340.964 4.17111 -0.086186 0
M  V30 3574 H 339.594 3.18963 0.496235 0
M  V30 3575 H 338.646 3.28277 -1.92193 0
M  V30 3576 H 339.958 4.41122 -2.32836 0
M  V30 3577 H 339.112 6.03506 -0.621743 0
M  V30 3578 H 337.851 4.87564 -0.115377 0
M  V30 3579 H 336.856 4.93704 -2.41942 0
M  V30 3580 H 338.081 6.13062 -2.92115 0
M  V30 3581 H 336.027 6.52131 -0.711406 0
M  V30 3582 H 335.944 7.20043 -2.30379 0
M  V30 3583 H 337.212 7.69832 -1.22387 0
M  V30 3584 N 341.441 0.965919 1.2453 0
M  V30 3585 C 342.688 0.626831 1.92554 0
M  V30 3586 C 343.016 -0.837739 1.75534 0
M  V30 3587 O 342.271 -1.61793 1.10098 0
M  V30 3588 C 342.57 0.945428 3.44669 0
M  V30 3589 C 342.236 2.39785 3.81856 0
M  V30 3590 C 340.898 2.79483 3.91718 0
M  V30 3591 C 343.25 3.34055 4.00071 0
M  V30 3592 C 340.578 4.12496 4.1721 0
M  V30 3593 C 342.93 4.66694 4.27059 0
M  V30 3594 C 341.594 5.06172 4.3514 0
M  V30 3595 H 340.864 0.229374 0.704605 0
M  V30 3596 H 343.511 1.21707 1.4785 0
M  V30 3597 H 341.816 0.272926 3.90848 0
M  V30 3598 H 343.513 0.661484 3.95507 0
M  V30 3599 H 340.103 2.08003 3.74743 0
M  V30 3600 H 344.287 3.04571 3.91855 0
M  V30 3601 H 339.543 4.42709 4.21685 0
M  V30 3602 H 343.717 5.3971 4.40097 0
M  V30 3603 H 341.344 6.09262 4.54646 0
M  V30 3604 N 342.919 -1.39368 0.735821 0
M  V30 3605 C 344.147 -2.04795 0.294393 0
M  V30 3606 C 344.562 -1.55478 -1.07107 0
M  V30 3607 O 343.919 -0.720038 -1.67695 0
M  V30 3608 C 343.97 -3.6035 0.288071 0
M  V30 3609 O 343.691 -4.07852 1.59963 0
M  V30 3610 C 345.192 -4.42976 -0.169422 0
M  V30 3611 H 342.412 -0.658571 0.128551 0
M  V30 3612 H 344.956 -1.78399 0.999701 0
M  V30 3613 H 343.111 -3.85645 -0.368355 0
M  V30 3614 H 343.525 -5.02181 1.51375 0
M  V30 3615 H 344.999 -5.51864 -0.122687 0
M  V30 3616 H 345.476 -4.22068 -1.21472 0
M  V30 3617 H 346.082 -4.22832 0.457469 0
M  V30 3618 N 344.397 -0.483516 -1.5 0
M  V30 3619 C 345.627 0.0643896 -2.065 0
M  V30 3620 C 346.035 1.32949 -1.34615 0
M  V30 3621 O 345.378 1.79003 -0.412756 0
M  V30 3622 C 345.44 0.405983 -3.572 0
M  V30 3623 C 345.104 -0.758875 -4.50655 0
M  V30 3624 C 346.101 -1.64445 -4.93208 0
M  V30 3625 C 343.786 -0.952725 -4.93182 0
M  V30 3626 C 345.78 -2.70818 -5.77006 0
M  V30 3627 C 343.467 -2.01966 -5.76761 0
M  V30 3628 C 344.465 -2.89574 -6.18576 0
M  V30 3629 O 344.153 -3.94429 -7.00486 0
M  V30 3630 H 343.885 -0.00934786 -0.675935 0
M  V30 3631 H 346.439 -0.674959 -1.93993 0
M  V30 3632 H 344.669 1.19869 -3.67652 0
M  V30 3633 H 346.358 0.890433 -3.96013 0
M  V30 3634 H 347.124 -1.50643 -4.61012 0
M  V30 3635 H 343.003 -0.280247 -4.60147 0
M  V30 3636 H 346.547 -3.3923 -6.09565 0
M  V30 3637 H 342.444 -2.1577 -6.0837 0
M  V30 3638 H 343.212 -3.91568 -7.1876 0
M  V30 3639 N 345.875 1.56104 -0.216619 0
M  V30 3640 C 346.785 2.23694 0.706982 0
M  V30 3641 C 347.801 1.24295 1.21765 0
M  V30 3642 O 348.977 1.57094 1.2603 0
M  V30 3643 C 346.042 2.8998 1.90033 0
M  V30 3644 C 345.103 4.04708 1.43213 0
M  V30 3645 C 344.336 4.67824 2.56859 0
M  V30 3646 O 344.559 4.29913 3.74874 0
M  V30 3647 O 343.493 5.56905 2.28343 0
M  V30 3648 H 347.319 3.03272 0.161235 0
M  V30 3649 H 344.904 1.49394 0.0136177 0
M  V30 3650 H 346.786 3.31837 2.59735 0
M  V30 3651 H 345.461 2.13365 2.43428 0
M  V30 3652 H 344.368 3.6743 0.70327 0
M  V30 3653 H 345.701 4.83051 0.944615 0
M  V30 3654 N 347.353 -0.0568162 1.57498 0
M  V30 3655 C 348.263 -1.08346 2.08083 0
M  V30 3656 C 349.279 -1.41439 1.01346 0
M  V30 3657 O 350.455 -1.51316 1.32912 0
M  V30 3658 C 347.52 -2.37352 2.52715 0
M  V30 3659 C 346.581 -2.11093 3.73816 0
M  V30 3660 C 345.814 -3.33949 4.1631 0
M  V30 3661 O 346.037 -4.43622 3.58547 0
M  V30 3662 O 344.971 -3.21279 5.08983 0
M  V30 3663 H 348.797 -0.683667 2.95905 0
M  V30 3664 H 346.382 -0.271965 1.46904 0
M  V30 3665 H 348.264 -3.13246 2.81877 0
M  V30 3666 H 346.939 -2.76681 1.68016 0
M  V30 3667 H 345.846 -1.32856 3.49714 0
M  V30 3668 H 347.179 -1.76637 4.59413 0
M  V30 3669 N 348.832 -1.54138 -0.328536 0
M  V30 3670 C 349.765 -1.78014 -1.4278 0
M  V30 3671 C 350.743 -0.629889 -1.49904 0
M  V30 3672 O 351.927 -0.866763 -1.6739 0
M  V30 3673 C 349.054 -1.89225 -2.80912 0
M  V30 3674 C 348.1 -3.11483 -2.91343 0
M  V30 3675 S 348.933 -4.70201 -2.56263 0
M  V30 3676 C 350.089 -4.84312 -3.96476 0
M  V30 3677 H 350.322 -2.70974 -1.22313 0
M  V30 3678 H 347.855 -1.45197 -0.525084 0
M  V30 3679 H 349.813 -1.9637 -3.60485 0
M  V30 3680 H 348.474 -0.972518 -2.98665 0
M  V30 3681 H 347.667 -3.16046 -3.92595 0
M  V30 3682 H 347.269 -3.02642 -2.19736 0
M  V30 3683 H 349.561 -4.66643 -4.91173 0
M  V30 3684 H 350.504 -5.86411 -3.96898 0
M  V30 3685 H 350.912 -4.12652 -3.85199 0
M  V30 3686 N 350.31 0.590341 -1.46126 0
M  V30 3687 C 351.257 1.69994 -1.56111 0
M  V30 3688 C 352.227 1.61065 -0.405867 0
M  V30 3689 O 353.412 1.8039 -0.621613 0
M  V30 3690 C 350.552 3.08326 -1.55013 0
M  V30 3691 C 349.665 3.27936 -2.81215 0
M  V30 3692 C 348.8 4.56473 -2.71673 0
M  V30 3693 C 347.839 4.694 -3.92849 0
M  V30 3694 N 346.976 5.89254 -3.81738 0
M  V30 3695 H 351.816 1.60797 -2.50895 0
M  V30 3696 H 349.353 0.783799 -1.24479 0
M  V30 3697 H 351.311 3.88383 -1.52362 0
M  V30 3698 H 349.941 3.16439 -0.637667 0
M  V30 3699 H 348.993 2.41536 -2.93879 0
M  V30 3700 H 350.305 3.33357 -3.71045 0
M  V30 3701 H 349.459 5.44748 -2.67085 0
M  V30 3702 H 348.198 4.53477 -1.7947 0
M  V30 3703 H 347.203 3.79544 -3.97777 0
M  V30 3704 H 348.428 4.7418 -4.86138 0
M  V30 3705 H 346.374 5.87271 -2.92317 0
M  V30 3706 H 346.291 5.95911 -4.65217 0
M  V30 3707 H 347.559 6.79981 -3.81112 0
M  V30 3708 N 351.788 1.33704 0.83433 0
M  V30 3709 C 352.735 1.24335 1.94447 0
M  V30 3710 C 353.705 0.120991 1.65659 0
M  V30 3711 O 354.89 0.300035 1.88426 0
M  V30 3712 C 352.03 0.993124 3.30501 0
M  V30 3713 C 351.143 2.20217 3.71657 0
M  V30 3714 C 350.278 1.88572 4.96602 0
M  V30 3715 C 349.317 3.05683 5.30306 0
M  V30 3716 N 348.454 2.73997 6.46429 0
M  V30 3717 H 353.294 2.1928 2.01792 0
M  V30 3718 H 350.831 1.09035 0.987404 0
M  V30 3719 H 352.789 0.828467 4.08892 0
M  V30 3720 H 351.419 0.0803902 3.227 0
M  V30 3721 H 350.471 2.47642 2.88752 0
M  V30 3722 H 351.783 3.07752 3.92543 0
M  V30 3723 H 350.937 1.68776 5.82752 0
M  V30 3724 H 349.676 0.982799 4.77695 0
M  V30 3725 H 348.681 3.26088 4.42659 0
M  V30 3726 H 349.906 3.96737 5.51159 0
M  V30 3727 H 347.852 1.86268 6.28999 0
M  V30 3728 H 347.769 3.55064 6.67432 0
M  V30 3729 H 349.037 2.57679 7.35678 0
M  V30 3730 N 353.266 -1.05314 1.17247 0
M  V30 3731 C 354.682 -1.30452 0.919473 0
M  V30 3732 C 354.882 -1.9703 -0.42209 0
M  V30 3733 O 353.938 -2.24311 -1.15935 0
M  V30 3734 C 355.251 -2.17551 2.07586 0
M  V30 3735 C 356.799 -2.30937 2.11275 0
M  V30 3736 C 357.274 -3.21396 3.26296 0
M  V30 3737 N 358.765 -3.28981 3.26076 0
M  V30 3738 C 359.5 -3.99095 4.11716 0
M  V30 3739 N 358.996 -4.71648 5.07465 0
M  V30 3740 N 360.789 -3.95247 3.9967 0
M  V30 3741 H 352.94 -0.604988 2.03602 0
M  V30 3742 H 355.203 -0.329368 0.888944 0
M  V30 3743 H 354.909 -1.75921 3.0454 0
M  V30 3744 H 354.783 -3.18182 2.02584 0
M  V30 3745 H 357.17 -2.71809 1.14907 0
M  V30 3746 H 357.251 -1.2994 2.20339 0
M  V30 3747 H 356.895 -2.81238 4.22927 0
M  V30 3748 H 356.825 -4.22395 3.14467 0
M  V30 3749 H 359.316 -2.77286 2.5675 0
M  V30 3750 H 359.629 -5.22705 5.6921 0
M  V30 3751 H 357.974 -4.70594 5.11435 0
M  V30 3752 H 361.165 -3.37691 3.24164 0
M  V30 3753 H 361.338 -4.4962 4.66632 0
M  V30 3754 N 354.744 -0.972509 -1.24016 0
M  V30 3755 C 355.993 -0.632603 -1.91523 0
M  V30 3756 C 356.306 0.836641 -1.76804 0
M  V30 3757 O 357.512 1.28728 -2.39043 0
M  V30 3758 C 355.968 -1.08082 -3.43287 0
M  V30 3759 C 355.576 -2.57386 -3.66683 0
M  V30 3760 C 357.32 -0.814288 -4.16617 0
M  V30 3761 C 355.227 -2.95915 -5.12043 0
M  V30 3762 H 354.157 -0.232898 -0.717129 0
M  V30 3763 H 356.808 -1.17936 -1.40582 0
M  V30 3764 H 355.19 -0.462339 -3.93292 0
M  V30 3765 H 356.364 -3.24405 -3.27258 0
M  V30 3766 H 354.679 -2.81701 -3.06649 0
M  V30 3767 H 357.276 -1.0781 -5.23718 0
M  V30 3768 H 357.619 0.24955 -4.15551 0
M  V30 3769 H 358.152 -1.39397 -3.72577 0
M  V30 3770 H 354.891 -4.0139 -5.18234 0
M  V30 3771 H 354.411 -2.33584 -5.52448 0
M  V30 3772 H 356.09 -2.86086 -5.80314 0
M  V30 3773 N 356.222 1.38976 -0.743202 0
M  V30 3774 C 357.468 2.0064 -0.295189 0
M  V30 3775 C 357.801 1.5885 1.11716 0
M  V30 3776 O 357.076 0.821181 1.76315 0
M  V30 3777 C 357.359 3.578 -0.406318 0
M  V30 3778 C 357.212 4.09586 -1.85903 0
M  V30 3779 C 358.531 4.39616 0.206439 0
M  V30 3780 H 355.65 0.728935 -0.108733 0
M  V30 3781 H 358.292 1.65067 -0.940897 0
M  V30 3782 H 356.442 3.88235 0.143419 0
M  V30 3783 H 358.114 3.89837 -2.46627 0
M  V30 3784 H 356.357 3.6284 -2.3776 0
M  V30 3785 H 357.028 5.18708 -1.888 0
M  V30 3786 H 359.504 4.15273 -0.262283 0
M  V30 3787 H 358.38 5.48812 0.0983819 0
M  V30 3788 H 358.641 4.22754 1.2935 0
M  V30 3789 N 357.7 0.491464 1.49741 0
M  V30 3790 C 358.948 -0.0563141 2.02022 0
M  V30 3791 C 359.269 -1.38363 1.37407 0
M  V30 3792 O 358.539 -1.88702 0.526166 0
M  V30 3793 H 357.119 -0.0238014 0.746621 0
M  V30 3794 H 359.781 0.646533 1.83864 0
M  V30 3795 H 358.877 -0.192967 3.11503 0
M  V30 3796 N 359.178 -1.55987 0.224894 0
M  V30 3797 C 360.126 -2.21808 -0.700283 0
M  V30 3798 C 361.12 -1.19854 -1.19714 0
M  V30 3799 O 362.326 -1.37925 -1.15658 0
M  V30 3800 H 358.701 -0.711226 -0.244258 0
M  V30 3801 H 360.672 -2.98152 -0.121749 0
M  V30 3802 C 359.421 -2.91444 -1.8962 0
M  V30 3803 H 358.744 -3.69655 -1.52299 0
M  V30 3804 H 360.184 -3.40894 -2.52125 0
M  V30 3805 C 358.643 -1.94098 -2.75368 0
M  V30 3806 O 359.173 -1.46004 -3.74227 0
M  V30 3807 N 357.379 -1.61675 -2.41474 0
M  V30 3808 H 356.926 -2.00979 -1.61137 0
M  V30 3809 H 356.884 -0.968036 -2.99126 0
M  V30 3810 N 360.656 0.0484629 -1.57525 0
M  V30 3811 C 361.904 0.741657 -1.88 0
M  V30 3812 C 362.225 1.76918 -0.820054 0
M  V30 3813 O 361.495 1.95335 0.148661 0
M  V30 3814 H 360.075 0.276908 -0.69378 0
M  V30 3815 H 362.737 0.019013 -1.94891 0
M  V30 3816 H 361.833 1.24336 -2.86264 0
M  V30 3817 N 362.134 1.5431 0.320358 0
M  V30 3818 C 363.382 1.72327 1.05583 0
M  V30 3819 C 363.703 0.50149 1.88441 0
M  V30 3820 O 362.973 -0.48448 1.89815 0
M  V30 3821 H 361.553 0.635387 0.3928 0
M  V30 3822 H 364.215 1.91621 0.356019 0
M  V30 3823 H 363.311 2.60426 1.72003 0
M  V30 3824 N 363.613 -0.582584 1.46437 0
M  V30 3825 C 364.543 -1.70187 1.59871 0
M  V30 3826 C 365.524 -1.64066 0.449042 0
M  V30 3827 O 366.709 -1.82081 0.6753 0
M  V30 3828 C 363.839 -3.08827 1.58881 0
M  V30 3829 C 362.793 -3.29779 2.72819 0
M  V30 3830 C 362.119 -4.68947 2.5689 0
M  V30 3831 C 363.419 -3.17601 4.1464 0
M  V30 3832 H 365.113 -1.592 2.53566 0
M  V30 3833 H 362.659 -0.764472 1.22032 0
M  V30 3834 H 364.612 -3.86951 1.66873 0
M  V30 3835 H 363.336 -3.20713 0.617306 0
M  V30 3836 H 361.995 -2.54054 2.64296 0
M  V30 3837 H 361.643 -4.77599 1.57823 0
M  V30 3838 H 361.343 -4.83919 3.33312 0
M  V30 3839 H 362.867 -5.4924 2.66773 0
M  V30 3840 H 364.281 -3.8557 4.24274 0
M  V30 3841 H 362.678 -3.44094 4.9165 0
M  V30 3842 H 363.748 -2.14681 4.34788 0
M  V30 3843 N 365.091 -1.34144 -0.827227 0
M  V30 3844 C 366.337 -1.26446 -1.58554 0
M  V30 3845 C 366.67 0.1664 -1.93486 0
M  V30 3846 O 365.945 1.1107 -1.59667 0
M  V30 3847 C 366.228 -2.15111 -2.8879 0
M  V30 3848 C 366.081 -3.66712 -2.60465 0
M  V30 3849 C 367.4 -2.03311 -3.90324 0
M  V30 3850 H 364.519 -0.46067 -0.575284 0
M  V30 3851 H 367.161 -1.64356 -0.953269 0
M  V30 3852 H 365.311 -1.8291 -3.42748 0
M  V30 3853 H 366.983 -4.09259 -2.1285 0
M  V30 3854 H 365.226 -3.88014 -1.93978 0
M  V30 3855 H 365.897 -4.24112 -3.53317 0
M  V30 3856 H 368.373 -2.31574 -3.45706 0
M  V30 3857 H 367.249 -2.67582 -4.79261 0
M  V30 3858 H 367.51 -1.00879 -4.30437 0
M  V30 3859 N 366.569 1.04691 -1.17803 0
M  V30 3860 C 367.532 2.10724 -0.901545 0
M  V30 3861 C 368.532 1.6042 0.110437 0
M  V30 3862 O 369.722 1.7377 -0.122303 0
M  V30 3863 C 366.854 3.39084 -0.351409 0
M  V30 3864 H 368.047 2.36686 -1.84174 0
M  V30 3865 H 365.6 1.21015 -0.98919 0
M  V30 3866 H 366.335 3.18782 0.59569 0
M  V30 3867 H 366.12 3.76909 -1.08083 0
M  V30 3868 H 367.61 4.17227 -0.176451 0
M  V30 3869 N 368.047 0.979072 1.23499 0
M  V30 3870 C 369.277 0.664237 1.95631 0
M  V30 3871 C 369.685 -0.772653 1.72704 0
M  V30 3872 O 369.028 -1.53141 1.01457 0
M  V30 3873 C 369.09 0.873115 3.48736 0
M  V30 3874 C 368.754 2.29182 3.95379 0
M  V30 3875 C 369.751 3.2704 4.04155 0
M  V30 3876 C 367.436 2.62256 4.28401 0
M  V30 3877 C 369.43 4.56052 4.45304 0
M  V30 3878 C 367.117 3.91491 4.69231 0
M  V30 3879 C 368.115 4.88201 4.77649 0
M  V30 3880 O 367.803 6.15129 5.17563 0
M  V30 3881 H 367.535 0.245915 0.629684 0
M  V30 3882 H 370.089 1.3127 1.57979 0
M  V30 3883 H 368.319 0.167476 3.86337 0
M  V30 3884 H 370.008 0.555642 4.02079 0
M  V30 3885 H 370.774 3.02819 3.78848 0
M  V30 3886 H 366.653 1.87692 4.21061 0
M  V30 3887 H 370.197 5.31538 4.51789 0
M  V30 3888 H 366.094 4.15508 4.93987 0
M  V30 3889 H 366.862 6.18862 5.35679 0
M  V30 3890 N 369.525 -1.3858 0.750561 0
M  V30 3891 C 370.455 -2.33102 0.136237 0
M  V30 3892 C 371.436 -1.54713 -0.706965 0
M  V30 3893 O 372.621 -1.83043 -0.648769 0
M  V30 3894 C 369.751 -3.38882 -0.760017 0
M  V30 3895 C 368.705 -4.27995 -0.0197785 0
M  V30 3896 C 368.031 -5.24605 -1.03408 0
M  V30 3897 C 369.331 -5.09554 1.14684 0
M  V30 3898 H 371.025 -2.84726 0.925822 0
M  V30 3899 H 368.571 -1.36898 0.446654 0
M  V30 3900 H 370.524 -4.0397 -1.19943 0
M  V30 3901 H 369.248 -2.85734 -1.58189 0
M  V30 3902 H 367.907 -3.64409 0.400184 0
M  V30 3903 H 367.555 -4.67746 -1.84994 0
M  V30 3904 H 367.255 -5.85081 -0.543464 0
M  V30 3905 H 368.779 -5.9257 -1.47288 0
M  V30 3906 H 370.193 -5.67899 0.785118 0
M  V30 3907 H 368.59 -5.7925 1.56812 0
M  V30 3908 H 369.66 -4.4347 1.96118 0
M  V30 3909 N 371.003 -0.499398 -1.49478 0
M  V30 3910 C 372.251 0.0455996 -2.02049 0
M  V30 3911 C 372.572 1.37633 -1.38138 0
M  V30 3912 O 371.842 1.8842 -0.536166 0
M  V30 3913 H 370.422 0.0198416 -0.746736 0
M  V30 3914 H 373.084 -0.656274 -1.83519 0
M  V30 3915 H 372.18 0.176445 -3.11601 0
M  V30 3916 N 372.481 1.55866 -0.233164 0
M  V30 3917 C 373.709 2.02998 0.399905 0
M  V30 3918 C 374.124 1.11274 1.52524 0
M  V30 3919 O 373.481 0.124528 1.82075 0
M  V30 3920 C 373.532 3.4958 0.920639 0
M  V30 3921 O 373.253 4.37808 -0.159834 0
M  V30 3922 C 374.754 4.12411 1.62578 0
M  V30 3923 H 371.974 0.664006 0.0966281 0
M  V30 3924 H 374.518 2.0143 -0.353013 0
M  V30 3925 H 372.673 3.51727 1.62379 0
M  V30 3926 H 373.087 5.23981 0.23337 0
M  V30 3927 H 374.561 5.16711 1.94201 0
M  V30 3928 H 375.038 3.5809 2.54299 0
M  V30 3929 H 375.644 4.14148 0.967553 0
M  V30 3930 N 373.959 -0.0401083 1.57549 0
M  V30 3931 C 375.184 -0.748931 1.93406 0
M  V30 3932 C 375.609 -1.68686 0.832274 0
M  V30 3933 O 374.967 -1.80047 -0.212818 0
M  V30 3934 C 375.015 -1.4916 3.28304 0
M  V30 3935 O 374.119 -2.6042 3.19774 0
M  V30 3936 H 373.46 -0.202212 0.63246 0
M  V30 3937 H 375.99 0.00112086 2.046 0
M  V30 3938 H 376 -1.86395 3.62934 0
M  V30 3939 H 374.675 -0.80364 4.08062 0
M  V30 3940 H 373.252 -2.25808 2.96758 0
M  V30 3941 N 375.437 -1.54477 -0.31217 0
M  V30 3942 C 376.714 -1.63891 -1.06767 0
M  V30 3943 C 377.094 -0.480028 -2.0557 0
M  V30 3944 O 376.442 0.524487 -2.22399 0
M  V30 3945 C 376.652 -3.01402 -1.75948 0
M  V30 3946 C 378 -3.57838 -2.28554 0
M  V30 3947 O 379.024 -3.03782 -1.85998 0
M  V30 3948 O 377.883 -4.52462 -3.06497 0
M  V30 3949 H 374.977 -0.664125 -0.492816 0
M  V30 3950 H 377.523 -1.66823 -0.311149 0
M  V30 3951 H 376.295 -3.77187 -1.04144 0
M  V30 3952 H 375.918 -3.02199 -2.58383 0
M  V30 3953 N 376.915 0.57481 -1.46744 0
M  V30 3954 C 377.878 1.66533 -1.57478 0
M  V30 3955 C 378.878 1.54338 -0.451263 0
M  V30 3956 O 380.068 1.58814 -0.715813 0
M  V30 3957 C 377.2 3.05999 -1.50259 0
M  V30 3958 H 378.393 1.58372 -2.54673 0
M  V30 3959 H 375.946 0.793301 -1.34672 0
M  V30 3960 H 376.681 3.19709 -0.543725 0
M  V30 3961 H 376.466 3.16259 -2.31781 0
M  V30 3962 H 377.956 3.8537 -1.60872 0
M  V30 3963 N 378.394 1.34581 0.820102 0
M  V30 3964 C 379.81 1.14325 1.11364 0
M  V30 3965 C 380.01 -0.0533648 2.01429 0
M  V30 3966 O 379.066 -0.728044 2.41776 0
M  V30 3967 C 380.379 2.43983 1.75764 0
M  V30 3968 C 381.927 2.50065 1.88246 0
M  V30 3969 C 382.402 3.79732 2.56061 0
M  V30 3970 N 383.893 3.80908 2.63558 0
M  V30 3971 C 384.628 4.77961 3.16766 0
M  V30 3972 N 384.124 5.85397 3.70517 0
M  V30 3973 N 385.917 4.65413 3.15194 0
M  V30 3974 H 378.068 2.11246 0.221096 0
M  V30 3975 H 380.331 0.934289 0.160649 0
M  V30 3976 H 380.037 3.31651 1.1705 0
M  V30 3977 H 379.911 2.57531 2.75604 0
M  V30 3978 H 382.298 1.62834 2.46108 0
M  V30 3979 H 382.379 2.40442 0.873006 0
M  V30 3980 H 382.023 4.67354 1.98853 0
M  V30 3981 H 381.953 3.86639 3.57516 0
M  V30 3982 H 384.444 3.03274 2.25463 0
M  V30 3983 H 384.757 6.55463 4.09376 0
M  V30 3984 H 383.102 5.89107 3.68752 0
M  V30 3985 H 386.293 3.80627 2.72471 0
M  V30 3986 H 386.466 5.41216 3.56356 0
M  V30 3987 N 379.872 -1.04064 1.18357 0
M  V30 3988 C 380.782 -2.15569 0.925596 0
M  V30 3989 C 381.798 -1.7365 -0.110295 0
M  V30 3990 O 382.974 -2.01273 0.0716218 0
M  V30 3991 C 380.039 -3.43704 0.454836 0
M  V30 3992 C 379.1 -4.00004 1.55869 0
M  V30 3993 C 378.333 -5.22023 1.1103 0
M  V30 3994 O 378.556 -5.70392 -0.0309756 0
M  V30 3995 O 377.49 -5.70856 1.90805 0
M  V30 3996 H 381.316 -2.40187 1.8586 0
M  V30 3997 H 378.901 -1.1402 0.965394 0
M  V30 3998 H 380.783 -4.20923 0.200382 0
M  V30 3999 H 379.458 -3.20559 -0.449876 0
M  V30 4000 H 378.365 -3.24172 1.86716 0
M  V30 4001 H 379.698 -4.2749 2.43953 0
M  V30 4002 N 381.35 -0.985608 -1.22978 0
M  V30 4003 C 382.596 -0.65836 -1.91816 0
M  V30 4004 C 382.929 0.806692 -1.76653 0
M  V30 4005 O 382.204 1.58252 -1.13078 0
M  V30 4006 C 382.487 -1.056 -3.44268 0
M  V30 4007 C 382.34 -2.57906 -3.68516 0
M  V30 4008 C 383.659 -0.603781 -4.35939 0
M  V30 4009 H 380.778 -0.24065 -0.696604 0
M  V30 4010 H 383.42 -1.22783 -1.44998 0
M  V30 4011 H 381.57 -0.571445 -3.84274 0
M  V30 4012 H 383.242 -3.13976 -3.3796 0
M  V30 4013 H 381.485 -3.00305 -3.13048 0
M  V30 4014 H 382.156 -2.80779 -4.75255 0
M  V30 4015 H 384.632 -1.01987 -4.03408 0
M  V30 4016 H 383.508 -0.910383 -5.41298 0
M  V30 4017 H 383.769 0.495761 -4.39312 0
M  V30 4018 N 382.828 1.3818 -0.7579 0
M  V30 4019 C 384.074 2.00316 -0.316453 0
M  V30 4020 C 384.407 1.60026 1.10025 0
M  V30 4021 O 383.682 0.839835 1.75434 0
M  V30 4022 C 383.965 3.57349 -0.444245 0
M  V30 4023 C 383.818 4.07591 -1.90236 0
M  V30 4024 C 385.137 4.3981 0.1598 0
M  V30 4025 H 382.256 0.727741 -0.116459 0
M  V30 4026 H 384.898 1.6406 -0.958352 0
M  V30 4027 H 383.048 3.88365 0.102233 0
M  V30 4028 H 384.72 3.87199 -2.50748 0
M  V30 4029 H 382.963 3.60297 -2.41595 0
M  V30 4030 H 383.634 5.16677 -1.94291 0
M  V30 4031 H 386.11 4.14971 -0.306314 0
M  V30 4032 H 384.986 5.48885 0.0401675 0
M  V30 4033 H 385.247 4.24102 1.24859 0
M  V30 4034 N 384.306 0.507319 1.49211 0
M  V30 4035 C 385.722 0.163682 1.58758 0
M  V30 4036 C 385.922 -1.33208 1.51188 0
M  V30 4037 O 384.978 -2.10855 1.38911 0
M  V30 4038 C 386.291 0.746095 2.91297 0
M  V30 4039 C 387.839 0.712773 3.04776 0
M  V30 4040 C 388.314 1.27336 4.39943 0
M  V30 4041 N 389.805 1.23433 4.46451 0
M  V30 4042 C 390.54 1.63821 5.495 0
M  V30 4043 N 390.036 2.11832 6.5962 0
M  V30 4044 N 391.829 1.55198 5.4025 0
M  V30 4045 H 383.98 1.47972 1.52375 0
M  V30 4046 H 386.243 0.614147 0.722168 0
M  V30 4047 H 385.949 1.79534 3.02424 0
M  V30 4048 H 385.823 0.210137 3.76614 0
M  V30 4049 H 388.21 -0.327656 2.93275 0
M  V30 4050 H 388.291 1.28595 2.21127 0
M  V30 4051 H 387.935 2.3126 4.52196 0
M  V30 4052 H 387.865 0.676066 5.22242 0
M  V30 4053 H 390.356 0.882627 3.67448 0
M  V30 4054 H 390.669 2.40703 7.34358 0
M  V30 4055 H 389.014 2.1581 6.60644 0
M  V30 4056 H 392.205 1.17505 4.53112 0
M  V30 4057 H 392.378 1.86997 6.20432 0
M  V30 4058 N 385.784 -1.5574 0.241426 0
M  V30 4059 C 387.2 -1.59196 -0.113548 0
M  V30 4060 C 387.4 -1.25852 -1.57364 0
M  V30 4061 O 386.456 -1.00322 -2.31715 0
M  V30 4062 C 387.769 -2.99814 0.230695 0
M  V30 4063 C 389.317 -3.12513 0.174547 0
M  V30 4064 C 389.792 -4.55342 0.492744 0
M  V30 4065 N 391.283 -4.61076 0.443043 0
M  V30 4066 C 392.018 -5.6956 0.662484 0
M  V30 4067 N 391.514 -6.86328 0.944761 0
M  V30 4068 N 393.307 -5.58957 0.593564 0
M  V30 4069 H 385.458 -1.75685 1.19368 0
M  V30 4070 H 387.721 -0.81756 0.479896 0
M  V30 4071 H 387.427 -3.28932 1.24485 0
M  V30 4072 H 387.301 -3.74568 -0.444833 0
M  V30 4073 H 389.688 -2.83179 -0.830277 0
M  V30 4074 H 389.769 -2.40045 0.883845 0
M  V30 4075 H 389.413 -4.85396 1.4951 0
M  V30 4076 H 389.343 -5.26062 -0.23797 0
M  V30 4077 H 391.834 -3.77179 0.233374 0
M  V30 4078 H 392.147 -7.64935 1.09977 0
M  V30 4079 H 390.492 -6.88025 0.982175 0
M  V30 4080 H 393.683 -4.66611 0.373123 0
M  V30 4081 H 393.856 -6.43433 0.767981 0
M  V30 4082 N 387.262 0.0317525 -1.57568 0
M  V30 4083 C 388.511 0.722131 -1.8833 0
M  V30 4084 C 388.824 1.76664 -0.839587 0
M  V30 4085 O 390.03 2.50942 -1.03635 0
M  V30 4086 C 388.486 1.33544 -3.34207 0
M  V30 4087 C 388.094 0.327415 -4.46802 0
M  V30 4088 C 389.838 2.00585 -3.7412 0
M  V30 4089 C 387.745 0.948915 -5.83738 0
M  V30 4090 H 386.675 0.273466 -0.702661 0
M  V30 4091 H 389.326 -0.0235811 -1.83485 0
M  V30 4092 H 387.708 2.13077 -3.33788 0
M  V30 4093 H 388.882 -0.441006 -4.58685 0
M  V30 4094 H 387.197 -0.240758 -4.15703 0
M  V30 4095 H 389.794 2.47932 -4.73744 0
M  V30 4096 H 390.137 2.82285 -3.05975 0
M  V30 4097 H 390.67 1.27831 -3.76702 0
M  V30 4098 H 387.409 0.171387 -6.55276 0
M  V30 4099 H 386.929 1.68724 -5.7558 0
M  V30 4100 H 388.608 1.45705 -6.3038 0
M  V30 4101 N 388.74 1.54641 0.303973 0
M  V30 4102 C 389.687 1.85386 1.37479 0
M  V30 4103 C 390.657 0.702528 1.50512 0
M  V30 4104 O 391.842 0.950867 1.65418 0
M  V30 4105 C 388.982 2.10413 2.73533 0
M  V30 4106 C 388.095 3.38049 2.68974 0
M  V30 4107 C 387.23 3.52934 3.97002 0
M  V30 4108 C 386.269 4.74373 3.86829 0
M  V30 4109 N 385.406 4.8608 5.06627 0
M  V30 4110 H 390.246 2.76732 1.1056 0
M  V30 4111 H 387.783 1.37034 0.534805 0
M  V30 4112 H 389.741 2.22919 3.52652 0
M  V30 4113 H 388.371 1.22338 2.98719 0
M  V30 4114 H 387.423 3.3418 1.81736 0
M  V30 4115 H 388.735 4.27288 2.57346 0
M  V30 4116 H 387.889 3.65088 4.84557 0
M  V30 4117 H 386.628 2.61824 4.1146 0
M  V30 4118 H 385.633 4.62255 2.97658 0
M  V30 4119 H 386.858 5.66888 3.73918 0
M  V30 4120 H 384.804 3.97891 5.21554 0
M  V30 4121 H 384.721 5.69315 4.9741 0
M  V30 4122 H 385.989 5.02587 5.95841 0
M  V30 4123 N 390.218 -0.567019 1.47046 0
M  V30 4124 C 391.15 -1.68985 1.54844 0
M  V30 4125 C 392.163 -1.56869 0.435431 0
M  V30 4126 O 393.352 -1.64006 0.70457 0
M  V30 4127 C 390.452 -3.07373 1.42742 0
M  V30 4128 C 389.625 -3.45339 2.6844 0
M  V30 4129 C 388.684 -4.62849 2.50314 0
M  V30 4130 O 387.71 -4.67922 3.24095 0
M  V30 4131 N 388.912 -5.58726 1.57499 0
M  V30 4132 H 391.677 -1.62745 2.51663 0
M  V30 4133 H 389.238 -0.753411 1.43302 0
M  V30 4134 H 391.23 -3.83803 1.28365 0
M  V30 4135 H 389.8 -3.07893 0.540445 0
M  V30 4136 H 389.02 -2.58455 2.97648 0
M  V30 4137 H 390.308 -3.67476 3.51907 0
M  V30 4138 H 389.706 -5.57376 0.966876 0
M  V30 4139 H 388.263 -6.34523 1.49078 0
M  V30 4140 N 391.696 -1.35014 -0.812953 0
M  V30 4141 C 392.944 -1.27678 -1.56661 0
M  V30 4142 C 393.265 0.150359 -1.94419 0
M  V30 4143 O 392.535 1.08532 -1.63088 0
M  V30 4144 H 391.115 -0.469602 -0.580933 0
M  V30 4145 H 393.777 -1.69043 -0.970076 0
M  V30 4146 H 392.873 -1.88833 -2.48492 0
M  V30 4147 N 393.175 1.03435 -1.18907 0
M  V30 4148 C 394.452 1.73778 -0.89781 0
M  V30 4149 C 394.832 2.02458 0.597832 0
M  V30 4150 O 394.18 1.67482 1.55441 0
M  V30 4151 C 394.39 3.01845 -1.75187 0
M  V30 4152 C 395.738 3.7546 -1.9828 0
M  V30 4153 O 396.762 3.11759 -1.72293 0
M  V30 4154 O 395.621 4.89966 -2.42065 0
M  V30 4155 H 392.715 0.75651 -0.334098 0
M  V30 4156 H 395.261 1.09444 -1.29693 0
M  V30 4157 H 394.033 2.76836 -2.76545 0
M  V30 4158 H 393.656 3.73919 -1.35167 0
M  V30 4159 N 394.653 0.992116 1.22453 0
M  V30 4160 C 395.563 0.55065 2.28046 0
M  V30 4161 C 396.579 -0.400189 1.69335 0
M  V30 4162 O 397.755 -0.267215 1.99619 0
M  V30 4163 C 394.82 -0.128496 3.46462 0
M  V30 4164 C 393.881 0.865208 4.20491 0
M  V30 4165 C 393.114 0.218377 5.33253 0
M  V30 4166 O 393.337 -0.987894 5.6178 0
M  V30 4167 O 392.271 0.922845 5.94783 0
M  V30 4168 H 396.097 1.4291 2.67975 0
M  V30 4169 H 393.682 0.760326 1.28606 0
M  V30 4170 H 395.564 -0.508947 4.18315 0
M  V30 4171 H 394.239 -0.981526 3.0846 0
M  V30 4172 H 393.146 1.29658 3.50913 0
M  V30 4173 H 394.479 1.68741 4.62371 0
M  V30 4174 N 396.131 -1.37776 0.765217 0
M  V30 4175 C 397.377 -2.00604 0.336066 0
M  V30 4176 C 397.732 -1.59657 -1.07366 0
M  V30 4177 O 397.025 -0.829565 -1.7271 0
M  V30 4178 C 397.219 -3.5504 0.410053 0
M  V30 4179 C 397.048 -4.10985 1.82542 0
M  V30 4180 C 395.818 -4.42229 2.44461 0
M  V30 4181 C 398.016 -4.32438 2.78392 0
M  V30 4182 N 395.998 -4.8385 3.77839 0
M  V30 4183 C 397.369 -4.76596 3.96556 0
M  V30 4184 C 399.424 -4.14559 2.75764 0
M  V30 4185 C 398.127 -5.04748 5.12466 0
M  V30 4186 C 400.153 -4.43843 3.90842 0
M  V30 4187 C 399.515 -4.88235 5.07746 0
M  V30 4188 H 395.614 -0.763325 0.169881 0
M  V30 4189 H 398.198 -1.67197 0.997656 0
M  V30 4190 H 396.369 -3.87769 -0.221325 0
M  V30 4191 H 398.101 -4.0468 -0.0405285 0
M  V30 4192 H 394.856 -4.31079 1.96131 0
M  V30 4193 H 395.28 -5.08979 4.46396 0
M  V30 4194 H 399.922 -3.79415 1.86558 0
M  V30 4195 H 397.64 -5.38783 6.02277 0
M  V30 4196 H 401.226 -4.31603 3.90141 0
M  V30 4197 H 400.106 -5.10461 5.95315 0
M  V30 4198 N 397.609 -0.515225 -1.4894 0
M  V30 4199 C 398.572 0.244681 -2.2789 0
M  V30 4200 C 399.572 0.881166 -1.34507 0
M  V30 4201 O 400.762 0.743497 -1.57537 0
M  V30 4202 C 397.894 1.35247 -3.12923 0
M  V30 4203 H 399.087 -0.448289 -2.96531 0
M  V30 4204 H 396.64 -0.270656 -1.53939 0
M  V30 4205 H 397.375 2.07916 -2.48881 0
M  V30 4206 H 397.16 0.901374 -3.81599 0
M  V30 4207 H 398.65 1.88737 -3.72516 0
M  V30 4208 N 399.087 1.5561 -0.249682 0
M  V30 4209 C 400.034 2.21496 0.648694 0
M  V30 4210 C 401.004 1.17977 1.16921 0
M  V30 4211 O 402.189 1.46434 1.22318 0
M  V30 4212 C 399.329 2.92039 1.83868 0
M  V30 4213 C 398.442 4.10219 1.35442 0
M  V30 4214 C 397.577 4.6847 2.50419 0
M  V30 4215 C 396.616 5.78893 1.98869 0
M  V30 4216 N 395.753 6.31315 3.07223 0
M  V30 4217 H 400.593 2.97892 0.0801582 0
M  V30 4218 H 398.13 1.47074 0.0278031 0
M  V30 4219 H 400.088 3.31138 2.53778 0
M  V30 4220 H 398.718 2.18111 2.37965 0
M  V30 4221 H 397.77 3.76413 0.54928 0
M  V30 4222 H 399.082 4.89927 0.936649 0
M  V30 4223 H 398.236 5.10158 3.28366 0
M  V30 4224 H 396.975 3.87984 2.95499 0
M  V30 4225 H 395.98 5.3668 1.19393 0
M  V30 4226 H 397.205 6.61232 1.54755 0
M  V30 4227 H 395.151 5.53733 3.51732 0
M  V30 4228 H 395.068 7.06224 2.69784 0
M  V30 4229 H 396.336 6.77662 3.8522 0
M  V30 4230 N 400.565 -0.0233959 1.57583 0
M  V30 4231 C 401.981 -0.379134 1.55031 0
M  V30 4232 C 402.181 -1.76255 0.976548 0
M  V30 4233 O 401.237 -2.45266 0.600078 0
M  V30 4234 C 402.55 -0.275792 2.99433 0
M  V30 4235 C 404.098 -0.352458 3.11009 0
M  V30 4236 C 404.573 -0.278501 4.57152 0
M  V30 4237 N 406.064 -0.337123 4.61972 0
M  V30 4238 C 406.799 -0.302876 5.726 0
M  V30 4239 N 406.295 -0.220589 6.92449 0
M  V30 4240 N 408.088 -0.353023 5.6099 0
M  V30 4241 H 400.239 0.881869 1.93227 0
M  V30 4242 H 402.502 0.335867 0.886509 0
M  V30 4243 H 402.208 0.675108 3.4516 0
M  V30 4244 H 402.082 -1.06721 3.61788 0
M  V30 4245 H 404.469 -1.29379 2.65226 0
M  V30 4246 H 404.55 0.468409 2.51475 0
M  V30 4247 H 404.194 0.659189 5.03604 0
M  V30 4248 H 404.124 -1.11755 5.14605 0
M  V30 4249 H 406.615 -0.403002 3.75745 0
M  V30 4250 H 406.928 -0.199713 7.72542 0
M  V30 4251 H 405.273 -0.186555 6.9475 0
M  V30 4252 H 408.464 -0.415339 4.66254 0
M  V30 4253 H 408.637 -0.322866 6.47195 0
M  V30 4254 N 402.043 -1.548 -0.295768 0
M  V30 4255 C 403.289 -1.74588 -1.03184 0
M  V30 4256 C 403.622 -0.532962 -1.86744 0
M  V30 4257 O 402.897 0.469872 -1.88739 0
M  V30 4258 C 403.18 -3.03791 -1.93347 0
M  V30 4259 C 403.033 -4.35392 -1.12933 0
M  V30 4260 C 404.352 -3.28892 -2.92435 0
M  V30 4261 H 401.471 -0.635221 -0.373715 0
M  V30 4262 H 404.113 -1.87519 -0.30606 0
M  V30 4263 H 402.263 -2.92898 -2.55232 0
M  V30 4264 H 403.935 -4.58211 -0.532943 0
M  V30 4265 H 402.178 -4.31642 -0.432168 0
M  V30 4266 H 402.849 -5.22074 -1.79284 0
M  V30 4267 H 405.325 -3.39429 -2.4068 0
M  V30 4268 H 404.201 -4.20603 -3.52682 0
M  V30 4269 H 404.462 -2.47437 -3.6637 0
M  V30 4270 N 403.521 0.559213 -1.47345 0
M  V30 4271 C 404.751 1.33999 -1.57251 0
M  V30 4272 C 405.159 1.87905 -0.220978 0
M  V30 4273 O 404.502 1.65577 0.795617 0
M  V30 4274 C 404.564 2.54798 -2.53611 0
M  V30 4275 C 404.228 2.22192 -3.99349 0
M  V30 4276 C 405.225 1.79607 -4.87891 0
M  V30 4277 C 402.91 2.33613 -4.44669 0
M  V30 4278 C 404.904 1.48868 -6.19772 0
M  V30 4279 C 402.591 2.02487 -5.76578 0
M  V30 4280 C 403.589 1.60183 -6.63951 0
M  V30 4281 O 403.277 1.29451 -7.93409 0
M  V30 4282 H 403.009 0.414858 -0.533731 0
M  V30 4283 H 405.563 0.684465 -1.9366 0
M  V30 4284 H 403.793 3.23235 -2.12265 0
M  V30 4285 H 405.482 3.16873 -2.53666 0
M  V30 4286 H 406.248 1.70278 -4.54126 0
M  V30 4287 H 402.127 2.65501 -3.76869 0
M  V30 4288 H 405.671 1.15775 -6.87926 0
M  V30 4289 H 401.568 2.11448 -6.09885 0
M  V30 4290 H 402.336 1.43098 -8.05894 0
M  V30 4291 N 404.999 1.35443 0.805782 0
M  V30 4292 C 406.415 1.15499 1.10146 0
M  V30 4293 C 406.615 -0.0319975 2.01475 0
M  V30 4294 O 405.671 -0.70236 2.42535 0
M  V30 4295 C 406.984 2.45833 1.73166 0
M  V30 4296 C 408.532 2.52047 1.85583 0
M  V30 4297 C 409.007 3.82427 2.52019 0
M  V30 4298 N 410.498 3.83682 2.59504 0
M  V30 4299 C 411.233 4.81294 3.11679 0
M  V30 4300 N 410.729 5.89294 3.64287 0
M  V30 4301 N 412.522 4.6873 3.1024 0
M  V30 4302 H 404.673 2.11469 0.198678 0
M  V30 4303 H 406.936 0.93594 0.150731 0
M  V30 4304 H 406.642 3.32874 1.13526 0
M  V30 4305 H 406.516 2.6044 2.72857 0
M  V30 4306 H 408.903 1.65435 2.44367 0
M  V30 4307 H 408.984 2.41354 0.847455 0
M  V30 4308 H 408.628 4.69437 1.93885 0
M  V30 4309 H 408.558 3.90409 3.53395 0
M  V30 4310 H 411.049 3.05648 2.22234 0
M  V30 4311 H 411.362 6.59768 4.02401 0
M  V30 4312 H 409.707 5.92985 3.62483 0
M  V30 4313 H 412.898 3.83496 2.68419 0
M  V30 4314 H 413.071 5.44965 3.50596 0
M  V30 4315 N 406.477 -1.02803 1.19454 0
M  V30 4316 C 407.44 -2.09264 0.934955 0
M  V30 4317 C 408.44 -1.60576 -0.0849015 0
M  V30 4318 O 409.63 -1.73554 0.149933 0
M  V30 4319 C 406.762 -3.38482 0.40531 0
M  V30 4320 H 407.955 -2.33726 1.87916 0
M  V30 4321 H 405.508 -1.19426 1.00832 0
M  V30 4322 H 406.243 -3.19689 -0.544899 0
M  V30 4323 H 406.028 -3.75142 1.14065 0
M  V30 4324 H 407.518 -4.16894 0.242806 0
M  V30 4325 N 407.956 -0.998596 -1.21925 0
M  V30 4326 C 408.889 -0.498517 -2.22688 0
M  V30 4327 C 409.867 0.444301 -1.56412 0
M  V30 4328 O 411.051 0.368518 -1.84863 0
M  V30 4329 C 408.178 0.276639 -3.37568 0
M  V30 4330 C 407.224 -0.61302 -4.22071 0
M  V30 4331 S 408.057 -2.07168 -4.93803 0
M  V30 4332 C 409.213 -1.30617 -6.12119 0
M  V30 4333 H 409.446 -1.35234 -2.64762 0
M  V30 4334 H 406.979 -0.806018 -1.31692 0
M  V30 4335 H 408.937 0.717817 -4.04175 0
M  V30 4336 H 407.598 1.10581 -2.93991 0
M  V30 4337 H 406.791 -0.0162909 -5.03997 0
M  V30 4338 H 406.393 -0.991202 -3.60626 0
M  V30 4339 H 408.685 -0.57675 -6.75041 0
M  V30 4340 H 409.628 -2.10091 -6.76215 0
M  V30 4341 H 410.036 -0.816957 -5.58557 0
M  V30 4342 N 409.434 1.37368 -0.772513 0
M  V30 4343 C 410.397 2.28601 -0.165541 0
M  V30 4344 C 411.397 1.48062 0.627238 0
M  V30 4345 O 412.587 1.68268 0.450715 0
M  V30 4346 C 409.719 3.32023 0.772897 0
M  V30 4347 H 410.912 2.83787 -0.969787 0
M  V30 4348 H 408.465 1.46647 -0.540775 0
M  V30 4349 H 409.2 2.81962 1.60212 0
M  V30 4350 H 408.985 3.91555 0.206585 0
M  V30 4351 H 410.475 4.00197 1.19298 0
M  V30 4352 N 410.912 0.523116 1.48665 0
M  V30 4353 C 412.142 -0.00961724 2.06598 0
M  V30 4354 C 412.55 -1.29333 1.38093 0
M  V30 4355 O 411.893 -1.77846 0.46007 0
M  V30 4356 C 411.955 -0.311135 3.58151 0
M  V30 4357 C 411.619 0.878092 4.48485 0
M  V30 4358 C 412.616 1.77464 4.88674 0
M  V30 4359 C 410.301 1.08315 4.90483 0
M  V30 4360 C 412.295 2.86021 5.69623 0
M  V30 4361 C 409.982 2.17187 5.71203 0
M  V30 4362 C 410.98 3.05873 6.10681 0
M  V30 4363 O 410.668 4.12862 6.89783 0
M  V30 4364 H 410.4 0.0272658 0.67545 0
M  V30 4365 H 412.954 0.726156 1.92136 0
M  V30 4366 H 411.184 -1.10079 3.70701 0
M  V30 4367 H 412.873 -0.785125 3.98234 0
M  V30 4368 H 413.639 1.62813 4.56855 0
M  V30 4369 H 409.518 0.402149 4.59243 0
M  V30 4370 H 413.062 3.55272 6.00356 0
M  V30 4371 H 408.959 2.31824 6.02435 0
M  V30 4372 H 409.727 4.10487 7.08126 0
M  V30 4373 N 412.39 -1.55475 0.257931 0
M  V30 4374 C 413.322 -2.19192 -0.669881 0
M  V30 4375 C 414.335 -1.17148 -1.1305 0
M  V30 4376 O 415.524 -1.43959 -1.05537 0
M  V30 4377 C 412.624 -2.79016 -1.92363 0
M  V30 4378 C 411.797 -4.06586 -1.61265 0
M  V30 4379 C 410.856 -4.50622 -2.7171 0
M  V30 4380 O 409.882 -5.16765 -2.38627 0
M  V30 4381 N 411.084 -4.19325 -4.01431 0
M  V30 4382 H 413.849 -2.99441 -0.124635 0
M  V30 4383 H 411.41 -1.6171 0.0783311 0
M  V30 4384 H 413.402 -3.05427 -2.65511 0
M  V30 4385 H 411.972 -2.0286 -2.37837 0
M  V30 4386 H 411.192 -3.87646 -0.715811 0
M  V30 4387 H 412.48 -4.89737 -1.37967 0
M  V30 4388 H 411.878 -3.66247 -4.31138 0
M  V30 4389 H 410.435 -4.50547 -4.7101 0
M  V30 4390 N 413.868 0.0150385 -1.57593 0
M  V30 4391 C 415.117 0.702115 -1.89085 0
M  V30 4392 C 415.43 1.75764 -0.858277 0
M  V30 4393 O 416.636 2.49829 -1.0629 0
M  V30 4394 C 415.092 1.29992 -3.35604 0
M  V30 4395 C 414.7 0.280007 -4.47124 0
M  V30 4396 C 416.444 1.96606 -3.76227 0
M  V30 4397 C 414.351 0.886949 -5.84711 0
M  V30 4398 H 413.281 0.265997 -0.705522 0
M  V30 4399 H 415.932 -0.0430408 -1.8345 0
M  V30 4400 H 414.314 2.09525 -3.36029 0
M  V30 4401 H 415.488 -0.489631 -4.58191 0
M  V30 4402 H 413.803 -0.284835 -4.15425 0
M  V30 4403 H 416.4 2.42893 -4.76347 0
M  V30 4404 H 416.743 2.79024 -3.08952 0
M  V30 4405 H 417.276 1.23828 -3.78036 0
M  V30 4406 H 414.015 0.101876 -6.55421 0
M  V30 4407 H 413.535 1.6261 -5.77337 0
M  V30 4408 H 415.214 1.39011 -6.3189 0
M  V30 4409 N 415.346 1.54954 0.287554 0
M  V30 4410 C 416.309 1.86076 1.33823 0
M  V30 4411 C 417.309 0.734414 1.43049 0
M  V30 4412 O 418.499 1.00266 1.42452 0
M  V30 4413 C 415.631 2.05305 2.72144 0
M  V30 4414 H 416.824 2.79984 1.07465 0
M  V30 4415 H 414.377 1.47223 0.524902 0
M  V30 4416 H 415.112 1.1373 3.03704 0
M  V30 4417 H 414.897 2.873 2.66836 0
M  V30 4418 H 416.387 2.30706 3.48087 0
M  V30 4419 N 416.824 -0.551391 1.4764 0
M  V30 4420 C 417.771 -1.65796 1.60563 0
M  V30 4421 C 418.741 -1.59932 0.448428 0
M  V30 4422 O 419.926 -1.78679 0.669222 0
M  V30 4423 C 417.066 -3.04108 1.63133 0
M  V30 4424 C 416.179 -3.20365 2.89811 0
M  V30 4425 C 415.314 -4.49109 2.8368 0
M  V30 4426 C 414.353 -4.58819 4.05156 0
M  V30 4427 N 413.49 -5.78926 3.97227 0
M  V30 4428 H 418.33 -1.54088 2.5507 0
M  V30 4429 H 415.867 -0.75052 1.26513 0
M  V30 4430 H 417.825 -3.84207 1.62606 0
M  V30 4431 H 416.455 -3.14637 0.721341 0
M  V30 4432 H 415.507 -2.33659 3.00179 0
M  V30 4433 H 416.819 -3.23402 3.79753 0
M  V30 4434 H 415.973 -5.37475 2.81434 0
M  V30 4435 H 414.712 -4.4856 1.91431 0
M  V30 4436 H 413.717 -3.68864 4.077 0
M  V30 4437 H 414.942 -4.61124 4.98539 0
M  V30 4438 H 412.888 -5.79314 3.07785 0
M  V30 4439 H 412.805 -5.83367 4.80853 0
M  V30 4440 H 414.073 -6.69637 3.99007 0
M  V30 4441 N 418.302 -1.35869 -0.798587 0
M  V30 4442 C 419.548 -1.30788 -1.55775 0
M  V30 4443 C 419.903 0.114558 -1.92059 0
M  V30 4444 O 419.196 1.06691 -1.59147 0
M  V30 4445 C 419.39 -2.1556 -2.85077 0
M  V30 4446 C 419.219 -3.65904 -2.61428 0
M  V30 4447 C 417.989 -4.35112 -2.56915 0
M  V30 4448 C 420.187 -4.59375 -2.31255 0
M  V30 4449 N 418.169 -5.71155 -2.25068 0
M  V30 4450 C 419.54 -5.83598 -2.09316 0
M  V30 4451 C 421.595 -4.48035 -2.17185 0
M  V30 4452 C 420.298 -6.97755 -1.74731 0
M  V30 4453 C 422.324 -5.62049 -1.83998 0
M  V30 4454 C 421.686 -6.85305 -1.629 0
M  V30 4455 H 417.785 -0.533855 -0.571422 0
M  V30 4456 H 420.369 -1.7083 -0.934079 0
M  V30 4457 H 418.54 -1.77776 -3.45326 0
M  V30 4458 H 420.272 -2.01938 -3.50718 0
M  V30 4459 H 417.027 -3.87812 -2.71843 0
M  V30 4460 H 417.451 -6.42978 -2.11916 0
M  V30 4461 H 422.093 -3.53338 -2.3219 0
M  V30 4462 H 419.811 -7.92411 -1.58464 0
M  V30 4463 H 423.397 -5.55232 -1.73808 0
M  V30 4464 H 422.277 -7.72034 -1.37596 0
M  V30 4465 N 419.78 1.02168 -1.19998 0
M  V30 4466 C 421.029 1.75091 -1.0013 0
M  V30 4467 C 421.342 1.89923 0.467835 0
M  V30 4468 O 422.548 2.59888 0.785515 0
M  V30 4469 C 421.004 3.14892 -1.74273 0
M  V30 4470 C 420.612 3.0809 -3.25245 0
M  V30 4471 C 422.356 3.9206 -1.62755 0
M  V30 4472 C 420.263 4.42867 -3.91948 0
M  V30 4473 H 419.193 0.656394 -0.37103 0
M  V30 4474 H 421.844 1.14284 -1.43567 0
M  V30 4475 H 420.226 3.7621 -1.2362 0
M  V30 4476 H 421.4 2.5611 -3.83072 0
M  V30 4477 H 419.715 2.44416 -3.3712 0
M  V30 4478 H 422.312 4.91764 -2.09934 0
M  V30 4479 H 422.655 4.12199 -0.582894 0
M  V30 4480 H 423.188 3.37359 -2.10793 0
M  V30 4481 H 419.927 4.27931 -4.96543 0
M  V30 4482 H 419.447 4.94874 -3.3891 0
M  V30 4483 H 421.126 5.11728 -3.95909 0
M  V30 4484 N 421.258 1.00505 1.21394 0
M  V30 4485 C 422.506 0.686415 1.90086 0
M  V30 4486 C 422.827 -0.785264 1.7849 0
M  V30 4487 O 422.097 -1.56387 1.17983 0
M  V30 4488 H 420.677 0.2509 0.703604 0
M  V30 4489 H 423.339 1.27417 1.47482 0
M  V30 4490 H 422.435 0.959621 2.96981 0
M  V30 4491 N 422.737 -1.36956 0.779787 0
M  V30 4492 C 423.684 -2.30175 0.169697 0
M  V30 4493 C 424.654 -1.51501 -0.68094 0
M  V30 4494 O 425.839 -1.80042 -0.631629 0
M  V30 4495 C 422.979 -3.37985 -0.697131 0
M  V30 4496 C 422.092 -4.31661 0.170992 0
M  V30 4497 C 421.227 -5.2655 -0.701298 0
M  V30 4498 C 420.266 -6.11867 0.168869 0
M  V30 4499 N 419.403 -6.98973 -0.661855 0
M  V30 4500 H 424.243 -2.81767 0.970135 0
M  V30 4501 H 421.78 -1.38699 0.489994 0
M  V30 4502 H 423.738 -3.99128 -1.2146 0
M  V30 4503 H 422.368 -2.87739 -1.46309 0
M  V30 4504 H 421.42 -3.71756 0.80634 0
M  V30 4505 H 422.732 -4.91644 0.841875 0
M  V30 4506 H 421.886 -5.92937 -1.28494 0
M  V30 4507 H 420.625 -4.66998 -1.40584 0
M  V30 4508 H 419.63 -5.44452 0.764986 0
M  V30 4509 H 420.855 -6.73493 0.870863 0
M  V30 4510 H 418.801 -6.41941 -1.35086 0
M  V30 4511 H 418.718 -7.55984 -0.0484447 0
M  V30 4512 H 419.986 -7.6974 -1.22963 0
M  V30 4513 N 424.215 -0.530993 -1.48385 0
M  V30 4514 C 425.148 0.278511 -2.26494 0
M  V30 4515 C 426.126 0.943905 -1.32398 0
M  V30 4516 O 427.31 0.968098 -1.61741 0
M  V30 4517 C 424.437 1.39453 -3.08659 0
M  V30 4518 C 423.483 0.840434 -4.18137 0
M  V30 4519 S 424.316 -0.292496 -5.34701 0
M  V30 4520 C 425.472 0.825973 -6.20426 0
M  V30 4521 H 425.705 -0.384365 -2.94805 0
M  V30 4522 H 423.238 -0.316799 -1.51115 0
M  V30 4523 H 425.196 2.03382 -3.56575 0
M  V30 4524 H 423.857 2.02913 -2.3976 0
M  V30 4525 H 423.05 1.67769 -4.75257 0
M  V30 4526 H 422.652 0.277819 -3.72967 0
M  V30 4527 H 424.944 1.72438 -6.55188 0
M  V30 4528 H 425.887 0.292728 -7.07495 0
M  V30 4529 H 426.295 1.10683 -5.53543 0
M  V30 4530 N 425.693 1.55336 -0.266172 0
M  V30 4531 C 426.656 2.20878 0.612001 0
M  V30 4532 C 427.656 1.18388 1.08816 0
M  V30 4533 O 428.846 1.4335 0.989774 0
M  V30 4534 C 425.978 2.86765 1.84332 0
M  V30 4535 H 427.171 2.99873 0.0398718 0
M  V30 4536 H 424.724 1.56291 -0.0167309 0
M  V30 4537 H 425.459 2.11759 2.45619 0
M  V30 4538 H 425.244 3.61862 1.5099 0
M  V30 4539 H 426.734 3.36867 2.46801 0
M  V30 4540 N 427.171 -0.0066808 1.57599 0
M  V30 4541 C 428.134 -0.985035 2.06953 0
M  V30 4542 C 429.134 -1.27663 0.977687 0
M  V30 4543 O 430.324 -1.22293 1.24057 0
M  V30 4544 C 427.456 -2.3118 2.50536 0
M  V30 4545 H 428.649 -0.558255 2.94658 0
M  V30 4546 H 426.202 -0.254011 1.54222 0
M  V30 4547 H 426.937 -2.78561 1.66054 0
M  V30 4548 H 426.722 -2.11338 3.3027 0
M  V30 4549 H 428.212 -3.01377 2.8907 0
M  V30 4550 N 428.649 -1.55105 -0.279332 0
M  V30 4551 C 429.895 -1.75672 -1.01327 0
M  V30 4552 C 430.228 -0.552739 -1.86168 0
M  V30 4553 O 429.503 0.449827 -1.89227 0
M  V30 4554 C 429.786 -3.05825 -1.90114 0
M  V30 4555 C 429.639 -4.36565 -1.08309 0
M  V30 4556 C 430.958 -3.31975 -2.8893 0
M  V30 4557 H 428.077 -0.639149 -0.366957 0
M  V30 4558 H 430.719 -1.87833 -0.286154 0
M  V30 4559 H 428.869 -2.95588 -2.52111 0
M  V30 4560 H 430.541 -4.58751 -0.484314 0
M  V30 4561 H 428.784 -4.32076 -0.386362 0
M  V30 4562 H 429.455 -5.23946 -1.73737 0
M  V30 4563 H 431.931 -3.41963 -2.37067 0
M  V30 4564 H 430.807 -4.2432 -3.48201 0
M  V30 4565 H 431.068 -2.51309 -3.63725 0
M  V30 4566 N 430.127 0.543554 -1.4793 0
M  V30 4567 C 431.057 1.65888 -1.64327 0
M  V30 4568 C 432.038 1.62818 -0.492383 0
M  V30 4569 O 433.223 1.80226 -0.723338 0
M  V30 4570 C 430.353 3.04506 -1.67013 0
M  V30 4571 C 429.307 3.2243 -2.81466 0
M  V30 4572 C 428.633 4.61972 -2.69233 0
M  V30 4573 C 429.933 3.06496 -4.22915 0
M  V30 4574 H 431.627 1.52421 -2.57698 0
M  V30 4575 H 429.173 0.731849 -1.24016 0
M  V30 4576 H 431.126 3.82391 -1.77074 0
M  V30 4577 H 429.85 3.18964 -0.70212 0
M  V30 4578 H 428.509 2.46957 -2.70938 0
M  V30 4579 H 428.157 4.73247 -1.7043 0
M  V30 4580 H 427.857 4.74911 -3.46025 0
M  V30 4581 H 429.381 5.41974 -2.81242 0
M  V30 4582 H 430.795 3.74186 -4.34348 0
M  V30 4583 H 429.192 3.30938 -5.006 0
M  V30 4584 H 430.262 2.03077 -4.40327 0
M  V30 4585 N 431.605 1.3629 0.791371 0
M  V30 4586 C 432.552 1.30458 1.90393 0
M  V30 4587 C 433.522 0.173632 1.6519 0
M  V30 4588 O 434.707 0.35983 1.87376 0
M  V30 4589 C 431.847 1.09777 3.27174 0
M  V30 4590 C 430.96 2.31929 3.64462 0
M  V30 4591 C 430.095 2.04276 4.90352 0
M  V30 4592 C 429.134 3.224 5.20312 0
M  V30 4593 N 428.271 2.94424 6.37385 0
M  V30 4594 H 433.111 2.25589 1.94714 0
M  V30 4595 H 430.648 1.12122 0.952216 0
M  V30 4596 H 432.606 0.958133 4.06049 0
M  V30 4597 H 431.236 0.183014 3.22281 0
M  V30 4598 H 430.288 2.56703 2.80727 0
M  V30 4599 H 431.6 3.20085 3.82553 0
M  V30 4600 H 430.754 1.87231 5.77087 0
M  V30 4601 H 429.493 1.13428 4.74326 0
M  V30 4602 H 428.498 3.40005 4.32061 0
M  V30 4603 H 429.723 4.14071 5.38258 0
M  V30 4604 H 427.669 2.06185 6.22755 0
M  V30 4605 H 427.586 3.76118 6.55798 0
M  V30 4606 H 428.854 2.80953 7.27108 0
M  V30 4607 N 433.083 -1.0153 1.20538 0
M  V30 4608 C 434.331 -1.74803 1.01432 0
M  V30 4609 C 434.652 -1.8963 -0.454456 0
M  V30 4610 O 433.922 -1.43975 -1.32846 0
M  V30 4611 H 432.502 -0.647598 0.372324 0
M  V30 4612 H 435.164 -1.22402 1.5167 0
M  V30 4613 H 434.26 -2.75114 1.47373 0
M  V30 4614 N 434.561 -1.01147 -1.20859 0
M  V30 4615 C 435.471 -0.58686 -2.27141 0
M  V30 4616 C 436.487 0.373198 -1.69951 0
M  V30 4617 O 437.663 0.235423 -2.00019 0
M  V30 4618 C 434.728 0.0733602 -3.46622 0
M  V30 4619 C 433.789 -0.931995 -4.19061 0
M  V30 4620 C 433.022 -0.303186 -5.32838 0
M  V30 4621 O 433.245 0.898395 -5.63281 0
M  V30 4622 O 432.179 -1.01735 -5.9324 0
M  V30 4623 H 436.005 -1.47155 -2.65667 0
M  V30 4624 H 433.59 -0.780689 -1.2738 0
M  V30 4625 H 435.472 0.442333 -4.19072 0
M  V30 4626 H 434.147 0.932329 -3.09983 0
M  V30 4627 H 433.054 -1.35224 -3.48805 0
M  V30 4628 H 434.387 -1.76076 -4.59628 0
M  V30 4629 N 436.039 1.36541 -0.78704 0
M  V30 4630 C 437.285 1.99599 -0.358872 0
M  V30 4631 C 437.618 1.62323 1.06606 0
M  V30 4632 O 436.893 0.876858 1.73613 0
M  V30 4633 C 437.176 3.56327 -0.519944 0
M  V30 4634 C 437.029 4.03464 -1.98839 0
M  V30 4635 C 438.348 4.4005 0.0664737 0
M  V30 4636 H 435.467 0.725107 -0.131869 0
M  V30 4637 H 438.109 1.6199 -0.992936 0
M  V30 4638 H 436.259 3.88495 0.0198321 0
M  V30 4639 H 437.931 3.81793 -2.58905 0
M  V30 4640 H 436.174 3.55092 -2.49183 0
M  V30 4641 H 436.845 5.12439 -2.05207 0
M  V30 4642 H 439.321 4.14228 -0.394267 0
M  V30 4643 H 438.197 5.48847 -0.0762682 0
M  V30 4644 H 438.458 4.26655 1.15835 0
M  V30 4645 N 437.518 0.538854 1.48102 0
M  V30 4646 C 438.795 -0.0568108 1.95517 0
M  V30 4647 C 439.175 -1.50408 1.48124 0
M  V30 4648 O 438.523 -2.17133 0.711727 0
M  V30 4649 C 438.733 0.0696262 3.48931 0
M  V30 4650 C 440.081 -0.0851202 4.24515 0
M  V30 4651 O 441.105 -0.0037347 3.562 0
M  V30 4652 O 439.964 -0.257025 5.45895 0
M  V30 4653 H 437.058 -0.0743695 0.823649 0
M  V30 4654 H 439.604 0.604081 1.58584 0
M  V30 4655 H 438.376 1.07744 3.76174 0
M  V30 4656 H 437.999 -0.629714 3.92582 0
M  V30 4657 N 438.996 -1.55193 0.274407 0
M  V30 4658 C 440.243 -1.99581 -0.342579 0
M  V30 4659 C 440.571 -1.1628 -1.55914 0
M  V30 4660 O 439.826 -0.22029 -1.94456 0
M  V30 4661 C 440.125 -3.49019 -0.769458 0
M  V30 4662 C 439.791 -4.49598 0.342389 0
M  V30 4663 C 438.453 -4.76821 0.647686 0
M  V30 4664 C 440.805 -5.0964 1.09163 0
M  V30 4665 C 438.133 -5.61354 1.70581 0
M  V30 4666 C 440.485 -5.95323 2.13948 0
M  V30 4667 C 439.149 -6.20867 2.45113 0
M  V30 4668 H 438.419 -0.730319 -0.125358 0
M  V30 4669 H 441.066 -1.87529 0.387971 0
M  V30 4670 H 439.371 -3.58544 -1.57967 0
M  V30 4671 H 441.068 -3.8077 -1.25757 0
M  V30 4672 H 437.658 -4.28496 0.094318 0
M  V30 4673 H 441.842 -4.88632 0.869024 0
M  V30 4674 H 437.098 -5.79392 1.9523 0
M  V30 4675 H 441.272 -6.40881 2.72478 0
M  V30 4676 H 438.899 -6.86162 3.27239 0
M  V30 4677 N 440.474 -0.00167713 -1.576 0
M  V30 4678 C 441.723 0.682021 -1.89819 0
M  V30 4679 C 442.036 1.74844 -0.876871 0
M  V30 4680 O 443.242 2.48688 -1.08934 0
M  V30 4681 C 441.698 1.26425 -3.36964 0
M  V30 4682 C 441.306 0.232568 -4.47396 0
M  V30 4683 C 443.05 1.92604 -3.78291 0
M  V30 4684 C 440.957 0.824882 -5.85619 0
M  V30 4685 H 439.887 0.258499 -0.708304 0
M  V30 4686 H 442.538 -0.0624957 -1.83394 0
M  V30 4687 H 440.92 2.05949 -3.38232 0
M  V30 4688 H 442.094 -0.5382 -4.57646 0
M  V30 4689 H 440.409 -0.32888 -4.15099 0
M  V30 4690 H 443.006 2.37827 -4.78897 0
M  V30 4691 H 443.349 2.75732 -3.11894 0
M  V30 4692 H 443.882 1.19812 -3.79328 0
M  V30 4693 H 440.621 0.0323542 -6.55492 0
M  V30 4694 H 440.141 1.56477 -5.79029 0
M  V30 4695 H 441.82 1.32301 -6.33329 0
M  V30 4696 N 441.952 1.55251 0.271103 0
M  V30 4697 C 443.198 1.76207 1.00394 0
M  V30 4698 C 443.531 0.562604 1.85872 0
M  V30 4699 O 442.806 -0.439785 1.89463 0
M  V30 4700 C 443.089 3.06828 1.8849 0
M  V30 4701 C 442.942 4.37134 1.05992 0
M  V30 4702 C 444.261 3.33503 2.87165 0
M  V30 4703 H 441.38 0.641086 0.363562 0
M  V30 4704 H 444.022 1.87982 0.276189 0
M  V30 4705 H 442.172 2.96921 2.5054 0
M  V30 4706 H 443.844 4.59001 0.459978 0
M  V30 4707 H 442.087 4.32275 0.363443 0
M  V30 4708 H 442.758 5.2486 1.70955 0
M  V30 4709 H 445.234 3.43215 2.3525 0
M  V30 4710 H 444.11 4.2616 3.45946 0
M  V30 4711 H 444.371 2.53235 3.62387 0
M  V30 4712 N 443.43 -0.535701 1.48216 0
M  V30 4713 C 444.36 -1.65014 1.65204 0
M  V30 4714 C 445.341 -1.62554 0.501011 0
M  V30 4715 O 446.526 -1.7984 0.732886 0
M  V30 4716 C 443.656 -3.03616 1.68626 0
M  V30 4717 C 442.61 -3.20932 2.83172 0
M  V30 4718 C 441.936 -4.60537 2.71679 0
M  V30 4719 C 443.236 -3.04249 4.24535 0
M  V30 4720 H 444.93 -1.51053 2.58502 0
M  V30 4721 H 442.476 -0.725262 1.24402 0
M  V30 4722 H 444.429 -3.81446 1.79099 0
M  V30 4723 H 443.153 -3.18587 0.719026 0
M  V30 4724 H 441.812 -2.45517 2.72244 0
M  V30 4725 H 441.46 -4.72336 1.72937 0
M  V30 4726 H 441.16 -4.73069 3.48538 0
M  V30 4727 H 442.684 -5.40475 2.84112 0
M  V30 4728 H 444.098 -3.71877 4.36326 0
M  V30 4729 H 442.495 -3.28278 5.02348 0
M  V30 4730 H 443.565 -2.00739 4.41397 0
M  V30 4731 N 444.908 -1.36708 -0.784132 0
M  V30 4732 C 446.136 -1.34398 -1.57305 0
M  V30 4733 C 446.551 0.0735577 -1.88657 0
M  V30 4734 O 445.908 1.03193 -1.50524 0
M  V30 4735 C 445.959 -2.17053 -2.89085 0
M  V30 4736 O 445.68 -3.53281 -2.59083 0
M  V30 4737 C 447.181 -2.22583 -3.83369 0
M  V30 4738 H 444.401 -0.460819 -0.487736 0
M  V30 4739 H 446.945 -1.79879 -0.972819 0
M  V30 4740 H 445.1 -1.75113 -3.45564 0
M  V30 4741 H 445.514 -3.9647 -3.43383 0
M  V30 4742 H 446.988 -2.84763 -4.72878 0
M  V30 4743 H 447.465 -1.23075 -4.21603 0
M  V30 4744 H 448.071 -2.64781 -3.32823 0
M  V30 4745 N 446.386 1.0089 -1.21074 0
M  V30 4746 C 447.634 1.74262 -1.02358 0
M  V30 4747 C 447.955 1.89869 0.444393 0
M  V30 4748 O 447.225 1.44677 1.32081 0
M  V30 4749 H 445.805 0.645615 -0.375754 0
M  V30 4750 H 448.467 1.21596 -1.52317 0
M  V30 4751 H 447.563 2.74328 -1.4883 0
M  V30 4752 N 447.864 1.01787 1.20321 0
M  V30 4753 C 449.112 0.706538 1.89347 0
M  V30 4754 C 449.433 -0.766289 1.79313 0
M  V30 4755 O 448.703 -1.55126 1.19635 0
M  V30 4756 H 447.283 0.258348 0.700903 0
M  V30 4757 H 449.945 1.28974 1.46122 0
M  V30 4758 H 449.041 0.991066 2.95946 0
M  V30 4759 N 449.342 -1.36122 0.79427 0
M  V30 4760 C 450.272 -2.32551 0.210328 0
M  V30 4761 C 451.253 -1.56884 -0.657386 0
M  V30 4762 O 452.438 -1.85014 -0.590207 0
M  V30 4763 C 449.568 -3.41128 -0.651819 0
M  V30 4764 C 448.522 -4.27842 0.116395 0
M  V30 4765 C 447.848 -5.2763 -0.86666 0
M  V30 4766 C 449.148 -5.05647 1.30837 0
M  V30 4767 H 450.842 -2.81636 1.01594 0
M  V30 4768 H 448.388 -1.35407 0.489981 0
M  V30 4769 H 450.341 -4.07581 -1.07031 0
M  V30 4770 H 449.065 -2.90622 -1.49019 0
M  V30 4771 H 447.724 -3.62952 0.515915 0
M  V30 4772 H 447.372 -4.73395 -1.70019 0
M  V30 4773 H 447.072 -5.86514 -0.35705 0
M  V30 4774 H 448.596 -5.96955 -1.28361 0
M  V30 4775 H 450.01 -5.65113 0.965393 0
M  V30 4776 H 448.407 -5.73967 1.75161 0
M  V30 4777 H 449.477 -4.37006 2.10128 0
M  V30 4778 N 450.82 -0.546701 -1.47814 0
M  V30 4779 C 451.783 0.196287 -2.28358 0
M  V30 4780 C 452.783 0.852437 -1.36346 0
M  V30 4781 O 453.973 0.709913 -1.59078 0
M  V30 4782 C 451.105 1.28579 -3.15722 0
M  V30 4783 H 452.298 -0.511086 -2.95513 0
M  V30 4784 H 449.851 -0.303248 -1.5333 0
M  V30 4785 H 450.586 2.0259 -2.53235 0
M  V30 4786 H 450.371 0.820229 -3.83425 0
M  V30 4787 H 451.861 1.80793 -3.76435 0
M  V30 4788 N 452.299 1.55045 -0.282633 0
M  V30 4789 C 453.249 2.19514 0.616249 0
M  V30 4790 C 454.233 1.16216 1.11277 0
M  V30 4791 O 455.425 1.42004 1.05659 0
M  V30 4792 C 452.554 2.92548 1.7964 0
M  V30 4793 C 451.64 4.03142 1.31671 0
M  V30 4794 N 452.031 5.0276 0.553695 0
M  V30 4795 C 450.329 4.1635 1.59903 0
M  V30 4796 C 451.03 5.80923 0.30054 0
M  V30 4797 N 450.006 5.3651 0.875116 0
M  V30 4798 H 453.808 2.93889 0.0255363 0
M  V30 4799 H 451.322 1.62169 -0.0865362 0
M  V30 4800 H 453.319 3.37188 2.45173 0
M  V30 4801 H 451.979 2.19685 2.39099 0
M  V30 4802 H 452.99 5.17512 0.20032 0
M  V30 4803 H 449.667 3.54682 2.20243 0
M  V30 4804 H 451.057 6.7118 -0.311053 0
M  V30 4805 N 453.777 0.010035 1.57597 0
M  V30 4806 C 454.687 -0.994226 2.12491 0
M  V30 4807 C 455.703 -1.37013 1.07254 0
M  V30 4808 O 456.879 -1.45542 1.3921 0
M  V30 4809 C 453.944 -2.2642 2.62555 0
M  V30 4810 C 453.005 -1.95049 3.82432 0
M  V30 4811 C 452.238 -3.15991 4.30099 0
M  V30 4812 O 452.461 -4.28015 3.7704 0
M  V30 4813 O 451.395 -2.99403 5.22151 0
M  V30 4814 H 455.221 -0.557549 2.98538 0
M  V30 4815 H 452.806 -0.209413 1.47925 0
M  V30 4816 H 454.688 -3.01009 2.9491 0
M  V30 4817 H 453.363 -2.69306 1.796 0
M  V30 4818 H 452.27 -1.17904 3.55034 0
M  V30 4819 H 453.603 -1.56992 4.66491 0
M  V30 4820 N 455.255 -1.55392 -0.262866 0
M  V30 4821 C 456.202 -1.88966 -1.32516 0
M  V30 4822 C 457.172 -0.742187 -1.48596 0
M  V30 4823 O 458.357 -0.99439 -1.62839 0
M  V30 4824 C 455.497 -2.17592 -2.67858 0
M  V30 4825 C 454.61 -3.45061 -2.59917 0
M  V30 4826 C 453.745 -3.63336 -3.87505 0
M  V30 4827 C 452.784 -4.84462 -3.74116 0
M  V30 4828 N 451.921 -4.99342 -4.93561 0
M  V30 4829 H 456.761 -2.79566 -1.03184 0
M  V30 4830 H 454.298 -1.38404 -0.498285 0
M  V30 4831 H 456.256 -2.3219 -3.46617 0
M  V30 4832 H 454.886 -1.30215 -2.95371 0
M  V30 4833 H 453.938 -3.38881 -1.72812 0
M  V30 4834 H 455.25 -4.3396 -2.45926 0
M  V30 4835 H 454.404 -3.77807 -4.74707 0
M  V30 4836 H 453.143 -2.72641 -4.04374 0
M  V30 4837 H 452.148 -4.69985 -2.85297 0
M  V30 4838 H 453.373 -5.76603 -3.58757 0
M  V30 4839 H 451.319 -4.1158 -5.10821 0
M  V30 4840 H 451.236 -5.82303 -4.82141 0
M  V30 4841 H 452.504 -5.18208 -5.82306 0
M  V30 4842 N 456.733 0.527833 -1.48498 0
M  V30 4843 C 457.643 1.65907 -1.65867 0
M  V30 4844 C 458.659 1.6537 -0.541192 0
M  V30 4845 O 459.835 1.84282 -0.812534 0
M  V30 4846 C 456.9 3.02364 -1.69637 0
M  V30 4847 C 455.961 3.1374 -2.93028 0
M  V30 4848 C 455.194 4.43688 -2.96609 0
M  V30 4849 O 455.417 5.30913 -2.08538 0
M  V30 4850 O 454.351 4.59475 -3.88802 0
M  V30 4851 H 458.177 1.5419 -2.61647 0
M  V30 4852 H 455.762 0.701163 -1.31924 0
M  V30 4853 H 457.644 3.83515 -1.74625 0
M  V30 4854 H 456.319 3.14401 -0.770312 0
M  V30 4855 H 455.226 2.31877 -2.93571 0
M  V30 4856 H 456.559 3.06621 -3.85026 0
M  V30 4857 N 458.211 1.37122 0.776871 0
M  V30 4858 C 459.458 1.32047 1.53524 0
M  V30 4859 C 459.786 -0.0965631 1.9426 0
M  V30 4860 O 459.041 -1.06866 1.63945 0
M  V30 4861 C 459.34 2.20068 2.81611 0
M  V30 4862 C 459.006 3.68423 2.59953 0
M  V30 4863 C 457.668 4.08854 2.53755 0
M  V30 4864 C 460.02 4.62431 2.40431 0
M  V30 4865 C 457.348 5.41417 2.26018 0
M  V30 4866 C 459.7 5.95225 2.14219 0
M  V30 4867 C 458.364 6.34767 2.06462 0
M  V30 4868 H 457.634 0.483196 0.561785 0
M  V30 4869 H 460.281 1.69284 0.895268 0
M  V30 4870 H 458.586 1.75809 3.50141 0
M  V30 4871 H 460.283 2.13458 3.39465 0
M  V30 4872 H 456.873 3.36354 2.65638 0
M  V30 4873 H 461.057 4.32057 2.44213 0
M  V30 4874 H 456.313 5.71022 2.18504 0
M  V30 4875 H 460.487 6.67626 1.98112 0
M  V30 4876 H 458.114 7.37413 1.84733 0
M  V30 4877 N 459.689 -1.00246 1.21608 0
M  V30 4878 C 460.619 -2.10921 1.00172 0
M  V30 4879 C 461.6 -1.69938 -0.0741587 0
M  V30 4880 O 462.785 -1.94009 0.0861753 0
M  V30 4881 C 459.915 -3.42618 0.568355 0
M  V30 4882 C 458.869 -3.97407 1.58909 0
M  V30 4883 C 458.195 -5.25038 1.01187 0
M  V30 4884 C 459.495 -4.2918 2.97661 0
M  V30 4885 H 461.189 -2.29112 1.92739 0
M  V30 4886 H 458.735 -1.10101 0.928102 0
M  V30 4887 H 460.688 -4.19444 0.405555 0
M  V30 4888 H 459.412 -3.24227 -0.392961 0
M  V30 4889 H 458.071 -3.22703 1.73949 0
M  V30 4890 H 457.719 -5.02982 0.0421965 0
M  V30 4891 H 457.419 -5.62661 1.6937 0
M  V30 4892 H 458.943 -6.04507 0.860448 0
M  V30 4893 H 460.357 -4.96839 2.86049 0
M  V30 4894 H 458.754 -4.77952 3.6288 0
M  V30 4895 H 459.824 -3.3735 3.48315 0
M  V30 4896 N 461.167 -1.02423 -1.1978 0
M  V30 4897 C 462.413 -0.719051 -1.89625 0
M  V30 4898 C 462.746 0.750083 -1.7913 0
M  V30 4899 O 462.021 1.54574 -1.18056 0
M  V30 4900 C 462.304 -1.16499 -3.40735 0
M  V30 4901 C 462.157 -2.695 -3.60125 0
M  V30 4902 C 463.476 -0.742166 -4.33797 0
M  V30 4903 H 460.595 -0.26269 -0.688595 0
M  V30 4904 H 463.237 -1.27333 -1.41018 0
M  V30 4905 H 461.387 -0.69341 -3.82262 0
M  V30 4906 H 463.059 -3.24569 -3.278 0
M  V30 4907 H 461.302 -3.10113 -3.03336 0
M  V30 4908 H 461.973 -2.95757 -4.66081 0
M  V30 4909 H 464.449 -1.1477 -3.99959 0
M  V30 4910 H 463.325 -1.08213 -5.38127 0
M  V30 4911 H 463.586 0.355747 -4.40666 0
M  V30 4912 N 462.645 1.35699 -0.801477 0
M  V30 4913 C 464.056 1.81415 -0.441073 0
M  V30 4914 C 464.407 1.66595 1.03636 0
M  V30 4915 O 463.532 1.19369 1.80499 0
M  V30 4916 C 464.127 3.29369 -0.793819 0
M  V30 4917 C 462.686 3.73248 -0.486083 0
M  V30 4918 C 461.833 2.57775 -1.02213 0
M  V30 4919 H 464.784 1.23749 -0.993572 0
M  V30 4920 H 464.805 3.80395 -0.0894158 0
M  V30 4921 H 464.317 3.40123 -1.86917 0
M  V30 4922 H 462.418 3.68046 0.580735 0
M  V30 4923 H 462.531 4.68222 -1.01513 0
M  V30 4924 H 460.895 2.50788 -0.444712 0
M  V30 4925 H 461.678 2.71309 -2.10348 0
M  V30 4926 N 464.123 0.554532 1.47522 0
M  V30 4927 C 465.369 0.0377449 2.03365 0
M  V30 4928 C 465.724 -1.29654 1.42154 0
M  V30 4929 O 465.017 -1.83022 0.566865 0
M  V30 4930 C 465.211 -0.115927 3.57212 0
M  V30 4931 C 465.04 1.20191 4.33341 0
M  V30 4932 C 463.81 1.76849 4.73342 0
M  V30 4933 C 466.008 2.11849 4.68641 0
M  V30 4934 N 463.99 3.02665 5.34104 0
M  V30 4935 C 465.361 3.22245 5.29677 0
M  V30 4936 C 467.416 2.11876 4.5057 0
M  V30 4937 C 466.119 4.32763 5.74551 0
M  V30 4938 C 468.145 3.21405 4.9644 0
M  V30 4939 C 467.507 4.30519 5.57523 0
M  V30 4940 H 463.606 0.0559107 0.779999 0
M  V30 4941 H 466.19 0.741232 1.80038 0
M  V30 4942 H 464.361 -0.788533 3.80311 0
M  V30 4943 H 466.093 -0.634538 3.99695 0
M  V30 4944 H 462.848 1.30681 4.55214 0
M  V30 4945 H 463.272 3.66788 5.69031 0
M  V30 4946 H 467.914 1.28801 4.02704 0
M  V30 4947 H 465.632 5.166 6.2141 0
M  V30 4948 H 469.218 3.22509 4.8423 0
M  V30 4949 H 468.098 5.13873 5.92371 0
M  V30 4950 N 465.601 -1.54893 0.290851 0
M  V30 4951 C 466.85 -1.99111 -0.322113 0
M  V30 4952 C 467.163 -1.18283 -1.55784 0
M  V30 4953 O 468.369 -1.5272 -2.24475 0
M  V30 4954 C 466.825 -3.54442 -0.624438 0
M  V30 4955 C 466.433 -4.44066 0.592373 0
M  V30 4956 C 468.177 -4.07211 -1.19916 0
M  V30 4957 C 466.084 -5.90812 0.263762 0
M  V30 4958 H 465.014 -0.743712 -0.124133 0
M  V30 4959 H 467.665 -1.79132 0.39797 0
M  V30 4960 H 466.047 -3.70281 -1.40384 0
M  V30 4961 H 467.221 -4.39999 1.36886 0
M  V30 4962 H 465.536 -4.02015 1.08502 0
M  V30 4963 H 468.133 -5.14407 -1.45909 0
M  V30 4964 H 468.476 -3.57196 -2.13815 0
M  V30 4965 H 469.009 -3.94873 -0.481687 0
M  V30 4966 H 465.748 -6.44955 1.17105 0
M  V30 4967 H 465.268 -5.97911 -0.475655 0
M  V30 4968 H 466.947 -6.46852 -0.138354 0
M  V30 4969 N 467.08 -0.0183926 -1.57589 0
M  V30 4970 C 468.308 0.673046 -1.95647 0
M  V30 4971 C 468.723 1.66275 -0.894312 0
M  V30 4972 O 468.08 1.82072 0.124975 0
M  V30 4973 C 468.131 1.38884 -3.33756 0
M  V30 4974 O 467.852 0.438806 -4.35897 0
M  V30 4975 C 469.353 2.1731 -3.86383 0
M  V30 4976 H 466.573 0.186292 -0.644621 0
M  V30 4977 H 469.117 -0.0749748 -2.04363 0
M  V30 4978 H 467.272 2.08835 -3.26293 0
M  V30 4979 H 467.686 0.945869 -5.15901 0
M  V30 4980 H 469.16 2.62863 -4.85394 0
M  V30 4981 H 469.637 3.00764 -3.20059 0
M  V30 4982 H 470.243 1.52339 -3.97081 0
M  V30 4983 N 468.558 1.5553 0.254621 0
M  V30 4984 C 469.505 1.89666 1.31512 0
M  V30 4985 C 470.475 0.750057 1.482 0
M  V30 4986 O 471.66 1.00301 1.62309 0
M  V30 4987 C 468.8 2.19009 2.667 0
M  V30 4988 C 467.913 3.46435 2.58083 0
M  V30 4989 C 467.048 3.65386 3.85573 0
M  V30 4990 C 466.087 4.8644 3.71541 0
M  V30 4991 N 465.224 5.01952 4.90906 0
M  V30 4992 H 470.064 2.80109 1.017 0
M  V30 4993 H 467.601 1.38666 0.490938 0
M  V30 4994 H 469.559 2.34025 3.45381 0
M  V30 4995 H 468.189 1.31779 2.94676 0
M  V30 4996 H 467.241 3.39792 1.71013 0
M  V30 4997 H 468.553 4.35258 2.43622 0
M  V30 4998 H 467.707 3.80319 4.72697 0
M  V30 4999 H 466.446 2.74781 4.02922 0
M  V30 5000 H 465.451 4.71491 2.82801 0
M  V30 5001 H 466.676 5.78497 3.55694 0
M  V30 5002 H 464.622 4.14283 5.08631 0
M  V30 5003 H 464.539 5.84851 4.79046 0
M  V30 5004 H 465.807 5.21289 5.7955 0
M  V30 5005 N 470.036 -0.519951 1.48776 0
M  V30 5006 C 471.452 -0.849418 1.35119 0
M  V30 5007 C 471.652 -1.98077 0.36982 0
M  V30 5008 O 470.708 -2.51664 -0.205359 0
M  V30 5009 C 472.021 -1.20748 2.75391 0
M  V30 5010 C 473.569 -1.31679 2.83954 0
M  V30 5011 C 474.044 -1.70824 4.24951 0
M  V30 5012 N 475.535 -1.77908 4.27672 0
M  V30 5013 C 476.27 -2.09603 5.33717 0
M  V30 5014 N 475.766 -2.39652 6.5003 0
M  V30 5015 N 477.559 -2.10694 5.21119 0
M  V30 5016 H 469.71 0.226377 2.1119 0
M  V30 5017 H 471.973 0.0386519 0.947212 0
M  V30 5018 H 471.679 -0.449703 3.48813 0
M  V30 5019 H 471.553 -2.15534 3.09556 0
M  V30 5020 H 473.94 -2.06532 2.10781 0
M  V30 5021 H 474.021 -0.3499 2.53396 0
M  V30 5022 H 473.665 -0.965282 4.98643 0
M  V30 5023 H 473.595 -2.6858 4.52959 0
M  V30 5024 H 476.086 -1.56923 3.43779 0
M  V30 5025 H 476.399 -2.6297 7.26682 0
M  V30 5026 H 474.744 -2.37149 6.53288 0
M  V30 5027 H 477.935 -1.86682 4.29264 0
M  V30 5028 H 478.108 -2.35062 6.03863 0
M  V30 5029 N 471.514 -1.37532 -0.769588 0
M  V30 5030 C 472.76 -1.33057 -1.53048 0
M  V30 5031 C 473.093 0.0841865 -1.94017 0
M  V30 5032 O 472.368 1.04198 -1.64235 0
M  V30 5033 C 472.651 -2.27166 -2.79406 0
M  V30 5034 C 472.504 -3.77429 -2.44677 0
M  V30 5035 C 473.823 -2.19683 -3.81349 0
M  V30 5036 H 470.942 -0.484655 -0.555228 0
M  V30 5037 H 473.584 -1.68251 -0.882702 0
M  V30 5038 H 471.734 -1.97283 -3.34682 0
M  V30 5039 H 473.406 -4.17918 -1.953 0
M  V30 5040 H 471.649 -3.95892 -1.77346 0
M  V30 5041 H 472.32 -4.38716 -3.35011 0
M  V30 5042 H 474.796 -2.46029 -3.35573 0
M  V30 5043 H 473.672 -2.87668 -4.67481 0
M  V30 5044 H 473.933 -1.19045 -4.25771 0
M  V30 5045 N 472.992 0.995999 -1.22138 0
M  V30 5046 C 474.217 1.77601 -1.0711 0
M  V30 5047 C 474.642 1.84339 0.374264 0
M  V30 5048 O 474 1.29359 1.27028 0
M  V30 5049 C 474.048 3.18897 -1.68336 0
M  V30 5050 O 473.152 4.01663 -0.934928 0
M  V30 5051 H 472.493 0.547011 -0.376397 0
M  V30 5052 H 475.023 1.25137 -1.6187 0
M  V30 5053 H 475.033 3.69539 -1.72931 0
M  V30 5054 H 473.708 3.13308 -2.73516 0
M  V30 5055 H 472.285 3.60204 -0.964751 0
M  V30 5056 N 474.47 1.03057 1.19235 0
M  V30 5057 C 475.717 0.728019 1.88961 0
M  V30 5058 C 476.045 -0.743515 1.79728 0
M  V30 5059 O 475.3 -1.55729 1.1852 0
M  V30 5060 C 475.599 1.1268 3.39172 0
M  V30 5061 C 475.265 2.5969 3.68608 0
M  V30 5062 C 473.927 2.99854 3.76352 0
M  V30 5063 C 476.279 3.54793 3.81801 0
M  V30 5064 C 473.607 4.34031 3.94758 0
M  V30 5065 C 475.959 4.88675 4.0172 0
M  V30 5066 C 474.623 5.28526 4.07697 0
M  V30 5067 H 473.893 0.266401 0.691456 0
M  V30 5068 H 476.54 1.29373 1.41191 0
M  V30 5069 H 474.845 0.479722 3.88852 0
M  V30 5070 H 476.542 0.870203 3.91444 0
M  V30 5071 H 473.132 2.27575 3.63191 0
M  V30 5072 H 477.316 3.24914 3.7516 0
M  V30 5073 H 472.572 4.6444 3.97625 0
M  V30 5074 H 476.746 5.6228 4.1087 0
M  V30 5075 H 474.373 6.32506 4.21712 0
M  V30 5076 N 475.948 -1.35272 0.808662 0
M  V30 5077 C 477.197 -1.97963 0.386483 0
M  V30 5078 C 477.51 -1.64866 -1.05255 0
M  V30 5079 O 478.716 -2.20937 -1.57794 0
M  V30 5080 C 477.172 -3.54162 0.640096 0
M  V30 5081 C 476.78 -3.96166 2.0918 0
M  V30 5082 C 478.524 -4.23553 0.283376 0
M  V30 5083 C 476.431 -5.4522 2.29106 0
M  V30 5084 H 475.361 -0.740742 0.140774 0
M  V30 5085 H 478.012 -1.5431 0.993012 0
M  V30 5086 H 476.394 -3.95983 -0.0364117 0
M  V30 5087 H 477.568 -3.65491 2.80629 0
M  V30 5088 H 475.883 -3.3967 2.40859 0
M  V30 5089 H 478.48 -5.33124 0.410273 0
M  V30 5090 H 478.823 -4.09105 -0.770659 0
M  V30 5091 H 479.356 -3.8716 0.913884 0
M  V30 5092 H 476.095 -5.64638 3.32962 0
M  V30 5093 H 475.615 -5.77457 1.62184 0
M  V30 5094 H 477.294 -6.1171 2.1076 0
M  V30 5095 N 477.426 -0.562348 -1.47226 0
M  V30 5096 C 478.389 0.172056 -2.28553 0
M  V30 5097 C 479.389 0.837928 -1.37242 0
M  V30 5098 O 480.579 0.693001 -1.59822 0
M  V30 5099 C 477.711 1.25223 -3.17068 0
M  V30 5100 H 478.904 -0.542401 -2.94954 0
M  V30 5101 H 476.457 -0.319493 -1.53 0
M  V30 5102 H 477.192 1.99892 -2.55369 0
M  V30 5103 H 476.977 0.779515 -3.84273 0
M  V30 5104 H 478.467 1.76791 -3.78332 0
M  V30 5105 N 478.904 1.54736 -0.299062 0
M  V30 5106 C 480.315 1.8569 0.193971 0
M  V30 5107 C 480.666 1.22101 1.53577 0
M  V30 5108 O 479.791 0.51799 2.10109 0
M  V30 5109 C 480.386 3.36895 0.358733 0
M  V30 5110 C 478.945 3.67887 0.795986 0
M  V30 5111 C 478.092 2.77131 -0.096807 0
M  V30 5112 H 481.043 1.49934 -0.520134 0
M  V30 5113 H 481.064 3.61294 1.19361 0
M  V30 5114 H 480.576 3.83148 -0.617998 0
M  V30 5115 H 478.677 3.27151 1.78334 0
M  V30 5116 H 478.79 4.75114 0.616718 0
M  V30 5117 H 477.154 2.51153 0.423581 0
M  V30 5118 H 477.937 3.26204 -1.06986 0
M  V30 5119 N 480.382 0.0267497 1.57577 0
M  V30 5120 C 481.628 -0.653371 1.91987 0
M  V30 5121 C 481.961 -1.71915 0.903263 0
M  V30 5122 O 481.236 -1.94358 -0.0743387 0
M  V30 5123 C 481.519 -1.272 3.36886 0
M  V30 5124 C 481.372 -0.215938 4.49281 0
M  V30 5125 C 482.691 -2.19069 3.81703 0
M  V30 5126 H 479.81 -0.236047 0.698177 0
M  V30 5127 H 482.452 0.0835236 1.89816 0
M  V30 5128 H 480.602 -1.90005 3.38866 0
M  V30 5129 H 482.274 0.41449 4.59434 0
M  V30 5130 H 480.517 0.458855 4.31366 0
M  V30 5131 H 481.188 -0.688347 5.47691 0
M  V30 5132 H 483.664 -1.66253 3.81444 0
M  V30 5133 H 482.54 -2.59307 4.83788 0
M  V30 5134 H 482.801 -3.08087 3.17072 0
M  V30 5135 N 481.861 -1.55662 -0.24637 0
M  V30 5136 C 482.791 -1.93377 -1.30873 0
M  V30 5137 C 483.772 -0.798773 -1.50179 0
M  V30 5138 O 484.957 -1.0591 -1.62778 0
M  V30 5139 C 482.087 -2.22893 -2.66338 0
M  V30 5140 C 481.041 -3.38649 -2.61727 0
M  V30 5141 C 480.367 -3.53708 -4.00992 0
M  V30 5142 C 481.667 -4.74323 -2.18666 0
M  V30 5143 H 483.361 -2.82363 -0.995552 0
M  V30 5144 H 480.907 -1.35854 -0.477464 0
M  V30 5145 H 482.86 -2.47866 -3.40794 0
M  V30 5146 H 481.584 -1.30733 -2.99293 0
M  V30 5147 H 480.243 -3.13685 -1.89729 0
M  V30 5148 H 479.891 -2.58967 -4.31214 0
M  V30 5149 H 479.591 -4.31551 -3.98795 0
M  V30 5150 H 481.115 -3.81003 -4.77147 0
M  V30 5151 H 482.529 -4.98665 -2.82854 0
M  V30 5152 H 480.926 -5.55273 -2.27579 0
M  V30 5153 H 481.996 -4.71349 -1.13834 0
M  V30 5154 N 483.339 0.512053 -1.4905 0
M  V30 5155 C 484.585 1.26874 -1.58212 0
M  V30 5156 C 484.918 1.9241 -0.263073 0
M  V30 5157 O 484.193 1.80181 0.732476 0
M  V30 5158 C 484.476 2.34428 -2.73341 0
M  V30 5159 C 484.329 1.73466 -4.15006 0
M  V30 5160 C 485.648 3.36073 -2.84154 0
M  V30 5161 H 482.767 0.459924 -0.575881 0
M  V30 5162 H 485.409 0.568587 -1.81293 0
M  V30 5163 H 483.559 2.94146 -2.53792 0
M  V30 5164 H 485.231 1.17661 -4.46042 0
M  V30 5165 H 483.474 1.03921 -4.21168 0
M  V30 5166 H 484.145 2.51426 -4.91415 0
M  V30 5167 H 486.621 2.86332 -3.01916 0
M  V30 5168 H 485.497 4.08703 -3.66406 0
M  V30 5169 H 485.758 3.97725 -1.93048 0
M  V30 5170 N 484.817 1.37938 0.762283 0
M  V30 5171 C 486.064 1.33668 1.52115 0
M  V30 5172 C 486.392 -0.0759538 1.94352 0
M  V30 5173 O 485.647 -1.05121 1.6507 0
M  V30 5174 C 485.946 2.23042 2.79261 0
M  V30 5175 C 485.612 3.71159 2.56031 0
M  V30 5176 C 484.274 4.11523 2.49404 0
M  V30 5177 C 486.626 4.64955 2.35513 0
M  V30 5178 C 483.954 5.43784 2.20263 0
M  V30 5179 C 486.306 5.97464 2.07894 0
M  V30 5180 C 484.97 6.36922 1.99718 0
M  V30 5181 H 484.24 0.489127 0.556629 0
M  V30 5182 H 486.887 1.70224 0.877262 0
M  V30 5183 H 485.192 1.79512 3.48256 0
M  V30 5184 H 486.889 2.17047 3.37182 0
M  V30 5185 H 483.479 3.39153 2.62056 0
M  V30 5186 H 487.663 4.34623 2.39617 0
M  V30 5187 H 482.919 5.73307 2.12435 0
M  V30 5188 H 487.093 6.6969 1.91019 0
M  V30 5189 H 484.72 7.39331 1.76902 0
M  V30 5190 N 486.295 -0.989507 1.22664 0
M  V30 5191 C 487.706 -1.54406 1.04955 0
M  V30 5192 C 488.057 -1.92366 -0.385951 0
M  V30 5193 O 487.182 -1.75111 -1.27142 0
M  V30 5194 C 487.777 -2.80578 1.89899 0
M  V30 5195 C 486.336 -3.32464 1.76478 0
M  V30 5196 C 485.483 -2.05524 1.86159 0
M  V30 5197 H 488.434 -0.810211 1.3646 0
M  V30 5198 H 488.455 -3.53075 1.4184 0
M  V30 5199 H 487.967 -2.52918 2.94371 0
M  V30 5200 H 486.068 -3.65024 0.747528 0
M  V30 5201 H 486.181 -4.02838 2.59342 0
M  V30 5202 H 484.545 -2.19241 1.29636 0
M  V30 5203 H 485.328 -1.80258 2.92168 0
M  V30 5204 N 487.773 -1.03688 -1.18687 0
M  V30 5205 C 489.021 -0.736572 -1.88199 0
M  V30 5206 C 489.342 0.737665 -1.80509 0
M  V30 5207 O 488.612 1.53204 -1.22088 0
M  V30 5208 H 487.192 -0.269466 -0.696704 0
M  V30 5209 H 489.854 -1.31282 -1.44052 0
M  V30 5210 H 488.95 -1.03802 -2.94332 0
M  V30 5211 N 489.251 1.34841 -0.815825 0
M  V30 5212 C 490.476 2.03261 -0.41226 0
M  V30 5213 C 490.901 1.61055 0.971751 0
M  V30 5214 O 490.259 0.7917 1.63101 0
M  V30 5215 C 490.307 3.56914 -0.514289 0
M  V30 5216 O 489.411 4.09728 0.468675 0
M  V30 5217 H 488.752 0.641664 -0.170771 0
M  V30 5218 H 491.282 1.72241 -1.10427 0
M  V30 5219 H 491.292 4.06156 -0.387457 0
M  V30 5220 H 489.967 3.86982 -1.52375 0
M  V30 5221 H 488.544 3.71681 0.301316 0
M  V30 5222 N 490.729 0.570148 1.46925 0
M  V30 5223 C 491.677 -0.183181 2.31878 0
M  V30 5224 C 492.671 -0.896721 1.43719 0
M  V30 5225 O 493.877 -0.816536 1.60414 0
M  V30 5226 H 490.252 -0.077944 0.74795 0
M  V30 5227 H 492.223 0.552312 2.93244 0
M  V30 5228 C 490.972 -1.19172 3.2664 0
M  V30 5229 H 490.295 -0.652088 3.94446 0
M  V30 5230 H 491.735 -1.68946 3.88887 0
M  V30 5231 C 490.194 -2.24627 2.51086 0
M  V30 5232 O 490.724 -3.31773 2.26472 0
M  V30 5233 N 488.93 -1.98898 2.11867 0
M  V30 5234 H 488.477 -1.11777 2.32086 0
M  V30 5235 H 488.435 -2.6967 1.61634 0
M  V30 5236 N 492.207 -1.54576 0.307264 0
M  V30 5237 C 493.117 -2.27435 -0.57536 0
M  V30 5238 C 494.133 -1.31183 -1.14311 0
M  V30 5239 O 495.309 -1.64175 -1.16656 0
M  V30 5240 C 492.374 -3.00566 -1.72803 0
M  V30 5241 C 491.435 -4.12369 -1.19373 0
M  V30 5242 C 490.668 -4.82003 -2.29147 0
M  V30 5243 O 490.891 -4.51038 -3.49171 0
M  V30 5244 O 489.825 -5.69271 -1.95485 0
M  V30 5245 H 493.651 -3.03696 0.0158558 0
M  V30 5246 H 491.236 -1.49219 0.0735064 0
M  V30 5247 H 493.118 -3.46416 -2.39946 0
M  V30 5248 H 491.793 -2.27195 -2.30574 0
M  V30 5249 H 490.7 -3.70905 -0.487851 0
M  V30 5250 H 492.033 -4.87736 -0.661376 0
M  V30 5251 N 493.685 -0.035106 -1.57561 0
M  V30 5252 C 494.595 0.960295 -2.14046 0
M  V30 5253 C 495.611 1.3529 -1.0942 0
M  V30 5254 O 496.787 1.43309 -1.41508 0
M  V30 5255 C 493.852 2.22214 -2.66124 0
M  V30 5256 C 492.913 1.8894 -3.85487 0
M  V30 5257 C 492.146 3.09109 -4.35072 0
M  V30 5258 O 492.369 4.21963 -3.83802 0
M  V30 5259 O 491.303 2.91058 -5.26848 0
M  V30 5260 H 495.129 0.509983 -2.99387 0
M  V30 5261 H 492.714 0.185853 -1.48239 0
M  V30 5262 H 494.596 2.96279 -2.99661 0
M  V30 5263 H 493.271 2.66414 -1.83862 0
M  V30 5264 H 492.178 1.12241 -3.56865 0
M  V30 5265 H 493.511 1.49551 -4.6893 0
M  V30 5266 N 495.163 1.55791 0.238111 0
M  V30 5267 C 496.11 1.9105 1.29493 0
M  V30 5268 C 497.08 0.765733 1.47397 0
M  V30 5269 O 498.265 1.02017 1.61236 0
M  V30 5270 C 495.405 2.21826 2.64362 0
M  V30 5271 C 494.518 3.49153 2.54394 0
M  V30 5272 C 493.653 3.69455 3.81676 0
M  V30 5273 C 492.692 4.90353 3.66361 0
M  V30 5274 N 491.829 5.07131 4.85554 0
M  V30 5275 H 496.669 2.81172 0.987233 0
M  V30 5276 H 494.206 1.39179 0.476203 0
M  V30 5277 H 496.164 2.37675 3.4288 0
M  V30 5278 H 494.794 1.34897 2.93262 0
M  V30 5279 H 493.846 3.41587 1.67399 0
M  V30 5280 H 495.158 4.37818 2.38991 0
M  V30 5281 H 494.312 3.85311 4.68636 0
M  V30 5282 H 493.051 2.7904 3.99985 0
M  V30 5283 H 492.056 4.74464 2.77784 0
M  V30 5284 H 493.281 5.82237 3.49538 0
M  V30 5285 H 491.227 4.19654 5.04209 0
M  V30 5286 H 491.144 5.89899 4.72816 0
M  V30 5287 H 492.412 5.27407 5.73988 0
M  V30 5288 N 496.642 -0.504142 1.49319 0
M  V30 5289 C 497.605 -1.5883 1.65244 0
M  V30 5290 C 498.605 -1.52009 0.524386 0
M  V30 5291 O 499.795 -1.55218 0.79077 0
M  V30 5292 C 496.927 -2.98481 1.64687 0
M  V30 5293 H 498.12 -1.4604 2.61939 0
M  V30 5294 H 495.673 -0.728144 1.38303 0
M  V30 5295 H 496.408 -3.16751 0.695644 0
M  V30 5296 H 496.193 -3.0484 2.46607 0
M  V30 5297 H 497.683 -3.77256 1.79075 0
M  V30 5298 N 498.12 -1.38341 -0.754957 0
M  V30 5299 C 499.05 -1.38176 -1.88227 0
M  V30 5300 C 500.031 -0.247873 -1.68284 0
M  V30 5301 O 501.216 -0.45075 -1.88896 0
M  V30 5302 C 498.346 -1.20471 -3.25736 0
M  V30 5303 C 497.3 -2.3105 -3.60278 0
M  V30 5304 C 496.626 -1.98452 -4.96509 0
M  V30 5305 C 497.926 -3.73305 -3.65295 0
M  V30 5306 H 499.62 -2.32512 -1.88622 0
M  V30 5307 H 497.166 -1.1192 -0.906082 0
M  V30 5308 H 499.119 -1.18982 -4.04254 0
M  V30 5309 H 497.843 -0.225965 -3.25817 0
M  V30 5310 H 496.502 -2.31723 -2.84078 0
M  V30 5311 H 496.15 -0.990641 -4.93148 0
M  V30 5312 H 495.85 -2.7251 -5.20588 0
M  V30 5313 H 497.374 -1.98578 -5.77407 0
M  V30 5314 H 498.788 -3.7467 -4.3393 0
M  V30 5315 H 497.185 -4.46557 -4.00883 0
M  V30 5316 H 498.255 -4.05719 -2.65556 0
M  V30 5317 N 499.598 0.982988 -1.23187 0
M  V30 5318 C 500.561 2.05649 -1.01198 0
M  V30 5319 C 501.561 1.6078 0.0252464 0
M  V30 5320 O 502.751 1.72878 -0.214243 0
M  V30 5321 C 499.883 3.36744 -0.530656 0
M  V30 5322 H 501.076 2.2659 -1.96461 0
M  V30 5323 H 498.629 1.15602 -1.05195 0
M  V30 5324 H 499.364 3.21492 0.425873 0
M  V30 5325 H 499.149 3.7065 -1.2791 0
M  V30 5326 H 500.639 4.15705 -0.397366 0
M  V30 5327 N 501.076 1.04316 1.18135 0
M  V30 5328 C 502.006 0.657299 2.24058 0
M  V30 5329 C 502.987 -0.340678 1.66654 0
M  V30 5330 O 504.172 -0.220223 1.92947 0
M  V30 5331 C 501.302 0.0220715 3.47293 0
M  V30 5332 C 500.256 0.943857 4.17463 0
M  V30 5333 C 499.582 0.172973 5.3442 0
M  V30 5334 C 500.882 2.26409 4.70677 0
M  V30 5335 H 502.576 1.5428 2.56589 0
M  V30 5336 H 500.122 0.743263 1.23335 0
M  V30 5337 H 502.075 -0.259607 4.206 0
M  V30 5338 H 500.799 -0.898323 3.14003 0
M  V30 5339 H 499.458 1.20996 3.46057 0
M  V30 5340 H 499.106 -0.749907 4.97379 0
M  V30 5341 H 498.806 0.787098 5.82304 0
M  V30 5342 H 500.33 -0.101628 6.10515 0
M  V30 5343 H 501.744 2.04294 5.35665 0
M  V30 5344 H 500.141 2.8314 5.29105 0
M  V30 5345 H 501.211 2.90883 3.87962 0
M  V30 5346 N 502.554 -1.34406 0.822964 0
M  V30 5347 C 503.779 -2.0304 0.423034 0
M  V30 5348 C 504.204 -1.61568 -0.963196 0
M  V30 5349 O 503.562 -0.800339 -1.62678 0
M  V30 5350 C 503.61 -3.56636 0.53321 0
M  V30 5351 O 502.714 -4.09971 -0.446939 0
M  V30 5352 H 502.055 -0.64075 0.174171 0
M  V30 5353 H 504.585 -1.71653 1.11339 0
M  V30 5354 H 504.595 -4.05945 0.408991 0
M  V30 5355 H 503.27 -3.86168 1.54425 0
M  V30 5356 H 501.847 -3.71835 -0.281601 0
M  V30 5357 N 504.032 -0.577932 -1.46621 0
M  V30 5358 C 504.995 0.147805 -2.28723 0
M  V30 5359 C 505.995 0.823325 -1.38123 0
M  V30 5360 O 507.185 0.676011 -1.60548 0
M  V30 5361 C 504.317 1.21853 -3.18378 0
M  V30 5362 H 505.51 -0.573654 -2.94362 0
M  V30 5363 H 503.063 -0.335703 -1.52652 0
M  V30 5364 H 503.798 1.97173 -2.57475 0
M  V30 5365 H 503.583 0.738714 -3.85078 0
M  V30 5366 H 505.073 1.72768 -3.80186 0
M  V30 5367 N 505.51 1.54411 -0.315457 0
M  V30 5368 C 506.44 2.27002 0.547039 0
M  V30 5369 C 507.421 1.27492 1.12605 0
M  V30 5370 O 508.606 1.5629 1.15269 0
M  V30 5371 C 505.736 3.02171 1.71201 0
M  V30 5372 C 504.69 4.0895 1.26268 0
M  V30 5373 C 504.016 4.71915 2.51396 0
M  V30 5374 C 505.316 5.20891 0.383419 0
M  V30 5375 H 507.01 2.99343 -0.0584517 0
M  V30 5376 H 504.556 1.4397 -0.0295527 0
M  V30 5377 H 506.509 3.51681 2.32161 0
M  V30 5378 H 505.233 2.27433 2.34397 0
M  V30 5379 H 503.892 3.60312 0.676062 0
M  V30 5380 H 503.54 3.93801 3.12937 0
M  V30 5381 H 503.24 5.44039 2.22026 0
M  V30 5382 H 504.764 5.24195 3.13133 0
M  V30 5383 H 506.178 5.66206 0.899082 0
M  V30 5384 H 504.575 5.99821 0.182857 0
M  V30 5385 H 505.645 4.81324 -0.587821 0
M  V30 5386 N 506.988 0.0434614 1.5754 0
M  V30 5387 C 508.404 -0.313039 1.565 0
M  V30 5388 C 508.604 -1.71954 1.05043 0
M  V30 5389 O 507.66 -2.425 0.703564 0
M  V30 5390 C 508.973 -0.148544 3.00333 0
M  V30 5391 C 510.521 -0.220231 3.12224 0
M  V30 5392 C 510.996 -0.0843565 4.57922 0
M  V30 5393 N 512.487 -0.140881 4.62986 0
M  V30 5394 C 513.222 -0.0597443 5.73369 0
M  V30 5395 N 512.718 0.0733004 6.92761 0
M  V30 5396 N 514.511 -0.11477 5.61983 0
M  V30 5397 H 506.662 0.96303 1.89313 0
M  V30 5398 H 508.925 0.373164 0.871466 0
M  V30 5399 H 508.631 0.820894 3.41986 0
M  V30 5400 H 508.505 -0.912798 3.65989 0
M  V30 5401 H 510.892 -1.18014 2.70475 0
M  V30 5402 H 510.973 0.574646 2.49262 0
M  V30 5403 H 510.617 0.872192 5.00355 0
M  V30 5404 H 510.547 -0.898281 5.18882 0
M  V30 5405 H 513.038 -0.243273 3.77116 0
M  V30 5406 H 513.351 0.128128 7.72694 0
M  V30 5407 H 511.696 0.10828 6.94916 0
M  V30 5408 H 514.887 -0.217212 4.67596 0
M  V30 5409 H 515.06 -0.0480779 6.47982 0
M  V30 5410 N 508.466 -1.55915 -0.229846 0
M  V30 5411 C 509.712 -1.78807 -0.956868 0
M  V30 5412 C 510.045 -0.611687 -1.84315 0
M  V30 5413 O 509.32 0.389398 -1.90562 0
M  V30 5414 C 509.603 -3.11718 -1.80288 0
M  V30 5415 C 509.456 -4.3979 -0.943649 0
M  V30 5416 C 510.775 -3.40999 -2.78222 0
M  V30 5417 H 507.894 -0.6505 -0.346437 0
M  V30 5418 H 510.536 -1.88648 -0.226252 0
M  V30 5419 H 508.686 -3.03459 -2.42579 0
M  V30 5420 H 510.358 -4.60059 -0.338121 0
M  V30 5421 H 508.601 -4.33086 -0.248705 0
M  V30 5422 H 509.272 -5.29208 -1.5698 0
M  V30 5423 H 511.748 -3.49332 -2.26067 0
M  V30 5424 H 510.624 -4.35183 -3.34526 0
M  V30 5425 H 510.885 -2.62754 -3.55546 0
M  V30 5426 N 509.944 0.496216 -1.49584 0
M  V30 5427 C 510.874 1.60576 -1.69521 0
M  V30 5428 C 511.855 1.61169 -0.543933 0
M  V30 5429 O 513.04 1.77834 -0.78031 0
M  V30 5430 C 510.17 2.99038 -1.76616 0
M  V30 5431 C 509.124 3.13312 -2.91581 0
M  V30 5432 C 508.45 4.53172 -2.83794 0
M  V30 5433 C 509.75 2.92886 -4.32452 0
M  V30 5434 H 511.444 1.44146 -2.62416 0
M  V30 5435 H 508.99 0.692024 -1.26282 0
M  V30 5436 H 510.943 3.76564 -1.8915 0
M  V30 5437 H 509.667 3.16568 -0.80324 0
M  V30 5438 H 508.326 2.38213 -2.78658 0
M  V30 5439 H 507.974 4.67585 -1.854 0
M  V30 5440 H 507.674 4.63662 -3.60958 0
M  V30 5441 H 509.198 5.32752 -2.98342 0
M  V30 5442 H 510.612 3.60178 -4.46032 0
M  V30 5443 H 509.009 3.14844 -5.10875 0
M  V30 5444 H 510.079 1.88966 -4.46565 0
M  V30 5445 N 511.423 1.38739 0.74761 0
M  V30 5446 C 512.839 1.20067 1.05148 0
M  V30 5447 C 513.039 0.0534835 2.01429 0
M  V30 5448 O 512.095 -0.59886 2.45296 0
M  V30 5449 C 513.408 2.52957 1.62584 0
M  V30 5450 C 514.956 2.59692 1.74726 0
M  V30 5451 C 515.431 3.92772 2.35573 0
M  V30 5452 N 516.922 3.94343 2.42997 0
M  V30 5453 C 517.657 4.9408 2.90985 0
M  V30 5454 N 517.153 6.04214 3.38965 0
M  V30 5455 N 518.946 4.81466 2.9008 0
M  V30 5456 H 511.097 2.12121 0.108808 0
M  V30 5457 H 513.36 0.941491 0.110899 0
M  V30 5458 H 513.066 3.37389 0.993051 0
M  V30 5459 H 512.94 2.71779 2.61565 0
M  V30 5460 H 515.327 1.75651 2.3713 0
M  V30 5461 H 515.408 2.44731 0.744326 0
M  V30 5462 H 515.052 4.77238 1.738 0
M  V30 5463 H 514.982 4.05046 3.36519 0
M  V30 5464 H 517.473 3.14799 2.0907 0
M  V30 5465 H 517.786 6.76241 3.74056 0
M  V30 5466 H 516.131 6.07825 3.37007 0
M  V30 5467 H 519.322 3.94535 2.51912 0
M  V30 5468 H 519.495 5.59344 3.27166 0
M  V30 5469 N 512.901 -0.976442 1.23707 0
M  V30 5470 C 514.149 -1.71487 1.06942 0
M  V30 5471 C 514.47 -1.9098 -0.393897 0
M  V30 5472 O 513.74 -1.48128 -1.28198 0
M  V30 5473 H 512.32 -0.635425 0.392739 0
M  V30 5474 H 514.982 -1.17515 1.55487 0
M  V30 5475 H 514.078 -2.70286 1.56051 0
M  V30 5476 N 514.379 -1.04941 -1.1758 0
M  V30 5477 C 515.289 -0.658826 -2.25159 0
M  V30 5478 C 516.305 0.318941 -1.71052 0
M  V30 5479 O 517.481 0.171669 -2.00667 0
M  V30 5480 C 514.546 -0.0369522 -3.4668 0
M  V30 5481 C 513.607 -1.06484 -4.15884 0
M  V30 5482 C 512.84 -0.472551 -5.31604 0
M  V30 5483 O 513.063 0.718736 -5.65854 0
M  V30 5484 O 511.997 -1.20557 -5.89703 0
M  V30 5485 H 515.823 -1.55533 -2.60851 0
M  V30 5486 H 513.408 -0.820819 -1.24832 0
M  V30 5487 H 515.29 0.308784 -4.20267 0
M  V30 5488 H 513.965 0.833238 -3.12792 0
M  V30 5489 H 512.872 -1.46253 -3.44327 0
M  V30 5490 H 514.205 -1.9061 -4.53794 0
M  V30 5491 N 515.857 1.33968 -0.830081 0
M  V30 5492 C 516.767 2.33164 -0.259207 0
M  V30 5493 C 517.783 1.62951 0.610164 0
M  V30 5494 O 518.959 1.94668 0.516369 0
M  V30 5495 C 516.024 3.42088 0.563598 0
M  V30 5496 C 515.085 4.28037 -0.329014 0
M  V30 5497 C 514.318 5.3176 0.454616 0
M  V30 5498 O 514.541 5.44876 1.6872 0
M  V30 5499 O 513.475 6.01669 -0.166794 0
M  V30 5500 H 517.301 2.83832 -1.08041 0
M  V30 5501 H 514.886 1.37154 -0.59239 0
M  V30 5502 H 516.768 4.08581 1.03147 0
M  V30 5503 H 515.443 2.93651 1.36201 0
M  V30 5504 H 514.35 3.64443 -0.844538 0
M  V30 5505 H 515.683 4.79934 -1.09196 0
M  V30 5506 N 517.335 0.585699 1.46312 0
M  V30 5507 C 518.282 -0.145835 2.30339 0
M  V30 5508 C 519.252 -0.881215 1.40797 0
M  V30 5509 O 520.437 -0.871293 1.69744 0
M  V30 5510 C 517.577 -1.15161 3.25318 0
M  V30 5511 C 516.69 -0.419367 4.2996 0
M  V30 5512 C 515.825 -1.41293 5.12064 0
M  V30 5513 C 514.864 -0.667261 6.08452 0
M  V30 5514 N 514.001 -1.60903 6.83414 0
M  V30 5515 H 518.841 0.576755 2.92365 0
M  V30 5516 H 516.378 0.296237 1.44086 0
M  V30 5517 H 518.336 -1.74763 3.78832 0
M  V30 5518 H 516.966 -1.84188 2.65094 0
M  V30 5519 H 516.018 0.291751 3.7928 0
M  V30 5520 H 517.33 0.163433 4.98532 0
M  V30 5521 H 516.484 -2.08167 5.6987 0
M  V30 5522 H 515.223 -2.02966 4.43459 0
M  V30 5523 H 514.228 0.0152356 5.49798 0
M  V30 5524 H 515.453 -0.0558817 6.79077 0
M  V30 5525 H 513.399 -2.21381 6.17516 0
M  V30 5526 H 513.316 -1.07911 7.48259 0
M  V30 5527 H 514.584 -2.26802 7.45775 0
M  V30 5528 N 518.813 -1.54241 0.323641 0
M  V30 5529 C 520.224 -1.85975 -0.164405 0
M  V30 5530 C 520.575 -1.24529 -1.51615 0
M  V30 5531 O 519.7 -0.551351 -2.09258 0
M  V30 5532 C 520.295 -3.37424 -0.305091 0
M  V30 5533 C 518.854 -3.69107 -0.737358 0
M  V30 5534 C 518.001 -2.76942 0.140884 0
M  V30 5535 H 520.952 -1.49088 0.543922 0
M  V30 5536 H 520.973 -3.63147 -1.13598 0
M  V30 5537 H 520.485 -3.82116 0.678876 0
M  V30 5538 H 518.586 -3.29947 -1.73107 0
M  V30 5539 H 518.699 -4.76035 -0.541053 0
M  V30 5540 H 517.063 -2.51795 -0.383572 0
M  V30 5541 H 517.846 -3.24461 1.12162 0
M  V30 5542 N 520.291 -0.0518155 -1.57515 0
M  V30 5543 C 521.238 0.922352 -2.11569 0
M  V30 5544 C 522.208 1.30842 -1.02321 0
M  V30 5545 O 523.393 1.39778 -1.29872 0
M  V30 5546 C 520.533 2.19167 -2.6657 0
M  V30 5547 C 519.646 1.86003 -3.89906 0
M  V30 5548 C 518.781 3.07398 -4.33221 0
M  V30 5549 C 517.82 2.70158 -5.49255 0
M  V30 5550 N 516.957 3.84248 -5.8762 0
M  V30 5551 H 521.797 0.454506 -2.94514 0
M  V30 5552 H 519.334 0.212718 -1.45554 0
M  V30 5553 H 521.292 2.93443 -2.96559 0
M  V30 5554 H 519.922 2.63528 -1.86421 0
M  V30 5555 H 518.974 1.01874 -3.66505 0
M  V30 5556 H 520.286 1.54592 -4.74239 0
M  V30 5557 H 519.44 3.89972 -4.64765 0
M  V30 5558 H 518.179 3.41988 -3.477 0
M  V30 5559 H 517.184 1.86001 -5.17382 0
M  V30 5560 H 518.409 2.36759 -6.36492 0
M  V30 5561 H 516.355 4.18638 -5.05053 0
M  V30 5562 H 516.272 3.56538 -6.66646 0
M  V30 5563 H 517.54 4.6746 -6.2378 0
M  V30 5564 N 521.769 1.56035 0.221574 0
M  V30 5565 C 522.717 1.93269 1.29421 0
M  V30 5566 C 523.711 0.814727 1.48521 0
M  V30 5567 O 524.917 0.999559 1.49696 0
M  V30 5568 H 521.292 0.614188 0.43391 0
M  V30 5569 H 523.263 2.82773 0.952987 0
M  V30 5570 C 522.012 2.26573 2.63742 0
M  V30 5571 H 521.335 3.12112 2.49853 0
M  V30 5572 H 522.775 2.5651 3.37607 0
M  V30 5573 C 521.234 1.09086 3.1875 0
M  V30 5574 O 521.764 0.351985 4.00155 0
M  V30 5575 N 519.97 0.874693 2.77124 0
M  V30 5576 H 519.517 1.47726 2.11033 0
M  V30 5577 H 519.475 0.0903349 3.1427 0
M  V30 5578 N 523.247 -0.488276 1.49845 0
M  V30 5579 C 524.477 -1.26344 1.63465 0
M  V30 5580 C 524.885 -1.86637 0.310379 0
M  V30 5581 O 524.228 -1.69184 -0.715712 0
M  V30 5582 C 524.29 -2.42407 2.65479 0
M  V30 5583 C 523.954 -2.02886 4.09495 0
M  V30 5584 C 524.951 -1.56124 4.95904 0
M  V30 5585 C 522.636 -2.12131 4.55308 0
M  V30 5586 C 524.63 -1.19129 6.26169 0
M  V30 5587 C 522.317 -1.74747 5.85582 0
M  V30 5588 C 523.315 -1.28322 6.70837 0
M  V30 5589 O 523.003 -0.914491 7.98682 0
M  V30 5590 H 522.735 -0.388921 0.552916 0
M  V30 5591 H 525.289 -0.591288 1.96705 0
M  V30 5592 H 523.519 -3.12739 2.27445 0
M  V30 5593 H 525.208 -3.04409 2.68495 0
M  V30 5594 H 525.974 -1.48417 4.61733 0
M  V30 5595 H 521.853 -2.47217 3.89107 0
M  V30 5596 H 525.397 -0.828211 6.92666 0
M  V30 5597 H 521.294 -1.82109 6.19279 0
M  V30 5598 H 522.062 -1.04485 8.11804 0
M  V30 5599 N 524.725 -1.39134 -0.740242 0
M  V30 5600 C 525.95 -1.39518 -1.53459 0
M  V30 5601 C 526.375 0.00968883 -1.88098 0
M  V30 5602 O 525.733 0.995312 -1.51536 0
M  V30 5603 C 525.781 -2.26981 -2.802 0
M  V30 5604 O 524.885 -1.69609 -3.75908 0
M  V30 5605 H 524.226 -0.475328 -0.463637 0
M  V30 5606 H 526.756 -1.83064 -0.913717 0
M  V30 5607 H 526.766 -2.41309 -3.28989 0
M  V30 5608 H 525.441 -3.29081 -2.5432 0
M  V30 5609 H 524.018 -1.64495 -3.34658 0
M  V30 5610 N 526.204 0.969867 -1.24223 0
M  V30 5611 C 527.114 2.09806 -1.0497 0
M  V30 5612 C 528.13 1.73998 0.00886455 0
M  V30 5613 O 529.306 2.00513 -0.188848 0
M  V30 5614 C 526.371 3.40467 -0.654452 0
M  V30 5615 C 525.432 3.90236 -1.78926 0
M  V30 5616 C 524.665 5.14662 -1.41277 0
M  V30 5617 O 524.888 5.69602 -0.301632 0
M  V30 5618 O 523.822 5.58761 -2.23763 0
M  V30 5619 H 527.648 2.28942 -1.99548 0
M  V30 5620 H 525.233 1.08197 -1.03023 0
M  V30 5621 H 527.115 4.19039 -0.445452 0
M  V30 5622 H 525.79 3.22636 0.262216 0
M  V30 5623 H 524.697 3.12735 -2.05299 0
M  V30 5624 H 526.03 4.1254 -2.68462 0
M  V30 5625 N 527.682 1.05563 1.17022 0
M  V30 5626 C 528.592 0.670758 2.24807 0
M  V30 5627 C 529.608 -0.309865 1.71219 0
M  V30 5628 O 530.784 -0.161025 2.00755 0
M  V30 5629 C 527.849 0.055337 3.46656 0
M  V30 5630 C 526.91 1.08688 4.15314 0
M  V30 5631 C 526.143 0.500736 5.31346 0
M  V30 5632 O 526.366 -0.688718 5.66227 0
M  V30 5633 O 525.3 1.23683 5.89055 0
M  V30 5634 H 529.126 1.56914 2.60023 0
M  V30 5635 H 526.711 0.827428 1.24395 0
M  V30 5636 H 528.593 -0.286492 4.20425 0
M  V30 5637 H 527.268 -0.816638 3.13229 0
M  V30 5638 H 526.175 1.48077 3.43546 0
M  V30 5639 H 527.508 1.93014 4.52777 0
M  V30 5640 N 529.16 -1.33526 0.837174 0
M  V30 5641 C 530.385 -2.0258 0.444545 0
M  V30 5642 C 530.81 -1.6258 -0.946006 0
M  V30 5643 O 530.168 -0.817548 -1.6182 0
M  V30 5644 C 530.216 -3.5605 0.571006 0
M  V30 5645 O 529.32 -4.10422 -0.403431 0
M  V30 5646 H 528.661 -0.638866 0.180958 0
M  V30 5647 H 531.191 -1.70462 1.13154 0
M  V30 5648 H 531.201 -4.05488 0.452024 0
M  V30 5649 H 529.876 -3.84509 1.58512 0
M  V30 5650 H 528.453 -3.72113 -0.242147 0
M  V30 5651 N 530.638 -0.59345 -1.46 0
M  V30 5652 C 532.054 -0.255965 -1.57534 0
M  V30 5653 C 532.254 1.24167 -1.58697 0
M  V30 5654 O 531.31 2.02398 -1.50968 0
M  V30 5655 C 532.623 -0.91466 -2.86451 0
M  V30 5656 C 534.171 -0.889253 -3.00102 0
M  V30 5657 C 534.646 -1.52769 -4.3177 0
M  V30 5658 N 536.137 -1.49253 -4.38495 0
M  V30 5659 C 536.872 -1.9558 -5.39014 0
M  V30 5660 N 536.368 -2.49929 -6.46148 0
M  V30 5661 N 538.161 -1.86432 -5.30282 0
M  V30 5662 H 530.312 -1.56604 -1.43489 0
M  V30 5663 H 532.575 -0.655207 -0.685133 0
M  V30 5664 H 532.281 -1.96861 -2.91442 0
M  V30 5665 H 532.155 -0.429356 -3.74748 0
M  V30 5666 H 534.542 0.156111 -2.94687 0
M  V30 5667 H 534.623 -1.41268 -2.13253 0
M  V30 5668 H 534.267 -2.57231 -4.37944 0
M  V30 5669 H 534.197 -0.979398 -5.17412 0
M  V30 5670 H 536.688 -1.09536 -3.61677 0
M  V30 5671 H 537.001 -2.83109 -7.19075 0
M  V30 5672 H 535.346 -2.53961 -6.46938 0
M  V30 5673 H 538.537 -1.43722 -4.4549 0
M  V30 5674 H 538.71 -2.22852 -6.08474 0
M  V30 5675 N 532.116 1.54067 -0.331816 0
M  V30 5676 C 533.532 1.59587 0.0205388 0
M  V30 5677 C 533.732 1.34813 1.49759 0
M  V30 5678 O 532.788 1.13661 2.25471 0
M  V30 5679 C 534.101 2.97959 -0.405103 0
M  V30 5680 C 535.649 3.10964 -0.356454 0
M  V30 5681 C 536.124 4.51694 -0.757384 0
M  V30 5682 N 537.615 4.57709 -0.71111 0
M  V30 5683 C 538.35 5.64729 -0.993427 0
M  V30 5684 N 537.846 6.79652 -1.3433 0
M  V30 5685 N 539.639 5.54546 -0.918442 0
M  V30 5686 H 531.79 1.68426 -1.29407 0
M  V30 5687 H 534.053 0.78819 -0.526745 0
M  V30 5688 H 533.759 3.21115 -1.43451 0
M  V30 5689 H 533.633 3.76524 0.225692 0
M  V30 5690 H 536.02 2.87538 0.663763 0
M  V30 5691 H 536.101 2.34484 -1.02229 0
M  V30 5692 H 535.745 4.75853 -1.77555 0
M  V30 5693 H 535.675 5.26555 -0.0691444 0
M  V30 5694 H 538.166 3.75176 -0.452883 0
M  V30 5695 H 538.479 7.57221 -1.54388 0
M  V30 5696 H 536.824 6.81128 -1.38164 0
M  V30 5697 H 540.015 4.63641 -0.644536 0
M  V30 5698 H 540.188 6.37861 -1.14181 0
M  V30 5699 N 533.594 0.0601682 1.57485 0
M  V30 5700 C 534.84 -0.606552 1.94146 0
M  V30 5701 C 535.195 -1.67918 0.939225 0
M  V30 5702 O 534.488 -1.91558 -0.0402649 0
M  V30 5703 C 534.682 -1.23831 3.35262 0
M  V30 5704 C 534.511 -0.228408 4.4912 0
M  V30 5705 C 533.281 0.182813 5.04969 0
M  V30 5706 C 535.479 0.52975 5.11564 0
M  V30 5707 N 533.461 1.18464 6.02362 0
M  V30 5708 C 534.832 1.38439 6.04346 0
M  V30 5709 C 536.887 0.587084 4.94427 0
M  V30 5710 C 535.59 2.29125 6.81832 0
M  V30 5711 C 537.616 1.4814 5.72546 0
M  V30 5712 C 536.978 2.32375 6.64967 0
M  V30 5713 H 533.077 -0.193328 0.757726 0
M  V30 5714 H 535.661 0.1346 1.94234 0
M  V30 5715 H 533.832 -1.94944 3.35933 0
M  V30 5716 H 535.564 -1.86456 3.59188 0
M  V30 5717 H 532.319 -0.197968 4.73186 0
M  V30 5718 H 532.743 1.68271 6.55754 0
M  V30 5719 H 537.385 -0.049944 4.22771 0
M  V30 5720 H 535.103 2.93868 7.52773 0
M  V30 5721 H 538.689 1.53045 5.6131 0
M  V30 5722 H 537.569 3.00454 7.2436 0
M  V30 5723 N 535.072 -1.5615 -0.213296 0
M  V30 5724 C 536.488 -1.49327 -0.56336 0
M  V30 5725 C 536.688 -0.756826 -1.86747 0
M  V30 5726 O 535.744 -0.299866 -2.50713 0
M  V30 5727 C 537.057 -2.9392 -0.634944 0
M  V30 5728 C 538.605 -3.04487 -0.725013 0
M  V30 5729 C 539.08 -4.50456 -0.82787 0
M  V30 5730 N 540.571 -4.54533 -0.891876 0
M  V30 5731 C 541.306 -5.64766 -0.991315 0
M  V30 5732 N 540.802 -6.84733 -1.05419 0
M  V30 5733 N 542.595 -5.52637 -1.02709 0
M  V30 5734 H 534.746 -2.02453 0.642366 0
M  V30 5735 H 537.009 -0.920548 0.226487 0
M  V30 5736 H 536.715 -3.50783 0.253859 0
M  V30 5737 H 536.589 -3.46274 -1.49579 0
M  V30 5738 H 538.976 -2.47685 -1.60425 0
M  V30 5739 H 539.057 -2.55289 0.161669 0
M  V30 5740 H 538.701 -5.07878 0.0469464 0
M  V30 5741 H 538.631 -4.97369 -1.73009 0
M  V30 5742 H 541.122 -3.68141 -0.85327 0
M  V30 5743 H 541.435 -7.64493 -1.13007 0
M  V30 5744 H 539.78 -6.87427 -1.02318 0
M  V30 5745 H 542.971 -4.5784 -0.974687 0
M  V30 5746 H 543.144 -6.38576 -1.10113 0
M  V30 5747 N 536.55 0.480323 -1.50102 0
M  V30 5748 C 537.46 1.60547 -1.71061 0
M  V30 5749 C 538.476 1.63564 -0.593529 0
M  V30 5750 O 539.652 1.81604 -0.870751 0
M  V30 5751 C 536.717 2.96814 -1.79171 0
M  V30 5752 C 535.778 3.04259 -3.02861 0
M  V30 5753 C 535.011 4.34027 -3.10574 0
M  V30 5754 O 535.234 5.24009 -2.25323 0
M  V30 5755 O 534.168 4.46873 -4.03223 0
M  V30 5756 H 537.994 1.45788 -2.6642 0
M  V30 5757 H 535.579 0.658838 -1.34088 0
M  V30 5758 H 537.461 3.77765 -1.86738 0
M  V30 5759 H 536.136 3.11791 -0.869947 0
M  V30 5760 H 535.043 2.22419 -3.008 0
M  V30 5761 H 536.376 2.94216 -3.94586 0
M  V30 5762 N 538.028 1.39524 0.732853 0
M  V30 5763 C 539.444 1.21176 1.03868 0
M  V30 5764 C 539.644 0.0748448 2.01361 0
M  V30 5765 O 538.7 -0.57281 2.45917 0
M  V30 5766 C 540.013 2.54667 1.59892 0
M  V30 5767 C 541.561 2.6153 1.71962 0
M  V30 5768 C 542.036 3.95248 2.31394 0
M  V30 5769 N 543.527 3.96899 2.38801 0
M  V30 5770 C 544.262 4.97138 2.85729 0
M  V30 5771 N 543.758 6.07775 3.32537 0
M  V30 5772 N 545.551 4.84516 2.84957 0
M  V30 5773 H 537.702 2.12225 0.086304 0
M  V30 5774 H 539.965 0.942614 0.100907 0
M  V30 5775 H 539.671 3.38423 0.95721 0
M  V30 5776 H 539.545 2.74538 2.58668 0
M  V30 5777 H 541.932 1.78156 2.35254 0
M  V30 5778 H 542.013 2.45507 0.718327 0
M  V30 5779 H 541.657 4.79054 1.68729 0
M  V30 5780 H 541.587 4.08593 3.32204 0
M  V30 5781 H 544.078 3.16998 2.05719 0
M  V30 5782 H 544.391 6.8017 3.66862 0
M  V30 5783 H 542.736 6.11366 3.30541 0
M  V30 5784 H 545.927 3.97185 2.47713 0
M  V30 5785 H 546.1 5.62783 3.21215 0
M  V30 5786 N 539.506 -0.963266 1.24736 0
M  V30 5787 C 540.736 -1.73913 1.11524 0
M  V30 5788 C 541.144 -1.86218 -0.334612 0
M  V30 5789 O 540.487 -1.3531 -1.24245 0
M  V30 5790 C 540.549 -3.17501 1.68622 0
M  V30 5791 C 540.213 -3.28655 3.17546 0
M  V30 5792 C 541.21 -3.13637 4.14642 0
M  V30 5793 C 538.895 -3.52753 3.5759 0
M  V30 5794 C 540.889 -3.2255 5.49764 0
M  V30 5795 C 538.576 -3.61303 4.92852 0
M  V30 5796 C 539.574 -3.46214 5.88748 0
M  V30 5797 O 539.262 -3.5443 7.2155 0
M  V30 5798 H 538.994 -0.552057 0.390139 0
M  V30 5799 H 541.548 -1.2177 1.65412 0
M  V30 5800 H 539.778 -3.70969 1.09172 0
M  V30 5801 H 541.467 -3.76914 1.50635 0
M  V30 5802 H 542.233 -2.94899 3.85045 0
M  V30 5803 H 538.112 -3.63561 2.83451 0
M  V30 5804 H 541.656 -3.1069 6.24594 0
M  V30 5805 H 537.553 -3.79556 5.22118 0
M  V30 5806 H 538.321 -3.71116 7.29531 0
M  V30 5807 N 540.985 -1.06182 -1.16461 0
M  V30 5808 C 542.262 -0.691364 -1.82974 0
M  V30 5809 C 542.642 0.827377 -1.9421 0
M  V30 5810 O 541.99 1.73723 -1.48434 0
M  V30 5811 C 542.2 -1.39199 -3.20038 0
M  V30 5812 C 543.548 -1.53647 -3.95825 0
M  V30 5813 O 544.572 -1.35181 -3.29552 0
M  V30 5814 O 543.431 -1.83932 -5.14618 0
M  V30 5815 H 540.525 -0.244605 -0.789998 0
M  V30 5816 H 543.071 -1.16203 -1.23673 0
M  V30 5817 H 541.843 -2.42766 -3.06888 0
M  V30 5818 H 541.466 -0.911335 -3.87015 0
M  V30 5819 N 542.463 1.3308 -0.844243 0
M  V30 5820 C 543.688 2.02341 -0.455282 0
M  V30 5821 C 544.113 1.6308 0.93737 0
M  V30 5822 O 543.471 0.826118 1.61385 0
M  V30 5823 C 543.519 3.55743 -0.58988 0
M  V30 5824 O 542.623 4.1063 0.38166 0
M  V30 5825 H 541.964 0.637898 -0.184343 0
M  V30 5826 H 544.494 1.6986 -1.14056 0
M  V30 5827 H 544.504 4.05243 -0.473522 0
M  V30 5828 H 543.179 3.83662 -1.60549 0
M  V30 5829 H 541.756 3.72236 0.22241 0
M  V30 5830 N 543.941 0.601185 1.45683 0
M  V30 5831 C 545.171 0.0999093 2.06358 0
M  V30 5832 C 545.579 -1.21831 1.44754 0
M  V30 5833 O 544.922 -1.75157 0.553695 0
M  V30 5834 C 544.984 -0.12085 3.59297 0
M  V30 5835 C 544.648 1.11459 4.432 0
M  V30 5836 C 545.645 2.03118 4.7858 0
M  V30 5837 C 543.33 1.34162 4.84051 0
M  V30 5838 C 545.324 3.15814 5.53661 0
M  V30 5839 C 543.011 2.4716 5.58888 0
M  V30 5840 C 544.009 3.37814 5.93608 0
M  V30 5841 O 543.697 4.48846 6.66928 0
M  V30 5842 H 543.429 0.0630316 0.673055 0
M  V30 5843 H 545.983 0.826982 1.88016 0
M  V30 5844 H 544.213 -0.902744 3.76015 0
M  V30 5845 H 545.902 -0.572925 4.01836 0
M  V30 5846 H 546.668 1.86801 4.47583 0
M  V30 5847 H 542.547 0.645018 4.56465 0
M  V30 5848 H 546.091 3.86596 5.8068 0
M  V30 5849 H 541.988 2.63432 5.89299 0
M  V30 5850 H 542.756 4.47446 6.85371 0
M  V30 5851 N 545.419 -1.53889 0.339982 0
M  V30 5852 C 546.349 -2.27843 -0.510856 0
M  V30 5853 C 547.33 -1.29267 -1.10563 0
M  V30 5854 O 548.515 -1.58104 -1.12768 0
M  V30 5855 C 545.645 -3.04857 -1.66372 0
M  V30 5856 C 544.599 -4.10907 -1.19746 0
M  V30 5857 C 543.925 -4.75855 -2.43857 0
M  V30 5858 C 545.225 -5.21435 -0.300501 0
M  V30 5859 H 546.919 -2.99212 0.106067 0
M  V30 5860 H 544.465 -1.43904 0.0524533 0
M  V30 5861 H 546.418 -3.5533 -2.26537 0
M  V30 5862 H 545.142 -2.31133 -2.30749 0
M  V30 5863 H 543.801 -3.61342 -0.618654 0
M  V30 5864 H 543.449 -3.9873 -3.06633 0
M  V30 5865 H 543.149 -5.47502 -2.13343 0
M  V30 5866 H 544.673 -5.2911 -3.04754 0
M  V30 5867 H 546.087 -5.67565 -0.80889 0
M  V30 5868 H 544.484 -6.00036 -0.0874076 0
M  V30 5869 H 545.554 -4.80328 0.664321 0
M  V30 5870 N 546.897 -0.0685191 -1.57451 0
M  V30 5871 C 548.174 0.642167 -1.84758 0
M  V30 5872 C 548.554 1.87991 -0.960344 0
M  V30 5873 O 547.902 2.28485 -0.0257894 0
M  V30 5874 C 548.112 0.982946 -3.34872 0
M  V30 5875 C 549.46 1.35784 -4.02303 0
M  V30 5876 O 550.484 1.07477 -3.39598 0
M  V30 5877 O 549.343 1.88681 -5.12895 0
M  V30 5878 H 546.437 0.318625 -0.763156 0
M  V30 5879 H 548.983 -0.0992015 -1.6941 0
M  V30 5880 H 547.755 0.10372 -3.91163 0
M  V30 5881 H 547.378 1.78119 -3.55471 0
M  V30 5882 N 548.375 1.56261 0.205012 0
M  V30 5883 C 549.623 1.79684 0.925096 0
M  V30 5884 C 549.944 0.63989 1.84202 0
M  V30 5885 O 549.214 -0.342345 1.92885 0
M  V30 5886 H 547.794 0.662774 0.344587 0
M  V30 5887 H 550.456 1.93734 0.212899 0
M  V30 5888 H 549.552 2.72467 1.52211 0
M  V30 5889 N 549.853 -0.472356 1.50355 0
M  V30 5890 C 551.102 -1.2213 1.60522 0
M  V30 5891 C 551.415 -1.9312 0.310466 0
M  V30 5892 O 552.621 -2.69936 0.291029 0
M  V30 5893 C 551.077 -2.21909 2.83345 0
M  V30 5894 C 550.685 -1.56727 4.19691 0
M  V30 5895 C 552.429 -2.97453 3.02856 0
M  V30 5896 C 550.336 -2.54785 5.33703 0
M  V30 5897 H 549.266 -0.459543 0.597776 0
M  V30 5898 H 551.917 -0.491922 1.76783 0
M  V30 5899 H 550.299 -2.98133 2.60639 0
M  V30 5900 H 551.473 -0.863007 4.52646 0
M  V30 5901 H 549.788 -0.934685 4.05774 0
M  V30 5902 H 552.385 -3.70838 3.85205 0
M  V30 5903 H 552.728 -3.56764 2.14534 0
M  V30 5904 H 553.261 -2.28342 3.25737 0
M  V30 5905 H 550 -2.00214 6.24175 0
M  V30 5906 H 549.52 -3.23367 5.05167 0
M  V30 5907 H 551.199 -3.16639 5.64224 0
M  V30 5908 N 551.331 -1.39911 -0.725443 0
M  V30 5909 C 552.261 -1.42138 -1.85254 0
M  V30 5910 C 553.242 -0.283513 -1.67721 0
M  V30 5911 O 554.427 -0.490717 -1.87898 0
M  V30 5912 C 551.557 -1.27354 -3.23107 0
M  V30 5913 C 550.511 -2.3864 -3.55296 0
M  V30 5914 C 549.837 -2.08939 -4.92188 0
M  V30 5915 C 551.137 -3.8097 -3.57295 0
M  V30 5916 H 552.831 -2.36461 -1.83648 0
M  V30 5917 H 550.377 -1.13817 -0.882138 0
M  V30 5918 H 552.33 -1.2753 -4.01639 0
M  V30 5919 H 551.054 -0.295025 -3.25265 0
M  V30 5920 H 549.713 -2.37696 -2.79099 0
M  V30 5921 H 549.361 -1.09502 -4.90936 0
M  V30 5922 H 549.061 -2.83491 -5.14691 0
M  V30 5923 H 550.585 -2.10781 -5.73065 0
M  V30 5924 H 551.999 -3.8379 -4.25885 0
M  V30 5925 H 550.396 -4.5496 -3.9132 0
M  V30 5926 H 551.466 -4.11261 -2.5689 0
M  V30 5927 N 552.809 0.956637 -1.25245 0
M  V30 5928 C 554.225 1.22733 -1.02023 0
M  V30 5929 C 554.425 1.99761 0.264186 0
M  V30 5930 O 553.481 2.32814 0.977436 0
M  V30 5931 C 554.794 2.00367 -2.24217 0
M  V30 5932 C 556.342 2.13418 -2.28958 0
M  V30 5933 C 556.817 2.9445 -3.50803 0
M  V30 5934 N 558.308 3.02029 -3.51187 0
M  V30 5935 C 559.043 3.65116 -4.42129 0
M  V30 5936 N 558.539 4.2983 -5.43339 0
M  V30 5937 N 560.332 3.62237 -4.29815 0
M  V30 5938 H 552.483 0.441282 -2.07765 0
M  V30 5939 H 554.746 0.257686 -0.912306 0
M  V30 5940 H 554.452 1.51165 -3.17556 0
M  V30 5941 H 554.326 3.01077 -2.27228 0
M  V30 5942 H 556.713 2.61819 -1.36143 0
M  V30 5943 H 556.794 1.1202 -2.29968 0
M  V30 5944 H 556.438 2.46741 -4.43939 0
M  V30 5945 H 556.368 3.9607 -3.47039 0
M  V30 5946 H 558.859 2.56007 -2.77973 0
M  V30 5947 H 559.172 4.75819 -6.08947 0
M  V30 5948 H 557.517 4.28465 -5.47214 0
M  V30 5949 H 560.708 3.10863 -3.49974 0
M  V30 5950 H 560.881 4.11117 -5.00886 0
M  V30 5951 O 554.326 1.1921 1.08956 0
M  V30 5952 H 555.017 0.939352 1.69399 0
M  V30 END ATOM
M  V30 BEGIN BOND
M  V30 END BOND
M  V30 END CTAB
M  END
$$$$
